# Generated by pormake.
# Topology cml, (3,6)-cn, num edge types: 1
# Building blocks:
#     Node 0, Type 0, BuildingBlock: KAKCAD_clean_linker_0, # of connection points: 3
#     Node 1, Type 0, BuildingBlock: KAKCAD_clean_linker_0, # of connection points: 3
#     Node 2, Type 0, BuildingBlock: KAKCAD_clean_linker_0, # of connection points: 3
#     Node 3, Type 0, BuildingBlock: KAKCAD_clean_linker_0, # of connection points: 3
#     Node 4, Type 0, BuildingBlock: KAKCAD_clean_linker_0, # of connection points: 3
#     Node 5, Type 0, BuildingBlock: KAKCAD_clean_linker_0, # of connection points: 3
#     Node 6, Type 0, BuildingBlock: KAKCAD_clean_linker_0, # of connection points: 3
#     Node 7, Type 0, BuildingBlock: KAKCAD_clean_linker_0, # of connection points: 3
#     Node 8, Type 1, BuildingBlock: IZENUY_clean_sbu_0, # of connection points: 6
#     Node 9, Type 1, BuildingBlock: IZENUY_clean_sbu_0, # of connection points: 6
#     Node 10, Type 1, BuildingBlock: IZENUY_clean_sbu_0, # of connection points: 6
#     Node 11, Type 1, BuildingBlock: IZENUY_clean_sbu_0, # of connection points: 6
#     Edge 12, Type (0, 1), BuildingBlock: TEMPAE_clean_linker_10, # of connection points: 2
#     Edge 13, Type (0, 1), BuildingBlock: TEMPAE_clean_linker_10, # of connection points: 2
#     Edge 14, Type (0, 1), BuildingBlock: TEMPAE_clean_linker_10, # of connection points: 2
#     Edge 15, Type (0, 1), BuildingBlock: TEMPAE_clean_linker_10, # of connection points: 2
#     Edge 16, Type (0, 1), BuildingBlock: TEMPAE_clean_linker_10, # of connection points: 2
#     Edge 17, Type (0, 1), BuildingBlock: TEMPAE_clean_linker_10, # of connection points: 2
#     Edge 18, Type (0, 1), BuildingBlock: TEMPAE_clean_linker_10, # of connection points: 2
#     Edge 19, Type (0, 1), BuildingBlock: TEMPAE_clean_linker_10, # of connection points: 2
#     Edge 20, Type (0, 1), BuildingBlock: TEMPAE_clean_linker_10, # of connection points: 2
#     Edge 21, Type (0, 1), BuildingBlock: TEMPAE_clean_linker_10, # of connection points: 2
#     Edge 22, Type (0, 1), BuildingBlock: TEMPAE_clean_linker_10, # of connection points: 2
#     Edge 23, Type (0, 1), BuildingBlock: TEMPAE_clean_linker_10, # of connection points: 2
#     Edge 24, Type (0, 1), BuildingBlock: TEMPAE_clean_linker_10, # of connection points: 2
#     Edge 25, Type (0, 1), BuildingBlock: TEMPAE_clean_linker_10, # of connection points: 2
#     Edge 26, Type (0, 1), BuildingBlock: TEMPAE_clean_linker_10, # of connection points: 2
#     Edge 27, Type (0, 1), BuildingBlock: TEMPAE_clean_linker_10, # of connection points: 2
#     Edge 28, Type (0, 1), BuildingBlock: TEMPAE_clean_linker_10, # of connection points: 2
#     Edge 29, Type (0, 1), BuildingBlock: TEMPAE_clean_linker_10, # of connection points: 2
#     Edge 30, Type (0, 1), BuildingBlock: TEMPAE_clean_linker_10, # of connection points: 2
#     Edge 31, Type (0, 1), BuildingBlock: TEMPAE_clean_linker_10, # of connection points: 2
#     Edge 32, Type (0, 1), BuildingBlock: TEMPAE_clean_linker_10, # of connection points: 2
#     Edge 33, Type (0, 1), BuildingBlock: TEMPAE_clean_linker_10, # of connection points: 2
#     Edge 34, Type (0, 1), BuildingBlock: TEMPAE_clean_linker_10, # of connection points: 2
#     Edge 35, Type (0, 1), BuildingBlock: TEMPAE_clean_linker_10, # of connection points: 2
# Relax obj value: 0.055
# Max RMSD: 0.070
# Mean RMSD: 0.067
data_MOF--net-cml--node1-IZENUY_clean_sbu_0--node2-KAKCAD_clean_linker_0--edge1-TEMPAE_clean_linker_10
_symmetry_space_group_name_H-M    P1
_symmetry_Int_Tables_number       1
_symmetry_cell_setting            triclinic
loop_
_symmetry_equiv_pos_as_xyz
'x, y, z'
_cell_length_a     43.897648
_cell_length_b     51.043749
_cell_length_c     47.349715
_cell_angle_alpha  89.935947
_cell_angle_beta   90.041344
_cell_angle_gamma 90.109061
loop_
_atom_site_label
_atom_site_type_symbol
_atom_site_fract_x
_atom_site_fract_y
_atom_site_fract_z
_atom_type_partial_charge
C0 C 0.3033 0.46714 0.94222 0.0
C1 C 0.33488 0.47171 0.94347 0.0
C2 C 0.29013 0.44678 0.95787 0.0
C3 C 0.30827 0.43067 0.97514 0.0
C4 C 0.33981 0.43533 0.97634 0.0
C5 C 0.3529 0.45563 0.96083 0.0
C6 C 0.29479 0.40869 0.99153 0.0
C7 C 0.27285 0.39221 0.97933 0.0
C8 C 0.26177 0.3702 0.99399 0.0
C9 C 0.27334 0.36456 0.02106 0.0
C10 C 0.29542 0.38082 0.03361 0.0
C11 C 0.30528 0.40322 0.0189 0.0
C12 C 0.30946 0.37395 0.06133 0.0
C13 C 0.29237 0.36215 0.08305 0.0
C14 C 0.34054 0.37903 0.06612 0.0
C15 C 0.35402 0.37301 0.09196 0.0
C16 C 0.33709 0.36106 0.11367 0.0
C17 C 0.23898 0.35266 0.98043 0.0
C18 C 0.21504 0.36319 0.9643 0.0
C19 C 0.24132 0.32529 0.98298 0.0
C20 C 0.22029 0.30887 0.96963 0.0
C21 C 0.19652 0.31941 0.95327 0.0
C22 C 0.19414 0.34678 0.95081 0.0
C23 C 0.30606 0.35566 0.10885 0.0
H24 H 0.28883 0.47912 0.92894 0.0
H25 H 0.26574 0.44378 0.95662 0.0
H26 H 0.35453 0.42307 0.98908 0.0
H27 H 0.37721 0.45887 0.96266 0.0
H28 H 0.26531 0.39591 0.9579 0.0
H29 H 0.32142 0.41647 0.0287 0.0
H30 H 0.26547 0.34727 0.03215 0.0
H31 H 0.26833 0.35814 0.08028 0.0
H32 H 0.35473 0.38754 0.04981 0.0
H33 H 0.37778 0.37803 0.09493 0.0
H34 H 0.21238 0.38419 0.96214 0.0
H35 H 0.25969 0.31648 0.99492 0.0
H36 H 0.29233 0.34625 0.12493 0.0
H37 H 0.17632 0.35557 0.93814 0.0
H38 H 0.22256 0.28789 0.97228 0.0
C39 C 0.70235 0.53178 0.44241 0.0
C40 C 0.67065 0.52771 0.44236 0.0
C41 C 0.7152 0.55217 0.45821 0.0
C42 C 0.69661 0.56886 0.47432 0.0
C43 C 0.66494 0.56484 0.47408 0.0
C44 C 0.65216 0.54448 0.45844 0.0
C45 C 0.7099 0.59057 0.49126 0.0
C46 C 0.73354 0.60616 0.48036 0.0
C47 C 0.74446 0.62783 0.49556 0.0
C48 C 0.73207 0.63369 0.52213 0.0
C49 C 0.70875 0.61808 0.53347 0.0
C50 C 0.69793 0.59655 0.518 0.0
C51 C 0.69478 0.62452 0.56105 0.0
C52 C 0.71286 0.62853 0.58514 0.0
C53 C 0.66298 0.62585 0.5635 0.0
C54 C 0.64942 0.63059 0.58962 0.0
C55 C 0.66732 0.63373 0.61404 0.0
C56 C 0.76759 0.64519 0.48279 0.0
C57 C 0.79575 0.63514 0.4741 0.0
C58 C 0.76107 0.67173 0.47823 0.0
C59 C 0.78219 0.68793 0.4647 0.0
C60 C 0.8106 0.67803 0.45596 0.0
C61 C 0.81719 0.65145 0.46113 0.0
C62 C 0.69926 0.63295 0.61144 0.0
H63 H 0.71721 0.51932 0.4301 0.0
H64 H 0.73971 0.55464 0.45809 0.0
H65 H 0.64988 0.57757 0.48585 0.0
H66 H 0.62771 0.54168 0.45929 0.0
H67 H 0.74253 0.60223 0.45947 0.0
H68 H 0.68015 0.58434 0.52695 0.0
H69 H 0.74021 0.65063 0.53372 0.0
H70 H 0.73746 0.62747 0.58376 0.0
H71 H 0.64855 0.62324 0.54513 0.0
H72 H 0.62481 0.63177 0.59062 0.0
H73 H 0.80123 0.61469 0.47755 0.0
H74 H 0.73926 0.67977 0.48447 0.0
H75 H 0.71375 0.63507 0.62981 0.0
H76 H 0.839 0.64318 0.45533 0.0
H77 H 0.77592 0.70808 0.46063 0.0
C78 C 0.66848 0.45429 0.94241 0.0
C79 C 0.66848 0.47864 0.95619 0.0
C80 C 0.68298 0.43271 0.95461 0.0
C81 C 0.69719 0.43499 0.98108 0.0
C82 C 0.69745 0.45941 0.99474 0.0
C83 C 0.68349 0.48115 0.98224 0.0
C84 C 0.7104 0.41159 0.99493 0.0
C85 C 0.73123 0.39564 0.98048 0.0
C86 C 0.74286 0.37282 0.99318 0.0
C87 C 0.73283 0.36586 0.02038 0.0
C88 C 0.71188 0.38154 0.03503 0.0
C89 C 0.7011 0.40459 0.02227 0.0
C90 C 0.70024 0.3733 0.06312 0.0
C91 C 0.69121 0.34722 0.06785 0.0
C92 C 0.69705 0.3916 0.08506 0.0
C93 C 0.68453 0.38411 0.11098 0.0
C94 C 0.67475 0.35818 0.11545 0.0
C95 C 0.76529 0.35609 0.97811 0.0
C96 C 0.76215 0.35088 0.94909 0.0
C97 C 0.78986 0.34486 0.99282 0.0
C98 C 0.81052 0.32856 0.97898 0.0
C99 C 0.80729 0.32319 0.95002 0.0
C100 C 0.78292 0.33463 0.9352 0.0
C101 C 0.67853 0.33976 0.09371 0.0
H102 H 0.6571 0.45196 0.92225 0.0
H103 H 0.68231 0.41404 0.94377 0.0
H104 H 0.70834 0.46162 0.01514 0.0
H105 H 0.68363 0.49972 0.99329 0.0
H106 H 0.73875 0.40132 0.95955 0.0
H107 H 0.68438 0.41653 0.0331 0.0
H108 H 0.74113 0.34804 0.03015 0.0
H109 H 0.69314 0.33271 0.05128 0.0
H110 H 0.70404 0.41179 0.08211 0.0
H111 H 0.68162 0.39882 0.12722 0.0
H112 H 0.74334 0.35901 0.93717 0.0
H113 H 0.79321 0.34872 0.01509 0.0
H114 H 0.67137 0.31961 0.09661 0.0
H115 H 0.77994 0.33112 0.91281 0.0
H116 H 0.8288 0.31985 0.99114 0.0
C117 C 0.30625 0.64748 0.60735 0.0
C118 C 0.33795 0.64601 0.61141 0.0
C119 C 0.29318 0.63959 0.58175 0.0
C120 C 0.31154 0.62994 0.5598 0.0
C121 C 0.34325 0.62899 0.5637 0.0
C122 C 0.35627 0.63686 0.58918 0.0
C123 C 0.29786 0.62028 0.53306 0.0
C124 C 0.27468 0.63436 0.51944 0.0
C125 C 0.26256 0.62568 0.49354 0.0
C126 C 0.27381 0.60243 0.48145 0.0
C127 C 0.29716 0.58826 0.49478 0.0
C128 C 0.30877 0.59719 0.52064 0.0
C129 C 0.31058 0.5647 0.48139 0.0
C130 C 0.2921 0.54464 0.47042 0.0
C131 C 0.34238 0.56203 0.48009 0.0
C132 C 0.35547 0.53961 0.46856 0.0
C133 C 0.33713 0.51915 0.4582 0.0
C134 C 0.23927 0.64166 0.47861 0.0
C135 C 0.21572 0.65388 0.49375 0.0
C136 C 0.24114 0.64572 0.44928 0.0
C137 C 0.22027 0.66199 0.43552 0.0
C138 C 0.19708 0.67461 0.45076 0.0
C139 C 0.19491 0.67018 0.48001 0.0
C140 C 0.30525 0.52201 0.459 0.0
H141 H 0.29156 0.65461 0.62401 0.0
H142 H 0.26866 0.64045 0.57939 0.0
H143 H 0.35806 0.62201 0.54705 0.0
H144 H 0.38071 0.63513 0.5917 0.0
H145 H 0.26694 0.65267 0.52847 0.0
H146 H 0.32633 0.58597 0.53125 0.0
H147 H 0.26483 0.5956 0.46144 0.0
H148 H 0.26751 0.54617 0.47129 0.0
H149 H 0.3572 0.57741 0.48788 0.0
H150 H 0.38008 0.53844 0.46757 0.0
H151 H 0.21345 0.65095 0.51631 0.0
H152 H 0.25919 0.63685 0.43702 0.0
H153 H 0.29047 0.50658 0.45132 0.0
H154 H 0.17751 0.67978 0.49244 0.0
H155 H 0.22236 0.66473 0.41292 0.0
C156 C 0.80412 0.97503 0.95778 0.0
C157 C 0.83504 0.97438 0.94982 0.0
C158 C 0.79064 0.95343 0.97113 0.0
C159 C 0.808 0.93108 0.97714 0.0
C160 C 0.83861 0.93019 0.96887 0.0
C161 C 0.85189 0.95145 0.95508 0.0
C162 C 0.79487 0.90861 0.99248 0.0
C163 C 0.7716 0.89357 0.98035 0.0
C164 C 0.76229 0.87011 0.9932 0.0
C165 C 0.77582 0.86214 0.0187 0.0
C166 C 0.79845 0.87756 0.03163 0.0
C167 C 0.80775 0.90083 0.01822 0.0
C168 C 0.81292 0.86924 0.05866 0.0
C169 C 0.79585 0.85667 0.07988 0.0
C170 C 0.84395 0.87429 0.06365 0.0
C171 C 0.85732 0.86777 0.08942 0.0
C172 C 0.84029 0.85539 0.11078 0.0
C173 C 0.73968 0.85313 0.97913 0.0
C174 C 0.71089 0.86287 0.97185 0.0
C175 C 0.74707 0.82714 0.97255 0.0
C176 C 0.72602 0.8111 0.95875 0.0
C177 C 0.69688 0.82058 0.95172 0.0
C178 C 0.68956 0.84668 0.95855 0.0
C179 C 0.80942 0.84967 0.10555 0.0
H180 H 0.79049 0.9924 0.95431 0.0
H181 H 0.76694 0.9544 0.97741 0.0
H182 H 0.85224 0.91293 0.973 0.0
H183 H 0.87544 0.94983 0.94854 0.0
H184 H 0.76195 0.89936 0.9602 0.0
H185 H 0.82517 0.91309 0.02767 0.0
H186 H 0.76893 0.84373 0.02816 0.0
H187 H 0.77184 0.85264 0.07694 0.0
H188 H 0.85808 0.88339 0.04767 0.0
H189 H 0.88098 0.87297 0.09269 0.0
H190 H 0.70474 0.88287 0.97688 0.0
H191 H 0.76935 0.81937 0.97767 0.0
H192 H 0.79564 0.83982 0.12128 0.0
H193 H 0.66722 0.85457 0.954 0.0
H194 H 0.7328 0.79136 0.95331 0.0
C195 C 0.1973 0.03517 0.43929 0.0
C196 C 0.16566 0.03086 0.44018 0.0
C197 C 0.21053 0.05542 0.45498 0.0
C198 C 0.19241 0.07181 0.47189 0.0
C199 C 0.16076 0.06769 0.47245 0.0
C200 C 0.14758 0.04742 0.45692 0.0
C201 C 0.20634 0.09301 0.48915 0.0
C202 C 0.22989 0.10863 0.47819 0.0
C203 C 0.24264 0.12911 0.49422 0.0
C204 C 0.23152 0.13381 0.52163 0.0
C205 C 0.20766 0.1186 0.53268 0.0
C206 C 0.19548 0.09813 0.51646 0.0
C207 C 0.19429 0.12452 0.56067 0.0
C208 C 0.21271 0.12725 0.58476 0.0
C209 C 0.16258 0.12675 0.56344 0.0
C210 C 0.14941 0.13103 0.58981 0.0
C211 C 0.1676 0.13285 0.6142 0.0
C212 C 0.2665 0.14624 0.48163 0.0
C213 C 0.28946 0.13557 0.46446 0.0
C214 C 0.26575 0.17351 0.48568 0.0
C215 C 0.28714 0.18974 0.47253 0.0
C216 C 0.30972 0.17911 0.4549 0.0
C217 C 0.31075 0.1518 0.4512 0.0
C218 C 0.19947 0.13124 0.61133 0.0
H219 H 0.21184 0.02291 0.42642 0.0
H220 H 0.23502 0.05796 0.45423 0.0
H221 H 0.14605 0.08018 0.48488 0.0
H222 H 0.1232 0.04445 0.45846 0.0
H223 H 0.2375 0.10547 0.4567 0.0
H224 H 0.17757 0.086 0.52532 0.0
H225 H 0.24098 0.14958 0.5342 0.0
H226 H 0.23723 0.12551 0.58316 0.0
H227 H 0.1479 0.12519 0.5451 0.0
H228 H 0.12488 0.13291 0.59104 0.0
H229 H 0.29092 0.11461 0.46115 0.0
H230 H 0.24819 0.18244 0.4985 0.0
H231 H 0.21416 0.1324 0.62968 0.0
H232 H 0.32767 0.14296 0.4376 0.0
H233 H 0.28596 0.21065 0.47619 0.0
C234 C 0.18358 0.96259 0.94329 0.0
C235 C 0.17557 0.9841 0.96018 0.0
C236 C 0.19698 0.94039 0.95533 0.0
C237 C 0.20292 0.93931 0.98452 0.0
C238 C 0.19594 0.96132 0.00118 0.0
C239 C 0.18225 0.98339 0.98918 0.0
C240 C 0.21484 0.91488 0.99776 0.0
C241 C 0.23653 0.8993 0.98382 0.0
C242 C 0.24669 0.87561 0.99576 0.0
C243 C 0.23508 0.8677 0.02209 0.0
C244 C 0.21369 0.8831 0.03646 0.0
C245 C 0.20365 0.90657 0.02412 0.0
C246 C 0.20116 0.87447 0.06406 0.0
C247 C 0.19147 0.84846 0.06809 0.0
C248 C 0.19804 0.89241 0.08635 0.0
C249 C 0.18498 0.88467 0.11193 0.0
C250 C 0.17459 0.85884 0.11574 0.0
C251 C 0.26904 0.85885 0.98063 0.0
C252 C 0.26658 0.85477 0.95135 0.0
C253 C 0.29253 0.84622 0.99552 0.0
C254 C 0.31277 0.8296 0.98157 0.0
C255 C 0.31011 0.82526 0.95236 0.0
C256 C 0.28689 0.83817 0.93737 0.0
C257 C 0.17821 0.84075 0.09363 0.0
H258 H 0.17837 0.9625 0.92092 0.0
H259 H 0.20164 0.92373 0.94189 0.0
H260 H 0.20077 0.96143 0.02361 0.0
H261 H 0.17666 0.99985 0.00262 0.0
H262 H 0.24586 0.90578 0.96381 0.0
H263 H 0.18621 0.91791 0.03469 0.0
H264 H 0.24253 0.84939 0.0314 0.0
H265 H 0.19339 0.83424 0.05122 0.0
H266 H 0.20556 0.91251 0.08395 0.0
H267 H 0.18219 0.89913 0.12844 0.0
H268 H 0.24857 0.864 0.93929 0.0
H269 H 0.29531 0.84918 0.01802 0.0
H270 H 0.17056 0.82068 0.09602 0.0
H271 H 0.28441 0.83549 0.9148 0.0
H272 H 0.33019 0.81977 0.99382 0.0
C273 C 0.8046 0.14691 0.60817 0.0
C274 C 0.83627 0.14547 0.61247 0.0
C275 C 0.79177 0.13899 0.58246 0.0
C276 C 0.81036 0.12925 0.56071 0.0
C277 C 0.842 0.12813 0.56497 0.0
C278 C 0.85477 0.13608 0.59051 0.0
C279 C 0.79717 0.12008 0.53356 0.0
C280 C 0.77496 0.13483 0.51943 0.0
C281 C 0.76419 0.1271 0.4927 0.0
C282 C 0.77625 0.1044 0.48006 0.0
C283 C 0.79846 0.0893 0.494 0.0
C284 C 0.80812 0.09707 0.52103 0.0
C285 C 0.81269 0.06607 0.48016 0.0
C286 C 0.7958 0.04939 0.4624 0.0
C287 C 0.84368 0.06048 0.48469 0.0
C288 C 0.85727 0.03868 0.4723 0.0
C289 C 0.84057 0.02212 0.4543 0.0
C290 C 0.74115 0.14335 0.47772 0.0
C291 C 0.71678 0.15456 0.49266 0.0
C292 C 0.7437 0.14834 0.4486 0.0
C293 C 0.72258 0.16439 0.43484 0.0
C294 C 0.69845 0.17588 0.44988 0.0
C295 C 0.69575 0.17067 0.47894 0.0
C296 C 0.80961 0.02777 0.44948 0.0
H297 H 0.78978 0.15417 0.62467 0.0
H298 H 0.76729 0.14001 0.57979 0.0
H299 H 0.85699 0.12109 0.54848 0.0
H300 H 0.87919 0.13433 0.59325 0.0
H301 H 0.76696 0.15292 0.52877 0.0
H302 H 0.82441 0.0852 0.53251 0.0
H303 H 0.76856 0.09871 0.45921 0.0
H304 H 0.77182 0.05285 0.45859 0.0
H305 H 0.85776 0.07307 0.49768 0.0
H306 H 0.88096 0.03481 0.47707 0.0
H307 H 0.71393 0.15091 0.51505 0.0
H308 H 0.76238 0.14027 0.4365 0.0
H309 H 0.79605 0.01569 0.4355 0.0
H310 H 0.67767 0.17942 0.49127 0.0
H311 H 0.72515 0.16776 0.41238 0.0
Fe312 Fe 0.00324 0.80896 0.31994 0.0
Fe313 Fe 0.00576 0.83875 0.3762 0.0
O314 O 0.00346 0.83894 0.33879 0.0
Fe315 Fe 0.00147 0.86905 0.32034 0.0
O316 O 0.96539 0.86042 0.30441 0.0
O317 O 0.9786 0.82077 0.29128 0.0
O318 O 0.96882 0.79832 0.33781 0.0
C319 C 0.96636 0.7963 0.36424 0.0
C320 C 0.04058 0.8383 0.28613 0.0
O321 O 0.98489 0.8078 0.38056 0.0
C322 C 0.04301 0.88194 0.36091 0.0
O323 O 0.0279 0.79163 0.34521 0.0
O324 O 0.04209 0.82202 0.37533 0.0
O325 O 0.02276 0.85751 0.28953 0.0
O326 O 0.0376 0.81773 0.30071 0.0
C327 C 0.96349 0.8772 0.36793 0.0
O328 O 0.027 0.86964 0.37878 0.0
O329 O 0.03755 0.87994 0.33487 0.0
C330 C 0.04636 0.80012 0.36368 0.0
O331 O 0.96959 0.85559 0.37959 0.0
O332 O 0.97955 0.88591 0.34778 0.0
C333 C 0.96084 0.84024 0.28972 0.0
Fe334 Fe 0.99955 0.15871 0.87695 0.0
Fe335 Fe 0.0024 0.12831 0.8212 0.0
O336 O 0.00116 0.15848 0.8396 0.0
Fe337 Fe 0.00165 0.18839 0.82051 0.0
O338 O 0.03657 0.19876 0.83766 0.0
O339 O 0.02216 0.18873 0.88083 0.0
O340 O 0.03507 0.14073 0.87989 0.0
C341 C 0.03979 0.11864 0.86889 0.0
C342 C 0.95995 0.19847 0.86492 0.0
O343 O 0.02334 0.11057 0.84874 0.0
C344 C 0.96341 0.15955 0.78739 0.0
O345 O 0.9765 0.12878 0.8796 0.0
O346 O 0.9661 0.11809 0.8356 0.0
O347 O 0.97804 0.20644 0.84593 0.0
O348 O 0.96404 0.17665 0.87679 0.0
C349 C 0.04337 0.15646 0.79038 0.0
O350 O 0.98146 0.14039 0.79025 0.0
O351 O 0.96669 0.17994 0.80213 0.0
C352 C 0.96006 0.11703 0.8616 0.0
O353 O 0.03891 0.13654 0.80562 0.0
O354 O 0.02538 0.17583 0.79152 0.0
C355 C 0.04031 0.20014 0.86404 0.0
Fe356 Fe 0.50324 0.31027 0.32002 0.0
Fe357 Fe 0.50548 0.34002 0.37639 0.0
O358 O 0.50408 0.34018 0.33901 0.0
Fe359 Fe 0.50359 0.37044 0.32072 0.0
O360 O 0.46717 0.36298 0.30475 0.0
O361 O 0.47889 0.32291 0.29145 0.0
O362 O 0.4685 0.29986 0.33753 0.0
C363 C 0.46505 0.29836 0.36391 0.0
C364 C 0.54151 0.33894 0.2864 0.0
O365 O 0.48327 0.30985 0.38051 0.0
C366 C 0.54528 0.38164 0.36156 0.0
O367 O 0.52733 0.29242 0.34534 0.0
O368 O 0.5411 0.32221 0.37641 0.0
O369 O 0.52415 0.35842 0.28978 0.0
O370 O 0.53799 0.31847 0.301 0.0
C371 C 0.46546 0.38 0.3678 0.0
O372 O 0.52807 0.37023 0.3792 0.0
O373 O 0.54016 0.37982 0.33543 0.0
C374 C 0.54531 0.30042 0.36448 0.0
O375 O 0.46978 0.35781 0.37882 0.0
O376 O 0.48271 0.38818 0.34826 0.0
C377 C 0.46181 0.3429 0.29006 0.0
Fe378 Fe 0.49928 0.6598 0.87719 0.0
Fe379 Fe 0.50316 0.62924 0.82156 0.0
O380 O 0.50126 0.65937 0.83982 0.0
Fe381 Fe 0.50128 0.68919 0.82064 0.0
O382 O 0.5361 0.69973 0.83785 0.0
O383 O 0.5207 0.69057 0.88097 0.0
O384 O 0.53524 0.64264 0.88065 0.0
C385 C 0.54102 0.62085 0.86933 0.0
C386 C 0.45899 0.69874 0.8647 0.0
O387 O 0.52503 0.61228 0.84906 0.0
C388 C 0.46348 0.65985 0.78762 0.0
O389 O 0.47759 0.62916 0.88006 0.0
O390 O 0.4671 0.61846 0.8362 0.0
O391 O 0.47735 0.70698 0.84605 0.0
O392 O 0.46314 0.67685 0.87643 0.0
C393 C 0.54337 0.65783 0.79036 0.0
O394 O 0.48165 0.64079 0.79071 0.0
O395 O 0.4665 0.68037 0.80221 0.0
C396 C 0.46146 0.61689 0.86225 0.0
O397 O 0.53936 0.63793 0.80569 0.0
O398 O 0.52511 0.67698 0.79159 0.0
C399 C 0.53904 0.70186 0.86425 0.0
C400 C 0.18401 0.27869 0.9259 0.0
C401 C 0.17428 0.30194 0.93885 0.0
C402 C 0.16317 0.2618 0.91269 0.0
C403 C 0.13189 0.26843 0.91219 0.0
C404 C 0.12196 0.29203 0.92482 0.0
C405 C 0.14324 0.30842 0.93813 0.0
C406 C 0.17456 0.23672 0.89956 0.0
C407 C 0.08877 0.29979 0.92465 0.0
C408 C 0.07945 0.23568 0.85893 0.0
C409 C 0.06462 0.21702 0.87583 0.0
C410 C 0.10161 0.25245 0.87041 0.0
C411 C 0.10933 0.25026 0.89936 0.0
C412 C 0.09495 0.23106 0.91634 0.0
C413 C 0.07268 0.21477 0.90441 0.0
C414 C 0.11634 0.27284 0.85173 0.0
C415 C 0.10285 0.22791 0.94721 0.0
H416 H 0.208 0.27374 0.92594 0.0
H417 H 0.13544 0.32614 0.94841 0.0
H418 H 0.16362 0.21964 0.90997 0.0
H419 H 0.16822 0.23602 0.87689 0.0
H420 H 0.19967 0.23463 0.90137 0.0
H421 H 0.08498 0.31935 0.93426 0.0
H422 H 0.07999 0.30009 0.90267 0.0
H423 H 0.07517 0.28511 0.9365 0.0
H424 H 0.07331 0.23755 0.83684 0.0
H425 H 0.06156 0.20021 0.91754 0.0
H426 H 0.14146 0.27057 0.85209 0.0
H427 H 0.11115 0.29271 0.85988 0.0
H428 H 0.10838 0.27156 0.8295 0.0
H429 H 0.12766 0.22448 0.94967 0.0
H430 H 0.09036 0.21139 0.95723 0.0
H431 H 0.09732 0.24617 0.9588 0.0
C432 C 0.85202 0.68535 0.42004 0.0
C433 C 0.83312 0.69532 0.44142 0.0
C434 C 0.87373 0.70126 0.40661 0.0
C435 C 0.8761 0.728 0.41414 0.0
C436 C 0.85671 0.73838 0.43518 0.0
C437 C 0.83581 0.72186 0.44883 0.0
C438 C 0.89443 0.68937 0.38464 0.0
C439 C 0.85824 0.76693 0.44347 0.0
C440 C 0.94984 0.76502 0.40161 0.0
C441 C 0.94353 0.77831 0.37637 0.0
C442 C 0.92834 0.74807 0.41373 0.0
C443 C 0.89953 0.74496 0.40071 0.0
C444 C 0.893 0.75841 0.37523 0.0
C445 C 0.9153 0.77467 0.36312 0.0
C446 C 0.93647 0.73353 0.44049 0.0
C447 C 0.86226 0.75608 0.36112 0.0
H448 H 0.84981 0.66507 0.41363 0.0
H449 H 0.82183 0.72977 0.46562 0.0
H450 H 0.89155 0.69964 0.36417 0.0
H451 H 0.91857 0.69187 0.3911 0.0
H452 H 0.8899 0.66816 0.38141 0.0
H453 H 0.8402 0.77232 0.45884 0.0
H454 H 0.88074 0.77132 0.45305 0.0
H455 H 0.85588 0.77952 0.42448 0.0
H456 H 0.9718 0.76762 0.41173 0.0
H457 H 0.91038 0.7851 0.34368 0.0
H458 H 0.93319 0.71216 0.43741 0.0
H459 H 0.92115 0.73964 0.45788 0.0
H460 H 0.9604 0.7371 0.44712 0.0
H461 H 0.85734 0.7353 0.35602 0.0
H462 H 0.86085 0.7678 0.34138 0.0
H463 H 0.8442 0.76282 0.3758 0.0
C464 C 0.86031 0.30658 0.94185 0.0
C465 C 0.8291 0.30542 0.93553 0.0
C466 C 0.881 0.28919 0.92935 0.0
C467 C 0.8703 0.2703 0.90985 0.0
C468 C 0.83895 0.26934 0.9029 0.0
C469 C 0.81871 0.28685 0.9159 0.0
C470 C 0.91428 0.29083 0.93731 0.0
C471 C 0.82674 0.24954 0.88209 0.0
C472 C 0.92955 0.23986 0.86157 0.0
C473 C 0.93574 0.21615 0.87546 0.0
C474 C 0.90776 0.2574 0.87213 0.0
C475 C 0.89192 0.25117 0.89729 0.0
C476 C 0.89758 0.22705 0.91109 0.0
C477 C 0.91931 0.20979 0.89995 0.0
C478 C 0.90209 0.28281 0.85665 0.0
C479 C 0.88123 0.21975 0.93804 0.0
H480 H 0.86862 0.32115 0.95661 0.0
H481 H 0.7946 0.28559 0.91113 0.0
H482 H 0.92172 0.27202 0.94682 0.0
H483 H 0.92833 0.29412 0.91817 0.0
H484 H 0.91896 0.30685 0.95259 0.0
H485 H 0.802 0.25213 0.878 0.0
H486 H 0.83914 0.25115 0.86175 0.0
H487 H 0.83053 0.22943 0.89026 0.0
H488 H 0.94193 0.24487 0.84251 0.0
H489 H 0.92385 0.19151 0.91083 0.0
H490 H 0.90868 0.29958 0.87026 0.0
H491 H 0.87748 0.28492 0.85185 0.0
H492 H 0.91511 0.28411 0.83659 0.0
H493 H 0.8869 0.2341 0.95483 0.0
H494 H 0.88741 0.19984 0.94561 0.0
H495 H 0.85622 0.2205 0.93479 0.0
C496 C 0.1446 0.6928 0.44349 0.0
C497 C 0.17562 0.69278 0.43638 0.0
C498 C 0.12428 0.71045 0.4308 0.0
C499 C 0.1352 0.72844 0.41038 0.0
C500 C 0.16638 0.72832 0.40282 0.0
C501 C 0.18623 0.71054 0.41596 0.0
C502 C 0.09116 0.70996 0.4394 0.0
C503 C 0.17883 0.74717 0.38108 0.0
C504 C 0.07612 0.75836 0.36147 0.0
C505 C 0.0707 0.78263 0.37443 0.0
C506 C 0.09758 0.74078 0.37256 0.0
C507 C 0.11395 0.74758 0.39725 0.0
C508 C 0.10919 0.77229 0.41002 0.0
C509 C 0.0877 0.78956 0.39841 0.0
C510 C 0.10225 0.71469 0.3582 0.0
C511 C 0.12619 0.78022 0.43641 0.0
H512 H 0.13613 0.6789 0.45893 0.0
H513 H 0.21023 0.71091 0.41063 0.0
H514 H 0.08454 0.7293 0.44811 0.0
H515 H 0.07658 0.70628 0.42067 0.0
H516 H 0.0863 0.69468 0.45551 0.0
H517 H 0.20345 0.74402 0.37693 0.0
H518 H 0.16617 0.74504 0.36092 0.0
H519 H 0.17557 0.76761 0.38839 0.0
H520 H 0.06328 0.75289 0.34283 0.0
H521 H 0.08375 0.80827 0.40856 0.0
H522 H 0.09537 0.69861 0.37264 0.0
H523 H 0.12671 0.71185 0.35322 0.0
H524 H 0.08889 0.71295 0.33835 0.0
H525 H 0.12029 0.76669 0.45394 0.0
H526 H 0.1208 0.80055 0.44307 0.0
H527 H 0.15111 0.7787 0.43294 0.0
C528 C 0.65389 0.81339 0.91741 0.0
C529 C 0.67419 0.80325 0.93757 0.0
C530 C 0.63187 0.79739 0.90455 0.0
C531 C 0.63059 0.77044 0.91149 0.0
C532 C 0.65138 0.75991 0.93128 0.0
C533 C 0.67263 0.77648 0.94435 0.0
C534 C 0.6097 0.80939 0.88387 0.0
C535 C 0.65097 0.73117 0.93892 0.0
C536 C 0.55705 0.73251 0.90161 0.0
C537 C 0.56224 0.7198 0.87584 0.0
C538 C 0.57884 0.74954 0.91309 0.0
C539 C 0.60681 0.75338 0.8988 0.0
C540 C 0.61223 0.74052 0.8728 0.0
C541 C 0.58966 0.72411 0.86142 0.0
C542 C 0.57194 0.76339 0.94052 0.0
C543 C 0.64207 0.74369 0.85732 0.0
H544 H 0.6552 0.83389 0.91156 0.0
H545 H 0.68773 0.76845 0.96024 0.0
H546 H 0.61154 0.79953 0.86309 0.0
H547 H 0.58603 0.80645 0.89147 0.0
H548 H 0.61368 0.83071 0.88084 0.0
H549 H 0.66998 0.72575 0.95327 0.0
H550 H 0.62915 0.72617 0.94943 0.0
H551 H 0.65253 0.71905 0.91954 0.0
H552 H 0.53571 0.72941 0.91265 0.0
H553 H 0.59374 0.71414 0.84158 0.0
H554 H 0.57449 0.78488 0.93775 0.0
H555 H 0.58843 0.75724 0.95699 0.0
H556 H 0.54854 0.75921 0.94824 0.0
H557 H 0.64619 0.76465 0.85243 0.0
H558 H 0.64263 0.73238 0.83729 0.0
H559 H 0.66109 0.73701 0.87098 0.0
C560 C 0.3224 0.22032 0.42841 0.0
C561 C 0.33191 0.19646 0.44022 0.0
C562 C 0.34316 0.23707 0.41486 0.0
C563 C 0.37414 0.2297 0.41287 0.0
C564 C 0.38383 0.20548 0.42433 0.0
C565 C 0.36263 0.18921 0.43796 0.0
C566 C 0.33201 0.2628 0.403 0.0
C567 C 0.4167 0.19694 0.42259 0.0
C568 C 0.4251 0.26339 0.35895 0.0
C569 C 0.44101 0.28128 0.37596 0.0
C570 C 0.40311 0.24653 0.37063 0.0
C571 C 0.39672 0.24782 0.39991 0.0
C572 C 0.41227 0.26618 0.41704 0.0
C573 C 0.43427 0.2826 0.40489 0.0
C574 C 0.38706 0.22709 0.35175 0.0
C575 C 0.40585 0.26834 0.44829 0.0
H576 H 0.29862 0.22587 0.4296 0.0
H577 H 0.37027 0.17097 0.44731 0.0
H578 H 0.34387 0.27929 0.41363 0.0
H579 H 0.33748 0.26411 0.38017 0.0
H580 H 0.30706 0.26537 0.40572 0.0
H581 H 0.42024 0.17697 0.43133 0.0
H582 H 0.42447 0.19718 0.4003 0.0
H583 H 0.43131 0.21087 0.43444 0.0
H584 H 0.43017 0.26223 0.33659 0.0
H585 H 0.44623 0.29654 0.41815 0.0
H586 H 0.36205 0.22987 0.35304 0.0
H587 H 0.39198 0.20685 0.359 0.0
H588 H 0.39416 0.22895 0.32932 0.0
H589 H 0.3813 0.2723 0.45181 0.0
H590 H 0.41935 0.28415 0.45851 0.0
H591 H 0.41121 0.24952 0.45891 0.0
C592 C 0.32027 0.78939 0.91735 0.0
C593 C 0.33124 0.80699 0.93774 0.0
C594 C 0.33984 0.7715 0.90406 0.0
C595 C 0.37109 0.77112 0.91144 0.0
C596 C 0.38236 0.78899 0.93178 0.0
C597 C 0.36234 0.80675 0.94461 0.0
C598 C 0.32701 0.75279 0.88241 0.0
C599 C 0.41557 0.78921 0.94017 0.0
C600 C 0.41792 0.70964 0.89951 0.0
C601 C 0.43489 0.71644 0.87547 0.0
C602 C 0.39663 0.72706 0.9111 0.0
C603 C 0.39203 0.7518 0.89825 0.0
C604 C 0.40835 0.75845 0.8735 0.0
C605 C 0.42963 0.74073 0.86243 0.0
C606 C 0.37967 0.71927 0.93756 0.0
C607 C 0.40386 0.78456 0.85906 0.0
H608 H 0.29622 0.78921 0.91218 0.0
H609 H 0.37109 0.82055 0.95999 0.0
H610 H 0.33958 0.75479 0.8622 0.0
H611 H 0.33002 0.73231 0.88975 0.0
H612 H 0.30241 0.7562 0.87834 0.0
H613 H 0.42074 0.80446 0.9562 0.0
H614 H 0.42204 0.76982 0.94891 0.0
H615 H 0.43003 0.79276 0.92135 0.0
H616 H 0.42174 0.69092 0.90972 0.0
H617 H 0.44245 0.7461 0.84374 0.0
H618 H 0.35475 0.721 0.93416 0.0
H619 H 0.38582 0.73274 0.95504 0.0
H620 H 0.38486 0.69889 0.94424 0.0
H621 H 0.37939 0.78761 0.85421 0.0
H622 H 0.41708 0.78616 0.83913 0.0
H623 H 0.41105 0.80061 0.87339 0.0
C624 C 0.68661 0.21206 0.4156 0.0
C625 C 0.67646 0.19363 0.43553 0.0
C626 C 0.66623 0.22952 0.40263 0.0
C627 C 0.63497 0.22865 0.4099 0.0
C628 C 0.62451 0.20992 0.42973 0.0
C629 C 0.64534 0.19259 0.44221 0.0
C630 C 0.67821 0.24915 0.38148 0.0
C631 C 0.59134 0.20838 0.43803 0.0
C632 C 0.58609 0.28921 0.39953 0.0
C633 C 0.56951 0.28273 0.37515 0.0
C634 C 0.60778 0.27196 0.4108 0.0
C635 C 0.61323 0.24769 0.39728 0.0
C636 C 0.59719 0.24131 0.37227 0.0
C637 C 0.57547 0.25886 0.36154 0.0
C638 C 0.62437 0.27943 0.43757 0.0
C639 C 0.6026 0.21572 0.35711 0.0
H640 H 0.71065 0.21325 0.41056 0.0
H641 H 0.63721 0.17814 0.45722 0.0
H642 H 0.66561 0.24734 0.36126 0.0
H643 H 0.67447 0.26932 0.38943 0.0
H644 H 0.70291 0.24655 0.37725 0.0
H645 H 0.58683 0.1925 0.45355 0.0
H646 H 0.58403 0.22728 0.44738 0.0
H647 H 0.57703 0.20494 0.41906 0.0
H648 H 0.58171 0.3076 0.4102 0.0
H649 H 0.56296 0.25374 0.34259 0.0
H650 H 0.64935 0.27867 0.43415 0.0
H651 H 0.61888 0.26518 0.45455 0.0
H652 H 0.61825 0.29938 0.44499 0.0
H653 H 0.62714 0.21354 0.35208 0.0
H654 H 0.5893 0.21424 0.3372 0.0
H655 H 0.59618 0.19911 0.37103 0.0
C656 C 0.33574 0.51822 0.9261 0.0
C657 C 0.34927 0.49335 0.92723 0.0
C658 C 0.3508 0.53941 0.91326 0.0
C659 C 0.38013 0.53563 0.90155 0.0
C660 C 0.39324 0.51033 0.90149 0.0
C661 C 0.37757 0.48949 0.91417 0.0
C662 C 0.33596 0.56606 0.9134 0.0
C663 C 0.42449 0.50548 0.88923 0.0
C664 C 0.41866 0.58525 0.85351 0.0
C665 C 0.43852 0.59779 0.87244 0.0
C666 C 0.39846 0.56571 0.86286 0.0
C667 C 0.39844 0.55837 0.89169 0.0
C668 C 0.41771 0.57154 0.91101 0.0
C669 C 0.43736 0.59118 0.90119 0.0
C670 C 0.37787 0.55235 0.84175 0.0
C671 C 0.41853 0.56416 0.94191 0.0
H672 H 0.31394 0.52139 0.93624 0.0
H673 H 0.38783 0.47019 0.91439 0.0
H674 H 0.34837 0.57915 0.92816 0.0
H675 H 0.33717 0.57512 0.89212 0.0
H676 H 0.31173 0.56509 0.92007 0.0
H677 H 0.43062 0.48437 0.88929 0.0
H678 H 0.42566 0.51286 0.86722 0.0
H679 H 0.44182 0.51634 0.90168 0.0
H680 H 0.41919 0.59043 0.83131 0.0
H681 H 0.45254 0.60078 0.916 0.0
H682 H 0.35404 0.55213 0.84956 0.0
H683 H 0.38502 0.53167 0.83907 0.0
H684 H 0.37839 0.56211 0.82077 0.0
H685 H 0.39529 0.56501 0.95105 0.0
H686 H 0.4337 0.57718 0.9544 0.0
H687 H 0.4267 0.5437 0.94421 0.0
C688 C 0.67002 0.48083 0.42622 0.0
C689 C 0.65664 0.50578 0.42626 0.0
C690 C 0.65527 0.45942 0.41351 0.0
C691 C 0.62635 0.46305 0.40085 0.0
C692 C 0.6134 0.4884 0.39972 0.0
C693 C 0.6288 0.50946 0.41224 0.0
C694 C 0.66997 0.43274 0.41478 0.0
C695 C 0.58257 0.49308 0.38647 0.0
C696 C 0.58886 0.41259 0.35316 0.0
C697 C 0.56834 0.40057 0.37188 0.0
C698 C 0.60896 0.4322 0.36252 0.0
C699 C 0.60821 0.44016 0.39114 0.0
C700 C 0.58832 0.42746 0.41029 0.0
C701 C 0.56881 0.40772 0.40048 0.0
C702 C 0.63026 0.445 0.34161 0.0
C703 C 0.58667 0.43549 0.44096 0.0
H704 H 0.69144 0.47776 0.43711 0.0
H705 H 0.61867 0.5288 0.41158 0.0
H706 H 0.6571 0.42002 0.42959 0.0
H707 H 0.66929 0.42321 0.39373 0.0
H708 H 0.69402 0.43379 0.42201 0.0
H709 H 0.57653 0.5142 0.38582 0.0
H710 H 0.58205 0.48527 0.36463 0.0
H711 H 0.56482 0.48251 0.3987 0.0
H712 H 0.58887 0.407 0.33108 0.0
H713 H 0.55312 0.39853 0.41514 0.0
H714 H 0.65382 0.44542 0.35009 0.0
H715 H 0.62322 0.4656 0.33805 0.0
H716 H 0.63038 0.43472 0.32094 0.0
H717 H 0.60963 0.43476 0.45072 0.0
H718 H 0.57108 0.42278 0.4534 0.0
H719 H 0.57853 0.45602 0.44249 0.0
C720 C 0.62076 0.49844 0.93736 0.0
C721 C 0.65172 0.50106 0.94391 0.0
C722 C 0.60429 0.51944 0.9259 0.0
C723 C 0.61937 0.54344 0.92023 0.0
C724 C 0.65074 0.54613 0.9267 0.0
C725 C 0.66649 0.52496 0.93882 0.0
C726 C 0.57074 0.51592 0.91986 0.0
C727 C 0.66773 0.57119 0.92036 0.0
C728 C 0.57933 0.58512 0.86526 0.0
C729 C 0.56387 0.60328 0.88215 0.0
C730 C 0.59881 0.56643 0.8773 0.0
C731 C 0.60222 0.56541 0.90702 0.0
C732 C 0.58735 0.58421 0.92412 0.0
C733 C 0.56863 0.60317 0.91142 0.0
C734 C 0.61488 0.54719 0.85827 0.0
C735 C 0.58991 0.58345 0.95591 0.0
H736 H 0.60933 0.48 0.9416 0.0
H737 H 0.6905 0.52687 0.9438 0.0
H738 H 0.55743 0.53133 0.93081 0.0
H739 H 0.56641 0.51809 0.89689 0.0
H740 H 0.56217 0.49644 0.92672 0.0
H741 H 0.69207 0.57014 0.92672 0.0
H742 H 0.66652 0.5755 0.89741 0.0
H743 H 0.65694 0.58785 0.93153 0.0
H744 H 0.57587 0.58535 0.84258 0.0
H745 H 0.55651 0.61708 0.92454 0.0
H746 H 0.60529 0.52729 0.8615 0.0
H747 H 0.63948 0.54629 0.8636 0.0
H748 H 0.6125 0.5524 0.83559 0.0
H749 H 0.57925 0.56519 0.96399 0.0
H750 H 0.57858 0.60046 0.96606 0.0
H751 H 0.61417 0.58317 0.96244 0.0
C752 C 0.3777 0.48472 0.45933 0.0
C753 C 0.35159 0.49518 0.44645 0.0
C754 C 0.39372 0.46396 0.44699 0.0
C755 C 0.38315 0.45305 0.42133 0.0
C756 C 0.35583 0.46243 0.40906 0.0
C757 C 0.34044 0.4835 0.42169 0.0
C758 C 0.42281 0.45461 0.46072 0.0
C759 C 0.34363 0.45104 0.38189 0.0
C760 C 0.44446 0.42501 0.374 0.0
C761 C 0.44293 0.39817 0.38029 0.0
C762 C 0.42467 0.44292 0.38678 0.0
C763 C 0.40242 0.43379 0.40604 0.0
C764 C 0.39999 0.40663 0.41179 0.0
C765 C 0.42046 0.38913 0.399 0.0
C766 C 0.42829 0.47177 0.38033 0.0
C767 C 0.37619 0.39614 0.43184 0.0
H768 H 0.38603 0.49318 0.47886 0.0
H769 H 0.32036 0.49147 0.41152 0.0
H770 H 0.42224 0.43305 0.46359 0.0
H771 H 0.44244 0.4592 0.44679 0.0
H772 H 0.42681 0.46393 0.48159 0.0
H773 H 0.32026 0.45808 0.37709 0.0
H774 H 0.3588 0.45664 0.36414 0.0
H775 H 0.34331 0.42933 0.38299 0.0
H776 H 0.46175 0.43222 0.3596 0.0
H777 H 0.41897 0.36838 0.40376 0.0
H778 H 0.43445 0.48248 0.39991 0.0
H779 H 0.40643 0.47998 0.37262 0.0
H780 H 0.44613 0.47557 0.36421 0.0
H781 H 0.38091 0.40328 0.45353 0.0
H782 H 0.37563 0.37438 0.43223 0.0
H783 H 0.35331 0.40346 0.42579 0.0
C784 C 0.83452 0.01341 0.91712 0.0
C785 C 0.85011 0.99749 0.93653 0.0
C786 C 0.84912 0.03468 0.90394 0.0
C787 C 0.88018 0.03976 0.90986 0.0
C788 C 0.89591 0.02399 0.92963 0.0
C789 C 0.88058 0.00336 0.94301 0.0
C790 C 0.83146 0.05151 0.88347 0.0
C791 C 0.92916 0.0286 0.93635 0.0
C792 C 0.93145 0.07497 0.85779 0.0
C793 C 0.93641 0.09879 0.87172 0.0
C794 C 0.91211 0.05588 0.8694 0.0
C795 C 0.89679 0.06114 0.89509 0.0
C796 C 0.90016 0.0859 0.90818 0.0
C797 C 0.92035 0.1043 0.89656 0.0
C798 C 0.90967 0.02951 0.85514 0.0
C799 C 0.8835 0.09253 0.93512 0.0
H800 H 0.81107 0.00898 0.91177 0.0
H801 H 0.89263 0.99175 0.95857 0.0
H802 H 0.83357 0.07247 0.88939 0.0
H803 H 0.84106 0.0494 0.86193 0.0
H804 H 0.80692 0.0462 0.88278 0.0
H805 H 0.93824 0.01414 0.95174 0.0
H806 H 0.9429 0.02744 0.91672 0.0
H807 H 0.93235 0.04852 0.94519 0.0
H808 H 0.94401 0.07065 0.83865 0.0
H809 H 0.92396 0.12288 0.90715 0.0
H810 H 0.88545 0.0239 0.85231 0.0
H811 H 0.9204 0.01437 0.86871 0.0
H812 H 0.92105 0.02928 0.83419 0.0
H813 H 0.85911 0.08702 0.93342 0.0
H814 H 0.88511 0.11372 0.94028 0.0
H815 H 0.89336 0.08121 0.95291 0.0
C816 C 0.16532 0.98405 0.42387 0.0
C817 C 0.1514 0.00878 0.4245 0.0
C818 C 0.15066 0.96249 0.41138 0.0
C819 C 0.12129 0.96571 0.39956 0.0
C820 C 0.10766 0.99082 0.39913 0.0
C821 C 0.12297 0.01206 0.41142 0.0
C822 C 0.16605 0.93607 0.41194 0.0
C823 C 0.07631 0.99504 0.38679 0.0
C824 C 0.08465 0.91468 0.35196 0.0
C825 C 0.0652 0.90175 0.37095 0.0
C826 C 0.10398 0.93493 0.36113 0.0
C827 C 0.10355 0.94258 0.38985 0.0
C828 C 0.08467 0.92908 0.40924 0.0
C829 C 0.06589 0.90875 0.3996 0.0
C830 C 0.12421 0.94862 0.33996 0.0
C831 C 0.08339 0.93676 0.44003 0.0
H832 H 0.18717 0.98126 0.43409 0.0
H833 H 0.11237 0.03122 0.41125 0.0
H834 H 0.15375 0.92287 0.42669 0.0
H835 H 0.16524 0.92688 0.39073 0.0
H836 H 0.19019 0.93744 0.41884 0.0
H837 H 0.06968 0.01604 0.38665 0.0
H838 H 0.07533 0.98751 0.36484 0.0
H839 H 0.05924 0.98394 0.3993 0.0
H840 H 0.08445 0.90925 0.32984 0.0
H841 H 0.051 0.89888 0.41447 0.0
H842 H 0.14803 0.94929 0.34778 0.0
H843 H 0.11656 0.96916 0.33719 0.0
H844 H 0.12391 0.93882 0.31902 0.0
H845 H 0.10657 0.93644 0.44937 0.0
H846 H 0.06845 0.92358 0.45258 0.0
H847 H 0.07469 0.95708 0.44196 0.0
C848 C 0.13207 0.0156 0.96103 0.0
C849 C 0.15861 0.0065 0.94787 0.0
C850 C 0.11428 0.0353 0.9486 0.0
C851 C 0.12347 0.0464 0.92254 0.0
C852 C 0.15086 0.03798 0.90967 0.0
C853 C 0.168 0.01795 0.92238 0.0
C854 C 0.08499 0.04345 0.9628 0.0
C855 C 0.16163 0.04962 0.8821 0.0
C856 C 0.06089 0.07367 0.87577 0.0
C857 C 0.06226 0.10057 0.88176 0.0
C858 C 0.08088 0.05594 0.88869 0.0
C859 C 0.10318 0.06533 0.90779 0.0
C860 C 0.10525 0.09253 0.91342 0.0
C861 C 0.08459 0.10982 0.9005 0.0
C862 C 0.07764 0.02706 0.8824 0.0
C863 C 0.12904 0.10329 0.93332 0.0
H864 H 0.12457 0.00658 0.98058 0.0
H865 H 0.18867 0.01111 0.91231 0.0
H866 H 0.08451 0.065 0.9657 0.0
H867 H 0.06534 0.03817 0.94917 0.0
H868 H 0.08192 0.03392 0.98371 0.0
H869 H 0.18469 0.0426 0.87615 0.0
H870 H 0.1455 0.04433 0.86497 0.0
H871 H 0.1621 0.07131 0.88348 0.0
H872 H 0.04365 0.0663 0.86141 0.0
H873 H 0.08592 0.1306 0.90508 0.0
H874 H 0.0724 0.01622 0.90214 0.0
H875 H 0.09939 0.01921 0.87408 0.0
H876 H 0.05934 0.02299 0.86678 0.0
H877 H 0.12517 0.09549 0.9549 0.0
H878 H 0.12873 0.12503 0.93425 0.0
H879 H 0.15205 0.09683 0.92663 0.0
C880 C 0.88633 0.00096 0.43222 0.0
C881 C 0.8557 0.99924 0.44062 0.0
C882 C 0.90155 0.97938 0.42069 0.0
C883 C 0.88559 0.9556 0.41652 0.0
C884 C 0.85448 0.95381 0.42412 0.0
C885 C 0.83999 0.97555 0.43639 0.0
C886 C 0.93486 0.98204 0.41312 0.0
C887 C 0.83655 0.92894 0.41936 0.0
C888 C 0.92409 0.91185 0.36282 0.0
C889 C 0.9402 0.89454 0.38027 0.0
C890 C 0.90452 0.93071 0.37431 0.0
C891 C 0.90175 0.9328 0.40401 0.0
C892 C 0.91706 0.91467 0.42169 0.0
C893 C 0.93583 0.89549 0.40955 0.0
C894 C 0.88792 0.94916 0.3547 0.0
C895 C 0.91521 0.9166 0.45346 0.0
H896 H 0.89855 0.01928 0.43457 0.0
H897 H 0.81647 0.9738 0.44305 0.0
H898 H 0.94833 0.96674 0.42412 0.0
H899 H 0.93799 0.97908 0.39011 0.0
H900 H 0.94429 0.00154 0.41885 0.0
H901 H 0.81219 0.93109 0.42527 0.0
H902 H 0.83789 0.92312 0.39682 0.0
H903 H 0.84651 0.91274 0.43195 0.0
H904 H 0.92724 0.91093 0.34012 0.0
H905 H 0.94844 0.88221 0.42307 0.0
H906 H 0.89801 0.96904 0.35631 0.0
H907 H 0.86359 0.95072 0.36082 0.0
H908 H 0.88924 0.94274 0.33232 0.0
H909 H 0.9266 0.93488 0.46054 0.0
H910 H 0.92628 0.89972 0.46413 0.0
H911 H 0.89113 0.91765 0.4604 0.0
C912 C 0.33624 0.35783 0.16681 0.0
C913 C 0.35197 0.3548 0.14119 0.0
C914 C 0.35096 0.35395 0.19285 0.0
C915 C 0.38232 0.34758 0.19329 0.0
C916 C 0.39807 0.34371 0.16757 0.0
C917 C 0.38259 0.34691 0.14192 0.0
C918 C 0.33321 0.35751 0.21986 0.0
C919 C 0.43164 0.33722 0.16709 0.0
C920 C 0.43193 0.36848 0.25481 0.0
C921 C 0.43857 0.34436 0.26756 0.0
C922 C 0.41285 0.36988 0.23111 0.0
C923 C 0.39942 0.34669 0.22039 0.0
C924 C 0.40459 0.32249 0.23422 0.0
C925 C 0.42454 0.32154 0.25741 0.0
C926 C 0.40847 0.39599 0.21661 0.0
C927 C 0.3899 0.29749 0.22397 0.0
H928 H 0.31266 0.36406 0.16663 0.0
H929 H 0.39477 0.34367 0.12235 0.0
H930 H 0.3374 0.34087 0.23444 0.0
H931 H 0.34093 0.37559 0.2307 0.0
H932 H 0.30832 0.35907 0.21596 0.0
H933 H 0.44043 0.33449 0.14529 0.0
H934 H 0.44478 0.35322 0.1773 0.0
H935 H 0.43603 0.31906 0.17929 0.0
H936 H 0.44289 0.38615 0.26248 0.0
H937 H 0.42942 0.30291 0.26743 0.0
H938 H 0.38387 0.40033 0.21422 0.0
H939 H 0.41843 0.39523 0.19509 0.0
H940 H 0.41937 0.41234 0.22836 0.0
H941 H 0.36516 0.30051 0.22038 0.0
H942 H 0.39295 0.28111 0.23917 0.0
H943 H 0.40007 0.29168 0.20348 0.0
C944 C 0.6257 0.62351 0.64855 0.0
C945 C 0.65248 0.63732 0.64205 0.0
C946 C 0.61036 0.62753 0.67411 0.0
C947 C 0.62235 0.64545 0.69402 0.0
C948 C 0.64992 0.6588 0.68813 0.0
C949 C 0.66456 0.65472 0.66211 0.0
C950 C 0.5809 0.613 0.67951 0.0
C951 C 0.6636 0.67777 0.70905 0.0
C952 C 0.56371 0.67367 0.74411 0.0
C953 C 0.5662 0.65676 0.76738 0.0
C954 C 0.5827 0.67085 0.72052 0.0
C955 C 0.60507 0.65091 0.72036 0.0
C956 C 0.60888 0.63475 0.74443 0.0
C957 C 0.58922 0.63773 0.76759 0.0
C958 C 0.57767 0.68828 0.69515 0.0
C959 C 0.63287 0.61362 0.74526 0.0
H960 H 0.61657 0.60952 0.63355 0.0
H961 H 0.68511 0.66562 0.65726 0.0
H962 H 0.58268 0.60141 0.69927 0.0
H963 H 0.56205 0.6272 0.68237 0.0
H964 H 0.57482 0.59954 0.66195 0.0
H965 H 0.68636 0.68495 0.70228 0.0
H966 H 0.6483 0.69487 0.71164 0.0
H967 H 0.66585 0.66832 0.73007 0.0
H968 H 0.54599 0.68843 0.74375 0.0
H969 H 0.59148 0.62477 0.78563 0.0
H970 H 0.56926 0.67632 0.67719 0.0
H971 H 0.59943 0.69743 0.68845 0.0
H972 H 0.56087 0.70403 0.69939 0.0
H973 H 0.62676 0.59783 0.7302 0.0
H974 H 0.63526 0.60485 0.76664 0.0
H975 H 0.65527 0.62163 0.73863 0.0
C976 C 0.63169 0.33654 0.14107 0.0
C977 C 0.65894 0.3509 0.14205 0.0
C978 C 0.61461 0.33194 0.16561 0.0
C979 C 0.62511 0.34186 0.19179 0.0
C980 C 0.6534 0.35517 0.19315 0.0
C981 C 0.66992 0.35964 0.16822 0.0
C982 C 0.58444 0.31786 0.16321 0.0
C983 C 0.6655 0.36581 0.22071 0.0
C984 C 0.56417 0.36106 0.24434 0.0
C985 C 0.56388 0.33961 0.26293 0.0
C986 C 0.58419 0.36204 0.22138 0.0
C987 C 0.60475 0.34115 0.21688 0.0
C988 C 0.60509 0.31963 0.2358 0.0
C989 C 0.58453 0.31905 0.25859 0.0
C990 C 0.58295 0.3853 0.20163 0.0
C991 C 0.62693 0.29715 0.23177 0.0
H992 H 0.62294 0.32994 0.12087 0.0
H993 H 0.6912 0.37043 0.16912 0.0
H994 H 0.58274 0.30216 0.17935 0.0
H995 H 0.56563 0.33187 0.16721 0.0
H996 H 0.58104 0.30905 0.142 0.0
H997 H 0.68941 0.37277 0.21882 0.0
H998 H 0.65116 0.38247 0.22767 0.0
H999 H 0.66437 0.35061 0.23744 0.0
H1000 H 0.54837 0.37709 0.24745 0.0
H1001 H 0.58459 0.30248 0.27292 0.0
H1002 H 0.5772 0.37866 0.17996 0.0
H1003 H 0.60557 0.39497 0.20061 0.0
H1004 H 0.56582 0.40005 0.20829 0.0
H1005 H 0.62217 0.28724 0.21139 0.0
H1006 H 0.62527 0.28245 0.24902 0.0
H1007 H 0.65067 0.30458 0.2308 0.0
C1008 C 0.37999 0.66607 0.63994 0.0
C1009 C 0.35205 0.65271 0.63902 0.0
C1010 C 0.39571 0.66941 0.66547 0.0
C1011 C 0.38308 0.65933 0.69074 0.0
C1012 C 0.35402 0.64726 0.69025 0.0
C1013 C 0.33888 0.64401 0.66435 0.0
C1014 C 0.42664 0.68243 0.6651 0.0
C1015 C 0.3397 0.63645 0.7168 0.0
C1016 C 0.44066 0.63775 0.74559 0.0
C1017 C 0.44119 0.65921 0.76409 0.0
C1018 C 0.42133 0.63737 0.72205 0.0
C1019 C 0.40179 0.65888 0.71692 0.0
C1020 C 0.4014 0.68023 0.73597 0.0
C1021 C 0.4212 0.68019 0.75932 0.0
C1022 C 0.42249 0.61423 0.7022 0.0
C1023 C 0.38062 0.70336 0.7313 0.0
H1024 H 0.39 0.67332 0.62052 0.0
H1025 H 0.31739 0.63353 0.66381 0.0
H1026 H 0.42784 0.69801 0.68138 0.0
H1027 H 0.44444 0.66777 0.67027 0.0
H1028 H 0.43204 0.6912 0.64421 0.0
H1029 H 0.31549 0.63085 0.71353 0.0
H1030 H 0.35244 0.61884 0.7238 0.0
H1031 H 0.34097 0.65103 0.73413 0.0
H1032 H 0.45588 0.62137 0.7491 0.0
H1033 H 0.42129 0.69678 0.7736 0.0
H1034 H 0.43017 0.6208 0.68101 0.0
H1035 H 0.39943 0.60562 0.69966 0.0
H1036 H 0.43819 0.59867 0.70975 0.0
H1037 H 0.38733 0.71381 0.71171 0.0
H1038 H 0.38138 0.71745 0.74916 0.0
H1039 H 0.35678 0.69661 0.72842 0.0
C1040 C 0.83818 0.85202 0.16383 0.0
C1041 C 0.85466 0.84932 0.13857 0.0
C1042 C 0.8523 0.84844 0.19018 0.0
C1043 C 0.88381 0.84278 0.19133 0.0
C1044 C 0.90036 0.83926 0.16599 0.0
C1045 C 0.88548 0.84212 0.13999 0.0
C1046 C 0.83372 0.85161 0.21678 0.0
C1047 C 0.93412 0.83354 0.16629 0.0
C1048 C 0.93089 0.86505 0.25395 0.0
C1049 C 0.93795 0.84112 0.26691 0.0
C1050 C 0.91248 0.86592 0.22977 0.0
C1051 C 0.90016 0.84237 0.21881 0.0
C1052 C 0.90568 0.81835 0.23286 0.0
C1053 C 0.92495 0.81795 0.25654 0.0
C1054 C 0.90768 0.89187 0.21507 0.0
C1055 C 0.8921 0.79298 0.22235 0.0
H1056 H 0.81446 0.85778 0.16315 0.0
H1057 H 0.89827 0.83918 0.12069 0.0
H1058 H 0.83812 0.83513 0.23153 0.0
H1059 H 0.8405 0.86992 0.22771 0.0
H1060 H 0.8089 0.8525 0.21231 0.0
H1061 H 0.94356 0.83094 0.14471 0.0
H1062 H 0.94649 0.84987 0.17671 0.0
H1063 H 0.93875 0.81554 0.17868 0.0
H1064 H 0.94106 0.88299 0.26181 0.0
H1065 H 0.93019 0.79946 0.26673 0.0
H1066 H 0.88302 0.89562 0.21205 0.0
H1067 H 0.91827 0.89129 0.1938 0.0
H1068 H 0.9177 0.90851 0.22701 0.0
H1069 H 0.8674 0.7954 0.21809 0.0
H1070 H 0.89521 0.77673 0.2377 0.0
H1071 H 0.90309 0.78734 0.20217 0.0
C1072 C 0.12585 0.12264 0.64855 0.0
C1073 C 0.15303 0.13599 0.64239 0.0
C1074 C 0.11058 0.12649 0.67418 0.0
C1075 C 0.12302 0.14377 0.6945 0.0
C1076 C 0.15105 0.15657 0.68898 0.0
C1077 C 0.16565 0.15265 0.6629 0.0
C1078 C 0.08067 0.11253 0.67917 0.0
C1079 C 0.16521 0.17485 0.71033 0.0
C1080 C 0.06472 0.17254 0.74459 0.0
C1081 C 0.06642 0.15522 0.76757 0.0
C1082 C 0.08392 0.16968 0.72114 0.0
C1083 C 0.10569 0.14926 0.72082 0.0
C1084 C 0.10874 0.13266 0.74463 0.0
C1085 C 0.08889 0.13571 0.76765 0.0
C1086 C 0.07971 0.18762 0.69605 0.0
C1087 C 0.13208 0.11099 0.7453 0.0
H1088 H 0.11632 0.1092 0.63319 0.0
H1089 H 0.18653 0.16317 0.65832 0.0
H1090 H 0.08193 0.10068 0.69878 0.0
H1091 H 0.06221 0.12711 0.68209 0.0
H1092 H 0.07435 0.09942 0.66139 0.0
H1093 H 0.1883 0.18146 0.70388 0.0
H1094 H 0.15054 0.19234 0.71303 0.0
H1095 H 0.16685 0.16507 0.73122 0.0
H1096 H 0.04745 0.18768 0.74432 0.0
H1097 H 0.09058 0.12243 0.78547 0.0
H1098 H 0.07111 0.17615 0.6778 0.0
H1099 H 0.10182 0.19636 0.68972 0.0
H1100 H 0.06337 0.2037 0.70045 0.0
H1101 H 0.12559 0.09552 0.73 0.0
H1102 H 0.13407 0.10194 0.76657 0.0
H1103 H 0.15476 0.11857 0.73889 0.0
C1104 C 0.13088 0.8375 0.14073 0.0
C1105 C 0.15845 0.85136 0.1421 0.0
C1106 C 0.11354 0.83286 0.16512 0.0
C1107 C 0.1241 0.84222 0.19151 0.0
C1108 C 0.15268 0.85503 0.19324 0.0
C1109 C 0.16946 0.85954 0.16848 0.0
C1110 C 0.0831 0.81927 0.16236 0.0
C1111 C 0.16484 0.86509 0.22103 0.0
C1112 C 0.06348 0.86109 0.24456 0.0
C1113 C 0.06297 0.83931 0.26269 0.0
C1114 C 0.08347 0.86228 0.22157 0.0
C1115 C 0.10372 0.84127 0.21658 0.0
C1116 C 0.10383 0.81942 0.23503 0.0
C1117 C 0.08337 0.81865 0.25787 0.0
C1118 C 0.08254 0.88593 0.20234 0.0
C1119 C 0.12531 0.79677 0.23045 0.0
H1120 H 0.12212 0.83134 0.12038 0.0
H1121 H 0.19098 0.86994 0.16967 0.0
H1122 H 0.08106 0.80329 0.17813 0.0
H1123 H 0.06456 0.83347 0.16665 0.0
H1124 H 0.07956 0.81092 0.14094 0.0
H1125 H 0.18884 0.87187 0.21933 0.0
H1126 H 0.15068 0.88174 0.22831 0.0
H1127 H 0.1635 0.8496 0.23744 0.0
H1128 H 0.0479 0.87721 0.24806 0.0
H1129 H 0.08325 0.80181 0.27183 0.0
H1130 H 0.07664 0.87976 0.18054 0.0
H1131 H 0.10532 0.89535 0.20147 0.0
H1132 H 0.06567 0.90074 0.20937 0.0
H1133 H 0.12037 0.78732 0.20986 0.0
H1134 H 0.12346 0.78175 0.24737 0.0
H1135 H 0.14917 0.80394 0.22962 0.0
C1136 C 0.87801 0.16621 0.64075 0.0
C1137 C 0.85024 0.15257 0.64001 0.0
C1138 C 0.89387 0.16973 0.66616 0.0
C1139 C 0.88156 0.15955 0.69153 0.0
C1140 C 0.85258 0.14731 0.69124 0.0
C1141 C 0.83728 0.1439 0.66544 0.0
C1142 C 0.92467 0.18296 0.66556 0.0
C1143 C 0.83859 0.1364 0.7179 0.0
C1144 C 0.9401 0.13779 0.74539 0.0
C1145 C 0.94087 0.15912 0.76406 0.0
C1146 C 0.92036 0.1375 0.72215 0.0
C1147 C 0.90065 0.15898 0.71747 0.0
C1148 C 0.90053 0.18022 0.73667 0.0
C1149 C 0.92074 0.18009 0.75973 0.0
C1150 C 0.92127 0.11448 0.70212 0.0
C1151 C 0.87959 0.20332 0.73249 0.0
H1152 H 0.88783 0.17344 0.62124 0.0
H1153 H 0.81589 0.13325 0.66503 0.0
H1154 H 0.926 0.19838 0.68199 0.0
H1155 H 0.94266 0.16835 0.67032 0.0
H1156 H 0.92969 0.19195 0.64469 0.0
H1157 H 0.81432 0.13087 0.71486 0.0
H1158 H 0.85136 0.11872 0.72462 0.0
H1159 H 0.84014 0.15088 0.7353 0.0
H1160 H 0.95542 0.12142 0.74856 0.0
H1161 H 0.921 0.19657 0.77415 0.0
H1162 H 0.92856 0.1212 0.68087 0.0
H1163 H 0.8982 0.10583 0.69986 0.0
H1164 H 0.93715 0.09892 0.70932 0.0
H1165 H 0.88597 0.21394 0.71291 0.0
H1166 H 0.88056 0.21727 0.75047 0.0
H1167 H 0.85574 0.19651 0.72985 0.0
loop_
_geom_bond_atom_site_label_1
_geom_bond_atom_site_label_2
_geom_bond_distance
_geom_bond_site_symmetry_2
_ccdc_geom_bond_type
C0 C1 1.386 . S
C0 C2 1.397 . S
C0 H24 0.931 . S
C1 C0 1.386 . S
C1 C5 1.397 . S
C2 C0 1.397 . S
C2 C3 1.384 . S
C2 H25 0.930 . S
C3 C2 1.384 . S
C3 C4 1.377 . S
C3 C6 1.481 . S
C4 C3 1.377 . S
C4 C5 1.389 . S
C4 H26 0.929 . S
C5 C1 1.397 . S
C5 C4 1.389 . S
C5 H27 0.931 . S
C6 C3 1.481 . S
C6 C7 1.387 . S
C6 C11 1.390 1_556 S
C7 C6 1.387 . S
C7 C8 1.419 . S
C7 H28 0.930 . S
C8 C7 1.419 . S
C8 C9 1.344 1_556 S
C8 C17 1.525 . S
C9 C8 1.344 1_554 S
C9 C10 1.392 . S
C9 H30 0.931 . S
C10 C9 1.392 . S
C10 C11 1.361 . S
C10 C12 1.500 . S
C11 C6 1.390 1_554 S
C11 C10 1.361 . S
C11 H29 0.931 . S
C12 C10 1.500 . S
C12 C13 1.371 . S
C12 C14 1.365 . S
C13 C12 1.371 . S
C13 C23 1.386 . S
C13 H31 0.931 . S
C14 C12 1.365 . S
C14 C15 1.409 . S
C14 H32 0.929 . S
C15 C14 1.409 . S
C15 C16 1.380 . S
C15 H33 0.930 . S
C16 C15 1.380 . S
C16 C23 1.357 . S
C17 C8 1.525 . S
C17 C18 1.341 . S
C17 C19 1.371 . S
C18 C17 1.341 . S
C18 C22 1.394 . S
C18 H34 0.930 . S
C19 C17 1.371 . S
C19 C20 1.392 . S
C19 H35 0.931 1_556 S
C20 C19 1.392 . S
C20 C21 1.331 . S
C20 H38 0.932 . S
C21 C20 1.331 . S
C21 C22 1.336 . S
C22 C18 1.394 . S
C22 C21 1.336 . S
C22 H37 0.929 . S
C23 C13 1.386 . S
C23 C16 1.357 . S
C23 H36 0.928 . S
H24 C0 0.931 . S
H25 C2 0.930 . S
H26 C4 0.929 . S
H27 C5 0.931 . S
H28 C7 0.930 . S
H29 C11 0.931 . S
H30 C9 0.931 . S
H31 C13 0.931 . S
H32 C14 0.929 . S
H33 C15 0.930 . S
H34 C18 0.930 . S
H35 C19 0.931 1_554 S
H36 C23 0.928 . S
H37 C22 0.929 . S
H38 C20 0.932 . S
C39 C40 1.386 . S
C39 C41 1.397 . S
C39 H63 0.931 . S
C40 C39 1.386 . S
C40 C44 1.397 . S
C41 C39 1.397 . S
C41 C42 1.384 . S
C41 H64 0.930 . S
C42 C41 1.384 . S
C42 C43 1.377 . S
C42 C45 1.481 . S
C43 C42 1.377 . S
C43 C44 1.389 . S
C43 H65 0.929 . S
C44 C40 1.397 . S
C44 C43 1.389 . S
C44 H66 0.931 . S
C45 C42 1.481 . S
C45 C46 1.387 . S
C45 C50 1.390 . S
C46 C45 1.387 . S
C46 C47 1.401 . S
C46 H67 0.930 . S
C47 C46 1.401 . S
C47 C48 1.376 . S
C47 C56 1.511 . S
C48 C47 1.376 . S
C48 C49 1.392 . S
C48 H69 0.931 . S
C49 C48 1.392 . S
C49 C50 1.361 . S
C49 C51 1.500 . S
C50 C45 1.390 . S
C50 C49 1.361 . S
C50 H68 0.931 . S
C51 C49 1.500 . S
C51 C52 1.371 . S
C51 C53 1.365 . S
C52 C51 1.371 . S
C52 C62 1.386 . S
C52 H70 0.931 . S
C53 C51 1.365 . S
C53 C54 1.409 . S
C53 H71 0.929 . S
C54 C53 1.409 . S
C54 C55 1.380 . S
C54 H72 0.930 . S
C55 C54 1.380 . S
C55 C62 1.357 . S
C56 C47 1.511 . S
C56 C57 1.341 . S
C56 C58 1.371 . S
C57 C56 1.341 . S
C57 C61 1.394 . S
C57 H73 0.930 . S
C58 C56 1.371 . S
C58 C59 1.392 . S
C58 H74 0.931 . S
C59 C58 1.392 . S
C59 C60 1.331 . S
C59 H77 0.932 . S
C60 C59 1.331 . S
C60 C61 1.336 . S
C61 C57 1.394 . S
C61 C60 1.336 . S
C61 H76 0.929 . S
C62 C52 1.386 . S
C62 C55 1.357 . S
C62 H75 0.928 . S
H63 C39 0.931 . S
H64 C41 0.930 . S
H65 C43 0.929 . S
H66 C44 0.931 . S
H67 C46 0.930 . S
H68 C50 0.931 . S
H69 C48 0.931 . S
H70 C52 0.931 . S
H71 C53 0.929 . S
H72 C54 0.930 . S
H73 C57 0.930 . S
H74 C58 0.931 . S
H75 C62 0.928 . S
H76 C61 0.929 . S
H77 C59 0.932 . S
C78 C79 1.386 . S
C78 C80 1.397 . S
C78 H102 0.931 . S
C79 C78 1.386 . S
C79 C83 1.397 . S
C80 C78 1.397 . S
C80 C81 1.384 . S
C80 H103 0.930 . S
C81 C80 1.384 . S
C81 C82 1.377 . S
C81 C84 1.481 . S
C82 C81 1.377 . S
C82 C83 1.389 . S
C82 H104 0.929 1_556 S
C83 C79 1.397 . S
C83 C82 1.389 . S
C83 H105 0.931 . S
C84 C81 1.481 . S
C84 C85 1.387 . S
C84 C89 1.390 1_556 S
C85 C84 1.387 . S
C85 C86 1.401 . S
C85 H106 0.930 . S
C86 C85 1.401 . S
C86 C87 1.376 1_556 S
C86 C95 1.511 . S
C87 C86 1.376 1_554 S
C87 C88 1.392 . S
C87 H108 0.931 . S
C88 C87 1.392 . S
C88 C89 1.361 . S
C88 C90 1.500 . S
C89 C84 1.390 1_554 S
C89 C88 1.361 . S
C89 H107 0.931 . S
C90 C88 1.500 . S
C90 C91 1.371 . S
C90 C92 1.365 . S
C91 C90 1.371 . S
C91 C101 1.386 . S
C91 H109 0.931 . S
C92 C90 1.365 . S
C92 C93 1.409 . S
C92 H110 0.929 . S
C93 C92 1.409 . S
C93 C94 1.380 . S
C93 H111 0.930 . S
C94 C93 1.380 . S
C94 C101 1.357 . S
C95 C86 1.511 . S
C95 C96 1.341 . S
C95 C97 1.362 1_556 S
C96 C95 1.341 . S
C96 C100 1.394 . S
C96 H112 0.930 . S
C97 C95 1.362 1_554 S
C97 C98 1.386 1_554 S
C97 H113 0.948 . S
C98 C97 1.386 1_556 S
C98 C99 1.331 . S
C98 H116 0.920 1_556 S
C99 C98 1.331 . S
C99 C100 1.336 . S
C100 C96 1.394 . S
C100 C99 1.336 . S
C100 H115 0.929 . S
C101 C91 1.386 . S
C101 C94 1.357 . S
C101 H114 0.928 . S
H102 C78 0.931 . S
H103 C80 0.930 . S
H104 C82 0.929 1_554 S
H105 C83 0.931 . S
H106 C85 0.930 . S
H107 C89 0.931 . S
H108 C87 0.931 . S
H109 C91 0.931 . S
H110 C92 0.929 . S
H111 C93 0.930 . S
H112 C96 0.930 . S
H113 C97 0.948 . S
H114 C101 0.928 . S
H115 C100 0.929 . S
H116 C98 0.920 1_554 S
C117 C118 1.386 . S
C117 C119 1.397 . S
C117 H141 0.931 . S
C118 C117 1.386 . S
C118 C122 1.397 . S
C119 C117 1.397 . S
C119 C120 1.384 . S
C119 H142 0.930 . S
C120 C119 1.384 . S
C120 C121 1.377 . S
C120 C123 1.481 . S
C121 C120 1.377 . S
C121 C122 1.389 . S
C121 H143 0.929 . S
C122 C118 1.397 . S
C122 C121 1.389 . S
C122 H144 0.931 . S
C123 C120 1.481 . S
C123 C124 1.387 . S
C123 C128 1.390 . S
C124 C123 1.387 . S
C124 C125 1.401 . S
C124 H145 0.930 . S
C125 C124 1.401 . S
C125 C126 1.376 . S
C125 C134 1.511 . S
C126 C125 1.376 . S
C126 C127 1.392 . S
C126 H147 0.931 . S
C127 C126 1.392 . S
C127 C128 1.361 . S
C127 C129 1.500 . S
C128 C123 1.390 . S
C128 C127 1.361 . S
C128 H146 0.931 . S
C129 C127 1.500 . S
C129 C130 1.371 . S
C129 C131 1.365 . S
C130 C129 1.371 . S
C130 C140 1.386 . S
C130 H148 0.931 . S
C131 C129 1.365 . S
C131 C132 1.409 . S
C131 H149 0.929 . S
C132 C131 1.409 . S
C132 C133 1.380 . S
C132 H150 0.930 . S
C133 C132 1.380 . S
C133 C140 1.357 . S
C134 C125 1.511 . S
C134 C135 1.341 . S
C134 C136 1.371 . S
C135 C134 1.341 . S
C135 C139 1.394 . S
C135 H151 0.930 . S
C136 C134 1.371 . S
C136 C137 1.392 . S
C136 H152 0.931 . S
C137 C136 1.392 . S
C137 C138 1.331 . S
C137 H155 0.932 . S
C138 C137 1.331 . S
C138 C139 1.336 . S
C139 C135 1.394 . S
C139 C138 1.336 . S
C139 H154 0.929 . S
C140 C130 1.386 . S
C140 C133 1.357 . S
C140 H153 0.928 . S
H141 C117 0.931 . S
H142 C119 0.930 . S
H143 C121 0.929 . S
H144 C122 0.931 . S
H145 C124 0.930 . S
H146 C128 0.931 . S
H147 C126 0.931 . S
H148 C130 0.931 . S
H149 C131 0.929 . S
H150 C132 0.930 . S
H151 C135 0.930 . S
H152 C136 0.931 . S
H153 C140 0.928 . S
H154 C139 0.929 . S
H155 C137 0.932 . S
C156 C157 1.386 . S
C156 C158 1.397 . S
C156 H180 0.931 . S
C157 C156 1.386 . S
C157 C161 1.397 . S
C158 C156 1.397 . S
C158 C159 1.384 . S
C158 H181 0.930 . S
C159 C158 1.384 . S
C159 C160 1.377 . S
C159 C162 1.481 . S
C160 C159 1.377 . S
C160 C161 1.389 . S
C160 H182 0.929 . S
C161 C157 1.397 . S
C161 C160 1.389 . S
C161 H183 0.931 . S
C162 C159 1.481 . S
C162 C163 1.387 . S
C162 C167 1.390 1_556 S
C163 C162 1.387 . S
C163 C164 1.419 . S
C163 H184 0.930 . S
C164 C163 1.419 . S
C164 C165 1.343 1_556 S
C164 C173 1.525 . S
C165 C164 1.343 1_554 S
C165 C166 1.392 . S
C165 H186 0.931 . S
C166 C165 1.392 . S
C166 C167 1.361 . S
C166 C168 1.500 . S
C167 C162 1.390 1_554 S
C167 C166 1.361 . S
C167 H185 0.931 . S
C168 C166 1.500 . S
C168 C169 1.371 . S
C168 C170 1.365 . S
C169 C168 1.371 . S
C169 C179 1.386 . S
C169 H187 0.931 . S
C170 C168 1.365 . S
C170 C171 1.409 . S
C170 H188 0.929 . S
C171 C170 1.409 . S
C171 C172 1.380 . S
C171 H189 0.930 . S
C172 C171 1.380 . S
C172 C179 1.357 . S
C173 C164 1.525 . S
C173 C174 1.341 . S
C173 C175 1.371 . S
C174 C173 1.341 . S
C174 C178 1.394 . S
C174 H190 0.930 . S
C175 C173 1.371 . S
C175 C176 1.392 . S
C175 H191 0.931 1_556 S
C176 C175 1.392 . S
C176 C177 1.331 . S
C176 H194 0.932 . S
C177 C176 1.331 . S
C177 C178 1.336 . S
C178 C174 1.394 . S
C178 C177 1.336 . S
C178 H193 0.929 . S
C179 C169 1.386 . S
C179 C172 1.357 . S
C179 H192 0.928 . S
H180 C156 0.931 . S
H181 C158 0.930 . S
H182 C160 0.929 . S
H183 C161 0.931 . S
H184 C163 0.930 . S
H185 C167 0.931 . S
H186 C165 0.931 . S
H187 C169 0.931 . S
H188 C170 0.929 . S
H189 C171 0.930 . S
H190 C174 0.930 . S
H191 C175 0.931 1_554 S
H192 C179 0.928 . S
H193 C178 0.929 . S
H194 C176 0.932 . S
C195 C196 1.386 . S
C195 C197 1.397 . S
C195 H219 0.931 . S
C196 C195 1.386 . S
C196 C200 1.397 . S
C197 C195 1.397 . S
C197 C198 1.384 . S
C197 H220 0.930 . S
C198 C197 1.384 . S
C198 C199 1.377 . S
C198 C201 1.481 . S
C199 C198 1.377 . S
C199 C200 1.389 . S
C199 H221 0.929 . S
C200 C196 1.397 . S
C200 C199 1.389 . S
C200 H222 0.931 . S
C201 C198 1.481 . S
C201 C202 1.387 . S
C201 C206 1.390 . S
C202 C201 1.387 . S
C202 C203 1.401 . S
C202 H223 0.930 . S
C203 C202 1.401 . S
C203 C204 1.376 . S
C203 C212 1.511 . S
C204 C203 1.376 . S
C204 C205 1.392 . S
C204 H225 0.931 . S
C205 C204 1.392 . S
C205 C206 1.361 . S
C205 C207 1.500 . S
C206 C201 1.390 . S
C206 C205 1.361 . S
C206 H224 0.931 . S
C207 C205 1.500 . S
C207 C208 1.371 . S
C207 C209 1.365 . S
C208 C207 1.371 . S
C208 C218 1.386 . S
C208 H226 0.931 . S
C209 C207 1.365 . S
C209 C210 1.409 . S
C209 H227 0.929 . S
C210 C209 1.409 . S
C210 C211 1.380 . S
C210 H228 0.930 . S
C211 C210 1.380 . S
C211 C218 1.357 . S
C212 C203 1.511 . S
C212 C213 1.341 . S
C212 C214 1.371 . S
C213 C212 1.341 . S
C213 C217 1.394 . S
C213 H229 0.930 . S
C214 C212 1.371 . S
C214 C215 1.392 . S
C214 H230 0.931 . S
C215 C214 1.392 . S
C215 C216 1.331 . S
C215 H233 0.932 . S
C216 C215 1.331 . S
C216 C217 1.336 . S
C217 C213 1.394 . S
C217 C216 1.336 . S
C217 H232 0.929 . S
C218 C208 1.386 . S
C218 C211 1.357 . S
C218 H231 0.928 . S
H219 C195 0.931 . S
H220 C197 0.930 . S
H221 C199 0.929 . S
H222 C200 0.931 . S
H223 C202 0.930 . S
H224 C206 0.931 . S
H225 C204 0.931 . S
H226 C208 0.931 . S
H227 C209 0.929 . S
H228 C210 0.930 . S
H229 C213 0.930 . S
H230 C214 0.931 . S
H231 C218 0.928 . S
H232 C217 0.929 . S
H233 C215 0.932 . S
C234 C235 1.386 . S
C234 C236 1.397 . S
C234 H258 0.931 . S
C235 C234 1.386 . S
C235 C239 1.397 . S
C236 C234 1.397 . S
C236 C237 1.384 . S
C236 H259 0.930 . S
C237 C236 1.384 . S
C237 C238 1.377 . S
C237 C240 1.481 . S
C238 C237 1.377 . S
C238 C239 1.389 . S
C238 H260 0.929 1_556 S
C239 C235 1.397 . S
C239 C238 1.389 . S
C239 H261 0.931 1_565 S
C240 C237 1.481 . S
C240 C241 1.387 . S
C240 C245 1.390 1_556 S
C241 C240 1.387 . S
C241 C242 1.401 . S
C241 H262 0.930 . S
C242 C241 1.401 . S
C242 C243 1.376 1_556 S
C242 C251 1.511 . S
C243 C242 1.376 1_554 S
C243 C244 1.392 . S
C243 H264 0.931 . S
C244 C243 1.392 . S
C244 C245 1.361 . S
C244 C246 1.500 . S
C245 C240 1.390 1_554 S
C245 C244 1.361 . S
C245 H263 0.931 . S
C246 C244 1.500 . S
C246 C247 1.371 . S
C246 C248 1.365 . S
C247 C246 1.371 . S
C247 C257 1.386 . S
C247 H265 0.931 . S
C248 C246 1.365 . S
C248 C249 1.409 . S
C248 H266 0.929 . S
C249 C248 1.409 . S
C249 C250 1.380 . S
C249 H267 0.930 . S
C250 C249 1.380 . S
C250 C257 1.357 . S
C251 C242 1.511 . S
C251 C252 1.341 . S
C251 C253 1.362 1_556 S
C252 C251 1.341 . S
C252 C256 1.394 . S
C252 H268 0.930 . S
C253 C251 1.362 1_554 S
C253 C254 1.386 1_554 S
C253 H269 0.948 . S
C254 C253 1.386 1_556 S
C254 C255 1.331 . S
C254 H272 0.920 1_556 S
C255 C254 1.331 . S
C255 C256 1.336 . S
C256 C252 1.394 . S
C256 C255 1.336 . S
C256 H271 0.929 . S
C257 C247 1.386 . S
C257 C250 1.357 . S
C257 H270 0.928 . S
H258 C234 0.931 . S
H259 C236 0.930 . S
H260 C238 0.929 1_554 S
H261 C239 0.931 1_545 S
H262 C241 0.930 . S
H263 C245 0.931 . S
H264 C243 0.931 . S
H265 C247 0.931 . S
H266 C248 0.929 . S
H267 C249 0.930 . S
H268 C252 0.930 . S
H269 C253 0.948 . S
H270 C257 0.928 . S
H271 C256 0.929 . S
H272 C254 0.920 1_554 S
C273 C274 1.386 . S
C273 C275 1.397 . S
C273 H297 0.931 . S
C274 C273 1.386 . S
C274 C278 1.397 . S
C275 C273 1.397 . S
C275 C276 1.384 . S
C275 H298 0.930 . S
C276 C275 1.384 . S
C276 C277 1.377 . S
C276 C279 1.481 . S
C277 C276 1.377 . S
C277 C278 1.389 . S
C277 H299 0.929 . S
C278 C274 1.397 . S
C278 C277 1.389 . S
C278 H300 0.931 . S
C279 C276 1.481 . S
C279 C280 1.387 . S
C279 C284 1.390 . S
C280 C279 1.387 . S
C280 C281 1.401 . S
C280 H301 0.930 . S
C281 C280 1.401 . S
C281 C282 1.376 . S
C281 C290 1.511 . S
C282 C281 1.376 . S
C282 C283 1.392 . S
C282 H303 0.931 . S
C283 C282 1.392 . S
C283 C284 1.361 . S
C283 C285 1.500 . S
C284 C279 1.390 . S
C284 C283 1.361 . S
C284 H302 0.931 . S
C285 C283 1.500 . S
C285 C286 1.371 . S
C285 C287 1.365 . S
C286 C285 1.371 . S
C286 C296 1.386 . S
C286 H304 0.931 . S
C287 C285 1.365 . S
C287 C288 1.409 . S
C287 H305 0.929 . S
C288 C287 1.409 . S
C288 C289 1.380 . S
C288 H306 0.930 . S
C289 C288 1.380 . S
C289 C296 1.357 . S
C290 C281 1.511 . S
C290 C291 1.341 . S
C290 C292 1.371 . S
C291 C290 1.341 . S
C291 C295 1.394 . S
C291 H307 0.930 . S
C292 C290 1.371 . S
C292 C293 1.392 . S
C292 H308 0.931 . S
C293 C292 1.392 . S
C293 C294 1.331 . S
C293 H311 0.932 . S
C294 C293 1.331 . S
C294 C295 1.336 . S
C295 C291 1.394 . S
C295 C294 1.336 . S
C295 H310 0.929 . S
C296 C286 1.386 . S
C296 C289 1.357 . S
C296 H309 0.928 . S
H297 C273 0.931 . S
H298 C275 0.930 . S
H299 C277 0.929 . S
H300 C278 0.931 . S
H301 C280 0.930 . S
H302 C284 0.931 . S
H303 C282 0.931 . S
H304 C286 0.931 . S
H305 C287 0.929 . S
H306 C288 0.930 . S
H307 C291 0.930 . S
H308 C292 0.931 . S
H309 C296 0.928 . S
H310 C295 0.929 . S
H311 C293 0.932 . S
Fe312 O314 1.918 . S
Fe312 O317 1.997 1_455 S
Fe312 O318 2.002 1_455 S
Fe312 O323 1.976 . S
Fe312 O326 1.996 . S
Fe313 O314 1.918 . S
Fe313 O321 1.997 1_455 S
Fe313 O324 1.996 . S
Fe313 O328 1.976 . S
Fe313 O331 2.002 1_455 S
O314 Fe312 1.918 . S
O314 Fe313 1.918 . S
O314 Fe315 1.918 . S
Fe315 O314 1.918 . S
Fe315 O316 2.002 1_455 S
Fe315 O325 1.976 . S
Fe315 O329 1.996 . S
Fe315 O332 1.997 1_455 S
O316 Fe315 2.002 1_655 S
O316 C333 1.295 . S
O317 Fe312 1.997 1_655 S
O317 C333 1.235 . S
O318 Fe312 2.002 1_655 S
O318 C319 1.295 . S
C319 O318 1.295 . S
C319 O321 1.235 . S
C320 O325 1.287 . S
C320 O326 1.255 . S
O321 Fe313 1.997 1_655 S
O321 C319 1.235 . S
C322 O328 1.287 . S
C322 O329 1.255 . S
O323 Fe312 1.976 . S
O323 C330 1.287 . S
O324 Fe313 1.996 . S
O324 C330 1.255 . S
O325 Fe315 1.976 . S
O325 C320 1.287 . S
O326 Fe312 1.996 . S
O326 C320 1.255 . S
C327 O331 1.295 . S
C327 O332 1.235 . S
O328 Fe313 1.976 . S
O328 C322 1.287 . S
O329 Fe315 1.996 . S
O329 C322 1.255 . S
C330 O323 1.287 . S
C330 O324 1.255 . S
O331 Fe313 2.002 1_655 S
O331 C327 1.295 . S
O332 Fe315 1.997 1_655 S
O332 C327 1.235 . S
C333 O316 1.295 . S
C333 O317 1.235 . S
Fe334 O336 1.918 . S
Fe334 O339 1.996 1_655 S
Fe334 O340 2.002 1_655 S
Fe334 O345 1.977 . S
Fe334 O348 1.996 . S
Fe335 O336 1.918 . S
Fe335 O343 1.995 1_655 S
Fe335 O346 1.997 . S
Fe335 O350 1.977 . S
Fe335 O353 2.001 1_655 S
O336 Fe334 1.918 . S
O336 Fe335 1.918 . S
O336 Fe337 1.918 . S
Fe337 O336 1.918 . S
Fe337 O338 2.002 1_655 S
Fe337 O347 1.976 . S
Fe337 O351 1.996 . S
Fe337 O354 1.996 1_655 S
O338 Fe337 2.002 1_455 S
O338 C355 1.295 . S
O339 Fe334 1.996 1_455 S
O339 C355 1.235 . S
O340 Fe334 2.002 1_455 S
O340 C341 1.295 . S
C341 O340 1.295 . S
C341 O343 1.235 . S
C342 O347 1.287 . S
C342 O348 1.255 . S
O343 Fe335 1.995 1_455 S
O343 C341 1.235 . S
C344 O350 1.287 . S
C344 O351 1.255 . S
O345 Fe334 1.977 . S
O345 C352 1.287 . S
O346 Fe335 1.997 . S
O346 C352 1.255 . S
O347 Fe337 1.976 . S
O347 C342 1.287 . S
O348 Fe334 1.996 . S
O348 C342 1.255 . S
C349 O353 1.295 . S
C349 O354 1.235 . S
O350 Fe335 1.977 . S
O350 C344 1.287 . S
O351 Fe337 1.996 . S
O351 C344 1.255 . S
C352 O345 1.287 . S
C352 O346 1.255 . S
O353 Fe335 2.001 1_455 S
O353 C349 1.295 . S
O354 Fe337 1.996 1_455 S
O354 C349 1.235 . S
C355 O338 1.295 . S
C355 O339 1.235 . S
Fe356 O358 1.918 . S
Fe356 O361 1.997 . S
Fe356 O362 2.002 . S
Fe356 O367 1.976 . S
Fe356 O370 1.996 . S
Fe357 O358 1.918 . S
Fe357 O365 1.997 . S
Fe357 O368 1.996 . S
Fe357 O372 1.976 . S
Fe357 O375 2.002 . S
O358 Fe356 1.918 . S
O358 Fe357 1.918 . S
O358 Fe359 1.918 . S
Fe359 O358 1.918 . S
Fe359 O360 2.002 . S
Fe359 O369 1.976 . S
Fe359 O373 1.996 . S
Fe359 O376 1.997 . S
O360 Fe359 2.002 . S
O360 C377 1.295 . S
O361 Fe356 1.997 . S
O361 C377 1.235 . S
O362 Fe356 2.002 . S
O362 C363 1.295 . S
C363 O362 1.295 . S
C363 O365 1.235 . S
C364 O369 1.287 . S
C364 O370 1.255 . S
O365 Fe357 1.997 . S
O365 C363 1.235 . S
C366 O372 1.287 . S
C366 O373 1.255 . S
O367 Fe356 1.976 . S
O367 C374 1.287 . S
O368 Fe357 1.996 . S
O368 C374 1.255 . S
O369 Fe359 1.976 . S
O369 C364 1.287 . S
O370 Fe356 1.996 . S
O370 C364 1.255 . S
C371 O375 1.295 . S
C371 O376 1.235 . S
O372 Fe357 1.976 . S
O372 C366 1.287 . S
O373 Fe359 1.996 . S
O373 C366 1.255 . S
C374 O367 1.287 . S
C374 O368 1.255 . S
O375 Fe357 2.002 . S
O375 C371 1.295 . S
O376 Fe359 1.997 . S
O376 C371 1.235 . S
C377 O360 1.295 . S
C377 O361 1.235 . S
Fe378 O380 1.918 . S
Fe378 O383 1.997 . S
Fe378 O384 2.002 . S
Fe378 O389 1.976 . S
Fe378 O392 1.996 . S
Fe379 O380 1.918 . S
Fe379 O387 1.997 . S
Fe379 O390 1.996 . S
Fe379 O394 1.976 . S
Fe379 O397 2.002 . S
O380 Fe378 1.918 . S
O380 Fe379 1.918 . S
O380 Fe381 1.918 . S
Fe381 O380 1.918 . S
Fe381 O382 2.002 . S
Fe381 O391 1.976 . S
Fe381 O395 1.996 . S
Fe381 O398 1.997 . S
O382 Fe381 2.002 . S
O382 C399 1.295 . S
O383 Fe378 1.997 . S
O383 C399 1.235 . S
O384 Fe378 2.002 . S
O384 C385 1.295 . S
C385 O384 1.295 . S
C385 O387 1.235 . S
C386 O391 1.287 . S
C386 O392 1.255 . S
O387 Fe379 1.997 . S
O387 C385 1.235 . S
C388 O394 1.287 . S
C388 O395 1.255 . S
O389 Fe378 1.976 . S
O389 C396 1.287 . S
O390 Fe379 1.996 . S
O390 C396 1.255 . S
O391 Fe381 1.976 . S
O391 C386 1.287 . S
O392 Fe378 1.996 . S
O392 C386 1.255 . S
C393 O397 1.295 . S
C393 O398 1.235 . S
O394 Fe379 1.976 . S
O394 C388 1.287 . S
O395 Fe381 1.996 . S
O395 C388 1.255 . S
C396 O389 1.287 . S
C396 O390 1.255 . S
O397 Fe379 2.002 . S
O397 C393 1.295 . S
O398 Fe381 1.997 . S
O398 C393 1.235 . S
C399 O382 1.295 . S
C399 O383 1.235 . S
C400 C401 1.391 . S
C400 C402 1.394 . S
C400 H416 0.931 . S
C401 C400 1.391 . S
C401 C405 1.376 . S
C402 C400 1.394 . S
C402 C403 1.369 . S
C402 C406 1.531 . S
C403 C402 1.369 . S
C403 C404 1.410 . S
C403 C411 1.503 . S
C404 C403 1.410 . S
C404 C405 1.392 . S
C404 C407 1.511 . S
C405 C401 1.376 . S
C405 C404 1.392 . S
C405 H417 0.929 . S
C406 C402 1.531 . S
C406 H418 0.960 . S
C406 H419 0.962 . S
C406 H420 0.960 . S
C407 C404 1.511 . S
C407 H421 0.961 . S
C407 H422 0.961 . S
C407 H423 0.961 . S
C408 C409 1.370 . S
C408 C410 1.363 . S
C408 H424 0.931 . S
C409 C408 1.370 . S
C409 C413 1.408 . S
C410 C408 1.363 . S
C410 C411 1.370 . S
C410 C414 1.524 . S
C411 C403 1.503 . S
C411 C410 1.370 . S
C411 C412 1.403 . S
C412 C411 1.403 . S
C412 C413 1.404 . S
C412 C415 1.539 . S
C413 C409 1.408 . S
C413 C412 1.404 . S
C413 H425 0.930 . S
C414 C410 1.524 . S
C414 H426 0.956 . S
C414 H427 0.961 . S
C414 H428 0.961 . S
C415 C412 1.539 . S
C415 H429 0.958 . S
C415 H430 0.961 . S
C415 H431 0.960 . S
H416 C400 0.931 . S
H417 C405 0.929 . S
H418 C406 0.960 . S
H419 C406 0.962 . S
H420 C406 0.960 . S
H421 C407 0.961 . S
H422 C407 0.961 . S
H423 C407 0.961 . S
H424 C408 0.931 . S
H425 C413 0.930 . S
H426 C414 0.956 . S
H427 C414 0.961 . S
H428 C414 0.961 . S
H429 C415 0.958 . S
H430 C415 0.961 . S
H431 C415 0.960 . S
C432 C433 1.391 . S
C432 C434 1.394 . S
C432 H448 0.931 . S
C433 C432 1.391 . S
C433 C437 1.376 . S
C434 C432 1.394 . S
C434 C435 1.369 . S
C434 C438 1.531 . S
C435 C434 1.369 . S
C435 C436 1.410 . S
C435 C443 1.503 . S
C436 C435 1.410 . S
C436 C437 1.392 . S
C436 C439 1.511 . S
C437 C433 1.376 . S
C437 C436 1.392 . S
C437 H449 0.929 . S
C438 C434 1.531 . S
C438 H450 0.960 . S
C438 H451 0.962 . S
C438 H452 0.960 . S
C439 C436 1.511 . S
C439 H453 0.961 . S
C439 H454 0.961 . S
C439 H455 0.961 . S
C440 C441 1.370 . S
C440 C442 1.363 . S
C440 H456 0.931 . S
C441 C440 1.370 . S
C441 C445 1.408 . S
C442 C440 1.363 . S
C442 C443 1.370 . S
C442 C446 1.524 . S
C443 C435 1.503 . S
C443 C442 1.370 . S
C443 C444 1.403 . S
C444 C443 1.403 . S
C444 C445 1.404 . S
C444 C447 1.539 . S
C445 C441 1.408 . S
C445 C444 1.404 . S
C445 H457 0.930 . S
C446 C442 1.524 . S
C446 H458 0.956 . S
C446 H459 0.961 . S
C446 H460 0.961 . S
C447 C444 1.539 . S
C447 H461 0.958 . S
C447 H462 0.961 . S
C447 H463 0.960 . S
H448 C432 0.931 . S
H449 C437 0.929 . S
H450 C438 0.960 . S
H451 C438 0.962 . S
H452 C438 0.960 . S
H453 C439 0.961 . S
H454 C439 0.961 . S
H455 C439 0.961 . S
H456 C440 0.931 . S
H457 C445 0.930 . S
H458 C446 0.956 . S
H459 C446 0.961 . S
H460 C446 0.961 . S
H461 C447 0.958 . S
H462 C447 0.961 . S
H463 C447 0.960 . S
C464 C465 1.391 . S
C464 C466 1.394 . S
C464 H480 0.931 . S
C465 C464 1.391 . S
C465 C469 1.376 . S
C466 C464 1.394 . S
C466 C467 1.369 . S
C466 C470 1.531 . S
C467 C466 1.369 . S
C467 C468 1.410 . S
C467 C475 1.503 . S
C468 C467 1.410 . S
C468 C469 1.392 . S
C468 C471 1.511 . S
C469 C465 1.376 . S
C469 C468 1.392 . S
C469 H481 0.929 . S
C470 C466 1.531 . S
C470 H482 0.960 . S
C470 H483 0.962 . S
C470 H484 0.960 . S
C471 C468 1.511 . S
C471 H485 0.961 . S
C471 H486 0.961 . S
C471 H487 0.961 . S
C472 C473 1.370 . S
C472 C474 1.363 . S
C472 H488 0.931 . S
C473 C472 1.370 . S
C473 C477 1.408 . S
C474 C472 1.363 . S
C474 C475 1.370 . S
C474 C478 1.524 . S
C475 C467 1.503 . S
C475 C474 1.370 . S
C475 C476 1.403 . S
C476 C475 1.403 . S
C476 C477 1.404 . S
C476 C479 1.539 . S
C477 C473 1.408 . S
C477 C476 1.404 . S
C477 H489 0.930 . S
C478 C474 1.524 . S
C478 H490 0.956 . S
C478 H491 0.961 . S
C478 H492 0.961 . S
C479 C476 1.539 . S
C479 H493 0.958 . S
C479 H494 0.961 . S
C479 H495 0.960 . S
H480 C464 0.931 . S
H481 C469 0.929 . S
H482 C470 0.960 . S
H483 C470 0.962 . S
H484 C470 0.960 . S
H485 C471 0.961 . S
H486 C471 0.961 . S
H487 C471 0.961 . S
H488 C472 0.931 . S
H489 C477 0.930 . S
H490 C478 0.956 . S
H491 C478 0.961 . S
H492 C478 0.961 . S
H493 C479 0.958 . S
H494 C479 0.961 . S
H495 C479 0.960 . S
C496 C497 1.391 . S
C496 C498 1.394 . S
C496 H512 0.931 . S
C497 C496 1.391 . S
C497 C501 1.376 . S
C498 C496 1.394 . S
C498 C499 1.369 . S
C498 C502 1.531 . S
C499 C498 1.369 . S
C499 C500 1.410 . S
C499 C507 1.503 . S
C500 C499 1.410 . S
C500 C501 1.392 . S
C500 C503 1.511 . S
C501 C497 1.376 . S
C501 C500 1.392 . S
C501 H513 0.929 . S
C502 C498 1.531 . S
C502 H514 0.960 . S
C502 H515 0.962 . S
C502 H516 0.960 . S
C503 C500 1.511 . S
C503 H517 0.961 . S
C503 H518 0.961 . S
C503 H519 0.961 . S
C504 C505 1.370 . S
C504 C506 1.363 . S
C504 H520 0.931 . S
C505 C504 1.370 . S
C505 C509 1.408 . S
C506 C504 1.363 . S
C506 C507 1.370 . S
C506 C510 1.524 . S
C507 C499 1.503 . S
C507 C506 1.370 . S
C507 C508 1.403 . S
C508 C507 1.403 . S
C508 C509 1.404 . S
C508 C511 1.539 . S
C509 C505 1.408 . S
C509 C508 1.404 . S
C509 H521 0.930 . S
C510 C506 1.524 . S
C510 H522 0.956 . S
C510 H523 0.961 . S
C510 H524 0.961 . S
C511 C508 1.539 . S
C511 H525 0.958 . S
C511 H526 0.961 . S
C511 H527 0.960 . S
H512 C496 0.931 . S
H513 C501 0.929 . S
H514 C502 0.960 . S
H515 C502 0.962 . S
H516 C502 0.960 . S
H517 C503 0.961 . S
H518 C503 0.961 . S
H519 C503 0.961 . S
H520 C504 0.931 . S
H521 C509 0.930 . S
H522 C510 0.956 . S
H523 C510 0.961 . S
H524 C510 0.961 . S
H525 C511 0.958 . S
H526 C511 0.961 . S
H527 C511 0.960 . S
C528 C529 1.391 . S
C528 C530 1.394 . S
C528 H544 0.931 . S
C529 C528 1.391 . S
C529 C533 1.376 . S
C530 C528 1.394 . S
C530 C531 1.369 . S
C530 C534 1.531 . S
C531 C530 1.369 . S
C531 C532 1.410 . S
C531 C539 1.503 . S
C532 C531 1.410 . S
C532 C533 1.392 . S
C532 C535 1.511 . S
C533 C529 1.376 . S
C533 C532 1.392 . S
C533 H545 0.929 . S
C534 C530 1.531 . S
C534 H546 0.960 . S
C534 H547 0.962 . S
C534 H548 0.960 . S
C535 C532 1.511 . S
C535 H549 0.961 . S
C535 H550 0.961 . S
C535 H551 0.961 . S
C536 C537 1.370 . S
C536 C538 1.363 . S
C536 H552 0.931 . S
C537 C536 1.370 . S
C537 C541 1.408 . S
C538 C536 1.363 . S
C538 C539 1.370 . S
C538 C542 1.524 . S
C539 C531 1.503 . S
C539 C538 1.370 . S
C539 C540 1.403 . S
C540 C539 1.403 . S
C540 C541 1.404 . S
C540 C543 1.539 . S
C541 C537 1.408 . S
C541 C540 1.404 . S
C541 H553 0.930 . S
C542 C538 1.524 . S
C542 H554 0.956 . S
C542 H555 0.961 . S
C542 H556 0.961 . S
C543 C540 1.539 . S
C543 H557 0.958 . S
C543 H558 0.961 . S
C543 H559 0.960 . S
H544 C528 0.931 . S
H545 C533 0.929 . S
H546 C534 0.960 . S
H547 C534 0.962 . S
H548 C534 0.960 . S
H549 C535 0.961 . S
H550 C535 0.961 . S
H551 C535 0.961 . S
H552 C536 0.931 . S
H553 C541 0.930 . S
H554 C542 0.956 . S
H555 C542 0.961 . S
H556 C542 0.961 . S
H557 C543 0.958 . S
H558 C543 0.961 . S
H559 C543 0.960 . S
C560 C561 1.391 . S
C560 C562 1.394 . S
C560 H576 0.931 . S
C561 C560 1.391 . S
C561 C565 1.376 . S
C562 C560 1.394 . S
C562 C563 1.369 . S
C562 C566 1.531 . S
C563 C562 1.369 . S
C563 C564 1.410 . S
C563 C571 1.503 . S
C564 C563 1.410 . S
C564 C565 1.392 . S
C564 C567 1.511 . S
C565 C561 1.376 . S
C565 C564 1.392 . S
C565 H577 0.929 . S
C566 C562 1.531 . S
C566 H578 0.960 . S
C566 H579 0.962 . S
C566 H580 0.960 . S
C567 C564 1.511 . S
C567 H581 0.961 . S
C567 H582 0.961 . S
C567 H583 0.961 . S
C568 C569 1.370 . S
C568 C570 1.363 . S
C568 H584 0.931 . S
C569 C568 1.370 . S
C569 C573 1.408 . S
C570 C568 1.363 . S
C570 C571 1.370 . S
C570 C574 1.524 . S
C571 C563 1.503 . S
C571 C570 1.370 . S
C571 C572 1.403 . S
C572 C571 1.403 . S
C572 C573 1.404 . S
C572 C575 1.539 . S
C573 C569 1.408 . S
C573 C572 1.404 . S
C573 H585 0.930 . S
C574 C570 1.524 . S
C574 H586 0.956 . S
C574 H587 0.961 . S
C574 H588 0.961 . S
C575 C572 1.539 . S
C575 H589 0.958 . S
C575 H590 0.961 . S
C575 H591 0.960 . S
H576 C560 0.931 . S
H577 C565 0.929 . S
H578 C566 0.960 . S
H579 C566 0.962 . S
H580 C566 0.960 . S
H581 C567 0.961 . S
H582 C567 0.961 . S
H583 C567 0.961 . S
H584 C568 0.931 . S
H585 C573 0.930 . S
H586 C574 0.956 . S
H587 C574 0.961 . S
H588 C574 0.961 . S
H589 C575 0.958 . S
H590 C575 0.961 . S
H591 C575 0.960 . S
C592 C593 1.391 . S
C592 C594 1.394 . S
C592 H608 0.931 . S
C593 C592 1.391 . S
C593 C597 1.376 . S
C594 C592 1.394 . S
C594 C595 1.369 . S
C594 C598 1.531 . S
C595 C594 1.369 . S
C595 C596 1.410 . S
C595 C603 1.503 . S
C596 C595 1.410 . S
C596 C597 1.392 . S
C596 C599 1.511 . S
C597 C593 1.376 . S
C597 C596 1.392 . S
C597 H609 0.929 . S
C598 C594 1.531 . S
C598 H610 0.960 . S
C598 H611 0.962 . S
C598 H612 0.960 . S
C599 C596 1.511 . S
C599 H613 0.961 . S
C599 H614 0.961 . S
C599 H615 0.961 . S
C600 C601 1.370 . S
C600 C602 1.363 . S
C600 H616 0.931 . S
C601 C600 1.370 . S
C601 C605 1.408 . S
C602 C600 1.363 . S
C602 C603 1.370 . S
C602 C606 1.524 . S
C603 C595 1.503 . S
C603 C602 1.370 . S
C603 C604 1.403 . S
C604 C603 1.403 . S
C604 C605 1.404 . S
C604 C607 1.539 . S
C605 C601 1.408 . S
C605 C604 1.404 . S
C605 H617 0.930 . S
C606 C602 1.524 . S
C606 H618 0.956 . S
C606 H619 0.961 . S
C606 H620 0.961 . S
C607 C604 1.539 . S
C607 H621 0.958 . S
C607 H622 0.961 . S
C607 H623 0.960 . S
H608 C592 0.931 . S
H609 C597 0.929 . S
H610 C598 0.960 . S
H611 C598 0.962 . S
H612 C598 0.960 . S
H613 C599 0.961 . S
H614 C599 0.961 . S
H615 C599 0.961 . S
H616 C600 0.931 . S
H617 C605 0.930 . S
H618 C606 0.956 . S
H619 C606 0.961 . S
H620 C606 0.961 . S
H621 C607 0.958 . S
H622 C607 0.961 . S
H623 C607 0.960 . S
C624 C625 1.391 . S
C624 C626 1.394 . S
C624 H640 0.931 . S
C625 C624 1.391 . S
C625 C629 1.376 . S
C626 C624 1.394 . S
C626 C627 1.369 . S
C626 C630 1.531 . S
C627 C626 1.369 . S
C627 C628 1.410 . S
C627 C635 1.503 . S
C628 C627 1.410 . S
C628 C629 1.392 . S
C628 C631 1.511 . S
C629 C625 1.376 . S
C629 C628 1.392 . S
C629 H641 0.929 . S
C630 C626 1.531 . S
C630 H642 0.960 . S
C630 H643 0.962 . S
C630 H644 0.960 . S
C631 C628 1.511 . S
C631 H645 0.961 . S
C631 H646 0.961 . S
C631 H647 0.961 . S
C632 C633 1.370 . S
C632 C634 1.363 . S
C632 H648 0.931 . S
C633 C632 1.370 . S
C633 C637 1.408 . S
C634 C632 1.363 . S
C634 C635 1.370 . S
C634 C638 1.524 . S
C635 C627 1.503 . S
C635 C634 1.370 . S
C635 C636 1.403 . S
C636 C635 1.403 . S
C636 C637 1.404 . S
C636 C639 1.539 . S
C637 C633 1.408 . S
C637 C636 1.404 . S
C637 H649 0.930 . S
C638 C634 1.524 . S
C638 H650 0.956 . S
C638 H651 0.961 . S
C638 H652 0.961 . S
C639 C636 1.539 . S
C639 H653 0.958 . S
C639 H654 0.961 . S
C639 H655 0.960 . S
H640 C624 0.931 . S
H641 C629 0.929 . S
H642 C630 0.960 . S
H643 C630 0.962 . S
H644 C630 0.960 . S
H645 C631 0.961 . S
H646 C631 0.961 . S
H647 C631 0.961 . S
H648 C632 0.931 . S
H649 C637 0.930 . S
H650 C638 0.956 . S
H651 C638 0.961 . S
H652 C638 0.961 . S
H653 C639 0.958 . S
H654 C639 0.961 . S
H655 C639 0.960 . S
C656 C657 1.391 . S
C656 C658 1.394 . S
C656 H672 0.931 . S
C657 C656 1.391 . S
C657 C661 1.376 . S
C658 C656 1.394 . S
C658 C659 1.369 . S
C658 C662 1.531 . S
C659 C658 1.369 . S
C659 C660 1.410 . S
C659 C667 1.503 . S
C660 C659 1.410 . S
C660 C661 1.392 . S
C660 C663 1.511 . S
C661 C657 1.376 . S
C661 C660 1.392 . S
C661 H673 0.929 . S
C662 C658 1.531 . S
C662 H674 0.960 . S
C662 H675 0.962 . S
C662 H676 0.960 . S
C663 C660 1.511 . S
C663 H677 0.961 . S
C663 H678 0.961 . S
C663 H679 0.961 . S
C664 C665 1.370 . S
C664 C666 1.363 . S
C664 H680 0.931 . S
C665 C664 1.370 . S
C665 C669 1.408 . S
C666 C664 1.363 . S
C666 C667 1.370 . S
C666 C670 1.524 . S
C667 C659 1.503 . S
C667 C666 1.370 . S
C667 C668 1.403 . S
C668 C667 1.403 . S
C668 C669 1.404 . S
C668 C671 1.539 . S
C669 C665 1.408 . S
C669 C668 1.404 . S
C669 H681 0.930 . S
C670 C666 1.524 . S
C670 H682 0.956 . S
C670 H683 0.961 . S
C670 H684 0.961 . S
C671 C668 1.539 . S
C671 H685 0.958 . S
C671 H686 0.961 . S
C671 H687 0.960 . S
H672 C656 0.931 . S
H673 C661 0.929 . S
H674 C662 0.960 . S
H675 C662 0.962 . S
H676 C662 0.960 . S
H677 C663 0.961 . S
H678 C663 0.961 . S
H679 C663 0.961 . S
H680 C664 0.931 . S
H681 C669 0.930 . S
H682 C670 0.956 . S
H683 C670 0.961 . S
H684 C670 0.961 . S
H685 C671 0.958 . S
H686 C671 0.961 . S
H687 C671 0.960 . S
C688 C689 1.391 . S
C688 C690 1.394 . S
C688 H704 0.931 . S
C689 C688 1.391 . S
C689 C693 1.376 . S
C690 C688 1.394 . S
C690 C691 1.369 . S
C690 C694 1.531 . S
C691 C690 1.369 . S
C691 C692 1.410 . S
C691 C699 1.503 . S
C692 C691 1.410 . S
C692 C693 1.392 . S
C692 C695 1.511 . S
C693 C689 1.376 . S
C693 C692 1.392 . S
C693 H705 0.929 . S
C694 C690 1.531 . S
C694 H706 0.960 . S
C694 H707 0.962 . S
C694 H708 0.960 . S
C695 C692 1.511 . S
C695 H709 0.961 . S
C695 H710 0.961 . S
C695 H711 0.961 . S
C696 C697 1.370 . S
C696 C698 1.363 . S
C696 H712 0.931 . S
C697 C696 1.370 . S
C697 C701 1.408 . S
C698 C696 1.363 . S
C698 C699 1.370 . S
C698 C702 1.524 . S
C699 C691 1.503 . S
C699 C698 1.370 . S
C699 C700 1.403 . S
C700 C699 1.403 . S
C700 C701 1.404 . S
C700 C703 1.539 . S
C701 C697 1.408 . S
C701 C700 1.404 . S
C701 H713 0.930 . S
C702 C698 1.524 . S
C702 H714 0.956 . S
C702 H715 0.961 . S
C702 H716 0.961 . S
C703 C700 1.539 . S
C703 H717 0.958 . S
C703 H718 0.961 . S
C703 H719 0.960 . S
H704 C688 0.931 . S
H705 C693 0.929 . S
H706 C694 0.960 . S
H707 C694 0.962 . S
H708 C694 0.960 . S
H709 C695 0.961 . S
H710 C695 0.961 . S
H711 C695 0.961 . S
H712 C696 0.931 . S
H713 C701 0.930 . S
H714 C702 0.956 . S
H715 C702 0.961 . S
H716 C702 0.961 . S
H717 C703 0.958 . S
H718 C703 0.961 . S
H719 C703 0.960 . S
C720 C721 1.391 . S
C720 C722 1.394 . S
C720 H736 0.931 . S
C721 C720 1.391 . S
C721 C725 1.376 . S
C722 C720 1.394 . S
C722 C723 1.369 . S
C722 C726 1.531 . S
C723 C722 1.369 . S
C723 C724 1.410 . S
C723 C731 1.503 . S
C724 C723 1.410 . S
C724 C725 1.392 . S
C724 C727 1.511 . S
C725 C721 1.376 . S
C725 C724 1.392 . S
C725 H737 0.929 . S
C726 C722 1.531 . S
C726 H738 0.960 . S
C726 H739 0.962 . S
C726 H740 0.960 . S
C727 C724 1.511 . S
C727 H741 0.961 . S
C727 H742 0.961 . S
C727 H743 0.961 . S
C728 C729 1.370 . S
C728 C730 1.363 . S
C728 H744 0.931 . S
C729 C728 1.370 . S
C729 C733 1.408 . S
C730 C728 1.363 . S
C730 C731 1.370 . S
C730 C734 1.524 . S
C731 C723 1.503 . S
C731 C730 1.370 . S
C731 C732 1.403 . S
C732 C731 1.403 . S
C732 C733 1.404 . S
C732 C735 1.539 . S
C733 C729 1.408 . S
C733 C732 1.404 . S
C733 H745 0.930 . S
C734 C730 1.524 . S
C734 H746 0.956 . S
C734 H747 0.961 . S
C734 H748 0.961 . S
C735 C732 1.539 . S
C735 H749 0.958 . S
C735 H750 0.961 . S
C735 H751 0.960 . S
H736 C720 0.931 . S
H737 C725 0.929 . S
H738 C726 0.960 . S
H739 C726 0.962 . S
H740 C726 0.960 . S
H741 C727 0.961 . S
H742 C727 0.961 . S
H743 C727 0.961 . S
H744 C728 0.931 . S
H745 C733 0.930 . S
H746 C734 0.956 . S
H747 C734 0.961 . S
H748 C734 0.961 . S
H749 C735 0.958 . S
H750 C735 0.961 . S
H751 C735 0.960 . S
C752 C753 1.391 . S
C752 C754 1.394 . S
C752 H768 0.931 . S
C753 C752 1.391 . S
C753 C757 1.376 . S
C754 C752 1.394 . S
C754 C755 1.369 . S
C754 C758 1.531 . S
C755 C754 1.369 . S
C755 C756 1.410 . S
C755 C763 1.503 . S
C756 C755 1.410 . S
C756 C757 1.392 . S
C756 C759 1.511 . S
C757 C753 1.376 . S
C757 C756 1.392 . S
C757 H769 0.929 . S
C758 C754 1.531 . S
C758 H770 0.960 . S
C758 H771 0.962 . S
C758 H772 0.960 . S
C759 C756 1.511 . S
C759 H773 0.961 . S
C759 H774 0.961 . S
C759 H775 0.961 . S
C760 C761 1.370 . S
C760 C762 1.363 . S
C760 H776 0.931 . S
C761 C760 1.370 . S
C761 C765 1.408 . S
C762 C760 1.363 . S
C762 C763 1.370 . S
C762 C766 1.524 . S
C763 C755 1.503 . S
C763 C762 1.370 . S
C763 C764 1.403 . S
C764 C763 1.403 . S
C764 C765 1.404 . S
C764 C767 1.539 . S
C765 C761 1.408 . S
C765 C764 1.404 . S
C765 H777 0.930 . S
C766 C762 1.524 . S
C766 H778 0.956 . S
C766 H779 0.961 . S
C766 H780 0.961 . S
C767 C764 1.539 . S
C767 H781 0.958 . S
C767 H782 0.961 . S
C767 H783 0.960 . S
H768 C752 0.931 . S
H769 C757 0.929 . S
H770 C758 0.960 . S
H771 C758 0.962 . S
H772 C758 0.960 . S
H773 C759 0.961 . S
H774 C759 0.961 . S
H775 C759 0.961 . S
H776 C760 0.931 . S
H777 C765 0.930 . S
H778 C766 0.956 . S
H779 C766 0.961 . S
H780 C766 0.961 . S
H781 C767 0.958 . S
H782 C767 0.961 . S
H783 C767 0.960 . S
C784 C785 1.391 . S
C784 C786 1.394 . S
C784 H800 0.931 . S
C785 C784 1.391 . S
C785 C789 1.376 . S
C786 C784 1.394 . S
C786 C787 1.369 . S
C786 C790 1.531 . S
C787 C786 1.369 . S
C787 C788 1.410 . S
C787 C795 1.503 . S
C788 C787 1.410 . S
C788 C789 1.392 . S
C788 C791 1.511 . S
C789 C785 1.376 . S
C789 C788 1.392 . S
C789 H801 0.929 . S
C790 C786 1.531 . S
C790 H802 0.960 . S
C790 H803 0.962 . S
C790 H804 0.960 . S
C791 C788 1.511 . S
C791 H805 0.961 . S
C791 H806 0.961 . S
C791 H807 0.961 . S
C792 C793 1.370 . S
C792 C794 1.363 . S
C792 H808 0.931 . S
C793 C792 1.370 . S
C793 C797 1.408 . S
C794 C792 1.363 . S
C794 C795 1.370 . S
C794 C798 1.524 . S
C795 C787 1.503 . S
C795 C794 1.370 . S
C795 C796 1.403 . S
C796 C795 1.403 . S
C796 C797 1.404 . S
C796 C799 1.539 . S
C797 C793 1.408 . S
C797 C796 1.404 . S
C797 H809 0.930 . S
C798 C794 1.524 . S
C798 H810 0.956 . S
C798 H811 0.961 . S
C798 H812 0.961 . S
C799 C796 1.539 . S
C799 H813 0.958 . S
C799 H814 0.961 . S
C799 H815 0.960 . S
H800 C784 0.931 . S
H801 C789 0.929 . S
H802 C790 0.960 . S
H803 C790 0.962 . S
H804 C790 0.960 . S
H805 C791 0.961 . S
H806 C791 0.961 . S
H807 C791 0.961 . S
H808 C792 0.931 . S
H809 C797 0.930 . S
H810 C798 0.956 . S
H811 C798 0.961 . S
H812 C798 0.961 . S
H813 C799 0.958 . S
H814 C799 0.961 . S
H815 C799 0.960 . S
C816 C817 1.391 . S
C816 C818 1.394 . S
C816 H832 0.931 . S
C817 C816 1.391 . S
C817 C821 1.378 . S
C818 C816 1.394 . S
C818 C819 1.369 . S
C818 C822 1.531 . S
C819 C818 1.369 . S
C819 C820 1.410 . S
C819 C827 1.503 . S
C820 C819 1.410 . S
C820 C821 1.401 . S
C820 C823 1.511 . S
C821 C817 1.378 . S
C821 C820 1.401 . S
C821 H833 0.918 1_565 S
C822 C818 1.531 . S
C822 H834 0.960 . S
C822 H835 0.962 . S
C822 H836 0.960 . S
C823 C820 1.511 . S
C823 H837 0.961 1_565 S
C823 H838 0.961 . S
C823 H839 0.961 . S
C824 C825 1.370 . S
C824 C826 1.363 . S
C824 H840 0.931 . S
C825 C824 1.370 . S
C825 C829 1.408 . S
C826 C824 1.363 . S
C826 C827 1.370 . S
C826 C830 1.524 . S
C827 C819 1.503 . S
C827 C826 1.370 . S
C827 C828 1.403 . S
C828 C827 1.403 . S
C828 C829 1.404 . S
C828 C831 1.539 . S
C829 C825 1.408 . S
C829 C828 1.404 . S
C829 H841 0.930 . S
C830 C826 1.524 . S
C830 H842 0.956 . S
C830 H843 0.961 . S
C830 H844 0.961 . S
C831 C828 1.539 . S
C831 H845 0.958 . S
C831 H846 0.961 . S
C831 H847 0.960 . S
H832 C816 0.931 . S
H833 C821 0.918 1_545 S
H834 C822 0.960 . S
H835 C822 0.962 . S
H836 C822 0.960 . S
H837 C823 0.961 1_545 S
H838 C823 0.961 . S
H839 C823 0.961 . S
H840 C824 0.931 . S
H841 C829 0.930 . S
H842 C830 0.956 . S
H843 C830 0.961 . S
H844 C830 0.961 . S
H845 C831 0.958 . S
H846 C831 0.961 . S
H847 C831 0.960 . S
C848 C849 1.391 . S
C848 C850 1.394 . S
C848 H864 0.931 . S
C849 C848 1.391 . S
C849 C853 1.376 . S
C850 C848 1.394 . S
C850 C851 1.369 . S
C850 C854 1.531 . S
C851 C850 1.369 . S
C851 C852 1.410 . S
C851 C859 1.503 . S
C852 C851 1.410 . S
C852 C853 1.392 . S
C852 C855 1.511 . S
C853 C849 1.376 . S
C853 C852 1.392 . S
C853 H865 0.929 . S
C854 C850 1.531 . S
C854 H866 0.960 . S
C854 H867 0.962 . S
C854 H868 0.960 . S
C855 C852 1.511 . S
C855 H869 0.961 . S
C855 H870 0.961 . S
C855 H871 0.961 . S
C856 C857 1.370 . S
C856 C858 1.363 . S
C856 H872 0.931 . S
C857 C856 1.370 . S
C857 C861 1.408 . S
C858 C856 1.363 . S
C858 C859 1.370 . S
C858 C862 1.524 . S
C859 C851 1.503 . S
C859 C858 1.370 . S
C859 C860 1.403 . S
C860 C859 1.403 . S
C860 C861 1.404 . S
C860 C863 1.539 . S
C861 C857 1.408 . S
C861 C860 1.404 . S
C861 H873 0.930 . S
C862 C858 1.524 . S
C862 H874 0.956 . S
C862 H875 0.961 . S
C862 H876 0.961 . S
C863 C860 1.539 . S
C863 H877 0.958 . S
C863 H878 0.961 . S
C863 H879 0.960 . S
H864 C848 0.931 . S
H865 C853 0.929 . S
H866 C854 0.960 . S
H867 C854 0.962 . S
H868 C854 0.960 . S
H869 C855 0.961 . S
H870 C855 0.961 . S
H871 C855 0.961 . S
H872 C856 0.931 . S
H873 C861 0.930 . S
H874 C862 0.956 . S
H875 C862 0.961 . S
H876 C862 0.961 . S
H877 C863 0.958 . S
H878 C863 0.961 . S
H879 C863 0.960 . S
C880 C881 1.391 . S
C880 C882 1.394 . S
C880 H896 0.931 1_565 S
C881 C880 1.391 . S
C881 C885 1.376 . S
C882 C880 1.394 . S
C882 C883 1.369 . S
C882 C886 1.531 . S
C883 C882 1.369 . S
C883 C884 1.410 . S
C883 C891 1.503 . S
C884 C883 1.410 . S
C884 C885 1.392 . S
C884 C887 1.511 . S
C885 C881 1.376 . S
C885 C884 1.392 . S
C885 H897 0.929 . S
C886 C882 1.531 . S
C886 H898 0.960 . S
C886 H899 0.962 . S
C886 H900 0.960 . S
C887 C884 1.511 . S
C887 H901 0.961 . S
C887 H902 0.961 . S
C887 H903 0.961 . S
C888 C889 1.370 . S
C888 C890 1.363 . S
C888 H904 0.931 . S
C889 C888 1.370 . S
C889 C893 1.408 . S
C890 C888 1.363 . S
C890 C891 1.370 . S
C890 C894 1.524 . S
C891 C883 1.503 . S
C891 C890 1.370 . S
C891 C892 1.403 . S
C892 C891 1.403 . S
C892 C893 1.404 . S
C892 C895 1.539 . S
C893 C889 1.408 . S
C893 C892 1.404 . S
C893 H905 0.930 . S
C894 C890 1.524 . S
C894 H906 0.956 . S
C894 H907 0.961 . S
C894 H908 0.961 . S
C895 C892 1.539 . S
C895 H909 0.958 . S
C895 H910 0.961 . S
C895 H911 0.960 . S
H896 C880 0.931 1_545 S
H897 C885 0.929 . S
H898 C886 0.960 . S
H899 C886 0.962 . S
H900 C886 0.960 . S
H901 C887 0.961 . S
H902 C887 0.961 . S
H903 C887 0.961 . S
H904 C888 0.931 . S
H905 C893 0.930 . S
H906 C894 0.956 . S
H907 C894 0.961 . S
H908 C894 0.961 . S
H909 C895 0.958 . S
H910 C895 0.961 . S
H911 C895 0.960 . S
C912 C913 1.391 . S
C912 C914 1.394 . S
C912 H928 0.931 . S
C913 C912 1.391 . S
C913 C917 1.376 . S
C914 C912 1.394 . S
C914 C915 1.369 . S
C914 C918 1.531 . S
C915 C914 1.369 . S
C915 C916 1.410 . S
C915 C923 1.503 . S
C916 C915 1.410 . S
C916 C917 1.392 . S
C916 C919 1.511 . S
C917 C913 1.376 . S
C917 C916 1.392 . S
C917 H929 0.929 . S
C918 C914 1.531 . S
C918 H930 0.960 . S
C918 H931 0.962 . S
C918 H932 0.960 . S
C919 C916 1.511 . S
C919 H933 0.961 . S
C919 H934 0.961 . S
C919 H935 0.961 . S
C920 C921 1.370 . S
C920 C922 1.363 . S
C920 H936 0.931 . S
C921 C920 1.370 . S
C921 C925 1.408 . S
C922 C920 1.363 . S
C922 C923 1.370 . S
C922 C926 1.524 . S
C923 C915 1.503 . S
C923 C922 1.370 . S
C923 C924 1.403 . S
C924 C923 1.403 . S
C924 C925 1.404 . S
C924 C927 1.539 . S
C925 C921 1.408 . S
C925 C924 1.404 . S
C925 H937 0.930 . S
C926 C922 1.524 . S
C926 H938 0.956 . S
C926 H939 0.961 . S
C926 H940 0.961 . S
C927 C924 1.539 . S
C927 H941 0.958 . S
C927 H942 0.961 . S
C927 H943 0.960 . S
H928 C912 0.931 . S
H929 C917 0.929 . S
H930 C918 0.960 . S
H931 C918 0.962 . S
H932 C918 0.960 . S
H933 C919 0.961 . S
H934 C919 0.961 . S
H935 C919 0.961 . S
H936 C920 0.931 . S
H937 C925 0.930 . S
H938 C926 0.956 . S
H939 C926 0.961 . S
H940 C926 0.961 . S
H941 C927 0.958 . S
H942 C927 0.961 . S
H943 C927 0.960 . S
C944 C945 1.391 . S
C944 C946 1.394 . S
C944 H960 0.931 . S
C945 C944 1.391 . S
C945 C949 1.376 . S
C946 C944 1.394 . S
C946 C947 1.369 . S
C946 C950 1.531 . S
C947 C946 1.369 . S
C947 C948 1.410 . S
C947 C955 1.503 . S
C948 C947 1.410 . S
C948 C949 1.392 . S
C948 C951 1.511 . S
C949 C945 1.376 . S
C949 C948 1.392 . S
C949 H961 0.929 . S
C950 C946 1.531 . S
C950 H962 0.960 . S
C950 H963 0.962 . S
C950 H964 0.960 . S
C951 C948 1.511 . S
C951 H965 0.961 . S
C951 H966 0.961 . S
C951 H967 0.961 . S
C952 C953 1.370 . S
C952 C954 1.363 . S
C952 H968 0.931 . S
C953 C952 1.370 . S
C953 C957 1.408 . S
C954 C952 1.363 . S
C954 C955 1.370 . S
C954 C958 1.524 . S
C955 C947 1.503 . S
C955 C954 1.370 . S
C955 C956 1.403 . S
C956 C955 1.403 . S
C956 C957 1.404 . S
C956 C959 1.539 . S
C957 C953 1.408 . S
C957 C956 1.404 . S
C957 H969 0.930 . S
C958 C954 1.524 . S
C958 H970 0.956 . S
C958 H971 0.961 . S
C958 H972 0.961 . S
C959 C956 1.539 . S
C959 H973 0.958 . S
C959 H974 0.961 . S
C959 H975 0.960 . S
H960 C944 0.931 . S
H961 C949 0.929 . S
H962 C950 0.960 . S
H963 C950 0.962 . S
H964 C950 0.960 . S
H965 C951 0.961 . S
H966 C951 0.961 . S
H967 C951 0.961 . S
H968 C952 0.931 . S
H969 C957 0.930 . S
H970 C958 0.956 . S
H971 C958 0.961 . S
H972 C958 0.961 . S
H973 C959 0.958 . S
H974 C959 0.961 . S
H975 C959 0.960 . S
C976 C977 1.391 . S
C976 C978 1.394 . S
C976 H992 0.931 . S
C977 C976 1.391 . S
C977 C981 1.376 . S
C978 C976 1.394 . S
C978 C979 1.369 . S
C978 C982 1.531 . S
C979 C978 1.369 . S
C979 C980 1.410 . S
C979 C987 1.503 . S
C980 C979 1.410 . S
C980 C981 1.392 . S
C980 C983 1.511 . S
C981 C977 1.376 . S
C981 C980 1.392 . S
C981 H993 0.929 . S
C982 C978 1.531 . S
C982 H994 0.960 . S
C982 H995 0.962 . S
C982 H996 0.960 . S
C983 C980 1.511 . S
C983 H997 0.961 . S
C983 H998 0.961 . S
C983 H999 0.961 . S
C984 C985 1.370 . S
C984 C986 1.363 . S
C984 H1000 0.931 . S
C985 C984 1.370 . S
C985 C989 1.408 . S
C986 C984 1.363 . S
C986 C987 1.370 . S
C986 C990 1.524 . S
C987 C979 1.503 . S
C987 C986 1.370 . S
C987 C988 1.403 . S
C988 C987 1.403 . S
C988 C989 1.404 . S
C988 C991 1.539 . S
C989 C985 1.408 . S
C989 C988 1.404 . S
C989 H1001 0.930 . S
C990 C986 1.524 . S
C990 H1002 0.956 . S
C990 H1003 0.961 . S
C990 H1004 0.961 . S
C991 C988 1.539 . S
C991 H1005 0.958 . S
C991 H1006 0.961 . S
C991 H1007 0.960 . S
H992 C976 0.931 . S
H993 C981 0.929 . S
H994 C982 0.960 . S
H995 C982 0.962 . S
H996 C982 0.960 . S
H997 C983 0.961 . S
H998 C983 0.961 . S
H999 C983 0.961 . S
H1000 C984 0.931 . S
H1001 C989 0.930 . S
H1002 C990 0.956 . S
H1003 C990 0.961 . S
H1004 C990 0.961 . S
H1005 C991 0.958 . S
H1006 C991 0.961 . S
H1007 C991 0.960 . S
C1008 C1009 1.391 . S
C1008 C1010 1.394 . S
C1008 H1024 0.931 . S
C1009 C1008 1.391 . S
C1009 C1013 1.376 . S
C1010 C1008 1.394 . S
C1010 C1011 1.369 . S
C1010 C1014 1.531 . S
C1011 C1010 1.369 . S
C1011 C1012 1.410 . S
C1011 C1019 1.503 . S
C1012 C1011 1.410 . S
C1012 C1013 1.392 . S
C1012 C1015 1.511 . S
C1013 C1009 1.376 . S
C1013 C1012 1.392 . S
C1013 H1025 0.929 . S
C1014 C1010 1.531 . S
C1014 H1026 0.960 . S
C1014 H1027 0.962 . S
C1014 H1028 0.960 . S
C1015 C1012 1.511 . S
C1015 H1029 0.961 . S
C1015 H1030 0.961 . S
C1015 H1031 0.961 . S
C1016 C1017 1.370 . S
C1016 C1018 1.363 . S
C1016 H1032 0.931 . S
C1017 C1016 1.370 . S
C1017 C1021 1.408 . S
C1018 C1016 1.363 . S
C1018 C1019 1.370 . S
C1018 C1022 1.524 . S
C1019 C1011 1.503 . S
C1019 C1018 1.370 . S
C1019 C1020 1.403 . S
C1020 C1019 1.403 . S
C1020 C1021 1.404 . S
C1020 C1023 1.539 . S
C1021 C1017 1.408 . S
C1021 C1020 1.404 . S
C1021 H1033 0.930 . S
C1022 C1018 1.524 . S
C1022 H1034 0.956 . S
C1022 H1035 0.961 . S
C1022 H1036 0.961 . S
C1023 C1020 1.539 . S
C1023 H1037 0.958 . S
C1023 H1038 0.961 . S
C1023 H1039 0.960 . S
H1024 C1008 0.931 . S
H1025 C1013 0.929 . S
H1026 C1014 0.960 . S
H1027 C1014 0.962 . S
H1028 C1014 0.960 . S
H1029 C1015 0.961 . S
H1030 C1015 0.961 . S
H1031 C1015 0.961 . S
H1032 C1016 0.931 . S
H1033 C1021 0.930 . S
H1034 C1022 0.956 . S
H1035 C1022 0.961 . S
H1036 C1022 0.961 . S
H1037 C1023 0.958 . S
H1038 C1023 0.961 . S
H1039 C1023 0.960 . S
C1040 C1041 1.391 . S
C1040 C1042 1.394 . S
C1040 H1056 0.931 . S
C1041 C1040 1.391 . S
C1041 C1045 1.376 . S
C1042 C1040 1.394 . S
C1042 C1043 1.369 . S
C1042 C1046 1.531 . S
C1043 C1042 1.369 . S
C1043 C1044 1.410 . S
C1043 C1051 1.503 . S
C1044 C1043 1.410 . S
C1044 C1045 1.392 . S
C1044 C1047 1.511 . S
C1045 C1041 1.376 . S
C1045 C1044 1.392 . S
C1045 H1057 0.929 . S
C1046 C1042 1.531 . S
C1046 H1058 0.960 . S
C1046 H1059 0.962 . S
C1046 H1060 0.960 . S
C1047 C1044 1.511 . S
C1047 H1061 0.961 . S
C1047 H1062 0.961 . S
C1047 H1063 0.961 . S
C1048 C1049 1.370 . S
C1048 C1050 1.363 . S
C1048 H1064 0.931 . S
C1049 C1048 1.370 . S
C1049 C1053 1.408 . S
C1050 C1048 1.363 . S
C1050 C1051 1.370 . S
C1050 C1054 1.524 . S
C1051 C1043 1.503 . S
C1051 C1050 1.370 . S
C1051 C1052 1.403 . S
C1052 C1051 1.403 . S
C1052 C1053 1.404 . S
C1052 C1055 1.539 . S
C1053 C1049 1.408 . S
C1053 C1052 1.404 . S
C1053 H1065 0.930 . S
C1054 C1050 1.524 . S
C1054 H1066 0.956 . S
C1054 H1067 0.961 . S
C1054 H1068 0.961 . S
C1055 C1052 1.539 . S
C1055 H1069 0.958 . S
C1055 H1070 0.961 . S
C1055 H1071 0.960 . S
H1056 C1040 0.931 . S
H1057 C1045 0.929 . S
H1058 C1046 0.960 . S
H1059 C1046 0.962 . S
H1060 C1046 0.960 . S
H1061 C1047 0.961 . S
H1062 C1047 0.961 . S
H1063 C1047 0.961 . S
H1064 C1048 0.931 . S
H1065 C1053 0.930 . S
H1066 C1054 0.956 . S
H1067 C1054 0.961 . S
H1068 C1054 0.961 . S
H1069 C1055 0.958 . S
H1070 C1055 0.961 . S
H1071 C1055 0.960 . S
C1072 C1073 1.391 . S
C1072 C1074 1.394 . S
C1072 H1088 0.931 . S
C1073 C1072 1.391 . S
C1073 C1077 1.376 . S
C1074 C1072 1.394 . S
C1074 C1075 1.369 . S
C1074 C1078 1.531 . S
C1075 C1074 1.369 . S
C1075 C1076 1.410 . S
C1075 C1083 1.503 . S
C1076 C1075 1.410 . S
C1076 C1077 1.392 . S
C1076 C1079 1.511 . S
C1077 C1073 1.376 . S
C1077 C1076 1.392 . S
C1077 H1089 0.929 . S
C1078 C1074 1.531 . S
C1078 H1090 0.960 . S
C1078 H1091 0.962 . S
C1078 H1092 0.960 . S
C1079 C1076 1.511 . S
C1079 H1093 0.961 . S
C1079 H1094 0.961 . S
C1079 H1095 0.961 . S
C1080 C1081 1.370 . S
C1080 C1082 1.363 . S
C1080 H1096 0.931 . S
C1081 C1080 1.370 . S
C1081 C1085 1.408 . S
C1082 C1080 1.363 . S
C1082 C1083 1.370 . S
C1082 C1086 1.524 . S
C1083 C1075 1.503 . S
C1083 C1082 1.370 . S
C1083 C1084 1.403 . S
C1084 C1083 1.403 . S
C1084 C1085 1.404 . S
C1084 C1087 1.539 . S
C1085 C1081 1.408 . S
C1085 C1084 1.404 . S
C1085 H1097 0.930 . S
C1086 C1082 1.524 . S
C1086 H1098 0.956 . S
C1086 H1099 0.961 . S
C1086 H1100 0.961 . S
C1087 C1084 1.539 . S
C1087 H1101 0.958 . S
C1087 H1102 0.961 . S
C1087 H1103 0.960 . S
H1088 C1072 0.931 . S
H1089 C1077 0.929 . S
H1090 C1078 0.960 . S
H1091 C1078 0.962 . S
H1092 C1078 0.960 . S
H1093 C1079 0.961 . S
H1094 C1079 0.961 . S
H1095 C1079 0.961 . S
H1096 C1080 0.931 . S
H1097 C1085 0.930 . S
H1098 C1086 0.956 . S
H1099 C1086 0.961 . S
H1100 C1086 0.961 . S
H1101 C1087 0.958 . S
H1102 C1087 0.961 . S
H1103 C1087 0.960 . S
C1104 C1105 1.391 . S
C1104 C1106 1.394 . S
C1104 H1120 0.931 . S
C1105 C1104 1.391 . S
C1105 C1109 1.376 . S
C1106 C1104 1.394 . S
C1106 C1107 1.369 . S
C1106 C1110 1.531 . S
C1107 C1106 1.369 . S
C1107 C1108 1.410 . S
C1107 C1115 1.503 . S
C1108 C1107 1.410 . S
C1108 C1109 1.392 . S
C1108 C1111 1.511 . S
C1109 C1105 1.376 . S
C1109 C1108 1.392 . S
C1109 H1121 0.929 . S
C1110 C1106 1.531 . S
C1110 H1122 0.960 . S
C1110 H1123 0.962 . S
C1110 H1124 0.960 . S
C1111 C1108 1.511 . S
C1111 H1125 0.961 . S
C1111 H1126 0.961 . S
C1111 H1127 0.961 . S
C1112 C1113 1.370 . S
C1112 C1114 1.363 . S
C1112 H1128 0.931 . S
C1113 C1112 1.370 . S
C1113 C1117 1.408 . S
C1114 C1112 1.363 . S
C1114 C1115 1.370 . S
C1114 C1118 1.524 . S
C1115 C1107 1.503 . S
C1115 C1114 1.370 . S
C1115 C1116 1.403 . S
C1116 C1115 1.403 . S
C1116 C1117 1.404 . S
C1116 C1119 1.539 . S
C1117 C1113 1.408 . S
C1117 C1116 1.404 . S
C1117 H1129 0.930 . S
C1118 C1114 1.524 . S
C1118 H1130 0.956 . S
C1118 H1131 0.961 . S
C1118 H1132 0.961 . S
C1119 C1116 1.539 . S
C1119 H1133 0.958 . S
C1119 H1134 0.961 . S
C1119 H1135 0.960 . S
H1120 C1104 0.931 . S
H1121 C1109 0.929 . S
H1122 C1110 0.960 . S
H1123 C1110 0.962 . S
H1124 C1110 0.960 . S
H1125 C1111 0.961 . S
H1126 C1111 0.961 . S
H1127 C1111 0.961 . S
H1128 C1112 0.931 . S
H1129 C1117 0.930 . S
H1130 C1118 0.956 . S
H1131 C1118 0.961 . S
H1132 C1118 0.961 . S
H1133 C1119 0.958 . S
H1134 C1119 0.961 . S
H1135 C1119 0.960 . S
C1136 C1137 1.391 . S
C1136 C1138 1.394 . S
C1136 H1152 0.931 . S
C1137 C1136 1.391 . S
C1137 C1141 1.376 . S
C1138 C1136 1.394 . S
C1138 C1139 1.369 . S
C1138 C1142 1.531 . S
C1139 C1138 1.369 . S
C1139 C1140 1.410 . S
C1139 C1147 1.503 . S
C1140 C1139 1.410 . S
C1140 C1141 1.392 . S
C1140 C1143 1.511 . S
C1141 C1137 1.376 . S
C1141 C1140 1.392 . S
C1141 H1153 0.929 . S
C1142 C1138 1.531 . S
C1142 H1154 0.960 . S
C1142 H1155 0.962 . S
C1142 H1156 0.960 . S
C1143 C1140 1.511 . S
C1143 H1157 0.961 . S
C1143 H1158 0.961 . S
C1143 H1159 0.961 . S
C1144 C1145 1.370 . S
C1144 C1146 1.363 . S
C1144 H1160 0.931 . S
C1145 C1144 1.370 . S
C1145 C1149 1.408 . S
C1146 C1144 1.363 . S
C1146 C1147 1.370 . S
C1146 C1150 1.524 . S
C1147 C1139 1.503 . S
C1147 C1146 1.370 . S
C1147 C1148 1.403 . S
C1148 C1147 1.403 . S
C1148 C1149 1.404 . S
C1148 C1151 1.539 . S
C1149 C1145 1.408 . S
C1149 C1148 1.404 . S
C1149 H1161 0.930 . S
C1150 C1146 1.524 . S
C1150 H1162 0.956 . S
C1150 H1163 0.961 . S
C1150 H1164 0.961 . S
C1151 C1148 1.539 . S
C1151 H1165 0.958 . S
C1151 H1166 0.961 . S
C1151 H1167 0.960 . S
H1152 C1136 0.931 . S
H1153 C1141 0.929 . S
H1154 C1142 0.960 . S
H1155 C1142 0.962 . S
H1156 C1142 0.960 . S
H1157 C1143 0.961 . S
H1158 C1143 0.961 . S
H1159 C1143 0.961 . S
H1160 C1144 0.931 . S
H1161 C1149 0.930 . S
H1162 C1150 0.956 . S
H1163 C1150 0.961 . S
H1164 C1150 0.961 . S
H1165 C1151 0.958 . S
H1166 C1151 0.961 . S
H1167 C1151 0.960 . S
C401 C21 1.564 . S
C409 C355 1.530 . S
C441 C319 1.547 . S
C433 C60 1.540 . S
C473 C342 1.530 . S
C465 C99 1.540 . S
C505 C330 1.525 . S
C497 C138 1.531 . S
C537 C399 1.548 . S
C529 C177 1.540 . S
C569 C363 1.531 . S
C561 C216 1.562 . S
C593 C255 1.534 . S
C601 C386 1.537 . S
C633 C374 1.525 . S
C625 C294 1.537 . S
C657 C1 1.492 . S
C665 C396 1.530 . S
C697 C366 1.531 . S
C689 C40 1.505 . S
C721 C79 1.528 . S
C729 C385 1.560 . S
C753 C133 1.552 . S
C761 C371 1.557 . S
C793 C352 1.533 . S
C785 C157 1.523 1_545 S
C817 C196 1.504 1_565 S
C825 C322 1.531 . S
C857 C341 1.568 . S
C849 C235 1.561 1_545 S
C889 C327 1.554 . S
C881 C289 1.536 1_565 S
C921 C377 1.534 . S
C913 C16 1.511 . S
C953 C393 1.532 . S
C945 C55 1.526 . S
C977 C94 1.494 . S
C985 C364 1.509 . S
C1017 C388 1.510 . S
C1009 C118 1.487 . S
C1049 C333 1.533 . S
C1041 C172 1.510 . S
C1073 C211 1.529 . S
C1081 C349 1.533 . S
C1105 C250 1.494 . S
C1113 C320 1.509 . S
C1137 C274 1.490 . S
C1145 C344 1.510 . S
