# Generated by pormake.
# Topology anh, (6,3)-cn, num edge types: 1
# Building blocks:
#     Node 0, Type 0, BuildingBlock: VOLQOD_clean_sbu_1, # of connection points: 6
#     Node 1, Type 0, BuildingBlock: VOLQOD_clean_sbu_1, # of connection points: 6
#     Node 2, Type 0, BuildingBlock: VOLQOD_clean_sbu_1, # of connection points: 6
#     Node 3, Type 1, BuildingBlock: VETTIZ_charged_linker_0, # of connection points: 3
#     Node 4, Type 1, BuildingBlock: VETTIZ_charged_linker_0, # of connection points: 3
#     Node 5, Type 1, BuildingBlock: VETTIZ_charged_linker_0, # of connection points: 3
#     Node 6, Type 1, BuildingBlock: VETTIZ_charged_linker_0, # of connection points: 3
#     Node 7, Type 1, BuildingBlock: VETTIZ_charged_linker_0, # of connection points: 3
#     Node 8, Type 1, BuildingBlock: VETTIZ_charged_linker_0, # of connection points: 3
#     Edge 9, Type (0, 1), BuildingBlock: CIFDUS_clean_linker_0, # of connection points: 2
#     Edge 10, Type (0, 1), BuildingBlock: CIFDUS_clean_linker_0, # of connection points: 2
#     Edge 11, Type (0, 1), BuildingBlock: CIFDUS_clean_linker_0, # of connection points: 2
#     Edge 12, Type (0, 1), BuildingBlock: CIFDUS_clean_linker_0, # of connection points: 2
#     Edge 13, Type (0, 1), BuildingBlock: CIFDUS_clean_linker_0, # of connection points: 2
#     Edge 14, Type (0, 1), BuildingBlock: CIFDUS_clean_linker_0, # of connection points: 2
#     Edge 15, Type (0, 1), BuildingBlock: CIFDUS_clean_linker_0, # of connection points: 2
#     Edge 16, Type (0, 1), BuildingBlock: CIFDUS_clean_linker_0, # of connection points: 2
#     Edge 17, Type (0, 1), BuildingBlock: CIFDUS_clean_linker_0, # of connection points: 2
#     Edge 18, Type (0, 1), BuildingBlock: CIFDUS_clean_linker_0, # of connection points: 2
#     Edge 19, Type (0, 1), BuildingBlock: CIFDUS_clean_linker_0, # of connection points: 2
#     Edge 20, Type (0, 1), BuildingBlock: CIFDUS_clean_linker_0, # of connection points: 2
#     Edge 21, Type (0, 1), BuildingBlock: CIFDUS_clean_linker_0, # of connection points: 2
#     Edge 22, Type (0, 1), BuildingBlock: CIFDUS_clean_linker_0, # of connection points: 2
#     Edge 23, Type (0, 1), BuildingBlock: CIFDUS_clean_linker_0, # of connection points: 2
#     Edge 24, Type (0, 1), BuildingBlock: CIFDUS_clean_linker_0, # of connection points: 2
#     Edge 25, Type (0, 1), BuildingBlock: CIFDUS_clean_linker_0, # of connection points: 2
#     Edge 26, Type (0, 1), BuildingBlock: CIFDUS_clean_linker_0, # of connection points: 2
# Relax obj value: 0.169
# Max RMSD: 0.231
# Mean RMSD: 0.117
data_MOF--net-anh--node1-VOLQOD_clean_sbu_1--node2-VETTIZ_charged_linker_0--edge1-CIFDUS_clean_linker_0
_symmetry_space_group_name_H-M    P1
_symmetry_Int_Tables_number       1
_symmetry_cell_setting            triclinic
loop_
_symmetry_equiv_pos_as_xyz
'x, y, z'
_cell_length_a     31.109196
_cell_length_b     30.902199
_cell_length_c     67.216651
_cell_angle_alpha  89.907721
_cell_angle_beta   89.777933
_cell_angle_gamma 120.28108
loop_
_atom_site_label
_atom_site_type_symbol
_atom_site_fract_x
_atom_site_fract_y
_atom_site_fract_z
_atom_type_partial_charge
O0 O 0.99221 0.55265 0.20873 0.0
Zn1 Zn -0.00354 0.56904 0.17967 0.0
O2 O 0.0151 0.5274 0.16442 0.0
Zn3 Zn 0.96127 0.48296 0.14708 0.0
Zn4 Zn 0.02912 0.48698 0.18256 0.0
Zn5 Zn 0.07358 0.57027 0.14845 0.0
O6 O 0.98192 0.49508 0.11816 0.0
O7 O 0.05713 0.5632 0.11931 0.0
O8 O 0.93111 0.5614 0.17066 0.0
O9 O 0.90606 0.49717 0.14992 0.0
O10 O 0.93084 0.41047 0.15511 0.0
O11 O 0.97465 0.41503 0.18177 0.0
O12 O 0.09341 0.49014 0.17551 0.0
O13 O 0.05044 0.6409 0.17837 0.0
O14 O 0.12397 0.54891 0.15201 0.0
O15 O 0.10562 0.64264 0.15684 0.0
C16 C 0.01109 0.53175 0.21899 0.0
C17 C 0.02024 0.53014 0.10947 0.0
C18 C 0.93876 0.38975 0.16994 0.0
C19 C 0.89867 0.52876 0.15911 0.0
C20 C 0.12728 0.51708 0.16297 0.0
C21 C 0.0917 0.6646 0.16909 0.0
O22 O 0.0307 0.50869 0.21077 0.0
O23 O 0.46157 0.01507 0.45189 0.0
Zn24 Zn 0.44399 0.01015 0.48116 0.0
O25 O 0.49698 0.00981 0.497 0.0
Zn26 Zn 0.52768 0.06811 0.51433 0.0
Zn27 Zn 0.54858 0.01032 0.47987 0.0
Zn28 Zn 0.46765 0.95005 0.51346 0.0
O29 O 0.521 0.04906 0.54331 0.0
O30 O 0.47811 0.96608 0.54241 0.0
O31 O 0.43587 0.06949 0.48815 0.0
O32 O 0.49632 0.10982 0.51023 0.0
O33 O 0.59995 0.11277 0.50813 0.0
O34 O 0.61526 0.07255 0.48436 0.0
O35 O 0.55691 0.95016 0.48482 0.0
O36 O 0.37723 0.94682 0.48568 0.0
O37 O 0.49776 0.90813 0.50745 0.0
O38 O 0.39485 0.90729 0.50895 0.0
C39 C 0.49665 0.01451 0.4422 0.0
C40 C 0.50011 0.00677 0.55213 0.0
C41 C 0.62978 0.10988 0.49596 0.0
C42 C 0.46063 0.10616 0.49982 0.0
C43 C 0.53258 0.91243 0.49619 0.0
C44 C 0.36378 0.90982 0.49751 0.0
O45 O 0.53122 0.01147 0.45106 0.0
O46 O 0.44019 0.43029 0.78806 0.0
Zn47 Zn 0.4291 0.41824 0.81778 0.0
O48 O 0.48426 0.47384 0.83227 0.0
Zn49 Zn 0.45975 0.50658 0.84985 0.0
Zn50 Zn 0.53214 0.52436 0.81387 0.0
Zn51 Zn 0.51738 0.4472 0.84825 0.0
O52 O 0.47301 0.5006 0.8787 0.0
O53 O 0.51114 0.45642 0.87737 0.0
O54 O 0.3626 0.41137 0.82521 0.0
O55 O 0.38687 0.47368 0.84693 0.0
O56 O 0.48538 0.57862 0.84259 0.0
O57 O 0.53263 0.58943 0.81615 0.0
O58 O 0.60214 0.53943 0.81902 0.0
O59 O 0.42535 0.35207 0.8237 0.0
O60 O 0.58952 0.48133 0.84155 0.0
O61 O 0.48902 0.374 0.844 0.0
C62 C 0.47586 0.46381 0.77763 0.0
C63 C 0.49306 0.47854 0.88732 0.0
C64 C 0.51305 0.60587 0.82842 0.0
C65 C 0.3531 0.43742 0.83717 0.0
C66 C 0.61827 0.51758 0.83022 0.0
C67 C 0.45224 0.34077 0.83427 0.0
O68 O 0.5135 0.50063 0.78572 0.0
C69 C 0.64421 0.12377 0.20037 0.0
C70 C 0.68895 0.15944 0.20933 0.0
C71 C 0.69041 0.16453 0.23023 0.0
C72 C 0.60259 0.10268 0.23252 0.0
C73 C 0.60159 0.09644 0.21214 0.0
C74 C 0.55025 0.06035 0.20467 0.0
H75 H 0.30344 0.92784 0.22236 0.0
C76 C 0.5511 0.0724 0.24011 0.0
C77 C 0.52022 0.04811 0.2238 0.0
H78 H 0.38289 0.92786 0.16909 0.0
H79 H 0.45995 0.98667 0.1842 0.0
H80 H 0.3666 0.90407 0.24786 0.0
H81 H 0.37603 0.04567 0.23739 0.0
H82 H 0.38111 0.03862 0.2632 0.0
H83 H 0.32578 0.99377 0.25031 0.0
H84 H 0.33057 0.92329 0.26224 0.0
H85 H 0.39237 0.93845 0.26961 0.0
C86 C 0.55039 0.01388 0.19602 0.0
C87 C 0.53533 0.0883 0.18954 0.0
C88 C 0.51382 0.06598 0.31421 0.0
C89 C 0.46911 0.04222 0.32525 0.0
C90 C 0.4235 0.01748 0.31499 0.0
C91 C 0.42238 0.01515 0.29419 0.0
C92 C 0.46731 0.03746 0.28343 0.0
C93 C 0.51204 0.06317 0.29338 0.0
C94 C 0.55589 0.08594 0.2793 0.0
C95 C 0.53009 0.06678 0.25943 0.0
C96 C 0.47825 0.03859 0.26199 0.0
C97 C 0.59003 0.0645 0.28436 0.0
C98 C 0.5817 0.14381 0.28085 0.0
C99 C 0.33699 0.9398 0.21374 0.0
C100 C 0.33571 0.92233 0.19422 0.0
C101 C 0.38139 0.94087 0.18386 0.0
C102 C 0.42672 0.97463 0.19281 0.0
C103 C 0.42704 0.98945 0.21254 0.0
C104 C 0.38273 0.9714 0.22278 0.0
C105 C 0.39055 0.98469 0.2445 0.0
C106 C 0.44695 0.01508 0.24542 0.0
C107 C 0.46796 0.0188 0.22655 0.0
C108 C 0.36877 0.93536 0.25681 0.0
C109 C 0.36696 0.01721 0.24928 0.0
H110 H 0.6508 0.14249 0.25761 0.0
H111 H 0.64196 0.11832 0.18442 0.0
H112 H 0.5445 0.1256 0.19544 0.0
H113 H 0.49513 0.06848 0.18637 0.0
H114 H 0.55563 0.09441 0.17523 0.0
H115 H 0.58128 0.00972 0.20218 0.0
H116 H 0.55486 0.01654 0.17958 0.0
H117 H 0.51617 0.97835 0.19997 0.0
H118 H 0.54943 0.0862 0.32163 0.0
H119 H 0.38855 -0.00135 0.32309 0.0
H120 H 0.38652 0.99542 0.2873 0.0
H121 H 0.56751 0.02329 0.2868 0.0
H122 H 0.61146 0.08166 0.29815 0.0
H123 H 0.6165 0.07005 0.27229 0.0
H124 H 0.55522 0.15587 0.28585 0.0
H125 H 0.59579 0.16272 0.26632 0.0
H126 H 0.61283 0.15881 0.29165 0.0
H127 H 0.72414 0.19206 0.23756 0.0
C128 C 0.64756 0.13624 0.24185 0.0
C129 C 0.56823 0.66715 0.53552 0.0
C130 C 0.58067 0.71193 0.54545 0.0
C131 C 0.58191 0.71268 0.56643 0.0
C132 C 0.55493 0.62419 0.56718 0.0
C133 C 0.55531 0.62393 0.54663 0.0
C134 C 0.53884 0.57282 0.53834 0.0
H135 H 0.46096 0.32827 0.55413 0.0
C136 C 0.53677 0.57241 0.57415 0.0
C137 C 0.52718 0.54217 0.55731 0.0
H138 H 0.49791 0.40872 0.49825 0.0
H139 H 0.51327 0.48391 0.51525 0.0
H140 H 0.55033 0.41028 0.57721 0.0
H141 H 0.39986 0.38141 0.57392 0.0
H142 H 0.41911 0.3954 0.5988 0.0
H143 H 0.41599 0.34123 0.58723 0.0
H144 H 0.49951 0.35809 0.58972 0.0
H145 H 0.53336 0.41893 0.60115 0.0
C146 C 0.58329 0.57535 0.52675 0.0
C147 C 0.49157 0.55652 0.52569 0.0
C148 C 0.51975 0.53377 0.64818 0.0
C149 C 0.50378 0.48939 0.65917 0.0
C150 C 0.4867 0.44392 0.64887 0.0
C151 C 0.48633 0.44283 0.62801 0.0
C152 C 0.50331 0.48768 0.61727 0.0
C153 C 0.51926 0.53206 0.62738 0.0
C154 C 0.53552 0.57599 0.61356 0.0
C155 C 0.52745 0.5508 0.59348 0.0
C156 C 0.50861 0.4991 0.59573 0.0
C157 C 0.59129 0.61375 0.61742 0.0
C158 C 0.50052 0.59749 0.61684 0.0
C159 C 0.47105 0.36183 0.54556 0.0
C160 C 0.47795 0.36277 0.52486 0.0
C161 C 0.49241 0.40735 0.51422 0.0
C162 C 0.50157 0.45095 0.52414 0.0
C163 C 0.49678 0.45012 0.54497 0.0
C164 C 0.48112 0.40592 0.55531 0.0
C165 C 0.48066 0.41281 0.57746 0.0
C166 C 0.49925 0.46854 0.57869 0.0
C167 C 0.5084 0.49003 0.55961 0.0
C168 C 0.51751 0.39909 0.58706 0.0
C169 C 0.42625 0.38091 0.58493 0.0
H170 H 0.56989 0.6719 0.59325 0.0
H171 H 0.5674 0.66545 0.51942 0.0
H172 H 0.46704 0.56869 0.53279 0.0
H173 H 0.46809 0.51547 0.52427 0.0
H174 H 0.50143 0.57347 0.51058 0.0
H175 H 0.61952 0.60412 0.53313 0.0
H176 H 0.583 0.58522 0.51088 0.0
H177 H 0.58414 0.54007 0.52764 0.0
H178 H 0.53228 0.56921 0.65561 0.0
H179 H 0.47458 0.40927 0.65694 0.0
H180 H 0.47335 0.40715 0.62106 0.0
H181 H 0.61184 0.59376 0.62073 0.0
H182 H 0.59597 0.63812 0.63033 0.0
H183 H 0.61062 0.63757 0.60439 0.0
H184 H 0.46201 0.5671 0.62045 0.0
H185 H 0.49648 0.61577 0.60342 0.0
H186 H 0.51353 0.62454 0.62935 0.0
H187 H 0.59073 0.7465 0.57446 0.0
C188 C 0.56918 0.66912 0.57733 0.0
C189 C 0.1114 0.49723 0.86641 0.0
C190 C 0.14204 0.48213 0.87562 0.0
C191 C 0.14085 0.47729 0.89649 0.0
C192 C 0.08008 0.50422 0.89863 0.0
C193 C 0.08079 0.50785 0.87813 0.0
C194 C 0.04522 0.52318 0.87049 0.0
H195 H 0.85531 0.56285 0.88814 0.0
C196 C 0.04419 0.51824 0.90627 0.0
C197 C 0.02357 0.52909 0.88982 0.0
H198 H 0.91353 0.5485 0.83173 0.0
H199 H 0.98153 0.54732 0.84836 0.0
H200 H 0.86251 0.48066 0.90931 0.0
H201 H 0.96882 0.63897 0.90958 0.0
H202 H 0.96538 0.61628 0.93387 0.0
H203 H 0.9107 0.61229 0.9228 0.0
H204 H 0.85178 0.52464 0.92266 0.0
H205 H 0.88488 0.49685 0.93368 0.0
C206 C 0.00571 0.47978 0.85753 0.0
C207 C 0.07568 0.57393 0.85942 0.0
C208 C 0.01525 0.51916 0.98066 0.0
C209 C 0.98274 0.52848 0.99199 0.0
C210 C 0.95115 0.5419 0.98221 0.0
C211 C 0.95185 0.5459 0.96143 0.0
C212 C 0.98403 0.53576 0.95026 0.0
C213 C 0.01514 0.52279 0.9599 0.0
C214 C 0.04605 0.51228 0.9456 0.0
C215 C 0.02888 0.52179 0.92582 0.0
C216 C 0.99253 0.53547 0.92864 0.0
C217 C 0.03178 0.45671 0.94812 0.0
C218 C 0.10159 0.55052 0.9495 0.0
C219 C 0.88391 0.56124 0.87948 0.0
C220 C 0.87996 0.55624 0.85872 0.0
C221 C 0.9166 0.55283 0.84775 0.0
C222 C 0.95553 0.5515 0.85748 0.0
C223 C 0.95694 0.5524 0.87839 0.0
C224 C 0.92252 0.55883 0.88905 0.0
C225 C 0.92855 0.55641 0.91118 0.0
C226 C 0.97086 0.54535 0.91195 0.0
C227 C 0.98706 0.54299 0.8927 0.0
C228 C 0.87947 0.51269 0.91984 0.0
C229 C 0.94383 0.60845 0.91999 0.0
H230 H 0.1112 0.48473 0.92391 0.0
H231 H 0.11127 0.50073 0.85037 0.0
H232 H 0.11113 0.5987 0.86731 0.0
H233 H 0.05627 0.59556 0.85872 0.0
H234 H 0.08529 0.56835 0.84407 0.0
H235 H 0.00213 0.44316 0.86156 0.0
H236 H 0.01559 0.48639 0.84148 0.0
H237 H 0.96777 0.47367 0.85969 0.0
H238 H 0.03952 0.5082 0.98777 0.0
H239 H 0.92612 0.54966 0.99068 0.0
H240 H 0.92692 0.55623 0.95485 0.0
H241 H 0.99209 0.43296 0.95264 0.0
H242 H 0.05484 0.45256 0.9597 0.0
H243 H 0.03497 0.43983 0.93412 0.0
H244 H 0.10707 0.58851 0.95217 0.0
H245 H 0.12595 0.55498 0.93675 0.0
H246 H 0.11511 0.53975 0.96284 0.0
H247 H 0.16471 0.46618 0.90387 0.0
C248 C 0.11012 0.48845 0.90808 0.0
C249 C 0.9149 0.36892 0.46386 0.0
C250 C 0.88915 0.32156 0.45469 0.0
C251 C 0.89654 0.31788 0.43419 0.0
C252 C 0.95043 0.40767 0.43198 0.0
C253 C 0.94522 0.41141 0.45222 0.0
C254 C 0.97354 0.46503 0.45919 0.0
H255 H 0.12056 0.71061 0.43513 0.0
C256 C 0.98059 0.45865 0.4238 0.0
C257 C -0.00562 0.49266 0.43962 0.0
H258 H 0.07731 0.64619 0.49404 0.0
H259 H 0.02644 0.56376 0.47971 0.0
H260 H 0.14369 0.63328 0.41879 0.0
H261 H 0.01093 0.64285 0.41478 0.0
H262 H 0.01762 0.62041 0.39169 0.0
H263 H 0.06532 0.68148 0.40003 0.0
H264 H 0.13917 0.67757 0.40293 0.0
H265 H 0.12134 0.61544 0.39451 0.0
C266 C 0.01519 0.47072 0.47337 0.0
C267 C 0.93623 0.47815 0.46875 0.0
C268 C 0.00776 0.48266 0.34914 0.0
C269 C 0.03052 0.52556 0.33699 0.0
C270 C 0.05318 0.5733 0.34582 0.0
C271 C 0.05285 0.57829 0.36649 0.0
C272 C 0.02948 0.53506 0.37848 0.0
C273 C 0.00743 0.4883 0.36977 0.0
C274 C 0.98272 0.44668 0.38478 0.0
C275 C -0.00599 0.47624 0.40397 0.0
C276 C 0.02146 0.52782 0.40015 0.0
C277 C 0.0088 0.41519 0.38395 0.0
C278 C 0.92613 0.41696 0.38025 0.0
C279 C 0.09898 0.67914 0.445 0.0
C280 C 0.10281 0.68503 0.46574 0.0
C281 C 0.07516 0.64258 0.478 0.0
C282 C 0.04593 0.59477 0.46966 0.0
C283 C 0.04467 0.58936 0.44886 0.0
C284 C 0.07035 0.63137 0.43696 0.0
C285 C 0.067 0.61892 0.41526 0.0
C286 C 0.03614 0.56234 0.41606 0.0
C287 C 0.02276 0.54501 0.43572 0.0
C288 C 0.1204 0.6374 0.40727 0.0
C289 C 0.03914 0.64225 0.40472 0.0
H290 H 0.93007 0.35511 0.40728 0.0
H291 H 0.91053 0.373 0.47961 0.0
H292 H 0.90169 0.4627 0.45974 0.0
H293 H 0.95069 0.51885 0.46953 0.0
H294 H 0.92553 0.4621 0.48399 0.0
H295 H 0.03003 0.44621 0.46868 0.0
H296 H 0.00103 0.46014 0.48885 0.0
H297 H 0.04787 0.50897 0.47329 0.0
H298 H 0.98937 0.4455 0.34271 0.0
H299 H 0.07128 0.60684 0.3367 0.0
H300 H 0.07071 0.61564 0.3723 0.0
H301 H 0.04932 0.43944 0.38085 0.0
H302 H 0.99293 0.38661 0.37201 0.0
H303 H 0.0069 0.39649 0.39822 0.0
H304 H 0.91345 0.44183 0.37383 0.0
H305 H 0.90285 0.40083 0.39369 0.0
H306 H 0.91707 0.38655 0.36937 0.0
H307 H 0.87674 0.28223 0.42661 0.0
C308 C 0.92709 0.36051 0.42286 0.0
C309 C 0.52714 0.88305 0.79159 0.0
C310 C 0.54594 0.85622 0.7814 0.0
C311 C 0.55518 0.8642 0.76076 0.0
C312 C 0.52569 0.92316 0.76072 0.0
C313 C 0.51705 0.91598 0.78097 0.0
C314 C 0.49517 0.94602 0.78925 0.0
H315 H 0.41025 0.10604 0.77175 0.0
C316 C 0.50964 0.95816 0.75394 0.0
C317 C 0.49141 0.97159 0.77055 0.0
H318 H 0.42385 0.04918 0.82869 0.0
H319 H 0.45455 -4e-05 0.81232 0.0
H320 H 0.5107 0.13279 0.7573 0.0
H321 H 0.36971 0.00079 0.74606 0.0
H322 H 0.40201 0.01991 0.72327 0.0
H323 H 0.3873 0.0617 0.73636 0.0
H324 H 0.46918 0.13206 0.73871 0.0
H325 H 0.51537 0.11481 0.73306 0.0
C326 C 0.53246 0.98414 0.80435 0.0
C327 C 0.44334 0.90916 0.79818 0.0
C328 C 0.52388 0.0053 0.68074 0.0
C329 C 0.51126 0.03642 0.67004 0.0
C330 C 0.49149 0.06222 0.6803 0.0
C331 C 0.48346 0.05637 0.70086 0.0
C332 C 0.4955 0.02454 0.71133 0.0
C333 C 0.51585 7e-05 0.70132 0.0
C334 C 0.52662 0.9681 0.71496 0.0
C335 C 0.50934 0.97749 0.73481 0.0
C336 C 0.49087 0.01019 0.73251 0.0
C337 C 0.58351 0.98866 0.71455 0.0
C338 C 0.49447 0.91277 0.70827 0.0
C339 C 0.4182 0.08169 0.78068 0.0
C340 C 0.41367 0.08056 0.80146 0.0
C341 C 0.42661 0.05014 0.81261 0.0
C342 C 0.44468 0.02195 0.80309 0.0
C343 C 0.45055 0.02493 0.78226 0.0
C344 C 0.43716 0.0544 0.77149 0.0
C345 C 0.44925 0.05664 0.74978 0.0
C346 C 0.47177 0.02325 0.74914 0.0
C347 C 0.47216 0.00432 0.76811 0.0
C348 C 0.48782 0.1118 0.74425 0.0
C349 C 0.39975 0.03395 0.7381 0.0
H350 H 0.55277 0.90137 0.73475 0.0
H351 H 0.51997 0.87822 0.80745 0.0
H352 H 0.42268 0.87613 0.78832 0.0
H353 H 0.41928 0.92566 0.79969 0.0
H354 H 0.44686 0.89522 0.81298 0.0
H355 H 0.57153 -0.00205 0.79952 0.0
H356 H 0.52748 0.96682 0.8193 0.0
H357 H 0.52955 0.01819 0.80564 0.0
H358 H 0.5395 0.9853 0.67326 0.0
H359 H 0.48097 0.08593 0.67232 0.0
H360 H 0.46766 0.0765 0.70773 0.0
H361 H 0.60443 0.03027 0.71339 0.0
H362 H 0.59428 0.97382 0.7016 0.0
H363 H 0.59734 0.98035 0.7283 0.0
H364 H 0.45835 0.90547 0.70201 0.0
H365 H 0.48396 0.88581 0.7207 0.0
H366 H 0.51378 0.9034 0.69659 0.0
H367 H 0.56856 0.84341 0.75238 0.0
C368 C 0.54539 0.89755 0.75044 0.0
C369 C 0.58939 0.44726 0.12881 0.0
C370 C 0.6355 0.46361 0.11955 0.0
C371 C 0.64117 0.47423 0.09906 0.0
C372 C 0.55481 0.45192 0.09711 0.0
C373 C 0.5497 0.44221 0.11734 0.0
C374 C 0.49892 0.42868 0.12494 0.0
H375 H 0.28045 0.41683 0.10727 0.0
C376 C 0.50688 0.44371 0.08959 0.0
C377 C 0.47404 0.43039 0.10581 0.0
H378 H 0.34122 0.40872 0.16383 0.0
H379 H 0.40886 0.40593 0.14695 0.0
H380 H 0.37721 0.49795 0.08888 0.0
H381 H 0.30614 0.33772 0.08352 0.0
H382 H 0.33434 0.36269 0.0604 0.0
H383 H 0.28581 0.37351 0.06951 0.0
H384 H 0.32037 0.46083 0.07546 0.0
H385 H 0.38003 0.48412 0.06372 0.0
C386 C 0.50498 0.46947 0.13999 0.0
C387 C 0.47386 0.37501 0.13371 0.0
C388 C 0.48776 0.46775 0.01612 0.0
C389 C 0.44758 0.46224 0.00466 0.0
C390 C 0.40158 0.44712 0.01413 0.0
C391 C 0.3958 0.4379 0.03465 0.0
C392 C 0.43648 0.4441 0.0459 0.0
C393 C 0.48129 0.4582 0.03657 0.0
C394 C 0.52009 0.46178 0.0508 0.0
C395 C 0.49105 0.44734 0.07022 0.0
C396 C 0.44237 0.43757 0.06728 0.0
C397 C 0.56373 0.51684 0.05091 0.0
C398 C 0.53491 0.42283 0.0445 0.0
C399 C 0.30782 0.41319 0.11591 0.0
C400 C 0.30635 0.41349 0.13676 0.0
C401 C 0.34202 0.40854 0.14771 0.0
C402 C 0.38143 0.40764 0.13789 0.0
C403 C 0.385 0.41216 0.11702 0.0
C404 C 0.34752 0.41291 0.10635 0.0
C405 C 0.35816 0.41958 0.08439 0.0
C406 C 0.40957 0.42559 0.08373 0.0
C407 C 0.42508 0.42127 0.10286 0.0
C408 C 0.35878 0.46789 0.07757 0.0
C409 C 0.31907 0.37118 0.07375 0.0
H410 H 0.60741 0.47667 0.07216 0.0
H411 H 0.58463 0.4394 0.14463 0.0
H412 H 0.48073 0.35004 0.12395 0.0
H413 H 0.43298 0.35722 0.13482 0.0
H414 H 0.48894 0.37497 0.14866 0.0
H415 H 0.53986 0.50572 0.13723 0.0
H416 H 0.50631 0.45799 0.15554 0.0
H417 H 0.47513 0.47879 0.13877 0.0
H418 H 0.52374 0.47972 0.00938 0.0
H419 H 0.36977 0.44173 0.00561 0.0
H420 H 0.35994 0.42659 0.04099 0.0
H421 H 0.55046 0.54346 0.04763 0.0
H422 H 0.59228 0.52296 0.03954 0.0
H423 H 0.58175 0.52864 0.0656 0.0
H424 H 0.5017 0.38745 0.03954 0.0
H425 H 0.55069 0.41158 0.05679 0.0
H426 H 0.56198 0.43719 0.03195 0.0
H427 H 0.67671 0.48665 0.0918 0.0
C428 C 0.60094 0.46821 0.08773 0.0
H429 H 0.13693 0.43889 0.17623 0.0
H430 H 0.21239 0.57655 0.14224 0.0
H431 H 0.27664 0.55774 0.13264 0.0
H432 H 0.30694 0.49894 0.13116 0.0
H433 H 0.2324 0.36043 0.16418 0.0
H434 H 0.17219 0.38295 0.17716 0.0
C435 C 0.16785 0.46512 0.16699 0.0
C436 C 0.16948 0.50872 0.15974 0.0
C437 C 0.20443 0.45371 0.16123 0.0
C438 C 0.20987 0.54243 0.14782 0.0
C439 C 0.24664 0.53174 0.14229 0.0
C440 C 0.27761 0.47394 0.14133 0.0
C441 C 0.27312 0.42791 0.14654 0.0
C442 C 0.24346 0.48694 0.14845 0.0
C443 C 0.23594 0.39593 0.15996 0.0
C444 C 0.20165 0.40877 0.16728 0.0
H445 H 0.70975 0.11138 0.47864 0.0
H446 H 0.66453 0.20549 0.5087 0.0
H447 H 0.74445 0.27939 0.50083 0.0
H448 H 0.82186 0.31805 0.48149 0.0
H449 H 0.86843 0.22437 0.452 0.0
H450 H 0.79332 0.14952 0.46369 0.0
C451 C 0.71768 0.14798 0.4837 0.0
C452 C 0.68091 0.15299 0.49392 0.0
C453 C 0.76372 0.19045 0.47909 0.0
C454 C 0.69203 0.20056 0.50069 0.0
C455 C 0.7377 0.24294 0.49614 0.0
C456 C 0.8165 0.28134 0.47812 0.0
C457 C 0.85028 0.2769 0.46554 0.0
C458 C 0.77316 0.23847 0.48481 0.0
C459 C 0.84238 0.22887 0.46126 0.0
C460 C 0.79947 0.18602 0.46795 0.0
H461 H 0.58475 0.68284 0.80673 0.0
H462 H 0.45307 0.64029 0.84206 0.0
H463 H 0.45428 0.71683 0.83202 0.0
H464 H 0.48695 0.79043 0.81016 0.0
H465 H 0.62037 0.83459 0.77571 0.0
H466 H 0.62398 0.76256 0.78841 0.0
C467 C 0.5567 0.69065 0.81243 0.0
C468 C 0.51853 0.65563 0.82489 0.0
C469 C 0.5575 0.73464 0.80657 0.0
C470 C 0.48285 0.66659 0.83241 0.0
C471 C 0.48333 0.71023 0.82659 0.0
C472 C 0.5176 0.78518 0.8058 0.0
C473 C 0.55275 0.81745 0.79167 0.0
C474 C 0.5197 0.74384 0.81325 0.0
C475 C 0.59198 0.80962 0.78614 0.0
C476 C 0.59426 0.76855 0.79346 0.0
H477 H 0.80913 0.44583 0.15722 0.0
H478 H 0.88241 0.60687 0.15352 0.0
H479 H 0.80481 0.6011 0.14213 0.0
H480 H 0.7188 0.5491 0.12965 0.0
H481 H 0.6458 0.38831 0.13444 0.0
H482 H 0.72071 0.39474 0.14917 0.0
C483 C 0.80774 0.47963 0.1542 0.0
C484 C 0.85108 0.52663 0.15587 0.0
C485 C 0.76336 0.47589 0.14775 0.0
C486 C 0.84918 0.57034 0.15228 0.0
C487 C 0.80505 0.56699 0.14565 0.0
C488 C 0.71939 0.51575 0.13428 0.0
C489 C 0.67768 0.46832 0.13095 0.0
C490 C 0.76236 0.51988 0.14279 0.0
C491 C 0.67793 0.42505 0.13697 0.0
C492 C 0.72062 0.42875 0.14528 0.0
H493 H 0.28453 0.90155 0.47676 0.0
H494 H 0.32666 0.82117 0.51749 0.0
H495 H 0.24573 0.74614 0.51359 0.0
H496 H 0.16801 0.70026 0.49519 0.0
H497 H 0.12489 0.77933 0.45438 0.0
H498 H 0.20088 0.85797 0.46196 0.0
C499 C 0.27578 0.86783 0.48498 0.0
C500 C 0.31211 0.86689 0.49707 0.0
C501 C 0.22905 0.82439 0.4826 0.0
C502 C 0.29977 0.82299 0.50786 0.0
C503 C 0.2534 0.77989 0.50566 0.0
C504 C 0.17432 0.73491 0.48845 0.0
C505 C 0.14119 0.7338 0.47404 0.0
C506 C 0.21838 0.77973 0.49261 0.0
C507 C 0.15029 0.77909 0.4653 0.0
C508 C 0.19379 0.82403 0.46957 0.0
H509 H 0.37773 0.25894 0.81567 0.0
H510 H 0.50652 0.30577 0.85294 0.0
H511 H 0.49982 0.22436 0.84899 0.0
H512 H 0.46561 0.14522 0.83085 0.0
H513 H 0.33876 0.09902 0.79274 0.0
H514 H 0.33583 0.17428 0.80146 0.0
C515 C 0.4039 0.25112 0.82317 0.0
C516 C 0.44319 0.28889 0.83421 0.0
C517 C 0.40027 0.20429 0.82066 0.0
C518 C 0.4763 0.27775 0.84408 0.0
C519 C 0.47255 0.23112 0.84186 0.0
C520 C 0.43625 0.15077 0.82503 0.0
C521 C 0.40277 0.11703 0.81106 0.0
C522 C 0.43578 0.19478 0.82962 0.0
C523 C 0.3652 0.12487 0.80342 0.0
C524 C 0.36373 0.168 0.8083 0.0
H525 H 0.61016 0.91836 0.51594 0.0
H526 H 0.48175 0.81892 0.48132 0.0
H527 H 0.4899 0.74738 0.49164 0.0
H528 H 0.52507 0.71235 0.51466 0.0
H529 H 0.65023 0.81082 0.55124 0.0
H530 H 0.65194 0.88374 0.53613 0.0
C531 C 0.58526 0.88119 0.51015 0.0
C532 C 0.54597 0.8735 0.4977 0.0
C533 C 0.5889 0.84014 0.51689 0.0
C534 C 0.51273 0.82533 0.49066 0.0
C535 C 0.5171 0.78453 0.49672 0.0
C536 C 0.55367 0.74976 0.51893 0.0
C537 C 0.58721 0.75618 0.53417 0.0
C538 C 0.55381 0.79129 0.51045 0.0
C539 C 0.6235 0.80494 0.53976 0.0
C540 C 0.6246 0.84661 0.53108 0.0
H541 H 0.66011 0.46036 0.8303 0.0
H542 H 0.69498 0.61403 0.83227 0.0
H543 H 0.78202 0.64129 0.84008 0.0
H544 H 0.8454 0.61925 0.85014 0.0
H545 H 0.80965 0.46541 0.84669 0.0
H546 H 0.72554 0.43996 0.83552 0.0
C547 C 0.68712 0.49988 0.83209 0.0
C548 C 0.67165 0.53521 0.83099 0.0
C549 C 0.73658 0.51499 0.83646 0.0
C550 C 0.70656 0.58637 0.83306 0.0
C551 C 0.75605 0.60183 0.83766 0.0
C552 C 0.81923 0.58046 0.84654 0.0
C553 C 0.83289 0.54401 0.84922 0.0
C554 C 0.7711 0.56625 0.83997 0.0
C555 C 0.79935 0.49379 0.84459 0.0
C556 C 0.75142 0.47929 0.83831 0.0
H557 H 0.16308 0.74163 0.14681 0.0
H558 H 0.10198 0.70154 0.20619 0.0
H559 H 0.17082 0.77898 0.21908 0.0
H560 H 0.25253 0.85109 0.21418 0.0
H561 H 0.30974 0.89955 0.15448 0.0
H562 H 0.23857 0.8247 0.14117 0.0
C563 C 0.16448 0.75051 0.16249 0.0
C564 C 0.12789 0.7158 0.17556 0.0
C565 C 0.20386 0.79574 0.16983 0.0
C566 C 0.12964 0.72777 0.19581 0.0
C567 C 0.16921 0.77186 0.20324 0.0
C568 C 0.24937 0.84719 0.19819 0.0
C569 C 0.28812 0.88132 0.18559 0.0
C570 C 0.2072 0.80537 0.19046 0.0
C571 C 0.28218 0.87341 0.16486 0.0
C572 C 0.24097 0.83071 0.1571 0.0
H573 H 0.52202 0.20159 0.4897 0.0
H574 H 0.37603 0.10159 0.5136 0.0
H575 H 0.36607 0.17333 0.52219 0.0
H576 H 0.4039 0.26506 0.52634 0.0
H577 H 0.54955 0.36394 0.50156 0.0
H578 H 0.55456 0.29218 0.4895 0.0
C579 C 0.48762 0.19571 0.49636 0.0
C580 C 0.44982 0.147 0.50112 0.0
C581 C 0.48239 0.23685 0.50119 0.0
C582 C 0.40532 0.13911 0.50974 0.0
C583 C 0.39988 0.18004 0.51476 0.0
C584 C 0.43625 0.27065 0.518 0.0
C585 C 0.47644 0.31946 0.51492 0.0
C586 C 0.43886 0.22915 0.5111 0.0
C587 C 0.51809 0.32662 0.50398 0.0
C588 C 0.52112 0.28566 0.49721 0.0
H589 H 0.32084 0.49869 0.82636 0.0
H590 H 0.27493 0.35739 0.85517 0.0
H591 H 0.20111 0.35649 0.86881 0.0
H592 H 0.1574 0.40291 0.87636 0.0
H593 H 0.20605 0.54553 0.84784 0.0
H594 H 0.27105 0.53905 0.83007 0.0
C595 C 0.29354 0.46691 0.83504 0.0
C596 C 0.30249 0.42801 0.83973 0.0
C597 C 0.25249 0.46756 0.84317 0.0
C598 C 0.26786 0.38721 0.85118 0.0
C599 C 0.22624 0.38715 0.85918 0.0
C600 C 0.18202 0.43217 0.86609 0.0
C601 C 0.17758 0.47489 0.86354 0.0
C602 C 0.21941 0.42822 0.85595 0.0
C603 C 0.20894 0.51234 0.84999 0.0
C604 C 0.24611 0.50872 0.83988 0.0
H605 H 0.84552 0.33383 0.15506 0.0
H606 H 0.94614 0.32972 0.19807 0.0
H607 H 0.87784 0.25355 0.21274 0.0
H608 H 0.7878 0.19512 0.21616 0.0
H609 H 0.68718 0.20411 0.17453 0.0
H610 H 0.75724 0.27051 0.15636 0.0
C611 C 0.85288 0.31569 0.16734 0.0
C612 C 0.9008 0.3379 0.1756 0.0
C613 C 0.81318 0.27292 0.17613 0.0
C614 C 0.90951 0.31371 0.19151 0.0
C615 C 0.8704 0.27027 0.2 0.0
C616 C 0.78125 0.2114 0.20304 0.0
C617 C 0.73219 0.1948 0.19687 0.0
C618 C 0.82174 0.25075 0.19293 0.0
C619 C 0.72445 0.21565 0.17957 0.0
C620 C 0.76454 0.25403 0.16922 0.0
H621 H 0.94183 0.48806 0.08412 0.0
H622 H 0.10199 0.57992 0.08551 0.0
H623 H 0.10455 0.58676 0.04928 0.0
H624 H 0.06122 0.56765 0.01719 0.0
H625 H 0.90102 0.47856 0.01586 0.0
H626 H 0.89846 0.46989 0.05209 0.0
C627 C 0.97731 0.50933 0.07648 0.0
C628 C 0.02165 0.53326 0.0875 0.0
C629 C 0.97847 0.51383 0.05567 0.0
C630 C 0.06729 0.56121 0.0774 0.0
C631 C 0.06882 0.56512 0.05667 0.0
C632 C 0.02583 0.54613 0.02487 0.0
C633 C 0.98139 0.5237 0.01394 0.0
C634 C 0.02465 0.54174 0.04567 0.0
C635 C 0.93567 0.49648 0.02402 0.0
C636 C 0.93422 0.49134 0.0447 0.0
H637 H 0.43743 0.03383 0.4184 0.0
H638 H 0.55951 0.00493 0.41639 0.0
H639 H 0.56278 0.01265 0.38024 0.0
H640 H 0.53008 0.02599 0.34908 0.0
H641 H 0.40885 0.05596 0.35105 0.0
H642 H 0.40613 0.04926 0.3873 0.0
C643 C 0.46471 0.02909 0.41008 0.0
C644 C 0.49803 0.01862 0.42018 0.0
C645 C 0.46661 0.03381 0.38925 0.0
C646 C 0.53333 0.01296 0.40908 0.0
C647 C 0.5353 0.01741 0.38837 0.0
C648 C 0.50353 0.03175 0.35746 0.0
C649 C 0.46968 0.04139 0.34735 0.0
C650 C 0.50212 0.0278 0.3783 0.0
C651 C 0.43496 0.04794 0.35844 0.0
C652 C 0.43346 0.04425 0.37917 0.0
H653 H 0.54496 0.52786 0.7511 0.0
H654 H 0.4015 0.3923 0.75453 0.0
H655 H 0.39763 0.38799 0.71824 0.0
H656 H 0.43446 0.42358 0.68549 0.0
H657 H 0.57834 0.55854 0.68244 0.0
H658 H 0.58217 0.5624 0.71866 0.0
C659 C 0.51279 0.49726 0.74398 0.0
C660 C 0.47357 0.46051 0.7556 0.0
C661 C 0.51073 0.49502 0.72314 0.0
C662 C 0.43227 0.42116 0.746 0.0
C663 C 0.42998 0.41866 0.72523 0.0
C664 C 0.46684 0.45356 0.69276 0.0
C665 C 0.50593 0.49084 0.68125 0.0
C666 C 0.46896 0.45545 0.71365 0.0
C667 C 0.54736 0.5298 0.69092 0.0
C668 C 0.54975 0.53189 0.71164 0.0
H669 H 0.53547 0.08467 0.57815 0.0
H670 H 0.46673 0.92352 0.5755 0.0
H671 H 0.4663 0.919 0.61167 0.0
H672 H 0.4827 0.96021 0.64406 0.0
H673 H 0.55013 0.1209 0.64702 0.0
H674 H 0.5537 0.12617 0.61067 0.0
C675 C 0.52056 0.04857 0.58547 0.0
C676 C 0.50105 0.00454 0.57409 0.0
C677 C 0.52008 0.04611 0.60632 0.0
C678 C 0.48181 0.95805 0.58385 0.0
C679 C 0.48158 0.95536 0.60456 0.0
C680 C 0.49882 0.99642 0.63673 0.0
C681 C 0.51622 0.04009 0.64813 0.0
C682 C 0.50032 -0.00092 0.61592 0.0
C683 C 0.53619 0.08674 0.63849 0.0
C684 C 0.53832 0.08976 0.61775 0.0
H685 H 0.44933 0.5121 0.91345 0.0
H686 H 0.53547 0.43789 0.91064 0.0
H687 H 0.5295 0.42711 0.94664 0.0
H688 H 0.49673 0.43513 0.97867 0.0
H689 H 0.41142 0.51 0.98178 0.0
H690 H 0.4195 0.52332 0.9458 0.0
C691 C 0.46718 0.49394 0.9207 0.0
C692 C 0.49266 0.47572 0.9093 0.0
C693 C 0.46328 0.48743 0.94143 0.0
C694 C 0.51548 0.4522 0.919 0.0
C695 C 0.51203 0.44589 0.9396 0.0
C696 C 0.48049 0.45501 0.97154 0.0
C697 C 0.45343 0.47143 0.98289 0.0
C698 C 0.48558 0.46286 0.95092 0.0
C699 C 0.43184 0.49631 0.97334 0.0
C700 C 0.43672 0.50425 0.95279 0.0
H701 H 0.03545 0.4817 0.24577 0.0
H702 H 0.98692 0.59003 0.24144 0.0
H703 H 0.98908 0.59776 0.27756 0.0
H704 H 0.00508 0.57418 0.31033 0.0
H705 H 0.05254 0.46532 0.31485 0.0
H706 H 0.05021 0.45714 0.27861 0.0
C707 C 0.02535 0.50703 0.25271 0.0
C708 C 0.01119 0.53532 0.2409 0.0
C709 C 0.02648 0.51119 0.27348 0.0
C710 C -0.00212 0.5677 0.25016 0.0
C711 C -0.00081 0.57226 0.27082 0.0
C712 C 0.0153 0.549 0.30333 0.0
C713 C 0.02929 0.52065 0.31513 0.0
C714 C 0.0136 0.54435 0.28259 0.0
C715 C 0.04149 0.48737 0.30599 0.0
C716 C 0.04029 0.48281 0.28532 0.0
loop_
_geom_bond_atom_site_label_1
_geom_bond_atom_site_label_2
_geom_bond_distance
_geom_bond_site_symmetry_2
_ccdc_geom_bond_type
O0 Zn1 1.953 . S
O0 C16 1.225 1_655 S
Zn1 O0 1.953 . S
Zn1 O2 1.949 1_655 S
Zn1 O8 1.919 . S
Zn1 O13 1.924 1_655 S
O2 Zn1 1.949 1_455 S
O2 Zn3 1.923 1_455 S
O2 Zn4 1.950 . S
O2 Zn5 1.945 . S
Zn3 O2 1.923 1_655 S
Zn3 O6 1.933 . S
Zn3 O9 1.941 . S
Zn3 O10 1.965 . S
Zn4 O2 1.950 . S
Zn4 O11 1.938 1_455 S
Zn4 O12 1.906 . S
Zn4 O22 1.953 . S
Zn5 O2 1.945 . S
Zn5 O7 1.932 . S
Zn5 O14 1.977 . S
Zn5 O15 1.910 . S
O6 Zn3 1.933 . S
O6 C17 1.226 1_655 S
O7 Zn5 1.932 . S
O7 C17 1.307 . S
O8 Zn1 1.919 . S
O8 C19 1.253 . S
O9 Zn3 1.941 . S
O9 C19 1.283 . S
O10 Zn3 1.965 . S
O10 C18 1.303 . S
O11 Zn4 1.938 1_655 S
O11 C18 1.247 . S
O12 Zn4 1.906 . S
O12 C20 1.304 . S
O13 Zn1 1.924 1_455 S
O13 C21 1.311 . S
O14 Zn5 1.977 . S
O14 C20 1.272 . S
O15 Zn5 1.910 . S
O15 C21 1.231 . S
C16 O0 1.225 1_455 S
C16 O22 1.298 . S
C17 O6 1.226 1_455 S
C17 O7 1.307 . S
C18 O10 1.303 . S
C18 O11 1.247 . S
C19 O8 1.253 . S
C19 O9 1.283 . S
C20 O12 1.304 . S
C20 O14 1.272 . S
C21 O13 1.311 . S
C21 O15 1.231 . S
O22 Zn4 1.953 . S
O22 C16 1.298 . S
O23 Zn24 1.953 . S
O23 C39 1.225 . S
Zn24 O23 1.953 . S
Zn24 O25 1.949 . S
Zn24 O31 1.919 . S
Zn24 O36 1.924 1_545 S
O25 Zn24 1.949 . S
O25 Zn26 1.923 . S
O25 Zn27 1.950 1_545 S
O25 Zn28 1.945 1_545 S
Zn26 O25 1.923 . S
Zn26 O29 1.933 . S
Zn26 O32 1.941 . S
Zn26 O33 1.965 . S
Zn27 O25 1.950 1_565 S
Zn27 O34 1.938 1_565 S
Zn27 O35 1.906 . S
Zn27 O45 1.953 . S
Zn28 O25 1.945 1_565 S
Zn28 O30 1.932 . S
Zn28 O37 1.977 . S
Zn28 O38 1.910 . S
O29 Zn26 1.933 . S
O29 C40 1.226 . S
O30 Zn28 1.932 . S
O30 C40 1.307 1_565 S
O31 Zn24 1.919 . S
O31 C42 1.253 . S
O32 Zn26 1.941 . S
O32 C42 1.283 . S
O33 Zn26 1.965 . S
O33 C41 1.303 . S
O34 Zn27 1.938 1_545 S
O34 C41 1.247 . S
O35 Zn27 1.906 . S
O35 C43 1.304 . S
O36 Zn24 1.924 1_565 S
O36 C44 1.311 . S
O37 Zn28 1.977 . S
O37 C43 1.272 . S
O38 Zn28 1.910 . S
O38 C44 1.231 . S
C39 O23 1.225 . S
C39 O45 1.298 1_545 S
C40 O29 1.226 . S
C40 O30 1.307 1_545 S
C41 O33 1.303 . S
C41 O34 1.247 . S
C42 O31 1.253 . S
C42 O32 1.283 . S
C43 O35 1.304 . S
C43 O37 1.272 . S
C44 O36 1.311 . S
C44 O38 1.231 . S
O45 Zn27 1.953 . S
O45 C39 1.298 1_565 S
O46 Zn47 1.953 . S
O46 C62 1.225 . S
Zn47 O46 1.953 . S
Zn47 O48 1.949 . S
Zn47 O54 1.919 . S
Zn47 O59 1.924 . S
O48 Zn47 1.949 . S
O48 Zn49 1.923 . S
O48 Zn50 1.950 . S
O48 Zn51 1.945 . S
Zn49 O48 1.923 . S
Zn49 O52 1.933 . S
Zn49 O55 1.941 . S
Zn49 O56 1.965 . S
Zn50 O48 1.950 . S
Zn50 O57 1.938 . S
Zn50 O58 1.906 . S
Zn50 O68 1.953 . S
Zn51 O48 1.945 . S
Zn51 O53 1.932 . S
Zn51 O60 1.977 . S
Zn51 O61 1.910 . S
O52 Zn49 1.933 . S
O52 C63 1.226 . S
O53 Zn51 1.932 . S
O53 C63 1.307 . S
O54 Zn47 1.919 . S
O54 C65 1.253 . S
O55 Zn49 1.941 . S
O55 C65 1.283 . S
O56 Zn49 1.965 . S
O56 C64 1.303 . S
O57 Zn50 1.938 . S
O57 C64 1.247 . S
O58 Zn50 1.906 . S
O58 C66 1.304 . S
O59 Zn47 1.924 . S
O59 C67 1.311 . S
O60 Zn51 1.977 . S
O60 C66 1.272 . S
O61 Zn51 1.910 . S
O61 C67 1.231 . S
C62 O46 1.225 . S
C62 O68 1.298 . S
C63 O52 1.226 . S
C63 O53 1.307 . S
C64 O56 1.303 . S
C64 O57 1.247 . S
C65 O54 1.253 . S
C65 O55 1.283 . S
C66 O58 1.304 . S
C66 O60 1.272 . S
C67 O59 1.311 . S
C67 O61 1.231 . S
O68 Zn50 1.953 . S
O68 C62 1.298 . S
C69 C70 1.391 . S
C69 C73 1.391 . S
C69 H111 0.948 . S
C70 C69 1.391 . S
C70 C71 1.391 . S
C71 C70 1.391 . S
C71 H127 0.947 . S
C71 C128 1.392 . S
C72 C73 1.391 . S
C72 C76 1.397 . S
C72 C128 1.419 . S
C73 C69 1.391 . S
C73 C72 1.391 . S
C73 C74 1.399 . S
C74 C73 1.399 . S
C74 C77 1.396 . S
C74 C86 1.453 . S
C74 C87 1.684 . S
H75 C99 0.948 . S
C76 C72 1.397 . S
C76 C77 1.394 . S
C76 C95 1.723 . S
C77 C74 1.396 . S
C77 C76 1.394 . S
C77 C107 1.723 1_545 S
H78 C101 0.947 . S
H79 C102 0.948 . S
H80 C108 0.982 . S
H81 C109 0.979 . S
H82 C109 0.980 . S
H83 C109 0.983 . S
H84 C108 0.979 . S
H85 C108 0.977 . S
C86 C74 1.453 . S
C86 H115 0.982 . S
C86 H116 0.979 . S
C86 H117 0.977 1_545 S
C87 C74 1.684 . S
C87 H112 0.979 . S
C87 H113 0.980 . S
C87 H114 0.983 . S
C88 C89 1.391 . S
C88 C93 1.391 . S
C88 H118 0.948 . S
C89 C88 1.391 . S
C89 C90 1.391 1_545 S
C90 C89 1.391 1_565 S
C90 C91 1.392 . S
C90 H119 0.947 . S
C91 C90 1.392 . S
C91 C92 1.419 . S
C91 H120 0.948 . S
C92 C91 1.419 . S
C92 C93 1.391 1_565 S
C92 C96 1.397 1_565 S
C93 C88 1.391 . S
C93 C92 1.391 1_545 S
C93 C94 1.399 . S
C94 C93 1.399 . S
C94 C95 1.396 . S
C94 C97 1.453 . S
C94 C98 1.684 . S
C95 C76 1.723 . S
C95 C94 1.396 . S
C95 C96 1.394 . S
C96 C92 1.397 1_545 S
C96 C95 1.394 . S
C96 C106 1.723 1_545 S
C97 C94 1.453 . S
C97 H121 0.982 . S
C97 H122 0.979 . S
C97 H123 0.977 . S
C98 C94 1.684 . S
C98 H124 0.979 . S
C98 H125 0.980 . S
C98 H126 0.983 . S
C99 H75 0.948 . S
C99 C100 1.391 . S
C99 C104 1.391 . S
C100 C99 1.391 . S
C100 C101 1.391 . S
C101 H78 0.947 . S
C101 C100 1.391 . S
C101 C102 1.392 . S
C102 H79 0.948 . S
C102 C101 1.392 . S
C102 C103 1.419 . S
C103 C102 1.419 . S
C103 C104 1.391 . S
C103 C107 1.397 . S
C104 C99 1.391 . S
C104 C103 1.391 . S
C104 C105 1.399 . S
C105 C104 1.399 . S
C105 C106 1.396 . S
C105 C108 1.453 . S
C105 C109 1.684 . S
C106 C96 1.723 1_565 S
C106 C105 1.396 . S
C106 C107 1.394 . S
C107 C77 1.723 1_565 S
C107 C103 1.397 . S
C107 C106 1.394 . S
C108 H80 0.982 . S
C108 H84 0.979 . S
C108 H85 0.977 . S
C108 C105 1.453 . S
C109 H81 0.979 . S
C109 H82 0.980 . S
C109 H83 0.983 . S
C109 C105 1.684 . S
H110 C128 0.948 . S
H111 C69 0.948 . S
H112 C87 0.979 . S
H113 C87 0.980 . S
H114 C87 0.983 . S
H115 C86 0.982 . S
H116 C86 0.979 . S
H117 C86 0.977 1_565 S
H118 C88 0.948 . S
H119 C90 0.947 . S
H120 C91 0.948 . S
H121 C97 0.982 . S
H122 C97 0.979 . S
H123 C97 0.977 . S
H124 C98 0.979 . S
H125 C98 0.980 . S
H126 C98 0.983 . S
H127 C71 0.947 . S
C128 C71 1.392 . S
C128 C72 1.419 . S
C128 H110 0.948 . S
C129 C130 1.391 . S
C129 C133 1.391 . S
C129 H171 0.948 . S
C130 C129 1.391 . S
C130 C131 1.391 . S
C131 C130 1.391 . S
C131 H187 0.947 . S
C131 C188 1.392 . S
C132 C133 1.391 . S
C132 C136 1.397 . S
C132 C188 1.419 . S
C133 C129 1.391 . S
C133 C132 1.391 . S
C133 C134 1.399 . S
C134 C133 1.399 . S
C134 C137 1.396 . S
C134 C146 1.453 . S
C134 C147 1.684 . S
H135 C159 0.948 . S
C136 C132 1.397 . S
C136 C137 1.394 . S
C136 C155 1.723 . S
C137 C134 1.396 . S
C137 C136 1.394 . S
C137 C167 1.723 . S
H138 C161 0.947 . S
H139 C162 0.948 . S
H140 C168 0.982 . S
H141 C169 0.979 . S
H142 C169 0.980 . S
H143 C169 0.983 . S
H144 C168 0.979 . S
H145 C168 0.977 . S
C146 C134 1.453 . S
C146 H175 0.982 . S
C146 H176 0.979 . S
C146 H177 0.977 . S
C147 C134 1.684 . S
C147 H172 0.979 . S
C147 H173 0.980 . S
C147 H174 0.983 . S
C148 C149 1.391 . S
C148 C153 1.391 . S
C148 H178 0.948 . S
C149 C148 1.391 . S
C149 C150 1.391 . S
C150 C149 1.391 . S
C150 C151 1.392 . S
C150 H179 0.947 . S
C151 C150 1.392 . S
C151 C152 1.419 . S
C151 H180 0.948 . S
C152 C151 1.419 . S
C152 C153 1.391 . S
C152 C156 1.397 . S
C153 C148 1.391 . S
C153 C152 1.391 . S
C153 C154 1.399 . S
C154 C153 1.399 . S
C154 C155 1.396 . S
C154 C157 1.453 . S
C154 C158 1.684 . S
C155 C136 1.723 . S
C155 C154 1.396 . S
C155 C156 1.394 . S
C156 C152 1.397 . S
C156 C155 1.394 . S
C156 C166 1.723 . S
C157 C154 1.453 . S
C157 H181 0.982 . S
C157 H182 0.979 . S
C157 H183 0.977 . S
C158 C154 1.684 . S
C158 H184 0.979 . S
C158 H185 0.980 . S
C158 H186 0.983 . S
C159 H135 0.948 . S
C159 C160 1.391 . S
C159 C164 1.391 . S
C160 C159 1.391 . S
C160 C161 1.391 . S
C161 H138 0.947 . S
C161 C160 1.391 . S
C161 C162 1.392 . S
C162 H139 0.948 . S
C162 C161 1.392 . S
C162 C163 1.419 . S
C163 C162 1.419 . S
C163 C164 1.391 . S
C163 C167 1.397 . S
C164 C159 1.391 . S
C164 C163 1.391 . S
C164 C165 1.399 . S
C165 C164 1.399 . S
C165 C166 1.396 . S
C165 C168 1.453 . S
C165 C169 1.684 . S
C166 C156 1.723 . S
C166 C165 1.396 . S
C166 C167 1.394 . S
C167 C137 1.723 . S
C167 C163 1.397 . S
C167 C166 1.394 . S
C168 H140 0.982 . S
C168 H144 0.979 . S
C168 H145 0.977 . S
C168 C165 1.453 . S
C169 H141 0.979 . S
C169 H142 0.980 . S
C169 H143 0.983 . S
C169 C165 1.684 . S
H170 C188 0.948 . S
H171 C129 0.948 . S
H172 C147 0.979 . S
H173 C147 0.980 . S
H174 C147 0.983 . S
H175 C146 0.982 . S
H176 C146 0.979 . S
H177 C146 0.977 . S
H178 C148 0.948 . S
H179 C150 0.947 . S
H180 C151 0.948 . S
H181 C157 0.982 . S
H182 C157 0.979 . S
H183 C157 0.977 . S
H184 C158 0.979 . S
H185 C158 0.980 . S
H186 C158 0.983 . S
H187 C131 0.947 . S
C188 C131 1.392 . S
C188 C132 1.419 . S
C188 H170 0.948 . S
C189 C190 1.391 . S
C189 C193 1.391 . S
C189 H231 0.948 . S
C190 C189 1.391 . S
C190 C191 1.391 . S
C191 C190 1.391 . S
C191 H247 0.947 . S
C191 C248 1.392 . S
C192 C193 1.391 . S
C192 C196 1.397 . S
C192 C248 1.419 . S
C193 C189 1.391 . S
C193 C192 1.391 . S
C193 C194 1.399 . S
C194 C193 1.399 . S
C194 C197 1.396 . S
C194 C206 1.453 . S
C194 C207 1.684 . S
H195 C219 0.948 . S
C196 C192 1.397 . S
C196 C197 1.394 . S
C196 C215 1.723 . S
C197 C194 1.396 . S
C197 C196 1.394 . S
C197 C227 1.723 1_455 S
H198 C221 0.947 . S
H199 C222 0.948 . S
H200 C228 0.982 . S
H201 C229 0.979 . S
H202 C229 0.980 . S
H203 C229 0.983 . S
H204 C228 0.979 . S
H205 C228 0.977 . S
C206 C194 1.453 . S
C206 H235 0.982 . S
C206 H236 0.979 . S
C206 H237 0.977 1_455 S
C207 C194 1.684 . S
C207 H232 0.979 . S
C207 H233 0.980 . S
C207 H234 0.983 . S
C208 C209 1.391 . S
C208 C213 1.391 . S
C208 H238 0.948 . S
C209 C208 1.391 . S
C209 C210 1.391 1_455 S
C210 C209 1.391 1_655 S
C210 C211 1.392 . S
C210 H239 0.947 . S
C211 C210 1.392 . S
C211 C212 1.419 1_655 S
C211 H240 0.948 . S
C212 C211 1.419 1_455 S
C212 C213 1.391 . S
C212 C216 1.397 . S
C213 C208 1.391 . S
C213 C212 1.391 . S
C213 C214 1.399 . S
C214 C213 1.399 . S
C214 C215 1.396 . S
C214 C217 1.453 . S
C214 C218 1.684 . S
C215 C196 1.723 . S
C215 C214 1.396 . S
C215 C216 1.394 . S
C216 C212 1.397 . S
C216 C215 1.394 . S
C216 C226 1.723 1_455 S
C217 C214 1.453 . S
C217 H241 0.982 . S
C217 H242 0.979 . S
C217 H243 0.977 . S
C218 C214 1.684 . S
C218 H244 0.979 . S
C218 H245 0.980 . S
C218 H246 0.983 . S
C219 H195 0.948 . S
C219 C220 1.391 . S
C219 C224 1.391 . S
C220 C219 1.391 . S
C220 C221 1.391 . S
C221 H198 0.947 . S
C221 C220 1.391 . S
C221 C222 1.392 . S
C222 H199 0.948 . S
C222 C221 1.392 . S
C222 C223 1.419 . S
C223 C222 1.419 . S
C223 C224 1.391 . S
C223 C227 1.397 . S
C224 C219 1.391 . S
C224 C223 1.391 . S
C224 C225 1.399 . S
C225 C224 1.399 . S
C225 C226 1.396 . S
C225 C228 1.453 . S
C225 C229 1.684 . S
C226 C216 1.723 1_655 S
C226 C225 1.396 . S
C226 C227 1.394 . S
C227 C197 1.723 1_655 S
C227 C223 1.397 . S
C227 C226 1.394 . S
C228 H200 0.982 . S
C228 H204 0.979 . S
C228 H205 0.977 . S
C228 C225 1.453 . S
C229 H201 0.979 . S
C229 H202 0.980 . S
C229 H203 0.983 . S
C229 C225 1.684 . S
H230 C248 0.948 . S
H231 C189 0.948 . S
H232 C207 0.979 . S
H233 C207 0.980 . S
H234 C207 0.983 . S
H235 C206 0.982 . S
H236 C206 0.979 . S
H237 C206 0.977 1_655 S
H238 C208 0.948 . S
H239 C210 0.947 . S
H240 C211 0.948 . S
H241 C217 0.982 . S
H242 C217 0.979 . S
H243 C217 0.977 . S
H244 C218 0.979 . S
H245 C218 0.980 . S
H246 C218 0.983 . S
H247 C191 0.947 . S
C248 C191 1.392 . S
C248 C192 1.419 . S
C248 H230 0.948 . S
C249 C250 1.391 . S
C249 C253 1.391 . S
C249 H291 0.948 . S
C250 C249 1.391 . S
C250 C251 1.391 . S
C251 C250 1.391 . S
C251 H307 0.947 . S
C251 C308 1.392 . S
C252 C253 1.391 . S
C252 C256 1.397 . S
C252 C308 1.419 . S
C253 C249 1.391 . S
C253 C252 1.391 . S
C253 C254 1.399 . S
C254 C253 1.399 . S
C254 C257 1.396 . S
C254 C266 1.453 . S
C254 C267 1.684 . S
H255 C279 0.948 . S
C256 C252 1.397 . S
C256 C257 1.394 . S
C256 C275 1.723 . S
C257 C254 1.396 . S
C257 C256 1.394 . S
C257 C287 1.723 1_655 S
H258 C281 0.947 . S
H259 C282 0.948 . S
H260 C288 0.982 . S
H261 C289 0.979 . S
H262 C289 0.980 . S
H263 C289 0.983 . S
H264 C288 0.979 . S
H265 C288 0.977 . S
C266 C254 1.453 . S
C266 H295 0.982 1_655 S
C266 H296 0.979 . S
C266 H297 0.977 1_655 S
C267 C254 1.684 . S
C267 H292 0.979 . S
C267 H293 0.980 . S
C267 H294 0.983 . S
C268 C269 1.391 1_655 S
C268 C273 1.391 . S
C268 H298 0.948 . S
C269 C268 1.391 1_455 S
C269 C270 1.391 . S
C270 C269 1.391 . S
C270 C271 1.392 . S
C270 H299 0.947 . S
C271 C270 1.392 . S
C271 C272 1.419 . S
C271 H300 0.948 . S
C272 C271 1.419 . S
C272 C273 1.391 1_455 S
C272 C276 1.397 . S
C273 C268 1.391 . S
C273 C272 1.391 1_655 S
C273 C274 1.399 . S
C274 C273 1.399 . S
C274 C275 1.396 . S
C274 C277 1.453 . S
C274 C278 1.684 . S
C275 C256 1.723 . S
C275 C274 1.396 . S
C275 C276 1.394 1_655 S
C276 C272 1.397 . S
C276 C275 1.394 1_455 S
C276 C286 1.723 . S
C277 C274 1.453 . S
C277 H301 0.982 . S
C277 H302 0.979 . S
C277 H303 0.977 . S
C278 C274 1.684 . S
C278 H304 0.979 . S
C278 H305 0.980 . S
C278 H306 0.983 . S
C279 H255 0.948 . S
C279 C280 1.391 . S
C279 C284 1.391 . S
C280 C279 1.391 . S
C280 C281 1.391 . S
C281 H258 0.947 . S
C281 C280 1.391 . S
C281 C282 1.392 . S
C282 H259 0.948 . S
C282 C281 1.392 . S
C282 C283 1.419 . S
C283 C282 1.419 . S
C283 C284 1.391 . S
C283 C287 1.397 . S
C284 C279 1.391 . S
C284 C283 1.391 . S
C284 C285 1.399 . S
C285 C284 1.399 . S
C285 C286 1.396 . S
C285 C288 1.453 . S
C285 C289 1.684 . S
C286 C276 1.723 . S
C286 C285 1.396 . S
C286 C287 1.394 . S
C287 C257 1.723 1_455 S
C287 C283 1.397 . S
C287 C286 1.394 . S
C288 H260 0.982 . S
C288 H264 0.979 . S
C288 H265 0.977 . S
C288 C285 1.453 . S
C289 H261 0.979 . S
C289 H262 0.980 . S
C289 H263 0.983 . S
C289 C285 1.684 . S
H290 C308 0.948 . S
H291 C249 0.948 . S
H292 C267 0.979 . S
H293 C267 0.980 . S
H294 C267 0.983 . S
H295 C266 0.982 1_455 S
H296 C266 0.979 . S
H297 C266 0.977 1_455 S
H298 C268 0.948 . S
H299 C270 0.947 . S
H300 C271 0.948 . S
H301 C277 0.982 . S
H302 C277 0.979 . S
H303 C277 0.977 . S
H304 C278 0.979 . S
H305 C278 0.980 . S
H306 C278 0.983 . S
H307 C251 0.947 . S
C308 C251 1.392 . S
C308 C252 1.419 . S
C308 H290 0.948 . S
C309 C310 1.391 . S
C309 C313 1.391 . S
C309 H351 0.948 . S
C310 C309 1.391 . S
C310 C311 1.391 . S
C311 C310 1.391 . S
C311 H367 0.947 . S
C311 C368 1.392 . S
C312 C313 1.391 . S
C312 C316 1.397 . S
C312 C368 1.419 . S
C313 C309 1.391 . S
C313 C312 1.391 . S
C313 C314 1.399 . S
C314 C313 1.399 . S
C314 C317 1.396 . S
C314 C326 1.453 . S
C314 C327 1.684 . S
H315 C339 0.948 . S
C316 C312 1.397 . S
C316 C317 1.394 . S
C316 C335 1.723 . S
C317 C314 1.396 . S
C317 C316 1.394 . S
C317 C347 1.723 1_565 S
H318 C341 0.947 . S
H319 C342 0.948 . S
H320 C348 0.982 . S
H321 C349 0.979 . S
H322 C349 0.980 . S
H323 C349 0.983 . S
H324 C348 0.979 . S
H325 C348 0.977 . S
C326 C314 1.453 . S
C326 H355 0.982 1_565 S
C326 H356 0.979 . S
C326 H357 0.977 1_565 S
C327 C314 1.684 . S
C327 H352 0.979 . S
C327 H353 0.980 . S
C327 H354 0.983 . S
C328 C329 1.391 1_565 S
C328 C333 1.391 . S
C328 H358 0.948 . S
C329 C328 1.391 1_545 S
C329 C330 1.391 . S
C330 C329 1.391 . S
C330 C331 1.392 . S
C330 H359 0.947 . S
C331 C330 1.392 . S
C331 C332 1.419 . S
C331 H360 0.948 . S
C332 C331 1.419 . S
C332 C333 1.391 1_545 S
C332 C336 1.397 . S
C333 C328 1.391 . S
C333 C332 1.391 1_565 S
C333 C334 1.399 . S
C334 C333 1.399 . S
C334 C335 1.396 . S
C334 C337 1.453 . S
C334 C338 1.684 . S
C335 C316 1.723 . S
C335 C334 1.396 . S
C335 C336 1.394 1_565 S
C336 C332 1.397 . S
C336 C335 1.394 1_545 S
C336 C346 1.723 . S
C337 C334 1.453 . S
C337 H361 0.982 . S
C337 H362 0.979 . S
C337 H363 0.977 . S
C338 C334 1.684 . S
C338 H364 0.979 . S
C338 H365 0.980 . S
C338 H366 0.983 . S
C339 H315 0.948 . S
C339 C340 1.391 . S
C339 C344 1.391 . S
C340 C339 1.391 . S
C340 C341 1.391 . S
C341 H318 0.947 . S
C341 C340 1.391 . S
C341 C342 1.392 . S
C342 H319 0.948 . S
C342 C341 1.392 . S
C342 C343 1.419 . S
C343 C342 1.419 . S
C343 C344 1.391 . S
C343 C347 1.397 . S
C344 C339 1.391 . S
C344 C343 1.391 . S
C344 C345 1.399 . S
C345 C344 1.399 . S
C345 C346 1.396 . S
C345 C348 1.453 . S
C345 C349 1.684 . S
C346 C336 1.723 . S
C346 C345 1.396 . S
C346 C347 1.394 . S
C347 C317 1.723 1_545 S
C347 C343 1.397 . S
C347 C346 1.394 . S
C348 H320 0.982 . S
C348 H324 0.979 . S
C348 H325 0.977 . S
C348 C345 1.453 . S
C349 H321 0.979 . S
C349 H322 0.980 . S
C349 H323 0.983 . S
C349 C345 1.684 . S
H350 C368 0.948 . S
H351 C309 0.948 . S
H352 C327 0.979 . S
H353 C327 0.980 . S
H354 C327 0.983 . S
H355 C326 0.982 1_545 S
H356 C326 0.979 . S
H357 C326 0.977 1_545 S
H358 C328 0.948 . S
H359 C330 0.947 . S
H360 C331 0.948 . S
H361 C337 0.982 . S
H362 C337 0.979 . S
H363 C337 0.977 . S
H364 C338 0.979 . S
H365 C338 0.980 . S
H366 C338 0.983 . S
H367 C311 0.947 . S
C368 C311 1.392 . S
C368 C312 1.419 . S
C368 H350 0.948 . S
C369 C370 1.391 . S
C369 C373 1.391 . S
C369 H411 0.948 . S
C370 C369 1.391 . S
C370 C371 1.391 . S
C371 C370 1.391 . S
C371 H427 0.947 . S
C371 C428 1.392 . S
C372 C373 1.391 . S
C372 C376 1.397 . S
C372 C428 1.419 . S
C373 C369 1.391 . S
C373 C372 1.391 . S
C373 C374 1.399 . S
C374 C373 1.399 . S
C374 C377 1.396 . S
C374 C386 1.453 . S
C374 C387 1.684 . S
H375 C399 0.948 . S
C376 C372 1.397 . S
C376 C377 1.394 . S
C376 C395 1.723 . S
C377 C374 1.396 . S
C377 C376 1.394 . S
C377 C407 1.723 . S
H378 C401 0.947 . S
H379 C402 0.948 . S
H380 C408 0.982 . S
H381 C409 0.979 . S
H382 C409 0.980 . S
H383 C409 0.983 . S
H384 C408 0.979 . S
H385 C408 0.977 . S
C386 C374 1.453 . S
C386 H415 0.982 . S
C386 H416 0.979 . S
C386 H417 0.977 . S
C387 C374 1.684 . S
C387 H412 0.979 . S
C387 H413 0.980 . S
C387 H414 0.983 . S
C388 C389 1.391 . S
C388 C393 1.391 . S
C388 H418 0.948 . S
C389 C388 1.391 . S
C389 C390 1.391 . S
C390 C389 1.391 . S
C390 C391 1.392 . S
C390 H419 0.947 . S
C391 C390 1.392 . S
C391 C392 1.419 . S
C391 H420 0.948 . S
C392 C391 1.419 . S
C392 C393 1.391 . S
C392 C396 1.397 . S
C393 C388 1.391 . S
C393 C392 1.391 . S
C393 C394 1.399 . S
C394 C393 1.399 . S
C394 C395 1.396 . S
C394 C397 1.453 . S
C394 C398 1.684 . S
C395 C376 1.723 . S
C395 C394 1.396 . S
C395 C396 1.394 . S
C396 C392 1.397 . S
C396 C395 1.394 . S
C396 C406 1.723 . S
C397 C394 1.453 . S
C397 H421 0.982 . S
C397 H422 0.979 . S
C397 H423 0.977 . S
C398 C394 1.684 . S
C398 H424 0.979 . S
C398 H425 0.980 . S
C398 H426 0.983 . S
C399 H375 0.948 . S
C399 C400 1.391 . S
C399 C404 1.391 . S
C400 C399 1.391 . S
C400 C401 1.391 . S
C401 H378 0.947 . S
C401 C400 1.391 . S
C401 C402 1.392 . S
C402 H379 0.948 . S
C402 C401 1.392 . S
C402 C403 1.419 . S
C403 C402 1.419 . S
C403 C404 1.391 . S
C403 C407 1.397 . S
C404 C399 1.391 . S
C404 C403 1.391 . S
C404 C405 1.399 . S
C405 C404 1.399 . S
C405 C406 1.396 . S
C405 C408 1.453 . S
C405 C409 1.684 . S
C406 C396 1.723 . S
C406 C405 1.396 . S
C406 C407 1.394 . S
C407 C377 1.723 . S
C407 C403 1.397 . S
C407 C406 1.394 . S
C408 H380 0.982 . S
C408 H384 0.979 . S
C408 H385 0.977 . S
C408 C405 1.453 . S
C409 H381 0.979 . S
C409 H382 0.980 . S
C409 H383 0.983 . S
C409 C405 1.684 . S
H410 C428 0.948 . S
H411 C369 0.948 . S
H412 C387 0.979 . S
H413 C387 0.980 . S
H414 C387 0.983 . S
H415 C386 0.982 . S
H416 C386 0.979 . S
H417 C386 0.977 . S
H418 C388 0.948 . S
H419 C390 0.947 . S
H420 C391 0.948 . S
H421 C397 0.982 . S
H422 C397 0.979 . S
H423 C397 0.977 . S
H424 C398 0.979 . S
H425 C398 0.980 . S
H426 C398 0.983 . S
H427 C371 0.947 . S
C428 C371 1.392 . S
C428 C372 1.419 . S
C428 H410 0.948 . S
H429 C435 0.930 . S
H430 C438 0.930 . S
H431 C439 0.930 . S
H432 C440 0.930 . S
H433 C443 0.930 . S
H434 C444 0.930 . S
C435 H429 0.930 . S
C435 C436 1.355 . S
C435 C437 1.415 . S
C436 C435 1.355 . S
C436 C438 1.419 . S
C437 C435 1.415 . S
C437 C442 1.425 . S
C437 C444 1.409 . S
C438 H430 0.930 . S
C438 C436 1.419 . S
C438 C439 1.362 . S
C439 H431 0.930 . S
C439 C438 1.362 . S
C439 C442 1.409 . S
C440 H432 0.930 . S
C440 C441 1.355 . S
C440 C442 1.415 . S
C441 C440 1.355 . S
C441 C443 1.419 . S
C442 C437 1.425 . S
C442 C439 1.409 . S
C442 C440 1.415 . S
C443 H433 0.930 . S
C443 C441 1.419 . S
C443 C444 1.362 . S
C444 H434 0.930 . S
C444 C437 1.409 . S
C444 C443 1.362 . S
H445 C451 0.930 . S
H446 C454 0.930 . S
H447 C455 0.930 . S
H448 C456 0.930 . S
H449 C459 0.930 . S
H450 C460 0.930 . S
C451 H445 0.930 . S
C451 C452 1.355 . S
C451 C453 1.415 . S
C452 C451 1.355 . S
C452 C454 1.419 . S
C453 C451 1.415 . S
C453 C458 1.425 . S
C453 C460 1.409 . S
C454 H446 0.930 . S
C454 C452 1.419 . S
C454 C455 1.362 . S
C455 H447 0.930 . S
C455 C454 1.362 . S
C455 C458 1.409 . S
C456 H448 0.930 . S
C456 C457 1.355 . S
C456 C458 1.415 . S
C457 C456 1.355 . S
C457 C459 1.419 . S
C458 C453 1.425 . S
C458 C455 1.409 . S
C458 C456 1.415 . S
C459 H449 0.930 . S
C459 C457 1.419 . S
C459 C460 1.362 . S
C460 H450 0.930 . S
C460 C453 1.409 . S
C460 C459 1.362 . S
H461 C467 0.930 . S
H462 C470 0.930 . S
H463 C471 0.930 . S
H464 C472 0.930 . S
H465 C475 0.930 . S
H466 C476 0.930 . S
C467 H461 0.930 . S
C467 C468 1.355 . S
C467 C469 1.415 . S
C468 C467 1.355 . S
C468 C470 1.419 . S
C469 C467 1.415 . S
C469 C474 1.425 . S
C469 C476 1.409 . S
C470 H462 0.930 . S
C470 C468 1.419 . S
C470 C471 1.362 . S
C471 H463 0.930 . S
C471 C470 1.362 . S
C471 C474 1.409 . S
C472 H464 0.930 . S
C472 C473 1.355 . S
C472 C474 1.415 . S
C473 C472 1.355 . S
C473 C475 1.419 . S
C474 C469 1.425 . S
C474 C471 1.409 . S
C474 C472 1.415 . S
C475 H465 0.930 . S
C475 C473 1.419 . S
C475 C476 1.362 . S
C476 H466 0.930 . S
C476 C469 1.409 . S
C476 C475 1.362 . S
H477 C483 0.930 . S
H478 C486 0.930 . S
H479 C487 0.930 . S
H480 C488 0.930 . S
H481 C491 0.930 . S
H482 C492 0.930 . S
C483 H477 0.930 . S
C483 C484 1.355 . S
C483 C485 1.415 . S
C484 C483 1.355 . S
C484 C486 1.419 . S
C485 C483 1.415 . S
C485 C490 1.425 . S
C485 C492 1.409 . S
C486 H478 0.930 . S
C486 C484 1.419 . S
C486 C487 1.362 . S
C487 H479 0.930 . S
C487 C486 1.362 . S
C487 C490 1.409 . S
C488 H480 0.930 . S
C488 C489 1.355 . S
C488 C490 1.415 . S
C489 C488 1.355 . S
C489 C491 1.419 . S
C490 C485 1.425 . S
C490 C487 1.409 . S
C490 C488 1.415 . S
C491 H481 0.930 . S
C491 C489 1.419 . S
C491 C492 1.362 . S
C492 H482 0.930 . S
C492 C485 1.409 . S
C492 C491 1.362 . S
H493 C499 0.930 . S
H494 C502 0.930 . S
H495 C503 0.930 . S
H496 C504 0.930 . S
H497 C507 0.930 . S
H498 C508 0.930 . S
C499 H493 0.930 . S
C499 C500 1.355 . S
C499 C501 1.415 . S
C500 C499 1.355 . S
C500 C502 1.419 . S
C501 C499 1.415 . S
C501 C506 1.425 . S
C501 C508 1.409 . S
C502 H494 0.930 . S
C502 C500 1.419 . S
C502 C503 1.362 . S
C503 H495 0.930 . S
C503 C502 1.362 . S
C503 C506 1.409 . S
C504 H496 0.930 . S
C504 C505 1.355 . S
C504 C506 1.415 . S
C505 C504 1.355 . S
C505 C507 1.419 . S
C506 C501 1.425 . S
C506 C503 1.409 . S
C506 C504 1.415 . S
C507 H497 0.930 . S
C507 C505 1.419 . S
C507 C508 1.362 . S
C508 H498 0.930 . S
C508 C501 1.409 . S
C508 C507 1.362 . S
H509 C515 0.930 . S
H510 C518 0.930 . S
H511 C519 0.930 . S
H512 C520 0.930 . S
H513 C523 0.930 . S
H514 C524 0.930 . S
C515 H509 0.930 . S
C515 C516 1.355 . S
C515 C517 1.415 . S
C516 C515 1.355 . S
C516 C518 1.419 . S
C517 C515 1.415 . S
C517 C522 1.425 . S
C517 C524 1.409 . S
C518 H510 0.930 . S
C518 C516 1.419 . S
C518 C519 1.362 . S
C519 H511 0.930 . S
C519 C518 1.362 . S
C519 C522 1.409 . S
C520 H512 0.930 . S
C520 C521 1.355 . S
C520 C522 1.415 . S
C521 C520 1.355 . S
C521 C523 1.419 . S
C522 C517 1.425 . S
C522 C519 1.409 . S
C522 C520 1.415 . S
C523 H513 0.930 . S
C523 C521 1.419 . S
C523 C524 1.362 . S
C524 H514 0.930 . S
C524 C517 1.409 . S
C524 C523 1.362 . S
H525 C531 0.930 . S
H526 C534 0.930 . S
H527 C535 0.930 . S
H528 C536 0.930 . S
H529 C539 0.930 . S
H530 C540 0.930 . S
C531 H525 0.930 . S
C531 C532 1.355 . S
C531 C533 1.415 . S
C532 C531 1.355 . S
C532 C534 1.419 . S
C533 C531 1.415 . S
C533 C538 1.425 . S
C533 C540 1.409 . S
C534 H526 0.930 . S
C534 C532 1.419 . S
C534 C535 1.362 . S
C535 H527 0.930 . S
C535 C534 1.362 . S
C535 C538 1.409 . S
C536 H528 0.930 . S
C536 C537 1.355 . S
C536 C538 1.415 . S
C537 C536 1.355 . S
C537 C539 1.419 . S
C538 C533 1.425 . S
C538 C535 1.409 . S
C538 C536 1.415 . S
C539 H529 0.930 . S
C539 C537 1.419 . S
C539 C540 1.362 . S
C540 H530 0.930 . S
C540 C533 1.409 . S
C540 C539 1.362 . S
H541 C547 0.930 . S
H542 C550 0.930 . S
H543 C551 0.930 . S
H544 C552 0.930 . S
H545 C555 0.930 . S
H546 C556 0.930 . S
C547 H541 0.930 . S
C547 C548 1.355 . S
C547 C549 1.415 . S
C548 C547 1.355 . S
C548 C550 1.419 . S
C549 C547 1.415 . S
C549 C554 1.425 . S
C549 C556 1.409 . S
C550 H542 0.930 . S
C550 C548 1.419 . S
C550 C551 1.362 . S
C551 H543 0.930 . S
C551 C550 1.362 . S
C551 C554 1.409 . S
C552 H544 0.930 . S
C552 C553 1.355 . S
C552 C554 1.415 . S
C553 C552 1.355 . S
C553 C555 1.419 . S
C554 C549 1.425 . S
C554 C551 1.409 . S
C554 C552 1.415 . S
C555 H545 0.930 . S
C555 C553 1.419 . S
C555 C556 1.362 . S
C556 H546 0.930 . S
C556 C549 1.409 . S
C556 C555 1.362 . S
H557 C563 0.930 . S
H558 C566 0.930 . S
H559 C567 0.930 . S
H560 C568 0.930 . S
H561 C571 0.930 . S
H562 C572 0.930 . S
C563 H557 0.930 . S
C563 C564 1.355 . S
C563 C565 1.415 . S
C564 C563 1.355 . S
C564 C566 1.419 . S
C565 C563 1.415 . S
C565 C570 1.425 . S
C565 C572 1.409 . S
C566 H558 0.930 . S
C566 C564 1.419 . S
C566 C567 1.362 . S
C567 H559 0.930 . S
C567 C566 1.362 . S
C567 C570 1.409 . S
C568 H560 0.930 . S
C568 C569 1.355 . S
C568 C570 1.415 . S
C569 C568 1.355 . S
C569 C571 1.419 . S
C570 C565 1.425 . S
C570 C567 1.409 . S
C570 C568 1.415 . S
C571 H561 0.930 . S
C571 C569 1.419 . S
C571 C572 1.362 . S
C572 H562 0.930 . S
C572 C565 1.409 . S
C572 C571 1.362 . S
H573 C579 0.930 . S
H574 C582 0.930 . S
H575 C583 0.930 . S
H576 C584 0.930 . S
H577 C587 0.930 . S
H578 C588 0.930 . S
C579 H573 0.930 . S
C579 C580 1.355 . S
C579 C581 1.415 . S
C580 C579 1.355 . S
C580 C582 1.419 . S
C581 C579 1.415 . S
C581 C586 1.425 . S
C581 C588 1.409 . S
C582 H574 0.930 . S
C582 C580 1.419 . S
C582 C583 1.362 . S
C583 H575 0.930 . S
C583 C582 1.362 . S
C583 C586 1.409 . S
C584 H576 0.930 . S
C584 C585 1.355 . S
C584 C586 1.415 . S
C585 C584 1.355 . S
C585 C587 1.419 . S
C586 C581 1.425 . S
C586 C583 1.409 . S
C586 C584 1.415 . S
C587 H577 0.930 . S
C587 C585 1.419 . S
C587 C588 1.362 . S
C588 H578 0.930 . S
C588 C581 1.409 . S
C588 C587 1.362 . S
H589 C595 0.930 . S
H590 C598 0.930 . S
H591 C599 0.930 . S
H592 C600 0.930 . S
H593 C603 0.930 . S
H594 C604 0.930 . S
C595 H589 0.930 . S
C595 C596 1.355 . S
C595 C597 1.415 . S
C596 C595 1.355 . S
C596 C598 1.419 . S
C597 C595 1.415 . S
C597 C602 1.425 . S
C597 C604 1.409 . S
C598 H590 0.930 . S
C598 C596 1.419 . S
C598 C599 1.362 . S
C599 H591 0.930 . S
C599 C598 1.362 . S
C599 C602 1.409 . S
C600 H592 0.930 . S
C600 C601 1.355 . S
C600 C602 1.415 . S
C601 C600 1.355 . S
C601 C603 1.419 . S
C602 C597 1.425 . S
C602 C599 1.409 . S
C602 C600 1.415 . S
C603 H593 0.930 . S
C603 C601 1.419 . S
C603 C604 1.362 . S
C604 H594 0.930 . S
C604 C597 1.409 . S
C604 C603 1.362 . S
H605 C611 0.930 . S
H606 C614 0.930 . S
H607 C615 0.930 . S
H608 C616 0.930 . S
H609 C619 0.930 . S
H610 C620 0.930 . S
C611 H605 0.930 . S
C611 C612 1.355 . S
C611 C613 1.415 . S
C612 C611 1.355 . S
C612 C614 1.419 . S
C613 C611 1.415 . S
C613 C618 1.425 . S
C613 C620 1.409 . S
C614 H606 0.930 . S
C614 C612 1.419 . S
C614 C615 1.362 . S
C615 H607 0.930 . S
C615 C614 1.362 . S
C615 C618 1.409 . S
C616 H608 0.930 . S
C616 C617 1.355 . S
C616 C618 1.415 . S
C617 C616 1.355 . S
C617 C619 1.419 . S
C618 C613 1.425 . S
C618 C615 1.409 . S
C618 C616 1.415 . S
C619 H609 0.930 . S
C619 C617 1.419 . S
C619 C620 1.362 . S
C620 H610 0.930 . S
C620 C613 1.409 . S
C620 C619 1.362 . S
H621 C627 0.930 . S
H622 C630 0.930 . S
H623 C631 0.930 . S
H624 C632 0.930 . S
H625 C635 0.930 . S
H626 C636 0.930 . S
C627 H621 0.930 . S
C627 C628 1.355 1_655 S
C627 C629 1.415 . S
C628 C627 1.355 1_455 S
C628 C630 1.419 . S
C629 C627 1.415 . S
C629 C634 1.425 1_655 S
C629 C636 1.409 . S
C630 H622 0.930 . S
C630 C628 1.419 . S
C630 C631 1.362 . S
C631 H623 0.930 . S
C631 C630 1.362 . S
C631 C634 1.409 . S
C632 H624 0.930 . S
C632 C633 1.355 . S
C632 C634 1.415 . S
C633 C632 1.355 . S
C633 C635 1.419 1_455 S
C634 C629 1.425 1_455 S
C634 C631 1.409 . S
C634 C632 1.415 . S
C635 H625 0.930 . S
C635 C633 1.419 1_655 S
C635 C636 1.362 . S
C636 H626 0.930 . S
C636 C629 1.409 . S
C636 C635 1.362 . S
H637 C643 0.930 . S
H638 C646 0.930 . S
H639 C647 0.930 . S
H640 C648 0.930 . S
H641 C651 0.930 . S
H642 C652 0.930 . S
C643 H637 0.930 . S
C643 C644 1.355 . S
C643 C645 1.415 . S
C644 C643 1.355 . S
C644 C646 1.419 1_545 S
C645 C643 1.415 . S
C645 C650 1.425 1_545 S
C645 C652 1.409 . S
C646 H638 0.930 . S
C646 C644 1.419 1_565 S
C646 C647 1.362 . S
C647 H639 0.930 . S
C647 C646 1.362 . S
C647 C650 1.409 . S
C648 H640 0.930 . S
C648 C649 1.355 1_565 S
C648 C650 1.415 . S
C649 C648 1.355 1_545 S
C649 C651 1.419 . S
C650 C645 1.425 1_565 S
C650 C647 1.409 . S
C650 C648 1.415 . S
C651 H641 0.930 . S
C651 C649 1.419 . S
C651 C652 1.362 . S
C652 H642 0.930 . S
C652 C645 1.409 . S
C652 C651 1.362 . S
H653 C659 0.930 . S
H654 C662 0.930 . S
H655 C663 0.930 . S
H656 C664 0.930 . S
H657 C667 0.930 . S
H658 C668 0.930 . S
C659 H653 0.930 . S
C659 C660 1.355 . S
C659 C661 1.415 . S
C660 C659 1.355 . S
C660 C662 1.419 . S
C661 C659 1.415 . S
C661 C666 1.425 . S
C661 C668 1.409 . S
C662 H654 0.930 . S
C662 C660 1.419 . S
C662 C663 1.362 . S
C663 H655 0.930 . S
C663 C662 1.362 . S
C663 C666 1.409 . S
C664 H656 0.930 . S
C664 C665 1.355 . S
C664 C666 1.415 . S
C665 C664 1.355 . S
C665 C667 1.419 . S
C666 C661 1.425 . S
C666 C663 1.409 . S
C666 C664 1.415 . S
C667 H657 0.930 . S
C667 C665 1.419 . S
C667 C668 1.362 . S
C668 H658 0.930 . S
C668 C661 1.409 . S
C668 C667 1.362 . S
H669 C675 0.930 . S
H670 C678 0.930 . S
H671 C679 0.930 . S
H672 C680 0.930 . S
H673 C683 0.930 . S
H674 C684 0.930 . S
C675 H669 0.930 . S
C675 C676 1.355 1_565 S
C675 C677 1.415 . S
C676 C675 1.355 1_545 S
C676 C678 1.419 . S
C677 C675 1.415 . S
C677 C682 1.425 1_565 S
C677 C684 1.409 . S
C678 H670 0.930 . S
C678 C676 1.419 . S
C678 C679 1.362 . S
C679 H671 0.930 . S
C679 C678 1.362 . S
C679 C682 1.409 . S
C680 H672 0.930 . S
C680 C681 1.355 1_545 S
C680 C682 1.415 . S
C681 C680 1.355 1_565 S
C681 C683 1.419 . S
C682 C677 1.425 1_545 S
C682 C679 1.409 . S
C682 C680 1.415 . S
C683 H673 0.930 . S
C683 C681 1.419 . S
C683 C684 1.362 . S
C684 H674 0.930 . S
C684 C677 1.409 . S
C684 C683 1.362 . S
H685 C691 0.930 . S
H686 C694 0.930 . S
H687 C695 0.930 . S
H688 C696 0.930 . S
H689 C699 0.930 . S
H690 C700 0.930 . S
C691 H685 0.930 . S
C691 C692 1.355 . S
C691 C693 1.415 . S
C692 C691 1.355 . S
C692 C694 1.419 . S
C693 C691 1.415 . S
C693 C698 1.425 . S
C693 C700 1.409 . S
C694 H686 0.930 . S
C694 C692 1.419 . S
C694 C695 1.362 . S
C695 H687 0.930 . S
C695 C694 1.362 . S
C695 C698 1.409 . S
C696 H688 0.930 . S
C696 C697 1.355 . S
C696 C698 1.415 . S
C697 C696 1.355 . S
C697 C699 1.419 . S
C698 C693 1.425 . S
C698 C695 1.409 . S
C698 C696 1.415 . S
C699 H689 0.930 . S
C699 C697 1.419 . S
C699 C700 1.362 . S
C700 H690 0.930 . S
C700 C693 1.409 . S
C700 C699 1.362 . S
H701 C707 0.930 . S
H702 C710 0.930 . S
H703 C711 0.930 . S
H704 C712 0.930 . S
H705 C715 0.930 . S
H706 C716 0.930 . S
C707 H701 0.930 . S
C707 C708 1.355 1_655 S
C707 C709 1.415 . S
C708 C707 1.355 1_455 S
C708 C710 1.419 . S
C709 C707 1.415 . S
C709 C714 1.425 1_655 S
C709 C716 1.409 . S
C710 H702 0.930 . S
C710 C708 1.419 . S
C710 C711 1.362 . S
C711 H703 0.930 . S
C711 C710 1.362 . S
C711 C714 1.409 . S
C712 H704 0.930 . S
C712 C713 1.355 . S
C712 C714 1.415 . S
C713 C712 1.355 . S
C713 C715 1.419 1_455 S
C714 C709 1.425 1_455 S
C714 C711 1.409 . S
C714 C712 1.415 . S
C715 H705 0.930 . S
C715 C713 1.419 1_655 S
C715 C716 1.362 . S
C716 H706 0.930 . S
C716 C709 1.409 . S
C716 C715 1.362 . S
C436 C20 1.182 . S
C441 C400 1.226 . S
C452 C41 1.278 . S
C457 C250 1.228 . S
C468 C64 1.303 . S
C473 C310 1.255 . S
C484 C19 1.289 . S
C489 C370 1.318 . S
C505 C280 1.249 . S
C500 C44 1.253 . S
C521 C340 1.256 . S
C516 C67 1.239 . S
C532 C43 1.191 . S
C537 C130 1.164 . S
C548 C66 1.242 . S
C553 C220 1.268 . S
C564 C21 1.253 . S
C569 C100 1.247 . S
C585 C160 1.318 . S
C580 C42 1.291 . S
C601 C190 1.317 . S
C596 C65 1.271 . S
C612 C18 1.303 . S
C617 C70 1.255 . S
C633 C209 1.416 1_554 S
C628 C17 1.457 . S
C644 C39 1.458 . S
C649 C89 1.428 . S
C660 C62 1.470 . S
C665 C149 1.471 . S
C681 C329 1.444 1_565 S
C676 C40 1.446 . S
C697 C389 1.441 1_556 S
C692 C63 1.460 . S
C708 C16 1.451 . S
C713 C269 1.453 . S
