# Generated by pormake.
# Topology dag, (6,3)-cn, num edge types: 1
# Building blocks:
#     Node 0, Type 0, BuildingBlock: OJICUG_clean_sbu_0, # of connection points: 6
#     Node 1, Type 0, BuildingBlock: OJICUG_clean_sbu_0, # of connection points: 6
#     Node 2, Type 0, BuildingBlock: OJICUG_clean_sbu_0, # of connection points: 6
#     Node 3, Type 0, BuildingBlock: OJICUG_clean_sbu_0, # of connection points: 6
#     Node 4, Type 1, BuildingBlock: BELTOD_clean_linker_0, # of connection points: 3
#     Node 5, Type 1, BuildingBlock: BELTOD_clean_linker_0, # of connection points: 3
#     Node 6, Type 1, BuildingBlock: BELTOD_clean_linker_0, # of connection points: 3
#     Node 7, Type 1, BuildingBlock: BELTOD_clean_linker_0, # of connection points: 3
#     Node 8, Type 1, BuildingBlock: BELTOD_clean_linker_0, # of connection points: 3
#     Node 9, Type 1, BuildingBlock: BELTOD_clean_linker_0, # of connection points: 3
#     Node 10, Type 1, BuildingBlock: BELTOD_clean_linker_0, # of connection points: 3
#     Node 11, Type 1, BuildingBlock: BELTOD_clean_linker_0, # of connection points: 3
#     Edge 12, Type (0, 1), BuildingBlock: XIVTED_clean_linker_0, # of connection points: 2
#     Edge 13, Type (0, 1), BuildingBlock: XIVTED_clean_linker_0, # of connection points: 2
#     Edge 14, Type (0, 1), BuildingBlock: XIVTED_clean_linker_0, # of connection points: 2
#     Edge 15, Type (0, 1), BuildingBlock: XIVTED_clean_linker_0, # of connection points: 2
#     Edge 16, Type (0, 1), BuildingBlock: XIVTED_clean_linker_0, # of connection points: 2
#     Edge 17, Type (0, 1), BuildingBlock: XIVTED_clean_linker_0, # of connection points: 2
#     Edge 18, Type (0, 1), BuildingBlock: XIVTED_clean_linker_0, # of connection points: 2
#     Edge 19, Type (0, 1), BuildingBlock: XIVTED_clean_linker_0, # of connection points: 2
#     Edge 20, Type (0, 1), BuildingBlock: XIVTED_clean_linker_0, # of connection points: 2
#     Edge 21, Type (0, 1), BuildingBlock: XIVTED_clean_linker_0, # of connection points: 2
#     Edge 22, Type (0, 1), BuildingBlock: XIVTED_clean_linker_0, # of connection points: 2
#     Edge 23, Type (0, 1), BuildingBlock: XIVTED_clean_linker_0, # of connection points: 2
#     Edge 24, Type (0, 1), BuildingBlock: XIVTED_clean_linker_0, # of connection points: 2
#     Edge 25, Type (0, 1), BuildingBlock: XIVTED_clean_linker_0, # of connection points: 2
#     Edge 26, Type (0, 1), BuildingBlock: XIVTED_clean_linker_0, # of connection points: 2
#     Edge 27, Type (0, 1), BuildingBlock: XIVTED_clean_linker_0, # of connection points: 2
#     Edge 28, Type (0, 1), BuildingBlock: XIVTED_clean_linker_0, # of connection points: 2
#     Edge 29, Type (0, 1), BuildingBlock: XIVTED_clean_linker_0, # of connection points: 2
#     Edge 30, Type (0, 1), BuildingBlock: XIVTED_clean_linker_0, # of connection points: 2
#     Edge 31, Type (0, 1), BuildingBlock: XIVTED_clean_linker_0, # of connection points: 2
#     Edge 32, Type (0, 1), BuildingBlock: XIVTED_clean_linker_0, # of connection points: 2
#     Edge 33, Type (0, 1), BuildingBlock: XIVTED_clean_linker_0, # of connection points: 2
#     Edge 34, Type (0, 1), BuildingBlock: XIVTED_clean_linker_0, # of connection points: 2
#     Edge 35, Type (0, 1), BuildingBlock: XIVTED_clean_linker_0, # of connection points: 2
# Relax obj value: 0.238
# Max RMSD: 0.192
# Mean RMSD: 0.159
data_MOF--net-dag--node1-OJICUG_clean_sbu_0--node2-BELTOD_clean_linker_0--edge1-XIVTED_clean_linker_0
_symmetry_space_group_name_H-M    P1
_symmetry_Int_Tables_number       1
_symmetry_cell_setting            triclinic
loop_
_symmetry_equiv_pos_as_xyz
'x, y, z'
_cell_length_a     40.313317
_cell_length_b     43.199402
_cell_length_c     41.956792
_cell_angle_alpha  94.97702
_cell_angle_beta   90.229708
_cell_angle_gamma 90.232982
loop_
_atom_site_label
_atom_site_type_symbol
_atom_site_fract_x
_atom_site_fract_y
_atom_site_fract_z
_atom_type_partial_charge
Sc0 Sc 0.12848 0.88357 0.03866 0.0
Sc1 Sc 0.13282 0.80276 0.04298 0.0
Sc2 Sc 0.19184 0.85273 0.08358 0.0
O3 O 0.15114 0.84625 0.05497 0.0
C4 C 0.20348 0.90277 0.03241 0.0
C5 C 0.12099 0.8338 0.97795 0.0
C6 C 0.21156 0.79403 0.03618 0.0
C7 C 0.06771 0.84273 0.05973 0.0
C8 C 0.1472 0.90867 0.11065 0.0
C9 C 0.15483 0.7974 0.11515 0.0
O10 O 0.17402 0.90148 0.02152 0.0
O11 O 0.12597 0.81026 0.9934 0.0
O12 O 0.21912 0.8183 0.05423 0.0
O13 O 0.08133 0.86861 0.05531 0.0
O14 O 0.16756 0.88717 0.11543 0.0
O15 O 0.13699 0.78929 0.09087 0.0
O16 O 0.13348 0.91132 0.0837 0.0
O17 O 0.0824 0.81671 0.0547 0.0
O18 O 0.17625 0.81905 0.11544 0.0
O19 O 0.12035 0.86129 0.99134 0.0
O20 O 0.21282 0.88813 0.05591 0.0
O21 O 0.1817 0.78517 0.03069 0.0
Sc22 Sc 0.66834 0.64513 0.4576 0.0
Sc23 Sc 0.60573 0.69076 0.49774 0.0
Sc24 Sc 0.61008 0.61036 0.50532 0.0
O25 O 0.62813 0.64885 0.48694 0.0
C26 C 0.62641 0.58512 0.43323 0.0
C27 C 0.62437 0.69468 0.42433 0.0
C28 C 0.54371 0.64514 0.4868 0.0
C29 C 0.68304 0.70779 0.50183 0.0
C30 C 0.68778 0.59827 0.50927 0.0
C31 C 0.60241 0.66065 0.56481 0.0
O32 O 0.64761 0.60611 0.42855 0.0
O33 O 0.60774 0.70354 0.44911 0.0
O34 O 0.55978 0.62142 0.49388 0.0
O35 O 0.69239 0.68426 0.48373 0.0
O36 O 0.65825 0.59496 0.51879 0.0
O37 O 0.60059 0.68388 0.54818 0.0
O38 O 0.6953 0.61498 0.48688 0.0
O39 O 0.65276 0.71307 0.50894 0.0
O40 O 0.60642 0.63306 0.5525 0.0
O41 O 0.64674 0.67411 0.42425 0.0
O42 O 0.61179 0.58352 0.45982 0.0
O43 O 0.55685 0.67198 0.48681 0.0
Sc44 Sc 0.87889 0.23494 0.00212 0.0
Sc45 Sc 0.82925 0.1713 0.97199 0.0
Sc46 Sc 0.90545 0.15832 0.00858 0.0
O47 O 0.87115 0.18826 0.9942 0.0
C48 C 0.95112 0.20905 0.98127 0.0
C49 C 0.84887 0.22809 0.93145 0.0
C50 C 0.88098 0.12201 0.94288 0.0
C51 C 0.80093 0.22906 0.01544 0.0
C52 C 0.90762 0.21241 0.06599 0.0
C53 C 0.83829 0.1272 0.02887 0.0
O54 O 0.93106 0.23121 0.98892 0.0
O55 O 0.83288 0.20338 0.93583 0.0
O56 O 0.90019 0.12576 0.96697 0.0
O57 O 0.82809 0.24428 0.01688 0.0
O58 O 0.91624 0.18633 0.05229 0.0
O59 O 0.82152 0.1374 0.00625 0.0
O60 O 0.89086 0.23217 0.05207 0.0
O61 O 0.79817 0.20216 0.00094 0.0
O62 O 0.86873 0.13399 0.03397 0.0
O63 O 0.86752 0.24199 0.95278 0.0
O64 O 0.94423 0.18071 0.98434 0.0
O65 O 0.85517 0.13827 0.94011 0.0
Sc66 Sc 0.38959 0.36004 0.5489 0.0
Sc67 Sc 0.32267 0.33034 0.59049 0.0
Sc68 Sc 0.37851 0.27896 0.54803 0.0
O69 O 0.36361 0.32307 0.56251 0.0
C70 C 0.38971 0.31394 0.48491 0.0
C71 C 0.31542 0.38456 0.54408 0.0
C72 C 0.29932 0.27406 0.54143 0.0
C73 C 0.37264 0.38215 0.62156 0.0
C74 C 0.448 0.31303 0.56261 0.0
C75 C 0.3559 0.27207 0.61975 0.0
O76 O 0.3919 0.34074 0.49994 0.0
O77 O 0.30339 0.36627 0.56317 0.0
O78 O 0.32853 0.26435 0.53509 0.0
O79 O 0.38957 0.38329 0.5962 0.0
O80 O 0.43019 0.28862 0.55868 0.0
O81 O 0.33619 0.29496 0.6207 0.0
O82 O 0.43657 0.34009 0.56011 0.0
O83 O 0.34802 0.36386 0.62357 0.0
O84 O 0.37385 0.26375 0.59569 0.0
O85 O 0.34588 0.38475 0.5365 0.0
O86 O 0.38507 0.28931 0.4989 0.0
O87 O 0.29337 0.29773 0.56067 0.0
P88 P 0.0176 0.133 0.35966 0.0
H89 H 0.04587 0.07159 0.36635 0.0
H90 H 0.07068 0.03263 0.32782 0.0
H91 H 0.04333 0.08807 0.25087 0.0
H92 H 0.02079 0.1272 0.28912 0.0
H93 H 0.02186 0.17822 0.41527 0.0
H94 H 0.06866 0.20187 0.4458 0.0
H95 H 0.13637 0.1462 0.38532 0.0
H96 H 0.08998 0.12449 0.354 0.0
H97 H 0.95151 0.13727 0.33229 0.0
H98 H 0.04131 0.19205 0.33825 0.0
O99 O 0.99037 0.11845 0.38427 0.0
H100 H 0.93053 0.16796 0.2905 0.0
H101 H 0.02007 0.22357 0.29734 0.0
C102 C 0.03139 0.10235 0.33081 0.0
C103 C 0.04505 0.07511 0.34111 0.0
C104 C 0.05916 0.05283 0.31902 0.0
C105 C 0.05949 0.05733 0.28617 0.0
C106 C 0.04449 0.08413 0.27599 0.0
C107 C 0.03101 0.10652 0.29804 0.0
C108 C 0.05228 0.14922 0.38272 0.0
C109 C 0.04685 0.17116 0.40872 0.0
C110 C 0.07367 0.1845 0.42626 0.0
C111 C 0.10646 0.17592 0.41819 0.0
C112 C 0.11162 0.15381 0.39204 0.0
C113 C 0.08487 0.14092 0.37429 0.0
C114 C 0.99783 0.16247 0.33853 0.0
C115 C 0.96604 0.15685 0.32567 0.0
C116 C 0.95405 0.17449 0.30174 0.0
C117 C 0.97381 0.19801 0.29023 0.0
C118 C 0.00445 0.20531 0.30529 0.0
C119 C 0.0165 0.18748 0.329 0.0
P120 P 0.47875 0.61479 0.87286 0.0
H121 H 0.54944 0.62009 0.85848 0.0
H122 H 0.5785 0.63991 0.81351 0.0
H123 H 0.48545 0.67303 0.77805 0.0
H124 H 0.45697 0.65438 0.82384 0.0
H125 H 0.41883 0.59761 0.90548 0.0
H126 H 0.3754 0.62785 0.93385 0.0
H127 H 0.42646 0.71268 0.91561 0.0
H128 H 0.47024 0.68212 0.8878 0.0
H129 H 0.49668 0.54899 0.86074 0.0
H130 H 0.41991 0.61027 0.83224 0.0
O131 O 0.5048 0.60189 0.89969 0.0
H132 H 0.47472 0.50728 0.82294 0.0
H133 H 0.3983 0.56898 0.79423 0.0
C134 C 0.50108 0.63589 0.84458 0.0
C135 C 0.53548 0.63248 0.84157 0.0
C136 C 0.55202 0.64356 0.81561 0.0
C137 C 0.5343 0.65773 0.79183 0.0
C138 C 0.50003 0.66259 0.79597 0.0
C139 C 0.48361 0.65174 0.82211 0.0
C140 C 0.44722 0.63766 0.8938 0.0
C141 C 0.42057 0.62273 0.90744 0.0
C142 C 0.3957 0.64005 0.92356 0.0
C143 C 0.39723 0.6727 0.92665 0.0
C144 C 0.42458 0.68757 0.91372 0.0
C145 C 0.44947 0.67015 0.89756 0.0
C146 C 0.45972 0.5826 0.84947 0.0
C147 C 0.47473 0.55327 0.84687 0.0
C148 C 0.46217 0.52948 0.82533 0.0
C149 C 0.4349 0.53501 0.80567 0.0
C150 C 0.41946 0.56419 0.809 0.0
C151 C 0.43174 0.58774 0.83075 0.0
P152 P 0.75584 0.89198 0.22815 0.0
H153 H 0.73988 0.95731 0.24516 0.0
H154 H 0.73815 0.00138 0.2126 0.0
H155 H 0.7432 0.93836 0.12695 0.0
H156 H 0.74398 0.89433 0.15974 0.0
H157 H 0.76077 0.82686 0.23982 0.0
H158 H 0.72032 0.79026 0.25726 0.0
H159 H 0.64223 0.85682 0.24646 0.0
H160 H 0.68324 0.89351 0.2284 0.0
H161 H 0.823 0.91528 0.233 0.0
H162 H 0.77146 0.83899 0.18122 0.0
O163 O 0.76477 0.90697 0.26521 0.0
H164 H 0.8738 0.90078 0.20489 0.0
H165 H 0.82299 0.82271 0.15431 0.0
C166 C 0.74271 0.92265 0.20481 0.0
C167 C 0.7395 0.95289 0.21937 0.0
C168 C 0.73871 0.9781 0.20072 0.0
C169 C 0.74138 0.97339 0.16724 0.0
C170 C 0.74109 0.94281 0.15266 0.0
C171 C 0.74167 0.91758 0.17138 0.0
C172 C 0.72491 0.86255 0.23186 0.0
C173 C 0.73479 0.83311 0.23968 0.0
C174 C 0.71153 0.81216 0.24975 0.0
C175 C 0.67798 0.82056 0.25306 0.0
C176 C 0.66788 0.84968 0.24403 0.0
C177 C 0.69124 0.87055 0.23353 0.0
C178 C 0.79379 0.87756 0.21011 0.0
C179 C 0.82295 0.8947 0.21629 0.0
C180 C 0.85213 0.8862 0.2002 0.0
C181 C 0.85292 0.86011 0.17761 0.0
C182 C 0.82345 0.84294 0.17144 0.0
C183 C 0.79402 0.8519 0.18722 0.0
P184 P 0.8058 0.32001 0.60756 0.0
H185 H 0.84809 0.3584 0.56948 0.0
H186 H 0.84543 0.41328 0.5591 0.0
H187 H 0.76336 0.42605 0.62497 0.0
H188 H 0.76696 0.37194 0.63582 0.0
H189 H 0.82091 0.26102 0.63195 0.0
H190 H 0.83312 0.24617 0.68561 0.0
H191 H 0.83386 0.343 0.72158 0.0
H192 H 0.82259 0.35767 0.66778 0.0
H193 H 0.7638 0.30179 0.55202 0.0
H194 H 0.75282 0.31538 0.65449 0.0
O195 O 0.82775 0.30063 0.57873 0.0
H196 H 0.70369 0.29427 0.54618 0.0
H197 H 0.69301 0.30798 0.64881 0.0
C198 C 0.80741 0.36103 0.60308 0.0
C199 C 0.82992 0.37322 0.58202 0.0
C200 C 0.82827 0.40456 0.57602 0.0
C201 C 0.80408 0.42413 0.59106 0.0
C202 C 0.78266 0.41194 0.61327 0.0
C203 C 0.7844 0.38077 0.61925 0.0
C204 C 0.82094 0.31038 0.64582 0.0
C205 C 0.82447 0.27906 0.65127 0.0
C206 C 0.83112 0.27062 0.682 0.0
C207 C 0.83409 0.29341 0.70792 0.0
C208 C 0.83196 0.32491 0.7021 0.0
C209 C 0.82534 0.33332 0.67128 0.0
C210 C 0.76285 0.30864 0.60368 0.0
C211 C 0.74859 0.30236 0.57327 0.0
C212 C 0.71427 0.29808 0.56997 0.0
C213 C 0.6937 0.30062 0.59705 0.0
C214 C 0.70824 0.30607 0.62752 0.0
C215 C 0.7425 0.31004 0.63079 0.0
P216 P 0.50619 0.3585 0.17918 0.0
H217 H 0.5213 0.425 0.17628 0.0
H218 H 0.54166 0.46524 0.21678 0.0
H219 H 0.54849 0.3965 0.28537 0.0
H220 H 0.52835 0.35705 0.24556 0.0
H221 H 0.51619 0.33064 0.11401 0.0
H222 H 0.5646 0.30727 0.08663 0.0
H223 H 0.61921 0.31567 0.17582 0.0
H224 H 0.57096 0.33914 0.2029 0.0
H225 H 0.43598 0.3644 0.1933 0.0
H226 H 0.51563 0.30299 0.21424 0.0
O227 O 0.48475 0.37537 0.15134 0.0
H228 H 0.4036 0.34614 0.2368 0.0
H229 H 0.48434 0.28602 0.25921 0.0
C230 C 0.52235 0.38813 0.20806 0.0
C231 C 0.5271 0.41871 0.20009 0.0
C232 C 0.5389 0.4416 0.22314 0.0
C233 C 0.54608 0.43407 0.25437 0.0
C234 C 0.54233 0.4032 0.26177 0.0
C235 C 0.5307 0.38052 0.23888 0.0
C236 C 0.54013 0.33719 0.16035 0.0
C237 C 0.53848 0.32719 0.12771 0.0
C238 C 0.56615 0.31374 0.11212 0.0
C239 C 0.59589 0.31004 0.129 0.0
C240 C 0.5969 0.31884 0.16203 0.0
C241 C 0.5692 0.33215 0.17759 0.0
C242 C 0.47831 0.33523 0.20066 0.0
C243 C 0.44607 0.34614 0.20655 0.0
C244 C 0.42775 0.336 0.23184 0.0
C245 C 0.4418 0.31544 0.25232 0.0
C246 C 0.47266 0.30191 0.24408 0.0
C247 C 0.49067 0.3116 0.21823 0.0
P248 P 0.30308 0.19775 0.94005 0.0
H249 H 0.34792 0.15773 0.9734 0.0
H250 H 0.34407 0.10294 0.98477 0.0
H251 H 0.24761 0.09644 0.93934 0.0
H252 H 0.25169 0.15046 0.92794 0.0
H253 H 0.33857 0.24572 0.90873 0.0
H254 H 0.35616 0.24901 0.85327 0.0
H255 H 0.32352 0.1544 0.8297 0.0
H256 H 0.30587 0.15131 0.8847 0.0
H257 H 0.25887 0.21962 0.99187 0.0
H258 H 0.25567 0.20886 0.88874 0.0
O259 O 0.32656 0.21846 0.967 0.0
H260 H 0.19951 0.23124 0.99307 0.0
H261 H 0.19666 0.2208 0.88975 0.0
C262 C 0.29983 0.15831 0.95041 0.0
C263 C 0.32588 0.14448 0.96618 0.0
C264 C 0.32369 0.11324 0.97259 0.0
C265 C 0.29566 0.09537 0.96273 0.0
C266 C 0.26976 0.10942 0.94681 0.0
C267 C 0.27187 0.14052 0.94067 0.0
C268 C 0.32125 0.19822 0.90099 0.0
C269 C 0.33595 0.22548 0.89177 0.0
C270 C 0.34608 0.22728 0.86013 0.0
C271 C 0.34118 0.20194 0.83719 0.0
C272 C 0.32744 0.17434 0.84683 0.0
C273 C 0.31749 0.17253 0.87841 0.0
C274 C 0.26183 0.21371 0.94028 0.0
C275 C 0.24563 0.22074 0.96949 0.0
C276 C 0.2117 0.2274 0.97012 0.0
C277 C 0.19333 0.22678 0.94148 0.0
C278 C 0.21004 0.22115 0.91221 0.0
C279 C 0.24395 0.21458 0.91162 0.0
P280 P 0.22809 0.57226 0.32444 0.0
H281 H 0.21359 0.50655 0.32773 0.0
H282 H 0.20425 0.47777 0.37407 0.0
H283 H 0.18687 0.56383 0.43189 0.0
H284 H 0.19611 0.59264 0.38497 0.0
H285 H 0.25382 0.62972 0.30339 0.0
H286 H 0.22792 0.67314 0.28033 0.0
H287 H 0.13139 0.63181 0.29188 0.0
H288 H 0.15785 0.58802 0.31576 0.0
H289 H 0.29362 0.54329 0.32347 0.0
H290 H 0.24649 0.62415 0.3705 0.0
O291 O 0.23561 0.54866 0.29166 0.0
H292 H 0.34495 0.55646 0.35302 0.0
H293 H 0.29752 0.63733 0.4003 0.0
C294 C 0.20579 0.55173 0.35299 0.0
C295 C 0.20609 0.5192 0.34992 0.0
C296 C 0.20066 0.5027 0.37657 0.0
C297 C 0.19538 0.51858 0.40679 0.0
C298 C 0.19124 0.55102 0.40895 0.0
C299 C 0.19637 0.56749 0.38213 0.0
C300 C 0.20768 0.60613 0.3122 0.0
C301 C 0.22701 0.63039 0.30208 0.0
C302 C 0.21212 0.65531 0.28888 0.0
C303 C 0.17756 0.65614 0.28473 0.0
C304 C 0.15807 0.63186 0.29506 0.0
C305 C 0.1731 0.60696 0.30876 0.0
C306 C 0.2666 0.58321 0.34417 0.0
C307 C 0.29446 0.56408 0.33985 0.0
C308 C 0.32364 0.57147 0.35698 0.0
C309 C 0.32529 0.59803 0.37888 0.0
C310 C 0.2972 0.61703 0.38322 0.0
C311 C 0.26802 0.60951 0.36621 0.0
P312 P 0.89291 0.82938 0.74465 0.0
H313 H 0.87358 0.85177 0.80908 0.0
H314 H 0.87639 0.90283 0.83893 0.0
H315 H 0.91427 0.94238 0.75522 0.0
H316 H 0.91195 0.8909 0.72549 0.0
H317 H 0.90559 0.78339 0.69145 0.0
H318 H 0.87834 0.77359 0.63962 0.0
H319 H 0.82842 0.86209 0.65459 0.0
H320 H 0.85384 0.87049 0.7072 0.0
H321 H 0.91746 0.78151 0.78346 0.0
H322 H 0.95841 0.84807 0.72344 0.0
O323 O 0.86523 0.80717 0.76158 0.0
H324 H 0.97192 0.7737 0.80609 0.0
H325 H 0.0136 0.84018 0.74594 0.0
C326 C 0.89147 0.86779 0.76479 0.0
C327 C 0.88198 0.87148 0.79695 0.0
C328 C 0.88391 0.90057 0.81407 0.0
C329 C 0.89545 0.92648 0.79929 0.0
C330 C 0.90489 0.9228 0.767 0.0
C331 C 0.90342 0.8935 0.75 0.0
C332 C 0.88223 0.82787 0.70299 0.0
C333 C 0.8896 0.80111 0.68308 0.0
C334 C 0.87402 0.79561 0.6533 0.0
C335 C 0.85077 0.81688 0.64298 0.0
C336 C 0.84563 0.84489 0.662 0.0
C337 C 0.86068 0.85002 0.692 0.0
C338 C 0.9339 0.81549 0.75191 0.0
C339 C 0.93844 0.79355 0.77419 0.0
C340 C 0.9698 0.789 0.78706 0.0
C341 C 0.99712 0.8066 0.7781 0.0
C342 C 0.99296 0.82655 0.75361 0.0
C343 C 0.9615 0.83095 0.7406 0.0
H344 H 0.12791 0.96871 0.10796 0.0
H345 H 0.06243 0.99335 0.28534 0.0
H346 H 0.14514 0.89964 0.17449 0.0
H347 H 0.09456 0.06975 0.23282 0.0
H348 H 0.08744 0.95713 0.24415 0.0
H349 H 0.10948 0.00491 0.15228 0.0
C350 C 0.12792 0.96123 0.13195 0.0
C351 C 0.13809 0.93119 0.13762 0.0
C352 C 0.08907 0.98187 0.24189 0.0
C353 C 0.11657 0.97229 0.18829 0.0
C354 C 0.07491 0.0026 0.2654 0.0
C355 C 0.07587 0.03476 0.26243 0.0
C356 C 0.10382 0.99338 0.21504 0.0
C357 C 0.09218 0.04521 0.23578 0.0
C358 C 0.11754 0.98191 0.15721 0.0
C359 C 0.13771 0.9227 0.16919 0.0
N360 N 0.10514 0.0246 0.213 0.0
N361 N 0.1267 0.94306 0.19338 0.0
H362 H 0.62541 0.62307 0.60859 0.0
H363 H 0.5241 0.70656 0.7545 0.0
H364 H 0.57139 0.70823 0.60122 0.0
H365 H 0.58096 0.62247 0.75858 0.0
H366 H 0.54562 0.7115 0.7006 0.0
H367 H 0.61441 0.62669 0.66567 0.0
C368 C 0.61134 0.64269 0.61906 0.0
C369 C 0.59889 0.66515 0.6 0.0
C370 C 0.5537 0.69224 0.71355 0.0
C371 C 0.58585 0.66933 0.66569 0.0
C372 C 0.54133 0.68932 0.74427 0.0
C373 C 0.55052 0.66394 0.76117 0.0
C374 C 0.5753 0.66956 0.69959 0.0
C375 C 0.57336 0.64263 0.74684 0.0
C376 C 0.6051 0.64479 0.65175 0.0
C377 C 0.58131 0.69033 0.61503 0.0
N378 N 0.58465 0.64579 0.71688 0.0
N379 N 0.5749 0.69153 0.64698 0.0
H380 H 0.85939 0.11199 0.08746 0.0
H381 H 0.7186 0.9854 0.10746 0.0
H382 H 0.7792 0.09575 0.01941 0.0
H383 H 0.78474 0.02068 0.18339 0.0
H384 H 0.73982 0.0251 0.07425 0.0
H385 H 0.83229 0.0775 0.12231 0.0
C386 C 0.83607 0.10115 0.07981 0.0
C387 C 0.82165 0.10667 0.05036 0.0
C388 C 0.74927 0.02436 0.09837 0.0
C389 C 0.7904 0.06704 0.09027 0.0
C390 C 0.73723 0.00172 0.11727 0.0
C391 C 0.74985 -0.00026 0.14827 0.0
C392 C 0.77442 0.0448 0.11044 0.0
C393 C 0.77388 0.02155 0.15985 0.0
C394 C 0.82049 0.08157 0.09983 0.0
C395 C 0.79121 0.09216 0.0419 0.0
N396 N 0.78559 0.04291 0.14084 0.0
N397 N 0.77671 0.07279 0.06166 0.0
H398 H 0.48984 0.35775 0.58981 0.0
H399 H 0.65501 0.25939 0.55953 0.0
H400 H 0.4877 0.26165 0.55174 0.0
H401 H 0.64924 0.3411 0.62606 0.0
H402 H 0.59451 0.26095 0.55259 0.0
H403 H 0.54926 0.35336 0.59961 0.0
C404 C 0.50186 0.33569 0.58354 0.0
C405 C 0.48375 0.31004 0.56987 0.0
C406 C 0.60653 0.27836 0.56888 0.0
C407 C 0.55194 0.30495 0.58083 0.0
C408 C 0.64098 0.27756 0.57272 0.0
C409 C 0.65709 0.30008 0.59348 0.0
C410 C 0.58823 0.30217 0.5855 0.0
C411 C 0.63778 0.32307 0.61011 0.0
C412 C 0.53577 0.33317 0.58927 0.0
C413 C 0.50067 0.28198 0.56243 0.0
N414 N 0.60444 0.32366 0.60557 0.0
N415 N 0.53391 0.28024 0.56775 0.0
H416 H 0.64746 0.58214 0.37061 0.0
H417 H 0.524 0.44191 0.31569 0.0
H418 H 0.58256 0.53682 0.43402 0.0
H419 H 0.5924 0.48064 0.25084 0.0
H420 H 0.54438 0.47844 0.35872 0.0
H421 H 0.6276 0.54642 0.32601 0.0
C422 C 0.62925 0.5646 0.37525 0.0
C423 C 0.61668 0.56255 0.4062 0.0
C424 C 0.55502 0.47907 0.33513 0.0
C425 C 0.59368 0.52191 0.35525 0.0
C426 C 0.54341 0.45814 0.31054 0.0
C427 C 0.55681 0.45802 0.27975 0.0
C428 C 0.58028 0.50019 0.32902 0.0
C429 C 0.58138 0.48004 0.27426 0.0
C430 C 0.61785 0.54431 0.34974 0.0
C431 C 0.59301 0.53941 0.41068 0.0
N432 N 0.5925 0.50019 0.29876 0.0
N433 N 0.58228 0.52013 0.38551 0.0
H434 H 0.98752 0.26271 0.99389 0.0
H435 H 0.1489 0.1907 0.90562 0.0
H436 H 0.99161 0.17139 0.94347 0.0
H437 H 0.15388 0.26657 0.97954 0.0
H438 H 0.08867 0.19021 0.91054 0.0
H439 H 0.04597 0.27085 0.98028 0.0
C440 C 0.00053 0.24461 0.97953 0.0
C441 C 0.98479 0.21622 0.97001 0.0
C442 C 0.10289 0.20717 0.92549 0.0
C443 C 0.05133 0.2254 0.95438 0.0
C444 C 0.1373 0.20766 0.92252 0.0
C445 C 0.15653 0.22869 0.94226 0.0
C446 C 0.08741 0.22791 0.94832 0.0
C447 C 0.14004 0.24975 0.96411 0.0
C448 C 0.03388 0.24919 0.97197 0.0
C449 C 0.00286 0.19349 0.9516 0.0
N450 N 0.1064 0.24876 0.96666 0.0
N451 N 0.03513 0.19855 0.94448 0.0
H452 H 0.33112 0.44194 0.52657 0.0
H453 H 0.17384 0.46078 0.42118 0.0
H454 H 0.24921 0.37768 0.52975 0.0
H455 H 0.2342 0.53883 0.45755 0.0
H456 H 0.19868 0.42971 0.46127 0.0
H457 H 0.29508 0.47754 0.50068 0.0
C458 C 0.30547 0.4354 0.52189 0.0
C459 C 0.29315 0.40678 0.53004 0.0
C460 C 0.20575 0.45389 0.46096 0.0
C461 C 0.25181 0.44728 0.50023 0.0
C462 C 0.1916 0.47161 0.43815 0.0
C463 C 0.20217 0.50235 0.43583 0.0
C464 C 0.23106 0.46691 0.48102 0.0
C465 C 0.22516 0.5153 0.45848 0.0
C466 C 0.28483 0.45583 0.50738 0.0
C467 C 0.25961 0.39958 0.52377 0.0
N468 N 0.23935 0.49732 0.47965 0.0
N469 N 0.24016 0.4195 0.50869 0.0
H470 H 0.11449 0.8778 0.93504 0.0
H471 H 0.02991 0.75885 0.80402 0.0
H472 H 0.1104 0.77862 0.94159 0.0
H473 H 0.03279 0.85825 0.79939 0.0
H474 H 0.06982 0.76431 0.84823 0.0
H475 H 0.09488 0.8698 0.87992 0.0
C476 C 0.10979 0.85429 0.92483 0.0
C477 C 0.11345 0.82891 0.94328 0.0
C478 C 0.06224 0.78485 0.83708 0.0
C479 C 0.09079 0.81959 0.88004 0.0
C480 C 0.03947 0.78174 0.81183 0.0
C481 C 0.0275 0.80817 0.79834 0.0
C482 C 0.07291 0.81464 0.84905 0.0
C483 C 0.04122 0.83719 0.809 0.0
C484 C 0.09865 0.84973 0.89326 0.0
C485 C 0.1075 0.79895 0.92847 0.0
N486 N 0.0627 0.83969 0.83409 0.0
N487 N 0.09598 0.79517 0.89789 0.0
H488 H 0.85113 0.11003 0.8841 0.0
H489 H 0.92421 0.93947 0.85777 0.0
H490 H 0.9259 0.07492 0.94545 0.0
H491 H 0.8726 0.98269 0.7832 0.0
H492 H 0.92491 0.98922 0.89024 0.0
H493 H 0.85861 0.06415 0.84646 0.0
C494 C 0.86932 0.09285 0.88955 0.0
C495 C 0.88767 0.09623 0.91818 0.0
C496 C 0.91368 0.98796 0.86667 0.0
C497 C 0.89611 0.0436 0.87531 0.0
C498 C 0.91312 0.95955 0.84824 0.0
C499 C 0.89808 0.95703 0.81795 0.0
C500 C 0.89865 0.01396 0.85492 0.0
C501 C 0.88446 0.98377 0.80647 0.0
C502 C 0.87361 0.0667 0.86799 0.0
C503 C 0.91107 0.0733 0.9238 0.0
N504 N 0.8847 0.01112 0.82516 0.0
N505 N 0.91432 0.04781 0.90275 0.0
H506 H 0.39979 0.26172 0.44344 0.0
H507 H 0.41179 0.36071 0.29143 0.0
H508 H 0.38687 0.36108 0.44568 0.0
H509 H 0.4397 0.26401 0.28754 0.0
H510 H 0.39443 0.35836 0.34631 0.0
H511 H 0.40759 0.25976 0.38529 0.0
C512 C 0.39839 0.28307 0.43175 0.0
C513 C 0.39297 0.31166 0.44959 0.0
C514 C 0.40405 0.33751 0.33347 0.0
C515 C 0.40164 0.30949 0.38319 0.0
C516 C 0.41362 0.33868 0.30179 0.0
C517 C 0.42721 0.31246 0.28451 0.0
C518 C 0.40825 0.30999 0.34845 0.0
C519 C 0.42972 0.28491 0.29995 0.0
C520 C 0.40288 0.28191 0.39859 0.0
C521 C 0.39135 0.33854 0.4331 0.0
N522 N 0.42054 0.28444 0.33113 0.0
N523 N 0.39572 0.33677 0.40097 0.0
H524 H 0.2576 0.93223 0.06121 0.0
H525 H 0.27402 0.04647 0.92227 0.0
H526 H 0.20182 0.92342 0.97284 0.0
H527 H 0.30991 0.06919 0.01851 0.0
H528 H 0.25998 0.99434 0.93619 0.0
H529 H 0.28908 0.97526 0.04137 0.0
C530 C 0.25247 0.93888 0.03738 0.0
C531 C 0.22672 0.92458 0.01881 0.0
C532 C 0.2713 0.01058 0.95418 0.0
C533 C 0.26249 0.97361 0.99612 0.0
C534 C 0.27923 0.04036 0.94628 0.0
C535 C 0.29247 0.06238 0.96948 0.0
C536 C 0.27653 0.00273 0.98557 0.0
C537 C 0.29956 0.05296 -4e-05 0.0
C538 C 0.27031 0.96352 0.02618 0.0
C539 C 0.2211 0.93415 0.98815 0.0
N540 N 0.29102 0.02393 0.0073 0.0
N541 N 0.23862 0.95822 0.9779 0.0
H542 H 0.50144 0.68757 0.46303 0.0
H543 H 0.36524 0.55832 0.40866 0.0
H544 H 0.50675 0.59175 0.48475 0.0
H545 H 0.35511 0.65495 0.39175 0.0
H546 H 0.41639 0.5709 0.43834 0.0
H547 H 0.44655 0.67712 0.43933 0.0
C548 C 0.49099 0.66445 0.46317 0.0
C549 C 0.50896 0.64046 0.4757 0.0
C550 C 0.40296 0.58942 0.42826 0.0
C551 C 0.44629 0.62831 0.44836 0.0
C552 C 0.37387 0.58219 0.4111 0.0
C553 C 0.35603 0.60558 0.39751 0.0
C554 C 0.41448 0.62028 0.43175 0.0
C555 C 0.36803 0.63623 0.40198 0.0
C556 C 0.45967 0.65848 0.44954 0.0
C557 C 0.49404 0.61096 0.47519 0.0
N558 N 0.39662 0.64268 0.41856 0.0
N559 N 0.46376 0.60571 0.46154 0.0
H560 H 0.40728 0.43631 0.62114 0.0
H561 H 0.42115 0.47305 0.80952 0.0
H562 H 0.35853 0.37791 0.68529 0.0
H563 H 0.42522 0.54367 0.743 0.0
H564 H 0.40509 0.43473 0.76516 0.0
H565 H 0.4217 0.47283 0.66661 0.0
C566 C 0.39971 0.43107 0.64484 0.0
C567 C 0.38161 0.404 0.6494 0.0
C568 C 0.40933 0.45868 0.76045 0.0
C569 C 0.39825 0.44581 0.70166 0.0
C570 C 0.4186 0.48042 0.78562 0.0
C571 C 0.4243 0.51151 0.77983 0.0
C572 C 0.40656 0.46809 0.72935 0.0
C573 C 0.42067 0.52 0.74851 0.0
C574 C 0.40781 0.45205 0.67076 0.0
C575 C 0.37234 0.3986 0.6807 0.0
N576 N 0.41228 0.49837 0.72442 0.0
N577 N 0.38096 0.41927 0.70577 0.0
H578 H 0.04395 0.88789 0.10217 0.0
H579 H 0.8604 0.83515 0.115 0.0
H580 H 0.01711 0.79941 0.05286 0.0
H581 H 0.91714 0.86645 0.19947 0.0
H582 H 0.91246 0.82744 0.08536 0.0
H583 H 0.99141 0.88828 0.13089 0.0
C584 C 0.02678 0.86872 0.09705 0.0
C585 C 0.03479 0.8436 0.07503 0.0
C586 C 0.91322 0.83572 0.11047 0.0
C587 C 0.97469 0.84412 0.10772 0.0
C588 C 0.88361 0.84001 0.12754 0.0
C589 C 0.88412 0.85204 0.15983 0.0
C590 C 0.94334 0.84419 0.12562 0.0
C591 C 0.91518 0.85821 0.17444 0.0
C592 C 0.99702 0.86887 0.11366 0.0
C593 C 0.01178 0.81917 0.0697 0.0
N594 N 0.94344 0.85476 0.15709 0.0
N595 N 0.98243 0.82013 0.08578 0.0
H596 H 0.74448 0.57433 0.48125 0.0
H597 H 0.78686 0.47654 0.62921 0.0
H598 H 0.69018 0.58058 0.56998 0.0
H599 H 0.80833 0.44471 0.53106 0.0
H600 H 0.76624 0.52526 0.61126 0.0
H601 H 0.78242 0.5372 0.5033 0.0
C602 C 0.741 0.56841 0.50559 0.0
C603 C 0.71393 0.58012 0.52371 0.0
C604 C 0.77603 0.50776 0.59378 0.0
C605 C 0.75716 0.53815 0.54897 0.0
C606 C 0.78768 0.47991 0.60395 0.0
C607 C 0.7986 0.4561 0.58155 0.0
C608 C 0.77556 0.51201 0.56102 0.0
C609 C 0.80008 0.46226 0.54923 0.0
C610 C 0.76252 0.54719 0.51805 0.0
C611 C 0.71046 0.57168 0.55507 0.0
N612 N 0.78822 0.48947 0.53987 0.0
N613 N 0.7317 0.55106 0.56665 0.0
H614 H 0.87244 0.24135 0.11608 0.0
H615 H 0.01543 0.20885 0.24128 0.0
H616 H 0.96673 0.19895 0.09191 0.0
H617 H 0.91235 0.21551 0.26856 0.0
H618 H 0.0003 0.22096 0.18767 0.0
H619 H 0.88925 0.24614 0.17293 0.0
C620 C 0.89685 0.23363 0.12271 0.0
C621 C 0.91818 0.21948 0.0995 0.0
C622 C 0.98102 0.22023 0.2055 0.0
C623 C 0.93753 0.22519 0.16375 0.0
C624 C 0.98967 0.21365 0.23632 0.0
C625 C 0.9651 0.21093 0.25956 0.0
C626 C 0.94754 0.22407 0.19761 0.0
C627 C 0.93204 0.21689 0.25127 0.0
C628 C 0.90632 0.23622 0.15501 0.0
C629 C 0.94944 0.20966 0.10917 0.0
N630 N 0.92413 0.22287 0.22082 0.0
N631 N 0.95814 0.21266 0.14052 0.0
H632 H 0.18261 0.81137 0.17443 0.0
H633 H 0.132 0.64915 0.23611 0.0
H634 H 0.11808 0.74481 0.12204 0.0
H635 H 0.19101 0.7185 0.29084 0.0
H636 H 0.11883 0.6872 0.1982 0.0
H637 H 0.1794 0.78084 0.22051 0.0
C638 C 0.16763 0.79042 0.17263 0.0
C639 C 0.15106 0.78039 0.14407 0.0
C640 C 0.13418 0.69429 0.21881 0.0
C641 C 0.14726 0.74526 0.19689 0.0
C642 C 0.14144 0.67263 0.24063 0.0
C643 C 0.16308 0.68057 0.26634 0.0
C644 C 0.14885 0.72396 0.22268 0.0
C645 C 0.1748 0.71127 0.27092 0.0
C646 C 0.16567 0.77305 0.19905 0.0
C647 C 0.13159 0.75329 0.1434 0.0
N648 N 0.16798 0.7317 0.249 0.0
N649 N 0.13057 0.73647 0.16928 0.0
H650 H 0.67362 0.76189 0.53974 0.0
H651 H 0.8653 0.78253 0.58608 0.0
H652 H 0.7509 0.70287 0.49748 0.0
H653 H 0.78464 0.82954 0.63734 0.0
H654 H 0.82536 0.76032 0.54623 0.0
H655 H 0.7158 0.79411 0.56812 0.0
C656 C 0.69946 0.75578 0.53621 0.0
C657 C 0.70862 0.72926 0.51656 0.0
C658 C 0.8166 0.77591 0.56599 0.0
C659 C 0.75716 0.76617 0.54919 0.0
C660 C 0.83935 0.78854 0.5888 0.0
C661 C 0.82842 0.80775 0.61541 0.0
C662 C 0.78271 0.7826 0.56979 0.0
C663 C 0.79452 0.81518 0.61722 0.0
C664 C 0.72357 0.77425 0.55244 0.0
C665 C 0.7426 0.72287 0.51265 0.0
N666 N 0.77293 0.80236 0.59496 0.0
N667 N 0.76563 0.741 0.52911 0.0
H668 H 0.79611 0.28217 0.05662 0.0
H669 H 0.60065 0.2614 0.08279 0.0
H670 H 0.7374 0.20676 0.01125 0.0
H671 H 0.65976 0.3315 0.1364 0.0
H672 H 0.65044 0.24276 0.0544 0.0
H673 H 0.74623 0.30246 0.08419 0.0
C674 C 0.77279 0.26995 0.05232 0.0
C675 C 0.77106 0.24265 0.03161 0.0
C676 C 0.65257 0.2622 0.07241 0.0
C677 C 0.71397 0.26569 0.06309 0.0
C678 C 0.6241 0.27292 0.08852 0.0
C679 C 0.62605 0.29799 0.11205 0.0
C680 C 0.68326 0.27672 0.07972 0.0
C681 C 0.6572 0.31182 0.11874 0.0
C682 C 0.74435 0.28149 0.06815 0.0
C683 C 0.7401 0.22779 0.02706 0.0
N684 N 0.68457 0.30105 0.10262 0.0
N685 N 0.71289 0.23948 0.04265 0.0
H686 H 0.41046 0.25346 0.6523 0.0
H687 H 0.29997 0.18445 0.78728 0.0
H688 H 0.30352 0.25151 0.6518 0.0
H689 H 0.39504 0.22769 0.809 0.0
H690 H 0.30651 0.19495 0.73145 0.0
H691 H 0.41006 0.23056 0.70421 0.0
C692 C 0.38702 0.24758 0.66283 0.0
C693 C 0.35696 0.25439 0.6481 0.0
C694 C 0.32613 0.20179 0.74837 0.0
C695 C 0.35633 0.22824 0.70655 0.0
C696 C 0.32253 0.19564 0.78018 0.0
C697 C 0.34695 0.20535 0.80282 0.0
C698 C 0.35442 0.21761 0.739 0.0
C699 C 0.37548 0.22015 0.79231 0.0
C700 C 0.3868 0.23479 0.69237 0.0
C701 C 0.32718 0.24673 0.66264 0.0
N702 N 0.37842 0.22598 0.76108 0.0
N703 N 0.3276 0.23405 0.69106 0.0
H704 H 0.63916 0.67201 0.36341 0.0
H705 H 0.63454 0.83902 0.30083 0.0
H706 H 0.59815 0.75234 0.41745 0.0
H707 H 0.67079 0.75719 0.24582 0.0
H708 H 0.60927 0.80595 0.3384 0.0
H709 H 0.63962 0.70058 0.31587 0.0
C710 C 0.62988 0.6956 0.36518 0.0
C711 C 0.61931 0.71008 0.3946 0.0
C712 C 0.62211 0.79515 0.31774 0.0
C713 C 0.62009 0.74312 0.34023 0.0
C714 C 0.63631 0.81403 0.29608 0.0
C715 C 0.65537 0.80083 0.27049 0.0
C716 C 0.62724 0.7629 0.31388 0.0
C717 C 0.65698 0.76834 0.26567 0.0
C718 C 0.63004 0.7119 0.33796 0.0
C719 C 0.60688 0.74042 0.39532 0.0
N720 N 0.64367 0.75051 0.2875 0.0
N721 N 0.60824 0.75618 0.36866 0.0
H722 H 0.88316 0.27669 0.90805 0.0
H723 H 0.80065 0.24691 0.7341 0.0
H724 H 0.80869 0.2068 0.88172 0.0
H725 H 0.873 0.31934 0.75753 0.0
H726 H 0.80399 0.23231 0.78865 0.0
H727 H 0.87988 0.29364 0.85383 0.0
C728 C 0.86602 0.26503 0.89102 0.0
C729 C 0.84627 0.24018 0.89953 0.0
C730 C 0.81924 0.25138 0.78197 0.0
C731 C 0.84256 0.25934 0.83754 0.0
C732 C 0.81755 0.25956 0.75066 0.0
C733 C 0.83682 0.2842 0.7411 0.0
C734 C 0.84036 0.26791 0.80412 0.0
C735 C 0.85761 0.30026 0.76393 0.0
C736 C 0.86423 0.27467 0.86007 0.0
C737 C 0.82455 0.22594 0.87639 0.0
N738 N 0.85891 0.29179 0.79441 0.0
N739 N 0.82339 0.23566 0.84656 0.0
H740 H 0.23412 0.27497 0.55949 0.0
H741 H 0.16797 0.19094 0.39573 0.0
H742 H 0.29978 0.23663 0.4853 0.0
H743 H 0.11083 0.19339 0.48285 0.0
H744 H 0.21518 0.2128 0.42652 0.0
H745 H 0.18711 0.25028 0.53007 0.0
C746 C 0.23867 0.26129 0.53707 0.0
C747 C 0.27094 0.25786 0.52482 0.0
C748 C 0.19232 0.20842 0.43886 0.0
C749 C 0.21724 0.22995 0.49095 0.0
C750 C 0.16531 0.19578 0.42134 0.0
C751 C 0.13522 0.19001 0.43665 0.0
C752 C 0.1892 0.21591 0.47189 0.0
C753 C 0.13325 0.19775 0.46984 0.0
C754 C 0.21185 0.24715 0.52038 0.0
C755 C 0.27536 0.23976 0.49572 0.0
N756 N 0.15982 0.21042 0.48632 0.0
N757 N 0.24877 0.22672 0.47962 0.0
H758 H 0.20664 0.74097 0.99533 0.0
H759 H 0.40266 0.72504 0.96848 0.0
H760 H 0.27866 0.80487 0.04083 0.0
H761 H 0.33026 0.66215 0.92228 0.0
H762 H 0.35765 0.75461 0.99533 0.0
H763 H 0.25174 0.71153 0.96887 0.0
C764 C 0.2319 0.74883 -0.00015 0.0
C765 C 0.23876 0.77552 0.02041 0.0
C766 C 0.35162 0.73432 0.97933 0.0
C767 C 0.29064 0.74182 0.99001 0.0
C768 C 0.3773 0.71754 0.96385 0.0
C769 C 0.37025 0.69104 0.94311 0.0
C770 C 0.31861 0.72459 0.97402 0.0
C771 C 0.33692 0.68216 0.93839 0.0
C772 C 0.25768 0.73197 0.98467 0.0
C773 C 0.27209 0.78448 0.02522 0.0
N774 N 0.31237 0.6989 0.9537 0.0
N775 N 0.29675 0.76769 0.01013 0.0
loop_
_geom_bond_atom_site_label_1
_geom_bond_atom_site_label_2
_geom_bond_distance
_geom_bond_site_symmetry_2
_ccdc_geom_bond_type
Sc0 O3 2.025 . S
Sc0 O10 2.105 . S
Sc0 O13 2.105 . S
Sc0 O16 2.105 . S
Sc0 O19 2.105 1_554 S
Sc1 O3 2.025 . S
Sc1 O11 2.105 1_554 S
Sc1 O15 2.105 . S
Sc1 O17 2.105 . S
Sc1 O21 2.105 . S
Sc2 O3 2.025 . S
Sc2 O12 2.105 . S
Sc2 O14 2.105 . S
Sc2 O18 2.105 . S
Sc2 O20 2.105 . S
O3 Sc0 2.025 . S
O3 Sc1 2.025 . S
O3 Sc2 2.025 . S
C4 O10 1.268 . S
C4 O20 1.268 . S
C5 O11 1.268 . S
C5 O19 1.268 . S
C6 O12 1.268 . S
C6 O21 1.268 . S
C7 O13 1.268 . S
C7 O17 1.268 . S
C8 O14 1.268 . S
C8 O16 1.268 . S
C9 O15 1.268 . S
C9 O18 1.268 . S
O10 Sc0 2.105 . S
O10 C4 1.268 . S
O11 Sc1 2.105 1_556 S
O11 C5 1.268 . S
O12 Sc2 2.105 . S
O12 C6 1.268 . S
O13 Sc0 2.105 . S
O13 C7 1.268 . S
O14 Sc2 2.105 . S
O14 C8 1.268 . S
O15 Sc1 2.105 . S
O15 C9 1.268 . S
O16 Sc0 2.105 . S
O16 C8 1.268 . S
O17 Sc1 2.105 . S
O17 C7 1.268 . S
O18 Sc2 2.105 . S
O18 C9 1.268 . S
O19 Sc0 2.105 1_556 S
O19 C5 1.268 . S
O20 Sc2 2.105 . S
O20 C4 1.268 . S
O21 Sc1 2.105 . S
O21 C6 1.268 . S
Sc22 O25 2.025 . S
Sc22 O32 2.105 . S
Sc22 O35 2.105 . S
Sc22 O38 2.105 . S
Sc22 O41 2.105 . S
Sc23 O25 2.025 . S
Sc23 O33 2.105 . S
Sc23 O37 2.105 . S
Sc23 O39 2.105 . S
Sc23 O43 2.105 . S
Sc24 O25 2.025 . S
Sc24 O34 2.105 . S
Sc24 O36 2.105 . S
Sc24 O40 2.105 . S
Sc24 O42 2.105 . S
O25 Sc22 2.025 . S
O25 Sc23 2.025 . S
O25 Sc24 2.025 . S
C26 O32 1.268 . S
C26 O42 1.268 . S
C27 O33 1.268 . S
C27 O41 1.268 . S
C28 O34 1.268 . S
C28 O43 1.268 . S
C29 O35 1.268 . S
C29 O39 1.268 . S
C30 O36 1.268 . S
C30 O38 1.268 . S
C31 O37 1.268 . S
C31 O40 1.268 . S
O32 Sc22 2.105 . S
O32 C26 1.268 . S
O33 Sc23 2.105 . S
O33 C27 1.268 . S
O34 Sc24 2.105 . S
O34 C28 1.268 . S
O35 Sc22 2.105 . S
O35 C29 1.268 . S
O36 Sc24 2.105 . S
O36 C30 1.268 . S
O37 Sc23 2.105 . S
O37 C31 1.268 . S
O38 Sc22 2.105 . S
O38 C30 1.268 . S
O39 Sc23 2.105 . S
O39 C29 1.268 . S
O40 Sc24 2.105 . S
O40 C31 1.268 . S
O41 Sc22 2.105 . S
O41 C27 1.268 . S
O42 Sc24 2.105 . S
O42 C26 1.268 . S
O43 Sc23 2.105 . S
O43 C28 1.268 . S
Sc44 O47 2.025 . S
Sc44 O54 2.105 1_554 S
Sc44 O57 2.105 . S
Sc44 O60 2.105 . S
Sc44 O63 2.105 1_554 S
Sc45 O47 2.025 1_556 S
Sc45 O55 2.105 . S
Sc45 O59 2.105 1_556 S
Sc45 O61 2.105 1_556 S
Sc45 O65 2.105 . S
Sc46 O47 2.025 . S
Sc46 O56 2.105 1_554 S
Sc46 O58 2.105 . S
Sc46 O62 2.105 . S
Sc46 O64 2.105 1_554 S
O47 Sc44 2.025 . S
O47 Sc45 2.025 1_554 S
O47 Sc46 2.025 . S
C48 O54 1.268 . S
C48 O64 1.268 . S
C49 O55 1.268 . S
C49 O63 1.268 . S
C50 O56 1.268 . S
C50 O65 1.268 . S
C51 O57 1.268 . S
C51 O61 1.268 . S
C52 O58 1.268 . S
C52 O60 1.268 . S
C53 O59 1.268 . S
C53 O62 1.268 . S
O54 Sc44 2.105 1_556 S
O54 C48 1.268 . S
O55 Sc45 2.105 . S
O55 C49 1.268 . S
O56 Sc46 2.105 1_556 S
O56 C50 1.268 . S
O57 Sc44 2.105 . S
O57 C51 1.268 . S
O58 Sc46 2.105 . S
O58 C52 1.268 . S
O59 Sc45 2.105 1_554 S
O59 C53 1.268 . S
O60 Sc44 2.105 . S
O60 C52 1.268 . S
O61 Sc45 2.105 1_554 S
O61 C51 1.268 . S
O62 Sc46 2.105 . S
O62 C53 1.268 . S
O63 Sc44 2.105 1_556 S
O63 C49 1.268 . S
O64 Sc46 2.105 1_556 S
O64 C48 1.268 . S
O65 Sc45 2.105 . S
O65 C50 1.268 . S
Sc66 O69 2.025 . S
Sc66 O76 2.105 . S
Sc66 O79 2.105 . S
Sc66 O82 2.105 . S
Sc66 O85 2.105 . S
Sc67 O69 2.025 . S
Sc67 O77 2.105 . S
Sc67 O81 2.105 . S
Sc67 O83 2.105 . S
Sc67 O87 2.105 . S
Sc68 O69 2.025 . S
Sc68 O78 2.105 . S
Sc68 O80 2.105 . S
Sc68 O84 2.105 . S
Sc68 O86 2.105 . S
O69 Sc66 2.025 . S
O69 Sc67 2.025 . S
O69 Sc68 2.025 . S
C70 O76 1.268 . S
C70 O86 1.268 . S
C71 O77 1.268 . S
C71 O85 1.268 . S
C72 O78 1.268 . S
C72 O87 1.268 . S
C73 O79 1.268 . S
C73 O83 1.268 . S
C74 O80 1.268 . S
C74 O82 1.268 . S
C75 O81 1.268 . S
C75 O84 1.268 . S
O76 Sc66 2.105 . S
O76 C70 1.268 . S
O77 Sc67 2.105 . S
O77 C71 1.268 . S
O78 Sc68 2.105 . S
O78 C72 1.268 . S
O79 Sc66 2.105 . S
O79 C73 1.268 . S
O80 Sc68 2.105 . S
O80 C74 1.268 . S
O81 Sc67 2.105 . S
O81 C75 1.268 . S
O82 Sc66 2.105 . S
O82 C74 1.268 . S
O83 Sc67 2.105 . S
O83 C73 1.268 . S
O84 Sc68 2.105 . S
O84 C75 1.268 . S
O85 Sc66 2.105 . S
O85 C71 1.268 . S
O86 Sc68 2.105 . S
O86 C70 1.268 . S
O87 Sc67 2.105 . S
O87 C72 1.268 . S
P88 O99 1.490 . S
P88 C102 1.812 . S
P88 C108 1.803 . S
P88 C114 1.819 . S
H89 C103 0.941 . S
H90 C104 0.933 1_565 S
H91 C106 0.940 . S
H92 C107 0.940 . S
H93 C109 0.939 . S
H94 C110 0.942 . S
H95 C112 0.940 . S
H96 C113 0.939 . S
H97 C115 0.941 . S
H98 C119 0.939 . S
O99 P88 1.490 . S
H100 C116 0.939 . S
H101 C118 0.940 . S
C102 P88 1.812 . S
C102 C103 1.389 . S
C102 C107 1.391 . S
C103 H89 0.941 . S
C103 C102 1.389 . S
C103 C104 1.397 . S
C104 H90 0.933 1_545 S
C104 C103 1.397 . S
C104 C105 1.378 . S
C105 C104 1.378 . S
C105 C106 1.378 . S
C106 H91 0.940 . S
C106 C105 1.378 . S
C106 C107 1.396 . S
C107 H92 0.940 . S
C107 C102 1.391 . S
C107 C106 1.396 . S
C108 P88 1.803 . S
C108 C109 1.378 . S
C108 C113 1.400 . S
C109 H93 0.939 . S
C109 C108 1.378 . S
C109 C110 1.361 . S
C110 H94 0.942 . S
C110 C109 1.361 . S
C110 C111 1.369 . S
C111 C110 1.369 . S
C111 C112 1.404 . S
C112 H95 0.940 . S
C112 C111 1.404 . S
C112 C113 1.389 . S
C113 H96 0.939 . S
C113 C108 1.400 . S
C113 C112 1.389 . S
C114 P88 1.819 . S
C114 C115 1.391 1_455 S
C114 C119 1.391 . S
C115 H97 0.941 . S
C115 C114 1.391 1_655 S
C115 C116 1.396 . S
C116 H100 0.939 . S
C116 C115 1.396 . S
C116 C117 1.397 . S
C117 C116 1.397 . S
C117 C118 1.385 1_655 S
C118 H101 0.940 . S
C118 C117 1.385 1_455 S
C118 C119 1.388 . S
C119 H98 0.939 . S
C119 C114 1.391 . S
C119 C118 1.388 . S
P120 O131 1.490 . S
P120 C134 1.812 . S
P120 C140 1.803 . S
P120 C146 1.819 . S
H121 C135 0.941 . S
H122 C136 0.939 . S
H123 C138 0.940 . S
H124 C139 0.940 . S
H125 C141 0.939 . S
H126 C142 0.942 . S
H127 C144 0.940 . S
H128 C145 0.939 . S
H129 C147 0.941 . S
H130 C151 0.939 . S
O131 P120 1.490 . S
H132 C148 0.939 . S
H133 C150 0.940 . S
C134 P120 1.812 . S
C134 C135 1.389 . S
C134 C139 1.391 . S
C135 H121 0.941 . S
C135 C134 1.389 . S
C135 C136 1.397 . S
C136 H122 0.939 . S
C136 C135 1.397 . S
C136 C137 1.378 . S
C137 C136 1.378 . S
C137 C138 1.378 . S
C138 H123 0.940 . S
C138 C137 1.378 . S
C138 C139 1.396 . S
C139 H124 0.940 . S
C139 C134 1.391 . S
C139 C138 1.396 . S
C140 P120 1.803 . S
C140 C141 1.378 . S
C140 C145 1.400 . S
C141 H125 0.939 . S
C141 C140 1.378 . S
C141 C142 1.361 . S
C142 H126 0.942 . S
C142 C141 1.361 . S
C142 C143 1.369 . S
C143 C142 1.369 . S
C143 C144 1.404 . S
C144 H127 0.940 . S
C144 C143 1.404 . S
C144 C145 1.389 . S
C145 H128 0.939 . S
C145 C140 1.400 . S
C145 C144 1.389 . S
C146 P120 1.819 . S
C146 C147 1.391 . S
C146 C151 1.391 . S
C147 H129 0.941 . S
C147 C146 1.391 . S
C147 C148 1.396 . S
C148 H132 0.939 . S
C148 C147 1.396 . S
C148 C149 1.397 . S
C149 C148 1.397 . S
C149 C150 1.385 . S
C150 H133 0.940 . S
C150 C149 1.385 . S
C150 C151 1.388 . S
C151 H130 0.939 . S
C151 C146 1.391 . S
C151 C150 1.388 . S
P152 O163 1.490 . S
P152 C166 1.812 . S
P152 C172 1.803 . S
P152 C178 1.819 . S
H153 C167 0.941 . S
H154 C168 0.939 . S
H155 C170 0.940 . S
H156 C171 0.940 . S
H157 C173 0.939 . S
H158 C174 0.942 . S
H159 C176 0.940 . S
H160 C177 0.939 . S
H161 C179 0.941 . S
H162 C183 0.939 . S
O163 P152 1.490 . S
H164 C180 0.939 . S
H165 C182 0.940 . S
C166 P152 1.812 . S
C166 C167 1.389 . S
C166 C171 1.391 . S
C167 H153 0.941 . S
C167 C166 1.389 . S
C167 C168 1.397 . S
C168 H154 0.939 . S
C168 C167 1.397 . S
C168 C169 1.378 . S
C169 C168 1.378 . S
C169 C170 1.378 . S
C170 H155 0.940 . S
C170 C169 1.378 . S
C170 C171 1.396 . S
C171 H156 0.940 . S
C171 C166 1.391 . S
C171 C170 1.396 . S
C172 P152 1.803 . S
C172 C173 1.378 . S
C172 C177 1.400 . S
C173 H157 0.939 . S
C173 C172 1.378 . S
C173 C174 1.361 . S
C174 H158 0.942 . S
C174 C173 1.361 . S
C174 C175 1.369 . S
C175 C174 1.369 . S
C175 C176 1.404 . S
C176 H159 0.940 . S
C176 C175 1.404 . S
C176 C177 1.389 . S
C177 H160 0.939 . S
C177 C172 1.400 . S
C177 C176 1.389 . S
C178 P152 1.819 . S
C178 C179 1.391 . S
C178 C183 1.391 . S
C179 H161 0.941 . S
C179 C178 1.391 . S
C179 C180 1.396 . S
C180 H164 0.939 . S
C180 C179 1.396 . S
C180 C181 1.397 . S
C181 C180 1.397 . S
C181 C182 1.385 . S
C182 H165 0.940 . S
C182 C181 1.385 . S
C182 C183 1.388 . S
C183 H162 0.939 . S
C183 C178 1.391 . S
C183 C182 1.388 . S
P184 O195 1.490 . S
P184 C198 1.812 . S
P184 C204 1.803 . S
P184 C210 1.819 . S
H185 C199 0.941 . S
H186 C200 0.939 . S
H187 C202 0.940 . S
H188 C203 0.940 . S
H189 C205 0.939 . S
H190 C206 0.942 . S
H191 C208 0.940 . S
H192 C209 0.939 . S
H193 C211 0.941 . S
H194 C215 0.939 . S
O195 P184 1.490 . S
H196 C212 0.939 . S
H197 C214 0.940 . S
C198 P184 1.812 . S
C198 C199 1.389 . S
C198 C203 1.391 . S
C199 H185 0.941 . S
C199 C198 1.389 . S
C199 C200 1.397 . S
C200 H186 0.939 . S
C200 C199 1.397 . S
C200 C201 1.378 . S
C201 C200 1.378 . S
C201 C202 1.378 . S
C202 H187 0.940 . S
C202 C201 1.378 . S
C202 C203 1.396 . S
C203 H188 0.940 . S
C203 C198 1.391 . S
C203 C202 1.396 . S
C204 P184 1.803 . S
C204 C205 1.378 . S
C204 C209 1.400 . S
C205 H189 0.939 . S
C205 C204 1.378 . S
C205 C206 1.361 . S
C206 H190 0.942 . S
C206 C205 1.361 . S
C206 C207 1.369 . S
C207 C206 1.369 . S
C207 C208 1.404 . S
C208 H191 0.940 . S
C208 C207 1.404 . S
C208 C209 1.389 . S
C209 H192 0.939 . S
C209 C204 1.400 . S
C209 C208 1.389 . S
C210 P184 1.819 . S
C210 C211 1.391 . S
C210 C215 1.391 . S
C211 H193 0.941 . S
C211 C210 1.391 . S
C211 C212 1.396 . S
C212 H196 0.939 . S
C212 C211 1.396 . S
C212 C213 1.397 . S
C213 C212 1.397 . S
C213 C214 1.385 . S
C214 H197 0.940 . S
C214 C213 1.385 . S
C214 C215 1.388 . S
C215 H194 0.939 . S
C215 C210 1.391 . S
C215 C214 1.388 . S
P216 O227 1.490 . S
P216 C230 1.812 . S
P216 C236 1.803 . S
P216 C242 1.819 . S
H217 C231 0.941 . S
H218 C232 0.939 . S
H219 C234 0.940 . S
H220 C235 0.940 . S
H221 C237 0.939 . S
H222 C238 0.942 . S
H223 C240 0.940 . S
H224 C241 0.939 . S
H225 C243 0.941 . S
H226 C247 0.939 . S
O227 P216 1.490 . S
H228 C244 0.939 . S
H229 C246 0.940 . S
C230 P216 1.812 . S
C230 C231 1.389 . S
C230 C235 1.391 . S
C231 H217 0.941 . S
C231 C230 1.389 . S
C231 C232 1.397 . S
C232 H218 0.939 . S
C232 C231 1.397 . S
C232 C233 1.378 . S
C233 C232 1.378 . S
C233 C234 1.378 . S
C234 H219 0.940 . S
C234 C233 1.378 . S
C234 C235 1.396 . S
C235 H220 0.940 . S
C235 C230 1.391 . S
C235 C234 1.396 . S
C236 P216 1.803 . S
C236 C237 1.378 . S
C236 C241 1.400 . S
C237 H221 0.939 . S
C237 C236 1.378 . S
C237 C238 1.361 . S
C238 H222 0.942 . S
C238 C237 1.361 . S
C238 C239 1.369 . S
C239 C238 1.369 . S
C239 C240 1.404 . S
C240 H223 0.940 . S
C240 C239 1.404 . S
C240 C241 1.389 . S
C241 H224 0.939 . S
C241 C236 1.400 . S
C241 C240 1.389 . S
C242 P216 1.819 . S
C242 C243 1.391 . S
C242 C247 1.391 . S
C243 H225 0.941 . S
C243 C242 1.391 . S
C243 C244 1.396 . S
C244 H228 0.939 . S
C244 C243 1.396 . S
C244 C245 1.397 . S
C245 C244 1.397 . S
C245 C246 1.385 . S
C246 H229 0.940 . S
C246 C245 1.385 . S
C246 C247 1.388 . S
C247 H226 0.939 . S
C247 C242 1.391 . S
C247 C246 1.388 . S
P248 O259 1.490 . S
P248 C262 1.812 . S
P248 C268 1.803 . S
P248 C274 1.819 . S
H249 C263 0.941 . S
H250 C264 0.939 . S
H251 C266 0.940 . S
H252 C267 0.940 . S
H253 C269 0.939 . S
H254 C270 0.942 . S
H255 C272 0.940 . S
H256 C273 0.939 . S
H257 C275 0.941 . S
H258 C279 0.939 . S
O259 P248 1.490 . S
H260 C276 0.939 . S
H261 C278 0.940 . S
C262 P248 1.812 . S
C262 C263 1.389 . S
C262 C267 1.391 . S
C263 H249 0.941 . S
C263 C262 1.389 . S
C263 C264 1.397 . S
C264 H250 0.939 . S
C264 C263 1.397 . S
C264 C265 1.378 . S
C265 C264 1.378 . S
C265 C266 1.378 . S
C266 H251 0.940 . S
C266 C265 1.378 . S
C266 C267 1.396 . S
C267 H252 0.940 . S
C267 C262 1.391 . S
C267 C266 1.396 . S
C268 P248 1.803 . S
C268 C269 1.378 . S
C268 C273 1.400 . S
C269 H253 0.939 . S
C269 C268 1.378 . S
C269 C270 1.361 . S
C270 H254 0.942 . S
C270 C269 1.361 . S
C270 C271 1.369 . S
C271 C270 1.369 . S
C271 C272 1.404 . S
C272 H255 0.940 . S
C272 C271 1.404 . S
C272 C273 1.389 . S
C273 H256 0.939 . S
C273 C268 1.400 . S
C273 C272 1.389 . S
C274 P248 1.819 . S
C274 C275 1.391 . S
C274 C279 1.391 . S
C275 H257 0.941 . S
C275 C274 1.391 . S
C275 C276 1.396 . S
C276 H260 0.939 . S
C276 C275 1.396 . S
C276 C277 1.397 . S
C277 C276 1.397 . S
C277 C278 1.385 . S
C278 H261 0.940 . S
C278 C277 1.385 . S
C278 C279 1.388 . S
C279 H258 0.939 . S
C279 C274 1.391 . S
C279 C278 1.388 . S
P280 O291 1.490 . S
P280 C294 1.812 . S
P280 C300 1.803 . S
P280 C306 1.819 . S
H281 C295 0.941 . S
H282 C296 0.939 . S
H283 C298 0.940 . S
H284 C299 0.940 . S
H285 C301 0.939 . S
H286 C302 0.942 . S
H287 C304 0.940 . S
H288 C305 0.939 . S
H289 C307 0.941 . S
H290 C311 0.939 . S
O291 P280 1.490 . S
H292 C308 0.939 . S
H293 C310 0.940 . S
C294 P280 1.812 . S
C294 C295 1.389 . S
C294 C299 1.391 . S
C295 H281 0.941 . S
C295 C294 1.389 . S
C295 C296 1.397 . S
C296 H282 0.939 . S
C296 C295 1.397 . S
C296 C297 1.378 . S
C297 C296 1.378 . S
C297 C298 1.378 . S
C298 H283 0.940 . S
C298 C297 1.378 . S
C298 C299 1.396 . S
C299 H284 0.940 . S
C299 C294 1.391 . S
C299 C298 1.396 . S
C300 P280 1.803 . S
C300 C301 1.378 . S
C300 C305 1.400 . S
C301 H285 0.939 . S
C301 C300 1.378 . S
C301 C302 1.361 . S
C302 H286 0.942 . S
C302 C301 1.361 . S
C302 C303 1.369 . S
C303 C302 1.369 . S
C303 C304 1.404 . S
C304 H287 0.940 . S
C304 C303 1.404 . S
C304 C305 1.389 . S
C305 H288 0.939 . S
C305 C300 1.400 . S
C305 C304 1.389 . S
C306 P280 1.819 . S
C306 C307 1.391 . S
C306 C311 1.391 . S
C307 H289 0.941 . S
C307 C306 1.391 . S
C307 C308 1.396 . S
C308 H292 0.939 . S
C308 C307 1.396 . S
C308 C309 1.397 . S
C309 C308 1.397 . S
C309 C310 1.385 . S
C310 H293 0.940 . S
C310 C309 1.385 . S
C310 C311 1.388 . S
C311 H290 0.939 . S
C311 C306 1.391 . S
C311 C310 1.388 . S
P312 O323 1.490 . S
P312 C326 1.812 . S
P312 C332 1.803 . S
P312 C338 1.819 . S
H313 C327 0.941 . S
H314 C328 0.939 . S
H315 C330 0.940 . S
H316 C331 0.940 . S
H317 C333 0.939 . S
H318 C334 0.942 . S
H319 C336 0.940 . S
H320 C337 0.939 . S
H321 C339 0.941 . S
H322 C343 0.939 . S
O323 P312 1.490 . S
H324 C340 0.939 . S
H325 C342 0.937 1_455 S
C326 P312 1.812 . S
C326 C327 1.389 . S
C326 C331 1.391 . S
C327 H313 0.941 . S
C327 C326 1.389 . S
C327 C328 1.397 . S
C328 H314 0.939 . S
C328 C327 1.397 . S
C328 C329 1.378 . S
C329 C328 1.378 . S
C329 C330 1.378 . S
C330 H315 0.940 . S
C330 C329 1.378 . S
C330 C331 1.396 . S
C331 H316 0.940 . S
C331 C326 1.391 . S
C331 C330 1.396 . S
C332 P312 1.803 . S
C332 C333 1.378 . S
C332 C337 1.400 . S
C333 H317 0.939 . S
C333 C332 1.378 . S
C333 C334 1.361 . S
C334 H318 0.942 . S
C334 C333 1.361 . S
C334 C335 1.369 . S
C335 C334 1.369 . S
C335 C336 1.404 . S
C336 H319 0.940 . S
C336 C335 1.404 . S
C336 C337 1.389 . S
C337 H320 0.939 . S
C337 C332 1.400 . S
C337 C336 1.389 . S
C338 P312 1.819 . S
C338 C339 1.391 . S
C338 C343 1.391 . S
C339 H321 0.941 . S
C339 C338 1.391 . S
C339 C340 1.396 . S
C340 H324 0.939 . S
C340 C339 1.396 . S
C340 C341 1.397 1_655 S
C341 C340 1.397 1_455 S
C341 C342 1.383 1_455 S
C342 H325 0.937 1_655 S
C342 C341 1.383 1_655 S
C342 C343 1.393 . S
C343 H322 0.939 . S
C343 C338 1.391 . S
C343 C342 1.393 . S
H344 C350 0.930 . S
H345 C354 0.930 . S
H346 C359 0.929 . S
H347 C357 0.929 . S
H348 C352 0.929 . S
H349 C358 0.929 . S
C350 H344 0.930 . S
C350 C351 1.367 . S
C350 C358 1.378 . S
C351 C350 1.367 . S
C351 C359 1.433 . S
C352 H348 0.929 . S
C352 C354 1.378 . S
C352 C356 1.350 . S
C353 C356 1.463 . S
C353 C358 1.350 . S
C353 N361 1.427 . S
C354 H345 0.930 . S
C354 C352 1.378 . S
C354 C355 1.367 . S
C355 C354 1.367 . S
C355 C357 1.433 1_565 S
C356 C352 1.350 . S
C356 C353 1.463 . S
C356 N360 1.427 . S
C357 H347 0.929 . S
C357 C355 1.433 1_545 S
C357 N360 1.384 1_545 S
C358 H349 0.929 . S
C358 C350 1.378 . S
C358 C353 1.350 . S
C359 H346 0.929 . S
C359 C351 1.433 . S
C359 N361 1.384 . S
N360 C356 1.427 . S
N360 C357 1.384 1_565 S
N361 C353 1.427 . S
N361 C359 1.384 . S
H362 C368 0.930 . S
H363 C372 0.930 . S
H364 C377 0.929 . S
H365 C375 0.929 . S
H366 C370 0.929 . S
H367 C376 0.929 . S
C368 H362 0.930 . S
C368 C369 1.367 . S
C368 C376 1.378 . S
C369 C368 1.367 . S
C369 C377 1.433 . S
C370 H366 0.929 . S
C370 C372 1.378 . S
C370 C374 1.350 . S
C371 C374 1.463 . S
C371 C376 1.350 . S
C371 N379 1.427 . S
C372 H363 0.930 . S
C372 C370 1.378 . S
C372 C373 1.367 . S
C373 C372 1.367 . S
C373 C375 1.433 . S
C374 C370 1.350 . S
C374 C371 1.463 . S
C374 N378 1.427 . S
C375 H365 0.929 . S
C375 C373 1.433 . S
C375 N378 1.384 . S
C376 H367 0.929 . S
C376 C368 1.378 . S
C376 C371 1.350 . S
C377 H364 0.929 . S
C377 C369 1.433 . S
C377 N379 1.384 . S
N378 C374 1.427 . S
N378 C375 1.384 . S
N379 C371 1.427 . S
N379 C377 1.384 . S
H380 C386 0.930 . S
H381 C390 0.930 . S
H382 C395 0.929 . S
H383 C393 0.929 . S
H384 C388 0.929 . S
H385 C394 0.929 . S
C386 H380 0.930 . S
C386 C387 1.367 . S
C386 C394 1.378 . S
C387 C386 1.367 . S
C387 C395 1.433 . S
C388 H384 0.929 . S
C388 C390 1.378 . S
C388 C392 1.350 1_565 S
C389 C392 1.463 . S
C389 C394 1.350 . S
C389 N397 1.427 . S
C390 H381 0.930 . S
C390 C388 1.378 . S
C390 C391 1.367 . S
C391 C390 1.367 . S
C391 C393 1.433 . S
C392 C388 1.350 1_545 S
C392 C389 1.463 . S
C392 N396 1.427 . S
C393 H383 0.929 . S
C393 C391 1.433 . S
C393 N396 1.384 1_565 S
C394 H385 0.929 . S
C394 C386 1.378 . S
C394 C389 1.350 . S
C395 H382 0.929 . S
C395 C387 1.433 . S
C395 N397 1.384 . S
N396 C392 1.427 . S
N396 C393 1.384 1_545 S
N397 C389 1.427 . S
N397 C395 1.384 . S
H398 C404 0.930 . S
H399 C408 0.930 . S
H400 C413 0.929 . S
H401 C411 0.929 . S
H402 C406 0.929 . S
H403 C412 0.929 . S
C404 H398 0.930 . S
C404 C405 1.367 . S
C404 C412 1.378 . S
C405 C404 1.367 . S
C405 C413 1.433 . S
C406 H402 0.929 . S
C406 C408 1.378 . S
C406 C410 1.350 . S
C407 C410 1.463 . S
C407 C412 1.350 . S
C407 N415 1.427 . S
C408 H399 0.930 . S
C408 C406 1.378 . S
C408 C409 1.367 . S
C409 C408 1.367 . S
C409 C411 1.433 . S
C410 C406 1.350 . S
C410 C407 1.463 . S
C410 N414 1.427 . S
C411 H401 0.929 . S
C411 C409 1.433 . S
C411 N414 1.384 . S
C412 H403 0.929 . S
C412 C404 1.378 . S
C412 C407 1.350 . S
C413 H400 0.929 . S
C413 C405 1.433 . S
C413 N415 1.384 . S
N414 C410 1.427 . S
N414 C411 1.384 . S
N415 C407 1.427 . S
N415 C413 1.384 . S
H416 C422 0.930 . S
H417 C426 0.930 . S
H418 C431 0.929 . S
H419 C429 0.929 . S
H420 C424 0.929 . S
H421 C430 0.929 . S
C422 H416 0.930 . S
C422 C423 1.367 . S
C422 C430 1.378 . S
C423 C422 1.367 . S
C423 C431 1.433 . S
C424 H420 0.929 . S
C424 C426 1.378 . S
C424 C428 1.350 . S
C425 C428 1.463 . S
C425 C430 1.350 . S
C425 N433 1.427 . S
C426 H417 0.930 . S
C426 C424 1.378 . S
C426 C427 1.367 . S
C427 C426 1.367 . S
C427 C429 1.433 . S
C428 C424 1.350 . S
C428 C425 1.463 . S
C428 N432 1.427 . S
C429 H419 0.929 . S
C429 C427 1.433 . S
C429 N432 1.384 . S
C430 H421 0.929 . S
C430 C422 1.378 . S
C430 C425 1.350 . S
C431 H418 0.929 . S
C431 C423 1.433 . S
C431 N433 1.384 . S
N432 C428 1.427 . S
N432 C429 1.384 . S
N433 C425 1.427 . S
N433 C431 1.384 . S
H434 C440 0.930 . S
H435 C444 0.930 . S
H436 C449 0.929 . S
H437 C447 0.929 . S
H438 C442 0.929 . S
H439 C448 0.929 . S
C440 H434 0.930 . S
C440 C441 1.367 . S
C440 C448 1.378 1_655 S
C441 C440 1.367 . S
C441 C449 1.433 . S
C442 H438 0.929 . S
C442 C444 1.378 . S
C442 C446 1.350 . S
C443 C446 1.463 . S
C443 C448 1.350 . S
C443 N451 1.427 . S
C444 H435 0.930 . S
C444 C442 1.378 . S
C444 C445 1.367 . S
C445 C444 1.367 . S
C445 C447 1.433 . S
C446 C442 1.350 . S
C446 C443 1.463 . S
C446 N450 1.427 . S
C447 H437 0.929 . S
C447 C445 1.433 . S
C447 N450 1.384 . S
C448 H439 0.929 . S
C448 C440 1.378 1_455 S
C448 C443 1.350 . S
C449 H436 0.929 . S
C449 C441 1.433 . S
C449 N451 1.384 1_655 S
N450 C446 1.427 . S
N450 C447 1.384 . S
N451 C443 1.427 . S
N451 C449 1.384 1_455 S
H452 C458 0.930 . S
H453 C462 0.930 . S
H454 C467 0.929 . S
H455 C465 0.929 . S
H456 C460 0.929 . S
H457 C466 0.929 . S
C458 H452 0.930 . S
C458 C459 1.367 . S
C458 C466 1.378 . S
C459 C458 1.367 . S
C459 C467 1.433 . S
C460 H456 0.929 . S
C460 C462 1.378 . S
C460 C464 1.350 . S
C461 C464 1.463 . S
C461 C466 1.350 . S
C461 N469 1.427 . S
C462 H453 0.930 . S
C462 C460 1.378 . S
C462 C463 1.367 . S
C463 C462 1.367 . S
C463 C465 1.433 . S
C464 C460 1.350 . S
C464 C461 1.463 . S
C464 N468 1.427 . S
C465 H455 0.929 . S
C465 C463 1.433 . S
C465 N468 1.384 . S
C466 H457 0.929 . S
C466 C458 1.378 . S
C466 C461 1.350 . S
C467 H454 0.929 . S
C467 C459 1.433 . S
C467 N469 1.384 . S
N468 C464 1.427 . S
N468 C465 1.384 . S
N469 C461 1.427 . S
N469 C467 1.384 . S
H470 C476 0.930 . S
H471 C480 0.930 . S
H472 C485 0.929 . S
H473 C483 0.929 1_655 S
H474 C478 0.929 . S
H475 C484 0.929 . S
C476 H470 0.930 . S
C476 C477 1.367 . S
C476 C484 1.378 . S
C477 C476 1.367 . S
C477 C485 1.433 . S
C478 H474 0.929 . S
C478 C480 1.378 . S
C478 C482 1.350 . S
C479 C482 1.463 . S
C479 C484 1.350 . S
C479 N487 1.427 . S
C480 H471 0.930 . S
C480 C478 1.378 . S
C480 C481 1.367 . S
C481 C480 1.367 . S
C481 C483 1.433 . S
C482 C478 1.350 . S
C482 C479 1.463 . S
C482 N486 1.427 . S
C483 H473 0.929 1_455 S
C483 C481 1.433 . S
C483 N486 1.384 . S
C484 H475 0.929 . S
C484 C476 1.378 . S
C484 C479 1.350 . S
C485 H472 0.929 . S
C485 C477 1.433 . S
C485 N487 1.384 . S
N486 C482 1.427 . S
N486 C483 1.384 . S
N487 C479 1.427 . S
N487 C485 1.384 . S
H488 C494 0.930 . S
H489 C498 0.930 . S
H490 C503 0.929 . S
H491 C501 0.929 . S
H492 C496 0.929 . S
H493 C502 0.929 . S
C494 H488 0.930 . S
C494 C495 1.367 . S
C494 C502 1.378 . S
C495 C494 1.367 . S
C495 C503 1.433 . S
C496 H492 0.929 . S
C496 C498 1.378 1_545 S
C496 C500 1.350 . S
C497 C500 1.463 . S
C497 C502 1.350 . S
C497 N505 1.427 . S
C498 H489 0.930 . S
C498 C496 1.378 1_565 S
C498 C499 1.362 1_565 S
C499 C498 1.362 1_545 S
C499 C501 1.445 . S
C500 C496 1.350 . S
C500 C497 1.463 . S
C500 N504 1.427 . S
C501 H491 0.929 . S
C501 C499 1.445 . S
C501 N504 1.384 . S
C502 H493 0.929 . S
C502 C494 1.378 . S
C502 C497 1.350 . S
C503 H490 0.929 . S
C503 C495 1.433 . S
C503 N505 1.384 . S
N504 C500 1.427 . S
N504 C501 1.384 . S
N505 C497 1.427 . S
N505 C503 1.384 . S
H506 C512 0.930 . S
H507 C516 0.930 . S
H508 C521 0.929 . S
H509 C519 0.929 . S
H510 C514 0.929 . S
H511 C520 0.929 . S
C512 H506 0.930 . S
C512 C513 1.367 . S
C512 C520 1.378 . S
C513 C512 1.367 . S
C513 C521 1.433 . S
C514 H510 0.929 . S
C514 C516 1.378 . S
C514 C518 1.350 . S
C515 C518 1.463 . S
C515 C520 1.350 . S
C515 N523 1.427 . S
C516 H507 0.930 . S
C516 C514 1.378 . S
C516 C517 1.367 . S
C517 C516 1.367 . S
C517 C519 1.433 . S
C518 C514 1.350 . S
C518 C515 1.463 . S
C518 N522 1.427 . S
C519 H509 0.929 . S
C519 C517 1.433 . S
C519 N522 1.384 . S
C520 H511 0.929 . S
C520 C512 1.378 . S
C520 C515 1.350 . S
C521 H508 0.929 . S
C521 C513 1.433 . S
C521 N523 1.384 . S
N522 C518 1.427 . S
N522 C519 1.384 . S
N523 C515 1.427 . S
N523 C521 1.384 . S
H524 C530 0.930 . S
H525 C534 0.930 . S
H526 C539 0.929 . S
H527 C537 0.929 . S
H528 C532 0.929 . S
H529 C538 0.929 . S
C530 H524 0.930 . S
C530 C531 1.362 1_554 S
C530 C538 1.378 . S
C531 C530 1.362 1_556 S
C531 C539 1.442 . S
C532 H528 0.929 . S
C532 C534 1.378 1_565 S
C532 C536 1.350 . S
C533 C536 1.463 . S
C533 C538 1.350 1_556 S
C533 N541 1.427 . S
C534 H525 0.930 . S
C534 C532 1.378 1_545 S
C534 C535 1.367 . S
C535 C534 1.367 . S
C535 C537 1.433 . S
C536 C532 1.350 . S
C536 C533 1.463 . S
C536 N540 1.427 1_565 S
C537 H527 0.929 . S
C537 C535 1.433 . S
C537 N540 1.384 . S
C538 H529 0.929 . S
C538 C530 1.378 . S
C538 C533 1.350 1_554 S
C539 H526 0.929 . S
C539 C531 1.442 . S
C539 N541 1.384 . S
N540 C536 1.427 1_545 S
N540 C537 1.384 . S
N541 C533 1.427 . S
N541 C539 1.384 . S
H542 C548 0.930 . S
H543 C552 0.930 . S
H544 C557 0.929 . S
H545 C555 0.929 . S
H546 C550 0.929 . S
H547 C556 0.929 . S
C548 H542 0.930 . S
C548 C549 1.367 . S
C548 C556 1.378 . S
C549 C548 1.367 . S
C549 C557 1.433 . S
C550 H546 0.929 . S
C550 C552 1.378 . S
C550 C554 1.350 . S
C551 C554 1.463 . S
C551 C556 1.350 . S
C551 N559 1.427 . S
C552 H543 0.930 . S
C552 C550 1.378 . S
C552 C553 1.367 . S
C553 C552 1.367 . S
C553 C555 1.433 . S
C554 C550 1.350 . S
C554 C551 1.463 . S
C554 N558 1.427 . S
C555 H545 0.929 . S
C555 C553 1.433 . S
C555 N558 1.384 . S
C556 H547 0.929 . S
C556 C548 1.378 . S
C556 C551 1.350 . S
C557 H544 0.929 . S
C557 C549 1.433 . S
C557 N559 1.384 . S
N558 C554 1.427 . S
N558 C555 1.384 . S
N559 C551 1.427 . S
N559 C557 1.384 . S
H560 C566 0.930 . S
H561 C570 0.930 . S
H562 C575 0.929 . S
H563 C573 0.929 . S
H564 C568 0.929 . S
H565 C574 0.929 . S
C566 H560 0.930 . S
C566 C567 1.367 . S
C566 C574 1.378 . S
C567 C566 1.367 . S
C567 C575 1.433 . S
C568 H564 0.929 . S
C568 C570 1.378 . S
C568 C572 1.350 . S
C569 C572 1.463 . S
C569 C574 1.350 . S
C569 N577 1.427 . S
C570 H561 0.930 . S
C570 C568 1.378 . S
C570 C571 1.367 . S
C571 C570 1.367 . S
C571 C573 1.433 . S
C572 C568 1.350 . S
C572 C569 1.463 . S
C572 N576 1.427 . S
C573 H563 0.929 . S
C573 C571 1.433 . S
C573 N576 1.384 . S
C574 H565 0.929 . S
C574 C566 1.378 . S
C574 C569 1.350 . S
C575 H562 0.929 . S
C575 C567 1.433 . S
C575 N577 1.384 . S
N576 C572 1.427 . S
N576 C573 1.384 . S
N577 C569 1.427 . S
N577 C575 1.384 . S
H578 C584 0.930 . S
H579 C588 0.930 . S
H580 C593 0.929 . S
H581 C591 0.929 . S
H582 C586 0.929 . S
H583 C592 0.929 . S
C584 H578 0.930 . S
C584 C585 1.367 . S
C584 C592 1.378 1_455 S
C585 C584 1.367 . S
C585 C593 1.433 . S
C586 H582 0.929 . S
C586 C588 1.378 . S
C586 C590 1.350 . S
C587 C590 1.463 . S
C587 C592 1.350 . S
C587 N595 1.427 . S
C588 H579 0.930 . S
C588 C586 1.378 . S
C588 C589 1.367 . S
C589 C588 1.367 . S
C589 C591 1.433 . S
C590 C586 1.350 . S
C590 C587 1.463 . S
C590 N594 1.427 . S
C591 H581 0.929 . S
C591 C589 1.433 . S
C591 N594 1.384 . S
C592 H583 0.929 . S
C592 C584 1.378 1_655 S
C592 C587 1.350 . S
C593 H580 0.929 . S
C593 C585 1.433 . S
C593 N595 1.384 1_455 S
N594 C590 1.427 . S
N594 C591 1.384 . S
N595 C587 1.427 . S
N595 C593 1.384 1_655 S
H596 C602 0.930 . S
H597 C606 0.930 . S
H598 C611 0.929 . S
H599 C609 0.929 . S
H600 C604 0.929 . S
H601 C610 0.929 . S
C602 H596 0.930 . S
C602 C603 1.367 . S
C602 C610 1.378 . S
C603 C602 1.367 . S
C603 C611 1.433 . S
C604 H600 0.929 . S
C604 C606 1.378 . S
C604 C608 1.350 . S
C605 C608 1.463 . S
C605 C610 1.350 . S
C605 N613 1.427 . S
C606 H597 0.930 . S
C606 C604 1.378 . S
C606 C607 1.367 . S
C607 C606 1.367 . S
C607 C609 1.433 . S
C608 C604 1.350 . S
C608 C605 1.463 . S
C608 N612 1.427 . S
C609 H599 0.929 . S
C609 C607 1.433 . S
C609 N612 1.384 . S
C610 H601 0.929 . S
C610 C602 1.378 . S
C610 C605 1.350 . S
C611 H598 0.929 . S
C611 C603 1.433 . S
C611 N613 1.384 . S
N612 C608 1.427 . S
N612 C609 1.384 . S
N613 C605 1.427 . S
N613 C611 1.384 . S
H614 C620 0.930 . S
H615 C624 0.930 . S
H616 C629 0.929 . S
H617 C627 0.929 . S
H618 C622 0.929 . S
H619 C628 0.929 . S
C620 H614 0.930 . S
C620 C621 1.367 . S
C620 C628 1.378 . S
C621 C620 1.367 . S
C621 C629 1.433 . S
C622 H618 0.929 . S
C622 C624 1.378 . S
C622 C626 1.350 . S
C623 C626 1.463 . S
C623 C628 1.350 . S
C623 N631 1.427 . S
C624 H615 0.930 . S
C624 C622 1.378 . S
C624 C625 1.367 . S
C625 C624 1.367 . S
C625 C627 1.433 . S
C626 C622 1.350 . S
C626 C623 1.463 . S
C626 N630 1.427 . S
C627 H617 0.929 . S
C627 C625 1.433 . S
C627 N630 1.384 . S
C628 H619 0.929 . S
C628 C620 1.378 . S
C628 C623 1.350 . S
C629 H616 0.929 . S
C629 C621 1.433 . S
C629 N631 1.384 . S
N630 C626 1.427 . S
N630 C627 1.384 . S
N631 C623 1.427 . S
N631 C629 1.384 . S
H632 C638 0.930 . S
H633 C642 0.930 . S
H634 C647 0.929 . S
H635 C645 0.929 . S
H636 C640 0.929 . S
H637 C646 0.929 . S
C638 H632 0.930 . S
C638 C639 1.367 . S
C638 C646 1.378 . S
C639 C638 1.367 . S
C639 C647 1.433 . S
C640 H636 0.929 . S
C640 C642 1.378 . S
C640 C644 1.350 . S
C641 C644 1.463 . S
C641 C646 1.350 . S
C641 N649 1.427 . S
C642 H633 0.930 . S
C642 C640 1.378 . S
C642 C643 1.367 . S
C643 C642 1.367 . S
C643 C645 1.433 . S
C644 C640 1.350 . S
C644 C641 1.463 . S
C644 N648 1.427 . S
C645 H635 0.929 . S
C645 C643 1.433 . S
C645 N648 1.384 . S
C646 H637 0.929 . S
C646 C638 1.378 . S
C646 C641 1.350 . S
C647 H634 0.929 . S
C647 C639 1.433 . S
C647 N649 1.384 . S
N648 C644 1.427 . S
N648 C645 1.384 . S
N649 C641 1.427 . S
N649 C647 1.384 . S
H650 C656 0.930 . S
H651 C660 0.930 . S
H652 C665 0.929 . S
H653 C663 0.929 . S
H654 C658 0.929 . S
H655 C664 0.929 . S
C656 H650 0.930 . S
C656 C657 1.367 . S
C656 C664 1.378 . S
C657 C656 1.367 . S
C657 C665 1.433 . S
C658 H654 0.929 . S
C658 C660 1.378 . S
C658 C662 1.350 . S
C659 C662 1.463 . S
C659 C664 1.350 . S
C659 N667 1.427 . S
C660 H651 0.930 . S
C660 C658 1.378 . S
C660 C661 1.367 . S
C661 C660 1.367 . S
C661 C663 1.433 . S
C662 C658 1.350 . S
C662 C659 1.463 . S
C662 N666 1.427 . S
C663 H653 0.929 . S
C663 C661 1.433 . S
C663 N666 1.384 . S
C664 H655 0.929 . S
C664 C656 1.378 . S
C664 C659 1.350 . S
C665 H652 0.929 . S
C665 C657 1.433 . S
C665 N667 1.384 . S
N666 C662 1.427 . S
N666 C663 1.384 . S
N667 C659 1.427 . S
N667 C665 1.384 . S
H668 C674 0.930 . S
H669 C678 0.930 . S
H670 C683 0.929 . S
H671 C681 0.929 . S
H672 C676 0.929 . S
H673 C682 0.929 . S
C674 H668 0.930 . S
C674 C675 1.367 . S
C674 C682 1.378 . S
C675 C674 1.367 . S
C675 C683 1.433 . S
C676 H672 0.929 . S
C676 C678 1.378 . S
C676 C680 1.350 . S
C677 C680 1.463 . S
C677 C682 1.350 . S
C677 N685 1.427 . S
C678 H669 0.930 . S
C678 C676 1.378 . S
C678 C679 1.367 . S
C679 C678 1.367 . S
C679 C681 1.433 . S
C680 C676 1.350 . S
C680 C677 1.463 . S
C680 N684 1.427 . S
C681 H671 0.929 . S
C681 C679 1.433 . S
C681 N684 1.384 . S
C682 H673 0.929 . S
C682 C674 1.378 . S
C682 C677 1.350 . S
C683 H670 0.929 . S
C683 C675 1.433 . S
C683 N685 1.384 . S
N684 C680 1.427 . S
N684 C681 1.384 . S
N685 C677 1.427 . S
N685 C683 1.384 . S
H686 C692 0.930 . S
H687 C696 0.930 . S
H688 C701 0.929 . S
H689 C699 0.929 . S
H690 C694 0.929 . S
H691 C700 0.929 . S
C692 H686 0.930 . S
C692 C693 1.367 . S
C692 C700 1.378 . S
C693 C692 1.367 . S
C693 C701 1.433 . S
C694 H690 0.929 . S
C694 C696 1.378 . S
C694 C698 1.350 . S
C695 C698 1.463 . S
C695 C700 1.350 . S
C695 N703 1.427 . S
C696 H687 0.930 . S
C696 C694 1.378 . S
C696 C697 1.367 . S
C697 C696 1.367 . S
C697 C699 1.433 . S
C698 C694 1.350 . S
C698 C695 1.463 . S
C698 N702 1.427 . S
C699 H689 0.929 . S
C699 C697 1.433 . S
C699 N702 1.384 . S
C700 H691 0.929 . S
C700 C692 1.378 . S
C700 C695 1.350 . S
C701 H688 0.929 . S
C701 C693 1.433 . S
C701 N703 1.384 . S
N702 C698 1.427 . S
N702 C699 1.384 . S
N703 C695 1.427 . S
N703 C701 1.384 . S
H704 C710 0.930 . S
H705 C714 0.930 . S
H706 C719 0.929 . S
H707 C717 0.929 . S
H708 C712 0.929 . S
H709 C718 0.929 . S
C710 H704 0.930 . S
C710 C711 1.367 . S
C710 C718 1.378 . S
C711 C710 1.367 . S
C711 C719 1.433 . S
C712 H708 0.929 . S
C712 C714 1.378 . S
C712 C716 1.350 . S
C713 C716 1.463 . S
C713 C718 1.350 . S
C713 N721 1.427 . S
C714 H705 0.930 . S
C714 C712 1.378 . S
C714 C715 1.367 . S
C715 C714 1.367 . S
C715 C717 1.433 . S
C716 C712 1.350 . S
C716 C713 1.463 . S
C716 N720 1.427 . S
C717 H707 0.929 . S
C717 C715 1.433 . S
C717 N720 1.384 . S
C718 H709 0.929 . S
C718 C710 1.378 . S
C718 C713 1.350 . S
C719 H706 0.929 . S
C719 C711 1.433 . S
C719 N721 1.384 . S
N720 C716 1.427 . S
N720 C717 1.384 . S
N721 C713 1.427 . S
N721 C719 1.384 . S
H722 C728 0.930 . S
H723 C732 0.930 . S
H724 C737 0.929 . S
H725 C735 0.929 . S
H726 C730 0.929 . S
H727 C736 0.929 . S
C728 H722 0.930 . S
C728 C729 1.367 . S
C728 C736 1.378 . S
C729 C728 1.367 . S
C729 C737 1.433 . S
C730 H726 0.929 . S
C730 C732 1.378 . S
C730 C734 1.350 . S
C731 C734 1.463 . S
C731 C736 1.350 . S
C731 N739 1.427 . S
C732 H723 0.930 . S
C732 C730 1.378 . S
C732 C733 1.367 . S
C733 C732 1.367 . S
C733 C735 1.433 . S
C734 C730 1.350 . S
C734 C731 1.463 . S
C734 N738 1.427 . S
C735 H725 0.929 . S
C735 C733 1.433 . S
C735 N738 1.384 . S
C736 H727 0.929 . S
C736 C728 1.378 . S
C736 C731 1.350 . S
C737 H724 0.929 . S
C737 C729 1.433 . S
C737 N739 1.384 . S
N738 C734 1.427 . S
N738 C735 1.384 . S
N739 C731 1.427 . S
N739 C737 1.384 . S
H740 C746 0.930 . S
H741 C750 0.930 . S
H742 C755 0.929 . S
H743 C753 0.929 . S
H744 C748 0.929 . S
H745 C754 0.929 . S
C746 H740 0.930 . S
C746 C747 1.367 . S
C746 C754 1.378 . S
C747 C746 1.367 . S
C747 C755 1.433 . S
C748 H744 0.929 . S
C748 C750 1.378 . S
C748 C752 1.350 . S
C749 C752 1.463 . S
C749 C754 1.350 . S
C749 N757 1.427 . S
C750 H741 0.930 . S
C750 C748 1.378 . S
C750 C751 1.367 . S
C751 C750 1.367 . S
C751 C753 1.433 . S
C752 C748 1.350 . S
C752 C749 1.463 . S
C752 N756 1.427 . S
C753 H743 0.929 . S
C753 C751 1.433 . S
C753 N756 1.384 . S
C754 H745 0.929 . S
C754 C746 1.378 . S
C754 C749 1.350 . S
C755 H742 0.929 . S
C755 C747 1.433 . S
C755 N757 1.384 . S
N756 C752 1.427 . S
N756 C753 1.384 . S
N757 C749 1.427 . S
N757 C755 1.384 . S
H758 C764 0.930 . S
H759 C768 0.930 . S
H760 C773 0.929 . S
H761 C771 0.929 . S
H762 C766 0.929 . S
H763 C772 0.929 . S
C764 H758 0.930 . S
C764 C765 1.367 . S
C764 C772 1.378 . S
C765 C764 1.367 . S
C765 C773 1.433 . S
C766 H762 0.929 . S
C766 C768 1.378 . S
C766 C770 1.350 . S
C767 C770 1.463 . S
C767 C772 1.350 . S
C767 N775 1.427 . S
C768 H759 0.930 . S
C768 C766 1.378 . S
C768 C769 1.367 . S
C769 C768 1.367 . S
C769 C771 1.433 . S
C770 C766 1.350 . S
C770 C767 1.463 . S
C770 N774 1.427 . S
C771 H761 0.929 . S
C771 C769 1.433 . S
C771 N774 1.384 . S
C772 H763 0.929 . S
C772 C764 1.378 . S
C772 C767 1.350 . S
C773 H760 0.929 . S
C773 C765 1.433 . S
C773 N775 1.384 . S
N774 C770 1.427 . S
N774 C771 1.384 . S
N775 C767 1.427 . S
N775 C773 1.384 . S
C351 C8 1.513 . S
C355 C105 1.517 1_565 S
C369 C31 1.363 . S
C373 C137 1.345 . S
C387 C53 1.641 . S
C391 C169 1.512 . S
C409 C213 1.426 . S
C405 C74 1.397 . S
C427 C233 1.464 . S
C423 C26 1.469 . S
C441 C48 1.407 . S
C445 C277 1.439 . S
C459 C71 1.608 . S
C463 C297 1.491 . S
C477 C5 1.386 . S
C481 C341 1.261 . S
C495 C50 1.509 . S
C499 C329 1.367 1_545 S
C517 C245 1.399 . S
C513 C70 1.427 . S
C535 C265 1.632 . S
C531 C4 1.634 1_556 S
C549 C28 1.401 . S
C553 C309 1.327 . S
C571 C149 1.532 . S
C567 C73 1.528 . S
C585 C7 1.402 . S
C589 C181 1.339 . S
C607 C201 1.601 . S
C603 C30 1.615 . S
C625 C117 1.377 . S
C621 C52 1.400 . S
C643 C303 1.352 . S
C639 C9 1.490 . S
C661 C335 1.277 . S
C657 C29 1.359 . S
C675 C51 1.357 . S
C679 C239 1.376 . S
C697 C271 1.514 . S
C693 C75 1.524 . S
C715 C175 1.362 . S
C711 C27 1.512 . S
C729 C49 1.498 . S
C733 C207 1.488 . S
C751 C111 1.390 . S
C747 C72 1.369 . S
C769 C143 1.371 . S
C765 C6 1.346 1_556 S
