# Generated by pormake.
# Topology zzz, (3,6)-cn, num edge types: 1
# Building blocks:
#     Node 0, Type 0, BuildingBlock: CUQRIR_clean_linker_1, # of connection points: 3
#     Node 1, Type 0, BuildingBlock: CUQRIR_clean_linker_1, # of connection points: 3
#     Node 2, Type 0, BuildingBlock: CUQRIR_clean_linker_1, # of connection points: 3
#     Node 3, Type 0, BuildingBlock: CUQRIR_clean_linker_1, # of connection points: 3
#     Node 4, Type 0, BuildingBlock: CUQRIR_clean_linker_1, # of connection points: 3
#     Node 5, Type 0, BuildingBlock: CUQRIR_clean_linker_1, # of connection points: 3
#     Node 6, Type 0, BuildingBlock: CUQRIR_clean_linker_1, # of connection points: 3
#     Node 7, Type 0, BuildingBlock: CUQRIR_clean_linker_1, # of connection points: 3
#     Node 8, Type 1, BuildingBlock: BETDAH_clean_sbu_0, # of connection points: 6
#     Node 9, Type 1, BuildingBlock: BETDAH_clean_sbu_0, # of connection points: 6
#     Node 10, Type 1, BuildingBlock: BETDAH_clean_sbu_0, # of connection points: 6
#     Node 11, Type 1, BuildingBlock: BETDAH_clean_sbu_0, # of connection points: 6
#     Edge 12, Type (0, 1), BuildingBlock: KIFKEQ_clean_linker_1, # of connection points: 2
#     Edge 13, Type (0, 1), BuildingBlock: KIFKEQ_clean_linker_1, # of connection points: 2
#     Edge 14, Type (0, 1), BuildingBlock: KIFKEQ_clean_linker_1, # of connection points: 2
#     Edge 15, Type (0, 1), BuildingBlock: KIFKEQ_clean_linker_1, # of connection points: 2
#     Edge 16, Type (0, 1), BuildingBlock: KIFKEQ_clean_linker_1, # of connection points: 2
#     Edge 17, Type (0, 1), BuildingBlock: KIFKEQ_clean_linker_1, # of connection points: 2
#     Edge 18, Type (0, 1), BuildingBlock: KIFKEQ_clean_linker_1, # of connection points: 2
#     Edge 19, Type (0, 1), BuildingBlock: KIFKEQ_clean_linker_1, # of connection points: 2
#     Edge 20, Type (0, 1), BuildingBlock: KIFKEQ_clean_linker_1, # of connection points: 2
#     Edge 21, Type (0, 1), BuildingBlock: KIFKEQ_clean_linker_1, # of connection points: 2
#     Edge 22, Type (0, 1), BuildingBlock: KIFKEQ_clean_linker_1, # of connection points: 2
#     Edge 23, Type (0, 1), BuildingBlock: KIFKEQ_clean_linker_1, # of connection points: 2
#     Edge 24, Type (0, 1), BuildingBlock: KIFKEQ_clean_linker_1, # of connection points: 2
#     Edge 25, Type (0, 1), BuildingBlock: KIFKEQ_clean_linker_1, # of connection points: 2
#     Edge 26, Type (0, 1), BuildingBlock: KIFKEQ_clean_linker_1, # of connection points: 2
#     Edge 27, Type (0, 1), BuildingBlock: KIFKEQ_clean_linker_1, # of connection points: 2
#     Edge 28, Type (0, 1), BuildingBlock: KIFKEQ_clean_linker_1, # of connection points: 2
#     Edge 29, Type (0, 1), BuildingBlock: KIFKEQ_clean_linker_1, # of connection points: 2
#     Edge 30, Type (0, 1), BuildingBlock: KIFKEQ_clean_linker_1, # of connection points: 2
#     Edge 31, Type (0, 1), BuildingBlock: KIFKEQ_clean_linker_1, # of connection points: 2
#     Edge 32, Type (0, 1), BuildingBlock: KIFKEQ_clean_linker_1, # of connection points: 2
#     Edge 33, Type (0, 1), BuildingBlock: KIFKEQ_clean_linker_1, # of connection points: 2
#     Edge 34, Type (0, 1), BuildingBlock: KIFKEQ_clean_linker_1, # of connection points: 2
#     Edge 35, Type (0, 1), BuildingBlock: KIFKEQ_clean_linker_1, # of connection points: 2
# Relax obj value: 0.306
# Max RMSD: 0.195
# Mean RMSD: 0.161
data_MOF--net-zzz--node1-BETDAH_clean_sbu_0--node2-CUQRIR_clean_linker_1--edge1-KIFKEQ_clean_linker_1
_symmetry_space_group_name_H-M    P1
_symmetry_Int_Tables_number       1
_symmetry_cell_setting            triclinic
loop_
_symmetry_equiv_pos_as_xyz
'x, y, z'
_cell_length_a     49.474595
_cell_length_b     49.334834
_cell_length_c     12.096005
_cell_angle_alpha  89.882478
_cell_angle_beta   89.885661
_cell_angle_gamma 89.839743
loop_
_atom_site_label
_atom_site_type_symbol
_atom_site_fract_x
_atom_site_fract_y
_atom_site_fract_z
_atom_type_partial_charge
C0 C 0.75158 0.51216 0.39214 0.0
N1 N 0.77326 0.49759 0.42782 0.0
N2 N 0.7334 0.49595 0.33916 0.0
C3 C 0.74838 0.54212 0.40831 0.0
C4 C 0.74531 0.4711 0.34266 0.0
N5 N 0.76923 0.47209 0.39686 0.0
C6 C 0.73443 0.44619 0.28632 0.0
H7 H 0.7267 0.54788 0.41078 0.0
H8 H 0.75818 0.55283 0.33823 0.0
H9 H 0.75845 0.54859 0.48576 0.0
H10 H 0.72585 0.45159 0.20444 0.0
H11 H 0.71802 0.43746 0.3377 0.0
H12 H 0.75006 0.4303 0.27556 0.0
C13 C 0.02998 0.74708 0.40165 0.0
N14 N 0.04501 0.76896 0.43154 0.0
N15 N 0.0453 0.72862 0.34517 0.0
C16 C 1.00044 0.74401 0.42599 0.0
C17 C 0.06997 0.74055 0.3402 0.0
N18 N 0.06982 0.76473 0.39291 0.0
C19 C 0.09372 0.7295 0.27604 0.0
H20 H 0.99506 0.75457 0.50394 0.0
H21 H 0.9949 0.72227 0.43189 0.0
H22 H 0.9887 0.75337 0.35776 0.0
H23 H 0.08683 0.72075 0.1965 0.0
H24 H 0.10343 0.7131 0.32475 0.0
H25 H 0.10923 0.74515 0.25948 0.0
C26 C 0.78813 0.02263 0.38986 0.0
N27 N 0.76569 0.03705 0.41831 0.0
N28 N 0.80564 0.0381 0.32936 0.0
C29 C 0.79277 0.99353 0.42059 0.0
C30 C 0.79252 0.06224 0.32055 0.0
N31 N 0.7686 0.06166 0.37514 0.0
C32 C 0.802 0.08564 0.25034 0.0
H33 H 0.78275 0.98876 0.50042 0.0
H34 H 0.81471 0.98903 0.42626 0.0
H35 H 0.78382 0.98042 0.35593 0.0
H36 H 0.81132 0.07812 0.17267 0.0
H37 H 0.81752 0.09715 0.29652 0.0
H38 H 0.78533 0.09983 0.22984 0.0
C39 C 0.51774 0.78371 0.37537 0.0
N40 N 0.50182 0.76391 0.41939 0.0
N41 N 0.50253 0.80293 0.32307 0.0
C42 C 0.54802 0.78285 0.37363 0.0
C43 C 0.47693 0.79378 0.3364 0.0
N44 N 0.47642 0.77022 0.3939 0.0
C45 C 0.45235 0.80686 0.28614 0.0
H46 H 0.55586 0.7716 0.44642 0.0
H47 H 0.55644 0.80366 0.37214 0.0
H48 H 0.55476 0.77221 0.29765 0.0
H49 H 0.44956 0.79909 0.20093 0.0
H50 H 0.45484 0.82919 0.2818 0.0
H51 H 0.434 0.80187 0.33501 0.0
C52 C 0.28907 0.52022 0.17202 0.0
N53 N 0.26749 0.53503 0.13693 0.0
N54 N 0.30741 0.53618 0.22536 0.0
C55 C 0.292 0.49026 0.15501 0.0
C56 C 0.2957 0.56113 0.22268 0.0
N57 N 0.27175 0.56043 0.16864 0.0
C58 C 0.30683 0.58584 0.27957 0.0
H59 H 0.28215 0.47951 0.22489 0.0
H60 H 0.31364 0.48432 0.1522 0.0
H61 H 0.28184 0.484 0.07747 0.0
H62 H 0.3233 0.59449 0.22831 0.0
H63 H 0.31538 0.58025 0.36126 0.0
H64 H 0.29135 0.60187 0.29079 0.0
C65 C 1.0104 0.28841 0.16179 0.0
N66 N 0.99536 0.26653 0.13196 0.0
N67 N 0.99508 0.30687 0.21826 0.0
C68 C 0.03994 0.29147 0.13751 0.0
C69 C 0.97041 0.29495 0.22324 0.0
N70 N 0.97055 0.27075 0.17062 0.0
C71 C 0.94668 0.306 0.28753 0.0
H72 H 0.05167 0.28203 0.20562 0.0
H73 H 0.04551 0.3132 0.13188 0.0
H74 H 0.04531 0.28095 0.05943 0.0
H75 H 0.93709 0.32255 0.2393 0.0
H76 H 0.95358 0.31455 0.36741 0.0
H77 H 0.93107 0.29041 0.30343 0.0
C78 C 0.25277 1.01713 0.17187 0.0
N79 N 0.27469 0.03103 0.13429 0.0
N80 N 0.23541 0.0339 0.2268 0.0
C81 C 0.24982 0.98696 0.16583 0.0
C82 C 0.24781 0.05834 0.22191 0.0
N83 N 0.27136 0.05667 0.16533 0.0
C84 C 0.23759 0.08355 0.27779 0.0
H85 H 0.22817 0.98115 0.16714 0.0
H86 H 0.25986 0.97773 0.23876 0.0
H87 H 0.25969 0.97898 0.09009 0.0
H88 H 0.24454 0.08354 0.36495 0.0
H89 H 0.21516 0.08401 0.27776 0.0
H90 H 0.24553 0.10197 0.23624 0.0
C91 C 0.52709 0.24481 0.17302 0.0
N92 N 0.54262 0.26604 0.13922 0.0
N93 N 0.54225 0.22585 0.22757 0.0
C94 C 0.49722 0.24289 0.15445 0.0
C95 C 0.56739 0.23682 0.22723 0.0
N96 N 0.56763 0.26094 0.17349 0.0
C97 C 0.59125 0.2251 0.28848 0.0
H98 H 0.48657 0.25321 0.22343 0.0
H99 H 0.49068 0.2214 0.1522 0.0
H100 H 0.49153 0.25321 0.07623 0.0
H101 H 0.59951 0.20775 0.24097 0.0
H102 H 0.58482 0.21749 0.37082 0.0
H103 H 0.60775 0.24 0.29902 0.0
Ho104 Ho 0.03378 1.01284 0.88617 0.0
Ho105 Ho 1.0075 0.0228 0.67805 0.0
C106 C 0.02472 0.96148 0.72279 0.0
C107 C 0.04922 1.00022 0.08415 0.0
C108 C 0.0671 0.98172 0.14533 0.0
C109 C 0.05609 0.96651 0.23198 0.0
C110 C 0.07192 0.94774 0.2885 0.0
C111 C 0.09931 0.94394 0.26045 0.0
C112 C 0.11077 0.96049 0.17796 0.0
C113 C 0.09476 0.97917 0.12044 0.0
C114 C 0.06967 0.02453 0.71994 0.0
C115 C 1.01661 0.07414 0.84135 0.0
C116 C 0.99217 0.03575 0.48033 0.0
C117 C 0.97377 0.05404 0.42101 0.0
C118 C 0.98373 0.0683 0.32972 0.0
C119 C 0.96747 0.08706 0.27513 0.0
C120 C 0.94068 0.0918 0.30994 0.0
C121 C 0.93022 0.07618 0.39761 0.0
C122 C 0.94668 0.05754 0.45314 0.0
C123 C 0.97152 1.01176 0.84538 0.0
O124 O 0.02696 0.96901 0.82772 0.0
O125 O 0.02171 0.98021 0.64588 0.0
O126 O 0.0607 1.01887 0.02373 0.0
O127 O 0.0281 0.9895 0.03635 0.0
O128 O 0.07144 0.03315 0.82044 0.0
O129 O 0.04923 1.00944 0.71283 0.0
O130 O 1.01455 0.06661 0.73634 0.0
O131 O 1.01939 0.05538 0.91831 0.0
O132 O 0.98118 1.01645 0.53883 0.0
O133 O 1.01285 0.0469 0.52965 0.0
O134 O 0.96924 1.00348 0.74453 0.0
O135 O 0.99225 0.02642 0.85125 0.0
H136 H 0.0349 0.9685 0.25361 0.0
H137 H 0.06213 0.93506 0.34955 0.0
H138 H 0.13185 0.95833 0.15523 0.0
H139 H 0.10388 0.99108 0.05503 0.0
H140 H 1.00449 0.06561 0.3029 0.0
H141 H 0.9766 0.09898 0.20995 0.0
H142 H 0.9096 0.07896 0.42563 0.0
H143 H 0.9384 0.0464 0.52259 0.0
Ho144 Ho 0.52595 0.02345 0.89057 0.0
Ho145 Ho 0.51051 1.00219 0.64163 0.0
C146 C 0.57414 1.01313 0.70873 0.0
C147 C 0.5355 0.02768 0.09877 0.0
C148 C 0.55008 0.04738 0.16666 0.0
C149 C 0.56502 0.03822 0.2573 0.0
C150 C 0.58295 0.0556 0.31027 0.0
C151 C 0.58626 0.08254 0.27368 0.0
C152 C 0.56938 0.09221 0.18867 0.0
C153 C 0.55153 0.07474 0.13528 0.0
C154 C 0.51877 0.0654 0.74255 0.0
C155 C 0.46374 1.01087 0.82445 0.0
C156 C 0.49841 1.00214 0.43374 0.0
C157 C 0.48273 1.01958 0.35747 0.0
C158 C 0.49072 0.04628 0.33271 0.0
C159 C 0.47358 0.06367 0.27397 0.0
C160 C 0.44869 0.0542 0.2351 0.0
C161 C 0.44176 0.02688 0.25158 0.0
C162 C 0.45858 1.00976 0.31249 0.0
C163 C 0.51947 0.96037 0.78917 0.0
O164 O 0.56774 1.0175 0.81464 0.0
O165 O 0.55573 1.00835 0.63101 0.0
O166 O 0.51319 0.03648 0.05243 0.0
O167 O 0.55066 1.01322 0.03171 0.0
O168 O 0.52566 0.06864 0.84519 0.0
O169 O 0.51558 0.04031 0.72978 0.0
O170 O 0.46991 1.01361 0.71775 0.0
O171 O 0.48269 1.00917 0.9016 0.0
O172 O 0.48437 0.98914 0.50907 0.0
O173 O 0.52102 1.01202 0.47277 0.0
O174 O 0.51421 0.9569 0.68483 0.0
O175 O 0.5202 0.98555 0.80331 0.0
H176 H 0.56405 1.01717 0.28284 0.0
H177 H 0.59583 0.04715 0.37359 0.0
H178 H 0.57099 0.11288 0.15916 0.0
H179 H 0.53994 0.0823 0.06584 0.0
H180 H 0.50986 0.05398 0.36072 0.0
H181 H 0.47943 0.08459 0.26127 0.0
H182 H 0.42251 1.01918 0.22319 0.0
H183 H 0.45217 0.98913 0.3282 0.0
Ho184 Ho 0.5075 0.5209 0.88566 0.0
Ho185 Ho 0.53352 0.50917 0.67625 0.0
C186 C 0.51829 0.57121 0.7177 0.0
C187 C 0.49307 0.53518 0.08294 0.0
C188 C 0.47578 0.55454 0.14238 0.0
C189 C 0.48703 0.56914 0.22973 0.0
C190 C 0.4717 0.58839 0.28587 0.0
C191 C 0.44455 0.59329 0.25703 0.0
C192 C 0.43294 0.57765 0.17232 0.0
C193 C 0.44844 0.55847 0.11523 0.0
C194 C 0.47118 0.51025 0.7204 0.0
C195 C 0.52283 0.45877 0.84414 0.0
C196 C 0.54806 0.49523 0.47874 0.0
C197 C 0.56616 0.47657 0.41986 0.0
C198 C 0.556 0.4624 0.32913 0.0
C199 C 0.57209 0.44354 0.27422 0.0
C200 C 0.5989 0.43863 0.30813 0.0
C201 C 0.60948 0.45405 0.39575 0.0
C202 C 0.59321 0.47279 0.45149 0.0
C203 C 0.56977 0.51993 0.84178 0.0
O204 O 0.5159 0.56416 0.82329 0.0
O205 O 0.52055 0.55212 0.64204 0.0
O206 O 0.48098 0.51633 0.026 0.0
O207 O 0.51428 0.54506 0.03235 0.0
O208 O 0.46849 0.50284 0.82236 0.0
O209 O 0.49248 0.52407 0.71217 0.0
O210 O 0.52542 0.46586 0.73865 0.0
O211 O 0.52017 0.4778 0.91989 0.0
O212 O 0.55943 0.51467 0.53476 0.0
O213 O 0.52742 0.48449 0.5304 0.0
O214 O 0.57248 0.52733 0.73981 0.0
O215 O 0.54856 0.50598 0.84965 0.0
H216 H 0.50801 0.5662 0.25265 0.0
H217 H 0.48174 0.60042 0.3479 0.0
H218 H 0.41206 0.58061 0.14843 0.0
H219 H 0.43917 0.54712 0.04884 0.0
H220 H 0.53526 0.46529 0.30278 0.0
H221 H 0.56283 0.43176 0.20934 0.0
H222 H 0.6301 0.45115 0.42324 0.0
H223 H 0.60162 0.48385 0.52055 0.0
Ho224 Ho 1.01218 0.506 0.8872 0.0
Ho225 Ho 0.02834 0.52924 0.67765 0.0
C226 C 0.96416 0.51852 0.72461 0.0
C227 C 1.00579 0.49095 0.09084 0.0
C228 C 0.98676 0.47366 0.15053 0.0
C229 C 0.96665 0.45977 0.09279 0.0
C230 C 0.94732 0.4448 0.15011 0.0
C231 C 0.94772 0.44345 0.26651 0.0
C232 C 0.96866 0.45669 0.32355 0.0
C233 C 0.98807 0.47164 0.26585 0.0
C234 C 1.01142 0.46905 0.71988 0.0
C235 C 0.07637 0.51644 0.83983 0.0
C236 C 0.03476 0.54452 0.4743 0.0
C237 C 0.0539 0.56177 0.41498 0.0
C238 C 0.07413 0.57541 0.47301 0.0
C239 C 0.09365 0.5902 0.41599 0.0
C240 C 0.09332 0.59162 0.2996 0.0
C241 C 0.07222 0.5787 0.2423 0.0
C242 C 0.05263 0.56392 0.29969 0.0
C243 C 0.02913 0.56606 0.84531 0.0
O244 O 0.96997 0.51657 0.83093 0.0
O245 O 0.98389 0.5196 0.65079 0.0
O246 O 0.02152 0.47845 0.02074 0.0
O247 O 0.99568 0.51335 0.05018 0.0
O248 O 0.99387 0.47033 0.79914 0.0
O249 O 0.0295 0.48679 0.7352 0.0
O250 O 0.07052 0.51842 0.73355 0.0
O251 O 0.05667 0.5155 0.91377 0.0
O252 O 1.01911 0.55702 0.54473 0.0
O253 O 0.04474 0.522 0.51442 0.0
O254 O 0.04676 0.56474 0.76635 0.0
O255 O 1.01097 0.54842 0.82955 0.0
H256 H 0.96539 0.46121 1.00355 0.0
H257 H 0.93123 0.43557 0.10294 0.0
H258 H 0.96963 0.45621 0.41278 0.0
H259 H 1.00364 0.48222 0.31144 0.0
H260 H 0.07536 0.57386 0.56223 0.0
H261 H 0.10984 0.59918 0.46338 0.0
H262 H 0.07129 0.57925 0.15306 0.0
H263 H 0.03696 0.55355 0.25388 0.0
H264 H 0.18481 1.02179 0.15692 0.0
H265 H 0.23305 0.0324 0.44871 0.0
H266 H 0.14386 1.01823 0.27179 0.0
H267 H 0.19276 0.02817 0.56458 0.0
H268 H 0.11568 0.05431 0.73463 0.0
H269 H 0.15498 0.0541 0.61379 0.0
H270 H 0.11665 0.99449 0.40554 0.0
H271 H 0.0767 0.9954 0.5263 0.0
C272 C 0.18664 0.02268 0.24601 0.0
C273 C 0.21206 0.02724 0.29417 0.0
C274 C 0.1632 1.0207 0.31219 0.0
C275 C 0.16463 0.02337 0.42833 0.0
C276 C 0.19045 0.02672 0.47582 0.0
C277 C 0.21371 0.02879 0.40975 0.0
C278 C 0.11554 0.04119 0.66293 0.0
C279 C 0.09299 0.02482 0.64084 0.0
C280 C 0.13832 0.04083 0.59369 0.0
C281 C 0.13954 0.02393 0.49988 0.0
C282 C 0.11665 1.00788 0.47634 0.0
C283 C 0.09369 1.00833 0.54587 0.0
H284 H 0.50217 0.22007 0.38055 0.0
H285 H 0.56448 0.17588 0.20894 0.0
H286 H 0.49317 0.1803 0.4963 0.0
H287 H 0.55752 0.13714 0.33055 0.0
H288 H 0.5314 0.06277 0.52186 0.0
H289 H 0.53258 0.09997 0.38685 0.0
H290 H 0.51067 0.15622 0.64562 0.0
H291 H 0.5078 0.11868 0.77628 0.0
C292 C 0.51371 0.20173 0.36658 0.0
C293 C 0.53409 0.20126 0.28543 0.0
C294 C 0.50895 0.17895 0.43447 0.0
C295 C 0.5247 0.1551 0.42435 0.0
C296 C 0.54447 0.15455 0.34032 0.0
C297 C 0.54882 0.17706 0.27132 0.0
C298 C 0.52573 0.08294 0.54779 0.0
C299 C 0.51846 0.08755 0.65821 0.0
C300 C 0.52707 0.10453 0.47136 0.0
C301 C 0.52159 0.13153 0.50385 0.0
C302 C 0.5144 0.13593 0.61532 0.0
C303 C 0.51295 0.11433 0.69103 0.0
H304 H 0.35642 0.56024 0.20715 0.0
H305 H 0.31484 0.49564 0.37544 0.0
H306 H 0.39575 0.5533 0.32419 0.0
H307 H 0.35521 0.48651 0.48542 0.0
H308 H 0.41845 0.49634 0.75652 0.0
H309 H 0.38017 0.5008 0.63233 0.0
H310 H 0.43362 0.5301 0.37525 0.0
H311 H 0.47164 0.52699 0.50311 0.0
C312 C 0.35587 0.5442 0.26822 0.0
C313 C 0.33224 0.52876 0.28259 0.0
C314 C 0.37875 0.53984 0.33457 0.0
C315 C 0.37917 0.51932 0.41598 0.0
C316 C 0.35585 0.50296 0.42622 0.0
C317 C 0.33271 0.50778 0.36135 0.0
C318 C 0.42205 0.50366 0.67331 0.0
C319 C 0.44819 0.51137 0.64024 0.0
C320 C 0.39997 0.50603 0.60098 0.0
C321 C 0.40327 0.5158 0.492 0.0
C322 C 0.42973 0.52297 0.45842 0.0
C323 C 0.45177 0.52096 0.53162 0.0
H324 H 0.03599 0.3157 0.36493 0.0
H325 H 0.9707 0.35555 0.19406 0.0
H326 H 0.04286 0.35668 0.4778 0.0
H327 H 0.97652 0.3956 0.31 0.0
H328 H 0.96953 0.43686 0.66094 0.0
H329 H 0.96887 0.39942 0.5292 0.0
H330 H 0.05327 0.41234 0.45787 0.0
H331 H 0.05377 0.45071 0.58867 0.0
C332 C 0.02352 0.33337 0.34976 0.0
C333 C 1.00263 0.33224 0.27097 0.0
C334 C 0.02733 0.35679 0.41482 0.0
C335 C 1.01002 0.37939 0.40379 0.0
C336 C 0.99003 0.37858 0.32146 0.0
C337 C 0.98664 0.35555 0.25519 0.0
C338 C 0.988 0.43185 0.61713 0.0
C339 C 1.01171 0.44685 0.6357 0.0
C340 C 0.98759 0.41036 0.54136 0.0
C341 C 1.01103 0.40277 0.48306 0.0
C342 C 0.0349 0.41761 0.50172 0.0
C343 C 0.03515 0.43965 0.57618 0.0
H344 H 0.85302 0.06536 0.33775 0.0
H345 H 0.81584 0.99464 0.19711 0.0
H346 H 0.89308 0.05801 0.22446 0.0
H347 H 0.8569 0.98556 0.09046 0.0
H348 H 0.9196 0.99452 0.81364 0.0
H349 H 0.88093 0.999 0.93678 0.0
H350 H 0.93242 0.03504 0.18445 0.0
H351 H 0.97081 0.03171 0.05776 0.0
C352 C 0.85364 0.04789 0.28384 0.0
C353 C 0.83103 0.03077 0.27594 0.0
C354 C 0.87691 0.04337 0.21963 0.0
C355 C 0.8787 1.02115 0.14674 0.0
C356 C 0.85643 1.00325 0.14314 0.0
C357 C 0.83292 1.0081 0.20609 0.0
C358 C 0.9227 1.00331 0.89459 0.0
C359 C 0.94838 1.01283 0.92528 0.0
C360 C 0.90042 1.00572 0.96627 0.0
C361 C 0.90306 1.01744 0.07207 0.0
C362 C 0.92907 0.02638 0.10352 0.0
C363 C 0.95131 0.02426 0.03105 0.0
H364 H 0.49529 0.80434 0.10303 0.0
H365 H 0.52705 0.8506 0.37383 0.0
H366 H 0.50155 0.84271 0.97914 0.0
H367 H 0.53482 0.88926 0.24884 0.0
H368 H 0.51484 0.9629 0.01736 0.0
H369 H 0.51397 0.92477 0.14811 0.0
H370 H 0.53025 0.86955 0.87891 0.0
H371 H 0.52965 0.90729 0.74973 0.0
C372 C 0.50429 0.82268 0.13522 0.0
C373 C 0.51085 0.82437 0.24786 0.0
C374 C 0.50808 0.84483 0.06399 0.0
C375 C 0.51887 0.86954 0.10249 0.0
C376 C 0.52618 0.87091 0.21535 0.0
C377 C 0.52215 0.84862 0.28703 0.0
C378 C 0.51846 0.94259 0.98679 0.0
C379 C 0.52215 0.93816 0.87285 0.0
C380 C 0.51806 0.9206 0.06187 0.0
C381 C 0.52161 0.8936 0.02513 0.0
C382 C 0.52656 0.88965 0.91137 0.0
C383 C 0.52652 0.91145 0.83674 0.0
H384 H 0.72569 0.53624 0.1882 0.0
H385 H 0.6846 0.47143 0.35719 0.0
H386 H 0.68533 0.54487 0.0776 0.0
H387 H 0.64533 0.47783 0.23936 0.0
H388 H 0.56929 0.5033 0.05927 0.0
H389 H 0.60726 0.50064 0.18761 0.0
H390 H 0.66063 0.53015 0.93065 0.0
H391 H 0.6224 0.53417 0.806 0.0
C392 C 0.70794 0.52395 0.20231 0.0
C393 C 0.70854 0.50306 0.28147 0.0
C394 C 0.68479 0.52847 0.13707 0.0
C395 C 0.66163 0.51189 0.14732 0.0
C396 C 0.66219 0.49146 0.22905 0.0
C397 C 0.68505 0.4874 0.29582 0.0
C398 C 0.58913 0.50947 0.03089 0.0
C399 C 0.59271 0.519 0.92218 0.0
C400 C 0.61114 0.50772 0.10436 0.0
C401 C 0.63756 0.51509 0.07095 0.0
C402 C 0.64085 0.52478 0.96186 0.0
C403 C 0.61881 0.52689 0.88927 0.0
H404 H 1.00437 0.71957 0.19884 0.0
H405 H 0.0698 0.68 0.36988 0.0
H406 H 0.99755 0.67848 0.08658 0.0
H407 H 0.06403 0.63982 0.25459 0.0
H408 H 0.07106 0.59814 0.90485 0.0
H409 H 0.07168 0.63564 0.03622 0.0
H410 H 0.98717 0.62301 0.1062 0.0
H411 H 0.98669 0.58459 0.9757 0.0
C412 C 1.01688 0.70193 0.21419 0.0
C413 C 0.03779 0.70318 0.29283 0.0
C414 C 1.0131 0.67845 0.14947 0.0
C415 C 0.03046 0.65589 0.1607 0.0
C416 C 0.05048 0.65681 0.24293 0.0
C417 C 0.05384 0.67991 0.30884 0.0
C418 C 0.05256 0.60321 0.9483 0.0
C419 C 0.02882 0.58828 0.92941 0.0
C420 C 0.05295 0.62475 0.02388 0.0
C421 C 0.02947 0.63245 0.08171 0.0
C422 C 1.00558 0.61766 0.06274 0.0
C423 C 1.00534 0.59559 0.98845 0.0
H424 H 0.93822 0.24841 0.01597 0.0
H425 H 0.96074 0.24476 0.35896 0.0
H426 H 0.91441 0.20496 0.03455 0.0
H427 H 0.93721 0.20198 0.3796 0.0
H428 H 0.90692 0.12604 0.424 0.0
H429 H 0.89835 0.17298 0.37713 0.0
H430 H 0.93454 0.16041 0.05589 0.0
H431 H 0.94089 0.11281 0.09877 0.0
C432 C 0.93725 0.23859 0.09597 0.0
C433 C 0.95125 0.24944 0.18612 0.0
C434 C 0.92368 0.21388 0.10685 0.0
C435 C 0.92391 0.19991 0.20841 0.0
C436 C 0.93605 0.21227 0.30058 0.0
C437 C 0.9497 0.2367 0.28917 0.0
C438 C 0.91167 0.13272 0.34096 0.0
C439 C 0.92594 0.11593 0.26712 0.0
C440 C 0.90696 0.15985 0.31451 0.0
C441 C 0.91699 0.17071 0.21516 0.0
C442 C 0.92693 0.15288 0.13411 0.0
C443 C 0.93103 0.12557 0.15952 0.0
H444 H 0.2939 0.07932 0.98504 0.0
H445 H 0.2977 0.07652 0.33996 0.0
H446 H 0.34004 0.0969 0.97768 0.0
H447 H 0.34374 0.09296 0.33482 0.0
H448 H 0.42263 0.05143 0.03815 0.0
H449 H 0.37772 0.06921 1.00331 0.0
H450 H 0.3831 0.11787 0.29951 0.0
H451 H 0.4278 0.0988 0.33578 0.0
C452 C 0.30429 0.08377 0.06156 0.0
C453 C 0.29268 0.07638 0.16294 0.0
C454 C 0.33077 0.09354 0.05769 0.0
C455 C 0.34609 0.09551 0.15533 0.0
C456 C 0.33282 0.09182 0.25752 0.0
C457 C 0.3063 0.08237 0.26109 0.0
C458 C 0.41444 0.06653 0.09356 0.0
C459 C 0.428 0.07294 0.19144 0.0
C460 C 0.38873 0.07705 0.0734 0.0
C461 C 0.37617 0.09415 0.15138 0.0
C462 C 0.39177 0.10399 0.23984 0.0
C463 C 0.41749 0.0933 0.26016 0.0
H464 H 0.59978 0.28257 0.01539 0.0
H465 H 0.57916 0.2864 0.36064 0.0
H466 H 0.6243 0.32567 0.03101 0.0
H467 H 0.60345 0.32874 0.37844 0.0
H468 H 0.59798 0.41778 0.09695 0.0
H469 H 0.60447 0.37028 0.05363 0.0
H470 H 0.64222 0.35768 0.37141 0.0
H471 H 0.63343 0.40446 0.41923 0.0
C472 C 0.60133 0.29232 0.09518 0.0
C473 C 0.58758 0.28169 0.18681 0.0
C474 C 0.61532 0.31683 0.10438 0.0
C475 C 0.61579 0.33077 0.20577 0.0
C476 C 0.60404 0.3185 0.29938 0.0
C477 C 0.58996 0.2943 0.28963 0.0
C478 C 0.60816 0.40503 0.15694 0.0
C479 C 0.6136 0.41459 0.26415 0.0
C480 C 0.61238 0.37779 0.13114 0.0
C481 C 0.62279 0.35995 0.2113 0.0
C482 C 0.63323 0.37081 0.30961 0.0
C483 C 0.62835 0.39785 0.3366 0.0
H484 H 0.24979 0.58692 0.9951 0.0
H485 H 0.24603 0.57815 0.34883 0.0
H486 H 0.20511 0.60886 0.99608 0.0
H487 H 0.20247 0.60125 0.35177 0.0
H488 H 0.12425 0.63587 0.35549 0.0
H489 H 0.1714 0.64222 0.30178 0.0
H490 H 0.16286 0.58051 0.05203 0.0
H491 H 0.11639 0.57348 0.10742 0.0
C492 C 0.23982 0.59079 0.07322 0.0
C493 C 0.25086 0.58069 0.17178 0.0
C494 C 0.21449 0.60344 0.07394 0.0
C495 C 0.20038 0.60675 0.17392 0.0
C496 C 0.21303 0.59938 0.27359 0.0
C497 C 0.23792 0.58616 0.27229 0.0
C498 C 0.13224 0.62412 0.28724 0.0
C499 C 0.11702 0.60307 0.23995 0.0
C500 C 0.15912 0.62804 0.25575 0.0
C501 C 0.17087 0.61137 0.17489 0.0
C502 C 0.15434 0.59361 0.11498 0.0
C503 C 0.1276 0.58947 0.14737 0.0
H504 H 0.08011 0.791 0.20554 0.0
H505 H 0.10191 0.78666 0.5492 0.0
H506 H 0.10351 0.83395 0.18742 0.0
H507 H 0.12546 0.83031 0.53323 0.0
H508 H 0.09731 0.92225 0.46981 0.0
H509 H 0.10397 0.8746 0.51152 0.0
H510 H 0.14255 0.86327 0.19414 0.0
H511 H 0.13403 0.9104 0.1488 0.0
C512 C 0.09098 0.79893 0.276 0.0
C513 C 0.08924 0.78597 0.37856 0.0
C514 C 0.10454 0.82346 0.26605 0.0
C515 C 0.11634 0.83568 0.35923 0.0
C516 C 0.11646 0.82147 0.46021 0.0
C517 C 0.10303 0.79665 0.46959 0.0
C518 C 0.10789 0.90977 0.41006 0.0
C519 C 0.11384 0.9198 0.30384 0.0
C520 C 0.11211 0.88245 0.4347 0.0
C521 C 0.12288 0.86496 0.35416 0.0
C522 C 0.13344 0.87617 0.25639 0.0
C523 C 0.12874 0.90336 0.23084 0.0
H524 H 0.74735 0.09634 0.52469 0.0
H525 H 0.73959 0.06701 0.19168 0.0
H526 H 0.70213 0.117 0.51298 0.0
H527 H 0.69516 0.08785 0.17732 0.0
H528 H 0.61744 0.1167 0.14805 0.0
H529 H 0.66451 0.12693 0.18065 0.0
H530 H 0.65865 0.09189 0.50718 0.0
H531 H 0.61084 0.08343 0.47822 0.0
C532 C 0.73623 0.09524 0.44786 0.0
C533 C 0.74643 0.08004 0.35924 0.0
C534 C 0.71052 0.10701 0.44097 0.0
C535 C 0.69503 0.10403 0.34442 0.0
C536 C 0.70663 0.09099 0.25236 0.0
C537 C 0.73202 0.07896 0.26014 0.0
C538 C 0.62556 0.1125 0.22932 0.0
C539 C 0.61054 0.09804 0.30879 0.0
C540 C 0.65277 0.11821 0.24749 0.0
C541 C 0.66551 0.10922 0.34449 0.0
C542 C 0.64952 0.09881 0.43081 0.0
C543 C 0.62213 0.09355 0.41345 0.0
H544 H 0.44638 0.74806 0.55842 0.0
H545 H 0.46057 0.74684 0.20745 0.0
H546 H 0.42177 0.70502 0.54503 0.0
H547 H 0.4362 0.70463 0.19198 0.0
H548 H 0.4479 0.61395 0.46789 0.0
H549 H 0.44126 0.66118 0.51458 0.0
H550 H 0.3996 0.67402 0.20511 0.0
H551 H 0.40866 0.62751 0.15333 0.0
C552 C 0.44338 0.73893 0.47813 0.0
C553 C 0.45556 0.7502 0.38407 0.0
C554 C 0.42933 0.71442 0.47018 0.0
C555 C 0.42723 0.70109 0.3677 0.0
C556 C 0.43695 0.71426 0.27225 0.0
C557 C 0.45105 0.73848 0.28063 0.0
C558 C 0.43691 0.6267 0.41038 0.0
C559 C 0.43035 0.6173 0.30401 0.0
C560 C 0.4326 0.6538 0.43824 0.0
C561 C 0.42092 0.67171 0.36123 0.0
C562 C 0.4096 0.66092 0.26435 0.0
C563 C 0.41461 0.63403 0.2351 0.0
H564 H 0.79517 0.45447 0.21711 0.0
H565 H 0.79135 0.44593 0.57092 0.0
H566 H 0.83897 0.43186 0.21475 0.0
H567 H 0.83626 0.42449 0.57052 0.0
H568 H 0.92445 0.4612 0.45886 0.0
H569 H 0.87813 0.45338 0.51457 0.0
H570 H 0.87061 0.39141 0.26533 0.0
H571 H 0.9176 0.3986 0.2112 0.0
C572 C 0.80333 0.44661 0.2938 0.0
C573 C 0.7903 0.45203 0.39415 0.0
C574 C 0.82836 0.43365 0.29285 0.0
C575 C 0.84105 0.42652 0.3927 0.0
C576 C 0.82686 0.42974 0.49254 0.0
C577 C 0.80139 0.44211 0.49291 0.0
C578 C 0.91351 0.44501 0.41907 0.0
C579 C 0.92427 0.43159 0.32643 0.0
C580 C 0.88686 0.4404 0.45167 0.0
C581 C 0.87062 0.42233 0.39195 0.0
C582 C 0.88264 0.40583 0.31118 0.0
C583 C 0.90942 0.41023 0.27944 0.0
H584 H 0.02336 0.22536 0.22631 0.0
H585 H 0.98486 0.24989 0.92415 0.0
H586 H 0.02998 0.17963 0.15194 0.0
H587 H 0.99018 0.20404 0.84981 0.0
H588 H 1.01846 0.12125 0.71446 0.0
H589 H 1.01658 0.16834 0.77873 0.0
H590 H 1.00652 0.14002 0.11443 0.0
H591 H 1.00955 0.09354 0.0509 0.0
C592 C 1.01686 0.22103 0.14279 0.0
C593 C 1.00402 0.24131 0.08039 0.0
C594 C 1.02012 0.19462 0.10038 0.0
C595 C 1.01034 0.18753 0.9944 0.0
C596 C 0.99834 0.20834 0.93082 0.0
C597 C 0.99527 0.23476 0.97322 0.0
C598 C 1.01589 0.12512 0.80195 0.0
C599 C 1.01434 0.10332 0.87704 0.0
C600 C 1.01469 0.15226 0.83923 0.0
C601 C 1.01171 0.15852 0.95281 0.0
C602 C 1.00963 0.13654 0.02701 0.0
C603 C 1.0111 0.10959 0.99002 0.0
H604 H 0.32113 0.02227 0.24454 0.0
H605 H 0.28573 1.01866 0.92093 0.0
H606 H 0.36601 1.01539 0.16505 0.0
H607 H 0.33055 1.01051 0.83944 0.0
H608 H 0.44372 0.98721 0.01201 0.0
H609 H 0.39758 0.98699 0.08156 0.0
H610 H 0.37163 0.03233 0.79473 0.0
H611 H 0.41792 0.03134 0.72261 0.0
C612 C 0.32296 1.0189 0.15641 0.0
C613 C 0.29986 1.0204 0.08931 0.0
C614 C 0.34876 1.01498 0.11018 0.0
C615 C 0.35237 1.01223 0.99485 0.0
C616 C 0.32895 1.0128 0.92817 0.0
C617 C 0.3031 1.01693 0.97479 0.0
C618 C 0.42816 0.99692 0.96291 0.0
C619 C 0.43477 1.00944 0.8616 0.0
C620 C 0.40152 0.99697 1.00345 0.0
C621 C 0.38045 1.00995 0.94528 0.0
C622 C 0.38696 1.02182 0.84211 0.0
C623 C 0.41366 1.02141 0.80063 0.0
H624 H 0.55315 0.28288 0.93124 0.0
H625 H 0.51519 0.30754 0.23458 0.0
H626 H 0.54816 0.32878 0.85684 0.0
H627 H 0.50875 0.35333 0.15993 0.0
H628 H 0.52864 0.43958 0.05526 0.0
H629 H 0.53137 0.39315 0.1206 0.0
H630 H 0.52252 0.3645 0.7854 0.0
H631 H 0.52103 0.41147 0.71949 0.0
C632 C 0.54298 0.29808 0.98073 0.0
C633 C 0.53432 0.29152 0.08826 0.0
C634 C 0.54006 0.32454 0.93819 0.0
C635 C 0.5282 0.34542 1.00179 0.0
C636 C 0.51852 0.33833 0.10824 0.0
C637 C 0.52167 0.31187 0.15087 0.0
C638 C 0.52729 0.42346 0.99492 0.0
C639 C 0.52456 0.42961 0.88154 0.0
C640 C 0.52859 0.39653 0.03293 0.0
C641 C 0.52684 0.37445 0.95941 0.0
C642 C 0.52422 0.38061 0.84552 0.0
C643 C 0.52322 0.40771 0.80725 0.0
H644 H 0.2523 0.53888 0.92339 0.0
H645 H 0.22514 0.51204 0.24259 0.0
H646 H 0.20673 0.53363 0.84951 0.0
H647 H 0.17974 0.50472 0.16902 0.0
H648 H 0.0947 0.52373 0.05134 0.0
H649 H 0.14074 0.52521 0.11852 0.0
H650 H 0.17018 0.51017 0.78742 0.0
H651 H 0.12372 0.51007 0.71968 0.0
C652 C 0.23661 0.53089 0.97667 0.0
C653 C 0.24233 0.52563 0.08838 0.0
C654 C 0.21028 0.52782 0.93451 0.0
C655 C 0.18877 0.51893 1.0025 0.0
C656 C 0.19512 0.5123 0.11346 0.0
C657 C 0.22138 0.51587 0.1558 0.0
C658 C 0.11094 0.52066 0.99247 0.0
C659 C 0.10519 0.51678 0.87957 0.0
C660 C 0.13768 0.52125 0.03153 0.0
C661 C 0.15991 0.51766 0.95963 0.0
C662 C 0.15406 0.51353 0.84639 0.0
C663 C 0.12721 0.51328 0.80703 0.0
H664 H 0.05521 0.78541 0.63991 0.0
H665 H 1.01742 0.81037 0.33686 0.0
H666 H 0.0502 0.83127 0.71432 0.0
H667 H 1.01104 0.85611 0.41135 0.0
H668 H 0.0316 0.94206 0.51318 0.0
H669 H 0.03438 0.89557 0.44948 0.0
H670 H 0.02442 0.86726 0.78523 0.0
H671 H 0.02282 0.91434 0.8496 0.0
C672 C 0.045 0.80064 0.59065 0.0
C673 C 0.03638 0.79419 0.4832 0.0
C674 C 0.04211 0.82708 0.63311 0.0
C675 C 0.03039 0.84803 0.56935 0.0
C676 C 0.02071 0.84104 0.4631 0.0
C677 C 0.02381 0.81461 0.42061 0.0
C678 C 0.03004 0.926 0.57402 0.0
C679 C 0.02691 0.93228 0.68704 0.0
C680 C 0.03135 0.89905 0.53695 0.0
C681 C 0.02922 0.87706 0.61108 0.0
C682 C 0.02635 0.88332 0.72472 0.0
C683 C 0.02532 0.91047 0.76209 0.0
H684 H 0.72797 1.00278 0.33668 0.0
H685 H 0.74691 0.05186 0.6188 0.0
H686 H 0.68271 0.99441 0.41152 0.0
H687 H 0.70131 0.04543 0.69145 0.0
H688 H 0.62048 1.019 0.83585 0.0
H689 H 0.66742 1.0209 0.77358 0.0
H690 H 0.6408 1.01303 0.43505 0.0
H691 H 0.59449 1.00924 0.49819 0.0
C692 C 0.72251 1.01138 0.41593 0.0
C693 C 0.74105 0.02778 0.47228 0.0
C694 C 0.69628 1.00713 0.4583 0.0
C695 C 0.68758 1.01954 0.55778 0.0
C696 C 0.70678 0.03513 0.61576 0.0
C697 C 0.73307 0.03897 0.57401 0.0
C698 C 0.62467 1.01746 0.74818 0.0
C699 C 0.60333 1.01409 0.67253 0.0
C700 C 0.65178 1.01878 0.71184 0.0
C701 C 0.65857 1.01714 0.59829 0.0
C702 C 0.63706 1.01378 0.52314 0.0
C703 C 0.61012 1.01199 0.5596 0.0
H704 H 0.49372 0.748 0.63019 0.0
H705 H 0.52623 0.72109 0.31959 0.0
H706 H 0.49781 0.70215 0.70543 0.0
H707 H 0.53208 0.67535 0.39508 0.0
H708 H 0.51134 0.59017 0.50728 0.0
H709 H 0.50949 0.63651 0.44068 0.0
H710 H 0.52183 0.66548 0.77356 0.0
H711 H 0.52228 0.61862 0.84086 0.0
C712 C 0.50251 0.73228 0.57908 0.0
C713 C 0.5098 0.7382 0.46928 0.0
C714 C 0.50495 0.70583 0.62217 0.0
C715 C 0.51506 0.68434 0.55703 0.0
C716 C 0.52356 0.6908 0.44818 0.0
C717 C 0.52078 0.71723 0.4049 0.0
C718 C 0.51358 0.60636 0.56682 0.0
C719 C 0.51695 0.60034 0.67996 0.0
C720 C 0.51282 0.63323 0.52805 0.0
C721 C 0.51584 0.65538 0.60045 0.0
C722 C 0.51911 0.64934 0.71421 0.0
C723 C 0.51951 0.6223 0.75332 0.0
H724 H 0.81528 0.52115 0.32197 0.0
H725 H 0.78857 0.49391 0.64125 0.0
H726 H 0.86059 0.5291 0.39537 0.0
H727 H 0.83409 0.49976 0.71491 0.0
H728 H 0.91674 0.52427 0.84474 0.0
H729 H 0.87029 0.52364 0.77702 0.0
H730 H 0.89991 0.50927 0.44569 0.0
H731 H 0.94594 0.51129 0.51287 0.0
C732 C 0.81911 0.51735 0.40874 0.0
C733 C 0.79833 0.50729 0.47623 0.0
C734 C 0.84533 0.52129 0.45098 0.0
C735 C 0.8518 0.51474 0.5619 0.0
C736 C 0.83043 0.50553 0.62995 0.0
C737 C 0.80414 0.5021 0.58789 0.0
C738 C 0.91329 0.5211 0.75733 0.0
C739 C 0.93535 0.51794 0.68475 0.0
C740 C 0.88645 0.52054 0.71799 0.0
C741 C 0.88064 0.51641 0.6047 0.0
C742 C 0.90292 0.5132 0.53272 0.0
C743 C 0.92965 0.5141 0.57179 0.0
loop_
_geom_bond_atom_site_label_1
_geom_bond_atom_site_label_2
_geom_bond_distance
_geom_bond_site_symmetry_2
_ccdc_geom_bond_type
C0 N1 1.317 . S
C0 N2 1.348 . S
C0 C3 1.485 . S
N1 C0 1.317 . S
N1 N5 1.370 . S
N2 C0 1.348 . S
N2 C4 1.346 . S
C3 C0 1.485 . S
C3 H7 0.960 . S
C3 H8 0.961 . S
C3 H9 0.960 . S
C4 N2 1.346 . S
C4 N5 1.307 . S
C4 C6 1.486 . S
N5 N1 1.370 . S
N5 C4 1.307 . S
C6 C4 1.486 . S
C6 H10 0.960 . S
C6 H11 0.960 . S
C6 H12 0.959 . S
H7 C3 0.960 . S
H8 C3 0.961 . S
H9 C3 0.960 . S
H10 C6 0.960 . S
H11 C6 0.960 . S
H12 C6 0.959 . S
C13 N14 1.317 . S
C13 N15 1.350 . S
C13 C16 1.485 . S
N14 C13 1.317 . S
N14 N18 1.371 . S
N15 C13 1.350 . S
N15 C17 1.345 1_655 S
C16 C13 1.485 . S
C16 H20 0.960 1_655 S
C16 H21 0.961 . S
C16 H22 0.960 . S
C17 N15 1.345 1_455 S
C17 N18 1.307 1_455 S
C17 C19 1.486 . S
N18 N14 1.371 . S
N18 C17 1.307 1_655 S
C19 C17 1.486 . S
C19 H23 0.922 1_455 S
C19 H24 0.991 . S
C19 H25 0.967 . S
H20 C16 0.960 1_455 S
H21 C16 0.961 . S
H22 C16 0.960 . S
H23 C19 0.922 1_655 S
H24 C19 0.991 . S
H25 C19 0.967 . S
C26 N27 1.317 . S
C26 N28 1.350 . S
C26 C29 1.485 . S
N27 C26 1.317 . S
N27 N31 1.371 . S
N28 C26 1.350 . S
N28 C30 1.345 1_565 S
C29 C26 1.485 . S
C29 H33 0.960 1_565 S
C29 H34 0.961 . S
C29 H35 0.960 . S
C30 N28 1.345 1_545 S
C30 N31 1.307 1_545 S
C30 C32 1.486 . S
N31 N27 1.371 . S
N31 C30 1.307 1_565 S
C32 C30 1.486 . S
C32 H36 0.922 1_545 S
C32 H37 0.991 . S
C32 H38 0.967 . S
H33 C29 0.960 1_545 S
H34 C29 0.961 . S
H35 C29 0.960 . S
H36 C32 0.922 1_565 S
H37 C32 0.991 . S
H38 C32 0.967 . S
C39 N40 1.317 . S
C39 N41 1.348 . S
C39 C42 1.485 . S
N40 C39 1.317 . S
N40 N44 1.370 . S
N41 C39 1.348 . S
N41 C43 1.346 . S
C42 C39 1.485 . S
C42 H46 0.960 . S
C42 H47 0.961 . S
C42 H48 0.960 . S
C43 N41 1.346 . S
C43 N44 1.307 . S
C43 C45 1.486 . S
N44 N40 1.370 . S
N44 C43 1.307 . S
C45 C43 1.486 . S
C45 H49 0.960 . S
C45 H50 0.960 . S
C45 H51 0.959 . S
H46 C42 0.960 . S
H47 C42 0.961 . S
H48 C42 0.960 . S
H49 C45 0.960 . S
H50 C45 0.960 . S
H51 C45 0.959 . S
C52 N53 1.317 . S
C52 N54 1.348 1_556 S
C52 C55 1.485 . S
N53 C52 1.317 . S
N53 N57 1.370 1_556 S
N54 C52 1.348 1_554 S
N54 C56 1.346 . S
C55 C52 1.485 . S
C55 H59 0.960 . S
C55 H60 0.961 . S
C55 H61 0.960 . S
C56 N54 1.346 . S
C56 N57 1.307 . S
C56 C58 1.486 . S
N57 N53 1.370 1_554 S
N57 C56 1.307 . S
C58 C56 1.486 . S
C58 H62 0.960 . S
C58 H63 0.960 . S
C58 H64 0.959 . S
H59 C55 0.960 . S
H60 C55 0.961 . S
H61 C55 0.960 . S
H62 C58 0.960 . S
H63 C58 0.960 . S
H64 C58 0.959 . S
C65 N66 1.317 . S
C65 N67 1.350 1_556 S
C65 C68 1.485 . S
N66 C65 1.317 . S
N66 N70 1.370 1_556 S
N67 C65 1.350 1_554 S
N67 C69 1.345 1_655 S
C68 C65 1.485 . S
C68 H72 0.960 1_655 S
C68 H73 0.961 . S
C68 H74 0.960 . S
C69 N67 1.345 1_455 S
C69 N70 1.307 1_455 S
C69 C71 1.486 . S
N70 N66 1.370 1_554 S
N70 C69 1.307 1_655 S
C71 C69 1.486 . S
C71 H75 0.960 1_455 S
C71 H76 0.960 . S
C71 H77 0.959 . S
H72 C68 0.960 1_455 S
H73 C68 0.961 . S
H74 C68 0.960 . S
H75 C71 0.960 1_655 S
H76 C71 0.960 . S
H77 C71 0.959 . S
C78 N79 1.317 . S
C78 N80 1.350 1_556 S
C78 C81 1.485 . S
N79 C78 1.317 . S
N79 N83 1.370 1_556 S
N80 C78 1.350 1_554 S
N80 C82 1.345 1_565 S
C81 C78 1.485 . S
C81 H85 0.960 1_565 S
C81 H86 0.961 . S
C81 H87 0.960 . S
C82 N80 1.345 1_545 S
C82 N83 1.307 1_545 S
C82 C84 1.486 . S
N83 N79 1.370 1_554 S
N83 C82 1.307 1_565 S
C84 C82 1.486 . S
C84 H88 0.960 1_545 S
C84 H89 0.960 . S
C84 H90 0.959 . S
H85 C81 0.960 1_545 S
H86 C81 0.961 . S
H87 C81 0.960 . S
H88 C84 0.960 1_565 S
H89 C84 0.960 . S
H90 C84 0.959 . S
C91 N92 1.317 . S
C91 N93 1.348 1_556 S
C91 C94 1.485 . S
N92 C91 1.317 . S
N92 N96 1.370 1_556 S
N93 C91 1.348 1_554 S
N93 C95 1.346 . S
C94 C91 1.485 . S
C94 H98 0.960 . S
C94 H99 0.961 . S
C94 H100 0.960 . S
C95 N93 1.346 . S
C95 N96 1.307 . S
C95 C97 1.486 . S
N96 N92 1.370 1_554 S
N96 C95 1.307 . S
C97 C95 1.486 . S
C97 H101 0.960 . S
C97 H102 0.960 . S
C97 H103 0.959 . S
H98 C94 0.960 . S
H99 C94 0.961 . S
H100 C94 0.960 . S
H101 C97 0.960 . S
H102 C97 0.960 . S
H103 C97 0.959 . S
Ho104 C107 2.811 1_556 S
Ho104 O124 2.322 . S
Ho104 O126 2.378 . S
Ho104 O127 2.524 . S
Ho104 O128 2.381 . S
Ho104 O129 2.669 1_565 S
Ho104 O131 2.346 1_565 S
Ho104 O135 2.305 1_455 S
Ho105 C116 2.811 . S
Ho105 O125 2.346 1_545 S
Ho105 O129 2.305 1_655 S
Ho105 O130 2.322 . S
Ho105 O132 2.378 . S
Ho105 O133 2.540 . S
Ho105 O134 2.381 . S
Ho105 O135 2.669 1_545 S
C106 O124 1.259 1_655 S
C106 O125 1.268 . S
C107 Ho104 2.811 1_554 S
C107 C108 1.488 . S
C107 O126 1.215 1_554 S
C107 O127 1.289 1_554 S
C108 C107 1.488 . S
C108 C109 1.348 . S
C108 C113 1.413 . S
C109 C108 1.348 . S
C109 C110 1.442 . S
C109 H136 0.930 1_455 S
C110 C109 1.442 . S
C110 C111 1.381 . S
C110 H137 0.931 1_455 S
C111 C110 1.381 . S
C111 C112 1.321 . S
C112 C111 1.321 . S
C112 C113 1.403 . S
C112 H138 0.934 . S
C113 C108 1.413 . S
C113 C112 1.403 . S
C113 H139 0.930 . S
C114 O128 1.275 . S
C114 O129 1.256 1_565 S
C115 O130 1.259 1_455 S
C115 O131 1.268 . S
C116 Ho105 2.811 . S
C116 C117 1.488 . S
C116 O132 1.215 . S
C116 O133 1.329 . S
C117 C116 1.488 . S
C117 C118 1.348 . S
C117 C122 1.413 . S
C118 C117 1.348 . S
C118 C119 1.442 . S
C118 H140 0.930 1_655 S
C119 C118 1.442 . S
C119 C120 1.381 . S
C119 H141 0.931 1_655 S
C120 C119 1.381 . S
C120 C121 1.321 . S
C121 C120 1.321 . S
C121 C122 1.403 . S
C121 H142 0.934 . S
C122 C117 1.413 . S
C122 C121 1.403 . S
C122 H143 0.930 . S
C123 O134 1.275 . S
C123 O135 1.256 1_545 S
O124 Ho104 2.322 . S
O124 C106 1.259 1_455 S
O125 Ho105 2.346 1_565 S
O125 C106 1.268 . S
O126 Ho104 2.378 . S
O126 C107 1.215 1_556 S
O127 Ho104 2.524 . S
O127 C107 1.289 1_556 S
O128 Ho104 2.381 . S
O128 C114 1.275 . S
O129 Ho104 2.669 1_545 S
O129 Ho105 2.305 1_455 S
O129 C114 1.256 1_545 S
O130 Ho105 2.322 . S
O130 C115 1.259 1_655 S
O131 Ho104 2.346 1_545 S
O131 C115 1.268 . S
O132 Ho105 2.378 . S
O132 C116 1.215 . S
O133 Ho105 2.540 . S
O133 C116 1.329 . S
O134 Ho105 2.381 . S
O134 C123 1.275 . S
O135 Ho104 2.305 1_655 S
O135 Ho105 2.669 1_565 S
O135 C123 1.256 1_565 S
H136 C109 0.930 1_655 S
H137 C110 0.931 1_655 S
H138 C112 0.934 . S
H139 C113 0.930 . S
H140 C118 0.930 1_455 S
H141 C119 0.931 1_455 S
H142 C121 0.934 . S
H143 C122 0.930 . S
Ho144 C147 2.811 1_556 S
Ho144 O164 2.322 . S
Ho144 O166 2.378 . S
Ho144 O167 2.540 . S
Ho144 O168 2.381 . S
Ho144 O169 2.669 . S
Ho144 O171 2.346 . S
Ho144 O175 2.305 1_545 S
Ho145 C156 2.811 . S
Ho145 O165 2.346 . S
Ho145 O169 2.305 1_565 S
Ho145 O170 2.322 . S
Ho145 O172 2.378 . S
Ho145 O173 2.536 . S
Ho145 O174 2.381 . S
Ho145 O175 2.669 . S
C146 O164 1.259 1_565 S
C146 O165 1.268 . S
C147 Ho144 2.811 1_554 S
C147 C148 1.488 . S
C147 O166 1.215 1_554 S
C147 O167 1.328 1_554 S
C148 C147 1.488 . S
C148 C149 1.348 . S
C148 C153 1.413 . S
C149 C148 1.348 . S
C149 C150 1.442 . S
C149 H176 0.930 1_545 S
C150 C149 1.442 . S
C150 C151 1.381 . S
C150 H177 0.931 1_545 S
C151 C150 1.381 . S
C151 C152 1.321 . S
C152 C151 1.321 . S
C152 C153 1.403 . S
C152 H178 0.934 . S
C153 C148 1.413 . S
C153 C152 1.403 . S
C153 H179 0.930 . S
C154 O168 1.275 . S
C154 O169 1.256 . S
C155 O170 1.259 1_545 S
C155 O171 1.268 . S
C156 Ho145 2.811 . S
C156 C157 1.488 . S
C156 O172 1.215 . S
C156 O173 1.319 . S
C157 C156 1.488 . S
C157 C158 1.348 . S
C157 C162 1.413 . S
C158 C157 1.348 . S
C158 C159 1.442 . S
C158 H180 0.930 1_565 S
C159 C158 1.442 . S
C159 C160 1.381 . S
C159 H181 0.931 1_565 S
C160 C159 1.381 . S
C160 C161 1.321 . S
C161 C160 1.321 . S
C161 C162 1.403 . S
C161 H182 0.934 . S
C162 C157 1.413 . S
C162 C161 1.403 . S
C162 H183 0.930 . S
C163 O174 1.275 . S
C163 O175 1.256 . S
O164 Ho144 2.322 . S
O164 C146 1.259 1_545 S
O165 Ho145 2.346 . S
O165 C146 1.268 . S
O166 Ho144 2.378 . S
O166 C147 1.215 1_556 S
O167 Ho144 2.540 . S
O167 C147 1.328 1_556 S
O168 Ho144 2.381 . S
O168 C154 1.275 . S
O169 Ho144 2.669 . S
O169 Ho145 2.305 1_545 S
O169 C154 1.256 . S
O170 Ho145 2.322 . S
O170 C155 1.259 1_565 S
O171 Ho144 2.346 . S
O171 C155 1.268 . S
O172 Ho145 2.378 . S
O172 C156 1.215 . S
O173 Ho145 2.536 . S
O173 C156 1.319 . S
O174 Ho145 2.381 . S
O174 C163 1.275 . S
O175 Ho144 2.305 1_565 S
O175 Ho145 2.669 . S
O175 C163 1.256 . S
H176 C149 0.930 1_565 S
H177 C150 0.931 1_565 S
H178 C152 0.934 . S
H179 C153 0.930 . S
H180 C158 0.930 1_545 S
H181 C159 0.931 1_545 S
H182 C161 0.934 . S
H183 C162 0.930 . S
Ho184 C187 2.811 1_556 S
Ho184 O204 2.322 . S
Ho184 O206 2.378 . S
Ho184 O207 2.524 . S
Ho184 O208 2.381 . S
Ho184 O209 2.669 . S
Ho184 O211 2.346 . S
Ho184 O215 2.305 . S
Ho185 C196 2.811 . S
Ho185 O205 2.346 . S
Ho185 O209 2.305 . S
Ho185 O210 2.322 . S
Ho185 O212 2.378 . S
Ho185 O213 2.524 . S
Ho185 O214 2.381 . S
Ho185 O215 2.669 . S
C186 O204 1.259 . S
C186 O205 1.268 . S
C187 Ho184 2.811 1_554 S
C187 C188 1.488 . S
C187 O206 1.215 1_554 S
C187 O207 1.289 1_554 S
C188 C187 1.488 . S
C188 C189 1.348 . S
C188 C193 1.413 . S
C189 C188 1.348 . S
C189 C190 1.442 . S
C189 H216 0.930 . S
C190 C189 1.442 . S
C190 C191 1.381 . S
C190 H217 0.931 . S
C191 C190 1.381 . S
C191 C192 1.321 . S
C192 C191 1.321 . S
C192 C193 1.403 . S
C192 H218 0.934 . S
C193 C188 1.413 . S
C193 C192 1.403 . S
C193 H219 0.930 . S
C194 O208 1.275 . S
C194 O209 1.256 . S
C195 O210 1.259 . S
C195 O211 1.268 . S
C196 Ho185 2.811 . S
C196 C197 1.488 . S
C196 O212 1.215 . S
C196 O213 1.289 . S
C197 C196 1.488 . S
C197 C198 1.348 . S
C197 C202 1.413 . S
C198 C197 1.348 . S
C198 C199 1.442 . S
C198 H220 0.930 . S
C199 C198 1.442 . S
C199 C200 1.381 . S
C199 H221 0.931 . S
C200 C199 1.381 . S
C200 C201 1.321 . S
C201 C200 1.321 . S
C201 C202 1.403 . S
C201 H222 0.934 . S
C202 C197 1.413 . S
C202 C201 1.403 . S
C202 H223 0.930 . S
C203 O214 1.275 . S
C203 O215 1.256 . S
O204 Ho184 2.322 . S
O204 C186 1.259 . S
O205 Ho185 2.346 . S
O205 C186 1.268 . S
O206 Ho184 2.378 . S
O206 C187 1.215 1_556 S
O207 Ho184 2.524 . S
O207 C187 1.289 1_556 S
O208 Ho184 2.381 . S
O208 C194 1.275 . S
O209 Ho184 2.669 . S
O209 Ho185 2.305 . S
O209 C194 1.256 . S
O210 Ho185 2.322 . S
O210 C195 1.259 . S
O211 Ho184 2.346 . S
O211 C195 1.268 . S
O212 Ho185 2.378 . S
O212 C196 1.215 . S
O213 Ho185 2.524 . S
O213 C196 1.289 . S
O214 Ho185 2.381 . S
O214 C203 1.275 . S
O215 Ho184 2.305 . S
O215 Ho185 2.669 . S
O215 C203 1.256 . S
H216 C189 0.930 . S
H217 C190 0.931 . S
H218 C192 0.934 . S
H219 C193 0.930 . S
H220 C198 0.930 . S
H221 C199 0.931 . S
H222 C201 0.934 . S
H223 C202 0.930 . S
Ho224 C227 2.811 1_556 S
Ho224 O244 2.322 . S
Ho224 O246 2.378 . S
Ho224 O247 2.524 . S
Ho224 O248 2.381 . S
Ho224 O249 2.669 1_655 S
Ho224 O251 2.346 1_655 S
Ho224 O255 2.305 . S
Ho225 C236 2.811 . S
Ho225 O245 2.346 1_455 S
Ho225 O249 2.305 . S
Ho225 O250 2.322 . S
Ho225 O252 2.378 . S
Ho225 O253 2.524 . S
Ho225 O254 2.381 . S
Ho225 O255 2.669 1_455 S
C226 O244 1.259 . S
C226 O245 1.268 . S
C227 Ho224 2.811 1_554 S
C227 C228 1.488 . S
C227 O246 1.215 1_554 S
C227 O247 1.289 1_554 S
C228 C227 1.488 . S
C228 C229 1.348 . S
C228 C233 1.413 . S
C229 C228 1.348 . S
C229 C230 1.442 . S
C229 H256 0.930 . S
C230 C229 1.442 . S
C230 C231 1.381 . S
C230 H257 0.931 . S
C231 C230 1.381 . S
C231 C232 1.321 . S
C232 C231 1.321 . S
C232 C233 1.403 . S
C232 H258 0.934 . S
C233 C228 1.413 . S
C233 C232 1.403 . S
C233 H259 0.930 . S
C234 O248 1.289 . S
C234 O249 1.248 1_655 S
C235 O250 1.259 . S
C235 O251 1.268 . S
C236 Ho225 2.811 . S
C236 C237 1.488 . S
C236 O252 1.215 . S
C236 O253 1.289 . S
C237 C236 1.488 . S
C237 C238 1.348 . S
C237 C242 1.413 . S
C238 C237 1.348 . S
C238 C239 1.442 . S
C238 H260 0.930 . S
C239 C238 1.442 . S
C239 C240 1.381 . S
C239 H261 0.931 . S
C240 C239 1.381 . S
C240 C241 1.321 . S
C241 C240 1.321 . S
C241 C242 1.403 . S
C241 H262 0.934 . S
C242 C237 1.413 . S
C242 C241 1.403 . S
C242 H263 0.930 . S
C243 O254 1.294 . S
C243 O255 1.245 1_455 S
O244 Ho224 2.322 . S
O244 C226 1.259 . S
O245 Ho225 2.346 1_655 S
O245 C226 1.268 . S
O246 Ho224 2.378 . S
O246 C227 1.215 1_556 S
O247 Ho224 2.524 . S
O247 C227 1.289 1_556 S
O248 Ho224 2.381 . S
O248 C234 1.289 . S
O249 Ho224 2.669 1_455 S
O249 Ho225 2.305 . S
O249 C234 1.248 1_455 S
O250 Ho225 2.322 . S
O250 C235 1.259 . S
O251 Ho224 2.346 1_455 S
O251 C235 1.268 . S
O252 Ho225 2.378 . S
O252 C236 1.215 . S
O253 Ho225 2.524 . S
O253 C236 1.289 . S
O254 Ho225 2.381 . S
O254 C243 1.294 . S
O255 Ho224 2.305 . S
O255 Ho225 2.669 1_655 S
O255 C243 1.245 1_655 S
H256 C229 0.930 . S
H257 C230 0.931 . S
H258 C232 0.934 . S
H259 C233 0.930 . S
H260 C238 0.930 . S
H261 C239 0.931 . S
H262 C241 0.934 . S
H263 C242 0.930 . S
H264 C272 0.950 . S
H265 C277 0.950 . S
H266 C274 0.950 . S
H267 C276 0.950 . S
H268 C278 0.950 . S
H269 C280 0.950 . S
H270 C282 0.950 . S
H271 C283 0.950 . S
C272 H264 0.950 . S
C272 C273 1.391 . S
C272 C274 1.391 . S
C273 C272 1.391 . S
C273 C277 1.388 1_565 S
C274 H266 0.950 . S
C274 C272 1.391 . S
C274 C275 1.399 1_565 S
C275 C274 1.399 1_545 S
C275 C276 1.399 . S
C275 C281 1.491 . S
C276 H267 0.950 . S
C276 C275 1.399 . S
C276 C277 1.391 . S
C277 H265 0.950 . S
C277 C273 1.388 1_545 S
C277 C276 1.391 . S
C278 H268 0.950 . S
C278 C279 1.386 . S
C278 C280 1.391 . S
C279 C278 1.386 . S
C279 C283 1.393 1_545 S
C280 H269 0.950 . S
C280 C278 1.391 . S
C280 C281 1.400 . S
C281 C275 1.491 . S
C281 C280 1.400 . S
C281 C282 1.398 1_545 S
C282 H270 0.950 . S
C282 C281 1.398 1_565 S
C282 C283 1.391 . S
C283 H271 0.950 . S
C283 C279 1.393 1_565 S
C283 C282 1.391 . S
H284 C292 0.950 . S
H285 C297 0.950 . S
H286 C294 0.950 . S
H287 C296 0.950 . S
H288 C298 0.950 . S
H289 C300 0.950 . S
H290 C302 0.950 . S
H291 C303 0.950 . S
C292 H284 0.950 . S
C292 C293 1.386 . S
C292 C294 1.391 . S
C293 C292 1.386 . S
C293 C297 1.393 . S
C294 H286 0.950 . S
C294 C292 1.391 . S
C294 C295 1.400 . S
C295 C294 1.400 . S
C295 C296 1.398 . S
C295 C301 1.491 . S
C296 H287 0.950 . S
C296 C295 1.398 . S
C296 C297 1.391 . S
C297 H285 0.950 . S
C297 C293 1.393 . S
C297 C296 1.391 . S
C298 H288 0.950 . S
C298 C299 1.386 . S
C298 C300 1.391 . S
C299 C298 1.386 . S
C299 C303 1.393 . S
C300 H289 0.950 . S
C300 C298 1.391 . S
C300 C301 1.400 . S
C301 C295 1.491 . S
C301 C300 1.400 . S
C301 C302 1.398 . S
C302 H290 0.950 . S
C302 C301 1.398 . S
C302 C303 1.391 . S
C303 H291 0.950 . S
C303 C299 1.393 . S
C303 C302 1.391 . S
H304 C312 0.950 . S
H305 C317 0.950 . S
H306 C314 0.950 . S
H307 C316 0.950 . S
H308 C318 0.950 . S
H309 C320 0.950 . S
H310 C322 0.950 . S
H311 C323 0.950 . S
C312 H304 0.950 . S
C312 C313 1.386 . S
C312 C314 1.391 . S
C313 C312 1.386 . S
C313 C317 1.393 . S
C314 H306 0.950 . S
C314 C312 1.391 . S
C314 C315 1.400 . S
C315 C314 1.400 . S
C315 C316 1.398 . S
C315 C321 1.491 . S
C316 H307 0.950 . S
C316 C315 1.398 . S
C316 C317 1.391 . S
C317 H305 0.950 . S
C317 C313 1.393 . S
C317 C316 1.391 . S
C318 H308 0.950 . S
C318 C319 1.386 . S
C318 C320 1.391 . S
C319 C318 1.386 . S
C319 C323 1.393 . S
C320 H309 0.950 . S
C320 C318 1.391 . S
C320 C321 1.400 . S
C321 C315 1.491 . S
C321 C320 1.400 . S
C321 C322 1.398 . S
C322 H310 0.950 . S
C322 C321 1.398 . S
C322 C323 1.391 . S
C323 H311 0.950 . S
C323 C319 1.393 . S
C323 C322 1.391 . S
H324 C332 0.950 . S
H325 C337 0.950 . S
H326 C334 0.950 . S
H327 C336 0.950 . S
H328 C338 0.950 . S
H329 C340 0.950 . S
H330 C342 0.950 . S
H331 C343 0.950 . S
C332 H324 0.950 . S
C332 C333 1.379 1_455 S
C332 C334 1.391 . S
C333 C332 1.379 1_655 S
C333 C337 1.400 . S
C334 H326 0.950 . S
C334 C332 1.391 . S
C334 C335 1.404 . S
C335 C334 1.404 . S
C335 C336 1.394 1_455 S
C335 C341 1.491 . S
C336 H327 0.950 . S
C336 C335 1.394 1_655 S
C336 C337 1.391 . S
C337 H325 0.950 . S
C337 C333 1.400 . S
C337 C336 1.391 . S
C338 H328 0.950 . S
C338 C339 1.386 1_655 S
C338 C340 1.391 . S
C339 C338 1.386 1_455 S
C339 C343 1.393 . S
C340 H329 0.950 . S
C340 C338 1.391 . S
C340 C341 1.400 1_655 S
C341 C335 1.491 . S
C341 C340 1.400 1_455 S
C341 C342 1.398 . S
C342 H330 0.950 . S
C342 C341 1.398 . S
C342 C343 1.391 . S
C343 H331 0.950 . S
C343 C339 1.393 . S
C343 C342 1.391 . S
H344 C352 0.950 . S
H345 C357 0.950 . S
H346 C354 0.950 . S
H347 C356 0.950 . S
H348 C358 0.946 1_556 S
H349 C360 0.950 . S
H350 C362 0.950 . S
H351 C363 0.950 1_556 S
C352 H344 0.950 . S
C352 C353 1.376 1_545 S
C352 C354 1.391 . S
C353 C352 1.376 1_565 S
C353 C357 1.402 . S
C354 H346 0.950 . S
C354 C352 1.391 . S
C354 C355 1.379 1_545 S
C355 C354 1.379 1_565 S
C355 C356 1.419 . S
C355 C361 1.491 . S
C356 H347 0.950 . S
C356 C355 1.419 . S
C356 C357 1.391 . S
C357 H345 0.950 . S
C357 C353 1.402 . S
C357 C356 1.391 . S
C358 H348 0.946 1_554 S
C358 C359 1.416 1_554 S
C358 C360 1.397 . S
C359 C358 1.416 1_556 S
C359 C363 1.360 1_566 S
C360 H349 0.950 . S
C360 C358 1.397 . S
C360 C361 1.421 . S
C361 C355 1.491 . S
C361 C360 1.421 . S
C361 C362 1.378 1_565 S
C362 H350 0.950 . S
C362 C361 1.378 1_545 S
C362 C363 1.391 . S
C363 H351 0.950 1_554 S
C363 C359 1.360 1_544 S
C363 C362 1.391 . S
H364 C372 0.950 . S
H365 C377 0.950 . S
H366 C374 0.950 . S
H367 C376 0.950 . S
H368 C378 0.950 . S
H369 C380 0.950 . S
H370 C382 0.950 . S
H371 C383 0.950 . S
C372 H364 0.950 . S
C372 C373 1.386 . S
C372 C374 1.391 . S
C373 C372 1.386 . S
C373 C377 1.393 . S
C374 H366 0.950 . S
C374 C372 1.391 . S
C374 C375 1.400 . S
C375 C374 1.400 . S
C375 C376 1.398 . S
C375 C381 1.491 . S
C376 H367 0.950 . S
C376 C375 1.398 . S
C376 C377 1.391 . S
C377 H365 0.950 . S
C377 C373 1.393 . S
C377 C376 1.391 . S
C378 H368 0.950 . S
C378 C379 1.386 . S
C378 C380 1.391 1_556 S
C379 C378 1.386 . S
C379 C383 1.393 1_556 S
C380 H369 0.950 . S
C380 C378 1.391 1_554 S
C380 C381 1.400 . S
C381 C375 1.491 . S
C381 C380 1.400 . S
C381 C382 1.398 . S
C382 H370 0.950 . S
C382 C381 1.398 . S
C382 C383 1.391 . S
C383 H371 0.950 . S
C383 C379 1.393 1_554 S
C383 C382 1.391 . S
H384 C392 0.950 . S
H385 C397 0.950 . S
H386 C394 0.950 . S
H387 C396 0.950 . S
H388 C398 0.950 . S
H389 C400 0.950 . S
H390 C402 0.950 . S
H391 C403 0.950 . S
C392 H384 0.950 . S
C392 C393 1.386 . S
C392 C394 1.391 . S
C393 C392 1.386 . S
C393 C397 1.393 . S
C394 H386 0.950 . S
C394 C392 1.391 . S
C394 C395 1.400 . S
C395 C394 1.400 . S
C395 C396 1.398 . S
C395 C401 1.491 . S
C396 H387 0.950 . S
C396 C395 1.398 . S
C396 C397 1.391 . S
C397 H385 0.950 . S
C397 C393 1.393 . S
C397 C396 1.391 . S
C398 H388 0.950 . S
C398 C399 1.386 1_554 S
C398 C400 1.391 . S
C399 C398 1.386 1_556 S
C399 C403 1.393 . S
C400 H389 0.950 . S
C400 C398 1.391 . S
C400 C401 1.400 . S
C401 C395 1.491 . S
C401 C400 1.400 . S
C401 C402 1.398 . S
C402 H390 0.950 . S
C402 C401 1.398 . S
C402 C403 1.391 1_554 S
C403 H391 0.950 . S
C403 C399 1.393 . S
C403 C402 1.391 1_556 S
H404 C412 0.950 . S
H405 C417 0.950 . S
H406 C414 0.950 . S
H407 C416 0.950 . S
H408 C418 0.950 . S
H409 C420 0.950 . S
H410 C422 0.950 . S
H411 C423 0.950 . S
C412 H404 0.950 . S
C412 C413 1.411 . S
C412 C414 1.391 . S
C413 C412 1.411 . S
C413 C417 1.368 1_655 S
C414 H406 0.950 . S
C414 C412 1.391 . S
C414 C415 1.400 . S
C415 C414 1.400 . S
C415 C416 1.398 1_655 S
C415 C421 1.491 . S
C416 H407 0.950 . S
C416 C415 1.398 1_455 S
C416 C417 1.391 . S
C417 H405 0.950 . S
C417 C413 1.368 1_455 S
C417 C416 1.391 . S
C418 H408 0.950 . S
C418 C419 1.386 1_455 S
C418 C420 1.391 1_556 S
C419 C418 1.386 1_655 S
C419 C423 1.393 1_556 S
C420 H409 0.950 . S
C420 C418 1.391 1_554 S
C420 C421 1.372 1_455 S
C421 C415 1.491 . S
C421 C420 1.372 1_655 S
C421 C422 1.427 . S
C422 H410 0.950 . S
C422 C421 1.427 . S
C422 C423 1.391 . S
C423 H411 0.950 . S
C423 C419 1.393 1_554 S
C423 C422 1.391 . S
H424 C432 0.950 1_556 S
H425 C437 0.950 . S
H426 C434 0.950 . S
H427 C436 0.950 . S
H428 C438 0.950 . S
H429 C440 0.950 . S
H430 C442 0.950 . S
H431 C443 0.950 . S
C432 H424 0.950 1_554 S
C432 C433 1.386 1_655 S
C432 C434 1.391 . S
C433 C432 1.386 1_455 S
C433 C437 1.393 . S
C434 H426 0.950 . S
C434 C432 1.391 . S
C434 C435 1.400 . S
C435 C434 1.400 . S
C435 C436 1.398 . S
C435 C441 1.491 . S
C436 H427 0.950 . S
C436 C435 1.398 . S
C436 C437 1.391 1_655 S
C437 H425 0.950 . S
C437 C433 1.393 . S
C437 C436 1.391 1_455 S
C438 H428 0.950 . S
C438 C439 1.386 . S
C438 C440 1.391 . S
C439 C438 1.386 . S
C439 C443 1.393 . S
C440 H429 0.950 . S
C440 C438 1.391 . S
C440 C441 1.400 . S
C441 C435 1.491 . S
C441 C440 1.400 . S
C441 C442 1.398 . S
C442 H430 0.950 . S
C442 C441 1.398 . S
C442 C443 1.391 . S
C443 H431 0.950 . S
C443 C439 1.393 . S
C443 C442 1.391 . S
H444 C452 0.950 . S
H445 C457 0.950 . S
H446 C454 0.950 . S
H447 C456 0.950 . S
H448 C458 0.950 . S
H449 C460 0.950 . S
H450 C462 0.950 1_545 S
H451 C463 0.950 . S
C452 H444 0.950 . S
C452 C453 1.386 . S
C452 C454 1.391 . S
C453 C452 1.386 . S
C453 C457 1.393 1_545 S
C454 H446 0.950 . S
C454 C452 1.391 . S
C454 C455 1.400 1_545 S
C455 C454 1.400 1_565 S
C455 C456 1.398 . S
C455 C461 1.491 . S
C456 H447 0.950 . S
C456 C455 1.398 . S
C456 C457 1.391 . S
C457 H445 0.950 . S
C457 C453 1.393 1_565 S
C457 C456 1.391 . S
C458 H448 0.950 . S
C458 C459 1.386 . S
C458 C460 1.391 . S
C459 C458 1.386 . S
C459 C463 1.393 . S
C460 H449 0.950 . S
C460 C458 1.391 . S
C460 C461 1.400 . S
C461 C455 1.491 . S
C461 C460 1.400 . S
C461 C462 1.398 . S
C462 H450 0.950 1_565 S
C462 C461 1.398 . S
C462 C463 1.391 . S
C463 H451 0.950 . S
C463 C459 1.393 . S
C463 C462 1.391 . S
H464 C472 0.950 . S
H465 C477 0.950 . S
H466 C474 0.950 . S
H467 C476 0.950 . S
H468 C478 0.950 . S
H469 C480 0.950 . S
H470 C482 0.950 . S
H471 C483 0.950 . S
C472 H464 0.950 . S
C472 C473 1.386 . S
C472 C474 1.391 . S
C473 C472 1.386 . S
C473 C477 1.393 . S
C474 H466 0.950 . S
C474 C472 1.391 . S
C474 C475 1.400 . S
C475 C474 1.400 . S
C475 C476 1.398 . S
C475 C481 1.491 . S
C476 H467 0.950 . S
C476 C475 1.398 . S
C476 C477 1.391 . S
C477 H465 0.950 . S
C477 C473 1.393 . S
C477 C476 1.391 . S
C478 H468 0.950 . S
C478 C479 1.386 . S
C478 C480 1.391 . S
C479 C478 1.386 . S
C479 C483 1.393 . S
C480 H469 0.950 . S
C480 C478 1.391 . S
C480 C481 1.400 . S
C481 C475 1.491 . S
C481 C480 1.400 . S
C481 C482 1.398 . S
C482 H470 0.950 . S
C482 C481 1.398 . S
C482 C483 1.391 . S
C483 H471 0.950 . S
C483 C479 1.393 . S
C483 C482 1.391 . S
H484 C492 0.950 1_556 S
H485 C497 0.950 . S
H486 C494 0.950 . S
H487 C496 0.950 . S
H488 C498 0.950 . S
H489 C500 0.950 . S
H490 C502 0.950 . S
H491 C503 0.950 . S
C492 H484 0.950 1_554 S
C492 C493 1.386 . S
C492 C494 1.391 . S
C493 C492 1.386 . S
C493 C497 1.393 . S
C494 H486 0.950 . S
C494 C492 1.391 . S
C494 C495 1.400 . S
C495 C494 1.400 . S
C495 C496 1.398 . S
C495 C501 1.491 . S
C496 H487 0.950 . S
C496 C495 1.398 . S
C496 C497 1.391 . S
C497 H485 0.950 . S
C497 C493 1.393 . S
C497 C496 1.391 . S
C498 H488 0.950 . S
C498 C499 1.386 . S
C498 C500 1.391 . S
C499 C498 1.386 . S
C499 C503 1.393 . S
C500 H489 0.950 . S
C500 C498 1.391 . S
C500 C501 1.400 . S
C501 C495 1.491 . S
C501 C500 1.400 . S
C501 C502 1.398 . S
C502 H490 0.950 . S
C502 C501 1.398 . S
C502 C503 1.391 . S
C503 H491 0.950 . S
C503 C499 1.393 . S
C503 C502 1.391 . S
H504 C512 0.950 . S
H505 C517 0.950 . S
H506 C514 0.950 . S
H507 C516 0.950 . S
H508 C518 0.950 . S
H509 C520 0.950 . S
H510 C522 0.950 1_655 S
H511 C523 0.950 . S
C512 H504 0.950 . S
C512 C513 1.386 . S
C512 C514 1.391 . S
C513 C512 1.386 . S
C513 C517 1.393 1_655 S
C514 H506 0.950 . S
C514 C512 1.391 . S
C514 C515 1.400 1_655 S
C515 C514 1.400 1_455 S
C515 C516 1.398 . S
C515 C521 1.491 . S
C516 H507 0.950 . S
C516 C515 1.398 . S
C516 C517 1.391 . S
C517 H505 0.950 . S
C517 C513 1.393 1_455 S
C517 C516 1.391 . S
C518 H508 0.950 . S
C518 C519 1.386 . S
C518 C520 1.391 . S
C519 C518 1.386 . S
C519 C523 1.393 . S
C520 H509 0.950 . S
C520 C518 1.391 . S
C520 C521 1.400 . S
C521 C515 1.491 . S
C521 C520 1.400 . S
C521 C522 1.398 . S
C522 H510 0.950 1_455 S
C522 C521 1.398 . S
C522 C523 1.391 . S
C523 H511 0.950 . S
C523 C519 1.393 . S
C523 C522 1.391 . S
H524 C532 0.950 . S
H525 C537 0.950 . S
H526 C534 0.950 . S
H527 C536 0.950 . S
H528 C538 0.950 . S
H529 C540 0.950 1_565 S
H530 C542 0.950 . S
H531 C543 0.950 . S
C532 H524 0.950 . S
C532 C533 1.386 1_545 S
C532 C534 1.391 . S
C533 C532 1.386 1_565 S
C533 C537 1.393 . S
C534 H526 0.950 . S
C534 C532 1.391 . S
C534 C535 1.400 . S
C535 C534 1.400 . S
C535 C536 1.398 1_545 S
C535 C541 1.491 . S
C536 H527 0.950 . S
C536 C535 1.398 1_565 S
C536 C537 1.391 . S
C537 H525 0.950 . S
C537 C533 1.393 . S
C537 C536 1.391 . S
C538 H528 0.950 . S
C538 C539 1.386 . S
C538 C540 1.391 . S
C539 C538 1.386 . S
C539 C543 1.393 . S
C540 H529 0.950 1_545 S
C540 C538 1.391 . S
C540 C541 1.400 . S
C541 C535 1.491 . S
C541 C540 1.400 . S
C541 C542 1.398 . S
C542 H530 0.950 . S
C542 C541 1.398 . S
C542 C543 1.391 . S
C543 H531 0.950 . S
C543 C539 1.393 . S
C543 C542 1.391 . S
H544 C552 0.950 . S
H545 C557 0.950 . S
H546 C554 0.950 . S
H547 C556 0.950 . S
H548 C558 0.950 . S
H549 C560 0.950 . S
H550 C562 0.950 . S
H551 C563 0.950 . S
C552 H544 0.950 . S
C552 C553 1.386 . S
C552 C554 1.391 . S
C553 C552 1.386 . S
C553 C557 1.393 . S
C554 H546 0.950 . S
C554 C552 1.391 . S
C554 C555 1.400 . S
C555 C554 1.400 . S
C555 C556 1.398 . S
C555 C561 1.491 . S
C556 H547 0.950 . S
C556 C555 1.398 . S
C556 C557 1.391 . S
C557 H545 0.950 . S
C557 C553 1.393 . S
C557 C556 1.391 . S
C558 H548 0.950 . S
C558 C559 1.386 . S
C558 C560 1.391 . S
C559 C558 1.386 . S
C559 C563 1.393 . S
C560 H549 0.950 . S
C560 C558 1.391 . S
C560 C561 1.400 . S
C561 C555 1.491 . S
C561 C560 1.400 . S
C561 C562 1.398 . S
C562 H550 0.950 . S
C562 C561 1.398 . S
C562 C563 1.391 . S
C563 H551 0.950 . S
C563 C559 1.393 . S
C563 C562 1.391 . S
H564 C572 0.950 . S
H565 C577 0.950 . S
H566 C574 0.950 . S
H567 C576 0.950 . S
H568 C578 0.950 . S
H569 C580 0.950 . S
H570 C582 0.950 . S
H571 C583 0.950 . S
C572 H564 0.950 . S
C572 C573 1.386 . S
C572 C574 1.391 . S
C573 C572 1.386 . S
C573 C577 1.393 . S
C574 H566 0.950 . S
C574 C572 1.391 . S
C574 C575 1.400 . S
C575 C574 1.400 . S
C575 C576 1.398 . S
C575 C581 1.491 . S
C576 H567 0.950 . S
C576 C575 1.398 . S
C576 C577 1.391 . S
C577 H565 0.950 . S
C577 C573 1.393 . S
C577 C576 1.391 . S
C578 H568 0.950 . S
C578 C579 1.386 . S
C578 C580 1.391 . S
C579 C578 1.386 . S
C579 C583 1.393 . S
C580 H569 0.950 . S
C580 C578 1.391 . S
C580 C581 1.400 . S
C581 C575 1.491 . S
C581 C580 1.400 . S
C581 C582 1.398 . S
C582 H570 0.950 . S
C582 C581 1.398 . S
C582 C583 1.391 . S
C583 H571 0.950 . S
C583 C579 1.393 . S
C583 C582 1.391 . S
H584 C592 0.950 1_554 S
H585 C597 0.950 . S
H586 C594 0.950 1_554 S
H587 C596 0.950 . S
H588 C598 0.950 . S
H589 C600 0.950 . S
H590 C602 0.950 1_554 S
H591 C603 0.950 . S
C592 H584 0.950 1_556 S
C592 C593 1.386 . S
C592 C594 1.391 . S
C593 C592 1.386 . S
C593 C597 1.393 1_455 S
C594 H586 0.950 1_556 S
C594 C592 1.391 . S
C594 C595 1.400 . S
C595 C594 1.400 . S
C595 C596 1.398 1_455 S
C595 C601 1.491 . S
C596 H587 0.950 . S
C596 C595 1.398 1_655 S
C596 C597 1.391 . S
C597 H585 0.950 . S
C597 C593 1.393 1_655 S
C597 C596 1.391 . S
C598 H588 0.950 . S
C598 C599 1.386 1_655 S
C598 C600 1.391 . S
C599 C598 1.386 1_455 S
C599 C603 1.393 . S
C600 H589 0.950 . S
C600 C598 1.391 . S
C600 C601 1.400 1_655 S
C601 C595 1.491 . S
C601 C600 1.400 1_455 S
C601 C602 1.398 . S
C602 H590 0.950 1_556 S
C602 C601 1.398 . S
C602 C603 1.391 . S
C603 H591 0.950 . S
C603 C599 1.393 . S
C603 C602 1.391 . S
H604 C612 0.950 1_554 S
H605 C617 0.950 . S
H606 C614 0.950 1_554 S
H607 C616 0.950 . S
H608 C618 0.950 . S
H609 C620 0.950 . S
H610 C622 0.950 1_554 S
H611 C623 0.950 . S
C612 H604 0.950 1_556 S
C612 C613 1.386 1_565 S
C612 C614 1.391 . S
C613 C612 1.386 1_545 S
C613 C617 1.393 . S
C614 H606 0.950 1_556 S
C614 C612 1.391 . S
C614 C615 1.400 1_565 S
C615 C614 1.400 1_545 S
C615 C616 1.398 . S
C615 C621 1.491 . S
C616 H607 0.950 . S
C616 C615 1.398 . S
C616 C617 1.391 . S
C617 H605 0.950 . S
C617 C613 1.393 . S
C617 C616 1.391 . S
C618 H608 0.950 . S
C618 C619 1.386 . S
C618 C620 1.391 . S
C619 C618 1.386 . S
C619 C623 1.393 1_545 S
C620 H609 0.950 . S
C620 C618 1.391 . S
C620 C621 1.400 . S
C621 C615 1.491 . S
C621 C620 1.400 . S
C621 C622 1.398 1_545 S
C622 H610 0.950 1_556 S
C622 C621 1.398 1_565 S
C622 C623 1.391 . S
C623 H611 0.950 . S
C623 C619 1.393 1_565 S
C623 C622 1.391 . S
H624 C632 0.950 1_554 S
H625 C637 0.950 . S
H626 C634 0.950 1_554 S
H627 C636 0.950 . S
H628 C638 0.950 . S
H629 C640 0.950 . S
H630 C642 0.950 1_554 S
H631 C643 0.950 . S
C632 H624 0.950 1_556 S
C632 C633 1.386 . S
C632 C634 1.391 . S
C633 C632 1.386 . S
C633 C637 1.393 . S
C634 H626 0.950 1_556 S
C634 C632 1.391 . S
C634 C635 1.400 . S
C635 C634 1.400 . S
C635 C636 1.398 . S
C635 C641 1.491 . S
C636 H627 0.950 . S
C636 C635 1.398 . S
C636 C637 1.391 . S
C637 H625 0.950 . S
C637 C633 1.393 . S
C637 C636 1.391 . S
C638 H628 0.950 . S
C638 C639 1.386 . S
C638 C640 1.391 . S
C639 C638 1.386 . S
C639 C643 1.393 . S
C640 H629 0.950 . S
C640 C638 1.391 . S
C640 C641 1.400 . S
C641 C635 1.491 . S
C641 C640 1.400 . S
C641 C642 1.398 . S
C642 H630 0.950 1_556 S
C642 C641 1.398 . S
C642 C643 1.391 . S
C643 H631 0.950 . S
C643 C639 1.393 . S
C643 C642 1.391 . S
H644 C652 0.950 . S
H645 C657 0.950 1_554 S
H646 C654 0.950 . S
H647 C656 0.950 1_554 S
H648 C658 0.950 1_554 S
H649 C660 0.950 1_554 S
H650 C662 0.950 . S
H651 C663 0.950 . S
C652 H644 0.950 . S
C652 C653 1.386 . S
C652 C654 1.391 . S
C653 C652 1.386 . S
C653 C657 1.393 . S
C654 H646 0.950 . S
C654 C652 1.391 . S
C654 C655 1.400 . S
C655 C654 1.400 . S
C655 C656 1.398 . S
C655 C661 1.491 . S
C656 H647 0.950 1_556 S
C656 C655 1.398 . S
C656 C657 1.391 . S
C657 H645 0.950 1_556 S
C657 C653 1.393 . S
C657 C656 1.391 . S
C658 H648 0.950 1_556 S
C658 C659 1.386 . S
C658 C660 1.391 . S
C659 C658 1.386 . S
C659 C663 1.393 . S
C660 H649 0.950 1_556 S
C660 C658 1.391 . S
C660 C661 1.400 . S
C661 C655 1.491 . S
C661 C660 1.400 . S
C661 C662 1.398 . S
C662 H650 0.950 . S
C662 C661 1.398 . S
C662 C663 1.391 . S
C663 H651 0.950 . S
C663 C659 1.393 . S
C663 C662 1.391 . S
H664 C672 0.950 . S
H665 C677 0.950 . S
H666 C674 0.950 . S
H667 C676 0.950 . S
H668 C678 0.950 . S
H669 C680 0.950 . S
H670 C682 0.950 . S
H671 C683 0.950 . S
C672 H664 0.950 . S
C672 C673 1.386 1_455 S
C672 C674 1.391 . S
C673 C672 1.386 1_655 S
C673 C677 1.393 . S
C674 H666 0.950 . S
C674 C672 1.391 . S
C674 C675 1.400 1_455 S
C675 C674 1.400 1_655 S
C675 C676 1.398 . S
C675 C681 1.491 . S
C676 H667 0.950 . S
C676 C675 1.398 . S
C676 C677 1.391 . S
C677 H665 0.950 . S
C677 C673 1.393 . S
C677 C676 1.391 . S
C678 H668 0.950 . S
C678 C679 1.386 . S
C678 C680 1.391 . S
C679 C678 1.386 . S
C679 C683 1.393 1_655 S
C680 H669 0.950 . S
C680 C678 1.391 . S
C680 C681 1.400 . S
C681 C675 1.491 . S
C681 C680 1.400 . S
C681 C682 1.398 1_655 S
C682 H670 0.950 . S
C682 C681 1.398 1_455 S
C682 C683 1.391 . S
C683 H671 0.950 . S
C683 C679 1.393 1_455 S
C683 C682 1.391 . S
H684 C692 0.950 . S
H685 C697 0.950 . S
H686 C694 0.950 . S
H687 C696 0.950 . S
H688 C698 0.950 . S
H689 C700 0.950 . S
H690 C702 0.951 . S
H691 C703 0.950 1_545 S
C692 H684 0.950 . S
C692 C693 1.386 1_545 S
C692 C694 1.391 . S
C693 C692 1.386 1_565 S
C693 C697 1.393 . S
C694 H686 0.950 . S
C694 C692 1.391 . S
C694 C695 1.400 1_545 S
C695 C694 1.400 1_565 S
C695 C696 1.398 . S
C695 C701 1.491 . S
C696 H687 0.950 . S
C696 C695 1.398 . S
C696 C697 1.391 . S
C697 H685 0.950 . S
C697 C693 1.393 . S
C697 C696 1.391 . S
C698 H688 0.950 . S
C698 C699 1.386 . S
C698 C700 1.391 . S
C699 C698 1.386 . S
C699 C703 1.393 . S
C700 H689 0.950 . S
C700 C698 1.391 . S
C700 C701 1.400 . S
C701 C695 1.491 . S
C701 C700 1.400 . S
C701 C702 1.397 1_565 S
C702 H690 0.951 . S
C702 C701 1.397 1_545 S
C702 C703 1.390 1_545 S
C703 H691 0.950 1_565 S
C703 C699 1.393 . S
C703 C702 1.390 1_565 S
H704 C712 0.950 . S
H705 C717 0.950 . S
H706 C714 0.950 . S
H707 C716 0.950 . S
H708 C718 0.950 . S
H709 C720 0.950 . S
H710 C722 0.950 . S
H711 C723 0.950 . S
C712 H704 0.950 . S
C712 C713 1.386 . S
C712 C714 1.391 . S
C713 C712 1.386 . S
C713 C717 1.393 . S
C714 H706 0.950 . S
C714 C712 1.391 . S
C714 C715 1.400 . S
C715 C714 1.400 . S
C715 C716 1.398 . S
C715 C721 1.491 . S
C716 H707 0.950 . S
C716 C715 1.398 . S
C716 C717 1.391 . S
C717 H705 0.950 . S
C717 C713 1.393 . S
C717 C716 1.391 . S
C718 H708 0.950 . S
C718 C719 1.386 . S
C718 C720 1.391 . S
C719 C718 1.386 . S
C719 C723 1.393 . S
C720 H709 0.950 . S
C720 C718 1.391 . S
C720 C721 1.400 . S
C721 C715 1.491 . S
C721 C720 1.400 . S
C721 C722 1.398 . S
C722 H710 0.950 . S
C722 C721 1.398 . S
C722 C723 1.391 . S
C723 H711 0.950 . S
C723 C719 1.393 . S
C723 C722 1.391 . S
H724 C732 0.950 . S
H725 C737 0.950 . S
H726 C734 0.950 . S
H727 C736 0.950 . S
H728 C738 0.950 . S
H729 C740 0.950 . S
H730 C742 0.950 . S
H731 C743 0.950 . S
C732 H724 0.950 . S
C732 C733 1.386 . S
C732 C734 1.391 . S
C733 C732 1.386 . S
C733 C737 1.393 . S
C734 H726 0.950 . S
C734 C732 1.391 . S
C734 C735 1.400 . S
C735 C734 1.400 . S
C735 C736 1.398 . S
C735 C741 1.491 . S
C736 H727 0.950 . S
C736 C735 1.398 . S
C736 C737 1.391 . S
C737 H725 0.950 . S
C737 C733 1.393 . S
C737 C736 1.391 . S
C738 H728 0.950 . S
C738 C739 1.386 . S
C738 C740 1.391 . S
C739 C738 1.386 . S
C739 C743 1.393 . S
C740 H729 0.950 . S
C740 C738 1.391 . S
C740 C741 1.400 . S
C741 C735 1.491 . S
C741 C740 1.400 . S
C741 C742 1.398 . S
C742 H730 0.950 . S
C742 C741 1.398 . S
C742 C743 1.391 . S
C743 H731 0.950 . S
C743 C739 1.393 . S
C743 C742 1.391 . S
C273 N80 1.871 . S
C279 C114 1.953 1_545 S
C299 C154 1.956 . S
C293 N93 1.888 . S
C319 C194 1.969 . S
C313 N54 1.881 . S
C339 C234 1.959 1_455 S
C333 N67 1.883 . S
C359 C123 1.948 1_565 S
C353 N28 1.890 . S
C373 N41 1.877 . S
C379 C163 1.960 . S
C393 N2 1.891 . S
C399 C203 1.969 . S
C413 N15 1.871 . S
C419 C243 1.957 1_655 S
C439 C120 0.507 . S
C433 N70 0.461 1_455 S
C459 C160 0.463 . S
C453 N83 0.430 1_545 S
C479 C200 0.462 . S
C473 N96 0.445 . S
C493 N57 0.467 . S
C499 C240 0.502 . S
C513 N18 0.447 . S
C519 C111 0.475 . S
C539 C151 0.474 . S
C533 N31 0.432 . S
C559 C191 0.502 . S
C553 N44 0.453 . S
C573 N5 0.456 . S
C579 C231 0.500 . S
C593 N66 2.160 1_455 S
C599 C115 2.249 . S
C613 N79 2.153 1_545 S
C619 C155 2.231 . S
C639 C195 2.221 . S
C633 N92 2.144 . S
C659 C235 2.233 . S
C653 N53 2.148 . S
C673 N14 2.154 . S
C679 C106 2.260 . S
C699 C146 2.221 . S
C693 N27 2.133 . S
C719 C186 2.219 . S
C713 N40 2.117 . S
C733 N1 2.150 . S
C739 C226 2.237 . S
