# Generated by pormake.
# Topology ptr, (4,4)-cn, num edge types: 1
# Building blocks:
#     Node 0, Type 0, BuildingBlock: QUQFOY_clean_sbu_3, # of connection points: 4
#     Node 1, Type 0, BuildingBlock: QUQFOY_clean_sbu_3, # of connection points: 4
#     Node 2, Type 0, BuildingBlock: QUQFOY_clean_sbu_3, # of connection points: 4
#     Node 3, Type 0, BuildingBlock: QUQFOY_clean_sbu_3, # of connection points: 4
#     Node 4, Type 0, BuildingBlock: QUQFOY_clean_sbu_3, # of connection points: 4
#     Node 5, Type 0, BuildingBlock: QUQFOY_clean_sbu_3, # of connection points: 4
#     Node 6, Type 0, BuildingBlock: QUQFOY_clean_sbu_3, # of connection points: 4
#     Node 7, Type 0, BuildingBlock: QUQFOY_clean_sbu_3, # of connection points: 4
#     Node 8, Type 0, BuildingBlock: QUQFOY_clean_sbu_3, # of connection points: 4
#     Node 9, Type 0, BuildingBlock: QUQFOY_clean_sbu_3, # of connection points: 4
#     Node 10, Type 0, BuildingBlock: QUQFOY_clean_sbu_3, # of connection points: 4
#     Node 11, Type 0, BuildingBlock: QUQFOY_clean_sbu_3, # of connection points: 4
#     Node 12, Type 0, BuildingBlock: QUQFOY_clean_sbu_3, # of connection points: 4
#     Node 13, Type 0, BuildingBlock: QUQFOY_clean_sbu_3, # of connection points: 4
#     Node 14, Type 0, BuildingBlock: QUQFOY_clean_sbu_3, # of connection points: 4
#     Node 15, Type 0, BuildingBlock: QUQFOY_clean_sbu_3, # of connection points: 4
#     Node 16, Type 0, BuildingBlock: QUQFOY_clean_sbu_3, # of connection points: 4
#     Node 17, Type 0, BuildingBlock: QUQFOY_clean_sbu_3, # of connection points: 4
#     Node 18, Type 1, BuildingBlock: MIFKUJ_clean_linker_1, # of connection points: 4
#     Node 19, Type 1, BuildingBlock: MIFKUJ_clean_linker_1, # of connection points: 4
#     Node 20, Type 1, BuildingBlock: MIFKUJ_clean_linker_1, # of connection points: 4
#     Node 21, Type 1, BuildingBlock: MIFKUJ_clean_linker_1, # of connection points: 4
#     Node 22, Type 1, BuildingBlock: MIFKUJ_clean_linker_1, # of connection points: 4
#     Node 23, Type 1, BuildingBlock: MIFKUJ_clean_linker_1, # of connection points: 4
#     Node 24, Type 1, BuildingBlock: MIFKUJ_clean_linker_1, # of connection points: 4
#     Node 25, Type 1, BuildingBlock: MIFKUJ_clean_linker_1, # of connection points: 4
#     Node 26, Type 1, BuildingBlock: MIFKUJ_clean_linker_1, # of connection points: 4
#     Node 27, Type 1, BuildingBlock: MIFKUJ_clean_linker_1, # of connection points: 4
#     Node 28, Type 1, BuildingBlock: MIFKUJ_clean_linker_1, # of connection points: 4
#     Node 29, Type 1, BuildingBlock: MIFKUJ_clean_linker_1, # of connection points: 4
#     Node 30, Type 1, BuildingBlock: MIFKUJ_clean_linker_1, # of connection points: 4
#     Node 31, Type 1, BuildingBlock: MIFKUJ_clean_linker_1, # of connection points: 4
#     Node 32, Type 1, BuildingBlock: MIFKUJ_clean_linker_1, # of connection points: 4
#     Node 33, Type 1, BuildingBlock: MIFKUJ_clean_linker_1, # of connection points: 4
#     Node 34, Type 1, BuildingBlock: MIFKUJ_clean_linker_1, # of connection points: 4
#     Node 35, Type 1, BuildingBlock: MIFKUJ_clean_linker_1, # of connection points: 4
#     Edge 36, Type (0, 1), BuildingBlock: OJICUG_clean_linker_0, # of connection points: 2
#     Edge 37, Type (0, 1), BuildingBlock: OJICUG_clean_linker_0, # of connection points: 2
#     Edge 38, Type (0, 1), BuildingBlock: OJICUG_clean_linker_0, # of connection points: 2
#     Edge 39, Type (0, 1), BuildingBlock: OJICUG_clean_linker_0, # of connection points: 2
#     Edge 40, Type (0, 1), BuildingBlock: OJICUG_clean_linker_0, # of connection points: 2
#     Edge 41, Type (0, 1), BuildingBlock: OJICUG_clean_linker_0, # of connection points: 2
#     Edge 42, Type (0, 1), BuildingBlock: OJICUG_clean_linker_0, # of connection points: 2
#     Edge 43, Type (0, 1), BuildingBlock: OJICUG_clean_linker_0, # of connection points: 2
#     Edge 44, Type (0, 1), BuildingBlock: OJICUG_clean_linker_0, # of connection points: 2
#     Edge 45, Type (0, 1), BuildingBlock: OJICUG_clean_linker_0, # of connection points: 2
#     Edge 46, Type (0, 1), BuildingBlock: OJICUG_clean_linker_0, # of connection points: 2
#     Edge 47, Type (0, 1), BuildingBlock: OJICUG_clean_linker_0, # of connection points: 2
#     Edge 48, Type (0, 1), BuildingBlock: OJICUG_clean_linker_0, # of connection points: 2
#     Edge 49, Type (0, 1), BuildingBlock: OJICUG_clean_linker_0, # of connection points: 2
#     Edge 50, Type (0, 1), BuildingBlock: OJICUG_clean_linker_0, # of connection points: 2
#     Edge 51, Type (0, 1), BuildingBlock: OJICUG_clean_linker_0, # of connection points: 2
#     Edge 52, Type (0, 1), BuildingBlock: OJICUG_clean_linker_0, # of connection points: 2
#     Edge 53, Type (0, 1), BuildingBlock: OJICUG_clean_linker_0, # of connection points: 2
#     Edge 54, Type (0, 1), BuildingBlock: OJICUG_clean_linker_0, # of connection points: 2
#     Edge 55, Type (0, 1), BuildingBlock: OJICUG_clean_linker_0, # of connection points: 2
#     Edge 56, Type (0, 1), BuildingBlock: OJICUG_clean_linker_0, # of connection points: 2
#     Edge 57, Type (0, 1), BuildingBlock: OJICUG_clean_linker_0, # of connection points: 2
#     Edge 58, Type (0, 1), BuildingBlock: OJICUG_clean_linker_0, # of connection points: 2
#     Edge 59, Type (0, 1), BuildingBlock: OJICUG_clean_linker_0, # of connection points: 2
#     Edge 60, Type (0, 1), BuildingBlock: OJICUG_clean_linker_0, # of connection points: 2
#     Edge 61, Type (0, 1), BuildingBlock: OJICUG_clean_linker_0, # of connection points: 2
#     Edge 62, Type (0, 1), BuildingBlock: OJICUG_clean_linker_0, # of connection points: 2
#     Edge 63, Type (0, 1), BuildingBlock: OJICUG_clean_linker_0, # of connection points: 2
#     Edge 64, Type (0, 1), BuildingBlock: OJICUG_clean_linker_0, # of connection points: 2
#     Edge 65, Type (0, 1), BuildingBlock: OJICUG_clean_linker_0, # of connection points: 2
#     Edge 66, Type (0, 1), BuildingBlock: OJICUG_clean_linker_0, # of connection points: 2
#     Edge 67, Type (0, 1), BuildingBlock: OJICUG_clean_linker_0, # of connection points: 2
#     Edge 68, Type (0, 1), BuildingBlock: OJICUG_clean_linker_0, # of connection points: 2
#     Edge 69, Type (0, 1), BuildingBlock: OJICUG_clean_linker_0, # of connection points: 2
#     Edge 70, Type (0, 1), BuildingBlock: OJICUG_clean_linker_0, # of connection points: 2
#     Edge 71, Type (0, 1), BuildingBlock: OJICUG_clean_linker_0, # of connection points: 2
#     Edge 72, Type (0, 1), BuildingBlock: OJICUG_clean_linker_0, # of connection points: 2
#     Edge 73, Type (0, 1), BuildingBlock: OJICUG_clean_linker_0, # of connection points: 2
#     Edge 74, Type (0, 1), BuildingBlock: OJICUG_clean_linker_0, # of connection points: 2
#     Edge 75, Type (0, 1), BuildingBlock: OJICUG_clean_linker_0, # of connection points: 2
#     Edge 76, Type (0, 1), BuildingBlock: OJICUG_clean_linker_0, # of connection points: 2
#     Edge 77, Type (0, 1), BuildingBlock: OJICUG_clean_linker_0, # of connection points: 2
#     Edge 78, Type (0, 1), BuildingBlock: OJICUG_clean_linker_0, # of connection points: 2
#     Edge 79, Type (0, 1), BuildingBlock: OJICUG_clean_linker_0, # of connection points: 2
#     Edge 80, Type (0, 1), BuildingBlock: OJICUG_clean_linker_0, # of connection points: 2
#     Edge 81, Type (0, 1), BuildingBlock: OJICUG_clean_linker_0, # of connection points: 2
#     Edge 82, Type (0, 1), BuildingBlock: OJICUG_clean_linker_0, # of connection points: 2
#     Edge 83, Type (0, 1), BuildingBlock: OJICUG_clean_linker_0, # of connection points: 2
#     Edge 84, Type (0, 1), BuildingBlock: OJICUG_clean_linker_0, # of connection points: 2
#     Edge 85, Type (0, 1), BuildingBlock: OJICUG_clean_linker_0, # of connection points: 2
#     Edge 86, Type (0, 1), BuildingBlock: OJICUG_clean_linker_0, # of connection points: 2
#     Edge 87, Type (0, 1), BuildingBlock: OJICUG_clean_linker_0, # of connection points: 2
#     Edge 88, Type (0, 1), BuildingBlock: OJICUG_clean_linker_0, # of connection points: 2
#     Edge 89, Type (0, 1), BuildingBlock: OJICUG_clean_linker_0, # of connection points: 2
#     Edge 90, Type (0, 1), BuildingBlock: OJICUG_clean_linker_0, # of connection points: 2
#     Edge 91, Type (0, 1), BuildingBlock: OJICUG_clean_linker_0, # of connection points: 2
#     Edge 92, Type (0, 1), BuildingBlock: OJICUG_clean_linker_0, # of connection points: 2
#     Edge 93, Type (0, 1), BuildingBlock: OJICUG_clean_linker_0, # of connection points: 2
#     Edge 94, Type (0, 1), BuildingBlock: OJICUG_clean_linker_0, # of connection points: 2
#     Edge 95, Type (0, 1), BuildingBlock: OJICUG_clean_linker_0, # of connection points: 2
#     Edge 96, Type (0, 1), BuildingBlock: OJICUG_clean_linker_0, # of connection points: 2
#     Edge 97, Type (0, 1), BuildingBlock: OJICUG_clean_linker_0, # of connection points: 2
#     Edge 98, Type (0, 1), BuildingBlock: OJICUG_clean_linker_0, # of connection points: 2
#     Edge 99, Type (0, 1), BuildingBlock: OJICUG_clean_linker_0, # of connection points: 2
#     Edge 100, Type (0, 1), BuildingBlock: OJICUG_clean_linker_0, # of connection points: 2
#     Edge 101, Type (0, 1), BuildingBlock: OJICUG_clean_linker_0, # of connection points: 2
#     Edge 102, Type (0, 1), BuildingBlock: OJICUG_clean_linker_0, # of connection points: 2
#     Edge 103, Type (0, 1), BuildingBlock: OJICUG_clean_linker_0, # of connection points: 2
#     Edge 104, Type (0, 1), BuildingBlock: OJICUG_clean_linker_0, # of connection points: 2
#     Edge 105, Type (0, 1), BuildingBlock: OJICUG_clean_linker_0, # of connection points: 2
#     Edge 106, Type (0, 1), BuildingBlock: OJICUG_clean_linker_0, # of connection points: 2
#     Edge 107, Type (0, 1), BuildingBlock: OJICUG_clean_linker_0, # of connection points: 2
# Relax obj value: 0.033
# Max RMSD: 0.123
# Mean RMSD: 0.057
data_MOF--net-ptr--node1-QUQFOY_clean_sbu_3--node2-MIFKUJ_clean_linker_1--edge1-OJICUG_clean_linker_0
_symmetry_space_group_name_H-M    P1
_symmetry_Int_Tables_number       1
_symmetry_cell_setting            triclinic
loop_
_symmetry_equiv_pos_as_xyz
'x, y, z'
_cell_length_a     70.488287
_cell_length_b     70.827029
_cell_length_c     48.825079
_cell_angle_alpha  90.507687
_cell_angle_beta   89.55148
_cell_angle_gamma 120.56982
loop_
_atom_site_label
_atom_site_type_symbol
_atom_site_fract_x
_atom_site_fract_y
_atom_site_fract_z
_atom_type_partial_charge
C0 C 0.95722 0.31518 0.99034 0.0
O1 O 0.94743 0.32562 0.99607 0.0
Cd2 Cd 0.9638 0.36 0.02034 0.0
O3 O 0.97704 0.32255 -0.00217 0.0
Cd4 Cd 0.00611 0.35484 0.0226 0.0
C5 C 0.00601 0.38926 0.97508 0.0
O6 O 0.98345 0.35814 0.05865 0.0
O7 O 0.01656 0.38547 0.05411 0.0
O8 O 0.01457 0.32909 0.04403 0.0
C9 C -0.00143 0.37662 0.06738 0.0
O10 O 0.98909 0.38695 0.98771 0.0
C11 C 0.03524 0.34038 0.04016 0.0
O12 O 0.01479 0.37798 0.98144 0.0
O13 O 0.04247 0.35831 0.02731 0.0
C14 C 0.63263 0.68387 0.02648 0.0
O15 O 0.61221 0.67387 0.02088 0.0
Cd16 Cd 0.59289 0.63968 0.99667 0.0
O17 O 0.6447 0.67628 0.01848 0.0
Cd18 Cd 0.64056 0.64428 0.9923 0.0
C19 C 0.6055 0.60976 0.04043 0.0
O20 O 0.61464 0.64228 0.95766 0.0
O21 O 0.62043 0.6152 0.95875 0.0
O22 O 0.67586 0.66938 0.97107 0.0
C23 C 0.61114 0.62433 0.94724 0.0
O24 O 0.59129 0.61352 0.02984 0.0
C25 C 0.68438 0.65764 0.97547 0.0
O26 O 0.62535 0.61963 0.03181 0.0
O27 O 0.67264 0.63983 0.98834 0.0
C28 C 0.30776 0.94583 0.01892 0.0
O29 O 0.31649 0.93534 0.00914 0.0
Cd30 Cd 0.35338 0.95339 0.99158 0.0
O31 O 0.31762 0.96664 0.01764 0.0
Cd32 Cd 0.351 -0.00235 -0.002 0.0
C33 C 0.38127 0.98988 0.04476 0.0
O34 O 0.35443 0.97843 0.95862 0.0
O35 O 0.38166 0.01125 0.96597 0.0
O36 O 0.32693 0.00803 0.97718 0.0
C37 C 0.37291 0.99423 0.95093 0.0
O38 O 0.37667 0.97275 0.03089 0.0
C39 C 0.33655 0.02747 0.98652 0.0
O40 O 0.37362 0.00205 0.03799 0.0
O41 O 0.35285 0.0331 0.00235 0.0
C42 C 0.93672 0.62844 0.98747 0.0
O43 O 0.92604 0.60854 0.99494 0.0
Cd44 Cd 0.9438 0.59075 0.01501 0.0
O45 O 0.95737 0.64 0.99168 0.0
Cd46 Cd 0.98712 0.6368 0.01341 0.0
C47 C 0.98294 0.60042 0.96553 0.0
O48 O 0.96637 0.613 0.05217 0.0
O49 O -0.00109 0.61831 0.04436 0.0
O50 O -0.00235 0.67289 0.03153 0.0
C51 C 0.98198 0.6102 0.05959 0.0
O52 O 0.96534 0.58706 0.97822 0.0
C53 C 0.01811 0.6812 0.02701 0.0
O54 O 0.99408 0.62047 0.97287 0.0
O55 O 0.0242 0.669 0.01547 0.0
C56 C 0.317 0.36705 0.03601 0.0
O57 O 0.32668 0.38734 0.03038 0.0
Cd58 Cd 0.36073 0.40603 0.00569 0.0
O59 O 0.32515 0.3554 0.02848 0.0
Cd60 Cd 0.35739 0.35941 0.0033 0.0
C61 C 0.39311 0.39627 0.04904 0.0
O62 O 0.35691 0.38285 0.96775 0.0
O63 O 0.38529 0.37884 0.96795 0.0
O64 O 0.33279 0.32498 0.98089 0.0
C65 C 0.37453 0.38632 0.95616 0.0
O66 O 0.38829 0.4096 0.03824 0.0
C67 C 0.3431 0.3154 0.9877 0.0
O68 O 0.38352 0.37629 0.04131 0.0
O69 O 0.36009 0.3262 0.00252 0.0
C70 C 0.69621 0.04916 -0.00138 0.0
O71 O 0.68838 0.0604 0.00856 0.0
Cd72 Cd 0.65088 0.04356 0.02347 0.0
O73 O 0.68527 0.02831 -0.00023 0.0
Cd74 Cd 0.65084 -0.00115 0.02097 0.0
C75 C 0.62398 0.00662 0.97011 0.0
O76 O 0.6451 0.01827 0.05886 0.0
O77 O 0.6172 0.9869 0.04735 0.0
O78 O 0.67283 0.98864 0.04767 0.0
C79 C 0.62538 0.00324 0.06354 0.0
O80 O 0.62927 0.02433 0.98304 0.0
C81 C 0.6641 0.96911 0.03881 0.0
O82 O 0.6299 0.99346 0.97873 0.0
O83 O 0.64911 0.96318 0.02082 0.0
C84 C 0.62185 0.64524 0.33011 0.0
O85 O 0.61007 0.65258 0.33981 0.0
Cd86 Cd 0.62546 0.68851 0.35923 0.0
O87 O 0.6427 0.65592 0.33305 0.0
Cd88 Cd 0.67145 0.68916 0.35716 0.0
C89 C 0.66431 0.71867 0.30889 0.0
O90 O 0.64928 0.69075 0.39486 0.0
O91 O 0.68121 0.71963 0.38888 0.0
O92 O 0.68121 0.66392 0.37659 0.0
C93 C 0.66361 0.70983 0.40288 0.0
O94 O 0.64636 0.71304 0.32163 0.0
C95 C 0.70178 0.67566 0.37236 0.0
O96 O 0.67695 0.71174 0.31653 0.0
O97 O 0.70852 0.69386 0.3603 0.0
C98 C 0.29455 0.01563 0.36073 0.0
O99 O 0.27412 0.00542 0.3553 0.0
Cd100 Cd 0.25543 0.97066 0.33238 0.0
O101 O 0.30661 0.00791 0.35312 0.0
Cd102 Cd 0.30185 0.97521 0.32795 0.0
C103 C 0.26824 0.94201 0.37759 0.0
O104 O 0.27608 0.97247 0.29222 0.0
O105 O 0.28064 0.94478 0.29658 0.0
O106 O 0.33781 0.00021 0.30765 0.0
C107 C 0.27236 0.95406 0.28318 0.0
O108 O 0.25366 0.94506 0.36672 0.0
C109 C 0.3453 0.98742 0.31071 0.0
O110 O 0.28797 0.95201 0.36863 0.0
O111 O 0.33276 0.96921 0.32234 0.0
C112 C 0.97168 0.28166 0.36089 0.0
O113 O 0.98093 0.27059 0.35593 0.0
Cd114 Cd 0.0178 0.28623 0.33951 0.0
O115 O 0.9816 0.30214 0.35611 0.0
Cd116 Cd 0.01676 0.33139 0.33727 0.0
C117 C 0.04387 0.32563 0.39007 0.0
O118 O 0.02079 0.30912 0.30224 0.0
O119 O 0.0485 0.34195 0.30772 0.0
O120 O -0.00451 0.3427 0.31108 0.0
C121 C 0.03977 0.32397 0.29455 0.0
O122 O 0.03919 0.30751 0.37873 0.0
C123 C 0.00517 0.36229 0.31991 0.0
O124 O 0.03757 0.33797 0.37975 0.0
O125 O 0.02028 0.36762 0.33753 0.0
C126 C 0.6076 0.96006 0.32323 0.0
O127 O 0.59757 0.94003 0.33018 0.0
Cd128 Cd 0.61571 0.92359 0.35265 0.0
O129 O 0.62791 0.97256 0.32879 0.0
Cd130 Cd 0.65839 0.97149 0.35188 0.0
C131 C 0.65665 0.93547 0.3048 0.0
O132 O 0.63681 0.94735 0.38956 0.0
O133 O 0.67033 0.9545 0.38541 0.0
O134 O 0.6661 0.00703 0.36873 0.0
C135 C 0.65244 0.94535 0.39888 0.0
O136 O 0.63903 0.92162 0.31706 0.0
C137 C 0.68675 0.01663 0.36485 0.0
O138 O 0.66702 0.95555 0.31218 0.0
O139 O 0.69433 0.00527 0.35444 0.0
C140 C 0.98517 0.70058 0.36912 0.0
O141 O -0.00487 0.72094 0.36385 0.0
Cd142 Cd 0.02983 0.73974 0.34059 0.0
O143 O 0.99334 0.68888 0.3619 0.0
Cd144 Cd 0.0261 0.69295 0.33788 0.0
C145 C 0.06075 0.72889 0.38515 0.0
O146 O 0.02713 0.71725 0.30235 0.0
O147 O 0.05523 0.71284 0.30413 0.0
O148 O 0.00179 0.65898 0.31424 0.0
C149 C 0.04511 0.72077 0.29179 0.0
O150 O 0.05633 0.74245 0.37422 0.0
C151 C 0.01174 0.64909 0.3212 0.0
O152 O 0.05127 0.70901 0.37699 0.0
O153 O 0.02839 0.65948 0.33669 0.0
C154 C 0.36313 0.38404 0.32607 0.0
O155 O 0.35462 0.39522 0.33401 0.0
Cd156 Cd 0.31736 0.37849 0.34968 0.0
O157 O 0.35291 0.36333 0.32913 0.0
Cd158 Cd 0.31877 0.33444 0.35154 0.0
C159 C 0.28954 0.33862 0.30004 0.0
O160 O 0.31412 0.35601 0.38767 0.0
O161 O 0.28672 0.32323 0.38067 0.0
O162 O 0.34084 0.32426 0.37847 0.0
C163 C 0.29513 0.34074 0.3948 0.0
O164 O 0.29498 0.3572 0.31061 0.0
C165 C 0.33175 0.3046 0.36997 0.0
O166 O 0.29591 0.32635 0.31048 0.0
O167 O 0.31669 0.2987 0.35213 0.0
C168 C 0.2896 0.97809 0.66516 0.0
O169 O 0.27779 0.98527 0.67523 0.0
Cd170 Cd 0.29297 0.02155 0.69355 0.0
O171 O 0.31051 0.98922 0.66705 0.0
Cd172 Cd 0.33946 0.02339 0.68938 0.0
C173 C 0.3298 0.05139 0.64136 0.0
O174 O 0.31821 0.02529 0.72814 0.0
O175 O 0.34958 0.05439 0.72025 0.0
O176 O 0.35157 -0.00011 0.70875 0.0
C177 C 0.3325 0.04467 0.73519 0.0
O178 O 0.31216 0.04566 0.65488 0.0
C179 C 0.37179 0.01199 0.70268 0.0
O180 O 0.34298 0.04497 0.64849 0.0
O181 O 0.37718 0.02954 0.68973 0.0
C182 C 0.96355 0.34692 0.69069 0.0
O183 O 0.94324 0.3371 0.68454 0.0
Cd184 Cd 0.92427 0.303 0.66019 0.0
O185 O 0.97562 0.33922 0.68311 0.0
Cd186 Cd 0.97154 0.30709 0.65709 0.0
C187 C 0.93604 0.27338 0.70545 0.0
O188 O 0.94636 0.3053 0.62158 0.0
O189 O 0.95104 0.27756 0.62389 0.0
O190 O 0.00714 0.33236 0.63666 0.0
C191 C 0.94248 0.28709 0.61161 0.0
O192 O 0.92198 0.27708 0.69428 0.0
C193 C 0.01575 0.32076 0.64148 0.0
O194 O 0.95593 0.28298 0.69699 0.0
O195 O 0.00382 0.30279 0.65396 0.0
C196 C 0.63448 0.60873 0.68725 0.0
O197 O 0.64313 0.59744 0.68031 0.0
Cd198 Cd 0.6797 0.61385 0.66218 0.0
O199 O 0.6446 0.62931 0.68313 0.0
Cd200 Cd 0.67863 0.65907 0.66273 0.0
C201 C 0.70699 0.65265 0.7133 0.0
O202 O 0.6814 0.63708 0.62586 0.0
O203 O 0.70884 0.67008 0.63062 0.0
O204 O 0.65363 0.67004 0.64512 0.0
C205 C 0.70003 0.65215 0.61742 0.0
O206 O 0.70216 0.63471 0.70129 0.0
C207 C 0.66625 0.69032 0.65003 0.0
O208 O 0.70031 0.66501 0.70408 0.0
O209 O 0.68462 0.69609 0.66127 0.0
C210 C 0.27408 0.29747 0.65858 0.0
O211 O 0.26355 0.2776 0.6662 0.0
Cd212 Cd 0.28174 0.26037 0.68667 0.0
O213 O 0.29469 0.30926 0.66288 0.0
Cd214 Cd 0.32526 0.30761 0.68469 0.0
C215 C 0.32133 0.27108 0.63705 0.0
O216 O 0.30439 0.28367 0.72304 0.0
O217 O 0.33757 0.29026 0.71698 0.0
O218 O 0.33399 0.34354 0.70129 0.0
C219 C 0.32008 0.28128 0.73122 0.0
O220 O 0.30374 0.25763 0.64972 0.0
C221 C 0.35455 0.35275 0.69692 0.0
O222 O 0.33243 0.29113 0.64444 0.0
O223 O 0.36165 0.34101 0.68645 0.0
C224 C 0.65425 0.03491 0.6979 0.0
O225 O 0.66394 0.05478 0.69033 0.0
Cd226 Cd 0.69819 0.07192 0.66639 0.0
O227 O 0.66226 0.02279 0.69206 0.0
Cd228 Cd 0.6937 0.02454 0.66687 0.0
C229 C 0.72864 0.06154 0.71281 0.0
O230 O 0.69285 0.04691 0.63019 0.0
O231 O 0.72099 0.04265 0.63015 0.0
O232 O 0.6658 0.9878 0.65268 0.0
C233 C 0.71024 0.0501 0.61831 0.0
O234 O 0.72443 0.07494 0.70096 0.0
C235 C 0.6782 0.97972 0.65433 0.0
O236 O 0.71907 0.04149 0.7054 0.0
O237 O 0.69779 0.9924 0.66253 0.0
C238 C 0.02778 0.71242 0.65713 0.0
O239 O 0.01913 0.72349 0.66495 0.0
Cd240 Cd 0.98169 0.70696 0.67967 0.0
O241 O 0.01747 0.69164 0.65957 0.0
Cd242 Cd 0.98279 0.66244 0.6807 0.0
C243 C 0.95423 0.66769 0.62918 0.0
O244 O 0.97812 0.68383 0.71689 0.0
O245 O 0.95061 0.65117 0.70969 0.0
O246 O 0.00445 0.65194 0.70771 0.0
C247 C 0.95905 0.66865 0.72386 0.0
O248 O 0.95968 0.68614 0.64015 0.0
C249 C -0.00474 0.63227 0.69926 0.0
O250 O 0.96038 0.65516 0.63936 0.0
O251 O 0.98035 0.62649 0.68122 0.0
H252 H 0.14604 0.32685 0.206 0.0
H253 H 0.12171 0.33278 0.23551 0.0
H254 H 0.06525 0.28212 0.19197 0.0
H255 H 0.08991 0.27539 0.16316 0.0
H256 H 0.15224 0.29475 0.19947 0.0
H257 H 0.13315 0.33668 0.14063 0.0
H258 H 0.10904 0.34601 0.11575 0.0
H259 H 0.0796 0.28358 0.07362 0.0
H260 H 0.10386 0.27433 0.09869 0.0
H261 H 0.19649 0.28267 0.12834 0.0
H262 H 0.23248 0.29833 0.10589 0.0
H263 H 0.2268 0.35335 0.07929 0.0
H264 H 0.19184 0.33847 0.10335 0.0
H265 H 0.15346 0.30332 0.09872 0.0
H266 H 0.18401 0.27079 0.17892 0.0
H267 H 0.21552 0.27946 0.20825 0.0
H268 H 0.23111 0.34698 0.21284 0.0
H269 H 0.20077 0.33833 0.18216 0.0
C270 C 0.11981 0.3006 0.18243 0.0
C271 C 0.12841 0.3168 0.20295 0.0
C272 C 0.11446 0.32043 0.21956 0.0
C273 C 0.09154 0.30811 0.21589 0.0
C274 C 0.08285 0.2918 0.19538 0.0
C275 C 0.0969 0.28804 0.1788 0.0
C276 C 0.13526 0.29765 0.1647 0.0
C277 C 0.15218 0.29601 0.17733 0.0
C278 C 0.13545 0.29974 0.13591 0.0
C279 C 0.12004 0.30471 0.12171 0.0
C280 C 0.12137 0.32495 0.12619 0.0
C281 C 0.10776 0.33033 0.11179 0.0
C282 C 0.09251 0.31555 0.09268 0.0
C283 C 0.0911 0.29521 0.08836 0.0
C284 C 0.10493 0.28993 0.10259 0.0
C285 C 0.19164 0.30955 0.11789 0.0
C286 C 0.20317 0.29821 0.11792 0.0
C287 C 0.2236 0.30706 0.10478 0.0
C288 C 0.23267 0.32725 0.09107 0.0
C289 C 0.22061 0.33807 0.09023 0.0
C290 C 0.20042 0.32939 0.10364 0.0
C291 C 0.17102 0.30168 0.13372 0.0
C292 C 0.15288 0.30079 0.12067 0.0
C293 C 0.17047 0.29891 0.16239 0.0
C294 C 0.19037 0.30402 0.17812 0.0
C295 C 0.19463 0.28752 0.18584 0.0
C296 C 0.21252 0.29251 0.20288 0.0
C297 C 0.22608 0.31399 0.21307 0.0
C298 C 0.22162 0.3304 0.20498 0.0
C299 C 0.20409 0.32548 0.18757 0.0
H300 H 0.72724 0.89266 0.19869 0.0
H301 H 0.71835 0.91321 0.23203 0.0
H302 H 0.656 0.89054 0.19183 0.0
H303 H 0.6645 0.86957 0.15947 0.0
H304 H 0.70299 0.84851 0.19573 0.0
H305 H 0.72466 0.90643 0.12717 0.0
H306 H 0.71863 0.93272 0.10223 0.0
H307 H 0.65507 0.8798 0.0757 0.0
H308 H 0.66171 0.85371 0.0996 0.0
H309 H 0.65741 0.80505 0.09984 0.0
H310 H 0.64377 0.7709 0.0748 0.0
H311 H 0.69778 0.76477 0.10541 0.0
H312 H 0.71221 0.8 0.12945 0.0
H313 H 0.69177 0.84222 0.09528 0.0
H314 H 0.66056 0.78801 0.1651 0.0
H315 H 0.65353 0.75954 0.19817 0.0
H316 H 0.71972 0.79927 0.22927 0.0
H317 H 0.72694 0.82741 0.19529 0.0
C318 C 0.69669 0.87978 0.17632 0.0
C319 C 0.7119 0.89257 0.19672 0.0
C320 C 0.70685 0.90436 0.21566 0.0
C321 C 0.6864 0.90331 0.21463 0.0
C322 C 0.67179 0.89149 0.19327 0.0
C323 C 0.6768 0.87973 0.17448 0.0
C324 C 0.69974 0.86388 0.15967 0.0
C325 C 0.70134 0.84748 0.1736 0.0
C326 C 0.69672 0.86212 0.13097 0.0
C327 C 0.69366 0.87815 0.11519 0.0
C328 C 0.70954 0.90055 0.11575 0.0
C329 C 0.70597 0.91555 0.10161 0.0
C330 C 0.6863 0.90844 0.08694 0.0
C331 C 0.67058 0.88589 0.08624 0.0
C332 C 0.6743 0.87093 0.10004 0.0
C333 C 0.68587 0.80517 0.11655 0.0
C334 C 0.66654 0.79655 0.10097 0.0
C335 C 0.65854 0.7768 0.08693 0.0
C336 C 0.66951 0.76492 0.08835 0.0
C337 C 0.68901 0.77359 0.10378 0.0
C338 C 0.69717 0.79361 0.11772 0.0
C339 C 0.69358 0.82613 0.13158 0.0
C340 C 0.69442 0.84363 0.11725 0.0
C341 C 0.69755 0.82825 0.16014 0.0
C342 C 0.69439 0.80974 0.17744 0.0
C343 C 0.67381 0.79031 0.1784 0.0
C344 C 0.66971 0.77416 0.1976 0.0
C345 C 0.686 0.77723 0.21655 0.0
C346 C 0.7069 0.7963 0.21482 0.0
C347 C 0.71102 0.81244 0.1955 0.0
H348 H 0.09527 0.82929 0.17994 0.0
H349 H 0.07408 0.80125 0.21422 0.0
H350 H 0.09654 0.75987 0.17873 0.0
H351 H 0.11834 0.78827 0.1453 0.0
H352 H 0.13944 0.84961 0.17755 0.0
H353 H 0.07999 0.80441 0.11638 0.0
H354 H 0.0543 0.76971 0.09437 0.0
H355 H 0.10877 0.77001 0.05242 0.0
H356 H 0.13435 0.80325 0.07663 0.0
H357 H 0.18609 0.84616 0.09122 0.0
H358 H 0.22142 0.86713 0.06826 0.0
H359 H 0.21726 0.92583 0.07691 0.0
H360 H 0.18226 0.90464 0.1016 0.0
H361 H 0.14491 0.84122 0.07743 0.0
H362 H 0.2 0.86882 0.14648 0.0
H363 H 0.22928 0.89337 0.17745 0.0
H364 H 0.18863 0.91882 0.20702 0.0
H365 H 0.15976 0.89496 0.17471 0.0
C366 C 0.10819 0.81078 0.15992 0.0
C367 C 0.09529 0.81401 0.17929 0.0
C368 C 0.08312 0.79793 0.19877 0.0
C369 C 0.08375 0.7784 0.19926 0.0
C370 C 0.09595 0.77485 0.17908 0.0
C371 C 0.10817 0.79095 0.15972 0.0
C372 C 0.12389 0.82907 0.1423 0.0
C373 C 0.14022 0.84808 0.15548 0.0
C374 C 0.12528 0.82661 0.11366 0.0
C375 C 0.10921 0.80643 0.09857 0.0
C376 C 0.08641 0.79683 0.10273 0.0
C377 C 0.07167 0.7771 0.08971 0.0
C378 C 0.07937 0.76682 0.07163 0.0
C379 C 0.10216 0.77701 0.06667 0.0
C380 C 0.11687 0.79637 0.08021 0.0
C381 C 0.18164 0.8739 0.09793 0.0
C382 C 0.19277 0.86354 0.088 0.0
C383 C 0.21293 0.87557 0.07469 0.0
C384 C 0.22218 0.89819 0.07042 0.0
C385 C 0.21078 0.9085 0.08014 0.0
C386 C 0.19072 0.89645 0.09403 0.0
C387 C 0.16084 0.86073 0.11304 0.0
C388 C 0.14348 0.84298 0.09933 0.0
C389 C 0.15911 0.86358 0.14141 0.0
C390 C 0.17784 0.88037 0.15781 0.0
C391 C 0.19766 0.88024 0.15886 0.0
C392 C 0.21428 0.89404 0.17698 0.0
C393 C 0.21125 0.90795 0.19492 0.0
C394 C 0.19163 0.90852 0.19328 0.0
C395 C 0.17506 0.89481 0.17493 0.0
H396 H 0.27444 0.16817 0.83508 0.0
H397 H 0.27727 0.1963 0.80379 0.0
H398 H 0.3414 0.24224 0.83683 0.0
H399 H 0.33889 0.21384 0.86705 0.0
H400 H 0.30207 0.15174 0.83426 0.0
H401 H 0.28044 0.18767 0.9058 0.0
H402 H 0.28665 0.22052 0.93048 0.0
H403 H 0.3529 0.2359 0.94961 0.0
H404 H 0.34604 0.20252 0.92618 0.0
H405 H 0.34485 0.14571 0.92855 0.0
H406 H 0.34967 0.1184 0.95255 0.0
H407 H 0.28337 0.06846 0.93018 0.0
H408 H 0.27928 0.09579 0.90493 0.0
H409 H 0.31369 0.15863 0.93479 0.0
H410 H 0.34121 0.13051 0.86926 0.0
H411 H 0.3468 0.10599 0.83936 0.0
H412 H 0.28302 0.08312 0.80289 0.0
H413 H 0.27721 0.10729 0.83361 0.0
C414 C 0.30633 0.18895 0.85362 0.0
C415 C 0.28898 0.18439 0.83577 0.0
C416 C 0.29056 0.20053 0.81805 0.0
C417 C 0.30959 0.2215 0.81778 0.0
C418 C 0.32662 0.22619 0.83632 0.0
C419 C 0.32508 0.21004 0.8539 0.0
C420 C 0.30576 0.17122 0.87014 0.0
C421 C 0.30387 0.15287 0.85636 0.0
C422 C 0.30949 0.17335 0.89871 0.0
C423 C 0.31281 0.19279 0.91418 0.0
C424 C 0.2962 0.19809 0.91556 0.0
C425 C 0.29986 0.21695 0.92954 0.0
C426 C 0.32033 0.23098 0.94202 0.0
C427 C 0.3368 0.22534 0.94079 0.0
C428 C 0.33298 0.20633 0.92721 0.0
C429 C 0.31182 0.12264 0.91481 0.0
C430 C 0.33136 0.12887 0.92899 0.0
C431 C 0.33399 0.11324 0.9429 0.0
C432 C 0.31693 0.09115 0.9433 0.0
C433 C 0.29703 0.0852 0.92984 0.0
C434 C 0.29459 0.10079 0.91552 0.0
C435 C 0.30958 0.13902 0.89895 0.0
C436 C 0.31104 0.15708 0.91282 0.0
C437 C 0.30641 0.13706 0.87029 0.0
C438 C 0.30864 0.12052 0.85396 0.0
C439 C 0.32815 0.1198 0.85537 0.0
C440 C 0.33146 0.10598 0.838 0.0
C441 C 0.31541 0.0927 0.81865 0.0
C442 C 0.2956 0.09298 0.81777 0.0
C443 C 0.2923 0.10686 0.83519 0.0
H444 H 0.83699 0.10159 0.82724 0.0
H445 H 0.80878 0.08144 0.79229 0.0
H446 H 0.77011 0.10795 0.82538 0.0
H447 H 0.79846 0.12852 0.8593 0.0
H448 H 0.85821 0.14662 0.82651 0.0
H449 H 0.8172 0.09139 0.90235 0.0
H450 H 0.78401 0.06943 0.9302 0.0
H451 H 0.77718 0.12642 0.94099 0.0
H452 H 0.81068 0.14817 0.91471 0.0
H453 H 0.85673 0.19287 0.92104 0.0
H454 H 0.87827 0.22751 0.94489 0.0
H455 H 0.93819 0.23288 0.91287 0.0
H456 H 0.91635 0.19719 0.89007 0.0
H457 H 0.8522 0.15603 0.9262 0.0
H458 H 0.87424 0.20676 0.85573 0.0
H459 H 0.89267 0.23398 0.81998 0.0
H460 H 0.92129 0.19701 0.78774 0.0
H461 H 0.90328 0.17001 0.82433 0.0
C462 C 0.81972 0.1163 0.84623 0.0
C463 C 0.82211 0.10252 0.82742 0.0
C464 C 0.806 0.09101 0.8075 0.0
C465 C 0.78738 0.09334 0.80596 0.0
C466 C 0.7844 0.10603 0.82589 0.0
C467 C 0.80046 0.11752 0.84566 0.0
C468 C 0.83871 0.13248 0.86279 0.0
C469 C 0.85739 0.1483 0.84855 0.0
C470 C 0.83693 0.13537 0.89116 0.0
C471 C 0.81647 0.1214 0.9068 0.0
C472 C 0.8085 0.09903 0.9109 0.0
C473 C 0.78948 0.08653 0.92669 0.0
C474 C 0.77801 0.09619 0.93826 0.0
C475 C 0.78587 0.11851 0.9333 0.0
C476 C 0.80497 0.13098 0.91804 0.0
C477 C 0.88488 0.19227 0.90383 0.0
C478 C 0.87453 0.20128 0.91937 0.0
C479 C 0.88689 0.22134 0.93271 0.0
C480 C 0.90998 0.23314 0.93061 0.0
C481 C 0.92043 0.22413 0.91508 0.0
C482 C 0.90798 0.20383 0.90184 0.0
C483 C 0.87108 0.17092 0.88963 0.0
C484 C 0.85374 0.15392 0.9044 0.0
C485 C 0.87297 0.16804 0.86121 0.0
C486 C 0.88762 0.18648 0.84299 0.0
C487 C 0.88515 0.2049 0.84168 0.0
C488 C 0.89544 0.2203 0.82096 0.0
C489 C 0.90817 0.21746 0.80086 0.0
C490 C 0.91168 0.19969 0.80304 0.0
C491 C 0.90137 0.18424 0.82388 0.0
H492 H 0.80524 0.65848 0.8149 0.0
H493 H 0.77451 0.64978 0.78518 0.0
H494 H 0.77041 0.70418 0.81922 0.0
H495 H 0.80221 0.71339 0.84872 0.0
H496 H 0.84464 0.69408 0.81518 0.0
H497 H 0.78479 0.65368 0.87975 0.0
H498 H 0.7517 0.64637 0.90512 0.0
H499 H 0.78696 0.71173 0.93967 0.0
H500 H 0.82009 0.71897 0.91396 0.0
H501 H 0.88662 0.70986 0.9231 0.0
H502 H 0.90581 0.69571 0.95035 0.0
H503 H 0.87724 0.63719 0.90003 0.0
H504 H 0.85787 0.65112 0.87348 0.0
H505 H 0.84009 0.68875 0.91642 0.0
H506 H 0.90484 0.71205 0.85674 0.0
H507 H 0.9305 0.70601 0.82902 0.0
H508 H 0.87568 0.65666 0.7819 0.0
H509 H 0.85034 0.66199 0.81019 0.0
C510 C 0.80614 0.68667 0.83389 0.0
C511 C 0.79782 0.66863 0.816 0.0
C512 C 0.78 0.66349 0.79924 0.0
C513 C 0.76981 0.67613 0.80004 0.0
C514 C 0.77798 0.69417 0.81812 0.0
C515 C 0.79602 0.69938 0.83505 0.0
C516 C 0.82551 0.69166 0.85083 0.0
C517 C 0.84385 0.69321 0.83738 0.0
C518 C 0.82462 0.69097 0.87973 0.0
C519 C 0.80471 0.68693 0.89484 0.0
C520 C 0.78533 0.66644 0.89272 0.0
C521 C 0.76654 0.66224 0.90739 0.0
C522 C 0.76681 0.67847 0.92444 0.0
C523 C 0.78628 0.699 0.92653 0.0
C524 C 0.80517 0.70313 0.91197 0.0
C525 C 0.87115 0.6817 0.89603 0.0
C526 C 0.88467 0.69407 0.91791 0.0
C527 C 0.89564 0.686 0.93336 0.0
C528 C 0.89295 0.66531 0.92735 0.0
C529 C 0.87944 0.65306 0.90535 0.0
C530 C 0.86859 0.66113 0.88994 0.0
C531 C 0.85833 0.68925 0.88051 0.0
C532 C 0.84151 0.69062 0.89433 0.0
C533 C 0.85974 0.69096 0.85165 0.0
C534 C 0.87568 0.68757 0.83545 0.0
C535 C 0.89841 0.69979 0.8406 0.0
C536 C 0.91305 0.69643 0.82464 0.0
C537 C 0.90514 0.68079 0.8033 0.0
C538 C 0.88235 0.66854 0.79844 0.0
C539 C 0.86783 0.67181 0.81439 0.0
H540 H 0.80907 0.6572 0.53516 0.0
H541 H 0.78312 0.66194 0.56307 0.0
H542 H 0.72908 0.61186 0.51571 0.0
H543 H 0.75534 0.60648 0.4883 0.0
H544 H 0.81657 0.62579 0.52761 0.0
H545 H 0.79924 0.66957 0.47049 0.0
H546 H 0.7756 0.67973 0.446 0.0
H547 H 0.74779 0.61922 0.39973 0.0
H548 H 0.77156 0.60913 0.42444 0.0
H549 H 0.86257 0.61563 0.45733 0.0
H550 H 0.89894 0.63136 0.43594 0.0
H551 H 0.89477 0.68759 0.41096 0.0
H552 H 0.8594 0.6726 0.43406 0.0
H553 H 0.821 0.63792 0.42735 0.0
H554 H 0.84879 0.60247 0.5073 0.0
H555 H 0.87998 0.61031 0.53678 0.0
H556 H 0.8961 0.67789 0.54352 0.0
H557 H 0.86605 0.67009 0.51272 0.0
C558 C 0.78416 0.63145 0.50967 0.0
C559 C 0.79162 0.647 0.53094 0.0
C560 C 0.77677 0.64994 0.54664 0.0
C561 C 0.75406 0.6375 0.54134 0.0
C562 C 0.74649 0.62165 0.52028 0.0
C563 C 0.76145 0.61865 0.50455 0.0
C564 C 0.80056 0.62963 0.49245 0.0
C565 C 0.8172 0.6278 0.50555 0.0
C566 C 0.80178 0.63291 0.46383 0.0
C567 C 0.78687 0.63848 0.44949 0.0
C568 C 0.78795 0.65845 0.45517 0.0
C569 C 0.77462 0.66432 0.44099 0.0
C570 C 0.75992 0.65029 0.4209 0.0
C571 C 0.75888 0.63027 0.41523 0.0
C572 C 0.77241 0.6245 0.42927 0.0
C573 C 0.85843 0.64308 0.44768 0.0
C574 C 0.86966 0.63146 0.44754 0.0
C575 C 0.89033 0.64036 0.43498 0.0
C576 C 0.89992 0.66088 0.42198 0.0
C577 C 0.88818 0.67203 0.42135 0.0
C578 C 0.86776 0.66331 0.43421 0.0
C579 C 0.83741 0.63497 0.46272 0.0
C580 C 0.81972 0.63459 0.44915 0.0
C581 C 0.83598 0.63126 0.49125 0.0
C582 C 0.85542 0.6358 0.50761 0.0
C583 C 0.85942 0.61903 0.51479 0.0
C584 C 0.87713 0.62353 0.53188 0.0
C585 C 0.89079 0.6448 0.54263 0.0
C586 C 0.88652 0.66147 0.5352 0.0
C587 C 0.86916 0.65703 0.51774 0.0
H588 H 0.38923 0.22468 0.53226 0.0
H589 H 0.38084 0.24588 0.56513 0.0
H590 H 0.31898 0.22444 0.52424 0.0
H591 H 0.32699 0.20283 0.49231 0.0
H592 H 0.36464 0.1807 0.52902 0.0
H593 H 0.38792 0.23873 0.46086 0.0
H594 H 0.38336 0.26581 0.43555 0.0
H595 H 0.31934 0.21437 0.40806 0.0
H596 H 0.32453 0.18748 0.43232 0.0
H597 H 0.31934 0.13751 0.43267 0.0
H598 H 0.3058 0.10341 0.40753 0.0
H599 H 0.35962 0.09716 0.43861 0.0
H600 H 0.37397 0.13235 0.46268 0.0
H601 H 0.35378 0.17475 0.4285 0.0
H602 H 0.32253 0.12009 0.49861 0.0
H603 H 0.31617 0.09162 0.53139 0.0
H604 H 0.38263 0.13188 0.56146 0.0
H605 H 0.38913 0.16001 0.52785 0.0
C606 C 0.35889 0.21236 0.50957 0.0
C607 C 0.3741 0.22496 0.53006 0.0
C608 C 0.36934 0.23713 0.54873 0.0
C609 C 0.34918 0.23666 0.54736 0.0
C610 C 0.33455 0.22495 0.52597 0.0
C611 C 0.33928 0.21282 0.50743 0.0
C612 C 0.3617 0.19627 0.49297 0.0
C613 C 0.36304 0.17973 0.50689 0.0
C614 C 0.35887 0.19465 0.46425 0.0
C615 C 0.35659 0.21113 0.44842 0.0
C616 C 0.37301 0.23336 0.44917 0.0
C617 C 0.37029 0.24881 0.4348 0.0
C618 C 0.35094 0.24234 0.41971 0.0
C619 C 0.33464 0.21997 0.4189 0.0
C620 C 0.33752 0.20454 0.43292 0.0
C621 C 0.34769 0.13756 0.44964 0.0
C622 C 0.32845 0.129 0.43388 0.0
C623 C 0.32052 0.10927 0.41977 0.0
C624 C 0.33144 0.09735 0.4213 0.0
C625 C 0.35087 0.10599 0.43688 0.0
C626 C 0.35898 0.12599 0.45086 0.0
C627 C 0.35533 0.15847 0.46477 0.0
C628 C 0.35631 0.17607 0.4505 0.0
C629 C 0.35926 0.16053 0.49335 0.0
C630 C 0.35641 0.14208 0.51052 0.0
C631 C 0.33595 0.12252 0.51167 0.0
C632 C 0.33225 0.10637 0.53067 0.0
C633 C 0.34884 0.10956 0.54921 0.0
C634 C 0.36959 0.1288 0.54731 0.0
C635 C 0.37329 0.14494 0.52821 0.0
H636 H 0.75771 0.16322 0.51619 0.0
H637 H 0.73714 0.13294 0.54804 0.0
H638 H 0.76151 0.09541 0.50615 0.0
H639 H 0.78263 0.12603 0.47506 0.0
H640 H 0.80326 0.18444 0.51248 0.0
H641 H 0.74113 0.14035 0.45204 0.0
H642 H 0.71697 0.10495 0.43032 0.0
H643 H 0.77228 0.1113 0.38351 0.0
H644 H 0.79653 0.1454 0.4071 0.0
H645 H 0.84026 0.18557 0.41017 0.0
H646 H 0.87552 0.20637 0.3873 0.0
H647 H 0.88554 0.26574 0.42647 0.0
H648 H 0.84912 0.24489 0.44803 0.0
H649 H 0.80361 0.1827 0.41105 0.0
H650 H 0.86171 0.20427 0.47654 0.0
H651 H 0.89278 0.22724 0.50648 0.0
H652 H 0.85504 0.25314 0.54439 0.0
H653 H 0.82434 0.23071 0.51356 0.0
C654 C 0.77144 0.14674 0.49311 0.0
C655 C 0.7583 0.14831 0.51366 0.0
C656 C 0.74648 0.13096 0.53171 0.0
C657 C 0.74774 0.1118 0.52961 0.0
C658 C 0.76039 0.11003 0.50844 0.0
C659 C 0.77225 0.12741 0.49047 0.0
C660 C 0.78626 0.1661 0.47643 0.0
C661 C 0.80307 0.18434 0.49025 0.0
C662 C 0.78634 0.16544 0.44745 0.0
C663 C 0.77077 0.14548 0.43164 0.0
C664 C 0.74805 0.13404 0.43721 0.0
C665 C 0.73419 0.11388 0.42445 0.0
C666 C 0.74268 0.10501 0.40534 0.0
C667 C 0.7652 0.11721 0.39864 0.0
C668 C 0.77908 0.13703 0.41183 0.0
C669 C 0.84205 0.21361 0.43107 0.0
C670 C 0.84968 0.20317 0.41334 0.0
C671 C 0.87007 0.21503 0.40059 0.0
C672 C 0.88356 0.23759 0.40561 0.0
C673 C 0.87552 0.24834 0.42224 0.0
C674 C 0.8548 0.23643 0.43474 0.0
C675 C 0.8217 0.19988 0.44712 0.0
C676 C 0.80345 0.18309 0.43327 0.0
C677 C 0.82135 0.2007 0.47608 0.0
C678 C 0.84086 0.21608 0.49249 0.0
C679 C 0.86034 0.2153 0.49084 0.0
C680 C 0.87799 0.22825 0.50822 0.0
C681 C 0.87639 0.24199 0.52792 0.0
C682 C 0.85697 0.243 0.5292 0.0
C683 C 0.83935 0.23011 0.51171 0.0
H684 H 0.94019 0.50071 0.1683 0.0
H685 H 0.94166 0.52795 0.13654 0.0
H686 H 0.00647 0.57523 0.16651 0.0
H687 H 0.00528 0.54771 0.19727 0.0
H688 H 0.96862 0.48526 0.16579 0.0
H689 H 0.94843 0.52172 0.23816 0.0
H690 H 0.95497 0.55459 0.2631 0.0
H691 H 0.02151 0.57007 0.28048 0.0
H692 H 0.0144 0.53674 0.25669 0.0
H693 H 0.01343 0.4806 0.25976 0.0
H694 H 0.01901 0.45358 0.28334 0.0
H695 H 0.95348 0.40264 0.2598 0.0
H696 H 0.94852 0.4297 0.23523 0.0
H697 H 0.98271 0.49309 0.26582 0.0
H698 H 0.00882 0.46423 0.19989 0.0
H699 H 0.01383 0.43923 0.17032 0.0
H700 H 0.95012 0.41706 0.13399 0.0
H701 H 0.94476 0.44152 0.16468 0.0
C702 C 0.97252 0.52222 0.18532 0.0
C703 C 0.95457 0.51705 0.16826 0.0
C704 C 0.95537 0.53268 0.15027 0.0
C705 C 0.97423 0.55372 0.14894 0.0
C706 C 0.99182 0.55909 0.16684 0.0
C707 C 0.99104 0.54345 0.1847 0.0
C708 C 0.97286 0.5049 0.20171 0.0
C709 C 0.97098 0.48658 0.18781 0.0
C710 C 0.9774 0.50736 0.23009 0.0
C711 C 0.98095 0.5269 0.24558 0.0
C712 C 0.96434 0.53218 0.24756 0.0
C713 C 0.96818 0.55104 0.26169 0.0
C714 C 0.98881 0.56508 0.27381 0.0
C715 C 0.0053 0.5595 0.27195 0.0
C716 C 0.00133 0.54051 0.25817 0.0
C717 C 0.98066 0.45705 0.24562 0.0
C718 C 0.00025 0.46361 0.25988 0.0
C719 C 0.00334 0.44815 0.27349 0.0
C720 C 0.98671 0.42589 0.27342 0.0
C721 C 0.9668 0.41955 0.25981 0.0
C722 C 0.96386 0.43498 0.24588 0.0
C723 C 0.97796 0.47325 0.22999 0.0
C724 C 0.97954 0.49134 0.24396 0.0
C725 C 0.97416 0.47106 0.20144 0.0
C726 C 0.97625 0.45453 0.18485 0.0
C727 C -0.00436 0.45357 0.18612 0.0
C728 C -0.00137 0.43948 0.16889 0.0
C729 C 0.98244 0.42623 0.14965 0.0
C730 C 0.96281 0.42685 0.14878 0.0
C731 C 0.95978 0.44093 0.16617 0.0
H732 H 0.50491 0.43555 0.15835 0.0
H733 H 0.47588 0.41574 0.12414 0.0
H734 H 0.4395 0.44444 0.15821 0.0
H735 H 0.46868 0.46475 0.19117 0.0
H736 H 0.52787 0.48104 0.15844 0.0
H737 H 0.48572 0.42545 0.23396 0.0
H738 H 0.45192 0.40372 0.26083 0.0
H739 H 0.44597 0.4613 0.2709 0.0
H740 H 0.48014 0.48282 0.24582 0.0
H741 H 0.52644 0.53067 0.24184 0.0
H742 H 0.54702 0.56478 0.26723 0.0
H743 H 0.60552 0.55961 0.26121 0.0
H744 H 0.58478 0.52584 0.23405 0.0
H745 H 0.52129 0.49005 0.25815 0.0
H746 H 0.54338 0.54033 0.18821 0.0
H747 H 0.56197 0.56801 0.15321 0.0
H748 H 0.59184 0.53221 0.12091 0.0
H749 H 0.57377 0.50475 0.15711 0.0
C750 C 0.48881 0.4513 0.17775 0.0
C751 C 0.49039 0.43709 0.15883 0.0
C752 C 0.4738 0.42577 0.13936 0.0
C753 C 0.45554 0.42872 0.13839 0.0
C754 C 0.45349 0.44202 0.15829 0.0
C755 C 0.47002 0.45335 0.17753 0.0
C756 C 0.50803 0.46681 0.1945 0.0
C757 C 0.52699 0.4825 0.18051 0.0
C758 C 0.50617 0.46948 0.22293 0.0
C759 C 0.48548 0.45573 0.23824 0.0
C760 C 0.47709 0.43327 0.2422 0.0
C761 C 0.45771 0.42089 0.25741 0.0
C762 C 0.44626 0.43076 0.26844 0.0
C763 C 0.4546 0.4532 0.26365 0.0
C764 C 0.47409 0.46555 0.24907 0.0
C765 C 0.5541 0.52575 0.23624 0.0
C766 C 0.54375 0.53697 0.24588 0.0
C767 C 0.55554 0.5564 0.26066 0.0
C768 C 0.57789 0.56482 0.26687 0.0
C769 C 0.58838 0.55371 0.25672 0.0
C770 C 0.57658 0.53437 0.24132 0.0
C771 C 0.54067 0.50457 0.22192 0.0
C772 C 0.52304 0.48778 0.23645 0.0
C773 C 0.54274 0.50197 0.19352 0.0
C774 C 0.55757 0.52068 0.17578 0.0
C775 C 0.55474 0.53888 0.17452 0.0
C776 C 0.56507 0.55452 0.15412 0.0
C777 C 0.57812 0.55211 0.13412 0.0
C778 C 0.58197 0.53455 0.13616 0.0
C779 C 0.57165 0.51886 0.15679 0.0
H780 H 0.55696 0.05141 0.16311 0.0
H781 H 0.58261 0.04725 0.13318 0.0
H782 H 0.55507 0.98042 0.16055 0.0
H783 H 0.52907 0.98453 0.1898 0.0
H784 H 0.51073 0.02524 0.15848 0.0
H785 H 0.56712 0.03682 0.22641 0.0
H786 H 0.5884 0.02326 0.24975 0.0
H787 H 0.52794 0.96883 0.28142 0.0
H788 H 0.50687 0.98152 0.25662 0.0
H789 H 0.46399 0.9879 0.26039 0.0
H790 H 0.43119 0.98193 0.28437 0.0
H791 H 0.43381 0.03605 0.24054 0.0
H792 H 0.46806 0.04335 0.21866 0.0
H793 H 0.50282 0.01507 0.25903 0.0
H794 H 0.44887 0.987 0.19108 0.0
H795 H 0.42047 0.98037 0.15778 0.0
H796 H 0.46371 0.0437 0.12168 0.0
H797 H 0.49197 0.05051 0.15563 0.0
C798 C 0.5413 0.01838 0.17887 0.0
C799 C 0.55663 0.03595 0.16283 0.0
C800 C 0.57136 0.03358 0.14588 0.0
C801 C 0.57089 0.0135 0.14451 0.0
C802 C 0.55572 0.99603 0.16097 0.0
C803 C 0.541 -0.00158 0.17789 0.0
C804 C 0.52453 0.02038 0.19499 0.0
C805 C 0.50925 0.02356 0.18059 0.0
C806 C 0.52188 0.01675 0.22356 0.0
C807 C 0.53536 0.01007 0.23945 0.0
C808 C 0.55848 0.02188 0.23822 0.0
C809 C 0.57064 0.01422 0.25183 0.0
C810 C 0.55988 0.99479 0.26727 0.0
C811 C 0.53678 0.98352 0.26921 0.0
C812 C 0.52469 0.99098 0.25534 0.0
C813 C 0.46854 0.016 0.23744 0.0
C814 C 0.45783 -0.00117 0.25632 0.0
C815 C 0.43874 0.99517 0.26973 0.0
C816 C 0.42948 0.00824 0.26415 0.0
C817 C 0.44046 0.02572 0.24563 0.0
C818 C 0.45993 0.02973 0.2327 0.0
C819 C 0.48832 0.01897 0.2224 0.0
C820 C 0.50445 0.01722 0.237 0.0
C821 C 0.49062 0.02181 0.19364 0.0
C822 C 0.47247 0.01934 0.176 0.0
C823 C 0.45203 -0.00026 0.17652 0.0
C824 C 0.4359 0.99587 0.1573 0.0
C825 C 0.43995 0.01145 0.137 0.0
C826 C 0.46006 0.03148 0.13723 0.0
C827 C 0.47624 0.03534 0.15649 0.0
H828 H 0.4821 0.00669 0.86324 0.0
H829 H 0.45559 0.01157 0.88957 0.0
H830 H 0.40234 0.95846 0.84443 0.0
H831 H 0.42926 0.95297 0.81879 0.0
H832 H 0.48747 0.97279 0.86291 0.0
H833 H 0.47609 0.01555 0.79555 0.0
H834 H 0.45169 0.02363 0.76926 0.0
H835 H 0.42209 0.95944 0.73156 0.0
H836 H 0.44662 0.95145 0.75815 0.0
H837 H 0.52029 0.95671 0.76023 0.0
H838 H 0.55529 0.96972 0.73577 0.0
H839 H 0.58566 0.0277 0.78709 0.0
H840 H 0.55068 0.01501 0.8107 0.0
H841 H 0.49768 0.98024 0.76221 0.0
H842 H 0.5322 0.9546 0.82985 0.0
H843 H 0.56241 0.96146 0.86096 0.0
H844 H 0.55511 0.01166 0.9022 0.0
H845 H 0.52586 0.00533 0.87094 0.0
C846 C 0.45763 0.97935 0.83925 0.0
C847 C 0.46471 0.99606 0.85899 0.0
C848 C 0.44951 -0.00095 0.87377 0.0
C849 C 0.42682 0.9855 0.869 0.0
C850 C 0.41971 0.96906 0.8487 0.0
C851 C 0.43504 0.96598 0.83394 0.0
C852 C 0.4743 0.97609 0.82487 0.0
C853 C 0.48963 0.97415 0.84084 0.0
C854 C 0.47694 0.97778 0.79615 0.0
C855 C 0.46296 0.98285 0.77891 0.0
C856 C 0.46444 0.0033 0.78146 0.0
C857 C 0.45061 0.00794 0.76629 0.0
C858 C 0.43498 0.99216 0.74834 0.0
C859 C 0.43387 0.97184 0.74539 0.0
C860 C 0.44788 0.96728 0.76043 0.0
C861 C 0.53304 0.98474 0.78749 0.0
C862 C 0.5346 0.97209 0.76632 0.0
C863 C 0.55457 0.97948 0.7525 0.0
C864 C 0.57314 -0.00025 0.75951 0.0
C865 C 0.57156 0.01214 0.78107 0.0
C866 C 0.55166 0.00477 0.7948 0.0
C867 C 0.51163 0.97821 0.8005 0.0
C868 C 0.49513 0.97791 0.78415 0.0
C869 C 0.50882 0.97622 0.82925 0.0
C870 C 0.52672 0.97942 0.84806 0.0
C871 C 0.53724 0.96713 0.84555 0.0
C872 C 0.55439 0.97098 0.86339 0.0
C873 C 0.56131 0.98727 0.88385 0.0
C874 C 0.55053 -0.00069 0.88635 0.0
C875 C 0.53355 0.99549 0.86867 0.0
H876 H 0.05328 0.5553 0.86316 0.0
H877 H 0.04389 0.57619 0.89527 0.0
H878 H 0.98139 0.55166 0.85463 0.0
H879 H 0.99038 0.53032 0.82353 0.0
H880 H 0.03175 0.51196 0.86041 0.0
H881 H 0.05156 0.56744 0.79135 0.0
H882 H 0.04657 0.59396 0.7655 0.0
H883 H 0.9825 0.54186 0.73913 0.0
H884 H 0.98816 0.51543 0.76395 0.0
H885 H 0.98418 0.46495 0.76849 0.0
H886 H 0.97132 0.43101 0.74337 0.0
H887 H 0.02914 0.42924 0.76831 0.0
H888 H 0.04275 0.46441 0.79231 0.0
H889 H 0.01782 0.50305 0.76054 0.0
H890 H -0.00502 0.44822 0.83211 0.0
H891 H -0.00553 0.42279 0.86619 0.0
H892 H 0.05888 0.47238 0.89397 0.0
H893 H 0.06 0.49751 0.85895 0.0
C894 C 0.02268 0.54142 0.84068 0.0
C895 C 0.03775 0.55479 0.86088 0.0
C896 C 0.03241 0.56679 0.87911 0.0
C897 C 0.01183 0.56542 0.87758 0.0
C898 C -0.00273 0.55287 0.85651 0.0
C899 C 0.00256 0.54089 0.83842 0.0
C900 C 0.02633 0.52575 0.82433 0.0
C901 C 0.02941 0.51032 0.83839 0.0
C902 C 0.02299 0.52349 0.79573 0.0
C903 C 0.02023 0.53952 0.77957 0.0
C904 C 0.03653 0.56179 0.77982 0.0
C905 C 0.03356 0.57693 0.76514 0.0
C906 C 0.01406 0.57013 0.75025 0.0
C907 C -0.00211 0.5477 0.74987 0.0
C908 C 0.00103 0.53255 0.7642 0.0
C909 C 0.01445 0.46728 0.78236 0.0
C910 C 0.99427 0.45742 0.76843 0.0
C911 C 0.98675 0.43777 0.75433 0.0
C912 C -0.00099 0.42715 0.75409 0.0
C913 C 0.01933 0.43703 0.76797 0.0
C914 C 0.02704 0.45702 0.78191 0.0
C915 C 0.02174 0.48835 0.79691 0.0
C916 C 0.02102 0.505 0.78239 0.0
C917 C 0.02693 0.49145 0.8252 0.0
C918 C 0.02771 0.47472 0.84257 0.0
C919 C 0.00944 0.45336 0.84462 0.0
C920 C 0.00909 0.43885 0.86416 0.0
C921 C 0.02673 0.44568 0.88238 0.0
C922 C 0.04524 0.46675 0.87987 0.0
C923 C 0.04581 0.48108 0.85997 0.0
H924 H 0.42118 0.49629 0.84932 0.0
H925 H 0.3996 0.46628 0.88106 0.0
H926 H 0.42436 0.42802 0.84202 0.0
H927 H 0.44654 0.45842 0.81109 0.0
H928 H 0.46585 0.51614 0.85057 0.0
H929 H 0.40894 0.47619 0.78349 0.0
H930 H 0.38507 0.44162 0.76006 0.0
H931 H 0.4419 0.44616 0.71908 0.0
H932 H 0.46574 0.47935 0.74466 0.0
H933 H 0.5273 0.53241 0.79836 0.0
H934 H 0.56234 0.55168 0.77391 0.0
H935 H 0.53605 0.58193 0.7219 0.0
H936 H 0.50101 0.56292 0.74709 0.0
H937 H 0.47536 0.51713 0.74983 0.0
H938 H 0.50336 0.52126 0.85933 0.0
H939 H 0.53403 0.54468 0.88912 0.0
H940 H 0.54434 0.6017 0.84473 0.0
H941 H 0.51281 0.57803 0.81533 0.0
C942 C 0.4353 0.47951 0.82775 0.0
C943 C 0.42153 0.48122 0.84723 0.0
C944 C 0.40914 0.46402 0.86527 0.0
C945 C 0.41042 0.44484 0.86416 0.0
C946 C 0.42327 0.44271 0.84359 0.0
C947 C 0.43572 0.45995 0.82566 0.0
C948 C 0.45176 0.49915 0.81268 0.0
C949 C 0.4677 0.51657 0.82845 0.0
C950 C 0.45428 0.49937 0.78385 0.0
C951 C 0.43924 0.48027 0.76638 0.0
C952 C 0.41627 0.46967 0.76957 0.0
C953 C 0.40257 0.44998 0.75577 0.0
C954 C 0.4115 0.44078 0.73784 0.0
C955 C 0.4344 0.45229 0.73329 0.0
C956 C 0.44809 0.47162 0.7476 0.0
C957 C 0.51175 0.54659 0.77482 0.0
C958 C 0.52924 0.54359 0.78213 0.0
C959 C 0.54913 0.55436 0.7679 0.0
C960 C 0.55181 0.56814 0.7459 0.0
C961 C 0.53444 0.57151 0.73893 0.0
C962 C 0.51447 0.56067 0.75321 0.0
C963 C 0.49005 0.53307 0.78798 0.0
C964 C 0.473 0.51703 0.77183 0.0
C965 C 0.48733 0.533 0.81668 0.0
C966 C 0.50568 0.54786 0.83512 0.0
C967 C 0.51199 0.53882 0.85616 0.0
C968 C 0.52977 0.55223 0.87296 0.0
C969 C 0.5418 0.57504 0.8691 0.0
C970 C 0.53534 0.58418 0.84826 0.0
C971 C 0.51742 0.57069 0.83138 0.0
H972 H 0.60206 0.83184 0.50168 0.0
H973 H 0.60681 0.8608 0.47061 0.0
H974 H 0.67056 0.90464 0.50624 0.0
H975 H 0.666 0.87531 0.53654 0.0
H976 H 0.6301 0.81513 0.50145 0.0
H977 H 0.61108 0.85662 0.56559 0.0
H978 H 0.62137 0.8912 0.58866 0.0
H979 H 0.6741 0.88867 0.63001 0.0
H980 H 0.66503 0.85537 0.60508 0.0
H981 H 0.66264 0.80727 0.60661 0.0
H982 H 0.66881 0.78109 0.63081 0.0
H983 H 0.61678 0.72821 0.5839 0.0
H984 H 0.6093 0.75437 0.56168 0.0
H985 H 0.6337 0.81681 0.60283 0.0
H986 H 0.66753 0.79329 0.53788 0.0
H987 H 0.67478 0.76985 0.50788 0.0
H988 H 0.61235 0.74718 0.46774 0.0
H989 H 0.60496 0.77029 0.49833 0.0
C990 C 0.63358 0.85149 0.52155 0.0
C991 C 0.61693 0.84779 0.50299 0.0
C992 C 0.61961 0.86441 0.48539 0.0
C993 C 0.63907 0.88503 0.48594 0.0
C994 C 0.65547 0.88887 0.50512 0.0
C995 C 0.6528 0.8722 0.52264 0.0
C996 C 0.63165 0.83311 0.53795 0.0
C997 C 0.63041 0.81525 0.52368 0.0
C998 C 0.63332 0.83395 0.56687 0.0
C999 C 0.63753 0.85356 0.58309 0.0
C1000 C 0.62498 0.86363 0.57944 0.0
C1001 C 0.63071 0.88329 0.593 0.0
C1002 C 0.64879 0.89297 0.61103 0.0
C1003 C 0.66048 0.88211 0.61576 0.0
C1004 C 0.65507 0.8628 0.60177 0.0
C1005 C 0.63568 0.78288 0.58199 0.0
C1006 C 0.6522 0.78999 0.60195 0.0
C1007 C 0.65596 0.77497 0.61551 0.0
C1008 C 0.64358 0.7525 0.60904 0.0
C1009 C 0.62656 0.74533 0.58965 0.0
C1010 C 0.62246 0.76034 0.57656 0.0
C1011 C 0.63303 0.79924 0.5663 0.0
C1012 C 0.63301 0.81649 0.58063 0.0
C1013 C 0.63205 0.79883 0.53734 0.0
C1014 C 0.63558 0.78334 0.52053 0.0
C1015 C 0.65522 0.78295 0.52297 0.0
C1016 C 0.65943 0.76971 0.50564 0.0
C1017 C 0.64416 0.7567 0.48539 0.0
C1018 C 0.62431 0.7568 0.48335 0.0
C1019 C 0.62012 0.77009 0.50068 0.0
H1020 H 0.17222 0.76811 0.49446 0.0
H1021 H 0.14315 0.74826 0.46033 0.0
H1022 H 0.10578 0.77527 0.49616 0.0
H1023 H 0.135 0.79565 0.52904 0.0
H1024 H 0.19431 0.81353 0.49538 0.0
H1025 H 0.15254 0.75654 0.56891 0.0
H1026 H 0.1183 0.73392 0.59462 0.0
H1027 H 0.1127 0.79133 0.60881 0.0
H1028 H 0.14722 0.81365 0.58484 0.0
H1029 H 0.19271 0.86135 0.58198 0.0
H1030 H 0.21352 0.89552 0.60716 0.0
H1031 H 0.2728 0.89229 0.59606 0.0
H1032 H 0.25175 0.85845 0.56916 0.0
H1033 H 0.18822 0.82113 0.59551 0.0
H1034 H 0.20921 0.87232 0.52697 0.0
H1035 H 0.22693 0.90039 0.49219 0.0
H1036 H 0.25704 0.86562 0.45731 0.0
H1037 H 0.23987 0.8378 0.49322 0.0
C1038 C 0.15565 0.78305 0.51471 0.0
C1039 C 0.15749 0.76927 0.49534 0.0
C1040 C 0.14086 0.75791 0.47592 0.0
C1041 C 0.1223 0.76039 0.47546 0.0
C1042 C 0.11999 0.77321 0.49584 0.0
C1043 C 0.13657 0.78459 0.51502 0.0
C1044 C 0.17483 0.79863 0.53148 0.0
C1045 C 0.19355 0.8147 0.5175 0.0
C1046 C 0.17308 0.80091 0.56003 0.0
C1047 C 0.15249 0.78676 0.57533 0.0
C1048 C 0.14393 0.76414 0.57789 0.0
C1049 C 0.12429 0.75125 0.59241 0.0
C1050 C 0.11275 0.76078 0.60416 0.0
C1051 C 0.12135 0.78343 0.60097 0.0
C1052 C 0.14108 0.79626 0.58705 0.0
C1053 C 0.2207 0.85736 0.57391 0.0
C1054 C 0.21022 0.86805 0.58494 0.0
C1055 C 0.22216 0.88753 0.59958 0.0
C1056 C 0.24484 0.89656 0.60422 0.0
C1057 C 0.25541 0.88593 0.59279 0.0
C1058 C 0.24343 0.86654 0.57755 0.0
C1059 C 0.20725 0.83633 0.55925 0.0
C1060 C 0.18987 0.8192 0.57369 0.0
C1061 C 0.20915 0.83413 0.53072 0.0
C1062 C 0.22359 0.85315 0.51316 0.0
C1063 C 0.22044 0.87118 0.51273 0.0
C1064 C 0.23026 0.88705 0.49246 0.0
C1065 C 0.24312 0.88504 0.47181 0.0
C1066 C 0.24731 0.86766 0.47306 0.0
C1067 C 0.23751 0.85176 0.49353 0.0
H1068 H 0.14124 0.32982 0.48912 0.0
H1069 H 0.11017 0.32201 0.46036 0.0
H1070 H 0.10806 0.37694 0.49621 0.0
H1071 H 0.13996 0.38507 0.525 0.0
H1072 H 0.1815 0.36587 0.48988 0.0
H1073 H 0.12228 0.3217 0.55384 0.0
H1074 H 0.08794 0.31269 0.57731 0.0
H1075 H 0.11953 0.37791 0.61238 0.0
H1076 H 0.15393 0.38683 0.58854 0.0
H1077 H 0.22265 0.37835 0.5974 0.0
H1078 H 0.2421 0.36395 0.6236 0.0
H1079 H 0.2144 0.30669 0.57106 0.0
H1080 H 0.19477 0.32089 0.5455 0.0
H1081 H 0.17586 0.35639 0.59065 0.0
H1082 H 0.24141 0.38218 0.53065 0.0
H1083 H 0.26698 0.37668 0.50191 0.0
H1084 H 0.21202 0.32861 0.45384 0.0
H1085 H 0.18679 0.33344 0.48301 0.0
C1086 C 0.14298 0.3581 0.50905 0.0
C1087 C 0.13418 0.34027 0.49081 0.0
C1088 C 0.11622 0.33566 0.47461 0.0
C1089 C 0.10649 0.3487 0.47627 0.0
C1090 C 0.11526 0.36663 0.49455 0.0
C1091 C 0.13337 0.37123 0.51101 0.0
C1092 C 0.16217 0.36228 0.52577 0.0
C1093 C 0.18056 0.36421 0.512 0.0
C1094 C 0.16085 0.36019 0.55453 0.0
C1095 C 0.14048 0.35494 0.56941 0.0
C1096 C 0.12178 0.33401 0.56666 0.0
C1097 C 0.10226 0.32886 0.58022 0.0
C1098 C 0.10109 0.34458 0.59674 0.0
C1099 C 0.11994 0.36553 0.59963 0.0
C1100 C 0.13957 0.37062 0.58617 0.0
C1101 C 0.2076 0.35086 0.56929 0.0
C1102 C 0.22096 0.36279 0.59149 0.0
C1103 C 0.23207 0.35458 0.60634 0.0
C1104 C 0.22971 0.33417 0.59939 0.0
C1105 C 0.21636 0.32234 0.57708 0.0
C1106 C 0.20536 0.33057 0.56225 0.0
C1107 C 0.19463 0.35858 0.55447 0.0
C1108 C 0.17757 0.35924 0.56873 0.0
C1109 C 0.19628 0.36133 0.52572 0.0
C1110 C 0.21219 0.35831 0.50892 0.0
C1111 C 0.23494 0.37033 0.51406 0.0
C1112 C 0.24952 0.36728 0.49752 0.0
C1113 C 0.24153 0.35213 0.47564 0.0
C1114 C 0.21874 0.34011 0.47077 0.0
C1115 C 0.20428 0.34309 0.48725 0.0
C1116 C 0.97379 0.3797 0.10208 0.0
C1117 C -0.00543 0.38863 0.08946 0.0
H1118 H 0.95367 0.38446 0.13125 0.0
C1119 C 0.01142 0.40963 0.0974 0.0
H1120 H 0.96048 0.36354 0.09642 0.0
C1121 C 0.0075 0.42161 0.11715 0.0
C1122 C 0.98665 0.41289 0.12953 0.0
H1123 H 0.02761 0.417 0.08803 0.0
H1124 H 0.02072 0.43798 0.1222 0.0
C1125 C 0.96985 0.39173 0.1219 0.0
C1126 C 0.5771 0.5847 0.07394 0.0
C1127 C 0.59874 0.59439 0.06376 0.0
H1128 H 0.55374 0.56375 0.10377 0.0
C1129 C 0.61366 0.58965 0.07659 0.0
H1130 H 0.56509 0.58781 0.06455 0.0
C1131 C 0.60706 0.57575 0.09936 0.0
C1132 C 0.58553 0.56655 0.10978 0.0
H1133 H 0.63045 0.59682 0.06922 0.0
H1134 H 0.61887 0.57252 0.1091 0.0
C1135 C 0.5706 0.571 0.09661 0.0
C1136 C 0.40107 0.9802 0.07894 0.0
C1137 C 0.3957 0.99545 0.06899 0.0
H1138 H 0.4192 0.97335 0.10804 0.0
C1139 C 0.4045 0.01595 0.08215 0.0
H1140 H 0.39457 0.96424 0.06936 0.0
C1141 C 0.41871 0.02118 0.10449 0.0
C1142 C 0.42414 0.0059 0.11423 0.0
H1143 H 0.40068 0.02806 0.07498 0.0
H1144 H 0.42543 0.03713 0.11415 0.0
C1145 C 0.41506 0.98534 0.1013 0.0
C1146 C 0.40281 0.01075 0.91598 0.0
C1147 C 0.38482 0.99205 0.92739 0.0
H1148 H 0.42963 0.02338 0.88757 0.0
C1149 C 0.37914 0.97125 0.91714 0.0
H1150 H 0.4073 0.02701 0.9232 0.0
C1151 C 0.39216 0.96912 0.89706 0.0
C1152 C 0.41091 0.98779 0.88669 0.0
H1153 H 0.36529 0.95655 0.92557 0.0
H1154 H 0.38817 0.95281 0.89078 0.0
C1155 C 0.41561 0.00865 0.89565 0.0
C1156 C 0.01874 0.39838 0.92644 0.0
C1157 C 0.01464 0.40476 0.95209 0.0
H1158 H 0.02539 0.40637 0.88367 0.0
C1159 C 0.01625 0.42526 0.9549 0.0
H1160 H 0.01729 0.38249 0.92378 0.0
C1161 C 0.02133 0.43897 0.93233 0.0
C1162 C 0.02432 0.43216 0.90641 0.0
H1163 H 0.01305 0.43045 0.97448 0.0
H1164 H 0.02196 0.45449 0.93485 0.0
C1165 C 0.02324 0.41189 0.90358 0.0
C1166 C 0.58092 0.62078 0.91689 0.0
C1167 C 0.59476 0.61304 0.92532 0.0
H1168 H 0.55314 0.61473 0.89262 0.0
C1169 C 0.59209 0.59367 0.91359 0.0
H1170 H 0.5826 0.63568 0.92557 0.0
C1171 C 0.57541 0.58182 0.89462 0.0
C1172 C 0.56089 0.58897 0.88705 0.0
H1173 H 0.60266 0.58741 0.91942 0.0
H1174 H 0.57368 0.56684 0.88614 0.0
C1175 C 0.56411 0.60884 0.89794 0.0
C1176 C 0.01157 0.60489 0.93079 0.0
C1177 C 0.9904 0.59218 0.94228 0.0
H1178 H 0.03504 0.60641 0.90122 0.0
C1179 C 0.97636 0.571 0.93181 0.0
H1180 H 0.0228 0.62125 0.93843 0.0
C1181 C 0.98331 0.56262 0.91062 0.0
C1182 C 0.00452 0.57514 0.89932 0.0
H1183 H 0.95995 0.56074 0.94012 0.0
H1184 H 0.97218 0.54606 0.90349 0.0
C1185 C 0.01862 0.59638 0.9096 0.0
C1186 C 0.4035 0.40531 0.9203 0.0
C1187 C 0.38297 0.4 0.93143 0.0
H1188 H 0.42833 0.42378 0.89046 0.0
C1189 C 0.37081 0.40836 0.91915 0.0
H1190 H 0.41323 0.39909 0.9293 0.0
C1191 C 0.37934 0.42233 0.89667 0.0
C1192 C 0.4002 0.42821 0.88605 0.0
H1193 H 0.35483 0.4044 0.92715 0.0
H1194 H 0.36974 0.42874 0.88781 0.0
C1195 C 0.41205 0.41931 0.89787 0.0
C1196 C 0.6097 0.01837 0.93138 0.0
C1197 C 0.61013 0.00137 0.9454 0.0
H1198 H 0.59455 0.02725 0.90037 0.0
C1199 C 0.59606 0.97959 0.93681 0.0
H1200 H 0.62062 0.03535 0.93715 0.0
C1201 C 0.58078 0.97489 0.9158 0.0
C1202 C 0.57949 0.99192 0.90299 0.0
H1203 H 0.59607 0.96616 0.94723 0.0
H1204 H 0.56927 0.95792 0.91059 0.0
C1205 C 0.59469 0.01372 0.91034 0.0
C1206 C 0.62056 0.02462 0.10137 0.0
C1207 C 0.61191 0.00549 0.08526 0.0
H1208 H 0.61446 0.04206 0.133 0.0
C1209 C 0.59 0.98871 0.08953 0.0
H1210 H 0.63741 0.03782 0.09862 0.0
C1211 C 0.57687 0.99117 0.10913 0.0
C1212 C 0.58534 0.01047 0.12489 0.0
H1213 H 0.58285 0.97377 0.07745 0.0
H1214 H 0.55987 0.97816 0.11138 0.0
C1215 C 0.60739 0.0271 0.12096 0.0
C1216 C 0.96036 0.58548 0.09855 0.0
C1217 C 0.9801 0.59675 0.08354 0.0
H1218 H 0.94304 0.56317 0.13132 0.0
C1219 C -0.00193 0.59454 0.09103 0.0
H1220 H 0.94625 0.58692 0.09327 0.0
C1221 C -0.00377 0.58099 0.11265 0.0
C1222 C 0.97638 0.56932 0.12735 0.0
H1223 H 0.01351 0.603 0.07989 0.0
H1224 H 0.0102 0.57915 0.11728 0.0
C1225 C 0.95849 0.57183 0.12023 0.0
C1226 C 0.41576 0.39048 0.08411 0.0
C1227 C 0.40955 0.40428 0.0714 0.0
H1228 H 0.43525 0.38736 0.11543 0.0
C1229 C 0.41893 0.42607 0.08062 0.0
H1230 H 0.40887 0.37362 0.07745 0.0
C1231 C 0.43383 0.4338 0.1022 0.0
C1232 C 0.43982 0.42001 0.11523 0.0
H1233 H 0.41469 0.43724 0.07128 0.0
H1234 H 0.44082 0.45074 0.10859 0.0
C1235 C 0.43087 0.39832 0.10577 0.0
C1236 C 0.67521 0.74229 0.43362 0.0
C1237 C 0.65897 0.72115 0.42522 0.0
H1238 H 0.68322 0.77009 0.45903 0.0
C1239 C 0.63804 0.71136 0.43761 0.0
H1240 H 0.6915 0.75029 0.42446 0.0
C1241 C 0.6333 0.72272 0.45749 0.0
C1242 C 0.64943 0.74403 0.4655 0.0
H1243 H 0.62518 0.69506 0.43161 0.0
H1244 H 0.61698 0.71484 0.46654 0.0
C1245 C 0.67051 0.75359 0.45356 0.0
C1246 C 0.27731 0.92252 0.41354 0.0
C1247 C 0.2621 0.92717 0.40141 0.0
H1248 H 0.2833 0.90555 0.44551 0.0
C1249 C 0.24078 0.91775 0.41255 0.0
H1250 H 0.29387 0.92951 0.40543 0.0
C1251 C 0.23483 0.90422 0.43537 0.0
C1252 C 0.25002 0.89969 0.44769 0.0
H1253 H 0.22858 0.92087 0.40373 0.0
H1254 H 0.21816 0.89706 0.44319 0.0
C1255 C 0.27128 0.9088 0.43642 0.0
C1256 C 0.0565 0.316 0.43216 0.0
C1257 C 0.05729 0.33225 0.41515 0.0
H1258 H 0.07087 0.30863 0.46566 0.0
C1259 C 0.0723 0.35441 0.42109 0.0
H1260 H 0.04478 0.2988 0.4284 0.0
C1261 C 0.08757 0.36006 0.44232 0.0
C1262 C 0.08779 0.3436 0.45797 0.0
H1263 H 0.07317 0.36724 0.40829 0.0
H1264 H 0.10001 0.37713 0.44533 0.0
C1265 C 0.07144 0.32162 0.45348 0.0
C1266 C 0.04487 0.29851 0.26371 0.0
C1267 C 0.0519 0.31995 0.27278 0.0
H1268 H 0.05208 0.27788 0.23885 0.0
C1269 C 0.07106 0.33753 0.26153 0.0
H1270 H 0.03012 0.28465 0.27206 0.0
C1271 C 0.08339 0.3337 0.2422 0.0
C1272 C 0.07699 0.31219 0.234 0.0
H1273 H 0.07668 0.35425 0.26787 0.0
H1274 H 0.09814 0.34762 0.23395 0.0
C1275 C 0.05737 0.29465 0.24457 0.0
C1276 C 0.69026 0.74129 0.2709 0.0
C1277 C 0.67007 0.73329 0.28484 0.0
H1278 H 0.71111 0.76133 0.23817 0.0
C1279 C 0.65517 0.7395 0.27568 0.0
H1280 H 0.7021 0.73681 0.27739 0.0
C1281 C 0.6603 0.75343 0.25336 0.0
C1282 C 0.68049 0.76159 0.2395 0.0
H1283 H 0.63947 0.73371 0.28586 0.0
H1284 H 0.64858 0.75821 0.24736 0.0
C1285 C 0.69545 0.75538 0.2485 0.0
C1286 C 0.24764 0.95288 0.24559 0.0
C1287 C 0.25745 0.94289 0.25983 0.0
H1288 H 0.22561 0.94985 0.21356 0.0
C1289 C 0.2525 0.92174 0.25201 0.0
H1290 H 0.2512 0.9692 0.2511 0.0
C1291 C 0.23779 0.91064 0.23074 0.0
C1292 C 0.22773 0.92044 0.21662 0.0
H1293 H 0.25972 0.91355 0.26261 0.0
H1294 H 0.23388 0.8941 0.22586 0.0
C1295 C 0.23292 0.94176 0.22418 0.0
C1296 C 0.65092 0.90676 0.2705 0.0
C1297 C 0.66462 0.92784 0.28147 0.0
H1298 H 0.64713 0.88265 0.24108 0.0
C1299 C 0.68572 0.94111 0.27003 0.0
H1300 H 0.63458 0.89606 0.27874 0.0
C1301 C 0.69297 0.9333 0.24823 0.0
C1302 C 0.6791 0.91224 0.2373 0.0
H1303 H 0.69668 0.95741 0.27807 0.0
H1304 H 0.70929 0.94375 0.23981 0.0
C1305 C 0.65804 0.8991 0.24871 0.0
C1306 C 0.04312 0.74369 0.25453 0.0
C1307 C 0.05449 0.73471 0.2674 0.0
H1308 H 0.04327 0.76426 0.22255 0.0
C1309 C 0.07508 0.73947 0.25703 0.0
H1310 H 0.02715 0.7402 0.26198 0.0
C1311 C 0.08433 0.7533 0.23457 0.0
C1312 C 0.07315 0.7626 0.22194 0.0
H1313 H 0.08424 0.73281 0.26653 0.0
H1314 H 0.10053 0.75718 0.22758 0.0
C1315 C 0.05236 0.75751 0.23202 0.0
C1316 C 0.25726 0.30968 0.27391 0.0
C1317 C 0.27507 0.33125 0.27587 0.0
H1318 H 0.2274 0.28741 0.2532 0.0
C1319 C 0.27791 0.34641 0.25564 0.0
H1320 H 0.25468 0.29774 0.2894 0.0
C1321 C 0.26278 0.34038 0.23435 0.0
C1322 C 0.24396 0.31923 0.23328 0.0
H1323 H 0.29171 0.36308 0.25653 0.0
H1324 H 0.26563 0.35256 0.2191 0.0
C1325 C 0.2417 0.30378 0.25301 0.0
C1326 C 0.28941 0.36449 0.42825 0.0
C1327 C 0.28267 0.3436 0.41729 0.0
H1328 H 0.28157 0.38365 0.45514 0.0
C1329 C 0.26335 0.32542 0.42731 0.0
H1330 H 0.30427 0.3788 0.42093 0.0
C1331 C 0.25058 0.32812 0.44715 0.0
C1332 C 0.25667 0.34912 0.4572 0.0
H1333 H 0.2579 0.30907 0.41955 0.0
H1334 H 0.23569 0.31375 0.45429 0.0
C1335 C 0.27649 0.36724 0.44797 0.0
C1336 C 0.6289 0.9197 0.43599 0.0
C1337 C 0.64936 0.93117 0.42252 0.0
H1338 H 0.60969 0.89639 0.46699 0.0
C1339 C 0.6667 0.92833 0.43115 0.0
H1340 H 0.61525 0.92165 0.42989 0.0
C1341 C 0.66349 0.91382 0.45223 0.0
C1342 C 0.64287 0.90185 0.46524 0.0
H1343 H 0.68267 0.93694 0.42119 0.0
H1344 H 0.67699 0.91142 0.45768 0.0
C1345 C 0.62569 0.90517 0.45714 0.0
C1346 C 0.08319 0.72276 0.42022 0.0
C1347 C 0.07672 0.73655 0.40802 0.0
H1348 H 0.10275 0.71947 0.45129 0.0
C1349 C 0.08555 0.75805 0.41807 0.0
H1350 H 0.07672 0.70612 0.41291 0.0
C1351 C 0.10024 0.76555 0.43987 0.0
C1352 C 0.10658 0.75181 0.45229 0.0
H1353 H 0.08107 0.7692 0.40918 0.0
H1354 H 0.10685 0.78231 0.44684 0.0
C1355 C 0.0981 0.73038 0.4421 0.0
C1356 C 0.3448 0.07761 0.76521 0.0
C1357 C 0.32838 0.05632 0.75763 0.0
H1358 H 0.35351 0.10577 0.7902 0.0
C1359 C 0.30781 0.04669 0.77095 0.0
H1360 H 0.36081 0.08549 0.75532 0.0
C1361 C 0.30362 0.05834 0.79103 0.0
C1362 C 0.31997 0.07977 0.79832 0.0
H1363 H 0.29482 0.03029 0.76555 0.0
H1364 H 0.28759 0.05059 0.80084 0.0
C1365 C 0.34066 0.08918 0.78534 0.0
C1366 C 0.90769 0.24976 0.73997 0.0
C1367 C 0.92913 0.25856 0.72937 0.0
H1368 H 0.88439 0.22994 0.77056 0.0
C1369 C 0.94376 0.25352 0.74235 0.0
H1370 H 0.89592 0.25319 0.73051 0.0
C1371 C 0.93707 0.24011 0.76558 0.0
C1372 C 0.91573 0.23171 0.77634 0.0
H1373 H 0.96039 0.26003 0.7347 0.0
H1374 H 0.94867 0.23659 0.77535 0.0
C1375 C 0.90111 0.23656 0.76313 0.0
C1376 C 0.73517 0.68123 0.74476 0.0
C1377 C 0.72089 0.65907 0.738 0.0
H1378 H 0.76219 0.70413 0.76973 0.0
C1379 C 0.72092 0.64278 0.75411 0.0
H1380 H 0.73539 0.6941 0.73269 0.0
C1381 C 0.73579 0.64847 0.77555 0.0
C1382 C 0.75133 0.67058 0.78103 0.0
H1383 H 0.70976 0.62556 0.74973 0.0
H1384 H 0.73566 0.63547 0.78721 0.0
C1385 C 0.7504 0.68696 0.76604 0.0
C1386 C 0.70576 0.62694 0.58669 0.0
C1387 C 0.71222 0.64831 0.59552 0.0
H1388 H 0.71411 0.60668 0.56273 0.0
C1389 C 0.73133 0.66609 0.58445 0.0
H1390 H 0.69106 0.61293 0.5949 0.0
C1391 C 0.74431 0.66255 0.56587 0.0
C1392 C 0.73861 0.64114 0.55818 0.0
H1393 H 0.73654 0.68277 0.59059 0.0
H1394 H 0.75913 0.67662 0.55798 0.0
C1395 C 0.71889 0.62337 0.56821 0.0
C1396 C 0.35471 0.07402 0.60265 0.0
C1397 C 0.33473 0.06569 0.61714 0.0
H1398 H 0.37482 0.09426 0.56959 0.0
C1399 C 0.31931 0.07139 0.6085 0.0
H1400 H 0.36693 0.06993 0.60872 0.0
C1401 C 0.32382 0.08525 0.58622 0.0
C1402 C 0.34386 0.09382 0.57191 0.0
H1403 H 0.30374 0.06533 0.61911 0.0
H1404 H 0.31175 0.08969 0.58067 0.0
C1405 C 0.35926 0.08801 0.58031 0.0
C1406 C 0.9211 0.25511 0.58017 0.0
C1407 C 0.9266 0.27622 0.58902 0.0
H1408 H 0.90081 0.2277 0.55432 0.0
C1409 C 0.91618 0.28644 0.57678 0.0
H1410 H 0.92879 0.24676 0.58922 0.0
C1411 C 0.90023 0.27556 0.55654 0.0
C1412 C 0.89435 0.25423 0.54811 0.0
H1413 H 0.92014 0.30274 0.58307 0.0
H1414 H 0.89245 0.28384 0.54755 0.0
C1415 C 0.90514 0.24423 0.56 0.0
C1416 C 0.3143 0.24207 0.60253 0.0
C1417 C 0.32864 0.26297 0.61352 0.0
H1418 H 0.3096 0.2175 0.57329 0.0
C1419 C 0.34987 0.27556 0.60216 0.0
H1420 H 0.29783 0.2319 0.61072 0.0
C1421 C 0.35667 0.26719 0.58052 0.0
C1422 C 0.34223 0.24624 0.56965 0.0
H1423 H 0.36133 0.29171 0.61021 0.0
H1424 H 0.37313 0.2771 0.57222 0.0
C1425 C 0.32099 0.23385 0.58087 0.0
C1426 C 0.73969 0.06999 0.58317 0.0
C1427 C 0.71902 0.0644 0.59412 0.0
H1428 H 0.76506 0.08952 0.55436 0.0
C1429 C 0.7072 0.0734 0.58252 0.0
H1430 H 0.74918 0.06331 0.59168 0.0
C1431 C 0.71621 0.08829 0.561 0.0
C1432 C 0.73722 0.09446 0.55064 0.0
H1433 H 0.69115 0.06928 0.59041 0.0
H1434 H 0.70685 0.09517 0.55267 0.0
C1435 C 0.74872 0.0849 0.56166 0.0
C1436 C 0.9428 0.67619 0.58512 0.0
C1437 C 0.93982 0.66071 0.60495 0.0
H1438 H 0.93058 0.68302 0.54903 0.0
C1439 C 0.92186 0.63925 0.60269 0.0
H1440 H 0.95672 0.69279 0.58626 0.0
C1441 C 0.90627 0.63378 0.58192 0.0
C1442 C 0.90866 0.64957 0.56264 0.0
H1443 H 0.91917 0.62707 0.61789 0.0
H1444 H 0.89186 0.61749 0.58188 0.0
C1445 C 0.92764 0.6706 0.56395 0.0
C1446 C 0.92723 0.65357 0.75627 0.0
C1447 C 0.94651 0.67168 0.74606 0.0
H1448 H 0.89953 0.64216 0.78313 0.0
C1449 C 0.95316 0.69269 0.75651 0.0
H1450 H 0.92188 0.63715 0.7489 0.0
C1451 C 0.94015 0.69563 0.77588 0.0
C1452 C 0.92037 0.67758 0.78531 0.0
H1453 H 0.96799 0.70695 0.74901 0.0
H1454 H 0.94515 0.71212 0.78259 0.0
C1455 C 0.91439 0.65647 0.77581 0.0
C1456 C 0.33526 0.26449 0.76236 0.0
C1457 C 0.31754 0.267 0.75453 0.0
H1458 H 0.34656 0.24806 0.78813 0.0
C1459 C 0.29734 0.25514 0.76847 0.0
H1460 H 0.35105 0.27338 0.75202 0.0
C1461 C 0.29479 0.24066 0.78942 0.0
C1462 C 0.31243 0.23784 0.79686 0.0
H1463 H 0.28339 0.25677 0.76292 0.0
H1464 H 0.27901 0.23161 0.79971 0.0
C1465 C 0.33274 0.25008 0.78324 0.0
C1466 C 0.75023 0.05571 0.74936 0.0
C1467 C 0.74411 0.06943 0.73623 0.0
H1468 H 0.76876 0.05248 0.78187 0.0
C1469 C 0.75251 0.09091 0.74614 0.0
H1470 H 0.74406 0.03907 0.74222 0.0
C1471 C 0.76642 0.09844 0.76875 0.0
C1472 C 0.77239 0.08474 0.78207 0.0
H1473 H 0.74825 0.10199 0.73656 0.0
H1474 H 0.77271 0.11516 0.77564 0.0
C1475 C 0.76437 0.06336 0.772 0.0
C1476 C 0.04151 0.31241 0.06275 0.0
C1477 C 0.05014 0.33346 0.05153 0.0
H1478 H 0.04816 0.29025 0.08447 0.0
C1479 C 0.07297 0.34819 0.05277 0.0
H1480 H 0.02398 0.30068 0.0621 0.0
C1481 C 0.08676 0.34225 0.06578 0.0
C1482 C 0.07805 0.32138 0.07752 0.0
H1483 H 0.08012 0.36452 0.04434 0.0
H1484 H 0.10426 0.35405 0.06679 0.0
C1485 C 0.05534 0.3064 0.07547 0.0
C1486 C 0.62852 0.7099 0.05725 0.0
C1487 C 0.6423 0.70429 0.04291 0.0
H1488 H 0.62628 0.73289 0.08359 0.0
C1489 C 0.66527 0.71829 0.04459 0.0
H1490 H 0.61077 0.69932 0.05676 0.0
C1491 C 0.67421 0.73781 0.05973 0.0
C1492 C 0.66036 0.74361 0.07365 0.0
H1493 H 0.67633 0.71438 0.03378 0.0
H1494 H 0.69193 0.7486 0.05993 0.0
C1495 C 0.63743 0.72922 0.07258 0.0
C1496 C 0.27977 0.94392 0.05207 0.0
C1497 C 0.2858 0.93386 0.03165 0.0
H1498 H 0.25529 0.94038 0.08096 0.0
C1499 C 0.27063 0.91238 0.02336 0.0
H1500 H 0.29125 0.96049 0.05889 0.0
C1501 C 0.24977 0.90109 0.03533 0.0
C1502 C 0.24384 0.91085 0.05639 0.0
H1503 H 0.27478 0.9044 0.00733 0.0
H1504 H 0.23829 0.88471 0.02799 0.0
C1505 C 0.25908 0.93245 0.06453 0.0
C1506 C 0.31622 0.038 0.9546 0.0
C1507 C 0.32999 0.04312 0.97746 0.0
H1508 H 0.30189 0.04922 0.92547 0.0
C1509 C 0.33836 0.06366 0.99021 0.0
H1510 H 0.30963 0.02234 0.9442 0.0
C1511 C 0.33346 0.07901 0.97981 0.0
C1512 C 0.32041 0.07423 0.95619 0.0
H1513 H 0.3489 0.06796 0.00799 0.0
H1514 H 0.34014 0.09472 0.99009 0.0
C1515 C 0.31164 0.05341 0.94395 0.0
C1516 C 0.92588 0.28873 0.96091 0.0
C1517 C 0.9456 0.29448 0.97449 0.0
H1518 H 0.89969 0.26539 0.93566 0.0
C1519 C 0.95408 0.28033 0.97262 0.0
H1520 H 0.91906 0.29941 0.9616 0.0
C1521 C 0.94277 0.26058 0.95801 0.0
C1522 C 0.92283 0.25466 0.9448 0.0
H1523 H 0.96927 0.2843 0.98285 0.0
H1524 H 0.94937 0.24971 0.95766 0.0
C1525 C 0.91473 0.26916 0.94611 0.0
C1526 C 0.714 0.64894 0.96573 0.0
C1527 C 0.7064 0.6638 0.96464 0.0
H1528 H 0.73918 0.64202 0.95397 0.0
C1529 C 0.71948 0.6841 0.95167 0.0
H1530 H 0.70432 0.63319 0.97562 0.0
C1531 C 0.73946 0.68916 0.93933 0.0
C1532 C 0.74664 0.67395 0.93953 0.0
H1533 H 0.71408 0.69591 0.95054 0.0
H1534 H 0.74891 0.70466 0.92879 0.0
C1535 C 0.73388 0.65393 0.95321 0.0
C1536 C 0.93677 0.66043 0.96577 0.0
C1537 C 0.92528 0.63818 0.97326 0.0
H1538 H 0.93556 0.68645 0.94533 0.0
C1539 C 0.90289 0.62521 0.96645 0.0
H1540 H 0.95403 0.67091 0.97076 0.0
C1541 C 0.89236 0.63414 0.95195 0.0
C1542 C 0.90394 0.65626 0.94399 0.0
H1543 H 0.89352 0.60805 0.972 0.0
H1544 H 0.8751 0.62371 0.94691 0.0
C1545 C 0.92618 0.66939 0.95135 0.0
C1546 C 0.32183 0.28457 0.95507 0.0
C1547 C 0.33618 0.29319 0.97749 0.0
H1548 H 0.30612 0.25863 0.92584 0.0
C1549 C 0.34443 0.28079 0.98915 0.0
H1550 H 0.31532 0.29384 0.94553 0.0
C1551 C 0.3387 0.26025 0.97826 0.0
C1552 C 0.32493 0.25191 0.95517 0.0
H1553 H 0.35538 0.28698 0.0066 0.0
H1554 H 0.34521 0.25102 0.98786 0.0
C1555 C 0.31642 0.26426 0.94389 0.0
C1556 C 0.72276 0.04987 0.96372 0.0
C1557 C 0.71784 0.06039 0.98476 0.0
H1558 H 0.74528 0.05301 0.93198 0.0
C1559 C 0.73339 0.08214 0.99161 0.0
H1560 H 0.711 0.0331 0.95796 0.0
C1561 C 0.75326 0.09336 0.97728 0.0
C1562 C 0.75782 0.0833 0.95523 0.0
H1563 H 0.73017 0.09054 0.00802 0.0
H1564 H 0.76493 0.11007 0.98335 0.0
C1565 C 0.74248 0.06127 0.94893 0.0
C1566 C 0.68311 0.95951 0.07413 0.0
C1567 C 0.67062 0.95393 0.05 0.0
H1568 H 0.69732 0.94946 0.10502 0.0
C1569 C 0.66405 0.93366 0.03736 0.0
H1570 H 0.68832 0.97498 0.08447 0.0
C1571 C 0.66967 0.91914 0.04887 0.0
C1572 C 0.68168 0.92446 0.07348 0.0
H1573 H 0.65455 0.929 0.01863 0.0
H1574 H 0.66451 0.90371 0.03848 0.0
C1575 C 0.68844 0.94491 0.08583 0.0
C1576 C 0.02749 0.71898 0.04101 0.0
C1577 C 0.03411 0.70358 0.03638 0.0
H1578 H 0.03672 0.75127 0.05463 0.0
C1579 C 0.05579 0.70927 0.04241 0.0
H1580 H 0.01085 0.715 0.03638 0.0
C1581 C 0.07043 0.72975 0.05375 0.0
C1582 C 0.06388 0.74525 0.05868 0.0
H1583 H 0.06123 0.69758 0.03935 0.0
H1584 H 0.08669 0.73309 0.05934 0.0
C1585 C 0.04229 0.73969 0.05175 0.0
C1586 C 0.2893 0.36976 0.06529 0.0
C1587 C 0.29584 0.35675 0.05095 0.0
H1588 H 0.26462 0.37061 0.08997 0.0
C1589 C 0.28183 0.33386 0.05061 0.0
H1590 H 0.29987 0.38742 0.0662 0.0
C1591 C 0.26139 0.32421 0.06381 0.0
C1592 C 0.25468 0.33725 0.07785 0.0
H1593 H 0.28642 0.32342 0.03962 0.0
H1594 H 0.25066 0.3066 0.06244 0.0
C1595 C 0.26902 0.36011 0.07877 0.0
C1596 C 0.70877 0.6473 0.39202 0.0
C1597 C 0.71706 0.66878 0.38245 0.0
H1598 H 0.71585 0.62464 0.41158 0.0
C1599 C 0.73979 0.68381 0.38422 0.0
H1600 H 0.69133 0.63532 0.3909 0.0
C1601 C 0.7538 0.67771 0.39626 0.0
C1602 C 0.74539 0.65638 0.40644 0.0
H1603 H 0.74665 0.70047 0.37703 0.0
H1604 H 0.77121 0.68972 0.39783 0.0
C1605 C 0.7228 0.64114 0.40376 0.0
C1606 C 0.3272 0.05032 0.37832 0.0
C1607 C 0.30423 0.03633 0.37661 0.0
H1608 H 0.35385 0.08074 0.39342 0.0
C1609 C 0.29044 0.04217 0.3905 0.0
H1610 H 0.33827 0.04625 0.36785 0.0
C1611 C 0.29934 0.06165 0.40551 0.0
C1612 C 0.32228 0.07598 0.4067 0.0
H1613 H 0.27269 0.03162 0.38997 0.0
H1614 H 0.28818 0.06545 0.41624 0.0
C1615 C 0.33613 0.07 0.39313 0.0
C1616 C 0.9369 0.28124 0.37314 0.0
C1617 C 0.94926 0.2707 0.37256 0.0
H1618 H 0.9062 0.2789 0.38366 0.0
C1619 C 0.94006 0.24955 0.38342 0.0
H1620 H 0.94358 0.29758 0.3649 0.0
C1621 C 0.9189 0.23906 0.39446 0.0
C1622 C 0.9063 0.24934 0.39457 0.0
H1623 H 0.94927 0.24111 0.38362 0.0
H1624 H 0.91247 0.22289 0.40311 0.0
C1625 C 0.91556 0.27062 0.38399 0.0
C1626 C 0.98693 0.37325 0.28526 0.0
C1627 C -0.00038 0.37824 0.30912 0.0
H1628 H 0.97345 0.3845 0.25492 0.0
C1629 C 0.00744 0.39871 0.32185 0.0
H1630 H 0.98081 0.35764 0.27487 0.0
C1631 C 0.00281 0.41402 0.31069 0.0
C1632 C 0.99053 0.40924 0.2864 0.0
H1633 H 0.01716 0.40292 0.34038 0.0
H1634 H 0.00889 0.42961 0.32109 0.0
C1635 C 0.98257 0.38862 0.27392 0.0
C1636 C 0.58913 0.60852 0.32026 0.0
C1637 C 0.61122 0.62422 0.31499 0.0
H1638 H 0.5617 0.57715 0.3103 0.0
C1639 C 0.62278 0.61989 0.29471 0.0
H1640 H 0.57992 0.61128 0.33608 0.0
C1641 C 0.61214 0.60051 0.27925 0.0
C1642 C 0.58983 0.58494 0.28412 0.0
H1643 H 0.63985 0.63178 0.29019 0.0
H1644 H 0.62124 0.59808 0.26302 0.0
C1645 C 0.57866 0.58901 0.30528 0.0
C1646 C 0.37167 0.97627 0.29402 0.0
C1647 C 0.36715 0.99298 0.30004 0.0
H1648 H 0.39427 0.96779 0.27696 0.0
C1649 C 0.38331 0.01484 0.29473 0.0
H1650 H 0.35939 0.95924 0.29759 0.0
C1651 C 0.40369 0.01989 0.28359 0.0
C1652 C 0.40814 0.00313 0.27699 0.0
H1653 H 0.38025 0.02806 0.29931 0.0
H1654 H 0.41593 0.03695 0.28028 0.0
C1655 C 0.3918 0.98124 0.28234 0.0
C1656 C 0.57533 0.95485 0.29611 0.0
C1657 C 0.59564 0.969 0.30861 0.0
H1658 H 0.54858 0.95185 0.2725 0.0
C1659 C 0.60442 0.99177 0.30696 0.0
H1660 H 0.56826 0.93723 0.29673 0.0
C1661 C 0.59291 0.00019 0.29348 0.0
C1662 C 0.5725 0.98603 0.2811 0.0
H1663 H 0.62002 0.00311 0.31648 0.0
H1664 H 0.59984 0.01779 0.29324 0.0
C1665 C 0.56399 0.96326 0.28234 0.0
C1666 C 0.01314 0.61447 0.32167 0.0
C1667 C 0.00482 0.62698 0.31051 0.0
H1668 H 0.01398 0.58474 0.31954 0.0
C1669 C 0.99038 0.61857 0.28814 0.0
H1670 H 0.02416 0.62048 0.33906 0.0
C1671 C 0.98493 0.59836 0.27656 0.0
C1672 C 0.99352 0.58592 0.28733 0.0
H1673 H 0.9838 0.62791 0.27898 0.0
H1674 H 0.97452 0.59287 0.2586 0.0
C1675 C 0.00741 0.59406 0.31034 0.0
C1676 C 0.40035 0.41698 0.31974 0.0
C1677 C 0.38495 0.39523 0.31275 0.0
H1678 H 0.43215 0.44478 0.31243 0.0
C1679 C 0.39028 0.38462 0.29229 0.0
H1680 H 0.39678 0.42541 0.33576 0.0
C1681 C 0.41033 0.39594 0.27816 0.0
C1682 C 0.42561 0.41797 0.28465 0.0
H1683 H 0.37861 0.36783 0.28648 0.0
H1684 H 0.41347 0.38763 0.2616 0.0
C1685 C 0.42056 0.42811 0.30616 0.0
C1686 C 0.35003 0.29452 0.40579 0.0
C1687 C 0.33779 0.28916 0.38148 0.0
H1688 H 0.36325 0.28387 0.43726 0.0
C1689 C 0.33077 0.26873 0.36903 0.0
H1690 H 0.35557 0.31011 0.41597 0.0
C1691 C 0.33561 0.25379 0.38095 0.0
C1692 C 0.34728 0.25884 0.4058 0.0
H1693 H 0.32145 0.26424 0.35016 0.0
H1694 H 0.3301 0.23824 0.37071 0.0
C1695 C 0.35458 0.27949 0.41792 0.0
C1696 C 0.7237 0.04771 0.37813 0.0
C1697 C 0.70127 0.03963 0.37335 0.0
H1698 H 0.75409 0.07421 0.39292 0.0
C1699 C 0.6926 0.05337 0.37813 0.0
H1700 H 0.73076 0.03739 0.3749 0.0
C1701 C 0.7061 0.07476 0.38783 0.0
C1702 C 0.72847 0.08273 0.39342 0.0
H1703 H 0.67535 0.04757 0.37443 0.0
H1704 H 0.69894 0.08498 0.39099 0.0
C1705 C 0.73709 0.06892 0.38832 0.0
C1706 C 0.95718 0.70326 0.39785 0.0
C1707 C 0.96372 0.69029 0.3834 0.0
H1708 H 0.93234 0.70411 0.42215 0.0
C1709 C 0.94945 0.66745 0.38238 0.0
H1710 H 0.96795 0.72088 0.39927 0.0
C1711 C 0.92879 0.65783 0.39504 0.0
C1712 C 0.92212 0.67084 0.40925 0.0
H1713 H 0.95402 0.65704 0.37128 0.0
H1714 H 0.91789 0.64028 0.39316 0.0
C1715 C 0.9367 0.69364 0.41082 0.0
C1716 C 0.4109 0.0218 0.71064 0.0
C1717 C 0.38825 0.0063 0.71173 0.0
H1718 H 0.44352 0.02943 0.72128 0.0
C1719 C 0.38128 0.98563 0.72318 0.0
H1720 H 0.41677 0.03786 0.70192 0.0
C1721 C 0.39656 0.98078 0.73412 0.0
C1722 C 0.41913 0.99657 0.73406 0.0
H1723 H 0.36394 0.97331 0.72427 0.0
H1724 H 0.3906 0.96497 0.74361 0.0
C1725 C 0.42619 0.01702 0.72184 0.0
C1726 C 0.95901 0.37165 0.72328 0.0
C1727 C 0.97298 0.3671 0.70755 0.0
H1728 H 0.95631 0.39349 0.75118 0.0
C1729 C -0.00417 0.38187 0.70835 0.0
H1730 H 0.94137 0.36039 0.72354 0.0
C1731 C 0.00445 0.40119 0.72388 0.0
C1732 C 0.99038 0.40596 0.73916 0.0
H1733 H 0.00701 0.37874 0.69647 0.0
H1734 H 0.02203 0.41265 0.72329 0.0
C1735 C 0.96761 0.3907 0.73908 0.0
C1736 C 0.60283 0.61035 0.70824 0.0
C1737 C 0.61279 0.5981 0.70103 0.0
H1738 H 0.57575 0.61047 0.72826 0.0
C1739 C 0.60215 0.57579 0.7079 0.0
H1740 H 0.61058 0.62758 0.70321 0.0
C1741 C 0.58223 0.56605 0.72219 0.0
C1742 C 0.57251 0.5784 0.72986 0.0
H1743 H 0.60933 0.56587 0.70256 0.0
H1744 H 0.57441 0.54881 0.72724 0.0
C1745 C 0.58285 0.60057 0.72247 0.0
C1746 C 0.67668 0.72837 0.63723 0.0
C1747 C 0.66024 0.70651 0.64168 0.0
H1748 H 0.68448 0.75976 0.62251 0.0
C1749 C 0.63815 0.7 0.63666 0.0
H1750 H 0.69386 0.73376 0.6407 0.0
C1751 C 0.63263 0.71505 0.62692 0.0
C1752 C 0.64914 0.73682 0.62146 0.0
H1753 H 0.62514 0.68323 0.64016 0.0
H1754 H 0.61542 0.70955 0.62353 0.0
C1755 C 0.67122 0.74331 0.62695 0.0
C1756 C 0.25722 0.94071 0.65745 0.0
C1757 C 0.27889 0.95677 0.65074 0.0
H1758 H 0.22997 0.90882 0.64912 0.0
C1759 C 0.28988 0.95252 0.62961 0.0
H1760 H 0.24848 0.94342 0.67394 0.0
C1761 C 0.27903 0.93288 0.6147 0.0
C1762 C 0.2571 0.91694 0.62098 0.0
H1763 H 0.3066 0.96469 0.62397 0.0
H1764 H 0.28763 0.93053 0.59776 0.0
C1765 C 0.24657 0.92093 0.64302 0.0
C1766 C 0.05148 0.34805 0.6196 0.0
C1767 C 0.03826 0.3275 0.63195 0.0
H1768 H 0.08173 0.36955 0.59882 0.0
C1769 C 0.0464 0.31312 0.63401 0.0
H1770 H 0.04568 0.35951 0.61775 0.0
C1771 C 0.06703 0.31889 0.62314 0.0
C1772 C 0.08 0.3392 0.61016 0.0
H1773 H 0.03663 0.29721 0.64348 0.0
H1774 H 0.07278 0.30736 0.62468 0.0
C1775 C 0.07217 0.35387 0.6089 0.0
C1776 C 0.27375 0.32938 0.63733 0.0
C1777 C 0.2625 0.30702 0.64429 0.0
H1778 H 0.27221 0.35546 0.61761 0.0
C1779 C 0.24023 0.29384 0.63702 0.0
H1780 H 0.29091 0.34001 0.64265 0.0
C1781 C 0.22955 0.30273 0.62271 0.0
C1782 C 0.24089 0.325 0.61544 0.0
H1783 H 0.23106 0.27659 0.64214 0.0
H1784 H 0.21238 0.29217 0.61739 0.0
C1785 C 0.26303 0.33829 0.62312 0.0
C1786 C 0.68583 0.95066 0.6385 0.0
C1787 C 0.67054 0.95703 0.64541 0.0
H1788 H 0.69109 0.92591 0.62135 0.0
C1789 C 0.64795 0.94195 0.64208 0.0
H1790 H 0.70336 0.96202 0.64058 0.0
C1791 C 0.6408 0.92097 0.63162 0.0
C1792 C 0.65612 0.91475 0.62385 0.0
H1793 H 0.63579 0.94642 0.6474 0.0
H1794 H 0.62327 0.90968 0.62954 0.0
C1795 C 0.67873 0.92985 0.6276 0.0
C1796 C 0.05582 0.71405 0.624 0.0
C1797 C 0.05002 0.72387 0.64498 0.0
H1798 H 0.07988 0.71817 0.59399 0.0
C1799 C 0.06541 0.74515 0.65374 0.0
H1800 H 0.04416 0.69763 0.61688 0.0
C1801 C 0.08608 0.75664 0.64134 0.0
C1802 C 0.09163 0.7474 0.61926 0.0
H1803 H 0.06145 0.75293 0.67022 0.0
H1804 H 0.09762 0.77292 0.64894 0.0
C1805 C 0.07636 0.72579 0.61104 0.0
C1806 C 0.99373 0.59609 0.69907 0.0
C1807 C 0.001 0.61671 0.71112 0.0
H1808 H 0.99278 0.56547 0.70138 0.0
C1809 C 0.01322 0.6222 0.73546 0.0
H1810 H 0.98438 0.59148 0.68022 0.0
C1811 C 0.01762 0.60719 0.74791 0.0
C1812 C 0.01019 0.58642 0.73613 0.0
H1813 H 0.01891 0.63791 0.74538 0.0
H1814 H 0.02632 0.61174 0.76723 0.0
C1815 C -0.00158 0.58115 0.71134 0.0
C1816 C 0.39166 0.38318 0.71091 0.0
C1817 C 0.36952 0.37576 0.70504 0.0
H1818 H 0.42197 0.40903 0.72681 0.0
C1819 C 0.36147 0.39014 0.70856 0.0
H1820 H 0.39823 0.37235 0.70863 0.0
C1821 C 0.37524 0.41148 0.71824 0.0
C1822 C 0.39726 0.41875 0.72521 0.0
H1823 H 0.34447 0.38485 0.70394 0.0
H1824 H 0.36853 0.42217 0.72044 0.0
C1825 C 0.40531 0.40433 0.72118 0.0
C1826 C 0.62197 0.00359 0.72137 0.0
C1827 C 0.63345 0.02576 0.71358 0.0
H1828 H 0.59389 0.97798 0.74222 0.0
C1829 C 0.62485 0.03917 0.72087 0.0
H1830 H 0.62815 0.99281 0.71605 0.0
C1831 C 0.60528 0.03066 0.73574 0.0
C1832 C 0.59386 0.00855 0.74365 0.0
H1833 H 0.63322 0.05629 0.71511 0.0
H1834 H 0.59894 0.04136 0.7408 0.0
C1835 C 0.60231 0.99505 0.73623 0.0
loop_
_geom_bond_atom_site_label_1
_geom_bond_atom_site_label_2
_geom_bond_distance
_geom_bond_site_symmetry_2
_ccdc_geom_bond_type
C0 O1 1.303 1_556 S
C0 O3 1.160 . S
O1 C0 1.303 1_554 S
O1 Cd2 2.230 . S
Cd2 O1 2.230 . S
Cd2 O6 2.273 . S
Cd2 O10 2.277 1_554 S
O3 C0 1.160 . S
O3 Cd4 2.203 1_656 S
Cd4 O3 2.203 1_454 S
Cd4 O6 2.411 1_455 S
Cd4 O7 2.333 . S
Cd4 O8 2.352 . S
Cd4 O12 2.277 1_554 S
Cd4 O13 2.356 . S
C5 O10 1.209 1_455 S
C5 O12 1.226 . S
O6 Cd2 2.273 . S
O6 Cd4 2.411 1_655 S
O6 C9 1.325 . S
O7 Cd4 2.333 . S
O7 C9 1.201 1_455 S
O8 Cd4 2.352 . S
O8 C11 1.258 . S
C9 O6 1.325 . S
C9 O7 1.201 1_655 S
O10 Cd2 2.277 1_556 S
O10 C5 1.209 1_655 S
C11 O8 1.258 . S
C11 O13 1.282 . S
O12 Cd4 2.277 1_556 S
O12 C5 1.226 . S
O13 Cd4 2.356 . S
O13 C11 1.282 . S
C14 O15 1.306 . S
C14 O17 1.160 . S
O15 C14 1.306 . S
O15 Cd16 2.228 . S
Cd16 O15 2.228 . S
Cd16 O20 2.273 1_554 S
Cd16 O24 2.277 . S
O17 C14 1.160 . S
O17 Cd18 2.203 . S
Cd18 O17 2.203 . S
Cd18 O20 2.411 1_554 S
Cd18 O21 2.333 1_554 S
Cd18 O22 2.352 1_554 S
Cd18 O26 2.277 . S
Cd18 O27 2.358 . S
C19 O24 1.209 . S
C19 O26 1.226 . S
O20 Cd16 2.273 1_556 S
O20 Cd18 2.411 1_556 S
O20 C23 1.320 . S
O21 Cd18 2.333 1_556 S
O21 C23 1.214 . S
O22 Cd18 2.352 1_556 S
O22 C25 1.258 . S
C23 O20 1.320 . S
C23 O21 1.214 . S
O24 Cd16 2.277 . S
O24 C19 1.209 . S
C25 O22 1.258 . S
C25 O27 1.277 1_556 S
O26 Cd18 2.277 . S
O26 C19 1.226 . S
O27 Cd18 2.358 . S
O27 C25 1.277 1_554 S
C28 O29 1.306 . S
C28 O31 1.160 . S
O29 C28 1.306 . S
O29 Cd30 2.228 . S
Cd30 O29 2.228 . S
Cd30 O34 2.273 1_554 S
Cd30 O38 2.277 . S
O31 C28 1.160 . S
O31 Cd32 2.203 1_565 S
Cd32 O31 2.203 1_545 S
Cd32 O34 2.411 1_544 S
Cd32 O35 2.333 1_554 S
Cd32 O36 2.352 1_554 S
Cd32 O40 2.277 . S
Cd32 O41 2.356 . S
C33 O38 1.209 1_545 S
C33 O40 1.226 . S
O34 Cd30 2.273 1_556 S
O34 Cd32 2.411 1_566 S
O34 C37 1.303 1_565 S
O35 Cd32 2.333 1_556 S
O35 C37 1.258 . S
O36 Cd32 2.352 1_556 S
O36 C39 1.258 . S
C37 O34 1.303 1_545 S
C37 O35 1.258 . S
O38 Cd30 2.277 . S
O38 C33 1.209 1_565 S
C39 O36 1.258 . S
C39 O41 1.282 1_556 S
O40 Cd32 2.277 . S
O40 C33 1.226 . S
O41 Cd32 2.356 . S
O41 C39 1.282 1_554 S
C42 O43 1.306 . S
C42 O45 1.160 . S
O43 C42 1.306 . S
O43 Cd44 2.228 1_556 S
Cd44 O43 2.228 1_554 S
Cd44 O48 2.273 . S
Cd44 O52 2.277 1_554 S
O45 C42 1.160 . S
O45 Cd46 2.203 1_656 S
Cd46 O45 2.203 1_454 S
Cd46 O48 2.411 1_455 S
Cd46 O49 2.333 . S
Cd46 O50 2.352 . S
Cd46 O54 2.277 1_554 S
Cd46 O55 2.356 . S
C47 O52 1.209 1_455 S
C47 O54 1.226 . S
O48 Cd44 2.273 . S
O48 Cd46 2.411 1_655 S
O48 C51 1.320 . S
O49 Cd46 2.333 . S
O49 C51 1.214 1_455 S
O50 Cd46 2.352 . S
O50 C53 1.258 . S
C51 O48 1.320 . S
C51 O49 1.214 1_655 S
O52 Cd44 2.277 1_556 S
O52 C47 1.209 1_655 S
C53 O50 1.258 . S
C53 O55 1.282 . S
O54 Cd46 2.277 1_556 S
O54 C47 1.226 . S
O55 Cd46 2.356 . S
O55 C53 1.282 . S
C56 O57 1.306 . S
C56 O59 1.160 . S
O57 C56 1.306 . S
O57 Cd58 2.228 . S
Cd58 O57 2.228 . S
Cd58 O62 2.273 1_554 S
Cd58 O66 2.277 . S
O59 C56 1.160 . S
O59 Cd60 2.203 . S
Cd60 O59 2.203 . S
Cd60 O62 2.411 1_554 S
Cd60 O63 2.333 1_554 S
Cd60 O64 2.352 1_554 S
Cd60 O68 2.277 . S
Cd60 O69 2.356 1_554 S
C61 O66 1.209 . S
C61 O68 1.226 . S
O62 Cd58 2.273 1_556 S
O62 Cd60 2.411 1_556 S
O62 C65 1.320 . S
O63 Cd60 2.333 1_556 S
O63 C65 1.214 . S
O64 Cd60 2.352 1_556 S
O64 C67 1.258 . S
C65 O62 1.320 . S
C65 O63 1.214 . S
O66 Cd58 2.277 . S
O66 C61 1.209 . S
C67 O64 1.258 . S
C67 O69 1.282 . S
O68 Cd60 2.277 . S
O68 C61 1.226 . S
O69 Cd60 2.356 1_556 S
O69 C67 1.282 . S
C70 O71 1.311 . S
C70 O73 1.160 . S
O71 C70 1.311 . S
O71 Cd72 2.225 1_556 S
Cd72 O71 2.225 1_554 S
Cd72 O76 2.273 . S
Cd72 O80 2.277 1_554 S
O73 C70 1.160 . S
O73 Cd74 2.203 1_546 S
Cd74 O73 2.203 1_564 S
Cd74 O76 2.411 1_565 S
Cd74 O77 2.333 . S
Cd74 O78 2.352 . S
Cd74 O82 2.277 1_554 S
Cd74 O83 2.356 . S
C75 O80 1.209 1_565 S
C75 O82 1.226 . S
O76 Cd72 2.273 . S
O76 Cd74 2.411 1_545 S
O76 C79 1.320 . S
O77 Cd74 2.333 . S
O77 C79 1.214 1_565 S
O78 Cd74 2.352 . S
O78 C81 1.258 . S
C79 O76 1.320 . S
C79 O77 1.214 1_545 S
O80 Cd72 2.277 1_556 S
O80 C75 1.209 1_545 S
C81 O78 1.258 . S
C81 O83 1.282 . S
O82 Cd74 2.277 1_556 S
O82 C75 1.226 . S
O83 Cd74 2.356 . S
O83 C81 1.282 . S
C84 O85 1.306 . S
C84 O87 1.160 . S
O85 C84 1.306 . S
O85 Cd86 2.228 . S
Cd86 O85 2.228 . S
Cd86 O90 2.273 . S
Cd86 O94 2.277 . S
O87 C84 1.160 . S
O87 Cd88 2.203 . S
Cd88 O87 2.203 . S
Cd88 O90 2.411 . S
Cd88 O91 2.333 . S
Cd88 O92 2.352 . S
Cd88 O96 2.277 . S
Cd88 O97 2.356 . S
C89 O94 1.209 . S
C89 O96 1.226 . S
O90 Cd86 2.273 . S
O90 Cd88 2.411 . S
O90 C93 1.320 . S
O91 Cd88 2.333 . S
O91 C93 1.214 . S
O92 Cd88 2.352 . S
O92 C95 1.258 . S
C93 O90 1.320 . S
C93 O91 1.214 . S
O94 Cd86 2.277 . S
O94 C89 1.209 . S
C95 O92 1.258 . S
C95 O97 1.282 . S
O96 Cd88 2.277 . S
O96 C89 1.226 . S
O97 Cd88 2.356 . S
O97 C95 1.282 . S
C98 O99 1.306 . S
C98 O101 1.160 . S
O99 C98 1.306 . S
O99 Cd100 2.228 1_545 S
Cd100 O99 2.228 1_565 S
Cd100 O104 2.273 . S
Cd100 O108 2.277 . S
O101 C98 1.160 . S
O101 Cd102 2.203 1_545 S
Cd102 O101 2.203 1_565 S
Cd102 O104 2.411 . S
Cd102 O105 2.333 . S
Cd102 O106 2.352 1_565 S
Cd102 O110 2.277 . S
Cd102 O111 2.356 . S
C103 O108 1.209 . S
C103 O110 1.226 . S
O104 Cd100 2.273 . S
O104 Cd102 2.411 . S
O104 C107 1.320 . S
O105 Cd102 2.333 . S
O105 C107 1.214 . S
O106 Cd102 2.352 1_545 S
O106 C109 1.258 1_545 S
C107 O104 1.320 . S
C107 O105 1.214 . S
O108 Cd100 2.277 . S
O108 C103 1.209 . S
C109 O106 1.258 1_565 S
C109 O111 1.282 . S
O110 Cd102 2.277 . S
O110 C103 1.226 . S
O111 Cd102 2.356 . S
O111 C109 1.282 . S
C112 O113 1.306 . S
C112 O115 1.160 . S
O113 C112 1.306 . S
O113 Cd114 2.228 1_655 S
Cd114 O113 2.228 1_455 S
Cd114 O118 2.273 . S
Cd114 O122 2.277 . S
O115 C112 1.160 . S
O115 Cd116 2.203 1_655 S
Cd116 O115 2.203 1_455 S
Cd116 O118 2.411 . S
Cd116 O119 2.333 . S
Cd116 O120 2.352 . S
Cd116 O124 2.277 . S
Cd116 O125 2.356 . S
C117 O122 1.209 . S
C117 O124 1.226 . S
O118 Cd114 2.273 . S
O118 Cd116 2.411 . S
O118 C121 1.320 . S
O119 Cd116 2.333 . S
O119 C121 1.214 . S
O120 Cd116 2.352 . S
O120 C123 1.258 . S
C121 O118 1.320 . S
C121 O119 1.214 . S
O122 Cd114 2.277 . S
O122 C117 1.209 . S
C123 O120 1.258 . S
C123 O125 1.282 . S
O124 Cd116 2.277 . S
O124 C117 1.226 . S
O125 Cd116 2.356 . S
O125 C123 1.282 . S
C126 O127 1.306 . S
C126 O129 1.160 . S
O127 C126 1.306 . S
O127 Cd128 2.228 . S
Cd128 O127 2.228 . S
Cd128 O132 2.273 . S
Cd128 O136 2.277 . S
O129 C126 1.160 . S
O129 Cd130 2.203 . S
Cd130 O129 2.203 . S
Cd130 O132 2.411 . S
Cd130 O133 2.333 . S
Cd130 O134 2.352 1_565 S
Cd130 O138 2.277 . S
Cd130 O139 2.356 1_565 S
C131 O136 1.209 . S
C131 O138 1.226 . S
O132 Cd128 2.273 . S
O132 Cd130 2.411 . S
O132 C135 1.320 . S
O133 Cd130 2.333 . S
O133 C135 1.214 . S
O134 Cd130 2.352 1_545 S
O134 C137 1.258 . S
C135 O132 1.320 . S
C135 O133 1.214 . S
O136 Cd128 2.277 . S
O136 C131 1.209 . S
C137 O134 1.258 . S
C137 O139 1.282 . S
O138 Cd130 2.277 . S
O138 C131 1.226 . S
O139 Cd130 2.356 1_545 S
O139 C137 1.282 . S
C140 O141 1.306 . S
C140 O143 1.160 . S
O141 C140 1.306 . S
O141 Cd142 2.228 1_655 S
Cd142 O141 2.228 1_455 S
Cd142 O146 2.273 . S
Cd142 O150 2.277 . S
O143 C140 1.160 . S
O143 Cd144 2.203 1_655 S
Cd144 O143 2.203 1_455 S
Cd144 O146 2.411 . S
Cd144 O147 2.333 . S
Cd144 O148 2.365 . S
Cd144 O152 2.277 . S
Cd144 O153 2.356 . S
C145 O150 1.209 . S
C145 O152 1.226 . S
O146 Cd142 2.273 . S
O146 Cd144 2.411 . S
O146 C149 1.320 . S
O147 Cd144 2.333 . S
O147 C149 1.214 . S
O148 Cd144 2.365 . S
O148 C151 1.307 . S
C149 O146 1.320 . S
C149 O147 1.214 . S
O150 Cd142 2.277 . S
O150 C145 1.209 . S
C151 O148 1.307 . S
C151 O153 1.282 . S
O152 Cd144 2.277 . S
O152 C145 1.226 . S
O153 Cd144 2.356 . S
O153 C151 1.282 . S
C154 O155 1.306 . S
C154 O157 1.160 . S
O155 C154 1.306 . S
O155 Cd156 2.228 . S
Cd156 O155 2.228 . S
Cd156 O160 2.273 . S
Cd156 O164 2.277 . S
O157 C154 1.160 . S
O157 Cd158 2.203 . S
Cd158 O157 2.203 . S
Cd158 O160 2.411 . S
Cd158 O161 2.333 . S
Cd158 O162 2.352 . S
Cd158 O166 2.277 . S
Cd158 O167 2.356 . S
C159 O164 1.209 . S
C159 O166 1.226 . S
O160 Cd156 2.273 . S
O160 Cd158 2.411 . S
O160 C163 1.320 . S
O161 Cd158 2.333 . S
O161 C163 1.214 . S
O162 Cd158 2.352 . S
O162 C165 1.258 . S
C163 O160 1.320 . S
C163 O161 1.214 . S
O164 Cd156 2.277 . S
O164 C159 1.209 . S
C165 O162 1.258 . S
C165 O167 1.282 . S
O166 Cd158 2.277 . S
O166 C159 1.226 . S
O167 Cd158 2.356 . S
O167 C165 1.282 . S
C168 O169 1.306 . S
C168 O171 1.160 . S
O169 C168 1.306 . S
O169 Cd170 2.228 1_565 S
Cd170 O169 2.228 1_545 S
Cd170 O174 2.273 . S
Cd170 O178 2.277 . S
O171 C168 1.160 . S
O171 Cd172 2.203 1_565 S
Cd172 O171 2.203 1_545 S
Cd172 O174 2.411 . S
Cd172 O175 2.333 . S
Cd172 O176 2.356 . S
Cd172 O180 2.277 . S
Cd172 O181 2.356 . S
C173 O178 1.209 . S
C173 O180 1.226 . S
O174 Cd170 2.273 . S
O174 Cd172 2.411 . S
O174 C177 1.320 . S
O175 Cd172 2.333 . S
O175 C177 1.214 . S
O176 Cd172 2.356 . S
O176 C179 1.258 . S
C177 O174 1.320 . S
C177 O175 1.214 . S
O178 Cd170 2.277 . S
O178 C173 1.209 . S
C179 O176 1.258 . S
C179 O181 1.282 . S
O180 Cd172 2.277 . S
O180 C173 1.226 . S
O181 Cd172 2.356 . S
O181 C179 1.282 . S
C182 O183 1.306 . S
C182 O185 1.160 1_655 S
O183 C182 1.306 . S
O183 Cd184 2.228 . S
Cd184 O183 2.228 . S
Cd184 O188 2.273 . S
Cd184 O192 2.277 . S
O185 C182 1.160 1_455 S
O185 Cd186 2.203 1_455 S
Cd186 O185 2.203 1_655 S
Cd186 O188 2.411 . S
Cd186 O189 2.333 . S
Cd186 O190 2.352 1_655 S
Cd186 O194 2.277 . S
Cd186 O195 2.356 1_655 S
C187 O192 1.209 . S
C187 O194 1.226 . S
O188 Cd184 2.273 . S
O188 Cd186 2.411 . S
O188 C191 1.320 . S
O189 Cd186 2.333 . S
O189 C191 1.214 . S
O190 Cd186 2.352 1_455 S
O190 C193 1.258 . S
C191 O188 1.320 . S
C191 O189 1.214 . S
O192 Cd184 2.277 . S
O192 C187 1.209 . S
C193 O190 1.258 . S
C193 O195 1.282 . S
O194 Cd186 2.277 . S
O194 C187 1.226 . S
O195 Cd186 2.356 1_455 S
O195 C193 1.282 . S
C196 O197 1.306 . S
C196 O199 1.160 . S
O197 C196 1.306 . S
O197 Cd198 2.228 . S
Cd198 O197 2.228 . S
Cd198 O202 2.273 . S
Cd198 O206 2.277 . S
O199 C196 1.160 . S
O199 Cd200 2.203 . S
Cd200 O199 2.203 . S
Cd200 O202 2.411 . S
Cd200 O203 2.333 . S
Cd200 O204 2.352 . S
Cd200 O208 2.277 . S
Cd200 O209 2.356 . S
C201 O206 1.209 . S
C201 O208 1.226 . S
O202 Cd198 2.273 . S
O202 Cd200 2.411 . S
O202 C205 1.320 . S
O203 Cd200 2.333 . S
O203 C205 1.214 . S
O204 Cd200 2.352 . S
O204 C207 1.258 . S
C205 O202 1.320 . S
C205 O203 1.214 . S
O206 Cd198 2.277 . S
O206 C201 1.209 . S
C207 O204 1.258 . S
C207 O209 1.282 . S
O208 Cd200 2.277 . S
O208 C201 1.226 . S
O209 Cd200 2.356 . S
O209 C207 1.282 . S
C210 O211 1.306 . S
C210 O213 1.160 . S
O211 C210 1.306 . S
O211 Cd212 2.228 . S
Cd212 O211 2.228 . S
Cd212 O216 2.273 . S
Cd212 O220 2.277 . S
O213 C210 1.160 . S
O213 Cd214 2.203 . S
Cd214 O213 2.203 . S
Cd214 O216 2.411 . S
Cd214 O217 2.333 . S
Cd214 O218 2.352 . S
Cd214 O222 2.277 . S
Cd214 O223 2.356 . S
C215 O220 1.209 . S
C215 O222 1.226 . S
O216 Cd212 2.273 . S
O216 Cd214 2.411 . S
O216 C219 1.320 . S
O217 Cd214 2.333 . S
O217 C219 1.214 . S
O218 Cd214 2.352 . S
O218 C221 1.258 . S
C219 O216 1.320 . S
C219 O217 1.214 . S
O220 Cd212 2.277 . S
O220 C215 1.209 . S
C221 O218 1.258 . S
C221 O223 1.282 . S
O222 Cd214 2.277 . S
O222 C215 1.226 . S
O223 Cd214 2.356 . S
O223 C221 1.282 . S
C224 O225 1.306 . S
C224 O227 1.160 . S
O225 C224 1.306 . S
O225 Cd226 2.228 . S
Cd226 O225 2.228 . S
Cd226 O230 2.273 . S
Cd226 O234 2.277 . S
O227 C224 1.160 . S
O227 Cd228 2.203 . S
Cd228 O227 2.203 . S
Cd228 O230 2.411 . S
Cd228 O231 2.333 . S
Cd228 O232 2.352 1_545 S
Cd228 O236 2.277 . S
Cd228 O237 2.356 1_545 S
C229 O234 1.209 . S
C229 O236 1.226 . S
O230 Cd226 2.273 . S
O230 Cd228 2.411 . S
O230 C233 1.320 . S
O231 Cd228 2.333 . S
O231 C233 1.214 . S
O232 Cd228 2.352 1_565 S
O232 C235 1.258 . S
C233 O230 1.320 . S
C233 O231 1.214 . S
O234 Cd226 2.277 . S
O234 C229 1.209 . S
C235 O232 1.258 . S
C235 O237 1.282 . S
O236 Cd228 2.277 . S
O236 C229 1.226 . S
O237 Cd228 2.356 1_565 S
O237 C235 1.282 . S
C238 O239 1.306 . S
C238 O241 1.160 . S
O239 C238 1.306 . S
O239 Cd240 2.228 1_455 S
Cd240 O239 2.228 1_655 S
Cd240 O244 2.273 . S
Cd240 O248 2.277 . S
O241 C238 1.160 . S
O241 Cd242 2.203 1_455 S
Cd242 O241 2.203 1_655 S
Cd242 O244 2.411 . S
Cd242 O245 2.333 . S
Cd242 O246 2.352 1_655 S
Cd242 O250 2.277 . S
Cd242 O251 2.356 . S
C243 O248 1.209 . S
C243 O250 1.226 . S
O244 Cd240 2.273 . S
O244 Cd242 2.411 . S
O244 C247 1.320 . S
O245 Cd242 2.333 . S
O245 C247 1.214 . S
O246 Cd242 2.352 1_455 S
O246 C249 1.258 1_455 S
C247 O244 1.320 . S
C247 O245 1.214 . S
O248 Cd240 2.277 . S
O248 C243 1.209 . S
C249 O246 1.258 1_655 S
C249 O251 1.282 . S
O250 Cd242 2.277 . S
O250 C243 1.226 . S
O251 Cd242 2.356 . S
O251 C249 1.282 . S
H252 C271 0.949 . S
H253 C272 0.950 . S
H254 C274 0.950 . S
H255 C275 0.950 . S
H256 C277 0.950 . S
H257 C280 0.950 . S
H258 C281 0.950 . S
H259 C283 0.951 . S
H260 C284 0.949 . S
H261 C286 0.949 . S
H262 C287 0.950 . S
H263 C289 0.950 . S
H264 C290 0.950 . S
H265 C292 0.950 . S
H266 C295 0.950 . S
H267 C296 0.950 . S
H268 C298 0.951 . S
H269 C299 0.949 . S
C270 C271 1.376 . S
C270 C275 1.386 . S
C270 C276 1.483 . S
C271 H252 0.949 . S
C271 C270 1.376 . S
C271 C272 1.397 . S
C272 H253 0.950 . S
C272 C271 1.397 . S
C272 C273 1.391 . S
C273 C272 1.391 . S
C273 C274 1.405 . S
C274 H254 0.950 . S
C274 C273 1.405 . S
C274 C275 1.367 . S
C275 H255 0.950 . S
C275 C270 1.386 . S
C275 C274 1.367 . S
C276 C270 1.483 . S
C276 C277 1.382 . S
C276 C278 1.403 . S
C277 H256 0.950 . S
C277 C276 1.382 . S
C277 C293 1.411 . S
C278 C276 1.403 . S
C278 C279 1.489 . S
C278 C292 1.411 . S
C279 C278 1.489 . S
C279 C280 1.383 . S
C279 C284 1.382 . S
C280 H257 0.950 . S
C280 C279 1.383 . S
C280 C281 1.395 . S
C281 H258 0.950 . S
C281 C280 1.395 . S
C281 C282 1.288 . S
C282 C281 1.288 . S
C282 C283 1.392 . S
C283 H259 0.951 . S
C283 C282 1.392 . S
C283 C284 1.392 . S
C284 H260 0.949 . S
C284 C279 1.382 . S
C284 C283 1.392 . S
C285 C286 1.376 . S
C285 C290 1.386 . S
C285 C291 1.483 . S
C286 H261 0.949 . S
C286 C285 1.376 . S
C286 C287 1.397 . S
C287 H262 0.950 . S
C287 C286 1.397 . S
C287 C288 1.391 . S
C288 C287 1.391 . S
C288 C289 1.405 . S
C289 H263 0.950 . S
C289 C288 1.405 . S
C289 C290 1.367 . S
C290 H264 0.950 . S
C290 C285 1.386 . S
C290 C289 1.367 . S
C291 C285 1.483 . S
C291 C292 1.382 . S
C291 C293 1.403 . S
C292 H265 0.950 . S
C292 C278 1.411 . S
C292 C291 1.382 . S
C293 C277 1.411 . S
C293 C291 1.403 . S
C293 C294 1.489 . S
C294 C293 1.489 . S
C294 C295 1.383 . S
C294 C299 1.382 . S
C295 H266 0.950 . S
C295 C294 1.383 . S
C295 C296 1.395 . S
C296 H267 0.950 . S
C296 C295 1.395 . S
C296 C297 1.288 . S
C297 C296 1.288 . S
C297 C298 1.392 . S
C298 H268 0.951 . S
C298 C297 1.392 . S
C298 C299 1.392 . S
C299 H269 0.949 . S
C299 C294 1.382 . S
C299 C298 1.392 . S
H300 C319 0.949 . S
H301 C320 0.950 . S
H302 C322 0.950 . S
H303 C323 0.950 . S
H304 C325 0.950 . S
H305 C328 0.950 . S
H306 C329 0.950 . S
H307 C331 0.951 . S
H308 C332 0.949 . S
H309 C334 0.949 . S
H310 C335 0.950 . S
H311 C337 0.950 . S
H312 C338 0.950 . S
H313 C340 0.950 . S
H314 C343 0.950 . S
H315 C344 0.950 . S
H316 C346 0.951 . S
H317 C347 0.949 . S
C318 C319 1.376 . S
C318 C323 1.386 . S
C318 C324 1.483 . S
C319 H300 0.949 . S
C319 C318 1.376 . S
C319 C320 1.397 . S
C320 H301 0.950 . S
C320 C319 1.397 . S
C320 C321 1.391 . S
C321 C320 1.391 . S
C321 C322 1.405 . S
C322 H302 0.950 . S
C322 C321 1.405 . S
C322 C323 1.367 . S
C323 H303 0.950 . S
C323 C318 1.386 . S
C323 C322 1.367 . S
C324 C318 1.483 . S
C324 C325 1.382 . S
C324 C326 1.403 . S
C325 H304 0.950 . S
C325 C324 1.382 . S
C325 C341 1.411 . S
C326 C324 1.403 . S
C326 C327 1.489 . S
C326 C340 1.411 . S
C327 C326 1.489 . S
C327 C328 1.383 . S
C327 C332 1.382 . S
C328 H305 0.950 . S
C328 C327 1.383 . S
C328 C329 1.395 . S
C329 H306 0.950 . S
C329 C328 1.395 . S
C329 C330 1.288 . S
C330 C329 1.288 . S
C330 C331 1.392 . S
C331 H307 0.951 . S
C331 C330 1.392 . S
C331 C332 1.392 . S
C332 H308 0.949 . S
C332 C327 1.382 . S
C332 C331 1.392 . S
C333 C334 1.376 . S
C333 C338 1.386 . S
C333 C339 1.483 . S
C334 H309 0.949 . S
C334 C333 1.376 . S
C334 C335 1.397 . S
C335 H310 0.950 . S
C335 C334 1.397 . S
C335 C336 1.391 . S
C336 C335 1.391 . S
C336 C337 1.405 . S
C337 H311 0.950 . S
C337 C336 1.405 . S
C337 C338 1.367 . S
C338 H312 0.950 . S
C338 C333 1.386 . S
C338 C337 1.367 . S
C339 C333 1.483 . S
C339 C340 1.382 . S
C339 C341 1.403 . S
C340 H313 0.950 . S
C340 C326 1.411 . S
C340 C339 1.382 . S
C341 C325 1.411 . S
C341 C339 1.403 . S
C341 C342 1.489 . S
C342 C341 1.489 . S
C342 C343 1.383 . S
C342 C347 1.382 . S
C343 H314 0.950 . S
C343 C342 1.383 . S
C343 C344 1.395 . S
C344 H315 0.950 . S
C344 C343 1.395 . S
C344 C345 1.288 . S
C345 C344 1.288 . S
C345 C346 1.392 . S
C346 H316 0.951 . S
C346 C345 1.392 . S
C346 C347 1.392 . S
C347 H317 0.949 . S
C347 C342 1.382 . S
C347 C346 1.392 . S
H348 C367 0.949 . S
H349 C368 0.950 . S
H350 C370 0.950 . S
H351 C371 0.950 . S
H352 C373 0.950 . S
H353 C376 0.950 . S
H354 C377 0.950 . S
H355 C379 0.951 . S
H356 C380 0.949 . S
H357 C382 0.949 . S
H358 C383 0.950 . S
H359 C385 0.950 . S
H360 C386 0.950 . S
H361 C388 0.950 . S
H362 C391 0.950 . S
H363 C392 0.950 . S
H364 C394 0.951 . S
H365 C395 0.949 . S
C366 C367 1.376 . S
C366 C371 1.386 . S
C366 C372 1.483 . S
C367 H348 0.949 . S
C367 C366 1.376 . S
C367 C368 1.397 . S
C368 H349 0.950 . S
C368 C367 1.397 . S
C368 C369 1.391 . S
C369 C368 1.391 . S
C369 C370 1.405 . S
C370 H350 0.950 . S
C370 C369 1.405 . S
C370 C371 1.367 . S
C371 H351 0.950 . S
C371 C366 1.386 . S
C371 C370 1.367 . S
C372 C366 1.483 . S
C372 C373 1.382 . S
C372 C374 1.403 . S
C373 H352 0.950 . S
C373 C372 1.382 . S
C373 C389 1.411 . S
C374 C372 1.403 . S
C374 C375 1.489 . S
C374 C388 1.411 . S
C375 C374 1.489 . S
C375 C376 1.383 . S
C375 C380 1.382 . S
C376 H353 0.950 . S
C376 C375 1.383 . S
C376 C377 1.395 . S
C377 H354 0.950 . S
C377 C376 1.395 . S
C377 C378 1.288 . S
C378 C377 1.288 . S
C378 C379 1.392 . S
C379 H355 0.951 . S
C379 C378 1.392 . S
C379 C380 1.392 . S
C380 H356 0.949 . S
C380 C375 1.382 . S
C380 C379 1.392 . S
C381 C382 1.376 . S
C381 C386 1.386 . S
C381 C387 1.483 . S
C382 H357 0.949 . S
C382 C381 1.376 . S
C382 C383 1.397 . S
C383 H358 0.950 . S
C383 C382 1.397 . S
C383 C384 1.391 . S
C384 C383 1.391 . S
C384 C385 1.405 . S
C385 H359 0.950 . S
C385 C384 1.405 . S
C385 C386 1.367 . S
C386 H360 0.950 . S
C386 C381 1.386 . S
C386 C385 1.367 . S
C387 C381 1.483 . S
C387 C388 1.382 . S
C387 C389 1.403 . S
C388 H361 0.950 . S
C388 C374 1.411 . S
C388 C387 1.382 . S
C389 C373 1.411 . S
C389 C387 1.403 . S
C389 C390 1.489 . S
C390 C389 1.489 . S
C390 C391 1.383 . S
C390 C395 1.382 . S
C391 H362 0.950 . S
C391 C390 1.383 . S
C391 C392 1.395 . S
C392 H363 0.950 . S
C392 C391 1.395 . S
C392 C393 1.288 . S
C393 C392 1.288 . S
C393 C394 1.392 . S
C394 H364 0.951 . S
C394 C393 1.392 . S
C394 C395 1.392 . S
C395 H365 0.949 . S
C395 C390 1.382 . S
C395 C394 1.392 . S
H396 C415 0.949 . S
H397 C416 0.950 . S
H398 C418 0.950 . S
H399 C419 0.950 . S
H400 C421 0.950 . S
H401 C424 0.950 . S
H402 C425 0.950 . S
H403 C427 0.951 . S
H404 C428 0.949 . S
H405 C430 0.949 . S
H406 C431 0.950 . S
H407 C433 0.950 . S
H408 C434 0.950 . S
H409 C436 0.950 . S
H410 C439 0.950 . S
H411 C440 0.950 . S
H412 C442 0.951 . S
H413 C443 0.949 . S
C414 C415 1.376 . S
C414 C419 1.386 . S
C414 C420 1.483 . S
C415 H396 0.949 . S
C415 C414 1.376 . S
C415 C416 1.397 . S
C416 H397 0.950 . S
C416 C415 1.397 . S
C416 C417 1.391 . S
C417 C416 1.391 . S
C417 C418 1.405 . S
C418 H398 0.950 . S
C418 C417 1.405 . S
C418 C419 1.367 . S
C419 H399 0.950 . S
C419 C414 1.386 . S
C419 C418 1.367 . S
C420 C414 1.483 . S
C420 C421 1.382 . S
C420 C422 1.403 . S
C421 H400 0.950 . S
C421 C420 1.382 . S
C421 C437 1.411 . S
C422 C420 1.403 . S
C422 C423 1.489 . S
C422 C436 1.411 . S
C423 C422 1.489 . S
C423 C424 1.383 . S
C423 C428 1.382 . S
C424 H401 0.950 . S
C424 C423 1.383 . S
C424 C425 1.395 . S
C425 H402 0.950 . S
C425 C424 1.395 . S
C425 C426 1.288 . S
C426 C425 1.288 . S
C426 C427 1.392 . S
C427 H403 0.951 . S
C427 C426 1.392 . S
C427 C428 1.392 . S
C428 H404 0.949 . S
C428 C423 1.382 . S
C428 C427 1.392 . S
C429 C430 1.376 . S
C429 C434 1.386 . S
C429 C435 1.483 . S
C430 H405 0.949 . S
C430 C429 1.376 . S
C430 C431 1.397 . S
C431 H406 0.950 . S
C431 C430 1.397 . S
C431 C432 1.391 . S
C432 C431 1.391 . S
C432 C433 1.405 . S
C433 H407 0.950 . S
C433 C432 1.405 . S
C433 C434 1.367 . S
C434 H408 0.950 . S
C434 C429 1.386 . S
C434 C433 1.367 . S
C435 C429 1.483 . S
C435 C436 1.382 . S
C435 C437 1.403 . S
C436 H409 0.950 . S
C436 C422 1.411 . S
C436 C435 1.382 . S
C437 C421 1.411 . S
C437 C435 1.403 . S
C437 C438 1.489 . S
C438 C437 1.489 . S
C438 C439 1.383 . S
C438 C443 1.382 . S
C439 H410 0.950 . S
C439 C438 1.383 . S
C439 C440 1.395 . S
C440 H411 0.950 . S
C440 C439 1.395 . S
C440 C441 1.288 . S
C441 C440 1.288 . S
C441 C442 1.392 . S
C442 H412 0.951 . S
C442 C441 1.392 . S
C442 C443 1.392 . S
C443 H413 0.949 . S
C443 C438 1.382 . S
C443 C442 1.392 . S
H444 C463 0.949 . S
H445 C464 0.950 . S
H446 C466 0.950 . S
H447 C467 0.950 . S
H448 C469 0.950 . S
H449 C472 0.950 . S
H450 C473 0.950 . S
H451 C475 0.951 . S
H452 C476 0.949 . S
H453 C478 0.949 . S
H454 C479 0.950 . S
H455 C481 0.950 . S
H456 C482 0.950 . S
H457 C484 0.950 . S
H458 C487 0.950 . S
H459 C488 0.950 . S
H460 C490 0.951 . S
H461 C491 0.949 . S
C462 C463 1.376 . S
C462 C467 1.386 . S
C462 C468 1.483 . S
C463 H444 0.949 . S
C463 C462 1.376 . S
C463 C464 1.397 . S
C464 H445 0.950 . S
C464 C463 1.397 . S
C464 C465 1.391 . S
C465 C464 1.391 . S
C465 C466 1.405 . S
C466 H446 0.950 . S
C466 C465 1.405 . S
C466 C467 1.367 . S
C467 H447 0.950 . S
C467 C462 1.386 . S
C467 C466 1.367 . S
C468 C462 1.483 . S
C468 C469 1.382 . S
C468 C470 1.403 . S
C469 H448 0.950 . S
C469 C468 1.382 . S
C469 C485 1.411 . S
C470 C468 1.403 . S
C470 C471 1.489 . S
C470 C484 1.411 . S
C471 C470 1.489 . S
C471 C472 1.383 . S
C471 C476 1.382 . S
C472 H449 0.950 . S
C472 C471 1.383 . S
C472 C473 1.395 . S
C473 H450 0.950 . S
C473 C472 1.395 . S
C473 C474 1.288 . S
C474 C473 1.288 . S
C474 C475 1.392 . S
C475 H451 0.951 . S
C475 C474 1.392 . S
C475 C476 1.392 . S
C476 H452 0.949 . S
C476 C471 1.382 . S
C476 C475 1.392 . S
C477 C478 1.376 . S
C477 C482 1.386 . S
C477 C483 1.483 . S
C478 H453 0.949 . S
C478 C477 1.376 . S
C478 C479 1.397 . S
C479 H454 0.950 . S
C479 C478 1.397 . S
C479 C480 1.391 . S
C480 C479 1.391 . S
C480 C481 1.405 . S
C481 H455 0.950 . S
C481 C480 1.405 . S
C481 C482 1.367 . S
C482 H456 0.950 . S
C482 C477 1.386 . S
C482 C481 1.367 . S
C483 C477 1.483 . S
C483 C484 1.382 . S
C483 C485 1.403 . S
C484 H457 0.950 . S
C484 C470 1.411 . S
C484 C483 1.382 . S
C485 C469 1.411 . S
C485 C483 1.403 . S
C485 C486 1.489 . S
C486 C485 1.489 . S
C486 C487 1.383 . S
C486 C491 1.382 . S
C487 H458 0.950 . S
C487 C486 1.383 . S
C487 C488 1.395 . S
C488 H459 0.950 . S
C488 C487 1.395 . S
C488 C489 1.288 . S
C489 C488 1.288 . S
C489 C490 1.392 . S
C490 H460 0.951 . S
C490 C489 1.392 . S
C490 C491 1.392 . S
C491 H461 0.949 . S
C491 C486 1.382 . S
C491 C490 1.392 . S
H492 C511 0.949 . S
H493 C512 0.950 . S
H494 C514 0.950 . S
H495 C515 0.950 . S
H496 C517 0.950 . S
H497 C520 0.950 . S
H498 C521 0.950 . S
H499 C523 0.951 . S
H500 C524 0.949 . S
H501 C526 0.949 . S
H502 C527 0.950 . S
H503 C529 0.950 . S
H504 C530 0.950 . S
H505 C532 0.950 . S
H506 C535 0.950 . S
H507 C536 0.950 . S
H508 C538 0.951 . S
H509 C539 0.949 . S
C510 C511 1.376 . S
C510 C515 1.386 . S
C510 C516 1.483 . S
C511 H492 0.949 . S
C511 C510 1.376 . S
C511 C512 1.397 . S
C512 H493 0.950 . S
C512 C511 1.397 . S
C512 C513 1.391 . S
C513 C512 1.391 . S
C513 C514 1.405 . S
C514 H494 0.950 . S
C514 C513 1.405 . S
C514 C515 1.367 . S
C515 H495 0.950 . S
C515 C510 1.386 . S
C515 C514 1.367 . S
C516 C510 1.483 . S
C516 C517 1.382 . S
C516 C518 1.403 . S
C517 H496 0.950 . S
C517 C516 1.382 . S
C517 C533 1.411 . S
C518 C516 1.403 . S
C518 C519 1.489 . S
C518 C532 1.411 . S
C519 C518 1.489 . S
C519 C520 1.383 . S
C519 C524 1.382 . S
C520 H497 0.950 . S
C520 C519 1.383 . S
C520 C521 1.395 . S
C521 H498 0.950 . S
C521 C520 1.395 . S
C521 C522 1.288 . S
C522 C521 1.288 . S
C522 C523 1.392 . S
C523 H499 0.951 . S
C523 C522 1.392 . S
C523 C524 1.392 . S
C524 H500 0.949 . S
C524 C519 1.382 . S
C524 C523 1.392 . S
C525 C526 1.376 . S
C525 C530 1.386 . S
C525 C531 1.483 . S
C526 H501 0.949 . S
C526 C525 1.376 . S
C526 C527 1.397 . S
C527 H502 0.950 . S
C527 C526 1.397 . S
C527 C528 1.391 . S
C528 C527 1.391 . S
C528 C529 1.405 . S
C529 H503 0.950 . S
C529 C528 1.405 . S
C529 C530 1.367 . S
C530 H504 0.950 . S
C530 C525 1.386 . S
C530 C529 1.367 . S
C531 C525 1.483 . S
C531 C532 1.382 . S
C531 C533 1.403 . S
C532 H505 0.950 . S
C532 C518 1.411 . S
C532 C531 1.382 . S
C533 C517 1.411 . S
C533 C531 1.403 . S
C533 C534 1.489 . S
C534 C533 1.489 . S
C534 C535 1.383 . S
C534 C539 1.382 . S
C535 H506 0.950 . S
C535 C534 1.383 . S
C535 C536 1.395 . S
C536 H507 0.950 . S
C536 C535 1.395 . S
C536 C537 1.288 . S
C537 C536 1.288 . S
C537 C538 1.392 . S
C538 H508 0.951 . S
C538 C537 1.392 . S
C538 C539 1.392 . S
C539 H509 0.949 . S
C539 C534 1.382 . S
C539 C538 1.392 . S
H540 C559 0.949 . S
H541 C560 0.950 . S
H542 C562 0.950 . S
H543 C563 0.950 . S
H544 C565 0.950 . S
H545 C568 0.950 . S
H546 C569 0.950 . S
H547 C571 0.951 . S
H548 C572 0.949 . S
H549 C574 0.949 . S
H550 C575 0.950 . S
H551 C577 0.950 . S
H552 C578 0.950 . S
H553 C580 0.950 . S
H554 C583 0.950 . S
H555 C584 0.950 . S
H556 C586 0.951 . S
H557 C587 0.949 . S
C558 C559 1.376 . S
C558 C563 1.386 . S
C558 C564 1.483 . S
C559 H540 0.949 . S
C559 C558 1.376 . S
C559 C560 1.397 . S
C560 H541 0.950 . S
C560 C559 1.397 . S
C560 C561 1.391 . S
C561 C560 1.391 . S
C561 C562 1.405 . S
C562 H542 0.950 . S
C562 C561 1.405 . S
C562 C563 1.367 . S
C563 H543 0.950 . S
C563 C558 1.386 . S
C563 C562 1.367 . S
C564 C558 1.483 . S
C564 C565 1.382 . S
C564 C566 1.403 . S
C565 H544 0.950 . S
C565 C564 1.382 . S
C565 C581 1.411 . S
C566 C564 1.403 . S
C566 C567 1.489 . S
C566 C580 1.411 . S
C567 C566 1.489 . S
C567 C568 1.383 . S
C567 C572 1.382 . S
C568 H545 0.950 . S
C568 C567 1.383 . S
C568 C569 1.395 . S
C569 H546 0.950 . S
C569 C568 1.395 . S
C569 C570 1.288 . S
C570 C569 1.288 . S
C570 C571 1.392 . S
C571 H547 0.951 . S
C571 C570 1.392 . S
C571 C572 1.392 . S
C572 H548 0.949 . S
C572 C567 1.382 . S
C572 C571 1.392 . S
C573 C574 1.376 . S
C573 C578 1.386 . S
C573 C579 1.483 . S
C574 H549 0.949 . S
C574 C573 1.376 . S
C574 C575 1.397 . S
C575 H550 0.950 . S
C575 C574 1.397 . S
C575 C576 1.391 . S
C576 C575 1.391 . S
C576 C577 1.405 . S
C577 H551 0.950 . S
C577 C576 1.405 . S
C577 C578 1.367 . S
C578 H552 0.950 . S
C578 C573 1.386 . S
C578 C577 1.367 . S
C579 C573 1.483 . S
C579 C580 1.382 . S
C579 C581 1.403 . S
C580 H553 0.950 . S
C580 C566 1.411 . S
C580 C579 1.382 . S
C581 C565 1.411 . S
C581 C579 1.403 . S
C581 C582 1.489 . S
C582 C581 1.489 . S
C582 C583 1.383 . S
C582 C587 1.382 . S
C583 H554 0.950 . S
C583 C582 1.383 . S
C583 C584 1.395 . S
C584 H555 0.950 . S
C584 C583 1.395 . S
C584 C585 1.288 . S
C585 C584 1.288 . S
C585 C586 1.392 . S
C586 H556 0.951 . S
C586 C585 1.392 . S
C586 C587 1.392 . S
C587 H557 0.949 . S
C587 C582 1.382 . S
C587 C586 1.392 . S
H588 C607 0.949 . S
H589 C608 0.950 . S
H590 C610 0.950 . S
H591 C611 0.950 . S
H592 C613 0.950 . S
H593 C616 0.950 . S
H594 C617 0.950 . S
H595 C619 0.951 . S
H596 C620 0.949 . S
H597 C622 0.949 . S
H598 C623 0.950 . S
H599 C625 0.950 . S
H600 C626 0.950 . S
H601 C628 0.950 . S
H602 C631 0.950 . S
H603 C632 0.950 . S
H604 C634 0.951 . S
H605 C635 0.949 . S
C606 C607 1.376 . S
C606 C611 1.386 . S
C606 C612 1.483 . S
C607 H588 0.949 . S
C607 C606 1.376 . S
C607 C608 1.397 . S
C608 H589 0.950 . S
C608 C607 1.397 . S
C608 C609 1.391 . S
C609 C608 1.391 . S
C609 C610 1.405 . S
C610 H590 0.950 . S
C610 C609 1.405 . S
C610 C611 1.367 . S
C611 H591 0.950 . S
C611 C606 1.386 . S
C611 C610 1.367 . S
C612 C606 1.483 . S
C612 C613 1.382 . S
C612 C614 1.403 . S
C613 H592 0.950 . S
C613 C612 1.382 . S
C613 C629 1.411 . S
C614 C612 1.403 . S
C614 C615 1.489 . S
C614 C628 1.411 . S
C615 C614 1.489 . S
C615 C616 1.383 . S
C615 C620 1.382 . S
C616 H593 0.950 . S
C616 C615 1.383 . S
C616 C617 1.395 . S
C617 H594 0.950 . S
C617 C616 1.395 . S
C617 C618 1.288 . S
C618 C617 1.288 . S
C618 C619 1.392 . S
C619 H595 0.951 . S
C619 C618 1.392 . S
C619 C620 1.392 . S
C620 H596 0.949 . S
C620 C615 1.382 . S
C620 C619 1.392 . S
C621 C622 1.376 . S
C621 C626 1.386 . S
C621 C627 1.483 . S
C622 H597 0.949 . S
C622 C621 1.376 . S
C622 C623 1.397 . S
C623 H598 0.950 . S
C623 C622 1.397 . S
C623 C624 1.391 . S
C624 C623 1.391 . S
C624 C625 1.405 . S
C625 H599 0.950 . S
C625 C624 1.405 . S
C625 C626 1.367 . S
C626 H600 0.950 . S
C626 C621 1.386 . S
C626 C625 1.367 . S
C627 C621 1.483 . S
C627 C628 1.382 . S
C627 C629 1.403 . S
C628 H601 0.950 . S
C628 C614 1.411 . S
C628 C627 1.382 . S
C629 C613 1.411 . S
C629 C627 1.403 . S
C629 C630 1.489 . S
C630 C629 1.489 . S
C630 C631 1.383 . S
C630 C635 1.382 . S
C631 H602 0.950 . S
C631 C630 1.383 . S
C631 C632 1.395 . S
C632 H603 0.950 . S
C632 C631 1.395 . S
C632 C633 1.288 . S
C633 C632 1.288 . S
C633 C634 1.392 . S
C634 H604 0.951 . S
C634 C633 1.392 . S
C634 C635 1.392 . S
C635 H605 0.949 . S
C635 C630 1.382 . S
C635 C634 1.392 . S
H636 C655 0.949 . S
H637 C656 0.950 . S
H638 C658 0.950 . S
H639 C659 0.950 . S
H640 C661 0.950 . S
H641 C664 0.950 . S
H642 C665 0.950 . S
H643 C667 0.951 . S
H644 C668 0.949 . S
H645 C670 0.949 . S
H646 C671 0.950 . S
H647 C673 0.950 . S
H648 C674 0.950 . S
H649 C676 0.950 . S
H650 C679 0.950 . S
H651 C680 0.950 . S
H652 C682 0.951 . S
H653 C683 0.949 . S
C654 C655 1.376 . S
C654 C659 1.386 . S
C654 C660 1.483 . S
C655 H636 0.949 . S
C655 C654 1.376 . S
C655 C656 1.397 . S
C656 H637 0.950 . S
C656 C655 1.397 . S
C656 C657 1.391 . S
C657 C656 1.391 . S
C657 C658 1.405 . S
C658 H638 0.950 . S
C658 C657 1.405 . S
C658 C659 1.367 . S
C659 H639 0.950 . S
C659 C654 1.386 . S
C659 C658 1.367 . S
C660 C654 1.483 . S
C660 C661 1.382 . S
C660 C662 1.403 . S
C661 H640 0.950 . S
C661 C660 1.382 . S
C661 C677 1.411 . S
C662 C660 1.403 . S
C662 C663 1.489 . S
C662 C676 1.411 . S
C663 C662 1.489 . S
C663 C664 1.383 . S
C663 C668 1.382 . S
C664 H641 0.950 . S
C664 C663 1.383 . S
C664 C665 1.395 . S
C665 H642 0.950 . S
C665 C664 1.395 . S
C665 C666 1.288 . S
C666 C665 1.288 . S
C666 C667 1.392 . S
C667 H643 0.951 . S
C667 C666 1.392 . S
C667 C668 1.392 . S
C668 H644 0.949 . S
C668 C663 1.382 . S
C668 C667 1.392 . S
C669 C670 1.376 . S
C669 C674 1.386 . S
C669 C675 1.483 . S
C670 H645 0.949 . S
C670 C669 1.376 . S
C670 C671 1.397 . S
C671 H646 0.950 . S
C671 C670 1.397 . S
C671 C672 1.391 . S
C672 C671 1.391 . S
C672 C673 1.405 . S
C673 H647 0.950 . S
C673 C672 1.405 . S
C673 C674 1.367 . S
C674 H648 0.950 . S
C674 C669 1.386 . S
C674 C673 1.367 . S
C675 C669 1.483 . S
C675 C676 1.382 . S
C675 C677 1.403 . S
C676 H649 0.950 . S
C676 C662 1.411 . S
C676 C675 1.382 . S
C677 C661 1.411 . S
C677 C675 1.403 . S
C677 C678 1.489 . S
C678 C677 1.489 . S
C678 C679 1.383 . S
C678 C683 1.382 . S
C679 H650 0.950 . S
C679 C678 1.383 . S
C679 C680 1.395 . S
C680 H651 0.950 . S
C680 C679 1.395 . S
C680 C681 1.288 . S
C681 C680 1.288 . S
C681 C682 1.392 . S
C682 H652 0.951 . S
C682 C681 1.392 . S
C682 C683 1.392 . S
C683 H653 0.949 . S
C683 C678 1.382 . S
C683 C682 1.392 . S
H684 C703 0.949 . S
H685 C704 0.950 . S
H686 C706 0.950 . S
H687 C707 0.950 . S
H688 C709 0.950 . S
H689 C712 0.950 . S
H690 C713 0.950 . S
H691 C715 0.951 . S
H692 C716 0.949 . S
H693 C718 0.949 . S
H694 C719 0.950 . S
H695 C721 0.950 . S
H696 C722 0.950 . S
H697 C724 0.950 . S
H698 C727 0.950 . S
H699 C728 0.950 . S
H700 C730 0.951 . S
H701 C731 0.949 . S
C702 C703 1.376 . S
C702 C707 1.386 1_655 S
C702 C708 1.483 . S
C703 H684 0.949 . S
C703 C702 1.376 . S
C703 C704 1.397 . S
C704 H685 0.950 . S
C704 C703 1.397 . S
C704 C705 1.391 . S
C705 C704 1.391 . S
C705 C706 1.405 1_655 S
C706 H686 0.950 . S
C706 C705 1.405 1_455 S
C706 C707 1.367 . S
C707 H687 0.950 . S
C707 C702 1.386 1_455 S
C707 C706 1.367 . S
C708 C702 1.483 . S
C708 C709 1.382 . S
C708 C710 1.403 1_655 S
C709 H688 0.950 . S
C709 C708 1.382 . S
C709 C725 1.411 . S
C710 C708 1.403 1_455 S
C710 C711 1.489 . S
C710 C724 1.411 . S
C711 C710 1.489 . S
C711 C712 1.383 1_455 S
C711 C716 1.382 . S
C712 H689 0.950 . S
C712 C711 1.383 1_655 S
C712 C713 1.395 . S
C713 H690 0.950 . S
C713 C712 1.395 . S
C713 C714 1.288 1_655 S
C714 C713 1.288 1_455 S
C714 C715 1.392 . S
C715 H691 0.951 . S
C715 C714 1.392 . S
C715 C716 1.392 . S
C716 H692 0.949 . S
C716 C711 1.382 . S
C716 C715 1.392 . S
C717 C718 1.376 . S
C717 C722 1.386 1_455 S
C717 C723 1.483 . S
C718 H693 0.949 . S
C718 C717 1.376 . S
C718 C719 1.397 . S
C719 H694 0.950 . S
C719 C718 1.397 . S
C719 C720 1.391 . S
C720 C719 1.391 . S
C720 C721 1.405 1_455 S
C721 H695 0.950 . S
C721 C720 1.405 1_655 S
C721 C722 1.367 . S
C722 H696 0.950 . S
C722 C717 1.386 1_655 S
C722 C721 1.367 . S
C723 C717 1.483 . S
C723 C724 1.382 . S
C723 C725 1.403 1_455 S
C724 H697 0.950 . S
C724 C710 1.411 . S
C724 C723 1.382 . S
C725 C709 1.411 . S
C725 C723 1.403 1_655 S
C725 C726 1.489 . S
C726 C725 1.489 . S
C726 C727 1.383 1_655 S
C726 C731 1.382 . S
C727 H698 0.950 . S
C727 C726 1.383 1_455 S
C727 C728 1.395 . S
C728 H699 0.950 . S
C728 C727 1.395 . S
C728 C729 1.288 1_455 S
C729 C728 1.288 1_655 S
C729 C730 1.392 . S
C730 H700 0.951 . S
C730 C729 1.392 . S
C730 C731 1.392 . S
C731 H701 0.949 . S
C731 C726 1.382 . S
C731 C730 1.392 . S
H732 C751 0.949 . S
H733 C752 0.950 . S
H734 C754 0.950 . S
H735 C755 0.950 . S
H736 C757 0.950 . S
H737 C760 0.950 . S
H738 C761 0.950 . S
H739 C763 0.951 . S
H740 C764 0.949 . S
H741 C766 0.949 . S
H742 C767 0.950 . S
H743 C769 0.950 . S
H744 C770 0.950 . S
H745 C772 0.950 . S
H746 C775 0.950 . S
H747 C776 0.950 . S
H748 C778 0.951 . S
H749 C779 0.949 . S
C750 C751 1.376 . S
C750 C755 1.386 . S
C750 C756 1.483 . S
C751 H732 0.949 . S
C751 C750 1.376 . S
C751 C752 1.397 . S
C752 H733 0.950 . S
C752 C751 1.397 . S
C752 C753 1.391 . S
C753 C752 1.391 . S
C753 C754 1.405 . S
C754 H734 0.950 . S
C754 C753 1.405 . S
C754 C755 1.367 . S
C755 H735 0.950 . S
C755 C750 1.386 . S
C755 C754 1.367 . S
C756 C750 1.483 . S
C756 C757 1.382 . S
C756 C758 1.403 . S
C757 H736 0.950 . S
C757 C756 1.382 . S
C757 C773 1.411 . S
C758 C756 1.403 . S
C758 C759 1.489 . S
C758 C772 1.411 . S
C759 C758 1.489 . S
C759 C760 1.383 . S
C759 C764 1.382 . S
C760 H737 0.950 . S
C760 C759 1.383 . S
C760 C761 1.395 . S
C761 H738 0.950 . S
C761 C760 1.395 . S
C761 C762 1.288 . S
C762 C761 1.288 . S
C762 C763 1.392 . S
C763 H739 0.951 . S
C763 C762 1.392 . S
C763 C764 1.392 . S
C764 H740 0.949 . S
C764 C759 1.382 . S
C764 C763 1.392 . S
C765 C766 1.376 . S
C765 C770 1.386 . S
C765 C771 1.483 . S
C766 H741 0.949 . S
C766 C765 1.376 . S
C766 C767 1.397 . S
C767 H742 0.950 . S
C767 C766 1.397 . S
C767 C768 1.391 . S
C768 C767 1.391 . S
C768 C769 1.405 . S
C769 H743 0.950 . S
C769 C768 1.405 . S
C769 C770 1.367 . S
C770 H744 0.950 . S
C770 C765 1.386 . S
C770 C769 1.367 . S
C771 C765 1.483 . S
C771 C772 1.382 . S
C771 C773 1.403 . S
C772 H745 0.950 . S
C772 C758 1.411 . S
C772 C771 1.382 . S
C773 C757 1.411 . S
C773 C771 1.403 . S
C773 C774 1.489 . S
C774 C773 1.489 . S
C774 C775 1.383 . S
C774 C779 1.382 . S
C775 H746 0.950 . S
C775 C774 1.383 . S
C775 C776 1.395 . S
C776 H747 0.950 . S
C776 C775 1.395 . S
C776 C777 1.288 . S
C777 C776 1.288 . S
C777 C778 1.392 . S
C778 H748 0.951 . S
C778 C777 1.392 . S
C778 C779 1.392 . S
C779 H749 0.949 . S
C779 C774 1.382 . S
C779 C778 1.392 . S
H780 C799 0.949 . S
H781 C800 0.950 . S
H782 C802 0.950 . S
H783 C803 0.950 . S
H784 C805 0.950 . S
H785 C808 0.950 . S
H786 C809 0.950 . S
H787 C811 0.951 . S
H788 C812 0.949 . S
H789 C814 0.949 . S
H790 C815 0.950 . S
H791 C817 0.950 . S
H792 C818 0.950 . S
H793 C820 0.950 . S
H794 C823 0.950 . S
H795 C824 0.950 . S
H796 C826 0.951 . S
H797 C827 0.949 . S
C798 C799 1.376 . S
C798 C803 1.386 1_545 S
C798 C804 1.483 . S
C799 H780 0.949 . S
C799 C798 1.376 . S
C799 C800 1.397 . S
C800 H781 0.950 . S
C800 C799 1.397 . S
C800 C801 1.391 . S
C801 C800 1.391 . S
C801 C802 1.405 1_545 S
C802 H782 0.950 . S
C802 C801 1.405 1_565 S
C802 C803 1.367 . S
C803 H783 0.950 . S
C803 C798 1.386 1_565 S
C803 C802 1.367 . S
C804 C798 1.483 . S
C804 C805 1.382 . S
C804 C806 1.403 1_545 S
C805 H784 0.950 . S
C805 C804 1.382 . S
C805 C821 1.411 . S
C806 C804 1.403 1_565 S
C806 C807 1.489 . S
C806 C820 1.411 . S
C807 C806 1.489 . S
C807 C808 1.383 1_565 S
C807 C812 1.382 . S
C808 H785 0.950 . S
C808 C807 1.383 1_545 S
C808 C809 1.395 . S
C809 H786 0.950 . S
C809 C808 1.395 . S
C809 C810 1.288 1_545 S
C810 C809 1.288 1_565 S
C810 C811 1.392 . S
C811 H787 0.951 . S
C811 C810 1.392 . S
C811 C812 1.392 . S
C812 H788 0.949 . S
C812 C807 1.382 . S
C812 C811 1.392 . S
C813 C814 1.376 . S
C813 C818 1.386 1_565 S
C813 C819 1.483 . S
C814 H789 0.949 . S
C814 C813 1.376 . S
C814 C815 1.397 . S
C815 H790 0.950 . S
C815 C814 1.397 . S
C815 C816 1.391 . S
C816 C815 1.391 . S
C816 C817 1.405 1_565 S
C817 H791 0.950 . S
C817 C816 1.405 1_545 S
C817 C818 1.367 . S
C818 H792 0.950 . S
C818 C813 1.386 1_545 S
C818 C817 1.367 . S
C819 C813 1.483 . S
C819 C820 1.382 . S
C819 C821 1.403 1_565 S
C820 H793 0.950 . S
C820 C806 1.411 . S
C820 C819 1.382 . S
C821 C805 1.411 . S
C821 C819 1.403 1_545 S
C821 C822 1.489 . S
C822 C821 1.489 . S
C822 C823 1.383 1_545 S
C822 C827 1.382 . S
C823 H794 0.950 . S
C823 C822 1.383 1_565 S
C823 C824 1.395 . S
C824 H795 0.950 . S
C824 C823 1.395 . S
C824 C825 1.288 1_565 S
C825 C824 1.288 1_545 S
C825 C826 1.392 . S
C826 H796 0.951 . S
C826 C825 1.392 . S
C826 C827 1.392 . S
C827 H797 0.949 . S
C827 C822 1.382 . S
C827 C826 1.392 . S
H828 C847 0.949 . S
H829 C848 0.950 . S
H830 C850 0.950 . S
H831 C851 0.950 . S
H832 C853 0.950 . S
H833 C856 0.950 . S
H834 C857 0.950 . S
H835 C859 0.951 . S
H836 C860 0.949 . S
H837 C862 0.949 . S
H838 C863 0.950 . S
H839 C865 0.950 . S
H840 C866 0.950 . S
H841 C868 0.950 . S
H842 C871 0.950 . S
H843 C872 0.950 . S
H844 C874 0.951 . S
H845 C875 0.949 . S
C846 C847 1.391 . S
C846 C851 1.379 1_545 S
C846 C852 1.475 . S
C847 H828 0.949 . S
C847 C846 1.391 . S
C847 C848 1.397 . S
C848 H829 0.950 . S
C848 C847 1.397 . S
C848 C849 1.391 1_545 S
C849 C848 1.391 1_565 S
C849 C850 1.405 . S
C850 H830 0.950 . S
C850 C849 1.405 . S
C850 C851 1.367 . S
C851 H831 0.950 . S
C851 C846 1.379 1_565 S
C851 C850 1.367 . S
C852 C846 1.475 . S
C852 C853 1.382 . S
C852 C854 1.400 1_545 S
C853 H832 0.950 . S
C853 C852 1.382 . S
C853 C869 1.411 . S
C854 C852 1.400 1_565 S
C854 C855 1.483 . S
C854 C868 1.436 . S
C855 C854 1.483 . S
C855 C856 1.349 1_565 S
C855 C860 1.400 . S
C856 H833 0.950 . S
C856 C855 1.349 1_545 S
C856 C857 1.395 . S
C857 H834 0.950 . S
C857 C856 1.395 . S
C857 C858 1.288 . S
C858 C857 1.288 . S
C858 C859 1.392 1_545 S
C859 H835 0.951 . S
C859 C858 1.392 1_565 S
C859 C860 1.392 . S
C860 H836 0.949 . S
C860 C855 1.400 . S
C860 C859 1.392 . S
C861 C862 1.380 . S
C861 C866 1.384 1_565 S
C861 C867 1.503 . S
C862 H837 0.949 . S
C862 C861 1.380 . S
C862 C863 1.397 . S
C863 H838 0.950 . S
C863 C862 1.397 . S
C863 C864 1.391 1_565 S
C864 C863 1.391 1_545 S
C864 C865 1.405 . S
C865 H839 0.950 . S
C865 C864 1.405 . S
C865 C866 1.367 . S
C866 H840 0.950 . S
C866 C861 1.384 1_545 S
C866 C865 1.367 . S
C867 C861 1.503 . S
C867 C868 1.361 . S
C867 C869 1.400 1_565 S
C868 H841 0.950 . S
C868 C854 1.436 . S
C868 C867 1.361 . S
C869 C853 1.411 . S
C869 C867 1.400 1_545 S
C869 C870 1.511 . S
C870 C869 1.511 . S
C870 C871 1.336 1_545 S
C870 C875 1.407 . S
C871 H842 0.950 . S
C871 C870 1.336 1_565 S
C871 C872 1.395 . S
C872 H843 0.950 . S
C872 C871 1.395 . S
C872 C873 1.288 . S
C873 C872 1.288 . S
C873 C874 1.392 1_565 S
C874 H844 0.951 . S
C874 C873 1.392 1_545 S
C874 C875 1.392 . S
C875 H845 0.949 . S
C875 C870 1.407 . S
C875 C874 1.392 . S
H876 C895 0.949 . S
H877 C896 0.950 . S
H878 C898 0.950 . S
H879 C899 0.950 . S
H880 C901 0.950 . S
H881 C904 0.950 . S
H882 C905 0.950 . S
H883 C907 0.951 . S
H884 C908 0.949 . S
H885 C910 0.949 . S
H886 C911 0.950 . S
H887 C913 0.950 . S
H888 C914 0.950 . S
H889 C916 0.950 . S
H890 C919 0.950 . S
H891 C920 0.950 . S
H892 C922 0.951 . S
H893 C923 0.949 . S
C894 C895 1.376 . S
C894 C899 1.386 1_455 S
C894 C900 1.483 . S
C895 H876 0.949 . S
C895 C894 1.376 . S
C895 C896 1.397 . S
C896 H877 0.950 . S
C896 C895 1.397 . S
C896 C897 1.391 . S
C897 C896 1.391 . S
C897 C898 1.405 1_455 S
C898 H878 0.950 . S
C898 C897 1.405 1_655 S
C898 C899 1.367 . S
C899 H879 0.950 . S
C899 C894 1.386 1_655 S
C899 C898 1.367 . S
C900 C894 1.483 . S
C900 C901 1.382 . S
C900 C902 1.403 1_455 S
C901 H880 0.950 . S
C901 C900 1.382 . S
C901 C917 1.411 . S
C902 C900 1.403 1_655 S
C902 C903 1.489 . S
C902 C916 1.411 . S
C903 C902 1.489 . S
C903 C904 1.383 1_655 S
C903 C908 1.382 . S
C904 H881 0.950 . S
C904 C903 1.383 1_455 S
C904 C905 1.395 . S
C905 H882 0.950 . S
C905 C904 1.395 . S
C905 C906 1.288 1_455 S
C906 C905 1.288 1_655 S
C906 C907 1.392 . S
C907 H883 0.951 . S
C907 C906 1.392 . S
C907 C908 1.392 . S
C908 H884 0.949 . S
C908 C903 1.382 . S
C908 C907 1.392 . S
C909 C910 1.376 . S
C909 C914 1.386 1_655 S
C909 C915 1.483 . S
C910 H885 0.949 . S
C910 C909 1.376 . S
C910 C911 1.397 . S
C911 H886 0.950 . S
C911 C910 1.397 . S
C911 C912 1.391 . S
C912 C911 1.391 . S
C912 C913 1.405 1_655 S
C913 H887 0.950 . S
C913 C912 1.405 1_455 S
C913 C914 1.367 . S
C914 H888 0.950 . S
C914 C909 1.386 1_455 S
C914 C913 1.367 . S
C915 C909 1.483 . S
C915 C916 1.382 . S
C915 C917 1.403 1_655 S
C916 H889 0.950 . S
C916 C902 1.411 . S
C916 C915 1.382 . S
C917 C901 1.411 . S
C917 C915 1.403 1_455 S
C917 C918 1.489 . S
C918 C917 1.489 . S
C918 C919 1.383 1_455 S
C918 C923 1.382 . S
C919 H890 0.950 . S
C919 C918 1.383 1_655 S
C919 C920 1.395 . S
C920 H891 0.950 . S
C920 C919 1.395 . S
C920 C921 1.288 1_655 S
C921 C920 1.288 1_455 S
C921 C922 1.392 . S
C922 H892 0.951 . S
C922 C921 1.392 . S
C922 C923 1.392 . S
C923 H893 0.949 . S
C923 C918 1.382 . S
C923 C922 1.392 . S
H924 C943 0.949 . S
H925 C944 0.950 . S
H926 C946 0.950 . S
H927 C947 0.950 . S
H928 C949 0.950 . S
H929 C952 0.950 . S
H930 C953 0.950 . S
H931 C955 0.951 . S
H932 C956 0.949 . S
H933 C958 0.949 . S
H934 C959 0.950 . S
H935 C961 0.950 . S
H936 C962 0.950 . S
H937 C964 0.950 . S
H938 C967 0.950 . S
H939 C968 0.950 . S
H940 C970 0.951 . S
H941 C971 0.949 . S
C942 C943 1.376 . S
C942 C947 1.386 . S
C942 C948 1.483 . S
C943 H924 0.949 . S
C943 C942 1.376 . S
C943 C944 1.397 . S
C944 H925 0.950 . S
C944 C943 1.397 . S
C944 C945 1.391 . S
C945 C944 1.391 . S
C945 C946 1.405 . S
C946 H926 0.950 . S
C946 C945 1.405 . S
C946 C947 1.367 . S
C947 H927 0.950 . S
C947 C942 1.386 . S
C947 C946 1.367 . S
C948 C942 1.483 . S
C948 C949 1.382 . S
C948 C950 1.403 . S
C949 H928 0.950 . S
C949 C948 1.382 . S
C949 C965 1.411 . S
C950 C948 1.403 . S
C950 C951 1.489 . S
C950 C964 1.411 . S
C951 C950 1.489 . S
C951 C952 1.383 . S
C951 C956 1.382 . S
C952 H929 0.950 . S
C952 C951 1.383 . S
C952 C953 1.395 . S
C953 H930 0.950 . S
C953 C952 1.395 . S
C953 C954 1.288 . S
C954 C953 1.288 . S
C954 C955 1.392 . S
C955 H931 0.951 . S
C955 C954 1.392 . S
C955 C956 1.392 . S
C956 H932 0.949 . S
C956 C951 1.382 . S
C956 C955 1.392 . S
C957 C958 1.376 . S
C957 C962 1.386 . S
C957 C963 1.483 . S
C958 H933 0.949 . S
C958 C957 1.376 . S
C958 C959 1.397 . S
C959 H934 0.950 . S
C959 C958 1.397 . S
C959 C960 1.391 . S
C960 C959 1.391 . S
C960 C961 1.405 . S
C961 H935 0.950 . S
C961 C960 1.405 . S
C961 C962 1.367 . S
C962 H936 0.950 . S
C962 C957 1.386 . S
C962 C961 1.367 . S
C963 C957 1.483 . S
C963 C964 1.382 . S
C963 C965 1.403 . S
C964 H937 0.950 . S
C964 C950 1.411 . S
C964 C963 1.382 . S
C965 C949 1.411 . S
C965 C963 1.403 . S
C965 C966 1.489 . S
C966 C965 1.489 . S
C966 C967 1.383 . S
C966 C971 1.382 . S
C967 H938 0.950 . S
C967 C966 1.383 . S
C967 C968 1.395 . S
C968 H939 0.950 . S
C968 C967 1.395 . S
C968 C969 1.288 . S
C969 C968 1.288 . S
C969 C970 1.392 . S
C970 H940 0.951 . S
C970 C969 1.392 . S
C970 C971 1.392 . S
C971 H941 0.949 . S
C971 C966 1.382 . S
C971 C970 1.392 . S
H972 C991 0.949 . S
H973 C992 0.950 . S
H974 C994 0.950 . S
H975 C995 0.950 . S
H976 C997 0.950 . S
H977 C1000 0.950 . S
H978 C1001 0.950 . S
H979 C1003 0.951 . S
H980 C1004 0.949 . S
H981 C1006 0.949 . S
H982 C1007 0.950 . S
H983 C1009 0.950 . S
H984 C1010 0.950 . S
H985 C1012 0.950 . S
H986 C1015 0.950 . S
H987 C1016 0.950 . S
H988 C1018 0.951 . S
H989 C1019 0.949 . S
C990 C991 1.376 . S
C990 C995 1.386 . S
C990 C996 1.483 . S
C991 H972 0.949 . S
C991 C990 1.376 . S
C991 C992 1.397 . S
C992 H973 0.950 . S
C992 C991 1.397 . S
C992 C993 1.391 . S
C993 C992 1.391 . S
C993 C994 1.405 . S
C994 H974 0.950 . S
C994 C993 1.405 . S
C994 C995 1.367 . S
C995 H975 0.950 . S
C995 C990 1.386 . S
C995 C994 1.367 . S
C996 C990 1.483 . S
C996 C997 1.382 . S
C996 C998 1.403 . S
C997 H976 0.950 . S
C997 C996 1.382 . S
C997 C1013 1.411 . S
C998 C996 1.403 . S
C998 C999 1.489 . S
C998 C1012 1.411 . S
C999 C998 1.489 . S
C999 C1000 1.383 . S
C999 C1004 1.382 . S
C1000 H977 0.950 . S
C1000 C999 1.383 . S
C1000 C1001 1.395 . S
C1001 H978 0.950 . S
C1001 C1000 1.395 . S
C1001 C1002 1.288 . S
C1002 C1001 1.288 . S
C1002 C1003 1.392 . S
C1003 H979 0.951 . S
C1003 C1002 1.392 . S
C1003 C1004 1.392 . S
C1004 H980 0.949 . S
C1004 C999 1.382 . S
C1004 C1003 1.392 . S
C1005 C1006 1.376 . S
C1005 C1010 1.386 . S
C1005 C1011 1.483 . S
C1006 H981 0.949 . S
C1006 C1005 1.376 . S
C1006 C1007 1.397 . S
C1007 H982 0.950 . S
C1007 C1006 1.397 . S
C1007 C1008 1.391 . S
C1008 C1007 1.391 . S
C1008 C1009 1.405 . S
C1009 H983 0.950 . S
C1009 C1008 1.405 . S
C1009 C1010 1.367 . S
C1010 H984 0.950 . S
C1010 C1005 1.386 . S
C1010 C1009 1.367 . S
C1011 C1005 1.483 . S
C1011 C1012 1.382 . S
C1011 C1013 1.403 . S
C1012 H985 0.950 . S
C1012 C998 1.411 . S
C1012 C1011 1.382 . S
C1013 C997 1.411 . S
C1013 C1011 1.403 . S
C1013 C1014 1.489 . S
C1014 C1013 1.489 . S
C1014 C1015 1.383 . S
C1014 C1019 1.382 . S
C1015 H986 0.950 . S
C1015 C1014 1.383 . S
C1015 C1016 1.395 . S
C1016 H987 0.950 . S
C1016 C1015 1.395 . S
C1016 C1017 1.288 . S
C1017 C1016 1.288 . S
C1017 C1018 1.392 . S
C1018 H988 0.951 . S
C1018 C1017 1.392 . S
C1018 C1019 1.392 . S
C1019 H989 0.949 . S
C1019 C1014 1.382 . S
C1019 C1018 1.392 . S
H1020 C1039 0.949 . S
H1021 C1040 0.950 . S
H1022 C1042 0.950 . S
H1023 C1043 0.950 . S
H1024 C1045 0.950 . S
H1025 C1048 0.950 . S
H1026 C1049 0.950 . S
H1027 C1051 0.951 . S
H1028 C1052 0.949 . S
H1029 C1054 0.949 . S
H1030 C1055 0.950 . S
H1031 C1057 0.950 . S
H1032 C1058 0.950 . S
H1033 C1060 0.950 . S
H1034 C1063 0.950 . S
H1035 C1064 0.950 . S
H1036 C1066 0.951 . S
H1037 C1067 0.949 . S
C1038 C1039 1.376 . S
C1038 C1043 1.386 . S
C1038 C1044 1.483 . S
C1039 H1020 0.949 . S
C1039 C1038 1.376 . S
C1039 C1040 1.397 . S
C1040 H1021 0.950 . S
C1040 C1039 1.397 . S
C1040 C1041 1.391 . S
C1041 C1040 1.391 . S
C1041 C1042 1.405 . S
C1042 H1022 0.950 . S
C1042 C1041 1.405 . S
C1042 C1043 1.367 . S
C1043 H1023 0.950 . S
C1043 C1038 1.386 . S
C1043 C1042 1.367 . S
C1044 C1038 1.483 . S
C1044 C1045 1.382 . S
C1044 C1046 1.403 . S
C1045 H1024 0.950 . S
C1045 C1044 1.382 . S
C1045 C1061 1.411 . S
C1046 C1044 1.403 . S
C1046 C1047 1.489 . S
C1046 C1060 1.411 . S
C1047 C1046 1.489 . S
C1047 C1048 1.383 . S
C1047 C1052 1.382 . S
C1048 H1025 0.950 . S
C1048 C1047 1.383 . S
C1048 C1049 1.395 . S
C1049 H1026 0.950 . S
C1049 C1048 1.395 . S
C1049 C1050 1.288 . S
C1050 C1049 1.288 . S
C1050 C1051 1.392 . S
C1051 H1027 0.951 . S
C1051 C1050 1.392 . S
C1051 C1052 1.392 . S
C1052 H1028 0.949 . S
C1052 C1047 1.382 . S
C1052 C1051 1.392 . S
C1053 C1054 1.376 . S
C1053 C1058 1.386 . S
C1053 C1059 1.483 . S
C1054 H1029 0.949 . S
C1054 C1053 1.376 . S
C1054 C1055 1.397 . S
C1055 H1030 0.950 . S
C1055 C1054 1.397 . S
C1055 C1056 1.391 . S
C1056 C1055 1.391 . S
C1056 C1057 1.405 . S
C1057 H1031 0.950 . S
C1057 C1056 1.405 . S
C1057 C1058 1.367 . S
C1058 H1032 0.950 . S
C1058 C1053 1.386 . S
C1058 C1057 1.367 . S
C1059 C1053 1.483 . S
C1059 C1060 1.382 . S
C1059 C1061 1.403 . S
C1060 H1033 0.950 . S
C1060 C1046 1.411 . S
C1060 C1059 1.382 . S
C1061 C1045 1.411 . S
C1061 C1059 1.403 . S
C1061 C1062 1.489 . S
C1062 C1061 1.489 . S
C1062 C1063 1.383 . S
C1062 C1067 1.382 . S
C1063 H1034 0.950 . S
C1063 C1062 1.383 . S
C1063 C1064 1.395 . S
C1064 H1035 0.950 . S
C1064 C1063 1.395 . S
C1064 C1065 1.288 . S
C1065 C1064 1.288 . S
C1065 C1066 1.392 . S
C1066 H1036 0.951 . S
C1066 C1065 1.392 . S
C1066 C1067 1.392 . S
C1067 H1037 0.949 . S
C1067 C1062 1.382 . S
C1067 C1066 1.392 . S
H1068 C1087 0.949 . S
H1069 C1088 0.950 . S
H1070 C1090 0.950 . S
H1071 C1091 0.950 . S
H1072 C1093 0.950 . S
H1073 C1096 0.950 . S
H1074 C1097 0.950 . S
H1075 C1099 0.951 . S
H1076 C1100 0.949 . S
H1077 C1102 0.949 . S
H1078 C1103 0.950 . S
H1079 C1105 0.950 . S
H1080 C1106 0.950 . S
H1081 C1108 0.950 . S
H1082 C1111 0.950 . S
H1083 C1112 0.950 . S
H1084 C1114 0.951 . S
H1085 C1115 0.949 . S
C1086 C1087 1.376 . S
C1086 C1091 1.386 . S
C1086 C1092 1.483 . S
C1087 H1068 0.949 . S
C1087 C1086 1.376 . S
C1087 C1088 1.397 . S
C1088 H1069 0.950 . S
C1088 C1087 1.397 . S
C1088 C1089 1.391 . S
C1089 C1088 1.391 . S
C1089 C1090 1.405 . S
C1090 H1070 0.950 . S
C1090 C1089 1.405 . S
C1090 C1091 1.367 . S
C1091 H1071 0.950 . S
C1091 C1086 1.386 . S
C1091 C1090 1.367 . S
C1092 C1086 1.483 . S
C1092 C1093 1.382 . S
C1092 C1094 1.403 . S
C1093 H1072 0.950 . S
C1093 C1092 1.382 . S
C1093 C1109 1.411 . S
C1094 C1092 1.403 . S
C1094 C1095 1.489 . S
C1094 C1108 1.411 . S
C1095 C1094 1.489 . S
C1095 C1096 1.383 . S
C1095 C1100 1.382 . S
C1096 H1073 0.950 . S
C1096 C1095 1.383 . S
C1096 C1097 1.395 . S
C1097 H1074 0.950 . S
C1097 C1096 1.395 . S
C1097 C1098 1.288 . S
C1098 C1097 1.288 . S
C1098 C1099 1.392 . S
C1099 H1075 0.951 . S
C1099 C1098 1.392 . S
C1099 C1100 1.392 . S
C1100 H1076 0.949 . S
C1100 C1095 1.382 . S
C1100 C1099 1.392 . S
C1101 C1102 1.376 . S
C1101 C1106 1.386 . S
C1101 C1107 1.483 . S
C1102 H1077 0.949 . S
C1102 C1101 1.376 . S
C1102 C1103 1.397 . S
C1103 H1078 0.950 . S
C1103 C1102 1.397 . S
C1103 C1104 1.391 . S
C1104 C1103 1.391 . S
C1104 C1105 1.405 . S
C1105 H1079 0.950 . S
C1105 C1104 1.405 . S
C1105 C1106 1.367 . S
C1106 H1080 0.950 . S
C1106 C1101 1.386 . S
C1106 C1105 1.367 . S
C1107 C1101 1.483 . S
C1107 C1108 1.382 . S
C1107 C1109 1.403 . S
C1108 H1081 0.950 . S
C1108 C1094 1.411 . S
C1108 C1107 1.382 . S
C1109 C1093 1.411 . S
C1109 C1107 1.403 . S
C1109 C1110 1.489 . S
C1110 C1109 1.489 . S
C1110 C1111 1.383 . S
C1110 C1115 1.382 . S
C1111 H1082 0.950 . S
C1111 C1110 1.383 . S
C1111 C1112 1.395 . S
C1112 H1083 0.950 . S
C1112 C1111 1.395 . S
C1112 C1113 1.288 . S
C1113 C1112 1.288 . S
C1113 C1114 1.392 . S
C1114 H1084 0.951 . S
C1114 C1113 1.392 . S
C1114 C1115 1.392 . S
C1115 H1085 0.949 . S
C1115 C1110 1.382 . S
C1115 C1114 1.392 . S
C1116 C1117 1.387 . S
C1116 H1120 0.950 . S
C1116 C1125 1.390 . S
C1117 C1116 1.387 . S
C1117 C1119 1.387 1_655 S
H1118 C1125 0.950 . S
C1119 C1117 1.387 1_455 S
C1119 C1121 1.390 . S
C1119 H1123 0.950 . S
H1120 C1116 0.950 . S
C1121 C1119 1.390 . S
C1121 C1122 1.387 1_455 S
C1121 H1124 0.950 . S
C1122 C1121 1.387 1_655 S
C1122 C1125 1.387 . S
H1123 C1119 0.950 . S
H1124 C1121 0.950 . S
C1125 C1116 1.390 . S
C1125 H1118 0.950 . S
C1125 C1122 1.387 . S
C1126 C1127 1.387 . S
C1126 H1130 0.950 . S
C1126 C1135 1.390 . S
C1127 C1126 1.387 . S
C1127 C1129 1.387 . S
H1128 C1135 0.950 . S
C1129 C1127 1.387 . S
C1129 C1131 1.390 . S
C1129 H1133 0.950 . S
H1130 C1126 0.950 . S
C1131 C1129 1.390 . S
C1131 C1132 1.387 . S
C1131 H1134 0.950 . S
C1132 C1131 1.387 . S
C1132 C1135 1.387 . S
H1133 C1129 0.950 . S
H1134 C1131 0.950 . S
C1135 C1126 1.390 . S
C1135 H1128 0.950 . S
C1135 C1132 1.387 . S
C1136 C1137 1.387 1_565 S
C1136 H1140 0.950 . S
C1136 C1145 1.390 . S
C1137 C1136 1.387 1_545 S
C1137 C1139 1.387 . S
H1138 C1145 0.950 . S
C1139 C1137 1.387 . S
C1139 C1141 1.390 . S
C1139 H1143 0.950 . S
H1140 C1136 0.950 . S
C1141 C1139 1.390 . S
C1141 C1142 1.387 . S
C1141 H1144 0.950 . S
C1142 C1141 1.387 . S
C1142 C1145 1.387 1_545 S
H1143 C1139 0.950 . S
H1144 C1141 0.950 . S
C1145 C1136 1.390 . S
C1145 H1138 0.950 . S
C1145 C1142 1.387 1_565 S
C1146 C1147 1.387 1_545 S
C1146 H1150 0.950 . S
C1146 C1155 1.390 . S
C1147 C1146 1.387 1_565 S
C1147 C1149 1.387 . S
H1148 C1155 0.950 . S
C1149 C1147 1.387 . S
C1149 C1151 1.390 . S
C1149 H1153 0.950 . S
H1150 C1146 0.950 . S
C1151 C1149 1.390 . S
C1151 C1152 1.387 . S
C1151 H1154 0.950 . S
C1152 C1151 1.387 . S
C1152 C1155 1.387 1_565 S
H1153 C1149 0.950 . S
H1154 C1151 0.950 . S
C1155 C1146 1.390 . S
C1155 H1148 0.950 . S
C1155 C1152 1.387 1_545 S
C1156 C1157 1.386 1_655 S
C1156 H1160 0.947 . S
C1156 C1165 1.394 . S
C1157 C1156 1.386 1_455 S
C1157 C1159 1.387 . S
H1158 C1165 0.950 . S
C1159 C1157 1.387 . S
C1159 C1161 1.390 . S
C1159 H1163 0.950 . S
H1160 C1156 0.947 . S
C1161 C1159 1.390 . S
C1161 C1162 1.387 . S
C1161 H1164 0.950 . S
C1162 C1161 1.387 . S
C1162 C1165 1.387 1_455 S
H1163 C1159 0.950 . S
H1164 C1161 0.950 . S
C1165 C1156 1.394 . S
C1165 H1158 0.950 . S
C1165 C1162 1.387 1_655 S
C1166 C1167 1.387 . S
C1166 H1170 0.950 . S
C1166 C1175 1.390 . S
C1167 C1166 1.387 . S
C1167 C1169 1.387 . S
H1168 C1175 0.950 . S
C1169 C1167 1.387 . S
C1169 C1171 1.390 . S
C1169 H1173 0.950 . S
H1170 C1166 0.950 . S
C1171 C1169 1.390 . S
C1171 C1172 1.387 . S
C1171 H1174 0.950 . S
C1172 C1171 1.387 . S
C1172 C1175 1.387 . S
H1173 C1169 0.950 . S
H1174 C1171 0.950 . S
C1175 C1166 1.390 . S
C1175 H1168 0.950 . S
C1175 C1172 1.387 . S
C1176 C1177 1.387 . S
C1176 H1180 0.950 . S
C1176 C1185 1.390 . S
C1177 C1176 1.387 . S
C1177 C1179 1.387 1_455 S
H1178 C1185 0.950 . S
C1179 C1177 1.387 1_655 S
C1179 C1181 1.390 . S
C1179 H1183 0.950 . S
H1180 C1176 0.950 . S
C1181 C1179 1.390 . S
C1181 C1182 1.387 1_655 S
C1181 H1184 0.950 . S
C1182 C1181 1.387 1_455 S
C1182 C1185 1.387 . S
H1183 C1179 0.950 . S
H1184 C1181 0.950 . S
C1185 C1176 1.390 . S
C1185 H1178 0.950 . S
C1185 C1182 1.387 . S
C1186 C1187 1.387 . S
C1186 H1190 0.950 . S
C1186 C1195 1.390 . S
C1187 C1186 1.387 . S
C1187 C1189 1.387 . S
H1188 C1195 0.950 . S
C1189 C1187 1.387 . S
C1189 C1191 1.390 . S
C1189 H1193 0.950 . S
H1190 C1186 0.950 . S
C1191 C1189 1.390 . S
C1191 C1192 1.387 . S
C1191 H1194 0.950 . S
C1192 C1191 1.387 . S
C1192 C1195 1.387 . S
H1193 C1189 0.950 . S
H1194 C1191 0.950 . S
C1195 C1186 1.390 . S
C1195 H1188 0.950 . S
C1195 C1192 1.387 . S
C1196 C1197 1.387 1_545 S
C1196 H1200 0.950 . S
C1196 C1205 1.390 . S
C1197 C1196 1.387 1_565 S
C1197 C1199 1.387 . S
H1198 C1205 0.950 . S
C1199 C1197 1.387 . S
C1199 C1201 1.390 . S
C1199 H1203 0.950 . S
H1200 C1196 0.950 . S
C1201 C1199 1.390 . S
C1201 C1202 1.387 . S
C1201 H1204 0.950 . S
C1202 C1201 1.387 . S
C1202 C1205 1.387 1_565 S
H1203 C1199 0.950 . S
H1204 C1201 0.950 . S
C1205 C1196 1.390 . S
C1205 H1198 0.950 . S
C1205 C1202 1.387 1_545 S
C1206 C1207 1.387 . S
C1206 H1210 0.950 . S
C1206 C1215 1.390 . S
C1207 C1206 1.387 . S
C1207 C1209 1.387 1_545 S
H1208 C1215 0.950 . S
C1209 C1207 1.387 1_565 S
C1209 C1211 1.390 . S
C1209 H1213 0.950 . S
H1210 C1206 0.950 . S
C1211 C1209 1.390 . S
C1211 C1212 1.387 1_565 S
C1211 H1214 0.950 . S
C1212 C1211 1.387 1_545 S
C1212 C1215 1.387 . S
H1213 C1209 0.950 . S
H1214 C1211 0.950 . S
C1215 C1206 1.390 . S
C1215 H1208 0.950 . S
C1215 C1212 1.387 . S
C1216 C1217 1.387 1_455 S
C1216 H1220 0.950 . S
C1216 C1225 1.390 . S
C1217 C1216 1.387 1_655 S
C1217 C1219 1.387 . S
H1218 C1225 0.950 . S
C1219 C1217 1.387 . S
C1219 C1221 1.390 . S
C1219 H1223 0.950 . S
H1220 C1216 0.950 . S
C1221 C1219 1.390 . S
C1221 C1222 1.387 . S
C1221 H1224 0.950 . S
C1222 C1221 1.387 . S
C1222 C1225 1.387 1_655 S
H1223 C1219 0.950 . S
H1224 C1221 0.950 . S
C1225 C1216 1.390 . S
C1225 H1218 0.950 . S
C1225 C1222 1.387 1_455 S
C1226 C1227 1.387 . S
C1226 H1230 0.950 . S
C1226 C1235 1.390 . S
C1227 C1226 1.387 . S
C1227 C1229 1.387 . S
H1228 C1235 0.950 . S
C1229 C1227 1.387 . S
C1229 C1231 1.390 . S
C1229 H1233 0.950 . S
H1230 C1226 0.950 . S
C1231 C1229 1.390 . S
C1231 C1232 1.387 . S
C1231 H1234 0.950 . S
C1232 C1231 1.387 . S
C1232 C1235 1.387 . S
H1233 C1229 0.950 . S
H1234 C1231 0.950 . S
C1235 C1226 1.390 . S
C1235 H1228 0.950 . S
C1235 C1232 1.387 . S
C1236 C1237 1.387 . S
C1236 H1240 0.950 . S
C1236 C1245 1.390 . S
C1237 C1236 1.387 . S
C1237 C1239 1.387 . S
H1238 C1245 0.950 . S
C1239 C1237 1.387 . S
C1239 C1241 1.390 . S
C1239 H1243 0.950 . S
H1240 C1236 0.950 . S
C1241 C1239 1.390 . S
C1241 C1242 1.387 . S
C1241 H1244 0.950 . S
C1242 C1241 1.387 . S
C1242 C1245 1.387 . S
H1243 C1239 0.950 . S
H1244 C1241 0.950 . S
C1245 C1236 1.390 . S
C1245 H1238 0.950 . S
C1245 C1242 1.387 . S
C1246 C1247 1.387 . S
C1246 H1250 0.950 . S
C1246 C1255 1.390 . S
C1247 C1246 1.387 . S
C1247 C1249 1.387 . S
H1248 C1255 0.950 . S
C1249 C1247 1.387 . S
C1249 C1251 1.390 . S
C1249 H1253 0.950 . S
H1250 C1246 0.950 . S
C1251 C1249 1.390 . S
C1251 C1252 1.387 . S
C1251 H1254 0.950 . S
C1252 C1251 1.387 . S
C1252 C1255 1.387 . S
H1253 C1249 0.950 . S
H1254 C1251 0.950 . S
C1255 C1246 1.390 . S
C1255 H1248 0.950 . S
C1255 C1252 1.387 . S
C1256 C1257 1.387 . S
C1256 H1260 0.950 . S
C1256 C1265 1.390 . S
C1257 C1256 1.387 . S
C1257 C1259 1.387 . S
H1258 C1265 0.950 . S
C1259 C1257 1.387 . S
C1259 C1261 1.390 . S
C1259 H1263 0.950 . S
H1260 C1256 0.950 . S
C1261 C1259 1.390 . S
C1261 C1262 1.387 . S
C1261 H1264 0.950 . S
C1262 C1261 1.387 . S
C1262 C1265 1.387 . S
H1263 C1259 0.950 . S
H1264 C1261 0.950 . S
C1265 C1256 1.390 . S
C1265 H1258 0.950 . S
C1265 C1262 1.387 . S
C1266 C1267 1.387 . S
C1266 H1270 0.950 . S
C1266 C1275 1.390 . S
C1267 C1266 1.387 . S
C1267 C1269 1.387 . S
H1268 C1275 0.950 . S
C1269 C1267 1.387 . S
C1269 C1271 1.390 . S
C1269 H1273 0.950 . S
H1270 C1266 0.950 . S
C1271 C1269 1.390 . S
C1271 C1272 1.387 . S
C1271 H1274 0.950 . S
C1272 C1271 1.387 . S
C1272 C1275 1.387 . S
H1273 C1269 0.950 . S
H1274 C1271 0.950 . S
C1275 C1266 1.390 . S
C1275 H1268 0.950 . S
C1275 C1272 1.387 . S
C1276 C1277 1.387 . S
C1276 H1280 0.950 . S
C1276 C1285 1.390 . S
C1277 C1276 1.387 . S
C1277 C1279 1.387 . S
H1278 C1285 0.950 . S
C1279 C1277 1.387 . S
C1279 C1281 1.390 . S
C1279 H1283 0.950 . S
H1280 C1276 0.950 . S
C1281 C1279 1.390 . S
C1281 C1282 1.387 . S
C1281 H1284 0.950 . S
C1282 C1281 1.387 . S
C1282 C1285 1.387 . S
H1283 C1279 0.950 . S
H1284 C1281 0.950 . S
C1285 C1276 1.390 . S
C1285 H1278 0.950 . S
C1285 C1282 1.387 . S
C1286 C1287 1.387 . S
C1286 H1290 0.950 . S
C1286 C1295 1.390 . S
C1287 C1286 1.387 . S
C1287 C1289 1.387 . S
H1288 C1295 0.950 . S
C1289 C1287 1.387 . S
C1289 C1291 1.390 . S
C1289 H1293 0.950 . S
H1290 C1286 0.950 . S
C1291 C1289 1.390 . S
C1291 C1292 1.387 . S
C1291 H1294 0.950 . S
C1292 C1291 1.387 . S
C1292 C1295 1.387 . S
H1293 C1289 0.950 . S
H1294 C1291 0.950 . S
C1295 C1286 1.390 . S
C1295 H1288 0.950 . S
C1295 C1292 1.387 . S
C1296 C1297 1.387 . S
C1296 H1300 0.950 . S
C1296 C1305 1.390 . S
C1297 C1296 1.387 . S
C1297 C1299 1.387 . S
H1298 C1305 0.950 . S
C1299 C1297 1.387 . S
C1299 C1301 1.390 . S
C1299 H1303 0.950 . S
H1300 C1296 0.950 . S
C1301 C1299 1.390 . S
C1301 C1302 1.387 . S
C1301 H1304 0.950 . S
C1302 C1301 1.387 . S
C1302 C1305 1.387 . S
H1303 C1299 0.950 . S
H1304 C1301 0.950 . S
C1305 C1296 1.390 . S
C1305 H1298 0.950 . S
C1305 C1302 1.387 . S
C1306 C1307 1.387 . S
C1306 H1310 0.950 . S
C1306 C1315 1.390 . S
C1307 C1306 1.387 . S
C1307 C1309 1.387 . S
H1308 C1315 0.950 . S
C1309 C1307 1.387 . S
C1309 C1311 1.390 . S
C1309 H1313 0.950 . S
H1310 C1306 0.950 . S
C1311 C1309 1.390 . S
C1311 C1312 1.387 . S
C1311 H1314 0.950 . S
C1312 C1311 1.387 . S
C1312 C1315 1.387 . S
H1313 C1309 0.950 . S
H1314 C1311 0.950 . S
C1315 C1306 1.390 . S
C1315 H1308 0.950 . S
C1315 C1312 1.387 . S
C1316 C1317 1.387 . S
C1316 H1320 0.950 . S
C1316 C1325 1.390 . S
C1317 C1316 1.387 . S
C1317 C1319 1.387 . S
H1318 C1325 0.950 . S
C1319 C1317 1.387 . S
C1319 C1321 1.390 . S
C1319 H1323 0.950 . S
H1320 C1316 0.950 . S
C1321 C1319 1.390 . S
C1321 C1322 1.387 . S
C1321 H1324 0.950 . S
C1322 C1321 1.387 . S
C1322 C1325 1.387 . S
H1323 C1319 0.950 . S
H1324 C1321 0.950 . S
C1325 C1316 1.390 . S
C1325 H1318 0.950 . S
C1325 C1322 1.387 . S
C1326 C1327 1.387 . S
C1326 H1330 0.950 . S
C1326 C1335 1.390 . S
C1327 C1326 1.387 . S
C1327 C1329 1.387 . S
H1328 C1335 0.950 . S
C1329 C1327 1.387 . S
C1329 C1331 1.390 . S
C1329 H1333 0.950 . S
H1330 C1326 0.950 . S
C1331 C1329 1.390 . S
C1331 C1332 1.387 . S
C1331 H1334 0.950 . S
C1332 C1331 1.387 . S
C1332 C1335 1.387 . S
H1333 C1329 0.950 . S
H1334 C1331 0.950 . S
C1335 C1326 1.390 . S
C1335 H1328 0.950 . S
C1335 C1332 1.387 . S
C1336 C1337 1.387 . S
C1336 H1340 0.950 . S
C1336 C1345 1.390 . S
C1337 C1336 1.387 . S
C1337 C1339 1.387 . S
H1338 C1345 0.950 . S
C1339 C1337 1.387 . S
C1339 C1341 1.390 . S
C1339 H1343 0.950 . S
H1340 C1336 0.950 . S
C1341 C1339 1.390 . S
C1341 C1342 1.387 . S
C1341 H1344 0.950 . S
C1342 C1341 1.387 . S
C1342 C1345 1.387 . S
H1343 C1339 0.950 . S
H1344 C1341 0.950 . S
C1345 C1336 1.390 . S
C1345 H1338 0.950 . S
C1345 C1342 1.387 . S
C1346 C1347 1.387 . S
C1346 H1350 0.950 . S
C1346 C1355 1.390 . S
C1347 C1346 1.387 . S
C1347 C1349 1.387 . S
H1348 C1355 0.950 . S
C1349 C1347 1.387 . S
C1349 C1351 1.390 . S
C1349 H1353 0.950 . S
H1350 C1346 0.950 . S
C1351 C1349 1.390 . S
C1351 C1352 1.387 . S
C1351 H1354 0.950 . S
C1352 C1351 1.387 . S
C1352 C1355 1.387 . S
H1353 C1349 0.950 . S
H1354 C1351 0.950 . S
C1355 C1346 1.390 . S
C1355 H1348 0.950 . S
C1355 C1352 1.387 . S
C1356 C1357 1.387 . S
C1356 H1360 0.950 . S
C1356 C1365 1.390 . S
C1357 C1356 1.387 . S
C1357 C1359 1.387 . S
H1358 C1365 0.950 . S
C1359 C1357 1.387 . S
C1359 C1361 1.390 . S
C1359 H1363 0.950 . S
H1360 C1356 0.950 . S
C1361 C1359 1.390 . S
C1361 C1362 1.387 . S
C1361 H1364 0.950 . S
C1362 C1361 1.387 . S
C1362 C1365 1.387 . S
H1363 C1359 0.950 . S
H1364 C1361 0.950 . S
C1365 C1356 1.390 . S
C1365 H1358 0.950 . S
C1365 C1362 1.387 . S
C1366 C1367 1.387 . S
C1366 H1370 0.950 . S
C1366 C1375 1.390 . S
C1367 C1366 1.387 . S
C1367 C1369 1.387 . S
H1368 C1375 0.950 . S
C1369 C1367 1.387 . S
C1369 C1371 1.390 . S
C1369 H1373 0.950 . S
H1370 C1366 0.950 . S
C1371 C1369 1.390 . S
C1371 C1372 1.387 . S
C1371 H1374 0.950 . S
C1372 C1371 1.387 . S
C1372 C1375 1.387 . S
H1373 C1369 0.950 . S
H1374 C1371 0.950 . S
C1375 C1366 1.390 . S
C1375 H1368 0.950 . S
C1375 C1372 1.387 . S
C1376 C1377 1.387 . S
C1376 H1380 0.950 . S
C1376 C1385 1.390 . S
C1377 C1376 1.387 . S
C1377 C1379 1.387 . S
H1378 C1385 0.950 . S
C1379 C1377 1.387 . S
C1379 C1381 1.390 . S
C1379 H1383 0.950 . S
H1380 C1376 0.950 . S
C1381 C1379 1.390 . S
C1381 C1382 1.387 . S
C1381 H1384 0.950 . S
C1382 C1381 1.387 . S
C1382 C1385 1.387 . S
H1383 C1379 0.950 . S
H1384 C1381 0.950 . S
C1385 C1376 1.390 . S
C1385 H1378 0.950 . S
C1385 C1382 1.387 . S
C1386 C1387 1.387 . S
C1386 H1390 0.950 . S
C1386 C1395 1.390 . S
C1387 C1386 1.387 . S
C1387 C1389 1.387 . S
H1388 C1395 0.950 . S
C1389 C1387 1.387 . S
C1389 C1391 1.390 . S
C1389 H1393 0.950 . S
H1390 C1386 0.950 . S
C1391 C1389 1.390 . S
C1391 C1392 1.387 . S
C1391 H1394 0.950 . S
C1392 C1391 1.387 . S
C1392 C1395 1.387 . S
H1393 C1389 0.950 . S
H1394 C1391 0.950 . S
C1395 C1386 1.390 . S
C1395 H1388 0.950 . S
C1395 C1392 1.387 . S
C1396 C1397 1.387 . S
C1396 H1400 0.950 . S
C1396 C1405 1.390 . S
C1397 C1396 1.387 . S
C1397 C1399 1.387 . S
H1398 C1405 0.950 . S
C1399 C1397 1.387 . S
C1399 C1401 1.390 . S
C1399 H1403 0.950 . S
H1400 C1396 0.950 . S
C1401 C1399 1.390 . S
C1401 C1402 1.387 . S
C1401 H1404 0.950 . S
C1402 C1401 1.387 . S
C1402 C1405 1.387 . S
H1403 C1399 0.950 . S
H1404 C1401 0.950 . S
C1405 C1396 1.390 . S
C1405 H1398 0.950 . S
C1405 C1402 1.387 . S
C1406 C1407 1.387 . S
C1406 H1410 0.950 . S
C1406 C1415 1.390 . S
C1407 C1406 1.387 . S
C1407 C1409 1.387 . S
H1408 C1415 0.950 . S
C1409 C1407 1.387 . S
C1409 C1411 1.390 . S
C1409 H1413 0.950 . S
H1410 C1406 0.950 . S
C1411 C1409 1.390 . S
C1411 C1412 1.387 . S
C1411 H1414 0.950 . S
C1412 C1411 1.387 . S
C1412 C1415 1.387 . S
H1413 C1409 0.950 . S
H1414 C1411 0.950 . S
C1415 C1406 1.390 . S
C1415 H1408 0.950 . S
C1415 C1412 1.387 . S
C1416 C1417 1.387 . S
C1416 H1420 0.950 . S
C1416 C1425 1.390 . S
C1417 C1416 1.387 . S
C1417 C1419 1.387 . S
H1418 C1425 0.950 . S
C1419 C1417 1.387 . S
C1419 C1421 1.390 . S
C1419 H1423 0.950 . S
H1420 C1416 0.950 . S
C1421 C1419 1.390 . S
C1421 C1422 1.387 . S
C1421 H1424 0.950 . S
C1422 C1421 1.387 . S
C1422 C1425 1.387 . S
H1423 C1419 0.950 . S
H1424 C1421 0.950 . S
C1425 C1416 1.390 . S
C1425 H1418 0.950 . S
C1425 C1422 1.387 . S
C1426 C1427 1.387 . S
C1426 H1430 0.950 . S
C1426 C1435 1.390 . S
C1427 C1426 1.387 . S
C1427 C1429 1.387 . S
H1428 C1435 0.950 . S
C1429 C1427 1.387 . S
C1429 C1431 1.390 . S
C1429 H1433 0.950 . S
H1430 C1426 0.950 . S
C1431 C1429 1.390 . S
C1431 C1432 1.387 . S
C1431 H1434 0.950 . S
C1432 C1431 1.387 . S
C1432 C1435 1.387 . S
H1433 C1429 0.950 . S
H1434 C1431 0.950 . S
C1435 C1426 1.390 . S
C1435 H1428 0.950 . S
C1435 C1432 1.387 . S
C1436 C1437 1.387 . S
C1436 H1440 0.950 . S
C1436 C1445 1.390 . S
C1437 C1436 1.387 . S
C1437 C1439 1.387 . S
H1438 C1445 0.950 . S
C1439 C1437 1.387 . S
C1439 C1441 1.390 . S
C1439 H1443 0.950 . S
H1440 C1436 0.950 . S
C1441 C1439 1.390 . S
C1441 C1442 1.387 . S
C1441 H1444 0.950 . S
C1442 C1441 1.387 . S
C1442 C1445 1.387 . S
H1443 C1439 0.950 . S
H1444 C1441 0.950 . S
C1445 C1436 1.390 . S
C1445 H1438 0.950 . S
C1445 C1442 1.387 . S
C1446 C1447 1.387 . S
C1446 H1450 0.950 . S
C1446 C1455 1.390 . S
C1447 C1446 1.387 . S
C1447 C1449 1.387 . S
H1448 C1455 0.950 . S
C1449 C1447 1.387 . S
C1449 C1451 1.390 . S
C1449 H1453 0.950 . S
H1450 C1446 0.950 . S
C1451 C1449 1.390 . S
C1451 C1452 1.387 . S
C1451 H1454 0.950 . S
C1452 C1451 1.387 . S
C1452 C1455 1.387 . S
H1453 C1449 0.950 . S
H1454 C1451 0.950 . S
C1455 C1446 1.390 . S
C1455 H1448 0.950 . S
C1455 C1452 1.387 . S
C1456 C1457 1.387 . S
C1456 H1460 0.950 . S
C1456 C1465 1.390 . S
C1457 C1456 1.387 . S
C1457 C1459 1.387 . S
H1458 C1465 0.950 . S
C1459 C1457 1.387 . S
C1459 C1461 1.390 . S
C1459 H1463 0.950 . S
H1460 C1456 0.950 . S
C1461 C1459 1.390 . S
C1461 C1462 1.387 . S
C1461 H1464 0.950 . S
C1462 C1461 1.387 . S
C1462 C1465 1.387 . S
H1463 C1459 0.950 . S
H1464 C1461 0.950 . S
C1465 C1456 1.390 . S
C1465 H1458 0.950 . S
C1465 C1462 1.387 . S
C1466 C1467 1.387 . S
C1466 H1470 0.950 . S
C1466 C1475 1.390 . S
C1467 C1466 1.387 . S
C1467 C1469 1.387 . S
H1468 C1475 0.950 . S
C1469 C1467 1.387 . S
C1469 C1471 1.390 . S
C1469 H1473 0.950 . S
H1470 C1466 0.950 . S
C1471 C1469 1.390 . S
C1471 C1472 1.387 . S
C1471 H1474 0.950 . S
C1472 C1471 1.387 . S
C1472 C1475 1.387 . S
H1473 C1469 0.950 . S
H1474 C1471 0.950 . S
C1475 C1466 1.390 . S
C1475 H1468 0.950 . S
C1475 C1472 1.387 . S
C1476 C1477 1.387 . S
C1476 H1480 0.950 . S
C1476 C1485 1.390 . S
C1477 C1476 1.387 . S
C1477 C1479 1.387 . S
H1478 C1485 0.950 . S
C1479 C1477 1.387 . S
C1479 C1481 1.390 . S
C1479 H1483 0.950 . S
H1480 C1476 0.950 . S
C1481 C1479 1.390 . S
C1481 C1482 1.387 . S
C1481 H1484 0.950 . S
C1482 C1481 1.387 . S
C1482 C1485 1.387 . S
H1483 C1479 0.950 . S
H1484 C1481 0.950 . S
C1485 C1476 1.390 . S
C1485 H1478 0.950 . S
C1485 C1482 1.387 . S
C1486 C1487 1.387 . S
C1486 H1490 0.950 . S
C1486 C1495 1.390 . S
C1487 C1486 1.387 . S
C1487 C1489 1.387 . S
H1488 C1495 0.950 . S
C1489 C1487 1.387 . S
C1489 C1491 1.390 . S
C1489 H1493 0.950 . S
H1490 C1486 0.950 . S
C1491 C1489 1.390 . S
C1491 C1492 1.387 . S
C1491 H1494 0.950 . S
C1492 C1491 1.387 . S
C1492 C1495 1.387 . S
H1493 C1489 0.950 . S
H1494 C1491 0.950 . S
C1495 C1486 1.390 . S
C1495 H1488 0.950 . S
C1495 C1492 1.387 . S
C1496 C1497 1.387 . S
C1496 H1500 0.950 . S
C1496 C1505 1.390 . S
C1497 C1496 1.387 . S
C1497 C1499 1.387 . S
H1498 C1505 0.950 . S
C1499 C1497 1.387 . S
C1499 C1501 1.390 . S
C1499 H1503 0.950 . S
H1500 C1496 0.950 . S
C1501 C1499 1.390 . S
C1501 C1502 1.387 . S
C1501 H1504 0.950 . S
C1502 C1501 1.387 . S
C1502 C1505 1.387 . S
H1503 C1499 0.950 . S
H1504 C1501 0.950 . S
C1505 C1496 1.390 . S
C1505 H1498 0.950 . S
C1505 C1502 1.387 . S
C1506 C1507 1.387 . S
C1506 H1510 0.950 . S
C1506 C1515 1.390 . S
C1507 C1506 1.387 . S
C1507 C1509 1.387 . S
H1508 C1515 0.950 . S
C1509 C1507 1.387 . S
C1509 C1511 1.390 . S
C1509 H1513 0.950 . S
H1510 C1506 0.950 . S
C1511 C1509 1.390 . S
C1511 C1512 1.387 . S
C1511 H1514 0.950 . S
C1512 C1511 1.387 . S
C1512 C1515 1.387 . S
H1513 C1509 0.950 . S
H1514 C1511 0.950 . S
C1515 C1506 1.390 . S
C1515 H1508 0.950 . S
C1515 C1512 1.387 . S
C1516 C1517 1.387 . S
C1516 H1520 0.950 . S
C1516 C1525 1.390 . S
C1517 C1516 1.387 . S
C1517 C1519 1.387 . S
H1518 C1525 0.950 . S
C1519 C1517 1.387 . S
C1519 C1521 1.390 . S
C1519 H1523 0.950 . S
H1520 C1516 0.950 . S
C1521 C1519 1.390 . S
C1521 C1522 1.387 . S
C1521 H1524 0.950 . S
C1522 C1521 1.387 . S
C1522 C1525 1.387 . S
H1523 C1519 0.950 . S
H1524 C1521 0.950 . S
C1525 C1516 1.390 . S
C1525 H1518 0.950 . S
C1525 C1522 1.387 . S
C1526 C1527 1.387 . S
C1526 H1530 0.950 . S
C1526 C1535 1.390 . S
C1527 C1526 1.387 . S
C1527 C1529 1.387 . S
H1528 C1535 0.950 . S
C1529 C1527 1.387 . S
C1529 C1531 1.390 . S
C1529 H1533 0.950 . S
H1530 C1526 0.950 . S
C1531 C1529 1.390 . S
C1531 C1532 1.387 . S
C1531 H1534 0.950 . S
C1532 C1531 1.387 . S
C1532 C1535 1.387 . S
H1533 C1529 0.950 . S
H1534 C1531 0.950 . S
C1535 C1526 1.390 . S
C1535 H1528 0.950 . S
C1535 C1532 1.387 . S
C1536 C1537 1.387 . S
C1536 H1540 0.950 . S
C1536 C1545 1.390 . S
C1537 C1536 1.387 . S
C1537 C1539 1.387 . S
H1538 C1545 0.950 . S
C1539 C1537 1.387 . S
C1539 C1541 1.390 . S
C1539 H1543 0.950 . S
H1540 C1536 0.950 . S
C1541 C1539 1.390 . S
C1541 C1542 1.387 . S
C1541 H1544 0.950 . S
C1542 C1541 1.387 . S
C1542 C1545 1.387 . S
H1543 C1539 0.950 . S
H1544 C1541 0.950 . S
C1545 C1536 1.390 . S
C1545 H1538 0.950 . S
C1545 C1542 1.387 . S
C1546 C1547 1.387 . S
C1546 H1550 0.950 . S
C1546 C1555 1.390 . S
C1547 C1546 1.387 . S
C1547 C1549 1.387 . S
H1548 C1555 0.950 . S
C1549 C1547 1.387 . S
C1549 C1551 1.390 . S
C1549 H1553 0.950 1_556 S
H1550 C1546 0.950 . S
C1551 C1549 1.390 . S
C1551 C1552 1.387 . S
C1551 H1554 0.950 . S
C1552 C1551 1.387 . S
C1552 C1555 1.387 . S
H1553 C1549 0.950 1_554 S
H1554 C1551 0.950 . S
C1555 C1546 1.390 . S
C1555 H1548 0.950 . S
C1555 C1552 1.387 . S
C1556 C1557 1.387 . S
C1556 H1560 0.950 . S
C1556 C1565 1.390 . S
C1557 C1556 1.387 . S
C1557 C1559 1.387 . S
H1558 C1565 0.950 . S
C1559 C1557 1.387 . S
C1559 C1561 1.390 . S
C1559 H1563 0.950 1_556 S
H1560 C1556 0.950 . S
C1561 C1559 1.390 . S
C1561 C1562 1.387 . S
C1561 H1564 0.950 . S
C1562 C1561 1.387 . S
C1562 C1565 1.387 . S
H1563 C1559 0.950 1_554 S
H1564 C1561 0.950 . S
C1565 C1556 1.390 . S
C1565 H1558 0.950 . S
C1565 C1562 1.387 . S
C1566 C1567 1.387 . S
C1566 H1570 0.950 . S
C1566 C1575 1.390 . S
C1567 C1566 1.387 . S
C1567 C1569 1.387 . S
H1568 C1575 0.950 . S
C1569 C1567 1.387 . S
C1569 C1571 1.390 . S
C1569 H1573 0.950 . S
H1570 C1566 0.950 . S
C1571 C1569 1.390 . S
C1571 C1572 1.387 . S
C1571 H1574 0.950 . S
C1572 C1571 1.387 . S
C1572 C1575 1.387 . S
H1573 C1569 0.950 . S
H1574 C1571 0.950 . S
C1575 C1566 1.390 . S
C1575 H1568 0.950 . S
C1575 C1572 1.387 . S
C1576 C1577 1.387 . S
C1576 H1580 0.950 . S
C1576 C1585 1.390 . S
C1577 C1576 1.387 . S
C1577 C1579 1.387 . S
H1578 C1585 0.950 . S
C1579 C1577 1.387 . S
C1579 C1581 1.390 . S
C1579 H1583 0.950 . S
H1580 C1576 0.950 . S
C1581 C1579 1.390 . S
C1581 C1582 1.387 . S
C1581 H1584 0.950 . S
C1582 C1581 1.387 . S
C1582 C1585 1.387 . S
H1583 C1579 0.950 . S
H1584 C1581 0.950 . S
C1585 C1576 1.390 . S
C1585 H1578 0.950 . S
C1585 C1582 1.387 . S
C1586 C1587 1.387 . S
C1586 H1590 0.950 . S
C1586 C1595 1.390 . S
C1587 C1586 1.387 . S
C1587 C1589 1.387 . S
H1588 C1595 0.950 . S
C1589 C1587 1.387 . S
C1589 C1591 1.390 . S
C1589 H1593 0.950 . S
H1590 C1586 0.950 . S
C1591 C1589 1.390 . S
C1591 C1592 1.387 . S
C1591 H1594 0.950 . S
C1592 C1591 1.387 . S
C1592 C1595 1.387 . S
H1593 C1589 0.950 . S
H1594 C1591 0.950 . S
C1595 C1586 1.390 . S
C1595 H1588 0.950 . S
C1595 C1592 1.387 . S
C1596 C1597 1.387 . S
C1596 H1600 0.950 . S
C1596 C1605 1.390 . S
C1597 C1596 1.387 . S
C1597 C1599 1.387 . S
H1598 C1605 0.950 . S
C1599 C1597 1.387 . S
C1599 C1601 1.390 . S
C1599 H1603 0.950 . S
H1600 C1596 0.950 . S
C1601 C1599 1.390 . S
C1601 C1602 1.387 . S
C1601 H1604 0.950 . S
C1602 C1601 1.387 . S
C1602 C1605 1.387 . S
H1603 C1599 0.950 . S
H1604 C1601 0.950 . S
C1605 C1596 1.390 . S
C1605 H1598 0.950 . S
C1605 C1602 1.387 . S
C1606 C1607 1.387 . S
C1606 H1610 0.950 . S
C1606 C1615 1.390 . S
C1607 C1606 1.387 . S
C1607 C1609 1.387 . S
H1608 C1615 0.950 . S
C1609 C1607 1.387 . S
C1609 C1611 1.390 . S
C1609 H1613 0.950 . S
H1610 C1606 0.950 . S
C1611 C1609 1.390 . S
C1611 C1612 1.387 . S
C1611 H1614 0.950 . S
C1612 C1611 1.387 . S
C1612 C1615 1.387 . S
H1613 C1609 0.950 . S
H1614 C1611 0.950 . S
C1615 C1606 1.390 . S
C1615 H1608 0.950 . S
C1615 C1612 1.387 . S
C1616 C1617 1.387 . S
C1616 H1620 0.950 . S
C1616 C1625 1.390 . S
C1617 C1616 1.387 . S
C1617 C1619 1.387 . S
H1618 C1625 0.950 . S
C1619 C1617 1.387 . S
C1619 C1621 1.390 . S
C1619 H1623 0.950 . S
H1620 C1616 0.950 . S
C1621 C1619 1.390 . S
C1621 C1622 1.387 . S
C1621 H1624 0.950 . S
C1622 C1621 1.387 . S
C1622 C1625 1.387 . S
H1623 C1619 0.950 . S
H1624 C1621 0.950 . S
C1625 C1616 1.390 . S
C1625 H1618 0.950 . S
C1625 C1622 1.387 . S
C1626 C1627 1.387 1_655 S
C1626 H1630 0.950 . S
C1626 C1635 1.390 . S
C1627 C1626 1.387 1_455 S
C1627 C1629 1.387 . S
H1628 C1635 0.950 . S
C1629 C1627 1.387 . S
C1629 C1631 1.390 . S
C1629 H1633 0.950 . S
H1630 C1626 0.950 . S
C1631 C1629 1.390 . S
C1631 C1632 1.387 . S
C1631 H1634 0.950 . S
C1632 C1631 1.387 . S
C1632 C1635 1.387 1_455 S
H1633 C1629 0.950 . S
H1634 C1631 0.950 . S
C1635 C1626 1.390 . S
C1635 H1628 0.950 . S
C1635 C1632 1.387 1_655 S
C1636 C1637 1.387 . S
C1636 H1640 0.950 . S
C1636 C1645 1.390 . S
C1637 C1636 1.387 . S
C1637 C1639 1.387 . S
H1638 C1645 0.950 . S
C1639 C1637 1.387 . S
C1639 C1641 1.390 . S
C1639 H1643 0.950 . S
H1640 C1636 0.950 . S
C1641 C1639 1.390 . S
C1641 C1642 1.387 . S
C1641 H1644 0.950 . S
C1642 C1641 1.387 . S
C1642 C1645 1.387 . S
H1643 C1639 0.950 . S
H1644 C1641 0.950 . S
C1645 C1636 1.390 . S
C1645 H1638 0.950 . S
C1645 C1642 1.387 . S
C1646 C1647 1.387 . S
C1646 H1650 0.950 . S
C1646 C1655 1.390 . S
C1647 C1646 1.387 . S
C1647 C1649 1.387 1_565 S
H1648 C1655 0.950 . S
C1649 C1647 1.387 1_545 S
C1649 C1651 1.390 . S
C1649 H1653 0.950 . S
H1650 C1646 0.950 . S
C1651 C1649 1.390 . S
C1651 C1652 1.387 1_545 S
C1651 H1654 0.950 . S
C1652 C1651 1.387 1_565 S
C1652 C1655 1.387 . S
H1653 C1649 0.950 . S
H1654 C1651 0.950 . S
C1655 C1646 1.390 . S
C1655 H1648 0.950 . S
C1655 C1652 1.387 . S
C1656 C1657 1.387 . S
C1656 H1660 0.950 . S
C1656 C1665 1.390 . S
C1657 C1656 1.387 . S
C1657 C1659 1.387 1_565 S
H1658 C1665 0.950 . S
C1659 C1657 1.387 1_545 S
C1659 C1661 1.390 . S
C1659 H1663 0.950 . S
H1660 C1656 0.950 . S
C1661 C1659 1.390 . S
C1661 C1662 1.387 1_545 S
C1661 H1664 0.950 . S
C1662 C1661 1.387 1_565 S
C1662 C1665 1.387 . S
H1663 C1659 0.950 . S
H1664 C1661 0.950 . S
C1665 C1656 1.390 . S
C1665 H1658 0.950 . S
C1665 C1662 1.387 . S
C1666 C1667 1.387 . S
C1666 H1670 0.950 . S
C1666 C1675 1.390 . S
C1667 C1666 1.387 . S
C1667 C1669 1.387 . S
H1668 C1675 0.950 . S
C1669 C1667 1.387 . S
C1669 C1671 1.390 . S
C1669 H1673 0.950 . S
H1670 C1666 0.950 . S
C1671 C1669 1.390 . S
C1671 C1672 1.387 . S
C1671 H1674 0.950 . S
C1672 C1671 1.387 . S
C1672 C1675 1.387 . S
H1673 C1669 0.950 . S
H1674 C1671 0.950 . S
C1675 C1666 1.390 . S
C1675 H1668 0.950 . S
C1675 C1672 1.387 . S
C1676 C1677 1.387 . S
C1676 H1680 0.950 . S
C1676 C1685 1.390 . S
C1677 C1676 1.387 . S
C1677 C1679 1.387 . S
H1678 C1685 0.950 . S
C1679 C1677 1.387 . S
C1679 C1681 1.390 . S
C1679 H1683 0.950 . S
H1680 C1676 0.950 . S
C1681 C1679 1.390 . S
C1681 C1682 1.387 . S
C1681 H1684 0.950 . S
C1682 C1681 1.387 . S
C1682 C1685 1.387 . S
H1683 C1679 0.950 . S
H1684 C1681 0.950 . S
C1685 C1676 1.390 . S
C1685 H1678 0.950 . S
C1685 C1682 1.387 . S
C1686 C1687 1.387 . S
C1686 H1690 0.950 . S
C1686 C1695 1.390 . S
C1687 C1686 1.387 . S
C1687 C1689 1.387 . S
H1688 C1695 0.950 . S
C1689 C1687 1.387 . S
C1689 C1691 1.390 . S
C1689 H1693 0.950 . S
H1690 C1686 0.950 . S
C1691 C1689 1.390 . S
C1691 C1692 1.387 . S
C1691 H1694 0.950 . S
C1692 C1691 1.387 . S
C1692 C1695 1.387 . S
H1693 C1689 0.950 . S
H1694 C1691 0.950 . S
C1695 C1686 1.390 . S
C1695 H1688 0.950 . S
C1695 C1692 1.387 . S
C1696 C1697 1.387 . S
C1696 H1700 0.950 . S
C1696 C1705 1.390 . S
C1697 C1696 1.387 . S
C1697 C1699 1.387 . S
H1698 C1705 0.950 . S
C1699 C1697 1.387 . S
C1699 C1701 1.390 . S
C1699 H1703 0.950 . S
H1700 C1696 0.950 . S
C1701 C1699 1.390 . S
C1701 C1702 1.387 . S
C1701 H1704 0.950 . S
C1702 C1701 1.387 . S
C1702 C1705 1.387 . S
H1703 C1699 0.950 . S
H1704 C1701 0.950 . S
C1705 C1696 1.390 . S
C1705 H1698 0.950 . S
C1705 C1702 1.387 . S
C1706 C1707 1.387 . S
C1706 H1710 0.950 . S
C1706 C1715 1.390 . S
C1707 C1706 1.387 . S
C1707 C1709 1.387 . S
H1708 C1715 0.950 . S
C1709 C1707 1.387 . S
C1709 C1711 1.390 . S
C1709 H1713 0.950 . S
H1710 C1706 0.950 . S
C1711 C1709 1.390 . S
C1711 C1712 1.387 . S
C1711 H1714 0.950 . S
C1712 C1711 1.387 . S
C1712 C1715 1.387 . S
H1713 C1709 0.950 . S
H1714 C1711 0.950 . S
C1715 C1706 1.390 . S
C1715 H1708 0.950 . S
C1715 C1712 1.387 . S
C1716 C1717 1.387 . S
C1716 H1720 0.950 . S
C1716 C1725 1.390 . S
C1717 C1716 1.387 . S
C1717 C1719 1.387 1_545 S
H1718 C1725 0.950 . S
C1719 C1717 1.387 1_565 S
C1719 C1721 1.390 . S
C1719 H1723 0.950 . S
H1720 C1716 0.950 . S
C1721 C1719 1.390 . S
C1721 C1722 1.387 1_565 S
C1721 H1724 0.950 . S
C1722 C1721 1.387 1_545 S
C1722 C1725 1.387 . S
H1723 C1719 0.950 . S
H1724 C1721 0.950 . S
C1725 C1716 1.390 . S
C1725 H1718 0.950 . S
C1725 C1722 1.387 . S
C1726 C1727 1.387 . S
C1726 H1730 0.950 . S
C1726 C1735 1.390 . S
C1727 C1726 1.387 . S
C1727 C1729 1.387 1_655 S
H1728 C1735 0.950 . S
C1729 C1727 1.387 1_455 S
C1729 C1731 1.390 . S
C1729 H1733 0.950 . S
H1730 C1726 0.950 . S
C1731 C1729 1.390 . S
C1731 C1732 1.387 1_455 S
C1731 H1734 0.950 . S
C1732 C1731 1.387 1_655 S
C1732 C1735 1.387 . S
H1733 C1729 0.950 . S
H1734 C1731 0.950 . S
C1735 C1726 1.390 . S
C1735 H1728 0.950 . S
C1735 C1732 1.387 . S
C1736 C1737 1.387 . S
C1736 H1740 0.950 . S
C1736 C1745 1.390 . S
C1737 C1736 1.387 . S
C1737 C1739 1.387 . S
H1738 C1745 0.950 . S
C1739 C1737 1.387 . S
C1739 C1741 1.390 . S
C1739 H1743 0.950 . S
H1740 C1736 0.950 . S
C1741 C1739 1.390 . S
C1741 C1742 1.387 . S
C1741 H1744 0.950 . S
C1742 C1741 1.387 . S
C1742 C1745 1.387 . S
H1743 C1739 0.950 . S
H1744 C1741 0.950 . S
C1745 C1736 1.390 . S
C1745 H1738 0.950 . S
C1745 C1742 1.387 . S
C1746 C1747 1.387 . S
C1746 H1750 0.950 . S
C1746 C1755 1.390 . S
C1747 C1746 1.387 . S
C1747 C1749 1.387 . S
H1748 C1755 0.950 . S
C1749 C1747 1.387 . S
C1749 C1751 1.390 . S
C1749 H1753 0.950 . S
H1750 C1746 0.950 . S
C1751 C1749 1.390 . S
C1751 C1752 1.387 . S
C1751 H1754 0.950 . S
C1752 C1751 1.387 . S
C1752 C1755 1.387 . S
H1753 C1749 0.950 . S
H1754 C1751 0.950 . S
C1755 C1746 1.390 . S
C1755 H1748 0.950 . S
C1755 C1752 1.387 . S
C1756 C1757 1.387 . S
C1756 H1760 0.950 . S
C1756 C1765 1.390 . S
C1757 C1756 1.387 . S
C1757 C1759 1.387 . S
H1758 C1765 0.950 . S
C1759 C1757 1.387 . S
C1759 C1761 1.390 . S
C1759 H1763 0.950 . S
H1760 C1756 0.950 . S
C1761 C1759 1.390 . S
C1761 C1762 1.387 . S
C1761 H1764 0.950 . S
C1762 C1761 1.387 . S
C1762 C1765 1.387 . S
H1763 C1759 0.950 . S
H1764 C1761 0.950 . S
C1765 C1756 1.390 . S
C1765 H1758 0.950 . S
C1765 C1762 1.387 . S
C1766 C1767 1.387 . S
C1766 H1770 0.950 . S
C1766 C1775 1.390 . S
C1767 C1766 1.387 . S
C1767 C1769 1.387 . S
H1768 C1775 0.950 . S
C1769 C1767 1.387 . S
C1769 C1771 1.390 . S
C1769 H1773 0.950 . S
H1770 C1766 0.950 . S
C1771 C1769 1.390 . S
C1771 C1772 1.387 . S
C1771 H1774 0.950 . S
C1772 C1771 1.387 . S
C1772 C1775 1.387 . S
H1773 C1769 0.950 . S
H1774 C1771 0.950 . S
C1775 C1766 1.390 . S
C1775 H1768 0.950 . S
C1775 C1772 1.387 . S
C1776 C1777 1.387 . S
C1776 H1780 0.950 . S
C1776 C1785 1.390 . S
C1777 C1776 1.387 . S
C1777 C1779 1.387 . S
H1778 C1785 0.950 . S
C1779 C1777 1.387 . S
C1779 C1781 1.390 . S
C1779 H1783 0.950 . S
H1780 C1776 0.950 . S
C1781 C1779 1.390 . S
C1781 C1782 1.387 . S
C1781 H1784 0.950 . S
C1782 C1781 1.387 . S
C1782 C1785 1.387 . S
H1783 C1779 0.950 . S
H1784 C1781 0.950 . S
C1785 C1776 1.390 . S
C1785 H1778 0.950 . S
C1785 C1782 1.387 . S
C1786 C1787 1.387 . S
C1786 H1790 0.950 . S
C1786 C1795 1.390 . S
C1787 C1786 1.387 . S
C1787 C1789 1.387 . S
H1788 C1795 0.950 . S
C1789 C1787 1.387 . S
C1789 C1791 1.390 . S
C1789 H1793 0.950 . S
H1790 C1786 0.950 . S
C1791 C1789 1.390 . S
C1791 C1792 1.387 . S
C1791 H1794 0.950 . S
C1792 C1791 1.387 . S
C1792 C1795 1.387 . S
H1793 C1789 0.950 . S
H1794 C1791 0.950 . S
C1795 C1786 1.390 . S
C1795 H1788 0.950 . S
C1795 C1792 1.387 . S
C1796 C1797 1.387 . S
C1796 H1800 0.950 . S
C1796 C1805 1.390 . S
C1797 C1796 1.387 . S
C1797 C1799 1.387 . S
H1798 C1805 0.950 . S
C1799 C1797 1.387 . S
C1799 C1801 1.390 . S
C1799 H1803 0.950 . S
H1800 C1796 0.950 . S
C1801 C1799 1.390 . S
C1801 C1802 1.387 . S
C1801 H1804 0.950 . S
C1802 C1801 1.387 . S
C1802 C1805 1.387 . S
H1803 C1799 0.950 . S
H1804 C1801 0.950 . S
C1805 C1796 1.390 . S
C1805 H1798 0.950 . S
C1805 C1802 1.387 . S
C1806 C1807 1.387 . S
C1806 H1810 0.950 . S
C1806 C1815 1.390 . S
C1807 C1806 1.387 . S
C1807 C1809 1.387 1_655 S
H1808 C1815 0.950 . S
C1809 C1807 1.387 1_455 S
C1809 C1811 1.390 . S
C1809 H1813 0.950 . S
H1810 C1806 0.950 . S
C1811 C1809 1.390 . S
C1811 C1812 1.387 1_455 S
C1811 H1814 0.950 . S
C1812 C1811 1.387 1_655 S
C1812 C1815 1.387 . S
H1813 C1809 0.950 . S
H1814 C1811 0.950 . S
C1815 C1806 1.390 . S
C1815 H1808 0.950 . S
C1815 C1812 1.387 . S
C1816 C1817 1.387 . S
C1816 H1820 0.950 . S
C1816 C1825 1.390 . S
C1817 C1816 1.387 . S
C1817 C1819 1.387 . S
H1818 C1825 0.950 . S
C1819 C1817 1.387 . S
C1819 C1821 1.390 . S
C1819 H1823 0.950 . S
H1820 C1816 0.950 . S
C1821 C1819 1.390 . S
C1821 C1822 1.387 . S
C1821 H1824 0.950 . S
C1822 C1821 1.387 . S
C1822 C1825 1.387 . S
H1823 C1819 0.950 . S
H1824 C1821 0.950 . S
C1825 C1816 1.390 . S
C1825 H1818 0.950 . S
C1825 C1822 1.387 . S
C1826 C1827 1.387 1_565 S
C1826 H1830 0.950 . S
C1826 C1835 1.390 . S
C1827 C1826 1.387 1_545 S
C1827 C1829 1.387 . S
H1828 C1835 0.950 . S
C1829 C1827 1.387 . S
C1829 C1831 1.390 . S
C1829 H1833 0.950 . S
H1830 C1826 0.950 . S
C1831 C1829 1.390 . S
C1831 C1832 1.387 . S
C1831 H1834 0.950 . S
C1832 C1831 1.387 . S
C1832 C1835 1.387 1_545 S
H1833 C1829 0.950 . S
H1834 C1831 0.950 . S
C1835 C1826 1.390 . S
C1835 H1828 0.950 . S
C1835 C1832 1.387 1_565 S
C1117 C9 1.503 . S
C1122 C729 1.500 . S
C1127 C19 1.596 . S
C1132 C777 1.584 . S
C1142 C825 1.532 . S
C1137 C33 1.535 . S
C1147 C37 1.490 1_565 S
C1152 C849 1.520 . S
C1157 C5 1.492 . S
C1162 C921 1.489 . S
C1167 C23 1.642 . S
C1172 C969 1.624 . S
C1177 C47 1.506 . S
C1182 C897 1.511 . S
C1192 C945 1.632 . S
C1187 C65 1.652 . S
C1202 C873 1.497 . S
C1197 C75 1.505 . S
C1207 C79 1.463 . S
C1212 C801 1.470 . S
C1222 C705 1.540 . S
C1217 C51 1.526 . S
C1227 C61 1.622 . S
C1232 C753 1.606 . S
C1237 C93 1.717 . S
C1242 C1017 1.697 . S
C1247 C103 1.660 . S
C1252 C1065 1.645 . S
C1262 C1089 1.646 . S
C1257 C117 1.681 . S
C1267 C121 1.657 . S
C1272 C273 1.615 . S
C1277 C89 1.658 . S
C1282 C345 1.642 . S
C1287 C107 1.691 . S
C1292 C393 1.664 . S
C1297 C131 1.631 . S
C1302 C321 1.612 . S
C1307 C149 1.693 . S
C1312 C369 1.667 . S
C1322 C297 1.582 . S
C1317 C159 1.646 . S
C1332 C1113 1.612 . S
C1327 C163 1.689 . S
C1342 C993 1.686 . S
C1337 C135 1.716 . S
C1352 C1041 1.666 . S
C1347 C145 1.686 . S
C1357 C177 1.654 . S
C1362 C441 1.634 . S
C1367 C187 1.634 . S
C1372 C489 1.614 . S
C1377 C201 1.680 . S
C1382 C513 1.647 . S
C1387 C205 1.721 . S
C1392 C561 1.677 . S
C1402 C633 1.647 . S
C1397 C173 1.660 . S
C1412 C681 1.692 . S
C1407 C191 1.717 . S
C1422 C609 1.682 . S
C1417 C215 1.700 . S
C1432 C657 1.696 . S
C1427 C233 1.723 . S
C1437 C243 1.645 . S
C1442 C585 1.583 . S
C1452 C537 1.548 . S
C1447 C247 1.619 . S
C1457 C219 1.712 . S
C1462 C417 1.686 . S
C1472 C465 1.645 . S
C1467 C229 1.668 . S
C1482 C282 1.584 . S
C1477 C11 1.591 . S
C1487 C14 1.565 . S
C1492 C336 1.514 . S
C1502 C384 1.628 . S
C1497 C28 1.679 . S
C1512 C432 1.619 . S
C1507 C39 1.666 . S
C1522 C480 1.573 . S
C1517 C0 1.621 . S
C1532 C522 1.514 . S
C1527 C25 1.524 . S
C1537 C42 1.668 . S
C1542 C528 1.641 . S
C1547 C67 1.576 . S
C1552 C426 1.511 . S
C1557 C70 1.573 . S
C1562 C474 1.510 . S
C1567 C81 1.586 . S
C1572 C330 1.533 . S
C1582 C378 1.577 . S
C1577 C53 1.646 . S
C1587 C56 1.604 . S
C1592 C288 1.569 . S
C1602 C570 1.558 . S
C1597 C95 1.565 . S
C1607 C98 1.642 . S
C1612 C624 1.598 . S
C1617 C112 1.708 . S
C1622 C672 1.658 . S
C1632 C720 1.463 . S
C1627 C123 1.459 . S
C1637 C84 1.591 . S
C1642 C768 1.548 . S
C1647 C109 1.404 . S
C1652 C816 1.413 . S
C1657 C126 1.476 . S
C1662 C810 1.481 . S
C1667 C151 1.437 . S
C1672 C714 1.444 . S
C1682 C762 1.510 . S
C1677 C154 1.557 . S
C1687 C165 1.557 . S
C1692 C618 1.500 . S
C1697 C137 1.661 . S
C1702 C666 1.603 . S
C1712 C576 1.648 . S
C1707 C140 1.680 . S
C1722 C858 1.438 . S
C1717 C179 1.428 . S
C1727 C182 1.429 . S
C1732 C912 1.441 . S
C1737 C196 1.646 . S
C1742 C960 1.602 . S
C1752 C1008 1.588 . S
C1747 C207 1.637 . S
C1762 C1056 1.597 . S
C1757 C168 1.643 . S
C1767 C193 1.607 . S
C1772 C1098 1.600 . S
C1777 C210 1.647 . S
C1782 C1104 1.617 . S
C1787 C235 1.654 . S
C1792 C1002 1.595 . S
C1802 C1050 1.559 . S
C1797 C238 1.608 . S
C1812 C906 1.413 . S
C1807 C249 1.397 . S
C1822 C954 1.549 . S
C1817 C221 1.607 . S
C1827 C224 1.460 . S
C1832 C864 1.466 . S
