# Generated by pormake.
# Topology zzz, (3,6)-cn, num edge types: 1
# Building blocks:
#     Node 0, Type 0, BuildingBlock: BETDIP_clean_linker_0, # of connection points: 3
#     Node 1, Type 0, BuildingBlock: BETDIP_clean_linker_0, # of connection points: 3
#     Node 2, Type 0, BuildingBlock: BETDIP_clean_linker_0, # of connection points: 3
#     Node 3, Type 0, BuildingBlock: BETDIP_clean_linker_0, # of connection points: 3
#     Node 4, Type 0, BuildingBlock: BETDIP_clean_linker_0, # of connection points: 3
#     Node 5, Type 0, BuildingBlock: BETDIP_clean_linker_0, # of connection points: 3
#     Node 6, Type 0, BuildingBlock: BETDIP_clean_linker_0, # of connection points: 3
#     Node 7, Type 0, BuildingBlock: BETDIP_clean_linker_0, # of connection points: 3
#     Node 8, Type 1, BuildingBlock: BETDAH_clean_sbu_0, # of connection points: 6
#     Node 9, Type 1, BuildingBlock: BETDAH_clean_sbu_0, # of connection points: 6
#     Node 10, Type 1, BuildingBlock: BETDAH_clean_sbu_0, # of connection points: 6
#     Node 11, Type 1, BuildingBlock: BETDAH_clean_sbu_0, # of connection points: 6
#     Edge 12, Type (0, 1), BuildingBlock: XIVTED_clean_linker_0, # of connection points: 2
#     Edge 13, Type (0, 1), BuildingBlock: XIVTED_clean_linker_0, # of connection points: 2
#     Edge 14, Type (0, 1), BuildingBlock: XIVTED_clean_linker_0, # of connection points: 2
#     Edge 15, Type (0, 1), BuildingBlock: XIVTED_clean_linker_0, # of connection points: 2
#     Edge 16, Type (0, 1), BuildingBlock: XIVTED_clean_linker_0, # of connection points: 2
#     Edge 17, Type (0, 1), BuildingBlock: XIVTED_clean_linker_0, # of connection points: 2
#     Edge 18, Type (0, 1), BuildingBlock: XIVTED_clean_linker_0, # of connection points: 2
#     Edge 19, Type (0, 1), BuildingBlock: XIVTED_clean_linker_0, # of connection points: 2
#     Edge 20, Type (0, 1), BuildingBlock: XIVTED_clean_linker_0, # of connection points: 2
#     Edge 21, Type (0, 1), BuildingBlock: XIVTED_clean_linker_0, # of connection points: 2
#     Edge 22, Type (0, 1), BuildingBlock: XIVTED_clean_linker_0, # of connection points: 2
#     Edge 23, Type (0, 1), BuildingBlock: XIVTED_clean_linker_0, # of connection points: 2
#     Edge 24, Type (0, 1), BuildingBlock: XIVTED_clean_linker_0, # of connection points: 2
#     Edge 25, Type (0, 1), BuildingBlock: XIVTED_clean_linker_0, # of connection points: 2
#     Edge 26, Type (0, 1), BuildingBlock: XIVTED_clean_linker_0, # of connection points: 2
#     Edge 27, Type (0, 1), BuildingBlock: XIVTED_clean_linker_0, # of connection points: 2
#     Edge 28, Type (0, 1), BuildingBlock: XIVTED_clean_linker_0, # of connection points: 2
#     Edge 29, Type (0, 1), BuildingBlock: XIVTED_clean_linker_0, # of connection points: 2
#     Edge 30, Type (0, 1), BuildingBlock: XIVTED_clean_linker_0, # of connection points: 2
#     Edge 31, Type (0, 1), BuildingBlock: XIVTED_clean_linker_0, # of connection points: 2
#     Edge 32, Type (0, 1), BuildingBlock: XIVTED_clean_linker_0, # of connection points: 2
#     Edge 33, Type (0, 1), BuildingBlock: XIVTED_clean_linker_0, # of connection points: 2
#     Edge 34, Type (0, 1), BuildingBlock: XIVTED_clean_linker_0, # of connection points: 2
#     Edge 35, Type (0, 1), BuildingBlock: XIVTED_clean_linker_0, # of connection points: 2
# Relax obj value: 0.273
# Max RMSD: 0.190
# Mean RMSD: 0.163
data_MOF--net-zzz--node1-BETDAH_clean_sbu_0--node2-BETDIP_clean_linker_0--edge1-XIVTED_clean_linker_0
_symmetry_space_group_name_H-M    P1
_symmetry_Int_Tables_number       1
_symmetry_cell_setting            triclinic
loop_
_symmetry_equiv_pos_as_xyz
'x, y, z'
_cell_length_a     52.192112
_cell_length_b     52.362226
_cell_length_c     13.146417
_cell_angle_alpha  89.735286
_cell_angle_beta   90.11576
_cell_angle_gamma 89.610524
loop_
_atom_site_label
_atom_site_type_symbol
_atom_site_fract_x
_atom_site_fract_y
_atom_site_fract_z
_atom_type_partial_charge
H0 H 0.76415 0.54455 0.52893 0.0
H1 H 0.74578 0.48789 0.30355 0.0
H2 H 0.81832 0.48509 0.45862 0.0
H3 H 0.73531 0.54584 0.25319 0.0
C4 C 0.7204 0.53828 0.30221 0.0
C5 C 0.76913 0.52733 0.48791 0.0
C6 C 0.79328 0.51566 0.50296 0.0
C7 C 0.75179 0.51707 0.41642 0.0
C8 C 0.75882 0.49537 0.3602 0.0
C9 C 0.78252 0.48333 0.37699 0.0
C10 C 0.7994 0.4935 0.44905 0.0
N11 N 0.72736 0.52851 0.39964 0.0
H12 H 0.03104 0.75939 0.55618 0.0
H13 H 1.00202 0.73255 0.26843 0.0
H14 H 0.99891 0.81232 0.3389 0.0
H15 H 0.98595 0.69913 0.44242 0.0
C16 C 1.006 0.69636 0.42286 0.0
C17 C 0.02134 0.76313 0.48472 0.0
C18 C 1.01483 0.78852 0.45668 0.0
C19 C 1.0157 0.74262 0.41805 0.0
C20 C 1.00458 0.74784 0.32276 0.0
C21 C 0.99854 0.77286 0.29419 0.0
C22 C 1.00291 0.79281 0.3626 0.0
N23 N 0.02308 0.717 0.44143 0.0
H24 H 0.78762 0.02235 0.53409 0.0
H25 H 0.81432 0.98628 0.25895 0.0
H26 H 0.73435 0.98606 0.33185 0.0
H27 H 0.84709 0.97328 0.42869 0.0
C28 C 0.85056 0.99305 0.40746 0.0
C29 C 0.78383 1.01112 0.4668 0.0
C30 C 0.75839 1.00426 0.44205 0.0
C31 C 0.80434 1.00366 0.4025 0.0
C32 C 0.79903 0.9904 0.31225 0.0
C33 C 0.77393 0.98398 0.28687 0.0
C34 C 0.75396 0.99027 0.35342 0.0
N35 N 0.83012 1.01079 0.42352 0.0
H36 H 0.54646 0.78516 0.47464 0.0
H37 H 0.48293 0.80473 0.2787 0.0
H38 H 0.48133 0.7357 0.45638 0.0
H39 H 0.53489 0.80537 0.18943 0.0
C40 C 0.53404 0.82269 0.23476 0.0
C41 C 0.52731 0.78134 0.44694 0.0
C42 C 0.51469 0.75875 0.47639 0.0
C43 C 0.51553 0.79829 0.37689 0.0
C44 C 0.49141 0.79231 0.33592 0.0
C45 C 0.47874 0.76995 0.36529 0.0
C46 C 0.4903 0.75373 0.43732 0.0
N47 N 0.52861 0.82026 0.34037 0.0
H48 H 0.28317 0.5003 0.0637 0.0
H49 H 0.29639 0.56949 0.23341 0.0
H50 H 0.22397 0.55735 0.08747 0.0
H51 H 0.33654 0.56242 0.1314 0.0
C52 C 0.3394 0.54423 0.17026 0.0
C53 C 0.27668 0.51877 0.09043 0.0
C54 C 0.25171 0.52746 0.06713 0.0
C55 C 0.29338 0.53441 0.14721 0.0
C56 C 0.28429 0.55799 0.18496 0.0
C57 C 0.25938 0.56646 0.16274 0.0
C58 C 0.24356 0.55128 0.10244 0.0
N59 N 0.31899 0.52629 0.16867 0.0
H60 H 0.03712 0.27956 0.06381 0.0
H61 H 0.9725 0.29881 0.25425 0.0
H62 H 0.97651 0.22561 0.11004 0.0
H63 H 0.98044 0.3382 0.1462 0.0
C64 C 0.99926 0.33944 0.18146 0.0
C65 C 1.01875 0.27473 0.09661 0.0
C66 C 1.00782 0.25057 0.07758 0.0
C67 C 1.00546 0.2928 0.15718 0.0
C68 C 0.98209 0.28579 0.20281 0.0
C69 C 0.97149 0.2617 0.18557 0.0
C70 C 0.98421 0.2446 0.12123 0.0
N71 N 1.01575 0.31761 0.17543 0.0
H72 H 0.26716 0.03807 0.03952 0.0
H73 H 0.24622 0.97101 0.21164 0.0
H74 H 0.31769 0.97315 0.05108 0.0
H75 H 0.20471 0.98512 0.12167 0.0
C76 C 0.20632 1.00309 0.16226 0.0
C77 C 0.27106 0.01861 0.06344 0.0
C78 C 0.29417 1.00651 0.03468 0.0
C79 C 0.25293 1.00528 0.12302 0.0
C80 C 0.25902 0.98057 0.15926 0.0
C81 C 0.28235 0.96887 0.13371 0.0
C82 C 0.29918 0.98164 0.06839 0.0
N83 N 0.22946 1.01726 0.15248 0.0
H84 H 0.49227 0.27346 0.06528 0.0
H85 H 0.55731 0.25046 0.24829 0.0
H86 H 0.55491 0.32498 0.11108 0.0
H87 H 0.54471 0.21101 0.12564 0.0
C88 C 0.52734 0.21141 0.1712 0.0
C89 C 0.51101 0.2774 0.09679 0.0
C90 C 0.52255 0.30129 0.07945 0.0
C91 C 0.52401 0.25854 0.15474 0.0
C92 C 0.54792 0.26425 0.1988 0.0
C93 C 0.55918 0.28813 0.18279 0.0
C94 C 0.5466 0.30619 0.12147 0.0
N95 N 0.51255 0.23437 0.17343 0.0
Ho96 Ho 0.04239 1.01499 0.85246 0.0
Ho97 Ho 1.00779 0.02621 0.68599 0.0
C98 C 0.02266 0.96864 0.70967 0.0
C99 C 0.06394 0.99169 1.00229 0.0
C100 C 0.06311 0.96379 0.01847 0.0
C101 C 0.04726 0.95399 0.09512 0.0
C102 C 0.03866 0.92887 0.09 0.0
C103 C 0.04605 0.91306 0.00894 0.0
C104 C 0.06417 0.9219 0.93884 0.0
C105 C 0.0726 0.94711 0.94333 0.0
C106 C 0.0672 0.028 0.679 0.0
C107 C 0.0291 0.07327 0.82867 0.0
C108 C 0.98241 0.0448 0.53331 0.0
C109 C 0.96848 0.06907 0.51742 0.0
C110 C 0.97977 0.09233 0.54402 0.0
C111 C 0.96626 0.11518 0.53257 0.0
C112 C 0.9411 0.11538 0.4939 0.0
C113 C 0.92973 0.09204 0.46745 0.0
C114 C 0.94331 0.06904 0.47948 0.0
C115 C 0.98352 1.01262 0.85991 0.0
O116 O 0.02811 0.97573 0.80355 0.0
O117 O 1.018 0.98619 0.63978 0.0
O118 O 0.07674 0.99956 0.92295 0.0
O119 O 0.04175 1.00324 0.0104 0.0
O120 O 0.07351 0.03581 0.76904 0.0
O121 O 0.04801 1.01347 0.68522 0.0
O122 O 1.01825 0.06618 0.74185 0.0
O123 O 0.03839 0.05613 0.89284 0.0
O124 O 0.9724 0.02939 0.60032 0.0
O125 O 1.00735 0.0462 0.54179 0.0
O126 O 0.97763 1.00425 0.77055 0.0
O127 O 1.00212 0.02783 0.8533 0.0
H128 H 0.03974 0.96635 0.15399 0.0
H129 H 0.02523 0.92218 0.14678 0.0
H130 H 0.07032 0.90999 0.87618 0.0
H131 H 0.08487 0.95398 0.88293 0.0
H132 H 0.99919 0.09295 0.5728 0.0
H133 H 0.97594 0.1328 0.55097 0.0
H134 H 0.91043 0.09156 0.43716 0.0
H135 H 0.93418 0.05126 0.45903 0.0
Ho136 Ho 0.5307 0.03653 0.82801 0.0
Ho137 Ho 0.51721 1.00975 0.62029 0.0
C138 C 0.57616 0.02013 0.66789 0.0
C139 C 0.55497 0.04881 0.98938 0.0
C140 C 0.58271 0.04466 1.00475 0.0
C141 C 0.59115 0.02547 0.07182 0.0
C142 C 0.61613 1.01594 0.06514 0.0
C143 C 0.63312 0.02541 0.99116 0.0
C144 C 0.62534 0.04615 0.93034 0.0
C145 C 0.60041 0.0557 0.93706 0.0
C146 C 0.51635 0.06753 0.67234 0.0
C147 C 0.47225 0.02404 0.78826 0.0
C148 C 0.49868 0.99874 0.44506 0.0
C149 C 0.47837 0.98036 0.42247 0.0
C150 C 0.46855 0.97785 0.32397 0.0
C151 C 0.44752 0.96199 0.30632 0.0
C152 C 0.43605 0.94847 0.38715 0.0
C153 C 0.44682 0.95023 0.48482 0.0
C154 C 0.46768 0.96612 0.50233 0.0
C155 C 0.52373 0.97418 0.77168 0.0
O156 O 0.56924 0.02417 0.76355 0.0
O157 O 0.55905 1.01761 0.59402 0.0
O158 O 0.54866 0.06559 0.91929 0.0
O159 O 0.54136 0.02788 0.98365 0.0
O160 O 0.51061 0.07164 0.76705 0.0
O161 O 0.53035 0.04785 0.66573 0.0
O162 O 0.47862 0.01922 0.69216 0.0
O163 O 0.48956 0.02839 0.85988 0.0
O164 O 0.52002 0.98863 0.47997 0.0
O165 O 0.49112 0.0187 0.49734 0.0
O166 O 0.51945 0.96867 0.67743 0.0
O167 O 0.52445 0.99807 0.77639 0.0
H168 H 0.57796 1.0167 0.12485 0.0
H169 H 0.62186 1.00058 0.11594 0.0
H170 H 0.63792 0.054 0.87294 0.0
H171 H 0.59462 0.0705 0.88386 0.0
H172 H 0.47654 0.98877 0.26159 0.0
H173 H 0.43945 0.9614 0.23042 0.0
H174 H 0.43863 0.93995 0.54845 0.0
H175 H 0.47495 0.96792 0.57913 0.0
Ho176 Ho 0.50541 0.53862 0.85797 0.0
Ho177 Ho 0.54036 0.52124 0.70185 0.0
C178 C 0.53279 0.58216 0.73325 0.0
C179 C 0.47717 0.55149 0.01071 0.0
C180 C 0.46488 0.57616 0.03339 0.0
C181 C 0.47624 0.59884 0.99958 0.0
C182 C 0.46416 0.62227 0.01489 0.0
C183 C 0.44033 0.62359 0.06421 0.0
C184 C 0.42883 0.60083 0.09751 0.0
C185 C 0.44098 0.57723 0.08181 0.0
C186 C 0.4846 0.53997 0.66904 0.0
C187 C 0.51229 0.47795 0.82365 0.0
C188 C 0.56865 0.50762 0.54995 0.0
C189 C 0.57928 0.48234 0.5248 0.0
C190 C 0.56632 0.46027 0.55569 0.0
C191 C 0.57689 0.43621 0.53869 0.0
C192 C 0.60078 0.43358 0.49053 0.0
C193 C 0.61381 0.45573 0.45932 0.0
C194 C 0.60317 0.47997 0.47688 0.0
C195 C 0.56113 0.52107 0.89208 0.0
O196 O 0.5227 0.57658 0.82236 0.0
O197 O 0.53835 0.56381 0.66777 0.0
O198 O 0.46822 0.54 0.93048 0.0
O199 O 0.50223 0.55105 0.01421 0.0
O200 O 0.48228 0.55787 0.73579 0.0
O201 O 0.49809 0.52193 0.70506 0.0
O202 O 0.5218 0.48378 0.73398 0.0
O203 O 0.50791 0.49604 0.89138 0.0
O204 O 0.57784 0.51772 0.63266 0.0
O205 O 0.54372 0.50992 0.54422 0.0
O206 O 0.56334 0.50262 0.82759 0.0
O207 O 0.54754 0.53858 0.85315 0.0
H208 H 0.49458 0.5985 0.96155 0.0
H209 H 0.47391 0.63943 0.99046 0.0
H210 H 0.41049 0.60137 0.13547 0.0
H211 H 0.43172 0.55986 0.10697 0.0
H212 H 0.54792 0.46157 0.59298 0.0
H213 H 0.56595 0.41962 0.56122 0.0
H214 H 0.63222 0.45432 0.4218 0.0
H215 H 0.61362 0.49682 0.45365 0.0
Ho216 Ho 1.01607 0.50371 0.86649 0.0
Ho217 Ho 0.03133 0.53951 0.71049 0.0
C218 C 0.97079 0.53171 0.753 0.0
C219 C 1.00433 0.47512 0.01933 0.0
C220 C 0.97899 0.46492 0.04589 0.0
C221 C 0.9571 0.48032 0.03305 0.0
C222 C 0.93277 0.47009 0.04493 0.0
C223 C 0.92968 0.44417 0.06971 0.0
C224 C 0.95156 0.42878 0.08432 0.0
C225 C 0.97609 0.43907 0.07206 0.0
C226 C 1.01215 0.48418 0.67619 0.0
C227 C 0.07662 0.51074 0.82156 0.0
C228 C 0.04094 0.56902 0.55683 0.0
C229 C 0.06417 0.58293 0.52821 0.0
C230 C 0.08753 0.57667 0.57493 0.0
C231 C 0.10995 0.58896 0.54591 0.0
C232 C 0.1095 0.60808 0.47024 0.0
C233 C 0.08575 0.61504 0.42646 0.0
C234 C 0.06325 0.60249 0.45518 0.0
C235 C 0.03434 0.55912 0.90146 0.0
O236 O 0.97749 0.5215 0.84088 0.0
O237 O 0.98839 0.53715 0.68414 0.0
O238 O 1.01398 0.46612 0.93526 0.0
O239 O 1.00693 0.4999 0.02631 0.0
O240 O 0.99516 0.48175 0.74681 0.0
O241 O 0.03072 0.49723 0.70903 0.0
O242 O 0.06999 0.52194 0.73546 0.0
O243 O 0.0591 0.50476 0.89003 0.0
O244 O 0.02984 0.57692 0.63978 0.0
O245 O 0.04273 0.54412 0.55339 0.0
O246 O 0.0515 0.56203 0.83161 0.0
O247 O 1.01623 0.54575 0.86691 0.0
H248 H 0.95869 0.50028 0.01231 0.0
H249 H 0.91633 0.48264 0.03579 0.0
H250 H 0.94964 0.40876 0.10332 0.0
H251 H 0.99273 0.42677 0.08081 0.0
H252 H 0.08856 0.56182 0.63236 0.0
H253 H 0.12778 0.58256 0.58005 0.0
H254 H 0.08459 0.62985 0.36888 0.0
H255 H 0.04525 0.6078 0.41951 0.0
H256 H 0.20424 0.04176 0.3059 0.0
H257 H 0.06392 1.00158 0.4997 0.0
H258 H 0.15953 0.98146 0.17348 0.0
H259 H 0.11246 0.05383 0.66218 0.0
H260 H 0.09659 0.99824 0.36673 0.0
H261 H 0.16892 0.05056 0.42469 0.0
C262 C 0.1869 0.03059 0.30103 0.0
C263 C 0.1848 1.01081 0.22983 0.0
C264 C 0.10006 1.01058 0.4311 0.0
C265 C 0.14437 0.02069 0.36544 0.0
C266 C 0.08134 1.01256 0.50688 0.0
C267 C 0.08552 0.02787 0.59257 0.0
C268 C 0.12319 0.02406 0.44066 0.0
C269 C 0.10849 0.04168 0.5977 0.0
C270 C 0.16677 0.03554 0.36907 0.0
C271 C 0.16194 0.99685 0.22734 0.0
N272 N 0.12648 0.03936 0.52325 0.0
N273 N 0.14272 1.00199 0.29405 0.0
H274 H 0.54908 0.16456 0.1587 0.0
H275 H 0.48983 0.11273 0.67943 0.0
H276 H 0.49279 0.2068 0.32999 0.0
H277 H 0.53657 0.06682 0.48022 0.0
H278 H 0.48899 0.14668 0.55038 0.0
H279 H 0.54321 0.12802 0.2724 0.0
C280 C 0.53525 0.16602 0.21984 0.0
C281 C 0.52143 0.18873 0.23495 0.0
C282 C 0.49923 0.12911 0.53441 0.0
C283 C 0.51483 0.14702 0.36696 0.0
C284 C 0.49972 0.10971 0.60807 0.0
C285 C 0.51346 0.087 0.59081 0.0
C286 C 0.51277 0.12588 0.44301 0.0
C287 C 0.52584 0.08407 0.49691 0.0
C288 C 0.53191 0.14514 0.28484 0.0
C289 C 0.5038 0.18962 0.31541 0.0
N290 N 0.52541 0.10335 0.42707 0.0
N291 N 0.50119 0.16915 0.37907 0.0
H292 H 0.37413 0.58036 0.20874 0.0
H293 H 0.46509 0.49691 0.57614 0.0
H294 H 0.35773 0.50162 0.27716 0.0
H295 H 0.46306 0.57918 0.56523 0.0
H296 H 0.43089 0.496 0.446 0.0
H297 H 0.4119 0.57789 0.31768 0.0
C298 C 0.3787 0.56242 0.24614 0.0
C299 C 0.36281 0.54122 0.23384 0.0
C300 C 0.43816 0.51419 0.47163 0.0
C301 C 0.40613 0.53818 0.36019 0.0
C302 C 0.45777 0.51472 0.54509 0.0
C303 C 0.46682 0.53819 0.58147 0.0
C304 C 0.42795 0.53729 0.43361 0.0
C305 C 0.45656 0.56069 0.53958 0.0
C306 C 0.40021 0.56104 0.30884 0.0
C307 C 0.36946 0.51847 0.28488 0.0
N308 N 0.43775 0.55968 0.46825 0.0
N309 N 0.39066 0.51754 0.34617 0.0
H310 H 0.04375 0.35348 0.28599 0.0
H311 H 0.97138 0.46779 0.56953 0.0
H312 H 0.96625 0.37753 0.22216 0.0
H313 H 0.0535 0.45985 0.58495 0.0
H314 H 0.97007 0.4344 0.44108 0.0
H315 H 0.04891 0.39134 0.39575 0.0
C316 C 0.02794 0.36679 0.29432 0.0
C317 C 1.00451 0.3624 0.24466 0.0
C318 C 0.9885 0.44002 0.4713 0.0
C319 C 1.01019 0.40549 0.36999 0.0
C320 C 0.98923 0.45919 0.54459 0.0
C321 C 1.01256 0.46669 0.58758 0.0
C322 C 1.01125 0.42762 0.44165 0.0
C323 C 0.03512 0.45478 0.55288 0.0
C324 C 0.0309 0.38841 0.35666 0.0
C325 C 0.98467 0.38025 0.25829 0.0
N326 N 0.0339 0.43555 0.48285 0.0
N327 N 0.98789 0.40077 0.31972 0.0
H328 H 0.87052 0.03915 0.33731 0.0
H329 H 0.95227 0.97288 0.90177 0.0
H330 H 0.87929 0.9575 0.31258 0.0
H331 H 0.97518 0.046 0.01901 0.0
H332 H 0.9214 0.96894 0.04065 0.0
H333 H 0.90512 0.04448 0.21081 0.0
C334 C 0.87972 0.0224 0.30551 0.0
C335 C 0.87195 0.99782 0.33506 0.0
C336 C 0.93326 0.98581 0.03659 0.0
C337 C 0.91101 1.00374 0.1899 0.0
C338 C 0.95087 0.98807 0.95726 0.0
C339 C 0.96636 1.00973 0.94912 0.0
C340 C 0.93055 1.00565 0.10748 0.0
C341 C 0.9637 0.02888 0.02311 0.0
C342 C 0.89948 0.02544 0.23378 0.0
C343 C 0.88462 0.97679 0.29189 0.0
N344 N 0.94588 0.02657 0.09864 0.0
N345 N 0.9032 0.98021 0.22095 0.0
H346 H 0.52219 0.87203 0.30041 0.0
H347 H 0.5436 0.92766 0.73867 0.0
H348 H 0.55146 0.82969 0.04489 0.0
H349 H 0.51791 0.97622 0.98239 0.0
H350 H 0.54966 0.89293 0.85868 0.0
H351 H 0.52308 0.91134 0.1956 0.0
C352 C 0.52916 0.87107 0.22299 0.0
C353 C 0.53673 0.84755 0.18094 0.0
C354 C 0.54286 0.91112 0.88713 0.0
C355 C 0.5377 0.89218 0.0612 0.0
C356 C 0.53943 0.93107 0.81821 0.0
C357 C 0.53018 0.95484 0.85045 0.0
C358 C 0.53657 0.91455 0.99003 0.0
C359 C 0.52521 0.95815 0.95465 0.0
C360 C 0.52959 0.89347 0.1632 0.0
C361 C 0.54538 0.84736 0.08024 0.0
N362 N 0.52815 0.93807 0.0209 0.0
N363 N 0.54552 0.86917 0.02418 0.0
H364 H 0.68156 0.50483 0.3507 0.0
H365 H 0.58027 0.56641 0.96141 0.0
H366 H 0.69904 0.56982 0.16142 0.0
H367 H 0.5863 0.48494 1.00536 0.0
H368 H 0.61683 0.57209 0.07706 0.0
H369 H 0.63959 0.50155 0.26531 0.0
C370 C 0.67635 0.51871 0.2928 0.0
C371 C 0.69372 0.53767 0.26291 0.0
C372 C 0.60986 0.55302 0.06246 0.0
C373 C 0.64591 0.53419 0.1664 0.0
C374 C 0.58894 0.54976 0.99705 0.0
C375 C 0.58038 0.52514 0.97338 0.0
C376 C 0.62191 0.53155 0.10633 0.0
C377 C 0.59243 0.50423 0.02127 0.0
C378 C 0.65253 0.51672 0.2438 0.0
C379 C 0.68616 0.55494 0.18652 0.0
N380 N 0.6126 0.50788 0.08548 0.0
N381 N 0.66282 0.55287 0.14114 0.0
H382 H 0.97591 0.6558 0.38311 0.0
H383 H 0.07002 0.59286 0.97117 0.0
H384 H 0.05097 0.68534 0.3174 0.0
H385 H 0.99408 0.56522 0.03471 0.0
H386 H 0.06525 0.62426 0.10757 0.0
H387 H 0.98404 0.6203 0.26727 0.0
C388 C 0.99426 0.65467 0.34487 0.0
C389 C 1.01273 0.67365 0.35987 0.0
C390 C 0.04966 0.61126 0.09222 0.0
C391 C 0.02215 0.63298 0.22526 0.0
C392 C 0.0524 0.59326 0.0143 0.0
C393 C 0.03235 0.57647 0.99072 0.0
C394 C 0.02665 0.61265 0.14723 0.0
C395 C 1.01002 0.57784 0.04981 0.0
C396 C 0.99887 0.63439 0.2784 0.0
C397 C 0.03616 0.67117 0.30825 0.0
N398 N 1.0077 0.59569 0.12458 0.0
N399 N 0.04012 0.65134 0.24271 0.0
H400 H 0.9653 0.26367 0.39136 0.0
H401 H 0.91265 0.12883 0.32613 0.0
H402 H 0.92881 0.23668 0.11828 0.0
H403 H 0.9405 0.15877 0.61058 0.0
H404 H 0.90348 0.17218 0.26879 0.0
H405 H 0.94149 0.23228 0.48982 0.0
C406 C 0.9514 0.25189 0.35262 0.0
C407 C 0.94972 0.25202 0.2462 0.0
C408 C 0.91097 0.16933 0.3449 0.0
C409 C 0.92327 0.21537 0.35745 0.0
C410 C 0.91611 0.14445 0.37796 0.0
C411 C 0.92835 0.14023 0.47171 0.0
C412 C 0.91866 0.19006 0.40511 0.0
C413 C 0.9321 0.16127 0.53579 0.0
C414 C 0.93795 0.23372 0.4088 0.0
C415 C 0.93125 0.23651 0.2001 0.0
N416 N 0.92799 0.18533 0.5002 0.0
N417 N 0.91937 0.21817 0.25552 0.0
H418 H 0.28309 0.96192 0.33921 0.0
H419 H 0.42066 0.91867 0.22646 0.0
H420 H 0.30629 0.9259 0.05991 0.0
H421 H 0.39445 0.94871 0.51346 0.0
H422 H 0.37667 0.9066 0.18613 0.0
H423 H 0.31846 0.9408 0.42675 0.0
C424 C 0.29485 0.94853 0.29714 0.0
C425 C 0.29258 0.94661 0.19117 0.0
C426 C 0.38063 0.9152 0.2592 0.0
C427 C 0.33386 0.92345 0.28954 0.0
C428 C 0.40574 0.92228 0.28183 0.0
C429 C 0.41115 0.93543 0.37201 0.0
C430 C 0.36073 0.92181 0.32635 0.0
C431 C 0.39122 0.93889 0.44238 0.0
C432 C 0.3154 0.93671 0.34698 0.0
C433 C 0.30812 0.92865 0.14119 0.0
N434 N 0.36683 0.93271 0.41698 0.0
N435 N 0.32884 0.91857 0.18981 0.0
H436 H 0.60331 0.30947 0.11167 0.0
H437 H 0.60011 0.39051 0.61043 0.0
H438 H 0.56498 0.28782 0.38852 0.0
H439 H 0.62337 0.4173 0.31402 0.0
H440 H 0.60443 0.34653 0.55119 0.0
H441 H 0.62848 0.34043 0.2071 0.0
C442 C 0.60106 0.31044 0.19349 0.0
C443 C 0.58158 0.29671 0.24209 0.0
C444 C 0.60928 0.36202 0.5 0.0
C445 C 0.60957 0.3325 0.35076 0.0
C446 C 0.60668 0.38714 0.53351 0.0
C447 C 0.61047 0.40761 0.46583 0.0
C448 C 0.61559 0.35739 0.39799 0.0
C449 C 0.61983 0.40215 0.36835 0.0
C450 C 0.61525 0.32827 0.24782 0.0
C451 C 0.57955 0.2984 0.3481 0.0
N452 N 0.62147 0.37754 0.33656 0.0
N453 N 0.59278 0.31666 0.39864 0.0
H454 H 0.25878 0.57762 0.36522 0.0
H455 H 0.1214 0.62088 0.27294 0.0
H456 H 0.2324 0.60562 0.07435 0.0
H457 H 0.15416 0.61835 0.57484 0.0
H458 H 0.16401 0.62599 0.20293 0.0
H459 H 0.22536 0.60273 0.44831 0.0
C460 C 0.24668 0.58998 0.31915 0.0
C461 C 0.24777 0.58899 0.21274 0.0
C462 C 0.16192 0.62493 0.28477 0.0
C463 C 0.20893 0.61695 0.30652 0.0
C464 C 0.13741 0.62212 0.32513 0.0
C465 C 0.13412 0.61819 0.43001 0.0
C466 C 0.18337 0.62316 0.34933 0.0
C467 C 0.15583 0.6201 0.49307 0.0
C468 C 0.22738 0.60418 0.36653 0.0
C469 C 0.23166 0.60539 0.15667 0.0
N470 N 0.1796 0.62167 0.45162 0.0
N471 N 0.21234 0.61806 0.20394 0.0
H472 H 0.02874 0.76242 0.13197 0.0
H473 H 0.99501 0.903 0.01588 0.0
H474 H 0.95844 0.8004 0.21452 0.0
H475 H 0.06825 0.86682 0.96387 0.0
H476 H 0.97481 0.86113 0.0168 0.0
H477 H 0.03464 0.7933 0.99496 0.0
C478 C 1.01375 0.7764 0.11752 0.0
C479 C 0.99368 0.77974 0.187 0.0
C480 C 0.99523 0.8623 1.00328 0.0
C481 C 1.00081 0.81556 0.03412 0.0
C482 C 1.00681 0.88616 1.00424 0.0
C483 C 0.03347 0.88815 0.99455 0.0
C484 C 1.01053 0.84024 0.99542 0.0
C485 C 0.04771 0.86597 0.97455 0.0
C486 C 1.01732 0.7943 0.04004 0.0
C487 C 0.97465 0.79786 0.16419 0.0
N488 N 0.03616 0.84282 0.97834 0.0
N489 N 0.97915 0.8158 0.09183 0.0
H490 H 0.74637 0.94254 0.2252 0.0
H491 H 0.67887 0.0485 0.94514 0.0
H492 H 0.78433 1.00967 0.11256 0.0
H493 H 0.64546 0.97447 0.99871 0.0
H494 H 0.72119 0.02891 0.94838 0.0
H495 H 0.716 0.94552 0.08472 0.0
C496 C 0.7491 0.95713 0.16757 0.0
C497 C 0.76701 0.97656 0.18244 0.0
C498 C 0.70463 1.01678 0.95745 0.0
C499 C 0.73168 0.98104 0.02577 0.0
C500 C 0.68036 0.02804 0.95594 0.0
C501 C 0.65862 1.01331 0.97674 0.0
C502 C 0.7072 0.99076 0.98284 0.0
C503 C 0.66181 0.98681 0.98813 0.0
C504 C 0.73156 0.95908 0.08779 0.0
C505 C 0.77015 0.99478 0.10518 0.0
N506 N 0.68567 0.97648 0.99375 0.0
N507 N 0.75189 0.99729 0.03218 0.0
H508 H 0.43505 0.74786 0.43978 0.0
H509 H 0.43742 0.66624 0.94248 0.0
H510 H 0.47218 0.76887 0.15923 0.0
H511 H 0.41804 0.63889 0.24253 0.0
H512 H 0.43145 0.71008 1.00127 0.0
H513 H 0.40993 0.71625 0.34739 0.0
C514 C 0.43716 0.74652 0.358 0.0
C515 C 0.45642 0.76024 0.30766 0.0
C516 C 0.42777 0.69446 0.05341 0.0
C517 C 0.42814 0.72402 0.20221 0.0
C518 C 0.43131 0.66944 0.02011 0.0
C519 C 0.4292 0.64896 0.08887 0.0
C520 C 0.42229 0.69897 0.15627 0.0
C521 C 0.42035 0.65412 0.18739 0.0
C522 C 0.4229 0.72842 0.30538 0.0
C523 C 0.45794 0.75829 0.20148 0.0
N524 N 0.41786 0.67867 0.21894 0.0
N525 N 0.44457 0.73987 0.1526 0.0
H526 H 0.78214 0.48171 0.16947 0.0
H527 H 0.91286 0.41388 0.22598 0.0
H528 H 0.80547 0.43835 0.43364 0.0
H529 H 0.88686 0.45209 0.95301 0.0
H530 H 0.86837 0.40891 0.27875 0.0
H531 H 0.81262 0.45749 0.06714 0.0
C532 C 0.79292 0.46634 0.20511 0.0
C533 C 0.79203 0.46259 0.31065 0.0
C534 C 0.87229 0.41778 0.20591 0.0
C535 C 0.82761 0.43553 0.19532 0.0
C536 C 0.89775 0.42052 0.1756 0.0
C537 C 0.90352 0.43428 0.08696 0.0
C538 C 0.85264 0.4293 0.14791 0.0
C539 C 0.88319 0.44223 0.02404 0.0
C540 C 0.81055 0.45262 0.14684 0.0
C541 C 0.80626 0.44232 0.3528 0.0
N542 N 0.85867 0.44025 0.05698 0.0
N543 N 0.8241 0.43007 0.29568 0.0
H544 H 0.99697 0.23547 0.88455 0.0
H545 H 0.05361 0.09535 0.99119 0.0
H546 H 0.04432 0.21671 0.14289 0.0
H547 H 1.00753 0.11472 0.72894 0.0
H548 H 0.05425 0.14047 0.03829 0.0
H549 H 1.00557 0.193 0.81403 0.0
C550 C 1.01013 0.22277 0.92416 0.0
C551 C 0.02047 0.22988 0.01849 0.0
C552 C 0.04415 0.13491 0.96994 0.0
C553 C 0.02936 0.18056 0.94104 0.0
C554 C 0.0437 0.10904 0.943 0.0
C555 C 0.0304 0.10098 0.85577 0.0
C556 C 0.03113 0.15309 0.90973 0.0
C557 C 1.01806 0.11985 0.79656 0.0
C558 C 1.01469 0.19832 0.88481 0.0
C559 C 0.03653 0.21225 0.06873 0.0
N560 N 1.01859 0.14488 0.82487 0.0
N561 N 0.04021 0.18836 0.03017 0.0
H562 H 0.32787 0.04114 0.10994 0.0
H563 H 0.43057 1.01027 0.67251 0.0
H564 H 0.3103 0.9982 0.84064 0.0
H565 H 0.45037 0.04089 0.96644 0.0
H566 H 0.38526 1.01215 0.71997 0.0
H567 H 0.37101 0.04904 0.04305 0.0
C568 C 0.33273 0.03439 0.03457 0.0
C569 C 0.31533 0.01944 0.9798 0.0
C570 C 0.39951 0.01859 0.77389 0.0
C571 C 0.36503 0.02737 0.9045 0.0
C572 C 0.42546 1.01749 0.7469 0.0
C573 C 0.44451 0.02527 0.81571 0.0
C574 C 0.39235 0.0277 0.87028 0.0
C575 C 0.4365 0.03447 0.91099 0.0
C576 C 0.35752 0.03846 0.99719 0.0
C577 C 0.32297 1.01027 0.88422 0.0
N578 N 0.41114 0.03538 0.93537 0.0
N579 N 0.34728 1.01414 0.85012 0.0
H580 H 0.52709 0.31248 0.87845 0.0
H581 H 0.51396 0.43668 0.69626 0.0
H582 H 0.4934 0.33983 0.15598 0.0
H583 H 0.50036 0.45663 0.00961 0.0
H584 H 0.50945 0.39185 0.74023 0.0
H585 H 0.5207 0.35444 0.80174 0.0
C586 C 0.51711 0.32709 0.92136 0.0
C587 C 0.51015 0.32252 0.02263 0.0
C588 C 0.50771 0.40579 0.80021 0.0
C589 C 0.50336 0.37137 0.93687 0.0
C590 C 0.51013 0.43162 0.77471 0.0
C591 C 0.50792 0.45059 0.84952 0.0
C592 C 0.50336 0.39862 0.90202 0.0
C593 C 0.50243 0.44275 0.9494 0.0
C594 C 0.51364 0.35134 0.87794 0.0
C595 C 0.49841 0.34244 0.07674 0.0
N596 N 0.50056 0.41743 0.97272 0.0
N597 N 0.49572 0.36603 0.03377 0.0
H598 H 0.21948 0.49182 0.14457 0.0
H599 H 0.11824 0.52291 0.70362 0.0
H600 H 0.23803 0.53192 0.86827 0.0
H601 H 0.09833 0.48862 0.99175 0.0
H602 H 0.16353 0.51888 0.74859 0.0
H603 H 0.17724 0.48177 0.07389 0.0
C604 C 0.2151 0.49738 0.06694 0.0
C605 C 0.23241 0.51232 0.01141 0.0
C606 C 0.14929 0.51199 0.80162 0.0
C607 C 0.18365 0.50209 0.93173 0.0
C608 C 0.12333 0.51431 0.77602 0.0
C609 C 0.10428 0.50635 0.84439 0.0
C610 C 0.15642 0.50164 0.89648 0.0
C611 C 0.11224 0.49523 0.93685 0.0
C612 C 0.1908 0.49209 0.02725 0.0
C613 C 0.22541 0.51993 0.91264 0.0
N614 N 0.13763 0.49341 0.96045 0.0
N615 N 0.20146 0.51508 0.87658 0.0
H616 H 0.04801 0.82531 0.39881 0.0
H617 H 1.01114 0.92702 0.82986 0.0
H618 H 0.99688 0.8056 0.64309 0.0
H619 H 0.03473 0.9472 0.52628 0.0
H620 H 1.01225 0.88152 0.78119 0.0
H621 H 0.05133 0.86855 0.46669 0.0
C622 C 0.03809 0.8299 0.46878 0.0
C623 C 0.0223 0.81168 0.51568 0.0
C624 C 1.0173 0.89595 0.72574 0.0
C625 C 0.02553 0.86168 0.59303 0.0
C626 C 1.01673 0.92188 0.75332 0.0
C627 C 0.02288 0.941 0.68207 0.0
C628 C 0.02467 0.889 0.62683 0.0
C629 C 0.02969 0.93322 0.58363 0.0
C630 C 0.03971 0.85472 0.50674 0.0
C631 C 1.00954 0.81889 0.6053 0.0
N632 N 0.03059 0.90794 0.55934 0.0
N633 N 1.01128 0.84338 0.64079 0.0
H634 H 0.72407 0.04009 0.38038 0.0
H635 H 0.61601 1.00355 0.78864 0.0
H636 H 0.73879 0.98685 0.62437 0.0
H637 H 0.59996 0.03459 0.49096 0.0
H638 H 0.66202 1.00327 0.74784 0.0
H639 H 0.68014 0.04562 0.44155 0.0
C640 C 0.71827 0.03026 0.44922 0.0
C641 C 0.73527 1.0133 0.49828 0.0
C642 C 0.64843 1.01025 0.69176 0.0
C643 C 0.6845 0.01886 0.56719 0.0
C644 C 0.62218 1.0105 0.71501 0.0
C645 C 0.60405 0.01922 0.64328 0.0
C646 C 0.65676 0.01918 0.5965 0.0
C647 C 0.61316 0.02759 0.54847 0.0
C648 C 0.69305 0.0331 0.48319 0.0
C649 C 0.72649 1.00048 0.58551 0.0
N650 N 0.63878 0.0275 0.5282 0.0
N651 N 0.70166 1.00338 0.61687 0.0
H652 H 0.50438 0.7436 0.67046 0.0
H653 H 0.55344 0.60221 0.55742 0.0
H654 H 0.55054 0.72474 0.41022 0.0
H655 H 0.51962 0.62482 0.8427 0.0
H656 H 0.55549 0.6473 0.50723 0.0
H657 H 0.51349 0.70126 0.7426 0.0
C658 C 0.51733 0.73087 0.63063 0.0
C659 C 0.52718 0.73786 0.53538 0.0
C660 C 0.54787 0.6424 0.58127 0.0
C661 C 0.53662 0.68875 0.6145 0.0
C662 C 0.54663 0.6166 0.60994 0.0
C663 C 0.53614 0.60952 0.70426 0.0
C664 C 0.53834 0.66137 0.64687 0.0
C665 C 0.52771 0.62917 0.76902 0.0
C666 C 0.52225 0.70654 0.671 0.0
C667 C 0.54308 0.72029 0.48497 0.0
N668 N 0.52876 0.65405 0.73879 0.0
N669 N 0.54697 0.69642 0.52424 0.0
H670 H 0.80966 0.50055 0.6909 0.0
H671 H 0.94898 0.55561 0.58691 0.0
H672 H 0.8258 0.55372 0.44924 0.0
H673 H 0.92916 0.51497 0.86166 0.0
H674 H 0.90349 0.55763 0.54133 0.0
H675 H 0.85209 0.50878 0.76381 0.0
C676 C 0.82178 0.51478 0.65571 0.0
C677 C 0.81402 0.52692 0.56532 0.0
C678 C 0.90905 0.54851 0.61217 0.0
C679 C 0.86321 0.53546 0.64486 0.0
C680 C 0.93509 0.54728 0.63816 0.0
C681 C 0.94307 0.53498 0.72811 0.0
C682 C 0.89074 0.53709 0.67587 0.0
C683 C 0.92405 0.52462 0.79149 0.0
C684 C 0.84616 0.51923 0.6964 0.0
C685 C 0.83084 0.54444 0.52037 0.0
N686 N 0.8989 0.52567 0.76369 0.0
N687 N 0.85476 0.54789 0.5596 0.0
loop_
_geom_bond_atom_site_label_1
_geom_bond_atom_site_label_2
_geom_bond_distance
_geom_bond_site_symmetry_2
_ccdc_geom_bond_type
H0 C5 0.930 . S
H1 C8 0.930 . S
H2 C10 0.930 . S
H3 C4 1.016 . S
C4 H3 1.016 . S
C4 N11 1.286 . S
C5 H0 0.930 . S
C5 C6 1.397 . S
C5 C7 1.361 . S
C6 C5 1.397 . S
C6 C10 1.390 . S
C7 C5 1.361 . S
C7 C8 1.393 . S
C7 N11 1.413 . S
C8 H1 0.930 . S
C8 C7 1.393 . S
C8 C9 1.399 . S
C9 C8 1.399 . S
C9 C10 1.381 . S
C10 H2 0.930 . S
C10 C6 1.390 . S
C10 C9 1.381 . S
N11 C4 1.286 . S
N11 C7 1.413 . S
H12 C17 0.930 . S
H13 C20 0.930 . S
H14 C22 0.930 . S
H15 C16 1.029 . S
C16 H15 1.029 . S
C16 N23 1.268 1_655 S
C17 H12 0.930 . S
C17 C18 1.397 . S
C17 C19 1.361 . S
C18 C17 1.397 . S
C18 C22 1.390 1_455 S
C19 C17 1.361 . S
C19 C20 1.393 . S
C19 N23 1.413 . S
C20 H13 0.930 . S
C20 C19 1.393 . S
C20 C21 1.402 . S
C21 C20 1.402 . S
C21 C22 1.379 1_455 S
C22 H14 0.930 . S
C22 C18 1.390 1_655 S
C22 C21 1.379 1_655 S
N23 C16 1.268 1_455 S
N23 C19 1.413 . S
H24 C29 0.930 . S
H25 C32 0.930 . S
H26 C34 0.930 . S
H27 C28 1.029 . S
C28 H27 1.029 . S
C28 N35 1.268 1_565 S
C29 H24 0.930 . S
C29 C30 1.397 . S
C29 C31 1.361 . S
C30 C29 1.397 . S
C30 C34 1.390 1_545 S
C31 C29 1.361 . S
C31 C32 1.393 . S
C31 N35 1.413 . S
C32 H25 0.930 . S
C32 C31 1.393 . S
C32 C33 1.402 . S
C33 C32 1.402 . S
C33 C34 1.379 1_545 S
C34 H26 0.930 . S
C34 C30 1.390 1_565 S
C34 C33 1.379 1_565 S
N35 C28 1.268 1_545 S
N35 C31 1.413 . S
H36 C41 0.930 . S
H37 C44 0.930 . S
H38 C46 0.930 . S
H39 C40 1.016 . S
C40 H39 1.016 . S
C40 N47 1.286 . S
C41 H36 0.930 . S
C41 C42 1.397 . S
C41 C43 1.361 . S
C42 C41 1.397 . S
C42 C46 1.390 . S
C43 C41 1.361 . S
C43 C44 1.393 . S
C43 N47 1.413 . S
C44 H37 0.930 . S
C44 C43 1.393 . S
C44 C45 1.399 . S
C45 C44 1.399 . S
C45 C46 1.381 . S
C46 H38 0.930 . S
C46 C42 1.390 . S
C46 C45 1.381 . S
N47 C40 1.286 . S
N47 C43 1.413 . S
H48 C53 0.930 . S
H49 C56 0.930 . S
H50 C58 0.930 1_556 S
H51 C52 1.016 . S
C52 H51 1.016 . S
C52 N59 1.286 . S
C53 H48 0.930 . S
C53 C54 1.397 . S
C53 C55 1.361 1_556 S
C54 C53 1.397 . S
C54 C58 1.390 1_556 S
C55 C53 1.361 1_554 S
C55 C56 1.393 . S
C55 N59 1.413 . S
C56 H49 0.930 . S
C56 C55 1.393 . S
C56 C57 1.399 . S
C57 C56 1.399 . S
C57 C58 1.381 . S
C58 H50 0.930 1_554 S
C58 C54 1.390 1_554 S
C58 C57 1.381 . S
N59 C52 1.286 . S
N59 C55 1.413 . S
H60 C65 0.930 . S
H61 C68 0.930 . S
H62 C70 0.930 1_556 S
H63 C64 1.026 . S
C64 H63 1.026 . S
C64 N71 1.273 1_655 S
C65 H60 0.930 . S
C65 C66 1.397 . S
C65 C67 1.361 1_556 S
C66 C65 1.397 . S
C66 C70 1.390 1_456 S
C67 C65 1.361 1_554 S
C67 C68 1.393 . S
C67 N71 1.413 . S
C68 H61 0.930 . S
C68 C67 1.393 . S
C68 C69 1.404 . S
C69 C68 1.404 . S
C69 C70 1.378 1_455 S
C70 H62 0.930 1_554 S
C70 C66 1.390 1_654 S
C70 C69 1.378 1_655 S
N71 C64 1.273 1_455 S
N71 C67 1.413 . S
H72 C77 0.930 . S
H73 C80 0.930 . S
H74 C82 0.930 1_556 S
H75 C76 1.026 . S
C76 H75 1.026 . S
C76 N83 1.273 1_565 S
C77 H72 0.930 . S
C77 C78 1.397 . S
C77 C79 1.361 1_556 S
C78 C77 1.397 . S
C78 C82 1.390 1_546 S
C79 C77 1.361 1_554 S
C79 C80 1.393 . S
C79 N83 1.413 . S
C80 H73 0.930 . S
C80 C79 1.393 . S
C80 C81 1.404 . S
C81 C80 1.404 . S
C81 C82 1.378 1_545 S
C82 H74 0.930 1_554 S
C82 C78 1.390 1_564 S
C82 C81 1.378 1_565 S
N83 C76 1.273 1_545 S
N83 C79 1.413 . S
H84 C89 0.930 . S
H85 C92 0.930 . S
H86 C94 0.930 1_556 S
H87 C88 1.016 . S
C88 H87 1.016 . S
C88 N95 1.286 . S
C89 H84 0.930 . S
C89 C90 1.397 . S
C89 C91 1.361 1_556 S
C90 C89 1.397 . S
C90 C94 1.390 1_556 S
C91 C89 1.361 1_554 S
C91 C92 1.393 . S
C91 N95 1.413 . S
C92 H85 0.930 . S
C92 C91 1.393 . S
C92 C93 1.399 . S
C93 C92 1.399 . S
C93 C94 1.381 . S
C94 H86 0.930 1_554 S
C94 C90 1.390 1_554 S
C94 C93 1.381 . S
N95 C88 1.286 . S
N95 C91 1.413 . S
Ho96 C99 2.811 . S
Ho96 O116 2.322 . S
Ho96 O118 2.378 . S
Ho96 O119 2.531 . S
Ho96 O120 2.381 . S
Ho96 O121 2.669 1_565 S
Ho96 O123 2.346 1_565 S
Ho96 O127 2.305 1_455 S
Ho97 C108 2.811 . S
Ho97 O117 2.346 1_545 S
Ho97 O121 2.305 1_655 S
Ho97 O122 2.322 . S
Ho97 O124 2.378 . S
Ho97 O125 2.526 . S
Ho97 O126 2.381 . S
Ho97 O127 2.669 1_545 S
C98 O116 1.259 1_655 S
C98 O117 1.268 . S
C99 Ho96 2.811 . S
C99 C100 1.488 1_556 S
C99 O118 1.215 . S
C99 O119 1.305 . S
C100 C99 1.488 1_554 S
C100 C101 1.348 . S
C100 C105 1.413 . S
C101 C100 1.348 . S
C101 C102 1.442 . S
C101 H128 0.930 1_455 S
C102 C101 1.442 . S
C102 C103 1.381 . S
C102 H129 0.931 1_455 S
C103 C102 1.381 . S
C103 C104 1.321 . S
C104 C103 1.321 . S
C104 C105 1.403 . S
C104 H130 0.934 . S
C105 C100 1.413 . S
C105 C104 1.403 . S
C105 H131 0.930 1_554 S
C106 O120 1.298 . S
C106 O121 1.243 1_565 S
C107 O122 1.259 1_455 S
C107 O123 1.268 . S
C108 Ho97 2.811 . S
C108 C109 1.488 . S
C108 O124 1.215 . S
C108 O125 1.295 . S
C109 C108 1.488 . S
C109 C110 1.348 . S
C109 C114 1.413 . S
C110 C109 1.348 . S
C110 C111 1.442 . S
C110 H132 0.930 1_655 S
C111 C110 1.442 . S
C111 C112 1.381 . S
C111 H133 0.931 1_655 S
C112 C111 1.381 . S
C112 C113 1.321 . S
C113 C112 1.321 . S
C113 C114 1.403 . S
C113 H134 0.934 . S
C114 C109 1.413 . S
C114 C113 1.403 . S
C114 H135 0.930 . S
C115 O126 1.275 . S
C115 O127 1.256 1_545 S
O116 Ho96 2.322 . S
O116 C98 1.259 1_455 S
O117 Ho97 2.346 1_565 S
O117 C98 1.268 . S
O118 Ho96 2.378 . S
O118 C99 1.215 . S
O119 Ho96 2.531 . S
O119 C99 1.305 . S
O120 Ho96 2.381 . S
O120 C106 1.298 . S
O121 Ho96 2.669 1_545 S
O121 Ho97 2.305 1_455 S
O121 C106 1.243 1_545 S
O122 Ho97 2.322 . S
O122 C107 1.259 1_655 S
O123 Ho96 2.346 1_545 S
O123 C107 1.268 . S
O124 Ho97 2.378 . S
O124 C108 1.215 . S
O125 Ho97 2.526 . S
O125 C108 1.295 . S
O126 Ho97 2.381 . S
O126 C115 1.275 . S
O127 Ho96 2.305 1_655 S
O127 Ho97 2.669 1_565 S
O127 C115 1.256 1_565 S
H128 C101 0.930 1_655 S
H129 C102 0.931 1_655 S
H130 C104 0.934 . S
H131 C105 0.930 1_556 S
H132 C110 0.930 1_455 S
H133 C111 0.931 1_455 S
H134 C113 0.934 . S
H135 C114 0.930 . S
Ho136 C139 2.811 . S
Ho136 O156 2.322 . S
Ho136 O158 2.378 . S
Ho136 O159 2.528 . S
Ho136 O160 2.381 . S
Ho136 O161 2.669 . S
Ho136 O163 2.346 . S
Ho136 O167 2.305 1_545 S
Ho137 C148 2.811 . S
Ho137 O157 2.346 . S
Ho137 O161 2.305 1_565 S
Ho137 O162 2.322 . S
Ho137 O164 2.378 . S
Ho137 O165 2.524 . S
Ho137 O166 2.381 . S
Ho137 O167 2.669 . S
C138 O156 1.259 1_565 S
C138 O157 1.268 . S
C139 Ho136 2.811 . S
C139 C140 1.488 1_556 S
C139 O158 1.215 . S
C139 O159 1.300 . S
C140 C139 1.488 1_554 S
C140 C141 1.348 . S
C140 C145 1.413 . S
C141 C140 1.348 . S
C141 C142 1.442 . S
C141 H168 0.930 1_545 S
C142 C141 1.442 . S
C142 C143 1.381 . S
C142 H169 0.931 1_545 S
C143 C142 1.381 . S
C143 C144 1.321 . S
C144 C143 1.321 . S
C144 C145 1.403 . S
C144 H170 0.934 . S
C145 C140 1.413 . S
C145 C144 1.403 . S
C145 H171 0.930 1_554 S
C146 O160 1.275 . S
C146 O161 1.256 . S
C147 O162 1.259 1_545 S
C147 O163 1.268 . S
C148 Ho137 2.811 . S
C148 C149 1.488 . S
C148 O164 1.215 . S
C148 O165 1.290 . S
C149 C148 1.488 . S
C149 C150 1.348 . S
C149 C154 1.413 . S
C150 C149 1.348 . S
C150 C151 1.442 . S
C150 H172 0.930 1_565 S
C151 C150 1.442 . S
C151 C152 1.381 . S
C151 H173 0.931 1_565 S
C152 C151 1.381 . S
C152 C153 1.321 . S
C153 C152 1.321 . S
C153 C154 1.403 . S
C153 H174 0.934 . S
C154 C149 1.413 . S
C154 C153 1.403 . S
C154 H175 0.930 . S
C155 O166 1.275 . S
C155 O167 1.256 . S
O156 Ho136 2.322 . S
O156 C138 1.259 1_545 S
O157 Ho137 2.346 . S
O157 C138 1.268 . S
O158 Ho136 2.378 . S
O158 C139 1.215 . S
O159 Ho136 2.528 . S
O159 C139 1.300 . S
O160 Ho136 2.381 . S
O160 C146 1.275 . S
O161 Ho136 2.669 . S
O161 Ho137 2.305 1_545 S
O161 C146 1.256 . S
O162 Ho137 2.322 . S
O162 C147 1.259 1_565 S
O163 Ho136 2.346 . S
O163 C147 1.268 . S
O164 Ho137 2.378 . S
O164 C148 1.215 . S
O165 Ho137 2.524 . S
O165 C148 1.290 . S
O166 Ho137 2.381 . S
O166 C155 1.275 . S
O167 Ho136 2.305 1_565 S
O167 Ho137 2.669 . S
O167 C155 1.256 . S
H168 C141 0.930 1_565 S
H169 C142 0.931 1_565 S
H170 C144 0.934 . S
H171 C145 0.930 1_556 S
H172 C150 0.930 1_545 S
H173 C151 0.931 1_545 S
H174 C153 0.934 . S
H175 C154 0.930 . S
Ho176 C179 2.811 . S
Ho176 O196 2.322 . S
Ho176 O198 2.378 . S
Ho176 O199 2.524 . S
Ho176 O200 2.381 . S
Ho176 O201 2.669 . S
Ho176 O203 2.346 . S
Ho176 O207 2.305 . S
Ho177 C188 2.811 . S
Ho177 O197 2.346 . S
Ho177 O201 2.305 . S
Ho177 O202 2.322 . S
Ho177 O204 2.378 . S
Ho177 O205 2.524 . S
Ho177 O206 2.381 . S
Ho177 O207 2.669 . S
C178 O196 1.259 . S
C178 O197 1.268 . S
C179 Ho176 2.811 . S
C179 C180 1.488 1_556 S
C179 O198 1.215 . S
C179 O199 1.289 . S
C180 C179 1.488 1_554 S
C180 C181 1.348 . S
C180 C185 1.413 . S
C181 C180 1.348 . S
C181 C182 1.442 . S
C181 H208 0.930 . S
C182 C181 1.442 . S
C182 C183 1.381 . S
C182 H209 0.931 . S
C183 C182 1.381 . S
C183 C184 1.321 . S
C184 C183 1.321 . S
C184 C185 1.403 . S
C184 H210 0.934 . S
C185 C180 1.413 . S
C185 C184 1.403 . S
C185 H211 0.930 1_554 S
C186 O200 1.275 . S
C186 O201 1.256 . S
C187 O202 1.259 . S
C187 O203 1.268 . S
C188 Ho177 2.811 . S
C188 C189 1.488 . S
C188 O204 1.215 . S
C188 O205 1.289 . S
C189 C188 1.488 . S
C189 C190 1.348 . S
C189 C194 1.413 . S
C190 C189 1.348 . S
C190 C191 1.442 . S
C190 H212 0.930 . S
C191 C190 1.442 . S
C191 C192 1.381 . S
C191 H213 0.931 . S
C192 C191 1.381 . S
C192 C193 1.321 . S
C193 C192 1.321 . S
C193 C194 1.403 . S
C193 H214 0.934 . S
C194 C189 1.413 . S
C194 C193 1.403 . S
C194 H215 0.930 . S
C195 O206 1.275 . S
C195 O207 1.256 . S
O196 Ho176 2.322 . S
O196 C178 1.259 . S
O197 Ho177 2.346 . S
O197 C178 1.268 . S
O198 Ho176 2.378 . S
O198 C179 1.215 . S
O199 Ho176 2.524 . S
O199 C179 1.289 . S
O200 Ho176 2.381 . S
O200 C186 1.275 . S
O201 Ho176 2.669 . S
O201 Ho177 2.305 . S
O201 C186 1.256 . S
O202 Ho177 2.322 . S
O202 C187 1.259 . S
O203 Ho176 2.346 . S
O203 C187 1.268 . S
O204 Ho177 2.378 . S
O204 C188 1.215 . S
O205 Ho177 2.524 . S
O205 C188 1.289 . S
O206 Ho177 2.381 . S
O206 C195 1.275 . S
O207 Ho176 2.305 . S
O207 Ho177 2.669 . S
O207 C195 1.256 . S
H208 C181 0.930 . S
H209 C182 0.931 . S
H210 C184 0.934 . S
H211 C185 0.930 1_556 S
H212 C190 0.930 . S
H213 C191 0.931 . S
H214 C193 0.934 . S
H215 C194 0.930 . S
Ho216 C219 2.811 . S
Ho216 O236 2.322 . S
Ho216 O238 2.378 . S
Ho216 O239 2.524 . S
Ho216 O240 2.381 . S
Ho216 O241 2.669 1_655 S
Ho216 O243 2.346 1_655 S
Ho216 O247 2.305 . S
Ho217 C228 2.811 . S
Ho217 O237 2.346 1_455 S
Ho217 O241 2.305 . S
Ho217 O242 2.322 . S
Ho217 O244 2.378 . S
Ho217 O245 2.524 . S
Ho217 O246 2.381 . S
Ho217 O247 2.669 1_455 S
C218 O236 1.259 . S
C218 O237 1.268 . S
C219 Ho216 2.811 . S
C219 C220 1.488 1_556 S
C219 O238 1.215 . S
C219 O239 1.289 . S
C220 C219 1.488 1_554 S
C220 C221 1.348 . S
C220 C225 1.413 . S
C221 C220 1.348 . S
C221 C222 1.442 . S
C221 H248 0.930 . S
C222 C221 1.442 . S
C222 C223 1.381 . S
C222 H249 0.931 . S
C223 C222 1.381 . S
C223 C224 1.321 . S
C224 C223 1.321 . S
C224 C225 1.403 . S
C224 H250 0.934 . S
C225 C220 1.413 . S
C225 C224 1.403 . S
C225 H251 0.930 1_554 S
C226 O240 1.291 . S
C226 O241 1.247 1_655 S
C227 O242 1.259 . S
C227 O243 1.268 . S
C228 Ho217 2.811 . S
C228 C229 1.488 . S
C228 O244 1.215 . S
C228 O245 1.289 . S
C229 C228 1.488 . S
C229 C230 1.348 . S
C229 C234 1.413 . S
C230 C229 1.348 . S
C230 C231 1.442 . S
C230 H252 0.930 . S
C231 C230 1.442 . S
C231 C232 1.381 . S
C231 H253 0.931 . S
C232 C231 1.381 . S
C232 C233 1.321 . S
C233 C232 1.321 . S
C233 C234 1.403 . S
C233 H254 0.934 . S
C234 C229 1.413 . S
C234 C233 1.403 . S
C234 H255 0.930 . S
C235 O246 1.296 . S
C235 O247 1.244 1_455 S
O236 Ho216 2.322 . S
O236 C218 1.259 . S
O237 Ho217 2.346 1_655 S
O237 C218 1.268 . S
O238 Ho216 2.378 . S
O238 C219 1.215 . S
O239 Ho216 2.524 . S
O239 C219 1.289 . S
O240 Ho216 2.381 . S
O240 C226 1.291 . S
O241 Ho216 2.669 1_455 S
O241 Ho217 2.305 . S
O241 C226 1.247 1_455 S
O242 Ho217 2.322 . S
O242 C227 1.259 . S
O243 Ho216 2.346 1_455 S
O243 C227 1.268 . S
O244 Ho217 2.378 . S
O244 C228 1.215 . S
O245 Ho217 2.524 . S
O245 C228 1.289 . S
O246 Ho217 2.381 . S
O246 C235 1.296 . S
O247 Ho216 2.305 . S
O247 Ho217 2.669 1_655 S
O247 C235 1.244 1_655 S
H248 C221 0.930 . S
H249 C222 0.931 . S
H250 C224 0.934 . S
H251 C225 0.930 1_556 S
H252 C230 0.930 . S
H253 C231 0.931 . S
H254 C233 0.934 . S
H255 C234 0.930 . S
H256 C262 0.930 . S
H257 C266 0.930 . S
H258 C271 0.929 . S
H259 C269 0.929 . S
H260 C264 0.929 . S
H261 C270 0.929 . S
C262 H256 0.930 . S
C262 C263 1.399 . S
C262 C270 1.378 . S
C263 C262 1.399 . S
C263 C271 1.401 1_545 S
C264 H260 0.929 . S
C264 C266 1.378 . S
C264 C268 1.344 1_565 S
C265 C268 1.463 . S
C265 C270 1.350 . S
C265 N273 1.427 1_545 S
C266 H257 0.930 . S
C266 C264 1.378 . S
C266 C267 1.330 1_565 S
C267 C266 1.330 1_545 S
C267 C269 1.470 . S
C268 C264 1.344 1_545 S
C268 C265 1.463 . S
C268 N272 1.434 . S
C269 H259 0.929 . S
C269 C267 1.470 . S
C269 N272 1.384 . S
C270 H261 0.929 . S
C270 C262 1.378 . S
C270 C265 1.350 . S
C271 H258 0.929 . S
C271 C263 1.401 1_565 S
C271 N273 1.384 . S
N272 C268 1.434 . S
N272 C269 1.384 . S
N273 C265 1.427 1_565 S
N273 C271 1.384 . S
H274 C280 0.930 . S
H275 C284 0.930 . S
H276 C289 0.929 . S
H277 C287 0.929 . S
H278 C282 0.929 . S
H279 C288 0.929 . S
C280 H274 0.930 . S
C280 C281 1.367 . S
C280 C288 1.378 . S
C281 C280 1.367 . S
C281 C289 1.433 . S
C282 H278 0.929 . S
C282 C284 1.378 . S
C282 C286 1.350 . S
C283 C286 1.463 . S
C283 C288 1.350 . S
C283 N291 1.427 . S
C284 H275 0.930 . S
C284 C282 1.378 . S
C284 C285 1.367 . S
C285 C284 1.367 . S
C285 C287 1.433 . S
C286 C282 1.350 . S
C286 C283 1.463 . S
C286 N290 1.427 . S
C287 H277 0.929 . S
C287 C285 1.433 . S
C287 N290 1.384 . S
C288 H279 0.929 . S
C288 C280 1.378 . S
C288 C283 1.350 . S
C289 H276 0.929 . S
C289 C281 1.433 . S
C289 N291 1.384 . S
N290 C286 1.427 . S
N290 C287 1.384 . S
N291 C283 1.427 . S
N291 C289 1.384 . S
H292 C298 0.930 . S
H293 C302 0.930 . S
H294 C307 0.929 . S
H295 C305 0.929 . S
H296 C300 0.929 . S
H297 C306 0.929 . S
C298 H292 0.930 . S
C298 C299 1.367 . S
C298 C306 1.378 . S
C299 C298 1.367 . S
C299 C307 1.433 . S
C300 H296 0.929 . S
C300 C302 1.378 . S
C300 C304 1.350 . S
C301 C304 1.463 . S
C301 C306 1.350 . S
C301 N309 1.427 . S
C302 H293 0.930 . S
C302 C300 1.378 . S
C302 C303 1.367 . S
C303 C302 1.367 . S
C303 C305 1.433 . S
C304 C300 1.350 . S
C304 C301 1.463 . S
C304 N308 1.427 . S
C305 H295 0.929 . S
C305 C303 1.433 . S
C305 N308 1.384 . S
C306 H297 0.929 . S
C306 C298 1.378 . S
C306 C301 1.350 . S
C307 H294 0.929 . S
C307 C299 1.433 . S
C307 N309 1.384 . S
N308 C304 1.427 . S
N308 C305 1.384 . S
N309 C301 1.427 . S
N309 C307 1.384 . S
H310 C316 0.930 . S
H311 C320 0.930 . S
H312 C325 0.929 . S
H313 C323 0.929 . S
H314 C318 0.929 . S
H315 C324 0.929 . S
C316 H310 0.930 . S
C316 C317 1.400 . S
C316 C324 1.378 . S
C317 C316 1.400 . S
C317 C325 1.400 1_455 S
C318 H314 0.929 . S
C318 C320 1.378 . S
C318 C322 1.336 1_655 S
C319 C322 1.463 . S
C319 C324 1.350 . S
C319 N327 1.427 1_455 S
C320 H311 0.930 . S
C320 C318 1.378 . S
C320 C321 1.367 1_655 S
C321 C320 1.367 1_455 S
C321 C323 1.433 . S
C322 C318 1.336 1_455 S
C322 C319 1.463 . S
C322 N326 1.441 . S
C323 H313 0.929 . S
C323 C321 1.433 . S
C323 N326 1.384 . S
C324 H315 0.929 . S
C324 C316 1.378 . S
C324 C319 1.350 . S
C325 H312 0.929 . S
C325 C317 1.400 1_655 S
C325 N327 1.384 . S
N326 C322 1.441 . S
N326 C323 1.384 . S
N327 C319 1.427 1_655 S
N327 C325 1.384 . S
H328 C334 0.930 . S
H329 C338 0.930 . S
H330 C343 0.929 . S
H331 C341 0.929 . S
H332 C336 0.929 . S
H333 C342 0.929 . S
C334 H328 0.930 . S
C334 C335 1.378 . S
C334 C342 1.378 . S
C335 C334 1.378 . S
C335 C343 1.421 1_545 S
C336 H332 0.929 . S
C336 C338 1.378 1_554 S
C336 C340 1.350 . S
C337 C340 1.462 1_545 S
C337 C342 1.352 . S
C337 N345 1.425 1_545 S
C338 H329 0.930 . S
C338 C336 1.378 1_556 S
C338 C339 1.367 . S
C339 C338 1.367 . S
C339 C341 1.433 1_565 S
C340 C336 1.350 . S
C340 C337 1.462 1_565 S
C340 N344 1.427 1_565 S
C341 H331 0.929 . S
C341 C339 1.433 1_545 S
C341 N344 1.384 1_556 S
C342 H333 0.929 . S
C342 C334 1.378 . S
C342 C337 1.352 . S
C343 H330 0.929 . S
C343 C335 1.421 1_565 S
C343 N345 1.384 . S
N344 C340 1.427 1_545 S
N344 C341 1.384 1_554 S
N345 C337 1.425 1_565 S
N345 C343 1.384 . S
H346 C352 0.930 . S
H347 C356 0.930 . S
H348 C361 0.929 . S
H349 C359 0.929 . S
H350 C354 0.929 . S
H351 C360 0.929 . S
C352 H346 0.930 . S
C352 C353 1.367 . S
C352 C360 1.378 . S
C353 C352 1.367 . S
C353 C361 1.433 . S
C354 H350 0.929 . S
C354 C356 1.378 . S
C354 C358 1.350 1_556 S
C355 C358 1.463 . S
C355 C360 1.350 . S
C355 N363 1.427 . S
C356 H347 0.930 . S
C356 C354 1.378 . S
C356 C357 1.367 . S
C357 C356 1.367 . S
C357 C359 1.433 1_556 S
C358 C354 1.350 1_554 S
C358 C355 1.463 . S
C358 N362 1.427 . S
C359 H349 0.929 . S
C359 C357 1.433 1_554 S
C359 N362 1.384 . S
C360 H351 0.929 . S
C360 C352 1.378 . S
C360 C355 1.350 . S
C361 H348 0.929 . S
C361 C353 1.433 . S
C361 N363 1.384 . S
N362 C358 1.427 . S
N362 C359 1.384 . S
N363 C355 1.427 . S
N363 C361 1.384 . S
H364 C370 0.930 . S
H365 C374 0.930 . S
H366 C379 0.929 . S
H367 C377 0.929 . S
H368 C372 0.929 . S
H369 C378 0.929 . S
C370 H364 0.930 . S
C370 C371 1.367 . S
C370 C378 1.378 . S
C371 C370 1.367 . S
C371 C379 1.433 . S
C372 H368 0.929 . S
C372 C374 1.378 1_554 S
C372 C376 1.350 . S
C373 C376 1.463 . S
C373 C378 1.350 . S
C373 N381 1.427 . S
C374 H365 0.930 . S
C374 C372 1.378 1_556 S
C374 C375 1.367 . S
C375 C374 1.367 . S
C375 C377 1.433 . S
C376 C372 1.350 . S
C376 C373 1.463 . S
C376 N380 1.427 . S
C377 H367 0.929 . S
C377 C375 1.433 . S
C377 N380 1.384 1_556 S
C378 H369 0.929 . S
C378 C370 1.378 . S
C378 C373 1.350 . S
C379 H366 0.929 . S
C379 C371 1.433 . S
C379 N381 1.384 . S
N380 C376 1.427 . S
N380 C377 1.384 1_554 S
N381 C373 1.427 . S
N381 C379 1.384 . S
H382 C388 0.930 . S
H383 C392 0.930 . S
H384 C397 0.929 . S
H385 C395 0.929 . S
H386 C390 0.929 . S
H387 C396 0.929 . S
C388 H382 0.930 . S
C388 C389 1.389 . S
C388 C396 1.378 . S
C389 C388 1.389 . S
C389 C397 1.412 1_655 S
C390 H386 0.929 . S
C390 C392 1.378 1_554 S
C390 C394 1.334 1_455 S
C391 C394 1.463 . S
C391 C396 1.350 . S
C391 N399 1.427 1_655 S
C392 H383 0.930 . S
C392 C390 1.378 1_556 S
C392 C393 1.367 1_455 S
C393 C392 1.367 1_655 S
C393 C395 1.433 1_556 S
C394 C390 1.334 1_655 S
C394 C391 1.463 . S
C394 N398 1.444 . S
C395 H385 0.929 . S
C395 C393 1.433 1_554 S
C395 N398 1.384 . S
C396 H387 0.929 . S
C396 C388 1.378 . S
C396 C391 1.350 . S
C397 H384 0.929 . S
C397 C389 1.412 1_455 S
C397 N399 1.384 . S
N398 C394 1.444 . S
N398 C395 1.384 . S
N399 C391 1.427 1_455 S
N399 C397 1.384 . S
H400 C406 0.930 . S
H401 C410 0.930 . S
H402 C415 0.929 . S
H403 C413 0.929 . S
H404 C408 0.929 . S
H405 C414 0.929 . S
C406 H400 0.930 . S
C406 C407 1.367 . S
C406 C414 1.378 . S
C407 C406 1.367 . S
C407 C415 1.433 1_455 S
C408 H404 0.929 . S
C408 C410 1.378 . S
C408 C412 1.350 . S
C409 C412 1.463 . S
C409 C414 1.350 1_655 S
C409 N417 1.427 . S
C410 H401 0.930 . S
C410 C408 1.378 . S
C410 C411 1.367 . S
C411 C410 1.367 . S
C411 C413 1.433 . S
C412 C408 1.350 . S
C412 C409 1.463 . S
C412 N416 1.427 . S
C413 H403 0.929 . S
C413 C411 1.433 . S
C413 N416 1.384 . S
C414 H405 0.929 . S
C414 C406 1.378 . S
C414 C409 1.350 1_455 S
C415 H402 0.929 . S
C415 C407 1.433 1_655 S
C415 N417 1.384 . S
N416 C412 1.427 . S
N416 C413 1.384 . S
N417 C409 1.427 . S
N417 C415 1.384 . S
H418 C424 0.930 . S
H419 C428 0.930 . S
H420 C433 0.929 . S
H421 C431 0.929 . S
H422 C426 0.929 . S
H423 C432 0.929 . S
C424 H418 0.930 . S
C424 C425 1.367 . S
C424 C432 1.378 1_545 S
C425 C424 1.367 . S
C425 C433 1.433 1_545 S
C426 H422 0.929 . S
C426 C428 1.378 . S
C426 C430 1.350 . S
C427 C430 1.463 . S
C427 C432 1.350 . S
C427 N435 1.427 . S
C428 H419 0.930 . S
C428 C426 1.378 . S
C428 C429 1.367 . S
C429 C428 1.367 . S
C429 C431 1.433 . S
C430 C426 1.350 . S
C430 C427 1.463 . S
C430 N434 1.427 . S
C431 H421 0.929 . S
C431 C429 1.433 . S
C431 N434 1.384 . S
C432 H423 0.929 . S
C432 C424 1.378 1_565 S
C432 C427 1.350 . S
C433 H420 0.929 . S
C433 C425 1.433 1_565 S
C433 N435 1.384 . S
N434 C430 1.427 . S
N434 C431 1.384 . S
N435 C427 1.427 . S
N435 C433 1.384 . S
H436 C442 0.930 . S
H437 C446 0.930 . S
H438 C451 0.929 . S
H439 C449 0.929 . S
H440 C444 0.929 . S
H441 C450 0.929 . S
C442 H436 0.930 . S
C442 C443 1.367 . S
C442 C450 1.378 . S
C443 C442 1.367 . S
C443 C451 1.433 . S
C444 H440 0.929 . S
C444 C446 1.378 . S
C444 C448 1.350 . S
C445 C448 1.463 . S
C445 C450 1.350 . S
C445 N453 1.427 . S
C446 H437 0.930 . S
C446 C444 1.378 . S
C446 C447 1.367 . S
C447 C446 1.367 . S
C447 C449 1.433 . S
C448 C444 1.350 . S
C448 C445 1.463 . S
C448 N452 1.427 . S
C449 H439 0.929 . S
C449 C447 1.433 . S
C449 N452 1.384 . S
C450 H441 0.929 . S
C450 C442 1.378 . S
C450 C445 1.350 . S
C451 H438 0.929 . S
C451 C443 1.433 . S
C451 N453 1.384 . S
N452 C448 1.427 . S
N452 C449 1.384 . S
N453 C445 1.427 . S
N453 C451 1.384 . S
H454 C460 0.930 . S
H455 C464 0.930 . S
H456 C469 0.929 . S
H457 C467 0.929 . S
H458 C462 0.929 . S
H459 C468 0.929 . S
C460 H454 0.930 . S
C460 C461 1.367 . S
C460 C468 1.378 . S
C461 C460 1.367 . S
C461 C469 1.433 . S
C462 H458 0.929 . S
C462 C464 1.378 . S
C462 C466 1.350 . S
C463 C466 1.463 . S
C463 C468 1.350 . S
C463 N471 1.427 . S
C464 H455 0.930 . S
C464 C462 1.378 . S
C464 C465 1.367 . S
C465 C464 1.367 . S
C465 C467 1.433 . S
C466 C462 1.350 . S
C466 C463 1.463 . S
C466 N470 1.427 . S
C467 H457 0.929 . S
C467 C465 1.433 . S
C467 N470 1.384 . S
C468 H459 0.929 . S
C468 C460 1.378 . S
C468 C463 1.350 . S
C469 H456 0.929 . S
C469 C461 1.433 . S
C469 N471 1.384 . S
N470 C466 1.427 . S
N470 C467 1.384 . S
N471 C463 1.427 . S
N471 C469 1.384 . S
H472 C478 0.930 . S
H473 C482 0.930 . S
H474 C487 0.929 . S
H475 C485 0.929 . S
H476 C480 0.929 . S
H477 C486 0.929 . S
C478 H472 0.930 . S
C478 C479 1.367 1_455 S
C478 C486 1.378 . S
C479 C478 1.367 1_655 S
C479 C487 1.433 . S
C480 H476 0.929 . S
C480 C482 1.378 . S
C480 C484 1.350 . S
C481 C484 1.463 . S
C481 C486 1.350 . S
C481 N489 1.427 1_455 S
C482 H473 0.930 . S
C482 C480 1.378 . S
C482 C483 1.367 . S
C483 C482 1.367 . S
C483 C485 1.433 . S
C484 C480 1.350 . S
C484 C481 1.463 . S
C484 N488 1.427 . S
C485 H475 0.929 . S
C485 C483 1.433 . S
C485 N488 1.384 . S
C486 H477 0.929 . S
C486 C478 1.378 . S
C486 C481 1.350 . S
C487 H474 0.929 . S
C487 C479 1.433 . S
C487 N489 1.384 . S
N488 C484 1.427 . S
N488 C485 1.384 . S
N489 C481 1.427 1_655 S
N489 C487 1.384 . S
H490 C496 0.930 . S
H491 C500 0.930 . S
H492 C505 0.929 . S
H493 C503 0.919 1_565 S
H494 C498 0.929 . S
H495 C504 0.929 . S
C496 H490 0.930 . S
C496 C497 1.367 . S
C496 C504 1.378 . S
C497 C496 1.367 . S
C497 C505 1.433 1_565 S
C498 H494 0.929 . S
C498 C500 1.378 . S
C498 C502 1.350 . S
C499 C502 1.463 . S
C499 C504 1.350 1_545 S
C499 N507 1.427 . S
C500 H491 0.930 . S
C500 C498 1.378 . S
C500 C501 1.367 . S
C501 C500 1.367 . S
C501 C503 1.433 . S
C502 C498 1.350 . S
C502 C499 1.463 . S
C502 N506 1.427 . S
C503 H493 0.919 1_545 S
C503 C501 1.433 . S
C503 N506 1.384 . S
C504 H495 0.929 . S
C504 C496 1.378 . S
C504 C499 1.350 1_565 S
C505 H492 0.929 . S
C505 C497 1.433 1_545 S
C505 N507 1.384 . S
N506 C502 1.427 . S
N506 C503 1.384 . S
N507 C499 1.427 . S
N507 C505 1.384 . S
H508 C514 0.930 . S
H509 C518 0.930 . S
H510 C523 0.929 . S
H511 C521 0.929 . S
H512 C516 0.929 . S
H513 C522 0.929 . S
C514 H508 0.930 . S
C514 C515 1.367 . S
C514 C522 1.378 . S
C515 C514 1.367 . S
C515 C523 1.433 . S
C516 H512 0.929 . S
C516 C518 1.378 . S
C516 C520 1.350 . S
C517 C520 1.463 . S
C517 C522 1.350 . S
C517 N525 1.427 . S
C518 H509 0.930 . S
C518 C516 1.378 . S
C518 C519 1.367 . S
C519 C518 1.367 . S
C519 C521 1.433 . S
C520 C516 1.350 . S
C520 C517 1.463 . S
C520 N524 1.427 . S
C521 H511 0.929 . S
C521 C519 1.433 . S
C521 N524 1.384 . S
C522 H513 0.929 . S
C522 C514 1.378 . S
C522 C517 1.350 . S
C523 H510 0.929 . S
C523 C515 1.433 . S
C523 N525 1.384 . S
N524 C520 1.427 . S
N524 C521 1.384 . S
N525 C517 1.427 . S
N525 C523 1.384 . S
H526 C532 0.930 . S
H527 C536 0.930 . S
H528 C541 0.929 . S
H529 C539 0.929 . S
H530 C534 0.929 . S
H531 C540 0.929 . S
C532 H526 0.930 . S
C532 C533 1.367 . S
C532 C540 1.378 . S
C533 C532 1.367 . S
C533 C541 1.433 . S
C534 H530 0.929 . S
C534 C536 1.378 . S
C534 C538 1.350 . S
C535 C538 1.463 . S
C535 C540 1.350 . S
C535 N543 1.427 . S
C536 H527 0.930 . S
C536 C534 1.378 . S
C536 C537 1.367 . S
C537 C536 1.367 . S
C537 C539 1.433 . S
C538 C534 1.350 . S
C538 C535 1.463 . S
C538 N542 1.427 . S
C539 H529 0.929 . S
C539 C537 1.433 . S
C539 N542 1.384 . S
C540 H531 0.929 . S
C540 C532 1.378 . S
C540 C535 1.350 . S
C541 H528 0.929 . S
C541 C533 1.433 . S
C541 N543 1.384 . S
N542 C538 1.427 . S
N542 C539 1.384 . S
N543 C535 1.427 . S
N543 C541 1.384 . S
H544 C550 0.930 1_655 S
H545 C554 0.930 . S
H546 C559 0.929 1_554 S
H547 C557 0.929 . S
H548 C552 0.929 . S
H549 C558 0.929 . S
C550 H544 0.930 1_455 S
C550 C551 1.367 . S
C550 C558 1.378 . S
C551 C550 1.367 . S
C551 C559 1.433 . S
C552 H548 0.929 . S
C552 C554 1.378 . S
C552 C556 1.350 . S
C553 C556 1.463 . S
C553 C558 1.350 . S
C553 N561 1.427 . S
C554 H545 0.930 . S
C554 C552 1.378 . S
C554 C555 1.367 . S
C555 C554 1.367 . S
C555 C557 1.433 . S
C556 C552 1.350 . S
C556 C553 1.463 . S
C556 N560 1.427 . S
C557 H547 0.929 . S
C557 C555 1.433 . S
C557 N560 1.384 . S
C558 H549 0.929 . S
C558 C550 1.378 . S
C558 C553 1.350 . S
C559 H546 0.929 1_556 S
C559 C551 1.433 . S
C559 N561 1.384 . S
N560 C556 1.427 . S
N560 C557 1.384 . S
N561 C553 1.427 . S
N561 C559 1.384 . S
H562 C568 0.930 . S
H563 C572 0.930 . S
H564 C577 0.929 . S
H565 C575 0.929 . S
H566 C570 0.929 . S
H567 C576 0.929 . S
C568 H562 0.930 . S
C568 C569 1.367 . S
C568 C576 1.378 . S
C569 C568 1.367 . S
C569 C577 1.433 1_545 S
C570 H566 0.929 . S
C570 C572 1.378 . S
C570 C574 1.350 1_565 S
C571 C574 1.463 . S
C571 C576 1.350 . S
C571 N579 1.427 1_545 S
C572 H563 0.930 . S
C572 C570 1.378 . S
C572 C573 1.367 1_565 S
C573 C572 1.367 1_545 S
C573 C575 1.433 . S
C574 C570 1.350 1_545 S
C574 C571 1.463 . S
C574 N578 1.427 . S
C575 H565 0.929 . S
C575 C573 1.433 . S
C575 N578 1.384 . S
C576 H567 0.929 . S
C576 C568 1.378 . S
C576 C571 1.350 . S
C577 H564 0.929 . S
C577 C569 1.433 1_565 S
C577 N579 1.384 . S
N578 C574 1.427 . S
N578 C575 1.384 . S
N579 C571 1.427 1_565 S
N579 C577 1.384 . S
H580 C586 0.930 . S
H581 C590 0.930 . S
H582 C595 0.929 . S
H583 C593 0.929 . S
H584 C588 0.929 . S
H585 C594 0.929 . S
C586 H580 0.930 . S
C586 C587 1.367 . S
C586 C594 1.378 . S
C587 C586 1.367 . S
C587 C595 1.433 . S
C588 H584 0.929 . S
C588 C590 1.378 . S
C588 C592 1.350 . S
C589 C592 1.463 . S
C589 C594 1.350 . S
C589 N597 1.427 . S
C590 H581 0.930 . S
C590 C588 1.378 . S
C590 C591 1.367 . S
C591 C590 1.367 . S
C591 C593 1.433 . S
C592 C588 1.350 . S
C592 C589 1.463 . S
C592 N596 1.427 . S
C593 H583 0.929 . S
C593 C591 1.433 . S
C593 N596 1.384 . S
C594 H585 0.929 . S
C594 C586 1.378 . S
C594 C589 1.350 . S
C595 H582 0.929 . S
C595 C587 1.433 . S
C595 N597 1.384 . S
N596 C592 1.427 . S
N596 C593 1.384 . S
N597 C589 1.427 . S
N597 C595 1.384 . S
H598 C604 0.930 . S
H599 C608 0.930 . S
H600 C613 0.929 . S
H601 C611 0.929 . S
H602 C606 0.929 . S
H603 C612 0.929 . S
C604 H598 0.930 . S
C604 C605 1.367 . S
C604 C612 1.378 . S
C605 C604 1.367 . S
C605 C613 1.433 . S
C606 H602 0.929 . S
C606 C608 1.378 . S
C606 C610 1.350 . S
C607 C610 1.463 . S
C607 C612 1.350 . S
C607 N615 1.427 . S
C608 H599 0.930 . S
C608 C606 1.378 . S
C608 C609 1.367 . S
C609 C608 1.367 . S
C609 C611 1.433 . S
C610 C606 1.350 . S
C610 C607 1.463 . S
C610 N614 1.427 . S
C611 H601 0.929 . S
C611 C609 1.433 . S
C611 N614 1.384 . S
C612 H603 0.929 . S
C612 C604 1.378 . S
C612 C607 1.350 . S
C613 H600 0.929 . S
C613 C605 1.433 . S
C613 N615 1.384 . S
N614 C610 1.427 . S
N614 C611 1.384 . S
N615 C607 1.427 . S
N615 C613 1.384 . S
H616 C622 0.930 . S
H617 C626 0.930 . S
H618 C631 0.929 . S
H619 C629 0.929 . S
H620 C624 0.929 1_455 S
H621 C630 0.929 . S
C622 H616 0.930 . S
C622 C623 1.367 . S
C622 C630 1.378 . S
C623 C622 1.367 . S
C623 C631 1.433 1_655 S
C624 H620 0.929 1_655 S
C624 C626 1.378 . S
C624 C628 1.350 . S
C625 C628 1.463 . S
C625 C630 1.350 . S
C625 N633 1.417 1_655 S
C626 H617 0.930 . S
C626 C624 1.378 . S
C626 C627 1.367 . S
C627 C626 1.367 . S
C627 C629 1.433 . S
C628 C624 1.350 . S
C628 C625 1.463 . S
C628 N632 1.427 . S
C629 H619 0.929 . S
C629 C627 1.433 . S
C629 N632 1.384 . S
C630 H621 0.929 . S
C630 C622 1.378 . S
C630 C625 1.350 . S
C631 H618 0.929 . S
C631 C623 1.433 1_455 S
C631 N633 1.387 . S
N632 C628 1.427 . S
N632 C629 1.384 . S
N633 C625 1.417 1_455 S
N633 C631 1.387 . S
H634 C640 0.938 . S
H635 C644 0.930 . S
H636 C649 0.929 . S
H637 C647 0.929 . S
H638 C642 0.929 . S
H639 C648 0.924 1_545 S
C640 H634 0.938 . S
C640 C641 1.363 1_545 S
C640 C648 1.375 1_545 S
C641 C640 1.363 1_565 S
C641 C649 1.433 . S
C642 H638 0.929 . S
C642 C644 1.378 . S
C642 C646 1.350 . S
C643 C646 1.463 . S
C643 C648 1.358 . S
C643 N651 1.427 . S
C644 H635 0.930 . S
C644 C642 1.378 . S
C644 C645 1.367 . S
C645 C644 1.367 . S
C645 C647 1.433 . S
C646 C642 1.350 . S
C646 C643 1.463 . S
C646 N650 1.427 . S
C647 H637 0.929 . S
C647 C645 1.433 . S
C647 N650 1.384 . S
C648 H639 0.924 1_565 S
C648 C640 1.375 1_565 S
C648 C643 1.358 . S
C649 H636 0.929 . S
C649 C641 1.433 . S
C649 N651 1.384 . S
N650 C646 1.427 . S
N650 C647 1.384 . S
N651 C643 1.427 . S
N651 C649 1.384 . S
H652 C658 0.930 . S
H653 C662 0.930 . S
H654 C667 0.929 . S
H655 C665 0.929 . S
H656 C660 0.929 . S
H657 C666 0.929 . S
C658 H652 0.930 . S
C658 C659 1.367 . S
C658 C666 1.378 . S
C659 C658 1.367 . S
C659 C667 1.433 . S
C660 H656 0.929 . S
C660 C662 1.378 . S
C660 C664 1.350 . S
C661 C664 1.463 . S
C661 C666 1.350 . S
C661 N669 1.427 . S
C662 H653 0.930 . S
C662 C660 1.378 . S
C662 C663 1.367 . S
C663 C662 1.367 . S
C663 C665 1.433 . S
C664 C660 1.350 . S
C664 C661 1.463 . S
C664 N668 1.427 . S
C665 H655 0.929 . S
C665 C663 1.433 . S
C665 N668 1.384 . S
C666 H657 0.929 . S
C666 C658 1.378 . S
C666 C661 1.350 . S
C667 H654 0.929 . S
C667 C659 1.433 . S
C667 N669 1.384 . S
N668 C664 1.427 . S
N668 C665 1.384 . S
N669 C661 1.427 . S
N669 C667 1.384 . S
H670 C676 0.930 . S
H671 C680 0.930 . S
H672 C685 0.929 . S
H673 C683 0.929 . S
H674 C678 0.929 . S
H675 C684 0.929 . S
C676 H670 0.930 . S
C676 C677 1.367 . S
C676 C684 1.378 . S
C677 C676 1.367 . S
C677 C685 1.433 . S
C678 H674 0.929 . S
C678 C680 1.378 . S
C678 C682 1.350 . S
C679 C682 1.463 . S
C679 C684 1.350 . S
C679 N687 1.427 . S
C680 H671 0.930 . S
C680 C678 1.378 . S
C680 C681 1.367 . S
C681 C680 1.367 . S
C681 C683 1.433 . S
C682 C678 1.350 . S
C682 C679 1.463 . S
C682 N686 1.427 . S
C683 H673 0.929 . S
C683 C681 1.433 . S
C683 N686 1.384 . S
C684 H675 0.929 . S
C684 C676 1.378 . S
C684 C679 1.350 . S
C685 H672 0.929 . S
C685 C677 1.433 . S
C685 N687 1.384 . S
N686 C682 1.427 . S
N686 C683 1.384 . S
N687 C679 1.427 . S
N687 C685 1.384 . S
C263 C76 1.811 1_545 S
C267 C106 1.962 1_545 S
C285 C146 1.976 . S
C281 C88 1.822 . S
C303 C186 1.980 . S
C299 C52 1.819 . S
C321 C226 1.969 1_455 S
C317 C64 1.819 1_455 S
C339 C115 1.972 1_565 S
C335 C28 1.822 1_545 S
C353 C40 1.826 . S
C357 C155 1.976 . S
C371 C4 1.825 . S
C375 C195 1.979 . S
C389 C16 1.823 . S
C393 C235 1.970 1_655 S
C411 C112 0.522 . S
C407 C69 0.536 . S
C429 C152 0.517 . S
C425 C81 0.541 . S
C447 C192 0.494 . S
C443 C93 0.506 . S
C461 C57 0.535 . S
C465 C232 0.516 . S
C479 C21 0.500 1_655 S
C483 C103 0.496 . S
C501 C143 0.529 . S
C497 C33 0.536 1_565 S
C519 C183 0.499 . S
C515 C45 0.509 . S
C533 C9 0.540 . S
C537 C223 0.530 . S
C551 C66 2.057 . S
C555 C107 2.287 . S
C569 C78 2.030 . S
C573 C147 2.277 . S
C591 C187 2.277 . S
C587 C90 2.025 . S
C609 C227 2.283 . S
C605 C54 2.034 . S
C623 C18 2.046 1_655 S
C627 C98 2.297 . S
C645 C138 2.281 . S
C641 C30 2.033 1_565 S
C663 C178 2.276 . S
C659 C42 2.045 . S
C677 C6 2.058 . S
C681 C218 2.293 . S
