# Generated by pormake.
# Topology ptr, (4,4)-cn, num edge types: 1
# Building blocks:
#     Node 0, Type 0, BuildingBlock: KUFVIS_clean_sbu_0, # of connection points: 4
#     Node 1, Type 0, BuildingBlock: KUFVIS_clean_sbu_0, # of connection points: 4
#     Node 2, Type 0, BuildingBlock: KUFVIS_clean_sbu_0, # of connection points: 4
#     Node 3, Type 0, BuildingBlock: KUFVIS_clean_sbu_0, # of connection points: 4
#     Node 4, Type 0, BuildingBlock: KUFVIS_clean_sbu_0, # of connection points: 4
#     Node 5, Type 0, BuildingBlock: KUFVIS_clean_sbu_0, # of connection points: 4
#     Node 6, Type 0, BuildingBlock: KUFVIS_clean_sbu_0, # of connection points: 4
#     Node 7, Type 0, BuildingBlock: KUFVIS_clean_sbu_0, # of connection points: 4
#     Node 8, Type 0, BuildingBlock: KUFVIS_clean_sbu_0, # of connection points: 4
#     Node 9, Type 0, BuildingBlock: KUFVIS_clean_sbu_0, # of connection points: 4
#     Node 10, Type 0, BuildingBlock: KUFVIS_clean_sbu_0, # of connection points: 4
#     Node 11, Type 0, BuildingBlock: KUFVIS_clean_sbu_0, # of connection points: 4
#     Node 12, Type 0, BuildingBlock: KUFVIS_clean_sbu_0, # of connection points: 4
#     Node 13, Type 0, BuildingBlock: KUFVIS_clean_sbu_0, # of connection points: 4
#     Node 14, Type 0, BuildingBlock: KUFVIS_clean_sbu_0, # of connection points: 4
#     Node 15, Type 0, BuildingBlock: KUFVIS_clean_sbu_0, # of connection points: 4
#     Node 16, Type 0, BuildingBlock: KUFVIS_clean_sbu_0, # of connection points: 4
#     Node 17, Type 0, BuildingBlock: KUFVIS_clean_sbu_0, # of connection points: 4
#     Node 18, Type 1, BuildingBlock: GIZVER_clean_linker_0, # of connection points: 4
#     Node 19, Type 1, BuildingBlock: GIZVER_clean_linker_0, # of connection points: 4
#     Node 20, Type 1, BuildingBlock: GIZVER_clean_linker_0, # of connection points: 4
#     Node 21, Type 1, BuildingBlock: GIZVER_clean_linker_0, # of connection points: 4
#     Node 22, Type 1, BuildingBlock: GIZVER_clean_linker_0, # of connection points: 4
#     Node 23, Type 1, BuildingBlock: GIZVER_clean_linker_0, # of connection points: 4
#     Node 24, Type 1, BuildingBlock: GIZVER_clean_linker_0, # of connection points: 4
#     Node 25, Type 1, BuildingBlock: GIZVER_clean_linker_0, # of connection points: 4
#     Node 26, Type 1, BuildingBlock: GIZVER_clean_linker_0, # of connection points: 4
#     Node 27, Type 1, BuildingBlock: GIZVER_clean_linker_0, # of connection points: 4
#     Node 28, Type 1, BuildingBlock: GIZVER_clean_linker_0, # of connection points: 4
#     Node 29, Type 1, BuildingBlock: GIZVER_clean_linker_0, # of connection points: 4
#     Node 30, Type 1, BuildingBlock: GIZVER_clean_linker_0, # of connection points: 4
#     Node 31, Type 1, BuildingBlock: GIZVER_clean_linker_0, # of connection points: 4
#     Node 32, Type 1, BuildingBlock: GIZVER_clean_linker_0, # of connection points: 4
#     Node 33, Type 1, BuildingBlock: GIZVER_clean_linker_0, # of connection points: 4
#     Node 34, Type 1, BuildingBlock: GIZVER_clean_linker_0, # of connection points: 4
#     Node 35, Type 1, BuildingBlock: GIZVER_clean_linker_0, # of connection points: 4
#     Edge 36, Type (0, 1), BuildingBlock: UVAHIK_clean_linker_0, # of connection points: 2
#     Edge 37, Type (0, 1), BuildingBlock: UVAHIK_clean_linker_0, # of connection points: 2
#     Edge 38, Type (0, 1), BuildingBlock: UVAHIK_clean_linker_0, # of connection points: 2
#     Edge 39, Type (0, 1), BuildingBlock: UVAHIK_clean_linker_0, # of connection points: 2
#     Edge 40, Type (0, 1), BuildingBlock: UVAHIK_clean_linker_0, # of connection points: 2
#     Edge 41, Type (0, 1), BuildingBlock: UVAHIK_clean_linker_0, # of connection points: 2
#     Edge 42, Type (0, 1), BuildingBlock: UVAHIK_clean_linker_0, # of connection points: 2
#     Edge 43, Type (0, 1), BuildingBlock: UVAHIK_clean_linker_0, # of connection points: 2
#     Edge 44, Type (0, 1), BuildingBlock: UVAHIK_clean_linker_0, # of connection points: 2
#     Edge 45, Type (0, 1), BuildingBlock: UVAHIK_clean_linker_0, # of connection points: 2
#     Edge 46, Type (0, 1), BuildingBlock: UVAHIK_clean_linker_0, # of connection points: 2
#     Edge 47, Type (0, 1), BuildingBlock: UVAHIK_clean_linker_0, # of connection points: 2
#     Edge 48, Type (0, 1), BuildingBlock: UVAHIK_clean_linker_0, # of connection points: 2
#     Edge 49, Type (0, 1), BuildingBlock: UVAHIK_clean_linker_0, # of connection points: 2
#     Edge 50, Type (0, 1), BuildingBlock: UVAHIK_clean_linker_0, # of connection points: 2
#     Edge 51, Type (0, 1), BuildingBlock: UVAHIK_clean_linker_0, # of connection points: 2
#     Edge 52, Type (0, 1), BuildingBlock: UVAHIK_clean_linker_0, # of connection points: 2
#     Edge 53, Type (0, 1), BuildingBlock: UVAHIK_clean_linker_0, # of connection points: 2
#     Edge 54, Type (0, 1), BuildingBlock: UVAHIK_clean_linker_0, # of connection points: 2
#     Edge 55, Type (0, 1), BuildingBlock: UVAHIK_clean_linker_0, # of connection points: 2
#     Edge 56, Type (0, 1), BuildingBlock: UVAHIK_clean_linker_0, # of connection points: 2
#     Edge 57, Type (0, 1), BuildingBlock: UVAHIK_clean_linker_0, # of connection points: 2
#     Edge 58, Type (0, 1), BuildingBlock: UVAHIK_clean_linker_0, # of connection points: 2
#     Edge 59, Type (0, 1), BuildingBlock: UVAHIK_clean_linker_0, # of connection points: 2
#     Edge 60, Type (0, 1), BuildingBlock: UVAHIK_clean_linker_0, # of connection points: 2
#     Edge 61, Type (0, 1), BuildingBlock: UVAHIK_clean_linker_0, # of connection points: 2
#     Edge 62, Type (0, 1), BuildingBlock: UVAHIK_clean_linker_0, # of connection points: 2
#     Edge 63, Type (0, 1), BuildingBlock: UVAHIK_clean_linker_0, # of connection points: 2
#     Edge 64, Type (0, 1), BuildingBlock: UVAHIK_clean_linker_0, # of connection points: 2
#     Edge 65, Type (0, 1), BuildingBlock: UVAHIK_clean_linker_0, # of connection points: 2
#     Edge 66, Type (0, 1), BuildingBlock: UVAHIK_clean_linker_0, # of connection points: 2
#     Edge 67, Type (0, 1), BuildingBlock: UVAHIK_clean_linker_0, # of connection points: 2
#     Edge 68, Type (0, 1), BuildingBlock: UVAHIK_clean_linker_0, # of connection points: 2
#     Edge 69, Type (0, 1), BuildingBlock: UVAHIK_clean_linker_0, # of connection points: 2
#     Edge 70, Type (0, 1), BuildingBlock: UVAHIK_clean_linker_0, # of connection points: 2
#     Edge 71, Type (0, 1), BuildingBlock: UVAHIK_clean_linker_0, # of connection points: 2
#     Edge 72, Type (0, 1), BuildingBlock: UVAHIK_clean_linker_0, # of connection points: 2
#     Edge 73, Type (0, 1), BuildingBlock: UVAHIK_clean_linker_0, # of connection points: 2
#     Edge 74, Type (0, 1), BuildingBlock: UVAHIK_clean_linker_0, # of connection points: 2
#     Edge 75, Type (0, 1), BuildingBlock: UVAHIK_clean_linker_0, # of connection points: 2
#     Edge 76, Type (0, 1), BuildingBlock: UVAHIK_clean_linker_0, # of connection points: 2
#     Edge 77, Type (0, 1), BuildingBlock: UVAHIK_clean_linker_0, # of connection points: 2
#     Edge 78, Type (0, 1), BuildingBlock: UVAHIK_clean_linker_0, # of connection points: 2
#     Edge 79, Type (0, 1), BuildingBlock: UVAHIK_clean_linker_0, # of connection points: 2
#     Edge 80, Type (0, 1), BuildingBlock: UVAHIK_clean_linker_0, # of connection points: 2
#     Edge 81, Type (0, 1), BuildingBlock: UVAHIK_clean_linker_0, # of connection points: 2
#     Edge 82, Type (0, 1), BuildingBlock: UVAHIK_clean_linker_0, # of connection points: 2
#     Edge 83, Type (0, 1), BuildingBlock: UVAHIK_clean_linker_0, # of connection points: 2
#     Edge 84, Type (0, 1), BuildingBlock: UVAHIK_clean_linker_0, # of connection points: 2
#     Edge 85, Type (0, 1), BuildingBlock: UVAHIK_clean_linker_0, # of connection points: 2
#     Edge 86, Type (0, 1), BuildingBlock: UVAHIK_clean_linker_0, # of connection points: 2
#     Edge 87, Type (0, 1), BuildingBlock: UVAHIK_clean_linker_0, # of connection points: 2
#     Edge 88, Type (0, 1), BuildingBlock: UVAHIK_clean_linker_0, # of connection points: 2
#     Edge 89, Type (0, 1), BuildingBlock: UVAHIK_clean_linker_0, # of connection points: 2
#     Edge 90, Type (0, 1), BuildingBlock: UVAHIK_clean_linker_0, # of connection points: 2
#     Edge 91, Type (0, 1), BuildingBlock: UVAHIK_clean_linker_0, # of connection points: 2
#     Edge 92, Type (0, 1), BuildingBlock: UVAHIK_clean_linker_0, # of connection points: 2
#     Edge 93, Type (0, 1), BuildingBlock: UVAHIK_clean_linker_0, # of connection points: 2
#     Edge 94, Type (0, 1), BuildingBlock: UVAHIK_clean_linker_0, # of connection points: 2
#     Edge 95, Type (0, 1), BuildingBlock: UVAHIK_clean_linker_0, # of connection points: 2
#     Edge 96, Type (0, 1), BuildingBlock: UVAHIK_clean_linker_0, # of connection points: 2
#     Edge 97, Type (0, 1), BuildingBlock: UVAHIK_clean_linker_0, # of connection points: 2
#     Edge 98, Type (0, 1), BuildingBlock: UVAHIK_clean_linker_0, # of connection points: 2
#     Edge 99, Type (0, 1), BuildingBlock: UVAHIK_clean_linker_0, # of connection points: 2
#     Edge 100, Type (0, 1), BuildingBlock: UVAHIK_clean_linker_0, # of connection points: 2
#     Edge 101, Type (0, 1), BuildingBlock: UVAHIK_clean_linker_0, # of connection points: 2
#     Edge 102, Type (0, 1), BuildingBlock: UVAHIK_clean_linker_0, # of connection points: 2
#     Edge 103, Type (0, 1), BuildingBlock: UVAHIK_clean_linker_0, # of connection points: 2
#     Edge 104, Type (0, 1), BuildingBlock: UVAHIK_clean_linker_0, # of connection points: 2
#     Edge 105, Type (0, 1), BuildingBlock: UVAHIK_clean_linker_0, # of connection points: 2
#     Edge 106, Type (0, 1), BuildingBlock: UVAHIK_clean_linker_0, # of connection points: 2
#     Edge 107, Type (0, 1), BuildingBlock: UVAHIK_clean_linker_0, # of connection points: 2
# Relax obj value: 0.051
# Max RMSD: 0.132
# Mean RMSD: 0.084
data_MOF--net-ptr--node1-KUFVIS_clean_sbu_0--node2-GIZVER_clean_linker_0--edge1-UVAHIK_clean_linker_0
_symmetry_space_group_name_H-M    P1
_symmetry_Int_Tables_number       1
_symmetry_cell_setting            triclinic
loop_
_symmetry_equiv_pos_as_xyz
'x, y, z'
_cell_length_a     101.89179
_cell_length_b     101.45372
_cell_length_c     62.583215
_cell_angle_alpha  89.851073
_cell_angle_beta   90.922765
_cell_angle_gamma 119.52626
loop_
_atom_site_label
_atom_site_type_symbol
_atom_site_fract_x
_atom_site_fract_y
_atom_site_fract_z
_atom_type_partial_charge
Mn0 Mn 0.00835 0.37364 0.99669 0.0
Mn1 Mn 0.04172 0.40378 0.98301 0.0
C2 C 0.00889 0.39091 0.97196 0.0
C3 C 0.98936 0.34839 0.99316 0.0
C4 C 0.02538 0.40285 0.02336 0.0
O5 O 0.02359 0.36758 0.00767 0.0
O6 O 0.04489 0.38815 0.99753 0.0
C7 C 0.05009 0.38798 0.95081 0.0
N8 N 0.0477 0.39962 0.95622 0.0
C9 C 0.05565 0.41106 0.92171 0.0
C10 C 0.05828 0.39925 0.9158 0.0
C11 C 0.05539 0.38761 0.93038 0.0
C12 C 0.05017 0.41072 0.94219 0.0
H13 H 0.04801 0.37908 0.96203 0.0
C14 C 0.03791 0.37507 0.00614 0.0
O15 O 0.99158 0.35589 0.01084 0.0
O16 O 0.99848 0.35544 0.97764 0.0
N17 N 0.041 0.42005 0.96854 0.0
C18 C 0.03761 0.43047 0.97658 0.0
C19 C 0.03965 0.44275 0.96387 0.0
C20 C 0.04553 0.44442 0.94328 0.0
C21 C 0.04927 0.43375 0.93553 0.0
C22 C 0.04685 0.42167 0.94884 0.0
H23 H 0.03334 0.4294 0.99254 0.0
O24 O 0.99663 0.38213 0.98211 0.0
O25 O 0.02048 0.38908 0.97598 0.0
O26 O 0.01442 0.38944 0.02053 0.0
O27 O 0.03632 0.40929 0.01044 0.0
C28 C 0.05526 0.4346 0.91511 0.0
C29 C 0.05828 0.42317 0.90811 0.0
H30 H 0.06247 0.39898 0.9001 0.0
H31 H 0.05735 0.37843 0.92592 0.0
H32 H 0.0368 0.45097 0.97 0.0
H33 H 0.04711 0.45392 0.93354 0.0
H34 H 0.05747 0.44393 0.90457 0.0
H35 H 0.06266 0.42383 0.89225 0.0
Mn36 Mn 0.63887 0.63314 0.02334 0.0
Mn37 Mn 0.63851 0.60076 0.03775 0.0
C38 C 0.62198 0.61742 0.04859 0.0
C39 C 0.64824 0.65919 0.02657 0.0
C40 C 0.6236 0.60364 0.9971 0.0
O41 O 0.65886 0.63629 0.01183 0.0
O42 O 0.65756 0.6147 0.02336 0.0
C43 C 0.66312 0.61425 0.07025 0.0
N44 N 0.64867 0.60385 0.06473 0.0
C45 C 0.64439 0.59237 0.09944 0.0
C46 C 0.65925 0.60291 0.10549 0.0
C47 C 0.66862 0.61396 0.09086 0.0
C48 C 0.63947 0.59336 0.07879 0.0
H49 H 0.6704 0.62268 0.05899 0.0
C50 C 0.66444 0.62752 0.01401 0.0
O51 O 0.64161 0.65189 0.00914 0.0
O52 O 0.64974 0.65144 0.04203 0.0
N53 N 0.62097 0.58589 0.05208 0.0
C54 C 0.6069 0.57663 0.04381 0.0
C55 C 0.59608 0.56504 0.05649 0.0
C56 C 0.59995 0.56283 0.07731 0.0
C57 C 0.61462 0.57224 0.08528 0.0
C58 C 0.62487 0.58369 0.07198 0.0
H59 H 0.60393 0.57809 0.02769 0.0
O60 O 0.61967 0.62727 0.03844 0.0
O61 O 0.63441 0.61735 0.04431 0.0
O62 O 0.62712 0.61747 -0.00015 0.0
O63 O 0.62749 0.59641 0.01011 0.0
C64 C 0.61947 0.57072 0.10588 0.0
C65 C 0.63429 0.58088 0.11306 0.0
H66 H 0.66357 0.60264 0.12131 0.0
H67 H 0.68009 0.62215 0.09541 0.0
H68 H 0.58481 0.55777 0.05018 0.0
H69 H 0.59158 0.55388 0.08704 0.0
H70 H 0.61186 0.56184 0.11642 0.0
H71 H 0.63781 0.57973 0.12905 0.0
Mn72 Mn 0.36225 0.99668 0.01391 0.0
Mn73 Mn 0.39467 0.02778 0.02908 0.0
C74 C 0.37807 0.99444 0.0388 0.0
C75 C 0.33631 0.98103 0.01766 0.0
C76 C 0.39042 0.0113 0.98683 0.0
O77 O 0.3596 0.01427 0.00301 0.0
O78 O 0.37989 0.03387 0.01873 0.0
C79 C 0.38355 0.03709 0.06635 0.0
N80 N 0.39354 0.03342 0.05782 0.0
C81 C 0.40683 0.03777 0.09148 0.0
C82 C 0.39685 0.04187 0.10053 0.0
C83 C 0.3851 0.04144 0.08794 0.0
C84 C 0.40475 0.03357 0.06987 0.0
H85 H 0.37441 0.03661 0.05678 0.0
C86 C 0.3674 0.02826 0.00819 0.0
O87 O 0.34295 0.9814 -5e-05 0.0
O88 O 0.34466 0.99001 0.03295 0.0
N89 N 0.41005 0.02373 0.03975 0.0
C90 C 0.41808 0.01845 0.02901 0.0
C91 C 0.4299 0.01761 0.03956 0.0
C92 C 0.43349 0.02235 0.06095 0.0
C93 C 0.42519 0.0279 0.07162 0.0
C94 C 0.41359 0.02857 0.06024 0.0
H95 H 0.41548 0.01488 0.01253 0.0
O96 O 0.36787 0.98259 0.02862 0.0
O97 O 0.37837 0.00715 0.03469 0.0
O98 O 0.37732 1.00021 0.99042 0.0
O99 O 0.39729 0.02267 -0.00054 0.0
C100 C 0.42776 0.03246 0.09323 0.0
C101 C 0.41856 0.03735 0.10318 0.0
H102 H 0.39796 0.04516 0.1172 0.0
H103 H 0.37724 0.04441 0.09487 0.0
H104 H 0.43625 0.0133 0.03123 0.0
H105 H 0.44255 0.02158 0.06909 0.0
H106 H 0.4366 0.03198 0.10247 0.0
H107 H 0.42046 0.04055 0.11991 0.0
Mn108 Mn 1.00277 0.63397 0.98754 0.0
Mn109 Mn 0.03318 0.63178 0.9715 0.0
C110 C 0.9997 0.61511 0.96398 0.0
C111 C 0.98649 0.64387 0.9839 0.0
C112 C 0.0187 0.62068 0.01459 0.0
O113 O 0.02036 0.65458 0.9961 0.0
O114 O 0.03961 0.65238 0.98289 0.0
C115 C 0.04163 0.65303 0.93517 0.0
N116 N 0.03788 0.63907 0.9429 0.0
C117 C 0.04065 0.63055 0.90828 0.0
C118 C 0.04463 0.64486 0.89996 0.0
C119 C 0.04507 0.65613 0.91346 0.0
C120 C 0.0373 0.62811 0.93003 0.0
H121 H 0.04198 0.66171 0.94549 0.0
C122 C 0.03433 0.65998 0.99216 0.0
O123 O 0.98822 0.63861 0.00202 0.0
O124 O 0.99444 0.64364 0.96805 0.0
N125 N 0.02892 0.6126 0.95992 0.0
C126 C 0.02451 0.59928 0.97032 0.0
C127 C 0.02349 0.58684 0.95909 0.0
C128 C 0.02717 0.58825 0.93737 0.0
C129 C 0.03181 0.6021 0.92704 0.0
C130 C 0.03276 0.61415 0.93911 0.0
H131 H 0.0218 0.59816 0.98707 0.0
O132 O 0.98839 0.6137 0.97495 0.0
O133 O 0.01239 0.62766 0.96672 0.0
O134 O 0.00812 0.62384 0.01182 0.0
O135 O 0.02889 0.62359 0.00082 0.0
C136 C 0.03536 0.60436 0.9052 0.0
C137 C 0.03971 0.61856 0.8958 0.0
H138 H 0.04728 0.6473 0.88323 0.0
H139 H 0.04807 0.66718 0.90714 0.0
H140 H 0.01991 0.57619 0.96718 0.0
H141 H 0.02638 0.57863 0.92877 0.0
H142 H 0.03461 0.59521 0.89542 0.0
H143 H 0.04223 0.62011 0.87893 0.0
Mn144 Mn 0.368 0.36973 0.02266 0.0
Mn145 Mn 0.40039 0.36939 0.03444 0.0
C146 C 0.38518 0.38704 0.04714 0.0
C147 C 0.34233 0.36079 0.02794 0.0
C148 C 0.39599 0.38381 0.99445 0.0
O149 O 0.36372 0.34919 0.0108 0.0
O150 O 0.38534 0.35004 0.02105 0.0
C151 C 0.38826 0.34561 0.06758 0.0
N152 N 0.39864 0.35982 0.06136 0.0
C153 C 0.41254 0.3644 0.09449 0.0
C154 C 0.40205 0.34979 0.10122 0.0
C155 C 0.3898 0.34039 0.08776 0.0
C156 C 0.41028 0.36905 0.07435 0.0
H157 H 0.37892 0.3383 0.05717 0.0
C158 C 0.37214 0.34319 0.01255 0.0
O159 O 0.34873 0.36707 0.01012 0.0
O160 O 0.35078 0.3595 0.0426 0.0
N161 N 0.41633 0.38715 0.04776 0.0
C162 C 0.42512 0.4011 0.03918 0.0
C163 C 0.4377 0.41199 0.05082 0.0
C164 C 0.44135 0.40829 0.07087 0.0
C165 C 0.43229 0.39376 0.0792 0.0
C166 C 0.41979 0.38346 0.06701 0.0
H167 H 0.42256 0.4039 0.02358 0.0
O168 O 0.37507 0.38943 0.03789 0.0
O169 O 0.38468 0.37429 0.04248 0.0
O170 O 0.38251 0.38082 -0.00181 0.0
O171 O 0.40347 0.37976 0.00675 0.0
C172 C 0.43513 0.3891 0.09916 0.0
C173 C 0.42516 0.37451 0.10693 0.0
H174 H 0.40327 0.34568 0.11671 0.0
H175 H 0.38163 0.32912 0.09286 0.0
H176 H 0.44466 0.42316 0.04426 0.0
H177 H 0.45111 0.41669 0.07974 0.0
H178 H 0.44487 0.39672 0.10881 0.0
H179 H 0.42731 0.37118 0.12246 0.0
Mn180 Mn 0.6383 0.00408 0.00259 0.0
Mn181 Mn 0.60682 0.97421 0.98194 0.0
C182 C 0.62257 0.00813 0.97987 0.0
C183 C 0.66405 0.02157 0.00114 0.0
C184 C 0.60883 0.98606 0.02696 0.0
O185 O 0.64205 0.98637 0.00816 0.0
O186 O 0.6211 0.96759 0.99266 0.0
C187 C 0.62092 0.96835 0.94483 0.0
N188 N 0.6103 0.97133 0.95284 0.0
C189 C 0.59996 0.97051 0.91771 0.0
C190 C 0.61073 0.96734 0.90908 0.0
C191 C 0.62128 0.9663 0.9227 0.0
C192 C 0.60017 0.97247 0.93987 0.0
H193 H 0.62906 0.96756 0.95524 0.0
C194 C 0.63383 0.97255 0.00242 0.0
O195 O 0.65689 0.01835 0.01907 0.0
O196 O 0.65638 0.01415 0.98432 0.0
N197 N 0.59184 0.97864 0.9707 0.0
C198 C 0.58236 0.98202 0.98151 0.0
C199 C 0.57112 0.98347 0.9702 0.0
C200 C 0.56961 0.98122 0.94797 0.0
C201 C 0.57935 0.97754 0.93723 0.0
C202 C 0.59025 0.97612 0.94936 0.0
H203 H 0.58337 0.98364 -0.00138 0.0
O204 O 0.63193 0.0188 0.99262 0.0
O205 O 0.62289 0.99547 0.98035 0.0
O206 O 0.62244 0.99683 0.02603 0.0
O207 O 0.60209 0.9767 0.01164 0.0
C208 C 0.57879 0.9754 0.91493 0.0
C209 C 0.58913 0.97196 0.90516 0.0
H210 H 0.61106 0.96576 0.89203 0.0
H211 H 0.62966 0.96392 0.91616 0.0
H212 H 0.56363 0.98629 0.97861 0.0
H213 H 0.56096 0.98238 0.9393 0.0
H214 H 0.57055 0.97654 0.90511 0.0
H215 H 0.58869 0.9705 0.88798 0.0
Mn216 Mn 0.66871 0.70482 0.32854 0.0
Mn217 Mn 0.69903 0.7363 0.31003 0.0
C218 C 0.66533 0.72048 0.30494 0.0
C219 C 0.65131 0.67898 0.32664 0.0
C220 C 0.68601 0.73458 0.35376 0.0
O221 O 0.68615 0.70109 0.33608 0.0
O222 O 0.70532 0.72205 0.32204 0.0
C223 C 0.70592 0.72178 0.27422 0.0
N224 N 0.70273 0.73253 0.28146 0.0
C225 C 0.70453 0.74255 0.24607 0.0
C226 C 0.70793 0.73166 0.23825 0.0
C227 C 0.70858 0.7212 0.25239 0.0
C228 C 0.70195 0.74256 0.26797 0.0
H229 H 0.70641 0.71372 0.28502 0.0
C230 C 0.70007 0.70933 0.33166 0.0
O231 O 0.65421 0.68648 0.34447 0.0
O232 O 0.65897 0.68637 0.31012 0.0
N233 N 0.69498 0.75125 0.29772 0.0
C234 C 0.69139 0.76093 0.30778 0.0
C235 C 0.69033 0.77213 0.29589 0.0
C236 C 0.69315 0.77341 0.27388 0.0
C237 C 0.69705 0.76348 0.26395 0.0
C238 C 0.69808 0.75262 0.27665 0.0
H239 H 0.68933 0.7601 0.32472 0.0
O240 O 0.65438 0.71118 0.3169 0.0
O241 O 0.67791 0.72012 0.30668 0.0
O242 O 0.67538 0.7209 0.35206 0.0
O243 O 0.69572 0.74135 0.33924 0.0
C244 C 0.69981 0.76382 0.24191 0.0
C245 C 0.70347 0.75332 0.23296 0.0
H246 H 0.70998 0.73116 0.22142 0.0
H247 H 0.71113 0.71272 0.24646 0.0
H248 H 0.68734 0.77978 0.30368 0.0
H249 H 0.69229 0.78204 0.26476 0.0
H250 H 0.69898 0.77202 0.23167 0.0
H251 H 0.70541 0.75359 0.21596 0.0
Mn252 Mn 0.30175 0.96724 0.35139 0.0
Mn253 Mn 0.29997 0.93533 0.37118 0.0
C254 C 0.28305 0.95238 0.37507 0.0
C255 C 0.31081 0.99333 0.35274 0.0
C256 C 0.28844 0.9371 0.32695 0.0
O257 O 0.32245 0.96997 0.34434 0.0
O258 O 0.32023 0.94881 0.35934 0.0
C259 C 0.32168 0.94955 0.4072 0.0
N260 N 0.30769 0.93913 0.39987 0.0
C261 C 0.29982 0.92954 0.43533 0.0
C262 C 0.31417 0.94011 0.44325 0.0
C263 C 0.32512 0.95019 0.42913 0.0
C264 C 0.29703 0.92947 0.41334 0.0
H265 H 0.33013 0.95732 0.3964 0.0
C266 C 0.32779 0.96132 0.34938 0.0
O267 O 0.30584 0.98573 0.33499 0.0
O268 O 0.31106 0.98586 0.36947 0.0
N269 N 0.28114 0.92106 0.38338 0.0
C270 C 0.26778 0.91171 0.37323 0.0
C271 C 0.25564 0.9009 0.38508 0.0
C272 C 0.25739 0.89968 0.40718 0.0
C273 C 0.27129 0.90929 0.41723 0.0
C274 C 0.28304 0.91975 0.40455 0.0
H275 H 0.26639 0.91248 0.35622 0.0
O276 O 0.2815 0.96182 0.36272 0.0
O277 O 0.29567 0.95214 0.37364 0.0
O278 O 0.29176 0.95096 0.32816 0.0
O279 O 0.29135 0.93026 0.34189 0.0
C280 C 0.2739 0.90901 0.43936 0.0
C281 C 0.28814 0.91918 0.44842 0.0
H282 H 0.31687 0.94064 0.46015 0.0
H283 H 0.3362 0.95842 0.43513 0.0
H284 H 0.24495 0.8935 0.3772 0.0
H285 H 0.248 0.89135 0.41627 0.0
H286 H 0.26499 0.90113 0.44959 0.0
H287 H 0.28996 0.91897 0.46548 0.0
Mn288 Mn 0.0297 0.33226 0.34586 0.0
Mn289 Mn 0.06233 0.36483 0.35583 0.0
C290 C 0.047 0.33245 0.37051 0.0
C291 C 0.0041 0.31603 0.35196 0.0
C292 C 0.05743 0.34482 0.31722 0.0
O293 O 0.02545 0.34831 0.33294 0.0
O294 O 0.04721 0.36911 0.34197 0.0
C295 C 0.05075 0.37766 0.38809 0.0
N296 N 0.06094 0.3734 0.38226 0.0
C297 C 0.07478 0.38263 0.41541 0.0
C298 C 0.06448 0.38721 0.42174 0.0
C299 C 0.05236 0.38463 0.40806 0.0
C300 C 0.0725 0.37562 0.39541 0.0
H301 H 0.04147 0.37579 0.37757 0.0
C302 C 0.03389 0.36266 0.33378 0.0
O303 O 0.01026 0.3156 0.33417 0.0
O304 O 0.01272 0.3261 0.36603 0.0
N305 N 0.07828 0.36297 0.36946 0.0
C306 C 0.08689 0.35738 0.3613 0.0
C307 C 0.09936 0.35884 0.37314 0.0
C308 C 0.10306 0.36632 0.39301 0.0
C309 C 0.09416 0.37216 0.40097 0.0
C310 C 0.08183 0.37031 0.38848 0.0
H311 H 0.08424 0.35181 0.3459 0.0
O312 O 0.03673 0.31987 0.36194 0.0
O313 O 0.0466 0.34466 0.36507 0.0
O314 O 0.04395 0.33472 0.32144 0.0
O315 O 0.06506 0.35668 0.3287 0.0
C316 C 0.09693 0.3796 0.42088 0.0
C317 C 0.08718 0.38471 0.42818 0.0
H318 H 0.06573 0.39264 0.43709 0.0
H319 H 0.04434 0.38808 0.41286 0.0
H320 H 0.10618 0.35431 0.3669 0.0
H321 H 0.11272 0.36745 0.40206 0.0
H322 H 0.10646 0.38133 0.43082 0.0
H323 H 0.0893 0.39021 0.44366 0.0
Mn324 Mn 0.66775 0.96853 0.32852 0.0
Mn325 Mn 0.6989 0.96681 0.31502 0.0
C326 C 0.66593 0.95096 0.30344 0.0
C327 C 0.65187 0.97884 0.32458 0.0
C328 C 0.68182 0.95354 0.35589 0.0
O329 O 0.68495 0.98851 0.34007 0.0
O330 O 0.70474 0.98687 0.3278 0.0
C331 C 0.70956 0.98968 0.2806 0.0
N332 N 0.70531 0.97538 0.28734 0.0
C333 C 0.7103 0.96845 0.25291 0.0
C334 C 0.71481 0.98313 0.24563 0.0
C335 C 0.71438 0.99377 0.25951 0.0
C336 C 0.70555 0.96501 0.27406 0.0
H337 H 0.70925 0.99789 0.29124 0.0
C338 C 0.69909 0.99407 0.3372 0.0
O339 O 0.6524 0.97231 0.34217 0.0
O340 O 0.66077 0.97966 0.3094 0.0
N341 N 0.69523 0.94814 0.30225 0.0
C342 C 0.69018 0.93436 0.3116 0.0
C343 C 0.68991 0.92245 0.29987 0.0
C344 C 0.69501 0.92487 0.27875 0.0
C345 C 0.70029 0.93917 0.26952 0.0
C346 C 0.70042 0.95065 0.28206 0.0
H347 H 0.6864 0.93247 0.32791 0.0
O348 O 0.65402 0.94914 0.31322 0.0
O349 O 0.67849 0.96321 0.30813 0.0
O350 O 0.67139 0.95679 0.35227 0.0
O351 O 0.69291 0.95729 0.34344 0.0
C352 C 0.70526 0.94244 0.24829 0.0
C353 C 0.71019 0.95705 0.23996 0.0
H354 H 0.71853 0.98634 0.22937 0.0
H355 H 0.71778 0.00511 0.25398 0.0
H356 H 0.68583 0.91145 0.30711 0.0
H357 H 0.69482 0.91567 0.26976 0.0
H358 H 0.70517 0.93375 0.23816 0.0
H359 H 0.71381 0.95938 0.22353 0.0
Mn360 Mn 0.0347 0.7055 0.34943 0.0
Mn361 Mn 0.06629 0.70454 0.36425 0.0
C362 C 0.05184 0.72338 0.37337 0.0
C363 C 0.00909 0.69754 0.3537 0.0
C364 C 0.0627 0.71698 0.32172 0.0
O365 O 0.03003 0.68428 0.34001 0.0
O366 O 0.05083 0.68449 0.3531 0.0
C367 C 0.05391 0.68332 0.40051 0.0
N368 N 0.06438 0.69697 0.39267 0.0
C369 C 0.07785 0.70409 0.42634 0.0
C370 C 0.06726 0.69007 0.43477 0.0
C371 C 0.05519 0.67968 0.42183 0.0
C372 C 0.07587 0.70716 0.40508 0.0
H373 H 0.04469 0.67525 0.39055 0.0
C374 C 0.0378 0.67778 0.34398 0.0
O375 O 0.01571 0.70274 0.33562 0.0
O376 O 0.01728 0.6967 0.36917 0.0
N377 N 0.08237 0.72308 0.37563 0.0
C378 C 0.09135 0.73628 0.36526 0.0
C379 C 0.10378 0.74801 0.37612 0.0
C380 C 0.10705 0.74592 0.39734 0.0
C381 C 0.09782 0.73213 0.40752 0.0
C382 C 0.0855 0.72092 0.39598 0.0
H383 H 0.08905 0.73787 0.34885 0.0
O384 O 0.04223 0.72594 0.36292 0.0
O385 O 0.05091 0.71032 0.36995 0.0
O386 O 0.04956 0.71513 0.32492 0.0
O387 O 0.06961 0.71288 0.33505 0.0
C388 C 0.10037 0.72907 0.42868 0.0
C389 C 0.09029 0.71513 0.43818 0.0
H390 H 0.06827 0.68718 0.45116 0.0
H391 H 0.04695 0.66886 0.42823 0.0
H392 H 0.11088 0.75859 0.36811 0.0
H393 H 0.11666 0.75498 0.40565 0.0
H394 H 0.10992 0.73746 0.43792 0.0
H395 H 0.09221 0.71304 0.4546 0.0
Mn396 Mn 0.30406 0.3404 0.3308 0.0
Mn397 Mn 0.27268 0.31124 0.30853 0.0
C398 C 0.28936 0.34532 0.3072 0.0
C399 C 0.33002 0.35692 0.33138 0.0
C400 C 0.27383 0.32277 0.35351 0.0
O401 O 0.30688 0.32218 0.3369 0.0
O402 O 0.28632 0.304 0.3199 0.0
C403 C 0.28743 0.30548 0.27214 0.0
N404 N 0.27675 0.30856 0.27965 0.0
C405 C 0.2671 0.30798 0.24411 0.0
C406 C 0.27794 0.30471 0.236 0.0
C407 C 0.28818 0.30351 0.25008 0.0
C408 C 0.26696 0.30991 0.26623 0.0
H409 H 0.29531 0.30454 0.28291 0.0
C410 C 0.29864 0.30852 0.33054 0.0
O411 O 0.32214 0.3539 0.34859 0.0
O412 O 0.32289 0.35007 0.31391 0.0
N413 N 0.25821 0.31612 0.29659 0.0
C414 C 0.24852 0.31944 0.30696 0.0
C415 C 0.23744 0.32088 0.29519 0.0
C416 C 0.23629 0.31867 0.27295 0.0
C417 C 0.24624 0.31506 0.26266 0.0
C418 C 0.25696 0.31364 0.27524 0.0
H419 H 0.24921 0.32097 0.32408 0.0
O420 O 0.29872 0.35573 0.32026 0.0
O421 O 0.2892 0.3324 0.30771 0.0
O422 O 0.28753 0.33341 0.35314 0.0
O423 O 0.26734 0.31352 0.338 0.0
C424 C 0.24602 0.31296 0.24039 0.0
C425 C 0.25651 0.30951 0.2311 0.0
H426 H 0.27854 0.30316 0.219 0.0
H427 H 0.29661 0.30105 0.24393 0.0
H428 H 0.22979 0.32365 0.30325 0.0
H429 H 0.22772 0.31977 0.26393 0.0
H430 H 0.23794 0.31412 0.23023 0.0
H431 H 0.25634 0.30807 0.21394 0.0
Mn432 Mn 0.3382 0.03947 0.66125 0.0
Mn433 Mn 0.37042 0.07166 0.6494 0.0
C434 C 0.33806 0.0552 0.63452 0.0
C435 C 0.32158 0.01349 0.65829 0.0
C436 C 0.351 0.0693 0.68674 0.0
O437 O 0.35436 0.03599 0.67557 0.0
O438 O 0.37482 0.05789 0.66677 0.0
C439 C 0.38299 0.05735 0.62127 0.0
N440 N 0.37875 0.06798 0.62448 0.0
C441 C 0.38748 0.07874 0.58982 0.0
C442 C 0.39202 0.06796 0.58616 0.0
C443 C 0.38968 0.05716 0.60192 0.0
C444 C 0.38068 0.07823 0.60928 0.0
H445 H 0.38131 0.0491 0.6334 0.0
C446 C 0.36858 0.04496 0.67585 0.0
O447 O 0.32189 0.02119 0.67497 0.0
O448 O 0.33119 0.02081 0.64337 0.0
N449 N 0.36855 0.08643 0.63256 0.0
C450 C 0.36355 0.09608 0.63859 0.0
C451 C 0.36502 0.10755 0.62458 0.0
C452 C 0.37197 0.10926 0.60479 0.0
C453 C 0.3774 0.09947 0.59917 0.0
C454 C 0.37551 0.08817 0.6137 0.0
H455 H 0.35846 0.09501 0.65396 0.0
O456 O 0.32564 0.04557 0.64362 0.0
O457 O 0.35028 0.05508 0.64073 0.0
O458 O 0.34129 0.05538 0.68378 0.0
O459 O 0.36244 0.07659 0.67488 0.0
C460 C 0.38462 0.10047 0.57973 0.0
C461 C 0.3895 0.09001 0.57495 0.0
H462 H 0.3973 0.06785 0.57132 0.0
H463 H 0.39311 0.04877 0.5992 0.0
H464 H 0.36089 0.11513 0.6291 0.0
H465 H 0.37309 0.11813 0.59404 0.0
H466 H 0.3864 0.1092 0.56828 0.0
H467 H 0.39486 0.09079 0.55983 0.0
Mn468 Mn 0.97024 0.29915 0.69254 0.0
Mn469 Mn 0.97054 0.26717 0.7074 0.0
C470 C 0.9527 0.28271 0.71655 0.0
C471 C 0.9781 0.32494 0.69566 0.0
C472 C 0.95655 0.26982 0.66587 0.0
O473 O 0.99104 0.30339 0.68296 0.0
O474 O 0.98966 0.28159 0.6936 0.0
C475 C 0.99456 0.28128 0.74067 0.0
N476 N 0.98035 0.2705 0.73471 0.0
C477 C 0.97599 0.25876 0.76924 0.0
C478 C 0.9906 0.26968 0.77573 0.0
C479 C 0.99989 0.28104 0.76142 0.0
C480 C 0.97122 0.2597 0.74847 0.0
H481 H 1.00179 0.28994 0.72965 0.0
C482 C 0.9967 0.29469 0.68505 0.0
O483 O 0.97273 0.31762 0.67783 0.0
O484 O 0.97938 0.31738 0.7116 0.0
N485 N 0.95304 0.25185 0.72125 0.0
C486 C 0.93915 0.24233 0.71262 0.0
C487 C 0.92842 0.23043 0.72497 0.0
C488 C 0.9322 0.22818 0.74582 0.0
C489 C 0.94667 0.23791 0.7542 0.0
C490 C 0.95684 0.24967 0.74123 0.0
H491 H 0.93628 0.24382 0.69645 0.0
O492 O 0.95024 0.29225 0.70581 0.0
O493 O 0.96559 0.28327 0.71351 0.0
O494 O 0.96004 0.28364 0.66845 0.0
O495 O 0.95994 0.2625 0.67941 0.0
C496 C 0.95141 0.23642 0.77491 0.0
C497 C 0.96599 0.24694 0.78252 0.0
H498 H 0.9948 0.26946 0.79167 0.0
H499 H 0.01117 0.28953 0.76632 0.0
H500 H 0.91729 0.22292 0.71836 0.0
H501 H 0.9239 0.21895 0.75527 0.0
H502 H 0.94388 0.2273 0.78521 0.0
H503 H 0.96941 0.24581 0.79858 0.0
Mn504 Mn 0.69525 0.66353 0.67661 0.0
Mn505 Mn 0.72789 0.69566 0.68808 0.0
C506 C 0.71292 0.66269 0.69935 0.0
C507 C 0.66989 0.6468 0.68359 0.0
C508 C 0.72212 0.67808 0.6466 0.0
O509 O 0.69082 0.68021 0.66693 0.0
O510 O 0.71242 0.70072 0.67761 0.0
C511 C 0.71757 0.7064 0.72469 0.0
N512 N 0.72737 0.70237 0.71638 0.0
C513 C 0.74145 0.70812 0.74954 0.0
C514 C 0.73156 0.71243 0.75842 0.0
C515 C 0.71954 0.71152 0.74595 0.0
C516 C 0.73892 0.70313 0.72827 0.0
H517 H 0.70831 0.7057 0.71516 0.0
C518 C 0.69903 0.6945 0.66961 0.0
O519 O 0.67544 0.64743 0.66484 0.0
O520 O 0.67893 0.65623 0.69797 0.0
N521 N 0.74397 0.69266 0.69862 0.0
C522 C 0.75206 0.68741 0.68799 0.0
C523 C 0.7643 0.68725 0.69838 0.0
C524 C 0.7682 0.69264 0.71947 0.0
C525 C 0.75985 0.69818 0.72998 0.0
C526 C 0.74782 0.69814 0.71878 0.0
H527 H 0.74918 0.68332 0.67174 0.0
O528 O 0.70269 0.65047 0.68993 0.0
O529 O 0.71235 0.67501 0.69557 0.0
O530 O 0.70898 0.66732 0.65101 0.0
O531 O 0.72977 0.68945 0.65892 0.0
C532 C 0.76278 0.70343 0.75129 0.0
C533 C 0.75356 0.70836 0.76108 0.0
H534 H 0.73302 0.71634 0.77483 0.0
H535 H 0.71183 0.71475 0.75272 0.0
H536 H 0.7707 0.68295 0.69016 0.0
H537 H 0.77757 0.69237 0.72749 0.0
H538 H 0.77195 0.7035 0.7604 0.0
H539 H 0.75579 0.71217 0.77757 0.0
Mn540 Mn 0.33587 0.30084 0.65462 0.0
Mn541 Mn 0.36698 0.29928 0.64036 0.0
C542 C 0.33392 0.28346 0.62916 0.0
C543 C 0.31997 0.31119 0.65124 0.0
C544 C 0.35007 0.28558 0.68119 0.0
O545 O 0.35309 0.32071 0.66636 0.0
O546 O 0.37287 0.31917 0.65386 0.0
C547 C 0.37751 0.32264 0.60662 0.0
N548 N 0.37331 0.30825 0.61288 0.0
C549 C 0.37815 0.30182 0.57801 0.0
C550 C 0.38262 0.3166 0.57122 0.0
C551 C 0.38224 0.32703 0.58557 0.0
C552 C 0.3735 0.29808 0.59915 0.0
H553 H 0.37724 0.33069 0.61761 0.0
C554 C 0.36723 0.32626 0.66358 0.0
O555 O 0.32057 0.30452 0.66866 0.0
O556 O 0.32882 0.31211 0.63591 0.0
N557 N 0.36332 0.28082 0.62692 0.0
C558 C 0.35833 0.26692 0.63585 0.0
C559 C 0.358 0.25517 0.62361 0.0
C560 C 0.36299 0.25788 0.60243 0.0
C561 C 0.36823 0.27232 0.59366 0.0
C562 C 0.36843 0.28362 0.60669 0.0
H563 H 0.35463 0.26479 0.65219 0.0
O564 O 0.32207 0.28157 0.63916 0.0
O565 O 0.34652 0.29569 0.63383 0.0
O566 O 0.33967 0.28894 0.67799 0.0
O567 O 0.36106 0.28937 0.66852 0.0
C568 C 0.37311 0.27589 0.57243 0.0
C569 C 0.37799 0.29061 0.56457 0.0
H570 H 0.38628 0.32004 0.55499 0.0
H571 H 0.38561 0.33844 0.58042 0.0
H572 H 0.35395 0.24406 0.63049 0.0
H573 H 0.3627 0.2488 0.59303 0.0
H574 H 0.37297 0.26734 0.56193 0.0
H575 H 0.38154 0.29317 0.54815 0.0
Mn576 Mn 0.70355 0.03971 0.68979 0.0
Mn577 Mn 0.73568 0.03942 0.70346 0.0
C578 C 0.72001 0.05673 0.71514 0.0
C579 C 0.67773 0.03056 0.69396 0.0
C580 C 0.73206 0.05375 0.66276 0.0
O581 O 0.69977 0.01933 0.67794 0.0
O582 O 0.72097 0.01992 0.68996 0.0
C583 C 0.72321 0.0159 0.73692 0.0
N584 N 0.73348 0.03016 0.73074 0.0
C585 C 0.74624 0.03553 0.76494 0.0
C586 C 0.73583 0.02088 0.77166 0.0
C587 C 0.72421 0.01106 0.75762 0.0
C588 C 0.74454 0.03978 0.74423 0.0
H589 H 0.71434 0.00828 0.7261 0.0
C590 C 0.70806 0.01323 0.68052 0.0
O591 O 0.68446 0.03701 0.6764 0.0
O592 O 0.68592 0.02919 0.70895 0.0
N593 N 0.75115 0.05744 0.71691 0.0
C594 C 0.76005 0.0713 0.70813 0.0
C595 C 0.77206 0.08256 0.72024 0.0
C596 C 0.77502 0.07933 0.74103 0.0
C597 C 0.76592 0.06487 0.74953 0.0
C598 C 0.75402 0.05417 0.73681 0.0
H599 H 0.75799 0.07378 0.69204 0.0
O600 O 0.71015 0.05925 0.70535 0.0
O601 O 0.71968 0.04411 0.71036 0.0
O602 O 0.71862 0.05105 0.66601 0.0
O603 O 0.73919 0.0495 0.67546 0.0
C604 C 0.76818 0.06066 0.77015 0.0
C605 C 0.75824 0.04607 0.77795 0.0
H606 H 0.73664 0.01707 0.78756 0.0
H607 H 0.71612 0.99975 0.7627 0.0
H608 H 0.77908 0.09366 0.71352 0.0
H609 H 0.78431 0.08803 0.75031 0.0
H610 H 0.77742 0.06863 0.78025 0.0
H611 H 0.75993 0.04306 0.79397 0.0
Mn612 Mn 0.97432 0.67586 0.66096 0.0
Mn613 Mn 0.9423 0.64602 0.64148 0.0
C614 C 0.95827 0.67991 0.63881 0.0
C615 C 1.0001 0.69309 0.65873 0.0
C616 C 0.94529 0.65832 0.68644 0.0
O617 O 0.97793 0.65804 0.66644 0.0
O618 O 0.95661 0.63931 0.65169 0.0
C619 C 0.95561 0.63966 0.60386 0.0
N620 N 0.9452 0.64281 0.61226 0.0
C621 C 0.9342 0.64164 0.57752 0.0
C622 C 0.94475 0.6383 0.5685 0.0
C623 C 0.95552 0.63736 0.58173 0.0
C624 C 0.93488 0.64389 0.59966 0.0
H625 H 0.96391 0.63893 0.61398 0.0
C626 C 0.96947 0.64419 0.661 0.0
O627 O 0.99322 0.69006 0.67686 0.0
O628 O 0.99212 0.68567 0.6421 0.0
N629 N 0.92722 0.65046 0.63077 0.0
C630 C 0.91792 0.65391 0.64195 0.0
C631 C 0.90642 0.65516 0.63109 0.0
C632 C 0.90446 0.65266 0.60892 0.0
C633 C 0.91402 0.64893 0.5978 0.0
C634 C 0.92519 0.6477 0.60951 0.0
H635 H 0.91925 0.65569 0.65903 0.0
O636 O 0.96796 0.69065 0.65119 0.0
O637 O 0.95848 0.66719 0.63928 0.0
O638 O 0.95893 0.66897 0.68498 0.0
O639 O 0.93818 0.64886 0.67136 0.0
C640 C 0.913 0.64652 0.57553 0.0
C641 C 0.92313 0.64296 0.56538 0.0
H642 H 0.94472 0.63651 0.55144 0.0
H643 H 0.96373 0.63484 0.57488 0.0
H644 H 0.89905 0.65802 0.63979 0.0
H645 H 0.89557 0.65362 0.6006 0.0
H646 H 0.90455 0.64752 0.56604 0.0
H647 H 0.92233 0.64128 0.54822 0.0
H648 H 0.14759 0.31152 0.1536 0.0
H649 H 0.14366 0.31802 0.08601 0.0
H650 H 0.11451 0.32276 0.13044 0.0
H651 H 0.15706 0.30042 0.12643 0.0
H652 H 0.15591 0.30383 0.09865 0.0
H653 H 0.17385 0.32745 0.14896 0.0
H654 H 0.21814 0.34862 0.12231 0.0
H655 H 0.18022 0.31696 0.08458 0.0
C656 C 0.14255 0.3145 0.14042 0.0
C657 C 0.13072 0.31743 0.1444 0.0
C658 C 0.14736 0.31469 0.11933 0.0
C659 C 0.14027 0.3181 0.10232 0.0
C660 C 0.1282 0.3207 0.10627 0.0
C661 C 0.12364 0.32046 0.1273 0.0
C662 C 0.1585 0.30929 0.11472 0.0
C663 C 0.17484 0.32173 0.11599 0.0
C664 C 0.18103 0.32958 0.13536 0.0
C665 C 0.19665 0.33942 0.13775 0.0
C666 C 0.20601 0.3417 0.12032 0.0
C667 C 0.20019 0.33363 0.10121 0.0
C668 C 0.18461 0.32367 0.09906 0.0
H669 H 0.67784 0.83022 0.13828 0.0
H670 H 0.68586 0.82242 0.07332 0.0
H671 H 0.6587 0.78486 0.11376 0.0
H672 H 0.70193 0.84864 0.11529 0.0
H673 H 0.69909 0.84741 0.08711 0.0
H674 H 0.68733 0.85632 0.13891 0.0
H675 H 0.67116 0.88372 0.10864 0.0
H676 H 0.68381 0.85703 0.07004 0.0
C677 C 0.67561 0.82259 0.12496 0.0
C678 C 0.66698 0.80689 0.12821 0.0
C679 C 0.68211 0.82839 0.10499 0.0
C680 C 0.68014 0.8182 0.08833 0.0
C681 C 0.67148 0.80251 0.09143 0.0
C682 C 0.66466 0.797 0.11114 0.0
C683 C 0.69309 0.84514 0.10254 0.0
C684 C 0.68572 0.8549 0.10431 0.0
C685 C 0.68392 0.85989 0.12454 0.0
C686 C 0.67872 0.87033 0.12616 0.0
C687 C 0.67509 0.87556 0.10752 0.0
C688 C 0.67697 0.87092 0.08736 0.0
C689 C 0.68204 0.86038 0.08569 0.0
H690 H 0.16708 0.81196 0.14756 0.0
H691 H 0.16117 0.80683 0.07927 0.0
H692 H 0.123 0.78417 0.12029 0.0
H693 H 0.18773 0.81381 0.12137 0.0
H694 H 0.18582 0.81727 0.09396 0.0
H695 H 0.19048 0.83281 0.1495 0.0
H696 H 0.21521 0.87877 0.12828 0.0
H697 H 0.19388 0.84269 0.08218 0.0
C698 C 0.15976 0.80778 0.13359 0.0
C699 C 0.14417 0.79844 0.13627 0.0
C700 C 0.166 0.81107 0.11304 0.0
C701 C 0.15639 0.80477 0.09508 0.0
C702 C 0.14081 0.79503 0.0975 0.0
C703 C 0.13483 0.79226 0.11814 0.0
C704 C 0.18294 0.81906 0.11038 0.0
C705 C 0.19061 0.83585 0.11532 0.0
C706 C 0.194 0.84095 0.13664 0.0
C707 C 0.20259 0.85646 0.14145 0.0
C708 C 0.20777 0.86689 0.12466 0.0
C709 C 0.20479 0.86211 0.10324 0.0
C710 C 0.196 0.84653 0.09866 0.0
H711 H 0.35668 0.19258 0.863 0.0
H712 H 0.35127 0.19436 0.93086 0.0
H713 H 0.33773 0.21874 0.88783 0.0
H714 H 0.3723 0.18768 0.88952 0.0
H715 H 0.36841 0.18657 0.91728 0.0
H716 H 0.35349 0.16702 0.86431 0.0
H717 H 0.3341 0.12285 0.89256 0.0
H718 H 0.35361 0.16238 0.93271 0.0
C719 C 0.35238 0.19596 0.8764 0.0
C720 C 0.34654 0.20575 0.87301 0.0
C721 C 0.35401 0.19167 0.89727 0.0
C722 C 0.34944 0.19711 0.91473 0.0
C723 C 0.34353 0.20693 0.9115 0.0
C724 C 0.34177 0.21078 0.89053 0.0
C725 C 0.36295 0.18361 0.90113 0.0
C726 C 0.35346 0.16661 0.89881 0.0
C727 C 0.34989 0.1599 0.87833 0.0
C728 C 0.34312 0.14411 0.87596 0.0
C729 C 0.3391 0.13503 0.89428 0.0
C730 C 0.34304 0.1415 0.91473 0.0
C731 C 0.35006 0.15731 0.91696 0.0
H732 H 0.85071 0.17847 0.88708 0.0
H733 H 0.85248 0.19095 0.95338 0.0
H734 H 0.87438 0.22522 0.90587 0.0
H735 H 0.84657 0.16035 0.91726 0.0
H736 H 0.84429 0.16504 0.94383 0.0
H737 H 0.82659 0.15597 0.88867 0.0
H738 H 0.78168 0.1339 0.91316 0.0
H739 H 0.81947 0.15681 0.95632 0.0
C740 C 0.85362 0.18706 0.89929 0.0
C741 C 0.86264 0.20236 0.89399 0.0
C742 C 0.84956 0.1828 0.92069 0.0
C743 C 0.85474 0.19411 0.93673 0.0
C744 C 0.86353 0.20946 0.93136 0.0
C745 C 0.86703 0.21343 0.90995 0.0
C746 C 0.84184 0.16624 0.92676 0.0
C747 C 0.82497 0.15832 0.92276 0.0
C748 C 0.81904 0.15358 0.9019 0.0
C749 C 0.80342 0.14459 0.89842 0.0
C750 C 0.79374 0.14105 0.91575 0.0
C751 C 0.7994 0.14526 0.93662 0.0
C752 C 0.81504 0.15397 0.94011 0.0
H753 H 0.83905 0.64744 0.85893 0.0
H754 H 0.84632 0.65001 0.92712 0.0
H755 H 0.88408 0.66824 0.88517 0.0
H756 H 0.81915 0.62979 0.88423 0.0
H757 H 0.82169 0.63324 0.91228 0.0
H758 H 0.81789 0.65019 0.86025 0.0
H759 H 0.7891 0.66495 0.888 0.0
H760 H 0.81048 0.64639 0.92808 0.0
C761 C 0.84666 0.65146 0.87263 0.0
C762 C 0.86231 0.65879 0.86948 0.0
C763 C 0.84076 0.64858 0.89338 0.0
C764 C 0.85073 0.65291 0.91111 0.0
C765 C 0.86639 0.66019 0.90815 0.0
C766 C 0.87204 0.66337 0.88738 0.0
C767 C 0.82395 0.63896 0.89649 0.0
C768 C 0.81573 0.64793 0.89452 0.0
C769 C 0.81317 0.65238 0.87426 0.0
C770 C 0.80385 0.65889 0.87184 0.0
C771 C 0.79717 0.66099 0.88999 0.0
C772 C 0.79941 0.65652 0.91032 0.0
C773 C 0.80893 0.6502 0.91253 0.0
H774 H 0.81885 0.65879 0.48015 0.0
H775 H 0.81481 0.66391 0.41221 0.0
H776 H 0.79019 0.67552 0.45634 0.0
H777 H 0.82563 0.64489 0.45294 0.0
H778 H 0.82609 0.64926 0.42525 0.0
H779 H 0.84439 0.66799 0.4783 0.0
H780 H 0.88885 0.68914 0.45253 0.0
H781 H 0.85048 0.66366 0.41117 0.0
C782 C 0.81466 0.66255 0.4668 0.0
C783 C 0.8047 0.66805 0.47064 0.0
C784 C 0.81885 0.6615 0.44575 0.0
C785 C 0.81233 0.6654 0.42852 0.0
C786 C 0.80174 0.67015 0.43235 0.0
C787 C 0.79839 0.67187 0.45339 0.0
C788 C 0.82859 0.65435 0.44156 0.0
C789 C 0.84534 0.66537 0.44417 0.0
C790 C 0.85162 0.67097 0.46459 0.0
C791 C 0.8673 0.67979 0.46766 0.0
C792 C 0.87671 0.68307 0.45004 0.0
C793 C 0.87081 0.67726 0.42967 0.0
C794 C 0.85508 0.66849 0.42677 0.0
H795 H 0.35052 0.16345 0.46091 0.0
H796 H 0.34171 0.15489 0.39324 0.0
H797 H 0.32506 0.11786 0.43733 0.0
H798 H 0.36646 0.18233 0.43329 0.0
H799 H 0.36078 0.17947 0.40588 0.0
H800 H 0.35072 0.18742 0.46032 0.0
H801 H 0.33433 0.21584 0.43408 0.0
H802 H 0.34639 0.19044 0.3919 0.0
C803 C 0.34481 0.15567 0.44776 0.0
C804 C 0.33729 0.14003 0.45156 0.0
C805 C 0.34619 0.16121 0.42674 0.0
C806 C 0.33994 0.15083 0.40956 0.0
C807 C 0.33212 0.13518 0.41339 0.0
C808 C 0.33053 0.12996 0.43442 0.0
C809 C 0.35641 0.17786 0.42242 0.0
C810 C 0.34872 0.18718 0.42575 0.0
C811 C 0.34714 0.19146 0.4466 0.0
C812 C 0.34207 0.2019 0.44963 0.0
C813 C 0.33812 0.20764 0.43183 0.0
C814 C 0.33965 0.20359 0.4111 0.0
C815 C 0.34477 0.19321 0.408 0.0
H816 H 0.83328 0.14996 0.48645 0.0
H817 H 0.82573 0.14332 0.41851 0.0
H818 H 0.7886 0.12179 0.46149 0.0
H819 H 0.85319 0.15093 0.45919 0.0
H820 H 0.85069 0.15418 0.43191 0.0
H821 H 0.85636 0.1703 0.48739 0.0
H822 H 0.88186 0.21597 0.46554 0.0
H823 H 0.85985 0.17965 0.4199 0.0
C824 C 0.82566 0.14558 0.47284 0.0
C825 C 0.81014 0.13636 0.47633 0.0
C826 C 0.8314 0.14842 0.45198 0.0
C827 C 0.82135 0.14171 0.43454 0.0
C828 C 0.80584 0.13205 0.4378 0.0
C829 C 0.80037 0.12981 0.4587 0.0
C830 C 0.84827 0.15621 0.44848 0.0
C831 C 0.85634 0.17306 0.45315 0.0
C832 C 0.85992 0.1783 0.47439 0.0
C833 C 0.86878 0.19381 0.47896 0.0
C834 C 0.87419 0.20411 0.46204 0.0
C835 C 0.87118 0.19919 0.44068 0.0
C836 C 0.86201 0.18361 0.43632 0.0
H837 H 0.02526 0.52866 0.19857 0.0
H838 H 0.01559 0.52771 0.2655 0.0
H839 H 0.0064 0.55516 0.22201 0.0
H840 H 0.039 0.52234 0.2278 0.0
H841 H 0.03165 0.51831 0.25404 0.0
H842 H 0.02235 0.50496 0.19666 0.0
H843 H 1.002 0.4583 0.21463 0.0
H844 H 0.01559 0.49267 0.2631 0.0
C845 C 0.02028 0.5316 0.21155 0.0
C846 C 0.01517 0.54196 0.20784 0.0
C847 C 0.02025 0.52617 0.2323 0.0
C848 C 0.015 0.53129 0.24935 0.0
C849 C 0.00998 0.54181 0.24583 0.0
C850 C 0.00978 0.54671 0.22491 0.0
C851 C 0.02831 0.51726 0.23685 0.0
C852 C 0.01917 0.50071 0.23054 0.0
C853 C 0.01774 0.49639 0.2089 0.0
C854 C 0.01124 0.48107 0.20302 0.0
C855 C 0.00605 0.47002 0.21903 0.0
C856 C 0.00766 0.47404 0.24073 0.0
C857 C 0.01398 0.48942 0.24637 0.0
H858 H 0.52069 0.5114 0.21655 0.0
H859 H 0.51876 0.52031 0.28345 0.0
H860 H 0.54027 0.55713 0.23946 0.0
H861 H 0.51669 0.4924 0.24473 0.0
H862 H 0.51389 0.49568 0.27176 0.0
H863 H 0.49618 0.48918 0.21638 0.0
H864 H 0.45209 0.45893 0.24003 0.0
H865 H 0.48892 0.48283 0.28431 0.0
C866 C 0.5224 0.51928 0.22937 0.0
C867 C 0.53065 0.5349 0.22551 0.0
C868 C 0.51769 0.51385 0.25022 0.0
C869 C 0.52141 0.5243 0.26717 0.0
C870 C 0.52941 0.53994 0.26326 0.0
C871 C 0.53352 0.54506 0.24235 0.0
C872 C 0.51119 0.49718 0.25494 0.0
C873 C 0.49434 0.48809 0.25087 0.0
C874 C 0.48861 0.48461 0.22971 0.0
C875 C 0.47338 0.47401 0.22577 0.0
C876 C 0.46379 0.46739 0.24304 0.0
C877 C 0.46931 0.47036 0.26408 0.0
C878 C 0.48453 0.48097 0.26805 0.0
H879 H 0.50102 0.97533 0.1987 0.0
H880 H 0.51181 0.9836 0.26592 0.0
H881 H 0.54719 0.99888 0.22004 0.0
H882 H 0.48258 0.95981 0.22676 0.0
H883 H 0.4867 0.96494 0.25426 0.0
H884 H 0.48122 0.98025 0.20147 0.0
H885 H 0.45203 0.99448 0.22921 0.0
H886 H 0.47433 0.977 0.26945 0.0
C887 C 0.50928 0.98054 0.21151 0.0
C888 C 0.5247 0.98803 0.20676 0.0
C889 C 0.50449 0.97921 0.2328 0.0
C890 C 0.51538 0.98517 0.24945 0.0
C891 C 0.53085 0.99241 0.24493 0.0
C892 C 0.53532 0.99401 0.22356 0.0
C893 C 0.48794 0.96968 0.23789 0.0
C894 C 0.47938 0.97832 0.23582 0.0
C895 C 0.4765 0.98242 0.21549 0.0
C896 C 0.46691 0.98861 0.21303 0.0
C897 C 0.46026 0.99073 0.2312 0.0
C898 C 0.46281 0.98661 0.2516 0.0
C899 C 0.47255 0.98055 0.25384 0.0
H900 H 0.48549 0.98988 0.81998 0.0
H901 H 0.48354 0.99853 0.75276 0.0
H902 H 0.46366 0.01459 0.7986 0.0
H903 H 0.49101 0.9758 0.79206 0.0
H904 H 0.49152 0.98065 0.76448 0.0
H905 H 0.51132 0.99933 0.81697 0.0
H906 H 0.55533 0.01658 0.79052 0.0
H907 H 0.51612 0.99161 0.75052 0.0
C908 C 0.48257 0.9952 0.80714 0.0
C909 C 0.47471 0.00294 0.81181 0.0
C910 C 0.48644 0.99413 0.78591 0.0
C911 C 0.48141 1.00001 0.76924 0.0
C912 C 0.4732 0.0074 0.77385 0.0
C913 C 0.47034 0.00921 0.79512 0.0
C914 C 0.49465 0.9855 0.78091 0.0
C915 C 0.51164 0.99527 0.78312 0.0
C916 C 0.51833 1.00126 0.80323 0.0
C917 C 0.53408 0.00914 0.80598 0.0
C918 C 0.54318 0.01115 0.78836 0.0
C919 C 0.5368 0.00481 0.76844 0.0
C920 C 0.52103 0.99691 0.76579 0.0
H921 H 0.01877 0.49873 0.79792 0.0
H922 H 0.00705 0.48665 0.73152 0.0
H923 H 0.99298 0.45206 0.77927 0.0
H924 H 0.03297 0.5164 0.76832 0.0
H925 H 0.0264 0.51189 0.74135 0.0
H926 H 0.0151 0.51987 0.79532 0.0
H927 H 0.99994 0.54886 0.7676 0.0
H928 H 0.01427 0.5247 0.72675 0.0
C929 C 0.01254 0.49029 0.7857 0.0
C930 C 0.0054 0.47491 0.79109 0.0
C931 C 0.01286 0.49471 0.76423 0.0
C932 C 0.00605 0.48345 0.7482 0.0
C933 C 0.99871 0.46804 0.75364 0.0
C934 C 0.99808 0.46396 0.77512 0.0
C935 C 0.02259 0.51115 0.7581 0.0
C936 C 0.01471 0.52038 0.76068 0.0
C937 C 0.01217 0.5242 0.7813 0.0
C938 C 0.00696 0.53458 0.78387 0.0
C939 C 0.00389 0.54077 0.76575 0.0
C940 C 0.00655 0.53733 0.74525 0.0
C941 C 0.01178 0.52699 0.74264 0.0
H942 H 0.49817 0.48071 0.82132 0.0
H943 H 0.49267 0.47317 0.75335 0.0
H944 H 0.45416 0.45253 0.79407 0.0
H945 H 0.51877 0.48131 0.7968 0.0
H946 H 0.51711 0.48325 0.76882 0.0
H947 H 0.52126 0.50203 0.822 0.0
H948 H 0.54881 0.5464 0.7962 0.0
H949 H 0.52691 0.508 0.75402 0.0
C950 C 0.49093 0.47617 0.80733 0.0
C951 C 0.47529 0.46712 0.80993 0.0
C952 C 0.4973 0.47863 0.78691 0.0
C953 C 0.48778 0.47179 0.769 0.0
C954 C 0.47215 0.46233 0.7714 0.0
C955 C 0.46604 0.46041 0.79187 0.0
C956 C 0.51426 0.48611 0.78461 0.0
C957 C 0.52232 0.50314 0.7876 0.0
C958 C 0.52546 0.50941 0.80833 0.0
C959 C 0.53486 0.52506 0.8116 0.0
C960 C 0.54084 0.53447 0.79379 0.0
C961 C 0.53811 0.52845 0.773 0.0
C962 C 0.52867 0.51278 0.76997 0.0
H963 H 0.68431 0.85494 0.53338 0.0
H964 H 0.68525 0.86318 0.60097 0.0
H965 H 0.66822 0.88387 0.55675 0.0
H966 H 0.70433 0.85497 0.56166 0.0
H967 H 0.69824 0.85097 0.5885 0.0
H968 H 0.68978 0.8362 0.5322 0.0
H969 H 0.66898 0.78995 0.55224 0.0
H970 H 0.68143 0.82531 0.59892 0.0
C971 C 0.68142 0.85966 0.54676 0.0
C972 C 0.675 0.86891 0.54276 0.0
C973 C 0.6849 0.85724 0.56776 0.0
C974 C 0.682 0.86443 0.58484 0.0
C975 C 0.67591 0.87405 0.58105 0.0
C976 C 0.67213 0.87586 0.56 0.0
C977 C 0.69408 0.84938 0.57163 0.0
C978 C 0.6857 0.83265 0.56605 0.0
C979 C 0.68488 0.82789 0.54472 0.0
C980 C 0.67843 0.81245 0.53956 0.0
C981 C 0.67301 0.80177 0.55602 0.0
C982 C 0.67418 0.80625 0.57747 0.0
C983 C 0.68026 0.82172 0.58237 0.0
H984 H 0.18641 0.84666 0.543 0.0
H985 H 0.19301 0.85111 0.61146 0.0
H986 H 0.21364 0.8905 0.57188 0.0
H987 H 0.18311 0.82496 0.56722 0.0
H988 H 0.18169 0.82648 0.59532 0.0
H989 H 0.1624 0.82108 0.54262 0.0
H990 H 0.11867 0.80304 0.57048 0.0
H991 H 0.15822 0.82234 0.61096 0.0
C992 C 0.19069 0.85374 0.55717 0.0
C993 C 0.20029 0.86941 0.55501 0.0
C994 C 0.18766 0.84703 0.57758 0.0
C995 C 0.19443 0.85621 0.59582 0.0
C996 C 0.20369 0.87191 0.59369 0.0
C997 C 0.20612 0.8784 0.57342 0.0
C998 C 0.17916 0.82998 0.57962 0.0
C999 C 0.16231 0.82348 0.57695 0.0
C1000 C 0.15548 0.81933 0.55646 0.0
C1001 C 0.1397 0.81165 0.5541 0.0
C1002 C 0.13087 0.8091 0.57221 0.0
C1003 C 0.13738 0.81269 0.59272 0.0
C1004 C 0.15314 0.81998 0.59508 0.0
H1005 H 0.16894 0.31177 0.52966 0.0
H1006 H 0.18071 0.31923 0.59668 0.0
H1007 H 0.21536 0.33402 0.54968 0.0
H1008 H 0.15076 0.29621 0.55825 0.0
H1009 H 0.15522 0.30154 0.58563 0.0
H1010 H 0.14976 0.31688 0.53276 0.0
H1011 H 0.12094 0.33149 0.56065 0.0
H1012 H 0.14319 0.31391 0.60079 0.0
C1013 C 0.17739 0.31671 0.54228 0.0
C1014 C 0.19271 0.32387 0.53708 0.0
C1015 C 0.17292 0.31535 0.56373 0.0
C1016 C 0.18405 0.32085 0.5801 0.0
C1017 C 0.19943 0.32772 0.57512 0.0
C1018 C 0.20358 0.32942 0.5536 0.0
C1019 C 0.15639 0.30616 0.56919 0.0
C1020 C 0.14807 0.31505 0.56713 0.0
C1021 C 0.14515 0.31914 0.5468 0.0
C1022 C 0.13566 0.32546 0.54439 0.0
C1023 C 0.12912 0.32767 0.56259 0.0
C1024 C 0.13173 0.32359 0.58299 0.0
C1025 C 0.14139 0.31745 0.58518 0.0
C1026 C 0.01185 0.40605 0.05431 0.0
C1027 C 0.02477 0.41182 0.04162 0.0
C1028 C 0.0106 0.415 0.07019 0.0
C1029 C 0.03265 0.44815 0.1047 0.0
H1030 H 0.9947 0.44808 0.10946 0.0
C1031 C 0.02506 0.48408 0.16892 0.0
C1032 C 0.01173 0.47645 0.18066 0.0
C1033 C 0.02656 0.47802 0.14968 0.0
C1034 C 0.00535 0.44817 0.10843 0.0
H1035 H 0.04671 0.43148 0.03616 0.0
H1036 H 0.04455 0.44701 0.06407 0.0
H1037 H 0.99779 0.43336 0.0812 0.0
H1038 H 0.98914 0.45711 0.18061 0.0
H1039 H 0.99184 0.44637 0.14736 0.0
H1040 H 0.0401 0.46256 0.13227 0.0
C1041 C 0.03539 0.43555 0.06164 0.0
C1042 C 0.00711 0.43973 0.09225 0.0
C1043 C 0.0366 0.42663 0.04564 0.0
C1044 C 0.9996 0.46317 0.17202 0.0
C1045 C 1.00112 0.45708 0.15285 0.0
C1046 C 0.03087 0.45652 0.12097 0.0
C1047 C 0.02228 0.42989 0.07387 0.0
C1048 C 0.02071 0.43947 0.09039 0.0
C1049 C 0.01479 0.46418 0.14179 0.0
C1050 C 0.01713 0.45649 0.1232 0.0
H1051 H 1.0025 0.39471 0.05171 0.0
H1052 H 1.00047 0.41025 0.07961 0.0
H1053 H 0.04322 0.44807 0.10378 0.0
H1054 H 0.03466 0.49428 0.17519 0.0
H1055 H 0.03715 0.48393 0.14135 0.0
C1056 C 0.59609 0.59983 0.06141 0.0
C1057 C 0.61167 0.60825 0.06552 0.0
C1058 C 0.5863 0.5909 0.07744 0.0
C1059 C 0.58683 0.57307 0.129 0.0
H1060 H 0.54687 0.56806 0.13569 0.0
C1061 C 0.55432 0.55076 0.20599 0.0
C1062 C 0.53867 0.5409 0.2052 0.0
C1063 C 0.56218 0.55744 0.18749 0.0
C1064 C 0.55789 0.56912 0.13374 0.0
H1065 H 0.62917 0.61542 0.08986 0.0
H1066 H 0.61216 0.60016 0.11809 0.0
H1067 H 0.56275 0.58368 0.10664 0.0
H1068 H 0.51898 0.5299 0.18439 0.0
H1069 H 0.53288 0.54173 0.15153 0.0
H1070 H 0.58213 0.55872 0.15614 0.0
C1071 C 0.60747 0.59977 0.1023 0.0
C1072 C 0.56702 0.57811 0.11715 0.0
C1073 C 0.61724 0.60852 0.0862 0.0
C1074 C 0.53105 0.5375 0.18535 0.0
C1075 C 0.53897 0.54433 0.16666 0.0
C1076 C 0.57772 0.56407 0.14542 0.0
C1077 C 0.59191 0.59056 0.09801 0.0
C1078 C 0.58174 0.58042 0.11484 0.0
C1079 C 0.55463 0.55442 0.16761 0.0
C1080 C 0.56329 0.56226 0.14831 0.0
H1081 H 0.59156 0.59975 0.0456 0.0
H1082 H 0.57442 0.58396 0.07353 0.0
H1083 H 0.59795 0.57437 0.12759 0.0
H1084 H 0.56049 0.55345 0.22107 0.0
H1085 H 0.57418 0.5653 0.18886 0.0
C1086 C 0.38709 0.99801 0.07652 0.0
C1087 C 0.38714 0.99276 0.0559 0.0
C1088 C 0.39613 0.99697 0.09268 0.0
C1089 C 0.42985 0.992 0.09999 0.0
H1090 H 0.41901 0.98924 0.15958 0.0
C1091 C 0.45807 0.98031 0.17515 0.0
C1092 C 0.46209 0.99116 0.19156 0.0
C1093 C 0.4505 0.98106 0.15672 0.0
C1094 C 0.42217 0.99007 0.14297 0.0
H1095 H 0.39511 0.98074 0.03626 0.0
H1096 H 0.41076 0.97856 0.06456 0.0
H1097 H 0.40114 0.98758 0.13201 0.0
H1098 H 0.46265 0.01209 0.20049 0.0
H1099 H 0.44894 0.01301 0.16867 0.0
H1100 H 0.45072 0.99385 0.11137 0.0
C1101 C 0.40437 0.98417 0.06816 0.0
C1102 C 0.41199 0.98922 0.12713 0.0
C1103 C 0.39534 0.9853 0.05199 0.0
C1104 C 0.45942 0.00338 0.18837 0.0
C1105 C 0.45164 0.00396 0.17017 0.0
C1106 C 0.43992 0.99252 0.11589 0.0
C1107 C 0.40518 0.99035 0.0886 0.0
C1108 C 0.41573 0.99036 0.10541 0.0
C1109 C 0.44671 0.99256 0.15456 0.0
C1110 C 0.4362 0.99176 0.13748 0.0
H1111 H 0.38034 0.00328 0.08001 0.0
H1112 H 0.39644 0.00195 0.10808 0.0
H1113 H 0.43329 0.99319 0.0835 0.0
H1114 H 0.45983 0.97068 0.17713 0.0
H1115 H 0.44674 0.97213 0.14482 0.0
C1116 C 0.39441 0.99637 0.95832 0.0
C1117 C 0.39875 0.01039 0.96819 0.0
C1118 C 0.40327 0.99515 0.94244 0.0
C1119 C 0.4422 0.01553 0.92088 0.0
H1120 H 0.42382 0.98742 0.87352 0.0
C1121 C 0.47244 0.01722 0.8426 0.0
C1122 C 0.46952 0.00335 0.83361 0.0
C1123 C 0.46504 0.01755 0.86102 0.0
C1124 C 0.42912 0.99516 0.88683 0.0
H1125 H 0.41552 0.03425 0.96846 0.0
H1126 H 0.43061 0.03228 0.94022 0.0
H1127 H 0.40786 0.98942 0.90039 0.0
H1128 H 0.45708 0.97899 0.83713 0.0
H1129 H 0.44398 0.97952 0.86938 0.0
H1130 H 0.46345 0.02165 0.90667 0.0
C1131 C 0.42064 0.02208 0.94522 0.0
C1132 C 0.41997 0.99633 0.90227 0.0
C1133 C 0.41188 0.02326 0.96128 0.0
C1134 C 0.45964 0.98982 0.84393 0.0
C1135 C 0.45204 0.99013 0.8622 0.0
C1136 C 0.45133 0.0145 0.90527 0.0
C1137 C 0.41661 0.00797 0.93583 0.0
C1138 C 0.42637 0.00659 0.91947 0.0
C1139 C 0.45439 0.00399 0.87059 0.0
C1140 C 0.44488 0.00434 0.88805 0.0
H1141 H 0.38447 0.98618 0.9634 0.0
H1142 H 0.39987 0.98405 0.93585 0.0
H1143 H 0.44759 0.02332 0.93411 0.0
H1144 H 0.47995 0.02779 0.8348 0.0
H1145 H 0.46701 0.02838 0.86705 0.0
C1146 C 1.00254 0.4104 0.95903 0.0
C1147 C 0.00864 0.40091 0.9551 0.0
C1148 C 1.00243 0.42001 0.94302 0.0
C1149 C 0.02182 0.43823 0.89334 0.0
H1150 H 0.98741 0.44377 0.88146 0.0
C1151 C 0.0141 0.46044 0.81348 0.0
C1152 C 0.00764 0.46986 0.81235 0.0
C1153 C 0.01507 0.45417 0.83281 0.0
C1154 C 0.99724 0.4426 0.8849 0.0
H1155 H 0.01785 0.39267 0.93104 0.0
H1156 H 0.01771 0.40941 0.90299 0.0
H1157 H 0.98667 0.4278 0.91136 0.0
H1158 H 0.99759 0.48059 0.83057 0.0
H1159 H 0.99933 0.46955 0.86493 0.0
H1160 H 0.03241 0.45286 0.86698 0.0
C1161 C 0.01354 0.40992 0.9186 0.0
C1162 C 0.99678 0.43339 0.90194 0.0
C1163 C 0.01368 0.40038 0.93461 0.0
C1164 C 1.00262 0.47335 0.83114 0.0
C1165 C 0.00352 0.46696 0.85066 0.0
C1166 C 0.02235 0.44751 0.87656 0.0
C1167 C 0.00819 0.42007 0.92274 0.0
C1168 C 0.00895 0.4308 0.90596 0.0
C1169 C 0.00964 0.45718 0.85162 0.0
C1170 C 0.0099 0.44944 0.87169 0.0
H1171 H 0.99827 0.4107 0.97466 0.0
H1172 H 0.99821 0.42766 0.94668 0.0
H1173 H 0.03145 0.43668 0.89621 0.0
H1174 H 0.01813 0.45765 0.7992 0.0
H1175 H 0.01963 0.44652 0.83284 0.0
C1176 C 0.60979 0.58004 0.97478 0.0
C1177 C 0.61396 0.5953 0.97837 0.0
C1178 C 0.60022 0.57195 0.95769 0.0
C1179 C 0.57157 0.57161 0.92051 0.0
H1180 H 0.58079 0.54539 0.88656 0.0
C1181 C 0.54267 0.54585 0.83893 0.0
C1182 C 0.54034 0.53141 0.8334 0.0
C1183 C 0.55017 0.55289 0.85799 0.0
C1184 C 0.57788 0.55245 0.89608 0.0
H1185 H 0.61128 0.61401 0.96659 0.0
H1186 H 0.59467 0.59989 0.93666 0.0
H1187 H 0.59722 0.55941 0.91655 0.0
H1188 H 0.54348 0.51278 0.84419 0.0
H1189 H 0.55606 0.52482 0.87768 0.0
H1190 H 0.55225 0.56467 0.89991 0.0
C1191 C 0.59872 0.59417 0.94726 0.0
C1192 C 0.58734 0.56053 0.91325 0.0
C1193 C 0.60835 0.60229 0.96433 0.0
C1194 C 0.54493 0.52383 0.84797 0.0
C1195 C 0.55237 0.53085 0.86706 0.0
C1196 C 0.56206 0.56347 0.90334 0.0
C1197 C 0.59453 0.5789 0.94378 0.0
C1198 C 0.58434 0.57024 0.92563 0.0
C1199 C 0.55549 0.54564 0.872 0.0
C1200 C 0.56512 0.55382 0.89088 0.0
H1201 H 0.6138 0.57423 0.98528 0.0
H1202 H 0.59707 0.56016 0.95558 0.0
H1203 H 0.56883 0.57884 0.92993 0.0
H1204 H 0.53914 0.55192 0.82815 0.0
H1205 H 0.55242 0.5643 0.86124 0.0
C1206 C 1.00103 0.60981 0.92574 0.0
C1207 C 0.9972 0.60441 0.94659 0.0
C1208 C 0.99922 0.5999 0.90912 0.0
C1209 C 0.9973 0.56319 0.89938 0.0
H1210 H 0.98921 0.57107 0.8414 0.0
C1211 C 0.99768 0.53051 0.82175 0.0
C1212 C 0.00596 0.54034 0.80518 0.0
C1213 C 0.99506 0.53634 0.84055 0.0
C1214 C 0.99147 0.56872 0.85753 0.0
H1215 H 0.98711 0.58443 0.9664 0.0
H1216 H 0.98396 0.5669 0.93723 0.0
H1217 H 0.98581 0.58456 0.87097 0.0
H1218 H 0.01911 0.5639 0.79594 0.0
H1219 H 0.01447 0.57394 0.82841 0.0
H1220 H 1.00315 0.54743 0.88559 0.0
C1221 C 0.98875 0.57885 0.93379 0.0
C1222 C 0.98957 0.57648 0.87447 0.0
C1223 C 0.9905 0.58882 0.95043 0.0
C1224 C 0.01237 0.55604 0.80825 0.0
C1225 C 0.0097 0.56179 0.82679 0.0
C1226 C 0.99913 0.55534 0.88235 0.0
C1227 C 0.99336 0.58434 0.913 0.0
C1228 C 0.99298 0.57423 0.89554 0.0
C1229 C 1.00065 0.55201 0.84284 0.0
C1230 C 0.9967 0.55843 0.86124 0.0
H1231 H 0.0058 0.62177 0.92239 0.0
H1232 H 1.00305 0.6046 0.89341 0.0
H1233 H 0.99999 0.56115 0.91542 0.0
H1234 H 0.99267 0.51837 0.81977 0.0
H1235 H 0.98813 0.52859 0.85282 0.0
C1236 C 0.3967 0.39902 0.96216 0.0
C1237 C 0.40376 0.39312 0.97553 0.0
C1238 C 0.40447 0.40852 0.94512 0.0
C1239 C 0.44322 0.43348 0.92571 0.0
H1240 H 0.42325 0.42843 0.87068 0.0
C1241 C 0.47524 0.45795 0.84724 0.0
C1242 C 0.46859 0.4628 0.8315 0.0
C1243 C 0.46764 0.4514 0.86613 0.0
C1244 C 0.42894 0.43018 0.88603 0.0
H1245 H 0.42453 0.39245 0.98112 0.0
H1246 H 0.43787 0.40872 0.95138 0.0
H1247 H 0.40907 0.41272 0.90059 0.0
H1248 H 0.44925 0.46554 0.82387 0.0
H1249 H 0.43604 0.45421 0.85692 0.0
H1250 H 0.46316 0.45076 0.91102 0.0
C1251 C 0.42643 0.40625 0.95427 0.0
C1252 C 0.4208 0.42115 0.90319 0.0
C1253 C 0.41869 0.39678 0.97125 0.0
C1254 C 0.45457 0.46173 0.8356 0.0
C1255 C 0.44698 0.45518 0.85447 0.0
C1256 C 0.45136 0.44251 0.90855 0.0
C1257 C 0.41948 0.41234 0.9411 0.0
C1258 C 0.42789 0.42254 0.92316 0.0
C1259 C 0.45323 0.44955 0.86969 0.0
C1260 C 0.44436 0.44085 0.88844 0.0
H1261 H 0.38524 0.39651 0.96501 0.0
H1262 H 0.39881 0.4131 0.93537 0.0
H1263 H 0.44895 0.43506 0.941 0.0
H1264 H 0.48592 0.4584 0.84446 0.0
H1265 H 0.47273 0.44706 0.87742 0.0
C1266 C 0.61564 0.00935 0.94199 0.0
C1267 C 0.61407 0.0115 0.96369 0.0
C1268 C 0.60752 0.01243 0.92652 0.0
C1269 C 0.59376 0.02546 0.89584 0.0
H1270 H 0.55158 0.01104 0.90757 0.0
C1271 C 0.5546 0.02726 0.8308 0.0
C1272 C 0.54123 0.01343 0.82756 0.0
C1273 C 0.56315 0.02993 0.84959 0.0
C1274 C 0.56335 0.01517 0.90409 0.0
H1275 H 0.60413 0.0199 0.98638 0.0
H1276 H 0.58971 0.02522 0.95933 0.0
H1277 H 0.56814 0.01044 0.9357 0.0
H1278 H 0.52584 0.99194 0.84204 0.0
H1279 H 0.54072 0.99655 0.8748 0.0
H1280 H 0.58888 0.0296 0.86401 0.0
C1281 C 0.59687 0.02076 0.95425 0.0
C1282 C 0.57287 0.01495 0.92025 0.0
C1283 C 0.60511 0.01776 0.9697 0.0
C1284 C 0.536 0.00278 0.84415 0.0
C1285 C 0.54457 0.00543 0.86294 0.0
C1286 C 0.58426 0.02573 0.87972 0.0
C1287 C 0.59779 0.01788 0.9325 0.0
C1288 C 0.58811 0.01976 0.91615 0.0
C1289 C 0.55852 0.01879 0.86552 0.0
C1290 C 0.56888 0.0203 0.88352 0.0
H1291 H 0.62294 0.00501 0.93704 0.0
H1292 H 0.60844 0.00999 0.90996 0.0
H1293 H 0.60548 0.02946 0.89225 0.0
H1294 H 0.5588 0.03575 0.81836 0.0
H1295 H 0.57369 0.04047 0.85129 0.0
C1296 C 0.60504 0.9974 0.06029 0.0
C1297 C 0.59986 0.98513 0.04593 0.0
C1298 C 0.5958 0.99732 0.07661 0.0
C1299 C 0.56298 0.97262 0.10887 0.0
H1300 H 0.5597 0.00882 0.11635 0.0
C1301 C 0.52379 0.975 0.1722 0.0
C1302 C 0.53009 0.98826 0.18475 0.0
C1303 C 0.53071 0.97451 0.15331 0.0
C1304 C 0.56056 0.99866 0.11461 0.0
H1305 H 0.58106 0.96289 0.03806 0.0
H1306 H 0.56507 0.96272 0.06679 0.0
H1307 H 0.57572 0.00797 0.08848 0.0
H1308 H 0.54789 0.01169 0.18651 0.0
H1309 H 0.56013 0.01075 0.154 0.0
H1310 H 0.54822 0.96343 0.13537 0.0
C1311 C 0.57626 0.97241 0.06529 0.0
C1312 C 0.56975 0.99819 0.09864 0.0
C1313 C 0.58543 0.97254 0.04882 0.0
C1314 C 0.54286 1.00125 0.1773 0.0
C1315 C 0.54981 1.00074 0.15852 0.0
C1316 C 0.55389 0.97313 0.12499 0.0
C1317 C 0.58124 0.98493 0.07909 0.0
C1318 C 0.57117 0.98522 0.09574 0.0
C1319 C 0.54408 0.98724 0.14659 0.0
C1320 C 0.55268 0.98622 0.12822 0.0
H1321 H 0.61605 0.0073 0.05853 0.0
H1322 H 0.60001 0.00704 0.08722 0.0
H1323 H 0.56393 0.96251 0.10707 0.0
H1324 H 0.51401 0.96477 0.17756 0.0
H1325 H 0.52581 0.964 0.1443 0.0
C1326 C 0.02985 0.6083 0.03775 0.0
C1327 C 0.01879 0.6126 0.03434 0.0
C1328 C 0.02955 0.60012 0.05592 0.0
C1329 C 0.01463 0.59147 0.11048 0.0
H1330 H 0.02385 0.55873 0.10684 0.0
C1331 C 0.02407 0.56524 0.18587 0.0
C1332 C 0.01703 0.54938 0.18682 0.0
C1333 C 0.02474 0.57246 0.16665 0.0
C1334 C 0.02115 0.56777 0.10807 0.0
H1335 H 0.99871 0.61158 0.04748 0.0
H1336 H 0.99818 0.59728 0.07902 0.0
H1337 H 0.02366 0.57218 0.07444 0.0
H1338 H 0.00584 0.52862 0.16828 0.0
H1339 H 0.00685 0.54131 0.13435 0.0
H1340 H 0.01186 0.58696 0.14394 0.0
C1341 C 0.00719 0.60039 0.06775 0.0
C1342 C 0.0212 0.57558 0.08957 0.0
C1343 C 0.00748 0.60857 0.0496 0.0
C1344 C 0.01128 0.54087 0.16792 0.0
C1345 C 0.01189 0.54814 0.14857 0.0
C1346 C 0.01459 0.58369 0.12891 0.0
C1347 C 0.01821 0.59606 0.07112 0.0
C1348 C 0.01799 0.58756 0.0906 0.0
C1349 C 0.01833 0.56401 0.14787 0.0
C1350 C 0.01797 0.57184 0.12797 0.0
H1351 H 0.03873 0.61117 0.02634 0.0
H1352 H 0.03832 0.59714 0.05818 0.0
H1353 H 0.01225 0.60072 0.1119 0.0
H1354 H 0.02892 0.57209 0.20014 0.0
H1355 H 0.03015 0.58472 0.16655 0.0
C1356 C 0.39673 0.39231 0.08367 0.0
C1357 C 0.39533 0.39767 0.0636 0.0
C1358 C 0.40652 0.40234 0.09921 0.0
C1359 C 0.42638 0.44188 0.1174 0.0
H1360 H 0.45307 0.42974 0.14499 0.0
C1361 C 0.46816 0.47665 0.18686 0.0
C1362 C 0.46771 0.46762 0.20417 0.0
C1363 C 0.46115 0.46987 0.16728 0.0
C1364 C 0.44567 0.43332 0.13755 0.0
H1365 H 0.4018 0.41771 0.04454 0.0
H1366 H 0.41902 0.4354 0.07186 0.0
H1367 H 0.43603 0.41421 0.11663 0.0
H1368 H 0.46035 0.44464 0.21446 0.0
H1369 H 0.44809 0.43291 0.18092 0.0
H1370 H 0.43548 0.46064 0.1394 0.0
C1371 C 0.41279 0.42342 0.0754 0.0
C1372 C 0.43594 0.4244 0.1212 0.0
C1373 C 0.40303 0.41333 0.0598 0.0
C1374 C 0.46076 0.45186 0.20139 0.0
C1375 C 0.45385 0.44515 0.18205 0.0
C1376 C 0.43599 0.45075 0.13414 0.0
C1377 C 0.41486 0.41797 0.09511 0.0
C1378 C 0.42596 0.42836 0.11124 0.0
C1379 C 0.45379 0.454 0.16477 0.0
C1380 C 0.44545 0.4463 0.14479 0.0
H1381 H 0.39038 0.38033 0.08724 0.0
H1382 H 0.40764 0.39785 0.11444 0.0
H1383 H 0.4188 0.44522 0.10996 0.0
H1384 H 0.47347 0.48884 0.18868 0.0
H1385 H 0.46139 0.477 0.15421 0.0
C1386 C 0.69829 0.75829 0.37623 0.0
C1387 C 0.68638 0.74343 0.37282 0.0
C1388 C 0.6979 0.76706 0.39317 0.0
C1389 C 0.67122 0.77092 0.42769 0.0
H1390 H 0.70567 0.79327 0.46566 0.0
C1391 C 0.66641 0.79401 0.50926 0.0
C1392 C 0.67873 0.80734 0.51743 0.0
C1393 C 0.66745 0.78783 0.48989 0.0
C1394 C 0.69603 0.78736 0.45497 0.0
H1395 H 0.66486 0.72608 0.38491 0.0
H1396 H 0.66423 0.74139 0.41432 0.0
H1397 H 0.70764 0.77908 0.43566 0.0
H1398 H 0.70157 0.82502 0.51109 0.0
H1399 H 0.70321 0.81451 0.47688 0.0
H1400 H 0.65958 0.77915 0.44686 0.0
C1401 C 0.6738 0.74627 0.40378 0.0
C1402 C 0.69716 0.77917 0.43785 0.0
C1403 C 0.67424 0.73746 0.38702 0.0
C1404 C 0.69183 0.8148 0.50518 0.0
C1405 C 0.69285 0.80865 0.48572 0.0
C1406 C 0.67012 0.7792 0.44468 0.0
C1407 C 0.68552 0.76121 0.40688 0.0
C1408 C 0.68468 0.77065 0.42427 0.0
C1409 C 0.68081 0.79487 0.47811 0.0
C1410 C 0.68243 0.78732 0.45877 0.0
H1411 H 0.7078 0.76327 0.36562 0.0
H1412 H 0.70707 0.77857 0.39517 0.0
H1413 H 0.6615 0.76468 0.41723 0.0
H1414 H 0.6561 0.78808 0.51821 0.0
H1415 H 0.65798 0.77715 0.48467 0.0
C1416 C 0.27722 0.94669 0.41341 0.0
C1417 C 0.2722 0.94465 0.3921 0.0
C1418 C 0.26708 0.93918 0.42972 0.0
C1419 C 0.23044 0.90522 0.43921 0.0
H1420 H 0.23677 0.9232 0.49566 0.0
C1421 C 0.19664 0.87435 0.51631 0.0
C1422 C 0.20619 0.87645 0.53398 0.0
C1423 C 0.20261 0.88248 0.49739 0.0
C1424 C 0.23483 0.91803 0.47995 0.0
H1425 H 0.25262 0.93446 0.37102 0.0
H1426 H 0.23471 0.92108 0.39963 0.0
H1427 H 0.25088 0.93884 0.46571 0.0
H1428 H 0.22951 0.88761 0.5451 0.0
H1429 H 0.23975 0.90175 0.51252 0.0
H1430 H 0.21455 0.88427 0.45383 0.0
C1431 C 0.24654 0.92817 0.40372 0.0
C1432 C 0.24295 0.92698 0.46281 0.0
C1433 C 0.25673 0.93583 0.38739 0.0
C1434 C 0.2218 0.8861 0.53199 0.0
C1435 C 0.22769 0.89421 0.51334 0.0
C1436 C 0.22224 0.89624 0.45644 0.0
C1437 C 0.25165 0.92958 0.42505 0.0
C1438 C 0.24126 0.92058 0.44238 0.0
C1439 C 0.21816 0.8928 0.49604 0.0
C1440 C 0.22476 0.90249 0.47708 0.0
H1441 H 0.28907 0.95385 0.4174 0.0
H1442 H 0.27147 0.94045 0.44591 0.0
H1443 H 0.22884 0.89993 0.42367 0.0
H1444 H 0.18459 0.86688 0.5174 0.0
H1445 H 0.19506 0.88111 0.48414 0.0
C1446 C 0.05927 0.33926 0.40665 0.0
C1447 C 0.05738 0.33212 0.38681 0.0
C1448 C 0.06911 0.33884 0.42211 0.0
C1449 C 0.08624 0.31701 0.44138 0.0
H1450 H 0.11774 0.35511 0.46472 0.0
C1451 C 0.12735 0.31768 0.50616 0.0
C1452 C 0.13097 0.32819 0.52291 0.0
C1453 C 0.12039 0.31887 0.48736 0.0
C1454 C 0.10892 0.34432 0.45865 0.0
H1455 H 0.06305 0.31776 0.3681 0.0
H1456 H 0.08016 0.31681 0.39533 0.0
H1457 H 0.10034 0.35508 0.43771 0.0
H1458 H 0.13125 0.3489 0.53224 0.0
H1459 H 0.11844 0.35051 0.50033 0.0
H1460 H 0.09404 0.30607 0.46323 0.0
C1461 C 0.07437 0.32309 0.39868 0.0
C1462 C 0.09901 0.34436 0.44302 0.0
C1463 C 0.06466 0.32367 0.38315 0.0
C1464 C 0.12834 0.34043 0.51984 0.0
C1465 C 0.12114 0.34146 0.50129 0.0
C1466 C 0.0959 0.31691 0.45744 0.0
C1467 C 0.07686 0.33087 0.41816 0.0
C1468 C 0.08755 0.33073 0.43432 0.0
C1469 C 0.11668 0.33047 0.48499 0.0
C1470 C 0.1073 0.33058 0.46648 0.0
H1471 H 0.05321 0.34526 0.41013 0.0
H1472 H 0.07065 0.3447 0.43717 0.0
H1473 H 0.07741 0.30632 0.43498 0.0
H1474 H 0.12916 0.30807 0.50795 0.0
H1475 H 0.11753 0.31042 0.47497 0.0
C1476 C 0.08067 0.35207 0.29597 0.0
C1477 C 0.06521 0.34216 0.29925 0.0
C1478 C 0.08848 0.34885 0.28058 0.0
C1479 C 0.08634 0.31703 0.24874 0.0
H1480 H 0.11723 0.34932 0.2153 0.0
C1481 C 0.10997 0.30765 0.17064 0.0
C1482 C 0.12525 0.31728 0.16617 0.0
C1483 C 0.10374 0.30967 0.1892 0.0
C1484 C 0.10883 0.34021 0.22478 0.0
H1485 H 0.04579 0.32127 0.28826 0.0
H1486 H 0.05935 0.31588 0.26099 0.0
H1487 H 0.10363 0.35528 0.24173 0.0
H1488 H 0.14623 0.33604 0.17791 0.0
H1489 H 0.13533 0.33963 0.21061 0.0
H1490 H 0.0913 0.30192 0.23122 0.0
C1491 C 0.06551 0.32598 0.27074 0.0
C1492 C 0.10099 0.34361 0.23991 0.0
C1493 C 0.05769 0.32915 0.28625 0.0
C1494 C 0.13444 0.3284 0.18117 0.0
C1495 C 0.12817 0.33054 0.1997 0.0
C1496 C 0.09413 0.31362 0.23349 0.0
C1497 C 0.08106 0.33569 0.26791 0.0
C1498 C 0.08955 0.33206 0.25198 0.0
C1499 C 0.11264 0.32148 0.20356 0.0
C1500 C 0.10538 0.32516 0.22123 0.0
H1501 H 0.08691 0.36217 0.3057 0.0
H1502 H 0.10047 0.35651 0.27905 0.0
H1503 H 0.07784 0.30788 0.25804 0.0
H1504 H 0.10267 0.29907 0.15917 0.0
H1505 H 0.09174 0.30257 0.19161 0.0
C1506 C 0.66509 0.72733 0.26685 0.0
C1507 C 0.66245 0.72901 0.2883 0.0
C1508 C 0.66239 0.73544 0.25096 0.0
C1509 C 0.66018 0.77024 0.24355 0.0
H1510 H 0.64585 0.75342 0.1869 0.0
C1511 C 0.64849 0.78737 0.15306 0.0
C1512 C 0.66247 0.80048 0.14995 0.0
C1513 C 0.64568 0.77918 0.17203 0.0
C1514 C 0.64964 0.75826 0.20271 0.0
H1515 H 0.65366 0.73919 0.31002 0.0
H1516 H 0.64908 0.75362 0.28224 0.0
H1517 H 0.64573 0.73708 0.21551 0.0
H1518 H 0.68403 0.81588 0.16493 0.0
H1519 H 0.6791 0.80167 0.19802 0.0
H1520 H 0.66435 0.79151 0.23057 0.0
C1521 C 0.65358 0.74636 0.27771 0.0
C1522 C 0.64975 0.74892 0.21905 0.0
C1523 C 0.65616 0.73812 0.29356 0.0
C1524 C 0.67308 0.80592 0.1669 0.0
C1525 C 0.67026 0.79773 0.18588 0.0
C1526 C 0.66016 0.77962 0.22715 0.0
C1527 C 0.65689 0.74528 0.25626 0.0
C1528 C 0.65531 0.75486 0.23954 0.0
C1529 C 0.65678 0.78394 0.18829 0.0
C1530 C 0.65512 0.77379 0.20645 0.0
H1531 H 0.66947 0.71994 0.26243 0.0
H1532 H 0.66515 0.7344 0.23464 0.0
H1533 H 0.66457 0.77518 0.25916 0.0
H1534 H 0.64003 0.78302 0.14037 0.0
H1535 H 0.63505 0.76877 0.17359 0.0
C1536 C 0.27685 0.91317 0.30503 0.0
C1537 C 0.27976 0.92813 0.30797 0.0
C1538 C 0.26761 0.9043 0.28813 0.0
C1539 C 0.23703 0.90042 0.25229 0.0
H1540 H 0.24879 0.87696 0.21657 0.0
C1541 C 0.20857 0.87541 0.17087 0.0
C1542 C 0.20776 0.86192 0.16366 0.0
C1543 C 0.21579 0.88202 0.19023 0.0
C1544 C 0.24516 0.88319 0.22664 0.0
H1545 H 0.27539 0.94553 0.2951 0.0
H1546 H 0.2593 0.93002 0.26566 0.0
H1547 H 0.26508 0.89169 0.24638 0.0
H1548 H 0.21317 0.84432 0.17177 0.0
H1549 H 0.22529 0.85555 0.20596 0.0
H1550 H 0.2171 0.89194 0.23265 0.0
C1551 C 0.26409 0.92516 0.27657 0.0
C1552 C 0.25456 0.8917 0.24365 0.0
C1553 C 0.27344 0.93408 0.29334 0.0
C1554 C 0.21351 0.85467 0.17691 0.0
C1555 C 0.22066 0.86124 0.19636 0.0
C1556 C 0.22756 0.89182 0.23539 0.0
C1557 C 0.26096 0.91013 0.27391 0.0
C1558 C 0.25069 0.90057 0.25645 0.0
C1559 C 0.22229 0.87522 0.20296 0.0
C1560 C 0.23161 0.88326 0.22216 0.0
H1561 H 0.28151 0.90821 0.31599 0.0
H1562 H 0.26534 0.89273 0.28651 0.0
H1563 H 0.23363 0.90695 0.26215 0.0
H1564 H 0.20409 0.88118 0.16113 0.0
H1565 H 0.21689 0.89283 0.19468 0.0
C1566 C 0.66964 0.94692 0.26547 0.0
C1567 C 0.66444 0.94086 0.2857 0.0
C1568 C 0.66887 0.93753 0.24869 0.0
C1569 C 0.66708 0.90079 0.23899 0.0
H1570 H 0.66282 0.91022 0.18013 0.0
C1571 C 0.66956 0.86756 0.16391 0.0
C1572 C 0.6779 0.87684 0.14693 0.0
C1573 C 0.6669 0.87397 0.18204 0.0
C1574 C 0.66411 0.9075 0.1965 0.0
H1575 H 0.65294 0.92024 0.30401 0.0
H1576 H 0.65157 0.90364 0.2746 0.0
H1577 H 0.65837 0.92357 0.20883 0.0
H1578 H 0.69105 0.90004 0.13623 0.0
H1579 H 0.6865 0.91116 0.16768 0.0
H1580 H 0.67294 0.88472 0.22639 0.0
C1581 C 0.65667 0.9157 0.2718 0.0
C1582 C 0.66158 0.91516 0.21296 0.0
C1583 C 0.65739 0.92514 0.28858 0.0
C1584 C 0.68433 0.89261 0.14893 0.0
C1585 C 0.68167 0.89897 0.16688 0.0
C1586 C 0.66958 0.89305 0.22245 0.0
C1587 C 0.66271 0.92184 0.25176 0.0
C1588 C 0.66344 0.91223 0.23442 0.0
C1589 C 0.67254 0.88971 0.18331 0.0
C1590 C 0.66851 0.89664 0.20105 0.0
H1591 H 0.67468 0.959 0.2628 0.0
H1592 H 0.67374 0.94273 0.23358 0.0
H1593 H 0.66862 0.89822 0.25533 0.0
H1594 H 0.6645 0.85536 0.1627 0.0
H1595 H 0.65988 0.86659 0.19455 0.0
C1596 C 0.0855 0.72758 0.29852 0.0
C1597 C 0.07087 0.72513 0.30226 0.0
C1598 C 0.09371 0.73616 0.28112 0.0
C1599 C 0.09643 0.76539 0.24334 0.0
H1600 H 0.12058 0.75291 0.21086 0.0
C1601 C 0.12355 0.79207 0.16255 0.0
C1602 C 0.13761 0.79342 0.15781 0.0
C1603 C 0.11614 0.78502 0.18132 0.0
C1604 C 0.11409 0.7567 0.21997 0.0
H1605 H 0.05339 0.72965 0.29023 0.0
H1606 H 0.06771 0.74447 0.25968 0.0
H1607 H 0.10569 0.73741 0.24044 0.0
H1608 H 0.15522 0.78906 0.1696 0.0
H1609 H 0.14247 0.77709 0.20262 0.0
H1610 H 0.10478 0.78464 0.22271 0.0
C1611 C 0.07286 0.7399 0.27046 0.0
C1612 C 0.10551 0.74777 0.2369 0.0
C1613 C 0.0646 0.73129 0.28788 0.0
C1614 C 0.14446 0.78831 0.17283 0.0
C1615 C 0.13705 0.78125 0.19162 0.0
C1616 C 0.10503 0.77433 0.22638 0.0
C1617 C 0.08756 0.74253 0.26696 0.0
C1618 C 0.09655 0.75199 0.24878 0.0
C1619 C 0.12262 0.77916 0.19581 0.0
C1620 C 0.11396 0.77009 0.21447 0.0
H1621 H 0.09077 0.72311 0.30926 0.0
H1622 H 0.10506 0.7381 0.27907 0.0
H1623 H 0.08984 0.76908 0.25238 0.0
H1624 H 0.11803 0.796 0.15135 0.0
H1625 H 0.10502 0.78356 0.18398 0.0
C1626 C 0.28213 0.347 0.26957 0.0
C1627 C 0.28085 0.34899 0.29141 0.0
C1628 C 0.27378 0.35019 0.25458 0.0
C1629 C 0.25867 0.36233 0.22474 0.0
H1630 H 0.21677 0.34709 0.23921 0.0
C1631 C 0.21643 0.3597 0.16131 0.0
C1632 C 0.20374 0.34518 0.15911 0.0
C1633 C 0.22549 0.36368 0.17979 0.0
C1634 C 0.22846 0.3515 0.23498 0.0
H1635 H 0.27134 0.35737 0.31484 0.0
H1636 H 0.25655 0.36286 0.28868 0.0
H1637 H 0.23455 0.34791 0.26643 0.0
H1638 H 0.18996 0.32391 0.17533 0.0
H1639 H 0.20564 0.33088 0.20755 0.0
H1640 H 0.25245 0.36529 0.19307 0.0
C1641 C 0.26363 0.35843 0.28308 0.0
C1642 C 0.23869 0.35208 0.25062 0.0
C1643 C 0.27207 0.35532 0.29803 0.0
C1644 C 0.19955 0.33525 0.17656 0.0
C1645 C 0.20859 0.33924 0.19506 0.0
C1646 C 0.24846 0.36183 0.20916 0.0
C1647 C 0.26411 0.35556 0.26121 0.0
C1648 C 0.25382 0.35706 0.2455 0.0
C1649 C 0.22201 0.35324 0.19649 0.0
C1650 C 0.23316 0.35603 0.21395 0.0
H1651 H 0.28929 0.34262 0.26413 0.0
H1652 H 0.27439 0.34776 0.2379 0.0
H1653 H 0.27029 0.36648 0.22036 0.0
H1654 H 0.21982 0.36767 0.14823 0.0
H1655 H 0.2356 0.37466 0.1806 0.0
C1656 C 0.26993 0.33381 0.38702 0.0
C1657 C 0.26461 0.32182 0.37216 0.0
C1658 C 0.26069 0.33365 0.40339 0.0
C1659 C 0.22784 0.30876 0.43518 0.0
H1660 H 0.22575 0.34536 0.44546 0.0
C1661 C 0.19074 0.31122 0.50177 0.0
C1662 C 0.19766 0.32425 0.51477 0.0
C1663 C 0.19708 0.31082 0.48227 0.0
C1664 C 0.22627 0.33508 0.44292 0.0
H1665 H 0.2455 0.30001 0.36333 0.0
H1666 H 0.22948 0.29967 0.39218 0.0
H1667 H 0.24105 0.34461 0.41643 0.0
H1668 H 0.216 0.34742 0.51681 0.0
H1669 H 0.22724 0.34664 0.48324 0.0
H1670 H 0.21352 0.29937 0.46207 0.0
C1671 C 0.24079 0.30922 0.39102 0.0
C1672 C 0.23504 0.33466 0.42628 0.0
C1673 C 0.24997 0.30944 0.37449 0.0
C1674 C 0.2105 0.33715 0.50726 0.0
C1675 C 0.21687 0.33674 0.48787 0.0
C1676 C 0.21918 0.30922 0.45196 0.0
C1677 C 0.24598 0.32143 0.40542 0.0
C1678 C 0.23608 0.32157 0.42242 0.0
C1679 C 0.21048 0.32343 0.4754 0.0
C1680 C 0.21845 0.32246 0.45623 0.0
H1681 H 0.2811 0.34355 0.38572 0.0
H1682 H 0.26506 0.34312 0.41446 0.0
H1683 H 0.22851 0.29855 0.43265 0.0
H1684 H 0.18089 0.30106 0.50715 0.0
H1685 H 0.1917 0.30048 0.47288 0.0
C1686 C 0.66787 0.9386 0.38799 0.0
C1687 C 0.68059 0.94424 0.37488 0.0
C1688 C 0.66627 0.92909 0.40511 0.0
C1689 C 0.67981 0.90358 0.42588 0.0
H1690 H 0.66437 0.90883 0.47951 0.0
C1691 C 0.68505 0.87791 0.5061 0.0
C1692 C 0.67322 0.87323 0.52066 0.0
C1693 C 0.6846 0.88464 0.48678 0.0
C1694 C 0.66846 0.90703 0.46454 0.0
H1695 H 0.70169 0.94438 0.36981 0.0
H1696 H 0.69901 0.92805 0.39992 0.0
H1697 H 0.66669 0.92503 0.44943 0.0
H1698 H 0.65117 0.87087 0.52569 0.0
H1699 H 0.65035 0.88254 0.49189 0.0
H1700 H 0.68185 0.88576 0.44125 0.0
C1701 C 0.69014 0.93077 0.39669 0.0
C1702 C 0.66982 0.91635 0.44729 0.0
C1703 C 0.69174 0.94026 0.37953 0.0
C1704 C 0.66053 0.87455 0.51489 0.0
C1705 C 0.66009 0.88129 0.4956 0.0
C1706 C 0.67849 0.89428 0.44319 0.0
C1707 C 0.67735 0.92499 0.40961 0.0
C1708 C 0.67559 0.91481 0.42778 0.0
C1709 C 0.67233 0.88683 0.48164 0.0
C1710 C 0.67287 0.89596 0.46274 0.0
H1711 H 0.659 0.94132 0.38485 0.0
H1712 H 0.65618 0.9247 0.41458 0.0
H1713 H 0.68406 0.90193 0.41097 0.0
H1714 H 0.69507 0.87723 0.51018 0.0
H1715 H 0.69426 0.88888 0.47645 0.0
C1716 C 0.05995 0.72795 0.41147 0.0
C1717 C 0.06114 0.7336 0.39075 0.0
C1718 C 0.06885 0.73743 0.4281 0.0
C1719 C 0.09402 0.77796 0.4437 0.0
H1720 H 0.10854 0.75955 0.48528 0.0
C1721 C 0.13615 0.81143 0.51391 0.0
C1722 C 0.13213 0.80401 0.53371 0.0
C1723 C 0.12845 0.80382 0.4951 0.0
C1724 C 0.10455 0.7649 0.47388 0.0
H1725 H 0.07161 0.75367 0.37117 0.0
H1726 H 0.08783 0.77026 0.40003 0.0
H1727 H 0.09227 0.74442 0.45625 0.0
H1728 H 0.11735 0.78266 0.54916 0.0
H1729 H 0.10387 0.76972 0.5169 0.0
H1730 H 0.10599 0.79841 0.46228 0.0
C1731 C 0.07994 0.75855 0.40362 0.0
C1732 C 0.09521 0.75618 0.45707 0.0
C1733 C 0.07076 0.74907 0.38705 0.0
C1734 C 0.12054 0.78883 0.53425 0.0
C1735 C 0.11293 0.78131 0.51565 0.0
C1736 C 0.10331 0.7867 0.46077 0.0
C1737 C 0.07928 0.75279 0.42433 0.0
C1738 C 0.08966 0.76249 0.44183 0.0
C1739 C 0.11677 0.78863 0.49582 0.0
C1740 C 0.10843 0.78016 0.47627 0.0
H1741 H 0.05218 0.71614 0.41478 0.0
H1742 H 0.0676 0.73264 0.44391 0.0
H1743 H 0.08986 0.78321 0.43242 0.0
H1744 H 0.14507 0.82311 0.51304 0.0
H1745 H 0.13172 0.80973 0.48001 0.0
C1746 C 0.35958 0.09248 0.70976 0.0
C1747 C 0.34866 0.0775 0.70456 0.0
C1748 C 0.35735 0.10011 0.72667 0.0
C1749 C 0.34697 0.11619 0.75755 0.0
H1750 H 0.33087 0.093 0.80925 0.0
C1751 C 0.33747 0.14118 0.83621 0.0
C1752 C 0.34246 0.13711 0.85487 0.0
C1753 C 0.33692 0.13422 0.8166 0.0
C1754 C 0.33536 0.09964 0.79492 0.0
H1755 H 0.32657 0.05899 0.71271 0.0
H1756 H 0.32265 0.07233 0.74194 0.0
H1757 H 0.33256 0.08041 0.77732 0.0
H1758 H 0.35169 0.12331 0.86729 0.0
H1759 H 0.35059 0.11122 0.8335 0.0
H1760 H 0.35032 0.13557 0.77569 0.0
C1761 C 0.33308 0.07809 0.73322 0.0
C1762 C 0.33619 0.09239 0.77652 0.0
C1763 C 0.33533 0.07045 0.7164 0.0
C1764 C 0.34727 0.12632 0.8534 0.0
C1765 C 0.34668 0.1194 0.83399 0.0
C1766 C 0.34614 0.12347 0.77604 0.0
C1767 C 0.34413 0.09295 0.73873 0.0
C1768 C 0.34223 0.1006 0.7577 0.0
C1769 C 0.34134 0.12311 0.81541 0.0
C1770 C 0.34062 0.11531 0.79504 0.0
H1771 H 0.36997 0.09829 0.70095 0.0
H1772 H 0.36619 0.11147 0.73066 0.0
H1773 H 0.35149 0.12281 0.74321 0.0
H1774 H 0.3338 0.14953 0.83685 0.0
H1775 H 0.3328 0.13732 0.80248 0.0
C1776 C 0.92651 0.26496 0.72833 0.0
C1777 C 0.94204 0.27328 0.73301 0.0
C1778 C 0.91642 0.2558 0.74393 0.0
C1779 C 0.91579 0.23614 0.79367 0.0
H1780 H 0.87754 0.23435 0.80397 0.0
C1781 C 0.88569 0.21517 0.87234 0.0
C1782 C 0.86989 0.20699 0.87295 0.0
C1783 C 0.89302 0.22116 0.85325 0.0
C1784 C 0.88804 0.23446 0.80096 0.0
H1785 H 0.95909 0.28001 0.75796 0.0
H1786 H 0.94155 0.26403 0.78529 0.0
H1787 H 0.89334 0.24982 0.77467 0.0
H1788 H 0.84928 0.19815 0.85408 0.0
H1789 H 0.86222 0.20867 0.82013 0.0
H1790 H 0.91069 0.22091 0.81979 0.0
C1791 C 0.93717 0.26407 0.76942 0.0
C1792 C 0.89711 0.24338 0.78427 0.0
C1793 C 0.94722 0.27318 0.75382 0.0
C1794 C 0.86149 0.20441 0.8539 0.0
C1795 C 0.86888 0.21052 0.83461 0.0
C1796 C 0.9067 0.22712 0.81006 0.0
C1797 C 0.9217 0.25504 0.76454 0.0
C1798 C 0.9113 0.24463 0.78086 0.0
C1799 C 0.88475 0.21909 0.83418 0.0
C1800 C 0.89295 0.22655 0.81439 0.0
H1801 H 0.92226 0.26519 0.71243 0.0
H1802 H 0.90457 0.24902 0.73971 0.0
H1803 H 0.92649 0.23665 0.79127 0.0
H1804 H 0.89241 0.21725 0.88683 0.0
H1805 H 0.90521 0.22788 0.85364 0.0
C1806 C 0.73098 0.6544 0.71212 0.0
C1807 C 0.72264 0.6617 0.71608 0.0
C1808 C 0.7405 0.65384 0.72803 0.0
C1809 C 0.74902 0.65987 0.78666 0.0
H1810 H 0.78762 0.66451 0.77011 0.0
C1811 C 0.79673 0.67399 0.84726 0.0
C1812 C 0.79922 0.66165 0.85037 0.0
C1813 C 0.78902 0.67473 0.82908 0.0
C1814 C 0.77686 0.66321 0.77484 0.0
H1815 H 0.71619 0.6726 0.7401 0.0
H1816 H 0.73312 0.67225 0.76765 0.0
H1817 H 0.76983 0.66355 0.74256 0.0
H1818 H 0.79673 0.64113 0.83577 0.0
H1819 H 0.78377 0.64284 0.80353 0.0
H1820 H 0.75641 0.66018 0.81896 0.0
C1821 C 0.73254 0.66696 0.75241 0.0
C1822 C 0.76659 0.66251 0.75913 0.0
C1823 C 0.72301 0.66743 0.73654 0.0
C1824 C 0.79512 0.65085 0.83386 0.0
C1825 C 0.78763 0.65175 0.81545 0.0
C1826 C 0.7594 0.66091 0.80229 0.0
C1827 C 0.74166 0.66043 0.74826 0.0
C1828 C 0.75251 0.66081 0.76485 0.0
C1829 C 0.78399 0.66336 0.81341 0.0
C1830 C 0.77337 0.66259 0.79652 0.0
H1831 H 0.73044 0.64948 0.69656 0.0
H1832 H 0.74696 0.6483 0.72441 0.0
H1833 H 0.73821 0.6582 0.79176 0.0
H1834 H 0.80001 0.68267 0.85946 0.0
H1835 H 0.78642 0.68385 0.82767 0.0
C1836 C 0.72539 0.66249 0.61831 0.0
C1837 C 0.72966 0.67675 0.62733 0.0
C1838 C 0.73394 0.66103 0.60217 0.0
C1839 C 0.77234 0.68166 0.57896 0.0
H1840 H 0.75397 0.65198 0.53337 0.0
C1841 C 0.80186 0.68259 0.50046 0.0
C1842 C 0.79958 0.66873 0.49234 0.0
C1843 C 0.79445 0.68301 0.51882 0.0
C1844 C 0.75927 0.66017 0.54619 0.0
H1845 H 0.74581 0.70075 0.62564 0.0
H1846 H 0.7603 0.69831 0.59696 0.0
H1847 H 0.73807 0.65407 0.56032 0.0
H1848 H 0.78818 0.64449 0.49712 0.0
H1849 H 0.77502 0.64515 0.52929 0.0
H1850 H 0.7935 0.6881 0.56422 0.0
C1851 C 0.75069 0.68815 0.60285 0.0
C1852 C 0.75016 0.66139 0.56166 0.0
C1853 C 0.74227 0.68958 0.61916 0.0
C1854 C 0.79025 0.65532 0.50333 0.0
C1855 C 0.78263 0.6557 0.52153 0.0
C1856 C 0.78142 0.68056 0.56333 0.0
C1857 C 0.74687 0.67382 0.59447 0.0
C1858 C 0.75656 0.67224 0.57817 0.0
C1859 C 0.7844 0.66952 0.52916 0.0
C1860 C 0.77497 0.66988 0.54672 0.0
H1861 H 0.71584 0.65236 0.6244 0.0
H1862 H 0.7307 0.64979 0.5963 0.0
H1863 H 0.77775 0.68989 0.59169 0.0
H1864 H 0.80886 0.69304 0.49203 0.0
H1865 H 0.79594 0.6938 0.52422 0.0
C1866 C 0.34368 0.06413 0.59698 0.0
C1867 C 0.33757 0.06444 0.61673 0.0
C1868 C 0.34334 0.07302 0.58013 0.0
C1869 C 0.32551 0.09533 0.56077 0.0
H1870 H 0.36151 0.11475 0.52654 0.0
C1871 C 0.33344 0.13711 0.4914 0.0
C1872 C 0.33851 0.13383 0.47248 0.0
C1873 C 0.33366 0.12998 0.51057 0.0
C1874 C 0.35135 0.1094 0.53591 0.0
H1875 H 0.32521 0.07309 0.63408 0.0
H1876 H 0.32503 0.08911 0.60488 0.0
H1877 H 0.36027 0.09863 0.55597 0.0
H1878 H 0.34839 0.12119 0.4588 0.0
H1879 H 0.34875 0.10884 0.49187 0.0
H1880 H 0.31646 0.1059 0.54005 0.0
C1881 C 0.33009 0.08205 0.60227 0.0
C1882 C 0.35063 0.10012 0.55281 0.0
C1883 C 0.33028 0.07299 0.61904 0.0
C1884 C 0.34428 0.1238 0.47315 0.0
C1885 C 0.34461 0.11683 0.49215 0.0
C1886 C 0.3262 0.10462 0.5437 0.0
C1887 C 0.33687 0.08239 0.58272 0.0
C1888 C 0.33764 0.09276 0.56528 0.0
C1889 C 0.33919 0.1197 0.51106 0.0
C1890 C 0.33903 0.1115 0.53083 0.0
H1891 H 0.34885 0.05714 0.59466 0.0
H1892 H 0.34828 0.07264 0.56511 0.0
H1893 H 0.31528 0.08977 0.56993 0.0
H1894 H 0.32895 0.14482 0.49121 0.0
H1895 H 0.3295 0.13248 0.52495 0.0
C1896 C 0.94384 0.24665 0.6424 0.0
C1897 C 0.94734 0.26164 0.64678 0.0
C1898 C 0.93444 0.2387 0.62505 0.0
C1899 C 0.91902 0.2445 0.57405 0.0
H1900 H 0.88965 0.20187 0.57966 0.0
C1901 C 0.87494 0.21294 0.50814 0.0
C1902 C 0.87405 0.19937 0.50108 0.0
C1903 C 0.88237 0.21969 0.52732 0.0
C1904 C 0.89783 0.21376 0.57787 0.0
H1905 H 0.94363 0.27998 0.63626 0.0
H1906 H 0.92712 0.26608 0.60638 0.0
H1907 H 0.90623 0.21559 0.60994 0.0
H1908 H 0.87952 0.18182 0.50923 0.0
H1909 H 0.89234 0.19355 0.54292 0.0
H1910 H 0.91059 0.24269 0.54207 0.0
C1911 C 0.93186 0.26054 0.61607 0.0
C1912 C 0.90739 0.22161 0.59515 0.0
C1913 C 0.94131 0.26851 0.6333 0.0
C1914 C 0.87988 0.19219 0.51432 0.0
C1915 C 0.88727 0.19893 0.53359 0.0
C1916 C 0.90941 0.23669 0.55688 0.0
C1917 C 0.92827 0.24553 0.61174 0.0
C1918 C 0.91811 0.23708 0.59343 0.0
C1919 C 0.88901 0.21299 0.53991 0.0
C1920 C 0.89873 0.22125 0.55859 0.0
H1921 H 0.94828 0.241 0.65243 0.0
H1922 H 0.93211 0.22724 0.62199 0.0
H1923 H 0.92733 0.25631 0.57198 0.0
H1924 H 0.87035 0.21861 0.49843 0.0
H1925 H 0.88329 0.23039 0.53202 0.0
C1926 C 0.33737 0.27934 0.59109 0.0
C1927 C 0.33232 0.27333 0.61139 0.0
C1928 C 0.33636 0.26989 0.57425 0.0
C1929 C 0.33388 0.23282 0.56417 0.0
H1930 H 0.329 0.24228 0.50556 0.0
C1931 C 0.33356 0.19895 0.48776 0.0
C1932 C 0.34211 0.20824 0.47092 0.0
C1933 C 0.33157 0.20546 0.50633 0.0
C1934 C 0.33044 0.23953 0.52186 0.0
H1935 H 0.32085 0.25275 0.62978 0.0
H1936 H 0.31906 0.23605 0.60028 0.0
H1937 H 0.32533 0.25596 0.53457 0.0
H1938 H 0.35631 0.23144 0.46087 0.0
H1939 H 0.35288 0.24272 0.49308 0.0
H1940 H 0.33902 0.21634 0.55114 0.0
C1941 C 0.32424 0.24811 0.59747 0.0
C1942 C 0.32837 0.2474 0.5385 0.0
C1943 C 0.3252 0.25761 0.61431 0.0
C1944 C 0.34946 0.22404 0.47351 0.0
C1945 C 0.34744 0.23049 0.49187 0.0
C1946 C 0.33587 0.22485 0.54744 0.0
C1947 C 0.33011 0.25418 0.57734 0.0
C1948 C 0.33046 0.24445 0.55986 0.0
C1949 C 0.33807 0.22129 0.50814 0.0
C1950 C 0.33454 0.22844 0.52613 0.0
H1951 H 0.34245 0.29142 0.58839 0.0
H1952 H 0.34111 0.27503 0.55907 0.0
H1953 H 0.33563 0.23027 0.58043 0.0
H1954 H 0.3278 0.18674 0.48608 0.0
H1955 H 0.32435 0.19814 0.51874 0.0
C1956 C 0.73353 0.06879 0.62985 0.0
C1957 C 0.7402 0.06279 0.64382 0.0
C1958 C 0.74158 0.07782 0.61258 0.0
C1959 C 0.7741 0.08661 0.57834 0.0
H1960 H 0.77217 0.12288 0.5644 0.0
C1961 C 0.81141 0.12694 0.51304 0.0
C1962 C 0.80412 0.13171 0.49823 0.0
C1963 C 0.80445 0.12008 0.53216 0.0
C1964 C 0.77275 0.11274 0.568 0.0
H1965 H 0.76063 0.06166 0.65041 0.0
H1966 H 0.77453 0.07734 0.62051 0.0
H1967 H 0.75782 0.10723 0.59441 0.0
H1968 H 0.78427 0.13394 0.49253 0.0
H1969 H 0.77202 0.12179 0.52571 0.0
H1970 H 0.78885 0.09194 0.55189 0.0
C1971 C 0.76304 0.07495 0.62274 0.0
C1972 C 0.7645 0.10375 0.58516 0.0
C1973 C 0.75505 0.06597 0.63998 0.0
C1974 C 0.79011 0.13026 0.50355 0.0
C1975 C 0.78314 0.12339 0.52264 0.0
C1976 C 0.78232 0.09557 0.56122 0.0
C1977 C 0.75644 0.08101 0.60885 0.0
C1978 C 0.76507 0.09057 0.59052 0.0
C1979 C 0.79002 0.11781 0.5369 0.0
C1980 C 0.78176 0.10874 0.55581 0.0
H1981 H 0.72214 0.06661 0.63231 0.0
H1982 H 0.7361 0.08218 0.60203 0.0
H1983 H 0.7746 0.0764 0.5818 0.0
H1984 H 0.82215 0.12776 0.50939 0.0
H1985 H 0.81019 0.11616 0.54298 0.0
C1986 C 0.94053 0.68939 0.62947 0.0
C1987 C 0.94946 0.68317 0.62302 0.0
C1988 C 0.93189 0.69215 0.61441 0.0
C1989 C 0.90708 0.68561 0.58126 0.0
H1990 H 0.92213 0.70067 0.52476 0.0
C1991 C 0.86956 0.6728 0.50545 0.0
C1992 C 0.87427 0.68385 0.4894 0.0
C1993 C 0.87822 0.67545 0.52416 0.0
C1994 C 0.91778 0.69665 0.54055 0.0
H1995 H 0.9578 0.67652 0.59592 0.0
H1996 H 0.94268 0.6812 0.56952 0.0
H1997 H 0.93933 0.70083 0.55234 0.0
H1998 H 0.8909 0.70683 0.48124 0.0
H1999 H 0.90601 0.71147 0.51392 0.0
H2000 H 0.88543 0.6811 0.56921 0.0
C2001 C 0.94208 0.68375 0.58615 0.0
C2002 C 0.92761 0.69658 0.55629 0.0
C2003 C 0.95058 0.68085 0.60123 0.0
C2004 C 0.88713 0.69803 0.4932 0.0
C2005 C 0.89579 0.70066 0.51186 0.0
C2006 C 0.8972 0.68555 0.56543 0.0
C2007 C 0.93239 0.68912 0.5926 0.0
C2008 C 0.92232 0.69077 0.57669 0.0
C2009 C 0.89175 0.68919 0.52716 0.0
C2010 C 0.9024 0.69085 0.5448 0.0
H2011 H 0.93987 0.69163 0.64622 0.0
H2012 H 0.92475 0.69654 0.61984 0.0
H2013 H 0.90264 0.68107 0.59682 0.0
H2014 H 0.85981 0.66171 0.50292 0.0
H2015 H 0.87485 0.66635 0.53558 0.0
C2016 C 0.94289 0.66955 0.72089 0.0
C2017 C 0.93681 0.65761 0.70588 0.0
C2018 C 0.93425 0.66969 0.73793 0.0
C2019 C 0.90107 0.64534 0.7701 0.0
H2020 H 0.90098 0.68276 0.78226 0.0
C2021 C 0.86207 0.64749 0.8337 0.0
C2022 C 0.86865 0.65992 0.84786 0.0
C2023 C 0.86939 0.64755 0.81498 0.0
C2024 C 0.90097 0.67225 0.77921 0.0
H2025 H 0.91699 0.63621 0.69753 0.0
H2026 H 0.90204 0.63642 0.72737 0.0
H2027 H 0.91635 0.6819 0.75338 0.0
H2028 H 0.88758 0.68254 0.85269 0.0
H2029 H 0.90052 0.6825 0.82037 0.0
H2030 H 0.88597 0.63573 0.79613 0.0
C2031 C 0.91348 0.64567 0.7259 0.0
C2032 C 0.90979 0.67177 0.76267 0.0
C2033 C 0.92206 0.64558 0.70877 0.0
C2034 C 0.8823 0.67272 0.84224 0.0
C2035 C 0.88966 0.67274 0.82359 0.0
C2036 C 0.89233 0.64583 0.78672 0.0
C2037 C 0.91939 0.65784 0.74047 0.0
C2038 C 0.90999 0.65833 0.758 0.0
C2039 C 0.8835 0.65999 0.81001 0.0
C2040 C 0.8922 0.65931 0.79154 0.0
H2041 H 0.95418 0.67902 0.71918 0.0
H2042 H 0.93919 0.67911 0.74909 0.0
H2043 H 0.90111 0.63485 0.76702 0.0
H2044 H 0.85164 0.63739 0.83759 0.0
H2045 H 0.86417 0.63765 0.80467 0.0
C2046 C 0.3369 0.27135 0.71416 0.0
C2047 C 0.34909 0.27636 0.70016 0.0
C2048 C 0.33582 0.26239 0.73176 0.0
C2049 C 0.34185 0.2526 0.77477 0.0
H2050 H 0.35317 0.22131 0.77174 0.0
C2051 C 0.35352 0.22838 0.85031 0.0
C2052 C 0.34725 0.21259 0.85179 0.0
C2053 C 0.35335 0.23508 0.83097 0.0
C2054 C 0.34983 0.22991 0.77276 0.0
H2055 H 0.36964 0.27569 0.69372 0.0
H2056 H 0.36785 0.26031 0.72464 0.0
H2057 H 0.35307 0.23481 0.7393 0.0
H2058 H 0.33659 0.1915 0.83396 0.0
H2059 H 0.33625 0.20332 0.79974 0.0
H2060 H 0.33854 0.24772 0.80809 0.0
C2061 C 0.35902 0.26314 0.72179 0.0
C2062 C 0.34993 0.23775 0.75426 0.0
C2063 C 0.36012 0.27209 0.70417 0.0
C2064 C 0.34142 0.20368 0.83323 0.0
C2065 C 0.34124 0.21044 0.81372 0.0
C2066 C 0.34177 0.24481 0.79319 0.0
C2067 C 0.34689 0.25823 0.73584 0.0
C2068 C 0.34609 0.2493 0.75512 0.0
C2069 C 0.34693 0.2262 0.81254 0.0
C2070 C 0.34599 0.23354 0.79248 0.0
H2071 H 0.32813 0.27429 0.71151 0.0
H2072 H 0.32622 0.25864 0.74212 0.0
H2073 H 0.33895 0.2615 0.77606 0.0
H2074 H 0.35848 0.23558 0.86423 0.0
H2075 H 0.35822 0.24728 0.83047 0.0
C2076 C 0.73806 0.08239 0.72967 0.0
C2077 C 0.72928 0.06673 0.73273 0.0
C2078 C 0.74706 0.09181 0.7464 0.0
C2079 C 0.76394 0.08979 0.79854 0.0
H2080 H 0.77047 0.13043 0.80706 0.0
C2081 C 0.78696 0.12121 0.87743 0.0
C2082 C 0.79706 0.13688 0.87764 0.0
C2083 C 0.78009 0.11368 0.85847 0.0
C2084 C 0.76899 0.11921 0.80463 0.0
H2085 H 0.7216 0.04871 0.75592 0.0
H2086 H 0.7369 0.06507 0.78535 0.0
H2087 H 0.75493 0.11521 0.77683 0.0
H2088 H 0.80828 0.15689 0.85799 0.0
H2089 H 0.79623 0.14356 0.82434 0.0
H2090 H 0.77785 0.09365 0.82629 0.0
C2091 C 0.73756 0.07011 0.76986 0.0
C2092 C 0.76005 0.11045 0.78733 0.0
C2093 C 0.72876 0.06071 0.75306 0.0
C2094 C 0.8005 0.14482 0.85825 0.0
C2095 C 0.79353 0.13722 0.83909 0.0
C2096 C 0.77294 0.09853 0.81562 0.0
C2097 C 0.74709 0.08575 0.76665 0.0
C2098 C 0.75719 0.09551 0.7843 0.0
C2099 C 0.7832 0.12155 0.83906 0.0
C2100 C 0.77529 0.11321 0.8192 0.0
H2101 H 0.73836 0.08727 0.71414 0.0
H2102 H 0.75427 0.10375 0.74328 0.0
H2103 H 0.76218 0.07845 0.79671 0.0
H2104 H 0.78425 0.11474 0.89208 0.0
H2105 H 0.77205 0.10167 0.85914 0.0
C2106 C 0.04071 0.3543 0.02432 0.0
C2107 C 0.04719 0.36838 0.01393 0.0
C2108 C 0.04973 0.34819 0.03132 0.0
C2109 C 0.08933 0.35968 0.04556 0.0
H2110 H 0.0758 0.31676 0.04075 0.0
C2111 C 0.12713 0.33594 0.07535 0.0
C2112 C 0.1198 0.32344 0.0889 0.0
C2113 C 0.11869 0.34042 0.0624 0.0
C2114 C 0.07973 0.32878 0.04222 0.0
H2115 H 0.0683 0.38687 0.0024 0.0
H2116 H 0.08378 0.37622 0.01437 0.0
H2117 H 0.05985 0.32665 0.02673 0.0
H2118 H 0.09809 0.30511 0.09841 0.0
H2119 H 0.08339 0.31285 0.07596 0.0
H2120 H 0.10903 0.36182 0.0614 0.0
C2121 C 0.07181 0.37 0.01748 0.0
C2122 C 0.07056 0.33443 0.03429 0.0
C2123 C 0.06286 0.37609 0.01055 0.0
C2124 C 0.10399 0.31483 0.0881 0.0
C2125 C 0.09557 0.31924 0.07515 0.0
C2126 C 0.09848 0.35404 0.05347 0.0
C2127 C 0.06541 0.35603 0.02807 0.0
C2128 C 0.0752 0.34993 0.03603 0.0
C2129 C 0.10279 0.33241 0.06274 0.0
C2130 C 0.09374 0.3385 0.05211 0.0
H2131 H 0.0287 0.34803 0.02715 0.0
H2132 H 0.04446 0.33746 0.03961 0.0
H2133 H 0.09317 0.37165 0.04747 0.0
H2134 H 0.13932 0.34278 0.07578 0.0
H2135 H 0.12459 0.35049 0.05275 0.0
C2136 C 0.66457 0.6845 0.04383 0.0
C2137 C 0.65311 0.67545 0.02911 0.0
C2138 C 0.66859 0.69969 0.04696 0.0
C2139 C 0.6622 0.73081 0.02495 0.0
H2140 H 0.6748 0.74701 0.08229 0.0
C2141 C 0.65792 0.78011 0.06713 0.0
C2142 C 0.67155 0.79153 0.07602 0.0
C2143 C 0.65732 0.76745 0.05728 0.0
C2144 C 0.67144 0.74266 0.06615 0.0
H2145 H 0.63689 0.67516 0.00606 0.0
H2146 H 0.64316 0.70125 0.01236 0.0
H2147 H 0.67037 0.72173 0.0741 0.0
H2148 H 0.69525 0.79901 0.08113 0.0
H2149 H 0.69411 0.77662 0.06437 0.0
H2150 H 0.6623 0.75161 0.01777 0.0
C2151 C 0.64958 0.69698 0.02094 0.0
C2152 C 0.66899 0.72817 0.06133 0.0
C2153 C 0.64586 0.68192 0.01741 0.0
C2154 C 0.6847 0.79048 0.07398 0.0
C2155 C 0.68403 0.77767 0.06457 0.0
C2156 C 0.66429 0.74518 0.02998 0.0
C2157 C 0.66093 0.70611 0.03591 0.0
C2158 C 0.66427 0.72195 0.04066 0.0
C2159 C 0.67026 0.76588 0.05668 0.0
C2160 C 0.66892 0.75118 0.05062 0.0
H2161 H 0.67045 0.67983 0.0529 0.0
H2162 H 0.67768 0.70634 0.05817 0.0
H2163 H 0.6589 0.72667 0.00874 0.0
H2164 H 0.6476 0.78058 0.06891 0.0
H2165 H 0.64656 0.7584 0.05148 0.0
C2166 C 0.31208 0.973 0.03638 0.0
C2167 C 0.32019 0.9701 0.02097 0.0
C2168 C 0.29732 0.96203 0.04118 0.0
C2169 C 0.26537 0.92381 0.0243 0.0
H2170 H 0.2555 0.92202 0.08417 0.0
C2171 C 0.22121 0.87089 0.07092 0.0
C2172 C 0.21279 0.87348 0.08628 0.0
C2173 C 0.23195 0.88292 0.05882 0.0
C2174 C 0.25798 0.92248 0.06733 0.0
H2175 H 0.31916 0.95364 0.99807 0.0
H2176 H 0.29375 0.93416 0.00719 0.0
H2177 H 0.27908 0.94264 0.07166 0.0
H2178 H 0.20781 0.89029 0.09926 0.0
H2179 H 0.22668 0.91126 0.0784 0.0
H2180 H 0.24446 0.90288 0.02062 0.0
C2181 C 0.29847 0.94505 0.01514 0.0
C2182 C 0.27152 0.9344 0.06005 0.0
C2183 C 0.31311 0.9562 0.00996 0.0
C2184 C 0.2143 0.888 0.0878 0.0
C2185 C 0.2251 0.9 0.0759 0.0
C2186 C 0.2519 0.91167 0.03174 0.0
C2187 C 0.29045 0.94768 0.03116 0.0
C2188 C 0.27549 0.93527 0.03843 0.0
C2189 C 0.23448 0.89771 0.06199 0.0
C2190 C 0.24811 0.91091 0.05334 0.0
H2191 H 0.31721 0.98371 0.04492 0.0
H2192 H 0.29143 0.96476 0.05308 0.0
H2193 H 0.26784 0.92414 0.00749 0.0
H2194 H 0.22039 0.85988 0.06946 0.0
H2195 H 0.23906 0.88085 0.04823 0.0
C2196 C 0.36417 0.05054 0.01616 0.0
C2197 C 0.36178 0.03872 0.0022 0.0
C2198 C 0.35974 0.06108 0.01036 0.0
C2199 C 0.33819 0.06967 0.96848 0.0
H2200 H 0.3638 0.11062 0.98939 0.0
C2201 C 0.32952 0.11817 0.93699 0.0
C2202 C 0.34273 0.13177 0.9326 0.0
C2203 C 0.33013 0.10707 0.94963 0.0
C2204 C 0.35657 0.0993 0.98319 0.0
H2205 H 0.35273 0.02854 0.97127 0.0
H2206 H 0.34584 0.04748 0.96039 0.0
H2207 H 0.36836 0.09062 0.00154 0.0
H2208 H 0.36679 0.14475 0.9386 0.0
H2209 H 0.36807 0.12542 0.95991 0.0
H2210 H 0.32726 0.07866 0.94869 0.0
C2211 C 0.35059 0.04834 0.97626 0.0
C2212 C 0.35901 0.08766 0.99052 0.0
C2213 C 0.35463 0.0375 0.98239 0.0
C2214 C 0.35639 0.13447 0.9421 0.0
C2215 C 0.35708 0.1233 0.95435 0.0
C2216 C 0.33598 0.0814 0.96075 0.0
C2217 C 0.35325 0.06042 0.99009 0.0
C2218 C 0.34997 0.07266 0.98312 0.0
C2219 C 0.34405 0.1092 0.9577 0.0
C2220 C 0.34528 0.09645 0.96775 0.0
H2221 H 0.3695 0.05167 0.03167 0.0
H2222 H 0.36156 0.06981 0.02182 0.0
H2223 H 0.33073 0.05829 0.96269 0.0
H2224 H 0.31885 0.11582 0.92974 0.0
H2225 H 0.31977 0.0966 0.95231 0.0
C2226 C 0.96652 0.32568 0.00741 0.0
C2227 C 0.97638 0.33288 0.99044 0.0
C2228 C 0.95348 0.31163 0.00434 0.0
C2229 C 0.92708 0.28837 0.96153 0.0
H2230 H 0.91259 0.25589 0.00297 0.0
C2231 C 0.88284 0.22118 0.96051 0.0
C2232 C 0.87158 0.22149 0.94763 0.0
C2233 C 0.89418 0.23452 0.97004 0.0
C2234 C 0.91648 0.26487 0.99128 0.0
H2235 H 0.98058 0.33071 0.95714 0.0
H2236 H 0.95792 0.30618 0.9518 0.0
H2237 H 0.93627 0.27941 0.00994 0.0
H2238 H 0.86238 0.23548 0.93637 0.0
H2239 H 0.88179 0.25864 0.9536 0.0
H2240 H 0.90765 0.27385 0.94258 0.0
C2241 C 0.96014 0.31149 0.96743 0.0
C2242 C 0.93 0.27837 0.99531 0.0
C2243 C 0.97319 0.3255 0.97052 0.0
C2244 C 0.87092 0.23496 0.94629 0.0
C2245 C 0.88217 0.24825 0.9559 0.0
C2246 C 0.9136 0.27497 0.95756 0.0
C2247 C 0.94999 0.30451 0.98419 0.0
C2248 C 0.93553 0.29021 0.98035 0.0
C2249 C 0.89439 0.24836 0.96686 0.0
C2250 C 0.90814 0.263 0.9723 0.0
H2251 H 0.96866 0.33106 0.02298 0.0
H2252 H 0.94587 0.30661 0.01755 0.0
H2253 H 0.93088 0.29733 0.94981 0.0
H2254 H 0.88372 0.21098 0.96151 0.0
H2255 H 0.90342 0.23419 0.97834 0.0
C2256 C 0.68838 0.64607 0.99538 0.0
C2257 C 0.67969 0.63214 0.00574 0.0
C2258 C 0.70269 0.65001 0.9876 0.0
C2259 C 0.7247 0.63227 0.96995 0.0
H2260 H 0.75962 0.67223 0.97702 0.0
C2261 C 0.7819 0.64329 0.94052 0.0
C2262 C 0.7898 0.65637 0.92811 0.0
C2263 C 0.77005 0.64154 0.95337 0.0
C2264 C 0.74996 0.66103 0.97483 0.0
H2265 H 0.67956 0.61165 0.01644 0.0
H2266 H 0.70423 0.61853 0.003 0.0
H2267 H 0.73534 0.66698 0.99156 0.0
H2268 H 0.79252 0.67853 0.92125 0.0
H2269 H 0.77164 0.67533 0.94319 0.0
H2270 H 0.73899 0.62631 0.95289 0.0
C2271 C 0.69996 0.62632 0.0006 0.0
C2272 C 0.73605 0.65806 0.9831 0.0
C2273 C 0.68577 0.62241 0.00838 0.0
C2274 C 0.78648 0.66821 0.93036 0.0
C2275 C 0.77455 0.66641 0.94308 0.0
C2276 C 0.73851 0.63525 0.96166 0.0
C2277 C 0.70854 0.64007 0.98993 0.0
C2278 C 0.72329 0.64361 0.98081 0.0
C2279 C 0.76577 0.65278 0.95399 0.0
C2280 C 0.75135 0.64964 0.96403 0.0
H2281 H 0.6841 0.65386 0.99316 0.0
H2282 H 0.70904 0.66067 0.97934 0.0
H2283 H 0.71502 0.62111 0.96755 0.0
H2284 H 0.78411 0.63392 0.93916 0.0
H2285 H 0.76378 0.63105 0.96204 0.0
C2286 C 0.9672 0.6499 -0.00157 0.0
C2287 C 0.97541 0.64919 0.98105 0.0
C2288 C 0.95604 0.65399 0.99532 0.0
C2289 C 0.9414 0.67112 0.95525 0.0
H2290 H 0.90355 0.64752 0.98436 0.0
C2291 C 0.89022 0.67612 0.92897 0.0
C2292 C 0.87696 0.66218 0.92594 0.0
C2293 C 0.90215 0.67701 0.94142 0.0
C2294 C 0.91404 0.65423 0.97607 0.0
H2295 H 0.97851 0.65243 0.94687 0.0
H2296 H 0.95892 0.65916 0.94135 0.0
H2297 H 0.92509 0.64433 0.99382 0.0
H2298 H 0.86534 0.63849 0.93457 0.0
H2299 H 0.88619 0.63985 0.95574 0.0
H2300 H 0.93017 0.6802 0.93641 0.0
C2301 C 0.96125 0.65693 0.95749 0.0
C2302 C 0.92648 0.65253 0.9817 0.0
C2303 C 0.97245 0.65294 0.96062 0.0
C2304 C 0.87538 0.64941 0.9369 0.0
C2305 C 0.88739 0.65023 0.94906 0.0
C2306 C 0.92895 0.67269 0.94947 0.0
C2307 C 0.9528 0.65739 0.97475 0.0
C2308 C 0.9402 0.66065 0.97092 0.0
C2309 C 0.9012 0.6639 0.95069 0.0
C2310 C 0.91496 0.66398 0.9594 0.0
H2311 H 0.96927 0.64713 0.0144 0.0
H2312 H 0.9499 0.65441 0.00903 0.0
H2313 H 0.95187 0.67781 0.94692 0.0
H2314 H 0.89167 0.68612 0.92067 0.0
H2315 H 0.91242 0.68783 0.9428 0.0
C2316 C 0.3749 0.32012 0.01052 0.0
C2317 C 0.3666 0.3274 0.0051 0.0
C2318 C 0.37036 0.30552 0.00329 0.0
C2319 C 0.3387 0.27046 0.98105 0.0
H2320 H 0.3711 0.26511 0.95887 0.0
C2321 C 0.33047 0.21957 0.92879 0.0
C2322 C 0.3419 0.21559 0.92946 0.0
C2323 C 0.33153 0.23136 0.94159 0.0
C2324 C 0.36193 0.26625 0.96541 0.0
H2325 H 0.34658 0.32463 0.98837 0.0
H2326 H 0.33869 0.29892 0.97537 0.0
H2327 H 0.37663 0.28957 0.97292 0.0
H2328 H 0.36246 0.2197 0.94601 0.0
H2329 H 0.36392 0.23968 0.96896 0.0
H2330 H 0.32397 0.24703 0.97316 0.0
C2331 C 0.34873 0.30467 0.98539 0.0
C2332 C 0.3651 0.28035 0.97335 0.0
C2333 C 0.35329 0.31941 0.99272 0.0
C2334 C 0.35345 0.22244 0.945 0.0
C2335 C 0.35443 0.2341 0.95794 0.0
C2336 C 0.3355 0.25624 0.97307 0.0
C2337 C 0.3574 0.2977 0.99032 0.0
C2338 C 0.35358 0.28263 0.98138 0.0
C2339 C 0.34397 0.23929 0.9555 0.0
C2340 C 0.34712 0.25397 0.96524 0.0
H2341 H 0.38505 0.32572 0.02035 0.0
H2342 H 0.37711 0.30035 0.0078 0.0
H2343 H 0.3296 0.27186 0.98724 0.0
H2344 H 0.32126 0.21432 0.91725 0.0
H2345 H 0.32321 0.23496 0.93937 0.0
C2346 C 0.68736 0.04358 0.01703 0.0
C2347 C 0.67975 0.03416 -0.00061 0.0
C2348 C 0.70138 0.05668 0.01449 0.0
C2349 C 0.72283 0.08409 0.97285 0.0
H2350 H 0.75735 0.09784 0.01138 0.0
C2351 C 0.77569 0.13934 0.95517 0.0
C2352 C 0.78874 0.138 0.95427 0.0
C2353 C 0.76307 0.12863 0.96611 0.0
C2354 C 0.74777 0.09417 0.00055 0.0
H2355 H 0.68129 0.03065 0.96556 0.0
H2356 H 0.70566 0.05332 0.9612 0.0
H2357 H 0.73411 0.07412 0.01873 0.0
H2358 H 0.79936 0.1253 0.9656 0.0
H2359 H 0.77729 0.10648 0.98462 0.0
H2360 H 0.73638 0.10368 0.95428 0.0
C2361 C 0.70071 0.05077 0.97691 0.0
C2362 C 0.73446 0.08063 0.0048 0.0
C2363 C 0.68677 0.03771 0.97944 0.0
C2364 C 0.78949 0.12669 0.96632 0.0
C2365 C 0.7768 0.11586 0.97713 0.0
C2366 C 0.73602 0.09758 0.96869 0.0
C2367 C 0.70799 0.06062 0.99425 0.0
C2368 C 0.72195 0.07532 0.99074 0.0
C2369 C 0.76318 0.11624 0.97611 0.0
C2370 C 0.74874 0.10274 0.98231 0.0
H2371 H 0.68225 0.04116 0.03262 0.0
H2372 H 0.70671 0.06405 0.02815 0.0
H2373 H 0.71331 0.08045 0.9619 0.0
H2374 H 0.77484 0.14794 0.94592 0.0
H2375 H 0.75288 0.12946 0.96547 0.0
C2376 C 0.62957 0.94601 0.00245 0.0
C2377 C 0.63908 0.9615 0.00703 0.0
C2378 C 0.63423 0.93544 0.00688 0.0
C2379 C 0.66767 0.93113 0.01718 0.0
H2380 H 0.63937 0.89473 0.04679 0.0
C2381 C 0.68536 0.89393 0.06547 0.0
C2382 C 0.67486 0.8786 0.06867 0.0
C2383 C 0.68156 0.90301 0.05297 0.0
C2384 C 0.64733 0.90462 0.03806 0.0
H2385 H 0.66115 0.97798 0.01953 0.0
H2386 H 0.66928 0.95942 0.02733 0.0
H2387 H 0.63171 0.91291 0.03558 0.0
H2388 H 0.65258 0.86041 0.06034 0.0
H2389 H 0.64602 0.87611 0.03766 0.0
H2390 H 0.68336 0.92289 0.01984 0.0
C2391 C 0.65821 0.95554 0.02019 0.0
C2392 C 0.64295 0.91511 0.03175 0.0
C2393 C 0.65351 0.96615 0.01587 0.0
C2394 C 0.66092 0.87216 0.0578 0.0
C2395 C 0.65712 0.88124 0.04514 0.0
C2396 C 0.67204 0.92055 0.02334 0.0
C2397 C 0.64856 0.94004 0.0159 0.0
C2398 C 0.65312 0.9286 0.02153 0.0
C2399 C 0.66713 0.89694 0.04342 0.0
C2400 C 0.662 0.90725 0.03419 0.0
H2401 H 0.61842 0.94195 0.99554 0.0
H2402 H 0.6266 0.92362 0.00316 0.0
H2403 H 0.67569 0.94131 0.00904 0.0
H2404 H 0.69607 0.89916 0.07409 0.0
H2405 H 0.68953 0.91502 0.05227 0.0
C2406 C 0.06054 0.68218 0.99359 0.0
C2407 C 0.04521 0.67579 -0.00127 0.0
C2408 C 0.07104 0.69674 0.00054 0.0
C2409 C 0.07557 0.73274 0.02175 0.0
H2410 H 0.11213 0.73638 0.04729 0.0
C2411 C 0.11572 0.78181 0.07812 0.0
C2412 C 0.13103 0.78574 0.07931 0.0
C2413 C 0.10567 0.77023 0.06441 0.0
C2414 C 0.10217 0.73573 0.0398 0.0
H2415 H 0.02888 0.68006 0.01464 0.0
H2416 H 0.04734 0.70552 0.02697 0.0
H2417 H 0.0936 0.7125 0.03132 0.0
H2418 H 0.14798 0.78149 0.06543 0.0
H2419 H 0.13065 0.76188 0.04088 0.0
H2420 H 0.08415 0.75602 0.03052 0.0
C2421 C 0.05115 0.6992 0.01741 0.0
C2422 C 0.09148 0.72197 0.03072 0.0
C2423 C 0.04059 0.68457 0.01046 0.0
C2424 C 0.1363 0.77883 0.06498 0.0
C2425 C 0.12629 0.76737 0.05112 0.0
C2426 C 0.08635 0.7466 0.03077 0.0
C2427 C 0.06653 0.70533 0.01282 0.0
C2428 C 0.07801 0.72026 0.02171 0.0
C2429 C 0.11074 0.76242 0.0514 0.0
C2430 C 0.09975 0.74823 0.04005 0.0
H2431 H 0.06454 0.67589 0.98436 0.0
H2432 H 0.08276 0.70123 0.99642 0.0
H2433 H 0.06535 0.73181 0.01474 0.0
H2434 H 0.11132 0.78711 0.08866 0.0
H2435 H 0.0938 0.76679 0.06508 0.0
C2436 C 0.31916 0.36285 0.02099 0.0
C2437 C 0.32627 0.35584 0.03168 0.0
C2438 C 0.30427 0.35891 0.02558 0.0
C2439 C 0.27492 0.33903 0.06717 0.0
H2440 H 0.24932 0.34457 0.02579 0.0
C2441 C 0.21292 0.32107 0.0837 0.0
C2442 C 0.211 0.3338 0.08555 0.0
C2443 C 0.22566 0.32226 0.07376 0.0
C2444 C 0.25636 0.34291 0.03741 0.0
H2445 H 0.3232 0.33869 0.05479 0.0
H2446 H 0.29701 0.33107 0.06186 0.0
H2447 H 0.27412 0.34889 0.01519 0.0
H2448 H 0.2203 0.35747 0.07756 0.0
H2449 H 0.2423 0.35937 0.05921 0.0
H2450 H 0.25684 0.3326 0.0891 0.0
C2451 C 0.30302 0.34016 0.05067 0.0
C2452 C 0.27066 0.34553 0.03148 0.0
C2453 C 0.31805 0.34441 0.04649 0.0
C2454 C 0.22144 0.34746 0.07598 0.0
C2455 C 0.23401 0.34855 0.06559 0.0
C2456 C 0.26052 0.33605 0.07288 0.0
C2457 C 0.29596 0.34755 0.04061 0.0
C2458 C 0.28028 0.34384 0.04637 0.0
C2459 C 0.2365 0.33611 0.06512 0.0
C2460 C 0.25119 0.33813 0.05816 0.0
H2461 H 0.32529 0.37179 0.00959 0.0
H2462 H 0.29949 0.36513 0.01772 0.0
H2463 H 0.28197 0.33795 0.07938 0.0
H2464 H 0.20517 0.31052 0.09134 0.0
H2465 H 0.22739 0.31255 0.07363 0.0
C2466 C 0.72622 0.71278 0.33249 0.0
C2467 C 0.71092 0.70414 0.33794 0.0
C2468 C 0.73664 0.7083 0.33883 0.0
C2469 C 0.74 0.67557 0.35837 0.0
H2470 H 0.77813 0.70658 0.38238 0.0
C2471 C 0.77698 0.66248 0.41485 0.0
C2472 C 0.79271 0.67182 0.41493 0.0
C2473 C 0.76781 0.66553 0.40134 0.0
C2474 C 0.7677 0.69781 0.37531 0.0
H2475 H 0.69461 0.68376 0.35403 0.0
H2476 H 0.71285 0.67603 0.36528 0.0
H2477 H 0.76033 0.71366 0.36733 0.0
H2478 H 0.81133 0.69122 0.40035 0.0
H2479 H 0.79524 0.69661 0.37633 0.0
H2480 H 0.74726 0.65967 0.3668 0.0
C2481 C 0.71673 0.68622 0.3559 0.0
C2482 C 0.75744 0.70187 0.36674 0.0
C2483 C 0.70628 0.69071 0.34956 0.0
C2484 C 0.79922 0.68383 0.40042 0.0
C2485 C 0.79 0.68696 0.38689 0.0
C2486 C 0.75028 0.67151 0.36691 0.0
C2487 C 0.73207 0.69505 0.35077 0.0
C2488 C 0.74335 0.69077 0.35851 0.0
C2489 C 0.77415 0.67808 0.38763 0.0
C2490 C 0.76414 0.68255 0.37586 0.0
H2491 H 0.73025 0.72312 0.32338 0.0
H2492 H 0.74831 0.71525 0.33434 0.0
H2493 H 0.72937 0.66678 0.3518 0.0
H2494 H 0.77174 0.65319 0.42603 0.0
H2495 H 0.75569 0.65855 0.40258 0.0
C2496 C 0.31308 0.01706 0.33657 0.0
C2497 C 0.31467 0.00942 0.35436 0.0
C2498 C 0.31495 0.03163 0.33883 0.0
C2499 C 0.31171 0.0556 0.37982 0.0
H2500 H 0.33315 0.08878 0.3405 0.0
C2501 C 0.33929 0.12333 0.3844 0.0
C2502 C 0.32788 0.12384 0.39606 0.0
C2503 C 0.33648 0.10993 0.37408 0.0
C2504 C 0.32706 0.07959 0.35155 0.0
H2505 H 0.32021 0.01138 0.38823 0.0
H2506 H 0.32353 0.03673 0.39213 0.0
H2507 H 0.33182 0.06431 0.33395 0.0
H2508 H 0.30429 0.11147 0.40419 0.0
H2509 H 0.29919 0.08827 0.38553 0.0
H2510 H 0.30727 0.07076 0.39779 0.0
C2511 C 0.32061 0.03139 0.3765 0.0
C2512 C 0.32626 0.06558 0.34776 0.0
C2513 C 0.3188 0.0169 0.37423 0.0
C2514 C 0.31324 0.11134 0.39524 0.0
C2515 C 0.3104 0.09802 0.3848 0.0
C2516 C 0.31243 0.06949 0.38352 0.0
C2517 C 0.31836 0.03879 0.35896 0.0
C2518 C 0.31878 0.05352 0.36209 0.0
C2519 C 0.32221 0.09687 0.37523 0.0
C2520 C 0.32024 0.08173 0.36959 0.0
H2521 H 0.30991 0.0116 0.32103 0.0
H2522 H 0.31312 0.03702 0.32503 0.0
H2523 H 0.30566 0.04647 0.39098 0.0
H2524 H 0.35072 0.13275 0.38507 0.0
H2525 H 0.34584 0.10945 0.36689 0.0
C2526 C 0.9809 0.29086 0.3461 0.0
C2527 C 0.98819 0.30499 0.35654 0.0
C2528 C 0.96635 0.27984 0.35189 0.0
C2529 C 0.93969 0.27004 0.3971 0.0
H2530 H 0.91201 0.23859 0.35808 0.0
C2531 C 0.88165 0.2251 0.42488 0.0
C2532 C 0.87957 0.21034 0.42364 0.0
C2533 C 0.89283 0.23683 0.41302 0.0
C2534 C 0.91963 0.24735 0.36909 0.0
H2535 H 0.98568 0.31901 0.38031 0.0
H2536 H 0.96007 0.30023 0.38961 0.0
H2537 H 0.93564 0.25933 0.3447 0.0
H2538 H 0.88658 0.19606 0.40733 0.0
H2539 H 0.90587 0.21656 0.38612 0.0
H2540 H 0.92356 0.25816 0.42135 0.0
C2541 C 0.96573 0.29727 0.37763 0.0
C2542 C 0.93324 0.2592 0.36151 0.0
C2543 C 0.9804 0.30814 0.37218 0.0
C2544 C 0.88782 0.20727 0.40857 0.0
C2545 C 0.89893 0.21902 0.39649 0.0
C2546 C 0.92601 0.25841 0.40452 0.0
C2547 C 0.9586 0.28279 0.36798 0.0
C2548 C 0.94358 0.27064 0.37549 0.0
C2549 C 0.90201 0.23402 0.39941 0.0
C2550 C 0.9159 0.24687 0.39068 0.0
H2551 H 0.98667 0.28808 0.33405 0.0
H2552 H 0.96145 0.26883 0.34425 0.0
H2553 H 0.9474 0.27829 0.40859 0.0
H2554 H 0.8753 0.22777 0.4361 0.0
H2555 H 0.89482 0.24825 0.41531 0.0
C2556 C 0.01371 0.36675 0.31605 0.0
C2557 C 0.02799 0.37265 0.32604 0.0
C2558 C 0.00824 0.37644 0.30956 0.0
C2559 C 0.00499 0.40126 0.28558 0.0
H2560 H 0.01324 0.43574 0.32141 0.0
C2561 C 0.99274 0.44755 0.25481 0.0
C2562 C 0.00509 0.46229 0.25694 0.0
C2563 C 0.99226 0.43559 0.26658 0.0
C2564 C 0.01084 0.42618 0.31122 0.0
H2565 H 0.04766 0.39343 0.33702 0.0
H2566 H 0.03822 0.41007 0.32563 0.0
H2567 H 0.01868 0.41634 0.33497 0.0
H2568 H 0.0261 0.47619 0.27423 0.0
H2569 H 0.02523 0.45544 0.29485 0.0
H2570 H 0.99767 0.41135 0.26155 0.0
C2571 C 0.03114 0.39799 0.32303 0.0
C2572 C 0.01396 0.41506 0.31897 0.0
C2573 C 0.03662 0.3884 0.32936 0.0
C2574 C 0.01633 0.46502 0.27238 0.0
C2575 C 0.01584 0.45307 0.28417 0.0
C2576 C 1.00188 0.41239 0.27781 0.0
C2577 C 0.01688 0.39216 0.31313 0.0
C2578 C 0.01149 0.40271 0.30602 0.0
C2579 C 0.0041 0.43812 0.2808 0.0
C2580 C 0.00516 0.4252 0.29033 0.0
H2581 H 0.00674 0.35469 0.31331 0.0
H2582 H 0.99719 0.37161 0.30198 0.0
H2583 H 1.00306 0.39194 0.27515 0.0
H2584 H 0.98381 0.44513 0.24321 0.0
H2585 H 0.98291 0.42426 0.26393 0.0
C2586 C 0.62959 0.65579 0.34221 0.0
C2587 C 0.63883 0.66315 0.3247 0.0
C2588 C 0.61668 0.64157 0.33962 0.0
C2589 C 0.58933 0.61848 0.29772 0.0
H2590 H 0.57639 0.58528 0.33773 0.0
C2591 C 0.54779 0.55116 0.2935 0.0
C2592 C 0.53638 0.55124 0.2807 0.0
C2593 C 0.55845 0.56439 0.30403 0.0
C2594 C 0.57983 0.59448 0.32647 0.0
H2595 H 0.64218 0.66101 0.29103 0.0
H2596 H 0.61979 0.63623 0.28657 0.0
H2597 H 0.59984 0.60906 0.34473 0.0
H2598 H 0.52607 0.56452 0.27077 0.0
H2599 H 0.54425 0.58744 0.28985 0.0
H2600 H 0.56977 0.60397 0.27906 0.0
C2601 C 0.62236 0.64154 0.30222 0.0
C2602 C 0.59322 0.60811 0.33052 0.0
C2603 C 0.63526 0.65571 0.30481 0.0
C2604 C 0.53475 0.56419 0.2806 0.0
C2605 C 0.5453 0.57735 0.29127 0.0
C2606 C 0.57599 0.60497 0.29373 0.0
C2607 C 0.61272 0.63447 0.31945 0.0
C2608 C 0.59823 0.62016 0.31597 0.0
C2609 C 0.5578 0.57787 0.30198 0.0
C2610 C 0.57112 0.59272 0.3079 0.0
H2611 H 0.63205 0.66122 0.35776 0.0
H2612 H 0.60947 0.63643 0.35319 0.0
H2613 H 0.59272 0.62763 0.28636 0.0
H2614 H 0.5494 0.54137 0.29356 0.0
H2615 H 0.56792 0.56437 0.3121 0.0
C2616 C 0.34929 0.95594 0.34848 0.0
C2617 C 0.34345 0.9656 0.34333 0.0
C2618 C 0.36369 0.95938 0.34215 0.0
C2619 C 0.40038 0.98998 0.324 0.0
H2620 H 0.40314 0.957 0.29732 0.0
C2621 C 0.45013 0.9986 0.27148 0.0
C2622 C 0.45344 0.98673 0.26954 0.0
C2623 C 0.43841 0.99706 0.28442 0.0
C2624 C 0.40273 0.9663 0.30516 0.0
H2625 H 0.34855 0.98676 0.32799 0.0
H2626 H 0.37382 0.99274 0.31686 0.0
H2627 H 0.37927 0.95245 0.31157 0.0
H2628 H 0.44798 0.96455 0.28141 0.0
H2629 H 0.42803 0.96213 0.30477 0.0
H2630 H 0.42389 0.00386 0.31748 0.0
C2631 C 0.36714 0.98251 0.3259 0.0
C2632 C 0.38897 0.96369 0.31322 0.0
C2633 C 0.35263 0.97904 0.33216 0.0
C2634 C 0.44575 0.97391 0.2825 0.0
C2635 C 0.43412 0.97243 0.29563 0.0
C2636 C 0.41424 0.99259 0.31607 0.0
C2637 C 0.37272 0.97258 0.33056 0.0
C2638 C 0.38758 0.9755 0.32259 0.0
C2639 C 0.42982 0.98367 0.29597 0.0
C2640 C 0.41557 0.98079 0.30636 0.0
H2641 H 0.34267 0.94556 0.35723 0.0
H2642 H 0.36774 0.95161 0.34628 0.0
H2643 H 0.39969 0.99928 0.33135 0.0
H2644 H 0.45601 0.00874 0.26194 0.0
H2645 H 0.4355 0.00598 0.28422 0.0
C2646 C 0.64344 0.99538 0.30621 0.0
C2647 C 0.64095 0.98429 0.32151 0.0
C2648 C 0.63255 0.99968 0.30216 0.0
C2649 C 0.59553 0.99477 0.32148 0.0
H2650 H 0.59121 0.00301 0.26205 0.0
C2651 C 0.54087 0.98557 0.27743 0.0
C2652 C 0.54256 0.99635 0.26197 0.0
C2653 C 0.5534 0.98723 0.28924 0.0
C2654 C 0.59241 1.00098 0.27879 0.0
H2655 H 0.62527 0.9692 0.34489 0.0
H2656 H 0.6059 0.97598 0.33706 0.0
H2657 H 0.61224 0.99962 0.27305 0.0
H2658 H 0.55823 0.01818 0.24864 0.0
H2659 H 0.5801 0.02093 0.269 0.0
H2660 H 0.57486 0.99508 0.32656 0.0
C2661 C 0.61644 0.98185 0.32865 0.0
C2662 C 0.60455 0.99909 0.28519 0.0
C2663 C 0.62752 0.97785 0.33306 0.0
C2664 C 0.55664 0.00957 0.26021 0.0
C2665 C 0.56916 0.01115 0.27182 0.0
C2666 C 0.58316 0.99634 0.31492 0.0
C2667 C 0.61868 0.99267 0.31287 0.0
C2668 C 0.60627 0.99583 0.3066 0.0
C2669 C 0.56778 0.99964 0.28565 0.0
C2670 C 0.58146 0.99938 0.29348 0.0
H2671 H 0.6538 1.00068 0.29726 0.0
H2672 H 0.63496 0.00837 0.29037 0.0
H2673 H 0.59656 0.99256 0.33817 0.0
H2674 H 0.5302 0.97521 0.27907 0.0
H2675 H 0.55205 0.97817 0.29979 0.0
C2676 C 0.0193 0.65393 0.32405 0.0
C2677 C 0.03177 0.66161 0.33805 0.0
C2678 C 0.01455 0.63896 0.31768 0.0
C2679 C 0.03011 0.61336 0.31148 0.0
H2680 H 0.98852 0.58151 0.30474 0.0
C2681 C 0.01805 0.55576 0.28081 0.0
C2682 C 0.00755 0.54996 0.26377 0.0
C2683 C 0.01864 0.5671 0.29411 0.0
C2684 C 1.00019 0.5903 0.30649 0.0
H2685 H 0.04836 0.65914 0.35735 0.0
H2686 H 0.04006 0.63332 0.34642 0.0
H2687 H 0.99416 0.60635 0.3187 0.0
H2688 H 0.98818 0.55009 0.24913 0.0
H2689 H 0.98953 0.57019 0.27178 0.0
H2690 H 0.03629 0.59777 0.29872 0.0
C2691 C 0.03416 0.6389 0.33993 0.0
C2692 C 0.0034 0.60452 0.31443 0.0
C2693 C 0.03891 0.65376 0.34621 0.0
C2694 C 0.99662 0.55456 0.26185 0.0
C2695 C 0.99732 0.56604 0.27497 0.0
C2696 C 0.02693 0.59926 0.3035 0.0
C2697 C 0.02217 0.63142 0.32524 0.0
C2698 C 0.01842 0.6162 0.317 0.0
C2699 C 0.00886 0.57301 0.29052 0.0
C2700 C 0.01194 0.58752 0.30084 0.0
H2701 H 0.0135 0.65961 0.31755 0.0
H2702 H 0.00528 0.63349 0.30628 0.0
H2703 H 0.04179 0.62219 0.31282 0.0
H2704 H 0.02663 0.55249 0.28282 0.0
H2705 H 0.02738 0.57187 0.30638 0.0
C2706 C 0.35558 0.36811 0.31527 0.0
C2707 C 0.34624 0.3683 0.33137 0.0
C2708 C 0.3707 0.37944 0.31445 0.0
C2709 C 0.39489 0.41886 0.32417 0.0
H2710 H 0.42777 0.41017 0.31958 0.0
C2711 C 0.45329 0.46518 0.29654 0.0
C2712 C 0.4595 0.46015 0.28086 0.0
C2713 C 0.44141 0.45464 0.30906 0.0
C2714 C 0.41874 0.41283 0.32072 0.0
H2715 H 0.34537 0.38041 0.35933 0.0
H2716 H 0.37176 0.40061 0.35735 0.0
H2717 H 0.40259 0.38987 0.32835 0.0
H2718 H 0.45903 0.44048 0.26673 0.0
H2719 H 0.43837 0.42222 0.28792 0.0
H2720 H 0.41056 0.44148 0.31488 0.0
C2721 C 0.36739 0.3915 0.34567 0.0
C2722 C 0.40436 0.4012 0.32588 0.0
C2723 C 0.35235 0.37995 0.34681 0.0
C2724 C 0.45442 0.4446 0.27884 0.0
C2725 C 0.4426 0.43413 0.29115 0.0
C2726 C 0.40921 0.43045 0.31854 0.0
C2727 C 0.37666 0.39136 0.32943 0.0
C2728 C 0.39224 0.40404 0.32712 0.0
C2729 C 0.43556 0.43893 0.30598 0.0
C2730 C 0.42123 0.42749 0.31606 0.0
H2731 H 0.35117 0.35927 0.30319 0.0
H2732 H 0.37762 0.37918 0.30168 0.0
H2733 H 0.38568 0.42129 0.32495 0.0
H2734 H 0.45701 0.47714 0.29825 0.0
H2735 H 0.43646 0.45878 0.32056 0.0
C2736 C 0.2937 0.28174 0.33062 0.0
C2737 C 0.30346 0.29716 0.33533 0.0
C2738 C 0.29805 0.27092 0.33496 0.0
C2739 C 0.33106 0.26586 0.34467 0.0
H2740 H 0.30241 0.22931 0.37365 0.0
C2741 C 0.34804 0.22727 0.39077 0.0
C2742 C 0.33742 0.21191 0.39335 0.0
C2743 C 0.34435 0.23674 0.37903 0.0
C2744 C 0.31046 0.23925 0.3651 0.0
H2745 H 0.32561 0.31325 0.34806 0.0
H2746 H 0.33318 0.29425 0.35567 0.0
H2747 H 0.29514 0.24794 0.36322 0.0
H2748 H 0.31501 0.1941 0.38478 0.0
H2749 H 0.30862 0.21051 0.36344 0.0
H2750 H 0.34644 0.25722 0.34669 0.0
C2751 C 0.32217 0.29062 0.34851 0.0
C2752 C 0.3063 0.25 0.35924 0.0
C2753 C 0.31778 0.30148 0.3443 0.0
C2754 C 0.32343 0.20588 0.3827 0.0
C2755 C 0.31973 0.21535 0.37081 0.0
C2756 C 0.3352 0.25504 0.35038 0.0
C2757 C 0.3123 0.2752 0.34399 0.0
C2758 C 0.31661 0.26353 0.34924 0.0
C2759 C 0.32992 0.23104 0.36962 0.0
C2760 C 0.32502 0.24168 0.36099 0.0
H2761 H 0.28261 0.27795 0.32364 0.0
H2762 H 0.29025 0.25916 0.33109 0.0
H2763 H 0.33918 0.27607 0.33668 0.0
H2764 H 0.3588 0.23218 0.39923 0.0
H2765 H 0.35245 0.24873 0.37873 0.0
C2766 C 0.70471 0.01836 0.35598 0.0
C2767 C 0.70972 0.00971 0.34476 0.0
C2768 C 0.71503 0.03301 0.36322 0.0
C2769 C 0.75525 0.05643 0.37754 0.0
H2770 H 0.74778 0.09034 0.37409 0.0
C2771 C 0.8006 0.11469 0.40648 0.0
C2772 C 0.79566 0.12218 0.42033 0.0
C2773 C 0.79026 0.10263 0.39372 0.0
C2774 C 0.75 0.08096 0.37524 0.0
H2775 H 0.72953 0.00999 0.33179 0.0
H2776 H 0.74728 0.0353 0.34428 0.0
H2777 H 0.72897 0.06557 0.35974 0.0
H2778 H 0.77619 0.1239 0.42987 0.0
H2779 H 0.7581 0.10259 0.4081 0.0
H2780 H 0.776 0.07149 0.39341 0.0
C2781 C 0.73545 0.03073 0.34782 0.0
C2782 C 0.73921 0.06678 0.36708 0.0
C2783 C 0.72521 0.01618 0.3406 0.0
C2784 C 0.78032 0.11819 0.41965 0.0
C2785 C 0.76995 0.10603 0.40702 0.0
C2786 C 0.76596 0.07052 0.38572 0.0
C2787 C 0.73054 0.03926 0.35942 0.0
C2788 C 0.74176 0.05437 0.36812 0.0
C2789 C 0.77472 0.09768 0.39464 0.0
C2790 C 0.76352 0.08299 0.38466 0.0
H2791 H 0.69287 0.01378 0.35938 0.0
H2792 H 0.71091 0.03929 0.37224 0.0
H2793 H 0.75744 0.04704 0.379 0.0
H2794 H 0.81228 0.11737 0.40658 0.0
H2795 H 0.79437 0.0967 0.38391 0.0
C2796 C 0.98482 0.69577 0.34064 0.0
C2797 C 0.99311 0.69336 0.35686 0.0
C2798 C 0.97003 0.69269 0.34417 0.0
C2799 C 0.93748 0.67193 0.38003 0.0
H2800 H 0.92688 0.7023 0.36284 0.0
C2801 C 0.8803 0.66585 0.40273 0.0
C2802 C 0.8815 0.6788 0.41268 0.0
C2803 C 0.89234 0.66677 0.39105 0.0
C2804 C 0.92963 0.69368 0.36767 0.0
H2805 H 0.99223 0.68551 0.38934 0.0
H2806 H 0.96653 0.68019 0.3955 0.0
H2807 H 0.9512 0.70515 0.35281 0.0
H2808 H 0.89566 0.70304 0.41676 0.0
H2809 H 0.91661 0.7047 0.39642 0.0
H2810 H 0.91623 0.66079 0.39569 0.0
C2811 C 0.97137 0.68433 0.37998 0.0
C2812 C 0.94353 0.69524 0.36176 0.0
C2813 C 0.98616 0.68747 0.37649 0.0
C2814 C 0.89445 0.69287 0.40927 0.0
C2815 C 0.90644 0.69381 0.39754 0.0
C2816 C 0.92357 0.67034 0.38587 0.0
C2817 C 0.96316 0.68704 0.36395 0.0
C2818 C 0.94776 0.68456 0.36828 0.0
C2819 C 0.90578 0.68069 0.389 0.0
C2820 C 0.9196 0.68136 0.38016 0.0
H2821 H 0.98983 0.70027 0.32532 0.0
H2822 H 0.96398 0.69476 0.33141 0.0
H2823 H 0.94028 0.66339 0.38508 0.0
H2824 H 0.87051 0.65484 0.40523 0.0
H2825 H 0.89138 0.65648 0.38439 0.0
C2826 C 0.37461 0.02492 0.68862 0.0
C2827 C 0.37874 0.04028 0.68641 0.0
C2828 C 0.38501 0.02084 0.69678 0.0
C2829 C 0.41952 0.03527 0.72986 0.0
H2830 H 0.427 0.00654 0.69915 0.0
C2831 C 0.46871 0.02671 0.7557 0.0
C2832 C 0.46574 0.0117 0.75697 0.0
C2833 C 0.45887 0.03019 0.74444 0.0
C2834 C 0.42497 0.01449 0.70802 0.0
H2835 H 0.39683 0.06334 0.69162 0.0
H2836 H 0.41472 0.05622 0.70609 0.0
H2837 H 0.40719 0.01179 0.68645 0.0
H2838 H 0.45071 0.98864 0.74672 0.0
H2839 H 0.4333 0.99458 0.72729 0.0
H2840 H 0.43693 0.03784 0.75168 0.0
C2841 C 0.40354 0.04734 0.70144 0.0
C2842 C 0.4136 0.01745 0.70077 0.0
C2843 C 0.39328 0.05141 0.69307 0.0
C2844 C 0.45334 1.00035 0.74561 0.0
C2845 C 0.44335 0.00377 0.73457 0.0
C2846 C 0.43075 0.03223 0.7372 0.0
C2847 C 0.39959 0.03203 0.70319 0.0
C2848 C 0.41088 0.028 0.71152 0.0
C2849 C 0.44566 0.01865 0.73461 0.0
C2850 C 0.43377 0.02193 0.72628 0.0
H2851 H 0.36353 0.0161 0.68349 0.0
H2852 H 0.38165 0.00894 0.6981 0.0
H2853 H 0.41754 0.04329 0.73865 0.0
H2854 H 0.47816 0.03562 0.76449 0.0
H2855 H 0.46126 0.04184 0.7443 0.0
C2856 C 0.97952 0.34853 0.68064 0.0
C2857 C 0.98151 0.34085 0.69805 0.0
C2858 C 0.98127 0.36301 0.68332 0.0
C2859 C 0.97932 0.38738 0.72515 0.0
H2860 H 0.99848 0.41954 0.68365 0.0
C2861 C 0.00519 0.45526 0.72512 0.0
C2862 C 0.9941 0.45586 0.73747 0.0
C2863 C 1.00247 0.44155 0.71591 0.0
C2864 C 0.99306 0.41066 0.69535 0.0
H2865 H 0.98749 0.3426 0.73172 0.0
H2866 H 0.99068 0.3679 0.73637 0.0
H2867 H 0.99739 0.39519 0.67756 0.0
H2868 H 0.97105 0.44316 0.74802 0.0
H2869 H 0.96605 0.41938 0.73129 0.0
H2870 H 0.97534 0.40281 0.74327 0.0
C2871 C 0.98753 0.36263 0.7207 0.0
C2872 C 0.99238 0.39669 0.69182 0.0
C2873 C 0.98581 0.34818 0.71802 0.0
C2874 C 0.97975 0.44298 0.73851 0.0
C2875 C 0.97699 0.42933 0.7292 0.0
C2876 C 0.97995 0.40126 0.72863 0.0
C2877 C 0.98501 0.37011 0.70348 0.0
C2878 C 0.98563 0.38494 0.70682 0.0
C2879 C 0.98859 0.42825 0.71885 0.0
C2880 C 0.9869 0.41313 0.71386 0.0
H2881 H 0.97621 0.34321 0.66503 0.0
H2882 H 0.97917 0.3684 0.66976 0.0
H2883 H 0.97383 0.37851 0.73687 0.0
H2884 H 0.01642 0.46498 0.72436 0.0
H2885 H 0.01166 0.44115 0.70808 0.0
C2886 C 0.64384 0.62622 0.67299 0.0
C2887 C 0.65438 0.63502 0.689 0.0
C2888 C 0.62965 0.61423 0.67846 0.0
C2889 C 0.61192 0.58637 0.7198 0.0
H2890 H 0.57345 0.582 0.70121 0.0
C2891 C 0.55663 0.53448 0.7438 0.0
C2892 C 0.54733 0.53836 0.7554 0.0
C2893 C 0.56817 0.54528 0.73124 0.0
C2894 C 0.58413 0.58304 0.70633 0.0
H2895 H 0.65819 0.63833 0.72326 0.0
H2896 H 0.63365 0.61723 0.73271 0.0
H2897 H 0.59707 0.6035 0.68853 0.0
H2898 H 0.54195 0.55615 0.76157 0.0
H2899 H 0.56195 0.57497 0.73925 0.0
H2900 H 0.59918 0.5661 0.7377 0.0
C2901 C 0.63632 0.61968 0.71597 0.0
C2902 C 0.59759 0.59528 0.69907 0.0
C2903 C 0.65033 0.6318 0.71053 0.0
C2904 C 0.54896 0.55286 0.75276 0.0
C2905 C 0.56038 0.56361 0.73996 0.0
C2906 C 0.59853 0.57403 0.7267 0.0
C2907 C 0.62592 0.61067 0.70002 0.0
C2908 C 0.61159 0.59719 0.7061 0.0
C2909 C 0.5705 0.56011 0.72983 0.0
C2910 C 0.58449 0.57234 0.72033 0.0
H2911 H 0.64664 0.62845 0.65626 0.0
H2912 H 0.62181 0.60741 0.66589 0.0
H2913 H 0.62258 0.58756 0.72535 0.0
H2914 H 0.55574 0.52345 0.74571 0.0
H2915 H 0.57575 0.54226 0.72346 0.0
C2916 C 0.6788 0.69904 0.6532 0.0
C2917 C 0.69292 0.70464 0.66358 0.0
C2918 C 0.67338 0.70887 0.64739 0.0
C2919 C 0.6793 0.74763 0.65765 0.0
H2920 H 0.66345 0.74412 0.59998 0.0
C2921 C 0.68233 0.79766 0.61008 0.0
C2922 C 0.67125 0.79483 0.59435 0.0
C2923 C 0.68164 0.78579 0.62234 0.0
C2924 C 0.66753 0.74511 0.61631 0.0
H2925 H 0.71222 0.72501 0.67632 0.0
H2926 H 0.70291 0.74196 0.66598 0.0
H2927 H 0.66857 0.72462 0.61371 0.0
H2928 H 0.64996 0.77768 0.58066 0.0
H2929 H 0.64865 0.75697 0.60223 0.0
H2930 H 0.67878 0.76844 0.65992 0.0
C2931 C 0.6959 0.72999 0.66255 0.0
C2932 C 0.67049 0.73391 0.62418 0.0
C2933 C 0.70132 0.72023 0.66829 0.0
C2934 C 0.65876 0.78015 0.59249 0.0
C2935 C 0.65807 0.76829 0.60474 0.0
C2936 C 0.67636 0.75885 0.64977 0.0
C2937 C 0.68191 0.72448 0.65194 0.0
C2938 C 0.67679 0.73524 0.64473 0.0
C2939 C 0.66983 0.77085 0.61914 0.0
C2940 C 0.67079 0.75792 0.62881 0.0
H2941 H 0.67198 0.6871 0.64941 0.0
H2942 H 0.6625 0.70425 0.63934 0.0
H2943 H 0.68387 0.74884 0.67372 0.0
H2944 H 0.69218 0.80879 0.61174 0.0
H2945 H 0.69095 0.78817 0.63318 0.0
C2946 C 0.29655 0.99142 0.66699 0.0
C2947 C 0.3102 0.99728 0.65606 0.0
C2948 C 0.28531 0.97634 0.66412 0.0
C2949 C 0.27366 0.94359 0.62671 0.0
H2950 H 0.24371 0.92234 0.67003 0.0
C2951 C 0.2271 0.8819 0.61557 0.0
C2952 C 0.21338 0.88161 0.61134 0.0
C2953 C 0.23901 0.89444 0.62574 0.0
C2954 C 0.25209 0.92815 0.65791 0.0
H2955 H 0.32312 0.99182 0.63426 0.0
H2956 H 0.30396 0.96525 0.63015 0.0
H2957 H 0.26522 0.94732 0.67811 0.0
H2958 H 0.20092 0.89354 0.61559 0.0
H2959 H 0.22158 0.91522 0.63443 0.0
H2960 H 0.26061 0.92411 0.60682 0.0
C2961 C 0.30153 0.9724 0.64025 0.0
C2962 C 0.26435 0.94254 0.66237 0.0
C2963 C 0.31262 0.98762 0.64271 0.0
C2964 C 0.21127 0.89338 0.61918 0.0
C2965 C 0.2231 0.90578 0.62978 0.0
C2966 C 0.26164 0.92908 0.62249 0.0
C2967 C 0.28757 0.96656 0.65063 0.0
C2968 C 0.27519 0.95064 0.64667 0.0
C2969 C 0.23726 0.90672 0.63219 0.0
C2970 C 0.25066 0.92135 0.63792 0.0
H2971 H 0.29433 0.99865 0.67728 0.0
H2972 H 0.2747 0.97254 0.67206 0.0
H2973 H 0.28143 0.94942 0.61395 0.0
H2974 H 0.22908 0.87313 0.60917 0.0
H2975 H 0.24987 0.895 0.62734 0.0
C2976 C 0.02075 0.31342 0.66678 0.0
C2977 C 0.01223 0.29966 0.67762 0.0
C2978 C 0.03521 0.31752 0.65944 0.0
C2979 C 0.05767 0.29995 0.64355 0.0
H2980 H 0.09232 0.34021 0.6492 0.0
C2981 C 0.11473 0.31089 0.61387 0.0
C2982 C 0.1224 0.32374 0.60096 0.0
C2983 C 0.10302 0.30932 0.62689 0.0
C2984 C 0.08273 0.32892 0.64742 0.0
H2985 H 0.01261 0.27976 0.68989 0.0
H2986 H 0.03751 0.2869 0.67718 0.0
H2987 H 0.06799 0.33501 0.66352 0.0
H2988 H 0.12491 0.34573 0.5934 0.0
H2989 H 0.10424 0.3428 0.61557 0.0
H2990 H 0.07204 0.29383 0.62704 0.0
C2991 C 0.03299 0.29441 0.67403 0.0
C2992 C 0.0688 0.32598 0.65556 0.0
C2993 C 0.01866 0.29035 0.68136 0.0
C2994 C 0.11903 0.33557 0.6029 0.0
C2995 C 0.10724 0.33394 0.61575 0.0
C2996 C 0.07149 0.30289 0.63536 0.0
C2997 C 0.04136 0.30791 0.66273 0.0
C2998 C 0.05615 0.31142 0.65378 0.0
C2999 C 0.09863 0.32048 0.62715 0.0
C3000 C 0.08423 0.31739 0.63721 0.0
H3001 H 0.01619 0.3209 0.66372 0.0
H3002 H 0.04141 0.32799 0.6507 0.0
H3003 H 0.04806 0.28869 0.64155 0.0
H3004 H 0.117 0.30155 0.61278 0.0
H3005 H 0.09691 0.29898 0.63594 0.0
C3006 C 0.29571 0.31028 0.66016 0.0
C3007 C 0.30909 0.31673 0.64849 0.0
C3008 C 0.28468 0.3144 0.65604 0.0
C3009 C 0.2728 0.33212 0.61322 0.0
H3010 H 0.24355 0.32834 0.65519 0.0
C3011 C 0.22557 0.34412 0.58986 0.0
C3012 C 0.21129 0.33115 0.59176 0.0
C3013 C 0.23804 0.34522 0.60105 0.0
C3014 C 0.25172 0.32953 0.64338 0.0
H3015 H 0.3219 0.33323 0.62436 0.0
H3016 H 0.30316 0.34111 0.61798 0.0
H3017 H 0.26505 0.3253 0.66622 0.0
H3018 H 0.19863 0.30997 0.60866 0.0
H3019 H 0.22042 0.31211 0.62864 0.0
H3020 H 0.25954 0.33649 0.59049 0.0
C3021 C 0.30074 0.33233 0.62963 0.0
C3022 C 0.26398 0.32766 0.64961 0.0
C3023 C 0.31159 0.32793 0.63339 0.0
C3024 C 0.20944 0.32014 0.60693 0.0
C3025 C 0.22194 0.32132 0.61831 0.0
C3026 C 0.26077 0.33428 0.60715 0.0
C3027 C 0.28692 0.32533 0.64045 0.0
C3028 C 0.27457 0.32867 0.63451 0.0
C3029 C 0.23645 0.33349 0.6146 0.0
C3030 C 0.24998 0.3328 0.62206 0.0
H3031 H 0.29346 0.30155 0.67184 0.0
H3032 H 0.27417 0.30853 0.66453 0.0
H3033 H 0.28037 0.33261 0.60092 0.0
H3034 H 0.22729 0.3529 0.57854 0.0
H3035 H 0.24909 0.35482 0.59815 0.0
C3036 C 0.71162 0.99069 0.67656 0.0
C3037 C 0.70275 0.99757 0.67258 0.0
C3038 C 0.70717 0.97617 0.66895 0.0
C3039 C 0.67498 0.94062 0.64917 0.0
H3040 H 0.70647 0.93561 0.62287 0.0
C3041 C 0.66442 0.88828 0.59832 0.0
C3042 C 0.67585 0.88431 0.59801 0.0
C3043 C 0.66627 0.90071 0.61035 0.0
C3044 C 0.69757 0.93668 0.63053 0.0
H3045 H 0.68189 0.99422 0.65787 0.0
H3046 H 0.67412 0.96869 0.64433 0.0
H3047 H 0.7123 0.96018 0.63697 0.0
H3048 H 0.69756 0.88947 0.61179 0.0
H3049 H 0.70045 0.91062 0.63342 0.0
H3050 H 0.66023 0.917 0.64254 0.0
C3051 C 0.68455 0.97467 0.6535 0.0
C3052 C 0.70091 0.95083 0.63851 0.0
C3053 C 0.68904 0.98932 0.66114 0.0
C3054 C 0.68849 0.89213 0.61163 0.0
C3055 C 0.69027 0.90446 0.62378 0.0
C3056 C 0.67163 0.92636 0.6412 0.0
C3057 C 0.6937 0.96805 0.65709 0.0
C3058 C 0.68971 0.95297 0.64804 0.0
C3059 C 0.67954 0.90936 0.62248 0.0
C3060 C 0.68293 0.92421 0.63188 0.0
H3061 H 0.72215 0.99652 0.68554 0.0
H3062 H 0.71433 0.9713 0.67236 0.0
H3063 H 0.66614 0.94191 0.65656 0.0
H3064 H 0.65442 0.88232 0.58827 0.0
H3065 H 0.65773 0.90408 0.60901 0.0
C3066 C 0.02254 0.70916 0.63644 0.0
C3067 C 0.01592 0.7054 0.65666 0.0
C3068 C 0.03673 0.72189 0.63387 0.0
C3069 C 0.07173 0.74974 0.66155 0.0
H3070 H 0.0744 0.77463 0.6129 0.0
C3071 C 0.12724 0.79392 0.62213 0.0
C3072 C 0.12718 0.80592 0.611 0.0
C3073 C 0.11448 0.78354 0.63326 0.0
C3074 C 0.07384 0.768 0.62681 0.0
H3075 H 0.01932 0.71169 0.69022 0.0
H3076 H 0.04423 0.73398 0.68568 0.0
H3077 H 0.05065 0.75209 0.62042 0.0
H3078 H 0.11456 0.81756 0.60474 0.0
H3079 H 0.09251 0.79984 0.62484 0.0
H3080 H 0.09511 0.76569 0.6677 0.0
C3081 C 0.03839 0.72704 0.67185 0.0
C3082 C 0.06025 0.75491 0.6309 0.0
C3083 C 0.02412 0.71429 0.67442 0.0
C3084 C 0.11488 0.80841 0.61325 0.0
C3085 C 0.10219 0.79813 0.62451 0.0
C3086 C 0.08545 0.76286 0.65737 0.0
C3087 C 0.04467 0.73118 0.65144 0.0
C3088 C 0.05907 0.74549 0.64808 0.0
C3089 C 0.10148 0.78506 0.63348 0.0
C3090 C 0.08669 0.77207 0.63979 0.0
H3091 H 0.01659 0.70252 0.62244 0.0
H3092 H 0.0414 0.7246 0.61799 0.0
H3093 H 0.07116 0.74269 0.67493 0.0
H3094 H 0.13651 0.79164 0.62037 0.0
H3095 H 0.11433 0.77361 0.63995 0.0
C3096 C 0.96512 0.61763 0.65991 0.0
C3097 C 0.97452 0.63296 0.66555 0.0
C3098 C 0.96944 0.60683 0.66453 0.0
C3099 C 1.00204 0.60168 0.67801 0.0
H3100 H 0.97176 0.56444 0.70377 0.0
C3101 C 0.01615 0.56166 0.72615 0.0
C3102 C 0.00539 0.54624 0.72739 0.0
C3103 C 0.01321 0.57152 0.71404 0.0
C3104 C 0.98029 0.57458 0.69613 0.0
H3105 H 0.99607 0.64892 0.68006 0.0
H3106 H 0.00358 0.62993 0.68823 0.0
H3107 H 0.96512 0.58334 0.69237 0.0
H3108 H 0.98352 0.52875 0.71613 0.0
H3109 H 0.97848 0.54587 0.69418 0.0
H3110 H 0.01726 0.59296 0.68199 0.0
C3111 C 0.99288 0.62637 0.68011 0.0
C3112 C 0.97649 0.58549 0.68971 0.0
C3113 C 0.98853 0.63723 0.67555 0.0
C3114 C 0.99207 0.54058 0.71511 0.0
C3115 C 0.98912 0.55044 0.70286 0.0
C3116 C 0.00583 0.59071 0.68432 0.0
C3117 C 0.98329 0.61101 0.67486 0.0
C3118 C 0.98735 0.59925 0.68081 0.0
C3119 C 0.99938 0.56615 0.70293 0.0
C3120 C 0.99505 0.57709 0.69374 0.0
H3121 H 0.95431 0.61387 0.65203 0.0
H3122 H 0.96189 0.59515 0.65999 0.0
H3123 H 0.0106 0.61208 0.67092 0.0
H3124 H 0.02638 0.56628 0.73586 0.0
H3125 H 0.02132 0.5835 0.71473 0.0
C3126 C 0.37275 0.35035 0.68285 0.0
C3127 C 0.37787 0.34171 0.67183 0.0
C3128 C 0.38303 0.36478 0.69085 0.0
C3129 C 0.42276 0.38727 0.70805 0.0
H3130 H 0.4162 0.42174 0.70419 0.0
C3131 C 0.46767 0.44478 0.74053 0.0
C3132 C 0.46243 0.45239 0.75361 0.0
C3133 C 0.45768 0.43288 0.72723 0.0
C3134 C 0.41816 0.4122 0.70549 0.0
H3135 H 0.39788 0.34178 0.66013 0.0
H3136 H 0.41559 0.36672 0.674 0.0
H3137 H 0.39766 0.39743 0.68836 0.0
H3138 H 0.44282 0.45442 0.76131 0.0
H3139 H 0.42532 0.43338 0.73865 0.0
H3140 H 0.44296 0.40171 0.72557 0.0
C3141 C 0.40368 0.3623 0.67672 0.0
C3142 C 0.40752 0.39828 0.69646 0.0
C3143 C 0.39346 0.34797 0.6687 0.0
C3144 C 0.44718 0.44862 0.75172 0.0
C3145 C 0.43716 0.43661 0.73856 0.0
C3146 C 0.43331 0.4011 0.71713 0.0
C3147 C 0.39863 0.37081 0.68809 0.0
C3148 C 0.40974 0.38567 0.69762 0.0
C3149 C 0.44218 0.4282 0.72683 0.0
C3150 C 0.43119 0.41377 0.71597 0.0
H3151 H 0.36083 0.34593 0.68548 0.0
H3152 H 0.3788 0.37104 0.69967 0.0
H3153 H 0.42467 0.37771 0.7096 0.0
H3154 H 0.4793 0.44729 0.74158 0.0
H3155 H 0.46202 0.42691 0.71797 0.0
C3156 C 0.6547 0.03285 0.6866 0.0
C3157 C 0.6616 0.02558 0.69719 0.0
C3158 C 0.63981 0.02901 0.69105 0.0
C3159 C 0.61028 0.00904 0.73239 0.0
H3160 H 0.58501 0.01549 0.69151 0.0
C3161 C 0.54885 0.99189 0.7503 0.0
C3162 C 0.54695 0.00464 0.752 0.0
C3163 C 0.56138 0.99292 0.73993 0.0
C3164 C 0.59196 0.01358 0.703 0.0
H3165 H 0.65813 0.00805 0.71984 0.0
H3166 H 0.63195 1.00061 0.7266 0.0
H3167 H 0.6097 0.01959 0.68073 0.0
H3168 H 0.55609 0.02818 0.74343 0.0
H3169 H 0.57773 0.02982 0.72436 0.0
H3170 H 0.59225 0.00261 0.75438 0.0
C3171 C 0.63813 0.00982 0.71565 0.0
C3172 C 0.60619 0.01607 0.69695 0.0
C3173 C 0.65314 0.01397 0.71164 0.0
C3174 C 0.55717 0.01813 0.74187 0.0
C3175 C 0.56955 0.01907 0.7311 0.0
C3176 C 0.59595 0.00621 0.73821 0.0
C3177 C 0.6313 0.01752 0.70582 0.0
C3178 C 0.61569 0.01402 0.71166 0.0
C3179 C 0.57207 0.00665 0.7308 0.0
C3180 C 0.58672 0.0086 0.72367 0.0
H3181 H 0.66101 0.04193 0.67548 0.0
H3182 H 0.6352 0.03543 0.68335 0.0
H3183 H 0.61724 0.0077 0.74448 0.0
H3184 H 0.54129 0.98149 0.75841 0.0
H3185 H 0.56313 0.98321 0.73995 0.0
loop_
_geom_bond_atom_site_label_1
_geom_bond_atom_site_label_2
_geom_bond_distance
_geom_bond_site_symmetry_2
_ccdc_geom_bond_type
Mn0 O5 2.095 1_655 S
Mn0 O15 2.162 . S
Mn0 O16 2.297 1_554 S
Mn0 O24 2.385 1_554 S
Mn0 O25 2.209 1_654 S
Mn0 O26 2.094 . S
Mn1 O6 2.121 . S
Mn1 N8 2.257 1_554 S
Mn1 N17 2.282 . S
Mn1 O25 2.215 1_554 S
Mn1 O27 2.117 . S
C2 O24 1.234 1_455 S
C2 O25 1.283 . S
C3 O15 1.281 1_556 S
C3 O16 1.236 . S
C4 O26 1.223 1_455 S
C4 O27 1.308 . S
O5 Mn0 2.095 1_455 S
O5 C14 1.250 . S
O6 Mn1 2.121 . S
O6 C14 1.258 . S
C7 N8 1.326 . S
C7 C11 1.460 . S
C7 H13 0.929 . S
N8 Mn1 2.257 1_556 S
N8 C7 1.326 . S
N8 C12 1.362 . S
C9 C10 1.258 . S
C9 C12 1.431 . S
C9 C29 1.449 . S
C10 C9 1.258 . S
C10 C11 1.477 . S
C10 H30 0.931 . S
C11 C7 1.460 . S
C11 C10 1.477 . S
C11 H31 0.930 . S
C12 N8 1.362 . S
C12 C9 1.431 . S
C12 C22 1.476 . S
H13 C7 0.929 . S
C14 O5 1.250 . S
C14 O6 1.258 . S
O15 Mn0 2.162 . S
O15 C3 1.281 1_554 S
O16 Mn0 2.297 1_556 S
O16 C3 1.236 . S
N17 Mn1 2.282 . S
N17 C18 1.328 . S
N17 C22 1.318 1_554 S
C18 N17 1.328 . S
C18 C19 1.457 1_554 S
C18 H23 0.929 . S
C19 C18 1.457 1_556 S
C19 C20 1.291 . S
C19 H32 0.936 . S
C20 C19 1.291 . S
C20 C21 1.373 . S
C20 H33 0.929 . S
C21 C20 1.373 . S
C21 C22 1.396 . S
C21 C28 1.403 . S
C22 C12 1.476 . S
C22 N17 1.318 1_556 S
C22 C21 1.396 . S
H23 C18 0.929 . S
O24 Mn0 2.385 1_556 S
O24 C2 1.234 1_655 S
O25 Mn0 2.209 1_456 S
O25 Mn1 2.215 1_556 S
O25 C2 1.283 . S
O26 Mn0 2.094 . S
O26 C4 1.223 1_655 S
O27 Mn1 2.117 . S
O27 C4 1.308 . S
C28 C21 1.403 . S
C28 C29 1.399 . S
C28 H34 0.929 . S
C29 C9 1.449 . S
C29 C28 1.399 . S
C29 H35 0.930 . S
H30 C10 0.931 . S
H31 C11 0.930 . S
H32 C19 0.936 . S
H33 C20 0.929 . S
H34 C28 0.929 . S
H35 C29 0.930 . S
Mn36 O41 2.095 1_554 S
Mn36 O51 2.162 . S
Mn36 O52 2.297 . S
Mn36 O60 2.385 . S
Mn36 O61 2.209 . S
Mn36 O62 2.094 1_554 S
Mn37 O42 2.120 1_554 S
Mn37 N44 2.264 . S
Mn37 N53 2.286 . S
Mn37 O61 2.222 . S
Mn37 O63 2.111 1_554 S
C38 O60 1.234 . S
C38 O61 1.283 . S
C39 O51 1.281 . S
C39 O52 1.236 . S
C40 O62 1.240 . S
C40 O63 1.264 . S
O41 Mn36 2.095 1_556 S
O41 C50 1.250 . S
O42 Mn37 2.120 1_556 S
O42 C50 1.258 . S
C43 N44 1.326 . S
C43 C47 1.460 . S
C43 H49 0.929 . S
N44 Mn37 2.264 . S
N44 C43 1.326 . S
N44 C48 1.362 . S
C45 C46 1.258 . S
C45 C48 1.431 . S
C45 C65 1.449 . S
C46 C45 1.258 . S
C46 C47 1.477 . S
C46 H66 0.931 . S
C47 C43 1.460 . S
C47 C46 1.477 . S
C47 H67 0.930 . S
C48 N44 1.362 . S
C48 C45 1.431 . S
C48 C58 1.476 . S
H49 C43 0.929 . S
C50 O41 1.250 . S
C50 O42 1.258 . S
O51 Mn36 2.162 . S
O51 C39 1.281 . S
O52 Mn36 2.297 . S
O52 C39 1.236 . S
N53 Mn37 2.286 . S
N53 C54 1.328 . S
N53 C58 1.318 . S
C54 N53 1.328 . S
C54 C55 1.457 . S
C54 H59 0.929 1_554 S
C55 C54 1.457 . S
C55 C56 1.291 . S
C55 H68 0.931 . S
C56 C55 1.291 . S
C56 C57 1.373 . S
C56 H69 0.929 . S
C57 C56 1.373 . S
C57 C58 1.396 . S
C57 C64 1.403 . S
C58 C48 1.476 . S
C58 N53 1.318 . S
C58 C57 1.396 . S
H59 C54 0.929 1_556 S
O60 Mn36 2.385 . S
O60 C38 1.234 . S
O61 Mn36 2.209 . S
O61 Mn37 2.222 . S
O61 C38 1.283 . S
O62 Mn36 2.094 1_556 S
O62 C40 1.240 . S
O63 Mn37 2.111 1_556 S
O63 C40 1.264 . S
C64 C57 1.403 . S
C64 C65 1.399 . S
C64 H70 0.929 . S
C65 C45 1.449 . S
C65 C64 1.399 . S
C65 H71 0.930 . S
H66 C46 0.931 . S
H67 C47 0.930 . S
H68 C55 0.931 . S
H69 C56 0.929 . S
H70 C64 0.929 . S
H71 C65 0.930 . S
Mn72 O77 2.095 1_564 S
Mn72 O87 2.162 . S
Mn72 O88 2.297 . S
Mn72 O96 2.385 . S
Mn72 O97 2.209 1_565 S
Mn72 O98 2.094 1_554 S
Mn73 O78 2.117 1_554 S
Mn73 N80 2.257 . S
Mn73 N89 2.282 . S
Mn73 O97 2.215 . S
Mn73 O99 2.117 1_554 S
C74 O96 1.201 1_545 S
C74 O97 1.317 . S
C75 O87 1.281 . S
C75 O88 1.236 . S
C76 O98 1.249 . S
C76 O99 1.243 1_565 S
O77 Mn72 2.095 1_546 S
O77 C86 1.250 . S
O78 Mn73 2.117 1_556 S
O78 C86 1.270 . S
C79 N80 1.326 . S
C79 C83 1.460 . S
C79 H85 0.929 . S
N80 Mn73 2.257 . S
N80 C79 1.326 . S
N80 C84 1.362 . S
C81 C82 1.258 . S
C81 C84 1.431 . S
C81 C101 1.449 . S
C82 C81 1.258 . S
C82 C83 1.477 . S
C82 H102 0.931 . S
C83 C79 1.460 . S
C83 C82 1.477 . S
C83 H103 0.930 . S
C84 N80 1.362 . S
C84 C81 1.431 . S
C84 C94 1.476 . S
H85 C79 0.929 . S
C86 O77 1.250 . S
C86 O78 1.270 . S
O87 Mn72 2.162 . S
O87 C75 1.281 . S
O88 Mn72 2.297 . S
O88 C75 1.236 . S
N89 Mn73 2.282 . S
N89 C90 1.328 . S
N89 C94 1.318 . S
C90 N89 1.328 . S
C90 C91 1.457 . S
C90 H95 0.929 . S
C91 C90 1.457 . S
C91 C92 1.291 . S
C91 H104 0.931 . S
C92 C91 1.291 . S
C92 C93 1.373 . S
C92 H105 0.929 . S
C93 C92 1.373 . S
C93 C94 1.396 . S
C93 C100 1.403 . S
C94 C84 1.476 . S
C94 N89 1.318 . S
C94 C93 1.396 . S
H95 C90 0.929 . S
O96 Mn72 2.385 . S
O96 C74 1.201 1_565 S
O97 Mn72 2.209 1_545 S
O97 Mn73 2.215 . S
O97 C74 1.317 . S
O98 Mn72 2.094 1_556 S
O98 C76 1.249 . S
O99 Mn73 2.117 1_556 S
O99 C76 1.243 1_545 S
C100 C93 1.403 . S
C100 C101 1.399 . S
C100 H106 0.929 . S
C101 C81 1.449 . S
C101 C100 1.399 . S
C101 H107 0.930 . S
H102 C82 0.931 . S
H103 C83 0.930 . S
H104 C91 0.931 . S
H105 C92 0.929 . S
H106 C100 0.929 . S
H107 C101 0.930 . S
Mn108 O113 2.095 1_655 S
Mn108 O123 2.162 . S
Mn108 O124 2.297 1_554 S
Mn108 O132 2.385 1_554 S
Mn108 O133 2.209 1_654 S
Mn108 O134 2.094 . S
Mn109 O114 2.121 . S
Mn109 N116 2.257 1_554 S
Mn109 N125 2.278 1_554 S
Mn109 O133 2.215 1_554 S
Mn109 O135 2.117 . S
C110 O132 1.184 1_455 S
C110 O133 1.305 . S
C111 O123 1.281 1_556 S
C111 O124 1.236 . S
C112 O134 1.231 1_455 S
C112 O135 1.273 . S
O113 Mn108 2.095 1_455 S
O113 C122 1.250 . S
O114 Mn109 2.121 . S
O114 C122 1.258 . S
C115 N116 1.326 . S
C115 C119 1.460 . S
C115 H121 0.929 . S
N116 Mn109 2.257 1_556 S
N116 C115 1.326 . S
N116 C120 1.362 . S
C117 C118 1.258 . S
C117 C120 1.431 . S
C117 C137 1.449 . S
C118 C117 1.258 . S
C118 C119 1.477 . S
C118 H138 0.931 . S
C119 C115 1.460 . S
C119 C118 1.477 . S
C119 H139 0.930 . S
C120 N116 1.362 . S
C120 C117 1.431 . S
C120 C130 1.476 . S
H121 C115 0.929 . S
C122 O113 1.250 . S
C122 O114 1.258 . S
O123 Mn108 2.162 . S
O123 C111 1.281 1_554 S
O124 Mn108 2.297 1_556 S
O124 C111 1.236 . S
N125 Mn109 2.278 1_556 S
N125 C126 1.325 1_556 S
N125 C130 1.325 . S
C126 N125 1.325 1_554 S
C126 C127 1.457 1_554 S
C126 H131 0.929 . S
C127 C126 1.457 1_556 S
C127 C128 1.291 . S
C127 H140 0.931 . S
C128 C127 1.291 . S
C128 C129 1.373 . S
C128 H141 0.929 . S
C129 C128 1.373 . S
C129 C130 1.396 . S
C129 C136 1.403 . S
C130 C120 1.476 . S
C130 N125 1.325 . S
C130 C129 1.396 . S
H131 C126 0.929 . S
O132 Mn108 2.385 1_556 S
O132 C110 1.184 1_655 S
O133 Mn108 2.209 1_456 S
O133 Mn109 2.215 1_556 S
O133 C110 1.305 . S
O134 Mn108 2.094 . S
O134 C112 1.231 1_655 S
O135 Mn109 2.117 . S
O135 C112 1.273 . S
C136 C129 1.403 . S
C136 C137 1.399 . S
C136 H142 0.929 . S
C137 C117 1.449 . S
C137 C136 1.399 . S
C137 H143 0.930 . S
H138 C118 0.931 . S
H139 C119 0.930 . S
H140 C127 0.931 . S
H141 C128 0.929 . S
H142 C136 0.929 . S
H143 C137 0.930 . S
Mn144 O149 2.095 1_554 S
Mn144 O159 2.162 . S
Mn144 O160 2.297 . S
Mn144 O168 2.385 . S
Mn144 O169 2.209 . S
Mn144 O170 2.094 1_554 S
Mn145 O150 2.121 1_554 S
Mn145 N152 2.257 . S
Mn145 N161 2.282 . S
Mn145 O169 2.215 . S
Mn145 O171 2.117 1_554 S
C146 O168 1.234 . S
C146 O169 1.283 . S
C147 O159 1.281 . S
C147 O160 1.236 . S
C148 O170 1.240 . S
C148 O171 1.264 . S
O149 Mn144 2.095 1_556 S
O149 C158 1.250 . S
O150 Mn145 2.121 1_556 S
O150 C158 1.258 . S
C151 N152 1.326 . S
C151 C155 1.460 . S
C151 H157 0.929 . S
N152 Mn145 2.257 . S
N152 C151 1.326 . S
N152 C156 1.362 . S
C153 C154 1.258 . S
C153 C156 1.431 . S
C153 C173 1.449 . S
C154 C153 1.258 . S
C154 C155 1.477 . S
C154 H174 0.931 . S
C155 C151 1.460 . S
C155 C154 1.477 . S
C155 H175 0.930 . S
C156 N152 1.362 . S
C156 C153 1.431 . S
C156 C166 1.476 . S
H157 C151 0.929 . S
C158 O149 1.250 . S
C158 O150 1.258 . S
O159 Mn144 2.162 . S
O159 C147 1.281 . S
O160 Mn144 2.297 . S
O160 C147 1.236 . S
N161 Mn145 2.282 . S
N161 C162 1.328 . S
N161 C166 1.318 . S
C162 N161 1.328 . S
C162 C163 1.457 . S
C162 H167 0.932 . S
C163 C162 1.457 . S
C163 C164 1.291 . S
C163 H176 0.931 . S
C164 C163 1.291 . S
C164 C165 1.373 . S
C164 H177 0.929 . S
C165 C164 1.373 . S
C165 C166 1.396 . S
C165 C172 1.403 . S
C166 C156 1.476 . S
C166 N161 1.318 . S
C166 C165 1.396 . S
H167 C162 0.932 . S
O168 Mn144 2.385 . S
O168 C146 1.234 . S
O169 Mn144 2.209 . S
O169 Mn145 2.215 . S
O169 C146 1.283 . S
O170 Mn144 2.094 1_556 S
O170 C148 1.240 . S
O171 Mn145 2.117 1_556 S
O171 C148 1.264 . S
C172 C165 1.403 . S
C172 C173 1.399 . S
C172 H178 0.929 . S
C173 C153 1.449 . S
C173 C172 1.399 . S
C173 H179 0.930 . S
H174 C154 0.931 . S
H175 C155 0.930 . S
H176 C163 0.931 . S
H177 C164 0.929 . S
H178 C172 0.929 . S
H179 C173 0.930 . S
Mn180 O185 2.095 1_545 S
Mn180 O195 2.162 . S
Mn180 O196 2.297 1_554 S
Mn180 O204 2.385 1_554 S
Mn180 O205 2.209 1_544 S
Mn180 O206 2.094 . S
Mn181 O186 2.121 . S
Mn181 N188 2.257 1_554 S
Mn181 N197 2.290 . S
Mn181 O205 2.215 1_554 S
Mn181 O207 2.117 . S
C182 O204 1.234 . S
C182 O205 1.283 1_545 S
C183 O195 1.281 1_556 S
C183 O196 1.236 . S
C184 O206 1.240 . S
C184 O207 1.264 1_545 S
O185 Mn180 2.095 1_565 S
O185 C194 1.250 . S
O186 Mn181 2.121 . S
O186 C194 1.258 . S
C187 N188 1.326 . S
C187 C191 1.460 . S
C187 H193 0.929 . S
N188 Mn181 2.257 1_556 S
N188 C187 1.326 . S
N188 C192 1.362 . S
C189 C190 1.258 . S
C189 C192 1.431 . S
C189 C209 1.449 . S
C190 C189 1.258 . S
C190 C191 1.477 . S
C190 H210 0.931 . S
C191 C187 1.460 . S
C191 C190 1.477 . S
C191 H211 0.930 . S
C192 N188 1.362 . S
C192 C189 1.431 . S
C192 C202 1.476 . S
H193 C187 0.929 . S
C194 O185 1.250 . S
C194 O186 1.258 . S
O195 Mn180 2.162 . S
O195 C183 1.281 1_554 S
O196 Mn180 2.297 1_556 S
O196 C183 1.236 . S
N197 Mn181 2.290 . S
N197 C198 1.333 . S
N197 C202 1.302 1_554 S
C198 N197 1.333 . S
C198 C199 1.457 1_554 S
C198 H203 0.929 . S
C199 C198 1.457 1_556 S
C199 C200 1.291 . S
C199 H212 0.931 . S
C200 C199 1.291 . S
C200 C201 1.373 . S
C200 H213 0.929 . S
C201 C200 1.373 . S
C201 C202 1.396 . S
C201 C208 1.403 . S
C202 C192 1.476 . S
C202 N197 1.302 1_556 S
C202 C201 1.396 . S
H203 C198 0.929 . S
O204 Mn180 2.385 1_556 S
O204 C182 1.234 . S
O205 Mn180 2.209 1_566 S
O205 Mn181 2.215 1_556 S
O205 C182 1.283 1_565 S
O206 Mn180 2.094 . S
O206 C184 1.240 . S
O207 Mn181 2.117 . S
O207 C184 1.264 1_565 S
C208 C201 1.403 . S
C208 C209 1.399 . S
C208 H214 0.929 . S
C209 C189 1.449 . S
C209 C208 1.399 . S
C209 H215 0.930 . S
H210 C190 0.931 . S
H211 C191 0.930 . S
H212 C199 0.931 . S
H213 C200 0.929 . S
H214 C208 0.929 . S
H215 C209 0.930 . S
Mn216 O221 2.095 . S
Mn216 O231 2.162 . S
Mn216 O232 2.297 . S
Mn216 O240 2.385 . S
Mn216 O241 2.209 . S
Mn216 O242 2.094 . S
Mn217 O222 2.121 . S
Mn217 N224 2.257 . S
Mn217 N233 2.282 . S
Mn217 O241 2.215 . S
Mn217 O243 2.117 . S
C218 O240 1.234 . S
C218 O241 1.283 . S
C219 O231 1.281 . S
C219 O232 1.236 . S
C220 O242 1.240 . S
C220 O243 1.264 . S
O221 Mn216 2.095 . S
O221 C230 1.250 . S
O222 Mn217 2.121 . S
O222 C230 1.258 . S
C223 N224 1.326 . S
C223 C227 1.460 . S
C223 H229 0.929 . S
N224 Mn217 2.257 . S
N224 C223 1.326 . S
N224 C228 1.362 . S
C225 C226 1.258 . S
C225 C228 1.431 . S
C225 C245 1.449 . S
C226 C225 1.258 . S
C226 C227 1.477 . S
C226 H246 0.931 . S
C227 C223 1.460 . S
C227 C226 1.477 . S
C227 H247 0.930 . S
C228 N224 1.362 . S
C228 C225 1.431 . S
C228 C238 1.476 . S
H229 C223 0.929 . S
C230 O221 1.250 . S
C230 O222 1.258 . S
O231 Mn216 2.162 . S
O231 C219 1.281 . S
O232 Mn216 2.297 . S
O232 C219 1.236 . S
N233 Mn217 2.282 . S
N233 C234 1.328 . S
N233 C238 1.318 . S
C234 N233 1.328 . S
C234 C235 1.457 . S
C234 H239 0.929 . S
C235 C234 1.457 . S
C235 C236 1.291 . S
C235 H248 0.931 . S
C236 C235 1.291 . S
C236 C237 1.373 . S
C236 H249 0.929 . S
C237 C236 1.373 . S
C237 C238 1.396 . S
C237 C244 1.403 . S
C238 C228 1.476 . S
C238 N233 1.318 . S
C238 C237 1.396 . S
H239 C234 0.929 . S
O240 Mn216 2.385 . S
O240 C218 1.234 . S
O241 Mn216 2.209 . S
O241 Mn217 2.215 . S
O241 C218 1.283 . S
O242 Mn216 2.094 . S
O242 C220 1.240 . S
O243 Mn217 2.117 . S
O243 C220 1.264 . S
C244 C237 1.403 . S
C244 C245 1.399 . S
C244 H250 0.929 . S
C245 C225 1.449 . S
C245 C244 1.399 . S
C245 H251 0.930 . S
H246 C226 0.931 . S
H247 C227 0.930 . S
H248 C235 0.931 . S
H249 C236 0.929 . S
H250 C244 0.929 . S
H251 C245 0.930 . S
Mn252 O257 2.095 . S
Mn252 O267 2.162 1_565 S
Mn252 O268 2.297 1_565 S
Mn252 O276 2.385 . S
Mn252 O277 2.209 . S
Mn252 O278 2.094 . S
Mn253 O258 2.121 . S
Mn253 N260 2.257 . S
Mn253 N269 2.282 . S
Mn253 O277 2.215 . S
Mn253 O279 2.117 . S
C254 O276 1.234 . S
C254 O277 1.283 . S
C255 O267 1.281 . S
C255 O268 1.236 . S
C256 O278 1.240 . S
C256 O279 1.264 . S
O257 Mn252 2.095 . S
O257 C266 1.250 . S
O258 Mn253 2.121 . S
O258 C266 1.258 . S
C259 N260 1.326 . S
C259 C263 1.460 . S
C259 H265 0.929 . S
N260 Mn253 2.257 . S
N260 C259 1.326 . S
N260 C264 1.362 . S
C261 C262 1.258 . S
C261 C264 1.431 . S
C261 C281 1.449 . S
C262 C261 1.258 . S
C262 C263 1.477 . S
C262 H282 0.931 . S
C263 C259 1.460 . S
C263 C262 1.477 . S
C263 H283 0.930 . S
C264 N260 1.362 . S
C264 C261 1.431 . S
C264 C274 1.476 . S
H265 C259 0.929 . S
C266 O257 1.250 . S
C266 O258 1.258 . S
O267 Mn252 2.162 1_545 S
O267 C255 1.281 . S
O268 Mn252 2.297 1_545 S
O268 C255 1.236 . S
N269 Mn253 2.282 . S
N269 C270 1.328 . S
N269 C274 1.318 . S
C270 N269 1.328 . S
C270 C271 1.457 . S
C270 H275 0.929 . S
C271 C270 1.457 . S
C271 C272 1.291 . S
C271 H284 0.931 . S
C272 C271 1.291 . S
C272 C273 1.373 . S
C272 H285 0.929 . S
C273 C272 1.373 . S
C273 C274 1.396 . S
C273 C280 1.403 . S
C274 C264 1.476 . S
C274 N269 1.318 . S
C274 C273 1.396 . S
H275 C270 0.929 . S
O276 Mn252 2.385 . S
O276 C254 1.234 . S
O277 Mn252 2.209 . S
O277 Mn253 2.215 . S
O277 C254 1.283 . S
O278 Mn252 2.094 . S
O278 C256 1.240 . S
O279 Mn253 2.117 . S
O279 C256 1.264 . S
C280 C273 1.403 . S
C280 C281 1.399 . S
C280 H286 0.929 . S
C281 C261 1.449 . S
C281 C280 1.399 . S
C281 H287 0.930 . S
H282 C262 0.931 . S
H283 C263 0.930 . S
H284 C271 0.931 . S
H285 C272 0.929 . S
H286 C280 0.929 . S
H287 C281 0.930 . S
Mn288 O293 2.095 . S
Mn288 O303 2.162 1_455 S
Mn288 O304 2.297 1_455 S
Mn288 O312 2.385 . S
Mn288 O313 2.209 . S
Mn288 O314 2.094 . S
Mn289 O294 2.121 . S
Mn289 N296 2.257 . S
Mn289 N305 2.282 . S
Mn289 O313 2.215 . S
Mn289 O315 2.117 . S
C290 O312 1.234 . S
C290 O313 1.283 . S
C291 O303 1.281 . S
C291 O304 1.236 . S
C292 O314 1.240 . S
C292 O315 1.264 . S
O293 Mn288 2.095 . S
O293 C302 1.250 . S
O294 Mn289 2.121 . S
O294 C302 1.258 . S
C295 N296 1.326 . S
C295 C299 1.460 . S
C295 H301 0.929 . S
N296 Mn289 2.257 . S
N296 C295 1.326 . S
N296 C300 1.362 . S
C297 C298 1.258 . S
C297 C300 1.431 . S
C297 C317 1.449 . S
C298 C297 1.258 . S
C298 C299 1.477 . S
C298 H318 0.931 . S
C299 C295 1.460 . S
C299 C298 1.477 . S
C299 H319 0.930 . S
C300 N296 1.362 . S
C300 C297 1.431 . S
C300 C310 1.476 . S
H301 C295 0.929 . S
C302 O293 1.250 . S
C302 O294 1.258 . S
O303 Mn288 2.162 1_655 S
O303 C291 1.281 . S
O304 Mn288 2.297 1_655 S
O304 C291 1.236 . S
N305 Mn289 2.282 . S
N305 C306 1.328 . S
N305 C310 1.318 . S
C306 N305 1.328 . S
C306 C307 1.457 . S
C306 H311 0.929 . S
C307 C306 1.457 . S
C307 C308 1.291 . S
C307 H320 0.931 . S
C308 C307 1.291 . S
C308 C309 1.373 . S
C308 H321 0.929 . S
C309 C308 1.373 . S
C309 C310 1.396 . S
C309 C316 1.403 . S
C310 C300 1.476 . S
C310 N305 1.318 . S
C310 C309 1.396 . S
H311 C306 0.929 . S
O312 Mn288 2.385 . S
O312 C290 1.234 . S
O313 Mn288 2.209 . S
O313 Mn289 2.215 . S
O313 C290 1.283 . S
O314 Mn288 2.094 . S
O314 C292 1.240 . S
O315 Mn289 2.117 . S
O315 C292 1.264 . S
C316 C309 1.403 . S
C316 C317 1.399 . S
C316 H322 0.929 . S
C317 C297 1.449 . S
C317 C316 1.399 . S
C317 H323 0.930 . S
H318 C298 0.931 . S
H319 C299 0.930 . S
H320 C307 0.931 . S
H321 C308 0.929 . S
H322 C316 0.929 . S
H323 C317 0.930 . S
Mn324 O329 2.095 . S
Mn324 O339 2.162 . S
Mn324 O340 2.297 . S
Mn324 O348 2.385 . S
Mn324 O349 2.209 . S
Mn324 O350 2.094 . S
Mn325 O330 2.121 1_565 S
Mn325 N332 2.257 . S
Mn325 N341 2.282 . S
Mn325 O349 2.215 . S
Mn325 O351 2.117 . S
C326 O348 1.234 . S
C326 O349 1.283 . S
C327 O339 1.281 . S
C327 O340 1.236 . S
C328 O350 1.240 . S
C328 O351 1.264 . S
O329 Mn324 2.095 . S
O329 C338 1.250 1_565 S
O330 Mn325 2.121 1_545 S
O330 C338 1.258 . S
C331 N332 1.326 1_545 S
C331 C335 1.460 . S
C331 H337 0.929 . S
N332 Mn325 2.257 . S
N332 C331 1.326 1_565 S
N332 C336 1.362 . S
C333 C334 1.258 . S
C333 C336 1.431 . S
C333 C353 1.449 . S
C334 C333 1.258 . S
C334 C335 1.477 1_565 S
C334 H354 0.931 . S
C335 C331 1.460 . S
C335 C334 1.477 1_545 S
C335 H355 0.930 . S
C336 N332 1.362 . S
C336 C333 1.431 . S
C336 C346 1.476 . S
H337 C331 0.929 . S
C338 O329 1.250 1_545 S
C338 O330 1.258 . S
O339 Mn324 2.162 . S
O339 C327 1.281 . S
O340 Mn324 2.297 . S
O340 C327 1.236 . S
N341 Mn325 2.282 . S
N341 C342 1.328 . S
N341 C346 1.318 . S
C342 N341 1.328 . S
C342 C343 1.457 . S
C342 H347 0.929 . S
C343 C342 1.457 . S
C343 C344 1.291 . S
C343 H356 0.931 . S
C344 C343 1.291 . S
C344 C345 1.373 . S
C344 H357 0.929 . S
C345 C344 1.373 . S
C345 C346 1.396 . S
C345 C352 1.403 . S
C346 C336 1.476 . S
C346 N341 1.318 . S
C346 C345 1.396 . S
H347 C342 0.929 . S
O348 Mn324 2.385 . S
O348 C326 1.234 . S
O349 Mn324 2.209 . S
O349 Mn325 2.215 . S
O349 C326 1.283 . S
O350 Mn324 2.094 . S
O350 C328 1.240 . S
O351 Mn325 2.117 . S
O351 C328 1.264 . S
C352 C345 1.403 . S
C352 C353 1.399 . S
C352 H358 0.929 . S
C353 C333 1.449 . S
C353 C352 1.399 . S
C353 H359 0.930 . S
H354 C334 0.931 . S
H355 C335 0.930 . S
H356 C343 0.931 . S
H357 C344 0.929 . S
H358 C352 0.929 . S
H359 C353 0.930 . S
Mn360 O365 2.095 . S
Mn360 O375 2.162 1_455 S
Mn360 O376 2.283 1_455 S
Mn360 O384 2.385 . S
Mn360 O385 2.209 . S
Mn360 O386 2.094 . S
Mn361 O366 2.121 . S
Mn361 N368 2.257 . S
Mn361 N377 2.282 . S
Mn361 O385 2.215 . S
Mn361 O387 2.117 . S
C362 O384 1.234 . S
C362 O385 1.283 . S
C363 O375 1.281 . S
C363 O376 1.263 . S
C364 O386 1.240 . S
C364 O387 1.264 . S
O365 Mn360 2.095 . S
O365 C374 1.250 . S
O366 Mn361 2.121 . S
O366 C374 1.258 . S
C367 N368 1.326 . S
C367 C371 1.460 . S
C367 H373 0.929 . S
N368 Mn361 2.257 . S
N368 C367 1.326 . S
N368 C372 1.362 . S
C369 C370 1.258 . S
C369 C372 1.431 . S
C369 C389 1.449 . S
C370 C369 1.258 . S
C370 C371 1.477 . S
C370 H390 0.931 . S
C371 C367 1.460 . S
C371 C370 1.477 . S
C371 H391 0.930 . S
C372 N368 1.362 . S
C372 C369 1.431 . S
C372 C382 1.476 . S
H373 C367 0.929 . S
C374 O365 1.250 . S
C374 O366 1.258 . S
O375 Mn360 2.162 1_655 S
O375 C363 1.281 . S
O376 Mn360 2.283 1_655 S
O376 C363 1.263 . S
N377 Mn361 2.282 . S
N377 C378 1.328 . S
N377 C382 1.318 . S
C378 N377 1.328 . S
C378 C379 1.457 . S
C378 H383 0.929 . S
C379 C378 1.457 . S
C379 C380 1.291 . S
C379 H392 0.931 . S
C380 C379 1.291 . S
C380 C381 1.373 . S
C380 H393 0.929 . S
C381 C380 1.373 . S
C381 C382 1.396 . S
C381 C388 1.403 . S
C382 C372 1.476 . S
C382 N377 1.318 . S
C382 C381 1.396 . S
H383 C378 0.929 . S
O384 Mn360 2.385 . S
O384 C362 1.234 . S
O385 Mn360 2.209 . S
O385 Mn361 2.215 . S
O385 C362 1.283 . S
O386 Mn360 2.094 . S
O386 C364 1.240 . S
O387 Mn361 2.117 . S
O387 C364 1.264 . S
C388 C381 1.403 . S
C388 C389 1.399 . S
C388 H394 0.929 . S
C389 C369 1.449 . S
C389 C388 1.399 . S
C389 H395 0.930 . S
H390 C370 0.931 . S
H391 C371 0.930 . S
H392 C379 0.931 . S
H393 C380 0.929 . S
H394 C388 0.929 . S
H395 C389 0.930 . S
Mn396 O401 2.095 . S
Mn396 O411 2.162 . S
Mn396 O412 2.297 . S
Mn396 O420 2.385 . S
Mn396 O421 2.209 . S
Mn396 O422 2.094 . S
Mn397 O402 2.121 . S
Mn397 N404 2.257 . S
Mn397 N413 2.282 . S
Mn397 O421 2.215 . S
Mn397 O423 2.117 . S
C398 O420 1.234 . S
C398 O421 1.283 . S
C399 O411 1.281 . S
C399 O412 1.236 . S
C400 O422 1.240 . S
C400 O423 1.264 . S
O401 Mn396 2.095 . S
O401 C410 1.250 . S
O402 Mn397 2.121 . S
O402 C410 1.258 . S
C403 N404 1.326 . S
C403 C407 1.460 . S
C403 H409 0.929 . S
N404 Mn397 2.257 . S
N404 C403 1.326 . S
N404 C408 1.362 . S
C405 C406 1.258 . S
C405 C408 1.431 . S
C405 C425 1.449 . S
C406 C405 1.258 . S
C406 C407 1.477 . S
C406 H426 0.931 . S
C407 C403 1.460 . S
C407 C406 1.477 . S
C407 H427 0.930 . S
C408 N404 1.362 . S
C408 C405 1.431 . S
C408 C418 1.476 . S
H409 C403 0.929 . S
C410 O401 1.250 . S
C410 O402 1.258 . S
O411 Mn396 2.162 . S
O411 C399 1.281 . S
O412 Mn396 2.297 . S
O412 C399 1.236 . S
N413 Mn397 2.282 . S
N413 C414 1.328 . S
N413 C418 1.318 . S
C414 N413 1.328 . S
C414 C415 1.457 . S
C414 H419 0.929 . S
C415 C414 1.457 . S
C415 C416 1.291 . S
C415 H428 0.931 . S
C416 C415 1.291 . S
C416 C417 1.373 . S
C416 H429 0.929 . S
C417 C416 1.373 . S
C417 C418 1.396 . S
C417 C424 1.403 . S
C418 C408 1.476 . S
C418 N413 1.318 . S
C418 C417 1.396 . S
H419 C414 0.929 . S
O420 Mn396 2.385 . S
O420 C398 1.234 . S
O421 Mn396 2.209 . S
O421 Mn397 2.215 . S
O421 C398 1.283 . S
O422 Mn396 2.094 . S
O422 C400 1.240 . S
O423 Mn397 2.117 . S
O423 C400 1.264 . S
C424 C417 1.403 . S
C424 C425 1.399 . S
C424 H430 0.929 . S
C425 C405 1.449 . S
C425 C424 1.399 . S
C425 H431 0.930 . S
H426 C406 0.931 . S
H427 C407 0.930 . S
H428 C415 0.931 . S
H429 C416 0.929 . S
H430 C424 0.929 . S
H431 C425 0.930 . S
Mn432 O437 2.095 . S
Mn432 O447 2.162 1_545 S
Mn432 O448 2.297 1_545 S
Mn432 O456 2.385 . S
Mn432 O457 2.209 . S
Mn432 O458 2.094 . S
Mn433 O438 2.121 . S
Mn433 N440 2.257 . S
Mn433 N449 2.282 . S
Mn433 O457 2.215 . S
Mn433 O459 2.117 . S
C434 O456 1.234 . S
C434 O457 1.283 . S
C435 O447 1.281 . S
C435 O448 1.236 . S
C436 O458 1.240 . S
C436 O459 1.264 . S
O437 Mn432 2.095 . S
O437 C446 1.250 . S
O438 Mn433 2.121 . S
O438 C446 1.258 . S
C439 N440 1.326 . S
C439 C443 1.460 . S
C439 H445 0.929 . S
N440 Mn433 2.257 . S
N440 C439 1.326 . S
N440 C444 1.362 . S
C441 C442 1.258 . S
C441 C444 1.431 . S
C441 C461 1.449 . S
C442 C441 1.258 . S
C442 C443 1.477 . S
C442 H462 0.931 . S
C443 C439 1.460 . S
C443 C442 1.477 . S
C443 H463 0.930 . S
C444 N440 1.362 . S
C444 C441 1.431 . S
C444 C454 1.476 . S
H445 C439 0.929 . S
C446 O437 1.250 . S
C446 O438 1.258 . S
O447 Mn432 2.162 1_565 S
O447 C435 1.281 . S
O448 Mn432 2.297 1_565 S
O448 C435 1.236 . S
N449 Mn433 2.282 . S
N449 C450 1.328 . S
N449 C454 1.318 . S
C450 N449 1.328 . S
C450 C451 1.457 . S
C450 H455 0.929 . S
C451 C450 1.457 . S
C451 C452 1.291 . S
C451 H464 0.931 . S
C452 C451 1.291 . S
C452 C453 1.373 . S
C452 H465 0.929 . S
C453 C452 1.373 . S
C453 C454 1.396 . S
C453 C460 1.403 . S
C454 C444 1.476 . S
C454 N449 1.318 . S
C454 C453 1.396 . S
H455 C450 0.929 . S
O456 Mn432 2.385 . S
O456 C434 1.234 . S
O457 Mn432 2.209 . S
O457 Mn433 2.215 . S
O457 C434 1.283 . S
O458 Mn432 2.094 . S
O458 C436 1.240 . S
O459 Mn433 2.117 . S
O459 C436 1.264 . S
C460 C453 1.403 . S
C460 C461 1.399 . S
C460 H466 0.929 . S
C461 C441 1.449 . S
C461 C460 1.399 . S
C461 H467 0.930 . S
H462 C442 0.931 . S
H463 C443 0.930 . S
H464 C451 0.931 . S
H465 C452 0.929 . S
H466 C460 0.929 . S
H467 C461 0.930 . S
Mn468 O473 2.095 . S
Mn468 O483 2.162 . S
Mn468 O484 2.297 . S
Mn468 O492 2.385 . S
Mn468 O493 2.209 . S
Mn468 O494 2.094 . S
Mn469 O474 2.074 1_655 S
Mn469 N476 2.257 . S
Mn469 N485 2.282 . S
Mn469 O493 2.215 . S
Mn469 O495 2.117 . S
C470 O492 1.234 . S
C470 O493 1.283 . S
C471 O483 1.281 . S
C471 O484 1.236 . S
C472 O494 1.240 . S
C472 O495 1.264 . S
O473 Mn468 2.095 . S
O473 C482 1.250 1_655 S
O474 Mn469 2.074 1_455 S
O474 C482 1.242 . S
C475 N476 1.326 1_455 S
C475 C479 1.460 . S
C475 H481 0.929 . S
N476 Mn469 2.257 . S
N476 C475 1.326 1_655 S
N476 C480 1.362 . S
C477 C478 1.258 . S
C477 C480 1.431 . S
C477 C497 1.449 . S
C478 C477 1.258 . S
C478 C479 1.477 1_655 S
C478 H498 0.931 . S
C479 C475 1.460 . S
C479 C478 1.477 1_455 S
C479 H499 0.930 . S
C480 N476 1.362 . S
C480 C477 1.431 . S
C480 C490 1.476 . S
H481 C475 0.929 . S
C482 O473 1.250 1_455 S
C482 O474 1.242 . S
O483 Mn468 2.162 . S
O483 C471 1.281 . S
O484 Mn468 2.297 . S
O484 C471 1.236 . S
N485 Mn469 2.282 . S
N485 C486 1.328 . S
N485 C490 1.318 . S
C486 N485 1.328 . S
C486 C487 1.457 . S
C486 H491 0.929 . S
C487 C486 1.457 . S
C487 C488 1.291 . S
C487 H500 0.931 . S
C488 C487 1.291 . S
C488 C489 1.373 . S
C488 H501 0.929 . S
C489 C488 1.373 . S
C489 C490 1.396 . S
C489 C496 1.403 . S
C490 C480 1.476 . S
C490 N485 1.318 . S
C490 C489 1.396 . S
H491 C486 0.929 . S
O492 Mn468 2.385 . S
O492 C470 1.234 . S
O493 Mn468 2.209 . S
O493 Mn469 2.215 . S
O493 C470 1.283 . S
O494 Mn468 2.094 . S
O494 C472 1.240 . S
O495 Mn469 2.117 . S
O495 C472 1.264 . S
C496 C489 1.403 . S
C496 C497 1.399 . S
C496 H502 0.929 . S
C497 C477 1.449 . S
C497 C496 1.399 . S
C497 H503 0.930 . S
H498 C478 0.931 . S
H499 C479 0.930 . S
H500 C487 0.931 . S
H501 C488 0.929 . S
H502 C496 0.929 . S
H503 C497 0.930 . S
Mn504 O509 2.095 . S
Mn504 O519 2.162 . S
Mn504 O520 2.297 . S
Mn504 O528 2.385 . S
Mn504 O529 2.209 . S
Mn504 O530 2.094 . S
Mn505 O510 2.121 . S
Mn505 N512 2.257 . S
Mn505 N521 2.282 . S
Mn505 O529 2.215 . S
Mn505 O531 2.117 . S
C506 O528 1.234 . S
C506 O529 1.283 . S
C507 O519 1.281 . S
C507 O520 1.236 . S
C508 O530 1.240 . S
C508 O531 1.264 . S
O509 Mn504 2.095 . S
O509 C518 1.250 . S
O510 Mn505 2.121 . S
O510 C518 1.258 . S
C511 N512 1.326 . S
C511 C515 1.460 . S
C511 H517 0.929 . S
N512 Mn505 2.257 . S
N512 C511 1.326 . S
N512 C516 1.362 . S
C513 C514 1.258 . S
C513 C516 1.431 . S
C513 C533 1.449 . S
C514 C513 1.258 . S
C514 C515 1.477 . S
C514 H534 0.931 . S
C515 C511 1.460 . S
C515 C514 1.477 . S
C515 H535 0.930 . S
C516 N512 1.362 . S
C516 C513 1.431 . S
C516 C526 1.476 . S
H517 C511 0.929 . S
C518 O509 1.250 . S
C518 O510 1.258 . S
O519 Mn504 2.162 . S
O519 C507 1.281 . S
O520 Mn504 2.297 . S
O520 C507 1.236 . S
N521 Mn505 2.282 . S
N521 C522 1.328 . S
N521 C526 1.318 . S
C522 N521 1.328 . S
C522 C523 1.457 . S
C522 H527 0.929 . S
C523 C522 1.457 . S
C523 C524 1.291 . S
C523 H536 0.931 . S
C524 C523 1.291 . S
C524 C525 1.373 . S
C524 H537 0.929 . S
C525 C524 1.373 . S
C525 C526 1.396 . S
C525 C532 1.403 . S
C526 C516 1.476 . S
C526 N521 1.318 . S
C526 C525 1.396 . S
H527 C522 0.929 . S
O528 Mn504 2.385 . S
O528 C506 1.234 . S
O529 Mn504 2.209 . S
O529 Mn505 2.215 . S
O529 C506 1.283 . S
O530 Mn504 2.094 . S
O530 C508 1.240 . S
O531 Mn505 2.117 . S
O531 C508 1.264 . S
C532 C525 1.403 . S
C532 C533 1.399 . S
C532 H538 0.929 . S
C533 C513 1.449 . S
C533 C532 1.399 . S
C533 H539 0.930 . S
H534 C514 0.931 . S
H535 C515 0.930 . S
H536 C523 0.931 . S
H537 C524 0.929 . S
H538 C532 0.929 . S
H539 C533 0.930 . S
Mn540 O545 2.095 . S
Mn540 O555 2.162 . S
Mn540 O556 2.297 . S
Mn540 O564 2.385 . S
Mn540 O565 2.209 . S
Mn540 O566 2.094 . S
Mn541 O546 2.121 . S
Mn541 N548 2.257 . S
Mn541 N557 2.282 . S
Mn541 O565 2.215 . S
Mn541 O567 2.117 . S
C542 O564 1.234 . S
C542 O565 1.283 . S
C543 O555 1.281 . S
C543 O556 1.236 . S
C544 O566 1.240 . S
C544 O567 1.264 . S
O545 Mn540 2.095 . S
O545 C554 1.250 . S
O546 Mn541 2.121 . S
O546 C554 1.258 . S
C547 N548 1.326 . S
C547 C551 1.460 . S
C547 H553 0.929 . S
N548 Mn541 2.257 . S
N548 C547 1.326 . S
N548 C552 1.362 . S
C549 C550 1.258 . S
C549 C552 1.431 . S
C549 C569 1.449 . S
C550 C549 1.258 . S
C550 C551 1.477 . S
C550 H570 0.931 . S
C551 C547 1.460 . S
C551 C550 1.477 . S
C551 H571 0.930 . S
C552 N548 1.362 . S
C552 C549 1.431 . S
C552 C562 1.476 . S
H553 C547 0.929 . S
C554 O545 1.250 . S
C554 O546 1.258 . S
O555 Mn540 2.162 . S
O555 C543 1.281 . S
O556 Mn540 2.297 . S
O556 C543 1.236 . S
N557 Mn541 2.282 . S
N557 C558 1.328 . S
N557 C562 1.318 . S
C558 N557 1.328 . S
C558 C559 1.457 . S
C558 H563 0.929 . S
C559 C558 1.457 . S
C559 C560 1.291 . S
C559 H572 0.931 . S
C560 C559 1.291 . S
C560 C561 1.373 . S
C560 H573 0.929 . S
C561 C560 1.373 . S
C561 C562 1.396 . S
C561 C568 1.403 . S
C562 C552 1.476 . S
C562 N557 1.318 . S
C562 C561 1.396 . S
H563 C558 0.929 . S
O564 Mn540 2.385 . S
O564 C542 1.234 . S
O565 Mn540 2.209 . S
O565 Mn541 2.215 . S
O565 C542 1.283 . S
O566 Mn540 2.094 . S
O566 C544 1.240 . S
O567 Mn541 2.117 . S
O567 C544 1.264 . S
C568 C561 1.403 . S
C568 C569 1.399 . S
C568 H574 0.929 . S
C569 C549 1.449 . S
C569 C568 1.399 . S
C569 H575 0.930 . S
H570 C550 0.931 . S
H571 C551 0.930 . S
H572 C559 0.931 . S
H573 C560 0.929 . S
H574 C568 0.929 . S
H575 C569 0.930 . S
Mn576 O581 2.095 . S
Mn576 O591 2.162 . S
Mn576 O592 2.297 . S
Mn576 O600 2.385 . S
Mn576 O601 2.209 . S
Mn576 O602 2.094 . S
Mn577 O582 2.121 1_545 S
Mn577 N584 2.257 . S
Mn577 N593 2.282 . S
Mn577 O601 2.215 . S
Mn577 O603 2.117 . S
C578 O600 1.234 . S
C578 O601 1.283 . S
C579 O591 1.281 . S
C579 O592 1.236 . S
C580 O602 1.240 . S
C580 O603 1.264 . S
O581 Mn576 2.095 . S
O581 C590 1.250 1_545 S
O582 Mn577 2.121 1_565 S
O582 C590 1.258 . S
C583 N584 1.326 1_565 S
C583 C587 1.460 . S
C583 H589 0.929 . S
N584 Mn577 2.257 . S
N584 C583 1.326 1_545 S
N584 C588 1.362 . S
C585 C586 1.258 . S
C585 C588 1.431 . S
C585 C605 1.449 . S
C586 C585 1.258 . S
C586 C587 1.477 1_545 S
C586 H606 0.931 . S
C587 C583 1.460 . S
C587 C586 1.477 1_565 S
C587 H607 0.930 . S
C588 N584 1.362 . S
C588 C585 1.431 . S
C588 C598 1.476 . S
H589 C583 0.929 . S
C590 O581 1.250 1_565 S
C590 O582 1.258 . S
O591 Mn576 2.162 . S
O591 C579 1.281 . S
O592 Mn576 2.297 . S
O592 C579 1.236 . S
N593 Mn577 2.282 . S
N593 C594 1.328 . S
N593 C598 1.318 . S
C594 N593 1.328 . S
C594 C595 1.457 . S
C594 H599 0.929 . S
C595 C594 1.457 . S
C595 C596 1.291 . S
C595 H608 0.931 . S
C596 C595 1.291 . S
C596 C597 1.373 . S
C596 H609 0.929 . S
C597 C596 1.373 . S
C597 C598 1.396 . S
C597 C604 1.403 . S
C598 C588 1.476 . S
C598 N593 1.318 . S
C598 C597 1.396 . S
H599 C594 0.929 . S
O600 Mn576 2.385 . S
O600 C578 1.234 . S
O601 Mn576 2.209 . S
O601 Mn577 2.215 . S
O601 C578 1.283 . S
O602 Mn576 2.094 . S
O602 C580 1.240 . S
O603 Mn577 2.117 . S
O603 C580 1.264 . S
C604 C597 1.403 . S
C604 C605 1.399 . S
C604 H610 0.929 . S
C605 C585 1.449 . S
C605 C604 1.399 . S
C605 H611 0.930 . S
H606 C586 0.931 . S
H607 C587 0.930 . S
H608 C595 0.931 . S
H609 C596 0.929 . S
H610 C604 0.929 . S
H611 C605 0.930 . S
Mn612 O617 2.095 . S
Mn612 O627 2.162 1_655 S
Mn612 O628 2.297 1_655 S
Mn612 O636 2.385 . S
Mn612 O637 2.209 . S
Mn612 O638 2.094 . S
Mn613 O618 2.121 . S
Mn613 N620 2.257 . S
Mn613 N629 2.282 . S
Mn613 O637 2.215 . S
Mn613 O639 2.117 . S
C614 O636 1.234 . S
C614 O637 1.283 . S
C615 O627 1.281 . S
C615 O628 1.236 . S
C616 O638 1.240 . S
C616 O639 1.264 . S
O617 Mn612 2.095 . S
O617 C626 1.250 . S
O618 Mn613 2.121 . S
O618 C626 1.258 . S
C619 N620 1.326 . S
C619 C623 1.460 . S
C619 H625 0.929 . S
N620 Mn613 2.257 . S
N620 C619 1.326 . S
N620 C624 1.362 . S
C621 C622 1.258 . S
C621 C624 1.431 . S
C621 C641 1.449 . S
C622 C621 1.258 . S
C622 C623 1.477 . S
C622 H642 0.931 . S
C623 C619 1.460 . S
C623 C622 1.477 . S
C623 H643 0.930 . S
C624 N620 1.362 . S
C624 C621 1.431 . S
C624 C634 1.476 . S
H625 C619 0.929 . S
C626 O617 1.250 . S
C626 O618 1.258 . S
O627 Mn612 2.162 1_455 S
O627 C615 1.281 . S
O628 Mn612 2.297 1_455 S
O628 C615 1.236 . S
N629 Mn613 2.282 . S
N629 C630 1.328 . S
N629 C634 1.318 . S
C630 N629 1.328 . S
C630 C631 1.457 . S
C630 H635 0.929 . S
C631 C630 1.457 . S
C631 C632 1.291 . S
C631 H644 0.931 . S
C632 C631 1.291 . S
C632 C633 1.373 . S
C632 H645 0.929 . S
C633 C632 1.373 . S
C633 C634 1.396 . S
C633 C640 1.403 . S
C634 C624 1.476 . S
C634 N629 1.318 . S
C634 C633 1.396 . S
H635 C630 0.929 . S
O636 Mn612 2.385 . S
O636 C614 1.234 . S
O637 Mn612 2.209 . S
O637 Mn613 2.215 . S
O637 C614 1.283 . S
O638 Mn612 2.094 . S
O638 C616 1.240 . S
O639 Mn613 2.117 . S
O639 C616 1.264 . S
C640 C633 1.403 . S
C640 C641 1.399 . S
C640 H646 0.929 . S
C641 C621 1.449 . S
C641 C640 1.399 . S
C641 H647 0.930 . S
H642 C622 0.931 . S
H643 C623 0.930 . S
H644 C631 0.931 . S
H645 C632 0.929 . S
H646 C640 0.929 . S
H647 C641 0.930 . S
H648 C656 0.930 . S
H649 C659 0.930 . S
H650 C661 0.930 . S
H651 C662 0.970 . S
H652 C662 0.970 . S
H653 C664 0.930 . S
H654 C666 0.930 . S
H655 C668 0.930 . S
C656 H648 0.930 . S
C656 C657 1.382 . S
C656 C658 1.426 . S
C657 C656 1.382 . S
C657 C661 1.389 . S
C658 C656 1.426 . S
C658 C659 1.375 . S
C658 C662 1.532 . S
C659 H649 0.930 . S
C659 C658 1.375 . S
C659 C660 1.416 . S
C660 C659 1.416 . S
C660 C661 1.371 . S
C661 H650 0.930 . S
C661 C657 1.389 . S
C661 C660 1.371 . S
C662 H651 0.970 . S
C662 H652 0.970 . S
C662 C658 1.532 . S
C662 C663 1.499 . S
C663 C662 1.499 . S
C663 C664 1.370 . S
C663 C668 1.415 . S
C664 H653 0.930 . S
C664 C663 1.370 . S
C664 C665 1.407 . S
C665 C664 1.407 . S
C665 C666 1.365 . S
C666 H654 0.930 . S
C666 C665 1.365 . S
C666 C667 1.393 . S
C667 C666 1.393 . S
C667 C668 1.387 . S
C668 H655 0.930 . S
C668 C663 1.415 . S
C668 C667 1.387 . S
H669 C677 0.930 . S
H670 C680 0.930 . S
H671 C682 0.930 . S
H672 C683 0.970 . S
H673 C683 0.970 . S
H674 C685 0.930 . S
H675 C687 0.930 . S
H676 C689 0.930 . S
C677 H669 0.930 . S
C677 C678 1.382 . S
C677 C679 1.426 . S
C678 C677 1.382 . S
C678 C682 1.389 . S
C679 C677 1.426 . S
C679 C680 1.375 . S
C679 C683 1.532 . S
C680 H670 0.930 . S
C680 C679 1.375 . S
C680 C681 1.416 . S
C681 C680 1.416 . S
C681 C682 1.371 . S
C682 H671 0.930 . S
C682 C678 1.389 . S
C682 C681 1.371 . S
C683 H672 0.970 . S
C683 H673 0.970 . S
C683 C679 1.532 . S
C683 C684 1.499 . S
C684 C683 1.499 . S
C684 C685 1.370 . S
C684 C689 1.415 . S
C685 H674 0.930 . S
C685 C684 1.370 . S
C685 C686 1.407 . S
C686 C685 1.407 . S
C686 C687 1.365 . S
C687 H675 0.930 . S
C687 C686 1.365 . S
C687 C688 1.393 . S
C688 C687 1.393 . S
C688 C689 1.387 . S
C689 H676 0.930 . S
C689 C684 1.415 . S
C689 C688 1.387 . S
H690 C698 0.930 . S
H691 C701 0.930 . S
H692 C703 0.930 . S
H693 C704 0.970 . S
H694 C704 0.970 . S
H695 C706 0.930 . S
H696 C708 0.930 . S
H697 C710 0.930 . S
C698 H690 0.930 . S
C698 C699 1.382 . S
C698 C700 1.426 . S
C699 C698 1.382 . S
C699 C703 1.389 . S
C700 C698 1.426 . S
C700 C701 1.375 . S
C700 C704 1.532 . S
C701 H691 0.930 . S
C701 C700 1.375 . S
C701 C702 1.416 . S
C702 C701 1.416 . S
C702 C703 1.371 . S
C703 H692 0.930 . S
C703 C699 1.389 . S
C703 C702 1.371 . S
C704 H693 0.970 . S
C704 H694 0.970 . S
C704 C700 1.532 . S
C704 C705 1.499 . S
C705 C704 1.499 . S
C705 C706 1.370 . S
C705 C710 1.415 . S
C706 H695 0.930 . S
C706 C705 1.370 . S
C706 C707 1.407 . S
C707 C706 1.407 . S
C707 C708 1.365 . S
C708 H696 0.930 . S
C708 C707 1.365 . S
C708 C709 1.393 . S
C709 C708 1.393 . S
C709 C710 1.387 . S
C710 H697 0.930 . S
C710 C705 1.415 . S
C710 C709 1.387 . S
H711 C719 0.930 . S
H712 C722 0.930 . S
H713 C724 0.930 . S
H714 C725 0.970 . S
H715 C725 0.970 . S
H716 C727 0.930 . S
H717 C729 0.930 . S
H718 C731 0.930 . S
C719 H711 0.930 . S
C719 C720 1.382 . S
C719 C721 1.426 . S
C720 C719 1.382 . S
C720 C724 1.389 . S
C721 C719 1.426 . S
C721 C722 1.375 . S
C721 C725 1.532 . S
C722 H712 0.930 . S
C722 C721 1.375 . S
C722 C723 1.416 . S
C723 C722 1.416 . S
C723 C724 1.371 . S
C724 H713 0.930 . S
C724 C720 1.389 . S
C724 C723 1.371 . S
C725 H714 0.970 . S
C725 H715 0.970 . S
C725 C721 1.532 . S
C725 C726 1.499 . S
C726 C725 1.499 . S
C726 C727 1.370 . S
C726 C731 1.415 . S
C727 H716 0.930 . S
C727 C726 1.370 . S
C727 C728 1.407 . S
C728 C727 1.407 . S
C728 C729 1.365 . S
C729 H717 0.930 . S
C729 C728 1.365 . S
C729 C730 1.393 . S
C730 C729 1.393 . S
C730 C731 1.387 . S
C731 H718 0.930 . S
C731 C726 1.415 . S
C731 C730 1.387 . S
H732 C740 0.930 . S
H733 C743 0.930 . S
H734 C745 0.930 . S
H735 C746 0.970 . S
H736 C746 0.970 . S
H737 C748 0.930 . S
H738 C750 0.930 . S
H739 C752 0.930 . S
C740 H732 0.930 . S
C740 C741 1.382 . S
C740 C742 1.426 . S
C741 C740 1.382 . S
C741 C745 1.389 . S
C742 C740 1.426 . S
C742 C743 1.375 . S
C742 C746 1.532 . S
C743 H733 0.930 . S
C743 C742 1.375 . S
C743 C744 1.416 . S
C744 C743 1.416 . S
C744 C745 1.371 . S
C745 H734 0.930 . S
C745 C741 1.389 . S
C745 C744 1.371 . S
C746 H735 0.970 . S
C746 H736 0.970 . S
C746 C742 1.532 . S
C746 C747 1.499 . S
C747 C746 1.499 . S
C747 C748 1.370 . S
C747 C752 1.415 . S
C748 H737 0.930 . S
C748 C747 1.370 . S
C748 C749 1.407 . S
C749 C748 1.407 . S
C749 C750 1.365 . S
C750 H738 0.930 . S
C750 C749 1.365 . S
C750 C751 1.393 . S
C751 C750 1.393 . S
C751 C752 1.387 . S
C752 H739 0.930 . S
C752 C747 1.415 . S
C752 C751 1.387 . S
H753 C761 0.930 . S
H754 C764 0.930 . S
H755 C766 0.930 . S
H756 C767 0.970 . S
H757 C767 0.970 . S
H758 C769 0.930 . S
H759 C771 0.930 . S
H760 C773 0.930 . S
C761 H753 0.930 . S
C761 C762 1.382 . S
C761 C763 1.426 . S
C762 C761 1.382 . S
C762 C766 1.389 . S
C763 C761 1.426 . S
C763 C764 1.375 . S
C763 C767 1.532 . S
C764 H754 0.930 . S
C764 C763 1.375 . S
C764 C765 1.416 . S
C765 C764 1.416 . S
C765 C766 1.371 . S
C766 H755 0.930 . S
C766 C762 1.389 . S
C766 C765 1.371 . S
C767 H756 0.970 . S
C767 H757 0.970 . S
C767 C763 1.532 . S
C767 C768 1.499 . S
C768 C767 1.499 . S
C768 C769 1.370 . S
C768 C773 1.415 . S
C769 H758 0.930 . S
C769 C768 1.370 . S
C769 C770 1.407 . S
C770 C769 1.407 . S
C770 C771 1.365 . S
C771 H759 0.930 . S
C771 C770 1.365 . S
C771 C772 1.393 . S
C772 C771 1.393 . S
C772 C773 1.387 . S
C773 H760 0.930 . S
C773 C768 1.415 . S
C773 C772 1.387 . S
H774 C782 0.930 . S
H775 C785 0.930 . S
H776 C787 0.930 . S
H777 C788 0.970 . S
H778 C788 0.970 . S
H779 C790 0.930 . S
H780 C792 0.930 . S
H781 C794 0.930 . S
C782 H774 0.930 . S
C782 C783 1.382 . S
C782 C784 1.426 . S
C783 C782 1.382 . S
C783 C787 1.389 . S
C784 C782 1.426 . S
C784 C785 1.375 . S
C784 C788 1.532 . S
C785 H775 0.930 . S
C785 C784 1.375 . S
C785 C786 1.416 . S
C786 C785 1.416 . S
C786 C787 1.371 . S
C787 H776 0.930 . S
C787 C783 1.389 . S
C787 C786 1.371 . S
C788 H777 0.970 . S
C788 H778 0.970 . S
C788 C784 1.532 . S
C788 C789 1.499 . S
C789 C788 1.499 . S
C789 C790 1.370 . S
C789 C794 1.415 . S
C790 H779 0.930 . S
C790 C789 1.370 . S
C790 C791 1.407 . S
C791 C790 1.407 . S
C791 C792 1.365 . S
C792 H780 0.930 . S
C792 C791 1.365 . S
C792 C793 1.393 . S
C793 C792 1.393 . S
C793 C794 1.387 . S
C794 H781 0.930 . S
C794 C789 1.415 . S
C794 C793 1.387 . S
H795 C803 0.930 . S
H796 C806 0.930 . S
H797 C808 0.930 . S
H798 C809 0.970 . S
H799 C809 0.970 . S
H800 C811 0.930 . S
H801 C813 0.930 . S
H802 C815 0.930 . S
C803 H795 0.930 . S
C803 C804 1.382 . S
C803 C805 1.426 . S
C804 C803 1.382 . S
C804 C808 1.389 . S
C805 C803 1.426 . S
C805 C806 1.375 . S
C805 C809 1.532 . S
C806 H796 0.930 . S
C806 C805 1.375 . S
C806 C807 1.416 . S
C807 C806 1.416 . S
C807 C808 1.371 . S
C808 H797 0.930 . S
C808 C804 1.389 . S
C808 C807 1.371 . S
C809 H798 0.970 . S
C809 H799 0.970 . S
C809 C805 1.532 . S
C809 C810 1.499 . S
C810 C809 1.499 . S
C810 C811 1.370 . S
C810 C815 1.415 . S
C811 H800 0.930 . S
C811 C810 1.370 . S
C811 C812 1.407 . S
C812 C811 1.407 . S
C812 C813 1.365 . S
C813 H801 0.930 . S
C813 C812 1.365 . S
C813 C814 1.393 . S
C814 C813 1.393 . S
C814 C815 1.387 . S
C815 H802 0.930 . S
C815 C810 1.415 . S
C815 C814 1.387 . S
H816 C824 0.930 . S
H817 C827 0.930 . S
H818 C829 0.930 . S
H819 C830 0.970 . S
H820 C830 0.970 . S
H821 C832 0.930 . S
H822 C834 0.930 . S
H823 C836 0.930 . S
C824 H816 0.930 . S
C824 C825 1.382 . S
C824 C826 1.426 . S
C825 C824 1.382 . S
C825 C829 1.389 . S
C826 C824 1.426 . S
C826 C827 1.375 . S
C826 C830 1.532 . S
C827 H817 0.930 . S
C827 C826 1.375 . S
C827 C828 1.416 . S
C828 C827 1.416 . S
C828 C829 1.371 . S
C829 H818 0.930 . S
C829 C825 1.389 . S
C829 C828 1.371 . S
C830 H819 0.970 . S
C830 H820 0.970 . S
C830 C826 1.532 . S
C830 C831 1.499 . S
C831 C830 1.499 . S
C831 C832 1.370 . S
C831 C836 1.415 . S
C832 H821 0.930 . S
C832 C831 1.370 . S
C832 C833 1.407 . S
C833 C832 1.407 . S
C833 C834 1.365 . S
C834 H822 0.930 . S
C834 C833 1.365 . S
C834 C835 1.393 . S
C835 C834 1.393 . S
C835 C836 1.387 . S
C836 H823 0.930 . S
C836 C831 1.415 . S
C836 C835 1.387 . S
H837 C845 0.930 . S
H838 C848 0.930 . S
H839 C850 0.930 . S
H840 C851 0.970 . S
H841 C851 0.970 . S
H842 C853 0.930 . S
H843 C855 0.930 . S
H844 C857 0.930 . S
C845 H837 0.930 . S
C845 C846 1.382 . S
C845 C847 1.426 . S
C846 C845 1.382 . S
C846 C850 1.389 1_455 S
C847 C845 1.426 . S
C847 C848 1.375 . S
C847 C851 1.532 . S
C848 H838 0.930 . S
C848 C847 1.375 . S
C848 C849 1.416 . S
C849 C848 1.416 . S
C849 C850 1.371 1_455 S
C850 H839 0.930 . S
C850 C846 1.389 1_655 S
C850 C849 1.371 1_655 S
C851 H840 0.970 . S
C851 H841 0.970 . S
C851 C847 1.532 . S
C851 C852 1.499 . S
C852 C851 1.499 . S
C852 C853 1.370 . S
C852 C857 1.415 . S
C853 H842 0.930 . S
C853 C852 1.370 . S
C853 C854 1.410 . S
C854 C853 1.410 . S
C854 C855 1.368 1_455 S
C855 H843 0.930 . S
C855 C854 1.368 1_655 S
C855 C856 1.393 1_655 S
C856 C855 1.393 1_455 S
C856 C857 1.387 . S
C857 H844 0.930 . S
C857 C852 1.415 . S
C857 C856 1.387 . S
H858 C866 0.930 . S
H859 C869 0.930 . S
H860 C871 0.930 . S
H861 C872 0.970 . S
H862 C872 0.970 . S
H863 C874 0.930 . S
H864 C876 0.930 . S
H865 C878 0.930 . S
C866 H858 0.930 . S
C866 C867 1.382 . S
C866 C868 1.426 . S
C867 C866 1.382 . S
C867 C871 1.389 . S
C868 C866 1.426 . S
C868 C869 1.375 . S
C868 C872 1.532 . S
C869 H859 0.930 . S
C869 C868 1.375 . S
C869 C870 1.416 . S
C870 C869 1.416 . S
C870 C871 1.371 . S
C871 H860 0.930 . S
C871 C867 1.389 . S
C871 C870 1.371 . S
C872 H861 0.970 . S
C872 H862 0.970 . S
C872 C868 1.532 . S
C872 C873 1.499 . S
C873 C872 1.499 . S
C873 C874 1.370 . S
C873 C878 1.415 . S
C874 H863 0.930 . S
C874 C873 1.370 . S
C874 C875 1.407 . S
C875 C874 1.407 . S
C875 C876 1.365 . S
C876 H864 0.930 . S
C876 C875 1.365 . S
C876 C877 1.393 . S
C877 C876 1.393 . S
C877 C878 1.387 . S
C878 H865 0.930 . S
C878 C873 1.415 . S
C878 C877 1.387 . S
H879 C887 0.930 . S
H880 C890 0.930 . S
H881 C892 0.930 . S
H882 C893 0.970 . S
H883 C893 0.970 . S
H884 C895 0.930 . S
H885 C897 0.930 . S
H886 C899 0.930 . S
C887 H879 0.930 . S
C887 C888 1.382 . S
C887 C889 1.426 . S
C888 C887 1.382 . S
C888 C892 1.389 1_565 S
C889 C887 1.426 . S
C889 C890 1.375 . S
C889 C893 1.532 . S
C890 H880 0.930 . S
C890 C889 1.375 . S
C890 C891 1.416 . S
C891 C890 1.416 . S
C891 C892 1.371 1_565 S
C892 H881 0.930 . S
C892 C888 1.389 1_545 S
C892 C891 1.371 1_545 S
C893 H882 0.970 . S
C893 H883 0.970 . S
C893 C889 1.532 . S
C893 C894 1.499 . S
C894 C893 1.499 . S
C894 C895 1.370 . S
C894 C899 1.415 . S
C895 H884 0.930 . S
C895 C894 1.370 . S
C895 C896 1.448 . S
C896 C895 1.448 . S
C896 C897 1.349 1_565 S
C897 H885 0.930 . S
C897 C896 1.349 1_545 S
C897 C898 1.393 1_545 S
C898 C897 1.393 1_565 S
C898 C899 1.387 . S
C899 H886 0.930 . S
C899 C894 1.415 . S
C899 C898 1.387 . S
H900 C908 0.930 . S
H901 C911 0.930 . S
H902 C913 0.930 . S
H903 C914 0.970 . S
H904 C914 0.970 . S
H905 C916 0.930 . S
H906 C918 0.930 . S
H907 C920 0.930 . S
C908 H900 0.930 . S
C908 C909 1.382 . S
C908 C910 1.426 . S
C909 C908 1.382 . S
C909 C913 1.389 1_565 S
C910 C908 1.426 . S
C910 C911 1.375 . S
C910 C914 1.532 . S
C911 H901 0.930 . S
C911 C910 1.375 . S
C911 C912 1.416 . S
C912 C911 1.416 . S
C912 C913 1.371 1_565 S
C913 H902 0.930 . S
C913 C909 1.389 1_545 S
C913 C912 1.371 1_545 S
C914 H903 0.970 . S
C914 H904 0.970 . S
C914 C910 1.532 . S
C914 C915 1.499 . S
C915 C914 1.499 . S
C915 C916 1.370 . S
C915 C920 1.415 . S
C916 H905 0.930 . S
C916 C915 1.370 . S
C916 C917 1.407 . S
C917 C916 1.407 . S
C917 C918 1.365 1_565 S
C918 H906 0.930 . S
C918 C917 1.365 1_545 S
C918 C919 1.393 1_545 S
C919 C918 1.393 1_565 S
C919 C920 1.387 . S
C920 H907 0.930 . S
C920 C915 1.415 . S
C920 C919 1.387 . S
H921 C929 0.930 . S
H922 C932 0.930 . S
H923 C934 0.930 . S
H924 C935 0.970 . S
H925 C935 0.970 . S
H926 C937 0.930 . S
H927 C939 0.930 . S
H928 C941 0.930 . S
C929 H921 0.930 . S
C929 C930 1.382 . S
C929 C931 1.426 . S
C930 C929 1.382 . S
C930 C934 1.389 1_455 S
C931 C929 1.426 . S
C931 C932 1.375 . S
C931 C935 1.532 . S
C932 H922 0.930 . S
C932 C931 1.375 . S
C932 C933 1.421 . S
C933 C932 1.421 . S
C933 C934 1.378 1_455 S
C934 H923 0.930 . S
C934 C930 1.389 1_655 S
C934 C933 1.378 1_655 S
C935 H924 0.970 . S
C935 H925 0.970 . S
C935 C931 1.532 . S
C935 C936 1.499 . S
C936 C935 1.499 . S
C936 C937 1.370 . S
C936 C941 1.415 . S
C937 H926 0.930 . S
C937 C936 1.370 . S
C937 C938 1.407 . S
C938 C937 1.407 . S
C938 C939 1.365 1_455 S
C939 H927 0.930 . S
C939 C938 1.365 1_655 S
C939 C940 1.393 1_655 S
C940 C939 1.393 1_455 S
C940 C941 1.387 . S
C941 H928 0.930 . S
C941 C936 1.415 . S
C941 C940 1.387 . S
H942 C950 0.930 . S
H943 C953 0.930 . S
H944 C955 0.930 . S
H945 C956 0.970 . S
H946 C956 0.970 . S
H947 C958 0.930 . S
H948 C960 0.930 . S
H949 C962 0.930 . S
C950 H942 0.930 . S
C950 C951 1.382 . S
C950 C952 1.426 . S
C951 C950 1.382 . S
C951 C955 1.389 . S
C952 C950 1.426 . S
C952 C953 1.375 . S
C952 C956 1.532 . S
C953 H943 0.930 . S
C953 C952 1.375 . S
C953 C954 1.416 . S
C954 C953 1.416 . S
C954 C955 1.371 . S
C955 H944 0.930 . S
C955 C951 1.389 . S
C955 C954 1.371 . S
C956 H945 0.970 . S
C956 H946 0.970 . S
C956 C952 1.532 . S
C956 C957 1.499 . S
C957 C956 1.499 . S
C957 C958 1.370 . S
C957 C962 1.415 . S
C958 H947 0.930 . S
C958 C957 1.370 . S
C958 C959 1.407 . S
C959 C958 1.407 . S
C959 C960 1.365 . S
C960 H948 0.930 . S
C960 C959 1.365 . S
C960 C961 1.393 . S
C961 C960 1.393 . S
C961 C962 1.387 . S
C962 H949 0.930 . S
C962 C957 1.415 . S
C962 C961 1.387 . S
H963 C971 0.930 . S
H964 C974 0.930 . S
H965 C976 0.930 . S
H966 C977 0.970 . S
H967 C977 0.970 . S
H968 C979 0.930 . S
H969 C981 0.930 . S
H970 C983 0.930 . S
C971 H963 0.930 . S
C971 C972 1.382 . S
C971 C973 1.426 . S
C972 C971 1.382 . S
C972 C976 1.389 . S
C973 C971 1.426 . S
C973 C974 1.375 . S
C973 C977 1.532 . S
C974 H964 0.930 . S
C974 C973 1.375 . S
C974 C975 1.416 . S
C975 C974 1.416 . S
C975 C976 1.371 . S
C976 H965 0.930 . S
C976 C972 1.389 . S
C976 C975 1.371 . S
C977 H966 0.970 . S
C977 H967 0.970 . S
C977 C973 1.532 . S
C977 C978 1.499 . S
C978 C977 1.499 . S
C978 C979 1.370 . S
C978 C983 1.415 . S
C979 H968 0.930 . S
C979 C978 1.370 . S
C979 C980 1.407 . S
C980 C979 1.407 . S
C980 C981 1.365 . S
C981 H969 0.930 . S
C981 C980 1.365 . S
C981 C982 1.393 . S
C982 C981 1.393 . S
C982 C983 1.387 . S
C983 H970 0.930 . S
C983 C978 1.415 . S
C983 C982 1.387 . S
H984 C992 0.930 . S
H985 C995 0.930 . S
H986 C997 0.930 . S
H987 C998 0.970 . S
H988 C998 0.970 . S
H989 C1000 0.930 . S
H990 C1002 0.930 . S
H991 C1004 0.930 . S
C992 H984 0.930 . S
C992 C993 1.382 . S
C992 C994 1.426 . S
C993 C992 1.382 . S
C993 C997 1.389 . S
C994 C992 1.426 . S
C994 C995 1.375 . S
C994 C998 1.532 . S
C995 H985 0.930 . S
C995 C994 1.375 . S
C995 C996 1.416 . S
C996 C995 1.416 . S
C996 C997 1.371 . S
C997 H986 0.930 . S
C997 C993 1.389 . S
C997 C996 1.371 . S
C998 H987 0.970 . S
C998 H988 0.970 . S
C998 C994 1.532 . S
C998 C999 1.499 . S
C999 C998 1.499 . S
C999 C1000 1.370 . S
C999 C1004 1.415 . S
C1000 H989 0.930 . S
C1000 C999 1.370 . S
C1000 C1001 1.407 . S
C1001 C1000 1.407 . S
C1001 C1002 1.365 . S
C1002 H990 0.930 . S
C1002 C1001 1.365 . S
C1002 C1003 1.393 . S
C1003 C1002 1.393 . S
C1003 C1004 1.387 . S
C1004 H991 0.930 . S
C1004 C999 1.415 . S
C1004 C1003 1.387 . S
H1005 C1013 0.930 . S
H1006 C1016 0.930 . S
H1007 C1018 0.930 . S
H1008 C1019 0.970 . S
H1009 C1019 0.970 . S
H1010 C1021 0.930 . S
H1011 C1023 0.930 . S
H1012 C1025 0.930 . S
C1013 H1005 0.930 . S
C1013 C1014 1.382 . S
C1013 C1015 1.426 . S
C1014 C1013 1.382 . S
C1014 C1018 1.389 . S
C1015 C1013 1.426 . S
C1015 C1016 1.375 . S
C1015 C1019 1.532 . S
C1016 H1006 0.930 . S
C1016 C1015 1.375 . S
C1016 C1017 1.416 . S
C1017 C1016 1.416 . S
C1017 C1018 1.371 . S
C1018 H1007 0.930 . S
C1018 C1014 1.389 . S
C1018 C1017 1.371 . S
C1019 H1008 0.970 . S
C1019 H1009 0.970 . S
C1019 C1015 1.532 . S
C1019 C1020 1.499 . S
C1020 C1019 1.499 . S
C1020 C1021 1.370 . S
C1020 C1025 1.415 . S
C1021 H1010 0.930 . S
C1021 C1020 1.370 . S
C1021 C1022 1.407 . S
C1022 C1021 1.407 . S
C1022 C1023 1.365 . S
C1023 H1011 0.930 . S
C1023 C1022 1.365 . S
C1023 C1024 1.393 . S
C1024 C1023 1.393 . S
C1024 C1025 1.387 . S
C1025 H1012 0.930 . S
C1025 C1020 1.415 . S
C1025 C1024 1.387 . S
C1026 C1027 1.349 . S
C1026 C1028 1.327 . S
C1026 H1051 0.950 . S
C1027 C1026 1.349 . S
C1027 C1043 1.349 1_655 S
C1028 C1026 1.327 . S
C1028 C1047 1.429 . S
C1028 H1052 0.950 . S
C1029 C1046 1.574 . S
C1029 C1048 1.368 1_455 S
C1029 H1053 0.949 . S
H1030 C1034 0.949 . S
C1031 C1032 1.319 1_455 S
C1031 C1033 1.316 . S
C1031 H1054 0.962 . S
C1032 C1031 1.319 1_655 S
C1032 C1044 1.349 . S
C1033 C1031 1.316 . S
C1033 C1049 1.415 1_455 S
C1033 H1055 0.999 . S
C1034 H1030 0.949 . S
C1034 C1042 1.574 . S
C1034 C1050 1.368 . S
H1035 C1043 0.950 . S
H1036 C1041 0.950 . S
H1037 C1042 0.949 . S
H1038 C1044 0.950 . S
H1039 C1045 0.950 . S
H1040 C1046 0.949 . S
C1041 H1036 0.950 . S
C1041 C1043 1.327 . S
C1041 C1047 1.429 1_455 S
C1042 C1034 1.574 . S
C1042 H1037 0.949 . S
C1042 C1048 1.368 . S
C1043 C1027 1.349 1_455 S
C1043 H1035 0.950 . S
C1043 C1041 1.327 . S
C1044 C1032 1.349 . S
C1044 H1038 0.950 . S
C1044 C1045 1.327 . S
C1045 H1039 0.950 . S
C1045 C1044 1.327 . S
C1045 C1049 1.429 . S
C1046 C1029 1.574 . S
C1046 H1040 0.949 . S
C1046 C1050 1.368 1_455 S
C1047 C1028 1.429 . S
C1047 C1041 1.429 1_655 S
C1047 C1048 1.523 . S
C1048 C1029 1.368 1_655 S
C1048 C1042 1.368 . S
C1048 C1047 1.523 . S
C1049 C1033 1.415 1_655 S
C1049 C1045 1.429 . S
C1049 C1050 1.523 . S
C1050 C1034 1.368 . S
C1050 C1046 1.368 1_655 S
C1050 C1049 1.523 . S
H1051 C1026 0.950 . S
H1052 C1028 0.950 . S
H1053 C1029 0.949 . S
H1054 C1031 0.962 . S
H1055 C1033 0.999 . S
C1056 C1057 1.349 . S
C1056 C1058 1.327 . S
C1056 H1081 0.950 . S
C1057 C1056 1.349 . S
C1057 C1073 1.349 . S
C1058 C1056 1.327 . S
C1058 C1077 1.429 . S
C1058 H1082 0.950 . S
C1059 C1076 1.574 . S
C1059 C1078 1.368 . S
C1059 H1083 0.949 . S
H1060 C1064 0.949 . S
C1061 C1062 1.349 . S
C1061 C1063 1.327 . S
C1061 H1084 0.950 . S
C1062 C1061 1.349 . S
C1062 C1074 1.349 . S
C1063 C1061 1.327 . S
C1063 C1079 1.429 . S
C1063 H1085 0.950 . S
C1064 H1060 0.949 . S
C1064 C1072 1.574 . S
C1064 C1080 1.368 . S
H1065 C1073 0.950 . S
H1066 C1071 0.950 . S
H1067 C1072 0.949 . S
H1068 C1074 0.950 . S
H1069 C1075 0.950 . S
H1070 C1076 0.949 . S
C1071 H1066 0.950 . S
C1071 C1073 1.327 . S
C1071 C1077 1.429 . S
C1072 C1064 1.574 . S
C1072 H1067 0.949 . S
C1072 C1078 1.368 . S
C1073 C1057 1.349 . S
C1073 H1065 0.950 . S
C1073 C1071 1.327 . S
C1074 C1062 1.349 . S
C1074 H1068 0.950 . S
C1074 C1075 1.327 . S
C1075 H1069 0.950 . S
C1075 C1074 1.327 . S
C1075 C1079 1.429 . S
C1076 C1059 1.574 . S
C1076 H1070 0.949 . S
C1076 C1080 1.368 . S
C1077 C1058 1.429 . S
C1077 C1071 1.429 . S
C1077 C1078 1.523 . S
C1078 C1059 1.368 . S
C1078 C1072 1.368 . S
C1078 C1077 1.523 . S
C1079 C1063 1.429 . S
C1079 C1075 1.429 . S
C1079 C1080 1.523 . S
C1080 C1064 1.368 . S
C1080 C1076 1.368 . S
C1080 C1079 1.523 . S
H1081 C1056 0.950 . S
H1082 C1058 0.950 . S
H1083 C1059 0.949 . S
H1084 C1061 0.950 . S
H1085 C1063 0.950 . S
C1086 C1087 1.349 . S
C1086 C1088 1.327 . S
C1086 H1111 0.950 . S
C1087 C1086 1.349 . S
C1087 C1103 1.349 1_545 S
C1088 C1086 1.327 . S
C1088 C1107 1.429 . S
C1088 H1112 0.950 . S
C1089 C1106 1.574 . S
C1089 C1108 1.368 1_565 S
C1089 H1113 0.949 . S
H1090 C1094 0.949 . S
C1091 C1092 1.349 1_565 S
C1091 C1093 1.327 . S
C1091 H1114 0.950 . S
C1092 C1091 1.349 1_545 S
C1092 C1104 1.349 . S
C1093 C1091 1.327 . S
C1093 C1109 1.429 1_565 S
C1093 H1115 0.950 . S
C1094 H1090 0.949 . S
C1094 C1102 1.574 . S
C1094 C1110 1.368 . S
H1095 C1103 0.950 . S
H1096 C1101 0.950 . S
H1097 C1102 0.949 . S
H1098 C1104 0.950 . S
H1099 C1105 0.950 . S
H1100 C1106 0.949 . S
C1101 H1096 0.950 . S
C1101 C1103 1.327 . S
C1101 C1107 1.429 1_565 S
C1102 C1094 1.574 . S
C1102 H1097 0.949 . S
C1102 C1108 1.368 . S
C1103 C1087 1.349 1_565 S
C1103 H1095 0.950 . S
C1103 C1101 1.327 . S
C1104 C1092 1.349 . S
C1104 H1098 0.950 . S
C1104 C1105 1.327 . S
C1105 H1099 0.950 . S
C1105 C1104 1.327 . S
C1105 C1109 1.429 . S
C1106 C1089 1.574 . S
C1106 H1100 0.949 . S
C1106 C1110 1.368 1_565 S
C1107 C1088 1.429 . S
C1107 C1101 1.429 1_545 S
C1107 C1108 1.523 . S
C1108 C1089 1.368 1_545 S
C1108 C1102 1.368 . S
C1108 C1107 1.523 . S
C1109 C1093 1.429 1_545 S
C1109 C1105 1.429 . S
C1109 C1110 1.523 . S
C1110 C1094 1.368 . S
C1110 C1106 1.368 1_545 S
C1110 C1109 1.523 . S
H1111 C1086 0.950 . S
H1112 C1088 0.950 . S
H1113 C1089 0.949 . S
H1114 C1091 0.950 . S
H1115 C1093 0.950 . S
C1116 C1117 1.349 . S
C1116 C1118 1.327 . S
C1116 H1141 0.950 . S
C1117 C1116 1.349 . S
C1117 C1133 1.349 1_565 S
C1118 C1116 1.327 . S
C1118 C1137 1.429 . S
C1118 H1142 0.950 . S
C1119 C1136 1.574 . S
C1119 C1138 1.368 1_545 S
C1119 H1143 0.949 . S
H1120 C1124 0.949 . S
C1121 C1122 1.349 1_545 S
C1121 C1123 1.327 . S
C1121 H1144 0.950 . S
C1122 C1121 1.349 1_565 S
C1122 C1134 1.349 . S
C1123 C1121 1.327 . S
C1123 C1139 1.429 1_545 S
C1123 H1145 0.950 . S
C1124 H1120 0.949 . S
C1124 C1132 1.574 . S
C1124 C1140 1.368 . S
H1125 C1133 0.950 . S
H1126 C1131 0.950 . S
H1127 C1132 0.949 . S
H1128 C1134 0.950 . S
H1129 C1135 0.950 . S
H1130 C1136 0.949 . S
C1131 H1126 0.950 . S
C1131 C1133 1.327 . S
C1131 C1137 1.429 1_545 S
C1132 C1124 1.574 . S
C1132 H1127 0.949 . S
C1132 C1138 1.368 . S
C1133 C1117 1.349 1_545 S
C1133 H1125 0.950 . S
C1133 C1131 1.327 . S
C1134 C1122 1.349 . S
C1134 H1128 0.950 . S
C1134 C1135 1.327 . S
C1135 H1129 0.950 . S
C1135 C1134 1.327 . S
C1135 C1139 1.429 . S
C1136 C1119 1.574 . S
C1136 H1130 0.949 . S
C1136 C1140 1.368 1_545 S
C1137 C1118 1.429 . S
C1137 C1131 1.429 1_565 S
C1137 C1138 1.523 . S
C1138 C1119 1.368 1_565 S
C1138 C1132 1.368 . S
C1138 C1137 1.523 . S
C1139 C1123 1.429 1_565 S
C1139 C1135 1.429 . S
C1139 C1140 1.523 . S
C1140 C1124 1.368 . S
C1140 C1136 1.368 1_565 S
C1140 C1139 1.523 . S
H1141 C1116 0.950 . S
H1142 C1118 0.950 . S
H1143 C1119 0.949 . S
H1144 C1121 0.950 . S
H1145 C1123 0.950 . S
C1146 C1147 1.349 1_655 S
C1146 C1148 1.327 . S
C1146 H1171 0.950 . S
C1147 C1146 1.349 1_455 S
C1147 C1163 1.349 . S
C1148 C1146 1.327 . S
C1148 C1167 1.429 1_655 S
C1148 H1172 0.950 . S
C1149 C1166 1.574 . S
C1149 C1168 1.368 . S
C1149 H1173 0.949 . S
H1150 C1154 0.949 . S
C1151 C1152 1.349 . S
C1151 C1153 1.327 . S
C1151 H1174 0.950 . S
C1152 C1151 1.349 . S
C1152 C1164 1.349 1_455 S
C1153 C1151 1.327 . S
C1153 C1169 1.429 . S
C1153 H1175 0.950 . S
C1154 H1150 0.949 . S
C1154 C1162 1.574 . S
C1154 C1170 1.368 1_655 S
H1155 C1163 0.950 . S
H1156 C1161 0.950 . S
H1157 C1162 0.949 . S
H1158 C1164 0.950 . S
H1159 C1165 0.950 . S
H1160 C1166 0.949 . S
C1161 H1156 0.950 . S
C1161 C1163 1.327 . S
C1161 C1167 1.429 . S
C1162 C1154 1.574 . S
C1162 H1157 0.949 . S
C1162 C1168 1.368 1_655 S
C1163 C1147 1.349 . S
C1163 H1155 0.950 . S
C1163 C1161 1.327 . S
C1164 C1152 1.349 1_655 S
C1164 H1158 0.950 . S
C1164 C1165 1.327 . S
C1165 H1159 0.950 . S
C1165 C1164 1.327 . S
C1165 C1169 1.429 1_655 S
C1166 C1149 1.574 . S
C1166 H1160 0.949 . S
C1166 C1170 1.368 . S
C1167 C1148 1.429 1_455 S
C1167 C1161 1.429 . S
C1167 C1168 1.523 . S
C1168 C1149 1.368 . S
C1168 C1162 1.368 1_455 S
C1168 C1167 1.523 . S
C1169 C1153 1.429 . S
C1169 C1165 1.429 1_455 S
C1169 C1170 1.523 . S
C1170 C1154 1.368 1_455 S
C1170 C1166 1.368 . S
C1170 C1169 1.523 . S
H1171 C1146 0.950 . S
H1172 C1148 0.950 . S
H1173 C1149 0.949 . S
H1174 C1151 0.950 . S
H1175 C1153 0.950 . S
C1176 C1177 1.349 . S
C1176 C1178 1.327 . S
C1176 H1201 0.950 . S
C1177 C1176 1.349 . S
C1177 C1193 1.349 . S
C1178 C1176 1.327 . S
C1178 C1197 1.429 . S
C1178 H1202 0.950 . S
C1179 C1196 1.574 . S
C1179 C1198 1.368 . S
C1179 H1203 0.949 . S
H1180 C1184 0.949 . S
C1181 C1182 1.349 . S
C1181 C1183 1.327 . S
C1181 H1204 0.950 . S
C1182 C1181 1.349 . S
C1182 C1194 1.349 . S
C1183 C1181 1.327 . S
C1183 C1199 1.429 . S
C1183 H1205 0.950 . S
C1184 H1180 0.949 . S
C1184 C1192 1.574 . S
C1184 C1200 1.368 . S
H1185 C1193 0.950 . S
H1186 C1191 0.950 . S
H1187 C1192 0.949 . S
H1188 C1194 0.950 . S
H1189 C1195 0.950 . S
H1190 C1196 0.949 . S
C1191 H1186 0.950 . S
C1191 C1193 1.327 . S
C1191 C1197 1.429 . S
C1192 C1184 1.574 . S
C1192 H1187 0.949 . S
C1192 C1198 1.368 . S
C1193 C1177 1.349 . S
C1193 H1185 0.950 . S
C1193 C1191 1.327 . S
C1194 C1182 1.349 . S
C1194 H1188 0.950 . S
C1194 C1195 1.327 . S
C1195 H1189 0.950 . S
C1195 C1194 1.327 . S
C1195 C1199 1.429 . S
C1196 C1179 1.574 . S
C1196 H1190 0.949 . S
C1196 C1200 1.368 . S
C1197 C1178 1.429 . S
C1197 C1191 1.429 . S
C1197 C1198 1.523 . S
C1198 C1179 1.368 . S
C1198 C1192 1.368 . S
C1198 C1197 1.523 . S
C1199 C1183 1.429 . S
C1199 C1195 1.429 . S
C1199 C1200 1.523 . S
C1200 C1184 1.368 . S
C1200 C1196 1.368 . S
C1200 C1199 1.523 . S
H1201 C1176 0.950 . S
H1202 C1178 0.950 . S
H1203 C1179 0.949 . S
H1204 C1181 0.950 . S
H1205 C1183 0.950 . S
C1206 C1207 1.349 . S
C1206 C1208 1.327 . S
C1206 H1231 0.950 . S
C1207 C1206 1.349 . S
C1207 C1223 1.349 1_455 S
C1208 C1206 1.327 . S
C1208 C1227 1.429 . S
C1208 H1232 0.950 . S
C1209 C1226 1.574 . S
C1209 C1228 1.368 1_655 S
C1209 H1233 0.949 . S
H1210 C1214 0.949 . S
C1211 C1212 1.305 1_655 S
C1211 C1213 1.327 . S
C1211 H1234 0.950 . S
C1212 C1211 1.305 1_455 S
C1212 C1224 1.367 . S
C1213 C1211 1.327 . S
C1213 C1229 1.429 1_655 S
C1213 H1235 0.950 . S
C1214 H1210 0.949 . S
C1214 C1222 1.574 . S
C1214 C1230 1.368 . S
H1215 C1223 0.950 . S
H1216 C1221 0.950 . S
H1217 C1222 0.949 . S
H1218 C1224 0.950 . S
H1219 C1225 0.950 . S
H1220 C1226 0.949 . S
C1221 H1216 0.950 . S
C1221 C1223 1.327 . S
C1221 C1227 1.429 1_655 S
C1222 C1214 1.574 . S
C1222 H1217 0.949 . S
C1222 C1228 1.368 . S
C1223 C1207 1.349 1_655 S
C1223 H1215 0.950 . S
C1223 C1221 1.327 . S
C1224 C1212 1.367 . S
C1224 H1218 0.950 . S
C1224 C1225 1.327 . S
C1225 H1219 0.950 . S
C1225 C1224 1.327 . S
C1225 C1229 1.429 . S
C1226 C1209 1.574 . S
C1226 H1220 0.949 . S
C1226 C1230 1.368 1_655 S
C1227 C1208 1.429 . S
C1227 C1221 1.429 1_455 S
C1227 C1228 1.523 . S
C1228 C1209 1.368 1_455 S
C1228 C1222 1.368 . S
C1228 C1227 1.523 . S
C1229 C1213 1.429 1_455 S
C1229 C1225 1.429 . S
C1229 C1230 1.523 . S
C1230 C1214 1.368 . S
C1230 C1226 1.368 1_455 S
C1230 C1229 1.523 . S
H1231 C1206 0.950 . S
H1232 C1208 0.950 . S
H1233 C1209 0.949 . S
H1234 C1211 0.950 . S
H1235 C1213 0.950 . S
C1236 C1237 1.349 . S
C1236 C1238 1.327 . S
C1236 H1261 0.950 . S
C1237 C1236 1.349 . S
C1237 C1253 1.349 . S
C1238 C1236 1.327 . S
C1238 C1257 1.429 . S
C1238 H1262 0.950 . S
C1239 C1256 1.574 . S
C1239 C1258 1.368 . S
C1239 H1263 0.949 . S
H1240 C1244 0.949 . S
C1241 C1242 1.349 . S
C1241 C1243 1.327 . S
C1241 H1264 0.950 . S
C1242 C1241 1.349 . S
C1242 C1254 1.349 . S
C1243 C1241 1.327 . S
C1243 C1259 1.429 . S
C1243 H1265 0.950 . S
C1244 H1240 0.949 . S
C1244 C1252 1.574 . S
C1244 C1260 1.368 . S
H1245 C1253 0.950 . S
H1246 C1251 0.950 . S
H1247 C1252 0.949 . S
H1248 C1254 0.950 . S
H1249 C1255 0.950 . S
H1250 C1256 0.949 . S
C1251 H1246 0.950 . S
C1251 C1253 1.327 . S
C1251 C1257 1.429 . S
C1252 C1244 1.574 . S
C1252 H1247 0.949 . S
C1252 C1258 1.368 . S
C1253 C1237 1.349 . S
C1253 H1245 0.950 . S
C1253 C1251 1.327 . S
C1254 C1242 1.349 . S
C1254 H1248 0.950 . S
C1254 C1255 1.327 . S
C1255 H1249 0.950 . S
C1255 C1254 1.327 . S
C1255 C1259 1.429 . S
C1256 C1239 1.574 . S
C1256 H1250 0.949 . S
C1256 C1260 1.368 . S
C1257 C1238 1.429 . S
C1257 C1251 1.429 . S
C1257 C1258 1.523 . S
C1258 C1239 1.368 . S
C1258 C1252 1.368 . S
C1258 C1257 1.523 . S
C1259 C1243 1.429 . S
C1259 C1255 1.429 . S
C1259 C1260 1.523 . S
C1260 C1244 1.368 . S
C1260 C1256 1.368 . S
C1260 C1259 1.523 . S
H1261 C1236 0.950 . S
H1262 C1238 0.950 . S
H1263 C1239 0.949 . S
H1264 C1241 0.950 . S
H1265 C1243 0.950 . S
C1266 C1267 1.371 . S
C1266 C1268 1.327 . S
C1266 H1291 0.950 . S
C1267 C1266 1.371 . S
C1267 C1283 1.301 1_565 S
C1268 C1266 1.327 . S
C1268 C1287 1.469 . S
C1268 H1292 0.950 . S
C1269 C1286 1.574 . S
C1269 C1288 1.336 1_545 S
C1269 H1293 0.949 . S
H1270 C1274 0.949 . S
C1271 C1272 1.345 1_545 S
C1271 C1273 1.327 . S
C1271 H1294 0.950 . S
C1272 C1271 1.345 1_565 S
C1272 C1284 1.358 . S
C1273 C1271 1.327 . S
C1273 C1289 1.410 1_545 S
C1273 H1295 0.950 . S
C1274 H1270 0.949 . S
C1274 C1282 1.574 . S
C1274 C1290 1.392 . S
H1275 C1283 0.950 . S
H1276 C1281 0.950 . S
H1277 C1282 0.949 . S
H1278 C1284 0.950 . S
H1279 C1285 0.950 . S
H1280 C1286 0.949 . S
C1281 H1276 0.950 . S
C1281 C1283 1.327 . S
C1281 C1287 1.416 1_545 S
C1282 C1274 1.574 . S
C1282 H1277 0.949 . S
C1282 C1288 1.387 . S
C1283 C1267 1.301 1_545 S
C1283 H1275 0.950 . S
C1283 C1281 1.327 . S
C1284 C1272 1.358 . S
C1284 H1278 0.950 . S
C1284 C1285 1.327 . S
C1285 H1279 0.950 . S
C1285 C1284 1.327 . S
C1285 C1289 1.436 . S
C1286 C1269 1.574 . S
C1286 H1280 0.949 . S
C1286 C1290 1.356 1_545 S
C1287 C1268 1.469 . S
C1287 C1281 1.416 1_565 S
C1287 C1288 1.520 . S
C1288 C1269 1.336 1_565 S
C1288 C1282 1.387 . S
C1288 C1287 1.520 . S
C1289 C1273 1.410 1_565 S
C1289 C1285 1.436 . S
C1289 C1290 1.520 . S
C1290 C1274 1.392 . S
C1290 C1286 1.356 1_565 S
C1290 C1289 1.520 . S
H1291 C1266 0.950 . S
H1292 C1268 0.950 . S
H1293 C1269 0.949 . S
H1294 C1271 0.950 . S
H1295 C1273 0.950 . S
C1296 C1297 1.349 . S
C1296 C1298 1.327 . S
C1296 H1321 0.950 . S
C1297 C1296 1.349 . S
C1297 C1313 1.349 1_545 S
C1298 C1296 1.327 . S
C1298 C1317 1.429 . S
C1298 H1322 0.950 . S
C1299 C1316 1.574 . S
C1299 C1318 1.368 1_565 S
C1299 H1323 0.949 . S
H1300 C1304 0.949 . S
C1301 C1302 1.280 1_565 S
C1301 C1303 1.327 . S
C1301 H1324 0.950 . S
C1302 C1301 1.280 1_545 S
C1302 C1314 1.394 . S
C1303 C1301 1.327 . S
C1303 C1319 1.429 1_565 S
C1303 H1325 0.950 . S
C1304 H1300 0.949 . S
C1304 C1312 1.574 . S
C1304 C1320 1.368 . S
H1305 C1313 0.950 . S
H1306 C1311 0.950 . S
H1307 C1312 0.949 . S
H1308 C1314 0.950 . S
H1309 C1315 0.950 . S
H1310 C1316 0.949 . S
C1311 H1306 0.950 . S
C1311 C1313 1.327 . S
C1311 C1317 1.429 1_565 S
C1312 C1304 1.574 . S
C1312 H1307 0.949 . S
C1312 C1318 1.368 . S
C1313 C1297 1.349 1_565 S
C1313 H1305 0.950 . S
C1313 C1311 1.327 . S
C1314 C1302 1.394 . S
C1314 H1308 0.950 . S
C1314 C1315 1.327 . S
C1315 H1309 0.950 . S
C1315 C1314 1.327 . S
C1315 C1319 1.429 . S
C1316 C1299 1.574 . S
C1316 H1310 0.949 . S
C1316 C1320 1.368 1_565 S
C1317 C1298 1.429 . S
C1317 C1311 1.429 1_545 S
C1317 C1318 1.523 . S
C1318 C1299 1.368 1_545 S
C1318 C1312 1.368 . S
C1318 C1317 1.523 . S
C1319 C1303 1.429 1_545 S
C1319 C1315 1.429 . S
C1319 C1320 1.523 . S
C1320 C1304 1.368 . S
C1320 C1316 1.368 1_545 S
C1320 C1319 1.523 . S
H1321 C1296 0.950 . S
H1322 C1298 0.950 . S
H1323 C1299 0.949 . S
H1324 C1301 0.950 . S
H1325 C1303 0.950 . S
C1326 C1327 1.349 1_455 S
C1326 C1328 1.327 . S
C1326 H1351 0.950 . S
C1327 C1326 1.349 1_655 S
C1327 C1343 1.349 . S
C1328 C1326 1.327 . S
C1328 C1347 1.429 1_455 S
C1328 H1352 0.950 . S
C1329 C1346 1.574 . S
C1329 C1348 1.402 . S
C1329 H1353 0.949 . S
H1330 C1334 0.949 . S
C1331 C1332 1.360 . S
C1331 C1333 1.327 . S
C1331 H1354 0.950 . S
C1332 C1331 1.360 . S
C1332 C1344 1.344 1_655 S
C1333 C1331 1.327 . S
C1333 C1349 1.441 . S
C1333 H1355 0.950 . S
C1334 H1330 0.949 . S
C1334 C1342 1.574 . S
C1334 C1350 1.347 1_455 S
H1335 C1343 0.950 . S
H1336 C1341 0.950 . S
H1337 C1342 0.949 . S
H1338 C1344 0.950 . S
H1339 C1345 0.950 . S
H1340 C1346 0.949 . S
C1341 H1336 0.950 . S
C1341 C1343 1.327 . S
C1341 C1347 1.429 . S
C1342 C1334 1.574 . S
C1342 H1337 0.949 . S
C1342 C1348 1.314 1_455 S
C1343 C1327 1.349 . S
C1343 H1335 0.950 . S
C1343 C1341 1.327 . S
C1344 C1332 1.344 1_455 S
C1344 H1338 0.950 . S
C1344 C1345 1.327 . S
C1345 H1339 0.950 . S
C1345 C1344 1.327 . S
C1345 C1349 1.400 1_455 S
C1346 C1329 1.574 . S
C1346 H1340 0.949 . S
C1346 C1350 1.407 . S
C1347 C1328 1.429 1_655 S
C1347 C1341 1.429 . S
C1347 C1348 1.556 . S
C1348 C1329 1.402 . S
C1348 C1342 1.314 1_655 S
C1348 C1347 1.556 . S
C1349 C1333 1.441 . S
C1349 C1345 1.400 1_655 S
C1349 C1350 1.517 . S
C1350 C1334 1.347 1_655 S
C1350 C1346 1.407 . S
C1350 C1349 1.517 . S
H1351 C1326 0.950 . S
H1352 C1328 0.950 . S
H1353 C1329 0.949 . S
H1354 C1331 0.950 . S
H1355 C1333 0.950 . S
C1356 C1357 1.349 . S
C1356 C1358 1.327 . S
C1356 H1381 0.950 . S
C1357 C1356 1.349 . S
C1357 C1373 1.349 . S
C1358 C1356 1.327 . S
C1358 C1377 1.429 . S
C1358 H1382 0.950 . S
C1359 C1376 1.574 . S
C1359 C1378 1.368 . S
C1359 H1383 0.949 . S
H1360 C1364 0.949 . S
C1361 C1362 1.349 . S
C1361 C1363 1.327 . S
C1361 H1384 0.950 . S
C1362 C1361 1.349 . S
C1362 C1374 1.349 . S
C1363 C1361 1.327 . S
C1363 C1379 1.429 . S
C1363 H1385 0.950 . S
C1364 H1360 0.949 . S
C1364 C1372 1.574 . S
C1364 C1380 1.368 . S
H1365 C1373 0.950 . S
H1366 C1371 0.950 . S
H1367 C1372 0.949 . S
H1368 C1374 0.950 . S
H1369 C1375 0.950 . S
H1370 C1376 0.949 . S
C1371 H1366 0.950 . S
C1371 C1373 1.327 . S
C1371 C1377 1.429 . S
C1372 C1364 1.574 . S
C1372 H1367 0.949 . S
C1372 C1378 1.368 . S
C1373 C1357 1.349 . S
C1373 H1365 0.950 . S
C1373 C1371 1.327 . S
C1374 C1362 1.349 . S
C1374 H1368 0.950 . S
C1374 C1375 1.327 . S
C1375 H1369 0.950 . S
C1375 C1374 1.327 . S
C1375 C1379 1.429 . S
C1376 C1359 1.574 . S
C1376 H1370 0.949 . S
C1376 C1380 1.368 . S
C1377 C1358 1.429 . S
C1377 C1371 1.429 . S
C1377 C1378 1.523 . S
C1378 C1359 1.368 . S
C1378 C1372 1.368 . S
C1378 C1377 1.523 . S
C1379 C1363 1.429 . S
C1379 C1375 1.429 . S
C1379 C1380 1.523 . S
C1380 C1364 1.368 . S
C1380 C1376 1.368 . S
C1380 C1379 1.523 . S
H1381 C1356 0.950 . S
H1382 C1358 0.950 . S
H1383 C1359 0.949 . S
H1384 C1361 0.950 . S
H1385 C1363 0.950 . S
C1386 C1387 1.349 . S
C1386 C1388 1.327 . S
C1386 H1411 0.950 . S
C1387 C1386 1.349 . S
C1387 C1403 1.349 . S
C1388 C1386 1.327 . S
C1388 C1407 1.429 . S
C1388 H1412 0.950 . S
C1389 C1406 1.574 . S
C1389 C1408 1.368 . S
C1389 H1413 0.949 . S
H1390 C1394 0.949 . S
C1391 C1392 1.349 . S
C1391 C1393 1.327 . S
C1391 H1414 0.950 . S
C1392 C1391 1.349 . S
C1392 C1404 1.349 . S
C1393 C1391 1.327 . S
C1393 C1409 1.429 . S
C1393 H1415 0.950 . S
C1394 H1390 0.949 . S
C1394 C1402 1.574 . S
C1394 C1410 1.368 . S
H1395 C1403 0.950 . S
H1396 C1401 0.950 . S
H1397 C1402 0.949 . S
H1398 C1404 0.950 . S
H1399 C1405 0.950 . S
H1400 C1406 0.949 . S
C1401 H1396 0.950 . S
C1401 C1403 1.327 . S
C1401 C1407 1.429 . S
C1402 C1394 1.574 . S
C1402 H1397 0.949 . S
C1402 C1408 1.368 . S
C1403 C1387 1.349 . S
C1403 H1395 0.950 . S
C1403 C1401 1.327 . S
C1404 C1392 1.349 . S
C1404 H1398 0.950 . S
C1404 C1405 1.327 . S
C1405 H1399 0.950 . S
C1405 C1404 1.327 . S
C1405 C1409 1.429 . S
C1406 C1389 1.574 . S
C1406 H1400 0.949 . S
C1406 C1410 1.368 . S
C1407 C1388 1.429 . S
C1407 C1401 1.429 . S
C1407 C1408 1.523 . S
C1408 C1389 1.368 . S
C1408 C1402 1.368 . S
C1408 C1407 1.523 . S
C1409 C1393 1.429 . S
C1409 C1405 1.429 . S
C1409 C1410 1.523 . S
C1410 C1394 1.368 . S
C1410 C1406 1.368 . S
C1410 C1409 1.523 . S
H1411 C1386 0.950 . S
H1412 C1388 0.950 . S
H1413 C1389 0.949 . S
H1414 C1391 0.950 . S
H1415 C1393 0.950 . S
C1416 C1417 1.349 . S
C1416 C1418 1.327 . S
C1416 H1441 0.950 . S
C1417 C1416 1.349 . S
C1417 C1433 1.349 . S
C1418 C1416 1.327 . S
C1418 C1437 1.429 . S
C1418 H1442 0.950 . S
C1419 C1436 1.574 . S
C1419 C1438 1.368 . S
C1419 H1443 0.949 . S
H1420 C1424 0.949 . S
C1421 C1422 1.349 . S
C1421 C1423 1.327 . S
C1421 H1444 0.950 . S
C1422 C1421 1.349 . S
C1422 C1434 1.349 . S
C1423 C1421 1.327 . S
C1423 C1439 1.429 . S
C1423 H1445 0.950 . S
C1424 H1420 0.949 . S
C1424 C1432 1.574 . S
C1424 C1440 1.368 . S
H1425 C1433 0.950 . S
H1426 C1431 0.950 . S
H1427 C1432 0.949 . S
H1428 C1434 0.950 . S
H1429 C1435 0.950 . S
H1430 C1436 0.949 . S
C1431 H1426 0.950 . S
C1431 C1433 1.327 . S
C1431 C1437 1.429 . S
C1432 C1424 1.574 . S
C1432 H1427 0.949 . S
C1432 C1438 1.368 . S
C1433 C1417 1.349 . S
C1433 H1425 0.950 . S
C1433 C1431 1.327 . S
C1434 C1422 1.349 . S
C1434 H1428 0.950 . S
C1434 C1435 1.327 . S
C1435 H1429 0.950 . S
C1435 C1434 1.327 . S
C1435 C1439 1.429 . S
C1436 C1419 1.574 . S
C1436 H1430 0.949 . S
C1436 C1440 1.368 . S
C1437 C1418 1.429 . S
C1437 C1431 1.429 . S
C1437 C1438 1.523 . S
C1438 C1419 1.368 . S
C1438 C1432 1.368 . S
C1438 C1437 1.523 . S
C1439 C1423 1.429 . S
C1439 C1435 1.429 . S
C1439 C1440 1.523 . S
C1440 C1424 1.368 . S
C1440 C1436 1.368 . S
C1440 C1439 1.523 . S
H1441 C1416 0.950 . S
H1442 C1418 0.950 . S
H1443 C1419 0.949 . S
H1444 C1421 0.950 . S
H1445 C1423 0.950 . S
C1446 C1447 1.349 . S
C1446 C1448 1.327 . S
C1446 H1471 0.950 . S
C1447 C1446 1.349 . S
C1447 C1463 1.349 . S
C1448 C1446 1.327 . S
C1448 C1467 1.429 . S
C1448 H1472 0.950 . S
C1449 C1466 1.574 . S
C1449 C1468 1.368 . S
C1449 H1473 0.949 . S
H1450 C1454 0.949 . S
C1451 C1452 1.349 . S
C1451 C1453 1.327 . S
C1451 H1474 0.950 . S
C1452 C1451 1.349 . S
C1452 C1464 1.349 . S
C1453 C1451 1.327 . S
C1453 C1469 1.429 . S
C1453 H1475 0.950 . S
C1454 H1450 0.949 . S
C1454 C1462 1.574 . S
C1454 C1470 1.368 . S
H1455 C1463 0.950 . S
H1456 C1461 0.950 . S
H1457 C1462 0.949 . S
H1458 C1464 0.950 . S
H1459 C1465 0.950 . S
H1460 C1466 0.949 . S
C1461 H1456 0.950 . S
C1461 C1463 1.327 . S
C1461 C1467 1.429 . S
C1462 C1454 1.574 . S
C1462 H1457 0.949 . S
C1462 C1468 1.368 . S
C1463 C1447 1.349 . S
C1463 H1455 0.950 . S
C1463 C1461 1.327 . S
C1464 C1452 1.349 . S
C1464 H1458 0.950 . S
C1464 C1465 1.327 . S
C1465 H1459 0.950 . S
C1465 C1464 1.327 . S
C1465 C1469 1.429 . S
C1466 C1449 1.574 . S
C1466 H1460 0.949 . S
C1466 C1470 1.368 . S
C1467 C1448 1.429 . S
C1467 C1461 1.429 . S
C1467 C1468 1.523 . S
C1468 C1449 1.368 . S
C1468 C1462 1.368 . S
C1468 C1467 1.523 . S
C1469 C1453 1.429 . S
C1469 C1465 1.429 . S
C1469 C1470 1.523 . S
C1470 C1454 1.368 . S
C1470 C1466 1.368 . S
C1470 C1469 1.523 . S
H1471 C1446 0.950 . S
H1472 C1448 0.950 . S
H1473 C1449 0.949 . S
H1474 C1451 0.950 . S
H1475 C1453 0.950 . S
C1476 C1477 1.349 . S
C1476 C1478 1.327 . S
C1476 H1501 0.950 . S
C1477 C1476 1.349 . S
C1477 C1493 1.349 . S
C1478 C1476 1.327 . S
C1478 C1497 1.429 . S
C1478 H1502 0.950 . S
C1479 C1496 1.574 . S
C1479 C1498 1.368 . S
C1479 H1503 0.949 . S
H1480 C1484 0.949 . S
C1481 C1482 1.349 . S
C1481 C1483 1.327 . S
C1481 H1504 0.950 . S
C1482 C1481 1.349 . S
C1482 C1494 1.349 . S
C1483 C1481 1.327 . S
C1483 C1499 1.429 . S
C1483 H1505 0.950 . S
C1484 H1480 0.949 . S
C1484 C1492 1.574 . S
C1484 C1500 1.368 . S
H1485 C1493 0.950 . S
H1486 C1491 0.950 . S
H1487 C1492 0.949 . S
H1488 C1494 0.950 . S
H1489 C1495 0.950 . S
H1490 C1496 0.949 . S
C1491 H1486 0.950 . S
C1491 C1493 1.327 . S
C1491 C1497 1.429 . S
C1492 C1484 1.574 . S
C1492 H1487 0.949 . S
C1492 C1498 1.368 . S
C1493 C1477 1.349 . S
C1493 H1485 0.950 . S
C1493 C1491 1.327 . S
C1494 C1482 1.349 . S
C1494 H1488 0.950 . S
C1494 C1495 1.327 . S
C1495 H1489 0.950 . S
C1495 C1494 1.327 . S
C1495 C1499 1.429 . S
C1496 C1479 1.574 . S
C1496 H1490 0.949 . S
C1496 C1500 1.368 . S
C1497 C1478 1.429 . S
C1497 C1491 1.429 . S
C1497 C1498 1.523 . S
C1498 C1479 1.368 . S
C1498 C1492 1.368 . S
C1498 C1497 1.523 . S
C1499 C1483 1.429 . S
C1499 C1495 1.429 . S
C1499 C1500 1.523 . S
C1500 C1484 1.368 . S
C1500 C1496 1.368 . S
C1500 C1499 1.523 . S
H1501 C1476 0.950 . S
H1502 C1478 0.950 . S
H1503 C1479 0.949 . S
H1504 C1481 0.950 . S
H1505 C1483 0.950 . S
C1506 C1507 1.349 . S
C1506 C1508 1.327 . S
C1506 H1531 0.950 . S
C1507 C1506 1.349 . S
C1507 C1523 1.349 . S
C1508 C1506 1.327 . S
C1508 C1527 1.429 . S
C1508 H1532 0.950 . S
C1509 C1526 1.574 . S
C1509 C1528 1.368 . S
C1509 H1533 0.949 . S
H1510 C1514 0.949 . S
C1511 C1512 1.349 . S
C1511 C1513 1.327 . S
C1511 H1534 0.950 . S
C1512 C1511 1.349 . S
C1512 C1524 1.349 . S
C1513 C1511 1.327 . S
C1513 C1529 1.429 . S
C1513 H1535 0.950 . S
C1514 H1510 0.949 . S
C1514 C1522 1.574 . S
C1514 C1530 1.368 . S
H1515 C1523 0.950 . S
H1516 C1521 0.950 . S
H1517 C1522 0.949 . S
H1518 C1524 0.950 . S
H1519 C1525 0.950 . S
H1520 C1526 0.949 . S
C1521 H1516 0.950 . S
C1521 C1523 1.327 . S
C1521 C1527 1.429 . S
C1522 C1514 1.574 . S
C1522 H1517 0.949 . S
C1522 C1528 1.368 . S
C1523 C1507 1.349 . S
C1523 H1515 0.950 . S
C1523 C1521 1.327 . S
C1524 C1512 1.349 . S
C1524 H1518 0.950 . S
C1524 C1525 1.327 . S
C1525 H1519 0.950 . S
C1525 C1524 1.327 . S
C1525 C1529 1.429 . S
C1526 C1509 1.574 . S
C1526 H1520 0.949 . S
C1526 C1530 1.368 . S
C1527 C1508 1.429 . S
C1527 C1521 1.429 . S
C1527 C1528 1.523 . S
C1528 C1509 1.368 . S
C1528 C1522 1.368 . S
C1528 C1527 1.523 . S
C1529 C1513 1.429 . S
C1529 C1525 1.429 . S
C1529 C1530 1.523 . S
C1530 C1514 1.368 . S
C1530 C1526 1.368 . S
C1530 C1529 1.523 . S
H1531 C1506 0.950 . S
H1532 C1508 0.950 . S
H1533 C1509 0.949 . S
H1534 C1511 0.950 . S
H1535 C1513 0.950 . S
C1536 C1537 1.349 . S
C1536 C1538 1.327 . S
C1536 H1561 0.950 . S
C1537 C1536 1.349 . S
C1537 C1553 1.349 . S
C1538 C1536 1.327 . S
C1538 C1557 1.429 . S
C1538 H1562 0.950 . S
C1539 C1556 1.574 . S
C1539 C1558 1.368 . S
C1539 H1563 0.949 . S
H1540 C1544 0.949 . S
C1541 C1542 1.349 . S
C1541 C1543 1.327 . S
C1541 H1564 0.950 . S
C1542 C1541 1.349 . S
C1542 C1554 1.349 . S
C1543 C1541 1.327 . S
C1543 C1559 1.429 . S
C1543 H1565 0.950 . S
C1544 H1540 0.949 . S
C1544 C1552 1.574 . S
C1544 C1560 1.368 . S
H1545 C1553 0.950 . S
H1546 C1551 0.950 . S
H1547 C1552 0.949 . S
H1548 C1554 0.950 . S
H1549 C1555 0.950 . S
H1550 C1556 0.949 . S
C1551 H1546 0.950 . S
C1551 C1553 1.327 . S
C1551 C1557 1.429 . S
C1552 C1544 1.574 . S
C1552 H1547 0.949 . S
C1552 C1558 1.368 . S
C1553 C1537 1.349 . S
C1553 H1545 0.950 . S
C1553 C1551 1.327 . S
C1554 C1542 1.349 . S
C1554 H1548 0.950 . S
C1554 C1555 1.327 . S
C1555 H1549 0.950 . S
C1555 C1554 1.327 . S
C1555 C1559 1.429 . S
C1556 C1539 1.574 . S
C1556 H1550 0.949 . S
C1556 C1560 1.368 . S
C1557 C1538 1.429 . S
C1557 C1551 1.429 . S
C1557 C1558 1.523 . S
C1558 C1539 1.368 . S
C1558 C1552 1.368 . S
C1558 C1557 1.523 . S
C1559 C1543 1.429 . S
C1559 C1555 1.429 . S
C1559 C1560 1.523 . S
C1560 C1544 1.368 . S
C1560 C1556 1.368 . S
C1560 C1559 1.523 . S
H1561 C1536 0.950 . S
H1562 C1538 0.950 . S
H1563 C1539 0.949 . S
H1564 C1541 0.950 . S
H1565 C1543 0.950 . S
C1566 C1567 1.349 . S
C1566 C1568 1.327 . S
C1566 H1591 0.950 . S
C1567 C1566 1.349 . S
C1567 C1583 1.349 . S
C1568 C1566 1.327 . S
C1568 C1587 1.429 . S
C1568 H1592 0.950 . S
C1569 C1586 1.574 . S
C1569 C1588 1.368 . S
C1569 H1593 0.949 . S
H1570 C1574 0.949 . S
C1571 C1572 1.349 . S
C1571 C1573 1.327 . S
C1571 H1594 0.950 . S
C1572 C1571 1.349 . S
C1572 C1584 1.349 . S
C1573 C1571 1.327 . S
C1573 C1589 1.429 . S
C1573 H1595 0.950 . S
C1574 H1570 0.949 . S
C1574 C1582 1.574 . S
C1574 C1590 1.368 . S
H1575 C1583 0.950 . S
H1576 C1581 0.950 . S
H1577 C1582 0.949 . S
H1578 C1584 0.950 . S
H1579 C1585 0.950 . S
H1580 C1586 0.949 . S
C1581 H1576 0.950 . S
C1581 C1583 1.327 . S
C1581 C1587 1.429 . S
C1582 C1574 1.574 . S
C1582 H1577 0.949 . S
C1582 C1588 1.368 . S
C1583 C1567 1.349 . S
C1583 H1575 0.950 . S
C1583 C1581 1.327 . S
C1584 C1572 1.349 . S
C1584 H1578 0.950 . S
C1584 C1585 1.327 . S
C1585 H1579 0.950 . S
C1585 C1584 1.327 . S
C1585 C1589 1.429 . S
C1586 C1569 1.574 . S
C1586 H1580 0.949 . S
C1586 C1590 1.368 . S
C1587 C1568 1.429 . S
C1587 C1581 1.429 . S
C1587 C1588 1.523 . S
C1588 C1569 1.368 . S
C1588 C1582 1.368 . S
C1588 C1587 1.523 . S
C1589 C1573 1.429 . S
C1589 C1585 1.429 . S
C1589 C1590 1.523 . S
C1590 C1574 1.368 . S
C1590 C1586 1.368 . S
C1590 C1589 1.523 . S
H1591 C1566 0.950 . S
H1592 C1568 0.950 . S
H1593 C1569 0.949 . S
H1594 C1571 0.950 . S
H1595 C1573 0.950 . S
C1596 C1597 1.349 . S
C1596 C1598 1.327 . S
C1596 H1621 0.950 . S
C1597 C1596 1.349 . S
C1597 C1613 1.349 . S
C1598 C1596 1.327 . S
C1598 C1617 1.429 . S
C1598 H1622 0.950 . S
C1599 C1616 1.574 . S
C1599 C1618 1.368 . S
C1599 H1623 0.949 . S
H1600 C1604 0.949 . S
C1601 C1602 1.349 . S
C1601 C1603 1.327 . S
C1601 H1624 0.950 . S
C1602 C1601 1.349 . S
C1602 C1614 1.349 . S
C1603 C1601 1.327 . S
C1603 C1619 1.429 . S
C1603 H1625 0.950 . S
C1604 H1600 0.949 . S
C1604 C1612 1.574 . S
C1604 C1620 1.368 . S
H1605 C1613 0.950 . S
H1606 C1611 0.950 . S
H1607 C1612 0.949 . S
H1608 C1614 0.950 . S
H1609 C1615 0.950 . S
H1610 C1616 0.949 . S
C1611 H1606 0.950 . S
C1611 C1613 1.327 . S
C1611 C1617 1.429 . S
C1612 C1604 1.574 . S
C1612 H1607 0.949 . S
C1612 C1618 1.368 . S
C1613 C1597 1.349 . S
C1613 H1605 0.950 . S
C1613 C1611 1.327 . S
C1614 C1602 1.349 . S
C1614 H1608 0.950 . S
C1614 C1615 1.327 . S
C1615 H1609 0.950 . S
C1615 C1614 1.327 . S
C1615 C1619 1.429 . S
C1616 C1599 1.574 . S
C1616 H1610 0.949 . S
C1616 C1620 1.368 . S
C1617 C1598 1.429 . S
C1617 C1611 1.429 . S
C1617 C1618 1.523 . S
C1618 C1599 1.368 . S
C1618 C1612 1.368 . S
C1618 C1617 1.523 . S
C1619 C1603 1.429 . S
C1619 C1615 1.429 . S
C1619 C1620 1.523 . S
C1620 C1604 1.368 . S
C1620 C1616 1.368 . S
C1620 C1619 1.523 . S
H1621 C1596 0.950 . S
H1622 C1598 0.950 . S
H1623 C1599 0.949 . S
H1624 C1601 0.950 . S
H1625 C1603 0.950 . S
C1626 C1627 1.349 . S
C1626 C1628 1.327 . S
C1626 H1651 0.950 . S
C1627 C1626 1.349 . S
C1627 C1643 1.349 . S
C1628 C1626 1.327 . S
C1628 C1647 1.429 . S
C1628 H1652 0.950 . S
C1629 C1646 1.574 . S
C1629 C1648 1.368 . S
C1629 H1653 0.949 . S
H1630 C1634 0.949 . S
C1631 C1632 1.349 . S
C1631 C1633 1.327 . S
C1631 H1654 0.950 . S
C1632 C1631 1.349 . S
C1632 C1644 1.349 . S
C1633 C1631 1.327 . S
C1633 C1649 1.429 . S
C1633 H1655 0.950 . S
C1634 H1630 0.949 . S
C1634 C1642 1.574 . S
C1634 C1650 1.368 . S
H1635 C1643 0.950 . S
H1636 C1641 0.950 . S
H1637 C1642 0.949 . S
H1638 C1644 0.950 . S
H1639 C1645 0.950 . S
H1640 C1646 0.949 . S
C1641 H1636 0.950 . S
C1641 C1643 1.327 . S
C1641 C1647 1.429 . S
C1642 C1634 1.574 . S
C1642 H1637 0.949 . S
C1642 C1648 1.368 . S
C1643 C1627 1.349 . S
C1643 H1635 0.950 . S
C1643 C1641 1.327 . S
C1644 C1632 1.349 . S
C1644 H1638 0.950 . S
C1644 C1645 1.327 . S
C1645 H1639 0.950 . S
C1645 C1644 1.327 . S
C1645 C1649 1.429 . S
C1646 C1629 1.574 . S
C1646 H1640 0.949 . S
C1646 C1650 1.368 . S
C1647 C1628 1.429 . S
C1647 C1641 1.429 . S
C1647 C1648 1.523 . S
C1648 C1629 1.368 . S
C1648 C1642 1.368 . S
C1648 C1647 1.523 . S
C1649 C1633 1.429 . S
C1649 C1645 1.429 . S
C1649 C1650 1.523 . S
C1650 C1634 1.368 . S
C1650 C1646 1.368 . S
C1650 C1649 1.523 . S
H1651 C1626 0.950 . S
H1652 C1628 0.950 . S
H1653 C1629 0.949 . S
H1654 C1631 0.950 . S
H1655 C1633 0.950 . S
C1656 C1657 1.349 . S
C1656 C1658 1.327 . S
C1656 H1681 0.950 . S
C1657 C1656 1.349 . S
C1657 C1673 1.349 . S
C1658 C1656 1.327 . S
C1658 C1677 1.429 . S
C1658 H1682 0.950 . S
C1659 C1676 1.574 . S
C1659 C1678 1.368 . S
C1659 H1683 0.949 . S
H1660 C1664 0.949 . S
C1661 C1662 1.349 . S
C1661 C1663 1.327 . S
C1661 H1684 0.950 . S
C1662 C1661 1.349 . S
C1662 C1674 1.349 . S
C1663 C1661 1.327 . S
C1663 C1679 1.429 . S
C1663 H1685 0.950 . S
C1664 H1660 0.949 . S
C1664 C1672 1.574 . S
C1664 C1680 1.368 . S
H1665 C1673 0.950 . S
H1666 C1671 0.950 . S
H1667 C1672 0.949 . S
H1668 C1674 0.950 . S
H1669 C1675 0.950 . S
H1670 C1676 0.949 . S
C1671 H1666 0.950 . S
C1671 C1673 1.327 . S
C1671 C1677 1.429 . S
C1672 C1664 1.574 . S
C1672 H1667 0.949 . S
C1672 C1678 1.368 . S
C1673 C1657 1.349 . S
C1673 H1665 0.950 . S
C1673 C1671 1.327 . S
C1674 C1662 1.349 . S
C1674 H1668 0.950 . S
C1674 C1675 1.327 . S
C1675 H1669 0.950 . S
C1675 C1674 1.327 . S
C1675 C1679 1.429 . S
C1676 C1659 1.574 . S
C1676 H1670 0.949 . S
C1676 C1680 1.368 . S
C1677 C1658 1.429 . S
C1677 C1671 1.429 . S
C1677 C1678 1.523 . S
C1678 C1659 1.368 . S
C1678 C1672 1.368 . S
C1678 C1677 1.523 . S
C1679 C1663 1.429 . S
C1679 C1675 1.429 . S
C1679 C1680 1.523 . S
C1680 C1664 1.368 . S
C1680 C1676 1.368 . S
C1680 C1679 1.523 . S
H1681 C1656 0.950 . S
H1682 C1658 0.950 . S
H1683 C1659 0.949 . S
H1684 C1661 0.950 . S
H1685 C1663 0.950 . S
C1686 C1687 1.349 . S
C1686 C1688 1.327 . S
C1686 H1711 0.950 . S
C1687 C1686 1.349 . S
C1687 C1703 1.349 . S
C1688 C1686 1.327 . S
C1688 C1707 1.429 . S
C1688 H1712 0.950 . S
C1689 C1706 1.574 . S
C1689 C1708 1.368 . S
C1689 H1713 0.949 . S
H1690 C1694 0.949 . S
C1691 C1692 1.349 . S
C1691 C1693 1.327 . S
C1691 H1714 0.950 . S
C1692 C1691 1.349 . S
C1692 C1704 1.349 . S
C1693 C1691 1.327 . S
C1693 C1709 1.429 . S
C1693 H1715 0.950 . S
C1694 H1690 0.949 . S
C1694 C1702 1.574 . S
C1694 C1710 1.368 . S
H1695 C1703 0.950 . S
H1696 C1701 0.950 . S
H1697 C1702 0.949 . S
H1698 C1704 0.950 . S
H1699 C1705 0.950 . S
H1700 C1706 0.949 . S
C1701 H1696 0.950 . S
C1701 C1703 1.327 . S
C1701 C1707 1.429 . S
C1702 C1694 1.574 . S
C1702 H1697 0.949 . S
C1702 C1708 1.368 . S
C1703 C1687 1.349 . S
C1703 H1695 0.950 . S
C1703 C1701 1.327 . S
C1704 C1692 1.349 . S
C1704 H1698 0.950 . S
C1704 C1705 1.327 . S
C1705 H1699 0.950 . S
C1705 C1704 1.327 . S
C1705 C1709 1.429 . S
C1706 C1689 1.574 . S
C1706 H1700 0.949 . S
C1706 C1710 1.368 . S
C1707 C1688 1.429 . S
C1707 C1701 1.429 . S
C1707 C1708 1.523 . S
C1708 C1689 1.368 . S
C1708 C1702 1.368 . S
C1708 C1707 1.523 . S
C1709 C1693 1.429 . S
C1709 C1705 1.429 . S
C1709 C1710 1.523 . S
C1710 C1694 1.368 . S
C1710 C1706 1.368 . S
C1710 C1709 1.523 . S
H1711 C1686 0.950 . S
H1712 C1688 0.950 . S
H1713 C1689 0.949 . S
H1714 C1691 0.950 . S
H1715 C1693 0.950 . S
C1716 C1717 1.349 . S
C1716 C1718 1.327 . S
C1716 H1741 0.950 . S
C1717 C1716 1.349 . S
C1717 C1733 1.349 . S
C1718 C1716 1.327 . S
C1718 C1737 1.429 . S
C1718 H1742 0.950 . S
C1719 C1736 1.574 . S
C1719 C1738 1.368 . S
C1719 H1743 0.949 . S
H1720 C1724 0.949 . S
C1721 C1722 1.349 . S
C1721 C1723 1.327 . S
C1721 H1744 0.950 . S
C1722 C1721 1.349 . S
C1722 C1734 1.349 . S
C1723 C1721 1.327 . S
C1723 C1739 1.429 . S
C1723 H1745 0.950 . S
C1724 H1720 0.949 . S
C1724 C1732 1.574 . S
C1724 C1740 1.368 . S
H1725 C1733 0.950 . S
H1726 C1731 0.950 . S
H1727 C1732 0.949 . S
H1728 C1734 0.950 . S
H1729 C1735 0.950 . S
H1730 C1736 0.949 . S
C1731 H1726 0.950 . S
C1731 C1733 1.327 . S
C1731 C1737 1.429 . S
C1732 C1724 1.574 . S
C1732 H1727 0.949 . S
C1732 C1738 1.368 . S
C1733 C1717 1.349 . S
C1733 H1725 0.950 . S
C1733 C1731 1.327 . S
C1734 C1722 1.349 . S
C1734 H1728 0.950 . S
C1734 C1735 1.327 . S
C1735 H1729 0.950 . S
C1735 C1734 1.327 . S
C1735 C1739 1.429 . S
C1736 C1719 1.574 . S
C1736 H1730 0.949 . S
C1736 C1740 1.368 . S
C1737 C1718 1.429 . S
C1737 C1731 1.429 . S
C1737 C1738 1.523 . S
C1738 C1719 1.368 . S
C1738 C1732 1.368 . S
C1738 C1737 1.523 . S
C1739 C1723 1.429 . S
C1739 C1735 1.429 . S
C1739 C1740 1.523 . S
C1740 C1724 1.368 . S
C1740 C1736 1.368 . S
C1740 C1739 1.523 . S
H1741 C1716 0.950 . S
H1742 C1718 0.950 . S
H1743 C1719 0.949 . S
H1744 C1721 0.950 . S
H1745 C1723 0.950 . S
C1746 C1747 1.349 . S
C1746 C1748 1.327 . S
C1746 H1771 0.950 . S
C1747 C1746 1.349 . S
C1747 C1763 1.349 . S
C1748 C1746 1.327 . S
C1748 C1767 1.429 . S
C1748 H1772 0.950 . S
C1749 C1766 1.574 . S
C1749 C1768 1.368 . S
C1749 H1773 0.949 . S
H1750 C1754 0.949 . S
C1751 C1752 1.349 . S
C1751 C1753 1.327 . S
C1751 H1774 0.950 . S
C1752 C1751 1.349 . S
C1752 C1764 1.349 . S
C1753 C1751 1.327 . S
C1753 C1769 1.429 . S
C1753 H1775 0.950 . S
C1754 H1750 0.949 . S
C1754 C1762 1.574 . S
C1754 C1770 1.368 . S
H1755 C1763 0.950 . S
H1756 C1761 0.950 . S
H1757 C1762 0.949 . S
H1758 C1764 0.950 . S
H1759 C1765 0.950 . S
H1760 C1766 0.949 . S
C1761 H1756 0.950 . S
C1761 C1763 1.327 . S
C1761 C1767 1.429 . S
C1762 C1754 1.574 . S
C1762 H1757 0.949 . S
C1762 C1768 1.368 . S
C1763 C1747 1.349 . S
C1763 H1755 0.950 . S
C1763 C1761 1.327 . S
C1764 C1752 1.349 . S
C1764 H1758 0.950 . S
C1764 C1765 1.327 . S
C1765 H1759 0.950 . S
C1765 C1764 1.327 . S
C1765 C1769 1.429 . S
C1766 C1749 1.574 . S
C1766 H1760 0.949 . S
C1766 C1770 1.368 . S
C1767 C1748 1.429 . S
C1767 C1761 1.429 . S
C1767 C1768 1.523 . S
C1768 C1749 1.368 . S
C1768 C1762 1.368 . S
C1768 C1767 1.523 . S
C1769 C1753 1.429 . S
C1769 C1765 1.429 . S
C1769 C1770 1.523 . S
C1770 C1754 1.368 . S
C1770 C1766 1.368 . S
C1770 C1769 1.523 . S
H1771 C1746 0.950 . S
H1772 C1748 0.950 . S
H1773 C1749 0.949 . S
H1774 C1751 0.950 . S
H1775 C1753 0.950 . S
C1776 C1777 1.349 . S
C1776 C1778 1.327 . S
C1776 H1801 0.950 . S
C1777 C1776 1.349 . S
C1777 C1793 1.349 . S
C1778 C1776 1.327 . S
C1778 C1797 1.429 . S
C1778 H1802 0.950 . S
C1779 C1796 1.574 . S
C1779 C1798 1.368 . S
C1779 H1803 0.949 . S
H1780 C1784 0.949 . S
C1781 C1782 1.349 . S
C1781 C1783 1.327 . S
C1781 H1804 0.950 . S
C1782 C1781 1.349 . S
C1782 C1794 1.349 . S
C1783 C1781 1.327 . S
C1783 C1799 1.429 . S
C1783 H1805 0.950 . S
C1784 H1780 0.949 . S
C1784 C1792 1.574 . S
C1784 C1800 1.368 . S
H1785 C1793 0.950 . S
H1786 C1791 0.950 . S
H1787 C1792 0.949 . S
H1788 C1794 0.950 . S
H1789 C1795 0.950 . S
H1790 C1796 0.949 . S
C1791 H1786 0.950 . S
C1791 C1793 1.327 . S
C1791 C1797 1.429 . S
C1792 C1784 1.574 . S
C1792 H1787 0.949 . S
C1792 C1798 1.368 . S
C1793 C1777 1.349 . S
C1793 H1785 0.950 . S
C1793 C1791 1.327 . S
C1794 C1782 1.349 . S
C1794 H1788 0.950 . S
C1794 C1795 1.327 . S
C1795 H1789 0.950 . S
C1795 C1794 1.327 . S
C1795 C1799 1.429 . S
C1796 C1779 1.574 . S
C1796 H1790 0.949 . S
C1796 C1800 1.368 . S
C1797 C1778 1.429 . S
C1797 C1791 1.429 . S
C1797 C1798 1.523 . S
C1798 C1779 1.368 . S
C1798 C1792 1.368 . S
C1798 C1797 1.523 . S
C1799 C1783 1.429 . S
C1799 C1795 1.429 . S
C1799 C1800 1.523 . S
C1800 C1784 1.368 . S
C1800 C1796 1.368 . S
C1800 C1799 1.523 . S
H1801 C1776 0.950 . S
H1802 C1778 0.950 . S
H1803 C1779 0.949 . S
H1804 C1781 0.950 . S
H1805 C1783 0.950 . S
C1806 C1807 1.349 . S
C1806 C1808 1.327 . S
C1806 H1831 0.950 . S
C1807 C1806 1.349 . S
C1807 C1823 1.349 . S
C1808 C1806 1.327 . S
C1808 C1827 1.429 . S
C1808 H1832 0.950 . S
C1809 C1826 1.574 . S
C1809 C1828 1.368 . S
C1809 H1833 0.949 . S
H1810 C1814 0.949 . S
C1811 C1812 1.349 . S
C1811 C1813 1.327 . S
C1811 H1834 0.950 . S
C1812 C1811 1.349 . S
C1812 C1824 1.349 . S
C1813 C1811 1.327 . S
C1813 C1829 1.429 . S
C1813 H1835 0.950 . S
C1814 H1810 0.949 . S
C1814 C1822 1.574 . S
C1814 C1830 1.368 . S
H1815 C1823 0.950 . S
H1816 C1821 0.950 . S
H1817 C1822 0.949 . S
H1818 C1824 0.950 . S
H1819 C1825 0.950 . S
H1820 C1826 0.949 . S
C1821 H1816 0.950 . S
C1821 C1823 1.327 . S
C1821 C1827 1.429 . S
C1822 C1814 1.574 . S
C1822 H1817 0.949 . S
C1822 C1828 1.368 . S
C1823 C1807 1.349 . S
C1823 H1815 0.950 . S
C1823 C1821 1.327 . S
C1824 C1812 1.349 . S
C1824 H1818 0.950 . S
C1824 C1825 1.327 . S
C1825 H1819 0.950 . S
C1825 C1824 1.327 . S
C1825 C1829 1.429 . S
C1826 C1809 1.574 . S
C1826 H1820 0.949 . S
C1826 C1830 1.368 . S
C1827 C1808 1.429 . S
C1827 C1821 1.429 . S
C1827 C1828 1.523 . S
C1828 C1809 1.368 . S
C1828 C1822 1.368 . S
C1828 C1827 1.523 . S
C1829 C1813 1.429 . S
C1829 C1825 1.429 . S
C1829 C1830 1.523 . S
C1830 C1814 1.368 . S
C1830 C1826 1.368 . S
C1830 C1829 1.523 . S
H1831 C1806 0.950 . S
H1832 C1808 0.950 . S
H1833 C1809 0.949 . S
H1834 C1811 0.950 . S
H1835 C1813 0.950 . S
C1836 C1837 1.349 . S
C1836 C1838 1.327 . S
C1836 H1861 0.950 . S
C1837 C1836 1.349 . S
C1837 C1853 1.349 . S
C1838 C1836 1.327 . S
C1838 C1857 1.429 . S
C1838 H1862 0.950 . S
C1839 C1856 1.574 . S
C1839 C1858 1.368 . S
C1839 H1863 0.949 . S
H1840 C1844 0.949 . S
C1841 C1842 1.349 . S
C1841 C1843 1.327 . S
C1841 H1864 0.950 . S
C1842 C1841 1.349 . S
C1842 C1854 1.349 . S
C1843 C1841 1.327 . S
C1843 C1859 1.429 . S
C1843 H1865 0.950 . S
C1844 H1840 0.949 . S
C1844 C1852 1.574 . S
C1844 C1860 1.368 . S
H1845 C1853 0.950 . S
H1846 C1851 0.950 . S
H1847 C1852 0.949 . S
H1848 C1854 0.950 . S
H1849 C1855 0.950 . S
H1850 C1856 0.949 . S
C1851 H1846 0.950 . S
C1851 C1853 1.327 . S
C1851 C1857 1.429 . S
C1852 C1844 1.574 . S
C1852 H1847 0.949 . S
C1852 C1858 1.368 . S
C1853 C1837 1.349 . S
C1853 H1845 0.950 . S
C1853 C1851 1.327 . S
C1854 C1842 1.349 . S
C1854 H1848 0.950 . S
C1854 C1855 1.327 . S
C1855 H1849 0.950 . S
C1855 C1854 1.327 . S
C1855 C1859 1.429 . S
C1856 C1839 1.574 . S
C1856 H1850 0.949 . S
C1856 C1860 1.368 . S
C1857 C1838 1.429 . S
C1857 C1851 1.429 . S
C1857 C1858 1.523 . S
C1858 C1839 1.368 . S
C1858 C1852 1.368 . S
C1858 C1857 1.523 . S
C1859 C1843 1.429 . S
C1859 C1855 1.429 . S
C1859 C1860 1.523 . S
C1860 C1844 1.368 . S
C1860 C1856 1.368 . S
C1860 C1859 1.523 . S
H1861 C1836 0.950 . S
H1862 C1838 0.950 . S
H1863 C1839 0.949 . S
H1864 C1841 0.950 . S
H1865 C1843 0.950 . S
C1866 C1867 1.349 . S
C1866 C1868 1.327 . S
C1866 H1891 0.950 . S
C1867 C1866 1.349 . S
C1867 C1883 1.349 . S
C1868 C1866 1.327 . S
C1868 C1887 1.429 . S
C1868 H1892 0.950 . S
C1869 C1886 1.574 . S
C1869 C1888 1.368 . S
C1869 H1893 0.949 . S
H1870 C1874 0.949 . S
C1871 C1872 1.349 . S
C1871 C1873 1.327 . S
C1871 H1894 0.950 . S
C1872 C1871 1.349 . S
C1872 C1884 1.349 . S
C1873 C1871 1.327 . S
C1873 C1889 1.429 . S
C1873 H1895 0.950 . S
C1874 H1870 0.949 . S
C1874 C1882 1.574 . S
C1874 C1890 1.368 . S
H1875 C1883 0.950 . S
H1876 C1881 0.950 . S
H1877 C1882 0.949 . S
H1878 C1884 0.950 . S
H1879 C1885 0.950 . S
H1880 C1886 0.949 . S
C1881 H1876 0.950 . S
C1881 C1883 1.327 . S
C1881 C1887 1.429 . S
C1882 C1874 1.574 . S
C1882 H1877 0.949 . S
C1882 C1888 1.368 . S
C1883 C1867 1.349 . S
C1883 H1875 0.950 . S
C1883 C1881 1.327 . S
C1884 C1872 1.349 . S
C1884 H1878 0.950 . S
C1884 C1885 1.327 . S
C1885 H1879 0.950 . S
C1885 C1884 1.327 . S
C1885 C1889 1.429 . S
C1886 C1869 1.574 . S
C1886 H1880 0.949 . S
C1886 C1890 1.368 . S
C1887 C1868 1.429 . S
C1887 C1881 1.429 . S
C1887 C1888 1.523 . S
C1888 C1869 1.368 . S
C1888 C1882 1.368 . S
C1888 C1887 1.523 . S
C1889 C1873 1.429 . S
C1889 C1885 1.429 . S
C1889 C1890 1.523 . S
C1890 C1874 1.368 . S
C1890 C1886 1.368 . S
C1890 C1889 1.523 . S
H1891 C1866 0.950 . S
H1892 C1868 0.950 . S
H1893 C1869 0.949 . S
H1894 C1871 0.950 . S
H1895 C1873 0.950 . S
C1896 C1897 1.349 . S
C1896 C1898 1.327 . S
C1896 H1921 0.950 . S
C1897 C1896 1.349 . S
C1897 C1913 1.349 . S
C1898 C1896 1.327 . S
C1898 C1917 1.429 . S
C1898 H1922 0.950 . S
C1899 C1916 1.574 . S
C1899 C1918 1.368 . S
C1899 H1923 0.949 . S
H1900 C1904 0.949 . S
C1901 C1902 1.349 . S
C1901 C1903 1.327 . S
C1901 H1924 0.950 . S
C1902 C1901 1.349 . S
C1902 C1914 1.349 . S
C1903 C1901 1.327 . S
C1903 C1919 1.429 . S
C1903 H1925 0.950 . S
C1904 H1900 0.949 . S
C1904 C1912 1.574 . S
C1904 C1920 1.368 . S
H1905 C1913 0.950 . S
H1906 C1911 0.950 . S
H1907 C1912 0.949 . S
H1908 C1914 0.950 . S
H1909 C1915 0.950 . S
H1910 C1916 0.949 . S
C1911 H1906 0.950 . S
C1911 C1913 1.327 . S
C1911 C1917 1.429 . S
C1912 C1904 1.574 . S
C1912 H1907 0.949 . S
C1912 C1918 1.368 . S
C1913 C1897 1.349 . S
C1913 H1905 0.950 . S
C1913 C1911 1.327 . S
C1914 C1902 1.349 . S
C1914 H1908 0.950 . S
C1914 C1915 1.327 . S
C1915 H1909 0.950 . S
C1915 C1914 1.327 . S
C1915 C1919 1.429 . S
C1916 C1899 1.574 . S
C1916 H1910 0.949 . S
C1916 C1920 1.368 . S
C1917 C1898 1.429 . S
C1917 C1911 1.429 . S
C1917 C1918 1.523 . S
C1918 C1899 1.368 . S
C1918 C1912 1.368 . S
C1918 C1917 1.523 . S
C1919 C1903 1.429 . S
C1919 C1915 1.429 . S
C1919 C1920 1.523 . S
C1920 C1904 1.368 . S
C1920 C1916 1.368 . S
C1920 C1919 1.523 . S
H1921 C1896 0.950 . S
H1922 C1898 0.950 . S
H1923 C1899 0.949 . S
H1924 C1901 0.950 . S
H1925 C1903 0.950 . S
C1926 C1927 1.349 . S
C1926 C1928 1.327 . S
C1926 H1951 0.950 . S
C1927 C1926 1.349 . S
C1927 C1943 1.349 . S
C1928 C1926 1.327 . S
C1928 C1947 1.429 . S
C1928 H1952 0.950 . S
C1929 C1946 1.574 . S
C1929 C1948 1.368 . S
C1929 H1953 0.949 . S
H1930 C1934 0.949 . S
C1931 C1932 1.349 . S
C1931 C1933 1.327 . S
C1931 H1954 0.950 . S
C1932 C1931 1.349 . S
C1932 C1944 1.349 . S
C1933 C1931 1.327 . S
C1933 C1949 1.429 . S
C1933 H1955 0.950 . S
C1934 H1930 0.949 . S
C1934 C1942 1.574 . S
C1934 C1950 1.368 . S
H1935 C1943 0.950 . S
H1936 C1941 0.950 . S
H1937 C1942 0.949 . S
H1938 C1944 0.950 . S
H1939 C1945 0.950 . S
H1940 C1946 0.949 . S
C1941 H1936 0.950 . S
C1941 C1943 1.327 . S
C1941 C1947 1.429 . S
C1942 C1934 1.574 . S
C1942 H1937 0.949 . S
C1942 C1948 1.368 . S
C1943 C1927 1.349 . S
C1943 H1935 0.950 . S
C1943 C1941 1.327 . S
C1944 C1932 1.349 . S
C1944 H1938 0.950 . S
C1944 C1945 1.327 . S
C1945 H1939 0.950 . S
C1945 C1944 1.327 . S
C1945 C1949 1.429 . S
C1946 C1929 1.574 . S
C1946 H1940 0.949 . S
C1946 C1950 1.368 . S
C1947 C1928 1.429 . S
C1947 C1941 1.429 . S
C1947 C1948 1.523 . S
C1948 C1929 1.368 . S
C1948 C1942 1.368 . S
C1948 C1947 1.523 . S
C1949 C1933 1.429 . S
C1949 C1945 1.429 . S
C1949 C1950 1.523 . S
C1950 C1934 1.368 . S
C1950 C1946 1.368 . S
C1950 C1949 1.523 . S
H1951 C1926 0.950 . S
H1952 C1928 0.950 . S
H1953 C1929 0.949 . S
H1954 C1931 0.950 . S
H1955 C1933 0.950 . S
C1956 C1957 1.349 . S
C1956 C1958 1.327 . S
C1956 H1981 0.950 . S
C1957 C1956 1.349 . S
C1957 C1973 1.349 . S
C1958 C1956 1.327 . S
C1958 C1977 1.429 . S
C1958 H1982 0.950 . S
C1959 C1976 1.574 . S
C1959 C1978 1.368 . S
C1959 H1983 0.949 . S
H1960 C1964 0.949 . S
C1961 C1962 1.349 . S
C1961 C1963 1.327 . S
C1961 H1984 0.950 . S
C1962 C1961 1.349 . S
C1962 C1974 1.349 . S
C1963 C1961 1.327 . S
C1963 C1979 1.429 . S
C1963 H1985 0.950 . S
C1964 H1960 0.949 . S
C1964 C1972 1.574 . S
C1964 C1980 1.368 . S
H1965 C1973 0.950 . S
H1966 C1971 0.950 . S
H1967 C1972 0.949 . S
H1968 C1974 0.950 . S
H1969 C1975 0.950 . S
H1970 C1976 0.949 . S
C1971 H1966 0.950 . S
C1971 C1973 1.327 . S
C1971 C1977 1.429 . S
C1972 C1964 1.574 . S
C1972 H1967 0.949 . S
C1972 C1978 1.368 . S
C1973 C1957 1.349 . S
C1973 H1965 0.950 . S
C1973 C1971 1.327 . S
C1974 C1962 1.349 . S
C1974 H1968 0.950 . S
C1974 C1975 1.327 . S
C1975 H1969 0.950 . S
C1975 C1974 1.327 . S
C1975 C1979 1.429 . S
C1976 C1959 1.574 . S
C1976 H1970 0.949 . S
C1976 C1980 1.368 . S
C1977 C1958 1.429 . S
C1977 C1971 1.429 . S
C1977 C1978 1.523 . S
C1978 C1959 1.368 . S
C1978 C1972 1.368 . S
C1978 C1977 1.523 . S
C1979 C1963 1.429 . S
C1979 C1975 1.429 . S
C1979 C1980 1.523 . S
C1980 C1964 1.368 . S
C1980 C1976 1.368 . S
C1980 C1979 1.523 . S
H1981 C1956 0.950 . S
H1982 C1958 0.950 . S
H1983 C1959 0.949 . S
H1984 C1961 0.950 . S
H1985 C1963 0.950 . S
C1986 C1987 1.349 . S
C1986 C1988 1.327 . S
C1986 H2011 0.950 . S
C1987 C1986 1.349 . S
C1987 C2003 1.349 . S
C1988 C1986 1.327 . S
C1988 C2007 1.429 . S
C1988 H2012 0.950 . S
C1989 C2006 1.574 . S
C1989 C2008 1.368 . S
C1989 H2013 0.949 . S
H1990 C1994 0.949 . S
C1991 C1992 1.349 . S
C1991 C1993 1.327 . S
C1991 H2014 0.950 . S
C1992 C1991 1.349 . S
C1992 C2004 1.349 . S
C1993 C1991 1.327 . S
C1993 C2009 1.429 . S
C1993 H2015 0.950 . S
C1994 H1990 0.949 . S
C1994 C2002 1.574 . S
C1994 C2010 1.368 . S
H1995 C2003 0.950 . S
H1996 C2001 0.950 . S
H1997 C2002 0.949 . S
H1998 C2004 0.950 . S
H1999 C2005 0.950 . S
H2000 C2006 0.949 . S
C2001 H1996 0.950 . S
C2001 C2003 1.327 . S
C2001 C2007 1.429 . S
C2002 C1994 1.574 . S
C2002 H1997 0.949 . S
C2002 C2008 1.368 . S
C2003 C1987 1.349 . S
C2003 H1995 0.950 . S
C2003 C2001 1.327 . S
C2004 C1992 1.349 . S
C2004 H1998 0.950 . S
C2004 C2005 1.327 . S
C2005 H1999 0.950 . S
C2005 C2004 1.327 . S
C2005 C2009 1.429 . S
C2006 C1989 1.574 . S
C2006 H2000 0.949 . S
C2006 C2010 1.368 . S
C2007 C1988 1.429 . S
C2007 C2001 1.429 . S
C2007 C2008 1.523 . S
C2008 C1989 1.368 . S
C2008 C2002 1.368 . S
C2008 C2007 1.523 . S
C2009 C1993 1.429 . S
C2009 C2005 1.429 . S
C2009 C2010 1.523 . S
C2010 C1994 1.368 . S
C2010 C2006 1.368 . S
C2010 C2009 1.523 . S
H2011 C1986 0.950 . S
H2012 C1988 0.950 . S
H2013 C1989 0.949 . S
H2014 C1991 0.950 . S
H2015 C1993 0.950 . S
C2016 C2017 1.349 . S
C2016 C2018 1.327 . S
C2016 H2041 0.950 . S
C2017 C2016 1.349 . S
C2017 C2033 1.349 . S
C2018 C2016 1.327 . S
C2018 C2037 1.429 . S
C2018 H2042 0.950 . S
C2019 C2036 1.574 . S
C2019 C2038 1.368 . S
C2019 H2043 0.949 . S
H2020 C2024 0.949 . S
C2021 C2022 1.349 . S
C2021 C2023 1.327 . S
C2021 H2044 0.950 . S
C2022 C2021 1.349 . S
C2022 C2034 1.349 . S
C2023 C2021 1.327 . S
C2023 C2039 1.429 . S
C2023 H2045 0.950 . S
C2024 H2020 0.949 . S
C2024 C2032 1.574 . S
C2024 C2040 1.368 . S
H2025 C2033 0.950 . S
H2026 C2031 0.950 . S
H2027 C2032 0.949 . S
H2028 C2034 0.950 . S
H2029 C2035 0.950 . S
H2030 C2036 0.949 . S
C2031 H2026 0.950 . S
C2031 C2033 1.327 . S
C2031 C2037 1.429 . S
C2032 C2024 1.574 . S
C2032 H2027 0.949 . S
C2032 C2038 1.368 . S
C2033 C2017 1.349 . S
C2033 H2025 0.950 . S
C2033 C2031 1.327 . S
C2034 C2022 1.349 . S
C2034 H2028 0.950 . S
C2034 C2035 1.327 . S
C2035 H2029 0.950 . S
C2035 C2034 1.327 . S
C2035 C2039 1.429 . S
C2036 C2019 1.574 . S
C2036 H2030 0.949 . S
C2036 C2040 1.368 . S
C2037 C2018 1.429 . S
C2037 C2031 1.429 . S
C2037 C2038 1.523 . S
C2038 C2019 1.368 . S
C2038 C2032 1.368 . S
C2038 C2037 1.523 . S
C2039 C2023 1.429 . S
C2039 C2035 1.429 . S
C2039 C2040 1.523 . S
C2040 C2024 1.368 . S
C2040 C2036 1.368 . S
C2040 C2039 1.523 . S
H2041 C2016 0.950 . S
H2042 C2018 0.950 . S
H2043 C2019 0.949 . S
H2044 C2021 0.950 . S
H2045 C2023 0.950 . S
C2046 C2047 1.349 . S
C2046 C2048 1.327 . S
C2046 H2071 0.950 . S
C2047 C2046 1.349 . S
C2047 C2063 1.349 . S
C2048 C2046 1.327 . S
C2048 C2067 1.429 . S
C2048 H2072 0.950 . S
C2049 C2066 1.574 . S
C2049 C2068 1.368 . S
C2049 H2073 0.949 . S
H2050 C2054 0.949 . S
C2051 C2052 1.349 . S
C2051 C2053 1.327 . S
C2051 H2074 0.950 . S
C2052 C2051 1.349 . S
C2052 C2064 1.349 . S
C2053 C2051 1.327 . S
C2053 C2069 1.429 . S
C2053 H2075 0.950 . S
C2054 H2050 0.949 . S
C2054 C2062 1.574 . S
C2054 C2070 1.368 . S
H2055 C2063 0.950 . S
H2056 C2061 0.950 . S
H2057 C2062 0.949 . S
H2058 C2064 0.950 . S
H2059 C2065 0.950 . S
H2060 C2066 0.949 . S
C2061 H2056 0.950 . S
C2061 C2063 1.327 . S
C2061 C2067 1.429 . S
C2062 C2054 1.574 . S
C2062 H2057 0.949 . S
C2062 C2068 1.368 . S
C2063 C2047 1.349 . S
C2063 H2055 0.950 . S
C2063 C2061 1.327 . S
C2064 C2052 1.349 . S
C2064 H2058 0.950 . S
C2064 C2065 1.327 . S
C2065 H2059 0.950 . S
C2065 C2064 1.327 . S
C2065 C2069 1.429 . S
C2066 C2049 1.574 . S
C2066 H2060 0.949 . S
C2066 C2070 1.368 . S
C2067 C2048 1.429 . S
C2067 C2061 1.429 . S
C2067 C2068 1.523 . S
C2068 C2049 1.368 . S
C2068 C2062 1.368 . S
C2068 C2067 1.523 . S
C2069 C2053 1.429 . S
C2069 C2065 1.429 . S
C2069 C2070 1.523 . S
C2070 C2054 1.368 . S
C2070 C2066 1.368 . S
C2070 C2069 1.523 . S
H2071 C2046 0.950 . S
H2072 C2048 0.950 . S
H2073 C2049 0.949 . S
H2074 C2051 0.950 . S
H2075 C2053 0.950 . S
C2076 C2077 1.349 . S
C2076 C2078 1.327 . S
C2076 H2101 0.950 . S
C2077 C2076 1.349 . S
C2077 C2093 1.349 . S
C2078 C2076 1.327 . S
C2078 C2097 1.429 . S
C2078 H2102 0.950 . S
C2079 C2096 1.574 . S
C2079 C2098 1.368 . S
C2079 H2103 0.949 . S
H2080 C2084 0.949 . S
C2081 C2082 1.349 . S
C2081 C2083 1.327 . S
C2081 H2104 0.950 . S
C2082 C2081 1.349 . S
C2082 C2094 1.349 . S
C2083 C2081 1.327 . S
C2083 C2099 1.429 . S
C2083 H2105 0.950 . S
C2084 H2080 0.949 . S
C2084 C2092 1.574 . S
C2084 C2100 1.368 . S
H2085 C2093 0.950 . S
H2086 C2091 0.950 . S
H2087 C2092 0.949 . S
H2088 C2094 0.950 . S
H2089 C2095 0.950 . S
H2090 C2096 0.949 . S
C2091 H2086 0.950 . S
C2091 C2093 1.327 . S
C2091 C2097 1.429 . S
C2092 C2084 1.574 . S
C2092 H2087 0.949 . S
C2092 C2098 1.368 . S
C2093 C2077 1.349 . S
C2093 H2085 0.950 . S
C2093 C2091 1.327 . S
C2094 C2082 1.349 . S
C2094 H2088 0.950 . S
C2094 C2095 1.327 . S
C2095 H2089 0.950 . S
C2095 C2094 1.327 . S
C2095 C2099 1.429 . S
C2096 C2079 1.574 . S
C2096 H2090 0.949 . S
C2096 C2100 1.368 . S
C2097 C2078 1.429 . S
C2097 C2091 1.429 . S
C2097 C2098 1.523 . S
C2098 C2079 1.368 . S
C2098 C2092 1.368 . S
C2098 C2097 1.523 . S
C2099 C2083 1.429 . S
C2099 C2095 1.429 . S
C2099 C2100 1.523 . S
C2100 C2084 1.368 . S
C2100 C2096 1.368 . S
C2100 C2099 1.523 . S
H2101 C2076 0.950 . S
H2102 C2078 0.950 . S
H2103 C2079 0.949 . S
H2104 C2081 0.950 . S
H2105 C2083 0.950 . S
C2106 C2107 1.349 . S
C2106 C2108 1.327 . S
C2106 H2131 0.950 . S
C2107 C2106 1.349 . S
C2107 C2123 1.349 . S
C2108 C2106 1.327 . S
C2108 C2127 1.429 . S
C2108 H2132 0.950 . S
C2109 C2126 1.574 . S
C2109 C2128 1.368 . S
C2109 H2133 0.949 . S
H2110 C2114 0.949 . S
C2111 C2112 1.349 . S
C2111 C2113 1.327 . S
C2111 H2134 0.950 . S
C2112 C2111 1.349 . S
C2112 C2124 1.349 . S
C2113 C2111 1.327 . S
C2113 C2129 1.429 . S
C2113 H2135 0.950 . S
C2114 H2110 0.949 . S
C2114 C2122 1.574 . S
C2114 C2130 1.368 . S
H2115 C2123 0.950 . S
H2116 C2121 0.950 . S
H2117 C2122 0.949 . S
H2118 C2124 0.950 . S
H2119 C2125 0.950 . S
H2120 C2126 0.949 . S
C2121 H2116 0.950 . S
C2121 C2123 1.327 . S
C2121 C2127 1.429 . S
C2122 C2114 1.574 . S
C2122 H2117 0.949 . S
C2122 C2128 1.368 . S
C2123 C2107 1.349 . S
C2123 H2115 0.950 . S
C2123 C2121 1.327 . S
C2124 C2112 1.349 . S
C2124 H2118 0.950 . S
C2124 C2125 1.327 . S
C2125 H2119 0.950 . S
C2125 C2124 1.327 . S
C2125 C2129 1.429 . S
C2126 C2109 1.574 . S
C2126 H2120 0.949 . S
C2126 C2130 1.368 . S
C2127 C2108 1.429 . S
C2127 C2121 1.429 . S
C2127 C2128 1.523 . S
C2128 C2109 1.368 . S
C2128 C2122 1.368 . S
C2128 C2127 1.523 . S
C2129 C2113 1.429 . S
C2129 C2125 1.429 . S
C2129 C2130 1.523 . S
C2130 C2114 1.368 . S
C2130 C2126 1.368 . S
C2130 C2129 1.523 . S
H2131 C2106 0.950 . S
H2132 C2108 0.950 . S
H2133 C2109 0.949 . S
H2134 C2111 0.950 . S
H2135 C2113 0.950 . S
C2136 C2137 1.349 . S
C2136 C2138 1.327 . S
C2136 H2161 0.950 . S
C2137 C2136 1.349 . S
C2137 C2153 1.349 . S
C2138 C2136 1.327 . S
C2138 C2157 1.429 . S
C2138 H2162 0.950 . S
C2139 C2156 1.574 . S
C2139 C2158 1.368 . S
C2139 H2163 0.949 . S
H2140 C2144 0.949 . S
C2141 C2142 1.349 . S
C2141 C2143 1.327 . S
C2141 H2164 0.950 . S
C2142 C2141 1.349 . S
C2142 C2154 1.349 . S
C2143 C2141 1.327 . S
C2143 C2159 1.429 . S
C2143 H2165 0.950 . S
C2144 H2140 0.949 . S
C2144 C2152 1.574 . S
C2144 C2160 1.368 . S
H2145 C2153 0.950 . S
H2146 C2151 0.950 . S
H2147 C2152 0.949 . S
H2148 C2154 0.950 . S
H2149 C2155 0.950 . S
H2150 C2156 0.949 . S
C2151 H2146 0.950 . S
C2151 C2153 1.327 . S
C2151 C2157 1.429 . S
C2152 C2144 1.574 . S
C2152 H2147 0.949 . S
C2152 C2158 1.368 . S
C2153 C2137 1.349 . S
C2153 H2145 0.950 . S
C2153 C2151 1.327 . S
C2154 C2142 1.349 . S
C2154 H2148 0.950 . S
C2154 C2155 1.327 . S
C2155 H2149 0.950 . S
C2155 C2154 1.327 . S
C2155 C2159 1.429 . S
C2156 C2139 1.574 . S
C2156 H2150 0.949 . S
C2156 C2160 1.368 . S
C2157 C2138 1.429 . S
C2157 C2151 1.429 . S
C2157 C2158 1.523 . S
C2158 C2139 1.368 . S
C2158 C2152 1.368 . S
C2158 C2157 1.523 . S
C2159 C2143 1.429 . S
C2159 C2155 1.429 . S
C2159 C2160 1.523 . S
C2160 C2144 1.368 . S
C2160 C2156 1.368 . S
C2160 C2159 1.523 . S
H2161 C2136 0.950 . S
H2162 C2138 0.950 . S
H2163 C2139 0.949 . S
H2164 C2141 0.950 . S
H2165 C2143 0.950 . S
C2166 C2167 1.349 . S
C2166 C2168 1.327 . S
C2166 H2191 0.950 . S
C2167 C2166 1.349 . S
C2167 C2183 1.349 . S
C2168 C2166 1.327 . S
C2168 C2187 1.429 . S
C2168 H2192 0.950 . S
C2169 C2186 1.574 . S
C2169 C2188 1.368 . S
C2169 H2193 0.949 . S
H2170 C2174 0.949 . S
C2171 C2172 1.349 . S
C2171 C2173 1.327 . S
C2171 H2194 0.950 . S
C2172 C2171 1.349 . S
C2172 C2184 1.349 . S
C2173 C2171 1.327 . S
C2173 C2189 1.429 . S
C2173 H2195 0.950 . S
C2174 H2170 0.949 . S
C2174 C2182 1.574 . S
C2174 C2190 1.368 . S
H2175 C2183 0.950 . S
H2176 C2181 0.950 . S
H2177 C2182 0.949 . S
H2178 C2184 0.950 . S
H2179 C2185 0.950 . S
H2180 C2186 0.949 . S
C2181 H2176 0.950 . S
C2181 C2183 1.327 . S
C2181 C2187 1.429 . S
C2182 C2174 1.574 . S
C2182 H2177 0.949 . S
C2182 C2188 1.368 . S
C2183 C2167 1.349 . S
C2183 H2175 0.950 . S
C2183 C2181 1.327 . S
C2184 C2172 1.349 . S
C2184 H2178 0.950 . S
C2184 C2185 1.327 . S
C2185 H2179 0.950 . S
C2185 C2184 1.327 . S
C2185 C2189 1.429 . S
C2186 C2169 1.574 . S
C2186 H2180 0.949 . S
C2186 C2190 1.368 . S
C2187 C2168 1.429 . S
C2187 C2181 1.429 . S
C2187 C2188 1.523 . S
C2188 C2169 1.368 . S
C2188 C2182 1.368 . S
C2188 C2187 1.523 . S
C2189 C2173 1.429 . S
C2189 C2185 1.429 . S
C2189 C2190 1.523 . S
C2190 C2174 1.368 . S
C2190 C2186 1.368 . S
C2190 C2189 1.523 . S
H2191 C2166 0.950 . S
H2192 C2168 0.950 . S
H2193 C2169 0.949 . S
H2194 C2171 0.950 . S
H2195 C2173 0.950 . S
C2196 C2197 1.349 . S
C2196 C2198 1.327 . S
C2196 H2221 0.950 1_556 S
C2197 C2196 1.349 . S
C2197 C2213 1.349 . S
C2198 C2196 1.327 . S
C2198 C2217 1.429 . S
C2198 H2222 0.950 . S
C2199 C2216 1.574 . S
C2199 C2218 1.368 . S
C2199 H2223 0.949 . S
H2200 C2204 0.949 . S
C2201 C2202 1.349 . S
C2201 C2203 1.327 . S
C2201 H2224 0.950 . S
C2202 C2201 1.349 . S
C2202 C2214 1.349 . S
C2203 C2201 1.327 . S
C2203 C2219 1.429 . S
C2203 H2225 0.950 . S
C2204 H2200 0.949 . S
C2204 C2212 1.574 . S
C2204 C2220 1.368 . S
H2205 C2213 0.950 . S
H2206 C2211 0.950 . S
H2207 C2212 0.949 . S
H2208 C2214 0.950 . S
H2209 C2215 0.950 . S
H2210 C2216 0.949 . S
C2211 H2206 0.950 . S
C2211 C2213 1.327 . S
C2211 C2217 1.429 . S
C2212 C2204 1.574 . S
C2212 H2207 0.949 . S
C2212 C2218 1.368 . S
C2213 C2197 1.349 . S
C2213 H2205 0.950 . S
C2213 C2211 1.327 . S
C2214 C2202 1.349 . S
C2214 H2208 0.950 . S
C2214 C2215 1.327 . S
C2215 H2209 0.950 . S
C2215 C2214 1.327 . S
C2215 C2219 1.429 . S
C2216 C2199 1.574 . S
C2216 H2210 0.949 . S
C2216 C2220 1.368 . S
C2217 C2198 1.429 . S
C2217 C2211 1.429 . S
C2217 C2218 1.523 . S
C2218 C2199 1.368 . S
C2218 C2212 1.368 . S
C2218 C2217 1.523 . S
C2219 C2203 1.429 . S
C2219 C2215 1.429 . S
C2219 C2220 1.523 . S
C2220 C2204 1.368 . S
C2220 C2216 1.368 . S
C2220 C2219 1.523 . S
H2221 C2196 0.950 1_554 S
H2222 C2198 0.950 . S
H2223 C2199 0.949 . S
H2224 C2201 0.950 . S
H2225 C2203 0.950 . S
C2226 C2227 1.349 . S
C2226 C2228 1.327 . S
C2226 H2251 0.950 1_556 S
C2227 C2226 1.349 . S
C2227 C2243 1.349 . S
C2228 C2226 1.327 . S
C2228 C2247 1.429 . S
C2228 H2252 0.950 . S
C2229 C2246 1.574 . S
C2229 C2248 1.368 . S
C2229 H2253 0.949 . S
H2230 C2234 0.949 . S
C2231 C2232 1.349 . S
C2231 C2233 1.327 . S
C2231 H2254 0.950 . S
C2232 C2231 1.349 . S
C2232 C2244 1.349 . S
C2233 C2231 1.327 . S
C2233 C2249 1.429 . S
C2233 H2255 0.950 . S
C2234 H2230 0.949 . S
C2234 C2242 1.574 . S
C2234 C2250 1.368 . S
H2235 C2243 0.950 . S
H2236 C2241 0.950 . S
H2237 C2242 0.949 . S
H2238 C2244 0.950 . S
H2239 C2245 0.950 . S
H2240 C2246 0.949 . S
C2241 H2236 0.950 . S
C2241 C2243 1.327 . S
C2241 C2247 1.429 . S
C2242 C2234 1.574 . S
C2242 H2237 0.949 . S
C2242 C2248 1.368 . S
C2243 C2227 1.349 . S
C2243 H2235 0.950 . S
C2243 C2241 1.327 . S
C2244 C2232 1.349 . S
C2244 H2238 0.950 . S
C2244 C2245 1.327 . S
C2245 H2239 0.950 . S
C2245 C2244 1.327 . S
C2245 C2249 1.429 . S
C2246 C2229 1.574 . S
C2246 H2240 0.949 . S
C2246 C2250 1.368 . S
C2247 C2228 1.429 . S
C2247 C2241 1.429 . S
C2247 C2248 1.523 . S
C2248 C2229 1.368 . S
C2248 C2242 1.368 . S
C2248 C2247 1.523 . S
C2249 C2233 1.429 . S
C2249 C2245 1.429 . S
C2249 C2250 1.523 . S
C2250 C2234 1.368 . S
C2250 C2246 1.368 . S
C2250 C2249 1.523 . S
H2251 C2226 0.950 1_554 S
H2252 C2228 0.950 . S
H2253 C2229 0.949 . S
H2254 C2231 0.950 . S
H2255 C2233 0.950 . S
C2256 C2257 1.349 . S
C2256 C2258 1.327 . S
C2256 H2281 0.950 1_556 S
C2257 C2256 1.349 . S
C2257 C2273 1.349 . S
C2258 C2256 1.327 . S
C2258 C2277 1.429 . S
C2258 H2282 0.950 . S
C2259 C2276 1.574 . S
C2259 C2278 1.368 . S
C2259 H2283 0.949 . S
H2260 C2264 0.949 . S
C2261 C2262 1.349 . S
C2261 C2263 1.327 . S
C2261 H2284 0.950 . S
C2262 C2261 1.349 . S
C2262 C2274 1.349 . S
C2263 C2261 1.327 . S
C2263 C2279 1.429 . S
C2263 H2285 0.950 . S
C2264 H2260 0.949 . S
C2264 C2272 1.574 . S
C2264 C2280 1.368 . S
H2265 C2273 0.950 . S
H2266 C2271 0.950 . S
H2267 C2272 0.949 . S
H2268 C2274 0.950 . S
H2269 C2275 0.950 . S
H2270 C2276 0.949 . S
C2271 H2266 0.950 . S
C2271 C2273 1.327 . S
C2271 C2277 1.429 . S
C2272 C2264 1.574 . S
C2272 H2267 0.949 . S
C2272 C2278 1.368 . S
C2273 C2257 1.349 . S
C2273 H2265 0.950 . S
C2273 C2271 1.327 . S
C2274 C2262 1.349 . S
C2274 H2268 0.950 . S
C2274 C2275 1.327 . S
C2275 H2269 0.950 . S
C2275 C2274 1.327 . S
C2275 C2279 1.429 . S
C2276 C2259 1.574 . S
C2276 H2270 0.949 . S
C2276 C2280 1.368 . S
C2277 C2258 1.429 . S
C2277 C2271 1.429 . S
C2277 C2278 1.523 . S
C2278 C2259 1.368 . S
C2278 C2272 1.368 . S
C2278 C2277 1.523 . S
C2279 C2263 1.429 . S
C2279 C2275 1.429 . S
C2279 C2280 1.523 . S
C2280 C2264 1.368 . S
C2280 C2276 1.368 . S
C2280 C2279 1.523 . S
H2281 C2256 0.950 1_554 S
H2282 C2258 0.950 . S
H2283 C2259 0.949 . S
H2284 C2261 0.950 . S
H2285 C2263 0.950 . S
C2286 C2287 1.349 . S
C2286 C2288 1.327 . S
C2286 H2311 0.950 . S
C2287 C2286 1.349 . S
C2287 C2303 1.349 . S
C2288 C2286 1.327 . S
C2288 C2307 1.429 . S
C2288 H2312 0.950 . S
C2289 C2306 1.574 . S
C2289 C2308 1.368 . S
C2289 H2313 0.949 . S
H2290 C2294 0.949 . S
C2291 C2292 1.349 . S
C2291 C2293 1.327 . S
C2291 H2314 0.950 . S
C2292 C2291 1.349 . S
C2292 C2304 1.349 . S
C2293 C2291 1.327 . S
C2293 C2309 1.429 . S
C2293 H2315 0.950 . S
C2294 H2290 0.949 . S
C2294 C2302 1.574 . S
C2294 C2310 1.368 . S
H2295 C2303 0.950 . S
H2296 C2301 0.950 . S
H2297 C2302 0.949 . S
H2298 C2304 0.950 . S
H2299 C2305 0.950 . S
H2300 C2306 0.949 . S
C2301 H2296 0.950 . S
C2301 C2303 1.327 . S
C2301 C2307 1.429 . S
C2302 C2294 1.574 . S
C2302 H2297 0.949 . S
C2302 C2308 1.368 . S
C2303 C2287 1.349 . S
C2303 H2295 0.950 . S
C2303 C2301 1.327 . S
C2304 C2292 1.349 . S
C2304 H2298 0.950 . S
C2304 C2305 1.327 . S
C2305 H2299 0.950 . S
C2305 C2304 1.327 . S
C2305 C2309 1.429 . S
C2306 C2289 1.574 . S
C2306 H2300 0.949 . S
C2306 C2310 1.368 . S
C2307 C2288 1.429 . S
C2307 C2301 1.429 . S
C2307 C2308 1.523 . S
C2308 C2289 1.368 . S
C2308 C2302 1.368 . S
C2308 C2307 1.523 . S
C2309 C2293 1.429 . S
C2309 C2305 1.429 . S
C2309 C2310 1.523 . S
C2310 C2294 1.368 . S
C2310 C2306 1.368 . S
C2310 C2309 1.523 . S
H2311 C2286 0.950 . S
H2312 C2288 0.950 . S
H2313 C2289 0.949 . S
H2314 C2291 0.950 . S
H2315 C2293 0.950 . S
C2316 C2317 1.349 . S
C2316 C2318 1.327 . S
C2316 H2341 0.950 . S
C2317 C2316 1.349 . S
C2317 C2333 1.349 . S
C2318 C2316 1.327 . S
C2318 C2337 1.429 . S
C2318 H2342 0.950 . S
C2319 C2336 1.574 . S
C2319 C2338 1.368 . S
C2319 H2343 0.949 . S
H2320 C2324 0.949 . S
C2321 C2322 1.349 . S
C2321 C2323 1.327 . S
C2321 H2344 0.950 . S
C2322 C2321 1.349 . S
C2322 C2334 1.349 . S
C2323 C2321 1.327 . S
C2323 C2339 1.429 . S
C2323 H2345 0.950 . S
C2324 H2320 0.949 . S
C2324 C2332 1.574 . S
C2324 C2340 1.368 . S
H2325 C2333 0.950 1_554 S
H2326 C2331 0.950 . S
H2327 C2332 0.949 . S
H2328 C2334 0.950 . S
H2329 C2335 0.950 . S
H2330 C2336 0.949 . S
C2331 H2326 0.950 . S
C2331 C2333 1.327 . S
C2331 C2337 1.429 . S
C2332 C2324 1.574 . S
C2332 H2327 0.949 . S
C2332 C2338 1.368 . S
C2333 C2317 1.349 . S
C2333 H2325 0.950 1_556 S
C2333 C2331 1.327 . S
C2334 C2322 1.349 . S
C2334 H2328 0.950 . S
C2334 C2335 1.327 . S
C2335 H2329 0.950 . S
C2335 C2334 1.327 . S
C2335 C2339 1.429 . S
C2336 C2319 1.574 . S
C2336 H2330 0.949 . S
C2336 C2340 1.368 . S
C2337 C2318 1.429 . S
C2337 C2331 1.429 . S
C2337 C2338 1.523 . S
C2338 C2319 1.368 . S
C2338 C2332 1.368 . S
C2338 C2337 1.523 . S
C2339 C2323 1.429 . S
C2339 C2335 1.429 . S
C2339 C2340 1.523 . S
C2340 C2324 1.368 . S
C2340 C2336 1.368 . S
C2340 C2339 1.523 . S
H2341 C2316 0.950 . S
H2342 C2318 0.950 . S
H2343 C2319 0.949 . S
H2344 C2321 0.950 . S
H2345 C2323 0.950 . S
C2346 C2347 1.349 . S
C2346 C2348 1.327 . S
C2346 H2371 0.950 1_556 S
C2347 C2346 1.349 . S
C2347 C2363 1.349 . S
C2348 C2346 1.327 . S
C2348 C2367 1.429 . S
C2348 H2372 0.950 . S
C2349 C2366 1.574 . S
C2349 C2368 1.368 . S
C2349 H2373 0.949 . S
H2350 C2354 0.949 . S
C2351 C2352 1.349 . S
C2351 C2353 1.327 . S
C2351 H2374 0.950 . S
C2352 C2351 1.349 . S
C2352 C2364 1.349 . S
C2353 C2351 1.327 . S
C2353 C2369 1.429 . S
C2353 H2375 0.950 . S
C2354 H2350 0.949 . S
C2354 C2362 1.574 . S
C2354 C2370 1.368 . S
H2355 C2363 0.950 . S
H2356 C2361 0.950 . S
H2357 C2362 0.949 . S
H2358 C2364 0.950 . S
H2359 C2365 0.950 . S
H2360 C2366 0.949 . S
C2361 H2356 0.950 . S
C2361 C2363 1.327 . S
C2361 C2367 1.429 . S
C2362 C2354 1.574 . S
C2362 H2357 0.949 . S
C2362 C2368 1.368 . S
C2363 C2347 1.349 . S
C2363 H2355 0.950 . S
C2363 C2361 1.327 . S
C2364 C2352 1.349 . S
C2364 H2358 0.950 . S
C2364 C2365 1.327 . S
C2365 H2359 0.950 . S
C2365 C2364 1.327 . S
C2365 C2369 1.429 . S
C2366 C2349 1.574 . S
C2366 H2360 0.949 . S
C2366 C2370 1.368 . S
C2367 C2348 1.429 . S
C2367 C2361 1.429 . S
C2367 C2368 1.523 . S
C2368 C2349 1.368 . S
C2368 C2362 1.368 . S
C2368 C2367 1.523 . S
C2369 C2353 1.429 . S
C2369 C2365 1.429 . S
C2369 C2370 1.523 . S
C2370 C2354 1.368 . S
C2370 C2366 1.368 . S
C2370 C2369 1.523 . S
H2371 C2346 0.950 1_554 S
H2372 C2348 0.950 . S
H2373 C2349 0.949 . S
H2374 C2351 0.950 . S
H2375 C2353 0.950 . S
C2376 C2377 1.349 . S
C2376 C2378 1.327 . S
C2376 H2401 0.950 . S
C2377 C2376 1.349 . S
C2377 C2393 1.349 . S
C2378 C2376 1.327 . S
C2378 C2397 1.429 . S
C2378 H2402 0.950 . S
C2379 C2396 1.574 . S
C2379 C2398 1.368 . S
C2379 H2403 0.949 . S
H2380 C2384 0.949 . S
C2381 C2382 1.349 . S
C2381 C2383 1.327 . S
C2381 H2404 0.950 . S
C2382 C2381 1.349 . S
C2382 C2394 1.349 . S
C2383 C2381 1.327 . S
C2383 C2399 1.429 . S
C2383 H2405 0.950 . S
C2384 H2380 0.949 . S
C2384 C2392 1.574 . S
C2384 C2400 1.368 . S
H2385 C2393 0.950 . S
H2386 C2391 0.950 . S
H2387 C2392 0.949 . S
H2388 C2394 0.950 . S
H2389 C2395 0.950 . S
H2390 C2396 0.949 . S
C2391 H2386 0.950 . S
C2391 C2393 1.327 . S
C2391 C2397 1.429 . S
C2392 C2384 1.574 . S
C2392 H2387 0.949 . S
C2392 C2398 1.368 . S
C2393 C2377 1.349 . S
C2393 H2385 0.950 . S
C2393 C2391 1.327 . S
C2394 C2382 1.349 . S
C2394 H2388 0.950 . S
C2394 C2395 1.327 . S
C2395 H2389 0.950 . S
C2395 C2394 1.327 . S
C2395 C2399 1.429 . S
C2396 C2379 1.574 . S
C2396 H2390 0.949 . S
C2396 C2400 1.368 . S
C2397 C2378 1.429 . S
C2397 C2391 1.429 . S
C2397 C2398 1.523 . S
C2398 C2379 1.368 . S
C2398 C2392 1.368 . S
C2398 C2397 1.523 . S
C2399 C2383 1.429 . S
C2399 C2395 1.429 . S
C2399 C2400 1.523 . S
C2400 C2384 1.368 . S
C2400 C2396 1.368 . S
C2400 C2399 1.523 . S
H2401 C2376 0.950 . S
H2402 C2378 0.950 . S
H2403 C2379 0.949 . S
H2404 C2381 0.950 . S
H2405 C2383 0.950 . S
C2406 C2407 1.349 . S
C2406 C2408 1.327 . S
C2406 H2431 0.950 . S
C2407 C2406 1.349 . S
C2407 C2423 1.349 . S
C2408 C2406 1.327 . S
C2408 C2427 1.429 . S
C2408 H2432 0.950 . S
C2409 C2426 1.574 . S
C2409 C2428 1.368 . S
C2409 H2433 0.949 . S
H2410 C2414 0.949 . S
C2411 C2412 1.349 . S
C2411 C2413 1.327 . S
C2411 H2434 0.950 . S
C2412 C2411 1.349 . S
C2412 C2424 1.349 . S
C2413 C2411 1.327 . S
C2413 C2429 1.429 . S
C2413 H2435 0.950 . S
C2414 H2410 0.949 . S
C2414 C2422 1.574 . S
C2414 C2430 1.368 . S
H2415 C2423 0.950 . S
H2416 C2421 0.950 . S
H2417 C2422 0.949 . S
H2418 C2424 0.950 . S
H2419 C2425 0.950 . S
H2420 C2426 0.949 . S
C2421 H2416 0.950 . S
C2421 C2423 1.327 . S
C2421 C2427 1.429 . S
C2422 C2414 1.574 . S
C2422 H2417 0.949 . S
C2422 C2428 1.368 . S
C2423 C2407 1.349 . S
C2423 H2415 0.950 . S
C2423 C2421 1.327 . S
C2424 C2412 1.349 . S
C2424 H2418 0.950 . S
C2424 C2425 1.327 . S
C2425 H2419 0.950 . S
C2425 C2424 1.327 . S
C2425 C2429 1.429 . S
C2426 C2409 1.574 . S
C2426 H2420 0.949 . S
C2426 C2430 1.368 . S
C2427 C2408 1.429 . S
C2427 C2421 1.429 . S
C2427 C2428 1.523 . S
C2428 C2409 1.368 . S
C2428 C2422 1.368 . S
C2428 C2427 1.523 . S
C2429 C2413 1.429 . S
C2429 C2425 1.429 . S
C2429 C2430 1.523 . S
C2430 C2414 1.368 . S
C2430 C2426 1.368 . S
C2430 C2429 1.523 . S
H2431 C2406 0.950 . S
H2432 C2408 0.950 . S
H2433 C2409 0.949 . S
H2434 C2411 0.950 . S
H2435 C2413 0.950 . S
C2436 C2437 1.349 . S
C2436 C2438 1.327 . S
C2436 H2461 0.950 . S
C2437 C2436 1.349 . S
C2437 C2453 1.349 . S
C2438 C2436 1.327 . S
C2438 C2457 1.429 . S
C2438 H2462 0.950 . S
C2439 C2456 1.574 . S
C2439 C2458 1.368 . S
C2439 H2463 0.949 . S
H2440 C2444 0.949 . S
C2441 C2442 1.349 . S
C2441 C2443 1.327 . S
C2441 H2464 0.950 . S
C2442 C2441 1.349 . S
C2442 C2454 1.349 . S
C2443 C2441 1.327 . S
C2443 C2459 1.429 . S
C2443 H2465 0.950 . S
C2444 H2440 0.949 . S
C2444 C2452 1.574 . S
C2444 C2460 1.368 . S
H2445 C2453 0.950 . S
H2446 C2451 0.950 . S
H2447 C2452 0.949 . S
H2448 C2454 0.950 . S
H2449 C2455 0.950 . S
H2450 C2456 0.949 . S
C2451 H2446 0.950 . S
C2451 C2453 1.327 . S
C2451 C2457 1.429 . S
C2452 C2444 1.574 . S
C2452 H2447 0.949 . S
C2452 C2458 1.368 . S
C2453 C2437 1.349 . S
C2453 H2445 0.950 . S
C2453 C2451 1.327 . S
C2454 C2442 1.349 . S
C2454 H2448 0.950 . S
C2454 C2455 1.327 . S
C2455 H2449 0.950 . S
C2455 C2454 1.327 . S
C2455 C2459 1.429 . S
C2456 C2439 1.574 . S
C2456 H2450 0.949 . S
C2456 C2460 1.368 . S
C2457 C2438 1.429 . S
C2457 C2451 1.429 . S
C2457 C2458 1.523 . S
C2458 C2439 1.368 . S
C2458 C2452 1.368 . S
C2458 C2457 1.523 . S
C2459 C2443 1.429 . S
C2459 C2455 1.429 . S
C2459 C2460 1.523 . S
C2460 C2444 1.368 . S
C2460 C2456 1.368 . S
C2460 C2459 1.523 . S
H2461 C2436 0.950 . S
H2462 C2438 0.950 . S
H2463 C2439 0.949 . S
H2464 C2441 0.950 . S
H2465 C2443 0.950 . S
C2466 C2467 1.349 . S
C2466 C2468 1.327 . S
C2466 H2491 0.950 . S
C2467 C2466 1.349 . S
C2467 C2483 1.349 . S
C2468 C2466 1.327 . S
C2468 C2487 1.429 . S
C2468 H2492 0.950 . S
C2469 C2486 1.574 . S
C2469 C2488 1.368 . S
C2469 H2493 0.949 . S
H2470 C2474 0.949 . S
C2471 C2472 1.349 . S
C2471 C2473 1.327 . S
C2471 H2494 0.950 . S
C2472 C2471 1.349 . S
C2472 C2484 1.349 . S
C2473 C2471 1.327 . S
C2473 C2489 1.429 . S
C2473 H2495 0.950 . S
C2474 H2470 0.949 . S
C2474 C2482 1.574 . S
C2474 C2490 1.368 . S
H2475 C2483 0.950 . S
H2476 C2481 0.950 . S
H2477 C2482 0.949 . S
H2478 C2484 0.950 . S
H2479 C2485 0.950 . S
H2480 C2486 0.949 . S
C2481 H2476 0.950 . S
C2481 C2483 1.327 . S
C2481 C2487 1.429 . S
C2482 C2474 1.574 . S
C2482 H2477 0.949 . S
C2482 C2488 1.368 . S
C2483 C2467 1.349 . S
C2483 H2475 0.950 . S
C2483 C2481 1.327 . S
C2484 C2472 1.349 . S
C2484 H2478 0.950 . S
C2484 C2485 1.327 . S
C2485 H2479 0.950 . S
C2485 C2484 1.327 . S
C2485 C2489 1.429 . S
C2486 C2469 1.574 . S
C2486 H2480 0.949 . S
C2486 C2490 1.368 . S
C2487 C2468 1.429 . S
C2487 C2481 1.429 . S
C2487 C2488 1.523 . S
C2488 C2469 1.368 . S
C2488 C2482 1.368 . S
C2488 C2487 1.523 . S
C2489 C2473 1.429 . S
C2489 C2485 1.429 . S
C2489 C2490 1.523 . S
C2490 C2474 1.368 . S
C2490 C2486 1.368 . S
C2490 C2489 1.523 . S
H2491 C2466 0.950 . S
H2492 C2468 0.950 . S
H2493 C2469 0.949 . S
H2494 C2471 0.950 . S
H2495 C2473 0.950 . S
C2496 C2497 1.349 . S
C2496 C2498 1.327 . S
C2496 H2521 0.950 . S
C2497 C2496 1.349 . S
C2497 C2513 1.349 . S
C2498 C2496 1.327 . S
C2498 C2517 1.429 . S
C2498 H2522 0.950 . S
C2499 C2516 1.574 . S
C2499 C2518 1.368 . S
C2499 H2523 0.949 . S
H2500 C2504 0.949 . S
C2501 C2502 1.349 . S
C2501 C2503 1.327 . S
C2501 H2524 0.950 . S
C2502 C2501 1.349 . S
C2502 C2514 1.349 . S
C2503 C2501 1.327 . S
C2503 C2519 1.429 . S
C2503 H2525 0.950 . S
C2504 H2500 0.949 . S
C2504 C2512 1.574 . S
C2504 C2520 1.368 . S
H2505 C2513 0.950 . S
H2506 C2511 0.950 . S
H2507 C2512 0.949 . S
H2508 C2514 0.950 . S
H2509 C2515 0.950 . S
H2510 C2516 0.949 . S
C2511 H2506 0.950 . S
C2511 C2513 1.327 . S
C2511 C2517 1.429 . S
C2512 C2504 1.574 . S
C2512 H2507 0.949 . S
C2512 C2518 1.368 . S
C2513 C2497 1.349 . S
C2513 H2505 0.950 . S
C2513 C2511 1.327 . S
C2514 C2502 1.349 . S
C2514 H2508 0.950 . S
C2514 C2515 1.327 . S
C2515 H2509 0.950 . S
C2515 C2514 1.327 . S
C2515 C2519 1.429 . S
C2516 C2499 1.574 . S
C2516 H2510 0.949 . S
C2516 C2520 1.368 . S
C2517 C2498 1.429 . S
C2517 C2511 1.429 . S
C2517 C2518 1.523 . S
C2518 C2499 1.368 . S
C2518 C2512 1.368 . S
C2518 C2517 1.523 . S
C2519 C2503 1.429 . S
C2519 C2515 1.429 . S
C2519 C2520 1.523 . S
C2520 C2504 1.368 . S
C2520 C2516 1.368 . S
C2520 C2519 1.523 . S
H2521 C2496 0.950 . S
H2522 C2498 0.950 . S
H2523 C2499 0.949 . S
H2524 C2501 0.950 . S
H2525 C2503 0.950 . S
C2526 C2527 1.349 . S
C2526 C2528 1.327 . S
C2526 H2551 0.950 . S
C2527 C2526 1.349 . S
C2527 C2543 1.349 . S
C2528 C2526 1.327 . S
C2528 C2547 1.429 . S
C2528 H2552 0.950 . S
C2529 C2546 1.574 . S
C2529 C2548 1.368 . S
C2529 H2553 0.949 . S
H2530 C2534 0.949 . S
C2531 C2532 1.349 . S
C2531 C2533 1.327 . S
C2531 H2554 0.950 . S
C2532 C2531 1.349 . S
C2532 C2544 1.349 . S
C2533 C2531 1.327 . S
C2533 C2549 1.429 . S
C2533 H2555 0.950 . S
C2534 H2530 0.949 . S
C2534 C2542 1.574 . S
C2534 C2550 1.368 . S
H2535 C2543 0.950 . S
H2536 C2541 0.950 . S
H2537 C2542 0.949 . S
H2538 C2544 0.950 . S
H2539 C2545 0.950 . S
H2540 C2546 0.949 . S
C2541 H2536 0.950 . S
C2541 C2543 1.327 . S
C2541 C2547 1.429 . S
C2542 C2534 1.574 . S
C2542 H2537 0.949 . S
C2542 C2548 1.368 . S
C2543 C2527 1.349 . S
C2543 H2535 0.950 . S
C2543 C2541 1.327 . S
C2544 C2532 1.349 . S
C2544 H2538 0.950 . S
C2544 C2545 1.327 . S
C2545 H2539 0.950 . S
C2545 C2544 1.327 . S
C2545 C2549 1.429 . S
C2546 C2529 1.574 . S
C2546 H2540 0.949 . S
C2546 C2550 1.368 . S
C2547 C2528 1.429 . S
C2547 C2541 1.429 . S
C2547 C2548 1.523 . S
C2548 C2529 1.368 . S
C2548 C2542 1.368 . S
C2548 C2547 1.523 . S
C2549 C2533 1.429 . S
C2549 C2545 1.429 . S
C2549 C2550 1.523 . S
C2550 C2534 1.368 . S
C2550 C2546 1.368 . S
C2550 C2549 1.523 . S
H2551 C2526 0.950 . S
H2552 C2528 0.950 . S
H2553 C2529 0.949 . S
H2554 C2531 0.950 . S
H2555 C2533 0.950 . S
C2556 C2557 1.349 . S
C2556 C2558 1.327 . S
C2556 H2581 0.950 . S
C2557 C2556 1.349 . S
C2557 C2573 1.397 . S
C2558 C2556 1.327 . S
C2558 C2577 1.429 . S
C2558 H2582 0.950 . S
C2559 C2576 1.574 . S
C2559 C2578 1.368 1_655 S
C2559 H2583 0.949 . S
H2560 C2564 0.949 . S
C2561 C2562 1.349 1_655 S
C2561 C2563 1.327 . S
C2561 H2584 0.950 . S
C2562 C2561 1.349 1_455 S
C2562 C2574 1.349 . S
C2563 C2561 1.327 . S
C2563 C2579 1.429 1_655 S
C2563 H2585 0.950 . S
C2564 H2560 0.949 . S
C2564 C2572 1.574 . S
C2564 C2580 1.368 . S
H2565 C2573 0.943 1_655 S
H2566 C2571 0.962 . S
H2567 C2572 0.949 . S
H2568 C2574 0.950 . S
H2569 C2575 0.950 . S
H2570 C2576 0.949 . S
C2571 H2566 0.962 . S
C2571 C2573 1.282 1_655 S
C2571 C2577 1.427 1_655 S
C2572 C2564 1.574 . S
C2572 H2567 0.949 . S
C2572 C2578 1.368 . S
C2573 C2557 1.397 . S
C2573 H2565 0.943 1_455 S
C2573 C2571 1.282 1_455 S
C2574 C2562 1.349 . S
C2574 H2568 0.950 . S
C2574 C2575 1.327 . S
C2575 H2569 0.950 . S
C2575 C2574 1.327 . S
C2575 C2579 1.429 . S
C2576 C2559 1.574 . S
C2576 H2570 0.949 . S
C2576 C2580 1.368 1_655 S
C2577 C2558 1.429 . S
C2577 C2571 1.427 1_455 S
C2577 C2578 1.523 . S
C2578 C2559 1.368 1_455 S
C2578 C2572 1.368 . S
C2578 C2577 1.523 . S
C2579 C2563 1.429 1_455 S
C2579 C2575 1.429 . S
C2579 C2580 1.523 . S
C2580 C2564 1.368 . S
C2580 C2576 1.368 1_455 S
C2580 C2579 1.523 . S
H2581 C2556 0.950 . S
H2582 C2558 0.950 . S
H2583 C2559 0.949 . S
H2584 C2561 0.950 . S
H2585 C2563 0.950 . S
C2586 C2587 1.349 . S
C2586 C2588 1.327 . S
C2586 H2611 0.950 . S
C2587 C2586 1.349 . S
C2587 C2603 1.349 . S
C2588 C2586 1.327 . S
C2588 C2607 1.429 . S
C2588 H2612 0.950 . S
C2589 C2606 1.574 . S
C2589 C2608 1.368 . S
C2589 H2613 0.949 . S
H2590 C2594 0.949 . S
C2591 C2592 1.349 . S
C2591 C2593 1.327 . S
C2591 H2614 0.950 . S
C2592 C2591 1.349 . S
C2592 C2604 1.349 . S
C2593 C2591 1.327 . S
C2593 C2609 1.429 . S
C2593 H2615 0.950 . S
C2594 H2590 0.949 . S
C2594 C2602 1.574 . S
C2594 C2610 1.368 . S
H2595 C2603 0.950 . S
H2596 C2601 0.950 . S
H2597 C2602 0.949 . S
H2598 C2604 0.950 . S
H2599 C2605 0.950 . S
H2600 C2606 0.949 . S
C2601 H2596 0.950 . S
C2601 C2603 1.327 . S
C2601 C2607 1.429 . S
C2602 C2594 1.574 . S
C2602 H2597 0.949 . S
C2602 C2608 1.368 . S
C2603 C2587 1.349 . S
C2603 H2595 0.950 . S
C2603 C2601 1.327 . S
C2604 C2592 1.349 . S
C2604 H2598 0.950 . S
C2604 C2605 1.327 . S
C2605 H2599 0.950 . S
C2605 C2604 1.327 . S
C2605 C2609 1.429 . S
C2606 C2589 1.574 . S
C2606 H2600 0.949 . S
C2606 C2610 1.368 . S
C2607 C2588 1.429 . S
C2607 C2601 1.429 . S
C2607 C2608 1.523 . S
C2608 C2589 1.368 . S
C2608 C2602 1.368 . S
C2608 C2607 1.523 . S
C2609 C2593 1.429 . S
C2609 C2605 1.429 . S
C2609 C2610 1.523 . S
C2610 C2594 1.368 . S
C2610 C2606 1.368 . S
C2610 C2609 1.523 . S
H2611 C2586 0.950 . S
H2612 C2588 0.950 . S
H2613 C2589 0.949 . S
H2614 C2591 0.950 . S
H2615 C2593 0.950 . S
C2616 C2617 1.349 . S
C2616 C2618 1.327 . S
C2616 H2641 0.950 . S
C2617 C2616 1.349 . S
C2617 C2633 1.349 . S
C2618 C2616 1.327 . S
C2618 C2637 1.429 . S
C2618 H2642 0.950 . S
C2619 C2636 1.574 . S
C2619 C2638 1.368 1_545 S
C2619 H2643 0.949 . S
H2620 C2624 0.949 . S
C2621 C2622 1.349 1_545 S
C2621 C2623 1.327 . S
C2621 H2644 0.950 . S
C2622 C2621 1.349 1_565 S
C2622 C2634 1.349 . S
C2623 C2621 1.327 . S
C2623 C2639 1.429 1_545 S
C2623 H2645 0.950 . S
C2624 H2620 0.949 . S
C2624 C2632 1.574 . S
C2624 C2640 1.368 . S
H2625 C2633 0.950 1_545 S
H2626 C2631 0.938 1_545 S
H2627 C2632 0.949 . S
H2628 C2634 0.950 . S
H2629 C2635 0.950 . S
H2630 C2636 0.949 . S
C2631 H2626 0.938 1_565 S
C2631 C2633 1.295 . S
C2631 C2637 1.480 . S
C2632 C2624 1.574 . S
C2632 H2627 0.949 . S
C2632 C2638 1.368 . S
C2633 C2617 1.349 . S
C2633 H2625 0.950 1_565 S
C2633 C2631 1.295 . S
C2634 C2622 1.349 . S
C2634 H2628 0.950 . S
C2634 C2635 1.327 . S
C2635 H2629 0.950 . S
C2635 C2634 1.327 . S
C2635 C2639 1.429 . S
C2636 C2619 1.574 . S
C2636 H2630 0.949 . S
C2636 C2640 1.368 1_545 S
C2637 C2618 1.429 . S
C2637 C2631 1.480 . S
C2637 C2638 1.523 . S
C2638 C2619 1.368 1_565 S
C2638 C2632 1.368 . S
C2638 C2637 1.523 . S
C2639 C2623 1.429 1_565 S
C2639 C2635 1.429 . S
C2639 C2640 1.523 . S
C2640 C2624 1.368 . S
C2640 C2636 1.368 1_565 S
C2640 C2639 1.523 . S
H2641 C2616 0.950 . S
H2642 C2618 0.950 . S
H2643 C2619 0.949 . S
H2644 C2621 0.950 . S
H2645 C2623 0.950 . S
C2646 C2647 1.330 1_545 S
C2646 C2648 1.340 . S
C2646 H2671 0.956 . S
C2647 C2646 1.330 1_565 S
C2647 C2663 1.349 . S
C2648 C2646 1.340 . S
C2648 C2667 1.429 1_545 S
C2648 H2672 0.950 . S
C2649 C2666 1.574 . S
C2649 C2668 1.368 . S
C2649 H2673 0.949 . S
H2650 C2654 0.949 . S
C2651 C2652 1.349 . S
C2651 C2653 1.327 . S
C2651 H2674 0.950 . S
C2652 C2651 1.349 . S
C2652 C2664 1.349 1_565 S
C2653 C2651 1.327 . S
C2653 C2669 1.429 . S
C2653 H2675 0.950 . S
C2654 H2650 0.949 . S
C2654 C2662 1.574 . S
C2654 C2670 1.368 1_545 S
H2655 C2663 0.950 . S
H2656 C2661 0.950 . S
H2657 C2662 0.949 . S
H2658 C2664 0.950 . S
H2659 C2665 0.950 . S
H2660 C2666 0.949 . S
C2661 H2656 0.950 . S
C2661 C2663 1.327 . S
C2661 C2667 1.429 . S
C2662 C2654 1.574 . S
C2662 H2657 0.949 . S
C2662 C2668 1.368 1_545 S
C2663 C2647 1.349 . S
C2663 H2655 0.950 . S
C2663 C2661 1.327 . S
C2664 C2652 1.349 1_545 S
C2664 H2658 0.950 . S
C2664 C2665 1.327 . S
C2665 H2659 0.950 . S
C2665 C2664 1.327 . S
C2665 C2669 1.429 1_545 S
C2666 C2649 1.574 . S
C2666 H2660 0.949 . S
C2666 C2670 1.368 . S
C2667 C2648 1.429 1_565 S
C2667 C2661 1.429 . S
C2667 C2668 1.523 . S
C2668 C2649 1.368 . S
C2668 C2662 1.368 1_565 S
C2668 C2667 1.523 . S
C2669 C2653 1.429 . S
C2669 C2665 1.429 1_565 S
C2669 C2670 1.523 . S
C2670 C2654 1.368 1_565 S
C2670 C2666 1.368 . S
C2670 C2669 1.523 . S
H2671 C2646 0.956 . S
H2672 C2648 0.950 . S
H2673 C2649 0.949 . S
H2674 C2651 0.950 . S
H2675 C2653 0.950 . S
C2676 C2677 1.349 . S
C2676 C2678 1.300 . S
C2676 H2701 0.950 1_455 S
C2677 C2676 1.349 . S
C2677 C2693 1.349 . S
C2678 C2676 1.300 . S
C2678 C2697 1.486 . S
C2678 H2702 0.924 1_455 S
C2679 C2696 1.574 . S
C2679 C2698 1.368 . S
C2679 H2703 0.949 . S
H2680 C2684 0.949 . S
C2681 C2682 1.349 . S
C2681 C2683 1.327 . S
C2681 H2704 0.950 . S
C2682 C2681 1.349 . S
C2682 C2694 1.349 1_455 S
C2683 C2681 1.327 . S
C2683 C2699 1.429 . S
C2683 H2705 0.950 . S
C2684 H2680 0.949 . S
C2684 C2692 1.574 . S
C2684 C2700 1.368 1_655 S
H2685 C2693 0.950 . S
H2686 C2691 0.950 . S
H2687 C2692 0.949 . S
H2688 C2694 0.950 . S
H2689 C2695 0.950 . S
H2690 C2696 0.949 . S
C2691 H2686 0.950 . S
C2691 C2693 1.327 . S
C2691 C2697 1.429 . S
C2692 C2684 1.574 . S
C2692 H2687 0.949 . S
C2692 C2698 1.368 1_655 S
C2693 C2677 1.349 . S
C2693 H2685 0.950 . S
C2693 C2691 1.327 . S
C2694 C2682 1.349 1_655 S
C2694 H2688 0.950 . S
C2694 C2695 1.327 . S
C2695 H2689 0.950 . S
C2695 C2694 1.327 . S
C2695 C2699 1.429 1_655 S
C2696 C2679 1.574 . S
C2696 H2690 0.949 . S
C2696 C2700 1.368 . S
C2697 C2678 1.486 . S
C2697 C2691 1.429 . S
C2697 C2698 1.523 . S
C2698 C2679 1.368 . S
C2698 C2692 1.368 1_455 S
C2698 C2697 1.523 . S
C2699 C2683 1.429 . S
C2699 C2695 1.429 1_455 S
C2699 C2700 1.523 . S
C2700 C2684 1.368 1_455 S
C2700 C2696 1.368 . S
C2700 C2699 1.523 . S
H2701 C2676 0.950 1_655 S
H2702 C2678 0.924 1_655 S
H2703 C2679 0.949 . S
H2704 C2681 0.950 . S
H2705 C2683 0.950 . S
C2706 C2707 1.349 . S
C2706 C2708 1.327 . S
C2706 H2731 0.950 . S
C2707 C2706 1.349 . S
C2707 C2723 1.349 . S
C2708 C2706 1.327 . S
C2708 C2727 1.429 . S
C2708 H2732 0.950 . S
C2709 C2726 1.574 . S
C2709 C2728 1.368 . S
C2709 H2733 0.949 . S
H2710 C2714 0.949 . S
C2711 C2712 1.349 . S
C2711 C2713 1.327 . S
C2711 H2734 0.950 . S
C2712 C2711 1.349 . S
C2712 C2724 1.349 . S
C2713 C2711 1.327 . S
C2713 C2729 1.429 . S
C2713 H2735 0.950 . S
C2714 H2710 0.949 . S
C2714 C2722 1.574 . S
C2714 C2730 1.368 . S
H2715 C2723 0.950 . S
H2716 C2721 0.950 . S
H2717 C2722 0.949 . S
H2718 C2724 0.950 . S
H2719 C2725 0.950 . S
H2720 C2726 0.949 . S
C2721 H2716 0.950 . S
C2721 C2723 1.327 . S
C2721 C2727 1.429 . S
C2722 C2714 1.574 . S
C2722 H2717 0.949 . S
C2722 C2728 1.368 . S
C2723 C2707 1.349 . S
C2723 H2715 0.950 . S
C2723 C2721 1.327 . S
C2724 C2712 1.349 . S
C2724 H2718 0.950 . S
C2724 C2725 1.327 . S
C2725 H2719 0.950 . S
C2725 C2724 1.327 . S
C2725 C2729 1.429 . S
C2726 C2709 1.574 . S
C2726 H2720 0.949 . S
C2726 C2730 1.368 . S
C2727 C2708 1.429 . S
C2727 C2721 1.429 . S
C2727 C2728 1.523 . S
C2728 C2709 1.368 . S
C2728 C2722 1.368 . S
C2728 C2727 1.523 . S
C2729 C2713 1.429 . S
C2729 C2725 1.429 . S
C2729 C2730 1.523 . S
C2730 C2714 1.368 . S
C2730 C2726 1.368 . S
C2730 C2729 1.523 . S
H2731 C2706 0.950 . S
H2732 C2708 0.950 . S
H2733 C2709 0.949 . S
H2734 C2711 0.950 . S
H2735 C2713 0.950 . S
C2736 C2737 1.349 . S
C2736 C2738 1.327 . S
C2736 H2761 0.950 . S
C2737 C2736 1.349 . S
C2737 C2753 1.349 . S
C2738 C2736 1.327 . S
C2738 C2757 1.429 . S
C2738 H2762 0.950 . S
C2739 C2756 1.574 . S
C2739 C2758 1.368 . S
C2739 H2763 0.949 . S
H2740 C2744 0.949 . S
C2741 C2742 1.349 . S
C2741 C2743 1.327 . S
C2741 H2764 0.950 . S
C2742 C2741 1.349 . S
C2742 C2754 1.349 . S
C2743 C2741 1.327 . S
C2743 C2759 1.429 . S
C2743 H2765 0.950 . S
C2744 H2740 0.949 . S
C2744 C2752 1.574 . S
C2744 C2760 1.368 . S
H2745 C2753 0.950 . S
H2746 C2751 0.950 . S
H2747 C2752 0.949 . S
H2748 C2754 0.950 . S
H2749 C2755 0.950 . S
H2750 C2756 0.949 . S
C2751 H2746 0.950 . S
C2751 C2753 1.327 . S
C2751 C2757 1.429 . S
C2752 C2744 1.574 . S
C2752 H2747 0.949 . S
C2752 C2758 1.368 . S
C2753 C2737 1.349 . S
C2753 H2745 0.950 . S
C2753 C2751 1.327 . S
C2754 C2742 1.349 . S
C2754 H2748 0.950 . S
C2754 C2755 1.327 . S
C2755 H2749 0.950 . S
C2755 C2754 1.327 . S
C2755 C2759 1.429 . S
C2756 C2739 1.574 . S
C2756 H2750 0.949 . S
C2756 C2760 1.368 . S
C2757 C2738 1.429 . S
C2757 C2751 1.429 . S
C2757 C2758 1.523 . S
C2758 C2739 1.368 . S
C2758 C2752 1.368 . S
C2758 C2757 1.523 . S
C2759 C2743 1.429 . S
C2759 C2755 1.429 . S
C2759 C2760 1.523 . S
C2760 C2744 1.368 . S
C2760 C2756 1.368 . S
C2760 C2759 1.523 . S
H2761 C2736 0.950 . S
H2762 C2738 0.950 . S
H2763 C2739 0.949 . S
H2764 C2741 0.950 . S
H2765 C2743 0.950 . S
C2766 C2767 1.349 . S
C2766 C2768 1.327 . S
C2766 H2791 0.950 . S
C2767 C2766 1.349 . S
C2767 C2783 1.349 . S
C2768 C2766 1.327 . S
C2768 C2787 1.429 . S
C2768 H2792 0.950 . S
C2769 C2786 1.574 . S
C2769 C2788 1.368 . S
C2769 H2793 0.949 . S
H2770 C2774 0.949 . S
C2771 C2772 1.349 . S
C2771 C2773 1.327 . S
C2771 H2794 0.950 . S
C2772 C2771 1.349 . S
C2772 C2784 1.349 . S
C2773 C2771 1.327 . S
C2773 C2789 1.429 . S
C2773 H2795 0.950 . S
C2774 H2770 0.949 . S
C2774 C2782 1.574 . S
C2774 C2790 1.368 . S
H2775 C2783 0.950 . S
H2776 C2781 0.950 . S
H2777 C2782 0.949 . S
H2778 C2784 0.950 . S
H2779 C2785 0.950 . S
H2780 C2786 0.949 . S
C2781 H2776 0.950 . S
C2781 C2783 1.327 . S
C2781 C2787 1.429 . S
C2782 C2774 1.574 . S
C2782 H2777 0.949 . S
C2782 C2788 1.368 . S
C2783 C2767 1.349 . S
C2783 H2775 0.950 . S
C2783 C2781 1.327 . S
C2784 C2772 1.349 . S
C2784 H2778 0.950 . S
C2784 C2785 1.327 . S
C2785 H2779 0.950 . S
C2785 C2784 1.327 . S
C2785 C2789 1.429 . S
C2786 C2769 1.574 . S
C2786 H2780 0.949 . S
C2786 C2790 1.368 . S
C2787 C2768 1.429 . S
C2787 C2781 1.429 . S
C2787 C2788 1.523 . S
C2788 C2769 1.368 . S
C2788 C2782 1.368 . S
C2788 C2787 1.523 . S
C2789 C2773 1.429 . S
C2789 C2785 1.429 . S
C2789 C2790 1.523 . S
C2790 C2774 1.368 . S
C2790 C2786 1.368 . S
C2790 C2789 1.523 . S
H2791 C2766 0.950 . S
H2792 C2768 0.950 . S
H2793 C2769 0.949 . S
H2794 C2771 0.950 . S
H2795 C2773 0.950 . S
C2796 C2797 1.349 . S
C2796 C2798 1.327 . S
C2796 H2821 0.950 . S
C2797 C2796 1.349 . S
C2797 C2813 1.349 . S
C2798 C2796 1.327 . S
C2798 C2817 1.429 . S
C2798 H2822 0.950 . S
C2799 C2816 1.574 . S
C2799 C2818 1.368 . S
C2799 H2823 0.949 . S
H2800 C2804 0.949 . S
C2801 C2802 1.349 . S
C2801 C2803 1.327 . S
C2801 H2824 0.950 . S
C2802 C2801 1.349 . S
C2802 C2814 1.349 . S
C2803 C2801 1.327 . S
C2803 C2819 1.429 . S
C2803 H2825 0.950 . S
C2804 H2800 0.949 . S
C2804 C2812 1.574 . S
C2804 C2820 1.368 . S
H2805 C2813 0.950 . S
H2806 C2811 0.950 . S
H2807 C2812 0.949 . S
H2808 C2814 0.950 . S
H2809 C2815 0.950 . S
H2810 C2816 0.949 . S
C2811 H2806 0.950 . S
C2811 C2813 1.327 . S
C2811 C2817 1.429 . S
C2812 C2804 1.574 . S
C2812 H2807 0.949 . S
C2812 C2818 1.368 . S
C2813 C2797 1.349 . S
C2813 H2805 0.950 . S
C2813 C2811 1.327 . S
C2814 C2802 1.349 . S
C2814 H2808 0.950 . S
C2814 C2815 1.327 . S
C2815 H2809 0.950 . S
C2815 C2814 1.327 . S
C2815 C2819 1.429 . S
C2816 C2799 1.574 . S
C2816 H2810 0.949 . S
C2816 C2820 1.368 . S
C2817 C2798 1.429 . S
C2817 C2811 1.429 . S
C2817 C2818 1.523 . S
C2818 C2799 1.368 . S
C2818 C2812 1.368 . S
C2818 C2817 1.523 . S
C2819 C2803 1.429 . S
C2819 C2815 1.429 . S
C2819 C2820 1.523 . S
C2820 C2804 1.368 . S
C2820 C2816 1.368 . S
C2820 C2819 1.523 . S
H2821 C2796 0.950 . S
H2822 C2798 0.950 . S
H2823 C2799 0.949 . S
H2824 C2801 0.950 . S
H2825 C2803 0.950 . S
C2826 C2827 1.349 . S
C2826 C2828 1.372 . S
C2826 H2851 0.950 1_545 S
C2827 C2826 1.349 . S
C2827 C2843 1.349 . S
C2828 C2826 1.372 . S
C2828 C2847 1.461 . S
C2828 H2852 0.875 1_545 S
C2829 C2846 1.574 . S
C2829 C2848 1.368 . S
C2829 H2853 0.949 . S
H2830 C2834 0.949 . S
C2831 C2832 1.349 . S
C2831 C2833 1.327 . S
C2831 H2854 0.950 . S
C2832 C2831 1.349 . S
C2832 C2844 1.349 1_545 S
C2833 C2831 1.327 . S
C2833 C2849 1.429 . S
C2833 H2855 0.950 . S
C2834 H2830 0.949 . S
C2834 C2842 1.574 . S
C2834 C2850 1.368 1_565 S
H2835 C2843 0.950 . S
H2836 C2841 0.950 . S
H2837 C2842 0.949 . S
H2838 C2844 0.950 . S
H2839 C2845 0.950 . S
H2840 C2846 0.949 . S
C2841 H2836 0.950 . S
C2841 C2843 1.327 . S
C2841 C2847 1.429 . S
C2842 C2834 1.574 . S
C2842 H2837 0.949 . S
C2842 C2848 1.368 1_565 S
C2843 C2827 1.349 . S
C2843 H2835 0.950 . S
C2843 C2841 1.327 . S
C2844 C2832 1.349 1_565 S
C2844 H2838 0.950 . S
C2844 C2845 1.327 . S
C2845 H2839 0.950 . S
C2845 C2844 1.327 . S
C2845 C2849 1.429 1_565 S
C2846 C2829 1.574 . S
C2846 H2840 0.949 . S
C2846 C2850 1.368 . S
C2847 C2828 1.461 . S
C2847 C2841 1.429 . S
C2847 C2848 1.523 . S
C2848 C2829 1.368 . S
C2848 C2842 1.368 1_545 S
C2848 C2847 1.523 . S
C2849 C2833 1.429 . S
C2849 C2845 1.429 1_545 S
C2849 C2850 1.523 . S
C2850 C2834 1.368 1_545 S
C2850 C2846 1.368 . S
C2850 C2849 1.523 . S
H2851 C2826 0.950 1_565 S
H2852 C2828 0.875 1_565 S
H2853 C2829 0.949 . S
H2854 C2831 0.950 . S
H2855 C2833 0.950 . S
C2856 C2857 1.349 . S
C2856 C2858 1.327 . S
C2856 H2881 0.950 . S
C2857 C2856 1.349 . S
C2857 C2873 1.349 . S
C2858 C2856 1.327 . S
C2858 C2877 1.429 . S
C2858 H2882 0.950 . S
C2859 C2876 1.574 . S
C2859 C2878 1.368 . S
C2859 H2883 0.949 . S
H2860 C2864 0.949 . S
C2861 C2862 1.349 . S
C2861 C2863 1.327 . S
C2861 H2884 0.950 . S
C2862 C2861 1.349 . S
C2862 C2874 1.349 . S
C2863 C2861 1.327 . S
C2863 C2879 1.429 . S
C2863 H2885 0.950 . S
C2864 H2860 0.949 . S
C2864 C2872 1.574 . S
C2864 C2880 1.368 . S
H2865 C2873 0.950 . S
H2866 C2871 0.950 . S
H2867 C2872 0.949 . S
H2868 C2874 0.950 . S
H2869 C2875 0.950 . S
H2870 C2876 0.949 . S
C2871 H2866 0.950 . S
C2871 C2873 1.327 . S
C2871 C2877 1.429 . S
C2872 C2864 1.574 . S
C2872 H2867 0.949 . S
C2872 C2878 1.368 . S
C2873 C2857 1.349 . S
C2873 H2865 0.950 . S
C2873 C2871 1.327 . S
C2874 C2862 1.349 . S
C2874 H2868 0.950 . S
C2874 C2875 1.327 . S
C2875 H2869 0.950 . S
C2875 C2874 1.327 . S
C2875 C2879 1.429 . S
C2876 C2859 1.574 . S
C2876 H2870 0.949 . S
C2876 C2880 1.368 . S
C2877 C2858 1.429 . S
C2877 C2871 1.429 . S
C2877 C2878 1.523 . S
C2878 C2859 1.368 . S
C2878 C2872 1.368 . S
C2878 C2877 1.523 . S
C2879 C2863 1.429 . S
C2879 C2875 1.429 . S
C2879 C2880 1.523 . S
C2880 C2864 1.368 . S
C2880 C2876 1.368 . S
C2880 C2879 1.523 . S
H2881 C2856 0.950 . S
H2882 C2858 0.950 . S
H2883 C2859 0.949 . S
H2884 C2861 0.950 . S
H2885 C2863 0.950 . S
C2886 C2887 1.349 . S
C2886 C2888 1.327 . S
C2886 H2911 0.950 . S
C2887 C2886 1.349 . S
C2887 C2903 1.349 . S
C2888 C2886 1.327 . S
C2888 C2907 1.429 . S
C2888 H2912 0.950 . S
C2889 C2906 1.574 . S
C2889 C2908 1.368 . S
C2889 H2913 0.949 . S
H2890 C2894 0.949 . S
C2891 C2892 1.349 . S
C2891 C2893 1.327 . S
C2891 H2914 0.950 . S
C2892 C2891 1.349 . S
C2892 C2904 1.349 . S
C2893 C2891 1.327 . S
C2893 C2909 1.429 . S
C2893 H2915 0.950 . S
C2894 H2890 0.949 . S
C2894 C2902 1.574 . S
C2894 C2910 1.368 . S
H2895 C2903 0.950 . S
H2896 C2901 0.950 . S
H2897 C2902 0.949 . S
H2898 C2904 0.950 . S
H2899 C2905 0.950 . S
H2900 C2906 0.949 . S
C2901 H2896 0.950 . S
C2901 C2903 1.327 . S
C2901 C2907 1.429 . S
C2902 C2894 1.574 . S
C2902 H2897 0.949 . S
C2902 C2908 1.368 . S
C2903 C2887 1.349 . S
C2903 H2895 0.950 . S
C2903 C2901 1.327 . S
C2904 C2892 1.349 . S
C2904 H2898 0.950 . S
C2904 C2905 1.327 . S
C2905 H2899 0.950 . S
C2905 C2904 1.327 . S
C2905 C2909 1.429 . S
C2906 C2889 1.574 . S
C2906 H2900 0.949 . S
C2906 C2910 1.368 . S
C2907 C2888 1.429 . S
C2907 C2901 1.429 . S
C2907 C2908 1.523 . S
C2908 C2889 1.368 . S
C2908 C2902 1.368 . S
C2908 C2907 1.523 . S
C2909 C2893 1.429 . S
C2909 C2905 1.429 . S
C2909 C2910 1.523 . S
C2910 C2894 1.368 . S
C2910 C2906 1.368 . S
C2910 C2909 1.523 . S
H2911 C2886 0.950 . S
H2912 C2888 0.950 . S
H2913 C2889 0.949 . S
H2914 C2891 0.950 . S
H2915 C2893 0.950 . S
C2916 C2917 1.349 . S
C2916 C2918 1.327 . S
C2916 H2941 0.950 . S
C2917 C2916 1.349 . S
C2917 C2933 1.349 . S
C2918 C2916 1.327 . S
C2918 C2937 1.429 . S
C2918 H2942 0.950 . S
C2919 C2936 1.574 . S
C2919 C2938 1.368 . S
C2919 H2943 0.949 . S
H2920 C2924 0.949 . S
C2921 C2922 1.349 . S
C2921 C2923 1.327 . S
C2921 H2944 0.950 . S
C2922 C2921 1.349 . S
C2922 C2934 1.349 . S
C2923 C2921 1.327 . S
C2923 C2939 1.429 . S
C2923 H2945 0.950 . S
C2924 H2920 0.949 . S
C2924 C2932 1.574 . S
C2924 C2940 1.368 . S
H2925 C2933 0.950 . S
H2926 C2931 0.950 . S
H2927 C2932 0.949 . S
H2928 C2934 0.950 . S
H2929 C2935 0.950 . S
H2930 C2936 0.949 . S
C2931 H2926 0.950 . S
C2931 C2933 1.327 . S
C2931 C2937 1.429 . S
C2932 C2924 1.574 . S
C2932 H2927 0.949 . S
C2932 C2938 1.368 . S
C2933 C2917 1.349 . S
C2933 H2925 0.950 . S
C2933 C2931 1.327 . S
C2934 C2922 1.349 . S
C2934 H2928 0.950 . S
C2934 C2935 1.327 . S
C2935 H2929 0.950 . S
C2935 C2934 1.327 . S
C2935 C2939 1.429 . S
C2936 C2919 1.574 . S
C2936 H2930 0.949 . S
C2936 C2940 1.368 . S
C2937 C2918 1.429 . S
C2937 C2931 1.429 . S
C2937 C2938 1.523 . S
C2938 C2919 1.368 . S
C2938 C2932 1.368 . S
C2938 C2937 1.523 . S
C2939 C2923 1.429 . S
C2939 C2935 1.429 . S
C2939 C2940 1.523 . S
C2940 C2924 1.368 . S
C2940 C2936 1.368 . S
C2940 C2939 1.523 . S
H2941 C2916 0.950 . S
H2942 C2918 0.950 . S
H2943 C2919 0.949 . S
H2944 C2921 0.950 . S
H2945 C2923 0.950 . S
C2946 C2947 1.349 . S
C2946 C2948 1.327 . S
C2946 H2971 0.950 . S
C2947 C2946 1.349 . S
C2947 C2963 1.349 . S
C2948 C2946 1.327 . S
C2948 C2967 1.429 . S
C2948 H2972 0.950 . S
C2949 C2966 1.574 . S
C2949 C2968 1.368 . S
C2949 H2973 0.949 . S
H2950 C2954 0.949 . S
C2951 C2952 1.349 . S
C2951 C2953 1.327 . S
C2951 H2974 0.950 . S
C2952 C2951 1.349 . S
C2952 C2964 1.349 . S
C2953 C2951 1.327 . S
C2953 C2969 1.429 . S
C2953 H2975 0.950 . S
C2954 H2950 0.949 . S
C2954 C2962 1.574 . S
C2954 C2970 1.368 . S
H2955 C2963 0.950 . S
H2956 C2961 0.950 . S
H2957 C2962 0.949 . S
H2958 C2964 0.950 . S
H2959 C2965 0.950 . S
H2960 C2966 0.949 . S
C2961 H2956 0.950 . S
C2961 C2963 1.327 . S
C2961 C2967 1.429 . S
C2962 C2954 1.574 . S
C2962 H2957 0.949 . S
C2962 C2968 1.368 . S
C2963 C2947 1.349 . S
C2963 H2955 0.950 . S
C2963 C2961 1.327 . S
C2964 C2952 1.349 . S
C2964 H2958 0.950 . S
C2964 C2965 1.327 . S
C2965 H2959 0.950 . S
C2965 C2964 1.327 . S
C2965 C2969 1.429 . S
C2966 C2949 1.574 . S
C2966 H2960 0.949 . S
C2966 C2970 1.368 . S
C2967 C2948 1.429 . S
C2967 C2961 1.429 . S
C2967 C2968 1.523 . S
C2968 C2949 1.368 . S
C2968 C2962 1.368 . S
C2968 C2967 1.523 . S
C2969 C2953 1.429 . S
C2969 C2965 1.429 . S
C2969 C2970 1.523 . S
C2970 C2954 1.368 . S
C2970 C2966 1.368 . S
C2970 C2969 1.523 . S
H2971 C2946 0.950 . S
H2972 C2948 0.950 . S
H2973 C2949 0.949 . S
H2974 C2951 0.950 . S
H2975 C2953 0.950 . S
C2976 C2977 1.349 . S
C2976 C2978 1.327 . S
C2976 H3001 0.950 . S
C2977 C2976 1.349 . S
C2977 C2993 1.349 . S
C2978 C2976 1.327 . S
C2978 C2997 1.429 . S
C2978 H3002 0.950 . S
C2979 C2996 1.574 . S
C2979 C2998 1.368 . S
C2979 H3003 0.949 . S
H2980 C2984 0.949 . S
C2981 C2982 1.349 . S
C2981 C2983 1.327 . S
C2981 H3004 0.950 . S
C2982 C2981 1.349 . S
C2982 C2994 1.349 . S
C2983 C2981 1.327 . S
C2983 C2999 1.429 . S
C2983 H3005 0.950 . S
C2984 H2980 0.949 . S
C2984 C2992 1.574 . S
C2984 C3000 1.368 . S
H2985 C2993 0.950 . S
H2986 C2991 0.950 . S
H2987 C2992 0.949 . S
H2988 C2994 0.950 . S
H2989 C2995 0.950 . S
H2990 C2996 0.949 . S
C2991 H2986 0.950 . S
C2991 C2993 1.327 . S
C2991 C2997 1.429 . S
C2992 C2984 1.574 . S
C2992 H2987 0.949 . S
C2992 C2998 1.368 . S
C2993 C2977 1.349 . S
C2993 H2985 0.950 . S
C2993 C2991 1.327 . S
C2994 C2982 1.349 . S
C2994 H2988 0.950 . S
C2994 C2995 1.327 . S
C2995 H2989 0.950 . S
C2995 C2994 1.327 . S
C2995 C2999 1.429 . S
C2996 C2979 1.574 . S
C2996 H2990 0.949 . S
C2996 C3000 1.368 . S
C2997 C2978 1.429 . S
C2997 C2991 1.429 . S
C2997 C2998 1.523 . S
C2998 C2979 1.368 . S
C2998 C2992 1.368 . S
C2998 C2997 1.523 . S
C2999 C2983 1.429 . S
C2999 C2995 1.429 . S
C2999 C3000 1.523 . S
C3000 C2984 1.368 . S
C3000 C2996 1.368 . S
C3000 C2999 1.523 . S
H3001 C2976 0.950 . S
H3002 C2978 0.950 . S
H3003 C2979 0.949 . S
H3004 C2981 0.950 . S
H3005 C2983 0.950 . S
C3006 C3007 1.349 . S
C3006 C3008 1.327 . S
C3006 H3031 0.950 . S
C3007 C3006 1.349 . S
C3007 C3023 1.349 . S
C3008 C3006 1.327 . S
C3008 C3027 1.429 . S
C3008 H3032 0.950 . S
C3009 C3026 1.574 . S
C3009 C3028 1.368 . S
C3009 H3033 0.949 . S
H3010 C3014 0.949 . S
C3011 C3012 1.349 . S
C3011 C3013 1.327 . S
C3011 H3034 0.950 . S
C3012 C3011 1.349 . S
C3012 C3024 1.349 . S
C3013 C3011 1.327 . S
C3013 C3029 1.429 . S
C3013 H3035 0.950 . S
C3014 H3010 0.949 . S
C3014 C3022 1.574 . S
C3014 C3030 1.368 . S
H3015 C3023 0.950 . S
H3016 C3021 0.950 . S
H3017 C3022 0.949 . S
H3018 C3024 0.950 . S
H3019 C3025 0.950 . S
H3020 C3026 0.949 . S
C3021 H3016 0.950 . S
C3021 C3023 1.327 . S
C3021 C3027 1.429 . S
C3022 C3014 1.574 . S
C3022 H3017 0.949 . S
C3022 C3028 1.368 . S
C3023 C3007 1.349 . S
C3023 H3015 0.950 . S
C3023 C3021 1.327 . S
C3024 C3012 1.349 . S
C3024 H3018 0.950 . S
C3024 C3025 1.327 . S
C3025 H3019 0.950 . S
C3025 C3024 1.327 . S
C3025 C3029 1.429 . S
C3026 C3009 1.574 . S
C3026 H3020 0.949 . S
C3026 C3030 1.368 . S
C3027 C3008 1.429 . S
C3027 C3021 1.429 . S
C3027 C3028 1.523 . S
C3028 C3009 1.368 . S
C3028 C3022 1.368 . S
C3028 C3027 1.523 . S
C3029 C3013 1.429 . S
C3029 C3025 1.429 . S
C3029 C3030 1.523 . S
C3030 C3014 1.368 . S
C3030 C3026 1.368 . S
C3030 C3029 1.523 . S
H3031 C3006 0.950 . S
H3032 C3008 0.950 . S
H3033 C3009 0.949 . S
H3034 C3011 0.950 . S
H3035 C3013 0.950 . S
C3036 C3037 1.349 . S
C3036 C3038 1.327 . S
C3036 H3061 0.950 . S
C3037 C3036 1.349 . S
C3037 C3053 1.349 . S
C3038 C3036 1.327 . S
C3038 C3057 1.429 . S
C3038 H3062 0.950 . S
C3039 C3056 1.574 . S
C3039 C3058 1.368 . S
C3039 H3063 0.949 . S
H3040 C3044 0.949 . S
C3041 C3042 1.349 . S
C3041 C3043 1.327 . S
C3041 H3064 0.950 . S
C3042 C3041 1.349 . S
C3042 C3054 1.349 . S
C3043 C3041 1.327 . S
C3043 C3059 1.429 . S
C3043 H3065 0.950 . S
C3044 H3040 0.949 . S
C3044 C3052 1.574 . S
C3044 C3060 1.368 . S
H3045 C3053 0.950 . S
H3046 C3051 0.950 . S
H3047 C3052 0.949 . S
H3048 C3054 0.950 . S
H3049 C3055 0.950 . S
H3050 C3056 0.949 . S
C3051 H3046 0.950 . S
C3051 C3053 1.327 . S
C3051 C3057 1.429 . S
C3052 C3044 1.574 . S
C3052 H3047 0.949 . S
C3052 C3058 1.368 . S
C3053 C3037 1.349 . S
C3053 H3045 0.950 . S
C3053 C3051 1.327 . S
C3054 C3042 1.349 . S
C3054 H3048 0.950 . S
C3054 C3055 1.327 . S
C3055 H3049 0.950 . S
C3055 C3054 1.327 . S
C3055 C3059 1.429 . S
C3056 C3039 1.574 . S
C3056 H3050 0.949 . S
C3056 C3060 1.368 . S
C3057 C3038 1.429 . S
C3057 C3051 1.429 . S
C3057 C3058 1.523 . S
C3058 C3039 1.368 . S
C3058 C3052 1.368 . S
C3058 C3057 1.523 . S
C3059 C3043 1.429 . S
C3059 C3055 1.429 . S
C3059 C3060 1.523 . S
C3060 C3044 1.368 . S
C3060 C3056 1.368 . S
C3060 C3059 1.523 . S
H3061 C3036 0.950 . S
H3062 C3038 0.950 . S
H3063 C3039 0.949 . S
H3064 C3041 0.950 . S
H3065 C3043 0.950 . S
C3066 C3067 1.349 . S
C3066 C3068 1.327 . S
C3066 H3091 0.950 . S
C3067 C3066 1.349 . S
C3067 C3083 1.349 . S
C3068 C3066 1.327 . S
C3068 C3087 1.429 . S
C3068 H3092 0.950 . S
C3069 C3086 1.574 . S
C3069 C3088 1.368 . S
C3069 H3093 0.949 . S
H3070 C3074 0.949 . S
C3071 C3072 1.349 . S
C3071 C3073 1.327 . S
C3071 H3094 0.950 . S
C3072 C3071 1.349 . S
C3072 C3084 1.349 . S
C3073 C3071 1.327 . S
C3073 C3089 1.429 . S
C3073 H3095 0.950 . S
C3074 H3070 0.949 . S
C3074 C3082 1.574 . S
C3074 C3090 1.368 . S
H3075 C3083 0.950 . S
H3076 C3081 0.950 . S
H3077 C3082 0.949 . S
H3078 C3084 0.950 . S
H3079 C3085 0.950 . S
H3080 C3086 0.949 . S
C3081 H3076 0.950 . S
C3081 C3083 1.327 . S
C3081 C3087 1.429 . S
C3082 C3074 1.574 . S
C3082 H3077 0.949 . S
C3082 C3088 1.368 . S
C3083 C3067 1.349 . S
C3083 H3075 0.950 . S
C3083 C3081 1.327 . S
C3084 C3072 1.349 . S
C3084 H3078 0.950 . S
C3084 C3085 1.327 . S
C3085 H3079 0.950 . S
C3085 C3084 1.327 . S
C3085 C3089 1.429 . S
C3086 C3069 1.574 . S
C3086 H3080 0.949 . S
C3086 C3090 1.368 . S
C3087 C3068 1.429 . S
C3087 C3081 1.429 . S
C3087 C3088 1.523 . S
C3088 C3069 1.368 . S
C3088 C3082 1.368 . S
C3088 C3087 1.523 . S
C3089 C3073 1.429 . S
C3089 C3085 1.429 . S
C3089 C3090 1.523 . S
C3090 C3074 1.368 . S
C3090 C3086 1.368 . S
C3090 C3089 1.523 . S
H3091 C3066 0.950 . S
H3092 C3068 0.950 . S
H3093 C3069 0.949 . S
H3094 C3071 0.950 . S
H3095 C3073 0.950 . S
C3096 C3097 1.349 . S
C3096 C3098 1.327 . S
C3096 H3121 0.950 . S
C3097 C3096 1.349 . S
C3097 C3113 1.349 . S
C3098 C3096 1.327 . S
C3098 C3117 1.429 . S
C3098 H3122 0.950 . S
C3099 C3116 1.516 1_655 S
C3099 C3118 1.427 . S
C3099 H3123 0.939 1_655 S
H3100 C3104 0.949 . S
C3101 C3102 1.349 1_455 S
C3101 C3103 1.327 . S
C3101 H3124 0.950 . S
C3102 C3101 1.349 1_655 S
C3102 C3114 1.349 . S
C3103 C3101 1.327 . S
C3103 C3119 1.429 1_455 S
C3103 H3125 0.950 . S
C3104 H3100 0.949 . S
C3104 C3112 1.574 . S
C3104 C3120 1.368 . S
H3105 C3113 0.950 . S
H3106 C3111 0.913 1_455 S
H3107 C3112 0.949 . S
H3108 C3114 0.950 . S
H3109 C3115 0.950 . S
H3110 C3116 0.976 . S
C3111 H3106 0.913 1_655 S
C3111 C3113 1.327 . S
C3111 C3117 1.429 . S
C3112 C3104 1.574 . S
C3112 H3107 0.949 . S
C3112 C3118 1.368 . S
C3113 C3097 1.349 . S
C3113 H3105 0.950 . S
C3113 C3111 1.327 . S
C3114 C3102 1.349 . S
C3114 H3108 0.950 . S
C3114 C3115 1.327 . S
C3115 H3109 0.950 . S
C3115 C3114 1.327 . S
C3115 C3119 1.429 . S
C3116 C3099 1.516 1_455 S
C3116 H3110 0.976 . S
C3116 C3120 1.358 1_455 S
C3117 C3098 1.429 . S
C3117 C3111 1.429 . S
C3117 C3118 1.523 . S
C3118 C3099 1.427 . S
C3118 C3112 1.368 . S
C3118 C3117 1.523 . S
C3119 C3103 1.429 1_655 S
C3119 C3115 1.429 . S
C3119 C3120 1.523 . S
C3120 C3104 1.368 . S
C3120 C3116 1.358 1_655 S
C3120 C3119 1.523 . S
H3121 C3096 0.950 . S
H3122 C3098 0.950 . S
H3123 C3099 0.939 1_455 S
H3124 C3101 0.950 . S
H3125 C3103 0.950 . S
C3126 C3127 1.349 . S
C3126 C3128 1.327 . S
C3126 H3151 0.950 . S
C3127 C3126 1.349 . S
C3127 C3143 1.349 . S
C3128 C3126 1.327 . S
C3128 C3147 1.429 . S
C3128 H3152 0.950 . S
C3129 C3146 1.574 . S
C3129 C3148 1.368 . S
C3129 H3153 0.949 . S
H3130 C3134 0.949 . S
C3131 C3132 1.349 . S
C3131 C3133 1.327 . S
C3131 H3154 0.950 . S
C3132 C3131 1.349 . S
C3132 C3144 1.349 . S
C3133 C3131 1.327 . S
C3133 C3149 1.429 . S
C3133 H3155 0.950 . S
C3134 H3130 0.949 . S
C3134 C3142 1.574 . S
C3134 C3150 1.368 . S
H3135 C3143 0.950 . S
H3136 C3141 0.950 . S
H3137 C3142 0.949 . S
H3138 C3144 0.950 . S
H3139 C3145 0.950 . S
H3140 C3146 0.949 . S
C3141 H3136 0.950 . S
C3141 C3143 1.327 . S
C3141 C3147 1.429 . S
C3142 C3134 1.574 . S
C3142 H3137 0.949 . S
C3142 C3148 1.368 . S
C3143 C3127 1.349 . S
C3143 H3135 0.950 . S
C3143 C3141 1.327 . S
C3144 C3132 1.349 . S
C3144 H3138 0.950 . S
C3144 C3145 1.327 . S
C3145 H3139 0.950 . S
C3145 C3144 1.327 . S
C3145 C3149 1.429 . S
C3146 C3129 1.574 . S
C3146 H3140 0.949 . S
C3146 C3150 1.368 . S
C3147 C3128 1.429 . S
C3147 C3141 1.429 . S
C3147 C3148 1.523 . S
C3148 C3129 1.368 . S
C3148 C3142 1.368 . S
C3148 C3147 1.523 . S
C3149 C3133 1.429 . S
C3149 C3145 1.429 . S
C3149 C3150 1.523 . S
C3150 C3134 1.368 . S
C3150 C3146 1.368 . S
C3150 C3149 1.523 . S
H3151 C3126 0.950 . S
H3152 C3128 0.950 . S
H3153 C3129 0.949 . S
H3154 C3131 0.950 . S
H3155 C3133 0.950 . S
C3156 C3157 1.349 . S
C3156 C3158 1.327 . S
C3156 H3181 0.950 . S
C3157 C3156 1.349 . S
C3157 C3173 1.349 . S
C3158 C3156 1.327 . S
C3158 C3177 1.429 . S
C3158 H3182 0.950 . S
C3159 C3176 1.574 . S
C3159 C3178 1.368 1_565 S
C3159 H3183 0.949 . S
H3160 C3164 0.949 . S
C3161 C3162 1.349 1_565 S
C3161 C3163 1.327 . S
C3161 H3184 0.950 . S
C3162 C3161 1.349 1_545 S
C3162 C3174 1.349 . S
C3163 C3161 1.327 . S
C3163 C3179 1.429 1_565 S
C3163 H3185 0.950 . S
C3164 H3160 0.949 . S
C3164 C3172 1.574 . S
C3164 C3180 1.368 . S
H3165 C3173 0.950 1_565 S
H3166 C3171 0.951 . S
H3167 C3172 0.949 . S
H3168 C3174 0.950 . S
H3169 C3175 0.950 . S
H3170 C3176 0.949 . S
C3171 H3166 0.951 . S
C3171 C3173 1.328 1_565 S
C3171 C3177 1.426 1_565 S
C3172 C3164 1.574 . S
C3172 H3167 0.949 . S
C3172 C3178 1.368 . S
C3173 C3157 1.349 . S
C3173 H3165 0.950 1_545 S
C3173 C3171 1.328 1_545 S
C3174 C3162 1.349 . S
C3174 H3168 0.950 . S
C3174 C3175 1.327 . S
C3175 H3169 0.950 . S
C3175 C3174 1.327 . S
C3175 C3179 1.429 . S
C3176 C3159 1.574 . S
C3176 H3170 0.949 . S
C3176 C3180 1.368 1_565 S
C3177 C3158 1.429 . S
C3177 C3171 1.426 1_545 S
C3177 C3178 1.523 . S
C3178 C3159 1.368 1_545 S
C3178 C3172 1.368 . S
C3178 C3177 1.523 . S
C3179 C3163 1.429 1_545 S
C3179 C3175 1.429 . S
C3179 C3180 1.523 . S
C3180 C3164 1.368 . S
C3180 C3176 1.368 1_545 S
C3180 C3179 1.523 . S
H3181 C3156 0.950 . S
H3182 C3158 0.950 . S
H3183 C3159 0.949 . S
H3184 C3161 0.950 . S
H3185 C3163 0.950 . S
C1027 C4 1.485 1_655 S
C1032 C854 1.470 1_655 S
C1057 C38 1.678 . S
C1062 C867 1.662 . S
C1092 C896 1.443 1_545 S
C1087 C74 1.498 . S
C1117 C76 1.495 . S
C1122 C909 1.459 . S
C1147 C2 1.611 . S
C1152 C930 1.597 . S
C1177 C40 1.521 . S
C1182 C959 1.457 . S
C1207 C110 1.606 . S
C1212 C938 1.574 . S
C1242 C951 1.443 . S
C1237 C148 1.496 . S
C1272 C917 1.536 . S
C1267 C182 1.581 1_565 S
C1297 C184 1.528 . S
C1302 C888 1.511 1_545 S
C1332 C846 1.441 1_655 S
C1327 C112 1.481 1_655 S
C1357 C146 1.605 . S
C1362 C875 1.580 . S
C1387 C220 1.595 . S
C1392 C980 1.527 . S
C1417 C254 1.724 . S
C1422 C993 1.706 . S
C1452 C1022 1.526 . S
C1447 C290 1.597 . S
C1477 C292 1.524 . S
C1482 C657 1.504 . S
C1507 C218 1.669 . S
C1512 C678 1.654 . S
C1537 C256 1.531 . S
C1542 C707 1.465 . S
C1567 C326 1.641 . S
C1572 C686 1.616 . S
C1597 C364 1.536 . S
C1602 C699 1.480 . S
C1632 C665 1.611 . S
C1627 C398 1.632 . S
C1662 C1014 1.552 . S
C1657 C400 1.604 . S
C1692 C972 1.443 . S
C1687 C328 1.490 . S
C1722 C1001 1.624 . S
C1717 C362 1.649 . S
C1747 C436 1.558 . S
C1752 C728 1.492 . S
C1777 C470 1.709 . S
C1782 C741 1.694 . S
C1807 C506 1.598 . S
C1812 C770 1.530 . S
C1837 C508 1.560 . S
C1842 C783 1.539 . S
C1872 C804 1.654 . S
C1867 C434 1.671 . S
C1902 C833 1.484 . S
C1897 C472 1.552 . S
C1932 C812 1.663 . S
C1927 C542 1.690 . S
C1962 C825 1.483 . S
C1957 C580 1.541 . S
C1987 C614 1.619 . S
C1992 C791 1.596 . S
C2022 C762 1.505 . S
C2017 C616 1.555 . S
C2047 C544 1.499 . S
C2052 C720 1.453 . S
C2082 C749 1.600 . S
C2077 C578 1.623 . S
C2112 C660 1.424 . S
C2107 C14 1.483 . S
C2137 C39 1.468 . S
C2142 C681 1.368 . S
C2172 C709 1.339 . S
C2167 C75 1.458 . S
C2202 C730 1.271 . S
C2197 C86 1.321 . S
C2232 C744 1.403 . S
C2227 C3 1.503 . S
C2262 C772 1.362 . S
C2257 C50 1.423 . S
C2287 C111 1.525 . S
C2292 C765 1.366 . S
C2317 C158 1.385 . S
C2322 C723 1.272 . S
C2347 C183 1.581 . S
C2352 C751 1.504 . S
C2377 C194 1.471 . S
C2382 C688 1.441 . S
C2412 C702 1.277 . S
C2407 C122 1.389 . S
C2437 C147 1.420 . S
C2442 C667 1.343 . S
C2472 C786 1.402 . S
C2467 C230 1.462 . S
C2497 C255 1.552 . S
C2502 C807 1.445 . S
C2527 C291 1.487 . S
C2532 C835 1.367 . S
C2562 C856 1.255 . S
C2557 C302 1.284 . S
C2587 C219 1.502 . S
C2592 C870 1.400 . S
C2617 C266 1.380 . S
C2622 C898 1.359 . S
C2647 C327 1.394 . S
C2652 C891 1.263 . S
C2677 C374 1.350 . S
C2682 C849 1.275 . S
C2712 C877 1.493 . S
C2707 C399 1.572 . S
C2737 C410 1.473 . S
C2742 C814 1.440 . S
C2767 C338 1.458 . S
C2772 C828 1.346 . S
C2802 C793 1.414 . S
C2797 C363 1.496 . S
C2832 C912 1.339 1_545 S
C2827 C446 1.388 . S
C2857 C471 1.436 . S
C2862 C933 1.333 1_655 S
C2887 C507 1.435 . S
C2892 C961 1.322 . S
C2922 C982 1.275 . S
C2917 C518 1.336 . S
C2952 C996 1.455 . S
C2947 C435 1.563 . S
C2977 C482 1.489 . S
C2982 C1024 1.434 . S
C3007 C543 1.483 . S
C3012 C1017 1.321 . S
C3037 C590 1.455 . S
C3042 C975 1.343 . S
C3072 C1003 1.531 . S
C3067 C615 1.614 . S
C3102 C940 1.359 1_655 S
C3097 C626 1.374 . S
C3132 C954 1.315 . S
C3127 C554 1.424 . S
C3157 C579 1.391 . S
C3162 C919 1.311 1_545 S
