# Generated by pormake.
# Topology rtl, (3,6)-cn, num edge types: 1
# Building blocks:
#     Node 0, Type 0, BuildingBlock: BETDIP_clean_linker_0, # of connection points: 3
#     Node 1, Type 0, BuildingBlock: BETDIP_clean_linker_0, # of connection points: 3
#     Node 2, Type 0, BuildingBlock: BETDIP_clean_linker_0, # of connection points: 3
#     Node 3, Type 0, BuildingBlock: BETDIP_clean_linker_0, # of connection points: 3
#     Node 4, Type 1, BuildingBlock: CIFDUS_clean_sbu_1, # of connection points: 6
#     Node 5, Type 1, BuildingBlock: CIFDUS_clean_sbu_1, # of connection points: 6
#     Edge 6, Type (0, 1), BuildingBlock: ZUJKAS_clean_linker_0, # of connection points: 2
#     Edge 7, Type (0, 1), BuildingBlock: ZUJKAS_clean_linker_0, # of connection points: 2
#     Edge 8, Type (0, 1), BuildingBlock: ZUJKAS_clean_linker_0, # of connection points: 2
#     Edge 9, Type (0, 1), BuildingBlock: ZUJKAS_clean_linker_0, # of connection points: 2
#     Edge 10, Type (0, 1), BuildingBlock: ZUJKAS_clean_linker_0, # of connection points: 2
#     Edge 11, Type (0, 1), BuildingBlock: ZUJKAS_clean_linker_0, # of connection points: 2
#     Edge 12, Type (0, 1), BuildingBlock: ZUJKAS_clean_linker_0, # of connection points: 2
#     Edge 13, Type (0, 1), BuildingBlock: ZUJKAS_clean_linker_0, # of connection points: 2
#     Edge 14, Type (0, 1), BuildingBlock: ZUJKAS_clean_linker_0, # of connection points: 2
#     Edge 15, Type (0, 1), BuildingBlock: ZUJKAS_clean_linker_0, # of connection points: 2
#     Edge 16, Type (0, 1), BuildingBlock: ZUJKAS_clean_linker_0, # of connection points: 2
#     Edge 17, Type (0, 1), BuildingBlock: ZUJKAS_clean_linker_0, # of connection points: 2
# Relax obj value: 0.017
# Max RMSD: 0.118
# Mean RMSD: 0.090
data_MOF--net-rtl--node1-CIFDUS_clean_sbu_1--node2-BETDIP_clean_linker_0--edge1-ZUJKAS_clean_linker_0
_symmetry_space_group_name_H-M    P1
_symmetry_Int_Tables_number       1
_symmetry_cell_setting            triclinic
loop_
_symmetry_equiv_pos_as_xyz
'x, y, z'
_cell_length_a     45.97778
_cell_length_b     46.21641
_cell_length_c     28.957994
_cell_angle_alpha  90.890698
_cell_angle_beta   98.496895
_cell_angle_gamma 90.284705
loop_
_atom_site_label
_atom_site_type_symbol
_atom_site_fract_x
_atom_site_fract_y
_atom_site_fract_z
_atom_type_partial_charge
H0 H 0.22448 0.83218 0.00589 0.0
H1 H 0.23229 0.83019 0.15572 0.0
H2 H 0.16842 0.88531 0.0786 0.0
H3 H 0.24426 0.78137 0.13734 0.0
C4 C 0.25947 0.78507 0.11263 0.0
C5 C 0.21751 0.83997 0.03795 0.0
C6 C 0.19448 0.86015 0.03638 0.0
C7 C 0.23095 0.82861 0.08051 0.0
C8 C 0.2218 0.83828 0.12252 0.0
C9 C 0.19907 0.85863 0.12165 0.0
C10 C 0.18559 0.86931 0.0787 0.0
N11 N 0.25366 0.80772 0.07979 0.0
H12 H 0.70872 0.72468 0.6674 0.0
H13 H 0.70299 0.72546 0.51784 0.0
H14 H 0.65583 0.66087 0.58399 0.0
H15 H 0.75804 0.73348 0.55159 0.0
C16 C 0.75268 0.75257 0.57098 0.0
C17 C 0.7001 0.71554 0.6334 0.0
C18 C 0.68121 0.6914 0.63001 0.0
C19 C 0.70881 0.72726 0.59308 0.0
C20 C 0.6972 0.71554 0.5489 0.0
C21 C 0.67732 0.69195 0.54486 0.0
C22 C 0.67014 0.6797 0.58597 0.0
N23 N 0.72904 0.75095 0.59751 0.0
H24 H 0.81064 0.21858 0.92074 0.0
H25 H 0.8169 0.22313 0.071 0.0
H26 H 0.86777 0.16106 0.00693 0.0
H27 H 0.79605 0.26553 0.0592 0.0
C28 C 0.78241 0.26528 0.02528 0.0
C29 C 0.81998 0.21107 0.95498 0.0
C30 C 0.84024 0.18811 0.95887 0.0
C31 C 0.81125 0.22415 0.99502 0.0
C32 C 0.8235 0.21409 0.03953 0.0
C33 C 0.84376 0.19126 0.04377 0.0
C34 C 0.8518 0.17838 0.00344 0.0
N35 N 0.78955 0.24646 0.98907 0.0
H36 H 0.29397 0.32963 0.41377 0.0
H37 H 0.29256 0.32748 0.56186 0.0
H38 H 0.34827 0.38854 0.50684 0.0
H39 H 0.28028 0.28073 0.54451 0.0
C40 C 0.26472 0.28212 0.51253 0.0
C41 C 0.30152 0.33826 0.44848 0.0
C42 C 0.32275 0.36074 0.4551 0.0
C43 C 0.29075 0.32579 0.48668 0.0
C44 C 0.30107 0.3363 0.53211 0.0
C45 C 0.322 0.35877 0.53954 0.0
C46 C 0.33229 0.37109 0.5009 0.0
N47 N 0.26954 0.30287 0.47844 0.0
O48 O 0.99068 0.04231 0.47945 0.0
Mn49 Mn 0.01086 0.01578 0.53396 0.0
O50 O 0.95928 0.01377 0.43242 0.0
Mn51 Mn 0.97321 0.98 0.45967 0.0
O52 O 0.03091 0.98925 0.58852 0.0
O53 O 0.04297 0.04715 0.54725 0.0
Mn54 Mn 0.04937 0.05099 0.60897 0.0
O55 O 0.98493 0.03606 0.57958 0.0
O56 O 0.06373 0.01692 0.63474 0.0
O57 O 0.03721 0.99529 0.48848 0.0
O58 O 0.00702 0.96567 0.44158 0.0
O59 O 0.07466 0.07666 0.58966 0.0
O60 O 0.01548 0.06469 0.62831 0.0
C61 C 0.95733 0.96521 0.51907 0.0
C62 C 0.97031 0.03851 0.44418 0.0
C63 C 0.05179 0.99259 0.62313 0.0
C64 C 0.063 0.06746 0.54856 0.0
C65 C 0.9899 0.05498 0.61301 0.0
C66 C 0.03259 0.97567 0.45592 0.0
O67 O 0.9782 0.98479 0.52114 0.0
O68 O 0.94705 0.95497 0.47797 0.0
O69 O 0.52859 0.54393 0.09721 0.0
Mn70 Mn 0.50876 0.51812 0.04086 0.0
O71 O 0.54407 0.51193 0.15275 0.0
Mn72 Mn 0.53477 0.47948 0.11518 0.0
O73 O 0.48887 0.49165 0.98421 0.0
O74 O 0.47853 0.55059 0.02623 0.0
Mn75 Mn 0.47461 0.55443 0.96504 0.0
O76 O 0.53771 0.53686 0.99845 0.0
O77 O 0.46043 0.52078 0.93557 0.0
O78 O 0.4783 0.50113 0.0823 0.0
O79 O 0.49896 0.46305 0.11883 0.0
O80 O 0.44949 0.58088 0.98295 0.0
O81 O 0.50996 0.56727 0.95087 0.0
C82 C 0.56046 0.46564 0.06644 0.0
C83 C 0.54039 0.53781 0.13892 0.0
C84 C 0.47033 0.49592 0.94702 0.0
C85 C 0.45954 0.57171 0.02426 0.0
C86 C 0.53472 0.55657 0.96696 0.0
C87 C 0.47667 0.47842 0.10681 0.0
O88 O 0.54049 0.48595 0.0564 0.0
O89 O 0.56357 0.4549 0.10797 0.0
H90 H 0.21937 0.27713 0.43841 0.0
H91 H 0.17909 0.24134 0.42845 0.0
H92 H 0.21494 0.20271 0.559 0.0
H93 H 0.25478 0.23855 0.56941 0.0
H94 H 0.18071 0.18079 0.42309 0.0
H95 H 0.1299 0.21629 0.57627 0.0
H96 H 0.15679 0.23806 0.55279 0.0
H97 H 0.16831 0.20845 0.59068 0.0
C98 C 0.2186 0.26103 0.46498 0.0
C99 C 0.24021 0.26067 0.5048 0.0
C100 C 0.19558 0.24057 0.45924 0.0
C101 C 0.19367 0.21955 0.4933 0.0
C102 C 0.2155 0.21904 0.53271 0.0
H103 H 0.11082 0.05648 0.5075 0.0
H104 H 0.14023 0.09542 0.48144 0.0
C105 C 0.23838 0.23944 0.53848 0.0
C106 C 0.16926 0.1978 0.48764 0.0
H107 H 0.11485 0.17006 0.54287 0.0
C108 C 0.16604 0.17867 0.44896 0.0
C109 C 0.14986 0.19515 0.52107 0.0
C110 C 0.15115 0.21575 0.5623 0.0
C111 C 0.14482 0.15628 0.44389 0.0
C112 C 0.12639 0.1528 0.47849 0.0
C113 C 0.12889 0.17265 0.51619 0.0
C114 C 0.106 0.12758 0.47892 0.0
C115 C 0.14244 0.13641 0.40172 0.0
C116 C 0.07629 0.132 0.48329 0.0
C117 C 0.05928 0.10946 0.49749 0.0
C118 C 0.07182 0.08227 0.5082 0.0
C119 C 0.10031 0.07694 0.49821 0.0
C120 C 0.11731 0.09942 0.48383 0.0
H121 H 0.15115 0.14689 0.37226 0.0
H122 H 0.1556 0.11671 0.4109 0.0
H123 H 0.11928 0.12967 0.38998 0.0
H124 H 0.06703 0.15351 0.47979 0.0
H125 H 0.03768 0.11443 0.50609 0.0
H126 H 0.26263 0.73107 0.14782 0.0
H127 H 0.3005 0.69442 0.14303 0.0
H128 H 0.34735 0.75318 0.06581 0.0
H129 H 0.30903 0.78986 0.06961 0.0
H130 H 0.32137 0.67407 0.04932 0.0
H131 H 0.40694 0.72134 0.18616 0.0
H132 H 0.36835 0.72937 0.18443 0.0
H133 H 0.3884 0.74468 0.14207 0.0
C134 C 0.28101 0.7362 0.12983 0.0
C135 C 0.28283 0.76331 0.10908 0.0
C136 C 0.30262 0.71524 0.12713 0.0
C137 C 0.32687 0.72113 0.10445 0.0
C138 C 0.32889 0.74825 0.08374 0.0
H139 H 0.4794 0.62394 0.05632 0.0
H140 H 0.44731 0.66047 0.08296 0.0
C141 C 0.30695 0.76912 0.08577 0.0
C142 C 0.34954 0.6985 0.10179 0.0
H143 H 0.41871 0.67791 0.1495 0.0
C144 C 0.34263 0.6748 0.07128 0.0
C145 C 0.37738 0.69975 0.13 0.0
C146 C 0.38592 0.72504 0.16277 0.0
C147 C 0.3629 0.65243 0.0678 0.0
C148 C 0.39049 0.65298 0.09736 0.0
C149 C 0.39743 0.67697 0.12762 0.0
C150 C 0.41315 0.63011 0.09424 0.0
C151 C 0.35485 0.62912 0.03092 0.0
C152 C 0.4062 0.60045 0.09603 0.0
C153 C 0.42465 0.57943 0.08048 0.0
C154 C 0.4507 0.58771 0.06422 0.0
C155 C 0.45969 0.61685 0.06944 0.0
C156 C 0.44105 0.63789 0.08402 0.0
H157 H 0.33711 0.63622 0.00319 0.0
H158 H 0.37415 0.62284 0.01417 0.0
H159 H 0.3467 0.60973 0.04728 0.0
H160 H 0.38535 0.5937 0.10563 0.0
H161 H 0.41691 0.55724 0.07617 0.0
H162 H 0.74176 0.81038 0.58468 0.0
H163 H 0.77704 0.85084 0.58755 0.0
H164 H 0.84661 0.79008 0.57549 0.0
H165 H 0.81113 0.7502 0.56913 0.0
H166 H 0.82365 0.86837 0.64232 0.0
H167 H 0.85984 0.8412 0.47376 0.0
H168 H 0.82899 0.82323 0.49286 0.0
H169 H 0.86603 0.8111 0.51197 0.0
C170 C 0.76461 0.80583 0.58253 0.0
C171 C 0.77375 0.77724 0.57626 0.0
C172 C 0.78479 0.82892 0.5842 0.0
C173 C 0.81454 0.82377 0.58041 0.0
C174 C 0.82371 0.79496 0.5765 0.0
H175 H 0.97444 0.91913 0.57229 0.0
H176 H 0.93877 0.88584 0.59803 0.0
C177 C 0.80347 0.77208 0.57338 0.0
C178 C 0.83609 0.84821 0.58057 0.0
H179 H 0.89132 0.87327 0.52428 0.0
C180 C 0.8383 0.86951 0.61629 0.0
C181 C 0.85499 0.85029 0.54616 0.0
C182 C 0.85209 0.83042 0.50379 0.0
C183 C 0.85954 0.8919 0.61953 0.0
C184 C 0.87938 0.89284 0.58665 0.0
C185 C 0.87669 0.87206 0.55037 0.0
C186 C 0.90244 0.91572 0.58711 0.0
C187 C 0.86089 0.91418 0.65835 0.0
C188 C 0.89449 0.94431 0.57572 0.0
C189 C 0.91512 0.96354 0.56178 0.0
C190 C 0.94391 0.95443 0.55861 0.0
C191 C 0.95269 0.92706 0.57561 0.0
C192 C 0.93211 0.90781 0.58954 0.0
H193 H 0.84841 0.90717 0.68633 0.0
H194 H 0.88404 0.91876 0.67387 0.0
H195 H 0.85118 0.93467 0.64391 0.0
H196 H 0.87171 0.95087 0.57282 0.0
H197 H 0.90747 0.98417 0.54753 0.0
H198 H 0.76757 0.30451 0.08779 0.0
H199 H 0.72827 0.34043 0.07741 0.0
H200 H 0.70209 0.31009 0.93586 0.0
H201 H 0.7417 0.274 0.94594 0.0
H202 H 0.7201 0.38454 0.99382 0.0
H203 H 0.62535 0.31159 0.00961 0.0
H204 H 0.66198 0.30331 0.03799 0.0
H205 H 0.65334 0.30028 0.97574 0.0
C206 C 0.75346 0.30545 0.0544 0.0
C207 C 0.75789 0.2865 0.01766 0.0
C208 C 0.73099 0.326 0.04854 0.0
C209 C 0.7122 0.32796 0.00591 0.0
C210 C 0.71628 0.30889 0.96913 0.0
H211 H 0.55171 0.43317 0.98501 0.0
H212 H 0.5892 0.40173 0.95834 0.0
C213 C 0.73896 0.28832 0.97491 0.0
C214 C 0.68894 0.35056 1.00021 0.0
H215 H 0.61612 0.36146 0.00609 0.0
C216 C 0.69726 0.37952 0.99585 0.0
C217 C 0.65912 0.34397 0.00226 0.0
C218 C 0.64913 0.31315 0.00672 0.0
C219 C 0.67674 0.40214 0.99463 0.0
C220 C 0.6471 0.39586 0.99968 0.0
C221 C 0.63864 0.36662 0.00215 0.0
C222 C 0.62544 0.41904 0.00759 0.0
C223 C 0.68733 0.43251 0.98785 0.0
C224 C 0.63319 0.44033 0.04248 0.0
C225 C 0.61205 0.45892 0.05622 0.0
C226 C 0.58229 0.45638 0.03655 0.0
C227 C 0.57458 0.43638 0.99968 0.0
C228 C 0.596 0.41798 0.98517 0.0
H229 H 0.70493 0.43243 0.96536 0.0
H230 H 0.66924 0.44659 0.97178 0.0
H231 H 0.69699 0.44197 0.0222 0.0
H232 H 0.65518 0.44123 0.06189 0.0
H233 H 0.61851 0.47337 0.08586 0.0
H234 H 0.1466 0.84696 0.14985 0.0
H235 H 0.12678 0.86797 0.217 0.0
H236 H 0.20767 0.91562 0.2572 0.0
H237 H 0.22768 0.89423 0.19011 0.0
H238 H 0.15041 0.86725 0.31634 0.0
H239 H 0.14122 0.97817 0.24349 0.0
H240 H 0.14571 0.94656 0.20785 0.0
H241 H 0.17644 0.96085 0.2471 0.0
C242 C 0.16024 0.86161 0.17347 0.0
C243 C 0.18868 0.86888 0.16516 0.0
C244 C 0.14892 0.87365 0.21169 0.0
C245 C 0.16559 0.89364 0.24186 0.0
C246 C 0.19431 0.90047 0.23416 0.0
H247 H 0.09033 0.99548 0.45954 0.0
H248 H 0.12769 0.97649 0.414 0.0
C249 C 0.2058 0.8881 0.19616 0.0
C250 C 0.15243 0.90752 0.28063 0.0
H251 H 0.1234 0.97109 0.31458 0.0
C252 C 0.14488 0.89004 0.3163 0.0
C253 C 0.14532 0.9373 0.28076 0.0
C254 C 0.15235 0.95693 0.2427 0.0
C255 C 0.1297 0.90131 0.35124 0.0
C256 C 0.12125 0.93077 0.3501 0.0
C257 C 0.12999 0.94858 0.31567 0.0
C258 C 0.09988 0.94214 0.37989 0.0
C259 C 0.12229 0.8813 0.38857 0.0
C260 C 0.07191 0.9294 0.37565 0.0
C261 C 0.05086 0.93998 0.40139 0.0
C262 C 0.05684 0.96401 0.43204 0.0
C263 C 0.08499 0.97686 0.43664 0.0
C264 C 0.1063 0.9661 0.41049 0.0
H265 H 0.13835 0.86336 0.39444 0.0
H266 H 0.12187 0.8931 0.42216 0.0
H267 H 0.10025 0.87152 0.3772 0.0
H268 H 0.06607 0.91142 0.35155 0.0
H269 H 0.02955 0.92936 0.39651 0.0
H270 H 0.70524 0.64413 0.67508 0.0
H271 H 0.68665 0.61766 0.73795 0.0
H272 H 0.61839 0.68112 0.74025 0.0
H273 H 0.63704 0.70754 0.6775 0.0
H274 H 0.67609 0.6359 0.83087 0.0
H275 H 0.57421 0.60236 0.71446 0.0
H276 H 0.60614 0.61636 0.69242 0.0
H277 H 0.58141 0.64063 0.71589 0.0
C278 C 0.68661 0.6526 0.68976 0.0
C279 C 0.67265 0.6779 0.67202 0.0
C280 C 0.67597 0.63748 0.72545 0.0
C281 C 0.65092 0.64721 0.74337 0.0
C282 C 0.63754 0.67305 0.72656 0.0
H283 H 0.54418 0.61209 0.94703 0.0
H284 H 0.57667 0.63055 0.89487 0.0
C285 C 0.6483 0.68824 0.6911 0.0
C286 C 0.63809 0.62992 0.77839 0.0
H287 H 0.57535 0.59442 0.7959 0.0
C288 C 0.65424 0.62647 0.82308 0.0
C289 C 0.60969 0.61734 0.76801 0.0
C290 C 0.5919 0.61906 0.71998 0.0
C291 C 0.64207 0.61204 0.85831 0.0
C292 C 0.61325 0.60062 0.84843 0.0
C293 C 0.59756 0.60309 0.80329 0.0
C294 C 0.59746 0.58949 0.88568 0.0
C295 C 0.65942 0.61002 0.90651 0.0
C296 C 0.59911 0.56033 0.89911 0.0
C297 C 0.58051 0.5496 0.92952 0.0
C298 C 0.55998 0.56795 0.94629 0.0
C299 C 0.55985 0.59744 0.93481 0.0
C300 C 0.5783 0.60804 0.90483 0.0
H301 H 0.68202 0.61903 0.90834 0.0
H302 H 0.64785 0.62201 0.93184 0.0
H303 H 0.66085 0.58706 0.91729 0.0
H304 H 0.61375 0.54567 0.88444 0.0
H305 H 0.58074 0.52673 0.93718 0.0
H306 H 0.87646 0.22144 0.1154 0.0
H307 H 0.9028 0.20185 0.18826 0.0
H308 H 0.86621 0.11727 0.14934 0.0
H309 H 0.84099 0.13656 0.07597 0.0
H310 H 0.88579 0.1757 0.26214 0.0
H311 H 0.95177 0.09825 0.1743 0.0
H312 H 0.93036 0.12626 0.14291 0.0
H313 H 0.91317 0.09283 0.15594 0.0
C314 C 0.87397 0.19873 0.12276 0.0
C315 C 0.8569 0.18042 0.09012 0.0
C316 C 0.88907 0.18752 0.16421 0.0
C317 C 0.88719 0.15789 0.17378 0.0
C318 C 0.86891 0.13997 0.1421 0.0
H319 H 0.91607 0.04329 0.39438 0.0
H320 H 0.89971 0.0773 0.33274 0.0
C321 C 0.85425 0.15103 0.10043 0.0
C322 C 0.90408 0.14558 0.21685 0.0
H323 H 0.9493 0.08972 0.25547 0.0
C324 C 0.9001 0.15724 0.26062 0.0
C325 C 0.92315 0.12169 0.21507 0.0
C326 C 0.93012 0.10924 0.16949 0.0
C327 C 0.91322 0.14455 0.30239 0.0
C328 C 0.93069 0.11969 0.30035 0.0
C329 C 0.93589 0.10887 0.25685 0.0
C330 C 0.94014 0.10212 0.34216 0.0
C331 C 0.90744 0.1569 0.3486 0.0
C332 C 0.96817 0.10532 0.36876 0.0
C333 C 0.97768 0.08585 0.40466 0.0
C334 C 0.95934 0.06278 0.41365 0.0
C335 C 0.93083 0.0607 0.38819 0.0
C336 C 0.92137 0.08012 0.35292 0.0
H337 H 0.8958 0.17793 0.34472 0.0
H338 H 0.89384 0.14137 0.36521 0.0
H339 H 0.92853 0.15997 0.37242 0.0
H340 H 0.98297 0.1222 0.36074 0.0
H341 H 0.9998 0.08786 0.42346 0.0
H342 H 0.33105 0.4143 0.57364 0.0
H343 H 0.3562 0.42978 0.65078 0.0
H344 H 0.36659 0.34066 0.69134 0.0
H345 H 0.34158 0.32499 0.61425 0.0
H346 H 0.34331 0.41359 0.74755 0.0
H347 H 0.45221 0.37915 0.7043 0.0
H348 H 0.42137 0.38637 0.65979 0.0
H349 H 0.42204 0.35379 0.69272 0.0
C350 C 0.33854 0.39801 0.5991 0.0
C351 C 0.33448 0.36841 0.58776 0.0
C352 C 0.35276 0.40688 0.64318 0.0
C353 C 0.36344 0.38634 0.67656 0.0
C354 C 0.35862 0.35683 0.66595 0.0
H355 H 0.44804 0.44154 0.96107 0.0
H356 H 0.42283 0.40878 0.89928 0.0
C357 C 0.34418 0.34794 0.62201 0.0
C358 C 0.38097 0.39584 0.72145 0.0
H359 H 0.45161 0.40149 0.77762 0.0
C360 C 0.36691 0.41051 0.75462 0.0
C361 C 0.41179 0.392 0.7302 0.0
C362 C 0.42796 0.37713 0.69493 0.0
C363 C 0.38301 0.42202 0.79597 0.0
C364 C 0.41391 0.4187 0.80428 0.0
C365 C 0.42786 0.40345 0.77157 0.0
C366 C 0.43234 0.43524 0.84221 0.0
C367 C 0.36721 0.43912 0.82933 0.0
C368 C 0.44687 0.46012 0.8304 0.0
C369 C 0.46103 0.47855 0.86516 0.0
C370 C 0.46125 0.47246 0.91262 0.0
C371 C 0.44841 0.44654 0.92475 0.0
C372 C 0.43384 0.42804 0.88957 0.0
H373 H 0.34315 0.44024 0.8173 0.0
H374 H 0.37086 0.42905 0.86423 0.0
H375 H 0.37626 0.46149 0.83339 0.0
H376 H 0.44599 0.46607 0.79417 0.0
H377 H 0.47073 0.49843 0.85487 0.0
H378 H 0.62112 0.67113 0.5197 0.0
H379 H 0.59923 0.64947 0.44553 0.0
H380 H 0.67881 0.66667 0.38811 0.0
H381 H 0.7018 0.68654 0.46356 0.0
H382 H 0.58597 0.67038 0.36152 0.0
H383 H 0.66752 0.58289 0.35431 0.0
H384 H 0.66673 0.60509 0.40584 0.0
H385 H 0.6836 0.61843 0.358 0.0
C386 C 0.63432 0.66983 0.49174 0.0
C387 C 0.66354 0.6802 0.49824 0.0
C388 C 0.62156 0.65771 0.44899 0.0
C389 C 0.63747 0.65588 0.41127 0.0
C390 C 0.66629 0.66709 0.41695 0.0
H391 H 0.57503 0.58501 0.12836 0.0
H392 H 0.59864 0.61769 0.19128 0.0
C393 C 0.67928 0.6789 0.46005 0.0
C394 C 0.62358 0.6423 0.36628 0.0
H395 H 0.63084 0.58728 0.28846 0.0
C396 C 0.59594 0.65234 0.34548 0.0
C397 C 0.63639 0.61854 0.34533 0.0
C398 C 0.66503 0.60539 0.3672 0.0
C399 C 0.58071 0.63908 0.30492 0.0
C400 C 0.59353 0.61546 0.28424 0.0
C401 C 0.62136 0.60577 0.30416 0.0
C402 C 0.57709 0.59846 0.245 0.0
C403 C 0.55063 0.6498 0.28491 0.0
C404 C 0.55694 0.57732 0.25446 0.0
C405 C 0.54386 0.55861 0.21902 0.0
C406 C 0.55035 0.56097 0.17331 0.0
C407 C 0.5694 0.58309 0.16321 0.0
C408 C 0.58297 0.60156 0.19906 0.0
H409 H 0.54534 0.6707 0.30111 0.0
H410 H 0.54912 0.65249 0.24658 0.0
H411 H 0.53384 0.6335 0.29097 0.0
H412 H 0.55222 0.57457 0.2897 0.0
H413 H 0.5293 0.54166 0.22763 0.0
H414 H 0.86001 0.21417 0.88471 0.0
H415 H 0.88078 0.19057 0.82033 0.0
H416 H 0.86417 0.10695 0.87535 0.0
H417 H 0.8434 0.13031 0.93942 0.0
H418 H 0.93036 0.15099 0.83232 0.0
H419 H 0.82962 0.09985 0.73451 0.0
H420 H 0.82833 0.1296 0.77536 0.0
H421 H 0.83582 0.09364 0.79632 0.0
C422 C 0.86028 0.19076 0.8825 0.0
C423 C 0.84996 0.17411 0.91704 0.0
C424 C 0.87231 0.1773 0.84591 0.0
C425 C 0.87376 0.14697 0.84274 0.0
C426 C 0.86291 0.13034 0.87664 0.0
H427 H 0.95427 0.02552 0.66421 0.0
H428 H 0.92426 0.04727 0.71936 0.0
C429 C 0.85118 0.14374 0.91338 0.0
C430 C 0.88801 0.13265 0.80553 0.0
H431 H 0.87509 0.08646 0.71108 0.0
C432 C 0.91823 0.13706 0.80561 0.0
C433 C 0.87227 0.11412 0.77113 0.0
C434 C 0.83966 0.10909 0.76886 0.0
C435 C 0.93318 0.12327 0.7725 0.0
C436 C 0.91735 0.1051 0.73754 0.0
C437 C 0.88717 0.10045 0.73772 0.0
C438 C 0.93187 0.09144 0.70004 0.0
C439 C 0.96598 0.12776 0.7759 0.0
C440 C 0.94493 0.10889 0.66947 0.0
C441 C 0.96198 0.09656 0.63829 0.0
C442 C 0.9658 0.06647 0.63623 0.0
C443 C 0.9511 0.04874 0.66444 0.0
C444 C 0.93421 0.06117 0.69619 0.0
H445 H 0.97586 0.13592 0.81105 0.0
H446 H 0.97704 0.1073 0.76825 0.0
H447 H 0.97047 0.14398 0.74994 0.0
H448 H 0.94296 0.13221 0.6711 0.0
H449 H 0.97337 0.11066 0.61723 0.0
H450 H 0.29614 0.36946 0.36427 0.0
H451 H 0.31822 0.38924 0.2995 0.0
H452 H 0.40052 0.4013 0.39072 0.0
H453 H 0.37956 0.37959 0.45422 0.0
H454 H 0.34054 0.44109 0.2868 0.0
H455 H 0.42983 0.36147 0.28486 0.0
H456 H 0.40035 0.35615 0.31867 0.0
H457 H 0.43148 0.37879 0.34094 0.0
C458 C 0.31911 0.37574 0.37041 0.0
C459 C 0.33589 0.37283 0.41492 0.0
C460 C 0.33166 0.38734 0.33332 0.0
C461 C 0.36127 0.39637 0.33976 0.0
C462 C 0.3779 0.39385 0.38422 0.0
H463 H 0.47217 0.49917 0.19241 0.0
H464 H 0.44039 0.48037 0.24613 0.0
C465 C 0.36557 0.38187 0.421 0.0
C466 C 0.37461 0.40916 0.3006 0.0
H467 H 0.43441 0.40522 0.24304 0.0
C468 C 0.36087 0.43297 0.27692 0.0
C469 C 0.40116 0.39861 0.2873 0.0
C470 C 0.41638 0.37217 0.30898 0.0
C471 C 0.3734 0.44695 0.24162 0.0
C472 C 0.40029 0.43694 0.22965 0.0
C473 C 0.41376 0.41287 0.25246 0.0
C474 C 0.41559 0.45179 0.19489 0.0
C475 C 0.35824 0.47265 0.21764 0.0
C476 C 0.41163 0.44248 0.14792 0.0
C477 C 0.42979 0.45328 0.11707 0.0
C478 C 0.45185 0.47374 0.13278 0.0
C479 C 0.45466 0.4841 0.17912 0.0
C480 C 0.43673 0.4732 0.20992 0.0
H481 H 0.3371 0.47757 0.23025 0.0
H482 H 0.37287 0.49194 0.22373 0.0
H483 H 0.35393 0.46844 0.17937 0.0
H484 H 0.39557 0.42578 0.13582 0.0
H485 H 0.42779 0.44439 0.08191 0.0
H486 H 0.13587 0.87294 0.01173 0.0
H487 H 0.11138 0.89216 0.93807 0.0
H488 H 0.1934 0.89134 0.883 0.0
H489 H 0.21856 0.87302 0.95722 0.0
H490 H 0.14702 0.94842 0.87964 0.0
H491 H 0.10784 0.84161 0.80154 0.0
H492 H 0.10895 0.84847 0.86333 0.0
H493 H 0.14262 0.84518 0.83957 0.0
C494 C 0.14895 0.87715 0.98436 0.0
C495 C 0.17938 0.87143 0.99085 0.0
C496 C 0.13477 0.88794 0.94208 0.0
C497 C 0.15058 0.89306 0.90517 0.0
C498 C 0.18084 0.88744 0.91116 0.0
H499 H 0.09958 0.95815 0.62419 0.0
H500 H 0.12333 0.93108 0.69186 0.0
C501 C 0.19511 0.87673 0.95354 0.0
C502 C 0.13534 0.90428 0.86036 0.0
H503 H 0.09363 0.88311 0.75756 0.0
C504 C 0.13544 0.93419 0.85286 0.0
C505 C 0.12024 0.88561 0.82565 0.0
C506 C 0.11975 0.85336 0.83247 0.0
C507 C 0.12055 0.94591 0.81151 0.0
C508 C 0.10519 0.92724 0.77695 0.0
C509 C 0.10538 0.89732 0.78421 0.0
C510 C 0.08863 0.93882 0.73336 0.0
C511 C 0.1211 0.97821 0.80489 0.0
C512 C 0.06076 0.95096 0.73369 0.0
C513 C 0.04696 0.96582 0.6948 0.0
C514 C 0.06086 0.9688 0.65509 0.0
C515 C 0.08805 0.95532 0.65386 0.0
C516 C 0.10174 0.94019 0.69262 0.0
H517 H 0.13638 0.98948 0.83285 0.0
H518 H 0.12779 0.98321 0.77056 0.0
H519 H 0.09866 0.98695 0.80499 0.0
H520 H 0.05042 0.95029 0.76494 0.0
H521 H 0.0265 0.97691 0.69714 0.0
loop_
_geom_bond_atom_site_label_1
_geom_bond_atom_site_label_2
_geom_bond_distance
_geom_bond_site_symmetry_2
_ccdc_geom_bond_type
H0 C5 0.930 . S
H1 C8 0.930 . S
H2 C10 0.930 . S
H3 C4 1.016 . S
C4 H3 1.016 . S
C4 N11 1.286 . S
C5 H0 0.930 . S
C5 C6 1.397 . S
C5 C7 1.361 . S
C6 C5 1.397 . S
C6 C10 1.390 . S
C7 C5 1.361 . S
C7 C8 1.393 . S
C7 N11 1.413 . S
C8 H1 0.930 . S
C8 C7 1.393 . S
C8 C9 1.399 . S
C9 C8 1.399 . S
C9 C10 1.381 . S
C10 H2 0.930 . S
C10 C6 1.390 . S
C10 C9 1.381 . S
N11 C4 1.286 . S
N11 C7 1.413 . S
H12 C17 0.930 . S
H13 C20 0.930 . S
H14 C22 0.930 . S
H15 C16 1.016 . S
C16 H15 1.016 . S
C16 N23 1.286 . S
C17 H12 0.930 . S
C17 C18 1.397 . S
C17 C19 1.361 . S
C18 C17 1.397 . S
C18 C22 1.390 . S
C19 C17 1.361 . S
C19 C20 1.393 . S
C19 N23 1.413 . S
C20 H13 0.930 . S
C20 C19 1.393 . S
C20 C21 1.399 . S
C21 C20 1.399 . S
C21 C22 1.381 . S
C22 H14 0.930 . S
C22 C18 1.390 . S
C22 C21 1.381 . S
N23 C16 1.286 . S
N23 C19 1.413 . S
H24 C29 0.930 . S
H25 C32 0.930 . S
H26 C34 0.930 . S
H27 C28 1.016 . S
C28 H27 1.016 . S
C28 N35 1.286 1_554 S
C29 H24 0.930 . S
C29 C30 1.397 . S
C29 C31 1.361 . S
C30 C29 1.397 . S
C30 C34 1.390 1_556 S
C31 C29 1.361 . S
C31 C32 1.393 1_556 S
C31 N35 1.413 . S
C32 H25 0.930 . S
C32 C31 1.393 1_554 S
C32 C33 1.399 . S
C33 C32 1.399 . S
C33 C34 1.381 . S
C34 H26 0.930 . S
C34 C30 1.390 1_554 S
C34 C33 1.381 . S
N35 C28 1.286 1_556 S
N35 C31 1.413 . S
H36 C41 0.930 . S
H37 C44 0.930 . S
H38 C46 0.930 . S
H39 C40 1.016 . S
C40 H39 1.016 . S
C40 N47 1.286 . S
C41 H36 0.930 . S
C41 C42 1.397 . S
C41 C43 1.361 . S
C42 C41 1.397 . S
C42 C46 1.390 . S
C43 C41 1.361 . S
C43 C44 1.393 . S
C43 N47 1.413 . S
C44 H37 0.930 . S
C44 C43 1.393 . S
C44 C45 1.399 . S
C45 C44 1.399 . S
C45 C46 1.381 . S
C46 H38 0.930 . S
C46 C42 1.390 . S
C46 C45 1.381 . S
N47 C40 1.286 . S
N47 C43 1.413 . S
O48 Mn49 2.163 1_655 S
O48 C62 1.244 . S
Mn49 O48 2.163 1_455 S
Mn49 O52 2.160 1_545 S
Mn49 O53 2.221 . S
Mn49 O55 2.163 1_455 S
Mn49 O57 2.160 1_545 S
Mn49 O67 2.221 1_445 S
O50 Mn51 2.087 1_545 S
O50 C62 1.256 . S
Mn51 O50 2.087 1_565 S
Mn51 O58 2.089 1_655 S
Mn51 O67 2.290 . S
Mn51 O68 2.251 . S
O52 Mn49 2.160 1_565 S
O52 C63 1.239 . S
O53 Mn49 2.221 . S
O53 Mn54 2.290 . S
O53 C64 1.278 . S
Mn54 O53 2.290 . S
Mn54 O56 2.089 . S
Mn54 O59 2.251 . S
Mn54 O60 2.087 . S
O55 Mn49 2.163 1_655 S
O55 C65 1.244 . S
O56 Mn54 2.089 . S
O56 C63 1.256 1_545 S
O57 Mn49 2.160 1_565 S
O57 C66 1.239 . S
O58 Mn51 2.089 1_455 S
O58 C66 1.256 . S
O59 Mn54 2.251 . S
O59 C64 1.241 . S
O60 Mn54 2.087 . S
O60 C65 1.256 1_455 S
C61 O67 1.278 . S
C61 O68 1.241 . S
C62 O48 1.244 . S
C62 O50 1.256 . S
C63 O52 1.239 . S
C63 O56 1.256 1_565 S
C64 O53 1.278 . S
C64 O59 1.241 . S
C65 O55 1.244 . S
C65 O60 1.256 1_655 S
C66 O57 1.239 . S
C66 O58 1.256 . S
O67 Mn49 2.221 1_665 S
O67 Mn51 2.290 . S
O67 C61 1.278 . S
O68 Mn51 2.251 . S
O68 C61 1.241 . S
O69 Mn70 2.163 . S
O69 C83 1.244 . S
Mn70 O69 2.163 . S
Mn70 O73 2.160 1_554 S
Mn70 O74 2.221 . S
Mn70 O76 2.163 1_554 S
Mn70 O78 2.160 . S
Mn70 O88 2.221 . S
O71 Mn72 2.087 . S
O71 C83 1.256 . S
Mn72 O71 2.087 . S
Mn72 O79 2.089 . S
Mn72 O88 2.290 . S
Mn72 O89 2.251 . S
O73 Mn70 2.160 1_556 S
O73 C84 1.239 . S
O74 Mn70 2.221 . S
O74 Mn75 2.290 1_554 S
O74 C85 1.278 . S
Mn75 O74 2.290 1_556 S
Mn75 O77 2.089 . S
Mn75 O80 2.251 1_556 S
Mn75 O81 2.087 . S
O76 Mn70 2.163 1_556 S
O76 C86 1.244 . S
O77 Mn75 2.089 . S
O77 C84 1.256 . S
O78 Mn70 2.160 . S
O78 C87 1.239 . S
O79 Mn72 2.089 . S
O79 C87 1.256 . S
O80 Mn75 2.251 1_554 S
O80 C85 1.241 . S
O81 Mn75 2.087 . S
O81 C86 1.256 . S
C82 O88 1.278 . S
C82 O89 1.241 . S
C83 O69 1.244 . S
C83 O71 1.256 . S
C84 O73 1.239 . S
C84 O77 1.256 . S
C85 O74 1.278 . S
C85 O80 1.241 . S
C86 O76 1.244 . S
C86 O81 1.256 . S
C87 O78 1.239 . S
C87 O79 1.256 . S
O88 Mn70 2.221 . S
O88 Mn72 2.290 . S
O88 C82 1.278 . S
O89 Mn72 2.251 . S
O89 C82 1.241 . S
H90 C98 0.929 . S
H91 C100 0.930 . S
H92 C102 0.930 . S
H93 C105 0.929 . S
H94 C108 0.930 . S
H95 C110 0.960 . S
H96 C110 0.960 . S
H97 C110 0.960 . S
C98 H90 0.929 . S
C98 C99 1.377 . S
C98 C100 1.384 . S
C99 C98 1.377 . S
C99 C105 1.390 . S
C100 H91 0.930 . S
C100 C98 1.384 . S
C100 C101 1.372 . S
C101 C100 1.372 . S
C101 C102 1.400 . S
C101 C106 1.490 . S
C102 H92 0.930 . S
C102 C101 1.400 . S
C102 C105 1.386 . S
H103 C119 0.930 . S
H104 C120 0.931 . S
C105 H93 0.929 . S
C105 C99 1.390 . S
C105 C102 1.386 . S
C106 C101 1.490 . S
C106 C108 1.395 . S
C106 C109 1.403 . S
H107 C113 0.930 . S
C108 H94 0.930 . S
C108 C106 1.395 . S
C108 C111 1.403 . S
C109 C106 1.403 . S
C109 C110 1.524 . S
C109 C113 1.400 . S
C110 H95 0.960 . S
C110 H96 0.960 . S
C110 H97 0.960 . S
C110 C109 1.524 . S
C111 C108 1.403 . S
C111 C112 1.392 . S
C111 C115 1.495 . S
C112 C111 1.392 . S
C112 C113 1.385 . S
C112 C114 1.478 . S
C113 H107 0.930 . S
C113 C109 1.400 . S
C113 C112 1.385 . S
C114 C112 1.478 . S
C114 C116 1.381 . S
C114 C120 1.383 . S
C115 C111 1.495 . S
C115 H121 0.959 . S
C115 H122 0.961 . S
C115 H123 0.960 . S
C116 C114 1.381 . S
C116 C117 1.394 . S
C116 H124 0.930 . S
C117 C116 1.394 . S
C117 C118 1.383 . S
C117 H125 0.929 . S
C118 C117 1.383 . S
C118 C119 1.377 . S
C119 H103 0.930 . S
C119 C118 1.377 . S
C119 C120 1.379 . S
C120 H104 0.931 . S
C120 C114 1.383 . S
C120 C119 1.379 . S
H121 C115 0.959 . S
H122 C115 0.961 . S
H123 C115 0.960 . S
H124 C116 0.930 . S
H125 C117 0.929 . S
H126 C134 0.929 . S
H127 C136 0.930 . S
H128 C138 0.930 . S
H129 C141 0.929 . S
H130 C144 0.930 . S
H131 C146 0.960 . S
H132 C146 0.960 . S
H133 C146 0.960 . S
C134 H126 0.929 . S
C134 C135 1.377 . S
C134 C136 1.384 . S
C135 C134 1.377 . S
C135 C141 1.390 . S
C136 H127 0.930 . S
C136 C134 1.384 . S
C136 C137 1.372 . S
C137 C136 1.372 . S
C137 C138 1.400 . S
C137 C142 1.490 . S
C138 H128 0.930 . S
C138 C137 1.400 . S
C138 C141 1.386 . S
H139 C155 0.930 . S
H140 C156 0.931 . S
C141 H129 0.929 . S
C141 C135 1.390 . S
C141 C138 1.386 . S
C142 C137 1.490 . S
C142 C144 1.395 . S
C142 C145 1.403 . S
H143 C149 0.930 . S
C144 H130 0.930 . S
C144 C142 1.395 . S
C144 C147 1.403 . S
C145 C142 1.403 . S
C145 C146 1.524 . S
C145 C149 1.400 . S
C146 H131 0.960 . S
C146 H132 0.960 . S
C146 H133 0.960 . S
C146 C145 1.524 . S
C147 C144 1.403 . S
C147 C148 1.392 . S
C147 C151 1.495 . S
C148 C147 1.392 . S
C148 C149 1.385 . S
C148 C150 1.478 . S
C149 H143 0.930 . S
C149 C145 1.400 . S
C149 C148 1.385 . S
C150 C148 1.478 . S
C150 C152 1.381 . S
C150 C156 1.383 . S
C151 C147 1.495 . S
C151 H157 0.959 . S
C151 H158 0.961 1_554 S
C151 H159 0.960 . S
C152 C150 1.381 . S
C152 C153 1.394 . S
C152 H160 0.930 . S
C153 C152 1.394 . S
C153 C154 1.383 . S
C153 H161 0.929 . S
C154 C153 1.383 . S
C154 C155 1.377 . S
C155 H139 0.930 . S
C155 C154 1.377 . S
C155 C156 1.379 . S
C156 H140 0.931 . S
C156 C150 1.383 . S
C156 C155 1.379 . S
H157 C151 0.959 . S
H158 C151 0.961 1_556 S
H159 C151 0.960 . S
H160 C152 0.930 . S
H161 C153 0.929 . S
H162 C170 0.929 . S
H163 C172 0.930 . S
H164 C174 0.930 . S
H165 C177 0.929 . S
H166 C180 0.930 . S
H167 C182 0.960 . S
H168 C182 0.960 . S
H169 C182 0.960 . S
C170 H162 0.929 . S
C170 C171 1.377 . S
C170 C172 1.384 . S
C171 C170 1.377 . S
C171 C177 1.390 . S
C172 H163 0.930 . S
C172 C170 1.384 . S
C172 C173 1.372 . S
C173 C172 1.372 . S
C173 C174 1.400 . S
C173 C178 1.490 . S
C174 H164 0.930 . S
C174 C173 1.400 . S
C174 C177 1.386 . S
H175 C191 0.930 . S
H176 C192 0.931 . S
C177 H165 0.929 . S
C177 C171 1.390 . S
C177 C174 1.386 . S
C178 C173 1.490 . S
C178 C180 1.395 . S
C178 C181 1.403 . S
H179 C185 0.930 . S
C180 H166 0.930 . S
C180 C178 1.395 . S
C180 C183 1.403 . S
C181 C178 1.403 . S
C181 C182 1.524 . S
C181 C185 1.400 . S
C182 H167 0.960 . S
C182 H168 0.960 . S
C182 H169 0.960 . S
C182 C181 1.524 . S
C183 C180 1.403 . S
C183 C184 1.392 . S
C183 C187 1.495 . S
C184 C183 1.392 . S
C184 C185 1.385 . S
C184 C186 1.478 . S
C185 H179 0.930 . S
C185 C181 1.400 . S
C185 C184 1.385 . S
C186 C184 1.478 . S
C186 C188 1.381 . S
C186 C192 1.383 . S
C187 C183 1.495 . S
C187 H193 0.959 . S
C187 H194 0.961 . S
C187 H195 0.960 . S
C188 C186 1.381 . S
C188 C189 1.394 . S
C188 H196 0.930 . S
C189 C188 1.394 . S
C189 C190 1.383 . S
C189 H197 0.929 . S
C190 C189 1.383 . S
C190 C191 1.377 . S
C191 H175 0.930 . S
C191 C190 1.377 . S
C191 C192 1.379 . S
C192 H176 0.931 . S
C192 C186 1.383 . S
C192 C191 1.379 . S
H193 C187 0.959 . S
H194 C187 0.961 . S
H195 C187 0.960 . S
H196 C188 0.930 . S
H197 C189 0.929 . S
H198 C206 0.929 . S
H199 C208 0.930 . S
H200 C210 0.930 . S
H201 C213 0.929 . S
H202 C216 0.930 . S
H203 C218 0.960 . S
H204 C218 0.960 . S
H205 C218 0.960 1_556 S
C206 H198 0.929 . S
C206 C207 1.377 . S
C206 C208 1.384 . S
C207 C206 1.377 . S
C207 C213 1.390 1_554 S
C208 H199 0.930 . S
C208 C206 1.384 . S
C208 C209 1.372 . S
C209 C208 1.372 . S
C209 C210 1.400 1_554 S
C209 C214 1.490 . S
C210 H200 0.930 . S
C210 C209 1.400 1_556 S
C210 C213 1.386 . S
H211 C227 0.930 . S
H212 C228 0.931 . S
C213 H201 0.929 . S
C213 C207 1.390 1_556 S
C213 C210 1.386 . S
C214 C209 1.490 . S
C214 C216 1.395 . S
C214 C217 1.403 . S
H215 C221 0.930 . S
C216 H202 0.930 . S
C216 C214 1.395 . S
C216 C219 1.403 . S
C217 C214 1.403 . S
C217 C218 1.524 . S
C217 C221 1.400 . S
C218 H203 0.960 . S
C218 H204 0.960 . S
C218 H205 0.960 1_554 S
C218 C217 1.524 . S
C219 C216 1.403 . S
C219 C220 1.392 . S
C219 C223 1.495 . S
C220 C219 1.392 . S
C220 C221 1.385 . S
C220 C222 1.478 . S
C221 H215 0.930 . S
C221 C217 1.400 . S
C221 C220 1.385 . S
C222 C220 1.478 . S
C222 C224 1.381 . S
C222 C228 1.383 1_554 S
C223 C219 1.495 . S
C223 H229 0.959 . S
C223 H230 0.972 . S
C223 H231 0.960 . S
C224 C222 1.381 . S
C224 C225 1.394 . S
C224 H232 0.930 . S
C225 C224 1.394 . S
C225 C226 1.383 . S
C225 H233 0.929 . S
C226 C225 1.383 . S
C226 C227 1.377 1_554 S
C227 H211 0.930 . S
C227 C226 1.377 1_556 S
C227 C228 1.379 . S
C228 H212 0.931 . S
C228 C222 1.383 1_556 S
C228 C227 1.379 . S
H229 C223 0.959 . S
H230 C223 0.972 . S
H231 C223 0.960 . S
H232 C224 0.930 . S
H233 C225 0.929 . S
H234 C242 0.929 . S
H235 C244 0.930 . S
H236 C246 0.930 . S
H237 C249 0.929 . S
H238 C252 0.930 . S
H239 C254 0.960 . S
H240 C254 0.960 . S
H241 C254 0.960 . S
C242 H234 0.929 . S
C242 C243 1.377 . S
C242 C244 1.384 . S
C243 C242 1.377 . S
C243 C249 1.390 . S
C244 H235 0.930 . S
C244 C242 1.384 . S
C244 C245 1.372 . S
C245 C244 1.372 . S
C245 C246 1.400 . S
C245 C250 1.490 . S
C246 H236 0.930 . S
C246 C245 1.400 . S
C246 C249 1.386 . S
H247 C263 0.930 . S
H248 C264 0.931 . S
C249 H237 0.929 . S
C249 C243 1.390 . S
C249 C246 1.386 . S
C250 C245 1.490 . S
C250 C252 1.395 . S
C250 C253 1.403 . S
H251 C257 0.930 . S
C252 H238 0.930 . S
C252 C250 1.395 . S
C252 C255 1.403 . S
C253 C250 1.403 . S
C253 C254 1.524 . S
C253 C257 1.400 . S
C254 H239 0.960 . S
C254 H240 0.960 . S
C254 H241 0.960 . S
C254 C253 1.524 . S
C255 C252 1.403 . S
C255 C256 1.392 . S
C255 C259 1.495 . S
C256 C255 1.392 . S
C256 C257 1.385 . S
C256 C258 1.478 . S
C257 H251 0.930 . S
C257 C253 1.400 . S
C257 C256 1.385 . S
C258 C256 1.478 . S
C258 C260 1.381 . S
C258 C264 1.383 . S
C259 C255 1.495 . S
C259 H265 0.959 . S
C259 H266 0.961 . S
C259 H267 0.960 . S
C260 C258 1.381 . S
C260 C261 1.394 . S
C260 H268 0.930 . S
C261 C260 1.394 . S
C261 C262 1.383 . S
C261 H269 0.929 . S
C262 C261 1.383 . S
C262 C263 1.377 . S
C263 H247 0.930 . S
C263 C262 1.377 . S
C263 C264 1.379 . S
C264 H248 0.931 . S
C264 C258 1.383 . S
C264 C263 1.379 . S
H265 C259 0.959 . S
H266 C259 0.961 . S
H267 C259 0.960 . S
H268 C260 0.930 . S
H269 C261 0.929 . S
H270 C278 0.929 . S
H271 C280 0.930 . S
H272 C282 0.930 . S
H273 C285 0.929 . S
H274 C288 0.930 . S
H275 C290 0.960 . S
H276 C290 0.960 . S
H277 C290 0.960 . S
C278 H270 0.929 . S
C278 C279 1.377 . S
C278 C280 1.384 . S
C279 C278 1.377 . S
C279 C285 1.390 . S
C280 H271 0.930 . S
C280 C278 1.384 . S
C280 C281 1.372 . S
C281 C280 1.372 . S
C281 C282 1.400 . S
C281 C286 1.490 . S
C282 H272 0.930 . S
C282 C281 1.400 . S
C282 C285 1.386 . S
H283 C299 0.930 . S
H284 C300 0.931 . S
C285 H273 0.929 . S
C285 C279 1.390 . S
C285 C282 1.386 . S
C286 C281 1.490 . S
C286 C288 1.395 . S
C286 C289 1.403 . S
H287 C293 0.930 . S
C288 H274 0.930 . S
C288 C286 1.395 . S
C288 C291 1.403 . S
C289 C286 1.403 . S
C289 C290 1.524 . S
C289 C293 1.400 . S
C290 H275 0.960 . S
C290 H276 0.960 . S
C290 H277 0.960 . S
C290 C289 1.524 . S
C291 C288 1.403 . S
C291 C292 1.392 . S
C291 C295 1.495 . S
C292 C291 1.392 . S
C292 C293 1.385 . S
C292 C294 1.478 . S
C293 H287 0.930 . S
C293 C289 1.400 . S
C293 C292 1.385 . S
C294 C292 1.478 . S
C294 C296 1.381 . S
C294 C300 1.383 . S
C295 C291 1.495 . S
C295 H301 0.959 . S
C295 H302 0.961 . S
C295 H303 0.960 . S
C296 C294 1.381 . S
C296 C297 1.394 . S
C296 H304 0.930 . S
C297 C296 1.394 . S
C297 C298 1.383 . S
C297 H305 0.929 . S
C298 C297 1.383 . S
C298 C299 1.377 . S
C299 H283 0.930 . S
C299 C298 1.377 . S
C299 C300 1.379 . S
C300 H284 0.931 . S
C300 C294 1.383 . S
C300 C299 1.379 . S
H301 C295 0.959 . S
H302 C295 0.961 . S
H303 C295 0.960 . S
H304 C296 0.930 . S
H305 C297 0.929 . S
H306 C314 0.929 . S
H307 C316 0.930 . S
H308 C318 0.930 . S
H309 C321 0.929 . S
H310 C324 0.930 . S
H311 C326 0.960 . S
H312 C326 0.960 . S
H313 C326 0.960 . S
C314 H306 0.929 . S
C314 C315 1.377 . S
C314 C316 1.384 . S
C315 C314 1.377 . S
C315 C321 1.390 . S
C316 H307 0.930 . S
C316 C314 1.384 . S
C316 C317 1.372 . S
C317 C316 1.372 . S
C317 C318 1.400 . S
C317 C322 1.490 . S
C318 H308 0.930 . S
C318 C317 1.400 . S
C318 C321 1.386 . S
H319 C335 0.930 . S
H320 C336 0.931 . S
C321 H309 0.929 . S
C321 C315 1.390 . S
C321 C318 1.386 . S
C322 C317 1.490 . S
C322 C324 1.395 . S
C322 C325 1.403 . S
H323 C329 0.930 . S
C324 H310 0.930 . S
C324 C322 1.395 . S
C324 C327 1.403 . S
C325 C322 1.403 . S
C325 C326 1.524 . S
C325 C329 1.400 . S
C326 H311 0.960 . S
C326 H312 0.960 . S
C326 H313 0.960 . S
C326 C325 1.524 . S
C327 C324 1.403 . S
C327 C328 1.392 . S
C327 C331 1.495 . S
C328 C327 1.392 . S
C328 C329 1.385 . S
C328 C330 1.478 . S
C329 H323 0.930 . S
C329 C325 1.400 . S
C329 C328 1.385 . S
C330 C328 1.478 . S
C330 C332 1.381 . S
C330 C336 1.383 . S
C331 C327 1.495 . S
C331 H337 0.959 . S
C331 H338 0.961 . S
C331 H339 0.960 . S
C332 C330 1.381 . S
C332 C333 1.394 . S
C332 H340 0.930 . S
C333 C332 1.394 . S
C333 C334 1.383 . S
C333 H341 0.929 . S
C334 C333 1.383 . S
C334 C335 1.377 . S
C335 H319 0.930 . S
C335 C334 1.377 . S
C335 C336 1.379 . S
C336 H320 0.931 . S
C336 C330 1.383 . S
C336 C335 1.379 . S
H337 C331 0.959 . S
H338 C331 0.961 . S
H339 C331 0.960 . S
H340 C332 0.930 . S
H341 C333 0.929 . S
H342 C350 0.929 . S
H343 C352 0.930 . S
H344 C354 0.930 . S
H345 C357 0.929 . S
H346 C360 0.930 . S
H347 C362 0.960 . S
H348 C362 0.960 . S
H349 C362 0.960 . S
C350 H342 0.929 . S
C350 C351 1.377 . S
C350 C352 1.384 . S
C351 C350 1.377 . S
C351 C357 1.390 . S
C352 H343 0.930 . S
C352 C350 1.384 . S
C352 C353 1.372 . S
C353 C352 1.372 . S
C353 C354 1.400 . S
C353 C358 1.490 . S
C354 H344 0.930 . S
C354 C353 1.400 . S
C354 C357 1.386 . S
H355 C371 0.930 . S
H356 C372 0.931 . S
C357 H345 0.929 . S
C357 C351 1.390 . S
C357 C354 1.386 . S
C358 C353 1.490 . S
C358 C360 1.395 . S
C358 C361 1.403 . S
H359 C365 0.930 . S
C360 H346 0.930 . S
C360 C358 1.395 . S
C360 C363 1.403 . S
C361 C358 1.403 . S
C361 C362 1.524 . S
C361 C365 1.400 . S
C362 H347 0.960 . S
C362 H348 0.960 . S
C362 H349 0.960 . S
C362 C361 1.524 . S
C363 C360 1.403 . S
C363 C364 1.392 . S
C363 C367 1.495 . S
C364 C363 1.392 . S
C364 C365 1.385 . S
C364 C366 1.478 . S
C365 H359 0.930 . S
C365 C361 1.400 . S
C365 C364 1.385 . S
C366 C364 1.478 . S
C366 C368 1.381 . S
C366 C372 1.383 . S
C367 C363 1.495 . S
C367 H373 0.959 . S
C367 H374 0.961 . S
C367 H375 0.960 . S
C368 C366 1.381 . S
C368 C369 1.394 . S
C368 H376 0.930 . S
C369 C368 1.394 . S
C369 C370 1.383 . S
C369 H377 0.929 . S
C370 C369 1.383 . S
C370 C371 1.377 . S
C371 H355 0.930 . S
C371 C370 1.377 . S
C371 C372 1.379 . S
C372 H356 0.931 . S
C372 C366 1.383 . S
C372 C371 1.379 . S
H373 C367 0.959 . S
H374 C367 0.961 . S
H375 C367 0.960 . S
H376 C368 0.930 . S
H377 C369 0.929 . S
H378 C386 0.929 . S
H379 C388 0.930 . S
H380 C390 0.930 . S
H381 C393 0.929 . S
H382 C396 0.930 . S
H383 C398 0.960 . S
H384 C398 0.960 . S
H385 C398 0.960 . S
C386 H378 0.929 . S
C386 C387 1.377 . S
C386 C388 1.384 . S
C387 C386 1.377 . S
C387 C393 1.390 . S
C388 H379 0.930 . S
C388 C386 1.384 . S
C388 C389 1.372 . S
C389 C388 1.372 . S
C389 C390 1.400 . S
C389 C394 1.490 . S
C390 H380 0.930 . S
C390 C389 1.400 . S
C390 C393 1.386 . S
H391 C407 0.930 . S
H392 C408 0.931 . S
C393 H381 0.929 . S
C393 C387 1.390 . S
C393 C390 1.386 . S
C394 C389 1.490 . S
C394 C396 1.395 . S
C394 C397 1.403 . S
H395 C401 0.930 . S
C396 H382 0.930 . S
C396 C394 1.395 . S
C396 C399 1.403 . S
C397 C394 1.403 . S
C397 C398 1.524 . S
C397 C401 1.400 . S
C398 H383 0.960 . S
C398 H384 0.960 . S
C398 H385 0.960 . S
C398 C397 1.524 . S
C399 C396 1.403 . S
C399 C400 1.392 . S
C399 C403 1.495 . S
C400 C399 1.392 . S
C400 C401 1.385 . S
C400 C402 1.478 . S
C401 H395 0.930 . S
C401 C397 1.400 . S
C401 C400 1.385 . S
C402 C400 1.478 . S
C402 C404 1.381 . S
C402 C408 1.383 . S
C403 C399 1.495 . S
C403 H409 0.959 . S
C403 H410 0.961 . S
C403 H411 0.960 . S
C404 C402 1.381 . S
C404 C405 1.394 . S
C404 H412 0.930 . S
C405 C404 1.394 . S
C405 C406 1.383 . S
C405 H413 0.929 . S
C406 C405 1.383 . S
C406 C407 1.377 . S
C407 H391 0.930 . S
C407 C406 1.377 . S
C407 C408 1.379 . S
C408 H392 0.931 . S
C408 C402 1.383 . S
C408 C407 1.379 . S
H409 C403 0.959 . S
H410 C403 0.961 . S
H411 C403 0.960 . S
H412 C404 0.930 . S
H413 C405 0.929 . S
H414 C422 0.929 . S
H415 C424 0.930 . S
H416 C426 0.930 . S
H417 C429 0.929 . S
H418 C432 0.930 . S
H419 C434 0.960 . S
H420 C434 0.960 . S
H421 C434 0.960 . S
C422 H414 0.929 . S
C422 C423 1.377 . S
C422 C424 1.384 . S
C423 C422 1.377 . S
C423 C429 1.390 . S
C424 H415 0.930 . S
C424 C422 1.384 . S
C424 C425 1.372 . S
C425 C424 1.372 . S
C425 C426 1.400 . S
C425 C430 1.490 . S
C426 H416 0.930 . S
C426 C425 1.400 . S
C426 C429 1.386 . S
H427 C443 0.930 . S
H428 C444 0.931 . S
C429 H417 0.929 . S
C429 C423 1.390 . S
C429 C426 1.386 . S
C430 C425 1.490 . S
C430 C432 1.395 . S
C430 C433 1.403 . S
H431 C437 0.930 . S
C432 H418 0.930 . S
C432 C430 1.395 . S
C432 C435 1.403 . S
C433 C430 1.403 . S
C433 C434 1.524 . S
C433 C437 1.400 . S
C434 H419 0.960 . S
C434 H420 0.960 . S
C434 H421 0.960 . S
C434 C433 1.524 . S
C435 C432 1.403 . S
C435 C436 1.392 . S
C435 C439 1.495 . S
C436 C435 1.392 . S
C436 C437 1.385 . S
C436 C438 1.478 . S
C437 H431 0.930 . S
C437 C433 1.400 . S
C437 C436 1.385 . S
C438 C436 1.478 . S
C438 C440 1.381 . S
C438 C444 1.383 . S
C439 C435 1.495 . S
C439 H445 0.959 . S
C439 H446 0.961 . S
C439 H447 0.960 . S
C440 C438 1.381 . S
C440 C441 1.394 . S
C440 H448 0.930 . S
C441 C440 1.394 . S
C441 C442 1.383 . S
C441 H449 0.929 . S
C442 C441 1.383 . S
C442 C443 1.377 . S
C443 H427 0.930 . S
C443 C442 1.377 . S
C443 C444 1.379 . S
C444 H428 0.931 . S
C444 C438 1.383 . S
C444 C443 1.379 . S
H445 C439 0.959 . S
H446 C439 0.961 . S
H447 C439 0.960 . S
H448 C440 0.930 . S
H449 C441 0.929 . S
H450 C458 0.929 . S
H451 C460 0.930 . S
H452 C462 0.930 . S
H453 C465 0.929 . S
H454 C468 0.930 . S
H455 C470 0.960 . S
H456 C470 0.960 . S
H457 C470 0.960 . S
C458 H450 0.929 . S
C458 C459 1.377 . S
C458 C460 1.384 . S
C459 C458 1.377 . S
C459 C465 1.390 . S
C460 H451 0.930 . S
C460 C458 1.384 . S
C460 C461 1.372 . S
C461 C460 1.372 . S
C461 C462 1.400 . S
C461 C466 1.490 . S
C462 H452 0.930 . S
C462 C461 1.400 . S
C462 C465 1.386 . S
H463 C479 0.930 . S
H464 C480 0.931 . S
C465 H453 0.929 . S
C465 C459 1.390 . S
C465 C462 1.386 . S
C466 C461 1.490 . S
C466 C468 1.395 . S
C466 C469 1.403 . S
H467 C473 0.930 . S
C468 H454 0.930 . S
C468 C466 1.395 . S
C468 C471 1.403 . S
C469 C466 1.403 . S
C469 C470 1.524 . S
C469 C473 1.400 . S
C470 H455 0.960 . S
C470 H456 0.960 . S
C470 H457 0.960 . S
C470 C469 1.524 . S
C471 C468 1.403 . S
C471 C472 1.392 . S
C471 C475 1.495 . S
C472 C471 1.392 . S
C472 C473 1.385 . S
C472 C474 1.478 . S
C473 H467 0.930 . S
C473 C469 1.400 . S
C473 C472 1.385 . S
C474 C472 1.478 . S
C474 C476 1.381 . S
C474 C480 1.383 . S
C475 C471 1.495 . S
C475 H481 0.959 . S
C475 H482 0.961 . S
C475 H483 0.960 . S
C476 C474 1.381 . S
C476 C477 1.394 . S
C476 H484 0.930 . S
C477 C476 1.394 . S
C477 C478 1.383 . S
C477 H485 0.929 . S
C478 C477 1.383 . S
C478 C479 1.377 . S
C479 H463 0.930 . S
C479 C478 1.377 . S
C479 C480 1.379 . S
C480 H464 0.931 . S
C480 C474 1.383 . S
C480 C479 1.379 . S
H481 C475 0.959 . S
H482 C475 0.961 . S
H483 C475 0.960 . S
H484 C476 0.930 . S
H485 C477 0.929 . S
H486 C494 0.929 1_554 S
H487 C496 0.930 . S
H488 C498 0.930 . S
H489 C501 0.929 . S
H490 C504 0.930 . S
H491 C506 0.960 . S
H492 C506 0.960 . S
H493 C506 0.960 . S
C494 H486 0.929 1_556 S
C494 C495 1.377 . S
C494 C496 1.384 . S
C495 C494 1.377 . S
C495 C501 1.390 . S
C496 H487 0.930 . S
C496 C494 1.384 . S
C496 C497 1.372 . S
C497 C496 1.372 . S
C497 C498 1.400 . S
C497 C502 1.490 . S
C498 H488 0.930 . S
C498 C497 1.400 . S
C498 C501 1.386 . S
H499 C515 0.930 . S
H500 C516 0.931 . S
C501 H489 0.929 . S
C501 C495 1.390 . S
C501 C498 1.386 . S
C502 C497 1.490 . S
C502 C504 1.395 . S
C502 C505 1.403 . S
H503 C509 0.930 . S
C504 H490 0.930 . S
C504 C502 1.395 . S
C504 C507 1.403 . S
C505 C502 1.403 . S
C505 C506 1.524 . S
C505 C509 1.400 . S
C506 H491 0.960 . S
C506 H492 0.960 . S
C506 H493 0.960 . S
C506 C505 1.524 . S
C507 C504 1.403 . S
C507 C508 1.392 . S
C507 C511 1.495 . S
C508 C507 1.392 . S
C508 C509 1.385 . S
C508 C510 1.478 . S
C509 H503 0.930 . S
C509 C505 1.400 . S
C509 C508 1.385 . S
C510 C508 1.478 . S
C510 C512 1.381 . S
C510 C516 1.383 . S
C511 C507 1.495 . S
C511 H517 0.959 . S
C511 H518 0.961 . S
C511 H519 0.960 . S
C512 C510 1.381 . S
C512 C513 1.394 . S
C512 H520 0.930 . S
C513 C512 1.394 . S
C513 C514 1.383 . S
C513 H521 0.929 . S
C514 C513 1.383 . S
C514 C515 1.377 . S
C515 H499 0.930 . S
C515 C514 1.377 . S
C515 C516 1.379 . S
C516 H500 0.931 . S
C516 C510 1.383 . S
C516 C515 1.379 . S
H517 C511 0.959 . S
H518 C511 0.961 . S
H519 C511 0.960 . S
H520 C512 0.930 . S
H521 C513 0.929 . S
C118 C64 1.287 . S
C99 C40 1.421 . S
C135 C4 1.451 . S
C154 C85 1.225 . S
C171 C16 1.626 . S
C190 C61 1.470 . S
C207 C28 1.624 . S
C226 C82 1.426 . S
C262 C66 1.497 . S
C243 C9 1.515 . S
C298 C86 1.568 . S
C279 C18 1.617 . S
C315 C33 1.590 . S
C334 C62 1.558 . S
C351 C45 1.525 . S
C370 C84 1.464 . S
C406 C83 1.503 . S
C387 C21 1.519 . S
C442 C65 1.462 . S
C423 C30 1.545 . S
C478 C87 1.449 . S
C459 C42 1.467 . S
C495 C6 1.465 1_556 S
C514 C63 1.385 . S
