# Generated by pormake.
# Topology zzz, (3,6)-cn, num edge types: 1
# Building blocks:
#     Node 0, Type 0, BuildingBlock: MIDCAF_clean_linker_0, # of connection points: 3
#     Node 1, Type 0, BuildingBlock: MIDCAF_clean_linker_0, # of connection points: 3
#     Node 2, Type 0, BuildingBlock: MIDCAF_clean_linker_0, # of connection points: 3
#     Node 3, Type 0, BuildingBlock: MIDCAF_clean_linker_0, # of connection points: 3
#     Node 4, Type 0, BuildingBlock: MIDCAF_clean_linker_0, # of connection points: 3
#     Node 5, Type 0, BuildingBlock: MIDCAF_clean_linker_0, # of connection points: 3
#     Node 6, Type 0, BuildingBlock: MIDCAF_clean_linker_0, # of connection points: 3
#     Node 7, Type 0, BuildingBlock: MIDCAF_clean_linker_0, # of connection points: 3
#     Node 8, Type 1, BuildingBlock: CUKXOW_clean_sbu_0, # of connection points: 6
#     Node 9, Type 1, BuildingBlock: CUKXOW_clean_sbu_0, # of connection points: 6
#     Node 10, Type 1, BuildingBlock: CUKXOW_clean_sbu_0, # of connection points: 6
#     Node 11, Type 1, BuildingBlock: CUKXOW_clean_sbu_0, # of connection points: 6
#     Edge 12, Type (0, 1), BuildingBlock: TEMPAE_clean_linker_10, # of connection points: 2
#     Edge 13, Type (0, 1), BuildingBlock: TEMPAE_clean_linker_10, # of connection points: 2
#     Edge 14, Type (0, 1), BuildingBlock: TEMPAE_clean_linker_10, # of connection points: 2
#     Edge 15, Type (0, 1), BuildingBlock: TEMPAE_clean_linker_10, # of connection points: 2
#     Edge 16, Type (0, 1), BuildingBlock: TEMPAE_clean_linker_10, # of connection points: 2
#     Edge 17, Type (0, 1), BuildingBlock: TEMPAE_clean_linker_10, # of connection points: 2
#     Edge 18, Type (0, 1), BuildingBlock: TEMPAE_clean_linker_10, # of connection points: 2
#     Edge 19, Type (0, 1), BuildingBlock: TEMPAE_clean_linker_10, # of connection points: 2
#     Edge 20, Type (0, 1), BuildingBlock: TEMPAE_clean_linker_10, # of connection points: 2
#     Edge 21, Type (0, 1), BuildingBlock: TEMPAE_clean_linker_10, # of connection points: 2
#     Edge 22, Type (0, 1), BuildingBlock: TEMPAE_clean_linker_10, # of connection points: 2
#     Edge 23, Type (0, 1), BuildingBlock: TEMPAE_clean_linker_10, # of connection points: 2
#     Edge 24, Type (0, 1), BuildingBlock: TEMPAE_clean_linker_10, # of connection points: 2
#     Edge 25, Type (0, 1), BuildingBlock: TEMPAE_clean_linker_10, # of connection points: 2
#     Edge 26, Type (0, 1), BuildingBlock: TEMPAE_clean_linker_10, # of connection points: 2
#     Edge 27, Type (0, 1), BuildingBlock: TEMPAE_clean_linker_10, # of connection points: 2
#     Edge 28, Type (0, 1), BuildingBlock: TEMPAE_clean_linker_10, # of connection points: 2
#     Edge 29, Type (0, 1), BuildingBlock: TEMPAE_clean_linker_10, # of connection points: 2
#     Edge 30, Type (0, 1), BuildingBlock: TEMPAE_clean_linker_10, # of connection points: 2
#     Edge 31, Type (0, 1), BuildingBlock: TEMPAE_clean_linker_10, # of connection points: 2
#     Edge 32, Type (0, 1), BuildingBlock: TEMPAE_clean_linker_10, # of connection points: 2
#     Edge 33, Type (0, 1), BuildingBlock: TEMPAE_clean_linker_10, # of connection points: 2
#     Edge 34, Type (0, 1), BuildingBlock: TEMPAE_clean_linker_10, # of connection points: 2
#     Edge 35, Type (0, 1), BuildingBlock: TEMPAE_clean_linker_10, # of connection points: 2
# Relax obj value: 0.217
# Max RMSD: 0.232
# Mean RMSD: 0.188
data_MOF--net-zzz--node1-CUKXOW_clean_sbu_0--node2-MIDCAF_clean_linker_0--edge1-TEMPAE_clean_linker_10
_symmetry_space_group_name_H-M    P1
_symmetry_Int_Tables_number       1
_symmetry_cell_setting            triclinic
loop_
_symmetry_equiv_pos_as_xyz
'x, y, z'
_cell_length_a     58.703297
_cell_length_b     57.24482
_cell_length_c     20.620541
_cell_angle_alpha  92.502657
_cell_angle_beta   88.330724
_cell_angle_gamma 95.496661
loop_
_atom_site_label
_atom_site_type_symbol
_atom_site_fract_x
_atom_site_fract_y
_atom_site_fract_z
_atom_type_partial_charge
C0 C 0.80273 0.4267 0.31463 0.0
C1 C 0.79821 0.44658 0.35352 0.0
C2 C 0.78091 0.46019 0.3347 0.0
C3 C 0.76955 0.45486 0.2761 0.0
H4 H 0.71512 0.47077 0.13609 0.0
H5 H 0.68144 0.48441 0.08685 0.0
H6 H 0.68547 0.43142 0.93219 0.0
H7 H 0.71912 0.41849 0.97977 0.0
H8 H 0.77915 0.43231 0.92826 0.0
H9 H 0.81217 0.43144 0.85374 0.0
H10 H 0.85042 0.40299 0.00247 0.0
H11 H 0.81755 0.40371 0.07689 0.0
H12 H 0.79637 0.4067 0.22625 0.0
H13 H 0.81608 0.41593 0.32673 0.0
H14 H 0.77682 0.47548 0.36391 0.0
H15 H 0.75727 0.46636 0.26092 0.0
N16 N 0.74754 0.43955 0.14834 0.0
N17 N 0.7574 0.42963 0.03979 0.0
N18 N 0.78303 0.42532 0.12173 0.0
C19 C 0.742 0.4373 0.08437 0.0
C20 C 0.77796 0.42367 0.05802 0.0
C21 C 0.76805 0.43312 0.16719 0.0
C22 C 0.71993 0.44381 0.06127 0.0
C23 C 0.70857 0.46194 0.092 0.0
C24 C 0.68932 0.46974 0.06377 0.0
C25 C 0.68107 0.45936 0.00472 0.0
C26 C 0.69177 0.44035 0.97644 0.0
C27 C 0.711 0.43281 0.00403 0.0
C28 C 0.79587 0.41847 0.00894 0.0
C29 C 0.79438 0.42528 0.94458 0.0
C30 C 0.81329 0.42488 0.90192 0.0
C31 C 0.8339 0.41739 0.92258 0.0
C32 C 0.83472 0.40873 0.98506 0.0
C33 C 0.81592 0.40933 0.02788 0.0
C34 C 0.77549 0.43599 0.23525 0.0
C35 C 0.79154 0.42149 0.25643 0.0
C36 C 0.89194 0.79788 0.33823 0.0
C37 C 0.91228 0.79433 0.3689 0.0
C38 C 0.92481 0.77572 0.34649 0.0
C39 C 0.91847 0.76259 0.28996 0.0
H40 H 0.89656 0.6941 0.14788 0.0
H41 H 0.9044 0.6558 0.09958 0.0
H42 H 0.9336 0.68972 0.92897 0.0
H43 H 0.92499 0.72739 0.9755 0.0
H44 H 0.91556 0.7787 0.94943 0.0
H45 H 0.93132 0.81249 0.88924 0.0
H46 H 0.92309 0.85763 0.06017 0.0
H47 H 0.90661 0.82427 0.11936 0.0
H48 H 0.87157 0.78994 0.25423 0.0
H49 H 0.88209 0.81222 0.35432 0.0
H50 H 0.94057 0.77271 0.36947 0.0
H51 H 0.92968 0.74996 0.27003 0.0
N52 N 0.90239 0.74083 0.15925 0.0
N53 N 0.90709 0.75596 0.05499 0.0
N54 N 0.90068 0.78104 0.14449 0.0
C55 C 0.90572 0.73728 0.09397 0.0
C56 C 0.9046 0.77791 0.07985 0.0
C57 C 0.89944 0.76275 0.18437 0.0
C58 C 0.91001 0.71383 0.06552 0.0
C59 C 0.90451 0.69327 0.09988 0.0
C60 C 0.9091 0.67134 0.07229 0.0
C61 C 0.91948 0.66957 0.01005 0.0
C62 C 0.92503 0.69021 0.97616 0.0
C63 C 0.92021 0.71196 0.00323 0.0
C64 C 0.91011 0.79864 0.03961 0.0
C65 C 0.91665 0.7959 0.97379 0.0
C66 C 0.92589 0.81525 0.9394 0.0
C67 C 0.92887 0.83772 0.97018 0.0
C68 C 0.92094 0.84065 0.0347 0.0
C69 C 0.91157 0.82139 0.06886 0.0
C70 C 0.89985 0.76832 0.25461 0.0
C71 C 0.8859 0.78511 0.28106 0.0
C72 C 0.69099 0.93909 0.334 0.0
C73 C 0.68869 0.95963 0.3729 0.0
C74 C 0.70347 0.97988 0.35997 0.0
C75 C 0.71838 0.98022 0.30583 0.0
H76 H 0.79393 0.95619 0.14814 0.0
H77 H 0.83213 0.96448 0.0989 0.0
H78 H 0.80904 0.02397 0.0059 0.0
H79 H 0.77078 0.01464 0.05184 0.0
H80 H 0.72137 0.99457 0.978 0.0
H81 H 0.69084 0.00244 0.90672 0.0
H82 H 0.64266 0.95697 0.01637 0.0
H83 H 0.67312 0.94914 0.08861 0.0
H84 H 0.70516 0.92432 0.24613 0.0
H85 H 0.68054 0.92292 0.34353 0.0
H86 H 0.70221 0.99613 0.38809 0.0
H87 H 0.72806 0.99661 0.29382 0.0
N88 N 0.74921 0.97083 0.18215 0.0
N89 N 0.73953 0.97665 0.07454 0.0
N90 N 0.71112 0.96308 0.14908 0.0
C91 C 0.75557 0.97701 0.12074 0.0
C92 C 0.71729 0.96954 0.08815 0.0
C93 C 0.72688 0.9637 0.19611 0.0
C94 C 0.7795 0.98464 0.10305 0.0
C95 C 0.79729 0.97126 0.11812 0.0
C96 C 0.81915 0.97608 0.08994 0.0
C97 C 0.82361 0.99463 0.0472 0.0
C98 C 0.8061 0.00908 0.03671 0.0
C99 C 0.78423 0.00392 0.06354 0.0
C100 C 0.69962 0.97144 0.0395 0.0
C101 C 0.70439 0.98588 0.98642 0.0
C102 C 0.68694 0.99049 0.94571 0.0
C103 C 0.66447 0.98046 0.95661 0.0
C104 C 0.6599 0.96486 0.00704 0.0
C105 C 0.67731 0.96051 0.04847 0.0
C106 C 0.7185 0.96051 0.26313 0.0
C107 C 0.70539 0.93968 0.27882 0.0
C108 C 0.60144 0.66935 0.04095 0.0
C109 C 0.5931 0.67222 0.97889 0.0
C110 C 0.59486 0.69495 0.95448 0.0
C111 C 0.60306 0.71447 0.99324 0.0
H112 H 0.61734 0.79079 0.01391 0.0
H113 H 0.60513 0.82749 0.9778 0.0
H114 H 0.57776 0.84266 0.16995 0.0
H115 H 0.59018 0.80588 0.20663 0.0
H116 H 0.58438 0.75382 0.30635 0.0
H117 H 0.57512 0.72909 0.3993 0.0
H118 H 0.63743 0.69581 0.36306 0.0
H119 H 0.64638 0.72011 0.26958 0.0
H120 H 0.61519 0.68571 0.12773 0.0
H121 H 0.60023 0.65227 0.06199 0.0
H122 H 0.58917 0.69778 0.9062 0.0
H123 H 0.60304 0.73181 0.97424 0.0
N124 N 0.61034 0.75405 0.0866 0.0
N125 N 0.61226 0.76738 0.19619 0.0
N126 N 0.61712 0.72813 0.16664 0.0
C127 C 0.60985 0.77188 0.13245 0.0
C128 C 0.6165 0.74553 0.21302 0.0
C129 C 0.61385 0.73204 0.1035 0.0
C130 C 0.6046 0.79535 0.11303 0.0
C131 C 0.60898 0.80207 0.04877 0.0
C132 C 0.60215 0.82317 0.02817 0.0
C133 C 0.5905 0.8379 0.07109 0.0
C134 C 0.58667 0.83157 0.13587 0.0
C135 C 0.59386 0.81058 0.15685 0.0
C136 C 0.61605 0.73876 0.28102 0.0
C137 C 0.59666 0.74211 0.32044 0.0
C138 C 0.59127 0.72783 0.37316 0.0
C139 C 0.60546 0.7104 0.38764 0.0
C140 C 0.62628 0.70918 0.35311 0.0
C141 C 0.63143 0.72311 0.29975 0.0
C142 C 0.60989 0.71163 0.05698 0.0
C143 C 0.60992 0.68873 0.07914 0.0
C144 C 0.20623 0.57366 0.06777 0.0
C145 C 0.20981 0.55342 0.02917 0.0
C146 C 0.22663 0.53917 0.04771 0.0
C147 C 0.23826 0.54413 0.10603 0.0
H148 H 0.30463 0.55011 0.23137 0.0
H149 H 0.3407 0.5405 0.27669 0.0
H150 H 0.30896 0.53943 0.46816 0.0
H151 H 0.2735 0.54904 0.42409 0.0
H152 H 0.22768 0.5658 0.45472 0.0
H153 H 0.19474 0.56798 0.52882 0.0
H154 H 0.15737 0.59636 0.37805 0.0
H155 H 0.1902 0.59437 0.30395 0.0
H156 H 0.2135 0.59355 0.15586 0.0
H157 H 0.19331 0.58496 0.05591 0.0
H158 H 0.23007 0.52362 0.01866 0.0
H159 H 0.25 0.53206 0.12121 0.0
N160 N 0.26008 0.55787 0.23511 0.0
N161 N 0.2492 0.56635 0.34365 0.0
N162 N 0.22505 0.57334 0.26041 0.0
C163 C 0.26476 0.55858 0.29973 0.0
C164 C 0.22937 0.57379 0.32453 0.0
C165 C 0.24016 0.56548 0.21538 0.0
C166 C 0.28623 0.55074 0.32407 0.0
C167 C 0.30536 0.54762 0.283 0.0
C168 C 0.32598 0.5421 0.30889 0.0
C169 C 0.32774 0.53964 0.37615 0.0
C170 C 0.30833 0.54179 0.41641 0.0
C171 C 0.28792 0.54726 0.39085 0.0
C172 C 0.21141 0.57947 0.37294 0.0
C173 C 0.21266 0.57305 0.43773 0.0
C174 C 0.1938 0.57423 0.48022 0.0
C175 C 0.17346 0.5821 0.45893 0.0
C176 C 0.17288 0.59035 0.39591 0.0
C177 C 0.19164 0.589 0.35327 0.0
C178 C 0.23312 0.56331 0.14686 0.0
C179 C 0.21773 0.57852 0.12566 0.0
C180 C 0.12277 0.19084 0.10165 0.0
C181 C 0.11037 0.19991 0.05278 0.0
C182 C 0.10345 0.22274 0.06236 0.0
C183 C 0.10736 0.23541 0.12141 0.0
H184 H 0.09358 0.29825 0.23999 0.0
H185 H 0.08063 0.33619 0.27745 0.0
H186 H 0.11021 0.32907 0.46405 0.0
H187 H 0.12273 0.29138 0.42742 0.0
H188 H 0.08917 0.23459 0.46372 0.0
H189 H 0.07213 0.20361 0.53256 0.0
H190 H 0.10922 0.15288 0.42327 0.0
H191 H 0.12602 0.18369 0.35328 0.0
H192 H 0.13522 0.19527 0.19795 0.0
H193 H 0.12819 0.17328 0.09668 0.0
H194 H 0.09415 0.23039 0.02533 0.0
H195 H 0.10064 0.25232 0.12889 0.0
N196 N 0.11507 0.25875 0.25207 0.0
N197 N 0.11189 0.25169 0.36363 0.0
N198 N 0.11695 0.22073 0.2889 0.0
C199 C 0.11275 0.26695 0.31479 0.0
C200 C 0.11395 0.22858 0.35114 0.0
C201 C 0.11762 0.23557 0.23913 0.0
C202 C 0.10881 0.29167 0.33116 0.0
C203 C 0.09772 0.30509 0.28846 0.0
C204 C 0.0903 0.32677 0.3099 0.0
C205 C 0.09397 0.3353 0.37415 0.0
C206 C 0.1066 0.32265 0.41485 0.0
C207 C 0.11385 0.30109 0.39372 0.0
C208 C 0.10868 0.21149 0.40241 0.0
C209 C 0.0943 0.217 0.45553 0.0
C210 C 0.08447 0.1993 0.49489 0.0
C211 C 0.08929 0.17597 0.48268 0.0
C212 C 0.10536 0.17082 0.43369 0.0
C213 C 0.11487 0.18842 0.39353 0.0
C214 C 0.11814 0.22537 0.17193 0.0
C215 C 0.12663 0.20341 0.16028 0.0
C216 C 0.3026 0.01512 0.99019 0.0
C217 C 0.31189 0.03603 0.96216 0.0
C218 C 0.30458 0.0575 0.98672 0.0
C219 C 0.29072 0.05825 0.043 0.0
H220 H 0.21247 0.0321 0.17967 0.0
H221 H 0.17491 0.02559 0.23474 0.0
H222 H 0.20697 0.03795 0.42035 0.0
H223 H 0.2441 0.04448 0.36653 0.0
H224 H 0.29808 0.04692 0.38043 0.0
H225 H 0.3292 0.03762 0.44892 0.0
H226 H 0.36533 0.01174 0.27962 0.0
H227 H 0.33475 0.0213 0.2109 0.0
H228 H 0.28385 0.99979 0.07088 0.0
H229 H 0.30794 0.99829 0.9731 0.0
H230 H 0.31109 0.07388 0.96557 0.0
H231 H 0.28742 0.07516 0.06508 0.0
N232 N 0.25767 0.03942 0.17149 0.0
N233 N 0.27302 0.03885 0.27554 0.0
N234 N 0.29719 0.03791 0.1839 0.0
C235 C 0.25459 0.03958 0.23742 0.0
C236 C 0.29433 0.03799 0.24916 0.0
C237 C 0.27914 0.03886 0.14501 0.0
C238 C 0.23141 0.03847 0.26856 0.0
C239 C 0.21145 0.03373 0.23217 0.0
C240 C 0.18996 0.03 0.26359 0.0
C241 C 0.18815 0.03084 0.33178 0.0
C242 C 0.20793 0.03668 0.36777 0.0
C243 C 0.22924 0.0405 0.33667 0.0
C244 C 0.31388 0.03472 0.29031 0.0
C245 C 0.3128 0.03953 0.35776 0.0
C246 C 0.33056 0.03433 0.39687 0.0
C247 C 0.3494 0.02387 0.36917 0.0
C248 C 0.35083 0.01971 0.30179 0.0
C249 C 0.33335 0.02527 0.26262 0.0
C250 C 0.28368 0.03755 0.0748 0.0
C251 C 0.28867 0.01592 0.04615 0.0
C252 C 0.41273 0.33299 0.39104 0.0
C253 C 0.4294 0.32822 0.43481 0.0
C254 C 0.4352 0.30508 0.43849 0.0
C255 C 0.42566 0.28735 0.39596 0.0
H256 H 0.3913 0.21157 0.3484 0.0
H257 H 0.40157 0.1727 0.37194 0.0
H258 H 0.43708 0.16824 0.1861 0.0
H259 H 0.4265 0.2074 0.16207 0.0
H260 H 0.41788 0.25534 0.06207 0.0
H261 H 0.42269 0.27878 0.965 0.0
H262 H 0.3844 0.33168 0.06132 0.0
H263 H 0.37922 0.30823 0.15635 0.0
H264 H 0.3917 0.31992 0.31201 0.0
H265 H 0.40803 0.35071 0.38701 0.0
H266 H 0.44792 0.30097 0.47219 0.0
H267 H 0.43145 0.26998 0.39745 0.0
N268 N 0.40688 0.25251 0.29872 0.0
N269 N 0.40238 0.24617 0.186 0.0
N270 N 0.40138 0.28396 0.23445 0.0
C271 C 0.40525 0.23757 0.2456 0.0
C272 C 0.39999 0.26946 0.18063 0.0
C273 C 0.40499 0.27575 0.29344 0.0
C274 C 0.40825 0.21254 0.25363 0.0
C275 C 0.40088 0.2021 0.31192 0.0
C276 C 0.40662 0.17975 0.3252 0.0
C277 C 0.42016 0.16745 0.2809 0.0
C278 C 0.42665 0.17739 0.22112 0.0
C279 C 0.42052 0.19969 0.20726 0.0
C280 C 0.39842 0.2801 0.11702 0.0
C281 C 0.40987 0.2716 0.06138 0.0
C282 C 0.4128 0.28514 0.00611 0.0
C283 C 0.40417 0.30728 0.00551 0.0
C284 C 0.39113 0.31469 0.05945 0.0
C285 C 0.3883 0.30129 0.11438 0.0
C286 C 0.4105 0.29261 0.3483 0.0
C287 C 0.40347 0.31539 0.34792 0.0
Tb288 Tb 0.99526 0.9844 0.64509 0.0
C289 C 0.04662 0.00384 0.61665 0.0
Tb290 Tb 0.01905 0.02229 0.74151 0.0
O291 O 0.99578 0.00983 0.5689 0.0
O292 O 0.99513 0.02083 0.66643 0.0
O293 O 0.02981 0.98729 0.60274 0.0
C294 C 0.03985 0.06184 0.79485 0.0
O295 O 0.04578 0.01904 0.66702 0.0
C296 C 0.01757 0.97877 0.77906 0.0
C297 C 0.9677 0.00518 0.76632 0.0
O298 O 0.02924 0.04479 0.8265 0.0
O299 O 0.03869 0.05666 0.73316 0.0
O300 O 0.02161 0.99709 0.81773 0.0
O301 O 0.01839 0.98577 0.72182 0.0
O302 O 0.98322 0.02367 0.77053 0.0
O303 O 0.97012 0.98698 0.7252 0.0
C304 C 0.97737 0.9442 0.58891 0.0
O305 O 0.96729 0.96347 0.59484 0.0
O306 O 0.99753 0.94766 0.61371 0.0
C307 C 0.99748 0.02792 0.60948 0.0
Tb308 Tb 0.50179 0.02196 0.62888 0.0
C309 C 0.5425 0.99071 0.6129 0.0
Tb310 Tb 0.50449 0.98242 0.72643 0.0
O311 O 0.53308 0.04103 0.66566 0.0
O312 O 0.51223 0.01923 0.72513 0.0
O313 O 0.5297 0.00457 0.5826 0.0
C314 C 0.51802 0.95384 0.81348 0.0
O315 O 0.53675 0.98214 0.67065 0.0
C316 C 0.47538 0.97318 0.63261 0.0
C317 C 0.46333 0.01303 0.74094 0.0
O318 O 0.51216 0.94772 0.75452 0.0
O319 O 0.5159 0.97608 0.82396 0.0
O320 O 0.47303 0.96367 0.68885 0.0
O321 O 0.49448 0.98517 0.63009 0.0
O322 O 0.47638 0.99967 0.77221 0.0
O323 O 0.46914 0.02141 0.683 0.0
C324 C 0.48851 0.05046 0.54129 0.0
O325 O 0.49273 0.05629 0.60159 0.0
O326 O 0.49209 0.02861 0.52993 0.0
C327 C 0.53134 0.03125 0.72155 0.0
Tb328 Tb 0.52257 0.522 0.64058 0.0
C329 C 0.46934 0.51166 0.6167 0.0
Tb330 Tb 0.49302 0.48735 0.73031 0.0
O331 O 0.51898 0.49655 0.55793 0.0
O332 O 0.51727 0.4855 0.65306 0.0
O333 O 0.48867 0.52483 0.60371 0.0
C334 C 0.4682 0.44979 0.77653 0.0
O335 O 0.46732 0.49594 0.66268 0.0
C336 C 0.50148 0.53038 0.77917 0.0
C337 C 0.54571 0.49653 0.75206 0.0
O338 O 0.47168 0.45403 0.71559 0.0
O339 O 0.47852 0.4668 0.81136 0.0
O340 O 0.49485 0.51254 0.8141 0.0
O341 O 0.49945 0.52385 0.72028 0.0
O342 O 0.52769 0.48055 0.75345 0.0
O343 O 0.5465 0.51543 0.71635 0.0
C344 C 0.54373 0.56106 0.59246 0.0
O345 O 0.55211 0.54077 0.59089 0.0
O346 O 0.52363 0.55919 0.62039 0.0
C347 C 0.51455 0.47872 0.59482 0.0
Tb348 Tb 0.98242 0.49913 0.6472 0.0
C349 C 0.02331 0.46938 0.60739 0.0
Tb350 Tb 0.02481 0.50299 0.7347 0.0
O351 O 0.00082 0.52155 0.57487 0.0
O352 O 0.00966 0.52454 0.67142 0.0
O353 O 0.00074 0.47027 0.60609 0.0
C354 C 0.06663 0.51191 0.78362 0.0
O355 O 0.03627 0.48217 0.65022 0.0
C356 C 0.99134 0.47128 0.766 0.0
C357 C 0.9841 0.53293 0.77369 0.0
O358 O 0.06212 0.51003 0.7223 0.0
O359 O 0.04765 0.50867 0.81718 0.0
O360 O 0.00611 0.48085 0.80715 0.0
O361 O 0.99759 0.47758 0.71041 0.0
O362 O 0.0067 0.53228 0.77399 0.0
O363 O 0.97094 0.51975 0.73215 0.0
C364 C 0.94053 0.49012 0.59895 0.0
O365 O 0.94514 0.49212 0.66017 0.0
O366 O 0.95945 0.49329 0.56509 0.0
C367 C 0.01573 0.53096 0.61583 0.0
C368 C 0.14629 0.0352 0.35114 0.0
C369 C 0.16602 0.02479 0.3664 0.0
C370 C 0.12591 0.03101 0.38811 0.0
C371 C 0.12531 0.01593 0.44099 0.0
C372 C 0.14494 0.00467 0.45477 0.0
C373 C 0.16503 0.00927 0.41738 0.0
C374 C 0.10531 0.0434 0.37221 0.0
C375 C 0.14497 0.9884 0.5105 0.0
C376 C 0.08411 0.02489 0.58295 0.0
C377 C 0.06693 0.00643 0.57214 0.0
C378 C 0.10299 0.02833 0.54013 0.0
C379 C 0.10475 0.01304 0.48478 0.0
C380 C 0.08742 0.9945 0.47312 0.0
C381 C 0.06872 0.99139 0.51699 0.0
C382 C 0.12117 0.04826 0.5544 0.0
C383 C 0.08872 0.9779 0.41448 0.0
H384 H 0.14706 0.04726 0.31188 0.0
H385 H 0.18018 0.00091 0.42857 0.0
H386 H 0.08991 0.03064 0.36817 0.0
H387 H 0.10181 0.05631 0.41209 0.0
H388 H 0.10787 0.05282 0.32622 0.0
H389 H 0.16121 0.97996 0.5123 0.0
H390 H 0.14251 0.99839 0.55711 0.0
H391 H 0.13055 0.97444 0.50649 0.0
H392 H 0.08283 0.03684 0.62487 0.0
H393 H 0.05546 0.97722 0.50778 0.0
H394 H 0.12274 0.06039 0.51366 0.0
H395 H 0.13803 0.04131 0.55884 0.0
H396 H 0.11736 0.05843 0.59989 0.0
H397 H 0.09015 0.98794 0.36948 0.0
H398 H 0.07352 0.96479 0.41132 0.0
H399 H 0.10428 0.9684 0.41632 0.0
C400 C 0.41549 0.12851 0.33319 0.0
C401 C 0.42958 0.14584 0.3013 0.0
C402 C 0.42491 0.11049 0.36438 0.0
C403 C 0.44899 0.11004 0.3644 0.0
C404 C 0.46314 0.12651 0.32839 0.0
C405 C 0.45324 0.14417 0.29701 0.0
C406 C 0.40918 0.09298 0.40115 0.0
C407 C 0.48888 0.12665 0.32727 0.0
C408 C 0.47377 0.0882 0.51582 0.0
C409 C 0.4793 0.0658 0.49491 0.0
C410 C 0.46398 0.10272 0.47359 0.0
C411 C 0.45945 0.09457 0.40895 0.0
C412 C 0.46505 0.07193 0.38753 0.0
C413 C 0.47514 0.05789 0.43072 0.0
C414 C 0.45835 0.12678 0.49836 0.0
C415 C 0.46017 0.0625 0.31937 0.0
H416 H 0.39716 0.12964 0.33603 0.0
H417 H 0.46422 0.15763 0.27291 0.0
H418 H 0.41437 0.07495 0.39259 0.0
H419 H 0.41032 0.09732 0.45399 0.0
H420 H 0.39105 0.09311 0.38725 0.0
H421 H 0.49722 0.13858 0.29069 0.0
H422 H 0.49544 0.13255 0.37581 0.0
H423 H 0.49402 0.10871 0.3166 0.0
H424 H 0.47693 0.09433 0.56552 0.0
H425 H 0.47962 0.04063 0.41444 0.0
H426 H 0.4397 0.12817 0.49505 0.0
H427 H 0.46729 0.14046 0.4678 0.0
H428 H 0.46333 0.13061 0.54958 0.0
H429 H 0.44158 0.06202 0.3105 0.0
H430 H 0.46555 0.04453 0.31037 0.0
H431 H 0.46919 0.07429 0.28366 0.0
C432 C 0.36334 0.51852 0.37964 0.0
C433 C 0.34974 0.53563 0.40576 0.0
C434 C 0.38333 0.51372 0.41063 0.0
C435 C 0.38984 0.52643 0.46876 0.0
C436 C 0.37644 0.5441 0.49432 0.0
C437 C 0.35663 0.5485 0.46248 0.0
C438 C 0.39725 0.49479 0.3819 0.0
C439 C 0.38286 0.5582 0.55584 0.0
C440 C 0.42799 0.5018 0.58964 0.0
C441 C 0.44908 0.5148 0.57761 0.0
C442 C 0.40871 0.5049 0.55325 0.0
C443 C 0.41056 0.52134 0.50355 0.0
C444 C 0.4319 0.5341 0.49015 0.0
C445 C 0.45086 0.53071 0.52732 0.0
C446 C 0.38623 0.49097 0.56903 0.0
C447 C 0.43458 0.55176 0.43747 0.0
H448 H 0.35802 0.50846 0.33602 0.0
H449 H 0.34639 0.56204 0.48223 0.0
H450 H 0.41522 0.50207 0.37311 0.0
H451 H 0.39759 0.4806 0.41673 0.0
H452 H 0.39028 0.48701 0.33545 0.0
H453 H 0.37073 0.5715 0.56888 0.0
H454 H 0.38321 0.54629 0.59677 0.0
H455 H 0.40029 0.56734 0.55019 0.0
H456 H 0.42642 0.48933 0.62796 0.0
H457 H 0.46708 0.54072 0.51705 0.0
H458 H 0.37925 0.48162 0.52462 0.0
H459 H 0.37356 0.50307 0.58708 0.0
H460 H 0.38794 0.4779 0.60645 0.0
H461 H 0.42843 0.54347 0.39076 0.0
H462 H 0.45263 0.55917 0.43041 0.0
H463 H 0.42396 0.5664 0.45001 0.0
C464 C 0.0841 0.37696 0.36722 0.0
C465 C 0.08322 0.35619 0.40118 0.0
C466 C 0.07444 0.39685 0.39443 0.0
C467 C 0.0636 0.39577 0.45669 0.0
C468 C 0.06226 0.37465 0.49035 0.0
C469 C 0.07203 0.35517 0.46217 0.0
C470 C 0.07615 0.41908 0.35717 0.0
C471 C 0.0507 0.37268 0.5566 0.0
C472 C 0.05755 0.4495 0.56759 0.0
C473 C 0.0341 0.4521 0.56377 0.0
C474 C 0.06765 0.43197 0.53037 0.0
C475 C 0.05402 0.41671 0.4881 0.0
C476 C 0.03061 0.41998 0.48157 0.0
C477 C 0.02092 0.43761 0.51956 0.0
C478 C 0.09268 0.42905 0.53875 0.0
C479 C 0.01554 0.40417 0.43669 0.0
H480 H 0.09274 0.37781 0.3201 0.0
H481 H 0.07085 0.33898 0.48797 0.0
H482 H 0.05887 0.42496 0.35158 0.0
H483 H 0.08638 0.43332 0.38461 0.0
H484 H 0.08424 0.41676 0.30823 0.0
H485 H 0.05081 0.35486 0.57578 0.0
H486 H 0.05947 0.3856 0.59149 0.0
H487 H 0.03269 0.37687 0.55433 0.0
H488 H 0.06798 0.46074 0.60103 0.0
H489 H 0.00285 0.43963 0.51564 0.0
H490 H 0.10165 0.4279 0.49079 0.0
H491 H 0.09436 0.4124 0.56304 0.0
H492 H 0.10142 0.44374 0.56837 0.0
H493 H 0.02383 0.40262 0.38786 0.0
H494 H 0.99847 0.41066 0.43156 0.0
H495 H 0.01303 0.38627 0.4559 0.0
C496 C 0.86645 0.9937 0.0368 0.0
C497 C 0.84565 0.9978 0.00941 0.0
C498 C 0.88699 0.99539 -0.00023 0.0
C499 C 0.88676 0.00164 0.93412 0.0
C500 C 0.86596 0.00627 0.90659 0.0
C501 C 0.84569 0.00406 0.94426 0.0
C502 C 0.90885 0.99007 0.03047 0.0
C503 C 0.86501 0.01304 0.83678 0.0
C504 C 0.94183 0.02438 0.84686 0.0
C505 C 0.94707 0.00445 0.8095 0.0
C506 C 0.92242 0.02365 0.88847 0.0
C507 C 0.90804 0.00245 0.89305 0.0
C508 C 0.91339 0.9822 0.85608 0.0
C509 C 0.93282 0.98344 0.81478 0.0
C510 C 0.91712 0.04565 0.92676 0.0
C511 C 0.89845 0.95926 0.85965 0.0
H512 H 0.8667 0.98909 0.08717 0.0
H513 H 0.82972 0.00669 0.92185 0.0
H514 H 0.91571 0.97478 0.00436 0.0
H515 H 0.92203 0.0052 0.02621 0.0
H516 H 0.90628 0.9861 0.08257 0.0
H517 H 0.8477 0.01734 0.82384 0.0
H518 H 0.87744 0.02847 0.82768 0.0
H519 H 0.86991 0.99839 0.8039 0.0
H520 H 0.95277 0.04066 0.84325 0.0
H521 H 0.93688 0.96782 0.78685 0.0
H522 H 0.91569 0.04222 0.97933 0.0
H523 H 0.90037 0.05095 0.91224 0.0
H524 H 0.9304 0.06052 0.91927 0.0
H525 H 0.89697 0.95364 0.91053 0.0
H526 H 0.90522 0.94501 0.82863 0.0
H527 H 0.88092 0.96161 0.84402 0.0
C528 C 0.59412 0.87423 0.00666 0.0
C529 C 0.58079 0.85867 0.0463 0.0
C530 C 0.58426 0.89195 0.97541 0.0
C531 C 0.56045 0.89385 0.98307 0.0
C532 C 0.54717 0.87898 0.02576 0.0
C533 C 0.55754 0.86163 0.05716 0.0
C534 C 0.59911 0.90782 0.93149 0.0
C535 C 0.52172 0.88037 0.03508 0.0
C536 C 0.5348 0.94692 0.92025 0.0
C537 C 0.52772 0.93838 0.85867 0.0
C538 C 0.54563 0.93273 0.96145 0.0
C539 C 0.549 0.90936 0.9408 0.0
C540 C 0.54139 0.90056 0.87908 0.0
C541 C 0.53093 0.91522 0.83869 0.0
C542 C 0.55384 0.94286 0.02637 0.0
C543 C 0.54451 0.8757 0.85534 0.0
H544 H 0.61216 0.87211 0.99879 0.0
H545 H 0.54716 0.84952 0.0874 0.0
H546 H 0.59488 0.9032 0.88014 0.0
H547 H 0.59578 0.92641 0.94126 0.0
H548 H 0.61764 0.90624 0.93753 0.0
H549 H 0.51432 0.86931 0.07484 0.0
H550 H 0.51799 0.89878 0.04603 0.0
H551 H 0.51299 0.87438 0.98946 0.0
H552 H 0.53218 0.9648 0.9358 0.0
H553 H 0.52548 0.90859 0.79102 0.0
H554 H 0.57274 0.94309 0.02786 0.0
H555 H 0.54653 0.93169 0.0659 0.0
H556 H 0.54914 0.96105 0.03618 0.0
H557 H 0.563 0.87309 0.85234 0.0
H558 H 0.53711 0.8714 0.8068 0.0
H559 H 0.53627 0.86309 0.89024 0.0
C560 C 0.64232 0.47496 0.00541 0.0
C561 C 0.66184 0.46842 0.97095 0.0
C562 C 0.62347 0.48173 0.97263 0.0
C563 C 0.62412 0.48175 0.90388 0.0
C564 C 0.64411 0.47606 0.86912 0.0
C565 C 0.66274 0.46968 0.90304 0.0
C566 C 0.60257 0.48804 0.01137 0.0
C567 C 0.64554 0.47589 0.79582 0.0
C568 C 0.5687 0.47054 0.81254 0.0
C569 C 0.56568 0.49294 0.79133 0.0
C570 C 0.58745 0.46679 0.85008 0.0
C571 C 0.60344 0.48597 0.86764 0.0
C572 C 0.60027 0.50874 0.84738 0.0
C573 C 0.58147 0.51194 0.80917 0.0
C574 C 0.5904 0.44217 0.86982 0.0
C575 C 0.6167 0.52971 0.86617 0.0
H576 H 0.64146 0.47404 0.05782 0.0
H577 H 0.67799 0.46531 0.87609 0.0
H578 H 0.59723 0.50499 0.99595 0.0
H579 H 0.58812 0.47445 0.00208 0.0
H580 H 0.60558 0.48942 0.06439 0.0
H581 H 0.66267 0.47203 0.77626 0.0
H582 H 0.63252 0.46242 0.77548 0.0
H583 H 0.64171 0.49313 0.77845 0.0
H584 H 0.55656 0.45578 0.79893 0.0
H585 H 0.57899 0.52939 0.7939 0.0
H586 H 0.59142 0.44176 0.92337 0.0
H587 H 0.60669 0.43653 0.8487 0.0
H588 H 0.57614 0.42928 0.85357 0.0
H589 H 0.61617 0.53269 0.9197 0.0
H590 H 0.61255 0.54597 0.84344 0.0
H591 H 0.63449 0.52638 0.85174 0.0
C592 C 0.9236 0.64202 0.91338 0.0
C593 C 0.92529 0.64658 0.98062 0.0
C594 C 0.93182 0.62196 0.88326 0.0
C595 C 0.94143 0.60564 0.92143 0.0
C596 C 0.94182 0.60927 0.98976 0.0
C597 C 0.93396 0.62982 0.01853 0.0
C598 C 0.93124 0.61886 0.81016 0.0
C599 C 0.95142 0.59196 0.03221 0.0
C600 C 0.95031 0.54722 0.83436 0.0
C601 C 0.97353 0.55063 0.81582 0.0
C602 C 0.93982 0.56453 0.87156 0.0
C603 C 0.95273 0.58594 0.88897 0.0
C604 C 0.97629 0.58923 0.87139 0.0
C605 C 0.98646 0.5714 0.83569 0.0
C606 C 0.91483 0.56011 0.89094 0.0
C607 C 0.99056 0.61197 0.88794 0.0
H608 H 0.91632 0.65448 0.88381 0.0
H609 H 0.93547 0.63315 0.07043 0.0
H610 H 0.94899 0.61947 0.78981 0.0
H611 H 0.92248 0.60145 0.79586 0.0
H612 H 0.92236 0.63266 0.78777 0.0
H613 H 0.9477 0.59567 0.08459 0.0
H614 H 0.94427 0.57378 0.01898 0.0
H615 H 0.97026 0.59272 0.02453 0.0
H616 H 0.94034 0.53102 0.81969 0.0
H617 H 0.00439 0.57413 0.8212 0.0
H618 H 0.9047 0.57194 0.86482 0.0
H619 H 0.91234 0.56407 0.94368 0.0
H620 H 0.90791 0.54167 0.87971 0.0
H621 H 0.98357 0.62664 0.86394 0.0
H622 H 0.00879 0.61146 0.87236 0.0
H623 H 0.98977 0.61595 0.94103 0.0
C624 C 0.08487 0.13891 0.54362 0.0
C625 C 0.07495 0.15662 0.51298 0.0
C626 C 0.0714 0.11893 0.56456 0.0
C627 C 0.04759 0.11642 0.55257 0.0
C628 C 0.03749 0.13455 0.52272 0.0
C629 C 0.05127 0.15461 0.50419 0.0
C630 C 0.08323 0.10021 0.59599 0.0
C631 C 0.01243 0.13214 0.50654 0.0
C632 C 0.02124 0.05355 0.53475 0.0
C633 C 0.0084 0.05113 0.59272 0.0
C634 C 0.03379 0.07485 0.52082 0.0
C635 C 0.03356 0.09413 0.56623 0.0
C636 C 0.02011 0.09192 0.62425 0.0
C637 C 0.00744 0.07043 0.63636 0.0
C638 C 0.04767 0.07652 0.45807 0.0
C639 C 0.01901 0.11196 0.67404 0.0
H640 H 0.10324 0.14045 0.54998 0.0
H641 H 0.04372 0.16818 0.47934 0.0
H642 H 0.07126 0.08756 0.62239 0.0
H643 H 0.09249 0.09032 0.55782 0.0
H644 H 0.0962 0.10838 0.63032 0.0
H645 H 0.00746 0.14748 0.48095 0.0
H646 H 0.00842 0.11605 0.47533 0.0
H647 H 0.00177 0.13024 0.55157 0.0
H648 H 0.02203 0.03856 0.50102 0.0
H649 H 0.99728 0.06854 0.68093 0.0
H650 H 0.06616 0.07762 0.46874 0.0
H651 H 0.04456 0.09265 0.43301 0.0
H652 H 0.04364 0.06106 0.42451 0.0
H653 H 0.01555 0.10534 0.72357 0.0
H654 H 0.00472 0.12231 0.66267 0.0
H655 H 0.03503 0.12394 0.67453 0.0
C656 C 0.38022 0.03183 0.45017 0.0
C657 C 0.3669 0.01584 0.41041 0.0
C658 C 0.39761 0.02426 0.48711 0.0
C659 C 0.40125 1.00011 0.48494 0.0
C660 C 0.38738 0.98387 0.44601 0.0
C661 C 0.37048 0.992 0.40862 0.0
C662 C 0.41252 0.04216 0.5267 0.0
C663 C 0.39048 0.95795 0.44346 0.0
C664 C 0.45977 0.98372 0.52834 0.0
C665 C 0.45598 0.97745 0.59278 0.0
C666 C 0.442 0.99092 0.49234 0.0
C667 C 0.42002 0.99187 0.52191 0.0
C668 C 0.41598 0.98493 0.58659 0.0
C669 C 0.43401 0.97752 0.6211 0.0
C670 C 0.44676 0.99771 0.42297 0.0
C671 C 0.39282 0.98592 0.61987 0.0
H672 H 0.37739 0.05028 0.451 0.0
H673 H 0.35994 0.97971 0.37804 0.0
H674 H 0.41396 0.03631 0.57683 0.0
H675 H 0.43003 0.04393 0.50466 0.0
H676 H 0.40587 0.05971 0.52903 0.0
H677 H 0.3777 0.94757 0.41244 0.0
H678 H 0.40787 0.95506 0.42419 0.0
H679 H 0.38896 0.95115 0.49312 0.0
H680 H 0.47676 0.98331 0.50646 0.0
H681 H 0.43114 0.97278 0.67121 0.0
H682 H 0.4413 0.01542 0.41575 0.0
H683 H 0.43668 0.98523 0.38976 0.0
H684 H 0.46516 0.99766 0.40882 0.0
H685 H 0.38805 0.00423 0.62182 0.0
H686 H 0.39251 0.97967 0.67018 0.0
H687 H 0.37958 0.97504 0.59172 0.0
C688 C 0.46669 0.35015 0.46321 0.0
C689 C 0.44275 0.34789 0.46955 0.0
C690 C 0.47963 0.37051 0.48633 0.0
C691 C 0.46835 0.38883 0.51752 0.0
C692 C 0.44424 0.3861 0.52709 0.0
C693 C 0.43171 0.36573 0.50232 0.0
C694 C 0.5052 0.37299 0.47374 0.0
C695 C 0.43133 0.40509 0.56001 0.0
C696 C 0.50347 0.43652 0.6149 0.0
C697 C 0.50441 0.45527 0.57318 0.0
C698 C 0.49187 0.41468 0.59751 0.0
C699 C 0.48156 0.41144 0.53613 0.0
C700 C 0.48338 0.43008 0.49271 0.0
C701 C 0.49473 0.45184 0.51192 0.0
C702 C 0.4906 0.39525 0.64512 0.0
C703 C 0.47296 0.42719 0.42641 0.0
H704 H 0.47522 0.33653 0.43687 0.0
H705 H 0.41318 0.364 0.50718 0.0
H706 H 0.50987 0.38779 0.4414 0.0
H707 H 0.51428 0.37715 0.51979 0.0
H708 H 0.51143 0.35681 0.45065 0.0
H709 H 0.41544 0.39745 0.58474 0.0
H710 H 0.44182 0.41591 0.59603 0.0
H711 H 0.42625 0.41687 0.52276 0.0
H712 H 0.51139 0.43909 0.66186 0.0
H713 H 0.49557 0.46634 0.47953 0.0
H714 H 0.50348 0.3829 0.63082 0.0
H715 H 0.47352 0.3851 0.64527 0.0
H716 H 0.49425 0.40217 0.6953 0.0
H717 H 0.47861 0.41134 0.4001 0.0
H718 H 0.47763 0.44267 0.39642 0.0
H719 H 0.45404 0.42466 0.43174 0.0
C720 C 0.1456 0.55648 0.52357 0.0
C721 C 0.15198 0.57853 0.49812 0.0
C722 C 0.12358 0.55099 0.54986 0.0
C723 C 0.10763 0.56806 0.55108 0.0
C724 C 0.11449 0.59091 0.52982 0.0
C725 C 0.13659 0.59583 0.50304 0.0
C726 C 0.11694 0.5263 0.57113 0.0
C727 C 0.09807 0.60967 0.5317 0.0
C728 C 0.04605 0.54275 0.534 0.0
C729 C 0.03824 0.54291 0.5987 0.0
C730 C 0.06844 0.55167 0.5177 0.0
C731 C 0.08323 0.56106 0.56741 0.0
C732 C 0.07509 0.56211 0.63263 0.0
C733 C 0.05257 0.5531 0.64747 0.0
C734 C 0.07658 0.55006 0.44761 0.0
C735 C 0.09044 0.57177 0.6869 0.0
H736 H 0.15732 0.54293 0.51905 0.0
H737 H 0.14159 0.61296 0.48385 0.0
H738 H 0.10565 0.52624 0.61513 0.0
H739 H 0.10729 0.5162 0.53191 0.0
H740 H 0.13218 0.51706 0.58118 0.0
H741 H 0.10687 0.62725 0.52167 0.0
H742 H 0.08482 0.6052 0.49474 0.0
H743 H 0.08914 0.61062 0.57978 0.0
H744 H 0.03493 0.53488 0.49633 0.0
H745 H 0.04638 0.55341 0.69753 0.0
H746 H 0.09039 0.5381 0.44246 0.0
H747 H 0.08387 0.56755 0.43182 0.0
H748 H 0.0626 0.54339 0.41453 0.0
H749 H 0.10479 0.56065 0.69077 0.0
H750 H 0.08115 0.5724 0.73456 0.0
H751 H 0.09806 0.58972 0.6762 0.0
C752 C 0.93525 0.88057 0.94675 0.0
C753 C 0.94176 0.85768 0.93726 0.0
C754 C 0.94842 0.89977 0.92043 0.0
C755 C 0.96849 0.89598 0.88327 0.0
C756 C 0.9749 0.87293 0.8722 0.0
C757 C 0.96153 0.85406 0.89961 0.0
C758 C 0.94098 0.92415 0.93288 0.0
C759 C 0.99601 0.86823 0.83199 0.0
C760 C 0.98971 0.94303 0.76701 0.0
C761 C 0.00694 0.95605 0.80205 0.0
C762 C 0.97723 0.92331 0.79241 0.0
C763 C 0.98242 0.91613 0.85452 0.0
C764 C 0.00023 0.9288 0.88993 0.0
C765 C 0.01216 0.94878 0.86344 0.0
C766 C 0.95798 0.91066 0.75365 0.0
C767 C 0.00622 0.92166 0.95646 0.0
H768 H 0.91985 0.8835 0.975 0.0
H769 H 0.96694 0.83653 0.89291 0.0
H770 H 0.94021 0.93313 0.88652 0.0
H771 H 0.92399 0.92392 0.95813 0.0
H772 H 0.95374 0.9348 0.96322 0.0
H773 H 0.99876 0.84928 0.82847 0.0
H774 H 0.99453 0.87445 0.78221 0.0
H775 H 0.01133 0.87815 0.85347 0.0
H776 H 0.98488 0.94902 0.72156 0.0
H777 H 0.02532 0.95897 0.89123 0.0
H778 H 0.94198 0.90868 0.78367 0.0
H779 H 0.96239 0.89277 0.73863 0.0
H780 H 0.95452 0.92006 0.70953 0.0
H781 H 0.99147 0.92338 0.99063 0.0
H782 H 0.02136 0.93254 0.97605 0.0
H783 H 0.00979 0.90295 0.95464 0.0
C784 C 0.6297 0.97146 0.88919 0.0
C785 C 0.64555 0.98799 0.91936 0.0
C786 C 0.61137 0.97872 0.85543 0.0
C787 C 0.6086 0.003 0.85365 0.0
C788 C 0.62459 0.01971 0.88412 0.0
C789 C 0.64299 0.01198 0.9162 0.0
C790 C 0.59482 0.96044 0.82256 0.0
C791 C 0.6221 0.04572 0.88359 0.0
C792 C 0.57254 0.02508 0.7243 0.0
C793 C 0.55146 0.02622 0.7574 0.0
C794 C 0.59115 0.01701 0.7546 0.0
C795 C 0.58887 0.01104 0.82047 0.0
C796 C 0.56788 0.01312 0.85492 0.0
C797 C 0.54928 0.02048 0.82261 0.0
C798 C 0.61298 0.01423 0.71561 0.0
C799 C 0.56514 0.00765 0.92583 0.0
H800 H 0.63179 0.95291 0.89163 0.0
H801 H 0.65513 0.02472 0.94032 0.0
H802 H 0.57829 0.95921 0.85018 0.0
H803 H 0.59136 0.96545 0.77266 0.0
H804 H 0.60131 0.94282 0.81975 0.0
H805 H 0.63596 0.05638 0.91006 0.0
H806 H 0.6223 0.05143 0.83285 0.0
H807 H 0.60539 0.04948 0.90622 0.0
H808 H 0.57419 0.02946 0.67366 0.0
H809 H 0.533 0.02167 0.84815 0.0
H810 H 0.61716 0.99574 0.71601 0.0
H811 H 0.62743 0.02535 0.73788 0.0
H812 H 0.61168 0.01905 0.66432 0.0
H813 H 0.57029 0.98987 0.93378 0.0
H814 H 0.54728 0.00861 0.94438 0.0
H815 H 0.57661 0.02033 0.95488 0.0
C816 C 0.56117 0.65481 0.90807 0.0
C817 C 0.58082 0.65184 0.94297 0.0
C818 C 0.54804 0.63549 0.8796 0.0
C819 C 0.55437 0.61257 0.88747 0.0
C820 C 0.57439 0.60941 0.92135 0.0
C821 C 0.58752 0.62908 0.94792 0.0
C822 C 0.5272 0.63954 0.8419 0.0
C823 C 0.58174 0.58519 0.93045 0.0
C824 C 0.50902 0.56082 0.86819 0.0
C825 C 0.51414 0.55218 0.80539 0.0
C826 C 0.52185 0.58065 0.89554 0.0
C827 C 0.54028 0.5919 0.85921 0.0
C828 C 0.54562 0.58307 0.79616 0.0
C829 C 0.53252 0.56331 0.77044 0.0
C830 C 0.51595 0.58932 0.96356 0.0
C831 C 0.56533 0.59432 0.75606 0.0
H832 H 0.55556 0.67218 0.90457 0.0
H833 H 0.60292 0.62656 0.97339 0.0
H834 H 0.52867 0.6318 0.79183 0.0
H835 H 0.51164 0.63063 0.86511 0.0
H836 H 0.52489 0.6585 0.83899 0.0
H837 H 0.59812 0.58577 0.95636 0.0
H838 H 0.56831 0.5747 0.95857 0.0
H839 H 0.58375 0.57581 0.88272 0.0
H840 H 0.49506 0.552 0.89603 0.0
H841 H 0.53751 0.55595 0.72427 0.0
H842 H 0.51207 0.6079 0.96331 0.0
H843 H 0.53086 0.58869 0.99511 0.0
H844 H 0.50101 0.57872 0.98517 0.0
H845 H 0.56139 0.61201 0.74249 0.0
H846 H 0.56879 0.58375 0.71104 0.0
H847 H 0.5812 0.59669 0.78442 0.0
C848 C 0.86123 0.444 0.85902 0.0
C849 C 0.85533 0.4217 0.88345 0.0
C850 C 0.88317 0.45012 0.83284 0.0
C851 C 0.89952 0.43344 0.8307 0.0
C852 C 0.89316 0.41038 0.85105 0.0
C853 C 0.87113 0.40481 0.87767 0.0
C854 C 0.88928 0.47502 0.81253 0.0
C855 C 0.91003 0.39203 0.8484 0.0
C856 C 0.95444 0.44923 0.73413 0.0
C857 C 0.96875 0.45941 0.78295 0.0
C858 C 0.93192 0.44015 0.74892 0.0
C859 C 0.92381 0.441 0.81419 0.0
C860 C 0.93857 0.45043 0.86392 0.0
C861 C 0.96092 0.45951 0.84764 0.0
C862 C 0.91658 0.43051 0.6946 0.0
C863 C 0.93047 0.4518 0.93408 0.0
H864 H 0.8492 0.45724 0.86421 0.0
H865 H 0.86651 0.38749 0.89609 0.0
H866 H 0.89879 0.48512 0.85198 0.0
H867 H 0.90051 0.47552 0.76841 0.0
H868 H 0.8738 0.48397 0.80307 0.0
H869 H 0.90164 0.37426 0.85823 0.0
H870 H 0.91885 0.3914 0.80013 0.0
H871 H 0.92332 0.39673 0.88513 0.0
H872 H 0.96064 0.44896 0.68408 0.0
H873 H 0.97202 0.46736 0.88538 0.0
H874 H 0.9018 0.44114 0.69214 0.0
H875 H 0.90959 0.41226 0.70426 0.0
H876 H 0.9257 0.43061 0.64662 0.0
H877 H 0.91648 0.46352 0.93954 0.0
H878 H 0.94441 0.45861 0.96714 0.0
H879 H 0.92345 0.43418 0.94963 0.0
C880 C 0.1162 0.16747 0.96963 0.0
C881 C 0.10232 0.18421 0.99682 0.0
C882 C 0.10711 0.14897 0.92835 0.0
C883 C 0.08367 0.14743 0.91284 0.0
C884 C 0.07015 0.16551 0.93491 0.0
C885 C 0.07958 0.1836 0.97702 0.0
C886 C 0.12214 0.13007 0.90582 0.0
C887 C 0.04522 0.16481 0.91816 0.0
C888 C 0.06118 0.1015 0.78538 0.0
C889 C 0.0513 0.08362 0.8244 0.0
C890 C 0.07154 0.12259 0.81315 0.0
C891 C 0.0726 0.12546 0.88158 0.0
C892 C 0.06299 0.1072 0.9211 0.0
C893 C 0.05229 0.08658 0.89199 0.0
C894 C 0.08127 0.14173 0.76935 0.0
C895 C 0.06402 0.10941 0.99426 0.0
H896 H 0.13394 0.16811 0.98335 0.0
H897 H 0.06861 0.19631 0.99779 0.0
H898 H 0.11685 0.11381 0.93193 0.0
H899 H 0.12014 0.12579 0.85321 0.0
H900 H 0.14051 0.1353 0.91507 0.0
H901 H 0.03814 0.18183 0.93016 0.0
H902 H 0.04287 0.16031 0.86574 0.0
H903 H 0.03516 0.15098 0.9458 0.0
H904 H 0.06063 0.09909 0.7331 0.0
H905 H 0.04476 0.0727 0.92223 0.0
H906 H 0.10014 0.1443 0.77356 0.0
H907 H 0.07448 0.15862 0.78442 0.0
H908 H 0.0772 0.13757 0.7176 0.0
H909 H 0.08208 0.11284 0.00921 0.0
H910 H 0.05626 0.09335 0.01783 0.0
H911 H 0.05487 0.12453 0.0127 0.0
C912 C 0.33347 0.01722 0.86964 0.0
C913 C 0.33201 0.03558 0.91654 0.0
C914 C 0.35412 0.01418 0.83548 0.0
C915 C 0.37371 0.02995 0.84828 0.0
C916 C 0.37196 0.04934 0.89248 0.0
C917 C 0.35119 0.05187 0.92618 0.0
C918 C 0.35524 0.99353 0.78778 0.0
C919 C 0.39239 0.06669 0.90702 0.0
C920 C 0.43271 0.00808 0.828 0.0
C921 C 0.44057 0.01766 0.76912 0.0
C922 C 0.41084 0.01167 0.85364 0.0
C923 C 0.39648 0.02524 0.81973 0.0
C924 C 0.40426 0.0349 0.76021 0.0
C925 C 0.42616 0.03094 0.73555 0.0
C926 C 0.4031 0.001 0.91723 0.0
C927 C 0.3895 0.04945 0.72258 0.0
H928 H 0.31865 0.00475 0.86126 0.0
H929 H 0.35046 0.06591 0.96295 0.0
H930 H 0.36074 0.99983 0.73918 0.0
H931 H 0.36817 0.98208 0.80304 0.0
H932 H 0.3385 0.98283 0.78345 0.0
H933 H 0.38769 0.08197 0.9379 0.0
H934 H 0.40533 0.05784 0.93256 0.0
H935 H 0.40058 0.07322 0.86127 0.0
H936 H 0.44358 0.99764 0.85407 0.0
H937 H 0.43192 0.03828 0.68969 0.0
H938 H 0.38692 0.98954 0.91074 0.0
H939 H 0.39958 0.01508 0.95379 0.0
H940 H 0.41607 0.99044 0.93675 0.0
H941 H 0.37418 0.03831 0.70539 0.0
H942 H 0.39876 0.05728 0.67983 0.0
H943 H 0.38335 0.06382 0.75431 0.0
C944 C 0.39578 0.33966 0.93386 0.0
C945 C 0.41107 0.32411 0.95373 0.0
C946 C 0.40343 0.35904 0.89689 0.0
C947 C 0.42687 0.36279 0.87861 0.0
C948 C 0.44197 0.34603 0.89352 0.0
C949 C 0.43392 0.32695 0.93117 0.0
C950 C 0.38674 0.37642 0.88168 0.0
C951 C 0.46702 0.34917 0.87397 0.0
C952 C 0.44741 0.4099 0.7599 0.0
C953 C 0.45616 0.42818 0.80219 0.0
C954 C 0.43759 0.38851 0.78375 0.0
C955 C 0.43619 0.38557 0.85163 0.0
C956 C 0.44431 0.40435 0.89456 0.0
C957 C 0.45431 0.42538 0.86926 0.0
C958 C 0.42938 0.36888 0.73635 0.0
C959 C 0.44286 0.40208 0.96732 0.0
H960 H 0.37799 0.33733 0.9499 0.0
H961 H 0.44595 0.3152 0.94648 0.0
H962 H 0.39052 0.39281 0.91174 0.0
H963 H 0.38856 0.38111 0.83005 0.0
H964 H 0.36871 0.3695 0.89175 0.0
H965 H 0.4757 0.33308 0.88093 0.0
H966 H 0.46918 0.35385 0.82237 0.0
H967 H 0.47571 0.36381 0.90377 0.0
H968 H 0.4487 0.41216 0.70808 0.0
H969 H 0.46097 0.43955 0.90208 0.0
H970 H 0.41161 0.36191 0.74914 0.0
H971 H 0.44031 0.3542 0.73903 0.0
H972 H 0.42992 0.37462 0.68552 0.0
H973 H 0.4249 0.39702 0.98314 0.0
H974 H 0.44906 0.41865 0.99398 0.0
H975 H 0.45325 0.38799 0.98132 0.0
C976 C 0.18476 0.52244 0.96796 0.0
C977 C 0.19385 0.54598 0.97542 0.0
C978 C 0.16607 0.51596 0.92779 0.0
C979 C 0.15599 0.53345 0.89502 0.0
C980 C 0.16619 0.55689 0.89824 0.0
C981 C 0.18512 0.56281 0.93783 0.0
C982 C 0.15605 0.49066 0.92451 0.0
C983 C 0.156 0.57612 0.86418 0.0
C984 C 0.10938 0.5161 0.77224 0.0
C985 C 0.08954 0.51736 0.81121 0.0
C986 C 0.13122 0.52119 0.79858 0.0
C987 C 0.13316 0.52791 0.86529 0.0
C988 C 0.11308 0.52936 0.90457 0.0
C989 C 0.09154 0.5239 0.87712 0.0
C990 C 0.15218 0.51916 0.7553 0.0
C991 C 0.11432 0.53679 0.9757 0.0
H992 H 0.1912 0.50925 0.9968 0.0
H993 H 0.19235 0.58094 0.94193 0.0
H994 H 0.13982 0.48891 0.95363 0.0
H995 H 0.15197 0.48488 0.87377 0.0
H996 H 0.16785 0.47873 0.94372 0.0
H997 H 0.16759 0.59264 0.86426 0.0
H998 H 0.15206 0.57055 0.81324 0.0
H999 H 0.13965 0.57983 0.8891 0.0
H1000 H 0.10782 0.5108 0.72138 0.0
H1001 H 0.0762 0.52497 0.90727 0.0
H1002 H 0.16264 0.50591 0.77406 0.0
H1003 H 0.163 0.53614 0.75568 0.0
H1004 H 0.14773 0.51399 0.70433 0.0
H1005 H 0.12362 0.52426 0.00191 0.0
H1006 H 0.0971 0.5376 0.99905 0.0
H1007 H 0.12401 0.55434 0.98151 0.0
C1008 C 0.91065 0.82155 0.46734 0.0
C1009 C 0.92278 0.8131 0.41314 0.0
C1010 C 0.91928 0.84185 0.50287 0.0
C1011 C 0.94003 0.85433 0.48202 0.0
C1012 C 0.95256 0.84546 0.42825 0.0
C1013 C 0.94391 0.8248 0.395 0.0
C1014 C 0.90584 0.85035 0.5613 0.0
C1015 C 0.97448 0.85848 0.40348 0.0
C1016 C 0.94982 0.92013 0.51765 0.0
C1017 C 0.96702 0.92135 0.56348 0.0
C1018 C 0.94057 0.89834 0.49141 0.0
C1019 C 0.94815 0.87736 0.5136 0.0
C1020 C 0.96477 0.87858 0.56229 0.0
C1021 C 0.97439 0.90061 0.58558 0.0
C1022 C 0.92334 0.8978 0.43828 0.0
C1023 C 0.97266 0.85667 0.58904 0.0
H1024 H 0.89424 0.81254 0.48101 0.0
H1025 H 0.95305 0.81854 0.35223 0.0
H1026 H 0.91727 0.85451 0.60301 0.0
H1027 H 0.89837 0.86675 0.55016 0.0
H1028 H 0.89172 0.83716 0.57596 0.0
H1029 H 0.98237 0.84895 0.36182 0.0
H1030 H 0.97096 0.87607 0.38783 0.0
H1031 H 0.98707 0.86128 0.44277 0.0
H1032 H 0.94416 0.93624 0.50074 0.0
H1033 H 0.98749 0.90162 0.62187 0.0
H1034 H 0.90739 0.88703 0.45231 0.0
H1035 H 0.93029 0.88947 0.39327 0.0
H1036 H 0.91897 0.91565 0.42733 0.0
H1037 H 0.95771 0.84425 0.60221 0.0
H1038 H 0.98329 0.86062 0.63258 0.0
H1039 H 0.98292 0.84764 0.5514 0.0
C1040 C 0.64752 0.94901 0.40461 0.0
C1041 C 0.66885 0.96104 0.41958 0.0
C1042 C 0.62779 0.95265 0.44209 0.0
C1043 C 0.62916 0.96921 0.49507 0.0
C1044 C 0.65067 0.98074 0.51238 0.0
C1045 C 0.67031 0.97629 0.47494 0.0
C1046 C 0.60522 0.93967 0.4227 0.0
C1047 C 0.65278 0.99856 0.56859 0.0
C1048 C 0.57413 0.99773 0.5299 0.0
C1049 C 0.56483 0.98544 0.58329 0.0
C1050 C 0.59548 0.99321 0.5024 0.0
C1051 C 0.60773 0.97577 0.52839 0.0
C1052 C 0.59866 0.96361 0.58304 0.0
C1053 C 0.57738 0.96867 0.61001 0.0
C1054 C 0.6048 0.00689 0.44486 0.0
C1055 C 0.61108 0.94477 0.61188 0.0
H1056 H 0.64584 0.93754 0.3615 0.0
H1057 H 0.6867 0.98532 0.48799 0.0
H1058 H 0.59618 0.93175 0.46559 0.0
H1059 H 0.59407 0.95217 0.40329 0.0
H1060 H 0.60744 0.92554 0.38502 0.0
H1061 H 0.67078 0.00581 0.57625 0.0
H1062 H 0.64241 0.01328 0.55977 0.0
H1063 H 0.64594 0.99044 0.61386 0.0
H1064 H 0.56478 0.01101 0.50964 0.0
H1065 H 0.57046 0.9592 0.65167 0.0
H1066 H 0.60588 0.99485 0.40148 0.0
H1067 H 0.62239 0.01498 0.45442 0.0
H1068 H 0.59397 0.02097 0.43339 0.0
H1069 H 0.61181 0.92975 0.57625 0.0
H1070 H 0.60258 0.93825 0.65733 0.0
H1071 H 0.62898 0.95152 0.62252 0.0
C1072 C 0.57599 0.67772 0.41181 0.0
C1073 C 0.59664 0.69067 0.42824 0.0
C1074 C 0.56865 0.65682 0.44222 0.0
C1075 C 0.58204 0.64893 0.49138 0.0
C1076 C 0.60251 0.66239 0.50994 0.0
C1077 C 0.60978 0.68297 0.47732 0.0
C1078 C 0.54693 0.6428 0.42014 0.0
C1079 C 0.61686 0.65487 0.56345 0.0
C1080 C 0.5485 0.60456 0.59672 0.0
C1081 C 0.55525 0.58332 0.56993 0.0
C1082 C 0.55828 0.62614 0.57458 0.0
C1083 C 0.57449 0.62642 0.52243 0.0
C1084 C 0.58172 0.60497 0.49603 0.0
C1085 C 0.57226 0.5836 0.52097 0.0
C1086 C 0.55065 0.64857 0.6056 0.0
C1087 C 0.59857 0.60452 0.43939 0.0
H1088 H 0.56608 0.68339 0.37282 0.0
H1089 H 0.62583 0.69293 0.48962 0.0
H1090 H 0.55076 0.62495 0.40259 0.0
H1091 H 0.5345 0.64066 0.46147 0.0
H1092 H 0.5387 0.65123 0.38056 0.0
H1093 H 0.63135 0.66816 0.57531 0.0
H1094 H 0.60612 0.65175 0.60799 0.0
H1095 H 0.62386 0.63806 0.54873 0.0
H1096 H 0.53551 0.60431 0.63524 0.0
H1097 H 0.57741 0.56712 0.50031 0.0
H1098 H 0.53984 0.6568 0.57152 0.0
H1099 H 0.56567 0.66132 0.61622 0.0
H1100 H 0.54061 0.64543 0.65142 0.0
H1101 H 0.59095 0.6113 0.39617 0.0
H1102 H 0.60342 0.58655 0.42697 0.0
H1103 H 0.61431 0.61617 0.4503 0.0
C1104 C 0.82258 0.43775 0.44595 0.0
C1105 C 0.81366 0.45437 0.40807 0.0
C1106 C 0.84131 0.44404 0.48599 0.0
C1107 C 0.85109 0.46762 0.48925 0.0
C1108 C 0.84072 0.48489 0.4564 0.0
C1109 C 0.82223 0.47805 0.41584 0.0
C1110 C 0.85181 0.42504 0.52017 0.0
C1111 C 0.85031 0.51033 0.45976 0.0
C1112 C 0.89783 0.48561 0.6111 0.0
C1113 C 0.9176 0.48452 0.57175 0.0
C1114 C 0.87596 0.48027 0.58518 0.0
C1115 C 0.87394 0.47351 0.51853 0.0
C1116 C 0.89395 0.47228 0.47885 0.0
C1117 C 0.91552 0.47796 0.50589 0.0
C1118 C 0.85506 0.48204 0.62886 0.0
C1119 C 0.89262 0.46483 0.40775 0.0
H1120 H 0.81572 0.4195 0.44153 0.0
H1121 H 0.81559 0.49107 0.3868 0.0
H1122 H 0.86814 0.42143 0.49493 0.0
H1123 H 0.85585 0.43076 0.57095 0.0
H1124 H 0.84037 0.40841 0.52059 0.0
H1125 H 0.83822 0.52203 0.44083 0.0
H1126 H 0.8544 0.51615 0.51047 0.0
H1127 H 0.86646 0.5124 0.43039 0.0
H1128 H 0.89947 0.4909 0.66193 0.0
H1129 H 0.93081 0.47703 0.47548 0.0
H1130 H 0.84466 0.46482 0.62949 0.0
H1131 H 0.84415 0.49482 0.60976 0.0
H1132 H 0.85958 0.48763 0.67951 0.0
H1133 H 0.88317 0.44715 0.40212 0.0
H1134 H 0.90981 0.46428 0.38404 0.0
H1135 H 0.88305 0.47719 0.38176 0.0
loop_
_geom_bond_atom_site_label_1
_geom_bond_atom_site_label_2
_geom_bond_distance
_geom_bond_site_symmetry_2
_ccdc_geom_bond_type
C0 C1 1.384 . S
C0 H13 0.947 . S
C0 C35 1.382 . S
C1 C0 1.384 . S
C1 C2 1.378 . S
C2 C1 1.378 . S
C2 C3 1.378 . S
C2 H14 0.952 . S
C3 C2 1.378 . S
C3 H15 0.950 . S
C3 C34 1.383 . S
H4 C23 0.947 . S
H5 C24 0.946 . S
H6 C26 0.953 . S
H7 C27 0.945 . S
H8 C29 0.952 . S
H9 C30 0.949 . S
H10 C32 0.950 . S
H11 C33 0.948 1_554 S
H12 C35 0.951 . S
H13 C0 0.947 . S
H14 C2 0.952 . S
H15 C3 0.950 . S
N16 C19 1.382 . S
N16 C21 1.363 . S
N17 C19 1.371 1_556 S
N17 C20 1.372 1_556 S
N18 C20 1.361 . S
N18 C21 1.377 . S
C19 N16 1.382 . S
C19 N17 1.371 1_554 S
C19 C22 1.480 . S
C20 N17 1.372 1_554 S
C20 N18 1.361 . S
C20 C28 1.457 1_554 S
C21 N16 1.363 . S
C21 N18 1.377 . S
C21 C34 1.479 . S
C22 C19 1.480 . S
C22 C23 1.383 . S
C22 C27 1.385 1_554 S
C23 H4 0.947 . S
C23 C22 1.383 . S
C23 C24 1.388 . S
C24 H5 0.946 . S
C24 C23 1.388 . S
C24 C25 1.373 1_554 S
C25 C24 1.373 1_556 S
C25 C26 1.384 . S
C26 H6 0.953 . S
C26 C25 1.384 . S
C26 C27 1.369 . S
C27 H7 0.945 . S
C27 C22 1.385 1_556 S
C27 C26 1.369 . S
C28 C20 1.457 1_556 S
C28 C29 1.372 . S
C28 C33 1.364 . S
C29 H8 0.952 . S
C29 C28 1.372 . S
C29 C30 1.389 . S
C30 H9 0.949 . S
C30 C29 1.389 . S
C30 C31 1.387 . S
C31 C30 1.387 . S
C31 C32 1.372 . S
C32 H10 0.950 . S
C32 C31 1.372 . S
C32 C33 1.379 . S
C33 H11 0.948 1_556 S
C33 C28 1.364 . S
C33 C32 1.379 . S
C34 C3 1.383 . S
C34 C21 1.479 . S
C34 C35 1.398 . S
C35 C0 1.382 . S
C35 H12 0.951 . S
C35 C34 1.398 . S
C36 C37 1.384 . S
C36 H49 0.947 . S
C36 C71 1.382 . S
C37 C36 1.384 . S
C37 C38 1.378 . S
C38 C37 1.378 . S
C38 C39 1.378 . S
C38 H50 0.952 . S
C39 C38 1.378 . S
C39 H51 0.950 . S
C39 C70 1.383 . S
H40 C59 0.947 . S
H41 C60 0.946 . S
H42 C62 0.953 . S
H43 C63 0.945 . S
H44 C65 0.952 . S
H45 C66 0.949 . S
H46 C68 0.950 . S
H47 C69 0.948 . S
H48 C71 0.951 . S
H49 C36 0.947 . S
H50 C38 0.952 . S
H51 C39 0.950 . S
N52 C55 1.382 . S
N52 C57 1.363 . S
N53 C55 1.371 1_556 S
N53 C56 1.372 . S
N54 C56 1.361 1_554 S
N54 C57 1.377 . S
C55 N52 1.382 . S
C55 N53 1.371 1_554 S
C55 C58 1.480 1_554 S
C56 N53 1.372 . S
C56 N54 1.361 1_556 S
C56 C64 1.457 . S
C57 N52 1.363 . S
C57 N54 1.377 . S
C57 C70 1.479 . S
C58 C55 1.480 1_556 S
C58 C59 1.383 1_556 S
C58 C63 1.385 . S
C59 H40 0.947 . S
C59 C58 1.383 1_554 S
C59 C60 1.388 . S
C60 H41 0.946 . S
C60 C59 1.388 . S
C60 C61 1.384 1_554 S
C61 C60 1.384 1_556 S
C61 C62 1.377 . S
C62 H42 0.953 . S
C62 C61 1.377 . S
C62 C63 1.369 . S
C63 H43 0.945 . S
C63 C58 1.385 . S
C63 C62 1.369 . S
C64 C56 1.457 . S
C64 C65 1.372 . S
C64 C69 1.364 . S
C65 H44 0.952 . S
C65 C64 1.372 . S
C65 C66 1.389 . S
C66 H45 0.949 . S
C66 C65 1.389 . S
C66 C67 1.387 . S
C67 C66 1.387 . S
C67 C68 1.372 . S
C68 H46 0.950 . S
C68 C67 1.372 . S
C68 C69 1.379 . S
C69 H47 0.948 . S
C69 C64 1.364 . S
C69 C68 1.379 . S
C70 C39 1.383 . S
C70 C57 1.479 . S
C70 C71 1.398 . S
C71 C36 1.382 . S
C71 H48 0.951 . S
C71 C70 1.398 . S
C72 C73 1.384 1_565 S
C72 H85 0.947 . S
C72 C107 1.382 1_565 S
C73 C72 1.384 1_545 S
C73 C74 1.378 . S
C74 C73 1.378 . S
C74 C75 1.378 . S
C74 H86 0.952 . S
C75 C74 1.378 . S
C75 H87 0.950 . S
C75 C106 1.383 . S
H76 C95 0.947 . S
H77 C96 0.954 . S
H78 C98 0.953 . S
H79 C99 0.936 1_556 S
H80 C101 0.947 1_565 S
H81 C102 0.956 . S
H82 C104 0.950 . S
H83 C105 0.948 . S
H84 C107 0.951 1_565 S
H85 C72 0.947 . S
H86 C74 0.952 . S
H87 C75 0.950 . S
N88 C91 1.382 . S
N88 C93 1.363 . S
N89 C91 1.371 . S
N89 C92 1.372 . S
N90 C92 1.361 . S
N90 C93 1.377 . S
C91 N88 1.382 . S
C91 N89 1.371 . S
C91 C94 1.480 . S
C92 N89 1.372 . S
C92 N90 1.361 . S
C92 C100 1.462 . S
C93 N88 1.363 . S
C93 N90 1.377 . S
C93 C106 1.479 . S
C94 C91 1.480 . S
C94 C95 1.383 . S
C94 C99 1.397 . S
C95 H76 0.947 . S
C95 C94 1.383 . S
C95 C96 1.383 1_545 S
C96 H77 0.954 . S
C96 C95 1.383 1_565 S
C96 C97 1.381 1_565 S
C97 C96 1.381 1_545 S
C97 C98 1.377 1_554 S
C98 H78 0.953 . S
C98 C97 1.377 1_556 S
C98 C99 1.367 1_556 S
C99 H79 0.936 1_554 S
C99 C94 1.397 . S
C99 C98 1.367 1_554 S
C100 C92 1.462 . S
C100 C101 1.370 1_554 S
C100 C105 1.366 . S
C101 H80 0.947 1_545 S
C101 C100 1.370 1_556 S
C101 C102 1.393 1_545 S
C102 H81 0.956 . S
C102 C101 1.393 1_565 S
C102 C103 1.379 1_565 S
C103 C102 1.379 1_545 S
C103 C104 1.372 . S
C104 H82 0.950 . S
C104 C103 1.372 . S
C104 C105 1.379 1_556 S
C105 H83 0.948 . S
C105 C100 1.366 . S
C105 C104 1.379 1_554 S
C106 C75 1.383 . S
C106 C93 1.479 . S
C106 C107 1.398 . S
C107 C72 1.382 1_545 S
C107 H84 0.951 1_545 S
C107 C106 1.398 . S
C108 C109 1.384 . S
C108 H121 0.947 . S
C108 C143 1.382 . S
C109 C108 1.384 . S
C109 C110 1.378 . S
C110 C109 1.378 . S
C110 C111 1.378 . S
C110 H122 0.952 . S
C111 C110 1.378 . S
C111 H123 0.950 . S
C111 C142 1.383 . S
H112 C131 0.947 . S
H113 C132 0.946 . S
H114 C134 0.953 . S
H115 C135 0.945 . S
H116 C137 0.952 . S
H117 C138 0.949 . S
H118 C140 0.950 . S
H119 C141 0.948 . S
H120 C143 0.951 1_554 S
H121 C108 0.947 . S
H122 C110 0.952 . S
H123 C111 0.950 . S
N124 C127 1.382 . S
N124 C129 1.363 . S
N125 C127 1.371 . S
N125 C128 1.372 . S
N126 C128 1.361 . S
N126 C129 1.377 . S
C127 N124 1.382 . S
C127 N125 1.371 . S
C127 C130 1.480 . S
C128 N125 1.372 . S
C128 N126 1.361 . S
C128 C136 1.457 . S
C129 N124 1.363 . S
C129 N126 1.377 . S
C129 C142 1.479 1_554 S
C130 C127 1.480 . S
C130 C131 1.383 1_554 S
C130 C135 1.385 . S
C131 H112 0.947 . S
C131 C130 1.383 1_556 S
C131 C132 1.388 . S
C132 H113 0.946 . S
C132 C131 1.388 . S
C132 C133 1.384 1_556 S
C133 C132 1.384 1_554 S
C133 C134 1.377 . S
C134 H114 0.953 . S
C134 C133 1.377 . S
C134 C135 1.369 . S
C135 H115 0.945 . S
C135 C130 1.385 . S
C135 C134 1.369 . S
C136 C128 1.457 . S
C136 C137 1.372 . S
C136 C141 1.364 . S
C137 H116 0.952 . S
C137 C136 1.372 . S
C137 C138 1.389 . S
C138 H117 0.949 . S
C138 C137 1.389 . S
C138 C139 1.387 . S
C139 C138 1.387 . S
C139 C140 1.372 . S
C140 H118 0.950 . S
C140 C139 1.372 . S
C140 C141 1.379 . S
C141 H119 0.948 . S
C141 C136 1.364 . S
C141 C140 1.379 . S
C142 C111 1.383 . S
C142 C129 1.479 1_556 S
C142 C143 1.398 . S
C143 C108 1.382 . S
C143 H120 0.951 1_556 S
C143 C142 1.398 . S
C144 C145 1.384 . S
C144 H157 0.947 . S
C144 C179 1.382 . S
C145 C144 1.384 . S
C145 C146 1.378 . S
C146 C145 1.378 . S
C146 C147 1.378 . S
C146 H158 0.952 . S
C147 C146 1.378 . S
C147 H159 0.950 . S
C147 C178 1.383 . S
H148 C167 0.947 . S
H149 C168 0.946 . S
H150 C170 0.953 . S
H151 C171 0.945 . S
H152 C173 0.952 . S
H153 C174 0.949 . S
H154 C176 0.950 . S
H155 C177 0.948 . S
H156 C179 0.951 . S
H157 C144 0.947 . S
H158 C146 0.952 . S
H159 C147 0.950 . S
N160 C163 1.382 . S
N160 C165 1.363 . S
N161 C163 1.371 . S
N161 C164 1.372 . S
N162 C164 1.361 . S
N162 C165 1.377 . S
C163 N160 1.382 . S
C163 N161 1.371 . S
C163 C166 1.480 . S
C164 N161 1.372 . S
C164 N162 1.361 . S
C164 C172 1.457 . S
C165 N160 1.363 . S
C165 N162 1.377 . S
C165 C178 1.479 . S
C166 C163 1.480 . S
C166 C167 1.383 . S
C166 C171 1.385 . S
C167 H148 0.947 . S
C167 C166 1.383 . S
C167 C168 1.388 . S
C168 H149 0.946 . S
C168 C167 1.388 . S
C168 C169 1.384 . S
C169 C168 1.384 . S
C169 C170 1.377 . S
C170 H150 0.953 . S
C170 C169 1.377 . S
C170 C171 1.369 . S
C171 H151 0.945 . S
C171 C166 1.385 . S
C171 C170 1.369 . S
C172 C164 1.457 . S
C172 C173 1.372 . S
C172 C177 1.364 . S
C173 H152 0.952 . S
C173 C172 1.372 . S
C173 C174 1.389 . S
C174 H153 0.949 . S
C174 C173 1.389 . S
C174 C175 1.387 . S
C175 C174 1.387 . S
C175 C176 1.372 . S
C176 H154 0.950 . S
C176 C175 1.372 . S
C176 C177 1.379 . S
C177 H155 0.948 . S
C177 C172 1.364 . S
C177 C176 1.379 . S
C178 C147 1.383 . S
C178 C165 1.479 . S
C178 C179 1.398 . S
C179 C144 1.382 . S
C179 H156 0.951 . S
C179 C178 1.398 . S
C180 C181 1.384 . S
C180 H193 0.947 . S
C180 C215 1.382 . S
C181 C180 1.384 . S
C181 C182 1.378 . S
C182 C181 1.378 . S
C182 C183 1.378 . S
C182 H194 0.952 . S
C183 C182 1.378 . S
C183 H195 0.950 . S
C183 C214 1.383 . S
H184 C203 0.947 . S
H185 C204 0.946 . S
H186 C206 0.953 . S
H187 C207 0.945 . S
H188 C209 0.952 . S
H189 C210 0.949 . S
H190 C212 0.950 . S
H191 C213 0.948 . S
H192 C215 0.951 . S
H193 C180 0.947 . S
H194 C182 0.952 . S
H195 C183 0.950 . S
N196 C199 1.382 . S
N196 C201 1.363 . S
N197 C199 1.371 . S
N197 C200 1.372 . S
N198 C200 1.361 . S
N198 C201 1.377 . S
C199 N196 1.382 . S
C199 N197 1.371 . S
C199 C202 1.480 . S
C200 N197 1.372 . S
C200 N198 1.361 . S
C200 C208 1.457 . S
C201 N196 1.363 . S
C201 N198 1.377 . S
C201 C214 1.479 . S
C202 C199 1.480 . S
C202 C203 1.383 . S
C202 C207 1.385 . S
C203 H184 0.947 . S
C203 C202 1.383 . S
C203 C204 1.388 . S
C204 H185 0.946 . S
C204 C203 1.388 . S
C204 C205 1.384 . S
C205 C204 1.384 . S
C205 C206 1.377 . S
C206 H186 0.953 . S
C206 C205 1.377 . S
C206 C207 1.369 . S
C207 H187 0.945 . S
C207 C202 1.385 . S
C207 C206 1.369 . S
C208 C200 1.457 . S
C208 C209 1.372 . S
C208 C213 1.364 . S
C209 H188 0.952 . S
C209 C208 1.372 . S
C209 C210 1.389 . S
C210 H189 0.949 . S
C210 C209 1.389 . S
C210 C211 1.387 . S
C211 C210 1.387 . S
C211 C212 1.372 . S
C212 H190 0.950 . S
C212 C211 1.372 . S
C212 C213 1.379 . S
C213 H191 0.948 . S
C213 C208 1.364 . S
C213 C212 1.379 . S
C214 C183 1.383 . S
C214 C201 1.479 . S
C214 C215 1.398 . S
C215 C180 1.382 . S
C215 H192 0.951 . S
C215 C214 1.398 . S
C216 C217 1.384 . S
C216 H229 0.947 . S
C216 C251 1.382 . S
C217 C216 1.384 . S
C217 C218 1.378 . S
C218 C217 1.378 . S
C218 C219 1.378 . S
C218 H230 0.952 . S
C219 C218 1.378 . S
C219 H231 0.950 . S
C219 C250 1.383 . S
H220 C239 0.947 . S
H221 C240 0.946 . S
H222 C242 0.953 . S
H223 C243 0.945 . S
H224 C245 0.952 . S
H225 C246 0.949 . S
H226 C248 0.950 . S
H227 C249 0.948 . S
H228 C251 0.951 . S
H229 C216 0.947 . S
H230 C218 0.952 . S
H231 C219 0.950 . S
N232 C235 1.382 . S
N232 C237 1.363 . S
N233 C235 1.371 . S
N233 C236 1.372 . S
N234 C236 1.361 . S
N234 C237 1.377 . S
C235 N232 1.382 . S
C235 N233 1.371 . S
C235 C238 1.480 . S
C236 N233 1.372 . S
C236 N234 1.361 . S
C236 C244 1.457 . S
C237 N232 1.363 . S
C237 N234 1.377 . S
C237 C250 1.479 . S
C238 C235 1.480 . S
C238 C239 1.383 . S
C238 C243 1.385 . S
C239 H220 0.947 . S
C239 C238 1.383 . S
C239 C240 1.388 . S
C240 H221 0.946 . S
C240 C239 1.388 . S
C240 C241 1.384 . S
C241 C240 1.384 . S
C241 C242 1.377 . S
C242 H222 0.953 . S
C242 C241 1.377 . S
C242 C243 1.369 . S
C243 H223 0.945 . S
C243 C238 1.385 . S
C243 C242 1.369 . S
C244 C236 1.457 . S
C244 C245 1.372 . S
C244 C249 1.364 . S
C245 H224 0.952 . S
C245 C244 1.372 . S
C245 C246 1.389 . S
C246 H225 0.949 . S
C246 C245 1.389 . S
C246 C247 1.387 . S
C247 C246 1.387 . S
C247 C248 1.372 . S
C248 H226 0.950 . S
C248 C247 1.372 . S
C248 C249 1.379 . S
C249 H227 0.948 . S
C249 C244 1.364 . S
C249 C248 1.379 . S
C250 C219 1.383 . S
C250 C237 1.479 . S
C250 C251 1.398 . S
C251 C216 1.382 . S
C251 H228 0.951 . S
C251 C250 1.398 . S
C252 C253 1.384 . S
C252 H265 0.947 . S
C252 C287 1.382 . S
C253 C252 1.384 . S
C253 C254 1.378 . S
C254 C253 1.378 . S
C254 C255 1.378 . S
C254 H266 0.952 . S
C255 C254 1.378 . S
C255 H267 0.950 . S
C255 C286 1.383 . S
H256 C275 0.947 . S
H257 C276 0.946 . S
H258 C278 0.953 . S
H259 C279 0.945 . S
H260 C281 0.952 . S
H261 C282 0.949 . S
H262 C284 0.950 . S
H263 C285 0.948 . S
H264 C287 0.951 . S
H265 C252 0.947 . S
H266 C254 0.952 . S
H267 C255 0.950 . S
N268 C271 1.382 . S
N268 C273 1.363 . S
N269 C271 1.371 . S
N269 C272 1.372 . S
N270 C272 1.361 . S
N270 C273 1.377 . S
C271 N268 1.382 . S
C271 N269 1.371 . S
C271 C274 1.480 . S
C272 N269 1.372 . S
C272 N270 1.361 . S
C272 C280 1.457 . S
C273 N268 1.363 . S
C273 N270 1.377 . S
C273 C286 1.479 . S
C274 C271 1.480 . S
C274 C275 1.383 . S
C274 C279 1.385 . S
C275 H256 0.947 . S
C275 C274 1.383 . S
C275 C276 1.388 . S
C276 H257 0.946 . S
C276 C275 1.388 . S
C276 C277 1.384 . S
C277 C276 1.384 . S
C277 C278 1.377 . S
C278 H258 0.953 . S
C278 C277 1.377 . S
C278 C279 1.369 . S
C279 H259 0.945 . S
C279 C274 1.385 . S
C279 C278 1.369 . S
C280 C272 1.457 . S
C280 C281 1.372 . S
C280 C285 1.364 . S
C281 H260 0.952 . S
C281 C280 1.372 . S
C281 C282 1.389 . S
C282 H261 0.949 . S
C282 C281 1.389 . S
C282 C283 1.387 . S
C283 C282 1.387 . S
C283 C284 1.372 . S
C284 H262 0.950 . S
C284 C283 1.372 . S
C284 C285 1.379 . S
C285 H263 0.948 . S
C285 C280 1.364 . S
C285 C284 1.379 . S
C286 C255 1.383 . S
C286 C273 1.479 . S
C286 C287 1.398 . S
C287 C252 1.382 . S
C287 H264 0.951 . S
C287 C286 1.398 . S
Tb288 O291 2.453 1_665 S
Tb288 O292 2.596 1_665 S
Tb288 O293 2.374 1_655 S
Tb288 O301 2.343 . S
Tb288 O303 2.353 1_565 S
Tb288 O305 2.427 . S
Tb288 O306 2.513 . S
C289 O293 1.251 . S
C289 O295 1.263 . S
Tb290 O292 2.343 . S
Tb290 O295 2.353 1_545 S
Tb290 O298 2.427 . S
Tb290 O299 2.513 . S
Tb290 O300 2.453 1_545 S
Tb290 O301 2.596 1_445 S
Tb290 O302 2.374 1_455 S
O291 Tb288 2.453 1_445 S
O291 C307 1.245 . S
O292 Tb288 2.596 1_445 S
O292 Tb290 2.343 . S
O292 C307 1.259 . S
O293 Tb288 2.374 1_455 S
O293 C289 1.251 . S
C294 O298 1.275 . S
C294 O299 1.246 . S
O295 C289 1.263 . S
O295 Tb290 2.353 1_565 S
C296 O300 1.245 1_655 S
C296 O301 1.259 . S
C297 O302 1.250 . S
C297 O303 1.263 . S
O298 Tb290 2.427 . S
O298 C294 1.275 . S
O299 Tb290 2.513 . S
O299 C294 1.246 . S
O300 Tb290 2.453 1_565 S
O300 C296 1.245 1_455 S
O301 Tb288 2.343 . S
O301 Tb290 2.596 1_665 S
O301 C296 1.259 . S
O302 Tb290 2.374 1_655 S
O302 C297 1.250 . S
O303 Tb288 2.353 1_545 S
O303 C297 1.263 . S
C304 O305 1.275 . S
C304 O306 1.246 . S
O305 Tb288 2.427 . S
O305 C304 1.275 . S
O306 Tb288 2.513 . S
O306 C304 1.246 . S
C307 O291 1.245 . S
C307 O292 1.259 . S
Tb308 O311 2.453 . S
Tb308 O312 2.596 1_545 S
Tb308 O313 2.374 . S
Tb308 O321 2.343 . S
Tb308 O323 2.353 . S
Tb308 O325 2.427 . S
Tb308 O326 2.513 . S
C309 O313 1.251 . S
C309 O315 1.263 1_545 S
Tb310 O312 2.343 . S
Tb310 O315 2.353 . S
Tb310 O318 2.427 . S
Tb310 O319 2.513 . S
Tb310 O320 2.453 . S
Tb310 O321 2.596 1_565 S
Tb310 O322 2.374 . S
O311 Tb308 2.453 . S
O311 C327 1.245 . S
O312 Tb308 2.596 1_565 S
O312 Tb310 2.343 . S
O312 C327 1.259 1_565 S
O313 Tb308 2.374 . S
O313 C309 1.251 . S
C314 O318 1.275 . S
C314 O319 1.246 . S
O315 C309 1.263 1_565 S
O315 Tb310 2.353 . S
C316 O320 1.245 . S
C316 O321 1.259 1_565 S
C317 O322 1.250 1_545 S
C317 O323 1.263 . S
O318 Tb310 2.427 . S
O318 C314 1.275 . S
O319 Tb310 2.513 . S
O319 C314 1.246 . S
O320 Tb310 2.453 . S
O320 C316 1.245 . S
O321 Tb308 2.343 . S
O321 Tb310 2.596 1_545 S
O321 C316 1.259 1_545 S
O322 Tb310 2.374 . S
O322 C317 1.250 1_565 S
O323 Tb308 2.353 . S
O323 C317 1.263 . S
C324 O325 1.275 . S
C324 O326 1.246 . S
O325 Tb308 2.427 . S
O325 C324 1.275 . S
O326 Tb308 2.513 . S
O326 C324 1.246 . S
C327 O311 1.245 . S
C327 O312 1.259 1_545 S
Tb328 O331 2.453 . S
Tb328 O332 2.596 . S
Tb328 O333 2.374 . S
Tb328 O341 2.343 . S
Tb328 O343 2.353 . S
Tb328 O345 2.427 . S
Tb328 O346 2.513 . S
C329 O333 1.251 . S
C329 O335 1.263 . S
Tb330 O332 2.343 . S
Tb330 O335 2.353 . S
Tb330 O338 2.427 . S
Tb330 O339 2.513 . S
Tb330 O340 2.453 . S
Tb330 O341 2.596 . S
Tb330 O342 2.374 . S
O331 Tb328 2.453 . S
O331 C347 1.245 . S
O332 Tb328 2.596 . S
O332 Tb330 2.343 . S
O332 C347 1.259 . S
O333 Tb328 2.374 . S
O333 C329 1.251 . S
C334 O338 1.275 . S
C334 O339 1.246 . S
O335 C329 1.263 . S
O335 Tb330 2.353 . S
C336 O340 1.245 . S
C336 O341 1.259 . S
C337 O342 1.250 . S
C337 O343 1.263 . S
O338 Tb330 2.427 . S
O338 C334 1.275 . S
O339 Tb330 2.513 . S
O339 C334 1.246 . S
O340 Tb330 2.453 . S
O340 C336 1.245 . S
O341 Tb328 2.343 . S
O341 Tb330 2.596 . S
O341 C336 1.259 . S
O342 Tb330 2.374 . S
O342 C337 1.250 . S
O343 Tb328 2.353 . S
O343 C337 1.263 . S
C344 O345 1.275 . S
C344 O346 1.246 . S
O345 Tb328 2.427 . S
O345 C344 1.275 . S
O346 Tb328 2.513 . S
O346 C344 1.246 . S
C347 O331 1.245 . S
C347 O332 1.259 . S
Tb348 O351 2.453 1_655 S
Tb348 O352 2.596 1_655 S
Tb348 O353 2.374 1_655 S
Tb348 O361 2.343 . S
Tb348 O363 2.353 . S
Tb348 O365 2.427 . S
Tb348 O366 2.513 . S
C349 O353 1.251 . S
C349 O355 1.263 . S
Tb350 O352 2.343 . S
Tb350 O355 2.353 . S
Tb350 O358 2.427 . S
Tb350 O359 2.513 . S
Tb350 O360 2.453 1_455 S
Tb350 O361 2.596 1_455 S
Tb350 O362 2.374 . S
O351 Tb348 2.453 1_455 S
O351 C367 1.245 . S
O352 Tb348 2.596 1_455 S
O352 Tb350 2.343 . S
O352 C367 1.259 . S
O353 Tb348 2.374 1_455 S
O353 C349 1.251 . S
C354 O358 1.275 . S
C354 O359 1.246 . S
O355 C349 1.263 . S
O355 Tb350 2.353 . S
C356 O360 1.245 . S
C356 O361 1.259 . S
C357 O362 1.250 1_655 S
C357 O363 1.263 . S
O358 Tb350 2.427 . S
O358 C354 1.275 . S
O359 Tb350 2.513 . S
O359 C354 1.246 . S
O360 Tb350 2.453 1_655 S
O360 C356 1.245 . S
O361 Tb348 2.343 . S
O361 Tb350 2.596 1_655 S
O361 C356 1.259 . S
O362 Tb350 2.374 . S
O362 C357 1.250 1_455 S
O363 Tb348 2.353 . S
O363 C357 1.263 . S
C364 O365 1.275 . S
C364 O366 1.246 . S
O365 Tb348 2.427 . S
O365 C364 1.275 . S
O366 Tb348 2.513 . S
O366 C364 1.246 . S
C367 O351 1.245 . S
C367 O352 1.259 . S
C368 C369 1.391 . S
C368 C370 1.394 . S
C368 H384 0.931 . S
C369 C368 1.391 . S
C369 C373 1.376 1_545 S
C370 C368 1.394 . S
C370 C371 1.367 1_545 S
C370 C374 1.532 . S
C371 C370 1.367 1_565 S
C371 C372 1.410 . S
C371 C379 1.503 . S
C372 C371 1.410 . S
C372 C373 1.392 . S
C372 C375 1.511 . S
C373 C369 1.376 1_565 S
C373 C372 1.392 . S
C373 H385 0.929 . S
C374 C370 1.532 . S
C374 H386 0.960 1_545 S
C374 H387 0.962 . S
C374 H388 0.960 1_545 S
C375 C372 1.511 . S
C375 H389 0.961 . S
C375 H390 0.961 . S
C375 H391 0.961 . S
C376 C377 1.370 1_545 S
C376 C378 1.363 . S
C376 H392 0.931 . S
C377 C376 1.370 1_565 S
C377 C381 1.408 . S
C378 C376 1.363 . S
C378 C379 1.370 1_545 S
C378 C382 1.524 . S
C379 C371 1.503 . S
C379 C378 1.370 1_565 S
C379 C380 1.403 . S
C380 C379 1.403 . S
C380 C381 1.404 . S
C380 C383 1.539 . S
C381 C377 1.408 . S
C381 C380 1.404 . S
C381 H393 0.930 . S
C382 C378 1.524 . S
C382 H394 0.956 . S
C382 H395 0.961 . S
C382 H396 0.961 . S
C383 C380 1.539 . S
C383 H397 0.958 . S
C383 H398 0.961 . S
C383 H399 0.960 . S
H384 C368 0.931 . S
H385 C373 0.929 . S
H386 C374 0.960 1_565 S
H387 C374 0.962 . S
H388 C374 0.960 1_565 S
H389 C375 0.961 . S
H390 C375 0.961 . S
H391 C375 0.961 . S
H392 C376 0.931 . S
H393 C381 0.930 . S
H394 C382 0.956 . S
H395 C382 0.961 . S
H396 C382 0.961 . S
H397 C383 0.958 . S
H398 C383 0.961 . S
H399 C383 0.960 . S
C400 C401 1.391 . S
C400 C402 1.394 . S
C400 H416 0.931 . S
C401 C400 1.391 . S
C401 C405 1.376 . S
C402 C400 1.394 . S
C402 C403 1.369 . S
C402 C406 1.531 . S
C403 C402 1.369 . S
C403 C404 1.410 . S
C403 C411 1.503 . S
C404 C403 1.410 . S
C404 C405 1.392 . S
C404 C407 1.511 . S
C405 C401 1.376 . S
C405 C404 1.392 . S
C405 H417 0.929 . S
C406 C402 1.531 . S
C406 H418 0.960 . S
C406 H419 0.962 . S
C406 H420 0.960 . S
C407 C404 1.511 . S
C407 H421 0.961 . S
C407 H422 0.961 . S
C407 H423 0.961 . S
C408 C409 1.370 . S
C408 C410 1.363 . S
C408 H424 0.931 . S
C409 C408 1.370 . S
C409 C413 1.408 . S
C410 C408 1.363 . S
C410 C411 1.370 . S
C410 C414 1.524 . S
C411 C403 1.503 . S
C411 C410 1.370 . S
C411 C412 1.403 . S
C412 C411 1.403 . S
C412 C413 1.404 . S
C412 C415 1.539 . S
C413 C409 1.408 . S
C413 C412 1.404 . S
C413 H425 0.930 . S
C414 C410 1.524 . S
C414 H426 0.956 . S
C414 H427 0.961 . S
C414 H428 0.961 . S
C415 C412 1.539 . S
C415 H429 0.958 . S
C415 H430 0.961 . S
C415 H431 0.960 . S
H416 C400 0.931 . S
H417 C405 0.929 . S
H418 C406 0.960 . S
H419 C406 0.962 . S
H420 C406 0.960 . S
H421 C407 0.961 . S
H422 C407 0.961 . S
H423 C407 0.961 . S
H424 C408 0.931 . S
H425 C413 0.930 . S
H426 C414 0.956 . S
H427 C414 0.961 . S
H428 C414 0.961 . S
H429 C415 0.958 . S
H430 C415 0.961 . S
H431 C415 0.960 . S
C432 C433 1.391 . S
C432 C434 1.394 . S
C432 H448 0.931 . S
C433 C432 1.391 . S
C433 C437 1.376 . S
C434 C432 1.394 . S
C434 C435 1.369 . S
C434 C438 1.531 . S
C435 C434 1.369 . S
C435 C436 1.410 . S
C435 C443 1.503 . S
C436 C435 1.410 . S
C436 C437 1.392 . S
C436 C439 1.511 . S
C437 C433 1.376 . S
C437 C436 1.392 . S
C437 H449 0.929 . S
C438 C434 1.531 . S
C438 H450 0.960 . S
C438 H451 0.962 . S
C438 H452 0.960 . S
C439 C436 1.511 . S
C439 H453 0.961 . S
C439 H454 0.961 . S
C439 H455 0.961 . S
C440 C441 1.370 . S
C440 C442 1.363 . S
C440 H456 0.931 . S
C441 C440 1.370 . S
C441 C445 1.408 . S
C442 C440 1.363 . S
C442 C443 1.370 . S
C442 C446 1.524 . S
C443 C435 1.503 . S
C443 C442 1.370 . S
C443 C444 1.403 . S
C444 C443 1.403 . S
C444 C445 1.404 . S
C444 C447 1.539 . S
C445 C441 1.408 . S
C445 C444 1.404 . S
C445 H457 0.930 . S
C446 C442 1.524 . S
C446 H458 0.956 . S
C446 H459 0.961 . S
C446 H460 0.961 . S
C447 C444 1.539 . S
C447 H461 0.958 . S
C447 H462 0.961 . S
C447 H463 0.960 . S
H448 C432 0.931 . S
H449 C437 0.929 . S
H450 C438 0.960 . S
H451 C438 0.962 . S
H452 C438 0.960 . S
H453 C439 0.961 . S
H454 C439 0.961 . S
H455 C439 0.961 . S
H456 C440 0.931 . S
H457 C445 0.930 . S
H458 C446 0.956 . S
H459 C446 0.961 . S
H460 C446 0.961 . S
H461 C447 0.958 . S
H462 C447 0.961 . S
H463 C447 0.960 . S
C464 C465 1.391 . S
C464 C466 1.394 . S
C464 H480 0.931 . S
C465 C464 1.391 . S
C465 C469 1.376 . S
C466 C464 1.394 . S
C466 C467 1.369 . S
C466 C470 1.531 . S
C467 C466 1.369 . S
C467 C468 1.410 . S
C467 C475 1.503 . S
C468 C467 1.410 . S
C468 C469 1.392 . S
C468 C471 1.511 . S
C469 C465 1.376 . S
C469 C468 1.392 . S
C469 H481 0.929 . S
C470 C466 1.531 . S
C470 H482 0.960 . S
C470 H483 0.962 . S
C470 H484 0.960 . S
C471 C468 1.511 . S
C471 H485 0.961 . S
C471 H486 0.961 . S
C471 H487 0.961 . S
C472 C473 1.370 . S
C472 C474 1.363 . S
C472 H488 0.931 . S
C473 C472 1.370 . S
C473 C477 1.408 . S
C474 C472 1.363 . S
C474 C475 1.370 . S
C474 C478 1.524 . S
C475 C467 1.503 . S
C475 C474 1.370 . S
C475 C476 1.403 . S
C476 C475 1.403 . S
C476 C477 1.404 . S
C476 C479 1.539 . S
C477 C473 1.408 . S
C477 C476 1.404 . S
C477 H489 0.930 . S
C478 C474 1.524 . S
C478 H490 0.956 . S
C478 H491 0.961 . S
C478 H492 0.961 . S
C479 C476 1.539 . S
C479 H493 0.958 . S
C479 H494 0.961 . S
C479 H495 0.960 . S
H480 C464 0.931 . S
H481 C469 0.929 . S
H482 C470 0.960 . S
H483 C470 0.962 . S
H484 C470 0.960 . S
H485 C471 0.961 . S
H486 C471 0.961 . S
H487 C471 0.961 . S
H488 C472 0.931 . S
H489 C477 0.930 . S
H490 C478 0.956 . S
H491 C478 0.961 . S
H492 C478 0.961 . S
H493 C479 0.958 . S
H494 C479 0.961 . S
H495 C479 0.960 . S
C496 C497 1.391 1_545 S
C496 C498 1.398 1_554 S
C496 H512 0.931 . S
C497 C496 1.391 1_565 S
C497 C501 1.376 1_554 S
C498 C496 1.398 1_556 S
C498 C499 1.365 1_545 S
C498 C502 1.532 1_556 S
C499 C498 1.365 1_565 S
C499 C500 1.410 . S
C499 C507 1.503 1_565 S
C500 C499 1.410 . S
C500 C501 1.392 . S
C500 C503 1.511 . S
C501 C497 1.376 1_556 S
C501 C500 1.392 . S
C501 H513 0.929 . S
C502 C498 1.532 1_554 S
C502 H514 0.960 1_544 S
C502 H515 0.962 . S
C502 H516 0.960 1_545 S
C503 C500 1.511 . S
C503 H517 0.961 . S
C503 H518 0.961 . S
C503 H519 0.961 . S
C504 C505 1.370 . S
C504 C506 1.363 . S
C504 H520 0.931 . S
C505 C504 1.370 . S
C505 C509 1.408 1_545 S
C506 C504 1.363 . S
C506 C507 1.378 . S
C506 C510 1.524 . S
C507 C499 1.503 1_545 S
C507 C506 1.378 . S
C507 C508 1.396 1_545 S
C508 C507 1.396 1_565 S
C508 C509 1.404 . S
C508 C511 1.539 . S
C509 C505 1.408 1_565 S
C509 C508 1.404 . S
C509 H521 0.930 . S
C510 C506 1.524 . S
C510 H522 0.956 . S
C510 H523 0.961 . S
C510 H524 0.961 . S
C511 C508 1.539 . S
C511 H525 0.958 . S
C511 H526 0.961 . S
C511 H527 0.960 . S
H512 C496 0.931 . S
H513 C501 0.929 . S
H514 C502 0.960 1_566 S
H515 C502 0.962 . S
H516 C502 0.960 1_565 S
H517 C503 0.961 . S
H518 C503 0.961 . S
H519 C503 0.961 . S
H520 C504 0.931 . S
H521 C509 0.930 . S
H522 C510 0.956 . S
H523 C510 0.961 . S
H524 C510 0.961 . S
H525 C511 0.958 . S
H526 C511 0.961 . S
H527 C511 0.960 . S
C528 C529 1.391 . S
C528 C530 1.394 . S
C528 H544 0.931 . S
C529 C528 1.391 . S
C529 C533 1.376 . S
C530 C528 1.394 . S
C530 C531 1.369 . S
C530 C534 1.531 . S
C531 C530 1.369 . S
C531 C532 1.410 . S
C531 C539 1.503 . S
C532 C531 1.410 . S
C532 C533 1.392 . S
C532 C535 1.511 . S
C533 C529 1.376 . S
C533 C532 1.392 . S
C533 H545 0.929 1_556 S
C534 C530 1.531 . S
C534 H546 0.960 . S
C534 H547 0.962 . S
C534 H548 0.960 . S
C535 C532 1.511 . S
C535 H549 0.961 1_556 S
C535 H550 0.961 . S
C535 H551 0.961 . S
C536 C537 1.370 . S
C536 C538 1.363 . S
C536 H552 0.931 . S
C537 C536 1.370 . S
C537 C541 1.408 . S
C538 C536 1.363 . S
C538 C539 1.370 . S
C538 C542 1.524 . S
C539 C531 1.503 . S
C539 C538 1.370 . S
C539 C540 1.403 . S
C540 C539 1.403 . S
C540 C541 1.404 . S
C540 C543 1.539 . S
C541 C537 1.408 . S
C541 C540 1.404 . S
C541 H553 0.930 . S
C542 C538 1.524 . S
C542 H554 0.956 . S
C542 H555 0.961 . S
C542 H556 0.961 . S
C543 C540 1.539 . S
C543 H557 0.958 . S
C543 H558 0.961 . S
C543 H559 0.960 . S
H544 C528 0.931 . S
H545 C533 0.929 1_554 S
H546 C534 0.960 . S
H547 C534 0.962 . S
H548 C534 0.960 . S
H549 C535 0.961 1_554 S
H550 C535 0.961 . S
H551 C535 0.961 . S
H552 C536 0.931 . S
H553 C541 0.930 . S
H554 C542 0.956 . S
H555 C542 0.961 . S
H556 C542 0.961 . S
H557 C543 0.958 . S
H558 C543 0.961 . S
H559 C543 0.960 . S
C560 C561 1.387 1_554 S
C560 C562 1.386 1_554 S
C560 H576 0.942 . S
C561 C560 1.387 1_556 S
C561 C565 1.376 . S
C562 C560 1.386 1_556 S
C562 C563 1.369 . S
C562 C566 1.531 . S
C563 C562 1.369 . S
C563 C564 1.410 . S
C563 C571 1.503 . S
C564 C563 1.410 . S
C564 C565 1.392 . S
C564 C567 1.511 . S
C565 C561 1.376 . S
C565 C564 1.392 . S
C565 H577 0.929 . S
C566 C562 1.531 . S
C566 H578 0.960 . S
C566 H579 0.962 . S
C566 H580 0.960 1_556 S
C567 C564 1.511 . S
C567 H581 0.961 . S
C567 H582 0.961 . S
C567 H583 0.961 . S
C568 C569 1.370 . S
C568 C570 1.363 . S
C568 H584 0.931 . S
C569 C568 1.370 . S
C569 C573 1.408 . S
C570 C568 1.363 . S
C570 C571 1.370 . S
C570 C574 1.524 . S
C571 C563 1.503 . S
C571 C570 1.370 . S
C571 C572 1.403 . S
C572 C571 1.403 . S
C572 C573 1.404 . S
C572 C575 1.539 . S
C573 C569 1.408 . S
C573 C572 1.404 . S
C573 H585 0.930 . S
C574 C570 1.524 . S
C574 H586 0.956 . S
C574 H587 0.961 . S
C574 H588 0.961 . S
C575 C572 1.539 . S
C575 H589 0.958 . S
C575 H590 0.961 . S
C575 H591 0.960 . S
H576 C560 0.942 . S
H577 C565 0.929 . S
H578 C566 0.960 . S
H579 C566 0.962 . S
H580 C566 0.960 1_554 S
H581 C567 0.961 . S
H582 C567 0.961 . S
H583 C567 0.961 . S
H584 C568 0.931 . S
H585 C573 0.930 . S
H586 C574 0.956 . S
H587 C574 0.961 . S
H588 C574 0.961 . S
H589 C575 0.958 . S
H590 C575 0.961 . S
H591 C575 0.960 . S
C592 C593 1.391 . S
C592 C594 1.394 . S
C592 H608 0.931 . S
C593 C592 1.391 . S
C593 C597 1.376 . S
C594 C592 1.394 . S
C594 C595 1.369 . S
C594 C598 1.531 . S
C595 C594 1.369 . S
C595 C596 1.410 . S
C595 C603 1.503 . S
C596 C595 1.410 . S
C596 C597 1.392 . S
C596 C599 1.511 . S
C597 C593 1.376 . S
C597 C596 1.392 . S
C597 H609 0.929 . S
C598 C594 1.531 . S
C598 H610 0.960 . S
C598 H611 0.962 . S
C598 H612 0.960 . S
C599 C596 1.511 . S
C599 H613 0.961 . S
C599 H614 0.961 . S
C599 H615 0.961 . S
C600 C601 1.370 . S
C600 C602 1.363 . S
C600 H616 0.931 . S
C601 C600 1.370 . S
C601 C605 1.408 . S
C602 C600 1.363 . S
C602 C603 1.370 . S
C602 C606 1.524 . S
C603 C595 1.503 . S
C603 C602 1.370 . S
C603 C604 1.403 . S
C604 C603 1.403 . S
C604 C605 1.404 . S
C604 C607 1.539 . S
C605 C601 1.408 . S
C605 C604 1.404 . S
C605 H617 0.930 . S
C606 C602 1.524 . S
C606 H618 0.956 . S
C606 H619 0.961 . S
C606 H620 0.961 . S
C607 C604 1.539 . S
C607 H621 0.958 . S
C607 H622 0.961 . S
C607 H623 0.960 . S
H608 C592 0.931 . S
H609 C597 0.929 . S
H610 C598 0.960 . S
H611 C598 0.962 . S
H612 C598 0.960 . S
H613 C599 0.961 . S
H614 C599 0.961 . S
H615 C599 0.961 . S
H616 C600 0.931 . S
H617 C605 0.930 . S
H618 C606 0.956 . S
H619 C606 0.961 . S
H620 C606 0.961 . S
H621 C607 0.958 . S
H622 C607 0.961 . S
H623 C607 0.960 . S
C624 C625 1.391 . S
C624 C626 1.394 . S
C624 H640 0.931 . S
C625 C624 1.391 . S
C625 C629 1.376 . S
C626 C624 1.394 . S
C626 C627 1.369 . S
C626 C630 1.531 . S
C627 C626 1.369 . S
C627 C628 1.410 . S
C627 C635 1.503 . S
C628 C627 1.410 . S
C628 C629 1.392 . S
C628 C631 1.511 . S
C629 C625 1.376 . S
C629 C628 1.392 . S
C629 H641 0.929 . S
C630 C626 1.531 . S
C630 H642 0.960 . S
C630 H643 0.962 . S
C630 H644 0.960 . S
C631 C628 1.511 . S
C631 H645 0.961 . S
C631 H646 0.961 . S
C631 H647 0.961 . S
C632 C633 1.370 . S
C632 C634 1.363 . S
C632 H648 0.931 . S
C633 C632 1.370 . S
C633 C637 1.408 . S
C634 C632 1.363 . S
C634 C635 1.370 . S
C634 C638 1.524 . S
C635 C627 1.503 . S
C635 C634 1.370 . S
C635 C636 1.403 . S
C636 C635 1.403 . S
C636 C637 1.404 . S
C636 C639 1.539 . S
C637 C633 1.408 . S
C637 C636 1.404 . S
C637 H649 0.930 . S
C638 C634 1.524 . S
C638 H650 0.956 . S
C638 H651 0.961 . S
C638 H652 0.961 . S
C639 C636 1.539 . S
C639 H653 0.958 . S
C639 H654 0.961 . S
C639 H655 0.960 . S
H640 C624 0.931 . S
H641 C629 0.929 . S
H642 C630 0.960 . S
H643 C630 0.962 . S
H644 C630 0.960 . S
H645 C631 0.961 . S
H646 C631 0.961 . S
H647 C631 0.961 . S
H648 C632 0.931 . S
H649 C637 0.930 . S
H650 C638 0.956 . S
H651 C638 0.961 . S
H652 C638 0.961 . S
H653 C639 0.958 . S
H654 C639 0.961 . S
H655 C639 0.960 . S
C656 C657 1.391 . S
C656 C658 1.394 . S
C656 H672 0.931 . S
C657 C656 1.391 . S
C657 C661 1.376 1_545 S
C658 C656 1.394 . S
C658 C659 1.373 . S
C658 C662 1.531 . S
C659 C658 1.373 . S
C659 C660 1.406 1_545 S
C659 C667 1.503 1_545 S
C660 C659 1.406 1_565 S
C660 C661 1.392 . S
C660 C663 1.511 . S
C661 C657 1.376 1_565 S
C661 C660 1.392 . S
C661 H673 0.929 . S
C662 C658 1.531 . S
C662 H674 0.960 . S
C662 H675 0.962 . S
C662 H676 0.960 . S
C663 C660 1.511 . S
C663 H677 0.961 . S
C663 H678 0.961 . S
C663 H679 0.961 . S
C664 C665 1.360 1_545 S
C664 C666 1.363 . S
C664 H680 0.931 . S
C665 C664 1.360 1_565 S
C665 C669 1.417 . S
C666 C664 1.363 . S
C666 C667 1.371 1_545 S
C666 C670 1.524 . S
C667 C659 1.503 1_565 S
C667 C666 1.371 1_565 S
C667 C668 1.402 . S
C668 C667 1.402 . S
C668 C669 1.404 . S
C668 C671 1.539 . S
C669 C665 1.417 . S
C669 C668 1.404 . S
C669 H681 0.930 . S
C670 C666 1.524 . S
C670 H682 0.956 . S
C670 H683 0.961 . S
C670 H684 0.961 . S
C671 C668 1.539 . S
C671 H685 0.958 . S
C671 H686 0.961 . S
C671 H687 0.960 . S
H672 C656 0.931 . S
H673 C661 0.929 . S
H674 C662 0.960 . S
H675 C662 0.962 . S
H676 C662 0.960 . S
H677 C663 0.961 . S
H678 C663 0.961 . S
H679 C663 0.961 . S
H680 C664 0.931 . S
H681 C669 0.930 . S
H682 C670 0.956 . S
H683 C670 0.961 . S
H684 C670 0.961 . S
H685 C671 0.958 . S
H686 C671 0.961 . S
H687 C671 0.960 . S
C688 C689 1.391 . S
C688 C690 1.394 . S
C688 H704 0.931 . S
C689 C688 1.391 . S
C689 C693 1.376 . S
C690 C688 1.394 . S
C690 C691 1.369 . S
C690 C694 1.531 . S
C691 C690 1.369 . S
C691 C692 1.410 . S
C691 C699 1.503 . S
C692 C691 1.410 . S
C692 C693 1.392 . S
C692 C695 1.511 . S
C693 C689 1.376 . S
C693 C692 1.392 . S
C693 H705 0.929 . S
C694 C690 1.531 . S
C694 H706 0.960 . S
C694 H707 0.962 . S
C694 H708 0.960 . S
C695 C692 1.511 . S
C695 H709 0.961 . S
C695 H710 0.961 . S
C695 H711 0.961 . S
C696 C697 1.370 . S
C696 C698 1.363 . S
C696 H712 0.931 . S
C697 C696 1.370 . S
C697 C701 1.408 . S
C698 C696 1.363 . S
C698 C699 1.370 . S
C698 C702 1.524 . S
C699 C691 1.503 . S
C699 C698 1.370 . S
C699 C700 1.403 . S
C700 C699 1.403 . S
C700 C701 1.404 . S
C700 C703 1.539 . S
C701 C697 1.408 . S
C701 C700 1.404 . S
C701 H713 0.930 . S
C702 C698 1.524 . S
C702 H714 0.956 . S
C702 H715 0.961 . S
C702 H716 0.961 . S
C703 C700 1.539 . S
C703 H717 0.958 . S
C703 H718 0.961 . S
C703 H719 0.960 . S
H704 C688 0.931 . S
H705 C693 0.929 . S
H706 C694 0.960 . S
H707 C694 0.962 . S
H708 C694 0.960 . S
H709 C695 0.961 . S
H710 C695 0.961 . S
H711 C695 0.961 . S
H712 C696 0.931 . S
H713 C701 0.930 . S
H714 C702 0.956 . S
H715 C702 0.961 . S
H716 C702 0.961 . S
H717 C703 0.958 . S
H718 C703 0.961 . S
H719 C703 0.960 . S
C720 C721 1.391 . S
C720 C722 1.394 . S
C720 H736 0.931 . S
C721 C720 1.391 . S
C721 C725 1.376 . S
C722 C720 1.394 . S
C722 C723 1.369 . S
C722 C726 1.531 . S
C723 C722 1.369 . S
C723 C724 1.410 . S
C723 C731 1.503 . S
C724 C723 1.410 . S
C724 C725 1.392 . S
C724 C727 1.511 . S
C725 C721 1.376 . S
C725 C724 1.392 . S
C725 H737 0.929 . S
C726 C722 1.531 . S
C726 H738 0.960 . S
C726 H739 0.962 . S
C726 H740 0.960 . S
C727 C724 1.511 . S
C727 H741 0.961 . S
C727 H742 0.961 . S
C727 H743 0.961 . S
C728 C729 1.370 . S
C728 C730 1.363 . S
C728 H744 0.931 . S
C729 C728 1.370 . S
C729 C733 1.408 . S
C730 C728 1.363 . S
C730 C731 1.370 . S
C730 C734 1.524 . S
C731 C723 1.503 . S
C731 C730 1.370 . S
C731 C732 1.403 . S
C732 C731 1.403 . S
C732 C733 1.404 . S
C732 C735 1.539 . S
C733 C729 1.408 . S
C733 C732 1.404 . S
C733 H745 0.930 . S
C734 C730 1.524 . S
C734 H746 0.956 . S
C734 H747 0.961 . S
C734 H748 0.961 . S
C735 C732 1.539 . S
C735 H749 0.958 . S
C735 H750 0.961 . S
C735 H751 0.960 . S
H736 C720 0.931 . S
H737 C725 0.929 . S
H738 C726 0.960 . S
H739 C726 0.962 . S
H740 C726 0.960 . S
H741 C727 0.961 . S
H742 C727 0.961 . S
H743 C727 0.961 . S
H744 C728 0.931 . S
H745 C733 0.930 . S
H746 C734 0.956 . S
H747 C734 0.961 . S
H748 C734 0.961 . S
H749 C735 0.958 . S
H750 C735 0.961 . S
H751 C735 0.960 . S
C752 C753 1.391 . S
C752 C754 1.394 . S
C752 H768 0.931 . S
C753 C752 1.391 . S
C753 C757 1.376 . S
C754 C752 1.394 . S
C754 C755 1.369 . S
C754 C758 1.531 . S
C755 C754 1.369 . S
C755 C756 1.410 . S
C755 C763 1.503 . S
C756 C755 1.410 . S
C756 C757 1.392 . S
C756 C759 1.511 . S
C757 C753 1.376 . S
C757 C756 1.392 . S
C757 H769 0.929 . S
C758 C754 1.531 . S
C758 H770 0.960 . S
C758 H771 0.962 . S
C758 H772 0.960 . S
C759 C756 1.511 . S
C759 H773 0.961 . S
C759 H774 0.961 . S
C759 H775 0.961 . S
C760 C761 1.370 . S
C760 C762 1.363 . S
C760 H776 0.931 . S
C761 C760 1.370 . S
C761 C765 1.408 . S
C762 C760 1.363 . S
C762 C763 1.370 . S
C762 C766 1.524 . S
C763 C755 1.503 . S
C763 C762 1.370 . S
C763 C764 1.403 . S
C764 C763 1.403 . S
C764 C765 1.404 . S
C764 C767 1.539 . S
C765 C761 1.408 . S
C765 C764 1.404 . S
C765 H777 0.930 1_655 S
C766 C762 1.524 . S
C766 H778 0.956 . S
C766 H779 0.961 . S
C766 H780 0.961 . S
C767 C764 1.539 . S
C767 H781 0.958 . S
C767 H782 0.961 . S
C767 H783 0.960 . S
H768 C752 0.931 . S
H769 C757 0.929 . S
H770 C758 0.960 . S
H771 C758 0.962 . S
H772 C758 0.960 . S
H773 C759 0.961 . S
H774 C759 0.961 . S
H775 C759 0.961 . S
H776 C760 0.931 . S
H777 C765 0.930 1_455 S
H778 C766 0.956 . S
H779 C766 0.961 . S
H780 C766 0.961 . S
H781 C767 0.958 . S
H782 C767 0.961 . S
H783 C767 0.960 . S
C784 C785 1.391 . S
C784 C786 1.394 . S
C784 H800 0.931 . S
C785 C784 1.391 . S
C785 C789 1.376 1_565 S
C786 C784 1.394 . S
C786 C787 1.369 . S
C786 C790 1.531 . S
C787 C786 1.369 . S
C787 C788 1.410 1_565 S
C787 C795 1.503 . S
C788 C787 1.410 1_545 S
C788 C789 1.392 . S
C788 C791 1.511 . S
C789 C785 1.376 1_545 S
C789 C788 1.392 . S
C789 H801 0.929 . S
C790 C786 1.531 . S
C790 H802 0.960 . S
C790 H803 0.962 . S
C790 H804 0.960 . S
C791 C788 1.511 . S
C791 H805 0.961 . S
C791 H806 0.961 . S
C791 H807 0.961 . S
C792 C793 1.370 . S
C792 C794 1.363 . S
C792 H808 0.931 . S
C793 C792 1.370 . S
C793 C797 1.408 1_545 S
C794 C792 1.363 . S
C794 C795 1.373 1_545 S
C794 C798 1.524 . S
C795 C787 1.503 . S
C795 C794 1.373 1_565 S
C795 C796 1.401 . S
C796 C795 1.401 . S
C796 C797 1.404 . S
C796 C799 1.539 . S
C797 C793 1.408 1_565 S
C797 C796 1.404 . S
C797 H809 0.930 . S
C798 C794 1.524 . S
C798 H810 0.956 . S
C798 H811 0.961 . S
C798 H812 0.961 . S
C799 C796 1.539 . S
C799 H813 0.958 . S
C799 H814 0.961 . S
C799 H815 0.960 . S
H800 C784 0.931 . S
H801 C789 0.929 . S
H802 C790 0.960 . S
H803 C790 0.962 . S
H804 C790 0.960 . S
H805 C791 0.961 . S
H806 C791 0.961 . S
H807 C791 0.961 . S
H808 C792 0.931 . S
H809 C797 0.930 . S
H810 C798 0.956 . S
H811 C798 0.961 . S
H812 C798 0.961 . S
H813 C799 0.958 . S
H814 C799 0.961 . S
H815 C799 0.960 . S
C816 C817 1.391 . S
C816 C818 1.394 . S
C816 H832 0.931 . S
C817 C816 1.391 . S
C817 C821 1.376 . S
C818 C816 1.394 . S
C818 C819 1.369 . S
C818 C822 1.531 . S
C819 C818 1.369 . S
C819 C820 1.410 . S
C819 C827 1.503 . S
C820 C819 1.410 . S
C820 C821 1.392 . S
C820 C823 1.511 . S
C821 C817 1.376 . S
C821 C820 1.392 . S
C821 H833 0.929 . S
C822 C818 1.531 . S
C822 H834 0.960 . S
C822 H835 0.962 . S
C822 H836 0.960 . S
C823 C820 1.511 . S
C823 H837 0.961 . S
C823 H838 0.961 . S
C823 H839 0.961 . S
C824 C825 1.370 . S
C824 C826 1.363 . S
C824 H840 0.931 . S
C825 C824 1.370 . S
C825 C829 1.408 . S
C826 C824 1.363 . S
C826 C827 1.370 . S
C826 C830 1.524 . S
C827 C819 1.503 . S
C827 C826 1.370 . S
C827 C828 1.403 . S
C828 C827 1.403 . S
C828 C829 1.404 . S
C828 C831 1.539 . S
C829 C825 1.408 . S
C829 C828 1.404 . S
C829 H841 0.930 . S
C830 C826 1.524 . S
C830 H842 0.956 . S
C830 H843 0.961 . S
C830 H844 0.961 . S
C831 C828 1.539 . S
C831 H845 0.958 . S
C831 H846 0.961 . S
C831 H847 0.960 . S
H832 C816 0.931 . S
H833 C821 0.929 . S
H834 C822 0.960 . S
H835 C822 0.962 . S
H836 C822 0.960 . S
H837 C823 0.961 . S
H838 C823 0.961 . S
H839 C823 0.961 . S
H840 C824 0.931 . S
H841 C829 0.930 . S
H842 C830 0.956 . S
H843 C830 0.961 . S
H844 C830 0.961 . S
H845 C831 0.958 . S
H846 C831 0.961 . S
H847 C831 0.960 . S
C848 C849 1.391 . S
C848 C850 1.394 . S
C848 H864 0.931 . S
C849 C848 1.391 . S
C849 C853 1.376 . S
C850 C848 1.394 . S
C850 C851 1.369 . S
C850 C854 1.531 . S
C851 C850 1.369 . S
C851 C852 1.410 . S
C851 C859 1.503 . S
C852 C851 1.410 . S
C852 C853 1.392 . S
C852 C855 1.511 . S
C853 C849 1.376 . S
C853 C852 1.392 . S
C853 H865 0.929 . S
C854 C850 1.531 . S
C854 H866 0.960 . S
C854 H867 0.962 . S
C854 H868 0.960 . S
C855 C852 1.511 . S
C855 H869 0.961 . S
C855 H870 0.961 . S
C855 H871 0.961 . S
C856 C857 1.370 . S
C856 C858 1.363 . S
C856 H872 0.931 . S
C857 C856 1.370 . S
C857 C861 1.408 . S
C858 C856 1.363 . S
C858 C859 1.370 . S
C858 C862 1.524 . S
C859 C851 1.503 . S
C859 C858 1.370 . S
C859 C860 1.403 . S
C860 C859 1.403 . S
C860 C861 1.404 . S
C860 C863 1.539 . S
C861 C857 1.408 . S
C861 C860 1.404 . S
C861 H873 0.930 . S
C862 C858 1.524 . S
C862 H874 0.956 . S
C862 H875 0.961 . S
C862 H876 0.961 . S
C863 C860 1.539 . S
C863 H877 0.958 . S
C863 H878 0.961 . S
C863 H879 0.960 . S
H864 C848 0.931 . S
H865 C853 0.929 . S
H866 C854 0.960 . S
H867 C854 0.962 . S
H868 C854 0.960 . S
H869 C855 0.961 . S
H870 C855 0.961 . S
H871 C855 0.961 . S
H872 C856 0.931 . S
H873 C861 0.930 . S
H874 C862 0.956 . S
H875 C862 0.961 . S
H876 C862 0.961 . S
H877 C863 0.958 . S
H878 C863 0.961 . S
H879 C863 0.960 . S
C880 C881 1.391 . S
C880 C882 1.394 1_554 S
C880 H896 0.931 . S
C881 C880 1.391 . S
C881 C885 1.376 . S
C882 C880 1.394 1_556 S
C882 C883 1.369 . S
C882 C886 1.531 . S
C883 C882 1.369 . S
C883 C884 1.409 . S
C883 C891 1.503 . S
C884 C883 1.409 . S
C884 C885 1.393 1_556 S
C884 C887 1.511 1_556 S
C885 C881 1.376 . S
C885 C884 1.393 1_554 S
C885 H897 0.929 . S
C886 C882 1.531 . S
C886 H898 0.960 . S
C886 H899 0.962 . S
C886 H900 0.960 . S
C887 C884 1.511 1_554 S
C887 H901 0.961 . S
C887 H902 0.959 1_554 S
C887 H903 0.963 . S
C888 C889 1.370 . S
C888 C890 1.363 . S
C888 H904 0.931 . S
C889 C888 1.370 . S
C889 C893 1.408 . S
C890 C888 1.363 . S
C890 C891 1.370 . S
C890 C894 1.524 . S
C891 C883 1.503 . S
C891 C890 1.370 . S
C891 C892 1.403 . S
C892 C891 1.403 . S
C892 C893 1.404 . S
C892 C895 1.539 1_556 S
C893 C889 1.408 . S
C893 C892 1.404 . S
C893 H905 0.930 . S
C894 C890 1.524 . S
C894 H906 0.956 . S
C894 H907 0.961 . S
C894 H908 0.961 . S
C895 C892 1.539 1_554 S
C895 H909 0.958 . S
C895 H910 0.961 . S
C895 H911 0.960 . S
H896 C880 0.931 . S
H897 C885 0.929 . S
H898 C886 0.960 . S
H899 C886 0.962 . S
H900 C886 0.960 . S
H901 C887 0.961 . S
H902 C887 0.959 1_556 S
H903 C887 0.963 . S
H904 C888 0.931 . S
H905 C893 0.930 . S
H906 C894 0.956 . S
H907 C894 0.961 . S
H908 C894 0.961 . S
H909 C895 0.958 . S
H910 C895 0.961 . S
H911 C895 0.960 . S
C912 C913 1.391 . S
C912 C914 1.394 . S
C912 H928 0.931 . S
C913 C912 1.391 . S
C913 C917 1.376 1_556 S
C914 C912 1.394 . S
C914 C915 1.369 . S
C914 C918 1.531 . S
C915 C914 1.369 . S
C915 C916 1.410 . S
C915 C923 1.503 . S
C916 C915 1.410 . S
C916 C917 1.392 1_556 S
C916 C919 1.511 1_556 S
C917 C913 1.376 1_554 S
C917 C916 1.392 1_554 S
C917 H929 0.929 . S
C918 C914 1.531 . S
C918 H930 0.960 . S
C918 H931 0.962 . S
C918 H932 0.960 . S
C919 C916 1.511 1_554 S
C919 H933 0.961 1_545 S
C919 H934 0.961 1_544 S
C919 H935 0.961 . S
C920 C921 1.370 1_565 S
C920 C922 1.363 . S
C920 H936 0.931 . S
C921 C920 1.370 1_545 S
C921 C925 1.408 . S
C922 C920 1.363 . S
C922 C923 1.370 1_565 S
C922 C926 1.524 . S
C923 C915 1.503 . S
C923 C922 1.370 1_545 S
C923 C924 1.403 . S
C924 C923 1.403 . S
C924 C925 1.404 . S
C924 C927 1.539 . S
C925 C921 1.408 . S
C925 C924 1.404 . S
C925 H937 0.930 . S
C926 C922 1.524 . S
C926 H938 0.956 . S
C926 H939 0.961 . S
C926 H940 0.961 . S
C927 C924 1.539 . S
C927 H941 0.958 . S
C927 H942 0.961 . S
C927 H943 0.960 . S
H928 C912 0.931 . S
H929 C917 0.929 . S
H930 C918 0.960 . S
H931 C918 0.962 . S
H932 C918 0.960 . S
H933 C919 0.961 1_565 S
H934 C919 0.961 1_566 S
H935 C919 0.961 . S
H936 C920 0.931 . S
H937 C925 0.930 . S
H938 C926 0.956 . S
H939 C926 0.961 . S
H940 C926 0.961 . S
H941 C927 0.958 . S
H942 C927 0.961 . S
H943 C927 0.960 . S
C944 C945 1.391 1_554 S
C944 C946 1.394 1_554 S
C944 H960 0.931 . S
C945 C944 1.391 1_556 S
C945 C949 1.376 . S
C946 C944 1.394 1_556 S
C946 C947 1.369 . S
C946 C950 1.531 1_556 S
C947 C946 1.369 . S
C947 C948 1.410 . S
C947 C955 1.503 . S
C948 C947 1.410 . S
C948 C949 1.392 . S
C948 C951 1.511 . S
C949 C945 1.376 . S
C949 C948 1.392 . S
C949 H961 0.929 . S
C950 C946 1.531 1_554 S
C950 H962 0.960 . S
C950 H963 0.962 1_554 S
C950 H964 0.960 . S
C951 C948 1.511 . S
C951 H965 0.961 . S
C951 H966 0.961 . S
C951 H967 0.961 . S
C952 C953 1.370 . S
C952 C954 1.363 . S
C952 H968 0.931 . S
C953 C952 1.370 . S
C953 C957 1.408 . S
C954 C952 1.363 . S
C954 C955 1.370 . S
C954 C958 1.524 . S
C955 C947 1.503 . S
C955 C954 1.370 . S
C955 C956 1.403 . S
C956 C955 1.403 . S
C956 C957 1.404 . S
C956 C959 1.539 . S
C957 C953 1.408 . S
C957 C956 1.404 . S
C957 H969 0.930 . S
C958 C954 1.524 . S
C958 H970 0.956 . S
C958 H971 0.961 . S
C958 H972 0.961 . S
C959 C956 1.539 . S
C959 H973 0.958 1_556 S
C959 H974 0.961 . S
C959 H975 0.960 . S
H960 C944 0.931 . S
H961 C949 0.929 . S
H962 C950 0.960 . S
H963 C950 0.962 1_556 S
H964 C950 0.960 . S
H965 C951 0.961 . S
H966 C951 0.961 . S
H967 C951 0.961 . S
H968 C952 0.931 . S
H969 C957 0.930 . S
H970 C958 0.956 . S
H971 C958 0.961 . S
H972 C958 0.961 . S
H973 C959 0.958 1_554 S
H974 C959 0.961 . S
H975 C959 0.960 . S
C976 C977 1.391 . S
C976 C978 1.394 1_554 S
C976 H992 0.931 . S
C977 C976 1.391 . S
C977 C981 1.376 1_554 S
C978 C976 1.394 1_556 S
C978 C979 1.369 . S
C978 C982 1.531 . S
C979 C978 1.369 . S
C979 C980 1.410 . S
C979 C987 1.503 . S
C980 C979 1.410 . S
C980 C981 1.392 . S
C980 C983 1.511 . S
C981 C977 1.376 1_556 S
C981 C980 1.392 . S
C981 H993 0.929 . S
C982 C978 1.531 . S
C982 H994 0.960 . S
C982 H995 0.962 . S
C982 H996 0.960 1_556 S
C983 C980 1.511 . S
C983 H997 0.961 . S
C983 H998 0.961 . S
C983 H999 0.961 . S
C984 C985 1.370 . S
C984 C986 1.363 . S
C984 H1000 0.931 . S
C985 C984 1.370 . S
C985 C989 1.408 . S
C986 C984 1.363 . S
C986 C987 1.370 . S
C986 C990 1.524 . S
C987 C979 1.503 . S
C987 C986 1.370 . S
C987 C988 1.403 . S
C988 C987 1.403 . S
C988 C989 1.404 . S
C988 C991 1.539 1_556 S
C989 C985 1.408 . S
C989 C988 1.404 . S
C989 H1001 0.930 . S
C990 C986 1.524 . S
C990 H1002 0.956 . S
C990 H1003 0.961 . S
C990 H1004 0.961 . S
C991 C988 1.539 1_554 S
C991 H1005 0.958 . S
C991 H1006 0.961 . S
C991 H1007 0.960 . S
H992 C976 0.931 . S
H993 C981 0.929 . S
H994 C982 0.960 . S
H995 C982 0.962 . S
H996 C982 0.960 1_554 S
H997 C983 0.961 . S
H998 C983 0.961 . S
H999 C983 0.961 . S
H1000 C984 0.931 . S
H1001 C989 0.930 . S
H1002 C990 0.956 . S
H1003 C990 0.961 . S
H1004 C990 0.961 . S
H1005 C991 0.958 . S
H1006 C991 0.961 . S
H1007 C991 0.960 . S
C1008 C1009 1.391 . S
C1008 C1010 1.394 . S
C1008 H1024 0.931 . S
C1009 C1008 1.391 . S
C1009 C1013 1.376 . S
C1010 C1008 1.394 . S
C1010 C1011 1.369 . S
C1010 C1014 1.531 . S
C1011 C1010 1.369 . S
C1011 C1012 1.410 . S
C1011 C1019 1.503 . S
C1012 C1011 1.410 . S
C1012 C1013 1.392 . S
C1012 C1015 1.511 . S
C1013 C1009 1.376 . S
C1013 C1012 1.392 . S
C1013 H1025 0.929 . S
C1014 C1010 1.531 . S
C1014 H1026 0.960 . S
C1014 H1027 0.962 . S
C1014 H1028 0.960 . S
C1015 C1012 1.511 . S
C1015 H1029 0.961 . S
C1015 H1030 0.961 . S
C1015 H1031 0.961 . S
C1016 C1017 1.370 . S
C1016 C1018 1.363 . S
C1016 H1032 0.931 . S
C1017 C1016 1.370 . S
C1017 C1021 1.408 . S
C1018 C1016 1.363 . S
C1018 C1019 1.370 . S
C1018 C1022 1.524 . S
C1019 C1011 1.503 . S
C1019 C1018 1.370 . S
C1019 C1020 1.403 . S
C1020 C1019 1.403 . S
C1020 C1021 1.404 . S
C1020 C1023 1.539 . S
C1021 C1017 1.408 . S
C1021 C1020 1.404 . S
C1021 H1033 0.930 . S
C1022 C1018 1.524 . S
C1022 H1034 0.956 . S
C1022 H1035 0.961 . S
C1022 H1036 0.961 . S
C1023 C1020 1.539 . S
C1023 H1037 0.958 . S
C1023 H1038 0.961 . S
C1023 H1039 0.960 . S
H1024 C1008 0.931 . S
H1025 C1013 0.929 . S
H1026 C1014 0.960 . S
H1027 C1014 0.962 . S
H1028 C1014 0.960 . S
H1029 C1015 0.961 . S
H1030 C1015 0.961 . S
H1031 C1015 0.961 . S
H1032 C1016 0.931 . S
H1033 C1021 0.930 . S
H1034 C1022 0.956 . S
H1035 C1022 0.961 . S
H1036 C1022 0.961 . S
H1037 C1023 0.958 . S
H1038 C1023 0.961 . S
H1039 C1023 0.960 . S
C1040 C1041 1.391 1_545 S
C1040 C1042 1.394 . S
C1040 H1056 0.931 . S
C1041 C1040 1.391 1_565 S
C1041 C1045 1.376 . S
C1042 C1040 1.394 . S
C1042 C1043 1.369 1_545 S
C1042 C1046 1.531 . S
C1043 C1042 1.369 1_565 S
C1043 C1044 1.410 . S
C1043 C1051 1.503 . S
C1044 C1043 1.410 . S
C1044 C1045 1.392 . S
C1044 C1047 1.511 . S
C1045 C1041 1.376 . S
C1045 C1044 1.392 . S
C1045 H1057 0.929 . S
C1046 C1042 1.531 . S
C1046 H1058 0.960 . S
C1046 H1059 0.962 . S
C1046 H1060 0.960 . S
C1047 C1044 1.511 . S
C1047 H1061 0.961 . S
C1047 H1062 0.961 . S
C1047 H1063 0.961 . S
C1048 C1049 1.366 1_545 S
C1048 C1050 1.363 . S
C1048 H1064 0.931 . S
C1049 C1048 1.366 1_565 S
C1049 C1053 1.414 . S
C1050 C1048 1.363 . S
C1050 C1051 1.370 1_545 S
C1050 C1054 1.524 . S
C1051 C1043 1.503 . S
C1051 C1050 1.370 1_565 S
C1051 C1052 1.403 . S
C1052 C1051 1.403 . S
C1052 C1053 1.404 . S
C1052 C1055 1.539 . S
C1053 C1049 1.414 . S
C1053 C1052 1.404 . S
C1053 H1065 0.930 . S
C1054 C1050 1.524 . S
C1054 H1066 0.956 . S
C1054 H1067 0.961 . S
C1054 H1068 0.961 . S
C1055 C1052 1.539 . S
C1055 H1069 0.958 . S
C1055 H1070 0.961 . S
C1055 H1071 0.960 . S
H1056 C1040 0.931 . S
H1057 C1045 0.929 . S
H1058 C1046 0.960 . S
H1059 C1046 0.962 . S
H1060 C1046 0.960 . S
H1061 C1047 0.961 . S
H1062 C1047 0.961 . S
H1063 C1047 0.961 . S
H1064 C1048 0.931 . S
H1065 C1053 0.930 . S
H1066 C1054 0.956 . S
H1067 C1054 0.961 . S
H1068 C1054 0.961 . S
H1069 C1055 0.958 . S
H1070 C1055 0.961 . S
H1071 C1055 0.960 . S
C1072 C1073 1.391 . S
C1072 C1074 1.394 . S
C1072 H1088 0.931 . S
C1073 C1072 1.391 . S
C1073 C1077 1.376 . S
C1074 C1072 1.394 . S
C1074 C1075 1.369 . S
C1074 C1078 1.531 . S
C1075 C1074 1.369 . S
C1075 C1076 1.410 . S
C1075 C1083 1.503 . S
C1076 C1075 1.410 . S
C1076 C1077 1.392 . S
C1076 C1079 1.511 . S
C1077 C1073 1.376 . S
C1077 C1076 1.392 . S
C1077 H1089 0.929 . S
C1078 C1074 1.531 . S
C1078 H1090 0.960 . S
C1078 H1091 0.962 . S
C1078 H1092 0.960 . S
C1079 C1076 1.511 . S
C1079 H1093 0.961 . S
C1079 H1094 0.961 . S
C1079 H1095 0.961 . S
C1080 C1081 1.370 . S
C1080 C1082 1.363 . S
C1080 H1096 0.931 . S
C1081 C1080 1.370 . S
C1081 C1085 1.408 . S
C1082 C1080 1.363 . S
C1082 C1083 1.370 . S
C1082 C1086 1.524 . S
C1083 C1075 1.503 . S
C1083 C1082 1.370 . S
C1083 C1084 1.403 . S
C1084 C1083 1.403 . S
C1084 C1085 1.404 . S
C1084 C1087 1.539 . S
C1085 C1081 1.408 . S
C1085 C1084 1.404 . S
C1085 H1097 0.930 . S
C1086 C1082 1.524 . S
C1086 H1098 0.956 . S
C1086 H1099 0.961 . S
C1086 H1100 0.961 . S
C1087 C1084 1.539 . S
C1087 H1101 0.958 . S
C1087 H1102 0.961 . S
C1087 H1103 0.960 . S
H1088 C1072 0.931 . S
H1089 C1077 0.929 . S
H1090 C1078 0.960 . S
H1091 C1078 0.962 . S
H1092 C1078 0.960 . S
H1093 C1079 0.961 . S
H1094 C1079 0.961 . S
H1095 C1079 0.961 . S
H1096 C1080 0.931 . S
H1097 C1085 0.930 . S
H1098 C1086 0.956 . S
H1099 C1086 0.961 . S
H1100 C1086 0.961 . S
H1101 C1087 0.958 . S
H1102 C1087 0.961 . S
H1103 C1087 0.960 . S
C1104 C1105 1.391 . S
C1104 C1106 1.394 . S
C1104 H1120 0.931 . S
C1105 C1104 1.391 . S
C1105 C1109 1.376 . S
C1106 C1104 1.394 . S
C1106 C1107 1.369 . S
C1106 C1110 1.531 . S
C1107 C1106 1.369 . S
C1107 C1108 1.410 . S
C1107 C1115 1.503 . S
C1108 C1107 1.410 . S
C1108 C1109 1.392 . S
C1108 C1111 1.511 . S
C1109 C1105 1.376 . S
C1109 C1108 1.392 . S
C1109 H1121 0.929 . S
C1110 C1106 1.531 . S
C1110 H1122 0.960 . S
C1110 H1123 0.962 . S
C1110 H1124 0.960 . S
C1111 C1108 1.511 . S
C1111 H1125 0.961 . S
C1111 H1126 0.961 . S
C1111 H1127 0.961 . S
C1112 C1113 1.370 . S
C1112 C1114 1.363 . S
C1112 H1128 0.931 . S
C1113 C1112 1.370 . S
C1113 C1117 1.408 . S
C1114 C1112 1.363 . S
C1114 C1115 1.370 . S
C1114 C1118 1.524 . S
C1115 C1107 1.503 . S
C1115 C1114 1.370 . S
C1115 C1116 1.403 . S
C1116 C1115 1.403 . S
C1116 C1117 1.404 . S
C1116 C1119 1.539 . S
C1117 C1113 1.408 . S
C1117 C1116 1.404 . S
C1117 H1129 0.930 . S
C1118 C1114 1.524 . S
C1118 H1130 0.956 . S
C1118 H1131 0.961 . S
C1118 H1132 0.961 . S
C1119 C1116 1.539 . S
C1119 H1133 0.958 . S
C1119 H1134 0.961 . S
C1119 H1135 0.960 . S
H1120 C1104 0.931 . S
H1121 C1109 0.929 . S
H1122 C1110 0.960 . S
H1123 C1110 0.962 . S
H1124 C1110 0.960 . S
H1125 C1111 0.961 . S
H1126 C1111 0.961 . S
H1127 C1111 0.961 . S
H1128 C1112 0.931 . S
H1129 C1117 0.930 . S
H1130 C1118 0.956 . S
H1131 C1118 0.961 . S
H1132 C1118 0.961 . S
H1133 C1119 0.958 . S
H1134 C1119 0.961 . S
H1135 C1119 0.960 . S
C369 C241 1.507 . S
C377 C289 1.535 . S
C409 C324 2.242 . S
C401 C277 2.040 . S
C441 C329 1.404 . S
C433 C169 1.408 . S
C473 C349 1.942 . S
C465 C205 1.879 . S
C505 C297 1.541 . S
C497 C97 1.506 1_565 S
C529 C133 2.119 1_556 S
C537 C314 2.242 . S
C561 C25 1.391 . S
C569 C337 1.427 . S
C593 C61 1.735 . S
C601 C357 1.947 . S
C633 C307 1.498 . S
C625 C211 1.397 . S
C665 C316 0.660 . S
C657 C247 0.732 . S
C697 C347 1.628 . S
C689 C253 1.470 . S
C721 C175 0.907 . S
C729 C367 0.877 . S
C753 C67 1.245 . S
C761 C296 1.492 . S
C793 C327 0.683 . S
C785 C103 0.645 1_565 S
C825 C336 1.636 . S
C817 C109 1.565 . S
C849 C31 0.826 . S
C857 C356 0.879 . S
C881 C181 2.074 . S
C889 C294 2.214 . S
C913 C217 1.729 1_556 S
C921 C317 1.885 . S
C953 C334 2.370 . S
C945 C283 2.062 1_556 S
C985 C354 2.078 . S
C977 C145 1.907 . S
C1009 C37 2.039 . S
C1017 C304 2.219 . S
C1049 C309 1.884 1_565 S
C1041 C73 1.732 1_565 S
C1081 C344 2.373 . S
C1073 C139 2.174 . S
C1105 C1 1.942 . S
C1113 C364 2.078 . S
