# Generated by pormake.
# Topology zzz, (3,6)-cn, num edge types: 1
# Building blocks:
#     Node 0, Type 0, BuildingBlock: MIDCAF_clean_linker_0, # of connection points: 3
#     Node 1, Type 0, BuildingBlock: MIDCAF_clean_linker_0, # of connection points: 3
#     Node 2, Type 0, BuildingBlock: MIDCAF_clean_linker_0, # of connection points: 3
#     Node 3, Type 0, BuildingBlock: MIDCAF_clean_linker_0, # of connection points: 3
#     Node 4, Type 0, BuildingBlock: MIDCAF_clean_linker_0, # of connection points: 3
#     Node 5, Type 0, BuildingBlock: MIDCAF_clean_linker_0, # of connection points: 3
#     Node 6, Type 0, BuildingBlock: MIDCAF_clean_linker_0, # of connection points: 3
#     Node 7, Type 0, BuildingBlock: MIDCAF_clean_linker_0, # of connection points: 3
#     Node 8, Type 1, BuildingBlock: PAMTUU_clean_sbu_0, # of connection points: 6
#     Node 9, Type 1, BuildingBlock: PAMTUU_clean_sbu_0, # of connection points: 6
#     Node 10, Type 1, BuildingBlock: PAMTUU_clean_sbu_0, # of connection points: 6
#     Node 11, Type 1, BuildingBlock: PAMTUU_clean_sbu_0, # of connection points: 6
#     Edge 12, Type (0, 1), BuildingBlock: EZIPEK_clean_linker_0, # of connection points: 2
#     Edge 13, Type (0, 1), BuildingBlock: EZIPEK_clean_linker_0, # of connection points: 2
#     Edge 14, Type (0, 1), BuildingBlock: EZIPEK_clean_linker_0, # of connection points: 2
#     Edge 15, Type (0, 1), BuildingBlock: EZIPEK_clean_linker_0, # of connection points: 2
#     Edge 16, Type (0, 1), BuildingBlock: EZIPEK_clean_linker_0, # of connection points: 2
#     Edge 17, Type (0, 1), BuildingBlock: EZIPEK_clean_linker_0, # of connection points: 2
#     Edge 18, Type (0, 1), BuildingBlock: EZIPEK_clean_linker_0, # of connection points: 2
#     Edge 19, Type (0, 1), BuildingBlock: EZIPEK_clean_linker_0, # of connection points: 2
#     Edge 20, Type (0, 1), BuildingBlock: EZIPEK_clean_linker_0, # of connection points: 2
#     Edge 21, Type (0, 1), BuildingBlock: EZIPEK_clean_linker_0, # of connection points: 2
#     Edge 22, Type (0, 1), BuildingBlock: EZIPEK_clean_linker_0, # of connection points: 2
#     Edge 23, Type (0, 1), BuildingBlock: EZIPEK_clean_linker_0, # of connection points: 2
#     Edge 24, Type (0, 1), BuildingBlock: EZIPEK_clean_linker_0, # of connection points: 2
#     Edge 25, Type (0, 1), BuildingBlock: EZIPEK_clean_linker_0, # of connection points: 2
#     Edge 26, Type (0, 1), BuildingBlock: EZIPEK_clean_linker_0, # of connection points: 2
#     Edge 27, Type (0, 1), BuildingBlock: EZIPEK_clean_linker_0, # of connection points: 2
#     Edge 28, Type (0, 1), BuildingBlock: EZIPEK_clean_linker_0, # of connection points: 2
#     Edge 29, Type (0, 1), BuildingBlock: EZIPEK_clean_linker_0, # of connection points: 2
#     Edge 30, Type (0, 1), BuildingBlock: EZIPEK_clean_linker_0, # of connection points: 2
#     Edge 31, Type (0, 1), BuildingBlock: EZIPEK_clean_linker_0, # of connection points: 2
#     Edge 32, Type (0, 1), BuildingBlock: EZIPEK_clean_linker_0, # of connection points: 2
#     Edge 33, Type (0, 1), BuildingBlock: EZIPEK_clean_linker_0, # of connection points: 2
#     Edge 34, Type (0, 1), BuildingBlock: EZIPEK_clean_linker_0, # of connection points: 2
#     Edge 35, Type (0, 1), BuildingBlock: EZIPEK_clean_linker_0, # of connection points: 2
# Relax obj value: 0.423
# Max RMSD: 0.290
# Mean RMSD: 0.221
data_MOF--net-zzz--node1-PAMTUU_clean_sbu_0--node2-MIDCAF_clean_linker_0--edge1-EZIPEK_clean_linker_0
_symmetry_space_group_name_H-M    P1
_symmetry_Int_Tables_number       1
_symmetry_cell_setting            triclinic
loop_
_symmetry_equiv_pos_as_xyz
'x, y, z'
_cell_length_a     43.896254
_cell_length_b     48.127191
_cell_length_c     16.381986
_cell_angle_alpha  100.48791
_cell_angle_beta   90.149463
_cell_angle_gamma 89.046502
loop_
_atom_site_label
_atom_site_type_symbol
_atom_site_fract_x
_atom_site_fract_y
_atom_site_fract_z
_atom_type_partial_charge
C0 C 0.83962 0.49124 0.52479 0.0
C1 C 0.84605 0.5071 0.60386 0.0
C2 C 0.82411 0.52694 0.64129 0.0
C3 C 0.79767 0.5325 0.59795 0.0
H4 H 0.71331 0.48463 0.30729 0.0
H5 H 0.67036 0.47186 0.21047 0.0
H6 H 0.65389 0.55988 0.20392 0.0
H7 H 0.69627 0.57269 0.29906 0.0
H8 H 0.81692 0.60877 0.46896 0.0
H9 H 0.86987 0.60548 0.42314 0.0
H10 H 0.84115 0.56808 0.17647 0.0
H11 H 0.78837 0.57143 0.22166 0.0
H12 H 0.81044 0.48628 0.4176 0.0
H13 H 0.85622 0.47597 0.4941 0.0
H14 H 0.82848 0.53961 0.70179 0.0
H15 H 0.78284 0.54991 0.62537 0.0
N16 N 0.74911 0.52363 0.41674 0.0
N17 N 0.75169 0.56133 0.34261 0.0
N18 N 0.78817 0.55688 0.44309 0.0
C19 C 0.7368 0.5384 0.35963 0.0
C20 C 0.77728 0.57074 0.38436 0.0
C21 C 0.77478 0.53354 0.45992 0.0
C22 C 0.70847 0.5297 0.31092 0.0
C23 C 0.70018 0.50124 0.28636 0.0
C24 C 0.67574 0.49392 0.23064 0.0
C25 C 0.65897 0.51493 0.1993 0.0
C26 C 0.66646 0.54329 0.22668 0.0
C27 C 0.69083 0.55054 0.28127 0.0
C28 C 0.79892 0.58867 0.34996 0.0
C29 C 0.82166 0.60196 0.40341 0.0
C30 C 0.85206 0.5999 0.37748 0.0
C31 C 0.85926 0.58524 0.29769 0.0
C32 C 0.8359 0.57882 0.239 0.0
C33 C 0.80555 0.58101 0.26494 0.0
C34 C 0.79231 0.51827 0.51627 0.0
C35 C 0.81307 0.49677 0.48152 0.0
C36 C 1.001 0.8055 0.58603 0.0
C37 C 1.02242 0.81786 0.64494 0.0
C38 C 0.04892 0.80261 0.65786 0.0
C39 C 0.05602 0.77727 0.60451 0.0
H40 H 0.99968 0.6893 0.34977 0.0
H41 H 0.983 0.64586 0.2577 0.0
H42 H 0.06454 0.64539 0.11158 0.0
H43 H 0.08117 0.68839 0.20124 0.0
H44 H 0.08631 0.76509 0.19162 0.0
H45 H 0.10381 0.80717 0.14294 0.0
H46 H 0.14342 0.83802 0.38273 0.0
H47 H 0.12525 0.79627 0.43284 0.0
H48 H 0.99318 0.77284 0.48055 0.0
H49 H 0.98049 0.81709 0.57506 0.0
H50 H 0.0657 0.81187 0.70291 0.0
H51 H 0.0784 0.7678 0.60884 0.0
N52 N 0.04005 0.72878 0.41255 0.0
N53 N 0.07431 0.73408 0.30606 0.0
N54 N 0.07356 0.76695 0.42959 0.0
C55 C 0.05235 0.71891 0.33591 0.0
C56 C 0.08505 0.75806 0.35282 0.0
C57 C 0.05126 0.75266 0.46005 0.0
C58 C 0.04175 0.69242 0.28295 0.0
C59 C 1.01404 0.67989 0.29811 0.0
C60 C 1.00443 0.65519 0.24557 0.0
C61 C 0.02263 0.64254 0.17809 0.0
C62 C 0.05022 0.6549 0.16331 0.0
C63 C 0.05963 0.67955 0.21481 0.0
C64 C 0.10403 0.77766 0.31636 0.0
C65 C 0.09972 0.78027 0.23311 0.0
C66 C 0.10954 0.80438 0.20535 0.0
C67 C 0.12418 0.82589 0.26005 0.0
C68 C 0.13179 0.82174 0.34016 0.0
C69 C 0.12145 0.79789 0.36849 0.0
C70 C 0.03678 0.76699 0.53748 0.0
C71 C 1.00813 0.78002 0.53259 0.0
C72 C 0.71026 0.98819 0.52237 0.0
C73 C 0.70721 0.99868 0.60803 0.0
C74 C 0.73249 0.01146 0.65138 0.0
C75 C 0.75943 0.01549 0.60907 0.0
H76 H 0.87959 0.04773 0.37084 0.0
H77 H 0.91791 0.03521 0.26225 0.0
H78 H 0.86988 0.95889 0.16617 0.0
H79 H 0.831 0.97145 0.27627 0.0
H80 H 0.79848 0.08235 0.28345 0.0
H81 H 0.75662 0.10762 0.23082 0.0
H82 H 0.71926 0.12979 0.47759 0.0
H83 H 0.76061 0.10341 0.53057 0.0
H84 H 0.73806 0.98588 0.41317 0.0
H85 H 0.69105 0.97845 0.48733 0.0
H86 H 0.73072 0.01991 0.71718 0.0
H87 H 0.77749 0.02761 0.64308 0.0
N88 N 0.80787 0.00749 0.42964 0.0
N89 N 0.81851 0.05022 0.38492 0.0
N90 N 0.77786 0.04844 0.47487 0.0
C91 C 0.82582 0.02273 0.38556 0.0
C92 C 0.79468 0.06321 0.42916 0.0
C93 C 0.78405 0.02088 0.4762 0.0
C94 C 0.85224 0.01052 0.33287 0.0
C95 C 0.87757 0.0278 0.32833 0.0
C96 C 0.89952 0.02074 0.26588 0.0
C97 C 0.89682 0.9962 0.2056 0.0
C98 C 0.87255 0.97789 0.21229 0.0
C99 C 0.85046 0.98495 0.27564 0.0
C100 C 0.78182 0.0898 0.41031 0.0
C101 C 0.7824 0.09391 0.32758 0.0
C102 C 0.75841 0.10842 0.29719 0.0
C103 C 0.73433 0.11942 0.34994 0.0
C104 C 0.73748 0.12091 0.43592 0.0
C105 C 0.76109 0.10576 0.46605 0.0
C106 C 0.76201 0.00646 0.52258 0.0
C107 C 0.73737 0.99203 0.48013 0.0
C108 C 0.46962 0.68299 0.08659 0.0
C109 C 0.4841 0.67408 1.01004 0.0
C110 C 0.50005 0.69369 0.97333 0.0
C111 C 0.50425 0.72118 0.01712 0.0
H112 H 0.52867 0.80869 0.02639 0.0
H113 H 0.5359 0.85419 0.98397 0.0
H114 H 0.55589 0.89243 0.23668 0.0
H115 H 0.5489 0.84674 0.28034 0.0
H116 H 0.49705 0.75259 0.40645 0.0
H117 H 0.51357 0.71847 0.4921 0.0
H118 H 0.60609 0.72441 0.41049 0.0
H119 H 0.58961 0.75895 0.32519 0.0
H120 H 0.4648 0.71591 0.19274 0.0
H121 H 0.45729 0.66808 0.11569 0.0
H122 H 0.51148 0.687 0.91432 0.0
H123 H 0.51903 0.73515 0.99118 0.0
N124 N 0.51481 0.7769 0.13106 0.0
N125 N 0.53919 0.79178 0.25985 0.0
N126 N 0.51415 0.74844 0.23227 0.0
C127 C 0.53064 0.79689 0.18349 0.0
C128 C 0.53062 0.76748 0.28428 0.0
C129 C 0.50625 0.75277 0.15584 0.0
C130 C 0.53802 0.824 0.15704 0.0
C131 C 0.53492 0.82662 0.07316 0.0
C132 C 0.53917 0.8526 0.04854 0.0
C133 C 0.54646 0.87657 0.10713 0.0
C134 C 0.55043 0.87405 0.19055 0.0
C135 C 0.54642 0.84793 0.21527 0.0
C136 C 0.54213 0.7586 0.3601 0.0
C137 C 0.52118 0.74789 0.41071 0.0
C138 C 0.53053 0.7282 0.45898 0.0
C139 C 0.56094 0.71875 0.45672 0.0
C140 C 0.58254 0.73158 0.41311 0.0
C141 C 0.57317 0.75156 0.36526 0.0
C142 C 0.4928 0.72904 0.09819 0.0
C143 C 0.47397 0.71029 0.13045 0.0
C144 C 0.20451 0.50793 0.11137 0.0
C145 C 0.20086 0.49402 0.02869 0.0
C146 C 0.22524 0.47742 0.99008 0.0
C147 C 0.25166 0.473 0.03501 0.0
H148 H 0.36343 0.43582 0.2913 0.0
H149 H 0.40386 0.44734 0.39432 0.0
H150 H 0.36294 0.5297 0.47579 0.0
H151 H 0.3225 0.51835 0.37042 0.0
H152 H 0.26275 0.4292 0.401 0.0
H153 H 0.2092 0.43018 0.43754 0.0
H154 H 0.18711 0.38876 0.18915 0.0
H155 H 0.24088 0.38883 0.15116 0.0
H156 H 0.23186 0.5123 0.22201 0.0
H157 H 0.18598 0.52063 0.14291 0.0
H158 H 0.22299 0.46633 0.92667 0.0
H159 H 0.26868 0.4579 1.00569 0.0
N160 N 0.29842 0.48135 0.21806 0.0
N161 N 0.30017 0.44146 0.2837 0.0
N162 N 0.26277 0.44515 0.1849 0.0
C163 C 0.31247 0.4662 0.27162 0.0
C164 C 0.27535 0.4308 0.24036 0.0
C165 C 0.27365 0.47016 0.17302 0.0
C166 C 0.33987 0.47626 0.32198 0.0
C167 C 0.36347 0.45671 0.32952 0.0
C168 C 0.38658 0.46323 0.38878 0.0
C169 C 0.38652 0.48932 0.4436 0.0
C170 C 0.36363 0.50945 0.4342 0.0
C171 C 0.34064 0.50304 0.37352 0.0
C172 C 0.25547 0.41078 0.27181 0.0
C173 C 0.24694 0.41842 0.35551 0.0
C174 C 0.21611 0.41935 0.37636 0.0
C175 C 0.19429 0.41117 0.31434 0.0
C176 C 0.20373 0.39597 0.237 0.0
C177 C 0.2346 0.3957 0.2157 0.0
C178 C 0.25457 0.48527 0.11946 0.0
C179 C 0.23107 0.50358 0.15625 0.0
C180 C 0.99778 0.18607 0.9736 0.0
C181 C 0.02469 0.17121 0.98525 0.0
C182 C 0.04619 0.18383 0.04355 0.0
C183 C 0.03896 0.20926 0.09717 0.0
H184 H 0.04102 0.30854 0.25431 0.0
H185 H 0.05779 0.35275 0.34247 0.0
H186 H 0.99821 0.33768 0.53782 0.0
H187 H 0.98168 0.29405 0.45256 0.0
H188 H 0.94444 0.24236 0.44139 0.0
H189 H 0.92597 0.20518 0.51108 0.0
H190 H 0.91413 0.15036 0.27451 0.0
H191 H 0.93239 0.18726 0.20376 0.0
H192 H 0.96805 0.22061 0.02338 0.0
H193 H 0.98092 0.17661 0.9291 0.0
H194 H 0.06701 0.17254 0.05361 0.0
H195 H 0.05417 0.21677 0.14833 0.0
N196 N 1.00897 0.26108 0.21615 0.0
N197 N 0.97376 0.25873 0.32273 0.0
N198 N 0.97282 0.22501 0.2014 0.0
C199 C 0.99712 0.27211 0.29255 0.0
C200 C 0.96148 0.23519 0.27772 0.0
C201 C 0.99626 0.23766 0.16992 0.0
C202 C 1.00967 0.29779 0.34557 0.0
C203 C 0.0318 0.31449 0.31638 0.0
C204 C 0.04149 0.33965 0.36663 0.0
C205 C 0.02909 0.34837 0.44638 0.0
C206 C 1.00799 0.33127 0.47646 0.0
C207 C 0.99845 0.30632 0.42697 0.0
C208 C 0.94088 0.21745 0.31709 0.0
C209 C 0.93676 0.22287 0.40375 0.0
C210 C 0.92608 0.2017 0.44386 0.0
C211 C 0.9192 0.17506 0.39769 0.0
C212 C 0.91944 0.17085 0.31087 0.0
C213 C 0.93009 0.19196 0.2707 0.0
C214 C 1.01012 0.22204 0.09303 0.0
C215 C 0.99056 0.21133 0.02715 0.0
C216 C 0.36461 0.00052 0.16437 0.0
C217 C 0.35817 0.00284 0.08206 0.0
C218 C 0.32739 0.00235 0.05656 0.0
C219 C 0.30375 0.99826 0.11166 0.0
H220 H 0.21525 0.03464 0.3698 0.0
H221 H 0.16834 0.04382 0.45334 0.0
H222 H 0.14438 0.95628 0.38245 0.0
H223 H 0.19024 0.94741 0.29727 0.0
H224 H 0.24819 0.92744 0.45363 0.0
H225 H 0.26986 0.90254 0.55882 0.0
H226 H 0.36019 0.91477 0.47045 0.0
H227 H 0.3391 0.93921 0.36511 0.0
H228 H 0.3475 0.99374 0.281 0.0
H229 H 0.38799 0.00095 0.1859 0.0
H230 H 0.32179 0.00408 0.99325 0.0
H231 H 0.28051 0.99653 0.08922 0.0
N232 N 0.25761 0.99266 0.25535 0.0
N233 N 0.25011 0.96255 0.35203 0.0
N234 N 0.29817 0.9651 0.2945 0.0
C235 C 0.23872 0.98156 0.30786 0.0
C236 C 0.27962 0.95424 0.34615 0.0
C237 C 0.28773 0.98399 0.24819 0.0
C238 C 0.20638 0.99037 0.32588 0.0
C239 C 0.19905 0.0178 0.36809 0.0
C240 C 0.17244 0.02293 0.41711 0.0
C241 C 0.15298 0.0006 0.426 0.0
C242 C 0.1589 0.97387 0.37748 0.0
C243 C 0.1851 0.96889 0.32789 0.0
C244 C 0.29197 0.93571 0.40158 0.0
C245 C 0.27267 0.92443 0.45567 0.0
C246 C 0.28489 0.91016 0.51572 0.0
C247 C 0.31653 0.90723 0.52269 0.0
C248 C 0.33565 0.917 0.46593 0.0
C249 C 0.32354 0.93102 0.40579 0.0
C250 C 0.31052 0.99447 0.19309 0.0
C251 C 0.34126 0.99643 0.21884 0.0
C252 C 0.5116 0.33409 0.57506 0.0
C253 C 0.53693 0.3347 0.62748 0.0
C254 C 0.55155 0.30921 0.63646 0.0
C255 C 0.54099 0.28341 0.59238 0.0
H256 H 0.49022 0.2012 0.61403 0.0
H257 H 0.49224 0.15732 0.66836 0.0
H258 H 0.50236 0.10966 0.42015 0.0
H259 H 0.49987 0.15385 0.36435 0.0
H260 H 0.43281 0.24578 0.29853 0.0
H261 H 0.42241 0.27907 0.20474 0.0
H262 H 0.51653 0.27336 0.12874 0.0
H263 H 0.5269 0.24008 0.22226 0.0
H264 H 0.48236 0.30889 0.48838 0.0
H265 H 0.50003 0.35353 0.5675 0.0
H266 H 0.57125 0.30938 0.67648 0.0
H267 H 0.55287 0.26398 0.59837 0.0
N268 N 0.50624 0.23175 0.50698 0.0
N269 N 0.48849 0.21015 0.37466 0.0
N270 N 0.49888 0.25864 0.40333 0.0
C271 C 0.49675 0.20821 0.45411 0.0
C272 C 0.48977 0.2356 0.34959 0.0
C273 C 0.5072 0.25701 0.48162 0.0
C274 C 0.4952 0.18107 0.48479 0.0
C275 C 0.49255 0.18143 0.57056 0.0
C276 C 0.49347 0.15634 0.60183 0.0
C277 C 0.49735 0.13027 0.54834 0.0
C278 C 0.49907 0.12959 0.46233 0.0
C279 C 0.49772 0.15482 0.43066 0.0
C280 C 0.48057 0.24015 0.26679 0.0
C281 C 0.45072 0.25002 0.25728 0.0
C282 C 0.44485 0.26935 0.20454 0.0
C283 C 0.46883 0.27894 0.16087 0.0
C284 C 0.49775 0.26617 0.16183 0.0
C285 C 0.50357 0.24685 0.21449 0.0
C286 C 0.51628 0.28307 0.53749 0.0
C287 C 0.50153 0.30859 0.53008 0.0
Tb288 Tb 0.99346 0.99808 0.74739 0.0
Tb289 Tb 0.05166 0.99149 0.86966 0.0
C290 C 0.98352 0.98956 0.9314 0.0
C291 C 0.93669 0.02803 0.61745 0.0
C292 C 0.92146 0.07513 0.5457 0.0
C293 C 0.91668 0.07608 0.63064 0.0
C294 C 0.92422 0.05268 0.66638 0.0
C295 C 0.93955 0.02661 0.5314 0.0
C296 C 0.93219 0.05009 0.49585 0.0
C297 C 0.94841 0.00449 0.65582 0.0
O298 O 0.99999 0.03978 0.82233 0.0
O299 O 0.05028 0.03586 0.85942 0.0
O300 O 0.06991 0.98784 0.74399 0.0
O301 O 0.03301 0.01202 0.68485 0.0
O302 O 0.0741 0.00297 0.98417 0.0
O303 O 0.09454 0.97329 0.88438 0.0
O304 O 0.0321 0.94962 0.83887 0.0
O305 O 1.00934 0.9545 0.71567 0.0
O306 O 0.97473 0.98244 0.85371 0.0
O307 O 1.0115 0.99773 0.95048 0.0
C308 C 0.02568 0.05106 0.85215 0.0
O309 O 0.97438 0.99317 0.62773 0.0
O310 O 0.94716 0.00808 0.73646 0.0
C311 C 0.06074 0.00114 0.68475 0.0
C312 C 0.10325 0.96547 0.01894 0.0
C313 C 0.1183 0.92529 0.11721 0.0
C314 C 0.13793 0.94779 0.11406 0.0
C315 C 0.13044 0.96778 0.06471 0.0
C316 C 0.08328 0.94344 0.02421 0.0
C317 C 0.09077 0.92347 0.07307 0.0
C318 C 0.09642 0.98502 0.96231 0.0
C319 C 1.02025 0.93872 0.76669 0.0
H320 H 0.90866 0.0954 0.66986 0.0
H321 H 0.92143 0.05439 0.73279 0.0
H322 H 0.94877 0.00778 0.49223 0.0
H323 H 0.93629 0.04923 0.43025 0.0
H324 H 0.15915 0.9495 0.14833 0.0
H325 H 0.14606 0.98472 0.06112 0.0
H326 H 0.06222 0.94138 0.98917 0.0
H327 H 0.07534 0.90629 0.07541 0.0
Tb328 Tb 0.52066 0.97763 0.76311 0.0
Tb329 Tb 0.53803 0.0322 0.90459 0.0
C330 C 0.54297 0.97144 0.94184 0.0
C331 C 0.47865 0.9164 0.65778 0.0
C332 C 0.42002 0.89471 0.66349 0.0
C333 C 0.43946 0.89583 0.73204 0.0
C334 C 0.4686 0.90703 0.7296 0.0
C335 C 0.46038 0.91223 0.58666 0.0
C336 C 0.43122 0.9016 0.58962 0.0
C337 C 0.50495 0.93498 0.65995 0.0
O338 O 0.47649 0.9922 0.81893 0.0
O339 O 0.49253 0.02039 0.93983 0.0
O340 O 0.50951 0.04669 0.81173 0.0
O341 O 0.52534 0.01391 0.70157 0.0
O342 O 0.54002 0.05266 0.02909 0.0
O343 O 0.5512 0.07461 0.93004 0.0
O344 O 0.57892 0.02405 0.8244 0.0
O345 O 0.56998 0.97931 0.75063 0.0
O346 O 0.52295 0.96403 0.88262 0.0
O347 O 0.55683 0.99577 0.95054 0.0
C348 C 0.47108 0.00616 0.89462 0.0
O349 O 0.4979 0.9609 0.65315 0.0
O350 O 0.5252 0.934 0.71786 0.0
C351 C 0.51454 0.03919 0.7321 0.0
C352 C 0.57622 0.08836 0.05703 0.0
C353 C 0.62525 0.10976 0.1573 0.0
C354 C 0.59677 0.12354 0.16761 0.0
C355 C 0.57231 0.11285 0.11746 0.0
C356 C 0.60498 0.07525 0.04457 0.0
C357 C 0.62939 0.08591 0.09456 0.0
C358 C 0.54989 0.07603 1.00998 0.0
C359 C 0.5879 0.00102 0.77236 0.0
H360 H 0.43123 0.8903 0.78918 0.0
H361 H 0.48237 0.91001 0.78538 0.0
H362 H 0.46772 0.91928 0.53079 0.0
H363 H 0.41658 0.90064 0.53582 0.0
H364 H 0.59321 0.14171 0.2166 0.0
H365 H 0.55015 0.12315 0.12753 0.0
H366 H 0.60827 0.05632 0.99805 0.0
H367 H 0.65121 0.0749 0.08674 0.0
Tb368 Tb 0.49641 0.4898 0.88433 0.0
Tb369 Tb 0.54672 0.51503 0.76659 0.0
C370 C 0.47848 0.50207 0.7082 0.0
C371 C 0.46041 0.43909 0.99685 0.0
C372 C 0.4614 0.38556 0.04357 0.0
C373 C 0.43364 0.39815 0.02621 0.0
C374 C 0.43316 0.42475 1.00297 0.0
C375 C 0.48821 0.42634 0.01362 0.0
C376 C 0.48868 0.3998 0.03709 0.0
C377 C 0.45971 0.46648 0.9685 0.0
O378 O 0.5147 0.45446 0.79628 0.0
O379 O 0.56082 0.47124 0.76162 0.0
O380 O 0.56745 0.51821 0.88967 0.0
O381 O 0.5406 0.48488 0.94246 0.0
O382 O 0.58221 0.54334 0.76194 0.0
O383 O 0.56614 0.51705 0.65029 0.0
O384 O 0.51511 0.54936 0.81147 0.0
O385 O 0.49674 0.5352 0.92877 0.0
O386 O 0.47002 0.50423 0.78618 0.0
O387 O 0.50749 0.50106 0.68695 0.0
C388 C 0.54228 0.45038 0.76545 0.0
O389 O 0.47968 0.48503 1.00112 0.0
O390 O 0.45777 0.46488 0.88853 0.0
C391 C 0.56404 0.50166 0.94461 0.0
C392 C 0.58134 0.56348 0.64254 0.0
C393 C 0.57847 0.61435 0.58062 0.0
C394 C 0.60649 0.60016 0.58459 0.0
C395 C 0.60789 0.57482 0.61523 0.0
C396 C 0.55335 0.57772 0.63857 0.0
C397 C 0.55189 0.60288 0.60731 0.0
C398 C 0.58334 0.53821 0.68129 0.0
C399 C 0.50218 0.55485 0.88473 0.0
H400 H 0.41239 0.38748 0.03135 0.0
H401 H 0.41153 0.43411 0.98948 0.0
H402 H 0.50954 0.43688 1.0085 0.0
H403 H 0.51029 0.3904 0.05052 0.0
H404 H 0.6272 0.60875 0.56421 0.0
H405 H 0.62975 0.56432 0.61884 0.0
H406 H 0.53277 0.56961 0.66098 0.0
H407 H 0.5301 0.61361 0.60487 0.0
Tb408 Tb 0.03612 0.51742 0.74592 0.0
Tb409 Tb 1.01264 0.47645 0.86979 0.0
C410 C 1.01509 0.54289 0.92743 0.0
C411 C 0.06914 0.52763 0.55664 0.0
C412 C 0.09932 0.48643 0.43999 0.0
C413 C 0.06745 0.48744 0.44215 0.0
C414 C 0.05241 0.5079 0.50025 0.0
C415 C 0.1009 0.52823 0.54794 0.0
C416 C 0.11588 0.50768 0.4903 0.0
C417 C 0.0549 0.54235 0.63467 0.0
O418 O 0.07732 0.49888 0.79171 0.0
O419 O 0.05793 0.49002 0.91344 0.0
O420 O 0.03298 0.44695 0.76774 0.0
O421 O 0.03163 0.47571 0.66991 0.0
O422 O 1.02123 0.45257 0.96354 0.0
O423 O 0.97618 0.45591 0.91421 0.0
O424 O 0.97665 0.47838 0.77809 0.0
O425 O 0.98648 0.52249 0.75406 0.0
O426 O 0.03279 0.54566 0.86497 0.0
O427 O 1.00074 0.51938 0.9313 0.0
C428 C 0.08125 0.4943 0.86778 0.0
O429 O 0.02628 0.53717 0.64434 0.0
O430 O 0.07039 0.54102 0.70194 0.0
C431 C 0.03412 0.45064 0.69033 0.0
C432 C 0.98009 0.46336 0.05793 0.0
C433 C 0.95134 0.50509 0.17523 0.0
C434 C 0.9343 0.48327 0.1291 0.0
C435 C 0.94861 0.46239 0.07127 0.0
C436 C 0.99755 0.4832 0.11163 0.0
C437 C 0.9832 0.50398 0.17029 0.0
C438 C 0.99218 0.45007 0.97608 0.0
C439 C 0.96772 0.50134 0.7515 0.0
H440 H 0.05439 0.4714 0.40268 0.0
H441 H 0.02786 0.50684 0.50479 0.0
H442 H 0.11433 0.54315 0.59025 0.0
H443 H 0.14056 0.50738 0.4882 0.0
H444 H 0.90967 0.48355 0.13364 0.0
H445 H 0.93469 0.4473 0.03097 0.0
H446 H 1.02195 0.48423 0.10364 0.0
H447 H 0.99665 0.52036 0.20707 0.0
C448 C 0.09753 0.99828 0.46935 0.0
C449 C 0.12844 0.00395 0.49179 0.0
C450 C 0.11288 0.01392 0.6389 0.0
C451 C 0.08305 0.00407 0.61717 0.0
N452 N 0.04874 0.98213 0.50985 0.0
N453 N 0.16619 0.01147 0.60109 0.0
C454 C 0.07573 0.99517 0.53176 0.0
C455 C 0.13629 0.01038 0.57747 0.0
N456 N 0.08885 0.9963 0.38842 0.0
N457 N 0.11881 0.0274 0.71803 0.0
H458 H 0.18424 0.00786 0.5591 0.0
H459 H 0.17307 0.01304 0.66267 0.0
H460 H 0.10218 0.03125 0.76419 0.0
H461 H 0.1393 0.03747 0.7352 0.0
H462 H 0.06619 0.99483 0.36928 0.0
H463 H 0.10405 0.99891 0.34162 0.0
H464 H 0.04367 0.97248 0.44925 0.0
H465 H 0.03264 0.97845 0.55309 0.0
C466 C 0.53047 0.10229 0.62871 0.0
C467 C 0.50294 0.10445 0.58484 0.0
C468 C 0.48543 0.06053 0.62501 0.0
C469 C 0.51109 0.06078 0.67812 0.0
N470 N 0.55619 0.08425 0.73889 0.0
N471 N 0.45289 0.08708 0.54529 0.0
C472 C 0.5331 0.08231 0.68223 0.0
C473 C 0.48012 0.08378 0.58329 0.0
N474 N 0.55449 0.11896 0.61752 0.0
N475 N 0.46609 0.0382 0.61496 0.0
H476 H 0.44845 0.10361 0.5135 0.0
H477 H 0.43404 0.07459 0.5497 0.0
H478 H 0.46874 0.02142 0.64685 0.0
H479 H 0.44874 0.03528 0.57093 0.0
H480 H 0.57622 0.11627 0.64088 0.0
H481 H 0.55357 0.13359 0.57772 0.0
H482 H 0.57046 0.10158 0.75215 0.0
H483 H 0.55998 0.06932 0.77646 0.0
C484 C 0.40808 0.4773 0.57674 0.0
C485 C 0.40911 0.49425 0.51419 0.0
C486 C 0.45315 0.5191 0.58576 0.0
C487 C 0.45442 0.49969 0.64173 0.0
N488 N 0.43626 0.45654 0.67856 0.0
N489 N 0.43565 0.52879 0.45277 0.0
C490 C 0.43266 0.47781 0.63414 0.0
C491 C 0.43247 0.51454 0.51705 0.0
N492 N 0.38313 0.4612 0.58297 0.0
N493 N 0.47083 0.54256 0.60005 0.0
H494 H 0.42109 0.52602 0.40162 0.0
H495 H 0.45418 0.54152 0.44683 0.0
H496 H 0.4854 0.54698 0.65091 0.0
H497 H 0.46883 0.55894 0.56657 0.0
H498 H 0.37969 0.45069 0.63236 0.0
H499 H 0.36437 0.4607 0.54353 0.0
H500 H 0.42295 0.43852 0.66913 0.0
H501 H 0.45457 0.45537 0.7185 0.0
C502 C 1.0155 0.39927 0.4912 0.0
C503 C 0.03551 0.37643 0.49766 0.0
C504 C 0.05876 0.40457 0.6216 0.0
C505 C 0.03546 0.42548 0.62248 0.0
N506 N 0.98817 0.44 0.56503 0.0
N507 N 0.07576 0.35631 0.56945 0.0
C508 C 1.01312 0.42235 0.55847 0.0
C509 C 0.05719 0.37885 0.56281 0.0
N510 N 0.99828 0.39863 0.42128 0.0
N511 N 0.0829 0.40972 0.67474 0.0
H512 H 0.07622 0.33781 0.52488 0.0
H513 H 0.08951 0.35541 0.62083 0.0
H514 H 0.08527 0.42869 0.71653 0.0
H515 H 0.102 0.39647 0.67196 0.0
H516 H 0.98567 0.41599 0.40933 0.0
H517 H 0.99895 0.38171 0.37144 0.0
H518 H 0.96969 0.43689 0.52456 0.0
H519 H 0.98408 0.45594 0.61601 0.0
C520 C 0.9112 0.00583 0.06443 0.0
C521 C 0.91778 0.99176 0.13165 0.0
C522 C 0.96575 0.9732 0.06236 0.0
C523 C 0.96063 0.98972 0.99966 0.0
N524 N 0.93076 0.02578 0.94986 0.0
N525 N 0.95268 0.96429 0.19951 0.0
C526 C 0.93384 0.00695 1.00273 0.0
C527 C 0.94544 0.976 0.13184 0.0
N528 N 0.88309 0.01804 0.05914 0.0
N529 N 0.98944 0.95411 0.05409 0.0
H530 H 0.93794 0.9651 0.24979 0.0
H531 H 0.97395 0.95541 0.20834 0.0
H532 H 1.00451 0.95133 1.00407 0.0
H533 H 0.99269 0.93937 0.09272 0.0
H534 H 0.87561 0.02582 1.00714 0.0
H535 H 0.86613 0.01816 0.10371 0.0
H536 H 0.91358 0.04118 0.95522 0.0
H537 H 0.94703 0.02799 0.90541 0.0
C538 C 0.57526 0.91463 0.05435 0.0
C539 C 0.54742 0.90461 0.08104 0.0
C540 C 0.52027 0.94563 0.04523 0.0
C541 C 0.54672 0.9527 1.00458 0.0
N542 N 0.60062 0.947 0.97964 0.0
N543 N 0.49318 0.91027 0.10302 0.0
C544 C 0.57477 0.93838 0.0131 0.0
C545 C 0.5199 0.92024 0.07778 0.0
N546 N 0.60202 0.90137 0.06864 0.0
N547 N 0.49586 0.9639 0.05505 0.0
H548 H 0.49213 0.89245 0.13078 0.0
H549 H 0.47186 0.91869 0.09222 0.0
H550 H 0.49637 0.98331 0.03548 0.0
H551 H 0.47668 0.9614 0.09009 0.0
H552 H 0.62347 0.90863 0.05701 0.0
H553 H 0.60288 0.88375 0.09747 0.0
H554 H 0.62111 0.93566 0.97345 0.0
H555 H 0.60145 0.96591 0.95749 0.0
C556 C 0.64215 0.5001 0.04963 0.0
C557 C 0.63435 0.50783 0.13502 0.0
C558 C 0.58014 0.51084 0.09634 0.0
C559 C 0.58784 0.50206 1.01104 0.0
N560 N 0.62534 0.48225 0.90879 0.0
N561 N 0.59568 0.51544 0.24085 0.0
C562 C 0.61864 0.49493 0.98845 0.0
C563 C 0.60321 0.51155 0.1586 0.0
N564 N 0.67211 0.49874 0.0265 0.0
N565 N 0.55109 0.51993 0.1178 0.0
H566 H 0.61198 0.51628 0.28769 0.0
H567 H 0.57339 0.51538 0.26234 0.0
H568 H 0.53355 0.51968 0.07469 0.0
H569 H 0.5448 0.52978 0.17743 0.0
H570 H 0.67928 0.49673 0.96513 0.0
H571 H 0.68998 0.50166 0.06914 0.0
H572 H 0.64672 0.47377 0.89011 0.0
H573 H 0.60877 0.47771 0.86281 0.0
C574 C 0.02328 0.5898 0.14042 0.0
C575 C 1.01365 0.61615 0.12167 0.0
C576 C 0.99747 0.59256 0.98307 0.0
C577 C 1.01178 0.56722 0.99711 0.0
N578 N 0.04015 0.54183 0.08745 0.0
N579 N 0.9913 0.64334 0.02657 0.0
C580 C 0.02475 0.5657 0.07583 0.0
C581 C 1.00029 0.61768 0.04361 0.0
N582 N 0.03122 0.58791 0.21998 0.0
N583 N 0.98069 0.59238 0.91256 0.0
H584 H 0.99157 0.66185 0.07108 0.0
H585 H 0.98489 0.64657 0.96775 0.0
H586 H 0.97802 0.57421 0.86763 0.0
H587 H 0.9673 0.6094 0.90184 0.0
H588 H 0.03531 0.56881 0.2397 0.0
H589 H 0.03096 0.60534 0.2683 0.0
H590 H 0.05326 0.54058 0.13974 0.0
H591 H 0.04157 0.52364 0.04228 0.0
C592 C 0.89102 0.13782 0.45543 0.0
C593 C 0.91892 0.15019 0.43905 0.0
C594 C 0.94751 0.11562 0.50262 0.0
C595 C 0.91998 0.10151 0.51153 0.0
N596 N 0.86568 0.0975 0.49373 0.0
N597 N 0.97401 0.14852 0.43423 0.0
C598 C 0.89168 0.11219 0.48745 0.0
C599 C 0.94726 0.1385 0.45932 0.0
N600 N 0.8641 0.15085 0.44134 0.0
N601 N 0.97383 0.10763 0.53767 0.0
H602 H 0.97516 0.16548 0.40288 0.0
H603 H 0.99505 0.13854 0.4382 0.0
H604 H 0.97517 0.09075 0.56953 0.0
H605 H 0.99375 0.11926 0.54183 0.0
H606 H 0.84289 0.14451 0.45858 0.0
H607 H 0.86311 0.16938 0.41677 0.0
H608 H 0.84469 0.10271 0.4707 0.0
H609 H 0.86542 0.07894 0.51818 0.0
C610 C 0.34667 0.87017 0.57507 0.0
C611 C 0.33097 0.89641 0.59253 0.0
C612 C 0.36792 0.91412 0.70005 0.0
C613 C 0.38684 0.89033 0.66881 0.0
N614 N 0.39106 0.84231 0.59625 0.0
N615 N 0.31907 0.93821 0.69191 0.0
C616 C 0.37459 0.86689 0.61504 0.0
C617 C 0.33882 0.91643 0.66338 0.0
N618 N 0.33647 0.84879 0.51601 0.0
N619 N 0.37901 0.93558 0.75814 0.0
H620 H 0.29784 0.94002 0.66443 0.0
H621 H 0.32236 0.95289 0.74611 0.0
H622 H 0.39987 0.93409 0.78747 0.0
H623 H 0.36799 0.955 0.77662 0.0
H624 H 0.31598 0.85006 0.48406 0.0
H625 H 0.31598 0.85006 0.48406 0.0
H626 H 0.38328 0.82485 0.55447 0.0
H627 H 0.41189 0.83958 0.62503 0.0
C628 C 0.54304 0.37229 0.7549 0.0
C629 C 0.5482 0.36262 0.66902 0.0
C630 C 0.55805 0.41092 0.64934 0.0
C631 C 0.55178 0.42068 0.73471 0.0
N632 N 0.54968 0.4102 0.87264 0.0
N633 N 0.57038 0.37072 0.54136 0.0
C634 C 0.54822 0.40109 0.78883 0.0
C635 C 0.55926 0.38134 0.61875 0.0
N636 N 0.5313 0.35462 0.8029 0.0
N637 N 0.56054 0.42964 0.59632 0.0
H638 H 0.57155 0.34905 0.51796 0.0
H639 H 0.58112 0.38304 0.50427 0.0
H640 H 0.55992 0.45147 0.61594 0.0
H641 H 0.5613 0.42351 0.53201 0.0
H642 H 0.52369 0.36156 0.86348 0.0
H643 H 0.52723 0.33332 0.7805 0.0
H644 H 0.54965 0.3966 0.91537 0.0
H645 H 0.55436 0.43114 0.89848 0.0
C646 C 0.15787 0.44994 0.29146 0.0
C647 C 0.16381 0.42508 0.32525 0.0
C648 C 0.12057 0.43684 0.41984 0.0
C649 C 0.11612 0.46244 0.38934 0.0
N650 N 0.12583 0.49048 0.28481 0.0
N651 N 0.14585 0.39077 0.40252 0.0
C652 C 0.13278 0.46757 0.32026 0.0
C653 C 0.14327 0.4171 0.38289 0.0
N654 N 0.17661 0.45859 0.23521 0.0
N655 N 0.10479 0.43238 0.48795 0.0
H656 H 0.16247 0.37616 0.37585 0.0
H657 H 0.13001 0.38253 0.43854 0.0
H658 H 0.0876 0.44602 0.51591 0.0
H659 H 0.10997 0.41604 0.51959 0.0
H660 H 0.19646 0.448 0.21117 0.0
H661 H 0.19646 0.448 0.21117 0.0
H662 H 0.13794 0.49526 0.23449 0.0
H663 H 0.10716 0.50382 0.3037 0.0
C664 C 0.10844 0.87687 0.27038 0.0
C665 C 0.12795 0.85385 0.23574 0.0
C666 C 0.14573 0.88017 0.13102 0.0
C667 C 0.12613 0.90301 0.16556 0.0
N668 N 0.09593 0.92666 0.28052 0.0
N669 N 0.17062 0.83622 0.14851 0.0
C670 C 0.11 0.90255 0.23988 0.0
C671 C 0.14851 0.85645 0.17114 0.0
N672 N 0.08689 0.87363 0.32795 0.0
N673 N 0.16034 0.88048 0.05761 0.0
H674 H 0.17314 0.81867 0.17732 0.0
H675 H 0.18806 0.8381 0.10698 0.0
H676 H 0.15935 0.89773 0.02727 0.0
H677 H 0.17195 0.86303 0.02421 0.0
H678 H 0.06989 0.88866 0.34806 0.0
H679 H 0.08423 0.85504 0.35106 0.0
H680 H 0.0863 0.92846 0.33934 0.0
H681 H 0.09666 0.94573 0.25885 0.0
C682 C 0.6826 0.0992 0.31807 0.0
C683 C 0.70365 0.12103 0.31303 0.0
C684 C 0.6708 0.13855 0.21168 0.0
C685 C 0.64967 0.11721 0.21923 0.0
N686 N 0.63076 0.0833 0.29743 0.0
N687 N 0.71533 0.16464 0.26865 0.0
C688 C 0.65395 0.09976 0.27905 0.0
C689 C 0.69685 0.14187 0.26435 0.0
N690 N 0.69073 0.07655 0.3537 0.0
N691 N 0.66655 0.15475 0.15213 0.0
H692 H 0.73452 0.1674 0.30685 0.0
H693 H 0.71033 0.1818 0.24006 0.0
H694 H 0.64722 0.15327 0.11449 0.0
H695 H 0.68278 0.16854 0.13716 0.0
H696 H 0.67729 0.05873 0.35025 0.0
H697 H 0.7121 0.07384 0.37902 0.0
H698 H 0.63171 0.0723 0.34663 0.0
H699 H 0.60942 0.08298 0.2691 0.0
C700 C 0.51147 0.62831 0.01169 0.0
C701 C 0.4879 0.64338 0.97795 0.0
C702 C 0.47302 0.6001 0.88386 0.0
C703 C 0.49562 0.5848 0.92051 0.0
N704 N 0.53425 0.58316 0.02487 0.0
N705 N 0.44398 0.64393 0.89016 0.0
C706 C 0.51407 0.59855 0.98648 0.0
C707 C 0.46802 0.62936 0.91618 0.0
N708 N 0.53218 0.64271 0.06544 0.0
N709 N 0.45661 0.58665 0.81764 0.0
H710 H 0.4402 0.66549 0.91146 0.0
H711 H 0.42671 0.63452 0.85166 0.0
H712 H 0.45818 0.5649 0.79606 0.0
H713 H 0.44245 0.59705 0.78153 0.0
H714 H 0.55201 0.63361 0.08453 0.0
H715 H 0.53093 0.66447 0.08685 0.0
H716 H 0.54534 0.59115 0.08021 0.0
H717 H 0.53873 0.56172 1.00447 0.0
C718 C 0.91017 0.57612 0.2284 0.0
C719 C 0.88816 0.56876 0.28328 0.0
C720 C 0.91695 0.5253 0.29098 0.0
C721 C 0.93487 0.52976 0.22343 0.0
N722 N 0.94786 0.5588 0.12306 0.0
N723 N 0.86833 0.53404 0.35895 0.0
C724 C 0.93184 0.55531 0.19178 0.0
C725 C 0.89118 0.54297 0.31393 0.0
N726 N 0.90984 0.6027 0.21024 0.0
N727 N 0.92414 0.50361 0.33136 0.0
H728 H 0.84866 0.54584 0.37734 0.0
H729 H 0.86777 0.51371 0.37243 0.0
H730 H 0.94316 0.49044 0.31536 0.0
H731 H 0.91314 0.5005 0.38516 0.0
H732 H 0.92696 0.61017 0.17636 0.0
H733 H 0.89383 0.61809 0.23598 0.0
H734 H 0.94405 0.57557 0.09193 0.0
H735 H 0.96355 0.54388 0.0934 0.0
C736 C 1.01253 0.12151 0.99696 0.0
C737 C 0.02657 0.14036 0.95157 0.0
C738 C 0.04213 0.10034 0.84336 0.0
C739 C 0.02616 0.08181 0.88587 0.0
N740 N 0.99388 0.07454 0.99891 0.0
N741 N 0.05236 0.14882 0.82935 0.0
C742 C 1.01069 0.09237 0.96143 0.0
C743 C 0.04085 0.13006 0.87418 0.0
N744 N 1.00164 0.13142 0.07531 0.0
N745 N 0.05858 0.08944 0.77376 0.0
H746 H 0.05246 0.17057 0.8515 0.0
H747 H 0.06022 0.14322 0.76862 0.0
H748 H 0.05873 0.06803 0.74722 0.0
H749 H 0.07338 0.10119 0.74461 0.0
H750 H 0.99459 0.11845 0.11575 0.0
H751 H 1.0016 0.15271 0.10311 0.0
H752 H 0.97866 0.08137 0.04728 0.0
H753 H 0.99368 0.05274 0.97869 0.0
C754 C 0.39796 0.97841 0.9809 0.0
C755 C 0.38427 0.00399 0.02299 0.0
C756 C 0.42402 0.03078 0.96577 0.0
C757 C 0.4399 0.00518 0.93277 0.0
N758 N 0.44335 0.95433 0.91766 0.0
N759 N 0.38535 0.05466 0.06076 0.0
C760 C 0.42702 0.97888 0.9417 0.0
C761 C 0.39756 0.03022 0.01648 0.0
N762 N 0.38311 0.95353 0.97852 0.0
N763 N 0.43365 0.05562 0.94619 0.0
H764 H 0.36536 0.05516 0.09536 0.0
H765 H 0.39593 0.07414 0.06734 0.0
H766 H 0.45234 0.05673 0.9078 0.0
H767 H 0.42154 0.07464 0.96116 0.0
H768 H 0.39008 0.93448 0.94204 0.0
H769 H 0.36222 0.95231 1.00776 0.0
H770 H 0.43707 0.93498 0.93171 0.0
H771 H 0.46466 0.9535 0.88965 0.0
C772 C 0.46622 0.33192 0.18751 0.0
C773 C 0.46549 0.30602 0.12966 0.0
C774 C 0.46343 0.33227 0.01439 0.0
C775 C 0.46191 0.35803 0.07265 0.0
N776 N 0.45674 0.38252 0.21412 0.0
N777 N 0.45963 0.28106 0.98945 0.0
C778 C 0.46172 0.35787 0.15908 0.0
C779 C 0.46302 0.30606 0.04334 0.0
N780 N 0.47261 0.33183 0.26929 0.0
N781 N 0.46605 0.33295 0.93163 0.0
H782 H 0.45958 0.26158 1.00888 0.0
H783 H 0.45464 0.27967 0.9267 0.0
H784 H 0.4656 0.35172 0.90828 0.0
H785 H 0.47068 0.31516 0.8866 0.0
H786 H 0.47703 0.35005 0.31236 0.0
H787 H 0.47615 0.3134 0.29328 0.0
H788 H 0.45273 0.38334 0.27714 0.0
H789 H 0.45412 0.4021 0.19595 0.0
C790 C 0.15115 0.47044 0.97993 0.0
C791 C 0.17047 0.49417 0.98558 0.0
C792 C 0.13094 0.51855 0.91589 0.0
C793 C 0.1127 0.49394 0.9044 0.0
N794 N 0.10806 0.44471 0.91261 0.0
N795 N 0.18072 0.53922 0.94836 0.0
C796 C 0.12355 0.46942 0.93302 0.0
C797 C 0.1609 0.51776 0.95038 0.0
N798 N 0.15869 0.44915 0.02167 0.0
N799 N 0.11909 0.54316 0.89778 0.0
H800 H 0.2025 0.53955 0.9742 0.0
H801 H 0.17657 0.5555 0.91558 0.0
H802 H 0.09734 0.54474 0.87321 0.0
H803 H 0.12974 0.56258 0.91345 0.0
H804 H 0.14391 0.43304 0.02864 0.0
H805 H 0.17883 0.44876 0.05533 0.0
H806 H 0.11643 0.42535 0.92356 0.0
H807 H 0.08809 0.44297 0.87755 0.0
C808 C 0.03582 0.86711 0.63136 0.0
C809 C 1.02111 0.8488 0.67725 0.0
C810 C 1.00465 0.88963 0.78124 0.0
C811 C 1.02124 0.90764 0.73836 0.0
N812 N 0.05757 0.91305 0.63227 0.0
N813 N 0.99495 0.84162 0.8004 0.0
C814 C 0.03814 0.89625 0.66594 0.0
C815 C 1.00654 0.85977 0.75372 0.0
N816 N 0.0472 0.85673 0.55388 0.0
N817 N 0.98608 0.90112 0.84594 0.0
H818 H 0.99521 0.81974 0.78056 0.0
H819 H 0.98698 0.84799 0.86081 0.0
H820 H 0.98395 0.92284 0.86724 0.0
H821 H 0.97102 0.88941 0.87443 0.0
H822 H 0.05469 0.86953 0.5134 0.0
H823 H 0.04705 0.83537 0.52684 0.0
H824 H 0.07304 0.90534 0.58516 0.0
H825 H 0.06046 0.93441 0.65657 0.0
C826 C 0.65509 0.02076 0.6445 0.0
C827 C 0.67676 0.99896 0.65057 0.0
C828 C 0.64099 0.97907 0.74025 0.0
C829 C 0.61869 1.0001 0.73056 0.0
N830 N 0.60201 0.03546 0.65276 0.0
N831 N 0.68905 0.95515 0.69482 0.0
C832 C 0.62514 0.01956 0.67734 0.0
C833 C 0.66932 0.9775 0.69599 0.0
N834 N 0.66319 0.04294 0.60799 0.0
N835 N 0.6353 0.96084 0.79299 0.0
H836 H 0.71006 0.95368 0.66461 0.0
H837 H 0.68387 0.93715 0.71856 0.0
H838 H 0.61438 0.9603 0.82227 0.0
H839 H 0.65164 0.94731 0.81131 0.0
H840 H 0.64966 0.06104 0.61021 0.0
H841 H 0.68454 0.04434 0.58131 0.0
H842 H 0.60446 0.04806 0.60787 0.0
H843 H 0.57947 0.03338 0.66979 0.0
C844 C 0.56729 0.66596 0.43201 0.0
C845 C 0.56866 0.69229 0.48774 0.0
C846 C 0.57714 0.66755 0.60451 0.0
C847 C 0.57674 0.6413 0.54836 0.0
N848 N 0.57653 0.61526 0.40799 0.0
N849 N 0.5794 0.71881 0.62355 0.0
C850 C 0.57348 0.64047 0.46179 0.0
C851 C 0.57498 0.69327 0.57309 0.0
N852 N 0.55876 0.66528 0.35125 0.0
N853 N 0.57883 0.66781 0.68802 0.0
H854 H 0.57762 0.73793 0.60227 0.0
H855 H 0.58701 0.72109 0.68457 0.0
H856 H 0.58169 0.64948 0.71298 0.0
H857 H 0.5757 0.6859 0.73299 0.0
H858 H 0.55361 0.64679 0.31017 0.0
H859 H 0.55473 0.68341 0.32612 0.0
H860 H 0.57797 0.61354 0.34385 0.0
H861 H 0.57991 0.596 0.42759 0.0
C862 C 0.90292 0.51556 0.60563 0.0
C863 C 0.87709 0.50553 0.64282 0.0
C864 C 0.91005 0.49632 0.75763 0.0
C865 C 0.93639 0.50281 0.71442 0.0
N866 N 0.95744 0.51175 0.5857 0.0
N867 N 0.85698 0.4824 0.74917 0.0
C868 C 0.93269 0.51055 0.63518 0.0
C869 C 0.88094 0.49473 0.71744 0.0
N870 N 0.89905 0.53103 0.54418 0.0
N871 N 0.91248 0.49304 0.83851 0.0
H872 H 0.83548 0.48091 0.72157 0.0
H873 H 0.85914 0.47152 0.79841 0.0
H874 H 0.93296 0.49528 0.87124 0.0
H875 H 0.89371 0.49102 0.87565 0.0
H876 H 0.91692 0.54114 0.52038 0.0
H877 H 0.87761 0.53635 0.52364 0.0
H878 H 0.95565 0.51467 0.52435 0.0
H879 H 0.97939 0.50645 0.60236 0.0
loop_
_geom_bond_atom_site_label_1
_geom_bond_atom_site_label_2
_geom_bond_distance
_geom_bond_site_symmetry_2
_ccdc_geom_bond_type
C0 C1 1.384 . S
C0 H13 0.947 . S
C0 C35 1.382 . S
C1 C0 1.384 . S
C1 C2 1.378 . S
C2 C1 1.378 . S
C2 C3 1.378 . S
C2 H14 0.952 . S
C3 C2 1.378 . S
C3 H15 0.950 . S
C3 C34 1.383 . S
H4 C23 0.947 . S
H5 C24 0.946 . S
H6 C26 0.953 . S
H7 C27 0.945 . S
H8 C29 0.952 . S
H9 C30 0.949 . S
H10 C32 0.950 . S
H11 C33 0.948 . S
H12 C35 0.951 . S
H13 C0 0.947 . S
H14 C2 0.952 . S
H15 C3 0.950 . S
N16 C19 1.382 . S
N16 C21 1.363 . S
N17 C19 1.371 . S
N17 C20 1.372 . S
N18 C20 1.361 . S
N18 C21 1.377 . S
C19 N16 1.382 . S
C19 N17 1.371 . S
C19 C22 1.480 . S
C20 N17 1.372 . S
C20 N18 1.361 . S
C20 C28 1.457 . S
C21 N16 1.363 . S
C21 N18 1.377 . S
C21 C34 1.479 . S
C22 C19 1.480 . S
C22 C23 1.383 . S
C22 C27 1.385 . S
C23 H4 0.947 . S
C23 C22 1.383 . S
C23 C24 1.388 . S
C24 H5 0.946 . S
C24 C23 1.388 . S
C24 C25 1.384 . S
C25 C24 1.384 . S
C25 C26 1.377 . S
C26 H6 0.953 . S
C26 C25 1.377 . S
C26 C27 1.369 . S
C27 H7 0.945 . S
C27 C22 1.385 . S
C27 C26 1.369 . S
C28 C20 1.457 . S
C28 C29 1.372 . S
C28 C33 1.364 . S
C29 H8 0.952 . S
C29 C28 1.372 . S
C29 C30 1.389 . S
C30 H9 0.949 . S
C30 C29 1.389 . S
C30 C31 1.387 . S
C31 C30 1.387 . S
C31 C32 1.372 . S
C32 H10 0.950 . S
C32 C31 1.372 . S
C32 C33 1.379 . S
C33 H11 0.948 . S
C33 C28 1.364 . S
C33 C32 1.379 . S
C34 C3 1.383 . S
C34 C21 1.479 . S
C34 C35 1.398 . S
C35 C0 1.382 . S
C35 H12 0.951 . S
C35 C34 1.398 . S
C36 C37 1.384 1_655 S
C36 H49 0.948 . S
C36 C71 1.382 1_655 S
C37 C36 1.384 1_455 S
C37 C38 1.378 . S
C38 C37 1.378 . S
C38 C39 1.378 . S
C38 H50 0.952 . S
C39 C38 1.378 . S
C39 H51 0.950 . S
C39 C70 1.383 . S
H40 C59 0.947 . S
H41 C60 0.952 . S
H42 C62 0.953 . S
H43 C63 0.945 . S
H44 C65 0.948 1_655 S
H45 C66 0.949 . S
H46 C68 0.950 . S
H47 C69 0.948 . S
H48 C71 0.951 1_655 S
H49 C36 0.948 . S
H50 C38 0.952 . S
H51 C39 0.950 . S
N52 C55 1.382 . S
N52 C57 1.363 . S
N53 C55 1.371 . S
N53 C56 1.372 . S
N54 C56 1.361 . S
N54 C57 1.377 . S
C55 N52 1.382 . S
C55 N53 1.371 . S
C55 C58 1.480 . S
C56 N53 1.372 . S
C56 N54 1.361 . S
C56 C64 1.457 . S
C57 N52 1.363 . S
C57 N54 1.377 . S
C57 C70 1.479 . S
C58 C55 1.480 . S
C58 C59 1.383 . S
C58 C63 1.385 . S
C59 H40 0.947 . S
C59 C58 1.383 . S
C59 C60 1.385 1_455 S
C60 H41 0.952 . S
C60 C59 1.385 1_655 S
C60 C61 1.381 1_655 S
C61 C60 1.381 1_455 S
C61 C62 1.377 . S
C62 H42 0.953 . S
C62 C61 1.377 . S
C62 C63 1.369 . S
C63 H43 0.945 . S
C63 C58 1.385 . S
C63 C62 1.369 . S
C64 C56 1.457 . S
C64 C65 1.377 . S
C64 C69 1.364 . S
C65 H44 0.948 1_455 S
C65 C64 1.377 . S
C65 C66 1.388 1_455 S
C66 H45 0.949 . S
C66 C65 1.388 1_655 S
C66 C67 1.387 1_655 S
C67 C66 1.387 1_455 S
C67 C68 1.372 . S
C68 H46 0.950 . S
C68 C67 1.372 . S
C68 C69 1.379 . S
C69 H47 0.948 . S
C69 C64 1.364 . S
C69 C68 1.379 . S
C70 C39 1.383 . S
C70 C57 1.479 . S
C70 C71 1.398 . S
C71 C36 1.382 1_455 S
C71 H48 0.951 1_455 S
C71 C70 1.398 . S
C72 C73 1.384 1_565 S
C72 H85 0.948 . S
C72 C107 1.381 1_565 S
C73 C72 1.384 1_545 S
C73 C74 1.378 . S
C74 C73 1.378 . S
C74 C75 1.378 . S
C74 H86 0.952 . S
C75 C74 1.378 . S
C75 H87 0.950 . S
C75 C106 1.383 . S
H76 C95 0.947 . S
H77 C96 0.955 . S
H78 C98 0.953 . S
H79 C99 0.945 . S
H80 C101 0.950 1_565 S
H81 C102 0.949 . S
H82 C104 0.950 . S
H83 C105 0.948 . S
H84 C107 0.951 1_565 S
H85 C72 0.948 . S
H86 C74 0.952 . S
H87 C75 0.950 . S
N88 C91 1.382 . S
N88 C93 1.363 . S
N89 C91 1.371 . S
N89 C92 1.372 . S
N90 C92 1.361 . S
N90 C93 1.377 . S
C91 N88 1.382 . S
C91 N89 1.371 . S
C91 C94 1.480 . S
C92 N89 1.372 . S
C92 N90 1.361 . S
C92 C100 1.457 . S
C93 N88 1.363 . S
C93 N90 1.377 . S
C93 C106 1.479 . S
C94 C91 1.480 . S
C94 C95 1.383 . S
C94 C99 1.385 . S
C95 H76 0.947 . S
C95 C94 1.383 . S
C95 C96 1.388 1_545 S
C96 H77 0.955 . S
C96 C95 1.388 1_565 S
C96 C97 1.376 1_565 S
C97 C96 1.376 1_545 S
C97 C98 1.377 . S
C98 H78 0.953 . S
C98 C97 1.377 . S
C98 C99 1.369 . S
C99 H79 0.945 . S
C99 C94 1.385 . S
C99 C98 1.369 . S
C100 C92 1.457 . S
C100 C101 1.372 . S
C100 C105 1.364 . S
C101 H80 0.950 1_545 S
C101 C100 1.372 . S
C101 C102 1.390 1_545 S
C102 H81 0.949 . S
C102 C101 1.390 1_565 S
C102 C103 1.387 1_565 S
C103 C102 1.387 1_545 S
C103 C104 1.372 . S
C104 H82 0.950 . S
C104 C103 1.372 . S
C104 C105 1.379 . S
C105 H83 0.948 . S
C105 C100 1.364 . S
C105 C104 1.379 . S
C106 C75 1.383 . S
C106 C93 1.479 . S
C106 C107 1.398 . S
C107 C72 1.381 1_545 S
C107 H84 0.951 1_545 S
C107 C106 1.398 . S
C108 C109 1.384 . S
C108 H121 0.947 . S
C108 C143 1.382 . S
C109 C108 1.384 . S
C109 C110 1.378 . S
C110 C109 1.378 . S
C110 C111 1.378 . S
C110 H122 0.952 . S
C111 C110 1.378 . S
C111 H123 0.950 . S
C111 C142 1.383 . S
H112 C131 0.947 . S
H113 C132 0.946 . S
H114 C134 0.953 . S
H115 C135 0.945 . S
H116 C137 0.952 . S
H117 C138 0.949 . S
H118 C140 0.950 . S
H119 C141 0.948 . S
H120 C143 0.951 . S
H121 C108 0.947 . S
H122 C110 0.952 . S
H123 C111 0.950 . S
N124 C127 1.382 . S
N124 C129 1.363 . S
N125 C127 1.371 1_554 S
N125 C128 1.372 . S
N126 C128 1.361 . S
N126 C129 1.377 1_554 S
C127 N124 1.382 . S
C127 N125 1.371 1_556 S
C127 C130 1.480 . S
C128 N125 1.372 . S
C128 N126 1.361 . S
C128 C136 1.457 . S
C129 N124 1.363 . S
C129 N126 1.377 1_556 S
C129 C142 1.479 . S
C130 C127 1.480 . S
C130 C131 1.383 . S
C130 C135 1.385 1_556 S
C131 H112 0.947 . S
C131 C130 1.383 . S
C131 C132 1.388 . S
C132 H113 0.946 . S
C132 C131 1.388 . S
C132 C133 1.384 . S
C133 C132 1.384 . S
C133 C134 1.377 1_556 S
C134 H114 0.953 . S
C134 C133 1.377 1_554 S
C134 C135 1.369 . S
C135 H115 0.945 . S
C135 C130 1.385 1_554 S
C135 C134 1.369 . S
C136 C128 1.457 . S
C136 C137 1.372 . S
C136 C141 1.364 . S
C137 H116 0.952 . S
C137 C136 1.372 . S
C137 C138 1.389 . S
C138 H117 0.949 . S
C138 C137 1.389 . S
C138 C139 1.387 . S
C139 C138 1.387 . S
C139 C140 1.372 . S
C140 H118 0.950 . S
C140 C139 1.372 . S
C140 C141 1.379 . S
C141 H119 0.948 . S
C141 C136 1.364 . S
C141 C140 1.379 . S
C142 C111 1.383 . S
C142 C129 1.479 . S
C142 C143 1.398 . S
C143 C108 1.382 . S
C143 H120 0.951 . S
C143 C142 1.398 . S
C144 C145 1.384 . S
C144 H157 0.947 . S
C144 C179 1.382 . S
C145 C144 1.384 . S
C145 C146 1.378 . S
C146 C145 1.378 . S
C146 C147 1.378 . S
C146 H158 0.952 . S
C147 C146 1.378 . S
C147 H159 0.950 . S
C147 C178 1.383 1_556 S
H148 C167 0.947 . S
H149 C168 0.946 . S
H150 C170 0.953 . S
H151 C171 0.945 . S
H152 C173 0.952 . S
H153 C174 0.949 . S
H154 C176 0.950 . S
H155 C177 0.948 . S
H156 C179 0.951 1_554 S
H157 C144 0.947 . S
H158 C146 0.952 . S
H159 C147 0.950 . S
N160 C163 1.382 . S
N160 C165 1.363 . S
N161 C163 1.371 . S
N161 C164 1.372 . S
N162 C164 1.361 . S
N162 C165 1.377 . S
C163 N160 1.382 . S
C163 N161 1.371 . S
C163 C166 1.480 . S
C164 N161 1.372 . S
C164 N162 1.361 . S
C164 C172 1.457 . S
C165 N160 1.363 . S
C165 N162 1.377 . S
C165 C178 1.479 . S
C166 C163 1.480 . S
C166 C167 1.383 . S
C166 C171 1.385 . S
C167 H148 0.947 . S
C167 C166 1.383 . S
C167 C168 1.388 . S
C168 H149 0.946 . S
C168 C167 1.388 . S
C168 C169 1.384 . S
C169 C168 1.384 . S
C169 C170 1.377 . S
C170 H150 0.953 . S
C170 C169 1.377 . S
C170 C171 1.369 . S
C171 H151 0.945 . S
C171 C166 1.385 . S
C171 C170 1.369 . S
C172 C164 1.457 . S
C172 C173 1.372 . S
C172 C177 1.364 . S
C173 H152 0.952 . S
C173 C172 1.372 . S
C173 C174 1.389 . S
C174 H153 0.949 . S
C174 C173 1.389 . S
C174 C175 1.387 . S
C175 C174 1.387 . S
C175 C176 1.372 . S
C176 H154 0.950 . S
C176 C175 1.372 . S
C176 C177 1.379 . S
C177 H155 0.948 . S
C177 C172 1.364 . S
C177 C176 1.379 . S
C178 C147 1.383 1_554 S
C178 C165 1.479 . S
C178 C179 1.398 1_554 S
C179 C144 1.382 . S
C179 H156 0.951 1_556 S
C179 C178 1.398 1_556 S
C180 C181 1.384 1_655 S
C180 H193 0.947 . S
C180 C215 1.382 1_656 S
C181 C180 1.384 1_455 S
C181 C182 1.378 . S
C182 C181 1.378 . S
C182 C183 1.378 1_556 S
C182 H194 0.952 . S
C183 C182 1.378 1_554 S
C183 H195 0.950 . S
C183 C214 1.383 . S
H184 C203 0.947 . S
H185 C204 0.949 . S
H186 C206 0.953 . S
H187 C207 0.945 . S
H188 C209 0.948 1_655 S
H189 C210 0.954 . S
H190 C212 0.950 . S
H191 C213 0.948 . S
H192 C215 0.950 1_655 S
H193 C180 0.947 . S
H194 C182 0.952 . S
H195 C183 0.950 . S
N196 C199 1.382 . S
N196 C201 1.363 . S
N197 C199 1.371 . S
N197 C200 1.372 . S
N198 C200 1.361 . S
N198 C201 1.377 . S
C199 N196 1.382 . S
C199 N197 1.371 . S
C199 C202 1.480 . S
C200 N197 1.372 . S
C200 N198 1.361 . S
C200 C208 1.457 . S
C201 N196 1.363 . S
C201 N198 1.377 . S
C201 C214 1.479 . S
C202 C199 1.480 . S
C202 C203 1.383 . S
C202 C207 1.385 . S
C203 H184 0.947 . S
C203 C202 1.383 . S
C203 C204 1.387 1_455 S
C204 H185 0.949 . S
C204 C203 1.387 1_655 S
C204 C205 1.382 1_655 S
C205 C204 1.382 1_455 S
C205 C206 1.377 . S
C206 H186 0.953 . S
C206 C205 1.377 . S
C206 C207 1.369 . S
C207 H187 0.945 . S
C207 C202 1.385 . S
C207 C206 1.369 . S
C208 C200 1.457 . S
C208 C209 1.379 . S
C208 C213 1.364 . S
C209 H188 0.948 1_455 S
C209 C208 1.379 . S
C209 C210 1.385 1_455 S
C210 H189 0.954 . S
C210 C209 1.385 1_655 S
C210 C211 1.384 1_655 S
C211 C210 1.384 1_455 S
C211 C212 1.372 . S
C212 H190 0.950 . S
C212 C211 1.372 . S
C212 C213 1.379 . S
C213 H191 0.948 . S
C213 C208 1.364 . S
C213 C212 1.379 . S
C214 C183 1.383 . S
C214 C201 1.479 . S
C214 C215 1.400 . S
C215 C180 1.382 1_454 S
C215 H192 0.950 1_455 S
C215 C214 1.400 . S
C216 C217 1.385 1_565 S
C216 H229 0.947 . S
C216 C251 1.383 1_566 S
C217 C216 1.385 1_545 S
C217 C218 1.378 . S
C218 C217 1.378 . S
C218 C219 1.378 . S
C218 H230 0.952 . S
C219 C218 1.378 . S
C219 H231 0.950 . S
C219 C250 1.383 1_556 S
H220 C239 0.947 . S
H221 C240 0.947 . S
H222 C242 0.953 . S
H223 C243 0.945 . S
H224 C245 0.946 1_565 S
H225 C246 0.961 . S
H226 C248 0.950 . S
H227 C249 0.948 . S
H228 C251 0.949 1_565 S
H229 C216 0.947 . S
H230 C218 0.952 . S
H231 C219 0.950 . S
N232 C235 1.382 . S
N232 C237 1.363 . S
N233 C235 1.371 . S
N233 C236 1.372 . S
N234 C236 1.361 . S
N234 C237 1.377 . S
C235 N232 1.382 . S
C235 N233 1.371 . S
C235 C238 1.480 . S
C236 N233 1.372 . S
C236 N234 1.361 . S
C236 C244 1.457 . S
C237 N232 1.363 . S
C237 N234 1.377 . S
C237 C250 1.479 . S
C238 C235 1.480 . S
C238 C239 1.383 . S
C238 C243 1.385 . S
C239 H220 0.947 . S
C239 C238 1.383 . S
C239 C240 1.385 1_545 S
C240 H221 0.947 . S
C240 C239 1.385 1_565 S
C240 C241 1.386 1_565 S
C241 C240 1.386 1_545 S
C241 C242 1.377 . S
C242 H222 0.953 . S
C242 C241 1.377 . S
C242 C243 1.369 . S
C243 H223 0.945 . S
C243 C238 1.385 . S
C243 C242 1.369 . S
C244 C236 1.457 . S
C244 C245 1.385 . S
C244 C249 1.364 . S
C245 H224 0.946 1_545 S
C245 C244 1.385 . S
C245 C246 1.378 1_545 S
C246 H225 0.961 . S
C246 C245 1.378 1_565 S
C246 C247 1.381 1_565 S
C247 C246 1.381 1_545 S
C247 C248 1.372 . S
C248 H226 0.950 . S
C248 C247 1.372 . S
C248 C249 1.379 . S
C249 H227 0.948 . S
C249 C244 1.364 . S
C249 C248 1.379 . S
C250 C219 1.383 1_554 S
C250 C237 1.479 . S
C250 C251 1.399 . S
C251 C216 1.383 1_544 S
C251 H228 0.949 1_545 S
C251 C250 1.399 . S
C252 C253 1.384 . S
C252 H265 0.947 . S
C252 C287 1.382 . S
C253 C252 1.384 . S
C253 C254 1.378 . S
C254 C253 1.378 . S
C254 C255 1.378 . S
C254 H266 0.952 . S
C255 C254 1.378 . S
C255 H267 0.950 . S
C255 C286 1.383 . S
H256 C275 0.947 . S
H257 C276 0.946 . S
H258 C278 0.953 . S
H259 C279 0.945 . S
H260 C281 0.952 . S
H261 C282 0.949 . S
H262 C284 0.950 . S
H263 C285 0.948 . S
H264 C287 0.951 . S
H265 C252 0.947 . S
H266 C254 0.952 . S
H267 C255 0.950 . S
N268 C271 1.382 . S
N268 C273 1.363 . S
N269 C271 1.371 . S
N269 C272 1.372 . S
N270 C272 1.361 . S
N270 C273 1.377 . S
C271 N268 1.382 . S
C271 N269 1.371 . S
C271 C274 1.480 . S
C272 N269 1.372 . S
C272 N270 1.361 . S
C272 C280 1.457 . S
C273 N268 1.363 . S
C273 N270 1.377 . S
C273 C286 1.479 . S
C274 C271 1.480 . S
C274 C275 1.383 . S
C274 C279 1.385 . S
C275 H256 0.947 . S
C275 C274 1.383 . S
C275 C276 1.388 . S
C276 H257 0.946 . S
C276 C275 1.388 . S
C276 C277 1.384 . S
C277 C276 1.384 . S
C277 C278 1.377 . S
C278 H258 0.953 . S
C278 C277 1.377 . S
C278 C279 1.369 . S
C279 H259 0.945 . S
C279 C274 1.385 . S
C279 C278 1.369 . S
C280 C272 1.457 . S
C280 C281 1.372 . S
C280 C285 1.364 . S
C281 H260 0.952 . S
C281 C280 1.372 . S
C281 C282 1.389 . S
C282 H261 0.949 . S
C282 C281 1.389 . S
C282 C283 1.387 . S
C283 C282 1.387 . S
C283 C284 1.372 . S
C284 H262 0.950 . S
C284 C283 1.372 . S
C284 C285 1.379 . S
C285 H263 0.948 . S
C285 C280 1.364 . S
C285 C284 1.379 . S
C286 C255 1.383 . S
C286 C273 1.479 . S
C286 C287 1.398 . S
C287 C252 1.382 . S
C287 H264 0.951 . S
C287 C286 1.398 . S
Tb288 C297 2.764 . S
Tb288 O298 2.325 . S
Tb288 O301 2.303 1_655 S
Tb288 O305 2.322 1_545 S
Tb288 O306 2.349 . S
Tb288 O309 2.415 . S
Tb288 O310 2.399 . S
Tb289 O299 2.322 1_565 S
Tb289 O300 2.349 . S
Tb289 O302 2.415 . S
Tb289 O303 2.399 . S
Tb289 O304 2.325 . S
Tb289 O307 2.303 1_455 S
Tb289 C318 2.764 . S
C290 O306 1.261 . S
C290 O307 1.257 1_545 S
C291 C294 1.358 . S
C291 C295 1.332 . S
C291 C297 1.504 . S
C292 C293 1.373 . S
C292 C296 1.308 . S
C293 C292 1.373 . S
C293 C294 1.429 . S
C293 H320 0.932 . S
C294 C291 1.358 . S
C294 C293 1.429 . S
C294 H321 0.930 . S
C295 C291 1.332 . S
C295 C296 1.394 . S
C295 H322 0.903 1_655 S
C296 C292 1.308 . S
C296 C295 1.394 . S
C296 H323 0.929 . S
C297 Tb288 2.764 . S
C297 C291 1.504 . S
C297 O309 1.239 . S
C297 O310 1.263 . S
O298 Tb288 2.325 . S
O298 C308 1.236 1_655 S
O299 Tb289 2.322 1_545 S
O299 C308 1.257 . S
O300 Tb289 2.349 . S
O300 C311 1.261 . S
O301 Tb288 2.303 1_455 S
O301 C311 1.257 1_545 S
O302 Tb289 2.415 . S
O302 C318 1.239 . S
O303 Tb289 2.399 . S
O303 C318 1.263 . S
O304 Tb289 2.325 . S
O304 C319 1.236 1_455 S
O305 Tb288 2.322 1_565 S
O305 C319 1.257 . S
O306 Tb288 2.349 . S
O306 C290 1.261 . S
O307 Tb289 2.303 1_655 S
O307 C290 1.257 1_565 S
C308 O298 1.236 1_455 S
C308 O299 1.257 . S
O309 Tb288 2.415 . S
O309 C297 1.239 . S
O310 Tb288 2.399 . S
O310 C297 1.263 . S
C311 O300 1.261 . S
C311 O301 1.257 1_565 S
C312 C315 1.358 1_556 S
C312 C316 1.332 1_556 S
C312 C318 1.504 . S
C313 C314 1.373 . S
C313 C317 1.308 . S
C314 C313 1.373 . S
C314 C315 1.429 . S
C314 H324 0.932 . S
C315 C312 1.358 1_554 S
C315 C314 1.429 . S
C315 H325 0.930 1_554 S
C316 C312 1.332 1_554 S
C316 C317 1.394 . S
C316 H326 0.911 1_455 S
C317 C313 1.308 . S
C317 C316 1.394 . S
C317 H327 0.929 . S
C318 Tb289 2.764 . S
C318 O302 1.239 . S
C318 O303 1.263 . S
C318 C312 1.504 . S
C319 O304 1.236 1_655 S
C319 O305 1.257 . S
H320 C293 0.932 . S
H321 C294 0.930 . S
H322 C295 0.903 1_455 S
H323 C296 0.929 . S
H324 C314 0.932 . S
H325 C315 0.930 1_556 S
H326 C316 0.911 1_655 S
H327 C317 0.929 . S
Tb328 C337 2.764 . S
Tb328 O338 2.325 . S
Tb328 O341 2.303 1_565 S
Tb328 O345 2.322 . S
Tb328 O346 2.349 . S
Tb328 O349 2.415 1_565 S
Tb328 O350 2.399 . S
Tb329 O339 2.322 . S
Tb329 O340 2.349 . S
Tb329 O342 2.415 1_545 S
Tb329 O343 2.399 . S
Tb329 O344 2.325 . S
Tb329 O347 2.303 1_545 S
Tb329 C358 2.764 1_556 S
C330 O346 1.261 . S
C330 O347 1.257 . S
C331 C334 1.358 . S
C331 C335 1.312 1_565 S
C331 C337 1.504 . S
C332 C333 1.373 . S
C332 C336 1.308 . S
C333 C332 1.373 . S
C333 C334 1.429 . S
C333 H360 0.932 . S
C334 C331 1.358 . S
C334 C333 1.429 . S
C334 H361 0.930 . S
C335 C331 1.312 1_545 S
C335 C336 1.395 1_545 S
C335 H362 0.952 . S
C336 C332 1.308 . S
C336 C335 1.395 1_565 S
C336 H363 0.929 1_565 S
C337 Tb328 2.764 . S
C337 C331 1.504 . S
C337 O349 1.239 1_565 S
C337 O350 1.263 . S
O338 Tb328 2.325 . S
O338 C348 1.236 1_565 S
O339 Tb329 2.322 . S
O339 C348 1.257 . S
O340 Tb329 2.349 . S
O340 C351 1.261 . S
O341 Tb328 2.303 1_545 S
O341 C351 1.257 . S
O342 Tb329 2.415 1_565 S
O342 C358 1.239 1_566 S
O343 Tb329 2.399 . S
O343 C358 1.263 1_556 S
O344 Tb329 2.325 . S
O344 C359 1.236 1_545 S
O345 Tb328 2.322 . S
O345 C359 1.257 . S
O346 Tb328 2.349 . S
O346 C330 1.261 . S
O347 Tb329 2.303 1_565 S
O347 C330 1.257 . S
C348 O338 1.236 1_545 S
C348 O339 1.257 . S
O349 Tb328 2.415 1_545 S
O349 C337 1.239 1_545 S
O350 Tb328 2.399 . S
O350 C337 1.263 . S
C351 O340 1.261 . S
C351 O341 1.257 . S
C352 C355 1.358 . S
C352 C356 1.320 1_545 S
C352 C358 1.504 . S
C353 C354 1.373 . S
C353 C357 1.308 . S
C354 C353 1.373 . S
C354 C355 1.429 . S
C354 H364 0.932 . S
C355 C352 1.358 . S
C355 C354 1.429 . S
C355 H365 0.930 . S
C356 C352 1.320 1_565 S
C356 C357 1.395 1_565 S
C356 H366 0.944 . S
C357 C353 1.308 . S
C357 C356 1.395 1_545 S
C357 H367 0.929 1_545 S
C358 Tb329 2.764 1_554 S
C358 O342 1.239 1_544 S
C358 O343 1.263 1_554 S
C358 C352 1.504 . S
C359 O344 1.236 1_565 S
C359 O345 1.257 . S
H360 C333 0.932 . S
H361 C334 0.930 . S
H362 C335 0.952 . S
H363 C336 0.929 1_545 S
H364 C354 0.932 . S
H365 C355 0.930 . S
H366 C356 0.944 . S
H367 C357 0.929 1_565 S
Tb368 C377 2.764 1_556 S
Tb368 O378 2.325 . S
Tb368 O381 2.303 . S
Tb368 O385 2.322 . S
Tb368 O386 2.349 . S
Tb368 O389 2.415 1_556 S
Tb368 O390 2.399 . S
Tb369 O379 2.322 . S
Tb369 O380 2.349 . S
Tb369 O382 2.415 . S
Tb369 O383 2.399 . S
Tb369 O384 2.325 . S
Tb369 O387 2.303 . S
Tb369 C398 2.764 . S
C370 O386 1.261 . S
C370 O387 1.257 . S
C371 C374 1.358 . S
C371 C375 1.332 . S
C371 C377 1.504 . S
C372 C373 1.373 . S
C372 C376 1.308 . S
C373 C372 1.373 . S
C373 C374 1.429 . S
C373 H400 0.932 . S
C374 C371 1.358 . S
C374 C373 1.429 . S
C374 H401 0.930 . S
C375 C371 1.332 . S
C375 C376 1.394 . S
C375 H402 0.932 . S
C376 C372 1.308 . S
C376 C375 1.394 . S
C376 H403 0.929 . S
C377 Tb368 2.764 1_554 S
C377 C371 1.504 . S
C377 O389 1.239 . S
C377 O390 1.263 1_554 S
O378 Tb368 2.325 . S
O378 C388 1.236 . S
O379 Tb369 2.322 . S
O379 C388 1.257 . S
O380 Tb369 2.349 . S
O380 C391 1.261 . S
O381 Tb368 2.303 . S
O381 C391 1.257 . S
O382 Tb369 2.415 . S
O382 C398 1.239 . S
O383 Tb369 2.399 . S
O383 C398 1.263 . S
O384 Tb369 2.325 . S
O384 C399 1.236 . S
O385 Tb368 2.322 . S
O385 C399 1.257 . S
O386 Tb368 2.349 . S
O386 C370 1.261 . S
O387 Tb369 2.303 . S
O387 C370 1.257 . S
C388 O378 1.236 . S
C388 O379 1.257 . S
O389 Tb368 2.415 1_554 S
O389 C377 1.239 . S
O390 Tb368 2.399 . S
O390 C377 1.263 1_556 S
C391 O380 1.261 . S
C391 O381 1.257 . S
C392 C395 1.358 . S
C392 C396 1.332 . S
C392 C398 1.504 . S
C393 C394 1.373 . S
C393 C397 1.308 . S
C394 C393 1.373 . S
C394 C395 1.429 . S
C394 H404 0.932 . S
C395 C392 1.358 . S
C395 C394 1.429 . S
C395 H405 0.930 . S
C396 C392 1.332 . S
C396 C397 1.394 . S
C396 H406 0.932 . S
C397 C393 1.308 . S
C397 C396 1.394 . S
C397 H407 0.929 . S
C398 Tb369 2.764 . S
C398 O382 1.239 . S
C398 O383 1.263 . S
C398 C392 1.504 . S
C399 O384 1.236 . S
C399 O385 1.257 . S
H400 C373 0.932 . S
H401 C374 0.930 . S
H402 C375 0.932 . S
H403 C376 0.929 . S
H404 C394 0.932 . S
H405 C395 0.930 . S
H406 C396 0.932 . S
H407 C397 0.929 . S
Tb408 C417 2.764 . S
Tb408 O418 2.325 . S
Tb408 O421 2.303 . S
Tb408 O425 2.322 1_455 S
Tb408 O426 2.349 . S
Tb408 O429 2.415 . S
Tb408 O430 2.399 . S
Tb409 O419 2.322 1_655 S
Tb409 O420 2.349 . S
Tb409 O422 2.415 . S
Tb409 O423 2.399 . S
Tb409 O424 2.325 . S
Tb409 O427 2.303 . S
Tb409 C438 2.764 . S
C410 O426 1.261 . S
C410 O427 1.257 1_455 S
C411 C414 1.358 . S
C411 C415 1.332 . S
C411 C417 1.504 . S
C412 C413 1.373 . S
C412 C416 1.308 . S
C413 C412 1.373 . S
C413 C414 1.429 . S
C413 H440 0.932 . S
C414 C411 1.358 . S
C414 C413 1.429 . S
C414 H441 0.930 . S
C415 C411 1.332 . S
C415 C416 1.394 . S
C415 H442 0.932 . S
C416 C412 1.308 . S
C416 C415 1.394 . S
C416 H443 0.929 . S
C417 Tb408 2.764 . S
C417 C411 1.504 . S
C417 O429 1.239 . S
C417 O430 1.263 . S
O418 Tb408 2.325 . S
O418 C428 1.236 . S
O419 Tb409 2.322 1_455 S
O419 C428 1.257 . S
O420 Tb409 2.349 . S
O420 C431 1.261 . S
O421 Tb408 2.303 . S
O421 C431 1.257 1_455 S
O422 Tb409 2.415 . S
O422 C438 1.239 . S
O423 Tb409 2.399 . S
O423 C438 1.263 . S
O424 Tb409 2.325 . S
O424 C439 1.236 . S
O425 Tb408 2.322 1_655 S
O425 C439 1.257 . S
O426 Tb408 2.349 . S
O426 C410 1.261 . S
O427 Tb409 2.303 . S
O427 C410 1.257 1_655 S
C428 O418 1.236 . S
C428 O419 1.257 . S
O429 Tb408 2.415 . S
O429 C417 1.239 . S
O430 Tb408 2.399 . S
O430 C417 1.263 . S
C431 O420 1.261 . S
C431 O421 1.257 1_655 S
C432 C435 1.358 . S
C432 C436 1.332 . S
C432 C438 1.504 1_554 S
C433 C434 1.373 . S
C433 C437 1.308 . S
C434 C433 1.373 . S
C434 C435 1.429 . S
C434 H444 0.932 . S
C435 C432 1.358 . S
C435 C434 1.429 . S
C435 H445 0.926 1_554 S
C436 C432 1.332 . S
C436 C437 1.394 . S
C436 H446 0.932 . S
C437 C433 1.308 . S
C437 C436 1.394 . S
C437 H447 0.929 . S
C438 Tb409 2.764 . S
C438 O422 1.239 . S
C438 O423 1.263 . S
C438 C432 1.504 1_556 S
C439 O424 1.236 . S
C439 O425 1.257 . S
H440 C413 0.932 . S
H441 C414 0.930 . S
H442 C415 0.932 . S
H443 C416 0.929 . S
H444 C434 0.932 . S
H445 C435 0.926 1_556 S
H446 C436 0.932 . S
H447 C437 0.929 . S
C448 C449 1.330 1_565 S
C448 C454 1.379 . S
C448 N456 1.356 . S
C449 C448 1.330 1_545 S
C449 C455 1.389 . S
C450 C451 1.363 . S
C450 C455 1.379 . S
C450 N457 1.356 . S
C451 C450 1.363 . S
C451 C454 1.363 1_545 S
N452 C454 1.356 . S
N452 H464 0.984 . S
N452 H465 0.985 . S
N453 C455 1.356 . S
N453 H458 0.984 . S
N453 H459 0.985 . S
C454 C448 1.379 . S
C454 C451 1.363 1_565 S
C454 N452 1.356 . S
C455 C449 1.389 . S
C455 C450 1.379 . S
C455 N453 1.356 . S
N456 C448 1.356 . S
N456 H462 0.984 . S
N456 H463 0.984 . S
N457 C450 1.356 . S
N457 H460 0.984 . S
N457 H461 0.985 . S
H458 N453 0.984 . S
H459 N453 0.985 . S
H460 N457 0.984 . S
H461 N457 0.985 . S
H462 N456 0.984 . S
H463 N456 0.984 . S
H464 N452 0.984 . S
H465 N452 0.985 . S
C466 C467 1.363 . S
C466 C472 1.379 . S
C466 N474 1.356 . S
C467 C466 1.363 . S
C467 C473 1.363 . S
C468 C469 1.363 . S
C468 C473 1.379 . S
C468 N475 1.356 . S
C469 C468 1.363 . S
C469 C472 1.363 . S
N470 C472 1.356 . S
N470 H482 0.984 . S
N470 H483 0.985 . S
N471 C473 1.356 . S
N471 H476 0.984 . S
N471 H477 0.985 . S
C472 C466 1.379 . S
C472 C469 1.363 . S
C472 N470 1.356 . S
C473 C467 1.363 . S
C473 C468 1.379 . S
C473 N471 1.356 . S
N474 C466 1.356 . S
N474 H480 0.984 . S
N474 H481 0.984 . S
N475 C468 1.356 . S
N475 H478 0.984 . S
N475 H479 0.985 . S
H476 N471 0.984 . S
H477 N471 0.985 . S
H478 N475 0.984 . S
H479 N475 0.985 . S
H480 N474 0.984 . S
H481 N474 0.984 . S
H482 N470 0.984 . S
H483 N470 0.985 . S
C484 C485 1.363 . S
C484 C490 1.379 . S
C484 N492 1.356 . S
C485 C484 1.363 . S
C485 C491 1.363 . S
C486 C487 1.363 . S
C486 C491 1.379 . S
C486 N493 1.356 . S
C487 C486 1.363 . S
C487 C490 1.363 . S
N488 C490 1.356 . S
N488 H500 0.984 . S
N488 H501 0.985 . S
N489 C491 1.356 . S
N489 H494 0.984 . S
N489 H495 0.985 . S
C490 C484 1.379 . S
C490 C487 1.363 . S
C490 N488 1.356 . S
C491 C485 1.363 . S
C491 C486 1.379 . S
C491 N489 1.356 . S
N492 C484 1.356 . S
N492 H498 0.984 . S
N492 H499 0.984 . S
N493 C486 1.356 . S
N493 H496 0.984 . S
N493 H497 0.985 . S
H494 N489 0.984 . S
H495 N489 0.985 . S
H496 N493 0.984 . S
H497 N493 0.985 . S
H498 N492 0.984 . S
H499 N492 0.984 . S
H500 N488 0.984 . S
H501 N488 0.985 . S
C502 C503 1.350 1_655 S
C502 C508 1.379 . S
C502 N510 1.356 . S
C503 C502 1.350 1_455 S
C503 C509 1.377 . S
C504 C505 1.363 . S
C504 C509 1.379 . S
C504 N511 1.356 . S
C505 C504 1.363 . S
C505 C508 1.363 1_455 S
N506 C508 1.356 . S
N506 H518 0.984 . S
N506 H519 0.985 . S
N507 C509 1.356 . S
N507 H512 0.984 . S
N507 H513 0.985 . S
C508 C502 1.379 . S
C508 C505 1.363 1_655 S
C508 N506 1.356 . S
C509 C503 1.377 . S
C509 C504 1.379 . S
C509 N507 1.356 . S
N510 C502 1.356 . S
N510 H516 0.984 . S
N510 H517 0.984 . S
N511 C504 1.356 . S
N511 H514 0.984 . S
N511 H515 0.985 . S
H512 N507 0.984 . S
H513 N507 0.985 . S
H514 N511 0.984 . S
H515 N511 0.985 . S
H516 N510 0.984 . S
H517 N510 0.984 . S
H518 N506 0.984 . S
H519 N506 0.985 . S
C520 C521 1.336 1_545 S
C520 C526 1.379 . S
C520 N528 1.356 . S
C521 C520 1.336 1_565 S
C521 C527 1.384 . S
C522 C523 1.363 . S
C522 C527 1.379 . S
C522 N529 1.356 . S
C523 C522 1.363 . S
C523 C526 1.363 1_565 S
N524 C526 1.356 . S
N524 H536 0.984 . S
N524 H537 0.985 1_554 S
N525 C527 1.356 . S
N525 H530 0.984 . S
N525 H531 0.985 . S
C526 C520 1.379 . S
C526 C523 1.363 1_545 S
C526 N524 1.356 . S
C527 C521 1.384 . S
C527 C522 1.379 . S
C527 N525 1.356 . S
N528 C520 1.356 . S
N528 H534 0.984 . S
N528 H535 0.984 . S
N529 C522 1.356 . S
N529 H532 0.984 1_554 S
N529 H533 0.985 . S
H530 N525 0.984 . S
H531 N525 0.985 . S
H532 N529 0.984 1_556 S
H533 N529 0.985 . S
H534 N528 0.984 . S
H535 N528 0.984 . S
H536 N524 0.984 . S
H537 N524 0.985 1_556 S
C538 C539 1.363 . S
C538 C544 1.379 . S
C538 N546 1.356 1_556 S
C539 C538 1.363 . S
C539 C545 1.363 . S
C540 C541 1.363 . S
C540 C545 1.379 . S
C540 N547 1.356 . S
C541 C540 1.363 . S
C541 C544 1.363 . S
N542 C544 1.356 . S
N542 H554 0.984 . S
N542 H555 0.985 . S
N543 C545 1.356 . S
N543 H548 0.984 . S
N543 H549 0.985 . S
C544 C538 1.379 . S
C544 C541 1.363 . S
C544 N542 1.356 . S
C545 C539 1.363 . S
C545 C540 1.379 . S
C545 N543 1.356 . S
N546 C538 1.356 1_554 S
N546 H552 0.984 . S
N546 H553 0.984 . S
N547 C540 1.356 . S
N547 H550 0.984 . S
N547 H551 0.985 . S
H548 N543 0.984 . S
H549 N543 0.985 . S
H550 N547 0.984 . S
H551 N547 0.985 . S
H552 N546 0.984 . S
H553 N546 0.984 . S
H554 N542 0.984 . S
H555 N542 0.985 . S
C556 C557 1.363 . S
C556 C562 1.379 . S
C556 N564 1.356 . S
C557 C556 1.363 . S
C557 C563 1.363 . S
C558 C559 1.363 . S
C558 C563 1.379 . S
C558 N565 1.356 . S
C559 C558 1.363 . S
C559 C562 1.363 . S
N560 C562 1.356 . S
N560 H572 0.984 . S
N560 H573 0.985 1_554 S
N561 C563 1.356 . S
N561 H566 0.984 . S
N561 H567 0.985 . S
C562 C556 1.379 . S
C562 C559 1.363 . S
C562 N560 1.356 . S
C563 C557 1.363 . S
C563 C558 1.379 . S
C563 N561 1.356 . S
N564 C556 1.356 . S
N564 H570 0.984 . S
N564 H571 0.984 . S
N565 C558 1.356 . S
N565 H568 0.984 1_554 S
N565 H569 0.985 . S
H566 N561 0.984 . S
H567 N561 0.985 . S
H568 N565 0.984 1_556 S
H569 N565 0.985 . S
H570 N564 0.984 . S
H571 N564 0.984 . S
H572 N560 0.984 . S
H573 N560 0.985 1_556 S
C574 C575 1.348 1_455 S
C574 C580 1.379 . S
C574 N582 1.356 . S
C575 C574 1.348 1_655 S
C575 C581 1.379 . S
C576 C577 1.363 . S
C576 C581 1.379 . S
C576 N583 1.356 . S
C577 C576 1.363 . S
C577 C580 1.363 1_655 S
N578 C580 1.356 . S
N578 H590 0.984 . S
N578 H591 0.985 1_554 S
N579 C581 1.356 . S
N579 H584 0.984 . S
N579 H585 0.985 . S
C580 C574 1.379 . S
C580 C577 1.363 1_455 S
C580 N578 1.356 . S
C581 C575 1.379 . S
C581 C576 1.379 . S
C581 N579 1.356 . S
N582 C574 1.356 . S
N582 H588 0.984 . S
N582 H589 0.984 . S
N583 C576 1.356 . S
N583 H586 0.984 1_554 S
N583 H587 0.985 . S
H584 N579 0.984 . S
H585 N579 0.985 . S
H586 N583 0.984 1_556 S
H587 N583 0.985 . S
H588 N582 0.984 . S
H589 N582 0.984 . S
H590 N578 0.984 . S
H591 N578 0.985 1_556 S
C592 C593 1.363 . S
C592 C598 1.379 . S
C592 N600 1.356 . S
C593 C592 1.363 . S
C593 C599 1.363 . S
C594 C595 1.363 . S
C594 C599 1.379 . S
C594 N601 1.356 . S
C595 C594 1.363 . S
C595 C598 1.363 . S
N596 C598 1.356 . S
N596 H608 0.984 . S
N596 H609 0.985 . S
N597 C599 1.356 1_455 S
N597 H602 0.984 . S
N597 H603 0.985 . S
C598 C592 1.379 . S
C598 C595 1.363 . S
C598 N596 1.356 . S
C599 C593 1.363 . S
C599 C594 1.379 . S
C599 N597 1.356 1_655 S
N600 C592 1.356 . S
N600 H606 0.984 . S
N600 H607 0.982 1_655 S
N601 C594 1.356 . S
N601 H604 0.984 . S
N601 H605 0.985 . S
H602 N597 0.984 . S
H603 N597 0.985 . S
H604 N601 0.984 . S
H605 N601 0.985 . S
H606 N600 0.984 . S
H607 N600 0.982 1_455 S
H608 N596 0.984 . S
H609 N596 0.985 . S
C610 C611 1.363 1_565 S
C610 C616 1.379 . S
C610 N618 1.356 . S
C611 C610 1.363 1_545 S
C611 C617 1.363 . S
C612 C613 1.363 . S
C612 C617 1.379 1_565 S
C612 N619 1.356 . S
C613 C612 1.363 . S
C613 C616 1.363 . S
N614 C616 1.356 . S
N614 H626 0.984 . S
N614 H627 0.985 . S
N615 C617 1.356 . S
N615 H620 0.984 . S
N615 H621 0.985 . S
C616 C610 1.379 . S
C616 C613 1.363 . S
C616 N614 1.356 . S
C617 C611 1.363 . S
C617 C612 1.379 1_545 S
C617 N615 1.356 . S
N618 C610 1.356 . S
N618 H624 0.984 . S
N618 H625 0.984 . S
N619 C612 1.356 . S
N619 H622 0.984 . S
N619 H623 0.985 1_565 S
H620 N615 0.984 . S
H621 N615 0.985 . S
H622 N619 0.984 . S
H623 N619 0.985 1_545 S
H624 N618 0.984 . S
H625 N618 0.984 . S
H626 N614 0.984 . S
H627 N614 0.985 . S
C628 C629 1.363 . S
C628 C634 1.379 . S
C628 N636 1.356 . S
C629 C628 1.363 . S
C629 C635 1.363 . S
C630 C631 1.363 . S
C630 C635 1.379 . S
C630 N637 1.356 . S
C631 C630 1.363 . S
C631 C634 1.363 . S
N632 C634 1.356 . S
N632 H644 0.984 . S
N632 H645 0.985 . S
N633 C635 1.356 . S
N633 H638 0.984 . S
N633 H639 0.985 . S
C634 C628 1.379 . S
C634 C631 1.363 . S
C634 N632 1.356 . S
C635 C629 1.363 . S
C635 C630 1.379 . S
C635 N633 1.356 . S
N636 C628 1.356 . S
N636 H642 0.984 . S
N636 H643 0.984 . S
N637 C630 1.356 . S
N637 H640 0.984 . S
N637 H641 0.985 . S
H638 N633 0.984 . S
H639 N633 0.985 . S
H640 N637 0.984 . S
H641 N637 0.985 . S
H642 N636 0.984 . S
H643 N636 0.984 . S
H644 N632 0.984 . S
H645 N632 0.985 . S
C646 C647 1.363 . S
C646 C652 1.379 . S
C646 N654 1.356 . S
C647 C646 1.363 . S
C647 C653 1.363 . S
C648 C649 1.363 . S
C648 C653 1.379 . S
C648 N655 1.356 . S
C649 C648 1.363 . S
C649 C652 1.363 . S
N650 C652 1.356 . S
N650 H662 0.984 . S
N650 H663 0.985 . S
N651 C653 1.356 . S
N651 H656 0.984 . S
N651 H657 0.985 . S
C652 C646 1.379 . S
C652 C649 1.363 . S
C652 N650 1.356 . S
C653 C647 1.363 . S
C653 C648 1.379 . S
C653 N651 1.356 . S
N654 C646 1.356 . S
N654 H660 0.984 . S
N654 H661 0.984 . S
N655 C648 1.356 . S
N655 H658 0.984 . S
N655 H659 0.985 . S
H656 N651 0.984 . S
H657 N651 0.985 . S
H658 N655 0.984 . S
H659 N655 0.985 . S
H660 N654 0.984 . S
H661 N654 0.984 . S
H662 N650 0.984 . S
H663 N650 0.985 . S
C664 C665 1.367 . S
C664 C670 1.394 . S
C664 N672 1.336 1_455 S
C665 C664 1.367 . S
C665 C671 1.363 . S
C666 C667 1.363 . S
C666 C671 1.379 . S
C666 N673 1.356 . S
C667 C666 1.363 . S
C667 C670 1.363 . S
N668 C670 1.356 . S
N668 H680 0.984 . S
N668 H681 0.985 . S
N669 C671 1.356 . S
N669 H674 0.984 . S
N669 H675 0.985 . S
C670 C664 1.394 . S
C670 C667 1.363 . S
C670 N668 1.356 . S
C671 C665 1.363 . S
C671 C666 1.379 . S
C671 N669 1.356 . S
N672 C664 1.336 1_655 S
N672 H678 0.984 . S
N672 H679 0.984 . S
N673 C666 1.356 . S
N673 H676 0.984 . S
N673 H677 0.985 . S
H674 N669 0.984 . S
H675 N669 0.985 . S
H676 N673 0.984 . S
H677 N673 0.985 . S
H678 N672 0.984 . S
H679 N672 0.984 . S
H680 N668 0.984 . S
H681 N668 0.985 . S
C682 C683 1.363 1_545 S
C682 C688 1.391 . S
C682 N690 1.343 1_545 S
C683 C682 1.363 1_565 S
C683 C689 1.363 1_565 S
C684 C685 1.363 . S
C684 C689 1.379 . S
C684 N691 1.356 . S
C685 C684 1.363 . S
C685 C688 1.363 . S
N686 C688 1.356 . S
N686 H698 0.984 . S
N686 H699 0.985 . S
N687 C689 1.360 . S
N687 H692 0.973 1_545 S
N687 H693 0.993 . S
C688 C682 1.391 . S
C688 C685 1.363 . S
C688 N686 1.356 . S
C689 C683 1.363 1_545 S
C689 C684 1.379 . S
C689 N687 1.360 . S
N690 C682 1.343 1_565 S
N690 H696 0.984 . S
N690 H697 0.984 . S
N691 C684 1.356 . S
N691 H694 0.984 . S
N691 H695 0.985 . S
H692 N687 0.973 1_565 S
H693 N687 0.993 . S
H694 N691 0.984 . S
H695 N691 0.985 . S
H696 N690 0.984 . S
H697 N690 0.984 . S
H698 N686 0.984 . S
H699 N686 0.985 . S
C700 C701 1.363 . S
C700 C706 1.379 . S
C700 N708 1.356 . S
C701 C700 1.363 . S
C701 C707 1.363 . S
C702 C703 1.363 . S
C702 C707 1.379 . S
C702 N709 1.356 . S
C703 C702 1.363 . S
C703 C706 1.363 . S
N704 C706 1.356 . S
N704 H716 0.984 . S
N704 H717 0.985 . S
N705 C707 1.356 . S
N705 H710 0.984 . S
N705 H711 0.985 . S
C706 C700 1.379 . S
C706 C703 1.363 . S
C706 N704 1.356 . S
C707 C701 1.363 . S
C707 C702 1.379 . S
C707 N705 1.356 . S
N708 C700 1.356 . S
N708 H714 0.984 . S
N708 H715 0.984 . S
N709 C702 1.356 . S
N709 H712 0.984 . S
N709 H713 0.985 . S
H710 N705 0.984 . S
H711 N705 0.985 . S
H712 N709 0.984 . S
H713 N709 0.985 . S
H714 N708 0.984 . S
H715 N708 0.984 . S
H716 N704 0.984 . S
H717 N704 0.985 . S
C718 C719 1.363 . S
C718 C724 1.379 . S
C718 N726 1.356 . S
C719 C718 1.363 . S
C719 C725 1.363 . S
C720 C721 1.363 . S
C720 C725 1.379 . S
C720 N727 1.356 . S
C721 C720 1.363 . S
C721 C724 1.363 . S
N722 C724 1.356 . S
N722 H734 0.984 1_554 S
N722 H735 0.985 . S
N723 C725 1.356 . S
N723 H728 0.984 . S
N723 H729 0.985 . S
C724 C718 1.379 . S
C724 C721 1.363 . S
C724 N722 1.356 . S
C725 C719 1.363 . S
C725 C720 1.379 . S
C725 N723 1.356 . S
N726 C718 1.356 . S
N726 H732 0.984 . S
N726 H733 0.984 . S
N727 C720 1.356 . S
N727 H730 0.984 . S
N727 H731 0.985 . S
H728 N723 0.984 . S
H729 N723 0.985 . S
H730 N727 0.984 . S
H731 N727 0.985 . S
H732 N726 0.984 . S
H733 N726 0.984 . S
H734 N722 0.984 1_556 S
H735 N722 0.985 . S
C736 C737 1.363 . S
C736 C742 1.379 . S
C736 N744 1.356 . S
C737 C736 1.363 . S
C737 C743 1.363 1_455 S
C738 C739 1.363 1_655 S
C738 C743 1.379 . S
C738 N745 1.356 . S
C739 C738 1.363 1_455 S
C739 C742 1.363 . S
N740 C742 1.356 . S
N740 H752 0.984 1_556 S
N740 H753 0.985 . S
N741 C743 1.356 . S
N741 H746 0.984 . S
N741 H747 0.985 . S
C742 C736 1.379 . S
C742 C739 1.363 . S
C742 N740 1.356 . S
C743 C737 1.363 1_655 S
C743 C738 1.379 . S
C743 N741 1.356 . S
N744 C736 1.356 . S
N744 H750 0.984 1_556 S
N744 H751 0.984 . S
N745 C738 1.356 . S
N745 H748 0.984 . S
N745 H749 0.985 . S
H746 N741 0.984 . S
H747 N741 0.985 . S
H748 N745 0.984 . S
H749 N745 0.985 . S
H750 N744 0.984 1_554 S
H751 N744 0.984 . S
H752 N740 0.984 1_554 S
H753 N740 0.985 . S
C754 C755 1.363 1_565 S
C754 C760 1.379 . S
C754 N762 1.356 . S
C755 C754 1.363 1_545 S
C755 C761 1.363 . S
C756 C757 1.363 . S
C756 C761 1.379 . S
C756 N763 1.356 . S
C757 C756 1.363 . S
C757 C760 1.363 1_545 S
N758 C760 1.356 . S
N758 H770 0.984 . S
N758 H771 0.985 . S
N759 C761 1.356 . S
N759 H764 0.984 . S
N759 H765 0.985 . S
C760 C754 1.379 . S
C760 C757 1.363 1_565 S
C760 N758 1.356 . S
C761 C755 1.363 . S
C761 C756 1.379 . S
C761 N759 1.356 . S
N762 C754 1.356 . S
N762 H768 0.984 . S
N762 H769 0.984 . S
N763 C756 1.356 . S
N763 H766 0.984 . S
N763 H767 0.985 . S
H764 N759 0.984 . S
H765 N759 0.985 . S
H766 N763 0.984 . S
H767 N763 0.985 . S
H768 N762 0.984 . S
H769 N762 0.984 . S
H770 N758 0.984 . S
H771 N758 0.985 . S
C772 C773 1.363 . S
C772 C778 1.379 . S
C772 N780 1.356 . S
C773 C772 1.363 . S
C773 C779 1.363 . S
C774 C775 1.363 . S
C774 C779 1.379 . S
C774 N781 1.356 . S
C775 C774 1.363 . S
C775 C778 1.363 . S
N776 C778 1.356 . S
N776 H788 0.984 . S
N776 H789 0.985 . S
N777 C779 1.356 . S
N777 H782 0.984 . S
N777 H783 0.985 . S
C778 C772 1.379 . S
C778 C775 1.363 . S
C778 N776 1.356 . S
C779 C773 1.363 . S
C779 C774 1.379 . S
C779 N777 1.356 . S
N780 C772 1.356 . S
N780 H786 0.984 . S
N780 H787 0.984 . S
N781 C774 1.356 . S
N781 H784 0.984 . S
N781 H785 0.985 . S
H782 N777 0.984 . S
H783 N777 0.985 . S
H784 N781 0.984 . S
H785 N781 0.985 . S
H786 N780 0.984 . S
H787 N780 0.984 . S
H788 N776 0.984 . S
H789 N776 0.985 . S
C790 C791 1.363 . S
C790 C796 1.379 . S
C790 N798 1.356 . S
C791 C790 1.363 . S
C791 C797 1.363 . S
C792 C793 1.363 . S
C792 C797 1.379 . S
C792 N799 1.356 . S
C793 C792 1.363 . S
C793 C796 1.363 . S
N794 C796 1.356 . S
N794 H806 0.984 . S
N794 H807 0.985 . S
N795 C797 1.356 . S
N795 H800 0.984 . S
N795 H801 0.985 . S
C796 C790 1.379 . S
C796 C793 1.363 . S
C796 N794 1.356 . S
C797 C791 1.363 . S
C797 C792 1.379 . S
C797 N795 1.356 . S
N798 C790 1.356 . S
N798 H804 0.984 . S
N798 H805 0.984 . S
N799 C792 1.356 . S
N799 H802 0.984 . S
N799 H803 0.985 . S
H800 N795 0.984 . S
H801 N795 0.985 . S
H802 N799 0.984 . S
H803 N799 0.985 . S
H804 N798 0.984 . S
H805 N798 0.984 . S
H806 N794 0.984 . S
H807 N794 0.985 . S
C808 C809 1.363 1_455 S
C808 C814 1.379 . S
C808 N816 1.356 . S
C809 C808 1.363 1_655 S
C809 C815 1.363 . S
C810 C811 1.363 . S
C810 C815 1.379 . S
C810 N817 1.356 . S
C811 C810 1.363 . S
C811 C814 1.363 1_655 S
N812 C814 1.356 . S
N812 H824 0.984 . S
N812 H825 0.985 . S
N813 C815 1.356 . S
N813 H818 0.984 . S
N813 H819 0.985 . S
C814 C808 1.379 . S
C814 C811 1.363 1_455 S
C814 N812 1.356 . S
C815 C809 1.363 . S
C815 C810 1.379 . S
C815 N813 1.356 . S
N816 C808 1.356 . S
N816 H822 0.984 . S
N816 H823 0.984 . S
N817 C810 1.356 . S
N817 H820 0.984 . S
N817 H821 0.985 . S
H818 N813 0.984 . S
H819 N813 0.985 . S
H820 N817 0.984 . S
H821 N817 0.985 . S
H822 N816 0.984 . S
H823 N816 0.984 . S
H824 N812 0.984 . S
H825 N812 0.985 . S
C826 C827 1.363 1_545 S
C826 C832 1.379 . S
C826 N834 1.356 . S
C827 C826 1.363 1_565 S
C827 C833 1.363 . S
C828 C829 1.363 . S
C828 C833 1.379 . S
C828 N835 1.356 . S
C829 C828 1.363 . S
C829 C832 1.363 1_565 S
N830 C832 1.356 . S
N830 H842 0.984 . S
N830 H843 0.985 . S
N831 C833 1.356 . S
N831 H836 0.984 . S
N831 H837 0.985 . S
C832 C826 1.379 . S
C832 C829 1.363 1_545 S
C832 N830 1.356 . S
C833 C827 1.363 . S
C833 C828 1.379 . S
C833 N831 1.356 . S
N834 C826 1.356 . S
N834 H840 0.984 . S
N834 H841 0.984 . S
N835 C828 1.356 . S
N835 H838 0.984 . S
N835 H839 0.985 . S
H836 N831 0.984 . S
H837 N831 0.985 . S
H838 N835 0.984 . S
H839 N835 0.985 . S
H840 N834 0.984 . S
H841 N834 0.984 . S
H842 N830 0.984 . S
H843 N830 0.985 . S
C844 C845 1.363 . S
C844 C850 1.379 . S
C844 N852 1.356 . S
C845 C844 1.363 . S
C845 C851 1.363 . S
C846 C847 1.363 . S
C846 C851 1.379 . S
C846 N853 1.356 . S
C847 C846 1.363 . S
C847 C850 1.363 . S
N848 C850 1.356 . S
N848 H860 0.984 . S
N848 H861 0.985 . S
N849 C851 1.356 . S
N849 H854 0.984 . S
N849 H855 0.985 . S
C850 C844 1.379 . S
C850 C847 1.363 . S
C850 N848 1.356 . S
C851 C845 1.363 . S
C851 C846 1.379 . S
C851 N849 1.356 . S
N852 C844 1.356 . S
N852 H858 0.984 . S
N852 H859 0.984 . S
N853 C846 1.356 . S
N853 H856 0.984 . S
N853 H857 0.985 . S
H854 N849 0.984 . S
H855 N849 0.985 . S
H856 N853 0.984 . S
H857 N853 0.985 . S
H858 N852 0.984 . S
H859 N852 0.984 . S
H860 N848 0.984 . S
H861 N848 0.985 . S
C862 C863 1.363 . S
C862 C868 1.379 . S
C862 N870 1.356 . S
C863 C862 1.363 . S
C863 C869 1.363 . S
C864 C865 1.363 . S
C864 C869 1.379 . S
C864 N871 1.356 . S
C865 C864 1.363 . S
C865 C868 1.363 . S
N866 C868 1.356 . S
N866 H878 0.984 . S
N866 H879 0.985 . S
N867 C869 1.356 . S
N867 H872 0.984 . S
N867 H873 0.985 . S
C868 C862 1.379 . S
C868 C865 1.363 . S
C868 N866 1.356 . S
C869 C863 1.363 . S
C869 C864 1.379 . S
C869 N867 1.356 . S
N870 C862 1.356 . S
N870 H876 0.984 . S
N870 H877 0.984 . S
N871 C864 1.356 . S
N871 H874 0.984 . S
N871 H875 0.985 . S
H872 N867 0.984 . S
H873 N867 0.985 . S
H874 N871 0.984 . S
H875 N871 0.985 . S
H876 N870 0.984 . S
H877 N870 0.984 . S
H878 N866 0.984 . S
H879 N866 0.985 . S
C449 C241 2.550 . S
C451 C311 2.903 1_545 S
C469 C351 1.749 . S
C467 C277 1.660 . S
C487 C370 2.963 . S
C485 C169 2.622 . S
C505 C431 2.201 1_455 S
C503 C205 1.899 . S
C523 C290 2.904 1_564 S
C521 C97 2.551 1_565 S
C539 C133 1.720 . S
C541 C330 1.753 . S
C557 C25 2.577 . S
C559 C391 2.961 1_554 S
C575 C61 1.897 1_655 S
C577 C410 2.200 1_654 S
C595 C292 1.025 . S
C593 C211 1.108 1_655 S
C613 C332 0.614 . S
C611 C247 0.564 . S
C631 C388 1.659 . S
C629 C253 1.385 . S
C647 C175 0.783 . S
C649 C412 0.770 . S
C665 C67 1.056 . S
C667 C313 1.030 . S
C685 C353 0.614 . S
C683 C103 0.630 1_565 S
C703 C399 1.657 . S
C701 C109 1.457 . S
C719 C31 0.771 . S
C721 C433 0.776 . S
C737 C181 2.530 . S
C739 C308 2.920 . S
C755 C217 3.167 . S
C757 C348 3.576 . S
C775 C372 2.109 . S
C773 C283 2.045 . S
C793 C428 3.563 . S
C791 C145 3.162 . S
C809 C37 2.545 1_655 S
C811 C319 2.929 . S
C829 C359 3.577 . S
C827 C73 3.172 1_565 S
C847 C393 2.110 . S
C845 C139 2.018 . S
C863 C1 3.157 . S
C865 C439 3.565 . S
