# Generated by pormake.
# Topology pto, (3,4)-cn, num edge types: 1
# Building blocks:
#     Node 0, Type 0, BuildingBlock: CUQRIR_clean_linker_1, # of connection points: 3
#     Node 1, Type 0, BuildingBlock: CUQRIR_clean_linker_1, # of connection points: 3
#     Node 2, Type 0, BuildingBlock: CUQRIR_clean_linker_1, # of connection points: 3
#     Node 3, Type 0, BuildingBlock: CUQRIR_clean_linker_1, # of connection points: 3
#     Node 4, Type 0, BuildingBlock: CUQRIR_clean_linker_1, # of connection points: 3
#     Node 5, Type 0, BuildingBlock: CUQRIR_clean_linker_1, # of connection points: 3
#     Node 6, Type 0, BuildingBlock: CUQRIR_clean_linker_1, # of connection points: 3
#     Node 7, Type 0, BuildingBlock: CUQRIR_clean_linker_1, # of connection points: 3
#     Node 8, Type 1, BuildingBlock: KOZSID_clean_sbu_0, # of connection points: 4
#     Node 9, Type 1, BuildingBlock: KOZSID_clean_sbu_0, # of connection points: 4
#     Node 10, Type 1, BuildingBlock: KOZSID_clean_sbu_0, # of connection points: 4
#     Node 11, Type 1, BuildingBlock: KOZSID_clean_sbu_0, # of connection points: 4
#     Node 12, Type 1, BuildingBlock: KOZSID_clean_sbu_0, # of connection points: 4
#     Node 13, Type 1, BuildingBlock: KOZSID_clean_sbu_0, # of connection points: 4
#     Edge 14, Type (0, 1), BuildingBlock: MIFKUJ_clean_linker_0, # of connection points: 2
#     Edge 15, Type (0, 1), BuildingBlock: MIFKUJ_clean_linker_0, # of connection points: 2
#     Edge 16, Type (0, 1), BuildingBlock: MIFKUJ_clean_linker_0, # of connection points: 2
#     Edge 17, Type (0, 1), BuildingBlock: MIFKUJ_clean_linker_0, # of connection points: 2
#     Edge 18, Type (0, 1), BuildingBlock: MIFKUJ_clean_linker_0, # of connection points: 2
#     Edge 19, Type (0, 1), BuildingBlock: MIFKUJ_clean_linker_0, # of connection points: 2
#     Edge 20, Type (0, 1), BuildingBlock: MIFKUJ_clean_linker_0, # of connection points: 2
#     Edge 21, Type (0, 1), BuildingBlock: MIFKUJ_clean_linker_0, # of connection points: 2
#     Edge 22, Type (0, 1), BuildingBlock: MIFKUJ_clean_linker_0, # of connection points: 2
#     Edge 23, Type (0, 1), BuildingBlock: MIFKUJ_clean_linker_0, # of connection points: 2
#     Edge 24, Type (0, 1), BuildingBlock: MIFKUJ_clean_linker_0, # of connection points: 2
#     Edge 25, Type (0, 1), BuildingBlock: MIFKUJ_clean_linker_0, # of connection points: 2
#     Edge 26, Type (0, 1), BuildingBlock: MIFKUJ_clean_linker_0, # of connection points: 2
#     Edge 27, Type (0, 1), BuildingBlock: MIFKUJ_clean_linker_0, # of connection points: 2
#     Edge 28, Type (0, 1), BuildingBlock: MIFKUJ_clean_linker_0, # of connection points: 2
#     Edge 29, Type (0, 1), BuildingBlock: MIFKUJ_clean_linker_0, # of connection points: 2
#     Edge 30, Type (0, 1), BuildingBlock: MIFKUJ_clean_linker_0, # of connection points: 2
#     Edge 31, Type (0, 1), BuildingBlock: MIFKUJ_clean_linker_0, # of connection points: 2
#     Edge 32, Type (0, 1), BuildingBlock: MIFKUJ_clean_linker_0, # of connection points: 2
#     Edge 33, Type (0, 1), BuildingBlock: MIFKUJ_clean_linker_0, # of connection points: 2
#     Edge 34, Type (0, 1), BuildingBlock: MIFKUJ_clean_linker_0, # of connection points: 2
#     Edge 35, Type (0, 1), BuildingBlock: MIFKUJ_clean_linker_0, # of connection points: 2
#     Edge 36, Type (0, 1), BuildingBlock: MIFKUJ_clean_linker_0, # of connection points: 2
#     Edge 37, Type (0, 1), BuildingBlock: MIFKUJ_clean_linker_0, # of connection points: 2
# Relax obj value: 0.020
# Max RMSD: 0.177
# Mean RMSD: 0.079
data_MOF--net-pto--node1-KOZSID_clean_sbu_0--node2-CUQRIR_clean_linker_1--edge1-MIFKUJ_clean_linker_0
_symmetry_space_group_name_H-M    P1
_symmetry_Int_Tables_number       1
_symmetry_cell_setting            triclinic
loop_
_symmetry_equiv_pos_as_xyz
'x, y, z'
_cell_length_a     47.010902
_cell_length_b     61.026684
_cell_length_c     53.664368
_cell_angle_alpha  78.387904
_cell_angle_beta   93.143245
_cell_angle_gamma 98.316217
loop_
_atom_site_label
_atom_site_type_symbol
_atom_site_fract_x
_atom_site_fract_y
_atom_site_fract_z
_atom_type_partial_charge
C0 C 0.30951 0.26857 0.29056 0.0
N1 N 0.32684 0.25572 0.28234 0.0
N2 N 0.30806 0.28793 0.27342 0.0
C3 C 0.29519 0.26287 0.31588 0.0
C4 C 0.32509 0.28651 0.25445 0.0
N5 N 0.33682 0.26697 0.25995 0.0
C6 C 0.3279 0.30324 0.22963 0.0
H7 H 0.27392 0.25272 0.31389 0.0
H8 H 0.29174 0.27842 0.32238 0.0
H9 H 0.30827 0.2528 0.33047 0.0
H10 H 0.34749 0.3156 0.23065 0.0
H11 H 0.3091 0.31264 0.22584 0.0
H12 H 0.32983 0.29462 0.21359 0.0
C13 C 0.2954 0.74204 0.72062 0.0
N14 N 0.31536 0.7554 0.73201 0.0
N15 N 0.28527 0.72324 0.73744 0.0
C16 C 0.28427 0.74804 0.69363 0.0
C17 C 0.29951 0.72569 0.75952 0.0
N18 N 0.31765 0.74533 0.75626 0.0
C19 C 0.29665 0.70848 0.78391 0.0
H20 H 0.28299 0.76641 0.68824 0.0
H21 H 0.26272 0.73854 0.69093 0.0
H22 H 0.29936 0.74379 0.68072 0.0
H23 H 0.28715 0.6916 0.78043 0.0
H24 H 0.28247 0.71394 0.79668 0.0
H25 H 0.31794 0.7073 0.79373 0.0
C26 C 0.89124 0.77969 0.33508 0.0
N27 N 0.88325 0.76784 0.31642 0.0
N28 N 0.88027 0.79955 0.33015 0.0
C29 C 0.90915 0.77148 0.35828 0.0
C30 C 0.86561 0.79939 0.30771 0.0
N31 N 0.86763 0.78023 0.29929 0.0
C32 C 0.8485 0.81764 0.29446 0.0
H33 H 0.89597 0.75766 0.37109 0.0
H34 H 0.91687 0.78491 0.36912 0.0
H35 H 0.92783 0.76451 0.35264 0.0
H36 H 0.84922 0.81971 0.27351 0.0
H37 H 0.85665 0.83407 0.29986 0.0
H38 H 0.82571 0.8128 0.29998 0.0
C39 C 0.77374 0.22099 0.74785 0.0
N40 N 0.79068 0.23234 0.72852 0.0
N41 N 0.76466 0.23553 0.76068 0.0
C42 C 0.76569 0.19579 0.75391 0.0
C43 C 0.77647 0.25615 0.74832 0.0
N44 N 0.79212 0.25422 0.72859 0.0
C45 C 0.77246 0.27822 0.75523 0.0
H46 H 0.74715 0.19106 0.74145 0.0
H47 H 0.75942 0.18988 0.77404 0.0
H48 H 0.78375 0.18716 0.75014 0.0
H49 H 0.79305 0.28983 0.75359 0.0
H50 H 0.76436 0.27598 0.77469 0.0
H51 H 0.75657 0.2863 0.74172 0.0
C52 C 0.80873 0.74282 0.76631 0.0
N53 N 0.82114 0.7509 0.74349 0.0
N54 N 0.7928 0.75783 0.77208 0.0
C55 C 0.81036 0.71962 0.78202 0.0
C56 C 0.79584 0.77525 0.75192 0.0
N57 N 0.81273 0.7709 0.73435 0.0
C58 C 0.78447 0.79733 0.75048 0.0
H59 H 0.81218 0.70735 0.76967 0.0
H60 H 0.79115 0.71363 0.79393 0.0
H61 H 0.82974 0.72028 0.79475 0.0
H62 H 0.78136 0.80043 0.76976 0.0
H63 H 0.76342 0.79676 0.74006 0.0
H64 H 0.79936 0.81162 0.7401 0.0
C65 C 0.79471 0.25943 0.27453 0.0
N66 N 0.81766 0.26824 0.28738 0.0
N67 N 0.78827 0.27453 0.25353 0.0
C68 C 0.78014 0.23545 0.28138 0.0
C69 C 0.80843 0.29276 0.25398 0.0
N70 N 0.82643 0.28881 0.27445 0.0
C71 C 0.80956 0.31484 0.23534 0.0
H72 H 0.77116 0.22917 0.26417 0.0
H73 H 0.76228 0.23482 0.2943 0.0
H74 H 0.79532 0.22408 0.29142 0.0
H75 H 0.78798 0.31731 0.2267 0.0
H76 H 0.82439 0.3148 0.21997 0.0
H77 H 0.81786 0.32917 0.24476 0.0
C78 C 0.24783 0.2732 0.70538 0.0
N79 N 0.26081 0.25489 0.70513 0.0
N80 N 0.22764 0.27566 0.68645 0.0
C81 C 0.25368 0.28792 0.72496 0.0
C82 C 0.22863 0.25807 0.6748 0.0
N83 N 0.24875 0.24536 0.68628 0.0
C84 C 0.21116 0.25408 0.65143 0.0
H85 H 0.2596 0.27792 0.74368 0.0
H86 H 0.23469 0.29621 0.7271 0.0
H87 H 0.27199 0.30122 0.71877 0.0
H88 H 0.20335 0.2698 0.64102 0.0
H89 H 0.19229 0.24122 0.65727 0.0
H90 H 0.22403 0.24749 0.63857 0.0
C91 C 0.34273 0.7767 0.32519 0.0
N92 N 0.34752 0.7652 0.30701 0.0
N93 N 0.36045 0.79663 0.3224 0.0
C94 C 0.31971 0.76921 0.34475 0.0
C95 C 0.376 0.79688 0.30179 0.0
N96 N 0.36797 0.77787 0.29236 0.0
C97 C 0.39917 0.81564 0.2911 0.0
H98 H 0.29911 0.77429 0.33606 0.0
H99 H 0.32512 0.77713 0.36158 0.0
H100 H 0.31642 0.75067 0.35126 0.0
H101 H 0.41983 0.81246 0.30124 0.0
H102 H 0.39415 0.83216 0.29395 0.0
H103 H 0.40213 0.81658 0.27057 0.0
C104 C 0.13911 0.55423 0.31708 0.0
C105 C 0.15389 0.55794 0.33933 0.0
C106 C 0.14058 0.54279 0.35884 0.0
C107 C 0.11868 0.53064 0.34747 0.0
N108 N 0.11743 0.53681 0.32181 0.0
Co109 Co 0.08871 0.52359 0.29791 0.0
N110 N 0.06924 0.50118 0.32669 0.0
C111 C 0.07699 0.49853 0.35166 0.0
C112 C 0.06131 0.48058 0.36675 0.0
C113 C 0.04266 0.4709 0.35046 0.0
C114 C 0.04786 0.48371 0.32624 0.0
N115 N 0.05934 0.51095 0.27411 0.0
C116 C 0.03784 0.49341 0.27881 0.0
C117 C 0.02171 0.49076 0.25688 0.0
C118 C 0.03401 0.50674 0.23751 0.0
C119 C 0.05663 0.51835 0.2487 0.0
N120 N 0.10885 0.54537 0.26901 0.0
C121 C 0.1021 0.54708 0.24391 0.0
C122 C 0.11937 0.56379 0.22854 0.0
C123 C 0.13827 0.57341 0.24472 0.0
C124 C 0.13152 0.56189 0.2692 0.0
N125 N 0.11404 0.501 0.2944 0.0
C126 C 0.14742 0.46719 0.29006 0.0
C127 C 0.13121 0.47699 0.26935 0.0
C128 C 0.11511 0.49394 0.2718 0.0
C129 C 0.14715 0.47484 0.31284 0.0
C130 C 0.13024 0.49148 0.31466 0.0
N131 N 0.0633 0.54617 0.30138 0.0
C132 C 0.03598 0.5763 0.28223 0.0
C133 C 0.02856 0.5792 0.30609 0.0
C134 C 0.03868 0.5651 0.32759 0.0
C135 C 0.05582 0.54883 0.32483 0.0
C136 C 0.05315 0.55989 0.28033 0.0
H137 H 0.06287 0.53869 0.34195 0.0
H138 H 0.05814 0.55882 0.26157 0.0
H139 H 0.10353 0.50094 0.25519 0.0
H140 H 0.13039 0.49613 0.33275 0.0
C141 C 0.09974 0.51271 0.36024 0.0
C142 C 0.14626 0.56797 0.29205 0.0
C143 C 0.03283 0.47812 0.30331 0.0
C144 C 0.07745 0.53458 0.23559 0.0
H145 H 0.17236 0.57035 0.3413 0.0
H146 H 0.14629 0.5408 0.37891 0.0
H147 H 0.06369 0.47485 0.3871 0.0
H148 H 0.02746 0.45579 0.35585 0.0
H149 H 0.0034 0.47818 0.25496 0.0
H150 H 0.02781 0.50909 0.21753 0.0
H151 H 0.11768 0.56897 0.20806 0.0
H152 H 0.1546 0.58773 0.23907 0.0
H153 H 0.13113 0.47172 0.25123 0.0
H154 H 0.15935 0.4676 0.3294 0.0
H155 H 0.02909 0.58698 0.26497 0.0
H156 H 0.03327 0.56647 0.34653 0.0
C157 C 0.05122 0.53526 0.70414 0.0
C158 C 0.06267 0.53447 0.72869 0.0
C159 C 0.04469 0.5188 0.7444 0.0
C160 C 0.02354 0.51077 0.72865 0.0
N161 N 0.02704 0.52026 0.70375 0.0
Co162 Co 0.00191 0.51292 0.67431 0.0
N163 N 0.97482 0.4907 0.69762 0.0
C164 C 0.97553 0.48648 0.72335 0.0
C165 C 0.95458 0.46962 0.73391 0.0
C166 C 0.94004 0.46235 0.71372 0.0
C167 C 0.95312 0.47519 0.69199 0.0
N168 N 0.9773 0.50479 0.64488 0.0
C169 C 0.95615 0.48723 0.64444 0.0
C170 C 0.94625 0.48603 0.61988 0.0
C171 C 0.96219 0.50322 0.60409 0.0
C172 C 0.98087 0.51379 0.6199 0.0
N173 N 0.02854 0.53566 0.651 0.0
C174 C 0.02564 0.54167 0.62539 0.0
C175 C 0.04618 0.55873 0.61469 0.0
C176 C 0.06302 0.56419 0.63465 0.0
C177 C 0.05187 0.54994 0.65649 0.0
N178 N 0.02497 0.4887 0.6719 0.0
C179 C 0.05596 0.4534 0.66813 0.0
C180 C 0.05241 0.47056 0.64713 0.0
C181 C 0.03675 0.48783 0.64936 0.0
C182 C 0.04395 0.45426 0.69106 0.0
C183 C 0.02889 0.47202 0.69258 0.0
N184 N 0.97886 0.53733 0.67674 0.0
C185 C 0.95617 0.56993 0.65678 0.0
C186 C 0.95176 0.57493 0.68044 0.0
C187 C 0.95998 0.56019 0.70221 0.0
C188 C 0.97325 0.54167 0.69995 0.0
C189 C 0.96953 0.55117 0.65539 0.0
H190 H 0.97916 0.53136 0.71732 0.0
H191 H 0.97253 0.54854 0.63678 0.0
H192 H 0.03426 0.50022 0.63257 0.0
H193 H 0.02053 0.47186 0.71068 0.0
C194 C 0.99901 0.49569 0.73682 0.0
C195 C 0.06343 0.55122 0.68205 0.0
C196 C 0.94629 0.4705 0.66666 0.0
C197 C 0.00346 0.53089 0.61191 0.0
H198 H 0.08174 0.54452 0.73468 0.0
H199 H 0.04645 0.51421 0.76494 0.0
H200 H 0.9515 0.46244 0.75389 0.0
H201 H 0.92275 0.44842 0.71481 0.0
H202 H 0.92988 0.47355 0.61401 0.0
H203 H 0.96118 0.50693 0.58349 0.0
H204 H 0.04841 0.56649 0.59477 0.0
H205 H 0.08118 0.57743 0.63326 0.0
H206 H 0.06127 0.47046 0.62895 0.0
H207 H 0.04654 0.44145 0.70791 0.0
H208 H 0.95016 0.58079 0.63931 0.0
H209 H 0.95633 0.56294 0.72103 0.0
C210 C 0.37737 0.98691 0.56572 0.0
C211 C 0.40288 0.9846 0.57968 0.0
C212 C 0.42149 0.00385 0.57132 0.0
C213 C 0.40633 0.01679 0.55283 0.0
N214 N 0.37943 0.00683 0.54899 0.0
Co215 Co 0.35024 0.01977 0.52447 0.0
N216 N 0.38013 0.04168 0.50462 0.0
C217 C 0.40713 0.04773 0.51292 0.0
C218 C 0.4228 0.0638 0.49543 0.0
C219 C 0.40443 0.06835 0.47493 0.0
C220 C 0.37844 0.05472 0.48107 0.0
N221 N 0.32092 0.0329 0.50017 0.0
C222 C 0.32412 0.04655 0.47696 0.0
C223 C 0.29764 0.05159 0.46634 0.0
C224 C 0.27737 0.04124 0.48385 0.0
C225 C 0.29244 0.03033 0.50404 0.0
N226 N 0.32048 0.99775 0.54436 0.0
C227 C 0.29209 0.999 0.54359 0.0
C228 C 0.2768 0.98102 0.55912 0.0
C229 C 0.29686 0.96771 0.57048 0.0
C230 C 0.3234 0.97846 0.5613 0.0
N231 N 0.34626 0.04164 0.54579 0.0
C232 C 0.33736 0.07259 0.57566 0.0
C233 C 0.33821 0.04987 0.5867 0.0
C234 C 0.34303 0.03472 0.57149 0.0
C235 C 0.34156 0.07959 0.5495 0.0
C236 C 0.34575 0.06387 0.53492 0.0
N237 N 0.354 0.9979 0.5032 0.0
C238 C 0.33183 0.97106 0.47834 0.0
C239 C 0.35875 0.96559 0.47365 0.0
C240 C 0.38331 0.97697 0.48393 0.0
C241 C 0.38047 0.99313 0.49847 0.0
C242 C 0.32993 0.98702 0.49325 0.0
H243 H 0.39971 0.00161 0.50609 0.0
H244 H 0.30886 0.9905 0.49676 0.0
H245 H 0.34372 0.01734 0.58051 0.0
H246 H 0.34808 0.06973 0.51474 0.0
C247 C 0.41792 0.03613 0.53586 0.0
C248 C 0.35105 0.97074 0.57013 0.0
C249 C 0.35185 0.05687 0.46558 0.0
C250 C 0.2803 0.0149 0.52492 0.0
H251 H 0.4075 0.97055 0.59445 0.0
H252 H 0.44372 0.00755 0.57732 0.0
H253 H 0.44503 0.0711 0.49719 0.0
H254 H 0.4094 0.08076 0.45773 0.0
H255 H 0.29343 0.06196 0.44801 0.0
H256 H 0.25432 0.04114 0.48176 0.0
H257 H 0.25371 0.97747 0.56112 0.0
H258 H 0.29239 0.95193 0.58393 0.0
H259 H 0.33524 0.04386 0.60693 0.0
H260 H 0.34075 0.09699 0.54021 0.0
H261 H 0.3122 0.96321 0.47043 0.0
H262 H 0.4046 0.97323 0.48117 0.0
C263 C 0.54646 0.7776 0.06991 0.0
C264 C 0.54172 0.79866 0.07356 0.0
C265 C 0.55855 0.81431 0.05683 0.0
C266 C 0.57251 0.80199 0.04394 0.0
N267 N 0.56536 0.77938 0.05117 0.0
Co268 Co 0.58138 0.75525 0.03798 0.0
N269 N 0.60658 0.77832 0.01373 0.0
C270 C 0.608 0.80104 0.01006 0.0
C271 C 0.62639 0.81249 0.99138 0.0
C272 C 0.63713 0.79611 0.98231 0.0
C273 C 0.62459 0.77554 0.99606 0.0
N274 N 0.59816 0.73111 0.02548 0.0
C275 C 0.61777 0.73285 0.00735 0.0
C276 C 0.6236 0.7118 0.00463 0.0
C277 C 0.60698 0.69618 0.02157 0.0
C278 C 0.59203 0.70852 0.03361 0.0
N279 N 0.55546 0.73218 0.06162 0.0
C280 C 0.55272 0.70948 0.06407 0.0
C281 C 0.53339 0.69797 0.08192 0.0
C282 C 0.52317 0.71426 0.09155 0.0
C283 C 0.53689 0.73488 0.0789 0.0
N284 N 0.5508 0.75538 0.01077 0.0
C285 C 0.51176 0.75627 0.96884 0.0
C286 C 0.52047 0.736 0.98177 0.0
C287 C 0.53953 0.73589 0.00273 0.0
C288 C 0.52204 0.77595 0.9778 0.0
C289 C 0.54148 0.77516 0.99852 0.0
N290 N 0.61215 0.75518 0.06494 0.0
C291 C 0.63996 0.73511 0.0991 0.0
C292 C 0.65701 0.75519 0.1022 0.0
C293 C 0.65088 0.77527 0.08653 0.0
C294 C 0.62861 0.77489 0.06824 0.0
C295 C 0.61782 0.73549 0.08055 0.0
H296 H 0.62513 0.79079 0.05699 0.0
H297 H 0.6057 0.71962 0.07912 0.0
H298 H 0.54513 0.71986 0.01187 0.0
H299 H 0.54903 0.79086 0.00391 0.0
C300 C 0.59203 0.81114 0.02464 0.0
C301 C 0.53255 0.75646 0.0848 0.0
C302 C 0.63024 0.75388 0.99139 0.0
C303 C 0.57044 0.6994 0.05104 0.0
H304 H 0.52758 0.80233 0.08699 0.0
H305 H 0.56043 0.8325 0.05438 0.0
H306 H 0.63128 0.83058 0.98503 0.0
H307 H 0.65234 0.79896 0.96718 0.0
H308 H 0.6379 0.70808 0.99137 0.0
H309 H 0.60536 0.67798 0.02427 0.0
H310 H 0.52804 0.67986 0.08781 0.0
H311 H 0.50786 0.71123 0.10661 0.0
H312 H 0.51257 0.72025 0.97576 0.0
H313 H 0.51583 0.79205 0.96835 0.0
H314 H 0.64391 0.71906 0.11063 0.0
H315 H 0.66303 0.79136 0.08848 0.0
C316 C 0.89202 0.99508 0.56112 0.0
C317 C 0.91732 0.9891 0.57347 0.0
C318 C 0.93891 0.00541 0.56351 0.0
C319 C 0.92561 0.02037 0.54581 0.0
N320 N 0.89674 0.01489 0.54418 0.0
Co321 Co 0.86929 0.03121 0.51984 0.0
N322 N 0.90136 0.05432 0.50385 0.0
C323 C 0.92959 0.05558 0.51073 0.0
C324 C 0.94626 0.07419 0.49773 0.0
C325 C 0.92756 0.08573 0.48175 0.0
C326 C 0.90045 0.07331 0.48577 0.0
N327 N 0.84193 0.04706 0.49499 0.0
C328 C 0.84684 0.06605 0.47683 0.0
C329 C 0.82186 0.07077 0.46297 0.0
C330 C 0.80029 0.0546 0.47324 0.0
C331 C 0.81327 0.04083 0.49249 0.0
N332 N 0.83711 0.00851 0.53635 0.0
C333 C 0.80866 0.00811 0.53063 0.0
C334 C 0.79183 0.99005 0.54448 0.0
C335 C 0.81061 0.97803 0.55979 0.0
C336 C 0.83799 0.98955 0.55445 0.0
N337 N 0.86437 0.051 0.54415 0.0
C338 C 0.85767 0.08149 0.57596 0.0
C339 C 0.8341 0.07184 0.56299 0.0
C340 C 0.8379 0.05681 0.54735 0.0
C341 C 0.88457 0.07521 0.57318 0.0
C342 C 0.88739 0.05998 0.55744 0.0
N343 N 0.87414 0.01144 0.49552 0.0
C344 C 0.85358 0.98367 0.47083 0.0
C345 C 0.88078 0.98094 0.46361 0.0
C346 C 0.90462 0.99422 0.4723 0.0
C347 C 0.90085 0.00912 0.4882 0.0
C348 C 0.85077 0.99901 0.48632 0.0
H349 H 0.9199 0.01841 0.49453 0.0
H350 H 0.82941 1.00017 0.49092 0.0
H351 H 0.8191 0.0504 0.53774 0.0
H352 H 0.90845 0.0559 0.55617 0.0
C353 C 0.93968 0.03936 0.53001 0.0
C354 C 0.86423 0.98105 0.56569 0.0
C355 C 0.87437 0.08062 0.47268 0.0
C356 C 0.79884 0.02307 0.5098 0.0
H357 H 0.91994 0.97429 0.58788 0.0
H358 H 0.96165 0.00606 0.56826 0.0
H359 H 0.96917 0.07906 0.50002 0.0
H360 H 0.93328 0.10174 0.46901 0.0
H361 H 0.81936 0.08473 0.44737 0.0
H362 H 0.77769 0.05337 0.46776 0.0
H363 H 0.76878 0.98552 0.5427 0.0
H364 H 0.80477 0.96211 0.57266 0.0
H365 H 0.81282 0.07628 0.56435 0.0
H366 H 0.90343 0.08194 0.58318 0.0
H367 H 0.83432 0.97364 0.46515 0.0
H368 H 0.92618 0.99318 0.46697 0.0
C369 C 0.47434 0.24754 0.0211 0.0
C370 C 0.46635 0.26883 0.01961 0.0
C371 C 0.47576 0.28162 0.99676 0.0
C372 C 0.48933 0.26767 0.98573 0.0
N373 N 0.48903 0.24694 1.00028 0.0
Co374 Co 0.50864 0.22229 0.99316 0.0
N375 N 0.53429 0.24364 0.96844 0.0
C376 C 0.52962 0.26465 0.95704 0.0
C377 C 0.55047 0.27533 0.94017 0.0
C378 C 0.56919 0.25999 0.9407 0.0
C379 C 0.55867 0.24068 0.95797 0.0
N380 N 0.52813 0.19747 0.9863 0.0
C381 C 0.55314 0.19832 0.97452 0.0
C382 C 0.55863 0.17673 0.97359 0.0
C383 C 0.53587 0.16199 0.98457 0.0
C384 C 0.51788 0.17529 0.99174 0.0
N385 N 0.48276 0.20109 0.0176 0.0
C386 C 0.47645 0.17868 0.01897 0.0
C387 C 0.45761 0.16856 0.03792 0.0
C388 C 0.45185 0.18573 0.04912 0.0
C389 C 0.46769 0.20537 0.03639 0.0
N390 N 0.48083 0.21812 0.96546 0.0
C391 C 0.4423 0.21572 0.92417 0.0
C392 C 0.47147 0.2144 0.92191 0.0
C393 C 0.49026 0.21553 0.94271 0.0
C394 C 0.43254 0.21739 0.94784 0.0
C395 C 0.4522 0.21865 0.96824 0.0
N396 N 0.53647 0.22665 0.02068 0.0
C397 C 0.56205 0.21178 0.05899 0.0
C398 C 0.5758 0.23348 0.06026 0.0
C399 C 0.56941 0.25166 0.04143 0.0
C400 C 0.54956 0.24792 0.02197 0.0
C401 C 0.54266 0.20869 0.03888 0.0
H402 H 0.54472 0.26231 0.008 0.0
H403 H 0.53264 0.19179 0.03807 0.0
H404 H 0.51259 0.21478 0.94009 0.0
H405 H 0.44435 0.22054 0.98611 0.0
C406 C 0.5079 0.27476 0.96528 0.0
C407 C 0.46715 0.22791 0.04177 0.0
C408 C 0.57016 0.21909 0.96121 0.0
C409 C 0.49312 0.16752 0.0061 0.0
H410 H 0.4555 0.27486 0.03359 0.0
H411 H 0.47457 0.29941 0.98988 0.0
H412 H 0.55221 0.29239 0.92918 0.0
H413 H 0.588 0.26254 0.92917 0.0
H414 H 0.5768 0.17216 0.9652 0.0
H415 H 0.53305 0.14375 0.98734 0.0
H416 H 0.45016 0.15072 0.04381 0.0
H417 H 0.43781 0.18399 0.06493 0.0
H418 H 0.47981 0.21271 0.90407 0.0
H419 H 0.41012 0.21849 0.95035 0.0
H420 H 0.56663 0.19728 0.07317 0.0
H421 H 0.57942 0.26872 0.04192 0.0
H422 H 0.3293 0.33075 0.27588 0.0
H423 H 0.30162 0.36142 0.27884 0.0
H424 H 0.22266 0.31595 0.27644 0.0
H425 H 0.25052 0.28521 0.27409 0.0
H426 H 0.22609 0.36111 0.2418 0.0
H427 H 0.24041 0.32547 0.32973 0.0
H428 H 0.26994 0.31099 0.36716 0.0
H429 H 0.31708 0.37721 0.36383 0.0
H430 H 0.28813 0.39201 0.32608 0.0
H431 H 0.12822 0.42824 0.27338 0.0
H432 H 0.15544 0.39757 0.27069 0.0
H433 H 0.23177 0.43454 0.29865 0.0
H434 H 0.20408 0.46471 0.30254 0.0
H435 H 0.23041 0.39337 0.31995 0.0
H436 H 0.21893 0.43 0.23327 0.0
H437 H 0.19284 0.44602 0.19427 0.0
H438 H 0.14488 0.38081 0.19276 0.0
H439 H 0.17042 0.36446 0.23196 0.0
C440 C 0.30604 0.32747 0.27602 0.0
C441 C 0.29184 0.30584 0.27486 0.0
C442 C 0.2903 0.34486 0.27771 0.0
C443 C 0.26013 0.34088 0.27789 0.0
C444 C 0.24592 0.31931 0.2763 0.0
C445 C 0.26171 0.30183 0.27507 0.0
C446 C 0.24344 0.35921 0.27996 0.0
C447 C 0.22666 0.36803 0.25896 0.0
C448 C 0.24507 0.36863 0.30208 0.0
C449 C 0.26231 0.35979 0.32491 0.0
C450 C 0.25725 0.3369 0.33683 0.0
C451 C 0.27385 0.32864 0.35813 0.0
C452 C 0.29543 0.34316 0.36783 0.0
C453 C 0.30039 0.36598 0.35628 0.0
C454 C 0.28388 0.37432 0.33493 0.0
C455 C 0.15084 0.4298 0.27885 0.0
C456 C 0.16414 0.44885 0.28802 0.0
C457 C 0.16645 0.41233 0.2772 0.0
C458 C 0.1959 0.41386 0.28396 0.0
C459 C 0.20913 0.4329 0.29327 0.0
C460 C 0.19335 0.45016 0.29544 0.0
C461 C 0.21278 0.39549 0.28169 0.0
C462 C 0.2297 0.3866 0.30269 0.0
C463 C 0.21172 0.3863 0.25933 0.0
C464 C 0.1964 0.39606 0.23569 0.0
C465 C 0.20268 0.41911 0.22472 0.0
C466 C 0.18801 0.42824 0.20257 0.0
C467 C 0.16717 0.41445 0.19108 0.0
C468 C 0.16101 0.39148 0.20169 0.0
C469 C 0.17559 0.38227 0.22387 0.0
H470 H 0.15583 0.42156 0.17393 0.0
H471 H 0.30826 0.33674 0.38433 0.0
H472 H 0.28975 0.69425 0.70683 0.0
H473 H 0.25258 0.66414 0.69746 0.0
H474 H 0.19506 0.68236 0.74761 0.0
H475 H 0.23296 0.71175 0.7577 0.0
H476 H 0.18897 0.63894 0.75371 0.0
H477 H 0.19121 0.69894 0.68085 0.0
H478 H 0.21351 0.72726 0.64538 0.0
H479 H 0.23823 0.6745 0.61246 0.0
H480 H 0.21649 0.64586 0.64798 0.0
H481 H 0.05889 0.58634 0.70491 0.0
H482 H 0.09736 0.61573 0.71386 0.0
H483 H 0.15796 0.58687 0.67694 0.0
H484 H 0.11947 0.55725 0.66831 0.0
H485 H 0.16224 0.63521 0.66374 0.0
H486 H 0.15773 0.57532 0.73799 0.0
H487 H 0.13248 0.54827 0.77291 0.0
H488 H 0.1086 0.60311 0.80263 0.0
H489 H 0.13326 0.6305 0.76758 0.0
C490 C 0.26917 0.69155 0.71588 0.0
C491 C 0.26388 0.7051 0.73285 0.0
C492 C 0.24791 0.67454 0.71046 0.0
C493 C 0.22073 0.67125 0.72142 0.0
C494 C 0.21577 0.68458 0.73886 0.0
C495 C 0.23726 0.70133 0.7446 0.0
C496 C 0.1974 0.65414 0.71447 0.0
C497 C 0.18295 0.63835 0.73403 0.0
C498 C 0.18967 0.6531 0.68877 0.0
C499 C 0.20245 0.67027 0.66721 0.0
C500 C 0.20156 0.69338 0.66613 0.0
C501 C 0.21409 0.70949 0.64602 0.0
C502 C 0.22733 0.70269 0.62671 0.0
C503 C 0.228 0.67974 0.62745 0.0
C504 C 0.21557 0.66356 0.64756 0.0
C505 C 0.08043 0.58643 0.69865 0.0
C506 C 0.08643 0.5697 0.68597 0.0
C507 C 0.10231 0.60313 0.70374 0.0
C508 C 0.13049 0.60335 0.69617 0.0
C509 C 0.13633 0.58697 0.68288 0.0
C510 C 0.11447 0.57013 0.67799 0.0
C511 C 0.15401 0.62021 0.70295 0.0
C512 C 0.16841 0.6359 0.68338 0.0
C513 C 0.16138 0.6214 0.7286 0.0
C514 C 0.14714 0.60496 0.75003 0.0
C515 C 0.14694 0.58161 0.75187 0.0
C516 C 0.13274 0.56622 0.7717 0.0
C517 C 0.1189 0.57396 0.78995 0.0
C518 C 0.11931 0.59713 0.78846 0.0
C519 C 0.13341 0.6126 0.76863 0.0
H520 H 0.1079 0.56202 0.80528 0.0
H521 H 0.23703 0.71518 0.61115 0.0
H522 H 0.87463 0.72778 0.3492 0.0
H523 H 0.89645 0.69384 0.34764 0.0
H524 H 0.93421 0.72701 0.27595 0.0
H525 H 0.91283 0.76105 0.27793 0.0
H526 H 0.89466 0.66467 0.31475 0.0
H527 H 0.00315 0.71453 0.27735 0.0
H528 H 0.03184 0.75171 0.2775 0.0
H529 H 0.99259 0.75558 0.3466 0.0
H530 H 0.96407 0.71827 0.34711 0.0
H531 H 0.98201 0.59193 0.27649 0.0
H532 H 0.95476 0.6226 0.27885 0.0
H533 H 0.00719 0.6373 0.34354 0.0
H534 H 0.03523 0.60716 0.34073 0.0
H535 H 0.00112 0.6751 0.31091 0.0
H536 H 0.93779 0.61044 0.35044 0.0
H537 H 0.90905 0.57284 0.3541 0.0
H538 H 0.85836 0.59732 0.28807 0.0
H539 H 0.88707 0.635 0.28381 0.0
C540 C 0.88749 0.72765 0.33312 0.0
C541 C 0.89256 0.74697 0.31387 0.0
C542 C 0.89973 0.70828 0.33211 0.0
C543 C 0.91732 0.70802 0.31187 0.0
C544 C 0.92103 0.72694 0.29191 0.0
C545 C 0.90873 0.74627 0.29293 0.0
C546 C 0.9333 0.68861 0.31248 0.0
C547 C 0.91792 0.66693 0.31381 0.0
C548 C 0.96371 0.69148 0.31189 0.0
C549 C 0.98126 0.71371 0.31209 0.0
C550 C 1.00076 0.72327 0.29264 0.0
C551 C 0.01698 0.74437 0.29261 0.0
C552 C 0.01397 0.75603 0.312 0.0
C553 C 0.99484 0.74656 0.33154 0.0
C554 C 0.97863 0.72545 0.3317 0.0
C555 C 0.98786 0.60174 0.29117 0.0
C556 C 0.01089 0.59706 0.3084 0.0
C557 C 0.97204 0.61914 0.29265 0.0
C558 C 0.97873 0.63216 0.31151 0.0
C559 C 0.00158 0.62746 0.32885 0.0
C560 C 0.01743 0.61007 0.32736 0.0
C561 C 0.96249 0.65111 0.3127 0.0
C562 C 0.97785 0.67277 0.31174 0.0
C563 C 0.93212 0.64811 0.31413 0.0
C564 C 0.91476 0.62549 0.31667 0.0
C565 C 0.92066 0.60776 0.33658 0.0
C566 C 0.90435 0.58644 0.33879 0.0
C567 C 0.88194 0.58268 0.32129 0.0
C568 C 0.87575 0.60025 0.30159 0.0
C569 C 0.89202 0.6216 0.29929 0.0
H570 H 0.86934 0.56616 0.32303 0.0
H571 H 0.02651 0.77238 0.31191 0.0
H572 H 0.77335 0.29024 0.6982 0.0
H573 H 0.80312 0.32531 0.67937 0.0
H574 H 0.87956 0.29423 0.70336 0.0
H575 H 0.84946 0.25955 0.72345 0.0
H576 H 0.88341 0.33193 0.71886 0.0
H577 H 0.858 0.31108 0.63877 0.0
H578 H 0.82551 0.29833 0.60542 0.0
H579 H 0.78356 0.3574 0.59749 0.0
H580 H 0.81533 0.37032 0.63128 0.0
H581 H 0.97229 0.43313 0.67109 0.0
H582 H 0.9491 0.39411 0.67306 0.0
H583 H 0.86627 0.41764 0.65977 0.0
H584 H 0.88967 0.45672 0.65739 0.0
H585 H 0.87004 0.3824 0.63547 0.0
H586 H 0.88961 0.39965 0.71928 0.0
H587 H 0.92092 0.41289 0.75319 0.0
H588 H 0.973 0.3605 0.75371 0.0
H589 H 0.94216 0.3471 0.71957 0.0
C590 C 0.79651 0.29087 0.69892 0.0
C591 C 0.80924 0.2724 0.71232 0.0
C592 C 0.81355 0.31082 0.688 0.0
C593 C 0.8437 0.31249 0.68981 0.0
C594 C 0.85638 0.2934 0.70171 0.0
C595 C 0.83925 0.27352 0.71291 0.0
C596 C 0.86171 0.33479 0.68211 0.0
C597 C 0.88094 0.34267 0.70035 0.0
C598 C 0.85797 0.34921 0.65825 0.0
C599 C 0.83899 0.34161 0.63771 0.0
C600 C 0.84173 0.3213 0.63006 0.0
C601 C 0.82344 0.31404 0.61105 0.0
C602 C 0.8025 0.32703 0.59932 0.0
C603 C 0.7998 0.34735 0.60659 0.0
C604 C 0.81795 0.35465 0.62568 0.0
C605 C 0.94921 0.42988 0.66804 0.0
C606 C 0.93259 0.44765 0.66406 0.0
C607 C 0.93599 0.40769 0.66924 0.0
C608 C 0.90592 0.40296 0.66686 0.0
C609 C 0.88948 0.42092 0.66159 0.0
C610 C 0.90275 0.44315 0.66029 0.0
C611 C 0.89142 0.37929 0.67224 0.0
C612 C 0.87279 0.37132 0.65371 0.0
C613 C 0.89554 0.36475 0.69586 0.0
C614 C 0.91376 0.37252 0.71671 0.0
C615 C 0.90783 0.39103 0.72654 0.0
C616 C 0.92548 0.39856 0.74579 0.0
C617 C 0.94899 0.3876 0.75553 0.0
C618 C 0.95481 0.369 0.74611 0.0
C619 C 0.93724 0.36142 0.72683 0.0
H620 H 0.96265 0.39347 0.77041 0.0
H621 H 0.78838 0.32136 0.58459 0.0
H622 H 0.37974 0.24454 0.29605 0.0
H623 H 0.39115 0.20864 0.3221 0.0
H624 H 0.3006 0.18306 0.32537 0.0
H625 H 0.28953 0.21861 0.29893 0.0
H626 H 0.37693 0.19052 0.36952 0.0
H627 H 0.28962 0.1268 0.32985 0.0
H628 H 0.2667 0.12231 0.28841 0.0
H629 H 0.33986 0.16251 0.24979 0.0
H630 H 0.36349 0.16686 0.29098 0.0
H631 H 0.33405 0.09741 0.46395 0.0
H632 H 0.33572 0.12952 0.42826 0.0
H633 H 0.37381 0.09183 0.38199 0.0
H634 H 0.37117 0.05922 0.41777 0.0
H635 H 0.33479 0.11471 0.3546 0.0
H636 H 0.41501 0.13287 0.40746 0.0
H637 H 0.44105 0.13711 0.44772 0.0
H638 H 0.38988 0.18774 0.45667 0.0
H639 H 0.36316 0.18353 0.41668 0.0
C640 C 0.36249 0.231 0.30205 0.0
C641 C 0.33382 0.23417 0.29573 0.0
C642 C 0.36892 0.21062 0.31698 0.0
C643 C 0.34675 0.19307 0.32558 0.0
C644 C 0.31812 0.19616 0.31868 0.0
C645 C 0.31176 0.21648 0.3038 0.0
C646 C 0.35303 0.17206 0.34313 0.0
C647 C 0.36795 0.17394 0.36615 0.0
C648 C 0.34204 0.15036 0.33845 0.0
C649 C 0.32826 0.14727 0.31357 0.0
C650 C 0.30094 0.13453 0.31254 0.0
C651 C 0.2878 0.13203 0.28908 0.0
C652 C 0.30179 0.14215 0.26648 0.0
C653 C 0.32901 0.15471 0.2673 0.0
C654 C 0.34228 0.1572 0.29071 0.0
C655 C 0.34246 0.09595 0.44603 0.0
C656 C 0.35217 0.07589 0.44335 0.0
C657 C 0.34367 0.11433 0.42574 0.0
C658 C 0.3553 0.11324 0.40253 0.0
C659 C 0.36479 0.09307 0.39973 0.0
C660 C 0.36333 0.07452 0.42007 0.0
C661 C 0.35745 0.13333 0.38143 0.0
C662 C 0.34417 0.13127 0.35778 0.0
C663 C 0.37059 0.15485 0.38525 0.0
C664 C 0.38699 0.15781 0.40908 0.0
C665 C 0.40921 0.14484 0.41806 0.0
C666 C 0.42409 0.14724 0.44084 0.0
C667 C 0.41711 0.16268 0.45475 0.0
C668 C 0.39527 0.1758 0.44587 0.0
C669 C 0.38028 0.17343 0.42312 0.0
H670 H 0.42864 0.1645 0.47239 0.0
H671 H 0.29154 0.14024 0.24834 0.0
H672 H 0.30827 0.75855 0.7996 0.0
H673 H 0.34413 0.76443 0.83374 0.0
H674 H 0.41035 0.7512 0.78842 0.0
H675 H 0.37454 0.7461 0.75406 0.0
H676 H 0.40005 0.72288 0.84237 0.0
H677 H 0.41918 0.79862 0.79368 0.0
H678 H 0.4051 0.83484 0.7708 0.0
H679 H 0.37193 0.84585 0.83958 0.0
H680 H 0.38531 0.80943 0.86279 0.0
H681 H 0.5176 0.73778 0.92755 0.0
H682 H 0.48664 0.73921 0.8893 0.0
H683 H 0.43159 0.77744 0.92007 0.0
H684 H 0.46327 0.77677 0.95798 0.0
H685 H 0.43677 0.79396 0.87193 0.0
H686 H 0.41432 0.71902 0.92052 0.0
H687 H 0.4242 0.68181 0.94439 0.0
H688 H 0.45898 0.66815 0.87765 0.0
H689 H 0.44966 0.70542 0.85345 0.0
C690 C 0.33065 0.75753 0.79686 0.0
C691 C 0.33898 0.7521 0.77441 0.0
C692 C 0.35101 0.76079 0.81624 0.0
C693 C 0.3798 0.7582 0.81352 0.0
C694 C 0.38823 0.75332 0.79078 0.0
C695 C 0.36796 0.75056 0.7712 0.0
C696 C 0.40054 0.75888 0.8352 0.0
C697 C 0.40852 0.73843 0.84864 0.0
C698 C 0.41065 0.77911 0.84373 0.0
C699 C 0.40297 0.80117 0.82992 0.0
C700 C 0.40862 0.80864 0.80388 0.0
C701 C 0.40081 0.82923 0.79085 0.0
C702 C 0.38756 0.84261 0.80371 0.0
C703 C 0.38217 0.83545 0.82964 0.0
C704 C 0.38987 0.81484 0.84274 0.0
C705 C 0.49881 0.7464 0.92616 0.0
C706 C 0.49266 0.75698 0.94581 0.0
C707 C 0.48109 0.7472 0.90431 0.0
C708 C 0.45638 0.75807 0.90192 0.0
C709 C 0.45046 0.76893 0.92142 0.0
C710 C 0.4685 0.76848 0.9431 0.0
C711 C 0.43659 0.75784 0.87928 0.0
C712 C 0.42856 0.77836 0.86568 0.0
C713 C 0.42601 0.73756 0.87077 0.0
C714 C 0.43155 0.7151 0.88525 0.0
C715 C 0.42426 0.70815 0.91098 0.0
C716 C 0.42973 0.68704 0.92456 0.0
C717 C 0.44228 0.67265 0.91256 0.0
C718 C 0.4493 0.67932 0.88693 0.0
C719 C 0.44391 0.70043 0.87327 0.0
H720 H 0.4465 0.65631 0.92311 0.0
H721 H 0.38153 0.85855 0.7936 0.0
H722 H 0.83656 0.8144 0.34922 0.0
H723 H 0.83986 0.84588 0.37201 0.0
H724 H 0.9323 0.85441 0.3686 0.0
H725 H 0.92888 0.82363 0.34466 0.0
H726 H 0.89744 0.85304 0.4212 0.0
H727 H 0.91564 0.88954 0.33172 0.0
H728 H 0.90227 0.89366 0.28609 0.0
H729 H 0.81928 0.90908 0.30089 0.0
H730 H 0.83202 0.90465 0.34671 0.0
H731 H 0.92483 0.95528 0.46541 0.0
H732 H 0.92837 0.92579 0.44163 0.0
H733 H 0.84676 0.93685 0.40393 0.0
H734 H 0.84429 0.96771 0.42583 0.0
H735 H 0.87795 0.92759 0.37183 0.0
H736 H 0.8558 0.89408 0.45752 0.0
H737 H 0.86211 0.88784 0.50412 0.0
H738 H 0.94211 0.86295 0.49931 0.0
H739 H 0.93685 0.86991 0.45248 0.0
C740 C 0.85751 0.823 0.35347 0.0
C741 C 0.88248 0.81664 0.34542 0.0
C742 C 0.8594 0.84083 0.36651 0.0
C743 C 0.88632 0.85232 0.37201 0.0
C744 C 0.91137 0.84558 0.36466 0.0
C745 C 0.90943 0.82803 0.35114 0.0
C746 C 0.88806 0.87217 0.3842 0.0
C747 C 0.89374 0.86949 0.41046 0.0
C748 C 0.88199 0.89324 0.37023 0.0
C749 C 0.87468 0.89655 0.34263 0.0
C750 C 0.89447 0.89363 0.32526 0.0
C751 C 0.88702 0.89605 0.29937 0.0
C752 C 0.85991 0.90157 0.2906 0.0
C753 C 0.84025 0.90478 0.30771 0.0
C754 C 0.84759 0.90234 0.33363 0.0
C755 C 0.90793 0.9519 0.45162 0.0
C756 C 0.88405 0.96384 0.44792 0.0
C757 C 0.90979 0.93471 0.43827 0.0
C758 C 0.88746 0.92859 0.42144 0.0
C759 C 0.86419 0.94104 0.41696 0.0
C760 C 0.8626 0.95854 0.42986 0.0
C761 C 0.88778 0.90879 0.40913 0.0
C762 C 0.88215 0.91133 0.38277 0.0
C763 C 0.89305 0.88737 0.42324 0.0
C764 C 0.89609 0.88277 0.45144 0.0
C765 C 0.87486 0.88744 0.46636 0.0
C766 C 0.87824 0.88376 0.49284 0.0
C767 C 0.90244 0.87492 0.50471 0.0
C768 C 0.92338 0.86981 0.49009 0.0
C769 C 0.92026 0.87369 0.46356 0.0
H770 H 0.90497 0.87204 0.52524 0.0
H771 H 0.85417 0.90341 0.27055 0.0
H772 H 0.70915 0.21714 0.76163 0.0
H773 H 0.67671 0.21096 0.79756 0.0
H774 H 0.74677 0.23658 0.84385 0.0
H775 H 0.77916 0.24216 0.80798 0.0
H776 H 0.71389 0.20112 0.87131 0.0
H777 H 0.69838 0.27021 0.8147 0.0
H778 H 0.68764 0.29418 0.77347 0.0
H779 H 0.60502 0.25429 0.76953 0.0
H780 H 0.61546 0.22983 0.81057 0.0
H781 H 0.62851 0.23054 0.96358 0.0
H782 H 0.66299 0.2305 0.93068 0.0
H783 H 0.59371 0.20407 0.88422 0.0
H784 H 0.55943 0.20441 0.91688 0.0
H785 H 0.62661 0.23949 0.8573 0.0
H786 H 0.64215 0.17083 0.91492 0.0
H787 H 0.65325 0.14745 0.95643 0.0
H788 H 0.73604 0.18738 0.959 0.0
H789 H 0.72526 0.21122 0.91765 0.0
C790 C 0.71747 0.22114 0.77964 0.0
C791 C 0.7463 0.23037 0.7822 0.0
C792 C 0.69905 0.21774 0.80006 0.0
C793 C 0.70921 0.22369 0.82327 0.0
C794 C 0.73843 0.23197 0.82612 0.0
C795 C 0.75683 0.23526 0.80571 0.0
C796 C 0.68915 0.22231 0.84414 0.0
C797 C 0.69496 0.20969 0.86833 0.0
C798 C 0.66424 0.23326 0.84018 0.0
C799 C 0.65782 0.24805 0.81559 0.0
C800 C 0.67801 0.26644 0.80495 0.0
C801 C 0.67197 0.28013 0.78163 0.0
C802 C 0.64569 0.27573 0.76886 0.0
C803 C 0.62538 0.25766 0.77942 0.0
C804 C 0.63134 0.24388 0.80272 0.0
C805 C 0.62092 0.22443 0.94647 0.0
C806 C 0.5916 0.21718 0.94273 0.0
C807 C 0.64051 0.22438 0.92774 0.0
C808 C 0.63094 0.2171 0.90507 0.0
C809 C 0.60158 0.20969 0.90155 0.0
C810 C 0.58208 0.20975 0.92021 0.0
C811 C 0.65117 0.21813 0.88444 0.0
C812 C 0.64547 0.23082 0.86028 0.0
C813 C 0.67619 0.20733 0.8885 0.0
C814 C 0.68278 0.19295 0.9133 0.0
C815 C 0.66263 0.17474 0.92443 0.0
C816 C 0.66888 0.16139 0.94791 0.0
C817 C 0.6953 0.16596 0.96038 0.0
C818 C 0.71557 0.18387 0.94934 0.0
C819 C 0.70941 0.1973 0.92587 0.0
H820 H 0.70011 0.1556 0.97856 0.0
H821 H 0.64105 0.28635 0.7508 0.0
H822 H 0.34773 0.76844 0.69039 0.0
H823 H 0.36044 0.80733 0.66712 0.0
H824 H 0.32255 0.83214 0.72561 0.0
H825 H 0.30977 0.79313 0.74871 0.0
H826 H 0.30061 0.84761 0.67816 0.0
H827 H 0.3929 0.84381 0.71793 0.0
H828 H 0.43743 0.82749 0.732 0.0
H829 H 0.45888 0.83209 0.65419 0.0
H830 H 0.41419 0.8481 0.63963 0.0
H831 H 0.33548 0.96246 0.61952 0.0
H832 H 0.33552 0.92716 0.65096 0.0
H833 H 0.36943 0.89651 0.59522 0.0
H834 H 0.36935 0.93196 0.56373 0.0
H835 H 0.39508 0.88548 0.64408 0.0
H836 H 0.30027 0.88651 0.60516 0.0
H837 H 0.2559 0.90329 0.59162 0.0
H838 H 0.23942 0.90394 0.66936 0.0
H839 H 0.28402 0.88756 0.68332 0.0
C840 C 0.34283 0.78232 0.69845 0.0
C841 C 0.32781 0.77802 0.72117 0.0
C842 C 0.35009 0.80447 0.68525 0.0
C843 C 0.34239 0.82264 0.69461 0.0
C844 C 0.32867 0.81837 0.71805 0.0
C845 C 0.32161 0.7962 0.73132 0.0
C846 C 0.34606 0.84571 0.67868 0.0
C847 C 0.32137 0.85608 0.67114 0.0
C848 C 0.37304 0.85651 0.66905 0.0
C849 C 0.40004 0.84699 0.67768 0.0
C850 C 0.40698 0.84117 0.70381 0.0
C851 C 0.43227 0.832 0.71188 0.0
C852 C 0.45094 0.82871 0.694 0.0
C853 C 0.44438 0.83463 0.66802 0.0
C854 C 0.41908 0.84378 0.65984 0.0
C855 C 0.34287 0.94812 0.61409 0.0
C856 C 0.35177 0.94954 0.58921 0.0
C857 C 0.34302 0.92806 0.632 0.0
C858 C 0.35219 0.90915 0.62533 0.0
C859 C 0.36223 0.9109 0.60073 0.0
C860 C 0.362 0.93099 0.58276 0.0
C861 C 0.34962 0.88722 0.64356 0.0
C862 C 0.37443 0.87706 0.65138 0.0
C863 C 0.32275 0.87658 0.65357 0.0
C864 C 0.29564 0.88603 0.64526 0.0
C865 C 0.28729 0.89038 0.61935 0.0
C866 C 0.26209 0.89981 0.6116 0.0
C867 C 0.24488 0.90473 0.62961 0.0
C868 C 0.2528 0.90016 0.65543 0.0
C869 C 0.27803 0.8908 0.66327 0.0
H870 H 0.22539 0.91203 0.62358 0.0
H871 H 0.47053 0.82161 0.70029 0.0
H872 H 0.87628 0.79677 0.24954 0.0
H873 H 0.84352 0.78897 0.21411 0.0
H874 H 0.78962 0.73958 0.26675 0.0
H875 H 0.82273 0.74738 0.30202 0.0
H876 H 0.79183 0.72653 0.2207 0.0
H877 H 0.774 0.79212 0.25099 0.0
H878 H 0.78753 0.8293 0.26287 0.0
H879 H 0.8136 0.85819 0.18647 0.0
H880 H 0.80054 0.82108 0.1742 0.0
H881 H 0.65814 0.73013 0.1508 0.0
H882 H 0.6971 0.73129 0.18284 0.0
H883 H 0.74887 0.78182 0.12977 0.0
H884 H 0.71021 0.78058 0.09754 0.0
H885 H 0.74886 0.79369 0.1754 0.0
H886 H 0.76376 0.72774 0.14473 0.0
H887 H 0.74998 0.69028 0.13362 0.0
H888 H 0.72853 0.66178 0.21126 0.0
H889 H 0.7418 0.69915 0.22277 0.0
C890 C 0.85772 0.78394 0.25326 0.0
C891 C 0.85159 0.7728 0.27825 0.0
C892 C 0.83902 0.77952 0.23316 0.0
C893 C 0.81382 0.764 0.23788 0.0
C894 C 0.80886 0.75167 0.26269 0.0
C895 C 0.82766 0.75608 0.28276 0.0
C896 C 0.79144 0.76222 0.21748 0.0
C897 C 0.78223 0.74115 0.21092 0.0
C898 C 0.77916 0.78137 0.20453 0.0
C899 C 0.78656 0.80378 0.21174 0.0
C900 C 0.78277 0.80638 0.23676 0.0
C901 C 0.79033 0.82744 0.24356 0.0
C902 C 0.80151 0.84608 0.22546 0.0
C903 C 0.805 0.84372 0.20048 0.0
C904 C 0.79749 0.82269 0.19358 0.0
C905 C 0.67796 0.74125 0.1458 0.0
C906 C 0.68097 0.7553 0.12157 0.0
C907 C 0.70022 0.74191 0.16416 0.0
C908 C 0.72601 0.75654 0.15866 0.0
C909 C 0.72915 0.77046 0.13447 0.0
C910 C 0.70694 0.76979 0.1161 0.0
C911 C 0.74929 0.758 0.1784 0.0
C912 C 0.75856 0.77906 0.18498 0.0
C913 C 0.76145 0.73881 0.19142 0.0
C914 C 0.75351 0.7163 0.18456 0.0
C915 C 0.75587 0.71353 0.1594 0.0
C916 C 0.7482 0.6923 0.15303 0.0
C917 C 0.73831 0.67367 0.17171 0.0
C918 C 0.73615 0.67623 0.19681 0.0
C919 C 0.74377 0.69743 0.20327 0.0
H920 H 0.73239 0.65725 0.16675 0.0
H921 H 0.8074 0.86236 0.23078 0.0
H922 H 0.83938 0.21363 0.73483 0.0
H923 H 0.85678 0.19139 0.70686 0.0
H924 H 0.78566 0.2052 0.65436 0.0
H925 H 0.76903 0.22795 0.68221 0.0
H926 H 0.83091 0.15392 0.69651 0.0
H927 H 0.80178 0.19916 0.59434 0.0
H928 H 0.80085 0.23755 0.56907 0.0
H929 H 0.86323 0.26436 0.62049 0.0
H930 H 0.86498 0.22605 0.64583 0.0
H931 H 0.81467 0.07999 0.60896 0.0
H932 H 0.80802 0.1082 0.63389 0.0
H933 H 0.88609 0.14896 0.6042 0.0
H934 H 0.89257 0.12101 0.57876 0.0
H935 H 0.84306 0.17431 0.60312 0.0
H936 H 0.88581 0.11926 0.6641 0.0
H937 H 0.89108 0.08111 0.68827 0.0
H938 H 0.80759 0.07561 0.71949 0.0
H939 H 0.80164 0.11362 0.6952 0.0
C940 C 0.82814 0.21235 0.71691 0.0
C941 C 0.80323 0.22254 0.7103 0.0
C942 C 0.83785 0.19957 0.70106 0.0
C943 C 0.82263 0.19664 0.67839 0.0
C944 C 0.79813 0.20751 0.67145 0.0
C945 C 0.78858 0.22045 0.68727 0.0
C946 C 0.83089 0.18061 0.66336 0.0
C947 C 0.83367 0.15849 0.67609 0.0
C948 C 0.83471 0.18648 0.63672 0.0
C949 C 0.83334 0.20971 0.6221 0.0
C950 C 0.81534 0.21323 0.60025 0.0
C951 C 0.81469 0.23497 0.5859 0.0
C952 C 0.832 0.25335 0.59314 0.0
C953 C 0.84983 0.25008 0.6149 0.0
C954 C 0.85063 0.22835 0.62931 0.0
C955 C 0.83038 0.09499 0.60765 0.0
C956 C 0.85418 0.09823 0.59189 0.0
C957 C 0.82666 0.11103 0.62206 0.0
C958 C 0.84668 0.13062 0.62107 0.0
C959 C 0.87041 0.13395 0.6053 0.0
C960 C 0.87422 0.11786 0.59095 0.0
C961 C 0.84258 0.14772 0.63626 0.0
C962 C 0.84044 0.16992 0.62356 0.0
C963 C 0.83966 0.14205 0.66296 0.0
C964 C 0.84319 0.11921 0.67766 0.0
C965 C 0.86848 0.10985 0.67597 0.0
C966 C 0.87161 0.08826 0.68971 0.0
C967 C 0.84966 0.07592 0.70536 0.0
C968 C 0.82456 0.08518 0.70734 0.0
C969 C 0.82132 0.10675 0.69361 0.0
H970 H 0.85212 0.05922 0.71599 0.0
H971 H 0.83168 0.27011 0.58178 0.0
H972 H 0.38446 0.28985 0.23634 0.0
H973 H 0.40916 0.27936 0.20251 0.0
H974 H 0.35611 0.21437 0.21461 0.0
H975 H 0.32945 0.22594 0.24656 0.0
H976 H 0.44004 0.25167 0.19419 0.0
H977 H 0.34138 0.19581 0.16058 0.0
H978 H 0.2884 0.19108 0.162 0.0
H979 H 0.29153 0.2607 0.16723 0.0
H980 H 0.34446 0.26588 0.16553 0.0
H981 H 0.48758 0.21278 0.08949 0.0
H982 H 0.46735 0.21445 0.13007 0.0
H983 H 0.40036 0.24984 0.08936 0.0
H984 H 0.41866 0.2457 0.04914 0.0
H985 H 0.37751 0.22458 0.12605 0.0
H986 H 0.46608 0.27589 0.12005 0.0
H987 H 0.51838 0.28655 0.11479 0.0
H988 H 0.53441 0.238 0.18212 0.0
H989 H 0.48217 0.22687 0.1876 0.0
C990 C 0.37806 0.27339 0.23162 0.0
C991 C 0.35462 0.25896 0.24356 0.0
C992 C 0.39241 0.26725 0.21251 0.0
C993 C 0.38406 0.24627 0.20538 0.0
C994 C 0.36241 0.23094 0.2191 0.0
C995 C 0.34744 0.2374 0.23767 0.0
C996 C 0.39641 0.24141 0.18236 0.0
C997 C 0.42635 0.24568 0.17933 0.0
C998 C 0.37869 0.23398 0.16261 0.0
C999 C 0.34685 0.23114 0.16321 0.0
C1000 C 0.33072 0.21011 0.16194 0.0
C1001 C 0.30072 0.20735 0.16281 0.0
C1002 C 0.28662 0.22556 0.16479 0.0
C1003 C 0.30248 0.24659 0.16577 0.0
C1004 C 0.33247 0.24945 0.16486 0.0
C1005 C 0.46854 0.22092 0.08937 0.0
C1006 C 0.4554 0.23004 0.06622 0.0
C1007 C 0.4571 0.22206 0.11253 0.0
C1008 C 0.43279 0.23297 0.11299 0.0
C1009 C 0.4193 0.24156 0.08974 0.0
C1010 C 0.43013 0.23967 0.06666 0.0
C1011 C 0.42113 0.23544 0.13747 0.0
C1012 C 0.3913 0.23051 0.14089 0.0
C1013 C 0.43886 0.24332 0.15698 0.0
C1014 C 0.47024 0.2504 0.15409 0.0
C1015 C 0.48077 0.26744 0.13368 0.0
C1016 C 0.5104 0.27356 0.13066 0.0
C1017 C 0.52971 0.26291 0.14806 0.0
C1018 C 0.51943 0.24621 0.16862 0.0
C1019 C 0.48982 0.24 0.17172 0.0
H1020 H 0.55264 0.26761 0.14564 0.0
H1021 H 0.2634 0.22338 0.1655 0.0
H1022 H 0.80943 0.73909 0.69795 0.0
H1023 H 0.83409 0.71317 0.67986 0.0
H1024 H 0.89559 0.71 0.74278 0.0
H1025 H 0.87094 0.73595 0.7606 0.0
H1026 H 0.92067 0.70977 0.69703 0.0
H1027 H 0.83845 0.67166 0.74635 0.0
H1028 H 0.78721 0.66506 0.75714 0.0
H1029 H 0.76386 0.65097 0.6829 0.0
H1030 H 0.81501 0.65788 0.67152 0.0
H1031 H 0.96821 0.60348 0.71344 0.0
H1032 H 0.94743 0.63687 0.71769 0.0
H1033 H 0.88724 0.62723 0.65594 0.0
H1034 H 0.90732 0.59319 0.65216 0.0
H1035 H 0.86076 0.63618 0.69475 0.0
H1036 H 0.94435 0.66961 0.6475 0.0
H1037 H 0.9958 0.67602 0.63746 0.0
H1038 H 0.01702 0.69866 0.7078 0.0
H1039 H 0.96572 0.69207 0.71845 0.0
C1040 C 0.82868 0.73326 0.7074 0.0
C1041 C 0.83835 0.73921 0.73063 0.0
C1042 C 0.84263 0.71843 0.69721 0.0
C1043 C 0.86645 0.70945 0.71017 0.0
C1044 C 0.87726 0.71671 0.73249 0.0
C1045 C 0.86321 0.7314 0.74269 0.0
C1046 C 0.87838 0.69083 0.70212 0.0
C1047 C 0.90765 0.69365 0.69656 0.0
C1048 C 0.8612 0.66996 0.70106 0.0
C1049 C 0.8305 0.66555 0.70798 0.0
C1050 C 0.82238 0.66733 0.73226 0.0
C1051 C 0.79336 0.66352 0.73849 0.0
C1052 C 0.77229 0.65766 0.72069 0.0
C1053 C 0.78021 0.65555 0.69665 0.0
C1054 C 0.8092 0.65942 0.69029 0.0
C1055 C 0.9504 0.60832 0.70087 0.0
C1056 C 0.93936 0.59557 0.68252 0.0
C1057 C 0.93878 0.62762 0.7031 0.0
C1058 C 0.91604 0.63477 0.68688 0.0
C1059 C 0.90491 0.62211 0.66854 0.0
C1060 C 0.91652 0.60274 0.66631 0.0
C1061 C 0.90324 0.65495 0.68989 0.0
C1062 C 0.87377 0.6524 0.69466 0.0
C1063 C 0.92028 0.67604 0.69026 0.0
C1064 C 0.95117 0.6802 0.68385 0.0
C1065 C 0.96 0.67581 0.66091 0.0
C1066 C 0.98914 0.6795 0.6551 0.0
C1067 C 0.00967 0.6877 0.672 0.0
C1068 C 0.00109 0.69229 0.69473 0.0
C1069 C 0.97198 0.68862 0.70064 0.0
H1070 H 0.03223 0.69054 0.66747 0.0
H1071 H 0.74983 0.65471 0.72555 0.0
H1072 H 0.87518 0.30538 0.24935 0.0
H1073 H 0.91253 0.33519 0.25959 0.0
H1074 H 0.86602 0.33783 0.32578 0.0
H1075 H 0.82914 0.30755 0.31579 0.0
H1076 H 0.88157 0.38101 0.28766 0.0
H1077 H 0.92163 0.3176 0.33843 0.0
H1078 H 0.93879 0.28049 0.34518 0.0
H1079 H 0.00377 0.30712 0.2898 0.0
H1080 H 0.98657 0.34427 0.28221 0.0
H1081 H 0.98191 0.46521 0.32785 0.0
H1082 H 0.94851 0.43038 0.32817 0.0
H1083 H 0.00501 0.40872 0.27993 0.0
H1084 H 0.03916 0.44295 0.28099 0.0
H1085 H 0.98363 0.37378 0.31202 0.0
H1086 H 0.94358 0.434 0.25683 0.0
H1087 H 0.92644 0.4711 0.24448 0.0
H1088 H 0.86207 0.45093 0.30144 0.0
H1089 H 0.87913 0.4138 0.31441 0.0
C1090 C 0.87341 0.31214 0.26629 0.0
C1091 C 0.84964 0.30439 0.2819 0.0
C1092 C 0.89458 0.32906 0.27212 0.0
C1093 C 0.89194 0.33865 0.29342 0.0
C1094 C 0.8684 0.33057 0.3093 0.0
C1095 C 0.84753 0.31333 0.30372 0.0
C1096 C 0.91285 0.35807 0.29808 0.0
C1097 C 0.90378 0.37944 0.29348 0.0
C1098 C 0.94197 0.35597 0.3047 0.0
C1099 C 0.95262 0.3337 0.30957 0.0
C1100 C 0.9394 0.31551 0.3275 0.0
C1101 C 0.94916 0.29447 0.33152 0.0
C1102 C 0.97232 0.29144 0.31793 0.0
C1103 C 0.98581 0.30948 0.30031 0.0
C1104 C 0.97606 0.33054 0.29614 0.0
C1105 C 0.98729 0.45278 0.31771 0.0
C1106 C 0.01303 0.45659 0.30448 0.0
C1107 C 0.96814 0.43299 0.31767 0.0
C1108 C 0.97393 0.41703 0.30369 0.0
C1109 C 0.99999 0.42071 0.29087 0.0
C1110 C 0.0194 0.44028 0.29133 0.0
C1111 C 0.95244 0.39695 0.30162 0.0
C1112 C 0.96138 0.37543 0.30653 0.0
C1113 C 0.92326 0.39895 0.29461 0.0
C1114 C 0.91284 0.42121 0.28678 0.0
C1115 C 0.9259 0.43753 0.26685 0.0
C1116 C 0.91619 0.45856 0.25972 0.0
C1117 C 0.89323 0.46339 0.27221 0.0
C1118 C 0.87989 0.44717 0.29182 0.0
C1119 C 0.88956 0.42613 0.29906 0.0
H1120 H 0.88573 0.47968 0.26667 0.0
H1121 H 0.97985 0.27514 0.32108 0.0
H1122 H 0.17002 0.27082 0.6882 0.0
H1123 H 0.13982 0.30127 0.68137 0.0
H1124 H 0.21532 0.35045 0.66337 0.0
H1125 H 0.24535 0.3199 0.6713 0.0
H1126 H 0.18543 0.36392 0.69409 0.0
H1127 H 0.16252 0.33629 0.6173 0.0
H1128 H 0.14713 0.3079 0.59072 0.0
H1129 H 0.06487 0.29244 0.62589 0.0
H1130 H 0.07991 0.32051 0.65297 0.0
H1131 H 0.10877 0.45693 0.64784 0.0
H1132 H 0.13728 0.42642 0.64729 0.0
H1133 H 0.06889 0.37767 0.68377 0.0
H1134 H 0.04034 0.40814 0.68451 0.0
H1135 H 0.09505 0.36485 0.64183 0.0
H1136 H 0.12075 0.39244 0.71968 0.0
H1137 H 0.13712 0.42201 0.74453 0.0
H1138 H 0.21609 0.43898 0.70404 0.0
H1139 H 0.19997 0.40972 0.67867 0.0
C1140 C 0.17987 0.28817 0.68247 0.0
C1141 C 0.20975 0.29325 0.68016 0.0
C1142 C 0.16273 0.30554 0.67847 0.0
C1143 C 0.17522 0.32822 0.67154 0.0
C1144 C 0.20515 0.33314 0.66871 0.0
C1145 C 0.22227 0.31579 0.67311 0.0
C1146 C 0.1574 0.34688 0.66867 0.0
C1147 C 0.16595 0.36425 0.68227 0.0
C1148 C 0.13163 0.34721 0.65366 0.0
C1149 C 0.12245 0.33037 0.63734 0.0
C1150 C 0.14122 0.32672 0.61951 0.0
C1151 C 0.13255 0.3107 0.60433 0.0
C1152 C 0.10506 0.29834 0.60666 0.0
C1153 C 0.08616 0.30201 0.62413 0.0
C1154 C 0.09474 0.31799 0.63938 0.0
C1155 C 0.09972 0.43968 0.65546 0.0
C1156 C 0.07245 0.43487 0.66635 0.0
C1157 C 0.11602 0.42231 0.6552 0.0
C1158 C 0.10518 0.39985 0.66558 0.0
C1159 C 0.07757 0.39491 0.67565 0.0
C1160 C 0.06141 0.4123 0.67623 0.0
C1161 C 0.12328 0.38166 0.66714 0.0
C1162 C 0.11469 0.36445 0.65341 0.0
C1163 C 0.14924 0.38159 0.68172 0.0
C1164 C 0.15902 0.39907 0.69709 0.0
C1165 C 0.1415 0.40261 0.71592 0.0
C1166 C 0.15075 0.41929 0.73013 0.0
C1167 C 0.17759 0.43241 0.72582 0.0
C1168 C 0.19528 0.42883 0.70733 0.0
C1169 C 0.1861 0.4122 0.69304 0.0
H1170 H 0.18472 0.44531 0.73684 0.0
H1171 H 0.09839 0.28595 0.59488 0.0
H1172 H 0.31683 0.75889 0.26461 0.0
H1173 H 0.28581 0.72442 0.25816 0.0
H1174 H 0.31024 0.6906 0.33327 0.0
H1175 H 0.3429 0.72457 0.33865 0.0
H1176 H 0.303 0.66145 0.3054 0.0
H1177 H 0.24655 0.71653 0.31978 0.0
H1178 H 0.22926 0.75364 0.31233 0.0
H1179 H 0.19896 0.74556 0.23732 0.0
H1180 H 0.21647 0.70853 0.2442 0.0
H1181 H 0.14206 0.6054 0.31098 0.0
H1182 H 0.17851 0.63832 0.31133 0.0
H1183 H 0.23435 0.61061 0.26812 0.0
H1184 H 0.19854 0.57694 0.26942 0.0
H1185 H 0.20185 0.67053 0.27922 0.0
H1186 H 0.3042 0.62694 0.28135 0.0
H1187 H 0.31954 0.58943 0.29675 0.0
H1188 H 0.25412 0.57348 0.35285 0.0
H1189 H 0.23868 0.61098 0.33803 0.0
C1190 C 0.31588 0.74388 0.27943 0.0
C1191 C 0.33149 0.74439 0.30238 0.0
C1192 C 0.29799 0.72429 0.2759 0.0
C1193 C 0.29489 0.70505 0.29555 0.0
C1194 C 0.31192 0.70522 0.31791 0.0
C1195 C 0.33029 0.72466 0.32114 0.0
C1196 C 0.27289 0.68525 0.29349 0.0
C1197 C 0.28092 0.66346 0.29956 0.0
C1198 C 0.24382 0.68769 0.28656 0.0
C1199 C 0.23308 0.70988 0.2824 0.0
C1200 C 0.23636 0.72274 0.30164 0.0
C1201 C 0.22651 0.74375 0.29753 0.0
C1202 C 0.21308 0.75198 0.27435 0.0
C1203 C 0.20941 0.73918 0.25525 0.0
C1204 C 0.21928 0.71818 0.25925 0.0
C1205 C 0.16218 0.60643 0.30162 0.0
C1206 C 0.16763 0.58873 0.29022 0.0
C1207 C 0.18295 0.62526 0.30168 0.0
C1208 C 0.20946 0.62693 0.29004 0.0
C1209 C 0.21442 0.60956 0.27777 0.0
C1210 C 0.19388 0.59046 0.27824 0.0
C1211 C 0.2319 0.64667 0.29118 0.0
C1212 C 0.22398 0.66848 0.28488 0.0
C1213 C 0.26073 0.64416 0.29909 0.0
C1214 C 0.27009 0.62167 0.30836 0.0
C1215 C 0.29317 0.61545 0.29702 0.0
C1216 C 0.30187 0.59419 0.30565 0.0
C1217 C 0.28775 0.57906 0.32571 0.0
C1218 C 0.26497 0.58519 0.33726 0.0
C1219 C 0.25623 0.60643 0.32874 0.0
H1220 H 0.29449 0.5626 0.33233 0.0
H1221 H 0.20546 0.76825 0.2712 0.0
H1222 H 0.86727 0.78777 0.72148 0.0
H1223 H 0.88202 0.82048 0.68759 0.0
H1224 H 0.7933 0.82189 0.66271 0.0
H1225 H 0.77893 0.78892 0.69608 0.0
H1226 H 0.82737 0.83564 0.62294 0.0
H1227 H 0.82259 0.85188 0.70678 0.0
H1228 H 0.83522 0.84797 0.75253 0.0
H1229 H 0.92389 0.87095 0.73493 0.0
H1230 H 0.91181 0.87467 0.68904 0.0
H1231 H 0.84177 0.96575 0.61268 0.0
H1232 H 0.83749 0.92721 0.63778 0.0
H1233 H 0.88082 0.9062 0.57948 0.0
H1234 H 0.88398 0.94467 0.55395 0.0
H1235 H 0.87373 0.90098 0.65933 0.0
H1236 H 0.85458 0.84954 0.57866 0.0
H1237 H 0.835 0.85325 0.53467 0.0
H1238 H 0.78376 0.90249 0.54766 0.0
H1239 H 0.80235 0.89856 0.59197 0.0
C1240 C 0.85122 0.79464 0.70809 0.0
C1241 C 0.82202 0.78618 0.71132 0.0
C1242 C 0.85954 0.81338 0.68893 0.0
C1243 C 0.83868 0.82393 0.67296 0.0
C1244 C 0.80977 0.81412 0.67483 0.0
C1245 C 0.80153 0.79538 0.69387 0.0
C1246 C 0.8461 0.84657 0.65663 0.0
C1247 C 0.83785 0.8499 0.63076 0.0
C1248 C 0.85911 0.86529 0.667 0.0
C1249 C 0.86637 0.8633 0.69453 0.0
C1250 C 0.84481 0.85596 0.71269 0.0
C1251 C 0.85186 0.85378 0.73863 0.0
C1252 C 0.88035 0.85914 0.74664 0.0
C1253 C 0.90184 0.86675 0.7287 0.0
C1254 C 0.89491 0.8689 0.70272 0.0
C1255 C 0.85022 0.95281 0.6053 0.0
C1256 C 0.86279 0.95791 0.58136 0.0
C1257 C 0.84797 0.93086 0.61964 0.0
C1258 C 0.85852 0.91367 0.61042 0.0
C1259 C 0.87202 0.91902 0.5868 0.0
C1260 C 0.87396 0.94095 0.57231 0.0
C1261 C 0.85488 0.8902 0.62551 0.0
C1262 C 0.86382 0.88671 0.65123 0.0
C1263 C 0.84169 0.8715 0.61513 0.0
C1264 C 0.83024 0.87401 0.58853 0.0
C1265 C 0.83908 0.86112 0.57215 0.0
C1266 C 0.82809 0.86322 0.54718 0.0
C1267 C 0.8083 0.87822 0.53831 0.0
C1268 C 0.79922 0.89098 0.5545 0.0
C1269 C 0.80994 0.88879 0.57957 0.0
H1270 H 0.79994 0.87989 0.51893 0.0
H1271 H 0.88577 0.85745 0.76673 0.0
H1272 H 0.79421 0.28179 0.20271 0.0
H1273 H 0.75627 0.27555 0.17059 0.0
H1274 H 0.69422 0.253 0.22984 0.0
H1275 H 0.73203 0.26 0.26186 0.0
H1276 H 0.69286 0.22396 0.19396 0.0
H1277 H 0.69223 0.30242 0.19566 0.0
H1278 H 0.71434 0.34189 0.19373 0.0
H1279 H 0.74189 0.34536 0.1179 0.0
H1280 H 0.72034 0.30577 0.11952 0.0
H1281 H 0.56926 0.21942 0.1115 0.0
H1282 H 0.60407 0.22689 0.14552 0.0
H1283 H 0.66501 0.26318 0.08926 0.0
H1284 H 0.62988 0.25641 0.05537 0.0
H1285 H 0.66575 0.28551 0.12527 0.0
H1286 H 0.66997 0.20791 0.12294 0.0
H1287 H 0.65079 0.16795 0.1239 0.0
H1288 H 0.61986 0.16205 0.19911 0.0
H1289 H 0.63854 0.20209 0.19846 0.0
C1290 C 0.77237 0.27586 0.20873 0.0
C1291 C 0.76589 0.27144 0.23464 0.0
C1292 C 0.7508 0.27219 0.19048 0.0
C1293 C 0.72247 0.26387 0.19789 0.0
C1294 C 0.71598 0.25936 0.22378 0.0
C1295 C 0.73749 0.26331 0.242 0.0
C1296 C 0.69971 0.25965 0.17858 0.0
C1297 C 0.68655 0.23742 0.17913 0.0
C1298 C 0.69218 0.27718 0.15892 0.0
C1299 C 0.7049 0.30106 0.1578 0.0
C1300 C 0.70321 0.31154 0.17865 0.0
C1301 C 0.71561 0.33394 0.1776 0.0
C1302 C 0.72957 0.34611 0.15573 0.0
C1303 C 0.7311 0.33591 0.13484 0.0
C1304 C 0.71877 0.31349 0.1358 0.0
C1305 C 0.59018 0.22887 0.10649 0.0
C1306 C 0.59701 0.23728 0.08089 0.0
C1307 C 0.61007 0.2331 0.12589 0.0
C1308 C 0.63737 0.24535 0.11998 0.0
C1309 C 0.64411 0.25374 0.09434 0.0
C1310 C 0.62409 0.24983 0.075 0.0
C1311 C 0.6589 0.24968 0.14038 0.0
C1312 C 0.67187 0.27197 0.14009 0.0
C1313 C 0.66659 0.23214 0.16007 0.0
C1314 C 0.65538 0.20806 0.16054 0.0
C1315 C 0.65888 0.19813 0.13961 0.0
C1316 C 0.64814 0.17547 0.14011 0.0
C1317 C 0.63404 0.16249 0.16152 0.0
C1318 C 0.63074 0.17214 0.18251 0.0
C1319 C 0.64142 0.19481 0.1821 0.0
H1320 H 0.62574 0.14494 0.16188 0.0
H1321 H 0.73916 0.36345 0.15496 0.0
H1322 H 0.21831 0.20511 0.68271 0.0
H1323 H 0.23545 0.17435 0.66666 0.0
H1324 H 0.31867 0.21445 0.65381 0.0
H1325 H 0.30157 0.2449 0.67029 0.0
H1326 H 0.29266 0.19483 0.61126 0.0
H1327 H 0.3155 0.17496 0.70064 0.0
H1328 H 0.30409 0.1669 0.74613 0.0
H1329 H 0.24231 0.11037 0.73495 0.0
H1330 H 0.25289 0.11841 0.68922 0.0
H1331 H 0.36715 0.11403 0.57747 0.0
H1332 H 0.35428 0.14238 0.59965 0.0
H1333 H 0.27972 0.09664 0.62954 0.0
H1334 H 0.29324 0.06793 0.60812 0.0
H1335 H 0.30152 0.11934 0.66427 0.0
H1336 H 0.27578 0.13932 0.57569 0.0
H1337 H 0.284 0.14769 0.52954 0.0
H1338 H 0.34756 0.20385 0.53836 0.0
H1339 H 0.34001 0.19562 0.58465 0.0
C1340 C 0.24024 0.20713 0.67652 0.0
C1341 C 0.25876 0.22711 0.67761 0.0
C1342 C 0.25002 0.18968 0.66746 0.0
C1343 C 0.27832 0.1922 0.6591 0.0
C1344 C 0.29678 0.21224 0.66018 0.0
C1345 C 0.28713 0.22949 0.66963 0.0
C1346 C 0.28853 0.17412 0.64872 0.0
C1347 C 0.295 0.17841 0.62287 0.0
C1348 C 0.29077 0.15258 0.66384 0.0
C1349 C 0.28478 0.14743 0.69143 0.0
C1350 C 0.29929 0.16093 0.70782 0.0
C1351 C 0.293 0.15635 0.73366 0.0
C1352 C 0.27244 0.13816 0.74342 0.0
C1353 C 0.2582 0.12447 0.72736 0.0
C1354 C 0.26434 0.12904 0.70147 0.0
C1355 C 0.34818 0.11 0.58899 0.0
C1356 C 0.33105 0.08891 0.59095 0.0
C1357 C 0.34076 0.12621 0.60158 0.0
C1358 C 0.31562 0.12187 0.6158 0.0
C1359 C 0.29914 0.10043 0.61863 0.0
C1360 C 0.30686 0.08405 0.60639 0.0
C1361 C 0.30583 0.14001 0.62665 0.0
C1362 C 0.29931 0.13575 0.65259 0.0
C1363 C 0.30317 0.16157 0.61153 0.0
C1364 C 0.30752 0.16672 0.58366 0.0
C1365 C 0.29163 0.15337 0.5678 0.0
C1366 C 0.29616 0.1581 0.54162 0.0
C1367 C 0.31634 0.17625 0.53103 0.0
C1368 C 0.33197 0.18977 0.5466 0.0
C1369 C 0.32756 0.1851 0.5728 0.0
H1370 H 0.31983 0.17988 0.51076 0.0
H1371 H 0.2676 0.13463 0.76343 0.0
H1372 H 0.40008 0.74459 0.29397 0.0
H1373 H 0.42629 0.73766 0.25841 0.0
H1374 H 0.38874 0.79075 0.20755 0.0
H1375 H 0.36279 0.79757 0.24318 0.0
H1376 H 0.41261 0.72738 0.2105 0.0
H1377 H 0.44256 0.82288 0.17114 0.0
H1378 H 0.44776 0.85871 0.18666 0.0
H1379 H 0.46783 0.82392 0.26197 0.0
H1380 H 0.4633 0.78799 0.24681 0.0
H1381 H 0.47428 0.74691 0.08805 0.0
H1382 H 0.44482 0.748 0.12413 0.0
H1383 H 0.52157 0.76844 0.16629 0.0
H1384 H 0.55091 0.76738 0.13016 0.0
H1385 H 0.48007 0.7936 0.16982 0.0
H1386 H 0.48828 0.71516 0.17999 0.0
H1387 H 0.48511 0.67858 0.16646 0.0
H1388 H 0.39396 0.67736 0.15376 0.0
H1389 H 0.39667 0.71417 0.16678 0.0
C1390 C 0.39721 0.7544 0.27504 0.0
C1391 C 0.38008 0.77183 0.2711 0.0
C1392 C 0.41202 0.75045 0.2548 0.0
C1393 C 0.4098 0.76395 0.23045 0.0
C1394 C 0.39107 0.78037 0.22626 0.0
C1395 C 0.37632 0.78428 0.24648 0.0
C1396 C 0.42888 0.76231 0.20998 0.0
C1397 C 0.4273 0.74185 0.20152 0.0
C1398 C 0.44853 0.78106 0.19872 0.0
C1399 C 0.4523 0.80272 0.20786 0.0
C1400 C 0.44827 0.82291 0.19097 0.0
C1401 C 0.45108 0.84323 0.19971 0.0
C1402 C 0.45803 0.84358 0.2253 0.0
C1403 C 0.46238 0.82363 0.24217 0.0
C1404 C 0.45968 0.80328 0.23351 0.0
C1405 C 0.4847 0.75154 0.10513 0.0
C1406 C 0.5147 0.75695 0.1066 0.0
C1407 C 0.46797 0.75211 0.12568 0.0
C1408 C 0.48104 0.7581 0.14799 0.0
C1409 C 0.51106 0.76375 0.14929 0.0
C1410 C 0.52777 0.7631 0.12877 0.0
C1411 C 0.4634 0.7588 0.16986 0.0
C1412 C 0.46531 0.77912 0.17866 0.0
C1413 C 0.44448 0.73979 0.1817 0.0
C1414 C 0.44272 0.71754 0.17414 0.0
C1415 C 0.46759 0.70719 0.17412 0.0
C1416 C 0.46588 0.6864 0.16657 0.0
C1417 C 0.43936 0.67568 0.15921 0.0
C1418 C 0.41449 0.6857 0.15944 0.0
C1419 C 0.4161 0.70652 0.16692 0.0
H1420 H 0.43807 0.65958 0.15337 0.0
H1421 H 0.4601 0.85931 0.23204 0.0
H1422 H 0.79841 0.25521 0.33488 0.0
H1423 H 0.81797 0.22775 0.36911 0.0
H1424 H 0.88803 0.22555 0.3214 0.0
H1425 H 0.86863 0.25346 0.28746 0.0
H1426 H 0.85108 0.18308 0.33932 0.0
H1427 H 0.90583 0.24486 0.37084 0.0
H1428 H 0.91269 0.28121 0.38528 0.0
H1429 H 0.85528 0.25296 0.44659 0.0
H1430 H 0.84763 0.21656 0.43227 0.0
H1431 H 0.90225 0.09509 0.42782 0.0
H1432 H 0.9018 0.13135 0.39828 0.0
H1433 H 0.84668 0.15206 0.44848 0.0
H1434 H 0.84866 0.11631 0.47868 0.0
H1435 H 0.88192 0.18708 0.42838 0.0
H1436 H 0.82051 0.12912 0.39563 0.0
H1437 H 0.80781 0.09279 0.3816 0.0
H1438 H 0.87036 0.11372 0.32311 0.0
H1439 H 0.88376 0.15007 0.33707 0.0
C1440 C 0.81853 0.24939 0.33226 0.0
C1441 C 0.83228 0.25633 0.30891 0.0
C1442 C 0.82965 0.23376 0.35165 0.0
C1443 C 0.85442 0.22466 0.34772 0.0
C1444 C 0.86897 0.23248 0.32479 0.0
C1445 C 0.85807 0.24842 0.30556 0.0
C1446 C 0.86271 0.20496 0.36614 0.0
C1447 C 0.8585 0.18399 0.35864 0.0
C1448 C 0.87121 0.20616 0.39155 0.0
C1449 C 0.87599 0.228 0.40034 0.0
C1450 C 0.89446 0.24644 0.38727 0.0
C1451 C 0.89853 0.26705 0.39545 0.0
C1452 C 0.8844 0.2694 0.4168 0.0
C1453 C 0.8662 0.25112 0.43004 0.0
C1454 C 0.86202 0.23049 0.42192 0.0
C1455 C 0.89051 0.10762 0.43265 0.0
C1456 C 0.87548 0.10306 0.45539 0.0
C1457 C 0.89006 0.12824 0.41574 0.0
C1458 C 0.87376 0.14433 0.4209 0.0
C1459 C 0.85941 0.13997 0.44404 0.0
C1460 C 0.86036 0.11954 0.46118 0.0
C1461 C 0.87023 0.16505 0.4016 0.0
C1462 C 0.87504 0.18617 0.40894 0.0
C1463 C 0.86151 0.16399 0.37612 0.0
C1464 C 0.85337 0.14221 0.36757 0.0
C1465 C 0.8317 0.12591 0.37989 0.0
C1466 C 0.82436 0.10532 0.37194 0.0
C1467 C 0.83832 0.10092 0.35152 0.0
C1468 C 0.8596 0.11714 0.33896 0.0
C1469 C 0.86708 0.13774 0.34688 0.0
H1470 H 0.83261 0.08498 0.34539 0.0
H1471 H 0.88758 0.28537 0.4231 0.0
H1472 H 0.25295 0.21475 0.73713 0.0
H1473 H 0.28431 0.20174 0.77379 0.0
H1474 H 0.34555 0.26154 0.75157 0.0
H1475 H 0.31386 0.27461 0.71527 0.0
H1476 H 0.36959 0.21825 0.77044 0.0
H1477 H 0.3025 0.26564 0.79123 0.0
H1478 H 0.25375 0.27528 0.794 0.0
H1479 H 0.2291 0.21087 0.84239 0.0
H1480 H 0.27765 0.20073 0.83959 0.0
H1481 H 0.45177 0.2411 0.87688 0.0
H1482 H 0.42044 0.2419 0.83908 0.0
H1483 H 0.35728 0.19241 0.88216 0.0
H1484 H 0.38855 0.19195 0.92042 0.0
H1485 H 0.33164 0.22384 0.85315 0.0
H1486 H 0.39993 0.17816 0.83845 0.0
H1487 H 0.44788 0.16708 0.83569 0.0
H1488 H 0.46946 0.22484 0.7762 0.0
H1489 H 0.42178 0.23647 0.77885 0.0
C1490 C 0.27344 0.22474 0.73991 0.0
C1491 C 0.28118 0.24565 0.72378 0.0
C1492 C 0.29122 0.21739 0.76074 0.0
C1493 C 0.31709 0.23079 0.76538 0.0
C1494 C 0.32569 0.25098 0.74822 0.0
C1495 C 0.30769 0.25846 0.72765 0.0
C1496 C 0.33373 0.22514 0.78942 0.0
C1497 C 0.36145 0.21951 0.78856 0.0
C1498 C 0.32259 0.22613 0.81305 0.0
C1499 C 0.29356 0.23233 0.81495 0.0
C1500 C 0.2866 0.25346 0.80227 0.0
C1501 C 0.25903 0.25903 0.80388 0.0
C1502 C 0.23831 0.24366 0.81828 0.0
C1503 C 0.24516 0.22273 0.83119 0.0
C1504 C 0.27269 0.21707 0.82961 0.0
C1505 C 0.4313 0.23025 0.87827 0.0
C1506 C 0.4227 0.21628 0.90152 0.0
C1507 C 0.41344 0.23065 0.85662 0.0
C1508 C 0.38678 0.2168 0.85758 0.0
C1509 C 0.37786 0.20311 0.88091 0.0
C1510 C 0.39566 0.20289 0.90274 0.0
C1511 C 0.36803 0.21736 0.83431 0.0
C1512 C 0.33981 0.22211 0.83523 0.0
C1513 C 0.37863 0.21525 0.81078 0.0
C1514 C 0.40731 0.20827 0.80897 0.0
C1515 C 0.41496 0.18859 0.82489 0.0
C1516 C 0.44209 0.1822 0.82333 0.0
C1517 C 0.46172 0.19527 0.80581 0.0
C1518 C 0.45423 0.21473 0.78977 0.0
C1519 C 0.42714 0.22122 0.79127 0.0
H1520 H 0.48271 0.19029 0.80464 0.0
H1521 H 0.21697 0.248 0.8195 0.0
H1522 H 0.31643 0.81708 0.33247 0.0
H1523 H 0.31833 0.8461 0.35826 0.0
H1524 H 0.40987 0.8456 0.37002 0.0
H1525 H 0.40736 0.8153 0.34576 0.0
H1526 H 0.38965 0.8487 0.41188 0.0
H1527 H 0.37903 0.8888 0.327 0.0
H1528 H 0.35797 0.89719 0.28361 0.0
H1529 H 0.27831 0.90517 0.31401 0.0
H1530 H 0.29877 0.8965 0.35763 0.0
H1531 H 0.40092 0.96462 0.44028 0.0
H1532 H 0.40382 0.93599 0.41477 0.0
H1533 H 0.32405 0.89909 0.4452 0.0
H1534 H 0.32165 0.92671 0.4719 0.0
H1535 H 0.34225 0.91712 0.38116 0.0
H1536 H 0.35579 0.8691 0.46759 0.0
H1537 H 0.38151 0.86354 0.50924 0.0
H1538 H 0.46227 0.87501 0.4718 0.0
H1539 H 0.43695 0.88096 0.42992 0.0
C1540 C 0.33683 0.82303 0.34087 0.0
C1541 C 0.36174 0.814 0.33723 0.0
C1542 C 0.33803 0.83983 0.35529 0.0
C1543 C 0.36437 0.84846 0.36574 0.0
C1544 C 0.3893 0.83935 0.36213 0.0
C1545 C 0.38796 0.82221 0.3481 0.0
C1546 C 0.36576 0.86666 0.38074 0.0
C1547 C 0.37948 0.86371 0.40491 0.0
C1548 C 0.35274 0.88647 0.37182 0.0
C1549 C 0.34038 0.89181 0.34561 0.0
C1550 C 0.35696 0.89219 0.32445 0.0
C1551 C 0.34514 0.89702 0.29981 0.0
C1552 C 0.3168 0.90166 0.29606 0.0
C1553 C 0.30025 0.90155 0.31695 0.0
C1554 C 0.31196 0.89671 0.34163 0.0
C1555 C 0.38422 0.95023 0.44198 0.0
C1556 C 0.36099 0.94812 0.45821 0.0
C1557 C 0.38584 0.93399 0.42721 0.0
C1558 C 0.36417 0.9155 0.42822 0.0
C1559 C 0.34098 0.9133 0.44424 0.0
C1560 C 0.33955 0.92927 0.4593 0.0
C1561 C 0.36533 0.89863 0.41217 0.0
C1562 C 0.35233 0.90201 0.38784 0.0
C1563 C 0.37946 0.8795 0.42064 0.0
C1564 C 0.39455 0.87575 0.44572 0.0
C1565 C 0.37904 0.87067 0.46827 0.0
C1566 C 0.39353 0.86739 0.49191 0.0
C1567 C 0.42352 0.869 0.49317 0.0
C1568 C 0.43906 0.87382 0.4708 0.0
C1569 C 0.42465 0.87714 0.44712 0.0
H1570 H 0.4347 0.86644 0.51148 0.0
H1571 H 0.30769 0.90539 0.27697 0.0
H1572 H 0.81206 0.74928 0.8208 0.0
H1573 H 0.78452 0.74741 0.85896 0.0
H1574 H 0.70922 0.76045 0.81161 0.0
H1575 H 0.73689 0.7623 0.77357 0.0
H1576 H 0.71727 0.78645 0.84708 0.0
H1577 H 0.71557 0.70789 0.8453 0.0
H1578 H 0.73684 0.6736 0.84363 0.0
H1579 H 0.7836 0.67861 0.91373 0.0
H1580 H 0.76295 0.71316 0.91561 0.0
H1581 H 0.6124 0.75954 0.94194 0.0
H1582 H 0.64056 0.75901 0.90492 0.0
H1583 H 0.71448 0.74644 0.95435 0.0
H1584 H 0.68602 0.74667 0.99141 0.0
H1585 H 0.70807 0.72026 0.91846 0.0
H1586 H 0.70936 0.79847 0.92059 0.0
H1587 H 0.68779 0.83256 0.92256 0.0
H1588 H 0.64204 0.8283 0.85183 0.0
H1589 H 0.66293 0.79391 0.84968 0.0
C1590 C 0.78955 0.75148 0.81873 0.0
C1591 C 0.77643 0.75588 0.79446 0.0
C1592 C 0.77386 0.75044 0.84042 0.0
C1593 C 0.74475 0.75364 0.83813 0.0
C1594 C 0.73165 0.75798 0.81381 0.0
C1595 C 0.74736 0.75902 0.79217 0.0
C1596 C 0.72804 0.75294 0.861 0.0
C1597 C 0.71494 0.77186 0.86254 0.0
C1598 C 0.72566 0.73413 0.88145 0.0
C1599 C 0.73793 0.71325 0.88046 0.0
C1600 C 0.73056 0.70178 0.86026 0.0
C1601 C 0.74248 0.68228 0.85929 0.0
C1602 C 0.76162 0.67396 0.87853 0.0
C1603 C 0.76881 0.6851 0.89882 0.0
C1604 C 0.75699 0.70463 0.89986 0.0
C1605 C 0.63465 0.75664 0.94474 0.0
C1606 C 0.64728 0.75323 0.96922 0.0
C1607 C 0.65071 0.75637 0.9237 0.0
C1608 C 0.67972 0.75293 0.92687 0.0
C1609 C 0.69216 0.74913 0.9515 0.0
C1610 C 0.67605 0.74935 0.97256 0.0
C1611 C 0.69714 0.7537 0.90443 0.0
C1612 C 0.71042 0.73484 0.903 0.0
C1613 C 0.69975 0.77259 0.88407 0.0
C1614 C 0.68752 0.79349 0.88509 0.0
C1615 C 0.69455 0.80471 0.90554 0.0
C1616 C 0.68245 0.82409 0.90669 0.0
C1617 C 0.66352 0.83257 0.88735 0.0
C1618 C 0.6567 0.8217 0.8668 0.0
C1619 C 0.66866 0.80227 0.86561 0.0
H1620 H 0.65417 0.84758 0.88827 0.0
H1621 H 0.77082 0.65886 0.87774 0.0
loop_
_geom_bond_atom_site_label_1
_geom_bond_atom_site_label_2
_geom_bond_distance
_geom_bond_site_symmetry_2
_ccdc_geom_bond_type
C0 N1 1.317 . S
C0 N2 1.348 . S
C0 C3 1.485 . S
N1 C0 1.317 . S
N1 N5 1.370 . S
N2 C0 1.348 . S
N2 C4 1.346 . S
C3 C0 1.485 . S
C3 H7 0.960 . S
C3 H8 0.961 . S
C3 H9 0.960 . S
C4 N2 1.346 . S
C4 N5 1.307 . S
C4 C6 1.486 . S
N5 N1 1.370 . S
N5 C4 1.307 . S
C6 C4 1.486 . S
C6 H10 0.960 . S
C6 H11 0.960 . S
C6 H12 0.959 . S
H7 C3 0.960 . S
H8 C3 0.961 . S
H9 C3 0.960 . S
H10 C6 0.960 . S
H11 C6 0.960 . S
H12 C6 0.959 . S
C13 N14 1.317 . S
C13 N15 1.348 . S
C13 C16 1.485 . S
N14 C13 1.317 . S
N14 N18 1.370 . S
N15 C13 1.348 . S
N15 C17 1.346 . S
C16 C13 1.485 . S
C16 H20 0.960 . S
C16 H21 0.961 . S
C16 H22 0.960 . S
C17 N15 1.346 . S
C17 N18 1.307 . S
C17 C19 1.486 . S
N18 N14 1.370 . S
N18 C17 1.307 . S
C19 C17 1.486 . S
C19 H23 0.960 . S
C19 H24 0.960 . S
C19 H25 0.959 . S
H20 C16 0.960 . S
H21 C16 0.961 . S
H22 C16 0.960 . S
H23 C19 0.960 . S
H24 C19 0.960 . S
H25 C19 0.959 . S
C26 N27 1.317 . S
C26 N28 1.348 . S
C26 C29 1.485 . S
N27 C26 1.317 . S
N27 N31 1.370 . S
N28 C26 1.348 . S
N28 C30 1.346 . S
C29 C26 1.485 . S
C29 H33 0.960 . S
C29 H34 0.961 . S
C29 H35 0.960 . S
C30 N28 1.346 . S
C30 N31 1.307 . S
C30 C32 1.486 . S
N31 N27 1.370 . S
N31 C30 1.307 . S
C32 C30 1.486 . S
C32 H36 0.960 . S
C32 H37 0.960 . S
C32 H38 0.959 . S
H33 C29 0.960 . S
H34 C29 0.961 . S
H35 C29 0.960 . S
H36 C32 0.960 . S
H37 C32 0.960 . S
H38 C32 0.959 . S
C39 N40 1.317 . S
C39 N41 1.348 . S
C39 C42 1.485 . S
N40 C39 1.317 . S
N40 N44 1.370 . S
N41 C39 1.348 . S
N41 C43 1.346 . S
C42 C39 1.485 . S
C42 H46 0.960 . S
C42 H47 0.961 . S
C42 H48 0.960 . S
C43 N41 1.346 . S
C43 N44 1.307 . S
C43 C45 1.486 . S
N44 N40 1.370 . S
N44 C43 1.307 . S
C45 C43 1.486 . S
C45 H49 0.960 . S
C45 H50 0.960 . S
C45 H51 0.959 . S
H46 C42 0.960 . S
H47 C42 0.961 . S
H48 C42 0.960 . S
H49 C45 0.960 . S
H50 C45 0.960 . S
H51 C45 0.959 . S
C52 N53 1.317 . S
C52 N54 1.348 . S
C52 C55 1.485 . S
N53 C52 1.317 . S
N53 N57 1.370 . S
N54 C52 1.348 . S
N54 C56 1.346 . S
C55 C52 1.485 . S
C55 H59 0.960 . S
C55 H60 0.961 . S
C55 H61 0.960 . S
C56 N54 1.346 . S
C56 N57 1.307 . S
C56 C58 1.486 . S
N57 N53 1.370 . S
N57 C56 1.307 . S
C58 C56 1.486 . S
C58 H62 0.960 . S
C58 H63 0.960 . S
C58 H64 0.959 . S
H59 C55 0.960 . S
H60 C55 0.961 . S
H61 C55 0.960 . S
H62 C58 0.960 . S
H63 C58 0.960 . S
H64 C58 0.959 . S
C65 N66 1.317 . S
C65 N67 1.348 . S
C65 C68 1.485 . S
N66 C65 1.317 . S
N66 N70 1.370 . S
N67 C65 1.348 . S
N67 C69 1.346 . S
C68 C65 1.485 . S
C68 H72 0.960 . S
C68 H73 0.961 . S
C68 H74 0.960 . S
C69 N67 1.346 . S
C69 N70 1.307 . S
C69 C71 1.486 . S
N70 N66 1.370 . S
N70 C69 1.307 . S
C71 C69 1.486 . S
C71 H75 0.960 . S
C71 H76 0.960 . S
C71 H77 0.959 . S
H72 C68 0.960 . S
H73 C68 0.961 . S
H74 C68 0.960 . S
H75 C71 0.960 . S
H76 C71 0.960 . S
H77 C71 0.959 . S
C78 N79 1.317 . S
C78 N80 1.348 . S
C78 C81 1.485 . S
N79 C78 1.317 . S
N79 N83 1.370 . S
N80 C78 1.348 . S
N80 C82 1.346 . S
C81 C78 1.485 . S
C81 H85 0.960 . S
C81 H86 0.961 . S
C81 H87 0.960 . S
C82 N80 1.346 . S
C82 N83 1.307 . S
C82 C84 1.486 . S
N83 N79 1.370 . S
N83 C82 1.307 . S
C84 C82 1.486 . S
C84 H88 0.960 . S
C84 H89 0.960 . S
C84 H90 0.959 . S
H85 C81 0.960 . S
H86 C81 0.961 . S
H87 C81 0.960 . S
H88 C84 0.960 . S
H89 C84 0.960 . S
H90 C84 0.959 . S
C91 N92 1.317 . S
C91 N93 1.348 . S
C91 C94 1.485 . S
N92 C91 1.317 . S
N92 N96 1.370 . S
N93 C91 1.348 . S
N93 C95 1.346 . S
C94 C91 1.485 . S
C94 H98 0.960 . S
C94 H99 0.961 . S
C94 H100 0.960 . S
C95 N93 1.346 . S
C95 N96 1.307 . S
C95 C97 1.486 . S
N96 N92 1.370 . S
N96 C95 1.307 . S
C97 C95 1.486 . S
C97 H101 0.960 . S
C97 H102 0.960 . S
C97 H103 0.959 . S
H98 C94 0.960 . S
H99 C94 0.961 . S
H100 C94 0.960 . S
H101 C97 0.960 . S
H102 C97 0.960 . S
H103 C97 0.959 . S
C104 C105 1.443 . S
C104 N108 1.376 . S
C104 C142 1.389 . S
C105 C104 1.443 . S
C105 C106 1.340 . S
C105 H145 0.951 . S
C106 C105 1.340 . S
C106 C107 1.439 . S
C106 H146 0.950 . S
C107 C106 1.439 . S
C107 N108 1.374 . S
C107 C141 1.395 . S
N108 C104 1.376 . S
N108 C107 1.374 . S
N108 Co109 2.008 . S
Co109 N108 2.008 . S
Co109 N110 1.995 . S
Co109 N115 2.008 . S
Co109 N120 1.995 . S
Co109 N125 2.282 . S
Co109 N131 2.282 . S
N110 Co109 1.995 . S
N110 C111 1.376 . S
N110 C114 1.383 . S
C111 N110 1.376 . S
C111 C112 1.446 . S
C111 C141 1.391 . S
C112 C111 1.446 . S
C112 C113 1.339 . S
C112 H147 0.949 . S
C113 C112 1.339 . S
C113 C114 1.439 . S
C113 H148 0.950 . S
C114 N110 1.383 . S
C114 C113 1.439 . S
C114 C143 1.392 . S
N115 Co109 2.008 . S
N115 C116 1.376 . S
N115 C119 1.374 . S
C116 N115 1.376 . S
C116 C117 1.443 . S
C116 C143 1.389 . S
C117 C116 1.443 . S
C117 C118 1.340 . S
C117 H149 0.951 . S
C118 C117 1.340 . S
C118 C119 1.439 . S
C118 H150 0.950 . S
C119 N115 1.374 . S
C119 C118 1.439 . S
C119 C144 1.395 . S
N120 Co109 1.995 . S
N120 C121 1.376 . S
N120 C124 1.383 . S
C121 N120 1.376 . S
C121 C122 1.446 . S
C121 C144 1.391 . S
C122 C121 1.446 . S
C122 C123 1.339 . S
C122 H151 0.949 . S
C123 C122 1.339 . S
C123 C124 1.439 . S
C123 H152 0.950 . S
C124 N120 1.383 . S
C124 C123 1.439 . S
C124 C142 1.392 . S
N125 Co109 2.282 . S
N125 C128 1.332 . S
N125 C130 1.332 . S
C126 C127 1.386 . S
C126 C129 1.388 . S
C127 C126 1.386 . S
C127 C128 1.382 . S
C127 H153 0.950 . S
C128 N125 1.332 . S
C128 C127 1.382 . S
C128 H139 0.952 . S
C129 C126 1.388 . S
C129 C130 1.382 . S
C129 H154 0.950 . S
C130 N125 1.332 . S
C130 C129 1.382 . S
C130 H140 0.948 . S
N131 Co109 2.282 . S
N131 C135 1.332 . S
N131 C136 1.332 . S
C132 C133 1.388 . S
C132 C136 1.382 . S
C132 H155 0.950 . S
C133 C132 1.388 . S
C133 C134 1.386 . S
C134 C133 1.386 . S
C134 C135 1.382 . S
C134 H156 0.950 . S
C135 N131 1.332 . S
C135 C134 1.382 . S
C135 H137 0.952 . S
C136 N131 1.332 . S
C136 C132 1.382 . S
C136 H138 0.948 . S
H137 C135 0.952 . S
H138 C136 0.948 . S
H139 C128 0.952 . S
H140 C130 0.948 . S
C141 C107 1.395 . S
C141 C111 1.391 . S
C142 C104 1.389 . S
C142 C124 1.392 . S
C143 C114 1.392 . S
C143 C116 1.389 . S
C144 C119 1.395 . S
C144 C121 1.391 . S
H145 C105 0.951 . S
H146 C106 0.950 . S
H147 C112 0.949 . S
H148 C113 0.950 . S
H149 C117 0.951 . S
H150 C118 0.950 . S
H151 C122 0.949 . S
H152 C123 0.950 . S
H153 C127 0.950 . S
H154 C129 0.950 . S
H155 C132 0.950 . S
H156 C134 0.950 . S
C157 C158 1.443 . S
C157 N161 1.376 . S
C157 C195 1.389 . S
C158 C157 1.443 . S
C158 C159 1.340 . S
C158 H198 0.951 . S
C159 C158 1.340 . S
C159 C160 1.439 . S
C159 H199 0.950 . S
C160 C159 1.439 . S
C160 N161 1.374 . S
C160 C194 1.395 1_455 S
N161 C157 1.376 . S
N161 C160 1.374 . S
N161 Co162 2.008 . S
Co162 N161 2.008 . S
Co162 N163 1.995 1_455 S
Co162 N168 2.008 1_455 S
Co162 N173 1.995 . S
Co162 N178 2.282 . S
Co162 N184 2.282 1_455 S
N163 Co162 1.995 1_655 S
N163 C164 1.376 . S
N163 C167 1.383 . S
C164 N163 1.376 . S
C164 C165 1.446 . S
C164 C194 1.391 . S
C165 C164 1.446 . S
C165 C166 1.339 . S
C165 H200 0.949 . S
C166 C165 1.339 . S
C166 C167 1.439 . S
C166 H201 0.950 . S
C167 N163 1.383 . S
C167 C166 1.439 . S
C167 C196 1.392 . S
N168 Co162 2.008 1_655 S
N168 C169 1.376 . S
N168 C172 1.374 . S
C169 N168 1.376 . S
C169 C170 1.443 . S
C169 C196 1.389 . S
C170 C169 1.443 . S
C170 C171 1.340 . S
C170 H202 0.951 . S
C171 C170 1.340 . S
C171 C172 1.439 . S
C171 H203 0.950 . S
C172 N168 1.374 . S
C172 C171 1.439 . S
C172 C197 1.395 1_655 S
N173 Co162 1.995 . S
N173 C174 1.376 . S
N173 C177 1.383 . S
C174 N173 1.376 . S
C174 C175 1.446 . S
C174 C197 1.391 . S
C175 C174 1.446 . S
C175 C176 1.339 . S
C175 H204 0.949 . S
C176 C175 1.339 . S
C176 C177 1.439 . S
C176 H205 0.950 . S
C177 N173 1.383 . S
C177 C176 1.439 . S
C177 C195 1.392 . S
N178 Co162 2.282 . S
N178 C181 1.332 . S
N178 C183 1.332 . S
C179 C180 1.386 . S
C179 C182 1.388 . S
C180 C179 1.386 . S
C180 C181 1.382 . S
C180 H206 0.950 . S
C181 N178 1.332 . S
C181 C180 1.382 . S
C181 H192 0.952 . S
C182 C179 1.388 . S
C182 C183 1.382 . S
C182 H207 0.950 . S
C183 N178 1.332 . S
C183 C182 1.382 . S
C183 H193 0.948 . S
N184 Co162 2.282 1_655 S
N184 C188 1.332 . S
N184 C189 1.332 . S
C185 C186 1.388 . S
C185 C189 1.382 . S
C185 H208 0.950 . S
C186 C185 1.388 . S
C186 C187 1.386 . S
C187 C186 1.386 . S
C187 C188 1.382 . S
C187 H209 0.950 . S
C188 N184 1.332 . S
C188 C187 1.382 . S
C188 H190 0.952 . S
C189 N184 1.332 . S
C189 C185 1.382 . S
C189 H191 0.948 . S
H190 C188 0.952 . S
H191 C189 0.948 . S
H192 C181 0.952 . S
H193 C183 0.948 . S
C194 C160 1.395 1_655 S
C194 C164 1.391 . S
C195 C157 1.389 . S
C195 C177 1.392 . S
C196 C167 1.392 . S
C196 C169 1.389 . S
C197 C172 1.395 1_455 S
C197 C174 1.391 . S
H198 C158 0.951 . S
H199 C159 0.950 . S
H200 C165 0.949 . S
H201 C166 0.950 . S
H202 C170 0.951 . S
H203 C171 0.950 . S
H204 C175 0.949 . S
H205 C176 0.950 . S
H206 C180 0.950 . S
H207 C182 0.950 . S
H208 C185 0.950 . S
H209 C187 0.950 . S
C210 C211 1.443 . S
C210 N214 1.376 1_565 S
C210 C248 1.389 . S
C211 C210 1.443 . S
C211 C212 1.366 . S
C211 H251 0.951 . S
C212 C211 1.366 . S
C212 C213 1.408 1_565 S
C212 H252 0.949 . S
C213 C212 1.408 1_545 S
C213 N214 1.374 . S
C213 C247 1.395 . S
N214 C210 1.376 1_545 S
N214 C213 1.374 . S
N214 Co215 2.008 . S
Co215 N214 2.008 . S
Co215 N216 1.995 . S
Co215 N221 2.008 . S
Co215 N226 1.995 . S
Co215 N231 2.282 . S
Co215 N237 2.282 . S
N216 Co215 1.995 . S
N216 C217 1.376 . S
N216 C220 1.383 . S
C217 N216 1.376 . S
C217 C218 1.446 . S
C217 C247 1.391 . S
C218 C217 1.446 . S
C218 C219 1.339 . S
C218 H253 0.949 . S
C219 C218 1.339 . S
C219 C220 1.439 . S
C219 H254 0.950 . S
C220 N216 1.383 . S
C220 C219 1.439 . S
C220 C249 1.392 . S
N221 Co215 2.008 . S
N221 C222 1.376 . S
N221 C225 1.374 . S
C222 N221 1.376 . S
C222 C223 1.443 . S
C222 C249 1.389 . S
C223 C222 1.443 . S
C223 C224 1.340 . S
C223 H255 0.951 . S
C224 C223 1.340 . S
C224 C225 1.439 . S
C224 H256 0.950 . S
C225 N221 1.374 . S
C225 C224 1.439 . S
C225 C250 1.395 . S
N226 Co215 1.995 . S
N226 C227 1.376 . S
N226 C230 1.383 1_545 S
C227 N226 1.376 . S
C227 C228 1.446 1_545 S
C227 C250 1.391 . S
C228 C227 1.446 1_565 S
C228 C229 1.339 . S
C228 H257 0.949 . S
C229 C228 1.339 . S
C229 C230 1.439 . S
C229 H258 0.950 . S
C230 N226 1.383 1_565 S
C230 C229 1.439 . S
C230 C248 1.392 . S
N231 Co215 2.282 . S
N231 C234 1.332 . S
N231 C236 1.332 . S
C232 C233 1.386 . S
C232 C235 1.388 . S
C233 C232 1.386 . S
C233 C234 1.382 . S
C233 H259 0.950 . S
C234 N231 1.332 . S
C234 C233 1.382 . S
C234 H245 0.952 . S
C235 C232 1.388 . S
C235 C236 1.382 . S
C235 H260 0.950 . S
C236 N231 1.332 . S
C236 C235 1.382 . S
C236 H246 0.948 . S
N237 Co215 2.282 . S
N237 C241 1.338 . S
N237 C242 1.332 1_545 S
C238 C239 1.388 . S
C238 C242 1.382 . S
C238 H261 0.950 . S
C239 C238 1.388 . S
C239 C240 1.386 . S
C240 C239 1.386 . S
C240 C241 1.362 1_565 S
C240 H262 0.950 . S
C241 N237 1.338 . S
C241 C240 1.362 1_545 S
C241 H243 0.966 . S
C242 N237 1.332 1_565 S
C242 C238 1.382 . S
C242 H244 0.948 . S
H243 C241 0.966 . S
H244 C242 0.948 . S
H245 C234 0.952 . S
H246 C236 0.948 . S
C247 C213 1.395 . S
C247 C217 1.391 . S
C248 C210 1.389 . S
C248 C230 1.392 . S
C249 C220 1.392 . S
C249 C222 1.389 . S
C250 C225 1.395 . S
C250 C227 1.391 . S
H251 C211 0.951 . S
H252 C212 0.949 . S
H253 C218 0.949 . S
H254 C219 0.950 . S
H255 C223 0.951 . S
H256 C224 0.950 . S
H257 C228 0.949 . S
H258 C229 0.950 . S
H259 C233 0.950 . S
H260 C235 0.950 . S
H261 C238 0.950 . S
H262 C240 0.950 . S
C263 C264 1.443 . S
C263 N267 1.376 . S
C263 C301 1.389 . S
C264 C263 1.443 . S
C264 C265 1.340 . S
C264 H304 0.951 . S
C265 C264 1.340 . S
C265 C266 1.439 . S
C265 H305 0.950 . S
C266 C265 1.439 . S
C266 N267 1.374 . S
C266 C300 1.395 . S
N267 C263 1.376 . S
N267 C266 1.374 . S
N267 Co268 2.008 . S
Co268 N267 2.008 . S
Co268 N269 1.995 . S
Co268 N274 2.008 . S
Co268 N279 1.995 . S
Co268 N284 2.282 . S
Co268 N290 2.282 . S
N269 Co268 1.995 . S
N269 C270 1.376 . S
N269 C273 1.383 1_554 S
C270 N269 1.376 . S
C270 C271 1.446 1_554 S
C270 C300 1.391 . S
C271 C270 1.446 1_556 S
C271 C272 1.339 . S
C271 H306 0.949 . S
C272 C271 1.339 . S
C272 C273 1.439 . S
C272 H307 0.950 . S
C273 N269 1.383 1_556 S
C273 C272 1.439 . S
C273 C302 1.392 . S
N274 Co268 2.008 . S
N274 C275 1.376 . S
N274 C278 1.374 . S
C275 N274 1.376 . S
C275 C276 1.443 1_554 S
C275 C302 1.389 1_554 S
C276 C275 1.443 1_556 S
C276 C277 1.340 1_556 S
C276 H308 0.951 . S
C277 C276 1.340 1_554 S
C277 C278 1.439 . S
C277 H309 0.950 . S
C278 N274 1.374 . S
C278 C277 1.439 . S
C278 C303 1.395 . S
N279 Co268 1.995 . S
N279 C280 1.376 . S
N279 C283 1.383 . S
C280 N279 1.376 . S
C280 C281 1.446 . S
C280 C303 1.391 . S
C281 C280 1.446 . S
C281 C282 1.339 . S
C281 H310 0.949 . S
C282 C281 1.339 . S
C282 C283 1.439 . S
C282 H311 0.950 . S
C283 N279 1.383 . S
C283 C282 1.439 . S
C283 C301 1.392 . S
N284 Co268 2.282 . S
N284 C287 1.332 . S
N284 C289 1.332 1_554 S
C285 C286 1.386 . S
C285 C288 1.388 . S
C286 C285 1.386 . S
C286 C287 1.382 1_556 S
C286 H312 0.950 . S
C287 N284 1.332 . S
C287 C286 1.382 1_554 S
C287 H298 0.952 . S
C288 C285 1.388 . S
C288 C289 1.382 . S
C288 H313 0.950 . S
C289 N284 1.332 1_556 S
C289 C288 1.382 . S
C289 H299 0.948 . S
N290 Co268 2.282 . S
N290 C294 1.332 . S
N290 C295 1.332 . S
C291 C292 1.388 . S
C291 C295 1.382 . S
C291 H314 0.950 . S
C292 C291 1.388 . S
C292 C293 1.386 . S
C293 C292 1.386 . S
C293 C294 1.382 . S
C293 H315 0.950 . S
C294 N290 1.332 . S
C294 C293 1.382 . S
C294 H296 0.952 . S
C295 N290 1.332 . S
C295 C291 1.382 . S
C295 H297 0.948 . S
H296 C294 0.952 . S
H297 C295 0.948 . S
H298 C287 0.952 . S
H299 C289 0.948 . S
C300 C266 1.395 . S
C300 C270 1.391 . S
C301 C263 1.389 . S
C301 C283 1.392 . S
C302 C273 1.392 . S
C302 C275 1.389 1_556 S
C303 C278 1.395 . S
C303 C280 1.391 . S
H304 C264 0.951 . S
H305 C265 0.950 . S
H306 C271 0.949 . S
H307 C272 0.950 . S
H308 C276 0.951 . S
H309 C277 0.950 . S
H310 C281 0.949 . S
H311 C282 0.950 . S
H312 C286 0.950 . S
H313 C288 0.950 . S
H314 C291 0.950 . S
H315 C293 0.950 . S
C316 C317 1.443 . S
C316 N320 1.376 . S
C316 C354 1.389 1_545 S
C317 C316 1.443 . S
C317 C318 1.340 1_655 S
C317 H357 0.951 1_545 S
C318 C317 1.340 1_455 S
C318 C319 1.439 1_455 S
C318 H358 0.950 . S
C319 C318 1.439 1_655 S
C319 N320 1.374 . S
C319 C353 1.395 1_655 S
N320 C316 1.376 . S
N320 C319 1.374 . S
N320 Co321 2.008 . S
Co321 N320 2.008 . S
Co321 N322 1.995 . S
Co321 N327 2.008 . S
Co321 N332 1.995 . S
Co321 N337 2.282 . S
Co321 N343 2.282 . S
N322 Co321 1.995 . S
N322 C323 1.376 . S
N322 C326 1.383 . S
C323 N322 1.376 . S
C323 C324 1.446 1_655 S
C323 C353 1.391 1_655 S
C324 C323 1.446 1_455 S
C324 C325 1.339 1_455 S
C324 H359 0.949 . S
C325 C324 1.339 1_655 S
C325 C326 1.439 . S
C325 H360 0.950 . S
C326 N322 1.383 . S
C326 C325 1.439 . S
C326 C355 1.392 . S
N327 Co321 2.008 . S
N327 C328 1.376 . S
N327 C331 1.374 . S
C328 N327 1.376 . S
C328 C329 1.443 . S
C328 C355 1.389 . S
C329 C328 1.443 . S
C329 C330 1.340 . S
C329 H361 0.951 . S
C330 C329 1.340 . S
C330 C331 1.439 . S
C330 H362 0.950 . S
C331 N327 1.374 . S
C331 C330 1.439 . S
C331 C356 1.395 . S
N332 Co321 1.995 . S
N332 C333 1.376 . S
N332 C336 1.383 . S
C333 N332 1.376 . S
C333 C334 1.457 . S
C333 C356 1.391 . S
C334 C333 1.457 . S
C334 C335 1.331 1_545 S
C334 H363 0.947 1_545 S
C335 C334 1.331 1_565 S
C335 C336 1.439 1_565 S
C335 H364 0.950 . S
C336 N332 1.383 . S
C336 C335 1.439 1_545 S
C336 C354 1.392 1_545 S
N337 Co321 2.282 . S
N337 C340 1.332 . S
N337 C342 1.332 . S
C338 C339 1.386 . S
C338 C341 1.388 . S
C339 C338 1.386 . S
C339 C340 1.382 . S
C339 H365 0.950 . S
C340 N337 1.332 . S
C340 C339 1.382 . S
C340 H351 0.952 . S
C341 C338 1.388 . S
C341 C342 1.382 . S
C341 H366 0.950 . S
C342 N337 1.332 . S
C342 C341 1.382 . S
C342 H352 0.948 . S
N343 Co321 2.282 . S
N343 C347 1.332 . S
N343 C348 1.332 . S
C344 C345 1.388 . S
C344 C348 1.382 1_565 S
C344 H367 0.950 . S
C345 C344 1.388 . S
C345 C346 1.386 1_565 S
C346 C345 1.386 1_545 S
C346 C347 1.382 . S
C346 H368 0.950 . S
C347 N343 1.332 . S
C347 C346 1.382 . S
C347 H349 0.952 . S
C348 N343 1.332 . S
C348 C344 1.382 1_545 S
C348 H350 0.948 . S
H349 C347 0.952 . S
H350 C348 0.948 . S
H351 C340 0.952 . S
H352 C342 0.948 . S
C353 C319 1.395 1_455 S
C353 C323 1.391 1_455 S
C354 C316 1.389 1_565 S
C354 C336 1.392 1_565 S
C355 C326 1.392 . S
C355 C328 1.389 . S
C356 C331 1.395 . S
C356 C333 1.391 . S
H357 C317 0.951 1_565 S
H358 C318 0.950 . S
H359 C324 0.949 . S
H360 C325 0.950 . S
H361 C329 0.951 . S
H362 C330 0.950 . S
H363 C334 0.947 1_565 S
H364 C335 0.950 . S
H365 C339 0.950 . S
H366 C341 0.950 . S
H367 C344 0.950 . S
H368 C346 0.950 . S
C369 C370 1.443 . S
C369 N373 1.376 . S
C369 C407 1.389 . S
C370 C369 1.443 . S
C370 C371 1.340 . S
C370 H410 0.951 . S
C371 C370 1.340 . S
C371 C372 1.439 . S
C371 H411 0.950 . S
C372 C371 1.439 . S
C372 N373 1.374 . S
C372 C406 1.395 1_554 S
N373 C369 1.376 . S
N373 C372 1.374 . S
N373 Co374 2.008 . S
Co374 N373 2.008 . S
Co374 N375 1.995 1_554 S
Co374 N380 2.008 1_554 S
Co374 N385 1.995 . S
Co374 N390 2.282 1_554 S
Co374 N396 2.282 . S
N375 Co374 1.995 1_556 S
N375 C376 1.376 . S
N375 C379 1.383 . S
C376 N375 1.376 . S
C376 C377 1.446 . S
C376 C406 1.391 . S
C377 C376 1.446 . S
C377 C378 1.339 . S
C377 H412 0.949 . S
C378 C377 1.339 . S
C378 C379 1.439 . S
C378 H413 0.950 . S
C379 N375 1.383 . S
C379 C378 1.439 . S
C379 C408 1.392 . S
N380 Co374 2.008 1_556 S
N380 C381 1.376 . S
N380 C384 1.374 1_556 S
C381 N380 1.376 . S
C381 C382 1.443 . S
C381 C408 1.389 . S
C382 C381 1.443 . S
C382 C383 1.340 . S
C382 H414 0.951 . S
C383 C382 1.340 . S
C383 C384 1.443 1_556 S
C383 H415 0.950 . S
C384 N380 1.374 1_554 S
C384 C383 1.443 1_554 S
C384 C409 1.392 . S
N385 Co374 1.995 . S
N385 C386 1.376 . S
N385 C389 1.383 . S
C386 N385 1.376 . S
C386 C387 1.446 . S
C386 C409 1.391 . S
C387 C386 1.446 . S
C387 C388 1.339 . S
C387 H416 0.949 . S
C388 C387 1.339 . S
C388 C389 1.439 . S
C388 H417 0.950 . S
C389 N385 1.383 . S
C389 C388 1.439 . S
C389 C407 1.392 . S
N390 Co374 2.282 1_556 S
N390 C393 1.332 . S
N390 C395 1.332 . S
C391 C392 1.386 . S
C391 C394 1.388 . S
C392 C391 1.386 . S
C392 C393 1.382 . S
C392 H418 0.950 . S
C393 N390 1.332 . S
C393 C392 1.382 . S
C393 H404 0.952 . S
C394 C391 1.388 . S
C394 C395 1.382 . S
C394 H419 0.950 . S
C395 N390 1.332 . S
C395 C394 1.382 . S
C395 H405 0.948 . S
N396 Co374 2.282 . S
N396 C400 1.332 . S
N396 C401 1.332 . S
C397 C398 1.388 . S
C397 C401 1.382 . S
C397 H420 0.950 . S
C398 C397 1.388 . S
C398 C399 1.386 . S
C399 C398 1.386 . S
C399 C400 1.382 . S
C399 H421 0.950 . S
C400 N396 1.332 . S
C400 C399 1.382 . S
C400 H402 0.952 . S
C401 N396 1.332 . S
C401 C397 1.382 . S
C401 H403 0.948 . S
H402 C400 0.952 . S
H403 C401 0.948 . S
H404 C393 0.952 . S
H405 C395 0.948 . S
C406 C372 1.395 1_556 S
C406 C376 1.391 . S
C407 C369 1.389 . S
C407 C389 1.392 . S
C408 C379 1.392 . S
C408 C381 1.389 . S
C409 C384 1.392 . S
C409 C386 1.391 . S
H410 C370 0.951 . S
H411 C371 0.950 . S
H412 C377 0.949 . S
H413 C378 0.950 . S
H414 C382 0.951 . S
H415 C383 0.950 . S
H416 C387 0.949 . S
H417 C388 0.950 . S
H418 C392 0.950 . S
H419 C394 0.950 . S
H420 C397 0.950 . S
H421 C399 0.950 . S
H422 C440 0.951 . S
H423 C442 0.951 . S
H424 C444 0.950 . S
H425 C445 0.950 . S
H426 C447 0.950 . S
H427 C450 0.950 . S
H428 C451 0.950 . S
H429 C453 0.950 . S
H430 C454 0.950 . S
H431 C455 0.951 . S
H432 C457 0.951 . S
H433 C459 0.950 . S
H434 C460 0.950 . S
H435 C462 0.950 . S
H436 C465 0.950 . S
H437 C466 0.950 . S
H438 C468 0.950 . S
H439 C469 0.950 . S
C440 H422 0.951 . S
C440 C441 1.366 . S
C440 C442 1.388 . S
C441 C440 1.366 . S
C441 C445 1.385 . S
C442 H423 0.951 . S
C442 C440 1.388 . S
C442 C443 1.366 . S
C443 C442 1.366 . S
C443 C444 1.414 . S
C443 C446 1.499 . S
C444 H424 0.950 . S
C444 C443 1.414 . S
C444 C445 1.374 . S
C445 H425 0.950 . S
C445 C441 1.385 . S
C445 C444 1.374 . S
C446 C443 1.499 . S
C446 C447 1.373 . S
C446 C448 1.389 . S
C447 H426 0.950 . S
C447 C446 1.373 . S
C447 C463 1.377 . S
C448 C446 1.389 . S
C448 C449 1.524 . S
C448 C462 1.377 . S
C449 C448 1.524 . S
C449 C450 1.397 . S
C449 C454 1.363 . S
C450 H427 0.950 . S
C450 C449 1.397 . S
C450 C451 1.334 . S
C451 H428 0.950 . S
C451 C450 1.334 . S
C451 C452 1.287 . S
C452 C451 1.287 . S
C452 C453 1.524 . S
C452 H471 0.913 . S
C453 H429 0.950 . S
C453 C452 1.524 . S
C453 C454 1.415 . S
C454 H430 0.950 . S
C454 C449 1.363 . S
C454 C453 1.415 . S
C455 H431 0.951 . S
C455 C456 1.366 . S
C455 C457 1.388 . S
C456 C455 1.366 . S
C456 C460 1.385 . S
C457 H432 0.951 . S
C457 C455 1.388 . S
C457 C458 1.366 . S
C458 C457 1.366 . S
C458 C459 1.414 . S
C458 C461 1.499 . S
C459 H433 0.950 . S
C459 C458 1.414 . S
C459 C460 1.374 . S
C460 H434 0.950 . S
C460 C456 1.385 . S
C460 C459 1.374 . S
C461 C458 1.499 . S
C461 C462 1.373 . S
C461 C463 1.389 . S
C462 H435 0.950 . S
C462 C448 1.377 . S
C462 C461 1.373 . S
C463 C447 1.377 . S
C463 C461 1.389 . S
C463 C464 1.524 . S
C464 C463 1.524 . S
C464 C465 1.397 . S
C464 C469 1.363 . S
C465 H436 0.950 . S
C465 C464 1.397 . S
C465 C466 1.334 . S
C466 H437 0.950 . S
C466 C465 1.334 . S
C466 C467 1.287 . S
C467 C466 1.287 . S
C467 C468 1.524 . S
C467 H470 0.999 . S
C468 H438 0.950 . S
C468 C467 1.524 . S
C468 C469 1.415 . S
C469 H439 0.950 . S
C469 C464 1.363 . S
C469 C468 1.415 . S
H470 C467 0.999 . S
H471 C452 0.913 . S
H472 C490 0.951 . S
H473 C492 0.951 . S
H474 C494 0.950 . S
H475 C495 0.950 . S
H476 C497 0.950 . S
H477 C500 0.950 . S
H478 C501 0.950 . S
H479 C503 0.950 . S
H480 C504 0.950 . S
H481 C505 0.951 . S
H482 C507 0.951 . S
H483 C509 0.950 . S
H484 C510 0.950 . S
H485 C512 0.950 . S
H486 C515 0.950 . S
H487 C516 0.950 . S
H488 C518 0.950 . S
H489 C519 0.950 . S
C490 H472 0.951 . S
C490 C491 1.366 . S
C490 C492 1.388 . S
C491 C490 1.366 . S
C491 C495 1.385 . S
C492 H473 0.951 . S
C492 C490 1.388 . S
C492 C493 1.366 . S
C493 C492 1.366 . S
C493 C494 1.414 . S
C493 C496 1.499 . S
C494 H474 0.950 . S
C494 C493 1.414 . S
C494 C495 1.374 . S
C495 H475 0.950 . S
C495 C491 1.385 . S
C495 C494 1.374 . S
C496 C493 1.499 . S
C496 C497 1.373 . S
C496 C498 1.389 . S
C497 H476 0.950 . S
C497 C496 1.373 . S
C497 C513 1.377 . S
C498 C496 1.389 . S
C498 C499 1.524 . S
C498 C512 1.377 . S
C499 C498 1.524 . S
C499 C500 1.397 . S
C499 C504 1.363 . S
C500 H477 0.950 . S
C500 C499 1.397 . S
C500 C501 1.334 . S
C501 H478 0.950 . S
C501 C500 1.334 . S
C501 C502 1.287 . S
C502 C501 1.287 . S
C502 C503 1.524 . S
C502 H521 0.913 . S
C503 H479 0.950 . S
C503 C502 1.524 . S
C503 C504 1.415 . S
C504 H480 0.950 . S
C504 C499 1.363 . S
C504 C503 1.415 . S
C505 H481 0.951 . S
C505 C506 1.366 . S
C505 C507 1.388 . S
C506 C505 1.366 . S
C506 C510 1.385 . S
C507 H482 0.951 . S
C507 C505 1.388 . S
C507 C508 1.366 . S
C508 C507 1.366 . S
C508 C509 1.414 . S
C508 C511 1.499 . S
C509 H483 0.950 . S
C509 C508 1.414 . S
C509 C510 1.374 . S
C510 H484 0.950 . S
C510 C506 1.385 . S
C510 C509 1.374 . S
C511 C508 1.499 . S
C511 C512 1.373 . S
C511 C513 1.389 . S
C512 H485 0.950 . S
C512 C498 1.377 . S
C512 C511 1.373 . S
C513 C497 1.377 . S
C513 C511 1.389 . S
C513 C514 1.524 . S
C514 C513 1.524 . S
C514 C515 1.397 . S
C514 C519 1.363 . S
C515 H486 0.950 . S
C515 C514 1.397 . S
C515 C516 1.334 . S
C516 H487 0.950 . S
C516 C515 1.334 . S
C516 C517 1.287 . S
C517 C516 1.287 . S
C517 C518 1.524 . S
C517 H520 0.999 . S
C518 H488 0.950 . S
C518 C517 1.524 . S
C518 C519 1.415 . S
C519 H489 0.950 . S
C519 C514 1.363 . S
C519 C518 1.415 . S
H520 C517 0.999 . S
H521 C502 0.913 . S
H522 C540 0.951 . S
H523 C542 0.951 . S
H524 C544 0.950 . S
H525 C545 0.950 . S
H526 C547 0.950 . S
H527 C550 0.950 . S
H528 C551 0.950 . S
H529 C553 0.950 . S
H530 C554 0.950 . S
H531 C555 0.951 . S
H532 C557 0.951 . S
H533 C559 0.950 . S
H534 C560 0.950 . S
H535 C562 0.950 1_455 S
H536 C565 0.950 . S
H537 C566 0.950 . S
H538 C568 0.950 . S
H539 C569 0.950 . S
C540 H522 0.951 . S
C540 C541 1.366 . S
C540 C542 1.388 . S
C541 C540 1.366 . S
C541 C545 1.385 . S
C542 H523 0.951 . S
C542 C540 1.388 . S
C542 C543 1.366 . S
C543 C542 1.366 . S
C543 C544 1.414 . S
C543 C546 1.499 . S
C544 H524 0.950 . S
C544 C543 1.414 . S
C544 C545 1.374 . S
C545 H525 0.950 . S
C545 C541 1.385 . S
C545 C544 1.374 . S
C546 C543 1.499 . S
C546 C547 1.373 . S
C546 C548 1.389 . S
C547 H526 0.950 . S
C547 C546 1.373 . S
C547 C563 1.377 . S
C548 C546 1.389 . S
C548 C549 1.524 . S
C548 C562 1.377 . S
C549 C548 1.524 . S
C549 C550 1.397 . S
C549 C554 1.363 1_655 S
C550 H527 0.950 . S
C550 C549 1.397 . S
C550 C551 1.334 . S
C551 H528 0.950 . S
C551 C550 1.334 . S
C551 C552 1.287 1_655 S
C552 C551 1.287 1_455 S
C552 C553 1.524 . S
C552 H571 0.913 . S
C553 H529 0.950 . S
C553 C552 1.524 . S
C553 C554 1.415 . S
C554 H530 0.950 . S
C554 C549 1.363 1_455 S
C554 C553 1.415 . S
C555 H531 0.951 . S
C555 C556 1.366 1_655 S
C555 C557 1.388 . S
C556 C555 1.366 1_455 S
C556 C560 1.385 . S
C557 H532 0.951 . S
C557 C555 1.388 . S
C557 C558 1.366 . S
C558 C557 1.366 . S
C558 C559 1.414 1_655 S
C558 C561 1.499 . S
C559 H533 0.950 . S
C559 C558 1.414 1_455 S
C559 C560 1.374 . S
C560 H534 0.950 . S
C560 C556 1.385 . S
C560 C559 1.374 . S
C561 C558 1.499 . S
C561 C562 1.373 . S
C561 C563 1.389 . S
C562 H535 0.950 1_655 S
C562 C548 1.377 . S
C562 C561 1.373 . S
C563 C547 1.377 . S
C563 C561 1.389 . S
C563 C564 1.524 . S
C564 C563 1.524 . S
C564 C565 1.397 . S
C564 C569 1.363 . S
C565 H536 0.950 . S
C565 C564 1.397 . S
C565 C566 1.334 . S
C566 H537 0.950 . S
C566 C565 1.334 . S
C566 C567 1.287 . S
C567 C566 1.287 . S
C567 C568 1.524 . S
C567 H570 0.999 . S
C568 H538 0.950 . S
C568 C567 1.524 . S
C568 C569 1.415 . S
C569 H539 0.950 . S
C569 C564 1.363 . S
C569 C568 1.415 . S
H570 C567 0.999 . S
H571 C552 0.913 . S
H572 C590 0.951 . S
H573 C592 0.951 . S
H574 C594 0.950 . S
H575 C595 0.950 . S
H576 C597 0.950 . S
H577 C600 0.950 . S
H578 C601 0.950 . S
H579 C603 0.950 . S
H580 C604 0.950 . S
H581 C605 0.951 . S
H582 C607 0.951 . S
H583 C609 0.950 . S
H584 C610 0.950 . S
H585 C612 0.950 . S
H586 C615 0.950 . S
H587 C616 0.950 . S
H588 C618 0.950 . S
H589 C619 0.950 . S
C590 H572 0.951 . S
C590 C591 1.366 . S
C590 C592 1.388 . S
C591 C590 1.366 . S
C591 C595 1.385 . S
C592 H573 0.951 . S
C592 C590 1.388 . S
C592 C593 1.366 . S
C593 C592 1.366 . S
C593 C594 1.414 . S
C593 C596 1.499 . S
C594 H574 0.950 . S
C594 C593 1.414 . S
C594 C595 1.374 . S
C595 H575 0.950 . S
C595 C591 1.385 . S
C595 C594 1.374 . S
C596 C593 1.499 . S
C596 C597 1.373 . S
C596 C598 1.389 . S
C597 H576 0.950 . S
C597 C596 1.373 . S
C597 C613 1.377 . S
C598 C596 1.389 . S
C598 C599 1.524 . S
C598 C612 1.377 . S
C599 C598 1.524 . S
C599 C600 1.397 . S
C599 C604 1.363 . S
C600 H577 0.950 . S
C600 C599 1.397 . S
C600 C601 1.334 . S
C601 H578 0.950 . S
C601 C600 1.334 . S
C601 C602 1.287 . S
C602 C601 1.287 . S
C602 C603 1.524 . S
C602 H621 0.913 . S
C603 H579 0.950 . S
C603 C602 1.524 . S
C603 C604 1.415 . S
C604 H580 0.950 . S
C604 C599 1.363 . S
C604 C603 1.415 . S
C605 H581 0.951 . S
C605 C606 1.366 . S
C605 C607 1.388 . S
C606 C605 1.366 . S
C606 C610 1.385 . S
C607 H582 0.951 . S
C607 C605 1.388 . S
C607 C608 1.366 . S
C608 C607 1.366 . S
C608 C609 1.414 . S
C608 C611 1.499 . S
C609 H583 0.950 . S
C609 C608 1.414 . S
C609 C610 1.374 . S
C610 H584 0.950 . S
C610 C606 1.385 . S
C610 C609 1.374 . S
C611 C608 1.499 . S
C611 C612 1.373 . S
C611 C613 1.389 . S
C612 H585 0.950 . S
C612 C598 1.377 . S
C612 C611 1.373 . S
C613 C597 1.377 . S
C613 C611 1.389 . S
C613 C614 1.524 . S
C614 C613 1.524 . S
C614 C615 1.397 . S
C614 C619 1.363 . S
C615 H586 0.950 . S
C615 C614 1.397 . S
C615 C616 1.334 . S
C616 H587 0.950 . S
C616 C615 1.334 . S
C616 C617 1.287 . S
C617 C616 1.287 . S
C617 C618 1.524 . S
C617 H620 0.999 . S
C618 H588 0.950 . S
C618 C617 1.524 . S
C618 C619 1.415 . S
C619 H589 0.950 . S
C619 C614 1.363 . S
C619 C618 1.415 . S
H620 C617 0.999 . S
H621 C602 0.913 . S
H622 C640 0.951 . S
H623 C642 0.951 . S
H624 C644 0.950 . S
H625 C645 0.950 . S
H626 C647 0.950 . S
H627 C650 0.950 . S
H628 C651 0.950 . S
H629 C653 0.950 . S
H630 C654 0.950 . S
H631 C655 0.951 . S
H632 C657 0.951 . S
H633 C659 0.950 . S
H634 C660 0.950 . S
H635 C662 0.950 . S
H636 C665 0.950 . S
H637 C666 0.950 . S
H638 C668 0.950 . S
H639 C669 0.950 . S
C640 H622 0.951 . S
C640 C641 1.366 . S
C640 C642 1.388 . S
C641 C640 1.366 . S
C641 C645 1.385 . S
C642 H623 0.951 . S
C642 C640 1.388 . S
C642 C643 1.366 . S
C643 C642 1.366 . S
C643 C644 1.414 . S
C643 C646 1.499 . S
C644 H624 0.950 . S
C644 C643 1.414 . S
C644 C645 1.374 . S
C645 H625 0.950 . S
C645 C641 1.385 . S
C645 C644 1.374 . S
C646 C643 1.499 . S
C646 C647 1.373 . S
C646 C648 1.389 . S
C647 H626 0.950 . S
C647 C646 1.373 . S
C647 C663 1.377 . S
C648 C646 1.389 . S
C648 C649 1.524 . S
C648 C662 1.377 . S
C649 C648 1.524 . S
C649 C650 1.397 . S
C649 C654 1.363 . S
C650 H627 0.950 . S
C650 C649 1.397 . S
C650 C651 1.334 . S
C651 H628 0.950 . S
C651 C650 1.334 . S
C651 C652 1.287 . S
C652 C651 1.287 . S
C652 C653 1.524 . S
C652 H671 0.913 . S
C653 H629 0.950 . S
C653 C652 1.524 . S
C653 C654 1.415 . S
C654 H630 0.950 . S
C654 C649 1.363 . S
C654 C653 1.415 . S
C655 H631 0.951 . S
C655 C656 1.366 . S
C655 C657 1.388 . S
C656 C655 1.366 . S
C656 C660 1.385 . S
C657 H632 0.951 . S
C657 C655 1.388 . S
C657 C658 1.366 . S
C658 C657 1.366 . S
C658 C659 1.414 . S
C658 C661 1.499 . S
C659 H633 0.950 . S
C659 C658 1.414 . S
C659 C660 1.374 . S
C660 H634 0.950 . S
C660 C656 1.385 . S
C660 C659 1.374 . S
C661 C658 1.499 . S
C661 C662 1.373 . S
C661 C663 1.389 . S
C662 H635 0.950 . S
C662 C648 1.377 . S
C662 C661 1.373 . S
C663 C647 1.377 . S
C663 C661 1.389 . S
C663 C664 1.524 . S
C664 C663 1.524 . S
C664 C665 1.397 . S
C664 C669 1.363 . S
C665 H636 0.950 . S
C665 C664 1.397 . S
C665 C666 1.334 . S
C666 H637 0.950 . S
C666 C665 1.334 . S
C666 C667 1.287 . S
C667 C666 1.287 . S
C667 C668 1.524 . S
C667 H670 0.999 . S
C668 H638 0.950 . S
C668 C667 1.524 . S
C668 C669 1.415 . S
C669 H639 0.950 . S
C669 C664 1.363 . S
C669 C668 1.415 . S
H670 C667 0.999 . S
H671 C652 0.913 . S
H672 C690 0.951 . S
H673 C692 0.951 . S
H674 C694 0.950 . S
H675 C695 0.950 . S
H676 C697 0.950 . S
H677 C700 0.950 . S
H678 C701 0.950 . S
H679 C703 0.950 . S
H680 C704 0.950 . S
H681 C705 0.951 . S
H682 C707 0.951 . S
H683 C709 0.950 . S
H684 C710 0.950 . S
H685 C712 0.950 . S
H686 C715 0.950 . S
H687 C716 0.950 . S
H688 C718 0.950 . S
H689 C719 0.950 . S
C690 H672 0.951 . S
C690 C691 1.366 . S
C690 C692 1.388 . S
C691 C690 1.366 . S
C691 C695 1.385 . S
C692 H673 0.951 . S
C692 C690 1.388 . S
C692 C693 1.366 . S
C693 C692 1.366 . S
C693 C694 1.414 . S
C693 C696 1.499 . S
C694 H674 0.950 . S
C694 C693 1.414 . S
C694 C695 1.374 . S
C695 H675 0.950 . S
C695 C691 1.385 . S
C695 C694 1.374 . S
C696 C693 1.499 . S
C696 C697 1.373 . S
C696 C698 1.389 . S
C697 H676 0.950 . S
C697 C696 1.373 . S
C697 C713 1.377 . S
C698 C696 1.389 . S
C698 C699 1.524 . S
C698 C712 1.377 . S
C699 C698 1.524 . S
C699 C700 1.397 . S
C699 C704 1.363 . S
C700 H677 0.950 . S
C700 C699 1.397 . S
C700 C701 1.334 . S
C701 H678 0.950 . S
C701 C700 1.334 . S
C701 C702 1.287 . S
C702 C701 1.287 . S
C702 C703 1.524 . S
C702 H721 0.913 . S
C703 H679 0.950 . S
C703 C702 1.524 . S
C703 C704 1.415 . S
C704 H680 0.950 . S
C704 C699 1.363 . S
C704 C703 1.415 . S
C705 H681 0.951 . S
C705 C706 1.366 . S
C705 C707 1.388 . S
C706 C705 1.366 . S
C706 C710 1.385 . S
C707 H682 0.951 . S
C707 C705 1.388 . S
C707 C708 1.366 . S
C708 C707 1.366 . S
C708 C709 1.414 . S
C708 C711 1.499 . S
C709 H683 0.950 . S
C709 C708 1.414 . S
C709 C710 1.374 . S
C710 H684 0.950 . S
C710 C706 1.385 . S
C710 C709 1.374 . S
C711 C708 1.499 . S
C711 C712 1.373 . S
C711 C713 1.389 . S
C712 H685 0.950 . S
C712 C698 1.377 . S
C712 C711 1.373 . S
C713 C697 1.377 . S
C713 C711 1.389 . S
C713 C714 1.524 . S
C714 C713 1.524 . S
C714 C715 1.397 . S
C714 C719 1.363 . S
C715 H686 0.950 . S
C715 C714 1.397 . S
C715 C716 1.334 . S
C716 H687 0.950 . S
C716 C715 1.334 . S
C716 C717 1.287 . S
C717 C716 1.287 . S
C717 C718 1.524 . S
C717 H720 0.999 . S
C718 H688 0.950 . S
C718 C717 1.524 . S
C718 C719 1.415 . S
C719 H689 0.950 . S
C719 C714 1.363 . S
C719 C718 1.415 . S
H720 C717 0.999 . S
H721 C702 0.913 . S
H722 C740 0.951 . S
H723 C742 0.951 . S
H724 C744 0.950 . S
H725 C745 0.950 . S
H726 C747 0.950 . S
H727 C750 0.950 . S
H728 C751 0.950 . S
H729 C753 0.950 . S
H730 C754 0.950 . S
H731 C755 0.951 . S
H732 C757 0.951 . S
H733 C759 0.950 . S
H734 C760 0.950 . S
H735 C762 0.950 . S
H736 C765 0.950 . S
H737 C766 0.950 . S
H738 C768 0.950 1_455 S
H739 C769 0.950 . S
C740 H722 0.951 . S
C740 C741 1.366 . S
C740 C742 1.388 . S
C741 C740 1.366 . S
C741 C745 1.385 . S
C742 H723 0.951 . S
C742 C740 1.388 . S
C742 C743 1.366 . S
C743 C742 1.366 . S
C743 C744 1.414 . S
C743 C746 1.499 . S
C744 H724 0.950 . S
C744 C743 1.414 . S
C744 C745 1.374 . S
C745 H725 0.950 . S
C745 C741 1.385 . S
C745 C744 1.374 . S
C746 C743 1.499 . S
C746 C747 1.373 . S
C746 C748 1.389 . S
C747 H726 0.950 . S
C747 C746 1.373 . S
C747 C763 1.377 . S
C748 C746 1.389 . S
C748 C749 1.524 . S
C748 C762 1.377 . S
C749 C748 1.524 . S
C749 C750 1.397 . S
C749 C754 1.363 . S
C750 H727 0.950 . S
C750 C749 1.397 . S
C750 C751 1.334 . S
C751 H728 0.950 . S
C751 C750 1.334 . S
C751 C752 1.287 . S
C752 C751 1.287 . S
C752 C753 1.524 . S
C752 H771 0.913 . S
C753 H729 0.950 . S
C753 C752 1.524 . S
C753 C754 1.415 . S
C754 H730 0.950 . S
C754 C749 1.363 . S
C754 C753 1.415 . S
C755 H731 0.951 . S
C755 C756 1.366 . S
C755 C757 1.388 . S
C756 C755 1.366 . S
C756 C760 1.385 . S
C757 H732 0.951 . S
C757 C755 1.388 . S
C757 C758 1.366 . S
C758 C757 1.366 . S
C758 C759 1.414 . S
C758 C761 1.499 . S
C759 H733 0.950 . S
C759 C758 1.414 . S
C759 C760 1.374 . S
C760 H734 0.950 . S
C760 C756 1.385 . S
C760 C759 1.374 . S
C761 C758 1.499 . S
C761 C762 1.373 . S
C761 C763 1.389 . S
C762 H735 0.950 . S
C762 C748 1.377 . S
C762 C761 1.373 . S
C763 C747 1.377 . S
C763 C761 1.389 . S
C763 C764 1.524 . S
C764 C763 1.524 . S
C764 C765 1.397 . S
C764 C769 1.363 . S
C765 H736 0.950 . S
C765 C764 1.397 . S
C765 C766 1.334 . S
C766 H737 0.950 . S
C766 C765 1.334 . S
C766 C767 1.287 . S
C767 C766 1.287 . S
C767 C768 1.524 . S
C767 H770 0.999 . S
C768 H738 0.950 1_655 S
C768 C767 1.524 . S
C768 C769 1.415 . S
C769 H739 0.950 . S
C769 C764 1.363 . S
C769 C768 1.415 . S
H770 C767 0.999 . S
H771 C752 0.913 . S
H772 C790 0.951 . S
H773 C792 0.951 . S
H774 C794 0.950 . S
H775 C795 0.950 . S
H776 C797 0.950 . S
H777 C800 0.950 . S
H778 C801 0.950 . S
H779 C803 0.950 . S
H780 C804 0.950 . S
H781 C805 0.951 . S
H782 C807 0.951 . S
H783 C809 0.950 . S
H784 C810 0.950 . S
H785 C812 0.950 . S
H786 C815 0.950 . S
H787 C816 0.950 . S
H788 C818 0.950 . S
H789 C819 0.950 . S
C790 H772 0.951 . S
C790 C791 1.366 . S
C790 C792 1.388 . S
C791 C790 1.366 . S
C791 C795 1.385 . S
C792 H773 0.951 . S
C792 C790 1.388 . S
C792 C793 1.366 . S
C793 C792 1.366 . S
C793 C794 1.414 . S
C793 C796 1.499 . S
C794 H774 0.950 . S
C794 C793 1.414 . S
C794 C795 1.374 . S
C795 H775 0.950 . S
C795 C791 1.385 . S
C795 C794 1.374 . S
C796 C793 1.499 . S
C796 C797 1.373 . S
C796 C798 1.389 . S
C797 H776 0.950 . S
C797 C796 1.373 . S
C797 C813 1.377 . S
C798 C796 1.389 . S
C798 C799 1.524 . S
C798 C812 1.377 . S
C799 C798 1.524 . S
C799 C800 1.397 . S
C799 C804 1.363 . S
C800 H777 0.950 . S
C800 C799 1.397 . S
C800 C801 1.334 . S
C801 H778 0.950 . S
C801 C800 1.334 . S
C801 C802 1.287 . S
C802 C801 1.287 . S
C802 C803 1.524 . S
C802 H821 0.913 . S
C803 H779 0.950 . S
C803 C802 1.524 . S
C803 C804 1.415 . S
C804 H780 0.950 . S
C804 C799 1.363 . S
C804 C803 1.415 . S
C805 H781 0.951 . S
C805 C806 1.366 . S
C805 C807 1.388 . S
C806 C805 1.366 . S
C806 C810 1.385 . S
C807 H782 0.951 . S
C807 C805 1.388 . S
C807 C808 1.366 . S
C808 C807 1.366 . S
C808 C809 1.414 . S
C808 C811 1.499 . S
C809 H783 0.950 . S
C809 C808 1.414 . S
C809 C810 1.374 . S
C810 H784 0.950 . S
C810 C806 1.385 . S
C810 C809 1.374 . S
C811 C808 1.499 . S
C811 C812 1.373 . S
C811 C813 1.389 . S
C812 H785 0.950 . S
C812 C798 1.377 . S
C812 C811 1.373 . S
C813 C797 1.377 . S
C813 C811 1.389 . S
C813 C814 1.524 . S
C814 C813 1.524 . S
C814 C815 1.397 . S
C814 C819 1.363 . S
C815 H786 0.950 . S
C815 C814 1.397 . S
C815 C816 1.334 . S
C816 H787 0.950 . S
C816 C815 1.334 . S
C816 C817 1.287 . S
C817 C816 1.287 . S
C817 C818 1.524 . S
C817 H820 0.999 . S
C818 H788 0.950 . S
C818 C817 1.524 . S
C818 C819 1.415 . S
C819 H789 0.950 . S
C819 C814 1.363 . S
C819 C818 1.415 . S
H820 C817 0.999 . S
H821 C802 0.913 . S
H822 C840 0.951 . S
H823 C842 0.951 . S
H824 C844 0.950 . S
H825 C845 0.950 . S
H826 C847 0.950 . S
H827 C850 0.950 . S
H828 C851 0.950 . S
H829 C853 0.950 . S
H830 C854 0.950 . S
H831 C855 0.951 . S
H832 C857 0.951 . S
H833 C859 0.950 . S
H834 C860 0.950 . S
H835 C862 0.950 . S
H836 C865 0.950 . S
H837 C866 0.950 . S
H838 C868 0.950 . S
H839 C869 0.950 . S
C840 H822 0.951 . S
C840 C841 1.366 . S
C840 C842 1.388 . S
C841 C840 1.366 . S
C841 C845 1.385 . S
C842 H823 0.951 . S
C842 C840 1.388 . S
C842 C843 1.366 . S
C843 C842 1.366 . S
C843 C844 1.414 . S
C843 C846 1.499 . S
C844 H824 0.950 . S
C844 C843 1.414 . S
C844 C845 1.374 . S
C845 H825 0.950 . S
C845 C841 1.385 . S
C845 C844 1.374 . S
C846 C843 1.499 . S
C846 C847 1.373 . S
C846 C848 1.389 . S
C847 H826 0.950 . S
C847 C846 1.373 . S
C847 C863 1.377 . S
C848 C846 1.389 . S
C848 C849 1.524 . S
C848 C862 1.377 . S
C849 C848 1.524 . S
C849 C850 1.397 . S
C849 C854 1.363 . S
C850 H827 0.950 . S
C850 C849 1.397 . S
C850 C851 1.334 . S
C851 H828 0.950 . S
C851 C850 1.334 . S
C851 C852 1.287 . S
C852 C851 1.287 . S
C852 C853 1.524 . S
C852 H871 0.913 . S
C853 H829 0.950 . S
C853 C852 1.524 . S
C853 C854 1.415 . S
C854 H830 0.950 . S
C854 C849 1.363 . S
C854 C853 1.415 . S
C855 H831 0.951 . S
C855 C856 1.366 . S
C855 C857 1.388 . S
C856 C855 1.366 . S
C856 C860 1.385 . S
C857 H832 0.951 . S
C857 C855 1.388 . S
C857 C858 1.366 . S
C858 C857 1.366 . S
C858 C859 1.414 . S
C858 C861 1.499 . S
C859 H833 0.950 . S
C859 C858 1.414 . S
C859 C860 1.374 . S
C860 H834 0.950 . S
C860 C856 1.385 . S
C860 C859 1.374 . S
C861 C858 1.499 . S
C861 C862 1.373 . S
C861 C863 1.389 . S
C862 H835 0.950 . S
C862 C848 1.377 . S
C862 C861 1.373 . S
C863 C847 1.377 . S
C863 C861 1.389 . S
C863 C864 1.524 . S
C864 C863 1.524 . S
C864 C865 1.397 . S
C864 C869 1.363 . S
C865 H836 0.950 . S
C865 C864 1.397 . S
C865 C866 1.334 . S
C866 H837 0.950 . S
C866 C865 1.334 . S
C866 C867 1.287 . S
C867 C866 1.287 . S
C867 C868 1.524 . S
C867 H870 0.999 . S
C868 H838 0.950 . S
C868 C867 1.524 . S
C868 C869 1.415 . S
C869 H839 0.950 . S
C869 C864 1.363 . S
C869 C868 1.415 . S
H870 C867 0.999 . S
H871 C852 0.913 . S
H872 C890 0.951 . S
H873 C892 0.951 . S
H874 C894 0.950 . S
H875 C895 0.950 . S
H876 C897 0.950 . S
H877 C900 0.950 . S
H878 C901 0.950 . S
H879 C903 0.950 . S
H880 C904 0.950 . S
H881 C905 0.951 . S
H882 C907 0.951 . S
H883 C909 0.950 . S
H884 C910 0.950 . S
H885 C912 0.950 . S
H886 C915 0.950 . S
H887 C916 0.950 . S
H888 C918 0.950 . S
H889 C919 0.950 . S
C890 H872 0.951 . S
C890 C891 1.366 . S
C890 C892 1.388 . S
C891 C890 1.366 . S
C891 C895 1.385 . S
C892 H873 0.951 . S
C892 C890 1.388 . S
C892 C893 1.366 . S
C893 C892 1.366 . S
C893 C894 1.414 . S
C893 C896 1.499 . S
C894 H874 0.950 . S
C894 C893 1.414 . S
C894 C895 1.374 . S
C895 H875 0.950 . S
C895 C891 1.385 . S
C895 C894 1.374 . S
C896 C893 1.499 . S
C896 C897 1.373 . S
C896 C898 1.389 . S
C897 H876 0.950 . S
C897 C896 1.373 . S
C897 C913 1.377 . S
C898 C896 1.389 . S
C898 C899 1.524 . S
C898 C912 1.377 . S
C899 C898 1.524 . S
C899 C900 1.397 . S
C899 C904 1.363 . S
C900 H877 0.950 . S
C900 C899 1.397 . S
C900 C901 1.334 . S
C901 H878 0.950 . S
C901 C900 1.334 . S
C901 C902 1.287 . S
C902 C901 1.287 . S
C902 C903 1.524 . S
C902 H921 0.913 . S
C903 H879 0.950 . S
C903 C902 1.524 . S
C903 C904 1.415 . S
C904 H880 0.950 . S
C904 C899 1.363 . S
C904 C903 1.415 . S
C905 H881 0.951 . S
C905 C906 1.366 . S
C905 C907 1.388 . S
C906 C905 1.366 . S
C906 C910 1.385 . S
C907 H882 0.951 . S
C907 C905 1.388 . S
C907 C908 1.366 . S
C908 C907 1.366 . S
C908 C909 1.414 . S
C908 C911 1.499 . S
C909 H883 0.950 . S
C909 C908 1.414 . S
C909 C910 1.374 . S
C910 H884 0.950 . S
C910 C906 1.385 . S
C910 C909 1.374 . S
C911 C908 1.499 . S
C911 C912 1.373 . S
C911 C913 1.389 . S
C912 H885 0.950 . S
C912 C898 1.377 . S
C912 C911 1.373 . S
C913 C897 1.377 . S
C913 C911 1.389 . S
C913 C914 1.524 . S
C914 C913 1.524 . S
C914 C915 1.397 . S
C914 C919 1.363 . S
C915 H886 0.950 . S
C915 C914 1.397 . S
C915 C916 1.334 . S
C916 H887 0.950 . S
C916 C915 1.334 . S
C916 C917 1.287 . S
C917 C916 1.287 . S
C917 C918 1.524 . S
C917 H920 0.999 . S
C918 H888 0.950 . S
C918 C917 1.524 . S
C918 C919 1.415 . S
C919 H889 0.950 . S
C919 C914 1.363 . S
C919 C918 1.415 . S
H920 C917 0.999 . S
H921 C902 0.913 . S
H922 C940 0.951 . S
H923 C942 0.951 . S
H924 C944 0.950 . S
H925 C945 0.950 . S
H926 C947 0.950 . S
H927 C950 0.950 . S
H928 C951 0.950 . S
H929 C953 0.950 . S
H930 C954 0.950 . S
H931 C955 0.951 . S
H932 C957 0.951 . S
H933 C959 0.950 . S
H934 C960 0.950 . S
H935 C962 0.950 . S
H936 C965 0.950 . S
H937 C966 0.950 . S
H938 C968 0.950 . S
H939 C969 0.950 . S
C940 H922 0.951 . S
C940 C941 1.366 . S
C940 C942 1.388 . S
C941 C940 1.366 . S
C941 C945 1.385 . S
C942 H923 0.951 . S
C942 C940 1.388 . S
C942 C943 1.366 . S
C943 C942 1.366 . S
C943 C944 1.414 . S
C943 C946 1.499 . S
C944 H924 0.950 . S
C944 C943 1.414 . S
C944 C945 1.374 . S
C945 H925 0.950 . S
C945 C941 1.385 . S
C945 C944 1.374 . S
C946 C943 1.499 . S
C946 C947 1.373 . S
C946 C948 1.389 . S
C947 H926 0.950 . S
C947 C946 1.373 . S
C947 C963 1.377 . S
C948 C946 1.389 . S
C948 C949 1.524 . S
C948 C962 1.377 . S
C949 C948 1.524 . S
C949 C950 1.397 . S
C949 C954 1.363 . S
C950 H927 0.950 . S
C950 C949 1.397 . S
C950 C951 1.334 . S
C951 H928 0.950 . S
C951 C950 1.334 . S
C951 C952 1.287 . S
C952 C951 1.287 . S
C952 C953 1.524 . S
C952 H971 0.913 . S
C953 H929 0.950 . S
C953 C952 1.524 . S
C953 C954 1.415 . S
C954 H930 0.950 . S
C954 C949 1.363 . S
C954 C953 1.415 . S
C955 H931 0.951 . S
C955 C956 1.366 . S
C955 C957 1.388 . S
C956 C955 1.366 . S
C956 C960 1.385 . S
C957 H932 0.951 . S
C957 C955 1.388 . S
C957 C958 1.366 . S
C958 C957 1.366 . S
C958 C959 1.414 . S
C958 C961 1.499 . S
C959 H933 0.950 . S
C959 C958 1.414 . S
C959 C960 1.374 . S
C960 H934 0.950 . S
C960 C956 1.385 . S
C960 C959 1.374 . S
C961 C958 1.499 . S
C961 C962 1.373 . S
C961 C963 1.389 . S
C962 H935 0.950 . S
C962 C948 1.377 . S
C962 C961 1.373 . S
C963 C947 1.377 . S
C963 C961 1.389 . S
C963 C964 1.524 . S
C964 C963 1.524 . S
C964 C965 1.397 . S
C964 C969 1.363 . S
C965 H936 0.950 . S
C965 C964 1.397 . S
C965 C966 1.334 . S
C966 H937 0.950 . S
C966 C965 1.334 . S
C966 C967 1.287 . S
C967 C966 1.287 . S
C967 C968 1.524 . S
C967 H970 0.999 . S
C968 H938 0.950 . S
C968 C967 1.524 . S
C968 C969 1.415 . S
C969 H939 0.950 . S
C969 C964 1.363 . S
C969 C968 1.415 . S
H970 C967 0.999 . S
H971 C952 0.913 . S
H972 C990 0.951 . S
H973 C992 0.951 . S
H974 C994 0.950 . S
H975 C995 0.950 . S
H976 C997 0.950 . S
H977 C1000 0.950 . S
H978 C1001 0.950 . S
H979 C1003 0.950 . S
H980 C1004 0.950 . S
H981 C1005 0.951 . S
H982 C1007 0.951 . S
H983 C1009 0.950 . S
H984 C1010 0.950 . S
H985 C1012 0.950 . S
H986 C1015 0.950 . S
H987 C1016 0.950 . S
H988 C1018 0.950 . S
H989 C1019 0.950 . S
C990 H972 0.951 . S
C990 C991 1.366 . S
C990 C992 1.388 . S
C991 C990 1.366 . S
C991 C995 1.385 . S
C992 H973 0.951 . S
C992 C990 1.388 . S
C992 C993 1.366 . S
C993 C992 1.366 . S
C993 C994 1.414 . S
C993 C996 1.499 . S
C994 H974 0.950 . S
C994 C993 1.414 . S
C994 C995 1.374 . S
C995 H975 0.950 . S
C995 C991 1.385 . S
C995 C994 1.374 . S
C996 C993 1.499 . S
C996 C997 1.373 . S
C996 C998 1.389 . S
C997 H976 0.950 . S
C997 C996 1.373 . S
C997 C1013 1.377 . S
C998 C996 1.389 . S
C998 C999 1.524 . S
C998 C1012 1.377 . S
C999 C998 1.524 . S
C999 C1000 1.397 . S
C999 C1004 1.363 . S
C1000 H977 0.950 . S
C1000 C999 1.397 . S
C1000 C1001 1.334 . S
C1001 H978 0.950 . S
C1001 C1000 1.334 . S
C1001 C1002 1.287 . S
C1002 C1001 1.287 . S
C1002 C1003 1.524 . S
C1002 H1021 0.913 . S
C1003 H979 0.950 . S
C1003 C1002 1.524 . S
C1003 C1004 1.415 . S
C1004 H980 0.950 . S
C1004 C999 1.363 . S
C1004 C1003 1.415 . S
C1005 H981 0.951 . S
C1005 C1006 1.366 . S
C1005 C1007 1.388 . S
C1006 C1005 1.366 . S
C1006 C1010 1.385 . S
C1007 H982 0.951 . S
C1007 C1005 1.388 . S
C1007 C1008 1.366 . S
C1008 C1007 1.366 . S
C1008 C1009 1.414 . S
C1008 C1011 1.499 . S
C1009 H983 0.950 . S
C1009 C1008 1.414 . S
C1009 C1010 1.374 . S
C1010 H984 0.950 . S
C1010 C1006 1.385 . S
C1010 C1009 1.374 . S
C1011 C1008 1.499 . S
C1011 C1012 1.373 . S
C1011 C1013 1.389 . S
C1012 H985 0.950 . S
C1012 C998 1.377 . S
C1012 C1011 1.373 . S
C1013 C997 1.377 . S
C1013 C1011 1.389 . S
C1013 C1014 1.524 . S
C1014 C1013 1.524 . S
C1014 C1015 1.397 . S
C1014 C1019 1.363 . S
C1015 H986 0.950 . S
C1015 C1014 1.397 . S
C1015 C1016 1.334 . S
C1016 H987 0.950 . S
C1016 C1015 1.334 . S
C1016 C1017 1.287 . S
C1017 C1016 1.287 . S
C1017 C1018 1.524 . S
C1017 H1020 0.999 . S
C1018 H988 0.950 . S
C1018 C1017 1.524 . S
C1018 C1019 1.415 . S
C1019 H989 0.950 . S
C1019 C1014 1.363 . S
C1019 C1018 1.415 . S
H1020 C1017 0.999 . S
H1021 C1002 0.913 . S
H1022 C1040 0.951 . S
H1023 C1042 0.951 . S
H1024 C1044 0.950 . S
H1025 C1045 0.950 . S
H1026 C1047 0.950 . S
H1027 C1050 0.950 . S
H1028 C1051 0.950 . S
H1029 C1053 0.950 . S
H1030 C1054 0.950 . S
H1031 C1055 0.951 . S
H1032 C1057 0.951 . S
H1033 C1059 0.950 . S
H1034 C1060 0.950 . S
H1035 C1062 0.950 . S
H1036 C1065 0.950 . S
H1037 C1066 0.950 . S
H1038 C1068 0.976 . S
H1039 C1069 0.950 . S
C1040 H1022 0.951 . S
C1040 C1041 1.366 . S
C1040 C1042 1.388 . S
C1041 C1040 1.366 . S
C1041 C1045 1.385 . S
C1042 H1023 0.951 . S
C1042 C1040 1.388 . S
C1042 C1043 1.366 . S
C1043 C1042 1.366 . S
C1043 C1044 1.414 . S
C1043 C1046 1.499 . S
C1044 H1024 0.950 . S
C1044 C1043 1.414 . S
C1044 C1045 1.374 . S
C1045 H1025 0.950 . S
C1045 C1041 1.385 . S
C1045 C1044 1.374 . S
C1046 C1043 1.499 . S
C1046 C1047 1.373 . S
C1046 C1048 1.389 . S
C1047 H1026 0.950 . S
C1047 C1046 1.373 . S
C1047 C1063 1.377 . S
C1048 C1046 1.389 . S
C1048 C1049 1.524 . S
C1048 C1062 1.377 . S
C1049 C1048 1.524 . S
C1049 C1050 1.397 . S
C1049 C1054 1.363 . S
C1050 H1027 0.950 . S
C1050 C1049 1.397 . S
C1050 C1051 1.334 . S
C1051 H1028 0.950 . S
C1051 C1050 1.334 . S
C1051 C1052 1.287 . S
C1052 C1051 1.287 . S
C1052 C1053 1.524 . S
C1052 H1071 0.913 . S
C1053 H1029 0.950 . S
C1053 C1052 1.524 . S
C1053 C1054 1.415 . S
C1054 H1030 0.950 . S
C1054 C1049 1.363 . S
C1054 C1053 1.415 . S
C1055 H1031 0.951 . S
C1055 C1056 1.366 . S
C1055 C1057 1.388 . S
C1056 C1055 1.366 . S
C1056 C1060 1.385 . S
C1057 H1032 0.951 . S
C1057 C1055 1.388 . S
C1057 C1058 1.366 . S
C1058 C1057 1.366 . S
C1058 C1059 1.414 . S
C1058 C1061 1.499 . S
C1059 H1033 0.950 . S
C1059 C1058 1.414 . S
C1059 C1060 1.374 . S
C1060 H1034 0.950 . S
C1060 C1056 1.385 . S
C1060 C1059 1.374 . S
C1061 C1058 1.499 . S
C1061 C1062 1.373 . S
C1061 C1063 1.389 . S
C1062 H1035 0.950 . S
C1062 C1048 1.377 . S
C1062 C1061 1.373 . S
C1063 C1047 1.377 . S
C1063 C1061 1.389 . S
C1063 C1064 1.524 . S
C1064 C1063 1.524 . S
C1064 C1065 1.397 . S
C1064 C1069 1.363 . S
C1065 H1036 0.950 . S
C1065 C1064 1.397 . S
C1065 C1066 1.334 . S
C1066 H1037 0.950 . S
C1066 C1065 1.334 . S
C1066 C1067 1.287 . S
C1067 C1066 1.287 . S
C1067 C1068 1.524 . S
C1067 H1070 0.999 1_655 S
C1068 H1038 0.976 . S
C1068 C1067 1.524 . S
C1068 C1069 1.415 . S
C1069 H1039 0.950 . S
C1069 C1064 1.363 . S
C1069 C1068 1.415 . S
H1070 C1067 0.999 1_455 S
H1071 C1052 0.913 . S
H1072 C1090 0.951 . S
H1073 C1092 0.951 . S
H1074 C1094 0.950 . S
H1075 C1095 0.950 . S
H1076 C1097 0.950 . S
H1077 C1100 0.950 . S
H1078 C1101 0.950 . S
H1079 C1103 0.950 . S
H1080 C1104 0.950 . S
H1081 C1105 0.951 . S
H1082 C1107 0.951 . S
H1083 C1109 0.950 . S
H1084 C1110 0.950 . S
H1085 C1112 0.950 . S
H1086 C1115 0.950 . S
H1087 C1116 0.950 . S
H1088 C1118 0.950 . S
H1089 C1119 0.950 . S
C1090 H1072 0.951 . S
C1090 C1091 1.366 . S
C1090 C1092 1.388 . S
C1091 C1090 1.366 . S
C1091 C1095 1.385 . S
C1092 H1073 0.951 . S
C1092 C1090 1.388 . S
C1092 C1093 1.366 . S
C1093 C1092 1.366 . S
C1093 C1094 1.414 . S
C1093 C1096 1.499 . S
C1094 H1074 0.950 . S
C1094 C1093 1.414 . S
C1094 C1095 1.374 . S
C1095 H1075 0.950 . S
C1095 C1091 1.385 . S
C1095 C1094 1.374 . S
C1096 C1093 1.499 . S
C1096 C1097 1.373 . S
C1096 C1098 1.389 . S
C1097 H1076 0.950 . S
C1097 C1096 1.373 . S
C1097 C1113 1.377 . S
C1098 C1096 1.389 . S
C1098 C1099 1.524 . S
C1098 C1112 1.377 . S
C1099 C1098 1.524 . S
C1099 C1100 1.397 . S
C1099 C1104 1.363 . S
C1100 H1077 0.950 . S
C1100 C1099 1.397 . S
C1100 C1101 1.334 . S
C1101 H1078 0.950 . S
C1101 C1100 1.334 . S
C1101 C1102 1.287 . S
C1102 C1101 1.287 . S
C1102 C1103 1.524 . S
C1102 H1121 0.913 . S
C1103 H1079 0.950 . S
C1103 C1102 1.524 . S
C1103 C1104 1.415 . S
C1104 H1080 0.950 . S
C1104 C1099 1.363 . S
C1104 C1103 1.415 . S
C1105 H1081 0.951 . S
C1105 C1106 1.366 1_655 S
C1105 C1107 1.388 . S
C1106 C1105 1.366 1_455 S
C1106 C1110 1.385 . S
C1107 H1082 0.951 . S
C1107 C1105 1.388 . S
C1107 C1108 1.366 . S
C1108 C1107 1.366 . S
C1108 C1109 1.414 . S
C1108 C1111 1.499 . S
C1109 H1083 0.950 . S
C1109 C1108 1.414 . S
C1109 C1110 1.374 1_655 S
C1110 H1084 0.950 . S
C1110 C1106 1.385 . S
C1110 C1109 1.374 1_455 S
C1111 C1108 1.499 . S
C1111 C1112 1.373 . S
C1111 C1113 1.389 . S
C1112 H1085 0.950 . S
C1112 C1098 1.377 . S
C1112 C1111 1.373 . S
C1113 C1097 1.377 . S
C1113 C1111 1.389 . S
C1113 C1114 1.524 . S
C1114 C1113 1.524 . S
C1114 C1115 1.397 . S
C1114 C1119 1.363 . S
C1115 H1086 0.950 . S
C1115 C1114 1.397 . S
C1115 C1116 1.334 . S
C1116 H1087 0.950 . S
C1116 C1115 1.334 . S
C1116 C1117 1.287 . S
C1117 C1116 1.287 . S
C1117 C1118 1.524 . S
C1117 H1120 0.999 . S
C1118 H1088 0.950 . S
C1118 C1117 1.524 . S
C1118 C1119 1.415 . S
C1119 H1089 0.950 . S
C1119 C1114 1.363 . S
C1119 C1118 1.415 . S
H1120 C1117 0.999 . S
H1121 C1102 0.913 . S
H1122 C1140 0.951 . S
H1123 C1142 0.951 . S
H1124 C1144 0.950 . S
H1125 C1145 0.950 . S
H1126 C1147 0.950 . S
H1127 C1150 0.950 . S
H1128 C1151 0.950 . S
H1129 C1153 0.950 . S
H1130 C1154 0.950 . S
H1131 C1155 0.951 . S
H1132 C1157 0.951 . S
H1133 C1159 0.950 . S
H1134 C1160 0.950 . S
H1135 C1162 0.950 . S
H1136 C1165 0.950 . S
H1137 C1166 0.950 . S
H1138 C1168 0.950 . S
H1139 C1169 0.950 . S
C1140 H1122 0.951 . S
C1140 C1141 1.366 . S
C1140 C1142 1.388 . S
C1141 C1140 1.366 . S
C1141 C1145 1.385 . S
C1142 H1123 0.951 . S
C1142 C1140 1.388 . S
C1142 C1143 1.366 . S
C1143 C1142 1.366 . S
C1143 C1144 1.414 . S
C1143 C1146 1.499 . S
C1144 H1124 0.950 . S
C1144 C1143 1.414 . S
C1144 C1145 1.374 . S
C1145 H1125 0.950 . S
C1145 C1141 1.385 . S
C1145 C1144 1.374 . S
C1146 C1143 1.499 . S
C1146 C1147 1.373 . S
C1146 C1148 1.389 . S
C1147 H1126 0.950 . S
C1147 C1146 1.373 . S
C1147 C1163 1.377 . S
C1148 C1146 1.389 . S
C1148 C1149 1.524 . S
C1148 C1162 1.377 . S
C1149 C1148 1.524 . S
C1149 C1150 1.397 . S
C1149 C1154 1.363 . S
C1150 H1127 0.950 . S
C1150 C1149 1.397 . S
C1150 C1151 1.334 . S
C1151 H1128 0.950 . S
C1151 C1150 1.334 . S
C1151 C1152 1.287 . S
C1152 C1151 1.287 . S
C1152 C1153 1.524 . S
C1152 H1171 0.913 . S
C1153 H1129 0.950 . S
C1153 C1152 1.524 . S
C1153 C1154 1.415 . S
C1154 H1130 0.950 . S
C1154 C1149 1.363 . S
C1154 C1153 1.415 . S
C1155 H1131 0.951 . S
C1155 C1156 1.366 . S
C1155 C1157 1.388 . S
C1156 C1155 1.366 . S
C1156 C1160 1.385 . S
C1157 H1132 0.951 . S
C1157 C1155 1.388 . S
C1157 C1158 1.366 . S
C1158 C1157 1.366 . S
C1158 C1159 1.414 . S
C1158 C1161 1.499 . S
C1159 H1133 0.950 . S
C1159 C1158 1.414 . S
C1159 C1160 1.374 . S
C1160 H1134 0.950 . S
C1160 C1156 1.385 . S
C1160 C1159 1.374 . S
C1161 C1158 1.499 . S
C1161 C1162 1.373 . S
C1161 C1163 1.389 . S
C1162 H1135 0.950 . S
C1162 C1148 1.377 . S
C1162 C1161 1.373 . S
C1163 C1147 1.377 . S
C1163 C1161 1.389 . S
C1163 C1164 1.524 . S
C1164 C1163 1.524 . S
C1164 C1165 1.397 . S
C1164 C1169 1.363 . S
C1165 H1136 0.950 . S
C1165 C1164 1.397 . S
C1165 C1166 1.334 . S
C1166 H1137 0.950 . S
C1166 C1165 1.334 . S
C1166 C1167 1.287 . S
C1167 C1166 1.287 . S
C1167 C1168 1.524 . S
C1167 H1170 0.999 . S
C1168 H1138 0.950 . S
C1168 C1167 1.524 . S
C1168 C1169 1.415 . S
C1169 H1139 0.950 . S
C1169 C1164 1.363 . S
C1169 C1168 1.415 . S
H1170 C1167 0.999 . S
H1171 C1152 0.913 . S
H1172 C1190 0.951 . S
H1173 C1192 0.951 . S
H1174 C1194 0.950 . S
H1175 C1195 0.950 . S
H1176 C1197 0.950 . S
H1177 C1200 0.950 . S
H1178 C1201 0.950 . S
H1179 C1203 0.950 . S
H1180 C1204 0.950 . S
H1181 C1205 0.951 . S
H1182 C1207 0.951 . S
H1183 C1209 0.950 . S
H1184 C1210 0.950 . S
H1185 C1212 0.950 . S
H1186 C1215 0.950 . S
H1187 C1216 0.950 . S
H1188 C1218 0.950 . S
H1189 C1219 0.950 . S
C1190 H1172 0.951 . S
C1190 C1191 1.366 . S
C1190 C1192 1.388 . S
C1191 C1190 1.366 . S
C1191 C1195 1.385 . S
C1192 H1173 0.951 . S
C1192 C1190 1.388 . S
C1192 C1193 1.366 . S
C1193 C1192 1.366 . S
C1193 C1194 1.414 . S
C1193 C1196 1.499 . S
C1194 H1174 0.950 . S
C1194 C1193 1.414 . S
C1194 C1195 1.374 . S
C1195 H1175 0.950 . S
C1195 C1191 1.385 . S
C1195 C1194 1.374 . S
C1196 C1193 1.499 . S
C1196 C1197 1.373 . S
C1196 C1198 1.389 . S
C1197 H1176 0.950 . S
C1197 C1196 1.373 . S
C1197 C1213 1.377 . S
C1198 C1196 1.389 . S
C1198 C1199 1.524 . S
C1198 C1212 1.377 . S
C1199 C1198 1.524 . S
C1199 C1200 1.397 . S
C1199 C1204 1.363 . S
C1200 H1177 0.950 . S
C1200 C1199 1.397 . S
C1200 C1201 1.334 . S
C1201 H1178 0.950 . S
C1201 C1200 1.334 . S
C1201 C1202 1.287 . S
C1202 C1201 1.287 . S
C1202 C1203 1.524 . S
C1202 H1221 0.913 . S
C1203 H1179 0.950 . S
C1203 C1202 1.524 . S
C1203 C1204 1.415 . S
C1204 H1180 0.950 . S
C1204 C1199 1.363 . S
C1204 C1203 1.415 . S
C1205 H1181 0.951 . S
C1205 C1206 1.366 . S
C1205 C1207 1.388 . S
C1206 C1205 1.366 . S
C1206 C1210 1.385 . S
C1207 H1182 0.951 . S
C1207 C1205 1.388 . S
C1207 C1208 1.366 . S
C1208 C1207 1.366 . S
C1208 C1209 1.414 . S
C1208 C1211 1.499 . S
C1209 H1183 0.950 . S
C1209 C1208 1.414 . S
C1209 C1210 1.374 . S
C1210 H1184 0.950 . S
C1210 C1206 1.385 . S
C1210 C1209 1.374 . S
C1211 C1208 1.499 . S
C1211 C1212 1.373 . S
C1211 C1213 1.389 . S
C1212 H1185 0.950 . S
C1212 C1198 1.377 . S
C1212 C1211 1.373 . S
C1213 C1197 1.377 . S
C1213 C1211 1.389 . S
C1213 C1214 1.524 . S
C1214 C1213 1.524 . S
C1214 C1215 1.397 . S
C1214 C1219 1.363 . S
C1215 H1186 0.950 . S
C1215 C1214 1.397 . S
C1215 C1216 1.334 . S
C1216 H1187 0.950 . S
C1216 C1215 1.334 . S
C1216 C1217 1.287 . S
C1217 C1216 1.287 . S
C1217 C1218 1.524 . S
C1217 H1220 0.999 . S
C1218 H1188 0.950 . S
C1218 C1217 1.524 . S
C1218 C1219 1.415 . S
C1219 H1189 0.950 . S
C1219 C1214 1.363 . S
C1219 C1218 1.415 . S
H1220 C1217 0.999 . S
H1221 C1202 0.913 . S
H1222 C1240 0.951 . S
H1223 C1242 0.951 . S
H1224 C1244 0.950 . S
H1225 C1245 0.950 . S
H1226 C1247 0.950 . S
H1227 C1250 0.950 . S
H1228 C1251 0.950 . S
H1229 C1253 0.950 . S
H1230 C1254 0.950 . S
H1231 C1255 0.951 . S
H1232 C1257 0.951 . S
H1233 C1259 0.950 . S
H1234 C1260 0.950 . S
H1235 C1262 0.950 . S
H1236 C1265 0.950 . S
H1237 C1266 0.950 . S
H1238 C1268 0.950 . S
H1239 C1269 0.950 . S
C1240 H1222 0.951 . S
C1240 C1241 1.366 . S
C1240 C1242 1.388 . S
C1241 C1240 1.366 . S
C1241 C1245 1.385 . S
C1242 H1223 0.951 . S
C1242 C1240 1.388 . S
C1242 C1243 1.366 . S
C1243 C1242 1.366 . S
C1243 C1244 1.414 . S
C1243 C1246 1.499 . S
C1244 H1224 0.950 . S
C1244 C1243 1.414 . S
C1244 C1245 1.374 . S
C1245 H1225 0.950 . S
C1245 C1241 1.385 . S
C1245 C1244 1.374 . S
C1246 C1243 1.499 . S
C1246 C1247 1.373 . S
C1246 C1248 1.389 . S
C1247 H1226 0.950 . S
C1247 C1246 1.373 . S
C1247 C1263 1.377 . S
C1248 C1246 1.389 . S
C1248 C1249 1.524 . S
C1248 C1262 1.377 . S
C1249 C1248 1.524 . S
C1249 C1250 1.397 . S
C1249 C1254 1.363 . S
C1250 H1227 0.950 . S
C1250 C1249 1.397 . S
C1250 C1251 1.334 . S
C1251 H1228 0.950 . S
C1251 C1250 1.334 . S
C1251 C1252 1.287 . S
C1252 C1251 1.287 . S
C1252 C1253 1.524 . S
C1252 H1271 0.913 . S
C1253 H1229 0.950 . S
C1253 C1252 1.524 . S
C1253 C1254 1.415 . S
C1254 H1230 0.950 . S
C1254 C1249 1.363 . S
C1254 C1253 1.415 . S
C1255 H1231 0.951 . S
C1255 C1256 1.366 . S
C1255 C1257 1.388 . S
C1256 C1255 1.366 . S
C1256 C1260 1.385 . S
C1257 H1232 0.951 . S
C1257 C1255 1.388 . S
C1257 C1258 1.366 . S
C1258 C1257 1.366 . S
C1258 C1259 1.414 . S
C1258 C1261 1.499 . S
C1259 H1233 0.950 . S
C1259 C1258 1.414 . S
C1259 C1260 1.374 . S
C1260 H1234 0.950 . S
C1260 C1256 1.385 . S
C1260 C1259 1.374 . S
C1261 C1258 1.499 . S
C1261 C1262 1.373 . S
C1261 C1263 1.389 . S
C1262 H1235 0.950 . S
C1262 C1248 1.377 . S
C1262 C1261 1.373 . S
C1263 C1247 1.377 . S
C1263 C1261 1.389 . S
C1263 C1264 1.524 . S
C1264 C1263 1.524 . S
C1264 C1265 1.397 . S
C1264 C1269 1.363 . S
C1265 H1236 0.950 . S
C1265 C1264 1.397 . S
C1265 C1266 1.334 . S
C1266 H1237 0.950 . S
C1266 C1265 1.334 . S
C1266 C1267 1.287 . S
C1267 C1266 1.287 . S
C1267 C1268 1.524 . S
C1267 H1270 0.999 . S
C1268 H1238 0.950 . S
C1268 C1267 1.524 . S
C1268 C1269 1.415 . S
C1269 H1239 0.950 . S
C1269 C1264 1.363 . S
C1269 C1268 1.415 . S
H1270 C1267 0.999 . S
H1271 C1252 0.913 . S
H1272 C1290 0.951 . S
H1273 C1292 0.951 . S
H1274 C1294 0.950 . S
H1275 C1295 0.950 . S
H1276 C1297 0.950 . S
H1277 C1300 0.950 . S
H1278 C1301 0.950 . S
H1279 C1303 0.950 . S
H1280 C1304 0.950 . S
H1281 C1305 0.951 . S
H1282 C1307 0.951 . S
H1283 C1309 0.950 . S
H1284 C1310 0.950 . S
H1285 C1312 0.950 . S
H1286 C1315 0.950 . S
H1287 C1316 0.950 . S
H1288 C1318 0.950 . S
H1289 C1319 0.950 . S
C1290 H1272 0.951 . S
C1290 C1291 1.366 . S
C1290 C1292 1.388 . S
C1291 C1290 1.366 . S
C1291 C1295 1.385 . S
C1292 H1273 0.951 . S
C1292 C1290 1.388 . S
C1292 C1293 1.366 . S
C1293 C1292 1.366 . S
C1293 C1294 1.414 . S
C1293 C1296 1.499 . S
C1294 H1274 0.950 . S
C1294 C1293 1.414 . S
C1294 C1295 1.374 . S
C1295 H1275 0.950 . S
C1295 C1291 1.385 . S
C1295 C1294 1.374 . S
C1296 C1293 1.499 . S
C1296 C1297 1.373 . S
C1296 C1298 1.389 . S
C1297 H1276 0.950 . S
C1297 C1296 1.373 . S
C1297 C1313 1.377 . S
C1298 C1296 1.389 . S
C1298 C1299 1.524 . S
C1298 C1312 1.377 . S
C1299 C1298 1.524 . S
C1299 C1300 1.397 . S
C1299 C1304 1.363 . S
C1300 H1277 0.950 . S
C1300 C1299 1.397 . S
C1300 C1301 1.334 . S
C1301 H1278 0.950 . S
C1301 C1300 1.334 . S
C1301 C1302 1.287 . S
C1302 C1301 1.287 . S
C1302 C1303 1.524 . S
C1302 H1321 0.913 . S
C1303 H1279 0.950 . S
C1303 C1302 1.524 . S
C1303 C1304 1.415 . S
C1304 H1280 0.950 . S
C1304 C1299 1.363 . S
C1304 C1303 1.415 . S
C1305 H1281 0.951 . S
C1305 C1306 1.366 . S
C1305 C1307 1.388 . S
C1306 C1305 1.366 . S
C1306 C1310 1.385 . S
C1307 H1282 0.951 . S
C1307 C1305 1.388 . S
C1307 C1308 1.366 . S
C1308 C1307 1.366 . S
C1308 C1309 1.414 . S
C1308 C1311 1.499 . S
C1309 H1283 0.950 . S
C1309 C1308 1.414 . S
C1309 C1310 1.374 . S
C1310 H1284 0.950 . S
C1310 C1306 1.385 . S
C1310 C1309 1.374 . S
C1311 C1308 1.499 . S
C1311 C1312 1.373 . S
C1311 C1313 1.389 . S
C1312 H1285 0.950 . S
C1312 C1298 1.377 . S
C1312 C1311 1.373 . S
C1313 C1297 1.377 . S
C1313 C1311 1.389 . S
C1313 C1314 1.524 . S
C1314 C1313 1.524 . S
C1314 C1315 1.397 . S
C1314 C1319 1.363 . S
C1315 H1286 0.950 . S
C1315 C1314 1.397 . S
C1315 C1316 1.334 . S
C1316 H1287 0.950 . S
C1316 C1315 1.334 . S
C1316 C1317 1.287 . S
C1317 C1316 1.287 . S
C1317 C1318 1.524 . S
C1317 H1320 0.999 . S
C1318 H1288 0.950 . S
C1318 C1317 1.524 . S
C1318 C1319 1.415 . S
C1319 H1289 0.950 . S
C1319 C1314 1.363 . S
C1319 C1318 1.415 . S
H1320 C1317 0.999 . S
H1321 C1302 0.913 . S
H1322 C1340 0.951 . S
H1323 C1342 0.951 . S
H1324 C1344 0.950 . S
H1325 C1345 0.950 . S
H1326 C1347 0.950 . S
H1327 C1350 0.950 . S
H1328 C1351 0.950 . S
H1329 C1353 0.950 . S
H1330 C1354 0.950 . S
H1331 C1355 0.951 . S
H1332 C1357 0.951 . S
H1333 C1359 0.950 . S
H1334 C1360 0.950 . S
H1335 C1362 0.950 . S
H1336 C1365 0.950 . S
H1337 C1366 0.950 . S
H1338 C1368 0.950 . S
H1339 C1369 0.950 . S
C1340 H1322 0.951 . S
C1340 C1341 1.366 . S
C1340 C1342 1.388 . S
C1341 C1340 1.366 . S
C1341 C1345 1.385 . S
C1342 H1323 0.951 . S
C1342 C1340 1.388 . S
C1342 C1343 1.366 . S
C1343 C1342 1.366 . S
C1343 C1344 1.414 . S
C1343 C1346 1.499 . S
C1344 H1324 0.950 . S
C1344 C1343 1.414 . S
C1344 C1345 1.374 . S
C1345 H1325 0.950 . S
C1345 C1341 1.385 . S
C1345 C1344 1.374 . S
C1346 C1343 1.499 . S
C1346 C1347 1.373 . S
C1346 C1348 1.389 . S
C1347 H1326 0.950 . S
C1347 C1346 1.373 . S
C1347 C1363 1.377 . S
C1348 C1346 1.389 . S
C1348 C1349 1.524 . S
C1348 C1362 1.377 . S
C1349 C1348 1.524 . S
C1349 C1350 1.397 . S
C1349 C1354 1.363 . S
C1350 H1327 0.950 . S
C1350 C1349 1.397 . S
C1350 C1351 1.334 . S
C1351 H1328 0.950 . S
C1351 C1350 1.334 . S
C1351 C1352 1.287 . S
C1352 C1351 1.287 . S
C1352 C1353 1.524 . S
C1352 H1371 0.913 . S
C1353 H1329 0.950 . S
C1353 C1352 1.524 . S
C1353 C1354 1.415 . S
C1354 H1330 0.950 . S
C1354 C1349 1.363 . S
C1354 C1353 1.415 . S
C1355 H1331 0.951 . S
C1355 C1356 1.366 . S
C1355 C1357 1.388 . S
C1356 C1355 1.366 . S
C1356 C1360 1.385 . S
C1357 H1332 0.951 . S
C1357 C1355 1.388 . S
C1357 C1358 1.366 . S
C1358 C1357 1.366 . S
C1358 C1359 1.414 . S
C1358 C1361 1.499 . S
C1359 H1333 0.950 . S
C1359 C1358 1.414 . S
C1359 C1360 1.374 . S
C1360 H1334 0.950 . S
C1360 C1356 1.385 . S
C1360 C1359 1.374 . S
C1361 C1358 1.499 . S
C1361 C1362 1.373 . S
C1361 C1363 1.389 . S
C1362 H1335 0.950 . S
C1362 C1348 1.377 . S
C1362 C1361 1.373 . S
C1363 C1347 1.377 . S
C1363 C1361 1.389 . S
C1363 C1364 1.524 . S
C1364 C1363 1.524 . S
C1364 C1365 1.397 . S
C1364 C1369 1.363 . S
C1365 H1336 0.950 . S
C1365 C1364 1.397 . S
C1365 C1366 1.334 . S
C1366 H1337 0.950 . S
C1366 C1365 1.334 . S
C1366 C1367 1.287 . S
C1367 C1366 1.287 . S
C1367 C1368 1.524 . S
C1367 H1370 0.999 . S
C1368 H1338 0.950 . S
C1368 C1367 1.524 . S
C1368 C1369 1.415 . S
C1369 H1339 0.950 . S
C1369 C1364 1.363 . S
C1369 C1368 1.415 . S
H1370 C1367 0.999 . S
H1371 C1352 0.913 . S
H1372 C1390 0.951 . S
H1373 C1392 0.951 . S
H1374 C1394 0.950 . S
H1375 C1395 0.950 . S
H1376 C1397 0.950 . S
H1377 C1400 0.950 . S
H1378 C1401 0.950 . S
H1379 C1403 0.950 . S
H1380 C1404 0.950 . S
H1381 C1405 0.951 . S
H1382 C1407 0.951 . S
H1383 C1409 0.950 . S
H1384 C1410 0.950 . S
H1385 C1412 0.950 . S
H1386 C1415 0.950 . S
H1387 C1416 0.950 . S
H1388 C1418 0.950 . S
H1389 C1419 0.950 . S
C1390 H1372 0.951 . S
C1390 C1391 1.366 . S
C1390 C1392 1.388 . S
C1391 C1390 1.366 . S
C1391 C1395 1.385 . S
C1392 H1373 0.951 . S
C1392 C1390 1.388 . S
C1392 C1393 1.366 . S
C1393 C1392 1.366 . S
C1393 C1394 1.414 . S
C1393 C1396 1.499 . S
C1394 H1374 0.950 . S
C1394 C1393 1.414 . S
C1394 C1395 1.374 . S
C1395 H1375 0.950 . S
C1395 C1391 1.385 . S
C1395 C1394 1.374 . S
C1396 C1393 1.499 . S
C1396 C1397 1.373 . S
C1396 C1398 1.389 . S
C1397 H1376 0.950 . S
C1397 C1396 1.373 . S
C1397 C1413 1.377 . S
C1398 C1396 1.389 . S
C1398 C1399 1.524 . S
C1398 C1412 1.377 . S
C1399 C1398 1.524 . S
C1399 C1400 1.397 . S
C1399 C1404 1.363 . S
C1400 H1377 0.950 . S
C1400 C1399 1.397 . S
C1400 C1401 1.334 . S
C1401 H1378 0.950 . S
C1401 C1400 1.334 . S
C1401 C1402 1.287 . S
C1402 C1401 1.287 . S
C1402 C1403 1.524 . S
C1402 H1421 0.913 . S
C1403 H1379 0.950 . S
C1403 C1402 1.524 . S
C1403 C1404 1.415 . S
C1404 H1380 0.950 . S
C1404 C1399 1.363 . S
C1404 C1403 1.415 . S
C1405 H1381 0.951 . S
C1405 C1406 1.366 . S
C1405 C1407 1.388 . S
C1406 C1405 1.366 . S
C1406 C1410 1.385 . S
C1407 H1382 0.951 . S
C1407 C1405 1.388 . S
C1407 C1408 1.366 . S
C1408 C1407 1.366 . S
C1408 C1409 1.414 . S
C1408 C1411 1.499 . S
C1409 H1383 0.950 . S
C1409 C1408 1.414 . S
C1409 C1410 1.374 . S
C1410 H1384 0.950 . S
C1410 C1406 1.385 . S
C1410 C1409 1.374 . S
C1411 C1408 1.499 . S
C1411 C1412 1.373 . S
C1411 C1413 1.389 . S
C1412 H1385 0.950 . S
C1412 C1398 1.377 . S
C1412 C1411 1.373 . S
C1413 C1397 1.377 . S
C1413 C1411 1.389 . S
C1413 C1414 1.524 . S
C1414 C1413 1.524 . S
C1414 C1415 1.397 . S
C1414 C1419 1.363 . S
C1415 H1386 0.950 . S
C1415 C1414 1.397 . S
C1415 C1416 1.334 . S
C1416 H1387 0.950 . S
C1416 C1415 1.334 . S
C1416 C1417 1.287 . S
C1417 C1416 1.287 . S
C1417 C1418 1.524 . S
C1417 H1420 0.999 . S
C1418 H1388 0.950 . S
C1418 C1417 1.524 . S
C1418 C1419 1.415 . S
C1419 H1389 0.950 . S
C1419 C1414 1.363 . S
C1419 C1418 1.415 . S
H1420 C1417 0.999 . S
H1421 C1402 0.913 . S
H1422 C1440 0.951 . S
H1423 C1442 0.951 . S
H1424 C1444 0.950 . S
H1425 C1445 0.950 . S
H1426 C1447 0.950 . S
H1427 C1450 0.950 . S
H1428 C1451 0.950 . S
H1429 C1453 0.950 . S
H1430 C1454 0.950 . S
H1431 C1455 0.951 . S
H1432 C1457 0.951 . S
H1433 C1459 0.950 . S
H1434 C1460 0.950 . S
H1435 C1462 0.950 . S
H1436 C1465 0.950 . S
H1437 C1466 0.950 . S
H1438 C1468 0.950 . S
H1439 C1469 0.950 . S
C1440 H1422 0.951 . S
C1440 C1441 1.366 . S
C1440 C1442 1.388 . S
C1441 C1440 1.366 . S
C1441 C1445 1.385 . S
C1442 H1423 0.951 . S
C1442 C1440 1.388 . S
C1442 C1443 1.366 . S
C1443 C1442 1.366 . S
C1443 C1444 1.414 . S
C1443 C1446 1.499 . S
C1444 H1424 0.950 . S
C1444 C1443 1.414 . S
C1444 C1445 1.374 . S
C1445 H1425 0.950 . S
C1445 C1441 1.385 . S
C1445 C1444 1.374 . S
C1446 C1443 1.499 . S
C1446 C1447 1.373 . S
C1446 C1448 1.389 . S
C1447 H1426 0.950 . S
C1447 C1446 1.373 . S
C1447 C1463 1.377 . S
C1448 C1446 1.389 . S
C1448 C1449 1.524 . S
C1448 C1462 1.377 . S
C1449 C1448 1.524 . S
C1449 C1450 1.397 . S
C1449 C1454 1.363 . S
C1450 H1427 0.950 . S
C1450 C1449 1.397 . S
C1450 C1451 1.334 . S
C1451 H1428 0.950 . S
C1451 C1450 1.334 . S
C1451 C1452 1.287 . S
C1452 C1451 1.287 . S
C1452 C1453 1.524 . S
C1452 H1471 0.913 . S
C1453 H1429 0.950 . S
C1453 C1452 1.524 . S
C1453 C1454 1.415 . S
C1454 H1430 0.950 . S
C1454 C1449 1.363 . S
C1454 C1453 1.415 . S
C1455 H1431 0.951 . S
C1455 C1456 1.366 . S
C1455 C1457 1.388 . S
C1456 C1455 1.366 . S
C1456 C1460 1.385 . S
C1457 H1432 0.951 . S
C1457 C1455 1.388 . S
C1457 C1458 1.366 . S
C1458 C1457 1.366 . S
C1458 C1459 1.414 . S
C1458 C1461 1.499 . S
C1459 H1433 0.950 . S
C1459 C1458 1.414 . S
C1459 C1460 1.374 . S
C1460 H1434 0.950 . S
C1460 C1456 1.385 . S
C1460 C1459 1.374 . S
C1461 C1458 1.499 . S
C1461 C1462 1.373 . S
C1461 C1463 1.389 . S
C1462 H1435 0.950 . S
C1462 C1448 1.377 . S
C1462 C1461 1.373 . S
C1463 C1447 1.377 . S
C1463 C1461 1.389 . S
C1463 C1464 1.524 . S
C1464 C1463 1.524 . S
C1464 C1465 1.397 . S
C1464 C1469 1.363 . S
C1465 H1436 0.950 . S
C1465 C1464 1.397 . S
C1465 C1466 1.334 . S
C1466 H1437 0.950 . S
C1466 C1465 1.334 . S
C1466 C1467 1.287 . S
C1467 C1466 1.287 . S
C1467 C1468 1.524 . S
C1467 H1470 0.999 . S
C1468 H1438 0.950 . S
C1468 C1467 1.524 . S
C1468 C1469 1.415 . S
C1469 H1439 0.950 . S
C1469 C1464 1.363 . S
C1469 C1468 1.415 . S
H1470 C1467 0.999 . S
H1471 C1452 0.913 . S
H1472 C1490 0.951 . S
H1473 C1492 0.951 . S
H1474 C1494 0.950 . S
H1475 C1495 0.950 . S
H1476 C1497 0.950 . S
H1477 C1500 0.950 . S
H1478 C1501 0.950 . S
H1479 C1503 0.950 . S
H1480 C1504 0.950 . S
H1481 C1505 0.951 . S
H1482 C1507 0.951 . S
H1483 C1509 0.950 . S
H1484 C1510 0.950 . S
H1485 C1512 0.950 . S
H1486 C1515 0.950 . S
H1487 C1516 0.950 . S
H1488 C1518 0.950 . S
H1489 C1519 0.950 . S
C1490 H1472 0.951 . S
C1490 C1491 1.366 . S
C1490 C1492 1.388 . S
C1491 C1490 1.366 . S
C1491 C1495 1.385 . S
C1492 H1473 0.951 . S
C1492 C1490 1.388 . S
C1492 C1493 1.366 . S
C1493 C1492 1.366 . S
C1493 C1494 1.414 . S
C1493 C1496 1.499 . S
C1494 H1474 0.950 . S
C1494 C1493 1.414 . S
C1494 C1495 1.374 . S
C1495 H1475 0.950 . S
C1495 C1491 1.385 . S
C1495 C1494 1.374 . S
C1496 C1493 1.499 . S
C1496 C1497 1.373 . S
C1496 C1498 1.389 . S
C1497 H1476 0.950 . S
C1497 C1496 1.373 . S
C1497 C1513 1.377 . S
C1498 C1496 1.389 . S
C1498 C1499 1.524 . S
C1498 C1512 1.377 . S
C1499 C1498 1.524 . S
C1499 C1500 1.397 . S
C1499 C1504 1.363 . S
C1500 H1477 0.950 . S
C1500 C1499 1.397 . S
C1500 C1501 1.334 . S
C1501 H1478 0.950 . S
C1501 C1500 1.334 . S
C1501 C1502 1.287 . S
C1502 C1501 1.287 . S
C1502 C1503 1.524 . S
C1502 H1521 0.913 . S
C1503 H1479 0.950 . S
C1503 C1502 1.524 . S
C1503 C1504 1.415 . S
C1504 H1480 0.950 . S
C1504 C1499 1.363 . S
C1504 C1503 1.415 . S
C1505 H1481 0.951 . S
C1505 C1506 1.366 . S
C1505 C1507 1.388 . S
C1506 C1505 1.366 . S
C1506 C1510 1.385 . S
C1507 H1482 0.951 . S
C1507 C1505 1.388 . S
C1507 C1508 1.366 . S
C1508 C1507 1.366 . S
C1508 C1509 1.414 . S
C1508 C1511 1.499 . S
C1509 H1483 0.950 . S
C1509 C1508 1.414 . S
C1509 C1510 1.374 . S
C1510 H1484 0.950 . S
C1510 C1506 1.385 . S
C1510 C1509 1.374 . S
C1511 C1508 1.499 . S
C1511 C1512 1.373 . S
C1511 C1513 1.389 . S
C1512 H1485 0.950 . S
C1512 C1498 1.377 . S
C1512 C1511 1.373 . S
C1513 C1497 1.377 . S
C1513 C1511 1.389 . S
C1513 C1514 1.524 . S
C1514 C1513 1.524 . S
C1514 C1515 1.397 . S
C1514 C1519 1.363 . S
C1515 H1486 0.950 . S
C1515 C1514 1.397 . S
C1515 C1516 1.334 . S
C1516 H1487 0.950 . S
C1516 C1515 1.334 . S
C1516 C1517 1.287 . S
C1517 C1516 1.287 . S
C1517 C1518 1.524 . S
C1517 H1520 0.999 . S
C1518 H1488 0.950 . S
C1518 C1517 1.524 . S
C1518 C1519 1.415 . S
C1519 H1489 0.950 . S
C1519 C1514 1.363 . S
C1519 C1518 1.415 . S
H1520 C1517 0.999 . S
H1521 C1502 0.913 . S
H1522 C1540 0.951 . S
H1523 C1542 0.951 . S
H1524 C1544 0.950 . S
H1525 C1545 0.950 . S
H1526 C1547 0.950 . S
H1527 C1550 0.950 . S
H1528 C1551 0.950 . S
H1529 C1553 0.950 . S
H1530 C1554 0.950 . S
H1531 C1555 0.951 . S
H1532 C1557 0.951 . S
H1533 C1559 0.950 . S
H1534 C1560 0.950 . S
H1535 C1562 0.950 . S
H1536 C1565 0.950 . S
H1537 C1566 0.950 . S
H1538 C1568 0.950 . S
H1539 C1569 0.950 . S
C1540 H1522 0.951 . S
C1540 C1541 1.366 . S
C1540 C1542 1.388 . S
C1541 C1540 1.366 . S
C1541 C1545 1.385 . S
C1542 H1523 0.951 . S
C1542 C1540 1.388 . S
C1542 C1543 1.366 . S
C1543 C1542 1.366 . S
C1543 C1544 1.414 . S
C1543 C1546 1.499 . S
C1544 H1524 0.950 . S
C1544 C1543 1.414 . S
C1544 C1545 1.374 . S
C1545 H1525 0.950 . S
C1545 C1541 1.385 . S
C1545 C1544 1.374 . S
C1546 C1543 1.499 . S
C1546 C1547 1.373 . S
C1546 C1548 1.389 . S
C1547 H1526 0.950 . S
C1547 C1546 1.373 . S
C1547 C1563 1.377 . S
C1548 C1546 1.389 . S
C1548 C1549 1.524 . S
C1548 C1562 1.377 . S
C1549 C1548 1.524 . S
C1549 C1550 1.397 . S
C1549 C1554 1.363 . S
C1550 H1527 0.950 . S
C1550 C1549 1.397 . S
C1550 C1551 1.334 . S
C1551 H1528 0.950 . S
C1551 C1550 1.334 . S
C1551 C1552 1.287 . S
C1552 C1551 1.287 . S
C1552 C1553 1.524 . S
C1552 H1571 0.913 . S
C1553 H1529 0.950 . S
C1553 C1552 1.524 . S
C1553 C1554 1.415 . S
C1554 H1530 0.950 . S
C1554 C1549 1.363 . S
C1554 C1553 1.415 . S
C1555 H1531 0.951 . S
C1555 C1556 1.366 . S
C1555 C1557 1.388 . S
C1556 C1555 1.366 . S
C1556 C1560 1.385 . S
C1557 H1532 0.951 . S
C1557 C1555 1.388 . S
C1557 C1558 1.366 . S
C1558 C1557 1.366 . S
C1558 C1559 1.414 . S
C1558 C1561 1.499 . S
C1559 H1533 0.950 . S
C1559 C1558 1.414 . S
C1559 C1560 1.374 . S
C1560 H1534 0.950 . S
C1560 C1556 1.385 . S
C1560 C1559 1.374 . S
C1561 C1558 1.499 . S
C1561 C1562 1.373 . S
C1561 C1563 1.389 . S
C1562 H1535 0.950 . S
C1562 C1548 1.377 . S
C1562 C1561 1.373 . S
C1563 C1547 1.377 . S
C1563 C1561 1.389 . S
C1563 C1564 1.524 . S
C1564 C1563 1.524 . S
C1564 C1565 1.397 . S
C1564 C1569 1.363 . S
C1565 H1536 0.950 . S
C1565 C1564 1.397 . S
C1565 C1566 1.334 . S
C1566 H1537 0.950 . S
C1566 C1565 1.334 . S
C1566 C1567 1.287 . S
C1567 C1566 1.287 . S
C1567 C1568 1.524 . S
C1567 H1570 0.999 . S
C1568 H1538 0.950 . S
C1568 C1567 1.524 . S
C1568 C1569 1.415 . S
C1569 H1539 0.950 . S
C1569 C1564 1.363 . S
C1569 C1568 1.415 . S
H1570 C1567 0.999 . S
H1571 C1552 0.913 . S
H1572 C1590 0.951 . S
H1573 C1592 0.951 . S
H1574 C1594 0.950 . S
H1575 C1595 0.950 . S
H1576 C1597 0.950 . S
H1577 C1600 0.950 . S
H1578 C1601 0.950 . S
H1579 C1603 0.950 . S
H1580 C1604 0.950 . S
H1581 C1605 0.951 . S
H1582 C1607 0.951 . S
H1583 C1609 0.950 . S
H1584 C1610 0.950 . S
H1585 C1612 0.950 . S
H1586 C1615 0.950 . S
H1587 C1616 0.950 . S
H1588 C1618 0.950 . S
H1589 C1619 0.950 . S
C1590 H1572 0.951 . S
C1590 C1591 1.366 . S
C1590 C1592 1.388 . S
C1591 C1590 1.366 . S
C1591 C1595 1.385 . S
C1592 H1573 0.951 . S
C1592 C1590 1.388 . S
C1592 C1593 1.366 . S
C1593 C1592 1.366 . S
C1593 C1594 1.414 . S
C1593 C1596 1.499 . S
C1594 H1574 0.950 . S
C1594 C1593 1.414 . S
C1594 C1595 1.374 . S
C1595 H1575 0.950 . S
C1595 C1591 1.385 . S
C1595 C1594 1.374 . S
C1596 C1593 1.499 . S
C1596 C1597 1.373 . S
C1596 C1598 1.389 . S
C1597 H1576 0.950 . S
C1597 C1596 1.373 . S
C1597 C1613 1.377 . S
C1598 C1596 1.389 . S
C1598 C1599 1.524 . S
C1598 C1612 1.377 . S
C1599 C1598 1.524 . S
C1599 C1600 1.397 . S
C1599 C1604 1.363 . S
C1600 H1577 0.950 . S
C1600 C1599 1.397 . S
C1600 C1601 1.334 . S
C1601 H1578 0.950 . S
C1601 C1600 1.334 . S
C1601 C1602 1.287 . S
C1602 C1601 1.287 . S
C1602 C1603 1.524 . S
C1602 H1621 0.913 . S
C1603 H1579 0.950 . S
C1603 C1602 1.524 . S
C1603 C1604 1.415 . S
C1604 H1580 0.950 . S
C1604 C1599 1.363 . S
C1604 C1603 1.415 . S
C1605 H1581 0.951 . S
C1605 C1606 1.366 . S
C1605 C1607 1.388 . S
C1606 C1605 1.366 . S
C1606 C1610 1.385 . S
C1607 H1582 0.951 . S
C1607 C1605 1.388 . S
C1607 C1608 1.366 . S
C1608 C1607 1.366 . S
C1608 C1609 1.414 . S
C1608 C1611 1.499 . S
C1609 H1583 0.950 . S
C1609 C1608 1.414 . S
C1609 C1610 1.374 . S
C1610 H1584 0.950 . S
C1610 C1606 1.385 . S
C1610 C1609 1.374 . S
C1611 C1608 1.499 . S
C1611 C1612 1.373 . S
C1611 C1613 1.389 . S
C1612 H1585 0.950 . S
C1612 C1598 1.377 . S
C1612 C1611 1.373 . S
C1613 C1597 1.377 . S
C1613 C1611 1.389 . S
C1613 C1614 1.524 . S
C1614 C1613 1.524 . S
C1614 C1615 1.397 . S
C1614 C1619 1.363 . S
C1615 H1586 0.950 . S
C1615 C1614 1.397 . S
C1615 C1616 1.334 . S
C1616 H1587 0.950 . S
C1616 C1615 1.334 . S
C1616 C1617 1.287 . S
C1617 C1616 1.287 . S
C1617 C1618 1.524 . S
C1617 H1620 0.999 . S
C1618 H1588 0.950 . S
C1618 C1617 1.524 . S
C1618 C1619 1.415 . S
C1619 H1589 0.950 . S
C1619 C1614 1.363 . S
C1619 C1618 1.415 . S
H1620 C1617 0.999 . S
H1621 C1602 0.913 . S
C456 C126 1.350 . S
C441 N2 1.351 . S
C506 C195 1.578 . S
C491 N15 1.598 . S
C556 C133 1.534 . S
C541 N27 1.527 . S
C606 C196 1.831 . S
C591 N44 1.845 . S
C656 C249 1.699 . S
C641 N1 1.717 . S
C706 C285 1.784 . S
C691 N18 1.771 . S
C741 N28 1.739 . S
C756 C345 1.703 . S
C806 C408 1.699 . S
C791 N41 1.700 . S
C856 C248 1.662 . S
C841 N14 1.668 . S
C891 N31 1.701 . S
C906 C292 1.704 . S
C956 C338 1.964 . S
C941 N40 1.968 . S
C1006 C407 1.759 . S
C991 N5 1.775 . S
C1041 N53 1.995 . S
C1056 C186 1.978 . S
C1106 C143 1.653 . S
C1091 N70 1.639 . S
C1141 N80 1.701 . S
C1156 C179 1.675 . S
C1191 N92 1.621 . S
C1206 C142 1.625 . S
C1256 C354 1.949 . S
C1241 N57 1.964 . S
C1306 C398 1.531 . S
C1291 N67 1.538 . S
C1356 C232 1.752 . S
C1341 N83 1.769 . S
C1391 N96 1.652 . S
C1406 C301 1.652 . S
C1456 C355 1.728 . S
C1441 N66 1.760 . S
C1506 C391 1.617 . S
C1491 N79 1.626 . S
C1556 C239 1.682 . S
C1541 N93 1.708 . S
C1591 N54 1.472 . S
C1606 C302 1.470 . S
