# Generated by pormake.
# Topology tsx, (6,3)-cn, num edge types: 1
# Building blocks:
#     Node 0, Type 0, BuildingBlock: MIDCAF_clean_sbu_0, # of connection points: 6
#     Node 1, Type 0, BuildingBlock: MIDCAF_clean_sbu_0, # of connection points: 6
#     Node 2, Type 1, BuildingBlock: VETTIZ_charged_linker_0, # of connection points: 3
#     Node 3, Type 1, BuildingBlock: VETTIZ_charged_linker_0, # of connection points: 3
#     Node 4, Type 1, BuildingBlock: VETTIZ_charged_linker_0, # of connection points: 3
#     Node 5, Type 1, BuildingBlock: VETTIZ_charged_linker_0, # of connection points: 3
#     Edge 6, Type (0, 1), BuildingBlock: XUDNAN_clean_linker_2, # of connection points: 2
#     Edge 7, Type (0, 1), BuildingBlock: XUDNAN_clean_linker_2, # of connection points: 2
#     Edge 8, Type (0, 1), BuildingBlock: XUDNAN_clean_linker_2, # of connection points: 2
#     Edge 9, Type (0, 1), BuildingBlock: XUDNAN_clean_linker_2, # of connection points: 2
#     Edge 10, Type (0, 1), BuildingBlock: XUDNAN_clean_linker_2, # of connection points: 2
#     Edge 11, Type (0, 1), BuildingBlock: XUDNAN_clean_linker_2, # of connection points: 2
#     Edge 12, Type (0, 1), BuildingBlock: XUDNAN_clean_linker_2, # of connection points: 2
#     Edge 13, Type (0, 1), BuildingBlock: XUDNAN_clean_linker_2, # of connection points: 2
#     Edge 14, Type (0, 1), BuildingBlock: XUDNAN_clean_linker_2, # of connection points: 2
#     Edge 15, Type (0, 1), BuildingBlock: XUDNAN_clean_linker_2, # of connection points: 2
#     Edge 16, Type (0, 1), BuildingBlock: XUDNAN_clean_linker_2, # of connection points: 2
#     Edge 17, Type (0, 1), BuildingBlock: XUDNAN_clean_linker_2, # of connection points: 2
# Relax obj value: 0.121
# Max RMSD: 0.183
# Mean RMSD: 0.115
data_MOF--net-tsx--node1-MIDCAF_clean_sbu_0--node2-VETTIZ_charged_linker_0--edge1-XUDNAN_clean_linker_2
_symmetry_space_group_name_H-M    P1
_symmetry_Int_Tables_number       1
_symmetry_cell_setting            triclinic
loop_
_symmetry_equiv_pos_as_xyz
'x, y, z'
_cell_length_a     23.524329
_cell_length_b     24.406419
_cell_length_c     46.830189
_cell_angle_alpha  90.545452
_cell_angle_beta   95.339923
_cell_angle_gamma 89.847809
loop_
_atom_site_label
_atom_site_type_symbol
_atom_site_fract_x
_atom_site_fract_y
_atom_site_fract_z
_atom_type_partial_charge
Zn0 Zn 0.06838 0.96069 0.97837 0.0
Zn1 Zn 0.17253 0.0189 0.05948 0.0
Zn2 Zn 0.11044 0.99778 0.01911 0.0
C3 C 0.15749 0.11685 0.02762 0.0
C4 C 0.22147 0.93252 0.02928 0.0
O5 O 0.041 0.94163 0.02869 0.0
O6 O 0.0624 0.88621 0.99407 0.0
C7 C 0.01228 0.06085 0.98812 0.0
O8 O 0.12147 0.08724 0.01175 0.0
O9 O 0.18669 0.09545 0.04867 0.0
O10 O 0.22838 0.95933 0.05259 0.0
O11 O 0.17886 0.94333 0.01132 0.0
O12 O 0.99753 0.01355 0.97875 0.0
O13 O 0.06461 0.06755 0.9987 0.0
O14 O 0.11642 0.05399 0.9818 0.0
O15 O 0.13282 0.98267 0.95528 0.0
C16 C 0.13152 0.03424 0.958 0.0
O17 O 0.05687 0.97853 0.05381 0.0
O18 O 0.11827 0.0083 0.08897 0.0
C19 C 0.03727 0.89412 0.01644 0.0
C20 C 0.06991 0.98874 0.08057 0.0
Zn21 Zn 0.54414 0.45144 0.54063 0.0
Zn22 Zn 0.41428 0.51767 0.47372 0.0
Zn23 Zn 0.49099 0.49874 0.50836 0.0
C24 C 0.5128 0.50727 0.44441 0.0
C25 C 0.43015 0.61092 0.51145 0.0
O26 O 0.48754 0.54261 0.54935 0.0
O27 O 0.48679 0.46213 0.56982 0.0
C28 C 0.57904 0.40719 0.49671 0.0
O29 O 0.53531 0.49777 0.46985 0.0
O30 O 0.45998 0.51701 0.43992 0.0
O31 O 0.39637 0.58963 0.49184 0.0
O32 O 0.4745 0.58405 0.52186 0.0
O33 O 0.5583 0.38422 0.51757 0.0
O34 O 0.56383 0.45676 0.49044 0.0
O35 O 0.53525 0.56737 0.53296 0.0
O36 O 0.60736 0.51045 0.54004 0.0
C37 C 0.58962 0.55946 0.53814 0.0
O38 O 0.43029 0.43452 0.51644 0.0
O39 O 0.36744 0.45205 0.48006 0.0
C40 C 0.47833 0.5134 0.57119 0.0
C41 C 0.38407 0.42234 0.50116 0.0
C42 C 0.18028 0.95821 0.46958 0.0
C43 C 0.2212 0.92175 0.46013 0.0
C44 C 0.22021 0.90904 0.43074 0.0
C45 C 0.13731 0.96707 0.4205 0.0
C46 C 0.13914 0.98102 0.4493 0.0
C47 C 0.09312 0.02193 0.45502 0.0
H48 H 0.87409 0.18381 0.39998 0.0
C49 C 0.08892 0.99625 0.40499 0.0
C50 C 0.06308 0.0292 0.42502 0.0
H51 H 0.94081 0.17357 0.48878 0.0
H52 H 0.00832 0.10322 0.47645 0.0
H53 H 0.99209 0.17859 0.37235 0.0
H54 H 0.86713 0.05907 0.39 0.0
H55 H 0.89434 0.03545 0.35855 0.0
H56 H 0.85844 0.10098 0.35868 0.0
H57 H 0.92317 0.1731 0.35261 0.0
H58 H 0.98376 0.13493 0.34224 0.0
C59 C 0.12237 0.0753 0.46677 0.0
C60 C 0.05351 0.9958 0.47565 0.0
C61 C 0.04034 0.96284 0.29752 0.0
C62 C 0.99858 0.98564 0.27752 0.0
C63 C 0.95951 0.02384 0.28716 0.0
C64 C 0.96239 0.03997 0.31596 0.0
C65 C 1.00494 0.01791 0.33561 0.0
C66 C 0.04284 0.97975 0.3264 0.0
C67 C 0.08574 0.96181 0.3505 0.0
C68 C 0.06659 0.995 0.37565 0.0
C69 C 0.01947 0.02771 0.36662 0.0
C70 C 0.14613 0.97866 0.34306 0.0
C71 C 0.07812 0.8995 0.35464 0.0
C72 C 0.90372 0.16693 0.41675 0.0
C73 C 0.90317 0.18489 0.44519 0.0
C74 C 0.941 0.16059 0.46661 0.0
C75 C 0.98016 0.12 0.45937 0.0
C76 C 0.98079 0.10325 0.43049 0.0
C77 C 0.94212 0.1263 0.40997 0.0
C78 C 0.94595 0.10254 0.38065 0.0
C79 C 0.99456 0.06236 0.38647 0.0
C80 C 0.01551 0.06288 0.41562 0.0
C81 C 0.96166 0.14945 0.36069 0.0
C82 C 0.88859 0.07323 0.37121 0.0
H83 H 0.17974 0.91941 0.3889 0.0
H84 H 0.18035 0.96857 0.49213 0.0
H85 H 0.04535 0.95199 0.46992 0.0
H86 H 0.01103 0.01532 0.47461 0.0
H87 H 0.07313 0.99758 0.49816 0.0
H88 H 0.15962 0.08513 0.45475 0.0
H89 H 0.13809 0.07114 0.48977 0.0
H90 H 0.09415 0.11141 0.46439 0.0
H91 H 0.07146 0.93391 0.29068 0.0
H92 H 0.92671 0.04161 0.27225 0.0
H93 H 0.93165 0.06964 0.32166 0.0
H94 H 0.14427 0.01506 0.32887 0.0
H95 H 0.16701 0.94498 0.33178 0.0
H96 H 0.17431 0.99142 0.36219 0.0
H97 H 0.03201 0.88883 0.35361 0.0
H98 H 0.09674 0.88499 0.37571 0.0
H99 H 0.0972 0.87572 0.33756 0.0
H100 H 0.25124 0.88076 0.42319 0.0
C101 C 0.17849 0.93128 0.41092 0.0
C102 C 0.08932 0.12314 0.57248 0.0
C103 C 0.12561 0.16679 0.58237 0.0
C104 C 0.12245 0.1868 0.61055 0.0
C105 C 0.05213 0.11819 0.61906 0.0
C106 C 0.05257 0.09996 0.59109 0.0
C107 C 0.00966 0.0547 0.58416 0.0
H108 H 0.81912 0.87417 0.63063 0.0
C109 C 0.0115 0.08439 0.63335 0.0
C110 C 0.98549 0.04756 0.61304 0.0
H111 H 0.86736 0.8951 0.54461 0.0
H112 H 0.92806 0.97105 0.56052 0.0
H113 H 0.94356 0.88716 0.66072 0.0
H114 H 0.81098 0.00941 0.64738 0.0
H115 H 0.84117 0.01213 0.68334 0.0
H116 H 0.80521 0.95084 0.66989 0.0
H117 H 0.8834 0.88861 0.68165 0.0
H118 H 0.94635 0.92921 0.69142 0.0
C119 C 0.04234 0.00309 0.5753 0.0
C120 C 0.96399 0.07553 0.56074 0.0
C121 C 0.00929 0.10382 0.7409 0.0
C122 C 0.98389 0.07349 0.76145 0.0
C123 C 0.94511 0.0315 0.75248 0.0
C124 C 0.93261 0.01932 0.72312 0.0
C125 C 0.96005 0.04887 0.70267 0.0
C126 C 0.99729 0.0906 0.71184 0.0
C127 C 0.02542 0.11569 0.68771 0.0
C128 C 0.99956 0.08197 0.66243 0.0
C129 C 0.96089 0.0431 0.6711 0.0
C130 C 0.09078 0.10626 0.69357 0.0
C131 C 1.00696 0.17673 0.68545 0.0
C132 C 0.84185 0.896 0.61519 0.0
C133 C 0.83833 0.87875 0.58631 0.0
C134 C 0.86954 0.90749 0.56697 0.0
C135 C 0.90487 0.95154 0.57624 0.0
C136 C 0.90968 0.96708 0.60531 0.0
C137 C 0.87793 0.94001 0.62423 0.0
C138 C 0.89012 0.96139 0.65451 0.0
C139 C 0.93302 0.00656 0.65043 0.0
C140 C 0.94481 0.00923 0.62153 0.0
C141 C 0.91691 0.91435 0.67329 0.0
C142 C 0.83401 0.9845 0.66457 0.0
H143 H 0.08674 0.17985 0.65 0.0
H144 H 0.08971 0.10694 0.5509 0.0
H145 H 0.95869 0.12077 0.56209 0.0
H146 H 0.92101 0.05897 0.56317 0.0
H147 H 0.97596 0.06552 0.53888 0.0
H148 H 0.08148 0.99681 0.59017 0.0
H149 H 0.05569 0.00726 0.55329 0.0
H150 H 0.01736 0.96508 0.5762 0.0
H151 H 0.04002 0.1356 0.74742 0.0
H152 H 0.92564 0.00736 0.76823 0.0
H153 H 0.90321 0.98655 0.7175 0.0
H154 H 0.09996 0.06552 0.70346 0.0
H155 H 0.11059 0.13786 0.70853 0.0
H156 H 0.11343 0.10556 0.674 0.0
H157 H 0.96426 0.18331 0.69334 0.0
H158 H 1.00192 0.19122 0.66302 0.0
H159 H 0.0377 0.20366 0.69835 0.0
H160 H 0.14749 0.22176 0.61857 0.0
C161 C 0.08631 0.16277 0.62882 0.0
C162 C 0.69371 0.3763 0.94316 0.0
C163 C 0.7305 0.34541 0.92715 0.0
C164 C 0.72741 0.35234 0.8972 0.0
C165 C 0.65461 0.42224 0.89987 0.0
C166 C 0.65607 0.41421 0.92913 0.0
C167 C 0.61412 0.45065 0.94281 0.0
H168 H 0.43079 0.66584 0.92893 0.0
C169 C 0.6138 0.46701 0.89211 0.0
C170 C 0.58989 0.48393 0.91721 0.0
H171 H 0.46862 0.56615 0.00393 0.0
H172 H 0.53172 0.50911 0.97805 0.0
H173 H 0.55099 0.67309 0.90981 0.0
H174 H 0.41197 0.56358 0.88622 0.0
H175 H 0.44234 0.57782 0.85436 0.0
H176 H 0.41324 0.63312 0.87426 0.0
H177 H 0.49206 0.69201 0.88476 0.0
H178 H 0.555 0.65899 0.87326 0.0
C179 C 0.64738 0.48688 0.96591 0.0
C180 C 0.56817 0.41398 0.95461 0.0
C181 C 0.57954 0.53195 0.78872 0.0
C182 C 0.54659 0.57519 0.77612 0.0
C183 C 0.51998 0.61231 0.79377 0.0
C184 C 0.52352 0.60501 0.82341 0.0
C185 C 0.55411 0.56014 0.83562 0.0
C186 C 0.58314 0.52554 0.81855 0.0
C187 C 0.61609 0.48207 0.83584 0.0
C188 C 0.59908 0.49456 0.8658 0.0
C189 C 0.56231 0.53985 0.86525 0.0
C190 C 0.6806 0.49181 0.83357 0.0
C191 C 0.59437 0.42517 0.82484 0.0
C192 C 0.45169 0.63119 0.93976 0.0
C193 C 0.44537 0.62085 0.96866 0.0
C194 C 0.47419 0.57566 0.9819 0.0
C195 C 0.51028 0.54245 0.96675 0.0
C196 C 0.51702 0.55432 0.93792 0.0
C197 C 0.48694 0.5975 0.92491 0.0
C198 C 0.49652 0.60323 0.89397 0.0
C199 C 0.53758 0.55646 0.89033 0.0
C200 C 0.55033 0.52821 0.91612 0.0
C201 C 0.52471 0.65979 0.88998 0.0
C202 C 0.43824 0.59443 0.87607 0.0
H203 H 0.69003 0.39436 0.86073 0.0
H204 H 0.69439 0.3712 0.96614 0.0
H205 H 0.56115 0.37584 0.94156 0.0
H206 H 0.52582 0.43397 0.95357 0.0
H207 H 0.58104 0.40173 0.97707 0.0
H208 H 0.68557 0.50504 0.95733 0.0
H209 H 0.66225 0.46239 0.98506 0.0
H210 H 0.622 0.52166 0.97299 0.0
H211 H 0.6012 0.50335 0.77558 0.0
H212 H 0.4943 0.64573 0.78449 0.0
H213 H 0.50099 0.63394 0.83554 0.0
H214 H 0.68983 0.53611 0.83102 0.0
H215 H 0.69545 0.4697 0.81479 0.0
H216 H 0.70746 0.47982 0.85313 0.0
H217 H 0.54707 0.42543 0.82042 0.0
H218 H 0.6039 0.39238 0.84065 0.0
H219 H 0.61279 0.41367 0.80462 0.0
H220 H 0.7554 0.3293 0.88441 0.0
C221 C 0.68981 0.39055 0.88351 0.0
C222 C 0.69796 0.62366 0.06595 0.0
C223 C 0.74167 0.65506 0.08077 0.0
C224 C 0.74546 0.65807 0.11087 0.0
C225 C 0.66196 0.60091 0.11126 0.0
C226 C 0.65809 0.59735 0.08168 0.0
C227 C 0.60676 0.56431 0.06994 0.0
H228 H 0.35378 0.45162 0.09639 0.0
C229 C 0.61288 0.57216 0.1213 0.0
C230 C 0.57921 0.55159 0.0973 0.0
H231 H 0.43401 0.44288 0.01669 0.0
H232 H 0.51319 0.49591 0.03851 0.0
H233 H 0.45985 0.40652 0.12893 0.0
H234 H 0.39818 0.57239 0.12187 0.0
H235 H 0.41874 0.5582 0.15832 0.0
H236 H 0.36287 0.51848 0.13917 0.0
H237 H 0.40687 0.43188 0.15085 0.0
H238 H 0.48224 0.4384 0.16167 0.0
C239 C 0.6281 0.51177 0.05552 0.0
C240 C 0.56821 0.60081 0.04955 0.0
C241 C 0.59938 0.55599 0.22799 0.0
C242 C 0.55759 0.53533 0.24453 0.0
C243 C 0.50532 0.51692 0.23036 0.0
C244 C 0.49584 0.51749 0.20034 0.0
C245 C 0.5389 0.53687 0.1842 0.0
C246 C 0.58895 0.55687 0.19816 0.0
C247 C 0.6285 0.57924 0.17786 0.0
C248 C 0.59598 0.56521 0.14925 0.0
C249 C 0.54357 0.5406 0.15301 0.0
C250 C 0.68587 0.54766 0.18235 0.0
C251 C 0.63337 0.64216 0.18308 0.0
C252 C 0.38815 0.45981 0.08328 0.0
C253 C 0.38658 0.44141 0.05454 0.0
C254 C 0.43258 0.45624 0.03869 0.0
C255 C 0.47936 0.48641 0.05153 0.0
C256 C 0.48127 0.50092 0.08073 0.0
C257 C 0.43639 0.48666 0.09612 0.0
C258 C 0.44899 0.49685 0.12778 0.0
C259 C 0.50801 0.52172 0.12879 0.0
C260 C 0.5263 0.52562 0.1011 0.0
C261 C 0.44924 0.44086 0.14332 0.0
C262 C 0.40481 0.53845 0.13754 0.0
H263 H 0.71195 0.6347 0.149 0.0
H264 H 0.69431 0.62062 0.04276 0.0
H265 H 0.56454 0.64266 0.05883 0.0
H266 H 0.52433 0.585 0.04614 0.0
H267 H 0.58565 0.60469 0.02841 0.0
H268 H 0.66848 0.49673 0.06712 0.0
H269 H 0.63657 0.51952 0.03297 0.0
H270 H 0.5979 0.4773 0.05599 0.0
H271 H 0.64002 0.57053 0.23791 0.0
H272 H 0.47142 0.50235 0.24245 0.0
H273 H 0.45538 0.50284 0.19083 0.0
H274 H 0.67816 0.50312 0.18504 0.0
H275 H 0.71193 0.56261 0.20185 0.0
H276 H 0.71172 0.55044 0.16392 0.0
H277 H 0.59763 0.65861 0.19463 0.0
H278 H 0.63069 0.66538 0.16277 0.0
H279 H 0.67369 0.65299 0.19614 0.0
H280 H 0.77951 0.68099 0.12269 0.0
C281 C 0.70611 0.63107 0.12614 0.0
H282 H 0.17606 0.19383 0.06808 0.0
H283 H 0.16788 0.16978 0.97616 0.0
H284 H 0.21454 0.26029 0.97153 0.0
H285 H 0.1659 0.34744 0.07051 0.0
H286 H 0.21751 0.34972 0.10146 0.0
H287 H 0.16965 0.29225 0.09593 0.0
H288 H 0.2566 0.22623 0.0991 0.0
H289 H 0.30452 0.28319 0.10425 0.0
H290 H 0.31151 0.23545 0.07517 0.0
H291 H 0.27706 0.34857 0.97919 0.0
H292 H 0.3461 0.41973 0.99726 0.0
H293 H 0.32193 0.37168 0.08451 0.0
C294 C 0.18183 0.20868 0.04681 0.0
C295 C 0.16779 0.17542 0.02245 0.0
C296 C 0.17706 0.19541 0.99501 0.0
C297 C 0.20399 0.24657 0.9923 0.0
C298 C 0.22096 0.27681 0.01723 0.0
C299 C 0.20949 0.25835 0.04393 0.0
C300 C 0.23915 0.29234 0.06791 0.0
C301 C 0.19544 0.32222 0.08495 0.0
C302 C 0.28037 0.25722 0.08773 0.0
C303 C 0.27099 0.33199 0.05079 0.0
C304 C 0.25915 0.32389 0.02163 0.0
C305 C 0.28611 0.3552 0.00204 0.0
C306 C 0.32608 0.39526 0.01263 0.0
C307 C 0.34028 0.40274 0.04262 0.0
C308 C 0.31162 0.37007 0.06157 0.0
H309 H 0.2168 0.85834 0.98413 0.0
H310 H 0.31451 0.90177 0.06448 0.0
H311 H 0.37619 0.82153 0.05972 0.0
H312 H 0.22372 0.71102 0.9935 0.0
H313 H 0.23199 0.69655 0.9563 0.0
H314 H 0.19353 0.75678 0.96612 0.0
H315 H 0.26061 0.81796 0.93925 0.0
H316 H 0.29873 0.75788 0.92907 0.0
H317 H 0.33674 0.8133 0.94797 0.0
H318 H 0.42885 0.73851 0.04631 0.0
H319 H 0.47478 0.66235 0.02229 0.0
H320 H 0.34291 0.67024 0.95124 0.0
C321 C 0.2513 0.85107 0.00064 0.0
C322 C 0.26063 0.88642 0.02468 0.0
C323 C 0.30632 0.87539 0.04583 0.0
C324 C 0.34151 0.82967 0.04346 0.0
C325 C 0.33065 0.7952 0.01982 0.0
C326 C 0.28712 0.80547 0.99861 0.0
C327 C 0.28643 0.76286 0.97484 0.0
C328 C 0.23059 0.72985 0.97257 0.0
C329 C 0.29623 0.7896 0.94609 0.0
C330 C 0.3369 0.72778 0.98588 0.0
C331 C 0.36128 0.74682 0.01203 0.0
C332 C 0.40984 0.72275 0.02596 0.0
C333 C 0.43534 0.67905 0.01232 0.0
C334 C 0.41233 0.65999 0.98505 0.0
C335 C 0.36156 0.68392 0.97209 0.0
H336 H 0.95236 0.90104 0.05339 0.0
H337 H 0.03838 0.78742 -0.00024 0.0
H338 H 0.96971 0.71551 0.00888 0.0
H339 H 0.9199 0.80026 0.10651 0.0
H340 H 0.85071 0.82871 0.11159 0.0
H341 H 0.90678 0.87254 0.10156 0.0
H342 H 0.84315 0.90588 0.05742 0.0
H343 H 0.78592 0.86288 0.06701 0.0
H344 H 0.81111 0.85657 0.03193 0.0
H345 H 0.88869 0.65748 0.02073 0.0
H346 H 0.80693 0.61272 0.04068 0.0
H347 H 0.77457 0.76193 0.08762 0.0
C348 C 0.95735 0.86074 0.04407 0.0
C349 C 1.0006 0.84998 0.02579 0.0
C350 C 1.00537 0.79681 0.01372 0.0
C351 C 0.96649 0.75561 0.01867 0.0
C352 C 0.92323 0.76794 0.03595 0.0
C353 C 0.91889 0.81877 0.04892 0.0
C354 C 0.86817 0.82081 0.06659 0.0
C355 C 0.88758 0.83114 0.09846 0.0
C356 C 0.82452 0.86411 0.05504 0.0
C357 C 0.84499 0.7633 0.06142 0.0
C358 C 0.87699 0.73374 0.04339 0.0
C359 C 0.86339 0.67998 0.03505 0.0
C360 C 0.8167 0.65508 0.0462 0.0
C361 C 0.78484 0.68392 0.06562 0.0
C362 C 0.79862 0.73898 0.07288 0.0
H363 H 0.92193 0.07386 0.94696 0.0
H364 H 0.017 0.15614 0.01871 0.0
H365 H 0.95332 0.23657 0.01193 0.0
H366 H 0.90201 0.19502 0.90359 0.0
H367 H 0.83174 0.17568 0.88823 0.0
H368 H 0.88325 0.12366 0.8995 0.0
H369 H 0.81188 0.08176 0.93215 0.0
H370 H 0.76015 0.1337 0.92105 0.0
H371 H 0.78199 0.12445 0.95862 0.0
H372 H 0.87791 0.30705 0.99815 0.0
H373 H 0.80159 0.36639 0.97551 0.0
H374 H 0.75831 0.24052 0.91114 0.0
C375 C 0.92895 0.10866 0.96137 0.0
C376 C 0.97385 0.10861 0.98362 0.0
C377 C 0.98263 0.15533 0.00163 0.0
C378 C 0.94662 0.2011 0.99799 0.0
C379 C 0.90256 0.19986 0.97595 0.0
C380 C 0.89405 0.1552 0.95768 0.0
C381 C 0.84536 0.16553 0.9348 0.0
C382 C 0.86688 0.16495 0.90476 0.0
C383 C 0.79698 0.12388 0.93679 0.0
C384 C 0.82728 0.22262 0.94333 0.0
C385 C 0.86057 0.24147 0.96725 0.0
C386 C 0.85164 0.2928 0.97936 0.0
C387 C 0.80793 0.32605 0.96649 0.0
C388 C 0.77398 0.3081 0.9416 0.0
C389 C 0.78382 0.25552 0.93003 0.0
H390 H 0.57739 0.6634 0.56213 0.0
H391 H 0.69692 0.55705 0.52294 0.0
H392 H 0.77096 0.62801 0.52999 0.0
H393 H 0.62766 0.79308 0.53474 0.0
H394 H 0.61999 0.83073 0.56746 0.0
H395 H 0.57426 0.77304 0.5578 0.0
H396 H 0.60565 0.72806 0.6066 0.0
H397 H 0.65163 0.78547 0.61638 0.0
H398 H 0.68054 0.71699 0.61686 0.0
H399 H 0.83247 0.7079 0.54113 0.0
H400 H 0.8809 0.79318 0.55792 0.0
H401 H 0.72623 0.84915 0.59294 0.0
C402 C 0.61902 0.65556 0.55482 0.0
C403 C 0.63146 0.60474 0.54191 0.0
C404 C 0.68658 0.59554 0.53298 0.0
C405 C 0.72892 0.63567 0.5368 0.0
C406 C 0.71593 0.68486 0.54993 0.0
C407 C 0.66263 0.69515 0.55902 0.0
C408 C 0.66171 0.75092 0.57382 0.0
C409 C 0.61833 0.78921 0.55748 0.0
C410 C 0.64914 0.74498 0.60529 0.0
C411 C 0.72278 0.76992 0.5716 0.0
C412 C 0.75278 0.73112 0.55741 0.0
C413 C 0.80954 0.73871 0.55226 0.0
C414 C 0.83664 0.78735 0.5618 0.0
C415 C 0.80738 0.82782 0.57662 0.0
C416 C 0.74967 0.81877 0.58176 0.0
H417 H 0.62818 0.30777 0.51027 0.0
H418 H 0.63859 0.44605 0.45332 0.0
H419 H 0.72479 0.40552 0.43523 0.0
H420 H 0.77694 0.29527 0.52965 0.0
H421 H 0.77681 0.22147 0.53078 0.0
H422 H 0.71385 0.25933 0.53808 0.0
H423 H 0.6538 0.20553 0.49797 0.0
H424 H 0.71632 0.16679 0.49092 0.0
H425 H 0.67674 0.20343 0.4623 0.0
H426 H 0.81157 0.3512 0.42452 0.0
H427 H 0.88879 0.28394 0.41942 0.0
H428 H 0.82351 0.1826 0.48448 0.0
C429 C 0.64794 0.32926 0.49366 0.0
C430 C 0.62617 0.38002 0.48304 0.0
C431 C 0.65393 0.40692 0.46157 0.0
C432 C 0.70322 0.38438 0.45131 0.0
C433 C 0.72434 0.33508 0.46287 0.0
C434 C 0.69732 0.30762 0.48339 0.0
C435 C 0.72915 0.25568 0.49264 0.0
C436 C 0.75044 0.25812 0.52469 0.0
C437 C 0.69178 0.20486 0.48552 0.0
C438 C 0.77842 0.25809 0.47407 0.0
C439 C 0.77485 0.3043 0.4571 0.0
C440 C 0.81476 0.31496 0.43771 0.0
C441 C 0.8585 0.27668 0.43503 0.0
C442 C 0.86217 0.22842 0.4517 0.0
C443 C 0.82221 0.21962 0.47186 0.0
H444 H 0.38177 0.36488 0.55185 0.0
H445 H 0.305 0.37228 0.46399 0.0
H446 H 0.23772 0.29964 0.47384 0.0
H447 H 0.36272 0.21349 0.56047 0.0
H448 H 0.34605 0.22138 0.59708 0.0
H449 H 0.39372 0.26895 0.58231 0.0
H450 H 0.32975 0.34973 0.59611 0.0
H451 H 0.28181 0.30251 0.61074 0.0
H452 H 0.25502 0.34983 0.58337 0.0
H453 H 0.1709 0.23528 0.49416 0.0
H454 H 0.10977 0.18299 0.52392 0.0
H455 H 0.23155 0.21201 0.59818 0.0
C456 C 0.35174 0.35016 0.53457 0.0
C457 C 0.34872 0.37437 0.50718 0.0
C458 C 0.30805 0.35466 0.48522 0.0
C459 C 0.26973 0.3131 0.49051 0.0
C460 C 0.2726 0.2911 0.51786 0.0
C461 C 0.31278 0.30848 0.53951 0.0
C462 C 0.3035 0.28076 0.56753 0.0
C463 C 0.35454 0.24395 0.57742 0.0
C464 C 0.29181 0.32324 0.5908 0.0
C465 C 0.25073 0.24695 0.55838 0.0
C466 C 0.23402 0.25304 0.52958 0.0
C467 C 0.18412 0.22925 0.51666 0.0
C468 C 0.14971 0.19925 0.53378 0.0
C469 C 0.16533 0.1932 0.56356 0.0
C470 C 0.21754 0.2163 0.57564 0.0
H471 H 0.32864 0.64709 0.52562 0.0
H472 H 0.50005 0.70085 0.51449 0.0
H473 H 0.46576 0.79685 0.51078 0.0
H474 H 0.2629 0.71807 0.47484 0.0
H475 H 0.19932 0.736 0.49156 0.0
H476 H 0.23918 0.67622 0.50296 0.0
H477 H 0.25032 0.71244 0.5553 0.0
H478 H 0.20921 0.77231 0.54422 0.0
H479 H 0.27922 0.77987 0.56301 0.0
H480 H 0.40829 0.87929 0.49352 0.0
H481 H 0.33557 0.94108 0.46936 0.0
H482 H 0.20143 0.83495 0.49323 0.0
C483 C 0.3594 0.67966 0.52416 0.0
C484 C 0.41693 0.66705 0.5207 0.0
C485 C 0.45606 0.71 0.51785 0.0
C486 C 0.4367 0.76459 0.51553 0.0
C487 C 0.37846 0.7753 0.51677 0.0
C488 C 0.34066 0.73399 0.52193 0.0
C489 C 0.27932 0.75383 0.51805 0.0
C490 C 0.24316 0.71899 0.49551 0.0
C491 C 0.25297 0.75468 0.54687 0.0
C492 C 0.28786 0.81137 0.50755 0.0
C493 C 0.34536 0.8236 0.50752 0.0
C494 C 0.36336 0.87107 0.49459 0.0
C495 C 0.32188 0.90597 0.48091 0.0
C496 C 0.26315 0.89339 0.48038 0.0
C497 C 0.24604 0.84643 0.49454 0.0
H498 H 0.0231 0.05997 0.11555 0.0
H499 H 0.04072 0.88707 0.09748 0.0
H500 H 0.01179 0.86531 0.14563 0.0
H501 H 0.08646 0.05891 0.18134 0.0
H502 H 0.04214 0.10844 0.19756 0.0
H503 H 0.04848 0.11035 0.15968 0.0
H504 H 0.93885 0.10248 0.14883 0.0
H505 H 0.93169 0.10228 0.18683 0.0
H506 H 0.90122 0.04754 0.1643 0.0
H507 H 1.00408 0.86463 0.19936 0.0
H508 H 1.00466 0.8844 0.25146 0.0
H509 H 0.99115 0.05804 0.23352 0.0
C510 C 0.01728 0.01752 0.12117 0.0
C511 C 0.0323 0.97507 0.10273 0.0
C512 C 0.02732 0.91994 0.11107 0.0
C513 C 0.01157 0.90735 0.13849 0.0
C514 C 1.00031 0.95048 0.15699 0.0
C515 C 1.00138 0.00451 0.14831 0.0
C516 C 0.99441 0.0437 0.17297 0.0
C517 C 0.04594 0.08258 0.17817 0.0
C518 C 0.93818 0.07589 0.16793 0.0
C519 C 0.99233 0.00361 0.19724 0.0
C520 C 0.99532 0.94999 0.18771 0.0
C521 C 1.00004 0.90638 0.2069 0.0
C522 C 1.00097 0.91795 0.23643 0.0
C523 C 0.99713 0.97265 0.24643 0.0
C524 C 0.99254 0.01572 0.22644 0.0
H525 H 0.1677 0.00544 0.90667 0.0
H526 H 0.07378 0.13169 0.94812 0.0
H527 H 0.03031 0.1616 0.90079 0.0
H528 H 0.18512 0.08088 0.83753 0.0
H529 H 0.17459 0.01798 0.81727 0.0
H530 H 0.20861 0.0167 0.85337 0.0
H531 H 0.13372 0.94596 0.86657 0.0
H532 H 0.09812 0.94837 0.83096 0.0
H533 H 0.05888 0.96313 0.86142 0.0
H534 H 0.98349 0.16573 0.84946 0.0
H535 H 0.9458 0.14943 0.79867 0.0
H536 H 0.06722 0.01742 0.79223 0.0
C537 C 0.14026 0.04122 0.90573 0.0
C538 C 0.12422 0.06615 0.93114 0.0
C539 C 0.08725 0.11218 0.92902 0.0
C540 C 0.06194 0.12921 0.90215 0.0
C541 C 0.0749 0.10039 0.87766 0.0
C542 C 0.11435 0.05814 0.87923 0.0
C543 C 0.11608 0.0292 0.85058 0.0
C544 C 0.17457 0.03667 0.839 0.0
C545 C 0.10078 0.96809 0.85253 0.0
C546 C 0.06999 0.06025 0.83283 0.0
C547 C 0.04709 0.10168 0.8486 0.0
C548 C 1.00181 0.13397 0.83687 0.0
C549 C 0.98029 0.12418 0.80822 0.0
C550 C 1.00344 0.08188 0.792 0.0
C551 C 0.04874 0.04973 0.80445 0.0
H552 H 0.45794 0.46069 0.61989 0.0
H553 H 0.49038 0.62205 0.58688 0.0
H554 H 0.50576 0.65804 0.63658 0.0
H555 H 0.39049 0.50541 0.68522 0.0
H556 H 0.42491 0.45064 0.70585 0.0
H557 H 0.40554 0.44132 0.66798 0.0
H558 H 0.51033 0.41504 0.66131 0.0
H559 H 0.53051 0.42578 0.69891 0.0
H560 H 0.56678 0.46242 0.67275 0.0
H561 H 0.52971 0.6728 0.69022 0.0
H562 H 0.55471 0.6661 0.74271 0.0
H563 H 0.51145 0.49348 0.73898 0.0
C564 C 0.46637 0.50405 0.62301 0.0
C565 C 0.4729 0.5386 0.59956 0.0
C566 C 0.48466 0.59495 0.60456 0.0
C567 C 0.49373 0.61566 0.63272 0.0
C568 C 0.49039 0.57948 0.65542 0.0
C569 C 0.47615 0.525 0.65077 0.0
C570 C 0.48066 0.49308 0.67837 0.0
C571 C 0.4219 0.47135 0.68473 0.0
C572 C 0.52469 0.44635 0.67777 0.0
C573 C 0.50131 0.53762 0.69931 0.0
C574 C 0.50597 0.58739 0.68585 0.0
C575 C 0.52563 0.63415 0.70097 0.0
C576 C 0.53998 0.62994 0.73066 0.0
C577 C 0.53544 0.57915 0.74466 0.0
C578 C 0.51609 0.53258 0.72869 0.0
H579 H 0.49744 0.43886 0.39916 0.0
H580 H 0.59904 0.57574 0.43368 0.0
H581 H 0.63345 0.59081 0.38593 0.0
H582 H 0.60036 0.39326 0.34397 0.0
H583 H 0.54062 0.37468 0.31886 0.0
H584 H 0.53597 0.36706 0.35683 0.0
H585 H 0.44422 0.42641 0.35269 0.0
H586 H 0.44931 0.43579 0.31505 0.0
H587 H 0.44664 0.49466 0.33842 0.0
H588 H 0.6358 0.60463 0.33322 0.0
H589 H 0.61832 0.60853 0.28068 0.0
H590 H 0.52095 0.45749 0.2807 0.0
C591 C 0.52925 0.47012 0.39683 0.0
C592 C 0.54649 0.50579 0.41976 0.0
C593 C 0.58661 0.54748 0.41625 0.0
C594 C 0.60603 0.55636 0.38924 0.0
C595 C 0.58569 0.52227 0.36645 0.0
C596 C 0.54958 0.4788 0.37021 0.0
C597 C 0.52913 0.45175 0.34192 0.0
C598 C 0.55297 0.39322 0.3403 0.0
C599 C 0.46347 0.45224 0.33674 0.0
C600 C 0.55585 0.48921 0.32147 0.0
C601 C 0.58882 0.52924 0.33598 0.0
C602 C 0.61203 0.57224 0.3216 0.0
C603 C 0.60179 0.57404 0.29166 0.0
C604 C 0.56879 0.53289 0.27629 0.0
C605 C 0.54623 0.48971 0.2916 0.0
loop_
_geom_bond_atom_site_label_1
_geom_bond_atom_site_label_2
_geom_bond_distance
_geom_bond_site_symmetry_2
_ccdc_geom_bond_type
Zn0 O6 1.910 1_546 S
Zn0 O12 1.898 . S
Zn0 O15 1.905 1_545 S
Zn1 O9 1.905 . S
Zn1 O10 1.898 1_545 S
Zn1 O18 1.920 1_545 S
Zn2 O5 2.080 1_445 S
Zn2 O8 2.114 . S
Zn2 O11 2.120 1_545 S
Zn2 O13 2.120 1_455 S
Zn2 O14 2.114 1_554 S
Zn2 O17 2.080 . S
C3 O8 1.166 . S
C3 O9 1.182 . S
C4 O10 1.167 . S
C4 O11 1.299 . S
O5 Zn2 2.080 1_665 S
O5 C19 1.305 . S
O6 Zn0 1.910 1_564 S
O6 C19 1.242 . S
C7 O12 1.180 . S
C7 O13 1.287 1_556 S
O8 Zn2 2.114 . S
O8 C3 1.166 . S
O9 Zn1 1.905 . S
O9 C3 1.182 . S
O10 Zn1 1.898 1_565 S
O10 C4 1.167 . S
O11 Zn2 2.120 1_565 S
O11 C4 1.299 . S
O12 Zn0 1.898 . S
O12 C7 1.180 . S
O13 Zn2 2.120 1_655 S
O13 C7 1.287 1_554 S
O14 Zn2 2.114 1_556 S
O14 C16 1.166 1_545 S
O15 Zn0 1.905 1_565 S
O15 C16 1.182 1_655 S
C16 O14 1.166 1_565 S
C16 O15 1.182 1_455 S
O17 Zn2 2.080 . S
O17 C20 1.305 1_545 S
O18 Zn1 1.920 1_565 S
O18 C20 1.234 . S
C19 O5 1.305 . S
C19 O6 1.242 . S
C20 O17 1.305 1_565 S
C20 O18 1.234 . S
Zn21 O27 1.920 . S
Zn21 O33 1.898 . S
Zn21 O36 1.905 . S
Zn22 O30 1.905 . S
Zn22 O31 1.898 . S
Zn22 O39 1.920 . S
Zn23 O26 2.080 . S
Zn23 O29 2.114 . S
Zn23 O32 2.120 . S
Zn23 O34 2.120 . S
Zn23 O35 2.114 . S
Zn23 O38 2.080 . S
C24 O29 1.166 . S
C24 O30 1.182 . S
C25 O31 1.167 . S
C25 O32 1.299 . S
O26 Zn23 2.080 . S
O26 C40 1.305 . S
O27 Zn21 1.920 . S
O27 C40 1.234 . S
C28 O33 1.167 . S
C28 O34 1.299 . S
O29 Zn23 2.114 . S
O29 C24 1.166 . S
O30 Zn22 1.905 . S
O30 C24 1.182 . S
O31 Zn22 1.898 . S
O31 C25 1.167 . S
O32 Zn23 2.120 . S
O32 C25 1.299 . S
O33 Zn21 1.898 . S
O33 C28 1.167 . S
O34 Zn23 2.120 . S
O34 C28 1.299 . S
O35 Zn23 2.114 . S
O35 C37 1.166 . S
O36 Zn21 1.905 . S
O36 C37 1.182 . S
C37 O35 1.166 . S
C37 O36 1.182 . S
O38 Zn23 2.080 . S
O38 C41 1.305 . S
O39 Zn22 1.920 . S
O39 C41 1.234 . S
C40 O26 1.305 . S
C40 O27 1.234 . S
C41 O38 1.305 . S
C41 O39 1.234 . S
C42 C43 1.391 . S
C42 C46 1.391 . S
C42 H84 0.948 . S
C43 C42 1.391 . S
C43 C44 1.391 . S
C44 C43 1.391 . S
C44 H100 0.947 . S
C44 C101 1.392 . S
C45 C46 1.391 . S
C45 C49 1.397 . S
C45 C101 1.419 . S
C46 C42 1.391 . S
C46 C45 1.391 . S
C46 C47 1.399 . S
C47 C46 1.399 . S
C47 C50 1.396 1_565 S
C47 C59 1.453 1_565 S
C47 C60 1.684 . S
H48 C72 0.948 . S
C49 C45 1.397 . S
C49 C50 1.394 1_565 S
C49 C68 1.723 1_565 S
C50 C47 1.396 1_545 S
C50 C49 1.394 1_545 S
C50 C80 1.723 . S
H51 C74 0.947 . S
H52 C75 0.950 . S
H53 C81 0.982 1_455 S
H54 C82 0.979 . S
H55 C82 0.980 . S
H56 C82 0.983 . S
H57 C81 0.979 . S
H58 C81 0.977 1_455 S
C59 C47 1.453 1_545 S
C59 H88 0.982 . S
C59 H89 0.979 . S
C59 H90 0.977 . S
C60 C47 1.684 . S
C60 H85 0.979 . S
C60 H86 0.980 1_565 S
C60 H87 0.983 . S
C61 C62 1.391 . S
C61 C66 1.391 . S
C61 H91 0.948 1_545 S
C62 C61 1.391 . S
C62 C63 1.391 . S
C63 C62 1.391 . S
C63 C64 1.392 . S
C63 H92 0.937 1_455 S
C64 C63 1.392 . S
C64 C65 1.419 . S
C64 H93 0.948 1_455 S
C65 C64 1.419 . S
C65 C66 1.391 . S
C65 C69 1.397 . S
C66 C61 1.391 . S
C66 C65 1.391 . S
C66 C67 1.399 1_545 S
C67 C66 1.399 1_565 S
C67 C68 1.396 1_565 S
C67 C70 1.453 . S
C67 C71 1.684 . S
C68 C49 1.723 1_545 S
C68 C67 1.396 1_545 S
C68 C69 1.394 . S
C69 C65 1.397 . S
C69 C68 1.394 . S
C69 C79 1.723 . S
C70 C67 1.453 . S
C70 H94 0.982 1_565 S
C70 H95 0.979 . S
C70 H96 0.977 . S
C71 C67 1.684 . S
C71 H97 0.979 . S
C71 H98 0.980 . S
C71 H99 0.983 . S
C72 H48 0.948 . S
C72 C73 1.391 . S
C72 C77 1.391 . S
C73 C72 1.391 . S
C73 C74 1.391 . S
C74 H51 0.947 . S
C74 C73 1.391 . S
C74 C75 1.389 1_655 S
C75 H52 0.950 . S
C75 C74 1.389 1_455 S
C75 C76 1.419 . S
C76 C75 1.419 . S
C76 C77 1.391 1_455 S
C76 C80 1.397 . S
C77 C72 1.391 . S
C77 C76 1.391 1_655 S
C77 C78 1.399 . S
C78 C77 1.399 . S
C78 C79 1.396 1_655 S
C78 C81 1.453 . S
C78 C82 1.684 . S
C79 C69 1.723 . S
C79 C78 1.396 1_455 S
C79 C80 1.394 . S
C80 C50 1.723 . S
C80 C76 1.397 . S
C80 C79 1.394 . S
C81 H53 0.982 1_655 S
C81 H57 0.979 . S
C81 H58 0.977 1_655 S
C81 C78 1.453 . S
C82 H54 0.979 . S
C82 H55 0.980 . S
C82 H56 0.983 . S
C82 C78 1.684 . S
H83 C101 0.948 . S
H84 C42 0.948 . S
H85 C60 0.979 . S
H86 C60 0.980 1_545 S
H87 C60 0.983 . S
H88 C59 0.982 . S
H89 C59 0.979 . S
H90 C59 0.977 . S
H91 C61 0.948 1_565 S
H92 C63 0.937 1_655 S
H93 C64 0.948 1_655 S
H94 C70 0.982 1_545 S
H95 C70 0.979 . S
H96 C70 0.977 . S
H97 C71 0.979 . S
H98 C71 0.980 . S
H99 C71 0.983 . S
H100 C44 0.947 . S
C101 C44 1.392 . S
C101 C45 1.419 . S
C101 H83 0.948 . S
C102 C103 1.391 . S
C102 C106 1.391 . S
C102 H144 0.948 . S
C103 C102 1.391 . S
C103 C104 1.391 . S
C104 C103 1.391 . S
C104 H160 0.947 . S
C104 C161 1.392 . S
C105 C106 1.391 . S
C105 C109 1.397 . S
C105 C161 1.419 . S
C106 C102 1.391 . S
C106 C105 1.391 . S
C106 C107 1.399 . S
C107 C106 1.399 . S
C107 C110 1.396 . S
C107 C119 1.453 . S
C107 C120 1.684 1_455 S
H108 C132 0.948 . S
C109 C105 1.397 . S
C109 C110 1.394 . S
C109 C128 1.723 . S
C110 C107 1.396 . S
C110 C109 1.394 . S
C110 C140 1.723 1_445 S
H111 C134 0.947 . S
H112 C135 0.948 . S
H113 C141 0.982 . S
H114 C142 0.979 . S
H115 C142 0.980 . S
H116 C142 0.983 . S
H117 C141 0.979 . S
H118 C141 0.977 . S
C119 C107 1.453 . S
C119 H148 0.982 . S
C119 H149 0.979 . S
C119 H150 0.977 1_545 S
C120 C107 1.684 1_655 S
C120 H145 0.979 . S
C120 H146 0.980 . S
C120 H147 0.983 1_655 S
C121 C122 1.391 1_455 S
C121 C126 1.391 . S
C121 H151 0.948 . S
C122 C121 1.391 1_655 S
C122 C123 1.391 1_545 S
C123 C122 1.391 1_565 S
C123 C124 1.392 . S
C123 H152 0.947 . S
C124 C123 1.392 . S
C124 C125 1.419 1_565 S
C124 H153 0.948 . S
C125 C124 1.419 1_545 S
C125 C126 1.391 1_655 S
C125 C129 1.397 . S
C126 C121 1.391 . S
C126 C125 1.391 1_455 S
C126 C127 1.399 . S
C127 C126 1.399 . S
C127 C128 1.396 . S
C127 C130 1.453 . S
C127 C131 1.684 . S
C128 C109 1.723 . S
C128 C127 1.396 . S
C128 C129 1.394 1_455 S
C129 C125 1.397 . S
C129 C128 1.394 1_655 S
C129 C139 1.723 1_545 S
C130 C127 1.453 . S
C130 H154 0.982 . S
C130 H155 0.979 . S
C130 H156 0.977 . S
C131 C127 1.684 . S
C131 H157 0.979 . S
C131 H158 0.980 . S
C131 H159 0.983 . S
C132 H108 0.948 . S
C132 C133 1.391 . S
C132 C137 1.391 . S
C133 C132 1.391 . S
C133 C134 1.391 . S
C134 H111 0.947 . S
C134 C133 1.391 . S
C134 C135 1.392 . S
C135 H112 0.948 . S
C135 C134 1.392 . S
C135 C136 1.419 . S
C136 C135 1.419 . S
C136 C137 1.391 . S
C136 C140 1.397 . S
C137 C132 1.391 . S
C137 C136 1.391 . S
C137 C138 1.399 . S
C138 C137 1.399 . S
C138 C139 1.396 . S
C138 C141 1.453 . S
C138 C142 1.684 . S
C139 C129 1.723 1_565 S
C139 C138 1.396 . S
C139 C140 1.394 . S
C140 C110 1.723 1_665 S
C140 C136 1.397 . S
C140 C139 1.394 . S
C141 H113 0.982 . S
C141 H117 0.979 . S
C141 H118 0.977 . S
C141 C138 1.453 . S
C142 H114 0.979 . S
C142 H115 0.980 . S
C142 H116 0.983 . S
C142 C138 1.684 . S
H143 C161 0.948 . S
H144 C102 0.948 . S
H145 C120 0.979 . S
H146 C120 0.980 . S
H147 C120 0.983 1_455 S
H148 C119 0.982 . S
H149 C119 0.979 . S
H150 C119 0.977 1_565 S
H151 C121 0.948 . S
H152 C123 0.947 . S
H153 C124 0.948 . S
H154 C130 0.982 . S
H155 C130 0.979 . S
H156 C130 0.977 . S
H157 C131 0.979 . S
H158 C131 0.980 . S
H159 C131 0.983 . S
H160 C104 0.947 . S
C161 C104 1.392 . S
C161 C105 1.419 . S
C161 H143 0.948 . S
C162 C163 1.391 . S
C162 C166 1.391 . S
C162 H204 0.948 . S
C163 C162 1.391 . S
C163 C164 1.391 . S
C164 C163 1.391 . S
C164 H220 0.947 . S
C164 C221 1.392 . S
C165 C166 1.391 . S
C165 C169 1.397 . S
C165 C221 1.419 . S
C166 C162 1.391 . S
C166 C165 1.391 . S
C166 C167 1.399 . S
C167 C166 1.399 . S
C167 C170 1.396 . S
C167 C179 1.453 . S
C167 C180 1.684 . S
H168 C192 0.948 . S
C169 C165 1.397 . S
C169 C170 1.394 . S
C169 C188 1.723 . S
C170 C167 1.396 . S
C170 C169 1.394 . S
C170 C200 1.723 . S
H171 C194 0.947 1_554 S
H172 C195 0.948 . S
H173 C201 0.982 . S
H174 C202 0.979 . S
H175 C202 0.980 . S
H176 C202 0.983 . S
H177 C201 0.979 . S
H178 C201 0.977 . S
C179 C167 1.453 . S
C179 H208 0.982 . S
C179 H209 0.967 1_556 S
C179 H210 0.977 . S
C180 C167 1.684 . S
C180 H205 0.979 . S
C180 H206 0.980 . S
C180 H207 0.983 1_556 S
C181 C182 1.391 . S
C181 C186 1.391 . S
C181 H211 0.948 . S
C182 C181 1.391 . S
C182 C183 1.391 . S
C183 C182 1.391 . S
C183 C184 1.392 . S
C183 H212 0.947 . S
C184 C183 1.392 . S
C184 C185 1.419 . S
C184 H213 0.948 . S
C185 C184 1.419 . S
C185 C186 1.391 . S
C185 C189 1.397 . S
C186 C181 1.391 . S
C186 C185 1.391 . S
C186 C187 1.399 . S
C187 C186 1.399 . S
C187 C188 1.396 . S
C187 C190 1.453 . S
C187 C191 1.684 . S
C188 C169 1.723 . S
C188 C187 1.396 . S
C188 C189 1.394 . S
C189 C185 1.397 . S
C189 C188 1.394 . S
C189 C199 1.723 . S
C190 C187 1.453 . S
C190 H214 0.982 . S
C190 H215 0.979 . S
C190 H216 0.977 . S
C191 C187 1.684 . S
C191 H217 0.979 . S
C191 H218 0.980 . S
C191 H219 0.983 . S
C192 H168 0.948 . S
C192 C193 1.391 . S
C192 C197 1.391 . S
C193 C192 1.391 . S
C193 C194 1.391 . S
C194 H171 0.947 1_556 S
C194 C193 1.391 . S
C194 C195 1.392 . S
C195 H172 0.948 . S
C195 C194 1.392 . S
C195 C196 1.419 . S
C196 C195 1.419 . S
C196 C197 1.391 . S
C196 C200 1.397 . S
C197 C192 1.391 . S
C197 C196 1.391 . S
C197 C198 1.399 . S
C198 C197 1.399 . S
C198 C199 1.396 . S
C198 C201 1.453 . S
C198 C202 1.684 . S
C199 C189 1.723 . S
C199 C198 1.396 . S
C199 C200 1.394 . S
C200 C170 1.723 . S
C200 C196 1.397 . S
C200 C199 1.394 . S
C201 H173 0.982 . S
C201 H177 0.979 . S
C201 H178 0.977 . S
C201 C198 1.453 . S
C202 H174 0.979 . S
C202 H175 0.980 . S
C202 H176 0.983 . S
C202 C198 1.684 . S
H203 C221 0.948 . S
H204 C162 0.948 . S
H205 C180 0.979 . S
H206 C180 0.980 . S
H207 C180 0.983 1_554 S
H208 C179 0.982 . S
H209 C179 0.967 1_554 S
H210 C179 0.977 . S
H211 C181 0.948 . S
H212 C183 0.947 . S
H213 C184 0.948 . S
H214 C190 0.982 . S
H215 C190 0.979 . S
H216 C190 0.977 . S
H217 C191 0.979 . S
H218 C191 0.980 . S
H219 C191 0.983 . S
H220 C164 0.947 . S
C221 C164 1.392 . S
C221 C165 1.419 . S
C221 H203 0.948 . S
C222 C223 1.391 . S
C222 C226 1.391 . S
C222 H264 0.948 . S
C223 C222 1.391 . S
C223 C224 1.391 . S
C224 C223 1.391 . S
C224 H280 0.947 . S
C224 C281 1.392 . S
C225 C226 1.391 . S
C225 C229 1.397 . S
C225 C281 1.419 . S
C226 C222 1.391 . S
C226 C225 1.391 . S
C226 C227 1.399 . S
C227 C226 1.399 . S
C227 C230 1.396 . S
C227 C239 1.453 . S
C227 C240 1.684 . S
H228 C252 0.948 . S
C229 C225 1.397 . S
C229 C230 1.394 . S
C229 C248 1.723 . S
C230 C227 1.396 . S
C230 C229 1.394 . S
C230 C260 1.723 . S
H231 C254 0.947 . S
H232 C255 0.948 . S
H233 C261 0.982 . S
H234 C262 0.979 . S
H235 C262 0.980 . S
H236 C262 0.983 . S
H237 C261 0.979 . S
H238 C261 0.977 . S
C239 C227 1.453 . S
C239 H268 0.982 . S
C239 H269 0.979 . S
C239 H270 0.977 . S
C240 C227 1.684 . S
C240 H265 0.979 . S
C240 H266 0.980 . S
C240 H267 0.983 . S
C241 C242 1.391 . S
C241 C246 1.391 . S
C241 H271 0.948 . S
C242 C241 1.391 . S
C242 C243 1.391 . S
C243 C242 1.391 . S
C243 C244 1.392 . S
C243 H272 0.947 . S
C244 C243 1.392 . S
C244 C245 1.419 . S
C244 H273 0.948 . S
C245 C244 1.419 . S
C245 C246 1.391 . S
C245 C249 1.397 . S
C246 C241 1.391 . S
C246 C245 1.391 . S
C246 C247 1.399 . S
C247 C246 1.399 . S
C247 C248 1.396 . S
C247 C250 1.453 . S
C247 C251 1.684 . S
C248 C229 1.723 . S
C248 C247 1.396 . S
C248 C249 1.394 . S
C249 C245 1.397 . S
C249 C248 1.394 . S
C249 C259 1.723 . S
C250 C247 1.453 . S
C250 H274 0.982 . S
C250 H275 0.979 . S
C250 H276 0.977 . S
C251 C247 1.684 . S
C251 H277 0.979 . S
C251 H278 0.980 . S
C251 H279 0.983 . S
C252 H228 0.948 . S
C252 C253 1.391 . S
C252 C257 1.391 . S
C253 C252 1.391 . S
C253 C254 1.391 . S
C254 H231 0.947 . S
C254 C253 1.391 . S
C254 C255 1.392 . S
C255 H232 0.948 . S
C255 C254 1.392 . S
C255 C256 1.419 . S
C256 C255 1.419 . S
C256 C257 1.391 . S
C256 C260 1.397 . S
C257 C252 1.391 . S
C257 C256 1.391 . S
C257 C258 1.399 . S
C258 C257 1.399 . S
C258 C259 1.396 . S
C258 C261 1.453 . S
C258 C262 1.684 . S
C259 C249 1.723 . S
C259 C258 1.396 . S
C259 C260 1.394 . S
C260 C230 1.723 . S
C260 C256 1.397 . S
C260 C259 1.394 . S
C261 H233 0.982 . S
C261 H237 0.979 . S
C261 H238 0.977 . S
C261 C258 1.453 . S
C262 H234 0.979 . S
C262 H235 0.980 . S
C262 H236 0.983 . S
C262 C258 1.684 . S
H263 C281 0.948 . S
H264 C222 0.948 . S
H265 C240 0.979 . S
H266 C240 0.980 . S
H267 C240 0.983 . S
H268 C239 0.982 . S
H269 C239 0.979 . S
H270 C239 0.977 . S
H271 C241 0.948 . S
H272 C243 0.947 . S
H273 C244 0.948 . S
H274 C250 0.982 . S
H275 C250 0.979 . S
H276 C250 0.977 . S
H277 C251 0.979 . S
H278 C251 0.980 . S
H279 C251 0.983 . S
H280 C224 0.947 . S
C281 C224 1.392 . S
C281 C225 1.419 . S
C281 H263 0.948 . S
H282 C294 0.930 . S
H283 C296 0.930 . S
H284 C297 0.930 . S
H285 C301 0.959 . S
H286 C301 0.959 . S
H287 C301 0.961 . S
H288 C302 0.960 . S
H289 C302 0.961 . S
H290 C302 0.959 . S
H291 C305 0.929 1_556 S
H292 C306 0.931 . S
H293 C308 0.930 . S
C294 H282 0.930 . S
C294 C295 1.399 . S
C294 C299 1.399 . S
C295 C294 1.399 . S
C295 C296 1.376 1_554 S
C296 H283 0.930 . S
C296 C295 1.376 1_556 S
C296 C297 1.388 . S
C297 H284 0.930 . S
C297 C296 1.388 . S
C297 C298 1.390 1_556 S
C298 C297 1.390 1_554 S
C298 C299 1.394 . S
C298 C304 1.465 . S
C299 C294 1.399 . S
C299 C298 1.394 . S
C299 C300 1.516 . S
C300 C299 1.516 . S
C300 C301 1.502 . S
C300 C302 1.561 . S
C300 C303 1.526 . S
C301 H285 0.959 . S
C301 H286 0.959 . S
C301 H287 0.961 . S
C301 C300 1.502 . S
C302 H288 0.960 . S
C302 H289 0.961 . S
C302 H290 0.959 . S
C302 C300 1.561 . S
C303 C300 1.526 . S
C303 C304 1.396 . S
C303 C308 1.390 . S
C304 C298 1.465 . S
C304 C303 1.396 . S
C304 C305 1.399 . S
C305 H291 0.929 1_554 S
C305 C304 1.399 . S
C305 C306 1.385 . S
C306 H292 0.931 . S
C306 C305 1.385 . S
C306 C307 1.389 . S
C307 C306 1.389 . S
C307 C308 1.387 . S
C308 H293 0.930 . S
C308 C303 1.390 . S
C308 C307 1.387 . S
H309 C321 0.930 . S
H310 C323 0.930 . S
H311 C324 0.930 . S
H312 C328 0.959 . S
H313 C328 0.959 . S
H314 C328 0.961 . S
H315 C329 0.960 . S
H316 C329 0.961 . S
H317 C329 0.959 . S
H318 C332 0.929 . S
H319 C333 0.931 . S
H320 C335 0.930 . S
C321 H309 0.930 . S
C321 C322 1.399 1_556 S
C321 C326 1.399 . S
C322 C321 1.399 1_554 S
C322 C323 1.376 . S
C323 H310 0.930 . S
C323 C322 1.376 . S
C323 C324 1.388 . S
C324 H311 0.930 . S
C324 C323 1.388 . S
C324 C325 1.390 . S
C325 C324 1.390 . S
C325 C326 1.394 1_554 S
C325 C331 1.465 1_554 S
C326 C321 1.399 . S
C326 C325 1.394 1_556 S
C326 C327 1.516 . S
C327 C326 1.516 . S
C327 C328 1.502 . S
C327 C329 1.561 . S
C327 C330 1.526 . S
C328 H312 0.959 . S
C328 H313 0.959 . S
C328 H314 0.961 . S
C328 C327 1.502 . S
C329 H315 0.960 . S
C329 H316 0.961 . S
C329 H317 0.959 . S
C329 C327 1.561 . S
C330 C327 1.526 . S
C330 C331 1.396 . S
C330 C335 1.390 . S
C331 C325 1.465 1_556 S
C331 C330 1.396 . S
C331 C332 1.399 1_556 S
C332 H318 0.929 . S
C332 C331 1.399 1_554 S
C332 C333 1.385 . S
C333 H319 0.931 . S
C333 C332 1.385 . S
C333 C334 1.389 1_554 S
C334 C333 1.389 1_556 S
C334 C335 1.387 . S
C335 H320 0.930 . S
C335 C330 1.390 . S
C335 C334 1.387 . S
H336 C348 0.930 1_556 S
H337 C350 0.930 . S
H338 C351 0.930 . S
H339 C355 0.959 1_554 S
H340 C355 0.959 . S
H341 C355 0.961 . S
H342 C356 0.960 . S
H343 C356 0.961 . S
H344 C356 0.959 1_554 S
H345 C359 0.929 . S
H346 C360 0.931 . S
H347 C362 0.930 . S
C348 H336 0.930 1_554 S
C348 C349 1.399 . S
C348 C353 1.399 . S
C349 C348 1.399 . S
C349 C350 1.376 . S
C350 H337 0.930 . S
C350 C349 1.376 . S
C350 C351 1.388 . S
C351 H338 0.930 . S
C351 C350 1.388 . S
C351 C352 1.390 . S
C352 C351 1.390 . S
C352 C353 1.394 . S
C352 C358 1.465 . S
C353 C348 1.399 . S
C353 C352 1.394 . S
C353 C354 1.516 . S
C354 C353 1.516 . S
C354 C355 1.502 1_554 S
C354 C356 1.561 1_554 S
C354 C357 1.526 . S
C355 H339 0.959 1_556 S
C355 H340 0.959 . S
C355 H341 0.961 . S
C355 C354 1.502 1_556 S
C356 H342 0.960 . S
C356 H343 0.961 . S
C356 H344 0.959 1_556 S
C356 C354 1.561 1_556 S
C357 C354 1.526 . S
C357 C358 1.396 . S
C357 C362 1.390 . S
C358 C352 1.465 . S
C358 C357 1.396 . S
C358 C359 1.399 . S
C359 H345 0.929 . S
C359 C358 1.399 . S
C359 C360 1.385 . S
C360 H346 0.931 . S
C360 C359 1.385 . S
C360 C361 1.389 . S
C361 C360 1.389 . S
C361 C362 1.387 . S
C362 H347 0.930 . S
C362 C357 1.390 . S
C362 C361 1.387 . S
H363 C375 0.930 . S
H364 C377 0.930 . S
H365 C378 0.930 . S
H366 C382 0.959 . S
H367 C382 0.959 . S
H368 C382 0.961 . S
H369 C383 0.960 . S
H370 C383 0.961 . S
H371 C383 0.959 . S
H372 C386 0.929 . S
H373 C387 0.931 . S
H374 C389 0.930 1_554 S
C375 H363 0.930 . S
C375 C376 1.406 . S
C375 C380 1.399 . S
C376 C375 1.406 . S
C376 C377 1.367 1_554 S
C377 H364 0.930 . S
C377 C376 1.367 1_556 S
C377 C378 1.388 . S
C378 H365 0.930 . S
C378 C377 1.388 . S
C378 C379 1.390 . S
C379 C378 1.390 . S
C379 C380 1.394 1_556 S
C379 C385 1.465 . S
C380 C375 1.399 . S
C380 C379 1.394 1_554 S
C380 C381 1.516 . S
C381 C380 1.516 . S
C381 C382 1.502 . S
C381 C383 1.561 . S
C381 C384 1.526 1_554 S
C382 H366 0.959 . S
C382 H367 0.959 . S
C382 H368 0.961 . S
C382 C381 1.502 . S
C383 H369 0.960 . S
C383 H370 0.961 . S
C383 H371 0.959 . S
C383 C381 1.561 . S
C384 C381 1.526 1_556 S
C384 C385 1.396 . S
C384 C389 1.390 . S
C385 C379 1.465 . S
C385 C384 1.396 . S
C385 C386 1.399 . S
C386 H372 0.929 . S
C386 C385 1.399 . S
C386 C387 1.385 . S
C387 H373 0.931 . S
C387 C386 1.385 . S
C387 C388 1.389 . S
C388 C387 1.389 . S
C388 C389 1.387 . S
C389 H374 0.930 1_556 S
C389 C384 1.390 . S
C389 C388 1.387 . S
H390 C402 0.930 . S
H391 C404 0.930 . S
H392 C405 0.930 . S
H393 C409 0.959 . S
H394 C409 0.959 . S
H395 C409 0.961 . S
H396 C410 0.960 . S
H397 C410 0.961 . S
H398 C410 0.959 . S
H399 C413 0.929 . S
H400 C414 0.931 . S
H401 C416 0.930 . S
C402 H390 0.930 . S
C402 C403 1.399 . S
C402 C407 1.399 . S
C403 C402 1.399 . S
C403 C404 1.376 . S
C404 H391 0.930 . S
C404 C403 1.376 . S
C404 C405 1.388 . S
C405 H392 0.930 . S
C405 C404 1.388 . S
C405 C406 1.390 . S
C406 C405 1.390 . S
C406 C407 1.394 . S
C406 C412 1.465 . S
C407 C402 1.399 . S
C407 C406 1.394 . S
C407 C408 1.516 . S
C408 C407 1.516 . S
C408 C409 1.502 . S
C408 C410 1.561 . S
C408 C411 1.526 . S
C409 H393 0.959 . S
C409 H394 0.959 . S
C409 H395 0.961 . S
C409 C408 1.502 . S
C410 H396 0.960 . S
C410 H397 0.961 . S
C410 H398 0.959 . S
C410 C408 1.561 . S
C411 C408 1.526 . S
C411 C412 1.396 . S
C411 C416 1.390 . S
C412 C406 1.465 . S
C412 C411 1.396 . S
C412 C413 1.399 . S
C413 H399 0.929 . S
C413 C412 1.399 . S
C413 C414 1.385 . S
C414 H400 0.931 . S
C414 C413 1.385 . S
C414 C415 1.389 . S
C415 C414 1.389 . S
C415 C416 1.387 . S
C416 H401 0.930 . S
C416 C411 1.390 . S
C416 C415 1.387 . S
H417 C429 0.930 . S
H418 C431 0.930 . S
H419 C432 0.930 . S
H420 C436 0.959 . S
H421 C436 0.959 . S
H422 C436 0.961 . S
H423 C437 0.960 . S
H424 C437 0.961 . S
H425 C437 0.959 . S
H426 C440 0.929 . S
H427 C441 0.931 . S
H428 C443 0.930 . S
C429 H417 0.930 . S
C429 C430 1.399 . S
C429 C434 1.399 . S
C430 C429 1.399 . S
C430 C431 1.376 . S
C431 H418 0.930 . S
C431 C430 1.376 . S
C431 C432 1.388 . S
C432 H419 0.930 . S
C432 C431 1.388 . S
C432 C433 1.390 . S
C433 C432 1.390 . S
C433 C434 1.394 . S
C433 C439 1.465 . S
C434 C429 1.399 . S
C434 C433 1.394 . S
C434 C435 1.516 . S
C435 C434 1.516 . S
C435 C436 1.502 . S
C435 C437 1.561 . S
C435 C438 1.526 . S
C436 H420 0.959 . S
C436 H421 0.959 . S
C436 H422 0.961 . S
C436 C435 1.502 . S
C437 H423 0.960 . S
C437 H424 0.961 . S
C437 H425 0.959 . S
C437 C435 1.561 . S
C438 C435 1.526 . S
C438 C439 1.396 . S
C438 C443 1.390 . S
C439 C433 1.465 . S
C439 C438 1.396 . S
C439 C440 1.399 . S
C440 H426 0.929 . S
C440 C439 1.399 . S
C440 C441 1.385 . S
C441 H427 0.931 . S
C441 C440 1.385 . S
C441 C442 1.389 . S
C442 C441 1.389 . S
C442 C443 1.387 . S
C443 H428 0.930 . S
C443 C438 1.390 . S
C443 C442 1.387 . S
H444 C456 0.930 . S
H445 C458 0.930 . S
H446 C459 0.930 . S
H447 C463 0.959 . S
H448 C463 0.959 . S
H449 C463 0.961 . S
H450 C464 0.960 . S
H451 C464 0.961 . S
H452 C464 0.959 . S
H453 C467 0.929 . S
H454 C468 0.931 . S
H455 C470 0.930 . S
C456 H444 0.930 . S
C456 C457 1.399 . S
C456 C461 1.399 . S
C457 C456 1.399 . S
C457 C458 1.376 . S
C458 H445 0.930 . S
C458 C457 1.376 . S
C458 C459 1.388 . S
C459 H446 0.930 . S
C459 C458 1.388 . S
C459 C460 1.390 . S
C460 C459 1.390 . S
C460 C461 1.394 . S
C460 C466 1.465 . S
C461 C456 1.399 . S
C461 C460 1.394 . S
C461 C462 1.516 . S
C462 C461 1.516 . S
C462 C463 1.502 . S
C462 C464 1.561 . S
C462 C465 1.526 . S
C463 H447 0.959 . S
C463 H448 0.959 . S
C463 H449 0.961 . S
C463 C462 1.502 . S
C464 H450 0.960 . S
C464 H451 0.961 . S
C464 H452 0.959 . S
C464 C462 1.561 . S
C465 C462 1.526 . S
C465 C466 1.396 . S
C465 C470 1.390 . S
C466 C460 1.465 . S
C466 C465 1.396 . S
C466 C467 1.399 . S
C467 H453 0.929 . S
C467 C466 1.399 . S
C467 C468 1.385 . S
C468 H454 0.931 . S
C468 C467 1.385 . S
C468 C469 1.389 . S
C469 C468 1.389 . S
C469 C470 1.387 . S
C470 H455 0.930 . S
C470 C465 1.390 . S
C470 C469 1.387 . S
H471 C483 0.930 . S
H472 C485 0.930 . S
H473 C486 0.930 . S
H474 C490 0.959 . S
H475 C490 0.959 . S
H476 C490 0.961 . S
H477 C491 0.960 . S
H478 C491 0.961 . S
H479 C491 0.959 . S
H480 C494 0.929 . S
H481 C495 0.931 . S
H482 C497 0.930 . S
C483 H471 0.930 . S
C483 C484 1.399 . S
C483 C488 1.399 . S
C484 C483 1.399 . S
C484 C485 1.376 . S
C485 H472 0.930 . S
C485 C484 1.376 . S
C485 C486 1.388 . S
C486 H473 0.930 . S
C486 C485 1.388 . S
C486 C487 1.390 . S
C487 C486 1.390 . S
C487 C488 1.394 . S
C487 C493 1.465 . S
C488 C483 1.399 . S
C488 C487 1.394 . S
C488 C489 1.516 . S
C489 C488 1.516 . S
C489 C490 1.502 . S
C489 C491 1.561 . S
C489 C492 1.526 . S
C490 H474 0.959 . S
C490 H475 0.959 . S
C490 H476 0.961 . S
C490 C489 1.502 . S
C491 H477 0.960 . S
C491 H478 0.961 . S
C491 H479 0.959 . S
C491 C489 1.561 . S
C492 C489 1.526 . S
C492 C493 1.396 . S
C492 C497 1.390 . S
C493 C487 1.465 . S
C493 C492 1.396 . S
C493 C494 1.399 . S
C494 H480 0.929 . S
C494 C493 1.399 . S
C494 C495 1.385 . S
C495 H481 0.931 . S
C495 C494 1.385 . S
C495 C496 1.389 . S
C496 C495 1.389 . S
C496 C497 1.387 . S
C497 H482 0.930 . S
C497 C492 1.390 . S
C497 C496 1.387 . S
H498 C510 0.930 . S
H499 C512 0.930 1_655 S
H500 C513 0.930 1_655 S
H501 C517 0.959 . S
H502 C517 0.959 . S
H503 C517 0.961 . S
H504 C518 0.960 . S
H505 C518 0.961 . S
H506 C518 0.959 . S
H507 C521 0.929 . S
H508 C522 0.931 . S
H509 C524 0.930 . S
C510 H498 0.930 . S
C510 C511 1.399 1_545 S
C510 C515 1.399 . S
C511 C510 1.399 1_565 S
C511 C512 1.376 . S
C512 H499 0.930 1_455 S
C512 C511 1.376 . S
C512 C513 1.388 . S
C513 H500 0.930 1_455 S
C513 C512 1.388 . S
C513 C514 1.390 . S
C514 C513 1.390 . S
C514 C515 1.394 1_565 S
C514 C520 1.465 . S
C515 C510 1.399 . S
C515 C514 1.394 1_545 S
C515 C516 1.516 . S
C516 C515 1.516 . S
C516 C517 1.502 . S
C516 C518 1.561 . S
C516 C519 1.526 . S
C517 H501 0.959 . S
C517 H502 0.959 . S
C517 H503 0.961 . S
C517 C516 1.502 . S
C518 H504 0.960 . S
C518 H505 0.961 . S
C518 H506 0.959 . S
C518 C516 1.561 . S
C519 C516 1.526 . S
C519 C520 1.396 1_545 S
C519 C524 1.390 . S
C520 C514 1.465 . S
C520 C519 1.396 1_565 S
C520 C521 1.399 . S
C521 H507 0.929 . S
C521 C520 1.399 . S
C521 C522 1.385 . S
C522 H508 0.931 . S
C522 C521 1.385 . S
C522 C523 1.389 1_565 S
C523 C522 1.389 1_545 S
C523 C524 1.387 . S
C524 H509 0.930 . S
C524 C519 1.390 . S
C524 C523 1.387 . S
H525 C537 0.930 . S
H526 C539 0.930 1_655 S
H527 C540 0.930 . S
H528 C544 0.959 . S
H529 C544 0.959 . S
H530 C544 0.961 . S
H531 C545 0.960 . S
H532 C545 0.961 . S
H533 C545 0.959 . S
H534 C548 0.929 . S
H535 C549 0.931 . S
H536 C551 0.930 . S
C537 H525 0.930 . S
C537 C538 1.399 . S
C537 C542 1.399 . S
C538 C537 1.399 . S
C538 C539 1.376 1_565 S
C539 H526 0.930 1_455 S
C539 C538 1.376 1_545 S
C539 C540 1.388 1_455 S
C540 H527 0.930 . S
C540 C539 1.388 1_655 S
C540 C541 1.390 1_655 S
C541 C540 1.390 1_455 S
C541 C542 1.394 1_545 S
C541 C547 1.465 . S
C542 C537 1.399 . S
C542 C541 1.394 1_565 S
C542 C543 1.516 . S
C543 C542 1.516 . S
C543 C544 1.502 . S
C543 C545 1.561 1_455 S
C543 C546 1.526 . S
C544 H528 0.959 . S
C544 H529 0.959 . S
C544 H530 0.961 . S
C544 C543 1.502 . S
C545 H531 0.960 . S
C545 H532 0.961 . S
C545 H533 0.959 . S
C545 C543 1.561 1_655 S
C546 C543 1.526 . S
C546 C547 1.396 1_565 S
C546 C551 1.390 . S
C547 C541 1.465 . S
C547 C546 1.396 1_545 S
C547 C548 1.399 1_455 S
C548 H534 0.929 . S
C548 C547 1.399 1_655 S
C548 C549 1.385 . S
C549 H535 0.931 . S
C549 C548 1.385 . S
C549 C550 1.389 1_655 S
C550 C549 1.389 1_455 S
C550 C551 1.387 1_545 S
C551 H536 0.930 . S
C551 C546 1.390 . S
C551 C550 1.387 1_565 S
H552 C564 0.930 . S
H553 C566 0.930 . S
H554 C567 0.930 . S
H555 C571 0.959 . S
H556 C571 0.959 . S
H557 C571 0.961 . S
H558 C572 0.960 . S
H559 C572 0.961 . S
H560 C572 0.959 . S
H561 C575 0.929 . S
H562 C576 0.931 . S
H563 C578 0.930 . S
C564 H552 0.930 . S
C564 C565 1.399 . S
C564 C569 1.399 . S
C565 C564 1.399 . S
C565 C566 1.376 . S
C566 H553 0.930 . S
C566 C565 1.376 . S
C566 C567 1.388 . S
C567 H554 0.930 . S
C567 C566 1.388 . S
C567 C568 1.390 . S
C568 C567 1.390 . S
C568 C569 1.394 . S
C568 C574 1.465 . S
C569 C564 1.399 . S
C569 C568 1.394 . S
C569 C570 1.516 . S
C570 C569 1.516 . S
C570 C571 1.502 . S
C570 C572 1.561 . S
C570 C573 1.526 . S
C571 H555 0.959 . S
C571 H556 0.959 . S
C571 H557 0.961 . S
C571 C570 1.502 . S
C572 H558 0.960 . S
C572 H559 0.961 . S
C572 H560 0.959 . S
C572 C570 1.561 . S
C573 C570 1.526 . S
C573 C574 1.396 . S
C573 C578 1.390 . S
C574 C568 1.465 . S
C574 C573 1.396 . S
C574 C575 1.399 . S
C575 H561 0.929 . S
C575 C574 1.399 . S
C575 C576 1.385 . S
C576 H562 0.931 . S
C576 C575 1.385 . S
C576 C577 1.389 . S
C577 C576 1.389 . S
C577 C578 1.387 . S
C578 H563 0.930 . S
C578 C573 1.390 . S
C578 C577 1.387 . S
H579 C591 0.930 . S
H580 C593 0.930 . S
H581 C594 0.930 . S
H582 C598 0.959 . S
H583 C598 0.959 . S
H584 C598 0.961 . S
H585 C599 0.960 . S
H586 C599 0.961 . S
H587 C599 0.959 . S
H588 C602 0.929 . S
H589 C603 0.931 . S
H590 C605 0.930 . S
C591 H579 0.930 . S
C591 C592 1.399 . S
C591 C596 1.399 . S
C592 C591 1.399 . S
C592 C593 1.376 . S
C593 H580 0.930 . S
C593 C592 1.376 . S
C593 C594 1.388 . S
C594 H581 0.930 . S
C594 C593 1.388 . S
C594 C595 1.390 . S
C595 C594 1.390 . S
C595 C596 1.394 . S
C595 C601 1.465 . S
C596 C591 1.399 . S
C596 C595 1.394 . S
C596 C597 1.516 . S
C597 C596 1.516 . S
C597 C598 1.502 . S
C597 C599 1.561 . S
C597 C600 1.526 . S
C598 H582 0.959 . S
C598 H583 0.959 . S
C598 H584 0.961 . S
C598 C597 1.502 . S
C599 H585 0.960 . S
C599 H586 0.961 . S
C599 H587 0.959 . S
C599 C597 1.561 . S
C600 C597 1.526 . S
C600 C601 1.396 . S
C600 C605 1.390 . S
C601 C595 1.465 . S
C601 C600 1.396 . S
C601 C602 1.399 . S
C602 H588 0.929 . S
C602 C601 1.399 . S
C602 C603 1.385 . S
C603 H589 0.931 . S
C603 C602 1.385 . S
C603 C604 1.389 . S
C604 C603 1.389 . S
C604 C605 1.387 . S
C605 H590 0.930 . S
C605 C600 1.390 . S
C605 C604 1.387 . S
C307 C253 1.249 . S
C295 C3 1.132 . S
C322 C4 1.441 . S
C334 C193 1.615 . S
C349 C19 1.571 . S
C361 C223 1.524 . S
C376 C7 1.129 1_554 S
C388 C163 1.132 . S
C403 C37 1.106 . S
C415 C133 1.252 . S
C430 C28 1.535 . S
C442 C73 1.615 . S
C469 C103 1.594 . S
C457 C41 1.470 . S
C496 C43 1.195 . S
C484 C25 1.197 . S
C511 C20 1.358 . S
C523 C62 1.405 . S
C538 C16 1.277 . S
C550 C122 1.484 1_455 S
C577 C182 1.447 . S
C565 C40 1.222 . S
C592 C24 1.278 . S
C604 C242 1.485 . S
