# Generated by pormake.
# Topology pyr, (3,6)-cn, num edge types: 1
# Building blocks:
#     Node 0, Type 0, BuildingBlock: KAKCAD_clean_linker_0, # of connection points: 3
#     Node 1, Type 0, BuildingBlock: KAKCAD_clean_linker_0, # of connection points: 3
#     Node 2, Type 0, BuildingBlock: KAKCAD_clean_linker_0, # of connection points: 3
#     Node 3, Type 0, BuildingBlock: KAKCAD_clean_linker_0, # of connection points: 3
#     Node 4, Type 0, BuildingBlock: KAKCAD_clean_linker_0, # of connection points: 3
#     Node 5, Type 0, BuildingBlock: KAKCAD_clean_linker_0, # of connection points: 3
#     Node 6, Type 0, BuildingBlock: KAKCAD_clean_linker_0, # of connection points: 3
#     Node 7, Type 0, BuildingBlock: KAKCAD_clean_linker_0, # of connection points: 3
#     Node 8, Type 1, BuildingBlock: BETFAJ_clean_sbu_0, # of connection points: 6
#     Node 9, Type 1, BuildingBlock: BETFAJ_clean_sbu_0, # of connection points: 6
#     Node 10, Type 1, BuildingBlock: BETFAJ_clean_sbu_0, # of connection points: 6
#     Node 11, Type 1, BuildingBlock: BETFAJ_clean_sbu_0, # of connection points: 6
#     Edge 12, Type (0, 1), BuildingBlock: TEMPAE_clean_linker_10, # of connection points: 2
#     Edge 13, Type (0, 1), BuildingBlock: TEMPAE_clean_linker_10, # of connection points: 2
#     Edge 14, Type (0, 1), BuildingBlock: TEMPAE_clean_linker_10, # of connection points: 2
#     Edge 15, Type (0, 1), BuildingBlock: TEMPAE_clean_linker_10, # of connection points: 2
#     Edge 16, Type (0, 1), BuildingBlock: TEMPAE_clean_linker_10, # of connection points: 2
#     Edge 17, Type (0, 1), BuildingBlock: TEMPAE_clean_linker_10, # of connection points: 2
#     Edge 18, Type (0, 1), BuildingBlock: TEMPAE_clean_linker_10, # of connection points: 2
#     Edge 19, Type (0, 1), BuildingBlock: TEMPAE_clean_linker_10, # of connection points: 2
#     Edge 20, Type (0, 1), BuildingBlock: TEMPAE_clean_linker_10, # of connection points: 2
#     Edge 21, Type (0, 1), BuildingBlock: TEMPAE_clean_linker_10, # of connection points: 2
#     Edge 22, Type (0, 1), BuildingBlock: TEMPAE_clean_linker_10, # of connection points: 2
#     Edge 23, Type (0, 1), BuildingBlock: TEMPAE_clean_linker_10, # of connection points: 2
#     Edge 24, Type (0, 1), BuildingBlock: TEMPAE_clean_linker_10, # of connection points: 2
#     Edge 25, Type (0, 1), BuildingBlock: TEMPAE_clean_linker_10, # of connection points: 2
#     Edge 26, Type (0, 1), BuildingBlock: TEMPAE_clean_linker_10, # of connection points: 2
#     Edge 27, Type (0, 1), BuildingBlock: TEMPAE_clean_linker_10, # of connection points: 2
#     Edge 28, Type (0, 1), BuildingBlock: TEMPAE_clean_linker_10, # of connection points: 2
#     Edge 29, Type (0, 1), BuildingBlock: TEMPAE_clean_linker_10, # of connection points: 2
#     Edge 30, Type (0, 1), BuildingBlock: TEMPAE_clean_linker_10, # of connection points: 2
#     Edge 31, Type (0, 1), BuildingBlock: TEMPAE_clean_linker_10, # of connection points: 2
#     Edge 32, Type (0, 1), BuildingBlock: TEMPAE_clean_linker_10, # of connection points: 2
#     Edge 33, Type (0, 1), BuildingBlock: TEMPAE_clean_linker_10, # of connection points: 2
#     Edge 34, Type (0, 1), BuildingBlock: TEMPAE_clean_linker_10, # of connection points: 2
#     Edge 35, Type (0, 1), BuildingBlock: TEMPAE_clean_linker_10, # of connection points: 2
# Relax obj value: 0.092
# Max RMSD: 0.119
# Mean RMSD: 0.057
data_MOF--net-pyr--node1-BETFAJ_clean_sbu_0--node2-KAKCAD_clean_linker_0--edge1-TEMPAE_clean_linker_10
_symmetry_space_group_name_H-M    P1
_symmetry_Int_Tables_number       1
_symmetry_cell_setting            triclinic
loop_
_symmetry_equiv_pos_as_xyz
'x, y, z'
_cell_length_a     47.521141
_cell_length_b     49.657586
_cell_length_c     45.153057
_cell_angle_alpha  91.25179
_cell_angle_beta   88.304288
_cell_angle_gamma 99.955427
loop_
_atom_site_label
_atom_site_type_symbol
_atom_site_fract_x
_atom_site_fract_y
_atom_site_fract_z
_atom_type_partial_charge
C0 C 0.27151 0.2629 0.32872 0.0
C1 C 0.28204 0.24394 0.34582 0.0
C2 C 0.2881 0.27611 0.30575 0.0
C3 C 0.3162 0.27141 0.29965 0.0
C4 C 0.3273 0.25345 0.31812 0.0
C5 C 0.31017 0.23949 0.34072 0.0
C6 C 0.33171 0.28269 0.272 0.0
C7 C 0.32445 0.30602 0.25942 0.0
C8 C 0.32823 0.31071 0.22892 0.0
C9 C 0.3457 0.29542 0.21217 0.0
C10 C 0.35744 0.27453 0.2257 0.0
C11 C 0.34939 0.26776 0.25529 0.0
C12 C 0.37529 0.25722 0.20869 0.0
C13 C 0.36677 0.2456 0.18103 0.0
C14 C 0.39953 0.24995 0.22153 0.0
C15 C 0.41425 0.23082 0.20759 0.0
C16 C 0.40486 0.21819 0.18065 0.0
C17 C 0.30937 0.32786 0.21502 0.0
C18 C 0.28077 0.32542 0.2253 0.0
C19 C 0.3188 0.34635 0.19216 0.0
C20 C 0.3 0.36217 0.18028 0.0
C21 C 0.27141 0.35961 0.19091 0.0
C22 C 0.26235 0.34123 0.21383 0.0
C23 C 0.38127 0.22618 0.16727 0.0
H24 H 0.24962 0.26614 0.33182 0.0
H25 H 0.27786 0.28874 0.29179 0.0
H26 H 0.34882 0.24943 0.3146 0.0
H27 H 0.31858 0.22473 0.35367 0.0
H28 H 0.31275 0.31903 0.27269 0.0
H29 H 0.35534 0.24961 0.26437 0.0
H30 H 0.34926 0.29901 0.18867 0.0
H31 H 0.3481 0.25056 0.17064 0.0
H32 H 0.40671 0.25861 0.24279 0.0
H33 H 0.43228 0.22508 0.2185 0.0
H34 H 0.27231 0.31098 0.24231 0.0
H35 H 0.34062 0.34873 0.18369 0.0
H36 H 0.37372 0.21704 0.14634 0.0
H37 H 0.2408 0.33893 0.2231 0.0
H38 H 0.30769 0.37601 0.16248 0.0
C39 C 0.30666 0.92667 0.72055 0.0
C40 C 0.33638 0.93455 0.71836 0.0
C41 C 0.29174 0.91506 0.69607 0.0
C42 C 0.30666 0.911 0.66952 0.0
C43 C 0.33589 0.92179 0.66656 0.0
C44 C 0.35074 0.93361 0.69098 0.0
C45 C 0.29293 0.89163 0.64718 0.0
C46 C 0.26575 0.89346 0.63728 0.0
C47 C 0.25228 0.87378 0.61735 0.0
C48 C 0.26557 0.85234 0.60762 0.0
C49 C 0.29232 0.84995 0.6179 0.0
C50 C 0.3062 0.86973 0.63751 0.0
C51 C 0.30561 0.82714 0.60681 0.0
C52 C 0.28888 0.80104 0.60374 0.0
C53 C 0.33396 0.83191 0.59616 0.0
C54 C 0.34512 0.81103 0.5816 0.0
C55 C 0.32799 0.78528 0.57743 0.0
C56 C 0.22492 0.87615 0.60518 0.0
C57 C 0.20179 0.87902 0.62412 0.0
C58 C 0.22239 0.87678 0.57436 0.0
C59 C 0.19776 0.88305 0.56266 0.0
C60 C 0.17582 0.88886 0.58182 0.0
C61 C 0.17706 0.88514 0.61239 0.0
C62 C 0.29992 0.7803 0.5889 0.0
H63 H 0.29548 0.92711 0.74179 0.0
H64 H 0.26918 0.90684 0.69878 0.0
H65 H 0.34761 0.91909 0.64607 0.0
H66 H 0.37377 0.93944 0.68923 0.0
H67 H 0.25538 0.91036 0.64459 0.0
H68 H 0.32684 0.86761 0.64589 0.0
H69 H 0.25505 0.83761 0.59164 0.0
H70 H 0.26701 0.79687 0.6122 0.0
H71 H 0.34714 0.85193 0.59819 0.0
H72 H 0.36718 0.81499 0.57372 0.0
H73 H 0.20347 0.87803 0.64794 0.0
H74 H 0.2402 0.87445 0.55952 0.0
H75 H 0.28648 0.76048 0.58619 0.0
H76 H 0.16033 0.88994 0.62739 0.0
H77 H 0.19707 0.88624 0.53903 0.0
C78 C 0.74907 0.42235 0.89938 0.0
C79 C 0.77162 0.40754 0.90237 0.0
C80 C 0.72402 0.41095 0.88436 0.0
C81 C 0.72043 0.38414 0.87245 0.0
C82 C 0.74303 0.36941 0.87537 0.0
C83 C 0.76828 0.38101 0.88977 0.0
C84 C 0.69262 0.37071 0.85903 0.0
C85 C 0.67945 0.38326 0.83654 0.0
C86 C 0.65303 0.37058 0.82415 0.0
C87 C 0.63981 0.34486 0.83597 0.0
C88 C 0.65287 0.3317 0.85815 0.0
C89 C 0.67922 0.34491 0.86913 0.0
C90 C 0.63955 0.30413 0.87041 0.0
C91 C 0.61106 0.29884 0.88132 0.0
C92 C 0.65611 0.28336 0.8733 0.0
C93 C 0.64475 0.25832 0.88674 0.0
C94 C 0.61652 0.25326 0.89839 0.0
C95 C 0.63975 0.38391 0.79876 0.0
C96 C 0.64583 0.41244 0.79401 0.0
C97 C 0.62118 0.36831 0.77841 0.0
C98 C 0.60938 0.38053 0.75472 0.0
C99 C 0.61586 0.40901 0.74966 0.0
C100 C 0.63446 0.42459 0.77002 0.0
C101 C 0.59984 0.27395 0.89536 0.0
H102 H 0.75086 0.44289 0.90857 0.0
H103 H 0.70706 0.42284 0.88282 0.0
H104 H 0.74112 0.34873 0.86656 0.0
H105 H 0.78499 0.36887 0.89168 0.0
H106 H 0.69054 0.40257 0.82817 0.0
H107 H 0.68908 0.33531 0.88647 0.0
H108 H 0.61939 0.33478 0.82791 0.0
H109 H 0.59768 0.31431 0.8798 0.0
H110 H 0.67811 0.28655 0.86523 0.0
H111 H 0.65838 0.24312 0.88869 0.0
H112 H 0.65938 0.42583 0.80894 0.0
H113 H 0.61585 0.34634 0.78028 0.0
H114 H 0.57797 0.27084 0.9038 0.0
H115 H 0.64082 0.4464 0.76743 0.0
H116 H 0.59489 0.3673 0.74052 0.0
C117 C 0.87291 0.63047 0.26415 0.0
C118 C 0.90267 0.63284 0.25897 0.0
C119 C 0.86162 0.64258 0.28932 0.0
C120 C 0.87956 0.65754 0.31052 0.0
C121 C 0.90934 0.65997 0.30536 0.0
C122 C 0.92065 0.64786 0.28013 0.0
C123 C 0.86721 0.67039 0.33769 0.0
C124 C 0.8414 0.65736 0.35158 0.0
C125 C 0.82914 0.6692 0.3765 0.0
C126 C 0.84309 0.6947 0.38742 0.0
C127 C 0.86879 0.70835 0.37436 0.0
C128 C 0.88079 0.69586 0.34968 0.0
C129 C 0.88241 0.73593 0.38647 0.0
C130 C 0.86558 0.75598 0.39401 0.0
C131 C 0.91197 0.74224 0.39163 0.0
C132 C 0.92413 0.76759 0.40444 0.0
C133 C 0.90719 0.7875 0.41184 0.0
C134 C 0.80153 0.6554 0.39107 0.0
C135 C 0.7786 0.64209 0.37415 0.0
C136 C 0.79744 0.65631 0.42213 0.0
C137 C 0.77123 0.64485 0.43572 0.0
C138 C 0.74807 0.63207 0.41877 0.0
C139 C 0.75231 0.63069 0.38775 0.0
C140 C 0.87783 0.78143 0.40626 0.0
H141 H 0.8581 0.61889 0.24891 0.0
H142 H 0.83862 0.64039 0.2919 0.0
H143 H 0.92409 0.67099 0.32104 0.0
H144 H 0.94364 0.6506 0.27711 0.0
H145 H 0.83109 0.63755 0.34341 0.0
H146 H 0.90019 0.70654 0.33917 0.0
H147 H 0.83375 0.70419 0.40624 0.0
H148 H 0.84283 0.75206 0.39022 0.0
H149 H 0.92559 0.72734 0.38635 0.0
H150 H 0.94686 0.77175 0.40838 0.0
H151 H 0.78069 0.64104 0.35023 0.0
H152 H 0.81457 0.66597 0.43609 0.0
H153 H 0.86424 0.79635 0.41168 0.0
H154 H 0.73527 0.62074 0.37385 0.0
H155 H 0.76895 0.64662 0.45958 0.0
C156 C 0.7294 0.78579 0.71642 0.0
C157 C 0.73439 0.81433 0.71371 0.0
C158 C 0.71119 0.77333 0.739 0.0
C159 C 0.69832 0.7893 0.7598 0.0
C160 C 0.70196 0.81776 0.75556 0.0
C161 C 0.71955 0.83005 0.73263 0.0
C162 C 0.6848 0.7774 0.788 0.0
C163 C 0.69618 0.75704 0.80231 0.0
C164 C 0.6881 0.7497 0.83167 0.0
C165 C 0.66902 0.76422 0.84741 0.0
C166 C 0.65727 0.78476 0.83327 0.0
C167 C 0.66387 0.78951 0.80305 0.0
C168 C 0.64113 0.80402 0.84987 0.0
C169 C 0.62031 0.79537 0.87208 0.0
C170 C 0.64657 0.83196 0.84276 0.0
C171 C 0.63132 0.8505 0.85657 0.0
C172 C 0.61054 0.84214 0.87881 0.0
C173 C 0.70274 0.72909 0.84592 0.0
C174 C 0.70801 0.70578 0.82965 0.0
C175 C 0.715 0.73424 0.87391 0.0
C176 C 0.7335 0.71758 0.8844 0.0
C177 C 0.73992 0.69535 0.86726 0.0
C178 C 0.72647 0.68919 0.84015 0.0
C179 C 0.60515 0.81422 0.88637 0.0
H180 H 0.74054 0.77326 0.70189 0.0
H181 H 0.70837 0.75134 0.74097 0.0
H182 H 0.69301 0.83104 0.77116 0.0
H183 H 0.72333 0.85214 0.73121 0.0
H184 H 0.71307 0.74816 0.79136 0.0
H185 H 0.65396 0.80426 0.79164 0.0
H186 H 0.66417 0.76022 0.87065 0.0
H187 H 0.61551 0.77406 0.87815 0.0
H188 H 0.66286 0.83975 0.82635 0.0
H189 H 0.63587 0.87153 0.8495 0.0
H190 H 0.69874 0.70101 0.80813 0.0
H191 H 0.71168 0.75205 0.88692 0.0
H192 H 0.58951 0.80697 0.90358 0.0
H193 H 0.7311 0.67217 0.82655 0.0
H194 H 0.74371 0.7227 0.9054 0.0
C195 C 0.69964 0.12966 0.34733 0.0
C196 C 0.69476 0.14718 0.32486 0.0
C197 C 0.71554 0.14031 0.37163 0.0
C198 C 0.72646 0.16841 0.37331 0.0
C199 C 0.72398 0.18521 0.34939 0.0
C200 C 0.70821 0.1746 0.32518 0.0
C201 C 0.73604 0.18096 0.40158 0.0
C202 C 0.75775 0.1719 0.41668 0.0
C203 C 0.76533 0.18305 0.44464 0.0
C204 C 0.75082 0.20254 0.45755 0.0
C205 C 0.72915 0.2115 0.44265 0.0
C206 C 0.72188 0.20102 0.41445 0.0
C207 C 0.71459 0.23196 0.45709 0.0
C208 C 0.70475 0.22839 0.48661 0.0
C209 C 0.71288 0.25613 0.4425 0.0
C210 C 0.70158 0.27673 0.4574 0.0
C211 C 0.69182 0.27321 0.48697 0.0
C212 C 0.78699 0.17343 0.46177 0.0
C213 C 0.78672 0.14538 0.46389 0.0
C214 C 0.80612 0.19215 0.47844 0.0
C215 C 0.82423 0.18282 0.4978 0.0
C216 C 0.82379 0.15472 0.50011 0.0
C217 C 0.8052 0.13609 0.48272 0.0
C218 C 0.69343 0.24896 0.5015 0.0
H219 H 0.68929 0.10843 0.34724 0.0
H220 H 0.71727 0.12715 0.39008 0.0
H221 H 0.73259 0.20688 0.35037 0.0
H222 H 0.70481 0.1882 0.30769 0.0
H223 H 0.76865 0.15636 0.40669 0.0
H224 H 0.70458 0.20769 0.40306 0.0
H225 H 0.75617 0.21064 0.47958 0.0
H226 H 0.70594 0.20972 0.49815 0.0
H227 H 0.72071 0.25924 0.41983 0.0
H228 H 0.69981 0.29512 0.44562 0.0
H229 H 0.7719 0.13061 0.4515 0.0
H230 H 0.80678 0.21398 0.47678 0.0
H231 H 0.68568 0.24586 0.52419 0.0
H232 H 0.80524 0.11429 0.48319 0.0
H233 H 0.83868 0.19749 0.51069 0.0
C234 C 0.24403 0.65274 0.18663 0.0
C235 C 0.24346 0.64909 0.15553 0.0
C236 C 0.26955 0.66394 0.20099 0.0
C237 C 0.29517 0.67237 0.18467 0.0
C238 C 0.29461 0.66853 0.15363 0.0
C239 C 0.26931 0.65687 0.13937 0.0
C240 C 0.32188 0.68694 0.19934 0.0
C241 C 0.33335 0.67624 0.22427 0.0
C242 C 0.35862 0.69012 0.23792 0.0
C243 C 0.3718 0.71571 0.22576 0.0
C244 C 0.36092 0.72669 0.20052 0.0
C245 C 0.336 0.71194 0.18785 0.0
C246 C 0.37506 0.75346 0.18677 0.0
C247 C 0.38559 0.77681 0.2041 0.0
C248 C 0.37676 0.75626 0.15568 0.0
C249 C 0.38794 0.7814 0.14244 0.0
C250 C 0.398 0.80495 0.15966 0.0
C251 C 0.37131 0.67771 0.2643 0.0
C252 C 0.35428 0.65903 0.28354 0.0
C253 C 0.40077 0.68398 0.27053 0.0
C254 C 0.41248 0.67232 0.29464 0.0
C255 C 0.39551 0.65334 0.31364 0.0
C256 C 0.36607 0.647 0.30733 0.0
C257 C 0.39673 0.80211 0.1908 0.0
H258 H 0.22471 0.64684 0.19994 0.0
H259 H 0.26902 0.66675 0.22484 0.0
H260 H 0.31385 0.67473 0.14026 0.0
H261 H 0.26987 0.6546 0.11546 0.0
H262 H 0.32288 0.65656 0.23226 0.0
H263 H 0.32693 0.72036 0.16913 0.0
H264 H 0.3907 0.72719 0.23571 0.0
H265 H 0.3846 0.77574 0.22804 0.0
H266 H 0.36928 0.73889 0.14135 0.0
H267 H 0.38812 0.78241 0.11851 0.0
H268 H 0.3315 0.6536 0.28056 0.0
H269 H 0.41523 0.69774 0.25654 0.0
H270 H 0.40451 0.81945 0.20504 0.0
H271 H 0.35179 0.63234 0.32051 0.0
H272 H 0.43505 0.67858 0.29835 0.0
C273 C 0.13696 0.27922 0.64542 0.0
C274 C 0.10738 0.26903 0.64665 0.0
C275 C 0.14836 0.30439 0.6587 0.0
C276 C 0.13072 0.32095 0.67326 0.0
C277 C 0.10111 0.31081 0.67471 0.0
C278 C 0.08966 0.28529 0.6617 0.0
C279 C 0.14358 0.34869 0.68603 0.0
C280 C 0.16779 0.36396 0.67181 0.0
C281 C 0.18298 0.38828 0.68426 0.0
C282 C 0.17168 0.39872 0.71062 0.0
C283 C 0.14629 0.38506 0.72476 0.0
C284 C 0.13275 0.35973 0.71234 0.0
C285 C 0.13423 0.39728 0.75251 0.0
C286 C 0.15228 0.41286 0.77325 0.0
C287 C 0.10449 0.39416 0.75828 0.0
C288 C 0.0933 0.40634 0.7835 0.0
C289 C 0.11137 0.42227 0.8039 0.0
C290 C 0.21091 0.402 0.66986 0.0
C291 C 0.22788 0.3866 0.65256 0.0
C292 C 0.22125 0.43028 0.6732 0.0
C293 C 0.24748 0.44247 0.66005 0.0
C294 C 0.26412 0.42704 0.64233 0.0
C295 C 0.25347 0.3989 0.63862 0.0
C296 C 0.14108 0.4252 0.79831 0.0
H297 H 0.15158 0.26797 0.63379 0.0
H298 H 0.17133 0.31078 0.6575 0.0
H299 H 0.08663 0.32275 0.68551 0.0
H300 H 0.06683 0.27828 0.66372 0.0
H301 H 0.17473 0.35676 0.65052 0.0
H302 H 0.11427 0.34822 0.72364 0.0
H303 H 0.18266 0.4176 0.72023 0.0
H304 H 0.17527 0.41541 0.77042 0.0
H305 H 0.08965 0.3828 0.74291 0.0
H306 H 0.07032 0.40377 0.7866 0.0
H307 H 0.22175 0.36471 0.64977 0.0
H308 H 0.20911 0.44329 0.68585 0.0
H309 H 0.15586 0.43681 0.81358 0.0
H310 H 0.2647 0.386 0.62474 0.0
H311 H 0.2547 0.46405 0.66418 0.0
Sm312 Sm 0.02111 0.03977 0.49547 0.0
Sm313 Sm 0.99593 1.01786 0.55542 0.0
C314 C 0.03795 0.05868 0.44276 0.0
C315 C 0.06246 0.08008 0.43421 0.0
C316 C 0.05913 0.10761 0.43253 0.0
C317 C 0.08291 0.12816 0.42794 0.0
C318 C 0.11045 0.12157 0.42505 0.0
C319 C 0.1137 0.09404 0.42596 0.0
C320 C 0.08999 0.07352 0.43032 0.0
C321 C 0.05939 1.02591 0.53376 0.0
C322 C 0.02944 0.08254 0.55127 0.0
C323 C 0.97853 1.00074 0.60886 0.0
C324 C 0.95392 0.98043 0.61955 0.0
C325 C 0.95445 0.95221 0.61753 0.0
C326 C 0.93022 0.93321 0.62535 0.0
C327 C 0.90501 0.94198 0.6355 0.0
C328 C 0.90466 0.97017 0.6381 0.0
C329 C 0.92885 0.98918 0.63029 0.0
C330 C 0.95763 0.0338 0.51807 0.0
C331 C 0.98786 0.97494 0.50019 0.0
O332 O 0.01691 0.06688 0.4579 0.0
O333 O 0.04444 0.03604 0.45283 0.0
O334 O 0.03486 1.01292 0.52926 0.0
O335 O 0.06548 0.04614 0.51576 0.0
O336 O 0.02785 0.08033 0.5221 0.0
O337 O 0.02187 0.06084 0.56832 0.0
O338 O 0.99901 0.99141 0.59387 0.0
O339 O 0.97217 1.0229 0.59754 0.0
O340 O 0.98269 0.04565 0.52223 0.0
O341 O 0.95235 1.01186 0.5337 0.0
O342 O 0.98882 0.97716 0.52935 0.0
O343 O 0.99576 0.99639 0.48288 0.0
H344 H 0.03824 0.11337 0.43544 0.0
H345 H 0.07983 0.14925 0.42724 0.0
H346 H 0.13464 0.08836 0.42314 0.0
H347 H 0.09339 0.05255 0.43127 0.0
H348 H 0.97342 0.94474 0.6095 0.0
H349 H 0.93126 0.91161 0.62357 0.0
H350 H 0.88547 0.97756 0.64565 0.0
H351 H 0.92772 1.01076 0.63211 0.0
Sm352 Sm 0.53039 0.02911 0.04429 0.0
Sm353 Sm 0.48309 0.03034 1.0152 0.0
C354 C 0.57652 0.03987 0.07593 0.0
C355 C 0.58071 0.05651 0.10287 0.0
C356 C 0.5732 0.08271 0.10423 0.0
C357 C 0.57302 0.09672 0.13118 0.0
C358 C 0.58002 0.08455 0.15698 0.0
C359 C 0.58731 0.05833 0.15564 0.0
C360 C 0.58775 0.04443 0.1287 0.0
C361 C 0.49073 0.98283 0.05872 0.0
C362 C 0.48508 0.06635 0.07311 0.0
C363 C 0.43839 1.01886 0.98188 0.0
C364 C 0.43552 1.00045 0.95595 0.0
C365 C 0.42779 0.97203 0.95941 0.0
C366 C 0.42652 0.9546 0.93479 0.0
C367 C 0.43312 0.9654 0.90657 0.0
C368 C 0.44256 0.9935 0.90325 0.0
C369 C 0.44345 1.01097 0.92772 0.0
C370 C 0.52266 0.07677 1.00132 0.0
C371 C 0.52729 0.99184 0.98727 0.0
O372 O 0.57371 0.05278 0.05161 0.0
O373 O 0.55775 1.01762 0.07895 0.0
O374 O 0.48511 1.00697 0.05774 0.0
O375 O 0.51717 0.9829 0.05106 0.0
O376 O 0.51181 0.06246 0.07215 0.0
O377 O 0.4669 0.05312 0.05448 0.0
O378 O 0.43957 1.00738 1.00745 0.0
O379 O 0.4572 0.04113 0.97886 0.0
O380 O 0.52827 0.05258 1.00187 0.0
O381 O 0.49627 0.07663 1.00929 0.0
O382 O 0.50062 0.99573 0.98859 0.0
O383 O 0.54586 1.00588 1.00495 0.0
H384 H 0.56704 0.09223 0.08463 0.0
H385 H 0.56777 0.11712 0.13189 0.0
H386 H 0.59354 0.04894 0.17531 0.0
H387 H 0.59302 1.02404 0.12807 0.0
H388 H 0.42214 0.96328 0.98099 0.0
H389 H 0.41863 0.93296 0.93746 0.0
H390 H 0.44697 1.00219 0.88143 0.0
H391 H 0.44989 0.03274 0.92443 0.0
Sm392 Sm 0.50563 0.50746 0.50948 0.0
Sm393 Sm 0.5031 0.55206 0.55339 0.0
C394 C 0.5164 0.46744 0.47439 0.0
C395 C 0.53484 0.44748 0.47818 0.0
C396 C 0.55943 0.45438 0.49508 0.0
C397 C 0.57503 0.43437 0.5022 0.0
C398 C 0.5661 0.40731 0.49261 0.0
C399 C 0.54144 0.40043 0.47577 0.0
C400 C 0.52583 0.4205 0.46861 0.0
C401 C 0.45331 0.50463 0.53808 0.0
C402 C 0.53171 0.50145 0.57682 0.0
C403 C 0.48025 0.58256 0.59213 0.0
C404 C 0.47067 0.60863 0.58856 0.0
C405 C 0.44145 0.60925 0.59273 0.0
C406 C 0.42988 0.63051 0.5813 0.0
C407 C 0.44752 0.6516 0.56616 0.0
C408 C 0.47704 0.65224 0.56397 0.0
C409 C 0.4886 0.63062 0.57486 0.0
C410 C 0.55491 0.5671 0.52297 0.0
C411 C 0.48199 0.56005 0.48433 0.0
O412 O 0.52926 0.49277 0.47117 0.0
O413 O 0.49467 0.46486 0.49308 0.0
O414 O 0.47738 0.50949 0.55016 0.0
O415 O 0.4565 0.5022 0.50962 0.0
O416 O 0.53091 0.49273 0.54873 0.0
O417 O 0.52058 0.52314 0.58489 0.0
O418 O 0.46529 0.56255 0.57705 0.0
O419 O 0.50785 0.58258 0.59041 0.0
O420 O 0.53703 0.54554 0.51814 0.0
O421 O 0.54569 0.58136 0.54439 0.0
O422 O 0.48145 0.56837 0.51251 0.0
O423 O 0.49312 0.53822 0.47687 0.0
H424 H 0.56629 0.4751 0.5032 0.0
H425 H 0.59422 0.4401 0.51489 0.0
H426 H 0.53418 0.37954 0.4684 0.0
H427 H 0.50643 0.41489 0.45623 0.0
H428 H 0.42728 0.59234 0.60297 0.0
H429 H 0.40707 0.63022 0.58371 0.0
H430 H 0.49085 0.66879 0.55276 0.0
H431 H 0.51119 0.63044 0.5711 0.0
Sm432 Sm 0.01233 0.50282 0.04543 0.0
Sm433 Sm 0.99953 0.55639 1.01526 0.0
C434 C 0.03923 0.46322 0.06239 0.0
C435 C 0.06595 0.45934 0.07704 0.0
C436 C 0.09281 0.46497 0.0623 0.0
C437 C 0.11735 0.45897 0.07546 0.0
C438 C 0.11573 0.44714 0.10367 0.0
C439 C 0.08896 0.44215 0.11864 0.0
C440 C 0.06443 0.44809 0.10546 0.0
C441 C 0.97995 0.53347 0.0801 0.0
C442 C 0.05903 0.5621 0.05246 0.0
C443 C 0.97085 0.59652 1.00531 0.0
C444 C 0.94639 0.60188 0.98756 0.0
C445 C 0.92052 0.6046 1.00228 0.0
C446 C 0.89753 0.61104 0.9868 0.0
C447 C 0.89967 0.61522 0.95603 0.0
C448 C 0.92526 0.61171 0.94101 0.0
C449 C 0.9484 0.60521 0.9566 0.0
C450 C 0.02392 0.5247 0.97297 0.0
C451 C 0.95428 0.49691 1.00703 0.0
O452 O 0.0416 0.47321 0.03567 0.0
O453 O 0.01948 0.47224 0.0787 0.0
O454 O 1.00097 0.54296 0.0631 0.0
O455 O 0.97589 0.5068 0.07937 0.0
O456 O 0.052 0.53542 0.05711 0.0
O457 O 0.04254 0.5756 0.03712 0.0
O458 O 0.96443 0.57912 1.02691 0.0
O459 O 0.99531 0.59461 0.99174 0.0
O460 O 0.01834 0.51972 1.00003 0.0
O461 O 0.0167 0.54812 0.96738 0.0
O462 O 0.95886 0.52401 1.00719 0.0
O463 O 0.97289 0.4831 1.01836 0.0
H464 H 0.09488 0.47358 0.04035 0.0
H465 H 0.1376 0.46341 0.06338 0.0
H466 H 0.08673 0.43273 0.14017 0.0
H467 H 0.04407 0.44324 0.11728 0.0
H468 H 0.91813 0.60211 1.02606 0.0
H469 H 0.87806 0.61302 0.99909 0.0
H470 H 0.92777 0.61486 0.91736 0.0
H471 H 0.96795 0.60323 0.94447 0.0
C472 C 0.24686 0.23813 0.38828 0.0
C473 C 0.26182 0.22642 0.36563 0.0
C474 C 0.22314 0.22265 0.40283 0.0
C475 C 0.21382 0.19515 0.39378 0.0
C476 C 0.22968 0.18299 0.37175 0.0
C477 C 0.25372 0.19874 0.35816 0.0
C478 C 0.20723 0.23608 0.42676 0.0
C479 C 0.22013 0.15389 0.36108 0.0
C480 C 0.16074 0.14314 0.43597 0.0
C481 C 0.13581 0.14308 0.42007 0.0
C482 C 0.18596 0.16136 0.42901 0.0
C483 C 0.18629 0.17956 0.40529 0.0
C484 C 0.16073 0.18061 0.39029 0.0
C485 C 0.13573 0.16243 0.39799 0.0
C486 C 0.21256 0.16018 0.44606 0.0
C487 C 0.16018 0.1997 0.3648 0.0
H488 H 0.25308 0.25966 0.39375 0.0
H489 H 0.26502 0.18994 0.34021 0.0
H490 H 0.18594 0.23843 0.41882 0.0
H491 H 0.20363 0.22307 0.44664 0.0
H492 H 0.21893 0.25659 0.43331 0.0
H493 H 0.23544 0.14718 0.34462 0.0
H494 H 0.21756 0.13977 0.38003 0.0
H495 H 0.19898 0.15203 0.35068 0.0
H496 H 0.16065 0.1285 0.45345 0.0
H497 H 0.11649 0.16238 0.38566 0.0
H498 H 0.2233 0.18108 0.45236 0.0
H499 H 0.22785 0.15087 0.43183 0.0
H500 H 0.2078 0.14789 0.46642 0.0
H501 H 0.16982 0.2209 0.3712 0.0
H502 H 0.13814 0.1997 0.35725 0.0
H503 H 0.17312 0.19338 0.34586 0.0
C504 C 0.35517 0.91186 0.75906 0.0
C505 C 0.35282 0.93624 0.74518 0.0
C506 C 0.37104 0.9122 0.78454 0.0
C507 C 0.38425 0.9376 0.79642 0.0
C508 C 0.38234 0.96233 0.78209 0.0
C509 C 0.36673 0.9613 0.75619 0.0
C510 C 0.373 0.88555 0.79921 0.0
C511 C 0.3958 0.98981 0.79471 0.0
C512 C 0.39191 0.94514 0.87852 0.0
C513 C 0.42161 0.94993 0.88066 0.0
C514 C 0.37934 0.94013 0.8511 0.0
C515 C 0.39706 0.9386 0.82566 0.0
C516 C 0.42694 0.94042 0.82816 0.0
C517 C 0.4391 0.9468 0.85584 0.0
C518 C 0.3475 0.93935 0.84913 0.0
C519 C 0.44609 0.93757 0.80143 0.0
H520 H 0.3445 0.89252 0.74989 0.0
H521 H 0.36487 0.97995 0.74491 0.0
H522 H 0.39563 0.88443 0.80356 0.0
H523 H 0.36135 0.88439 0.82092 0.0
H524 H 0.36382 0.8675 0.78549 0.0
H525 H 0.39255 1.00699 0.78057 0.0
H526 H 0.38651 0.99286 0.81713 0.0
H527 H 0.41908 0.99061 0.79716 0.0
H528 H 0.37867 0.94826 0.89786 0.0
H529 H 0.46214 0.95089 0.85782 0.0
H530 H 0.33741 0.92086 0.83672 0.0
H531 H 0.34354 0.95742 0.83688 0.0
H532 H 0.33676 0.93953 0.87132 0.0
H533 H 0.43711 0.91936 0.78789 0.0
H534 H 0.46808 0.93571 0.80779 0.0
H535 H 0.4474 0.95573 0.78726 0.0
C536 C 0.59439 0.40719 0.69757 0.0
C537 C 0.60352 0.42225 0.72353 0.0
C538 C 0.58264 0.41909 0.67345 0.0
C539 C 0.58042 0.44728 0.67419 0.0
C540 C 0.58992 0.46277 0.69997 0.0
C541 C 0.60077 0.45017 0.72414 0.0
C542 C 0.57242 0.40126 0.64708 0.0
C543 C 0.58867 0.49291 0.70209 0.0
C544 C 0.57297 0.48312 0.59977 0.0
C545 C 0.54408 0.48618 0.60051 0.0
C546 C 0.58508 0.47095 0.6235 0.0
C547 C 0.56782 0.46042 0.64839 0.0
C548 C 0.5384 0.4628 0.64866 0.0
C549 C 0.52718 0.47606 0.62527 0.0
C550 C 0.61664 0.47006 0.62229 0.0
C551 C 0.51857 0.45113 0.67367 0.0
H552 H 0.59659 0.3859 0.69568 0.0
H553 H 0.60682 0.46248 0.74373 0.0
H554 H 0.55015 0.4033 0.64212 0.0
H555 H 0.5859 0.40799 0.62724 0.0
H556 H 0.57317 0.37935 0.65071 0.0
H557 H 0.59893 0.50273 0.72232 0.0
H558 H 0.59944 0.50349 0.68236 0.0
H559 H 0.5661 0.49598 0.70241 0.0
H560 H 0.58641 0.49115 0.58107 0.0
H561 H 0.50487 0.47827 0.62621 0.0
H562 H 0.6201 0.44854 0.62223 0.0
H563 H 0.62684 0.48029 0.64233 0.0
H564 H 0.62752 0.48017 0.60233 0.0
H565 H 0.51937 0.42907 0.67595 0.0
H566 H 0.49608 0.45348 0.67016 0.0
H567 H 0.52556 0.46143 0.6949 0.0
C568 C 0.93998 0.60849 0.23304 0.0
C569 C 0.91471 0.61965 0.23182 0.0
C570 C 0.95103 0.59561 0.20804 0.0
C571 C 0.93665 0.59352 0.18074 0.0
C572 C 0.91136 0.60497 0.17922 0.0
C573 C 0.90082 0.61781 0.20451 0.0
C574 C 0.97801 0.58383 0.21102 0.0
C575 C 0.89513 0.60338 0.15083 0.0
C576 C 0.97711 0.57775 0.10865 0.0
C577 C 0.968 0.54944 0.10475 0.0
C578 C 0.96706 0.59234 0.13298 0.0
C579 C 0.94736 0.57846 0.15422 0.0
C580 C 0.93791 0.54994 0.15011 0.0
C581 C 0.94824 0.53592 0.12563 0.0
C582 C 0.97782 0.62264 0.13615 0.0
C583 C 0.91705 0.53404 0.17189 0.0
H584 H 0.95093 0.60925 0.25381 0.0
H585 H 0.88166 0.62665 0.20271 0.0
H586 H 0.97347 0.56142 0.20689 0.0
H587 H 0.99424 0.59269 0.19414 0.0
H588 H 0.98727 0.5878 0.23332 0.0
H589 H 0.87644 0.61407 0.15274 0.0
H590 H 0.90945 0.61253 0.13249 0.0
H591 H 0.88745 0.58166 0.14464 0.0
H592 H 0.99242 0.58849 0.09284 0.0
H593 H 0.94102 0.51408 0.12306 0.0
H594 H 0.9893 0.62701 0.15723 0.0
H595 H 0.95956 0.63387 0.13715 0.0
H596 H 0.99249 0.63066 0.11755 0.0
H597 H 0.92663 0.53505 0.19408 0.0
H598 H 0.91094 0.5122 0.16515 0.0
H599 H 0.89741 0.54325 0.17411 0.0
C600 C 0.44845 0.19861 0.16394 0.0
C601 C 0.41861 0.19575 0.16728 0.0
C602 C 0.46136 0.17769 0.1506 0.0
C603 C 0.44407 0.15308 0.14088 0.0
C604 C 0.41401 0.14977 0.14525 0.0
C605 C 0.40168 0.17118 0.15808 0.0
C606 C 0.4934 0.18233 0.14593 0.0
C607 C 0.39476 0.1237 0.13594 0.0
C608 C 0.46722 0.11039 0.07658 0.0
C609 C 0.47654 0.08901 0.09106 0.0
C610 C 0.45796 0.13195 0.09259 0.0
C611 C 0.45691 0.13165 0.12398 0.0
C612 C 0.46655 0.1101 0.13876 0.0
C613 C 0.47683 0.08928 0.12206 0.0
C614 C 0.44884 0.15485 0.07582 0.0
C615 C 0.46534 0.10867 0.17212 0.0
H616 H 0.46166 0.21755 0.17101 0.0
H617 H 0.37867 0.16861 0.16113 0.0
H618 H 0.50238 0.1652 0.1551 0.0
H619 H 0.49873 0.18293 0.12183 0.0
H620 H 0.50398 0.20176 0.15642 0.0
H621 H 0.37216 0.12338 0.1432 0.0
H622 H 0.39562 0.12136 0.11145 0.0
H623 H 0.40222 0.10577 0.14531 0.0
H624 H 0.46733 0.1103 0.05256 0.0
H625 H 0.48411 0.07273 0.13321 0.0
H626 H 0.46021 0.17491 0.08404 0.0
H627 H 0.42563 0.15457 0.0796 0.0
H628 H 0.45317 0.15322 0.05159 0.0
H629 H 0.48014 0.12623 0.18165 0.0
H630 H 0.4713 0.08946 0.18011 0.0
H631 H 0.44351 0.11009 0.1807 0.0
C632 C 0.12797 0.90126 0.57735 0.0
C633 C 0.15743 0.9071 0.57196 0.0
C634 C 0.1113 0.92127 0.57292 0.0
C635 C 0.12493 0.94739 0.56349 0.0
C636 C 0.15472 0.9533 0.55818 0.0
C637 C 0.17064 0.93286 0.56218 0.0
C638 C 0.07933 0.91444 0.57796 0.0
C639 C 0.16975 0.98125 0.54853 0.0
C640 C 0.08736 0.99182 0.51925 0.0
C641 C 0.0807 1.01025 0.54097 0.0
C642 C 0.10047 0.97021 0.5268 0.0
C643 C 0.10815 0.96813 0.55649 0.0
C644 C 0.10232 0.98734 0.57843 0.0
C645 C 0.08794 1.00818 0.57039 0.0
C646 C 0.10572 0.94947 0.50316 0.0
C647 C 0.11097 0.98564 0.61016 0.0
H648 H 0.11824 0.88132 0.58547 0.0
H649 H 0.19369 0.9374 0.55902 0.0
H650 H 0.07148 0.93059 0.59161 0.0
H651 H 0.06867 0.91346 0.55633 0.0
H652 H 0.07274 0.89449 0.58904 0.0
H653 H 0.19335 0.9828 0.54723 0.0
H654 H 0.16236 0.98584 0.52641 0.0
H655 H 0.16439 0.99722 0.56425 0.0
H656 H 0.08052 0.99332 0.4967 0.0
H657 H 0.08158 1.0222 0.58703 0.0
H658 H 0.09716 0.92846 0.51071 0.0
H659 H 0.12902 0.95078 0.49896 0.0
H660 H 0.09565 0.9527 0.48192 0.0
H661 H 0.10153 0.96544 0.61933 0.0
H662 H 0.10412 1.00191 0.62453 0.0
H663 H 0.13454 0.98751 0.61106 0.0
C664 C 0.79686 0.43226 0.94666 0.0
C665 C 0.79838 0.4195 0.91867 0.0
C666 C 0.82179 0.44321 0.96228 0.0
C667 C 0.84928 0.44221 0.94947 0.0
C668 C 0.85092 0.42937 0.92119 0.0
C669 C 0.82564 0.41796 0.90642 0.0
C670 C 0.81867 0.45605 0.99253 0.0
C671 C 0.87948 0.42823 0.90616 0.0
C672 C 0.91205 0.49678 0.97435 0.0
C673 C 0.92742 0.4823 0.99276 0.0
C674 C 0.88697 0.48403 0.96024 0.0
C675 C 0.87619 0.45592 0.96475 0.0
C676 C 0.89138 0.44115 0.98355 0.0
C677 C 0.91684 0.45437 0.99703 0.0
C678 C 0.87214 0.50074 0.94017 0.0
C679 C 0.88053 0.41137 0.98968 0.0
H680 H 0.77603 0.43332 0.9566 0.0
H681 H 0.82722 0.40833 0.8848 0.0
H682 H 0.83175 0.44748 1.0087 0.0
H683 H 0.82668 0.47837 0.99163 0.0
H684 H 0.79611 0.45277 1.0008 0.0
H685 H 0.8773 0.41738 0.88436 0.0
H686 H 0.8913 0.44929 0.90276 0.0
H687 H 0.89263 0.41772 0.92046 0.0
H688 H 0.91985 0.51828 0.97052 0.0
H689 H 0.92825 0.44288 1.01123 0.0
H690 H 0.85002 0.50098 0.94859 0.0
H691 H 0.8706 0.4913 0.91764 0.0
H692 H 0.88346 0.5222 0.9384 0.0
H693 H 0.8587 0.40894 0.99982 0.0
H694 H 0.89455 0.40268 1.00479 0.0
H695 H 0.879 0.39933 0.96864 0.0
C696 C 0.71786 0.60772 0.46083 0.0
C697 C 0.71955 0.62082 0.43334 0.0
C698 C 0.69131 0.59788 0.47508 0.0
C699 C 0.66546 0.60112 0.46173 0.0
C700 C 0.66697 0.61406 0.43388 0.0
C701 C 0.69381 0.62367 0.4201 0.0
C702 C 0.69092 0.58418 0.50463 0.0
C703 C 0.64017 0.6183 0.41885 0.0
C704 C 0.59421 0.5575 0.48718 0.0
C705 C 0.58297 0.57542 0.5069 0.0
C706 C 0.62103 0.56543 0.47255 0.0
C707 C 0.63698 0.59205 0.47739 0.0
C708 C 0.62554 0.6102 0.49718 0.0
C709 C 0.59892 0.60165 0.51172 0.0
C710 C 0.63237 0.54524 0.45198 0.0
C711 C 0.64144 0.63879 0.50302 0.0
H712 H 0.7374 0.60496 0.47123 0.0
H713 H 0.69459 0.63406 0.39917 0.0
H714 H 0.68056 0.59578 0.52179 0.0
H715 H 0.6781 0.56329 0.50337 0.0
H716 H 0.71273 0.58268 0.51188 0.0
H717 H 0.64477 0.62776 0.39678 0.0
H718 H 0.62557 0.59847 0.41604 0.0
H719 H 0.62867 0.63169 0.43293 0.0
H720 H 0.58217 0.53716 0.48341 0.0
H721 H 0.59047 0.61569 0.52687 0.0
H722 H 0.65341 0.5417 0.45957 0.0
H723 H 0.63579 0.5537 0.42937 0.0
H724 H 0.61766 0.52528 0.45076 0.0
H725 H 0.66252 0.63787 0.51249 0.0
H726 H 0.62949 0.65061 0.51857 0.0
H727 H 0.64552 0.65 0.48191 0.0
C728 C 0.25812 0.40262 0.17011 0.0
C729 C 0.25039 0.37507 0.17802 0.0
C730 C 0.23784 0.41718 0.15889 0.0
C731 C 0.20912 0.40395 0.15561 0.0
C732 C 0.20122 0.37629 0.16386 0.0
C733 C 0.22189 0.3622 0.17455 0.0
C734 C 0.24712 0.4467 0.15053 0.0
C735 C 0.17087 0.36134 0.16107 0.0
C736 C 0.14647 0.44186 0.14724 0.0
C737 C 0.14139 0.43861 0.11675 0.0
C738 C 0.16923 0.43187 0.16007 0.0
C739 C 0.18743 0.41819 0.14204 0.0
C740 C 0.18306 0.41573 0.11113 0.0
C741 C 0.16019 0.42591 0.09891 0.0
C742 C 0.17314 0.43506 0.19309 0.0
C743 C 0.20185 0.40124 0.09109 0.0
H744 H 0.27992 0.41292 0.17305 0.0
H745 H 0.21566 0.34082 0.17998 0.0
H746 H 0.24269 0.44936 0.12688 0.0
H747 H 0.23465 0.45982 0.16381 0.0
H748 H 0.27023 0.45399 0.15412 0.0
H749 H 0.16785 0.34034 0.17003 0.0
H750 H 0.15586 0.37281 0.17305 0.0
H751 H 0.16499 0.3599 0.13742 0.0
H752 H 0.13241 0.452 0.16121 0.0
H753 H 0.15638 0.42295 0.07542 0.0
H754 H 0.19552 0.44437 0.19786 0.0
H755 H 0.16892 0.41466 0.20347 0.0
H756 H 0.1586 0.44793 0.20369 0.0
H757 H 0.22469 0.40993 0.09436 0.0
H758 H 0.19706 0.40276 0.06731 0.0
H759 H 0.19878 0.37929 0.09683 0.0
C760 C 0.60882 0.20133 0.90137 0.0
C761 C 0.60478 0.22669 0.91377 0.0
C762 C 0.59748 0.17629 0.91522 0.0
C763 C 0.58214 0.17621 0.94273 0.0
C764 C 0.57876 0.20182 0.95578 0.0
C765 C 0.5897 0.22652 0.94108 0.0
C766 C 0.60123 0.14979 0.8999 0.0
C767 C 0.56342 0.20314 0.98537 0.0
C768 C 0.52506 0.11474 0.96502 0.0
C769 C 0.53937 0.10042 0.98457 0.0
C770 C 0.53894 0.13864 0.95075 0.0
C771 C 0.56787 0.14953 0.95674 0.0
C772 C 0.58253 0.13512 0.97651 0.0
C773 C 0.56829 0.11058 0.98977 0.0
C774 C 0.52237 0.15247 0.92943 0.0
C775 C 0.61307 0.14603 0.98429 0.0
H776 H 0.62027 0.20101 0.88029 0.0
H777 H 0.58677 0.24585 0.95123 0.0
H778 H 0.6117 0.13728 0.91478 0.0
H779 H 0.57998 0.13775 0.89467 0.0
H780 H 0.61422 0.15314 0.87903 0.0
H781 H 0.56431 0.22449 0.99368 0.0
H782 H 0.54068 0.19346 0.9835 0.0
H783 H 0.57299 0.19153 1.00199 0.0
H784 H 0.50271 0.10718 0.96084 0.0
H785 H 0.57945 0.09999 1.00516 0.0
H786 H 0.53421 0.15549 0.90787 0.0
H787 H 0.51993 0.17297 0.93828 0.0
H788 H 0.50077 0.1405 0.92548 0.0
H789 H 0.62713 0.14589 0.96427 0.0
H790 H 0.62085 0.1338 1.00163 0.0
H791 H 0.61513 0.16757 0.99227 0.0
C792 C 0.92973 0.81694 0.45412 0.0
C793 C 0.91995 0.81469 0.42499 0.0
C794 C 0.94078 0.84267 0.46704 0.0
C795 C 0.94269 0.86684 0.45028 0.0
C796 C 0.93308 0.86451 0.4207 0.0
C797 C 0.9216 0.8386 0.40859 0.0
C798 C 0.95013 0.84402 0.49876 0.0
C799 C 0.93488 0.88946 0.4018 0.0
C800 C 0.94735 0.93652 0.49029 0.0
C801 C 0.97642 0.94768 0.48686 0.0
C802 C 0.93611 0.91041 0.47852 0.0
C803 C 0.95449 0.89457 0.46355 0.0
C804 C 0.98408 0.90563 0.46068 0.0
C805 C 0.9946 0.93211 0.47205 0.0
C806 C 0.90448 0.89983 0.48202 0.0
C807 C 1.00468 0.88938 0.44571 0.0
H808 H 0.92823 0.79855 0.467 0.0
H809 H 0.91405 0.83698 0.38609 0.0
H810 H 0.97273 0.85431 0.50008 0.0
H811 H 0.93709 0.85639 0.51235 0.0
H812 H 0.94797 0.82343 0.50861 0.0
H813 H 0.92667 0.8843 0.37923 0.0
H814 H 0.92242 0.90411 0.41254 0.0
H815 H 0.9574 0.90001 0.39974 0.0
H816 H 0.9333 0.94842 0.50199 0.0
H817 H 0.01719 0.94046 0.46985 0.0
H818 H 0.90088 0.88057 0.49464 0.0
H819 H 0.89504 0.89503 0.45993 0.0
H820 H 0.89296 0.91477 0.49369 0.0
H821 H 1.00375 0.86967 0.45711 0.0
H822 H 0.02706 0.90053 0.44574 0.0
H823 H 0.99847 0.88451 0.42246 0.0
C824 C 0.35811 0.76799 0.53804 0.0
C825 C 0.34042 0.76308 0.56339 0.0
C826 C 0.37542 0.74923 0.52874 0.0
C827 C 0.37482 0.72542 0.54541 0.0
C828 C 0.35457 0.719 0.56896 0.0
C829 C 0.33752 0.73805 0.57769 0.0
C830 C 0.3963 0.75623 0.50311 0.0
C831 C 0.35322 0.69363 0.58724 0.0
C832 C 0.41324 0.66659 0.53281 0.0
C833 C 0.43465 0.67323 0.55368 0.0
C834 C 0.39521 0.68511 0.52685 0.0
C835 C 0.39862 0.71019 0.54277 0.0
C836 C 0.42218 0.718 0.56149 0.0
C837 C 0.44018 0.69929 0.56656 0.0
C838 C 0.37071 0.67657 0.50623 0.0
C839 C 0.42629 0.74455 0.57912 0.0
H840 H 0.35967 0.78721 0.52664 0.0
H841 H 0.32376 0.73432 0.59729 0.0
H842 H 0.41779 0.76429 0.51177 0.0
H843 H 0.39807 0.73779 0.48934 0.0
H844 H 0.39 0.77205 0.48888 0.0
H845 H 0.33393 0.69008 0.60211 0.0
H846 H 0.35316 0.67531 0.57277 0.0
H847 H 0.37239 0.69585 0.60115 0.0
H848 H 0.40941 0.64628 0.52278 0.0
H849 H 0.45684 0.70406 0.58271 0.0
H850 H 0.36651 0.69418 0.49338 0.0
H851 H 0.35103 0.66877 0.51942 0.0
H852 H 0.37498 0.66007 0.49059 0.0
H853 H 0.42392 0.7619 0.56491 0.0
H854 H 0.44759 0.74901 0.58939 0.0
H855 H 0.40967 0.7433 0.59709 0.0
C856 C 0.75407 0.8491 0.67581 0.0
C857 C 0.75821 0.82832 0.69485 0.0
C858 C 0.77747 0.86603 0.66235 0.0
C859 C 0.80558 0.86247 0.66882 0.0
C860 C 0.80975 0.84063 0.68691 0.0
C861 C 0.78596 0.82364 0.69948 0.0
C862 C 0.77217 0.88866 0.64258 0.0
C863 C 0.83933 0.83644 0.69481 0.0
C864 C 0.87026 0.89889 0.62526 0.0
C865 C 0.87919 0.92181 0.64354 0.0
C866 C 0.846 0.87959 0.63285 0.0
C867 C 0.83051 0.88323 0.65947 0.0
C868 C 0.83935 0.90642 0.6779 0.0
C869 C 0.8635 0.92546 0.66965 0.0
C870 C 0.83699 0.8553 0.6125 0.0
C871 C 0.82357 0.9109 0.70664 0.0
H872 H 0.73255 0.85269 0.6723 0.0
H873 H 0.78916 0.80783 0.71459 0.0
H874 H 0.77876 0.90872 0.65389 0.0
H875 H 0.78519 0.88876 0.62176 0.0
H876 H 0.7493 0.88663 0.63693 0.0
H877 H 0.83895 0.8171 0.70687 0.0
H878 H 0.8531 0.83616 0.67459 0.0
H879 H 0.84935 0.85373 0.70907 0.0
H880 H 0.8821 0.89619 0.60484 0.0
H881 H 0.87049 0.94299 0.68399 0.0
H882 H 0.81464 0.85473 0.60573 0.0
H883 H 0.83757 0.83607 0.62434 0.0
H884 H 0.85095 0.85579 0.59227 0.0
H885 H 0.80097 0.91209 0.70226 0.0
H886 H 0.83329 0.92993 0.71848 0.0
H887 H 0.82347 0.89333 0.72144 0.0
C888 C 0.64924 0.15253 0.30321 0.0
C889 C 0.67225 0.13837 0.30377 0.0
C890 C 0.62809 0.1458 0.2823 0.0
C891 C 0.63045 0.12467 0.26153 0.0
C892 C 0.65309 0.10952 0.26279 0.0
C893 C 0.67378 0.11649 0.28426 0.0
C894 C 0.60392 0.16192 0.28168 0.0
C895 C 0.65621 0.0869 0.24063 0.0
C896 C 0.57434 0.08894 0.21133 0.0
C897 C 0.58484 0.10052 0.18439 0.0
C898 C 0.5872 0.09866 0.23777 0.0
C899 C 0.61106 0.12 0.23659 0.0
C900 C 0.61929 0.1339 0.20987 0.0
C901 C 0.60573 0.12406 0.18392 0.0
C902 C 0.57749 0.08397 0.26616 0.0
C903 C 0.64483 0.15667 0.20782 0.0
H904 H 0.64806 0.16914 0.31896 0.0
H905 H 0.69164 0.1056 0.28516 0.0
H906 H 0.60566 0.17398 0.26111 0.0
H907 H 0.58306 0.14787 0.28146 0.0
H908 H 0.60401 0.1762 0.30098 0.0
H909 H 0.67417 0.07626 0.24577 0.0
H910 H 0.63623 0.0716 0.24011 0.0
H911 H 0.66005 0.0955 0.2181 0.0
H912 H 0.5579 0.07082 0.21138 0.0
H913 H 0.61378 0.13283 0.16289 0.0
H914 H 0.57836 0.09856 0.28521 0.0
H915 H 0.59196 0.06934 0.27073 0.0
H916 H 0.55539 0.07231 0.26466 0.0
H917 H 0.64468 0.17145 0.22656 0.0
H918 H 0.64556 0.16789 0.18672 0.0
H919 H 0.6647 0.14787 0.20899 0.0
C920 C 0.43743 0.63761 0.33955 0.0
C921 C 0.40829 0.64032 0.33957 0.0
C922 C 0.44954 0.62576 0.36344 0.0
C923 C 0.43231 0.61535 0.38828 0.0
C924 C 0.40291 0.61767 0.38845 0.0
C925 C 0.39151 0.6303 0.36466 0.0
C926 C 0.481 0.6243 0.36195 0.0
C927 C 0.38323 0.6065 0.4138 0.0
C928 C 0.45881 0.56028 0.43437 0.0
C929 C 0.46895 0.57456 0.46032 0.0
C930 C 0.44648 0.57302 0.4114 0.0
C931 C 0.44478 0.6013 0.41344 0.0
C932 C 0.45514 0.61593 0.43953 0.0
C933 C 0.4666 0.60241 0.46266 0.0
C934 C 0.43494 0.55598 0.38495 0.0
C935 C 0.45468 0.64614 0.4428 0.0
H936 H 0.45104 0.64439 0.32059 0.0
H937 H 0.36924 0.63242 0.36607 0.0
H938 H 0.49136 0.63322 0.38248 0.0
H939 H 0.48395 0.60264 0.3604 0.0
H940 H 0.49214 0.63527 0.3426 0.0
H941 H 0.36064 0.6083 0.41007 0.0
H942 H 0.38443 0.58463 0.41704 0.0
H943 H 0.39007 0.61764 0.43464 0.0
H944 H 0.46008 0.53874 0.43215 0.0
H945 H 0.47436 0.61387 0.48235 0.0
H946 H 0.44698 0.56365 0.36455 0.0
H947 H 0.41224 0.55775 0.38192 0.0
H948 H 0.43636 0.53403 0.38724 0.0
H949 H 0.46771 0.65722 0.42461 0.0
H950 H 0.46314 0.65468 0.46435 0.0
H951 H 0.43256 0.65012 0.4409 0.0
C952 C 0.07527 0.42272 0.84671 0.0
C953 C 0.09935 0.43595 0.83059 0.0
C954 C 0.06343 0.43554 0.87125 0.0
C955 C 0.07567 0.46252 0.88019 0.0
C956 C 0.10024 0.47584 0.86432 0.0
C957 C 0.11172 0.46249 0.83996 0.0
C958 C 0.03741 0.42031 0.88733 0.0
C959 C 0.11418 0.50451 0.87278 0.0
C960 C 0.02904 0.50858 0.92035 0.0
C961 C 0.03625 0.50727 0.95017 0.0
C962 C 0.04107 0.49367 0.89777 0.0
C963 C 0.06174 0.47746 0.9047 0.0
C964 C 0.0692 0.47607 0.93487 0.0
C965 C 0.05611 0.49064 0.95723 0.0
C966 C 0.03177 0.49549 0.8663 0.0
C967 C 0.09151 0.45968 0.94347 0.0
H968 H 0.06565 0.40212 0.84022 0.0
H969 H 0.13009 0.47322 0.82775 0.0
H970 H 0.0415 0.41956 0.91134 0.0
H971 H 0.01916 0.43129 0.88506 0.0
H972 H 0.03115 0.39906 0.8787 0.0
H973 H 0.1336 0.51185 0.85893 0.0
H974 H 0.09884 0.51877 0.87036 0.0
H975 H 0.1202 0.50536 0.89638 0.0
H976 H 0.01368 0.5213 0.91462 0.0
H977 H 0.06219 0.48979 0.98008 0.0
H978 H 0.02394 0.4747 0.85718 0.0
H979 H 0.05026 0.50475 0.85217 0.0
H980 H 0.01457 0.50791 0.86465 0.0
H981 H 0.08526 0.43806 0.93613 0.0
H982 H 0.09473 0.46029 0.96776 0.0
H983 H 0.11218 0.46775 0.93212 0.0
C984 C 0.61005 0.88966 0.89932 0.0
C985 C 0.59538 0.86294 0.89409 0.0
C986 C 0.59634 0.90997 0.91245 0.0
C987 C 0.56728 0.90347 0.92166 0.0
C988 C 0.55224 0.87654 0.91678 0.0
C989 C 0.56637 0.85668 0.90287 0.0
C990 C 0.61327 0.93838 0.91696 0.0
C991 C 0.52136 0.86862 0.92667 0.0
C992 C 0.54936 0.95005 0.98471 0.0
C993 C 0.53542 0.96844 0.97022 0.0
C994 C 0.55804 0.92781 0.96948 0.0
C995 C 0.55376 0.92441 0.93862 0.0
C996 C 0.53908 0.94266 0.92393 0.0
C997 C 0.52956 0.9642 0.94009 0.0
C998 C 0.57248 0.90833 0.98637 0.0
C999 C 0.53468 0.94029 0.89097 0.0
H1000 H 0.63258 0.89479 0.89348 0.0
H1001 H 0.55461 0.83631 0.8987 0.0
H1002 H 0.60151 0.95386 0.90828 0.0
H1003 H 0.61617 0.94273 0.94098 0.0
H1004 H 0.63471 0.94089 0.90583 0.0
H1005 H 0.5127 0.84684 0.92151 0.0
H1006 H 0.51917 0.87217 0.95091 0.0
H1007 H 0.50812 0.88162 0.91572 0.0
H1008 H 0.55334 0.953 1.00818 0.0
H1009 H 0.5186 0.97835 0.92895 0.0
H1010 H 0.59531 0.91065 0.97927 0.0
H1011 H 0.56247 0.88687 0.98148 0.0
H1012 H 0.57132 0.912 1.0107 0.0
H1013 H 0.55565 0.94549 0.87912 0.0
H1014 H 0.52042 0.95417 0.88343 0.0
H1015 H 0.52544 0.91899 0.88451 0.0
C1016 C 0.87392 0.15612 0.51347 0.0
C1017 C 0.84506 0.14447 0.51731 0.0
C1018 C 0.89504 0.14073 0.51877 0.0
C1019 C 0.88648 0.11319 0.52688 0.0
C1020 C 0.85772 0.10269 0.53455 0.0
C1021 C 0.83734 0.11916 0.5309 0.0
C1022 C 0.9259 0.153 0.51232 0.0
C1023 C 0.84791 0.07306 0.54257 0.0
C1024 C 0.92566 0.05993 0.49407 0.0
C1025 C 0.93682 0.05147 0.51969 0.0
C1026 C 0.90977 0.08107 0.49582 0.0
C1027 C 0.90642 0.09413 0.52366 0.0
C1028 C 0.91907 0.08642 0.54917 0.0
C1029 C 0.93349 0.06449 0.54703 0.0
C1030 C 0.89647 0.08922 0.46815 0.0
C1031 C 0.91746 0.10136 0.57853 0.0
H1032 H 0.87997 0.17598 0.5034 0.0
H1033 H 0.81492 0.11083 0.53484 0.0
H1034 H 0.94075 0.14326 0.52533 0.0
H1035 H 0.93095 0.15016 0.48843 0.0
H1036 H 0.9298 0.17534 0.51726 0.0
H1037 H 0.82473 0.06848 0.54842 0.0
H1038 H 0.85214 0.05969 0.52351 0.0
H1039 H 0.85997 0.06758 0.56152 0.0
H1040 H 0.92961 0.05029 0.47292 0.0
H1041 H 0.94352 0.05834 0.56647 0.0
H1042 H 0.90488 0.11096 0.46327 0.0
H1043 H 0.87297 0.08719 0.4716 0.0
H1044 H 0.90087 0.07657 0.44852 0.0
H1045 H 0.92286 0.12378 0.57538 0.0
H1046 H 0.93215 0.09533 0.59487 0.0
H1047 H 0.89537 0.09691 0.58795 0.0
C1048 C 0.19024 0.64637 0.14739 0.0
C1049 C 0.21614 0.63749 0.1399 0.0
C1050 C 0.16465 0.63593 0.13261 0.0
C1051 C 0.16447 0.61564 0.1099 0.0
C1052 C 0.19056 0.6066 0.10227 0.0
C1053 C 0.21592 0.6177 0.11708 0.0
C1054 C 0.13765 0.6465 0.14151 0.0
C1055 C 0.19164 0.58483 0.07862 0.0
C1056 C 0.09488 0.56635 0.09306 0.0
C1057 C 0.08554 0.57691 0.06711 0.0
C1058 C 0.11989 0.57902 0.10734 0.0
C1059 C 0.13686 0.60278 0.09529 0.0
C1060 C 0.12758 0.61367 0.0691 0.0
C1061 C 0.10193 0.60089 0.0556 0.0
C1062 C 0.12825 0.56677 0.1354 0.0
C1063 C 0.14497 0.63868 0.05509 0.0
H1064 H 0.19004 0.66186 0.16465 0.0
H1065 H 0.23559 0.61043 0.11113 0.0
H1066 H 0.12843 0.6544 0.12186 0.0
H1067 H 0.12149 0.62956 0.15037 0.0
H1068 H 0.14141 0.66309 0.15859 0.0
H1069 H 0.21357 0.58034 0.07471 0.0
H1070 H 0.17734 0.56566 0.08514 0.0
H1071 H 0.1838 0.59136 0.05749 0.0
H1072 H 0.08237 0.54807 0.10252 0.0
H1073 H 0.09511 0.60928 0.0356 0.0
H1074 H 0.13042 0.58232 0.15359 0.0
H1075 H 0.14934 0.56031 0.132 0.0
H1076 H 0.1124 0.54879 0.14253 0.0
H1077 H 0.14663 0.65628 0.07088 0.0
H1078 H 0.13551 0.64423 0.03435 0.0
H1079 H 0.16702 0.6351 0.04997 0.0
C1080 C 0.31379 0.42421 0.62101 0.0
C1081 C 0.29231 0.43991 0.62788 0.0
C1082 C 0.33964 0.43548 0.60644 0.0
C1083 C 0.34518 0.4636 0.59953 0.0
C1084 C 0.3242 0.47986 0.60705 0.0
C1085 C 0.29798 0.46781 0.62054 0.0
C1086 C 0.36098 0.41711 0.59817 0.0
C1087 C 0.32938 0.51006 0.60065 0.0
C1088 C 0.42365 0.49551 0.58518 0.0
C1089 C 0.42547 0.49594 0.55412 0.0
C1090 C 0.39758 0.48565 0.60025 0.0
C1091 C 0.37271 0.47576 0.58394 0.0
C1092 C 0.37442 0.47662 0.55256 0.0
C1093 C 0.40065 0.48677 0.53811 0.0
C1094 C 0.39675 0.48545 0.63368 0.0
C1095 C 0.34872 0.46601 0.53413 0.0
H1096 H 0.31068 0.40294 0.62711 0.0
H1097 H 0.28184 0.48041 0.62491 0.0
H1098 H 0.36598 0.41816 0.57402 0.0
H1099 H 0.38126 0.42416 0.60975 0.0
H1100 H 0.35302 0.39543 0.60388 0.0
H1101 H 0.3119 0.52033 0.60966 0.0
H1102 H 0.34981 0.52014 0.61033 0.0
H1103 H 0.33135 0.51316 0.57637 0.0
H1104 H 0.4427 0.50256 0.59772 0.0
H1105 H 0.40183 0.48701 0.5141 0.0
H1106 H 0.39159 0.46409 0.64146 0.0
H1107 H 0.37966 0.49631 0.64246 0.0
H1108 H 0.41742 0.49523 0.64316 0.0
H1109 H 0.34183 0.4438 0.53786 0.0
H1110 H 0.35321 0.4692 0.51006 0.0
H1111 H 0.33055 0.47628 0.54096 0.0
C1112 C 0.75585 0.65611 0.89245 0.0
C1113 C 0.76258 0.68027 0.87637 0.0
C1114 C 0.77758 0.64282 0.90266 0.0
C1115 C 0.80672 0.65404 0.8967 0.0
C1116 C 0.81338 0.67776 0.87916 0.0
C1117 C 0.79125 0.6906 0.86931 0.0
C1118 C 0.76939 0.6174 0.92085 0.0
C1119 C 0.84396 0.69025 0.87178 0.0
C1120 C 0.86161 0.64453 0.95375 0.0
C1121 C 0.87575 0.62463 0.94035 0.0
C1122 C 0.83909 0.65387 0.93989 0.0
C1123 C 0.83016 0.64317 0.9117 0.0
C1124 C 0.84423 0.62302 0.89791 0.0
C1125 C 0.86689 0.61406 0.91234 0.0
C1126 C 0.82502 0.67554 0.95537 0.0
C1127 C 0.83522 0.61078 0.86807 0.0
H1128 H 0.73362 0.64798 0.89763 0.0
H1129 H 0.79637 0.70913 0.85653 0.0
H1130 H 0.78103 0.60112 0.9125 0.0
H1131 H 0.77557 0.62204 0.94416 0.0
H1132 H 0.74606 0.60944 0.92055 0.0
H1133 H 0.84552 0.70736 0.85603 0.0
H1134 H 0.85494 0.69811 0.89237 0.0
H1135 H 0.8556 0.67453 0.86197 0.0
H1136 H 0.86851 0.65325 0.97509 0.0
H1137 H 0.8774 0.5985 0.90185 0.0
H1138 H 0.80178 0.66799 0.95849 0.0
H1139 H 0.82752 0.69401 0.94148 0.0
H1140 H 0.8342 0.68156 0.97737 0.0
H1141 H 0.81311 0.59916 0.86991 0.0
H1142 H 0.8495 0.59677 0.85936 0.0
H1143 H 0.83507 0.62715 0.85178 0.0
C1144 C 0.42545 0.83311 0.11811 0.0
C1145 C 0.40963 0.83209 0.14509 0.0
C1146 C 0.43642 0.85815 0.10415 0.0
C1147 C 0.43181 0.88334 0.11725 0.0
C1148 C 0.4156 0.88252 0.14427 0.0
C1149 C 0.40481 0.85714 0.15775 0.0
C1150 C 0.45346 0.85764 0.07546 0.0
C1151 C 0.40989 0.90858 0.1592 0.0
C1152 C 0.48769 0.94629 0.0968 0.0
C1153 C 0.47389 0.95944 0.07572 0.0
C1154 C 0.4739 0.92239 0.11112 0.0
C1155 C 0.44562 0.91039 0.10373 0.0
C1156 C 0.43137 0.92377 0.08263 0.0
C1157 C 0.44551 0.94824 0.06917 0.0
C1158 C 0.48998 0.90961 0.13382 0.0
C1159 C 0.40155 0.91166 0.07337 0.0
H1160 H 0.42985 0.81423 0.10801 0.0
H1161 H 0.39229 0.85696 0.17821 0.0
H1162 H 0.44453 0.86918 0.05831 0.0
H1163 H 0.47586 0.86783 0.0788 0.0
H1164 H 0.45365 0.83649 0.06699 0.0
H1165 H 0.39646 0.90467 0.17972 0.0
H1166 H 0.43041 0.92171 0.16492 0.0
H1167 H 0.39897 0.92024 0.1438 0.0
H1168 H 0.50963 0.95468 0.102 0.0
H1169 H 0.43479 0.9579 0.05256 0.0
H1170 H 0.49353 0.88918 0.12574 0.0
H1171 H 0.47719 0.90659 0.15482 0.0
H1172 H 0.51104 0.9223 0.1386 0.0
H1173 H 0.40193 0.89191 0.0615 0.0
H1174 H 0.39249 0.92538 0.05857 0.0
H1175 H 0.38717 0.9073 0.09311 0.0
C1176 C 0.06809 0.23673 0.61997 0.0
C1177 C 0.09541 0.24167 0.63233 0.0
C1178 C 0.05689 0.21129 0.60648 0.0
C1179 C 0.07339 0.19003 0.60472 0.0
C1180 C 0.10107 0.19493 0.61673 0.0
C1181 C 0.11152 0.22033 0.63057 0.0
C1182 C 0.02725 0.20713 0.59416 0.0
C1183 C 0.11979 0.17325 0.61496 0.0
C1184 C 0.03683 0.11506 0.59551 0.0
C1185 C 0.04045 0.11006 0.565 0.0
C1186 C 0.04699 0.14095 0.60852 0.0
C1187 C 0.06163 0.16254 0.59084 0.0
C1188 C 0.06547 0.15757 0.56004 0.0
C1189 C 0.05468 0.13163 0.54753 0.0
C1190 C 0.04203 0.14523 0.64132 0.0
C1191 C 0.08124 0.17961 0.54023 0.0
H1192 H 0.05541 0.25289 0.62046 0.0
H1193 H 0.13237 0.22322 0.64037 0.0
H1194 H 0.02814 0.20206 0.57014 0.0
H1195 H 0.01355 0.1896 0.60514 0.0
H1196 H 0.017 0.22551 0.5973 0.0
H1197 H 0.14119 0.18047 0.62434 0.0
H1198 H 0.10933 0.15489 0.62715 0.0
H1199 H 0.1227 0.16684 0.59153 0.0
H1200 H 0.02577 0.09876 0.60929 0.0
H1201 H 0.05777 0.12817 0.52397 0.0
H1202 H 0.03046 0.16263 0.64515 0.0
H1203 H 0.06283 0.15053 0.65242 0.0
H1204 H 0.02952 0.1268 0.65192 0.0
H1205 H 0.06964 0.19715 0.54012 0.0
H1206 H 0.08363 0.17221 0.51704 0.0
H1207 H 0.10281 0.18733 0.54888 0.0
C1208 C 0.68798 0.32128 0.499 0.0
C1209 C 0.67663 0.29345 0.50099 0.0
C1210 C 0.67055 0.34081 0.50454 0.0
C1211 C 0.64136 0.33189 0.51196 0.0
C1212 C 0.63069 0.304 0.51713 0.0
C1213 C 0.64865 0.28497 0.51165 0.0
C1214 C 0.68252 0.37053 0.49902 0.0
C1215 C 0.59952 0.29385 0.52457 0.0
C1216 C 0.59409 0.38444 0.52688 0.0
C1217 C 0.58366 0.38671 0.49851 0.0
C1218 C 0.61284 0.36633 0.53187 0.0
C1219 C 0.62107 0.35049 0.50786 0.0
C1220 C 0.61012 0.35238 0.47931 0.0
C1221 C 0.59145 0.37055 0.47501 0.0
C1222 C 0.62424 0.36449 0.56249 0.0
C1223 C 0.61862 0.33576 0.4531 0.0
H1224 H 0.70984 0.32759 0.49103 0.0
H1225 H 0.63998 0.26333 0.51296 0.0
H1226 H 0.67502 0.37645 0.47745 0.0
H1227 H 0.67485 0.38382 0.51643 0.0
H1228 H 0.70626 0.37448 0.4983 0.0
H1229 H 0.59585 0.27259 0.53285 0.0
H1230 H 0.59135 0.3073 0.54148 0.0
H1231 H 0.58686 0.29417 0.50435 0.0
H1232 H 0.58778 0.39699 0.545 0.0
H1233 H 0.58363 0.37278 0.45303 0.0
H1234 H 0.64778 0.37106 0.56194 0.0
H1235 H 0.61988 0.343 0.56996 0.0
H1236 H 0.61471 0.37743 0.57902 0.0
H1237 H 0.64192 0.34139 0.44839 0.0
H1238 H 0.60715 0.33903 0.43274 0.0
H1239 H 0.61412 0.31365 0.45816 0.0
loop_
_geom_bond_atom_site_label_1
_geom_bond_atom_site_label_2
_geom_bond_distance
_geom_bond_site_symmetry_2
_ccdc_geom_bond_type
C0 C1 1.386 . S
C0 C2 1.397 . S
C0 H24 0.931 . S
C1 C0 1.386 . S
C1 C5 1.397 . S
C2 C0 1.397 . S
C2 C3 1.384 . S
C2 H25 0.930 . S
C3 C2 1.384 . S
C3 C4 1.377 . S
C3 C6 1.481 . S
C4 C3 1.377 . S
C4 C5 1.389 . S
C4 H26 0.929 . S
C5 C1 1.397 . S
C5 C4 1.389 . S
C5 H27 0.931 . S
C6 C3 1.481 . S
C6 C7 1.387 . S
C6 C11 1.390 . S
C7 C6 1.387 . S
C7 C8 1.401 . S
C7 H28 0.930 . S
C8 C7 1.401 . S
C8 C9 1.376 . S
C8 C17 1.511 . S
C9 C8 1.376 . S
C9 C10 1.392 . S
C9 H30 0.931 . S
C10 C9 1.392 . S
C10 C11 1.361 . S
C10 C12 1.500 . S
C11 C6 1.390 . S
C11 C10 1.361 . S
C11 H29 0.931 . S
C12 C10 1.500 . S
C12 C13 1.371 . S
C12 C14 1.365 . S
C13 C12 1.371 . S
C13 C23 1.386 . S
C13 H31 0.931 . S
C14 C12 1.365 . S
C14 C15 1.409 . S
C14 H32 0.929 . S
C15 C14 1.409 . S
C15 C16 1.380 . S
C15 H33 0.930 . S
C16 C15 1.380 . S
C16 C23 1.357 . S
C17 C8 1.511 . S
C17 C18 1.341 . S
C17 C19 1.371 . S
C18 C17 1.341 . S
C18 C22 1.394 . S
C18 H34 0.930 . S
C19 C17 1.371 . S
C19 C20 1.392 . S
C19 H35 0.931 . S
C20 C19 1.392 . S
C20 C21 1.331 . S
C20 H38 0.932 . S
C21 C20 1.331 . S
C21 C22 1.336 . S
C22 C18 1.394 . S
C22 C21 1.336 . S
C22 H37 0.929 . S
C23 C13 1.386 . S
C23 C16 1.357 . S
C23 H36 0.928 . S
H24 C0 0.931 . S
H25 C2 0.930 . S
H26 C4 0.929 . S
H27 C5 0.931 . S
H28 C7 0.930 . S
H29 C11 0.931 . S
H30 C9 0.931 . S
H31 C13 0.931 . S
H32 C14 0.929 . S
H33 C15 0.930 . S
H34 C18 0.930 . S
H35 C19 0.931 . S
H36 C23 0.928 . S
H37 C22 0.929 . S
H38 C20 0.932 . S
C39 C40 1.386 . S
C39 C41 1.397 . S
C39 H63 0.931 . S
C40 C39 1.386 . S
C40 C44 1.397 . S
C41 C39 1.397 . S
C41 C42 1.384 . S
C41 H64 0.930 . S
C42 C41 1.384 . S
C42 C43 1.377 . S
C42 C45 1.481 . S
C43 C42 1.377 . S
C43 C44 1.389 . S
C43 H65 0.929 . S
C44 C40 1.397 . S
C44 C43 1.389 . S
C44 H66 0.931 . S
C45 C42 1.481 . S
C45 C46 1.387 . S
C45 C50 1.390 . S
C46 C45 1.387 . S
C46 C47 1.401 . S
C46 H67 0.930 . S
C47 C46 1.401 . S
C47 C48 1.376 . S
C47 C56 1.511 . S
C48 C47 1.376 . S
C48 C49 1.392 . S
C48 H69 0.931 . S
C49 C48 1.392 . S
C49 C50 1.361 . S
C49 C51 1.500 . S
C50 C45 1.390 . S
C50 C49 1.361 . S
C50 H68 0.931 . S
C51 C49 1.500 . S
C51 C52 1.371 . S
C51 C53 1.365 . S
C52 C51 1.371 . S
C52 C62 1.386 . S
C52 H70 0.931 . S
C53 C51 1.365 . S
C53 C54 1.409 . S
C53 H71 0.929 . S
C54 C53 1.409 . S
C54 C55 1.380 . S
C54 H72 0.930 . S
C55 C54 1.380 . S
C55 C62 1.357 . S
C56 C47 1.511 . S
C56 C57 1.341 . S
C56 C58 1.371 . S
C57 C56 1.341 . S
C57 C61 1.394 . S
C57 H73 0.930 . S
C58 C56 1.371 . S
C58 C59 1.392 . S
C58 H74 0.931 . S
C59 C58 1.392 . S
C59 C60 1.331 . S
C59 H77 0.932 . S
C60 C59 1.331 . S
C60 C61 1.336 . S
C61 C57 1.394 . S
C61 C60 1.336 . S
C61 H76 0.929 . S
C62 C52 1.386 . S
C62 C55 1.357 . S
C62 H75 0.928 . S
H63 C39 0.931 . S
H64 C41 0.930 . S
H65 C43 0.929 . S
H66 C44 0.931 . S
H67 C46 0.930 . S
H68 C50 0.931 . S
H69 C48 0.931 . S
H70 C52 0.931 . S
H71 C53 0.929 . S
H72 C54 0.930 . S
H73 C57 0.930 . S
H74 C58 0.931 . S
H75 C62 0.928 . S
H76 C61 0.929 . S
H77 C59 0.932 . S
C78 C79 1.386 . S
C78 C80 1.397 . S
C78 H102 0.931 . S
C79 C78 1.386 . S
C79 C83 1.397 . S
C80 C78 1.397 . S
C80 C81 1.384 . S
C80 H103 0.930 . S
C81 C80 1.384 . S
C81 C82 1.377 . S
C81 C84 1.481 . S
C82 C81 1.377 . S
C82 C83 1.389 . S
C82 H104 0.929 . S
C83 C79 1.397 . S
C83 C82 1.389 . S
C83 H105 0.931 . S
C84 C81 1.481 . S
C84 C85 1.387 . S
C84 C89 1.390 . S
C85 C84 1.387 . S
C85 C86 1.401 . S
C85 H106 0.930 . S
C86 C85 1.401 . S
C86 C87 1.376 . S
C86 C95 1.511 . S
C87 C86 1.376 . S
C87 C88 1.392 . S
C87 H108 0.931 . S
C88 C87 1.392 . S
C88 C89 1.361 . S
C88 C90 1.500 . S
C89 C84 1.390 . S
C89 C88 1.361 . S
C89 H107 0.931 . S
C90 C88 1.500 . S
C90 C91 1.371 . S
C90 C92 1.365 . S
C91 C90 1.371 . S
C91 C101 1.386 . S
C91 H109 0.931 . S
C92 C90 1.365 . S
C92 C93 1.409 . S
C92 H110 0.929 . S
C93 C92 1.409 . S
C93 C94 1.380 . S
C93 H111 0.930 . S
C94 C93 1.380 . S
C94 C101 1.357 . S
C95 C86 1.511 . S
C95 C96 1.341 . S
C95 C97 1.371 . S
C96 C95 1.341 . S
C96 C100 1.394 . S
C96 H112 0.930 . S
C97 C95 1.371 . S
C97 C98 1.392 . S
C97 H113 0.931 . S
C98 C97 1.392 . S
C98 C99 1.331 . S
C98 H116 0.932 . S
C99 C98 1.331 . S
C99 C100 1.336 . S
C100 C96 1.394 . S
C100 C99 1.336 . S
C100 H115 0.929 . S
C101 C91 1.386 . S
C101 C94 1.357 . S
C101 H114 0.928 . S
H102 C78 0.931 . S
H103 C80 0.930 . S
H104 C82 0.929 . S
H105 C83 0.931 . S
H106 C85 0.930 . S
H107 C89 0.931 . S
H108 C87 0.931 . S
H109 C91 0.931 . S
H110 C92 0.929 . S
H111 C93 0.930 . S
H112 C96 0.930 . S
H113 C97 0.931 . S
H114 C101 0.928 . S
H115 C100 0.929 . S
H116 C98 0.932 . S
C117 C118 1.386 . S
C117 C119 1.397 . S
C117 H141 0.931 . S
C118 C117 1.386 . S
C118 C122 1.397 . S
C119 C117 1.397 . S
C119 C120 1.384 . S
C119 H142 0.930 . S
C120 C119 1.384 . S
C120 C121 1.377 . S
C120 C123 1.481 . S
C121 C120 1.377 . S
C121 C122 1.389 . S
C121 H143 0.929 . S
C122 C118 1.397 . S
C122 C121 1.389 . S
C122 H144 0.931 . S
C123 C120 1.481 . S
C123 C124 1.387 . S
C123 C128 1.390 . S
C124 C123 1.387 . S
C124 C125 1.401 . S
C124 H145 0.930 . S
C125 C124 1.401 . S
C125 C126 1.376 . S
C125 C134 1.511 . S
C126 C125 1.376 . S
C126 C127 1.392 . S
C126 H147 0.931 . S
C127 C126 1.392 . S
C127 C128 1.361 . S
C127 C129 1.500 . S
C128 C123 1.390 . S
C128 C127 1.361 . S
C128 H146 0.931 . S
C129 C127 1.500 . S
C129 C130 1.371 . S
C129 C131 1.365 . S
C130 C129 1.371 . S
C130 C140 1.386 . S
C130 H148 0.931 . S
C131 C129 1.365 . S
C131 C132 1.409 . S
C131 H149 0.929 . S
C132 C131 1.409 . S
C132 C133 1.380 . S
C132 H150 0.930 . S
C133 C132 1.380 . S
C133 C140 1.357 . S
C134 C125 1.511 . S
C134 C135 1.341 . S
C134 C136 1.371 . S
C135 C134 1.341 . S
C135 C139 1.394 . S
C135 H151 0.930 . S
C136 C134 1.371 . S
C136 C137 1.392 . S
C136 H152 0.931 . S
C137 C136 1.392 . S
C137 C138 1.331 . S
C137 H155 0.932 . S
C138 C137 1.331 . S
C138 C139 1.336 . S
C139 C135 1.394 . S
C139 C138 1.336 . S
C139 H154 0.929 . S
C140 C130 1.386 . S
C140 C133 1.357 . S
C140 H153 0.928 . S
H141 C117 0.931 . S
H142 C119 0.930 . S
H143 C121 0.929 . S
H144 C122 0.931 . S
H145 C124 0.930 . S
H146 C128 0.931 . S
H147 C126 0.931 . S
H148 C130 0.931 . S
H149 C131 0.929 . S
H150 C132 0.930 . S
H151 C135 0.930 . S
H152 C136 0.931 . S
H153 C140 0.928 . S
H154 C139 0.929 . S
H155 C137 0.932 . S
C156 C157 1.386 . S
C156 C158 1.397 . S
C156 H180 0.931 . S
C157 C156 1.386 . S
C157 C161 1.397 . S
C158 C156 1.397 . S
C158 C159 1.384 . S
C158 H181 0.930 . S
C159 C158 1.384 . S
C159 C160 1.377 . S
C159 C162 1.481 . S
C160 C159 1.377 . S
C160 C161 1.389 . S
C160 H182 0.929 . S
C161 C157 1.397 . S
C161 C160 1.389 . S
C161 H183 0.931 . S
C162 C159 1.481 . S
C162 C163 1.387 . S
C162 C167 1.390 . S
C163 C162 1.387 . S
C163 C164 1.401 . S
C163 H184 0.930 . S
C164 C163 1.401 . S
C164 C165 1.376 . S
C164 C173 1.511 . S
C165 C164 1.376 . S
C165 C166 1.392 . S
C165 H186 0.931 . S
C166 C165 1.392 . S
C166 C167 1.361 . S
C166 C168 1.500 . S
C167 C162 1.390 . S
C167 C166 1.361 . S
C167 H185 0.931 . S
C168 C166 1.500 . S
C168 C169 1.371 . S
C168 C170 1.365 . S
C169 C168 1.371 . S
C169 C179 1.386 . S
C169 H187 0.931 . S
C170 C168 1.365 . S
C170 C171 1.409 . S
C170 H188 0.929 . S
C171 C170 1.409 . S
C171 C172 1.380 . S
C171 H189 0.930 . S
C172 C171 1.380 . S
C172 C179 1.357 . S
C173 C164 1.511 . S
C173 C174 1.341 . S
C173 C175 1.371 . S
C174 C173 1.341 . S
C174 C178 1.394 . S
C174 H190 0.930 . S
C175 C173 1.371 . S
C175 C176 1.392 . S
C175 H191 0.931 . S
C176 C175 1.392 . S
C176 C177 1.331 . S
C176 H194 0.932 . S
C177 C176 1.331 . S
C177 C178 1.336 . S
C178 C174 1.394 . S
C178 C177 1.336 . S
C178 H193 0.929 . S
C179 C169 1.386 . S
C179 C172 1.357 . S
C179 H192 0.928 . S
H180 C156 0.931 . S
H181 C158 0.930 . S
H182 C160 0.929 . S
H183 C161 0.931 . S
H184 C163 0.930 . S
H185 C167 0.931 . S
H186 C165 0.931 . S
H187 C169 0.931 . S
H188 C170 0.929 . S
H189 C171 0.930 . S
H190 C174 0.930 . S
H191 C175 0.931 . S
H192 C179 0.928 . S
H193 C178 0.929 . S
H194 C176 0.932 . S
C195 C196 1.386 . S
C195 C197 1.397 . S
C195 H219 0.931 . S
C196 C195 1.386 . S
C196 C200 1.397 . S
C197 C195 1.397 . S
C197 C198 1.384 . S
C197 H220 0.930 . S
C198 C197 1.384 . S
C198 C199 1.377 . S
C198 C201 1.481 . S
C199 C198 1.377 . S
C199 C200 1.389 . S
C199 H221 0.929 . S
C200 C196 1.397 . S
C200 C199 1.389 . S
C200 H222 0.931 . S
C201 C198 1.481 . S
C201 C202 1.387 . S
C201 C206 1.390 . S
C202 C201 1.387 . S
C202 C203 1.401 . S
C202 H223 0.930 . S
C203 C202 1.401 . S
C203 C204 1.376 . S
C203 C212 1.511 . S
C204 C203 1.376 . S
C204 C205 1.392 . S
C204 H225 0.931 . S
C205 C204 1.392 . S
C205 C206 1.361 . S
C205 C207 1.500 . S
C206 C201 1.390 . S
C206 C205 1.361 . S
C206 H224 0.931 . S
C207 C205 1.500 . S
C207 C208 1.371 . S
C207 C209 1.365 . S
C208 C207 1.371 . S
C208 C218 1.386 . S
C208 H226 0.931 . S
C209 C207 1.365 . S
C209 C210 1.409 . S
C209 H227 0.929 . S
C210 C209 1.409 . S
C210 C211 1.380 . S
C210 H228 0.930 . S
C211 C210 1.380 . S
C211 C218 1.357 . S
C212 C203 1.511 . S
C212 C213 1.341 . S
C212 C214 1.371 . S
C213 C212 1.341 . S
C213 C217 1.394 . S
C213 H229 0.930 . S
C214 C212 1.371 . S
C214 C215 1.392 . S
C214 H230 0.931 . S
C215 C214 1.392 . S
C215 C216 1.331 . S
C215 H233 0.932 . S
C216 C215 1.331 . S
C216 C217 1.336 . S
C217 C213 1.394 . S
C217 C216 1.336 . S
C217 H232 0.929 . S
C218 C208 1.386 . S
C218 C211 1.357 . S
C218 H231 0.928 . S
H219 C195 0.931 . S
H220 C197 0.930 . S
H221 C199 0.929 . S
H222 C200 0.931 . S
H223 C202 0.930 . S
H224 C206 0.931 . S
H225 C204 0.931 . S
H226 C208 0.931 . S
H227 C209 0.929 . S
H228 C210 0.930 . S
H229 C213 0.930 . S
H230 C214 0.931 . S
H231 C218 0.928 . S
H232 C217 0.929 . S
H233 C215 0.932 . S
C234 C235 1.386 . S
C234 C236 1.397 . S
C234 H258 0.931 . S
C235 C234 1.386 . S
C235 C239 1.397 . S
C236 C234 1.397 . S
C236 C237 1.384 . S
C236 H259 0.930 . S
C237 C236 1.384 . S
C237 C238 1.377 . S
C237 C240 1.481 . S
C238 C237 1.377 . S
C238 C239 1.389 . S
C238 H260 0.929 . S
C239 C235 1.397 . S
C239 C238 1.389 . S
C239 H261 0.931 . S
C240 C237 1.481 . S
C240 C241 1.387 . S
C240 C245 1.390 . S
C241 C240 1.387 . S
C241 C242 1.401 . S
C241 H262 0.930 . S
C242 C241 1.401 . S
C242 C243 1.376 . S
C242 C251 1.511 . S
C243 C242 1.376 . S
C243 C244 1.392 . S
C243 H264 0.931 . S
C244 C243 1.392 . S
C244 C245 1.361 . S
C244 C246 1.500 . S
C245 C240 1.390 . S
C245 C244 1.361 . S
C245 H263 0.931 . S
C246 C244 1.500 . S
C246 C247 1.371 . S
C246 C248 1.365 . S
C247 C246 1.371 . S
C247 C257 1.386 . S
C247 H265 0.931 . S
C248 C246 1.365 . S
C248 C249 1.409 . S
C248 H266 0.929 . S
C249 C248 1.409 . S
C249 C250 1.380 . S
C249 H267 0.930 . S
C250 C249 1.380 . S
C250 C257 1.357 . S
C251 C242 1.511 . S
C251 C252 1.341 . S
C251 C253 1.371 . S
C252 C251 1.341 . S
C252 C256 1.394 . S
C252 H268 0.930 . S
C253 C251 1.371 . S
C253 C254 1.392 . S
C253 H269 0.931 . S
C254 C253 1.392 . S
C254 C255 1.331 . S
C254 H272 0.932 . S
C255 C254 1.331 . S
C255 C256 1.336 . S
C256 C252 1.394 . S
C256 C255 1.336 . S
C256 H271 0.929 . S
C257 C247 1.386 . S
C257 C250 1.357 . S
C257 H270 0.928 . S
H258 C234 0.931 . S
H259 C236 0.930 . S
H260 C238 0.929 . S
H261 C239 0.931 . S
H262 C241 0.930 . S
H263 C245 0.931 . S
H264 C243 0.931 . S
H265 C247 0.931 . S
H266 C248 0.929 . S
H267 C249 0.930 . S
H268 C252 0.930 . S
H269 C253 0.931 . S
H270 C257 0.928 . S
H271 C256 0.929 . S
H272 C254 0.932 . S
C273 C274 1.386 . S
C273 C275 1.397 . S
C273 H297 0.931 . S
C274 C273 1.386 . S
C274 C278 1.397 . S
C275 C273 1.397 . S
C275 C276 1.384 . S
C275 H298 0.930 . S
C276 C275 1.384 . S
C276 C277 1.377 . S
C276 C279 1.481 . S
C277 C276 1.377 . S
C277 C278 1.389 . S
C277 H299 0.929 . S
C278 C274 1.397 . S
C278 C277 1.389 . S
C278 H300 0.931 . S
C279 C276 1.481 . S
C279 C280 1.387 . S
C279 C284 1.390 . S
C280 C279 1.387 . S
C280 C281 1.401 . S
C280 H301 0.930 . S
C281 C280 1.401 . S
C281 C282 1.376 . S
C281 C290 1.511 . S
C282 C281 1.376 . S
C282 C283 1.392 . S
C282 H303 0.931 . S
C283 C282 1.392 . S
C283 C284 1.361 . S
C283 C285 1.500 . S
C284 C279 1.390 . S
C284 C283 1.361 . S
C284 H302 0.931 . S
C285 C283 1.500 . S
C285 C286 1.371 . S
C285 C287 1.365 . S
C286 C285 1.371 . S
C286 C296 1.386 . S
C286 H304 0.931 . S
C287 C285 1.365 . S
C287 C288 1.409 . S
C287 H305 0.929 . S
C288 C287 1.409 . S
C288 C289 1.380 . S
C288 H306 0.930 . S
C289 C288 1.380 . S
C289 C296 1.357 . S
C290 C281 1.511 . S
C290 C291 1.341 . S
C290 C292 1.371 . S
C291 C290 1.341 . S
C291 C295 1.394 . S
C291 H307 0.930 . S
C292 C290 1.371 . S
C292 C293 1.392 . S
C292 H308 0.931 . S
C293 C292 1.392 . S
C293 C294 1.331 . S
C293 H311 0.932 . S
C294 C293 1.331 . S
C294 C295 1.336 . S
C295 C291 1.394 . S
C295 C294 1.336 . S
C295 H310 0.929 . S
C296 C286 1.386 . S
C296 C289 1.357 . S
C296 H309 0.928 . S
H297 C273 0.931 . S
H298 C275 0.930 . S
H299 C277 0.929 . S
H300 C278 0.931 . S
H301 C280 0.930 . S
H302 C284 0.931 . S
H303 C282 0.931 . S
H304 C286 0.931 . S
H305 C287 0.929 . S
H306 C288 0.930 . S
H307 C291 0.930 . S
H308 C292 0.931 . S
H309 C296 0.928 . S
H310 C295 0.929 . S
H311 C293 0.932 . S
Sm312 C314 2.846 . S
Sm312 O332 2.543 . S
Sm312 O333 2.450 . S
Sm312 O334 2.681 1_545 S
Sm312 O335 2.464 1_545 S
Sm312 O336 2.396 . S
Sm312 O340 2.386 1_455 S
Sm312 O343 2.408 1_445 S
Sm313 C323 2.846 . S
Sm313 O334 2.386 1_655 S
Sm313 O337 2.408 1_665 S
Sm313 O338 2.543 . S
Sm313 O339 2.450 . S
Sm313 O340 2.681 1_565 S
Sm313 O341 2.464 1_565 S
Sm313 O342 2.396 . S
C314 Sm312 2.846 . S
C314 C315 1.506 . S
C314 O332 1.261 . S
C314 O333 1.242 . S
C315 C314 1.506 . S
C315 C316 1.358 . S
C315 C320 1.382 . S
C316 C315 1.358 . S
C316 C317 1.385 . S
C316 H344 0.930 . S
C317 C316 1.385 . S
C317 C318 1.395 . S
C317 H345 0.929 . S
C318 C317 1.395 . S
C318 C319 1.335 . S
C319 C318 1.335 . S
C319 C320 1.398 . S
C319 H346 0.930 . S
C320 C315 1.382 . S
C320 C319 1.398 . S
C320 H347 0.929 . S
C321 O334 1.271 . S
C321 O335 1.251 . S
C322 O336 1.252 . S
C322 O337 1.272 . S
C323 Sm313 2.846 . S
C323 C324 1.506 . S
C323 O338 1.261 . S
C323 O339 1.242 . S
C324 C323 1.506 . S
C324 C325 1.358 . S
C324 C329 1.382 . S
C325 C324 1.358 . S
C325 C326 1.385 . S
C325 H348 0.930 . S
C326 C325 1.385 . S
C326 C327 1.395 . S
C326 H349 0.929 . S
C327 C326 1.395 . S
C327 C328 1.335 . S
C328 C327 1.335 . S
C328 C329 1.398 . S
C328 H350 0.930 . S
C329 C324 1.382 . S
C329 C328 1.398 . S
C329 H351 0.929 . S
C330 O340 1.271 . S
C330 O341 1.251 . S
C331 O342 1.252 . S
C331 O343 1.272 . S
O332 Sm312 2.543 . S
O332 C314 1.261 . S
O333 Sm312 2.450 . S
O333 C314 1.242 . S
O334 Sm312 2.681 1_565 S
O334 Sm313 2.386 1_455 S
O334 C321 1.271 . S
O335 Sm312 2.464 1_565 S
O335 C321 1.251 . S
O336 Sm312 2.396 . S
O336 C322 1.252 . S
O337 Sm313 2.408 1_445 S
O337 C322 1.272 . S
O338 Sm313 2.543 . S
O338 C323 1.261 . S
O339 Sm313 2.450 . S
O339 C323 1.242 . S
O340 Sm312 2.386 1_655 S
O340 Sm313 2.681 1_545 S
O340 C330 1.271 . S
O341 Sm313 2.464 1_545 S
O341 C330 1.251 . S
O342 Sm313 2.396 . S
O342 C331 1.252 . S
O343 Sm312 2.408 1_665 S
O343 C331 1.272 . S
H344 C316 0.930 . S
H345 C317 0.929 . S
H346 C319 0.930 . S
H347 C320 0.929 . S
H348 C325 0.930 . S
H349 C326 0.929 . S
H350 C328 0.930 . S
H351 C329 0.929 . S
Sm352 C354 2.840 1_565 S
Sm352 O372 2.533 1_565 S
Sm352 O373 2.449 1_565 S
Sm352 O374 2.686 . S
Sm352 O375 2.472 . S
Sm352 O376 2.390 1_565 S
Sm352 O380 2.378 1_564 S
Sm352 O383 2.415 1_554 S
Sm353 C363 2.846 1_545 S
Sm353 O374 2.386 1_546 S
Sm353 O377 2.408 1_556 S
Sm353 O378 2.543 1_545 S
Sm353 O379 2.450 1_545 S
Sm353 O380 2.681 . S
Sm353 O381 2.464 . S
Sm353 O382 2.396 1_545 S
C354 Sm352 2.840 1_545 S
C354 C355 1.506 . S
C354 O372 1.261 . S
C354 O373 1.242 . S
C355 C354 1.506 . S
C355 C356 1.358 . S
C355 C360 1.382 . S
C356 C355 1.358 . S
C356 C357 1.385 . S
C356 H384 0.930 . S
C357 C356 1.385 . S
C357 C358 1.395 . S
C357 H385 0.929 . S
C358 C357 1.395 . S
C358 C359 1.335 . S
C359 C358 1.335 . S
C359 C360 1.398 . S
C359 H386 0.930 . S
C360 C355 1.382 . S
C360 C359 1.398 . S
C360 H387 0.929 . S
C361 O374 1.271 . S
C361 O375 1.251 . S
C362 O376 1.252 . S
C362 O377 1.272 . S
C363 Sm353 2.846 1_565 S
C363 C364 1.506 . S
C363 O378 1.261 . S
C363 O379 1.242 . S
C364 C363 1.506 . S
C364 C365 1.358 . S
C364 C369 1.382 . S
C365 C364 1.358 . S
C365 C366 1.385 . S
C365 H388 0.930 . S
C366 C365 1.385 . S
C366 C367 1.395 . S
C366 H389 0.929 . S
C367 C366 1.395 . S
C367 C368 1.335 . S
C368 C367 1.335 . S
C368 C369 1.398 . S
C368 H390 0.930 . S
C369 C364 1.382 . S
C369 C368 1.398 . S
C369 H391 0.929 . S
C370 O380 1.271 . S
C370 O381 1.251 . S
C371 O382 1.252 . S
C371 O383 1.272 . S
O372 Sm352 2.533 1_545 S
O372 C354 1.261 . S
O373 Sm352 2.449 1_545 S
O373 C354 1.242 . S
O374 Sm352 2.686 . S
O374 Sm353 2.386 1_564 S
O374 C361 1.271 . S
O375 Sm352 2.472 . S
O375 C361 1.251 . S
O376 Sm352 2.390 1_545 S
O376 C362 1.252 . S
O377 Sm353 2.408 1_554 S
O377 C362 1.272 . S
O378 Sm353 2.543 1_565 S
O378 C363 1.261 . S
O379 Sm353 2.450 1_565 S
O379 C363 1.242 . S
O380 Sm352 2.378 1_546 S
O380 Sm353 2.681 . S
O380 C370 1.271 . S
O381 Sm353 2.464 . S
O381 C370 1.251 . S
O382 Sm353 2.396 1_565 S
O382 C371 1.252 . S
O383 Sm352 2.415 1_556 S
O383 C371 1.272 . S
H384 C356 0.930 . S
H385 C357 0.929 . S
H386 C359 0.930 . S
H387 C360 0.929 . S
H388 C365 0.930 . S
H389 C366 0.929 . S
H390 C368 0.930 . S
H391 C369 0.929 . S
Sm392 C394 2.846 . S
Sm392 O412 2.543 . S
Sm392 O413 2.450 . S
Sm392 O414 2.681 . S
Sm392 O415 2.464 . S
Sm392 O416 2.396 . S
Sm392 O420 2.386 . S
Sm392 O423 2.408 . S
Sm393 C403 2.846 . S
Sm393 O414 2.386 . S
Sm393 O417 2.408 . S
Sm393 O418 2.543 . S
Sm393 O419 2.450 . S
Sm393 O420 2.681 . S
Sm393 O421 2.464 . S
Sm393 O422 2.396 . S
C394 Sm392 2.846 . S
C394 C395 1.506 . S
C394 O412 1.261 . S
C394 O413 1.242 . S
C395 C394 1.506 . S
C395 C396 1.358 . S
C395 C400 1.382 . S
C396 C395 1.358 . S
C396 C397 1.385 . S
C396 H424 0.930 . S
C397 C396 1.385 . S
C397 C398 1.395 . S
C397 H425 0.929 . S
C398 C397 1.395 . S
C398 C399 1.335 . S
C399 C398 1.335 . S
C399 C400 1.398 . S
C399 H426 0.930 . S
C400 C395 1.382 . S
C400 C399 1.398 . S
C400 H427 0.929 . S
C401 O414 1.271 . S
C401 O415 1.251 . S
C402 O416 1.252 . S
C402 O417 1.272 . S
C403 Sm393 2.846 . S
C403 C404 1.506 . S
C403 O418 1.261 . S
C403 O419 1.242 . S
C404 C403 1.506 . S
C404 C405 1.358 . S
C404 C409 1.382 . S
C405 C404 1.358 . S
C405 C406 1.385 . S
C405 H428 0.930 . S
C406 C405 1.385 . S
C406 C407 1.395 . S
C406 H429 0.929 . S
C407 C406 1.395 . S
C407 C408 1.335 . S
C408 C407 1.335 . S
C408 C409 1.398 . S
C408 H430 0.930 . S
C409 C404 1.382 . S
C409 C408 1.398 . S
C409 H431 0.929 . S
C410 O420 1.271 . S
C410 O421 1.251 . S
C411 O422 1.252 . S
C411 O423 1.272 . S
O412 Sm392 2.543 . S
O412 C394 1.261 . S
O413 Sm392 2.450 . S
O413 C394 1.242 . S
O414 Sm392 2.681 . S
O414 Sm393 2.386 . S
O414 C401 1.271 . S
O415 Sm392 2.464 . S
O415 C401 1.251 . S
O416 Sm392 2.396 . S
O416 C402 1.252 . S
O417 Sm393 2.408 . S
O417 C402 1.272 . S
O418 Sm393 2.543 . S
O418 C403 1.261 . S
O419 Sm393 2.450 . S
O419 C403 1.242 . S
O420 Sm392 2.386 . S
O420 Sm393 2.681 . S
O420 C410 1.271 . S
O421 Sm393 2.464 . S
O421 C410 1.251 . S
O422 Sm393 2.396 . S
O422 C411 1.252 . S
O423 Sm392 2.408 . S
O423 C411 1.272 . S
H424 C396 0.930 . S
H425 C397 0.929 . S
H426 C399 0.930 . S
H427 C400 0.929 . S
H428 C405 0.930 . S
H429 C406 0.929 . S
H430 C408 0.930 . S
H431 C409 0.929 . S
Sm432 C434 2.846 . S
Sm432 O452 2.543 . S
Sm432 O453 2.450 . S
Sm432 O454 2.681 1_455 S
Sm432 O455 2.464 1_455 S
Sm432 O456 2.396 . S
Sm432 O460 2.386 1_554 S
Sm432 O463 2.408 1_454 S
Sm433 C443 2.846 . S
Sm433 O454 2.386 1_556 S
Sm433 O457 2.408 1_656 S
Sm433 O458 2.543 . S
Sm433 O459 2.450 . S
Sm433 O460 2.681 1_655 S
Sm433 O461 2.464 1_655 S
Sm433 O462 2.396 . S
C434 Sm432 2.846 . S
C434 C435 1.506 . S
C434 O452 1.261 . S
C434 O453 1.242 . S
C435 C434 1.506 . S
C435 C436 1.358 . S
C435 C440 1.382 . S
C436 C435 1.358 . S
C436 C437 1.385 . S
C436 H464 0.930 . S
C437 C436 1.385 . S
C437 C438 1.395 . S
C437 H465 0.929 . S
C438 C437 1.395 . S
C438 C439 1.335 . S
C439 C438 1.335 . S
C439 C440 1.398 . S
C439 H466 0.930 . S
C440 C435 1.382 . S
C440 C439 1.398 . S
C440 H467 0.929 . S
C441 O454 1.271 . S
C441 O455 1.251 . S
C442 O456 1.252 . S
C442 O457 1.272 . S
C443 Sm433 2.846 . S
C443 C444 1.506 . S
C443 O458 1.261 . S
C443 O459 1.242 . S
C444 C443 1.506 . S
C444 C445 1.358 . S
C444 C449 1.382 . S
C445 C444 1.358 . S
C445 C446 1.385 . S
C445 H468 0.930 . S
C446 C445 1.385 . S
C446 C447 1.395 . S
C446 H469 0.929 . S
C447 C446 1.395 . S
C447 C448 1.335 . S
C448 C447 1.335 . S
C448 C449 1.398 . S
C448 H470 0.930 . S
C449 C444 1.382 . S
C449 C448 1.398 . S
C449 H471 0.929 . S
C450 O460 1.271 . S
C450 O461 1.251 . S
C451 O462 1.252 . S
C451 O463 1.272 . S
O452 Sm432 2.543 . S
O452 C434 1.261 . S
O453 Sm432 2.450 . S
O453 C434 1.242 . S
O454 Sm432 2.681 1_655 S
O454 Sm433 2.386 1_554 S
O454 C441 1.271 . S
O455 Sm432 2.464 1_655 S
O455 C441 1.251 . S
O456 Sm432 2.396 . S
O456 C442 1.252 . S
O457 Sm433 2.408 1_454 S
O457 C442 1.272 . S
O458 Sm433 2.543 . S
O458 C443 1.261 . S
O459 Sm433 2.450 . S
O459 C443 1.242 . S
O460 Sm432 2.386 1_556 S
O460 Sm433 2.681 1_455 S
O460 C450 1.271 . S
O461 Sm433 2.464 1_455 S
O461 C450 1.251 . S
O462 Sm433 2.396 . S
O462 C451 1.252 . S
O463 Sm432 2.408 1_656 S
O463 C451 1.272 . S
H464 C436 0.930 . S
H465 C437 0.929 . S
H466 C439 0.930 . S
H467 C440 0.929 . S
H468 C445 0.930 . S
H469 C446 0.929 . S
H470 C448 0.930 . S
H471 C449 0.929 . S
C472 C473 1.391 . S
C472 C474 1.394 . S
C472 H488 0.931 . S
C473 C472 1.391 . S
C473 C477 1.376 . S
C474 C472 1.394 . S
C474 C475 1.369 . S
C474 C478 1.531 . S
C475 C474 1.369 . S
C475 C476 1.410 . S
C475 C483 1.503 . S
C476 C475 1.410 . S
C476 C477 1.392 . S
C476 C479 1.511 . S
C477 C473 1.376 . S
C477 C476 1.392 . S
C477 H489 0.929 . S
C478 C474 1.531 . S
C478 H490 0.960 . S
C478 H491 0.962 . S
C478 H492 0.960 . S
C479 C476 1.511 . S
C479 H493 0.961 . S
C479 H494 0.961 . S
C479 H495 0.961 . S
C480 C481 1.370 . S
C480 C482 1.363 . S
C480 H496 0.931 . S
C481 C480 1.370 . S
C481 C485 1.408 . S
C482 C480 1.363 . S
C482 C483 1.370 . S
C482 C486 1.524 . S
C483 C475 1.503 . S
C483 C482 1.370 . S
C483 C484 1.403 . S
C484 C483 1.403 . S
C484 C485 1.404 . S
C484 C487 1.539 . S
C485 C481 1.408 . S
C485 C484 1.404 . S
C485 H497 0.930 . S
C486 C482 1.524 . S
C486 H498 0.956 . S
C486 H499 0.961 . S
C486 H500 0.961 . S
C487 C484 1.539 . S
C487 H501 0.958 . S
C487 H502 0.961 . S
C487 H503 0.960 . S
H488 C472 0.931 . S
H489 C477 0.929 . S
H490 C478 0.960 . S
H491 C478 0.962 . S
H492 C478 0.960 . S
H493 C479 0.961 . S
H494 C479 0.961 . S
H495 C479 0.961 . S
H496 C480 0.931 . S
H497 C485 0.930 . S
H498 C486 0.956 . S
H499 C486 0.961 . S
H500 C486 0.961 . S
H501 C487 0.958 . S
H502 C487 0.961 . S
H503 C487 0.960 . S
C504 C505 1.391 . S
C504 C506 1.394 . S
C504 H520 0.931 . S
C505 C504 1.391 . S
C505 C509 1.376 . S
C506 C504 1.394 . S
C506 C507 1.369 . S
C506 C510 1.531 . S
C507 C506 1.369 . S
C507 C508 1.410 . S
C507 C515 1.503 . S
C508 C507 1.410 . S
C508 C509 1.392 . S
C508 C511 1.511 . S
C509 C505 1.376 . S
C509 C508 1.392 . S
C509 H521 0.929 . S
C510 C506 1.531 . S
C510 H522 0.960 . S
C510 H523 0.962 . S
C510 H524 0.960 . S
C511 C508 1.511 . S
C511 H525 0.961 . S
C511 H526 0.961 . S
C511 H527 0.961 . S
C512 C513 1.370 . S
C512 C514 1.363 . S
C512 H528 0.931 . S
C513 C512 1.370 . S
C513 C517 1.408 . S
C514 C512 1.363 . S
C514 C515 1.370 . S
C514 C518 1.524 . S
C515 C507 1.503 . S
C515 C514 1.370 . S
C515 C516 1.403 . S
C516 C515 1.403 . S
C516 C517 1.404 . S
C516 C519 1.539 . S
C517 C513 1.408 . S
C517 C516 1.404 . S
C517 H529 0.930 . S
C518 C514 1.524 . S
C518 H530 0.956 . S
C518 H531 0.961 . S
C518 H532 0.961 . S
C519 C516 1.539 . S
C519 H533 0.958 . S
C519 H534 0.961 . S
C519 H535 0.960 . S
H520 C504 0.931 . S
H521 C509 0.929 . S
H522 C510 0.960 . S
H523 C510 0.962 . S
H524 C510 0.960 . S
H525 C511 0.961 . S
H526 C511 0.961 . S
H527 C511 0.961 . S
H528 C512 0.931 . S
H529 C517 0.930 . S
H530 C518 0.956 . S
H531 C518 0.961 . S
H532 C518 0.961 . S
H533 C519 0.958 . S
H534 C519 0.961 . S
H535 C519 0.960 . S
C536 C537 1.391 . S
C536 C538 1.394 . S
C536 H552 0.931 . S
C537 C536 1.391 . S
C537 C541 1.376 . S
C538 C536 1.394 . S
C538 C539 1.369 . S
C538 C542 1.531 . S
C539 C538 1.369 . S
C539 C540 1.410 . S
C539 C547 1.503 . S
C540 C539 1.410 . S
C540 C541 1.392 . S
C540 C543 1.511 . S
C541 C537 1.376 . S
C541 C540 1.392 . S
C541 H553 0.929 . S
C542 C538 1.531 . S
C542 H554 0.960 . S
C542 H555 0.962 . S
C542 H556 0.960 . S
C543 C540 1.511 . S
C543 H557 0.961 . S
C543 H558 0.961 . S
C543 H559 0.961 . S
C544 C545 1.370 . S
C544 C546 1.363 . S
C544 H560 0.931 . S
C545 C544 1.370 . S
C545 C549 1.408 . S
C546 C544 1.363 . S
C546 C547 1.370 . S
C546 C550 1.524 . S
C547 C539 1.503 . S
C547 C546 1.370 . S
C547 C548 1.403 . S
C548 C547 1.403 . S
C548 C549 1.404 . S
C548 C551 1.539 . S
C549 C545 1.408 . S
C549 C548 1.404 . S
C549 H561 0.930 . S
C550 C546 1.524 . S
C550 H562 0.956 . S
C550 H563 0.961 . S
C550 H564 0.961 . S
C551 C548 1.539 . S
C551 H565 0.958 . S
C551 H566 0.961 . S
C551 H567 0.960 . S
H552 C536 0.931 . S
H553 C541 0.929 . S
H554 C542 0.960 . S
H555 C542 0.962 . S
H556 C542 0.960 . S
H557 C543 0.961 . S
H558 C543 0.961 . S
H559 C543 0.961 . S
H560 C544 0.931 . S
H561 C549 0.930 . S
H562 C550 0.956 . S
H563 C550 0.961 . S
H564 C550 0.961 . S
H565 C551 0.958 . S
H566 C551 0.961 . S
H567 C551 0.960 . S
C568 C569 1.391 . S
C568 C570 1.394 . S
C568 H584 0.931 . S
C569 C568 1.391 . S
C569 C573 1.376 . S
C570 C568 1.394 . S
C570 C571 1.369 . S
C570 C574 1.531 . S
C571 C570 1.369 . S
C571 C572 1.410 . S
C571 C579 1.503 . S
C572 C571 1.410 . S
C572 C573 1.392 . S
C572 C575 1.511 . S
C573 C569 1.376 . S
C573 C572 1.392 . S
C573 H585 0.929 . S
C574 C570 1.531 . S
C574 H586 0.960 . S
C574 H587 0.962 . S
C574 H588 0.960 . S
C575 C572 1.511 . S
C575 H589 0.961 . S
C575 H590 0.961 . S
C575 H591 0.961 . S
C576 C577 1.370 . S
C576 C578 1.363 . S
C576 H592 0.931 . S
C577 C576 1.370 . S
C577 C581 1.408 . S
C578 C576 1.363 . S
C578 C579 1.370 . S
C578 C582 1.524 . S
C579 C571 1.503 . S
C579 C578 1.370 . S
C579 C580 1.403 . S
C580 C579 1.403 . S
C580 C581 1.404 . S
C580 C583 1.539 . S
C581 C577 1.408 . S
C581 C580 1.404 . S
C581 H593 0.930 . S
C582 C578 1.524 . S
C582 H594 0.956 . S
C582 H595 0.961 . S
C582 H596 0.961 . S
C583 C580 1.539 . S
C583 H597 0.958 . S
C583 H598 0.961 . S
C583 H599 0.960 . S
H584 C568 0.931 . S
H585 C573 0.929 . S
H586 C574 0.960 . S
H587 C574 0.962 . S
H588 C574 0.960 . S
H589 C575 0.961 . S
H590 C575 0.961 . S
H591 C575 0.961 . S
H592 C576 0.931 . S
H593 C581 0.930 . S
H594 C582 0.956 . S
H595 C582 0.961 . S
H596 C582 0.961 . S
H597 C583 0.958 . S
H598 C583 0.961 . S
H599 C583 0.960 . S
C600 C601 1.391 . S
C600 C602 1.394 . S
C600 H616 0.931 . S
C601 C600 1.391 . S
C601 C605 1.376 . S
C602 C600 1.394 . S
C602 C603 1.369 . S
C602 C606 1.531 . S
C603 C602 1.369 . S
C603 C604 1.410 . S
C603 C611 1.503 . S
C604 C603 1.410 . S
C604 C605 1.392 . S
C604 C607 1.511 . S
C605 C601 1.376 . S
C605 C604 1.392 . S
C605 H617 0.929 . S
C606 C602 1.531 . S
C606 H618 0.960 . S
C606 H619 0.962 . S
C606 H620 0.960 . S
C607 C604 1.511 . S
C607 H621 0.961 . S
C607 H622 0.961 . S
C607 H623 0.961 . S
C608 C609 1.370 . S
C608 C610 1.363 . S
C608 H624 0.931 . S
C609 C608 1.370 . S
C609 C613 1.408 . S
C610 C608 1.363 . S
C610 C611 1.370 . S
C610 C614 1.524 . S
C611 C603 1.503 . S
C611 C610 1.370 . S
C611 C612 1.403 . S
C612 C611 1.403 . S
C612 C613 1.404 . S
C612 C615 1.539 . S
C613 C609 1.408 . S
C613 C612 1.404 . S
C613 H625 0.930 . S
C614 C610 1.524 . S
C614 H626 0.956 . S
C614 H627 0.961 . S
C614 H628 0.961 . S
C615 C612 1.539 . S
C615 H629 0.958 . S
C615 H630 0.961 . S
C615 H631 0.960 . S
H616 C600 0.931 . S
H617 C605 0.929 . S
H618 C606 0.960 . S
H619 C606 0.962 . S
H620 C606 0.960 . S
H621 C607 0.961 . S
H622 C607 0.961 . S
H623 C607 0.961 . S
H624 C608 0.931 . S
H625 C613 0.930 . S
H626 C614 0.956 . S
H627 C614 0.961 . S
H628 C614 0.961 . S
H629 C615 0.958 . S
H630 C615 0.961 . S
H631 C615 0.960 . S
C632 C633 1.391 . S
C632 C634 1.394 . S
C632 H648 0.931 . S
C633 C632 1.391 . S
C633 C637 1.376 . S
C634 C632 1.394 . S
C634 C635 1.369 . S
C634 C638 1.531 . S
C635 C634 1.369 . S
C635 C636 1.410 . S
C635 C643 1.503 . S
C636 C635 1.410 . S
C636 C637 1.392 . S
C636 C639 1.511 . S
C637 C633 1.376 . S
C637 C636 1.392 . S
C637 H649 0.929 . S
C638 C634 1.531 . S
C638 H650 0.960 . S
C638 H651 0.962 . S
C638 H652 0.960 . S
C639 C636 1.511 . S
C639 H653 0.961 . S
C639 H654 0.961 . S
C639 H655 0.961 . S
C640 C641 1.370 . S
C640 C642 1.363 . S
C640 H656 0.931 . S
C641 C640 1.370 . S
C641 C645 1.408 . S
C642 C640 1.363 . S
C642 C643 1.370 . S
C642 C646 1.524 . S
C643 C635 1.503 . S
C643 C642 1.370 . S
C643 C644 1.403 . S
C644 C643 1.403 . S
C644 C645 1.404 . S
C644 C647 1.539 . S
C645 C641 1.408 . S
C645 C644 1.404 . S
C645 H657 0.930 . S
C646 C642 1.524 . S
C646 H658 0.956 . S
C646 H659 0.961 . S
C646 H660 0.961 . S
C647 C644 1.539 . S
C647 H661 0.958 . S
C647 H662 0.961 . S
C647 H663 0.960 . S
H648 C632 0.931 . S
H649 C637 0.929 . S
H650 C638 0.960 . S
H651 C638 0.962 . S
H652 C638 0.960 . S
H653 C639 0.961 . S
H654 C639 0.961 . S
H655 C639 0.961 . S
H656 C640 0.931 . S
H657 C645 0.930 . S
H658 C646 0.956 . S
H659 C646 0.961 . S
H660 C646 0.961 . S
H661 C647 0.958 . S
H662 C647 0.961 . S
H663 C647 0.960 . S
C664 C665 1.391 . S
C664 C666 1.394 . S
C664 H680 0.931 . S
C665 C664 1.391 . S
C665 C669 1.376 . S
C666 C664 1.394 . S
C666 C667 1.369 . S
C666 C670 1.531 . S
C667 C666 1.369 . S
C667 C668 1.410 . S
C667 C675 1.503 . S
C668 C667 1.410 . S
C668 C669 1.392 . S
C668 C671 1.511 . S
C669 C665 1.376 . S
C669 C668 1.392 . S
C669 H681 0.929 . S
C670 C666 1.531 . S
C670 H682 0.960 . S
C670 H683 0.962 . S
C670 H684 0.960 . S
C671 C668 1.511 . S
C671 H685 0.961 . S
C671 H686 0.961 . S
C671 H687 0.961 . S
C672 C673 1.370 . S
C672 C674 1.363 . S
C672 H688 0.931 . S
C673 C672 1.370 . S
C673 C677 1.408 . S
C674 C672 1.363 . S
C674 C675 1.370 . S
C674 C678 1.524 . S
C675 C667 1.503 . S
C675 C674 1.370 . S
C675 C676 1.403 . S
C676 C675 1.403 . S
C676 C677 1.404 . S
C676 C679 1.539 . S
C677 C673 1.408 . S
C677 C676 1.404 . S
C677 H689 0.930 . S
C678 C674 1.524 . S
C678 H690 0.956 . S
C678 H691 0.961 . S
C678 H692 0.961 . S
C679 C676 1.539 . S
C679 H693 0.958 . S
C679 H694 0.961 . S
C679 H695 0.960 . S
H680 C664 0.931 . S
H681 C669 0.929 . S
H682 C670 0.960 . S
H683 C670 0.962 . S
H684 C670 0.960 . S
H685 C671 0.961 . S
H686 C671 0.961 . S
H687 C671 0.961 . S
H688 C672 0.931 . S
H689 C677 0.930 . S
H690 C678 0.956 . S
H691 C678 0.961 . S
H692 C678 0.961 . S
H693 C679 0.958 . S
H694 C679 0.961 . S
H695 C679 0.960 . S
C696 C697 1.391 . S
C696 C698 1.394 . S
C696 H712 0.931 . S
C697 C696 1.391 . S
C697 C701 1.376 . S
C698 C696 1.394 . S
C698 C699 1.369 . S
C698 C702 1.531 . S
C699 C698 1.369 . S
C699 C700 1.410 . S
C699 C707 1.503 . S
C700 C699 1.410 . S
C700 C701 1.392 . S
C700 C703 1.511 . S
C701 C697 1.376 . S
C701 C700 1.392 . S
C701 H713 0.929 . S
C702 C698 1.531 . S
C702 H714 0.960 . S
C702 H715 0.962 . S
C702 H716 0.960 . S
C703 C700 1.511 . S
C703 H717 0.961 . S
C703 H718 0.961 . S
C703 H719 0.961 . S
C704 C705 1.370 . S
C704 C706 1.363 . S
C704 H720 0.931 . S
C705 C704 1.370 . S
C705 C709 1.408 . S
C706 C704 1.363 . S
C706 C707 1.370 . S
C706 C710 1.524 . S
C707 C699 1.503 . S
C707 C706 1.370 . S
C707 C708 1.403 . S
C708 C707 1.403 . S
C708 C709 1.404 . S
C708 C711 1.539 . S
C709 C705 1.408 . S
C709 C708 1.404 . S
C709 H721 0.930 . S
C710 C706 1.524 . S
C710 H722 0.956 . S
C710 H723 0.961 . S
C710 H724 0.961 . S
C711 C708 1.539 . S
C711 H725 0.958 . S
C711 H726 0.961 . S
C711 H727 0.960 . S
H712 C696 0.931 . S
H713 C701 0.929 . S
H714 C702 0.960 . S
H715 C702 0.962 . S
H716 C702 0.960 . S
H717 C703 0.961 . S
H718 C703 0.961 . S
H719 C703 0.961 . S
H720 C704 0.931 . S
H721 C709 0.930 . S
H722 C710 0.956 . S
H723 C710 0.961 . S
H724 C710 0.961 . S
H725 C711 0.958 . S
H726 C711 0.961 . S
H727 C711 0.960 . S
C728 C729 1.391 . S
C728 C730 1.394 . S
C728 H744 0.931 . S
C729 C728 1.391 . S
C729 C733 1.376 . S
C730 C728 1.394 . S
C730 C731 1.369 . S
C730 C734 1.531 . S
C731 C730 1.369 . S
C731 C732 1.410 . S
C731 C739 1.503 . S
C732 C731 1.410 . S
C732 C733 1.392 . S
C732 C735 1.511 . S
C733 C729 1.376 . S
C733 C732 1.392 . S
C733 H745 0.929 . S
C734 C730 1.531 . S
C734 H746 0.960 . S
C734 H747 0.962 . S
C734 H748 0.960 . S
C735 C732 1.511 . S
C735 H749 0.961 . S
C735 H750 0.961 . S
C735 H751 0.961 . S
C736 C737 1.370 . S
C736 C738 1.363 . S
C736 H752 0.931 . S
C737 C736 1.370 . S
C737 C741 1.408 . S
C738 C736 1.363 . S
C738 C739 1.370 . S
C738 C742 1.524 . S
C739 C731 1.503 . S
C739 C738 1.370 . S
C739 C740 1.403 . S
C740 C739 1.403 . S
C740 C741 1.404 . S
C740 C743 1.539 . S
C741 C737 1.408 . S
C741 C740 1.404 . S
C741 H753 0.930 . S
C742 C738 1.524 . S
C742 H754 0.956 . S
C742 H755 0.961 . S
C742 H756 0.961 . S
C743 C740 1.539 . S
C743 H757 0.958 . S
C743 H758 0.961 . S
C743 H759 0.960 . S
H744 C728 0.931 . S
H745 C733 0.929 . S
H746 C734 0.960 . S
H747 C734 0.962 . S
H748 C734 0.960 . S
H749 C735 0.961 . S
H750 C735 0.961 . S
H751 C735 0.961 . S
H752 C736 0.931 . S
H753 C741 0.930 . S
H754 C742 0.956 . S
H755 C742 0.961 . S
H756 C742 0.961 . S
H757 C743 0.958 . S
H758 C743 0.961 . S
H759 C743 0.960 . S
C760 C761 1.391 . S
C760 C762 1.394 . S
C760 H776 0.931 . S
C761 C760 1.391 . S
C761 C765 1.376 . S
C762 C760 1.394 . S
C762 C763 1.369 . S
C762 C766 1.531 . S
C763 C762 1.369 . S
C763 C764 1.410 . S
C763 C771 1.503 . S
C764 C763 1.410 . S
C764 C765 1.392 . S
C764 C767 1.511 . S
C765 C761 1.376 . S
C765 C764 1.392 . S
C765 H777 0.929 . S
C766 C762 1.531 . S
C766 H778 0.960 . S
C766 H779 0.962 . S
C766 H780 0.960 . S
C767 C764 1.511 . S
C767 H781 0.961 . S
C767 H782 0.961 . S
C767 H783 0.961 . S
C768 C769 1.370 . S
C768 C770 1.363 . S
C768 H784 0.931 . S
C769 C768 1.370 . S
C769 C773 1.408 . S
C770 C768 1.363 . S
C770 C771 1.370 . S
C770 C774 1.524 . S
C771 C763 1.503 . S
C771 C770 1.370 . S
C771 C772 1.403 . S
C772 C771 1.403 . S
C772 C773 1.404 . S
C772 C775 1.539 . S
C773 C769 1.408 . S
C773 C772 1.404 . S
C773 H785 0.930 . S
C774 C770 1.524 . S
C774 H786 0.956 . S
C774 H787 0.961 . S
C774 H788 0.961 . S
C775 C772 1.539 . S
C775 H789 0.958 . S
C775 H790 0.961 . S
C775 H791 0.960 . S
H776 C760 0.931 . S
H777 C765 0.929 . S
H778 C766 0.960 . S
H779 C766 0.962 . S
H780 C766 0.960 . S
H781 C767 0.961 . S
H782 C767 0.961 . S
H783 C767 0.961 . S
H784 C768 0.931 . S
H785 C773 0.930 . S
H786 C774 0.956 . S
H787 C774 0.961 . S
H788 C774 0.961 . S
H789 C775 0.958 . S
H790 C775 0.961 . S
H791 C775 0.960 . S
C792 C793 1.391 . S
C792 C794 1.394 . S
C792 H808 0.931 . S
C793 C792 1.391 . S
C793 C797 1.376 . S
C794 C792 1.394 . S
C794 C795 1.369 . S
C794 C798 1.531 . S
C795 C794 1.369 . S
C795 C796 1.410 . S
C795 C803 1.503 . S
C796 C795 1.410 . S
C796 C797 1.392 . S
C796 C799 1.511 . S
C797 C793 1.376 . S
C797 C796 1.392 . S
C797 H809 0.929 . S
C798 C794 1.531 . S
C798 H810 0.960 . S
C798 H811 0.962 . S
C798 H812 0.960 . S
C799 C796 1.511 . S
C799 H813 0.961 . S
C799 H814 0.961 . S
C799 H815 0.961 . S
C800 C801 1.370 . S
C800 C802 1.363 . S
C800 H816 0.931 . S
C801 C800 1.370 . S
C801 C805 1.408 . S
C802 C800 1.363 . S
C802 C803 1.370 . S
C802 C806 1.524 . S
C803 C795 1.503 . S
C803 C802 1.370 . S
C803 C804 1.403 . S
C804 C803 1.403 . S
C804 C805 1.404 . S
C804 C807 1.539 . S
C805 C801 1.408 . S
C805 C804 1.404 . S
C805 H817 0.930 . S
C806 C802 1.524 . S
C806 H818 0.956 . S
C806 H819 0.961 . S
C806 H820 0.961 . S
C807 C804 1.539 . S
C807 H821 0.958 1_655 S
C807 H822 0.961 1_655 S
C807 H823 0.960 . S
H808 C792 0.931 . S
H809 C797 0.929 . S
H810 C798 0.960 . S
H811 C798 0.962 . S
H812 C798 0.960 . S
H813 C799 0.961 . S
H814 C799 0.961 . S
H815 C799 0.961 . S
H816 C800 0.931 . S
H817 C805 0.930 . S
H818 C806 0.956 . S
H819 C806 0.961 . S
H820 C806 0.961 . S
H821 C807 0.958 1_455 S
H822 C807 0.961 1_455 S
H823 C807 0.960 . S
C824 C825 1.391 . S
C824 C826 1.394 . S
C824 H840 0.931 . S
C825 C824 1.391 . S
C825 C829 1.376 . S
C826 C824 1.394 . S
C826 C827 1.369 . S
C826 C830 1.531 . S
C827 C826 1.369 . S
C827 C828 1.410 . S
C827 C835 1.503 . S
C828 C827 1.410 . S
C828 C829 1.392 . S
C828 C831 1.511 . S
C829 C825 1.376 . S
C829 C828 1.392 . S
C829 H841 0.929 . S
C830 C826 1.531 . S
C830 H842 0.960 . S
C830 H843 0.962 . S
C830 H844 0.960 . S
C831 C828 1.511 . S
C831 H845 0.961 . S
C831 H846 0.961 . S
C831 H847 0.961 . S
C832 C833 1.370 . S
C832 C834 1.363 . S
C832 H848 0.931 . S
C833 C832 1.370 . S
C833 C837 1.408 . S
C834 C832 1.363 . S
C834 C835 1.370 . S
C834 C838 1.524 . S
C835 C827 1.503 . S
C835 C834 1.370 . S
C835 C836 1.403 . S
C836 C835 1.403 . S
C836 C837 1.404 . S
C836 C839 1.539 . S
C837 C833 1.408 . S
C837 C836 1.404 . S
C837 H849 0.930 . S
C838 C834 1.524 . S
C838 H850 0.956 . S
C838 H851 0.961 . S
C838 H852 0.961 . S
C839 C836 1.539 . S
C839 H853 0.958 . S
C839 H854 0.961 . S
C839 H855 0.960 . S
H840 C824 0.931 . S
H841 C829 0.929 . S
H842 C830 0.960 . S
H843 C830 0.962 . S
H844 C830 0.960 . S
H845 C831 0.961 . S
H846 C831 0.961 . S
H847 C831 0.961 . S
H848 C832 0.931 . S
H849 C837 0.930 . S
H850 C838 0.956 . S
H851 C838 0.961 . S
H852 C838 0.961 . S
H853 C839 0.958 . S
H854 C839 0.961 . S
H855 C839 0.960 . S
C856 C857 1.391 . S
C856 C858 1.394 . S
C856 H872 0.931 . S
C857 C856 1.391 . S
C857 C861 1.376 . S
C858 C856 1.394 . S
C858 C859 1.369 . S
C858 C862 1.531 . S
C859 C858 1.369 . S
C859 C860 1.410 . S
C859 C867 1.503 . S
C860 C859 1.410 . S
C860 C861 1.392 . S
C860 C863 1.511 . S
C861 C857 1.376 . S
C861 C860 1.392 . S
C861 H873 0.929 . S
C862 C858 1.531 . S
C862 H874 0.960 . S
C862 H875 0.962 . S
C862 H876 0.960 . S
C863 C860 1.511 . S
C863 H877 0.961 . S
C863 H878 0.961 . S
C863 H879 0.961 . S
C864 C865 1.370 . S
C864 C866 1.363 . S
C864 H880 0.931 . S
C865 C864 1.370 . S
C865 C869 1.408 . S
C866 C864 1.363 . S
C866 C867 1.370 . S
C866 C870 1.524 . S
C867 C859 1.503 . S
C867 C866 1.370 . S
C867 C868 1.403 . S
C868 C867 1.403 . S
C868 C869 1.404 . S
C868 C871 1.539 . S
C869 C865 1.408 . S
C869 C868 1.404 . S
C869 H881 0.930 . S
C870 C866 1.524 . S
C870 H882 0.956 . S
C870 H883 0.961 . S
C870 H884 0.961 . S
C871 C868 1.539 . S
C871 H885 0.958 . S
C871 H886 0.961 . S
C871 H887 0.960 . S
H872 C856 0.931 . S
H873 C861 0.929 . S
H874 C862 0.960 . S
H875 C862 0.962 . S
H876 C862 0.960 . S
H877 C863 0.961 . S
H878 C863 0.961 . S
H879 C863 0.961 . S
H880 C864 0.931 . S
H881 C869 0.930 . S
H882 C870 0.956 . S
H883 C870 0.961 . S
H884 C870 0.961 . S
H885 C871 0.958 . S
H886 C871 0.961 . S
H887 C871 0.960 . S
C888 C889 1.391 . S
C888 C890 1.394 . S
C888 H904 0.931 . S
C889 C888 1.391 . S
C889 C893 1.376 . S
C890 C888 1.394 . S
C890 C891 1.369 . S
C890 C894 1.531 . S
C891 C890 1.369 . S
C891 C892 1.410 . S
C891 C899 1.503 . S
C892 C891 1.410 . S
C892 C893 1.392 . S
C892 C895 1.511 . S
C893 C889 1.376 . S
C893 C892 1.392 . S
C893 H905 0.929 . S
C894 C890 1.531 . S
C894 H906 0.960 . S
C894 H907 0.962 . S
C894 H908 0.960 . S
C895 C892 1.511 . S
C895 H909 0.961 . S
C895 H910 0.961 . S
C895 H911 0.961 . S
C896 C897 1.370 . S
C896 C898 1.363 . S
C896 H912 0.931 . S
C897 C896 1.370 . S
C897 C901 1.408 . S
C898 C896 1.363 . S
C898 C899 1.370 . S
C898 C902 1.524 . S
C899 C891 1.503 . S
C899 C898 1.370 . S
C899 C900 1.403 . S
C900 C899 1.403 . S
C900 C901 1.404 . S
C900 C903 1.539 . S
C901 C897 1.408 . S
C901 C900 1.404 . S
C901 H913 0.930 . S
C902 C898 1.524 . S
C902 H914 0.956 . S
C902 H915 0.961 . S
C902 H916 0.961 . S
C903 C900 1.539 . S
C903 H917 0.958 . S
C903 H918 0.961 . S
C903 H919 0.960 . S
H904 C888 0.931 . S
H905 C893 0.929 . S
H906 C894 0.960 . S
H907 C894 0.962 . S
H908 C894 0.960 . S
H909 C895 0.961 . S
H910 C895 0.961 . S
H911 C895 0.961 . S
H912 C896 0.931 . S
H913 C901 0.930 . S
H914 C902 0.956 . S
H915 C902 0.961 . S
H916 C902 0.961 . S
H917 C903 0.958 . S
H918 C903 0.961 . S
H919 C903 0.960 . S
C920 C921 1.391 . S
C920 C922 1.394 . S
C920 H936 0.931 . S
C921 C920 1.391 . S
C921 C925 1.376 . S
C922 C920 1.394 . S
C922 C923 1.369 . S
C922 C926 1.531 . S
C923 C922 1.369 . S
C923 C924 1.410 . S
C923 C931 1.503 . S
C924 C923 1.410 . S
C924 C925 1.392 . S
C924 C927 1.511 . S
C925 C921 1.376 . S
C925 C924 1.392 . S
C925 H937 0.929 . S
C926 C922 1.531 . S
C926 H938 0.960 . S
C926 H939 0.962 . S
C926 H940 0.960 . S
C927 C924 1.511 . S
C927 H941 0.961 . S
C927 H942 0.961 . S
C927 H943 0.961 . S
C928 C929 1.370 . S
C928 C930 1.363 . S
C928 H944 0.931 . S
C929 C928 1.370 . S
C929 C933 1.408 . S
C930 C928 1.363 . S
C930 C931 1.370 . S
C930 C934 1.524 . S
C931 C923 1.503 . S
C931 C930 1.370 . S
C931 C932 1.403 . S
C932 C931 1.403 . S
C932 C933 1.404 . S
C932 C935 1.539 . S
C933 C929 1.408 . S
C933 C932 1.404 . S
C933 H945 0.930 . S
C934 C930 1.524 . S
C934 H946 0.956 . S
C934 H947 0.961 . S
C934 H948 0.961 . S
C935 C932 1.539 . S
C935 H949 0.958 . S
C935 H950 0.961 . S
C935 H951 0.960 . S
H936 C920 0.931 . S
H937 C925 0.929 . S
H938 C926 0.960 . S
H939 C926 0.962 . S
H940 C926 0.960 . S
H941 C927 0.961 . S
H942 C927 0.961 . S
H943 C927 0.961 . S
H944 C928 0.931 . S
H945 C933 0.930 . S
H946 C934 0.956 . S
H947 C934 0.961 . S
H948 C934 0.961 . S
H949 C935 0.958 . S
H950 C935 0.961 . S
H951 C935 0.960 . S
C952 C953 1.391 . S
C952 C954 1.394 . S
C952 H968 0.931 . S
C953 C952 1.391 . S
C953 C957 1.376 . S
C954 C952 1.394 . S
C954 C955 1.369 . S
C954 C958 1.531 . S
C955 C954 1.369 . S
C955 C956 1.410 . S
C955 C963 1.503 . S
C956 C955 1.410 . S
C956 C957 1.392 . S
C956 C959 1.511 . S
C957 C953 1.376 . S
C957 C956 1.392 . S
C957 H969 0.929 . S
C958 C954 1.531 . S
C958 H970 0.960 . S
C958 H971 0.962 . S
C958 H972 0.960 . S
C959 C956 1.511 . S
C959 H973 0.961 . S
C959 H974 0.961 . S
C959 H975 0.961 . S
C960 C961 1.370 . S
C960 C962 1.363 . S
C960 H976 0.931 . S
C961 C960 1.370 . S
C961 C965 1.408 . S
C962 C960 1.363 . S
C962 C963 1.370 . S
C962 C966 1.524 . S
C963 C955 1.503 . S
C963 C962 1.370 . S
C963 C964 1.403 . S
C964 C963 1.403 . S
C964 C965 1.404 . S
C964 C967 1.539 . S
C965 C961 1.408 . S
C965 C964 1.404 . S
C965 H977 0.930 . S
C966 C962 1.524 . S
C966 H978 0.956 . S
C966 H979 0.961 . S
C966 H980 0.961 . S
C967 C964 1.539 . S
C967 H981 0.958 . S
C967 H982 0.961 . S
C967 H983 0.960 . S
H968 C952 0.931 . S
H969 C957 0.929 . S
H970 C958 0.960 . S
H971 C958 0.962 . S
H972 C958 0.960 . S
H973 C959 0.961 . S
H974 C959 0.961 . S
H975 C959 0.961 . S
H976 C960 0.931 . S
H977 C965 0.930 . S
H978 C966 0.956 . S
H979 C966 0.961 . S
H980 C966 0.961 . S
H981 C967 0.958 . S
H982 C967 0.961 . S
H983 C967 0.960 . S
C984 C985 1.391 . S
C984 C986 1.394 . S
C984 H1000 0.931 . S
C985 C984 1.391 . S
C985 C989 1.376 . S
C986 C984 1.394 . S
C986 C987 1.369 . S
C986 C990 1.531 . S
C987 C986 1.369 . S
C987 C988 1.410 . S
C987 C995 1.503 . S
C988 C987 1.410 . S
C988 C989 1.392 . S
C988 C991 1.511 . S
C989 C985 1.376 . S
C989 C988 1.392 . S
C989 H1001 0.929 . S
C990 C986 1.531 . S
C990 H1002 0.960 . S
C990 H1003 0.962 . S
C990 H1004 0.960 . S
C991 C988 1.511 . S
C991 H1005 0.961 . S
C991 H1006 0.961 . S
C991 H1007 0.961 . S
C992 C993 1.370 . S
C992 C994 1.363 . S
C992 H1008 0.931 . S
C993 C992 1.370 . S
C993 C997 1.408 . S
C994 C992 1.363 . S
C994 C995 1.370 . S
C994 C998 1.524 . S
C995 C987 1.503 . S
C995 C994 1.370 . S
C995 C996 1.403 . S
C996 C995 1.403 . S
C996 C997 1.404 . S
C996 C999 1.539 . S
C997 C993 1.408 . S
C997 C996 1.404 . S
C997 H1009 0.930 . S
C998 C994 1.524 . S
C998 H1010 0.956 . S
C998 H1011 0.961 . S
C998 H1012 0.961 . S
C999 C996 1.539 . S
C999 H1013 0.958 . S
C999 H1014 0.961 . S
C999 H1015 0.960 . S
H1000 C984 0.931 . S
H1001 C989 0.929 . S
H1002 C990 0.960 . S
H1003 C990 0.962 . S
H1004 C990 0.960 . S
H1005 C991 0.961 . S
H1006 C991 0.961 . S
H1007 C991 0.961 . S
H1008 C992 0.931 . S
H1009 C997 0.930 . S
H1010 C998 0.956 . S
H1011 C998 0.961 . S
H1012 C998 0.961 . S
H1013 C999 0.958 . S
H1014 C999 0.961 . S
H1015 C999 0.960 . S
C1016 C1017 1.391 . S
C1016 C1018 1.394 . S
C1016 H1032 0.931 . S
C1017 C1016 1.391 . S
C1017 C1021 1.376 . S
C1018 C1016 1.394 . S
C1018 C1019 1.369 . S
C1018 C1022 1.531 . S
C1019 C1018 1.369 . S
C1019 C1020 1.410 . S
C1019 C1027 1.503 . S
C1020 C1019 1.410 . S
C1020 C1021 1.392 . S
C1020 C1023 1.511 . S
C1021 C1017 1.376 . S
C1021 C1020 1.392 . S
C1021 H1033 0.929 . S
C1022 C1018 1.531 . S
C1022 H1034 0.960 . S
C1022 H1035 0.962 . S
C1022 H1036 0.960 . S
C1023 C1020 1.511 . S
C1023 H1037 0.961 . S
C1023 H1038 0.961 . S
C1023 H1039 0.961 . S
C1024 C1025 1.370 . S
C1024 C1026 1.363 . S
C1024 H1040 0.931 . S
C1025 C1024 1.370 . S
C1025 C1029 1.408 . S
C1026 C1024 1.363 . S
C1026 C1027 1.370 . S
C1026 C1030 1.524 . S
C1027 C1019 1.503 . S
C1027 C1026 1.370 . S
C1027 C1028 1.403 . S
C1028 C1027 1.403 . S
C1028 C1029 1.404 . S
C1028 C1031 1.539 . S
C1029 C1025 1.408 . S
C1029 C1028 1.404 . S
C1029 H1041 0.930 . S
C1030 C1026 1.524 . S
C1030 H1042 0.956 . S
C1030 H1043 0.961 . S
C1030 H1044 0.961 . S
C1031 C1028 1.539 . S
C1031 H1045 0.958 . S
C1031 H1046 0.961 . S
C1031 H1047 0.960 . S
H1032 C1016 0.931 . S
H1033 C1021 0.929 . S
H1034 C1022 0.960 . S
H1035 C1022 0.962 . S
H1036 C1022 0.960 . S
H1037 C1023 0.961 . S
H1038 C1023 0.961 . S
H1039 C1023 0.961 . S
H1040 C1024 0.931 . S
H1041 C1029 0.930 . S
H1042 C1030 0.956 . S
H1043 C1030 0.961 . S
H1044 C1030 0.961 . S
H1045 C1031 0.958 . S
H1046 C1031 0.961 . S
H1047 C1031 0.960 . S
C1048 C1049 1.391 . S
C1048 C1050 1.394 . S
C1048 H1064 0.931 . S
C1049 C1048 1.391 . S
C1049 C1053 1.376 . S
C1050 C1048 1.394 . S
C1050 C1051 1.369 . S
C1050 C1054 1.531 . S
C1051 C1050 1.369 . S
C1051 C1052 1.410 . S
C1051 C1059 1.503 . S
C1052 C1051 1.410 . S
C1052 C1053 1.392 . S
C1052 C1055 1.511 . S
C1053 C1049 1.376 . S
C1053 C1052 1.392 . S
C1053 H1065 0.929 . S
C1054 C1050 1.531 . S
C1054 H1066 0.960 . S
C1054 H1067 0.962 . S
C1054 H1068 0.960 . S
C1055 C1052 1.511 . S
C1055 H1069 0.961 . S
C1055 H1070 0.961 . S
C1055 H1071 0.961 . S
C1056 C1057 1.370 . S
C1056 C1058 1.363 . S
C1056 H1072 0.931 . S
C1057 C1056 1.370 . S
C1057 C1061 1.408 . S
C1058 C1056 1.363 . S
C1058 C1059 1.370 . S
C1058 C1062 1.524 . S
C1059 C1051 1.503 . S
C1059 C1058 1.370 . S
C1059 C1060 1.403 . S
C1060 C1059 1.403 . S
C1060 C1061 1.404 . S
C1060 C1063 1.539 . S
C1061 C1057 1.408 . S
C1061 C1060 1.404 . S
C1061 H1073 0.930 . S
C1062 C1058 1.524 . S
C1062 H1074 0.956 . S
C1062 H1075 0.961 . S
C1062 H1076 0.961 . S
C1063 C1060 1.539 . S
C1063 H1077 0.958 . S
C1063 H1078 0.961 1_554 S
C1063 H1079 0.960 . S
H1064 C1048 0.931 . S
H1065 C1053 0.929 . S
H1066 C1054 0.960 . S
H1067 C1054 0.962 . S
H1068 C1054 0.960 . S
H1069 C1055 0.961 . S
H1070 C1055 0.961 . S
H1071 C1055 0.961 . S
H1072 C1056 0.931 . S
H1073 C1061 0.930 . S
H1074 C1062 0.956 . S
H1075 C1062 0.961 . S
H1076 C1062 0.961 . S
H1077 C1063 0.958 . S
H1078 C1063 0.961 1_556 S
H1079 C1063 0.960 . S
C1080 C1081 1.391 . S
C1080 C1082 1.394 . S
C1080 H1096 0.931 . S
C1081 C1080 1.391 . S
C1081 C1085 1.376 . S
C1082 C1080 1.394 . S
C1082 C1083 1.369 . S
C1082 C1086 1.531 . S
C1083 C1082 1.369 . S
C1083 C1084 1.410 . S
C1083 C1091 1.503 . S
C1084 C1083 1.410 . S
C1084 C1085 1.392 . S
C1084 C1087 1.511 . S
C1085 C1081 1.376 . S
C1085 C1084 1.392 . S
C1085 H1097 0.929 . S
C1086 C1082 1.531 . S
C1086 H1098 0.960 . S
C1086 H1099 0.962 . S
C1086 H1100 0.960 . S
C1087 C1084 1.511 . S
C1087 H1101 0.961 . S
C1087 H1102 0.961 . S
C1087 H1103 0.961 . S
C1088 C1089 1.370 . S
C1088 C1090 1.363 . S
C1088 H1104 0.931 . S
C1089 C1088 1.370 . S
C1089 C1093 1.408 . S
C1090 C1088 1.363 . S
C1090 C1091 1.370 . S
C1090 C1094 1.524 . S
C1091 C1083 1.503 . S
C1091 C1090 1.370 . S
C1091 C1092 1.403 . S
C1092 C1091 1.403 . S
C1092 C1093 1.404 . S
C1092 C1095 1.539 . S
C1093 C1089 1.408 . S
C1093 C1092 1.404 . S
C1093 H1105 0.930 . S
C1094 C1090 1.524 . S
C1094 H1106 0.956 . S
C1094 H1107 0.961 . S
C1094 H1108 0.961 . S
C1095 C1092 1.539 . S
C1095 H1109 0.958 . S
C1095 H1110 0.961 . S
C1095 H1111 0.960 . S
H1096 C1080 0.931 . S
H1097 C1085 0.929 . S
H1098 C1086 0.960 . S
H1099 C1086 0.962 . S
H1100 C1086 0.960 . S
H1101 C1087 0.961 . S
H1102 C1087 0.961 . S
H1103 C1087 0.961 . S
H1104 C1088 0.931 . S
H1105 C1093 0.930 . S
H1106 C1094 0.956 . S
H1107 C1094 0.961 . S
H1108 C1094 0.961 . S
H1109 C1095 0.958 . S
H1110 C1095 0.961 . S
H1111 C1095 0.960 . S
C1112 C1113 1.391 . S
C1112 C1114 1.394 . S
C1112 H1128 0.931 . S
C1113 C1112 1.391 . S
C1113 C1117 1.376 . S
C1114 C1112 1.394 . S
C1114 C1115 1.369 . S
C1114 C1118 1.531 . S
C1115 C1114 1.369 . S
C1115 C1116 1.410 . S
C1115 C1123 1.503 . S
C1116 C1115 1.410 . S
C1116 C1117 1.392 . S
C1116 C1119 1.511 . S
C1117 C1113 1.376 . S
C1117 C1116 1.392 . S
C1117 H1129 0.929 . S
C1118 C1114 1.531 . S
C1118 H1130 0.960 . S
C1118 H1131 0.962 . S
C1118 H1132 0.960 . S
C1119 C1116 1.511 . S
C1119 H1133 0.961 . S
C1119 H1134 0.961 . S
C1119 H1135 0.961 . S
C1120 C1121 1.370 . S
C1120 C1122 1.363 . S
C1120 H1136 0.931 . S
C1121 C1120 1.370 . S
C1121 C1125 1.408 . S
C1122 C1120 1.363 . S
C1122 C1123 1.370 . S
C1122 C1126 1.524 . S
C1123 C1115 1.503 . S
C1123 C1122 1.370 . S
C1123 C1124 1.403 . S
C1124 C1123 1.403 . S
C1124 C1125 1.404 . S
C1124 C1127 1.539 . S
C1125 C1121 1.408 . S
C1125 C1124 1.404 . S
C1125 H1137 0.930 . S
C1126 C1122 1.524 . S
C1126 H1138 0.956 . S
C1126 H1139 0.961 . S
C1126 H1140 0.961 . S
C1127 C1124 1.539 . S
C1127 H1141 0.958 . S
C1127 H1142 0.961 . S
C1127 H1143 0.960 . S
H1128 C1112 0.931 . S
H1129 C1117 0.929 . S
H1130 C1118 0.960 . S
H1131 C1118 0.962 . S
H1132 C1118 0.960 . S
H1133 C1119 0.961 . S
H1134 C1119 0.961 . S
H1135 C1119 0.961 . S
H1136 C1120 0.931 . S
H1137 C1125 0.930 . S
H1138 C1126 0.956 . S
H1139 C1126 0.961 . S
H1140 C1126 0.961 . S
H1141 C1127 0.958 . S
H1142 C1127 0.961 . S
H1143 C1127 0.960 . S
C1144 C1145 1.391 . S
C1144 C1146 1.394 . S
C1144 H1160 0.931 . S
C1145 C1144 1.391 . S
C1145 C1149 1.376 . S
C1146 C1144 1.394 . S
C1146 C1147 1.369 . S
C1146 C1150 1.531 . S
C1147 C1146 1.369 . S
C1147 C1148 1.410 . S
C1147 C1155 1.503 . S
C1148 C1147 1.410 . S
C1148 C1149 1.392 . S
C1148 C1151 1.511 . S
C1149 C1145 1.376 . S
C1149 C1148 1.392 . S
C1149 H1161 0.929 . S
C1150 C1146 1.531 . S
C1150 H1162 0.960 . S
C1150 H1163 0.962 . S
C1150 H1164 0.960 . S
C1151 C1148 1.511 . S
C1151 H1165 0.961 . S
C1151 H1166 0.961 . S
C1151 H1167 0.961 . S
C1152 C1153 1.370 . S
C1152 C1154 1.363 . S
C1152 H1168 0.931 . S
C1153 C1152 1.370 . S
C1153 C1157 1.408 . S
C1154 C1152 1.363 . S
C1154 C1155 1.370 . S
C1154 C1158 1.524 . S
C1155 C1147 1.503 . S
C1155 C1154 1.370 . S
C1155 C1156 1.403 . S
C1156 C1155 1.403 . S
C1156 C1157 1.404 . S
C1156 C1159 1.539 . S
C1157 C1153 1.408 . S
C1157 C1156 1.404 . S
C1157 H1169 0.930 . S
C1158 C1154 1.524 . S
C1158 H1170 0.956 . S
C1158 H1171 0.961 . S
C1158 H1172 0.961 . S
C1159 C1156 1.539 . S
C1159 H1173 0.958 . S
C1159 H1174 0.961 . S
C1159 H1175 0.960 . S
H1160 C1144 0.931 . S
H1161 C1149 0.929 . S
H1162 C1150 0.960 . S
H1163 C1150 0.962 . S
H1164 C1150 0.960 . S
H1165 C1151 0.961 . S
H1166 C1151 0.961 . S
H1167 C1151 0.961 . S
H1168 C1152 0.931 . S
H1169 C1157 0.930 . S
H1170 C1158 0.956 . S
H1171 C1158 0.961 . S
H1172 C1158 0.961 . S
H1173 C1159 0.958 . S
H1174 C1159 0.961 . S
H1175 C1159 0.960 . S
C1176 C1177 1.391 . S
C1176 C1178 1.394 . S
C1176 H1192 0.931 . S
C1177 C1176 1.391 . S
C1177 C1181 1.376 . S
C1178 C1176 1.394 . S
C1178 C1179 1.369 . S
C1178 C1182 1.531 . S
C1179 C1178 1.369 . S
C1179 C1180 1.410 . S
C1179 C1187 1.503 . S
C1180 C1179 1.410 . S
C1180 C1181 1.392 . S
C1180 C1183 1.511 . S
C1181 C1177 1.376 . S
C1181 C1180 1.392 . S
C1181 H1193 0.929 . S
C1182 C1178 1.531 . S
C1182 H1194 0.960 . S
C1182 H1195 0.962 . S
C1182 H1196 0.960 . S
C1183 C1180 1.511 . S
C1183 H1197 0.961 . S
C1183 H1198 0.961 . S
C1183 H1199 0.961 . S
C1184 C1185 1.370 . S
C1184 C1186 1.363 . S
C1184 H1200 0.931 . S
C1185 C1184 1.370 . S
C1185 C1189 1.408 . S
C1186 C1184 1.363 . S
C1186 C1187 1.370 . S
C1186 C1190 1.524 . S
C1187 C1179 1.503 . S
C1187 C1186 1.370 . S
C1187 C1188 1.403 . S
C1188 C1187 1.403 . S
C1188 C1189 1.404 . S
C1188 C1191 1.539 . S
C1189 C1185 1.408 . S
C1189 C1188 1.404 . S
C1189 H1201 0.930 . S
C1190 C1186 1.524 . S
C1190 H1202 0.956 . S
C1190 H1203 0.961 . S
C1190 H1204 0.961 . S
C1191 C1188 1.539 . S
C1191 H1205 0.958 . S
C1191 H1206 0.961 . S
C1191 H1207 0.960 . S
H1192 C1176 0.931 . S
H1193 C1181 0.929 . S
H1194 C1182 0.960 . S
H1195 C1182 0.962 . S
H1196 C1182 0.960 . S
H1197 C1183 0.961 . S
H1198 C1183 0.961 . S
H1199 C1183 0.961 . S
H1200 C1184 0.931 . S
H1201 C1189 0.930 . S
H1202 C1190 0.956 . S
H1203 C1190 0.961 . S
H1204 C1190 0.961 . S
H1205 C1191 0.958 . S
H1206 C1191 0.961 . S
H1207 C1191 0.960 . S
C1208 C1209 1.391 . S
C1208 C1210 1.394 . S
C1208 H1224 0.931 . S
C1209 C1208 1.391 . S
C1209 C1213 1.376 . S
C1210 C1208 1.394 . S
C1210 C1211 1.369 . S
C1210 C1214 1.531 . S
C1211 C1210 1.369 . S
C1211 C1212 1.410 . S
C1211 C1219 1.503 . S
C1212 C1211 1.410 . S
C1212 C1213 1.392 . S
C1212 C1215 1.511 . S
C1213 C1209 1.376 . S
C1213 C1212 1.392 . S
C1213 H1225 0.929 . S
C1214 C1210 1.531 . S
C1214 H1226 0.960 . S
C1214 H1227 0.962 . S
C1214 H1228 0.960 . S
C1215 C1212 1.511 . S
C1215 H1229 0.961 . S
C1215 H1230 0.961 . S
C1215 H1231 0.961 . S
C1216 C1217 1.370 . S
C1216 C1218 1.363 . S
C1216 H1232 0.931 . S
C1217 C1216 1.370 . S
C1217 C1221 1.408 . S
C1218 C1216 1.363 . S
C1218 C1219 1.370 . S
C1218 C1222 1.524 . S
C1219 C1211 1.503 . S
C1219 C1218 1.370 . S
C1219 C1220 1.403 . S
C1220 C1219 1.403 . S
C1220 C1221 1.404 . S
C1220 C1223 1.539 . S
C1221 C1217 1.408 . S
C1221 C1220 1.404 . S
C1221 H1233 0.930 . S
C1222 C1218 1.524 . S
C1222 H1234 0.956 . S
C1222 H1235 0.961 . S
C1222 H1236 0.961 . S
C1223 C1220 1.539 . S
C1223 H1237 0.958 . S
C1223 H1238 0.961 . S
C1223 H1239 0.960 . S
H1224 C1208 0.931 . S
H1225 C1213 0.929 . S
H1226 C1214 0.960 . S
H1227 C1214 0.962 . S
H1228 C1214 0.960 . S
H1229 C1215 0.961 . S
H1230 C1215 0.961 . S
H1231 C1215 0.961 . S
H1232 C1216 0.931 . S
H1233 C1221 0.930 . S
H1234 C1222 0.956 . S
H1235 C1222 0.961 . S
H1236 C1222 0.961 . S
H1237 C1223 0.958 . S
H1238 C1223 0.961 . S
H1239 C1223 0.960 . S
C473 C1 1.195 . S
C481 C318 1.296 . S
C505 C40 0.957 . S
C513 C367 0.979 . S
C545 C402 2.465 . S
C537 C99 2.511 . S
C569 C118 2.376 . S
C577 C441 2.321 . S
C609 C362 2.502 . S
C601 C16 2.373 . S
C641 C321 0.873 . S
C633 C60 0.840 . S
C673 C451 1.904 . S
C665 C79 1.949 . S
C705 C410 1.573 . S
C697 C138 1.596 . S
C729 C21 1.659 . S
C737 C438 1.746 . S
C769 C370 2.343 . S
C761 C94 2.411 . S
C793 C133 2.326 . S
C801 C331 2.317 . S
C825 C55 0.788 . S
C833 C407 0.844 . S
C865 C327 1.292 . S
C857 C157 1.219 . S
C889 C196 0.966 . S
C897 C358 0.972 . S
C921 C255 2.510 . S
C929 C411 2.470 . S
C953 C289 2.370 . S
C961 C450 2.324 . S
C985 C172 2.368 . S
C993 C371 2.500 . S
C1025 C330 0.826 . S
C1017 C216 0.899 . S
C1057 C442 1.912 . S
C1049 C235 1.948 . S
C1089 C401 1.579 . S
C1081 C294 1.608 . S
C1113 C177 1.693 . S
C1121 C447 1.746 . S
C1153 C361 2.345 . S
C1145 C250 2.412 . S
C1185 C322 2.325 . S
C1177 C274 2.324 . S
C1209 C211 0.797 . S
C1217 C398 0.838 . S
