# Generated by pormake.
# Topology pyr, (3,6)-cn, num edge types: 1
# Building blocks:
#     Node 0, Type 0, BuildingBlock: BELTOD_clean_linker_0, # of connection points: 3
#     Node 1, Type 0, BuildingBlock: BELTOD_clean_linker_0, # of connection points: 3
#     Node 2, Type 0, BuildingBlock: BELTOD_clean_linker_0, # of connection points: 3
#     Node 3, Type 0, BuildingBlock: BELTOD_clean_linker_0, # of connection points: 3
#     Node 4, Type 0, BuildingBlock: BELTOD_clean_linker_0, # of connection points: 3
#     Node 5, Type 0, BuildingBlock: BELTOD_clean_linker_0, # of connection points: 3
#     Node 6, Type 0, BuildingBlock: BELTOD_clean_linker_0, # of connection points: 3
#     Node 7, Type 0, BuildingBlock: BELTOD_clean_linker_0, # of connection points: 3
#     Node 8, Type 1, BuildingBlock: PAMTOO_clean_sbu_0, # of connection points: 6
#     Node 9, Type 1, BuildingBlock: PAMTOO_clean_sbu_0, # of connection points: 6
#     Node 10, Type 1, BuildingBlock: PAMTOO_clean_sbu_0, # of connection points: 6
#     Node 11, Type 1, BuildingBlock: PAMTOO_clean_sbu_0, # of connection points: 6
#     Edge 12, Type (0, 1), BuildingBlock: XUDNAN_clean_linker_2, # of connection points: 2
#     Edge 13, Type (0, 1), BuildingBlock: XUDNAN_clean_linker_2, # of connection points: 2
#     Edge 14, Type (0, 1), BuildingBlock: XUDNAN_clean_linker_2, # of connection points: 2
#     Edge 15, Type (0, 1), BuildingBlock: XUDNAN_clean_linker_2, # of connection points: 2
#     Edge 16, Type (0, 1), BuildingBlock: XUDNAN_clean_linker_2, # of connection points: 2
#     Edge 17, Type (0, 1), BuildingBlock: XUDNAN_clean_linker_2, # of connection points: 2
#     Edge 18, Type (0, 1), BuildingBlock: XUDNAN_clean_linker_2, # of connection points: 2
#     Edge 19, Type (0, 1), BuildingBlock: XUDNAN_clean_linker_2, # of connection points: 2
#     Edge 20, Type (0, 1), BuildingBlock: XUDNAN_clean_linker_2, # of connection points: 2
#     Edge 21, Type (0, 1), BuildingBlock: XUDNAN_clean_linker_2, # of connection points: 2
#     Edge 22, Type (0, 1), BuildingBlock: XUDNAN_clean_linker_2, # of connection points: 2
#     Edge 23, Type (0, 1), BuildingBlock: XUDNAN_clean_linker_2, # of connection points: 2
#     Edge 24, Type (0, 1), BuildingBlock: XUDNAN_clean_linker_2, # of connection points: 2
#     Edge 25, Type (0, 1), BuildingBlock: XUDNAN_clean_linker_2, # of connection points: 2
#     Edge 26, Type (0, 1), BuildingBlock: XUDNAN_clean_linker_2, # of connection points: 2
#     Edge 27, Type (0, 1), BuildingBlock: XUDNAN_clean_linker_2, # of connection points: 2
#     Edge 28, Type (0, 1), BuildingBlock: XUDNAN_clean_linker_2, # of connection points: 2
#     Edge 29, Type (0, 1), BuildingBlock: XUDNAN_clean_linker_2, # of connection points: 2
#     Edge 30, Type (0, 1), BuildingBlock: XUDNAN_clean_linker_2, # of connection points: 2
#     Edge 31, Type (0, 1), BuildingBlock: XUDNAN_clean_linker_2, # of connection points: 2
#     Edge 32, Type (0, 1), BuildingBlock: XUDNAN_clean_linker_2, # of connection points: 2
#     Edge 33, Type (0, 1), BuildingBlock: XUDNAN_clean_linker_2, # of connection points: 2
#     Edge 34, Type (0, 1), BuildingBlock: XUDNAN_clean_linker_2, # of connection points: 2
#     Edge 35, Type (0, 1), BuildingBlock: XUDNAN_clean_linker_2, # of connection points: 2
# Relax obj value: 0.101
# Max RMSD: 0.162
# Mean RMSD: 0.069
data_MOF--net-pyr--node1-PAMTOO_clean_sbu_0--node2-BELTOD_clean_linker_0--edge1-XUDNAN_clean_linker_2
_symmetry_space_group_name_H-M    P1
_symmetry_Int_Tables_number       1
_symmetry_cell_setting            triclinic
loop_
_symmetry_equiv_pos_as_xyz
'x, y, z'
_cell_length_a     41.65611
_cell_length_b     44.687575
_cell_length_c     44.358724
_cell_angle_alpha  90.016605
_cell_angle_beta   89.872871
_cell_angle_gamma 102.82693
loop_
_atom_site_label
_atom_site_type_symbol
_atom_site_fract_x
_atom_site_fract_y
_atom_site_fract_z
_atom_type_partial_charge
P0 P 0.37106 0.31707 0.20551 0.0
H1 H 0.43648 0.30335 0.19765 0.0
H2 H 0.45388 0.25595 0.18532 0.0
H3 H 0.35184 0.20896 0.17545 0.0
H4 H 0.33485 0.25592 0.18907 0.0
H5 H 0.33841 0.36786 0.20543 0.0
H6 H 0.29278 0.3775 0.17559 0.0
H7 H 0.30431 0.3061 0.1134 0.0
H8 H 0.34955 0.29622 0.14376 0.0
H9 H 0.38495 0.31094 0.26976 0.0
H10 H 0.29952 0.2972 0.21219 0.0
O11 O 0.40321 0.34505 0.21477 0.0
H12 H 0.34895 0.29326 0.31329 0.0
H13 H 0.26397 0.28072 0.25524 0.0
C14 C 0.38439 0.28313 0.19409 0.0
C15 C 0.41793 0.28283 0.19274 0.0
C16 C 0.42783 0.25571 0.18556 0.0
C17 C 0.40428 0.2285 0.17956 0.0
C18 C 0.37069 0.22921 0.18057 0.0
C19 C 0.36088 0.25616 0.18804 0.0
C20 C 0.34691 0.33091 0.17725 0.0
C21 C 0.33182 0.35498 0.18482 0.0
C22 C 0.30565 0.36044 0.16767 0.0
C23 C 0.29435 0.34208 0.14241 0.0
C24 C 0.31179 0.32005 0.13321 0.0
C25 C 0.33786 0.31448 0.15053 0.0
C26 C 0.34492 0.30642 0.23792 0.0
C27 C 0.35854 0.30478 0.26659 0.0
C28 C 0.33804 0.29465 0.29134 0.0
C29 C 0.3037 0.2863 0.28763 0.0
C30 C 0.29028 0.28786 0.25886 0.0
C31 C 0.3107 0.29739 0.2342 0.0
P32 P 0.22736 0.80788 0.68773 0.0
H33 H 0.28318 0.83671 0.72431 0.0
H34 H 0.28908 0.85094 0.77715 0.0
H35 H 0.18561 0.81151 0.79164 0.0
H36 H 0.17977 0.79805 0.73794 0.0
H37 H 0.26287 0.78196 0.6417 0.0
H38 H 0.28067 0.73384 0.63879 0.0
H39 H 0.22314 0.70125 0.71826 0.0
H40 H 0.20598 0.75014 0.72137 0.0
H41 H 0.18689 0.8516 0.70097 0.0
H42 H 0.18708 0.77857 0.63743 0.0
O43 O 0.25744 0.83242 0.66986 0.0
H44 H 0.14607 0.86927 0.67076 0.0
H45 H 0.14599 0.79616 0.60699 0.0
C46 C 0.23091 0.81707 0.72715 0.0
C47 C 0.26172 0.83117 0.73879 0.0
C48 C 0.26513 0.83892 0.76919 0.0
C49 C 0.23782 0.83223 0.78872 0.0
C50 C 0.20703 0.81723 0.77711 0.0
C51 C 0.20365 0.80955 0.74651 0.0
C52 C 0.23387 0.76988 0.6822 0.0
C53 C 0.25364 0.76431 0.65824 0.0
C54 C 0.26354 0.73655 0.65644 0.0
C55 C 0.25358 0.71373 0.6785 0.0
C56 C 0.23168 0.71857 0.70124 0.0
C57 C 0.22179 0.74646 0.703 0.0
C58 C 0.18963 0.81346 0.67173 0.0
C59 C 0.17701 0.83846 0.68127 0.0
C60 C 0.1536 0.84858 0.66392 0.0
C61 C 0.14296 0.83418 0.63642 0.0
C62 C 0.1539 0.80777 0.62803 0.0
C63 C 0.17722 0.79757 0.64552 0.0
P64 P 0.66773 0.34533 0.83431 0.0
H65 H 0.73532 0.34265 0.84922 0.0
H66 H 0.77885 0.37552 0.87813 0.0
H67 H 0.71423 0.43677 0.89689 0.0
H68 H 0.67094 0.40395 0.86674 0.0
H69 H 0.62469 0.28429 0.82464 0.0
H70 H 0.60224 0.24175 0.85904 0.0
H71 H 0.63732 0.30018 0.93494 0.0
H72 H 0.65915 0.34258 0.90069 0.0
H73 H 0.68597 0.40324 0.8005 0.0
H74 H 0.59997 0.32987 0.81017 0.0
O75 O 0.68683 0.32554 0.81109 0.0
H76 H 0.66047 0.42362 0.75771 0.0
H77 H 0.57435 0.35005 0.76751 0.0
C78 C 0.70001 0.37113 0.85515 0.0
C79 C 0.73055 0.36334 0.8592 0.0
C80 C 0.75543 0.38207 0.8762 0.0
C81 C 0.75034 0.40899 0.89009 0.0
C82 C 0.71944 0.41657 0.88621 0.0
C83 C 0.69454 0.39778 0.86901 0.0
C84 C 0.64377 0.31685 0.85985 0.0
C85 C 0.62667 0.28828 0.84871 0.0
C86 C 0.61388 0.26386 0.86844 0.0
C87 C 0.61832 0.26734 0.8998 0.0
C88 C 0.63383 0.29651 0.91092 0.0
C89 C 0.64624 0.32095 0.89123 0.0
C90 C 0.64476 0.36524 0.80922 0.0
C91 C 0.6611 0.39208 0.79419 0.0
C92 C 0.6465 0.40371 0.76951 0.0
C93 C 0.61538 0.38842 0.75878 0.0
C94 C 0.5985 0.36231 0.77478 0.0
C95 C 0.61304 0.35084 0.79953 0.0
P96 P 0.84542 0.68859 0.32607 0.0
H97 H 0.88779 0.74362 0.30044 0.0
H98 H 0.91719 0.79222 0.32201 0.0
H99 H 0.89124 0.75696 0.41153 0.0
H100 H 0.86172 0.70822 0.38965 0.0
H101 H 0.82397 0.64562 0.2764 0.0
H102 H 0.85344 0.62029 0.2402 0.0
H103 H 0.94327 0.65245 0.29044 0.0
H104 H 0.91371 0.67883 0.32568 0.0
H105 H 0.79775 0.70961 0.363 0.0
H106 H 0.82644 0.6238 0.3487 0.0
O107 O 0.82301 0.70311 0.30118 0.0
H108 H 0.75645 0.68521 0.39949 0.0
H109 H 0.78453 0.59884 0.38567 0.0
C110 C 0.87236 0.72207 0.34322 0.0
C111 C 0.88883 0.74608 0.32473 0.0
C112 C 0.90565 0.77402 0.33721 0.0
C113 C 0.90657 0.77886 0.36867 0.0
C114 C 0.8907 0.75441 0.38725 0.0
C115 C 0.87399 0.7263 0.37468 0.0
C116 C 0.86661 0.66455 0.30367 0.0
C117 C 0.84998 0.64691 0.27984 0.0
C118 C 0.86695 0.63222 0.25909 0.0
C119 C 0.90114 0.63454 0.26169 0.0
C120 C 0.91723 0.6507 0.28687 0.0
C121 C 0.90024 0.66562 0.30744 0.0
C122 C 0.81562 0.66875 0.3534 0.0
C123 C 0.79527 0.68544 0.36786 0.0
C124 C 0.77161 0.67142 0.38883 0.0
C125 C 0.76731 0.64008 0.39584 0.0
C126 C 0.78718 0.62301 0.38078 0.0
C127 C 0.81129 0.63729 0.35981 0.0
P128 P 0.73342 0.82207 0.86612 0.0
H129 H 0.72284 0.85678 0.9188 0.0
H130 H 0.67541 0.87453 0.93748 0.0
H131 H 0.61503 0.82271 0.86775 0.0
H132 H 0.66323 0.80517 0.84889 0.0
H133 H 0.78339 0.8144 0.90945 0.0
H134 H 0.80428 0.77 0.92397 0.0
H135 H 0.72528 0.71099 0.87487 0.0
H136 H 0.70462 0.7562 0.85995 0.0
H137 H 0.70411 0.85325 0.81908 0.0
H138 H 0.76305 0.78527 0.82412 0.0
O139 O 0.76427 0.85205 0.87334 0.0
H140 H 0.71145 0.85568 0.76447 0.0
H141 H 0.76977 0.78708 0.76964 0.0
C142 C 0.69668 0.8304 0.88201 0.0
C143 C 0.69934 0.84894 0.9077 0.0
C144 C 0.67205 0.85888 0.91851 0.0
C145 C 0.64141 0.85021 0.90397 0.0
C146 C 0.63841 0.83015 0.87914 0.0
C147 C 0.66586 0.82007 0.8684 0.0
C148 C 0.74287 0.78859 0.88315 0.0
C149 C 0.77006 0.7919 0.90232 0.0
C150 C 0.78187 0.76633 0.91081 0.0
C151 C 0.76662 0.7369 0.90034 0.0
C152 C 0.7378 0.73341 0.88295 0.0
C153 C 0.72586 0.75913 0.8746 0.0
C154 C 0.73209 0.81838 0.82572 0.0
C155 C 0.71744 0.8379 0.80838 0.0
C156 C 0.72163 0.83925 0.7771 0.0
C157 C 0.74108 0.82145 0.76274 0.0
C158 C 0.75466 0.80106 0.78008 0.0
C159 C 0.7505 0.79979 0.81129 0.0
P160 P 0.87343 0.30432 0.33202 0.0
H161 H 0.85988 0.36329 0.35192 0.0
H162 H 0.81309 0.37596 0.37902 0.0
H163 H 0.76541 0.27973 0.38184 0.0
H164 H 0.81184 0.2673 0.35486 0.0
H165 H 0.93871 0.29068 0.32681 0.0
H166 H 0.96822 0.26096 0.35886 0.0
H167 H 0.89215 0.25392 0.42654 0.0
H168 H 0.86338 0.28346 0.39506 0.0
H169 H 0.82525 0.30293 0.28436 0.0
H170 H 0.88202 0.2413 0.32033 0.0
O171 O 0.8959 0.33478 0.31426 0.0
H172 H 0.79325 0.26102 0.25419 0.0
H173 H 0.85162 0.20017 0.28931 0.0
C174 C 0.83914 0.31441 0.35118 0.0
C175 C 0.83925 0.34501 0.35824 0.0
C176 C 0.81255 0.3522 0.37365 0.0
C177 C 0.78574 0.32879 0.38261 0.0
C178 C 0.78588 0.2982 0.37551 0.0
C179 C 0.81228 0.29112 0.35987 0.0
C180 C 0.89877 0.28928 0.35839 0.0
C181 C 0.92894 0.28341 0.34892 0.0
C182 C 0.94558 0.26618 0.36708 0.0
C183 C 0.93244 0.25499 0.39517 0.0
C184 C 0.90317 0.26246 0.40519 0.0
C185 C 0.88648 0.27933 0.38697 0.0
C186 C 0.8559 0.27537 0.30482 0.0
C187 C 0.83149 0.28067 0.28511 0.0
C188 C 0.81328 0.25669 0.26779 0.0
C189 C 0.81951 0.22707 0.26971 0.0
C190 C 0.84561 0.22249 0.28788 0.0
C191 C 0.8634 0.2463 0.30547 0.0
P192 P 0.37818 0.66994 0.21437 0.0
H193 H 0.3506 0.67398 0.15467 0.0
H194 H 0.29934 0.64806 0.13021 0.0
H195 H 0.2665 0.60144 0.21369 0.0
H196 H 0.31771 0.62768 0.2381 0.0
H197 H 0.43894 0.71487 0.19874 0.0
H198 H 0.44851 0.76642 0.17701 0.0
H199 H 0.34613 0.76726 0.19125 0.0
H200 H 0.33673 0.71557 0.21266 0.0
H201 H 0.3757 0.61009 0.2416 0.0
H202 H 0.39552 0.70386 0.27207 0.0
O203 O 0.40525 0.65605 0.19392 0.0
H204 H 0.38862 0.59326 0.29162 0.0
H205 H 0.40929 0.68736 0.32225 0.0
C206 C 0.33824 0.65275 0.19824 0.0
C207 C 0.33218 0.65848 0.16786 0.0
C208 C 0.30275 0.64372 0.15388 0.0
C209 C 0.27878 0.62248 0.16986 0.0
C210 C 0.28459 0.61735 0.20056 0.0
C211 C 0.31394 0.63241 0.21462 0.0
C212 C 0.38697 0.71102 0.20695 0.0
C213 C 0.41869 0.7264 0.19786 0.0
C214 C 0.42416 0.75601 0.1854 0.0
C215 C 0.39798 0.77093 0.18172 0.0
C216 C 0.36676 0.75628 0.19303 0.0
C217 C 0.36137 0.72675 0.2056 0.0
C218 C 0.38406 0.65823 0.25301 0.0
C219 C 0.38252 0.6271 0.25921 0.0
C220 C 0.39038 0.61751 0.28787 0.0
C221 C 0.40029 0.63882 0.31131 0.0
C222 C 0.40142 0.67008 0.30509 0.0
C223 C 0.39352 0.67966 0.27627 0.0
P224 P 0.16982 0.33979 0.73964 0.0
H225 H 0.17635 0.27655 0.72986 0.0
H226 H 0.14854 0.23529 0.69675 0.0
H227 H 0.08178 0.29114 0.66852 0.0
H228 H 0.10967 0.33245 0.70219 0.0
H229 H 0.24037 0.36853 0.74428 0.0
H230 H 0.28157 0.39317 0.70754 0.0
H231 H 0.20531 0.38706 0.64052 0.0
H232 H 0.16432 0.36199 0.67734 0.0
H233 H 0.11823 0.32231 0.78563 0.0
H234 H 0.17314 0.4063 0.7463 0.0
O235 O 0.19183 0.32468 0.76443 0.0
H236 H 0.09391 0.35188 0.8225 0.0
H237 H 0.14929 0.43593 0.78297 0.0
C238 C 0.14494 0.30766 0.71892 0.0
C239 C 0.1552 0.27977 0.71719 0.0
C240 C 0.1392 0.25601 0.69817 0.0
C241 C 0.11287 0.25973 0.67983 0.0
C242 C 0.1021 0.28747 0.68216 0.0
C243 C 0.11789 0.31111 0.70155 0.0
C244 C 0.19917 0.36271 0.71355 0.0
C245 C 0.23238 0.3727 0.72177 0.0
C246 C 0.25603 0.38703 0.70067 0.0
C247 C 0.24705 0.39183 0.67075 0.0
C248 C 0.2134 0.38317 0.66308 0.0
C249 C 0.18977 0.36891 0.68425 0.0
C250 C 0.14697 0.36194 0.76253 0.0
C251 C 0.12456 0.34714 0.78448 0.0
C252 C 0.11101 0.36412 0.80593 0.0
C253 C 0.11949 0.39647 0.80597 0.0
C254 C 0.14164 0.41115 0.78358 0.0
C255 C 0.1553 0.39414 0.76233 0.0
Dy256 Dy 0.04947 0.03993 0.4863 0.0
Dy257 Dy 0.98495 0.01845 0.53159 0.0
C258 C 0.04115 0.07918 0.54582 0.0
O259 O 0.06432 1.00956 0.52097 0.0
O260 O 0.01448 0.98366 0.54032 0.0
O261 O 0.10196 0.05567 0.48177 0.0
O262 O 0.07119 0.04728 0.44187 0.0
O263 O 0.97359 0.98652 0.49131 0.0
O264 O 0.02516 0.99322 0.47013 0.0
O265 O 0.9813 0.06271 0.5105 0.0
O266 O 0.01073 0.06184 0.46709 0.0
O267 O 0.9323 1.01209 0.53642 0.0
O268 O 0.96246 1.00548 0.5748 0.0
C269 C 0.04615 0.98659 0.536 0.0
O270 O 0.0511 0.07937 0.51768 0.0
O271 O 0.02091 0.05499 0.55755 0.0
C272 C 0.11921 0.08665 0.43949 0.0
C273 C 0.15672 0.14159 0.41519 0.0
C274 C 0.13301 0.14233 0.43767 0.0
C275 C 0.11435 0.11504 0.44972 0.0
C276 C 0.14252 0.08576 0.41697 0.0
C277 C 0.16108 0.11297 0.40486 0.0
C278 C 0.10073 0.05781 0.45248 0.0
C279 C 0.99444 0.97794 0.47246 0.0
C280 C 0.99045 0.07351 0.48364 0.0
C281 C 0.90762 0.9763 0.57325 0.0
C282 C 0.85965 0.92621 0.59474 0.0
C283 C 0.89127 0.92244 0.58689 0.0
C284 C 0.91509 0.94731 0.57611 0.0
C285 C 0.87581 0.97982 0.5799 0.0
C286 C 0.852 0.95502 0.59051 0.0
C287 C 0.93268 1.00347 0.5645 0.0
H288 H 0.12919 0.16398 0.44622 0.0
H289 H 0.09635 0.11605 0.46715 0.0
H290 H 0.14641 0.06399 0.40878 0.0
H291 H 0.17858 0.11154 0.38712 0.0
H292 H 0.89777 0.90045 0.58974 0.0
H293 H 0.93949 0.9441 0.57074 0.0
H294 H 0.86965 1.00205 0.57772 0.0
H295 H 0.82808 0.95884 0.5968 0.0
Dy296 Dy 0.46751 0.0223 1.02496 0.0
Dy297 Dy 0.53354 0.02292 0.06545 0.0
C298 C 0.46883 0.96788 0.07145 0.0
O299 O 0.46014 0.0392 0.07127 0.0
O300 O 0.5133 0.06208 0.0821 0.0
O301 O 0.41547 0.02093 1.02517 0.0
O302 O 0.44237 0.02614 0.98303 0.0
O303 O 0.55001 0.05891 0.02992 0.0
O304 O 0.5002 0.06874 1.01606 0.0
O305 O 0.53033 0.98441 0.03307 0.0
O306 O 0.49833 0.99863 0.99606 0.0
O307 O 0.58523 0.02251 0.06861 0.0
O308 O 0.55536 0.02079 0.10908 0.0
C309 C 0.48172 0.05963 0.08607 0.0
O310 O 0.45873 0.97513 0.04491 0.0
O311 O 0.49317 0.98632 0.08562 0.0
C312 C 0.38753 0.99809 0.98244 0.0
C313 C 0.33776 0.95315 0.95559 0.0
C314 C 0.36284 0.94456 0.97245 0.0
C315 C 0.38756 0.96689 0.98578 0.0
C316 C 0.36235 1.00677 0.96615 0.0
C317 C 0.33764 0.9845 0.9528 0.0
C318 C 0.41355 0.02171 0.99591 0.0
C319 C 0.5326 0.07621 1.01632 0.0
C320 C 0.51871 0.98207 1.00552 0.0
C321 C 0.61196 0.04252 0.11354 0.0
C322 C 0.6615 0.07873 0.14909 0.0
C323 C 0.63678 0.09159 0.13626 0.0
C324 C 0.61205 0.07353 0.11861 0.0
C325 C 0.6373 0.03006 0.1252 0.0
C326 C 0.66191 0.04799 0.1428 0.0
C327 C 0.58469 0.0221 0.09802 0.0
H328 H 0.36346 0.92061 0.97516 0.0
H329 H 0.40683 0.95986 0.99848 0.0
H330 H 0.36204 0.0308 0.96343 0.0
H331 H 0.31905 0.9919 0.93951 0.0
H332 H 0.6358 0.11517 0.14086 0.0
H333 H 0.59254 0.08344 0.1097 0.0
H334 H 0.63758 1.00616 0.12135 0.0
H335 H 0.68095 0.03764 0.15198 0.0
Dy336 Dy 0.50811 0.48424 0.50889 0.0
Dy337 Dy 0.50967 0.53902 0.55792 0.0
C338 C 0.5382 0.4811 0.57599 0.0
O339 O 0.45542 0.47845 0.52409 0.0
O340 O 0.46617 0.50184 0.56993 0.0
O341 O 0.49576 0.43594 0.49786 0.0
O342 O 0.51945 0.46903 0.46468 0.0
O343 O 0.47674 0.54856 0.52032 0.0
O344 O 0.49351 0.52136 0.48184 0.0
O345 O 0.55466 0.55611 0.52995 0.0
O346 O 0.56076 0.51077 0.50871 0.0
O347 O 0.50882 0.58595 0.56897 0.0
O348 O 0.50973 0.55303 0.60447 0.0
C349 C 0.44613 0.48364 0.55165 0.0
O350 O 0.52121 0.46629 0.55348 0.0
O351 O 0.54302 0.5111 0.57805 0.0
C352 C 0.53651 0.42262 0.4668 0.0
C353 C 0.58949 0.3944 0.45566 0.0
C354 C 0.58251 0.40261 0.48514 0.0
C355 C 0.55639 0.41678 0.49065 0.0
C356 C 0.54302 0.41399 0.43743 0.0
C357 C 0.56936 0.40003 0.43187 0.0
C358 C 0.51103 0.44014 0.47199 0.0
C359 C 0.47855 0.54256 0.49132 0.0
C360 C 0.57196 0.54013 0.51444 0.0
C361 C 0.47567 0.58732 0.61153 0.0
C362 C 0.41898 0.59989 0.63852 0.0
C363 C 0.41618 0.57947 0.6141 0.0
C364 C 0.44431 0.57317 0.60077 0.0
C365 C 0.47864 0.60737 0.63611 0.0
C366 C 0.45046 0.61362 0.64956 0.0
C367 C 0.50496 0.58004 0.5977 0.0
H368 H 0.59787 0.39892 0.50384 0.0
H369 H 0.55221 0.42378 0.51344 0.0
H370 H 0.52815 0.41862 0.41873 0.0
H371 H 0.57404 0.39373 0.40896 0.0
H372 H 0.39224 0.56836 0.60534 0.0
H373 H 0.44162 0.55727 0.58201 0.0
H374 H 0.50269 0.61824 0.6448 0.0
H375 H 0.45332 0.62974 0.66813 0.0
Dy376 Dy 0.01712 0.55308 1.01757 0.0
Dy377 Dy 1.00547 0.48522 0.04784 0.0
C378 C 0.99184 0.54189 0.08512 0.0
O379 O 0.06799 0.55318 0.03463 0.0
O380 O 0.05459 0.51024 0.06476 0.0
O381 O 1.00755 0.59839 1.02025 0.0
O382 O 0.03463 0.58609 0.98219 0.0
O383 O 0.03754 0.48337 1.0069 0.0
O384 O 0.02162 0.52094 0.97986 0.0
O385 O 0.96206 0.48133 1.01747 0.0
O386 O 0.96303 0.5325 1.01209 0.0
O387 O 0.99441 0.43576 0.04428 0.0
O388 O 1.00493 0.45741 0.08778 0.0
C389 C 0.07568 0.53493 0.05543 0.0
O390 O 0.01406 0.55853 0.06742 0.0
O391 O 0.97869 0.5132 0.0778 0.0
C392 C 0.99506 0.61566 0.97334 0.0
C393 C 0.94058 0.63216 0.94605 0.0
C394 C 0.96467 0.65433 0.96085 0.0
C395 C 0.99168 0.64611 0.97444 0.0
C396 C 0.97199 0.59377 0.95726 0.0
C397 C 0.94502 0.602 0.94357 0.0
C398 C 0.01883 0.60582 0.99323 0.0
C399 C 0.03505 0.49702 0.98099 0.0
C400 C 0.94837 0.50348 1.00834 0.0
C401 C 0.02959 0.41668 0.07639 0.0
C402 C 0.08364 0.38959 0.08589 0.0
C403 C 0.0873 0.41665 0.06888 0.0
C404 C 0.06056 0.43004 0.0642 0.0
C405 C 0.02553 0.38948 0.09304 0.0
C406 C 0.0524 0.37592 0.0977 0.0
C407 C 1.00239 0.43224 0.07224 0.0
H408 H 0.96208 0.67785 0.96272 0.0
H409 H 0.00902 0.66318 0.98705 0.0
H410 H 0.97388 0.56999 0.95663 0.0
H411 H 0.92674 0.58442 0.93251 0.0
H412 H 0.11087 0.42749 0.05911 0.0
H413 H 0.06415 0.45106 0.05124 0.0
H414 H 1.00179 0.37897 0.1027 0.0
H415 H 0.04893 0.35519 0.1111 0.0
H416 H 0.30898 0.23976 0.3257 0.0
H417 H 0.24771 0.30374 0.30506 0.0
H418 H 0.20583 0.27718 0.34133 0.0
H419 H 0.247 0.1757 0.32684 0.0
H420 H 0.2626 0.15635 0.35729 0.0
H421 H 0.29056 0.18367 0.33454 0.0
H422 H 0.31299 0.21479 0.38224 0.0
H423 H 0.28532 0.18728 0.40529 0.0
H424 H 0.28477 0.22744 0.40756 0.0
H425 H 0.16753 0.23947 0.37363 0.0
H426 H 0.13578 0.1936 0.39983 0.0
H427 H 0.22219 0.15431 0.39995 0.0
C428 C 0.28733 0.24885 0.32977 0.0
C429 C 0.28162 0.27393 0.31296 0.0
C430 C 0.25249 0.28461 0.31794 0.0
C431 C 0.22868 0.26976 0.33854 0.0
C432 C 0.23448 0.24436 0.35402 0.0
C433 C 0.26322 0.23413 0.35009 0.0
C434 C 0.26183 0.20435 0.36682 0.0
C435 C 0.26571 0.17851 0.34507 0.0
C436 C 0.28777 0.20874 0.39198 0.0
C437 C 0.22735 0.1988 0.37971 0.0
C438 C 0.21216 0.22237 0.37251 0.0
C439 C 0.17939 0.22118 0.37999 0.0
C440 C 0.16156 0.19506 0.39494 0.0
C441 C 0.1765 0.17038 0.40202 0.0
C442 C 0.21002 0.17271 0.39475 0.0
H443 H 0.28924 0.8312 0.82667 0.0
H444 H 0.19567 0.85839 0.82201 0.0
H445 H 0.20718 0.8847 0.87098 0.0
H446 H 0.29421 0.82551 0.91163 0.0
H447 H 0.33785 0.84183 0.91084 0.0
H448 H 0.31859 0.81848 0.87987 0.0
H449 H 0.34209 0.86273 0.84272 0.0
H450 H 0.36118 0.88617 0.87343 0.0
H451 H 0.33324 0.89997 0.84884 0.0
H452 H 0.23327 0.91628 0.91456 0.0
H453 H 0.27154 0.95014 0.94898 0.0
H454 H 0.34916 0.90447 0.92344 0.0
C455 C 0.27077 0.84202 0.83632 0.0
C456 C 0.24156 0.84272 0.82052 0.0
C457 C 0.21799 0.85709 0.83391 0.0
C458 C 0.22436 0.87217 0.86172 0.0
C459 C 0.25424 0.87241 0.87594 0.0
C460 C 0.27694 0.85741 0.8638 0.0
C461 C 0.30905 0.8647 0.88099 0.0
C462 C 0.31528 0.83591 0.89678 0.0
C463 C 0.33807 0.87927 0.86026 0.0
C464 C 0.30159 0.88755 0.90361 0.0
C465 C 0.2696 0.89113 0.90087 0.0
C466 C 0.25814 0.91321 0.91734 0.0
C467 C 0.28012 0.93251 0.93662 0.0
C468 C 0.31329 0.92985 0.93896 0.0
C469 C 0.32375 0.90652 0.92277 0.0
H470 H 0.61499 0.4471 0.73691 0.0
H471 H 0.58596 0.3505 0.71366 0.0
H472 H 0.56493 0.36407 0.6649 0.0
H473 H 0.54446 0.46907 0.7027 0.0
H474 H 0.56754 0.50563 0.68925 0.0
H475 H 0.58085 0.48866 0.72248 0.0
H476 H 0.63811 0.49219 0.69818 0.0
H477 H 0.62491 0.50906 0.66482 0.0
H478 H 0.64094 0.47488 0.66183 0.0
H479 H 0.54771 0.38747 0.61818 0.0
H480 H 0.53228 0.41898 0.57764 0.0
H481 H 0.57073 0.50133 0.6299 0.0
C482 C 0.60425 0.42882 0.72154 0.0
C483 C 0.60199 0.39758 0.72952 0.0
C484 C 0.58754 0.37449 0.7086 0.0
C485 C 0.57572 0.38199 0.68061 0.0
C486 C 0.57826 0.41281 0.67351 0.0
C487 C 0.59193 0.43593 0.69338 0.0
C488 C 0.59084 0.46719 0.68011 0.0
C489 C 0.56966 0.4836 0.69981 0.0
C490 C 0.62579 0.487 0.67599 0.0
C491 C 0.57451 0.45795 0.64974 0.0
C492 C 0.56774 0.42643 0.64647 0.0
C493 C 0.55282 0.41217 0.62055 0.0
C494 C 0.54415 0.43042 0.59752 0.0
C495 C 0.55012 0.46284 0.60028 0.0
C496 C 0.56583 0.4767 0.62685 0.0
H497 H 0.88204 0.58245 0.22462 0.0
H498 H 0.96385 0.65968 0.24189 0.0
H499 H 0.99548 0.64211 0.20152 0.0
H500 H 0.93171 0.52693 0.2052 0.0
H501 H 0.9047 0.50919 0.17543 0.0
H502 H 0.88836 0.52644 0.20704 0.0
H503 H 0.86383 0.56064 0.17061 0.0
H504 H 0.88003 0.54347 0.13891 0.0
H505 H 0.89039 0.58454 0.14379 0.0
H506 H 0.01809 0.61838 0.15821 0.0
H507 H 0.03039 0.59016 0.11384 0.0
H508 H 0.93479 0.52747 0.12155 0.0
C509 C 0.90662 0.5957 0.22003 0.0
C510 C 0.92035 0.62242 0.23729 0.0
C511 C 0.95275 0.63876 0.23009 0.0
C512 C 0.97098 0.62907 0.20683 0.0
C513 C 0.95679 0.60287 0.19046 0.0
C514 C 0.92537 0.58632 0.19661 0.0
C515 C 0.91593 0.55941 0.17466 0.0
C516 C 0.90981 0.52867 0.1916 0.0
C517 C 0.88575 0.56219 0.15588 0.0
C518 C 0.94682 0.56377 0.15505 0.0
C519 C 0.96999 0.58901 0.16489 0.0
C520 C 1.00018 0.59853 0.15039 0.0
C521 C 1.00689 0.58225 0.12501 0.0
C522 C 0.98369 0.55641 0.11388 0.0
C523 C 0.95326 0.54684 0.12951 0.0
H524 H 0.45732 0.22064 0.14544 0.0
H525 H 0.37418 0.17023 0.19737 0.0
H526 H 0.38787 0.12159 0.18213 0.0
H527 H 0.45023 0.17051 0.08454 0.0
H528 H 0.49378 0.17389 0.07913 0.0
H529 H 0.47906 0.20504 0.09579 0.0
H530 H 0.51608 0.20376 0.14243 0.0
H531 H 0.53102 0.17261 0.12584 0.0
H532 H 0.51278 0.16837 0.16292 0.0
H533 H 0.40618 0.07865 0.1567 0.0
H534 H 0.4305 0.0439 0.12496 0.0
H535 H 0.50473 0.12141 0.09307 0.0
C536 C 0.44243 0.19945 0.15423 0.0
C537 C 0.41442 0.19938 0.17238 0.0
C538 C 0.39531 0.17098 0.18291 0.0
C539 C 0.40308 0.14319 0.17463 0.0
C540 C 0.4304 0.14409 0.15627 0.0
C541 C 0.45009 0.17145 0.14651 0.0
C542 C 0.47734 0.16586 0.126 0.0
C543 C 0.47493 0.17964 0.09451 0.0
C544 C 0.51132 0.17839 0.14015 0.0
C545 C 0.46924 0.1311 0.12507 0.0
C546 C 0.44205 0.11904 0.14273 0.0
C547 C 0.42794 0.08771 0.14336 0.0
C548 C 0.44181 0.0682 0.12525 0.0
C549 C 0.46973 0.08005 0.10717 0.0
C550 C 0.48394 0.1118 0.10745 0.0
H551 H 0.09058 0.86127 0.64669 0.0
H552 H 0.15782 0.84434 0.57711 0.0
H553 H 0.13709 0.87884 0.54274 0.0
H554 H 0.02206 0.86875 0.59395 0.0
H555 H 0.01136 0.8987 0.61645 0.0
H556 H 0.02801 0.86919 0.63421 0.0
H557 H 0.07403 0.911 0.65811 0.0
H558 H 0.05794 0.94061 0.64006 0.0
H559 H 0.10024 0.93865 0.63409 0.0
H560 H 0.1169 0.92131 0.51942 0.0
H561 H 0.09186 0.96438 0.50522 0.0
H562 H 0.035 0.95262 0.58812 0.0
C563 C 0.10021 0.8642 0.62392 0.0
C564 C 0.12559 0.84991 0.61447 0.0
C565 C 0.13789 0.8545 0.58464 0.0
C566 C 0.12646 0.87427 0.565 0.0
C567 C 0.10237 0.8889 0.57537 0.0
C568 C 0.08875 0.88362 0.60384 0.0
C569 C 0.06436 0.90361 0.60978 0.0
C570 C 0.02937 0.88388 0.61383 0.0
C571 C 0.07479 0.92471 0.63713 0.0
C572 C 0.06749 0.92178 0.58068 0.0
C573 C 0.08964 0.91291 0.56123 0.0
C574 C 0.09895 0.92802 0.5341 0.0
C575 C 0.0849 0.95263 0.5264 0.0
C576 C 0.06154 0.9616 0.54558 0.0
C577 C 0.05254 0.94586 0.57295 0.0
H578 H 0.79635 0.39126 0.92709 0.0
H579 H 0.76606 0.47224 0.89418 0.0
H580 H 0.81134 0.50506 0.92275 0.0
H581 H 0.8216 0.42001 1.00159 0.0
H582 H 0.85639 0.4022 1.00269 0.0
H583 H 0.82056 0.38507 0.98092 0.0
H584 H 0.85692 0.38647 0.93325 0.0
H585 H 0.89286 0.4035 0.95489 0.0
H586 H 0.88293 0.42237 0.92139 0.0
H587 H 0.86194 0.52942 0.95379 0.0
H588 H 0.91302 0.54276 0.98381 0.0
H589 H 0.91095 0.44586 0.99524 0.0
C590 C 0.79918 0.41589 0.92568 0.0
C591 C 0.77726 0.42897 0.90823 0.0
C592 C 0.78193 0.46141 0.90764 0.0
C593 C 0.80781 0.48034 0.9237 0.0
C594 C 0.82901 0.46663 0.9404 0.0
C595 C 0.82494 0.43512 0.94147 0.0
C596 C 0.85159 0.42608 0.96041 0.0
C597 C 0.83663 0.40722 0.98804 0.0
C598 C 0.8723 0.40858 0.94135 0.0
C599 C 0.87151 0.45741 0.96963 0.0
C600 C 0.85803 0.48055 0.958 0.0
C601 C 0.87255 0.51141 0.96309 0.0
C602 C 0.90164 0.51879 0.98025 0.0
C603 C 0.91618 0.49545 0.99211 0.0
C604 C 0.90054 0.46436 0.98677 0.0
H605 H 0.72034 0.58491 0.39437 0.0
H606 H 0.7582 0.66421 0.45076 0.0
H607 H 0.71471 0.6453 0.4882 0.0
H608 H 0.63596 0.58176 0.40768 0.0
H609 H 0.62326 0.54049 0.4088 0.0
H610 H 0.65898 0.55857 0.38724 0.0
H611 H 0.69434 0.52766 0.41673 0.0
H612 H 0.65865 0.50939 0.43833 0.0
H613 H 0.69535 0.52949 0.45732 0.0
H614 H 0.66477 0.62094 0.51744 0.0
H615 H 0.61218 0.59132 0.53782 0.0
H616 H 0.60596 0.5261 0.46438 0.0
C617 C 0.71984 0.59791 0.4149 0.0
C618 C 0.74273 0.62622 0.41948 0.0
C619 C 0.74083 0.64272 0.44649 0.0
C620 C 0.71627 0.63208 0.46802 0.0
C621 C 0.69365 0.60463 0.46254 0.0
C622 C 0.69526 0.58754 0.43682 0.0
C623 C 0.66678 0.55946 0.43612 0.0
C624 C 0.64496 0.56013 0.40831 0.0
C625 C 0.67955 0.52974 0.43719 0.0
C626 C 0.64869 0.56388 0.4651 0.0
C627 C 0.66481 0.59009 0.47995 0.0
C628 C 0.65216 0.60014 0.50624 0.0
C629 C 0.62215 0.58318 0.51762 0.0
C630 C 0.60497 0.5562 0.50294 0.0
C631 C 0.61876 0.54628 0.47647 0.0
H632 H 0.26965 0.39328 0.13084 0.0
H633 H 0.24606 0.29393 0.12305 0.0
H634 H 0.19044 0.29536 0.10532 0.0
H635 H 0.19333 0.39929 0.16098 0.0
H636 H 0.19159 0.43427 0.14147 0.0
H637 H 0.23082 0.4259 0.15029 0.0
H638 H 0.24754 0.43151 0.0939 0.0
H639 H 0.2084 0.44014 0.08496 0.0
H640 H 0.22127 0.40908 0.06601 0.0
H641 H 0.13567 0.30712 0.09278 0.0
H642 H 0.08691 0.32893 0.08364 0.0
H643 H 0.14587 0.42019 0.10131 0.0
C644 C 0.25295 0.37184 0.12508 0.0
C645 C 0.26245 0.34352 0.12813 0.0
C646 C 0.23975 0.316 0.12028 0.0
C647 C 0.20793 0.31652 0.11042 0.0
C648 C 0.19914 0.34474 0.10846 0.0
C649 C 0.22107 0.37193 0.11532 0.0
C650 C 0.20498 0.39904 0.11272 0.0
C651 C 0.20519 0.41558 0.14318 0.0
C652 C 0.22153 0.42125 0.08791 0.0
C653 C 0.17047 0.38278 0.10382 0.0
C654 C 0.16758 0.35149 0.10138 0.0
C655 C 0.1377 0.33163 0.09437 0.0
C656 C 0.1101 0.34417 0.08946 0.0
C657 C 0.11264 0.37623 0.0916 0.0
C658 C 0.14328 0.39564 0.09897 0.0
H659 H 0.56105 0.22112 0.90255 0.0
H660 H 0.65697 0.25176 0.94401 0.0
H661 H 0.64536 0.20679 0.97774 0.0
H662 H 0.51769 0.19272 0.97194 0.0
H663 H 0.49099 0.16033 0.95407 0.0
H664 H 0.5067 0.19488 0.93284 0.0
H665 H 0.53084 0.16347 0.89312 0.0
H666 H 0.51527 0.12885 0.91427 0.0
H667 H 0.55845 0.13991 0.90503 0.0
H668 H 0.62471 0.1574 1.00569 0.0
H669 H 0.59485 0.10879 0.02845 0.0
H670 H 0.51063 0.11024 0.97147 0.0
C671 C 0.57956 0.21834 0.91876 0.0
C672 C 0.60995 0.24023 0.92063 0.0
C673 C 0.63338 0.2357 0.94232 0.0
C674 C 0.62708 0.21006 0.96151 0.0
C675 C 0.59702 0.189 0.95913 0.0
C676 C 0.57344 0.19295 0.93855 0.0
C677 C 0.54289 0.167 0.94123 0.0
C678 C 0.51279 0.17949 0.95058 0.0
C679 C 0.5365 0.14873 0.91165 0.0
C680 C 0.55314 0.14781 0.96631 0.0
C681 C 0.5846 0.16088 0.97608 0.0
C682 C 0.59997 0.14709 0.99836 0.0
C683 C 0.58279 0.11933 1.01111 0.0
C684 C 0.55028 0.10556 1.00194 0.0
C685 C 0.53532 0.12022 0.97923 0.0
H686 H 0.88867 0.81203 0.41704 0.0
H687 H 0.96531 0.81466 0.34991 0.0
H688 H 0.99405 0.86536 0.36853 0.0
H689 H 0.88759 0.89252 0.41393 0.0
H690 H 0.88167 0.89652 0.45387 0.0
H691 H 0.86659 0.86 0.4358 0.0
H692 H 0.89979 0.83422 0.4731 0.0
H693 H 0.91479 0.87064 0.4914 0.0
H694 H 0.94347 0.84928 0.47699 0.0
H695 H 0.01469 0.91563 0.39334 0.0
H696 H 0.02746 0.96231 0.42408 0.0
H697 H 0.93867 0.92929 0.47689 0.0
C698 C 0.91166 0.82314 0.40643 0.0
C699 C 0.92441 0.80915 0.38162 0.0
C700 C 0.9545 0.82483 0.36842 0.0
C701 C 0.97119 0.8537 0.37898 0.0
C702 C 0.95776 0.86695 0.40298 0.0
C703 C 0.92879 0.85225 0.41675 0.0
C704 C 0.92004 0.87201 0.44226 0.0
C705 C 0.88701 0.88078 0.43609 0.0
C706 C 0.9195 0.85556 0.47275 0.0
C707 C 0.9486 0.90005 0.44054 0.0
C708 C 0.96993 0.8964 0.41762 0.0
C709 C 0.9982 0.91871 0.41138 0.0
C710 C 1.00523 0.9453 0.42913 0.0
C711 C 0.9842 0.94985 0.45313 0.0
C712 C 0.95522 0.92682 0.45867 0.0
H713 H 0.26873 0.67989 0.63103 0.0
H714 H 0.27593 0.68862 0.72834 0.0
H715 H 0.31256 0.65233 0.72927 0.0
H716 H 0.27791 0.59741 0.62589 0.0
H717 H 0.30264 0.60588 0.59227 0.0
H718 H 0.27059 0.62615 0.59988 0.0
H719 H 0.31322 0.6779 0.59532 0.0
H720 H 0.34535 0.6579 0.58805 0.0
H721 H 0.34938 0.68482 0.61882 0.0
H722 H 0.35692 0.62436 0.71896 0.0
H723 H 0.40337 0.60469 0.69815 0.0
H724 H 0.36852 0.61524 0.60758 0.0
C725 C 0.27722 0.67344 0.65262 0.0
C726 C 0.26931 0.68701 0.6796 0.0
C727 C 0.28105 0.67809 0.70741 0.0
C728 C 0.30204 0.65756 0.70816 0.0
C729 C 0.3108 0.64591 0.68097 0.0
C730 C 0.29836 0.65317 0.65372 0.0
C731 C 0.31479 0.64087 0.62746 0.0
C732 C 0.29 0.6161 0.61037 0.0
C733 C 0.33169 0.66693 0.60619 0.0
C734 C 0.33969 0.6271 0.64411 0.0
C735 C 0.33662 0.62971 0.67498 0.0
C736 C 0.35907 0.62149 0.69487 0.0
C737 C 0.3855 0.61062 0.68288 0.0
C738 C 0.3893 0.60824 0.65131 0.0
C739 C 0.3657 0.61605 0.63183 0.0
H740 H 0.80274 0.82885 0.73948 0.0
H741 H 0.70234 0.8296 0.7146 0.0
H742 H 0.7215 0.84821 0.66371 0.0
H743 H 0.83782 0.89635 0.70806 0.0
H744 H 0.8751 0.88608 0.69539 0.0
H745 H 0.85282 0.86641 0.72689 0.0
H746 H 0.84871 0.81422 0.69994 0.0
H747 H 0.87123 0.8338 0.66826 0.0
H748 H 0.83147 0.80859 0.66259 0.0
H749 H 0.7526 0.87481 0.61931 0.0
H750 H 0.79285 0.90818 0.58592 0.0
H751 H 0.8727 0.89012 0.64047 0.0
C752 C 0.78455 0.83157 0.72291 0.0
C753 C 0.751 0.82739 0.73081 0.0
C754 C 0.72815 0.83255 0.70891 0.0
C755 C 0.73879 0.84289 0.67992 0.0
C756 C 0.77229 0.84773 0.67319 0.0
C757 C 0.79479 0.84199 0.69406 0.0
C758 C 0.82979 0.85295 0.68297 0.0
C759 C 0.85003 0.87687 0.7046 0.0
C760 C 0.84626 0.82576 0.67815 0.0
C761 C 0.82363 0.86723 0.65327 0.0
C762 C 0.79031 0.86339 0.64766 0.0
C763 C 0.77872 0.87738 0.62314 0.0
C764 C 0.80173 0.89643 0.60441 0.0
C765 C 0.83589 0.90154 0.61051 0.0
C766 C 0.84684 0.88594 0.63471 0.0
H767 H 0.79022 0.22469 0.21364 0.0
H768 H 0.79754 0.16952 0.29293 0.0
H769 H 0.7595 0.1256 0.26982 0.0
H770 H 0.70385 0.19548 0.20219 0.0
H771 H 0.70658 0.19597 0.16163 0.0
H772 H 0.73601 0.22291 0.18351 0.0
H773 H 0.7838 0.20418 0.15758 0.0
H774 H 0.75451 0.17721 0.13557 0.0
H775 H 0.78426 0.16394 0.15845 0.0
H776 H 0.71989 0.08817 0.23937 0.0
H777 H 0.68016 0.05918 0.20306 0.0
H778 H 0.69678 0.13844 0.14375 0.0
C779 C 0.78384 0.20339 0.22614 0.0
C780 C 0.79732 0.20051 0.25496 0.0
C781 C 0.78832 0.17215 0.27051 0.0
C782 C 0.76648 0.14708 0.2577 0.0
C783 C 0.75365 0.15073 0.22937 0.0
C784 C 0.76187 0.1781 0.21374 0.0
C785 C 0.74375 0.17598 0.18395 0.0
C786 C 0.72121 0.19895 0.18277 0.0
C787 C 0.76804 0.1806 0.15731 0.0
C788 C 0.72393 0.14319 0.18546 0.0
C789 C 0.73021 0.12907 0.21182 0.0
C790 C 0.71488 0.09887 0.21855 0.0
C791 C 0.6925 0.08256 0.19772 0.0
C792 C 0.68561 0.0965 0.17052 0.0
C793 C 0.7015 0.12727 0.16442 0.0
H794 H 0.43332 0.59287 0.32511 0.0
H795 H 0.38812 0.66096 0.36737 0.0
H796 H 0.40284 0.644 0.41745 0.0
H797 H 0.40682 0.53326 0.3807 0.0
H798 H 0.44439 0.51963 0.37885 0.0
H799 H 0.43058 0.53735 0.34633 0.0
H800 H 0.48647 0.57669 0.34401 0.0
H801 H 0.50045 0.5591 0.37652 0.0
H802 H 0.50096 0.59954 0.37679 0.0
H803 H 0.4224 0.6189 0.46378 0.0
H804 H 0.4457 0.58888 0.50142 0.0
H805 H 0.47761 0.53672 0.4291 0.0
C806 C 0.42618 0.60412 0.34483 0.0
C807 C 0.40944 0.62844 0.3419 0.0
C808 C 0.40127 0.64265 0.36862 0.0
C809 C 0.40937 0.63299 0.39732 0.0
C810 C 0.42575 0.60898 0.3993 0.0
C811 C 0.4341 0.59477 0.3737 0.0
C812 C 0.45185 0.56962 0.38197 0.0
C813 C 0.43223 0.5381 0.37133 0.0
C814 C 0.48702 0.57667 0.36905 0.0
C815 C 0.45217 0.57183 0.41619 0.0
C816 C 0.43695 0.59466 0.42577 0.0
C817 C 0.43434 0.60098 0.45642 0.0
C818 C 0.44767 0.58372 0.47772 0.0
C819 C 0.46357 0.56024 0.46851 0.0
C820 C 0.46563 0.55436 0.43716 0.0
H821 H 0.10755 0.38526 0.86755 0.0
H822 H 0.09895 0.44993 0.79661 0.0
H823 H 0.07737 0.48176 0.83345 0.0
H824 H 0.03276 0.39104 0.90803 0.0
H825 H 0.05013 0.38847 0.94486 0.0
H826 H 0.06485 0.37026 0.91303 0.0
H827 H 0.12431 0.4002 0.92399 0.0
H828 H 0.10974 0.41856 0.95579 0.0
H829 H 0.13298 0.4415 0.92633 0.0
H830 H 0.05673 0.50702 0.87744 0.0
H831 H 0.03821 0.52426 0.9257 0.0
H832 H 0.05937 0.44416 0.97007 0.0
C833 C 0.10087 0.40597 0.85969 0.0
C834 C 0.10532 0.415 0.82888 0.0
C835 C 0.09646 0.44256 0.81991 0.0
C836 C 0.08394 0.4608 0.84073 0.0
C837 C 0.08021 0.45144 0.87077 0.0
C838 C 0.08835 0.42468 0.88035 0.0
C839 C 0.08204 0.42027 0.91417 0.0
C840 C 0.05589 0.39075 0.92038 0.0
C841 C 0.11419 0.42013 0.93107 0.0
C842 C 0.06913 0.44872 0.92201 0.0
C843 C 0.06829 0.46624 0.89647 0.0
C844 C 0.05728 0.49345 0.89756 0.0
C845 C 0.04675 0.50307 0.92529 0.0
C846 C 0.04719 0.48575 0.95207 0.0
C847 C 0.05872 0.45811 0.95023 0.0
H848 H 0.62276 0.86025 0.96165 0.0
H849 H 0.59867 0.87278 0.86808 0.0
H850 H 0.55916 0.90355 0.88418 0.0
H851 H 0.53988 0.85915 0.99409 0.0
H852 H 0.55759 0.88032 1.02688 0.0
H853 H 0.57918 0.85483 1.00813 0.0
H854 H 0.63035 0.89963 1.00223 0.0
H855 H 0.60888 0.92528 1.02063 0.0
H856 H 0.62611 0.93438 0.98356 0.0
H857 H 0.52798 0.93891 0.91045 0.0
H858 H 0.50729 0.97436 0.9445 0.0
H859 H 0.55371 0.93932 1.02023 0.0
C860 C 0.6087 0.86894 0.94454 0.0
C861 C 0.61375 0.86404 0.91362 0.0
C862 C 0.59482 0.87579 0.89194 0.0
C863 C 0.57243 0.89343 0.90087 0.0
C864 C 0.56908 0.89888 0.93155 0.0
C865 C 0.58648 0.88666 0.95305 0.0
C866 C 0.58092 0.89807 0.98429 0.0
C867 C 0.56334 0.87151 1.00453 0.0
C868 C 0.61349 0.91537 0.99848 0.0
C869 C 0.55867 0.91954 0.97693 0.0
C870 C 0.55164 0.91943 0.94651 0.0
C871 C 0.53295 0.93883 0.93438 0.0
C872 C 0.52138 0.95895 0.95386 0.0
C873 C 0.52891 0.95971 0.98503 0.0
C874 C 0.54744 0.93938 0.99655 0.0
H875 H 0.95593 0.20573 0.37496 0.0
H876 H 0.94146 0.25538 0.45618 0.0
H877 H 0.95702 0.21504 0.48709 0.0
H878 H 0.92282 0.13268 0.40144 0.0
H879 H 0.95196 0.11389 0.38366 0.0
H880 H 0.94354 0.14817 0.36726 0.0
H881 H 1.00553 0.17451 0.36907 0.0
H882 H 0.01427 0.14007 0.38497 0.0
H883 H 0.02746 0.17621 0.40424 0.0
H884 H 0.96669 0.16713 0.50908 0.0
H885 H 0.97645 0.11639 0.52162 0.0
H886 H 0.98789 0.09784 0.42653 0.0
C887 C 0.9571 0.20861 0.3992 0.0
C888 C 0.94737 0.23366 0.4132 0.0
C889 C 0.94848 0.23624 0.44502 0.0
C890 C 0.95739 0.21351 0.46275 0.0
C891 C 0.96557 0.18854 0.44831 0.0
C892 C 0.96619 0.18616 0.41728 0.0
C893 C 0.97452 0.15615 0.40767 0.0
C894 C 0.94654 0.13658 0.3889 0.0
C895 C 1.00741 0.1621 0.39047 0.0
C896 C 0.97741 0.14168 0.43817 0.0
C897 C 0.97211 0.16087 0.46121 0.0
C898 C 0.97138 0.15207 0.49129 0.0
C899 C 0.9766 0.12301 0.49812 0.0
C900 C 0.98282 0.10309 0.47502 0.0
C901 C 0.98337 0.11265 0.44462 0.0
H902 H 0.23797 0.64261 0.12866 0.0
H903 H 0.25214 0.56104 0.17507 0.0
H904 H 0.20403 0.53011 0.14868 0.0
H905 H 0.14925 0.62319 0.13114 0.0
H906 H 0.14412 0.63856 0.09434 0.0
H907 H 0.1803 0.65438 0.1162 0.0
H908 H 0.21714 0.64409 0.07204 0.0
H909 H 0.18105 0.62804 0.05012 0.0
H910 H 0.21151 0.60582 0.05694 0.0
H911 H 0.15467 0.50777 0.11774 0.0
H912 H 0.10458 0.49573 0.08685 0.0
H913 H 0.12045 0.59134 0.05991 0.0
C914 C 0.23103 0.61821 0.13314 0.0
C915 C 0.24894 0.60433 0.15414 0.0
C916 C 0.23871 0.57236 0.15952 0.0
C917 C 0.21152 0.55451 0.14441 0.0
C918 C 0.19453 0.56884 0.12391 0.0
C919 C 0.20364 0.59998 0.11836 0.0
C920 C 0.18022 0.60965 0.09591 0.0
C921 C 0.16242 0.63282 0.11026 0.0
C922 C 0.19858 0.62267 0.06704 0.0
C923 C 0.15649 0.57908 0.08985 0.0
C924 C 0.16551 0.55589 0.10613 0.0
C925 C 0.14736 0.52575 0.10492 0.0
C926 C 0.11884 0.51916 0.08722 0.0
C927 C 0.10835 0.54252 0.07081 0.0
C928 C 0.12789 0.57287 0.07183 0.0
H929 H 0.30413 0.43747 0.67667 0.0
H930 H 0.24896 0.37362 0.61169 0.0
H931 H 0.29217 0.39158 0.57362 0.0
H932 H 0.33601 0.49934 0.62304 0.0
H933 H 0.37548 0.51008 0.64134 0.0
H934 H 0.33926 0.49353 0.66304 0.0
H935 H 0.36753 0.45105 0.68228 0.0
H936 H 0.40376 0.46748 0.66063 0.0
H937 H 0.38354 0.42777 0.6554 0.0
H938 H 0.34331 0.41482 0.54289 0.0
H939 H 0.3974 0.44172 0.5225 0.0
H940 H 0.4193 0.4902 0.60743 0.0
C941 C 0.30102 0.42728 0.65443 0.0
C942 C 0.27276 0.40414 0.64734 0.0
C943 C 0.26986 0.39171 0.61775 0.0
C944 C 0.29446 0.40165 0.59592 0.0
C945 C 0.32201 0.42425 0.60375 0.0
C946 C 0.32533 0.43705 0.63227 0.0
C947 C 0.35773 0.46052 0.63511 0.0
C948 C 0.35175 0.49277 0.64098 0.0
C949 C 0.37942 0.45113 0.65982 0.0
C950 C 0.37235 0.45845 0.60398 0.0
C951 C 0.35132 0.43755 0.58613 0.0
C952 C 0.35987 0.43136 0.55667 0.0
C953 C 0.39071 0.44677 0.54524 0.0
C954 C 0.41283 0.46815 0.56321 0.0
C955 C 0.40315 0.47406 0.59293 0.0
H956 H 0.79768 0.72286 0.95111 0.0
H957 H 0.77489 0.69385 0.85879 0.0
H958 H 0.81238 0.65834 0.86255 0.0
H959 H 0.8799 0.72881 0.94561 0.0
H960 H 0.88607 0.71525 0.98296 0.0
H961 H 0.8521 0.73293 0.97577 0.0
H962 H 0.81108 0.68475 0.99596 0.0
H963 H 0.84505 0.66702 1.00376 0.0
H964 H 0.81154 0.64759 0.98036 0.0
H965 H 0.85905 0.63245 0.8736 0.0
H966 H 0.90933 0.61726 0.89182 0.0
H967 H 0.90258 0.66483 0.97604 0.0
C968 C 0.79989 0.70843 0.93194 0.0
C969 C 0.78324 0.71106 0.90471 0.0
C970 C 0.78687 0.69184 0.8801 0.0
C971 C 0.80829 0.6717 0.88196 0.0
C972 C 0.82565 0.67088 0.90865 0.0
C973 C 0.8213 0.68845 0.93337 0.0
C974 C 0.84535 0.686 0.95824 0.0
C975 C 0.86713 0.71762 0.96608 0.0
C976 C 0.82716 0.6704 0.98624 0.0
C977 C 0.86501 0.66558 0.94312 0.0
C978 C 0.85294 0.65654 0.91477 0.0
C979 C 0.86837 0.63897 0.89597 0.0
C980 C 0.8969 0.63051 0.90643 0.0
C981 C 0.9099 0.64008 0.93521 0.0
C982 C 0.89339 0.65748 0.9538 0.0
H983 H 0.4505 0.82193 0.18208 0.0
H984 H 0.35588 0.78584 0.13991 0.0
H985 H 0.3633 0.83219 0.10829 0.0
H986 H 0.4441 0.90195 0.18303 0.0
H987 H 0.48709 0.9167 0.17475 0.0
H988 H 0.47421 0.88092 0.19472 0.0
H989 H 0.50282 0.85374 0.15452 0.0
H990 H 0.51573 0.88942 0.13443 0.0
H991 H 0.49222 0.8561 0.11535 0.0
H992 H 0.38195 0.88134 0.07915 0.0
H993 H 0.40925 0.93098 0.05662 0.0
H994 H 0.49138 0.93673 0.11804 0.0
C995 C 0.43129 0.8238 0.16626 0.0
C996 C 0.4024 0.8001 0.16383 0.0
C997 C 0.37791 0.80372 0.14279 0.0
C998 C 0.38202 0.82995 0.12449 0.0
C999 C 0.41072 0.85272 0.12738 0.0
C1000 C 0.43487 0.85007 0.14788 0.0
C1001 C 0.46338 0.87803 0.14636 0.0
C1002 C 0.46742 0.89542 0.17651 0.0
C1003 C 0.49543 0.86876 0.13711 0.0
C1004 C 0.45156 0.89663 0.1217 0.0
C1005 C 0.42118 0.88147 0.11097 0.0
C1006 C 0.40562 0.89351 0.08757 0.0
C1007 C 0.42141 0.92177 0.07483 0.0
C1008 C 0.45242 0.93804 0.08559 0.0
C1009 C 0.46754 0.92515 0.10947 0.0
H1010 H 0.09642 0.19596 0.68537 0.0
H1011 H 0.09834 0.2696 0.62114 0.0
H1012 H 0.07891 0.23148 0.5813 0.0
H1013 H 0.1246 0.14464 0.63513 0.0
H1014 H 0.09799 0.11023 0.64966 0.0
H1015 H 0.11094 0.1431 0.6738 0.0
H1016 H 0.05009 0.14316 0.6856 0.0
H1017 H 0.03693 0.11021 0.66156 0.0
H1018 H 0.02203 0.14456 0.65501 0.0
H1019 H 0.06349 0.18608 0.54742 0.0
H1020 H 0.04883 0.13601 0.52202 0.0
H1021 H 0.05318 0.08987 0.60752 0.0
C1022 C 0.09254 0.20404 0.66295 0.0
C1023 C 0.09881 0.23601 0.65657 0.0
C1024 C 0.09328 0.24545 0.62689 0.0
C1025 C 0.08243 0.2239 0.60398 0.0
C1026 C 0.07675 0.19274 0.61095 0.0
C1027 C 0.08118 0.1827 0.63975 0.0
C1028 C 0.07315 0.1477 0.64093 0.0
C1029 C 0.10348 0.13572 0.65044 0.0
C1030 C 0.0438 0.1357 0.66203 0.0
C1031 C 0.06408 0.1397 0.60817 0.0
C1032 C 0.06659 0.1662 0.59138 0.0
C1033 C 0.06112 0.16521 0.56041 0.0
C1034 C 0.05292 0.13654 0.54615 0.0
C1035 C 0.04969 0.10885 0.56268 0.0
C1036 C 0.05508 0.11054 0.59428 0.0
H1037 H 0.75135 0.3728 0.36934 0.0
H1038 H 0.7562 0.30043 0.43319 0.0
H1039 H 0.70701 0.30991 0.45941 0.0
H1040 H 0.72365 0.42412 0.42265 0.0
H1041 H 0.69678 0.43621 0.3957 0.0
H1042 H 0.73338 0.42477 0.383 0.0
H1043 H 0.69799 0.38456 0.34747 0.0
H1044 H 0.66127 0.3957 0.36023 0.0
H1045 H 0.66432 0.35618 0.36291 0.0
H1046 H 0.65667 0.32632 0.47786 0.0
H1047 H 0.60819 0.34847 0.48716 0.0
H1048 H 0.63574 0.40973 0.41095 0.0
C1049 C 0.74232 0.35931 0.38912 0.0
C1050 C 0.75753 0.33592 0.39932 0.0
C1051 C 0.74472 0.31833 0.42494 0.0
C1052 C 0.71691 0.32361 0.44002 0.0
C1053 C 0.70218 0.34653 0.42914 0.0
C1054 C 0.71442 0.36414 0.40431 0.0
C1055 C 0.69326 0.38658 0.39661 0.0
C1056 C 0.71294 0.41989 0.39969 0.0
C1057 C 0.67833 0.38037 0.36493 0.0
C1058 C 0.66709 0.37866 0.42084 0.0
C1059 C 0.67281 0.35565 0.43949 0.0
C1060 C 0.65197 0.34443 0.46349 0.0
C1061 C 0.62459 0.35718 0.46863 0.0
C1062 C 0.6182 0.38073 0.44974 0.0
C1063 C 0.63979 0.39149 0.42553 0.0
loop_
_geom_bond_atom_site_label_1
_geom_bond_atom_site_label_2
_geom_bond_distance
_geom_bond_site_symmetry_2
_ccdc_geom_bond_type
P0 O11 1.490 . S
P0 C14 1.812 . S
P0 C20 1.803 . S
P0 C26 1.819 . S
H1 C15 0.941 . S
H2 C16 0.939 . S
H3 C18 0.940 . S
H4 C19 0.940 . S
H5 C21 0.939 . S
H6 C22 0.942 . S
H7 C24 0.940 . S
H8 C25 0.939 . S
H9 C27 0.941 . S
H10 C31 0.939 . S
O11 P0 1.490 . S
H12 C28 0.939 . S
H13 C30 0.940 . S
C14 P0 1.812 . S
C14 C15 1.389 . S
C14 C19 1.391 . S
C15 H1 0.941 . S
C15 C14 1.389 . S
C15 C16 1.397 . S
C16 H2 0.939 . S
C16 C15 1.397 . S
C16 C17 1.378 . S
C17 C16 1.378 . S
C17 C18 1.378 . S
C18 H3 0.940 . S
C18 C17 1.378 . S
C18 C19 1.396 . S
C19 H4 0.940 . S
C19 C14 1.391 . S
C19 C18 1.396 . S
C20 P0 1.803 . S
C20 C21 1.378 . S
C20 C25 1.400 . S
C21 H5 0.939 . S
C21 C20 1.378 . S
C21 C22 1.361 . S
C22 H6 0.942 . S
C22 C21 1.361 . S
C22 C23 1.369 . S
C23 C22 1.369 . S
C23 C24 1.404 . S
C24 H7 0.940 . S
C24 C23 1.404 . S
C24 C25 1.389 . S
C25 H8 0.939 . S
C25 C20 1.400 . S
C25 C24 1.389 . S
C26 P0 1.819 . S
C26 C27 1.391 . S
C26 C31 1.391 . S
C27 H9 0.941 . S
C27 C26 1.391 . S
C27 C28 1.396 . S
C28 H12 0.939 . S
C28 C27 1.396 . S
C28 C29 1.397 . S
C29 C28 1.397 . S
C29 C30 1.385 . S
C30 H13 0.940 . S
C30 C29 1.385 . S
C30 C31 1.388 . S
C31 H10 0.939 . S
C31 C26 1.391 . S
C31 C30 1.388 . S
P32 O43 1.490 . S
P32 C46 1.812 . S
P32 C52 1.803 . S
P32 C58 1.819 . S
H33 C47 0.941 . S
H34 C48 0.939 . S
H35 C50 0.940 . S
H36 C51 0.940 . S
H37 C53 0.939 . S
H38 C54 0.942 . S
H39 C56 0.940 . S
H40 C57 0.939 . S
H41 C59 0.941 . S
H42 C63 0.939 . S
O43 P32 1.490 . S
H44 C60 0.939 . S
H45 C62 0.940 . S
C46 P32 1.812 . S
C46 C47 1.389 . S
C46 C51 1.391 . S
C47 H33 0.941 . S
C47 C46 1.389 . S
C47 C48 1.397 . S
C48 H34 0.939 . S
C48 C47 1.397 . S
C48 C49 1.378 . S
C49 C48 1.378 . S
C49 C50 1.378 . S
C50 H35 0.940 . S
C50 C49 1.378 . S
C50 C51 1.396 . S
C51 H36 0.940 . S
C51 C46 1.391 . S
C51 C50 1.396 . S
C52 P32 1.803 . S
C52 C53 1.378 . S
C52 C57 1.400 . S
C53 H37 0.939 . S
C53 C52 1.378 . S
C53 C54 1.361 . S
C54 H38 0.942 . S
C54 C53 1.361 . S
C54 C55 1.369 . S
C55 C54 1.369 . S
C55 C56 1.404 . S
C56 H39 0.940 . S
C56 C55 1.404 . S
C56 C57 1.389 . S
C57 H40 0.939 . S
C57 C52 1.400 . S
C57 C56 1.389 . S
C58 P32 1.819 . S
C58 C59 1.391 . S
C58 C63 1.391 . S
C59 H41 0.941 . S
C59 C58 1.391 . S
C59 C60 1.396 . S
C60 H44 0.939 . S
C60 C59 1.396 . S
C60 C61 1.397 . S
C61 C60 1.397 . S
C61 C62 1.385 . S
C62 H45 0.940 . S
C62 C61 1.385 . S
C62 C63 1.388 . S
C63 H42 0.939 . S
C63 C58 1.391 . S
C63 C62 1.388 . S
P64 O75 1.490 . S
P64 C78 1.812 . S
P64 C84 1.803 . S
P64 C90 1.819 . S
H65 C79 0.941 . S
H66 C80 0.939 . S
H67 C82 0.940 . S
H68 C83 0.940 . S
H69 C85 0.939 . S
H70 C86 0.942 . S
H71 C88 0.940 . S
H72 C89 0.939 . S
H73 C91 0.941 . S
H74 C95 0.939 . S
O75 P64 1.490 . S
H76 C92 0.939 . S
H77 C94 0.940 . S
C78 P64 1.812 . S
C78 C79 1.389 . S
C78 C83 1.391 . S
C79 H65 0.941 . S
C79 C78 1.389 . S
C79 C80 1.397 . S
C80 H66 0.939 . S
C80 C79 1.397 . S
C80 C81 1.378 . S
C81 C80 1.378 . S
C81 C82 1.378 . S
C82 H67 0.940 . S
C82 C81 1.378 . S
C82 C83 1.396 . S
C83 H68 0.940 . S
C83 C78 1.391 . S
C83 C82 1.396 . S
C84 P64 1.803 . S
C84 C85 1.378 . S
C84 C89 1.400 . S
C85 H69 0.939 . S
C85 C84 1.378 . S
C85 C86 1.361 . S
C86 H70 0.942 . S
C86 C85 1.361 . S
C86 C87 1.369 . S
C87 C86 1.369 . S
C87 C88 1.404 . S
C88 H71 0.940 . S
C88 C87 1.404 . S
C88 C89 1.389 . S
C89 H72 0.939 . S
C89 C84 1.400 . S
C89 C88 1.389 . S
C90 P64 1.819 . S
C90 C91 1.391 . S
C90 C95 1.391 . S
C91 H73 0.941 . S
C91 C90 1.391 . S
C91 C92 1.396 . S
C92 H76 0.939 . S
C92 C91 1.396 . S
C92 C93 1.397 . S
C93 C92 1.397 . S
C93 C94 1.385 . S
C94 H77 0.940 . S
C94 C93 1.385 . S
C94 C95 1.388 . S
C95 H74 0.939 . S
C95 C90 1.391 . S
C95 C94 1.388 . S
P96 O107 1.490 . S
P96 C110 1.812 . S
P96 C116 1.803 . S
P96 C122 1.819 . S
H97 C111 0.941 . S
H98 C112 0.939 . S
H99 C114 0.940 . S
H100 C115 0.940 . S
H101 C117 0.939 . S
H102 C118 0.942 . S
H103 C120 0.940 . S
H104 C121 0.939 . S
H105 C123 0.941 . S
H106 C127 0.939 . S
O107 P96 1.490 . S
H108 C124 0.939 . S
H109 C126 0.940 . S
C110 P96 1.812 . S
C110 C111 1.389 . S
C110 C115 1.391 . S
C111 H97 0.941 . S
C111 C110 1.389 . S
C111 C112 1.397 . S
C112 H98 0.939 . S
C112 C111 1.397 . S
C112 C113 1.378 . S
C113 C112 1.378 . S
C113 C114 1.378 . S
C114 H99 0.940 . S
C114 C113 1.378 . S
C114 C115 1.396 . S
C115 H100 0.940 . S
C115 C110 1.391 . S
C115 C114 1.396 . S
C116 P96 1.803 . S
C116 C117 1.378 . S
C116 C121 1.400 . S
C117 H101 0.939 . S
C117 C116 1.378 . S
C117 C118 1.361 . S
C118 H102 0.942 . S
C118 C117 1.361 . S
C118 C119 1.369 . S
C119 C118 1.369 . S
C119 C120 1.404 . S
C120 H103 0.940 . S
C120 C119 1.404 . S
C120 C121 1.389 . S
C121 H104 0.939 . S
C121 C116 1.400 . S
C121 C120 1.389 . S
C122 P96 1.819 . S
C122 C123 1.391 . S
C122 C127 1.391 . S
C123 H105 0.941 . S
C123 C122 1.391 . S
C123 C124 1.396 . S
C124 H108 0.939 . S
C124 C123 1.396 . S
C124 C125 1.397 . S
C125 C124 1.397 . S
C125 C126 1.385 . S
C126 H109 0.940 . S
C126 C125 1.385 . S
C126 C127 1.388 . S
C127 H106 0.939 . S
C127 C122 1.391 . S
C127 C126 1.388 . S
P128 O139 1.490 . S
P128 C142 1.812 . S
P128 C148 1.803 . S
P128 C154 1.819 . S
H129 C143 0.941 . S
H130 C144 0.939 . S
H131 C146 0.940 . S
H132 C147 0.940 . S
H133 C149 0.939 . S
H134 C150 0.942 . S
H135 C152 0.940 . S
H136 C153 0.939 . S
H137 C155 0.941 . S
H138 C159 0.939 . S
O139 P128 1.490 . S
H140 C156 0.939 . S
H141 C158 0.940 . S
C142 P128 1.812 . S
C142 C143 1.389 . S
C142 C147 1.391 . S
C143 H129 0.941 . S
C143 C142 1.389 . S
C143 C144 1.397 . S
C144 H130 0.939 . S
C144 C143 1.397 . S
C144 C145 1.378 . S
C145 C144 1.378 . S
C145 C146 1.378 . S
C146 H131 0.940 . S
C146 C145 1.378 . S
C146 C147 1.396 . S
C147 H132 0.940 . S
C147 C142 1.391 . S
C147 C146 1.396 . S
C148 P128 1.803 . S
C148 C149 1.378 . S
C148 C153 1.400 . S
C149 H133 0.939 . S
C149 C148 1.378 . S
C149 C150 1.361 . S
C150 H134 0.942 . S
C150 C149 1.361 . S
C150 C151 1.369 . S
C151 C150 1.369 . S
C151 C152 1.404 . S
C152 H135 0.940 . S
C152 C151 1.404 . S
C152 C153 1.389 . S
C153 H136 0.939 . S
C153 C148 1.400 . S
C153 C152 1.389 . S
C154 P128 1.819 . S
C154 C155 1.391 . S
C154 C159 1.391 . S
C155 H137 0.941 . S
C155 C154 1.391 . S
C155 C156 1.396 . S
C156 H140 0.939 . S
C156 C155 1.396 . S
C156 C157 1.397 . S
C157 C156 1.397 . S
C157 C158 1.385 . S
C158 H141 0.940 . S
C158 C157 1.385 . S
C158 C159 1.388 . S
C159 H138 0.939 . S
C159 C154 1.391 . S
C159 C158 1.388 . S
P160 O171 1.490 . S
P160 C174 1.812 . S
P160 C180 1.803 . S
P160 C186 1.819 . S
H161 C175 0.941 . S
H162 C176 0.939 . S
H163 C178 0.940 . S
H164 C179 0.940 . S
H165 C181 0.939 . S
H166 C182 0.942 . S
H167 C184 0.940 . S
H168 C185 0.939 . S
H169 C187 0.941 . S
H170 C191 0.939 . S
O171 P160 1.490 . S
H172 C188 0.939 . S
H173 C190 0.940 . S
C174 P160 1.812 . S
C174 C175 1.389 . S
C174 C179 1.391 . S
C175 H161 0.941 . S
C175 C174 1.389 . S
C175 C176 1.397 . S
C176 H162 0.939 . S
C176 C175 1.397 . S
C176 C177 1.378 . S
C177 C176 1.378 . S
C177 C178 1.378 . S
C178 H163 0.940 . S
C178 C177 1.378 . S
C178 C179 1.396 . S
C179 H164 0.940 . S
C179 C174 1.391 . S
C179 C178 1.396 . S
C180 P160 1.803 . S
C180 C181 1.378 . S
C180 C185 1.400 . S
C181 H165 0.939 . S
C181 C180 1.378 . S
C181 C182 1.361 . S
C182 H166 0.942 . S
C182 C181 1.361 . S
C182 C183 1.369 . S
C183 C182 1.369 . S
C183 C184 1.404 . S
C184 H167 0.940 . S
C184 C183 1.404 . S
C184 C185 1.389 . S
C185 H168 0.939 . S
C185 C180 1.400 . S
C185 C184 1.389 . S
C186 P160 1.819 . S
C186 C187 1.391 . S
C186 C191 1.391 . S
C187 H169 0.941 . S
C187 C186 1.391 . S
C187 C188 1.396 . S
C188 H172 0.939 . S
C188 C187 1.396 . S
C188 C189 1.397 . S
C189 C188 1.397 . S
C189 C190 1.385 . S
C190 H173 0.940 . S
C190 C189 1.385 . S
C190 C191 1.388 . S
C191 H170 0.939 . S
C191 C186 1.391 . S
C191 C190 1.388 . S
P192 O203 1.490 . S
P192 C206 1.812 . S
P192 C212 1.803 . S
P192 C218 1.819 . S
H193 C207 0.941 . S
H194 C208 0.939 . S
H195 C210 0.940 . S
H196 C211 0.940 . S
H197 C213 0.939 . S
H198 C214 0.942 . S
H199 C216 0.940 . S
H200 C217 0.939 . S
H201 C219 0.941 . S
H202 C223 0.939 . S
O203 P192 1.490 . S
H204 C220 0.939 . S
H205 C222 0.940 . S
C206 P192 1.812 . S
C206 C207 1.389 . S
C206 C211 1.391 . S
C207 H193 0.941 . S
C207 C206 1.389 . S
C207 C208 1.397 . S
C208 H194 0.939 . S
C208 C207 1.397 . S
C208 C209 1.378 . S
C209 C208 1.378 . S
C209 C210 1.378 . S
C210 H195 0.940 . S
C210 C209 1.378 . S
C210 C211 1.396 . S
C211 H196 0.940 . S
C211 C206 1.391 . S
C211 C210 1.396 . S
C212 P192 1.803 . S
C212 C213 1.378 . S
C212 C217 1.400 . S
C213 H197 0.939 . S
C213 C212 1.378 . S
C213 C214 1.361 . S
C214 H198 0.942 . S
C214 C213 1.361 . S
C214 C215 1.369 . S
C215 C214 1.369 . S
C215 C216 1.404 . S
C216 H199 0.940 . S
C216 C215 1.404 . S
C216 C217 1.389 . S
C217 H200 0.939 . S
C217 C212 1.400 . S
C217 C216 1.389 . S
C218 P192 1.819 . S
C218 C219 1.391 . S
C218 C223 1.391 . S
C219 H201 0.941 . S
C219 C218 1.391 . S
C219 C220 1.396 . S
C220 H204 0.939 . S
C220 C219 1.396 . S
C220 C221 1.397 . S
C221 C220 1.397 . S
C221 C222 1.385 . S
C222 H205 0.940 . S
C222 C221 1.385 . S
C222 C223 1.388 . S
C223 H202 0.939 . S
C223 C218 1.391 . S
C223 C222 1.388 . S
P224 O235 1.490 . S
P224 C238 1.812 . S
P224 C244 1.803 . S
P224 C250 1.819 . S
H225 C239 0.941 . S
H226 C240 0.939 . S
H227 C242 0.940 . S
H228 C243 0.940 . S
H229 C245 0.939 . S
H230 C246 0.942 . S
H231 C248 0.940 . S
H232 C249 0.939 . S
H233 C251 0.941 . S
H234 C255 0.939 . S
O235 P224 1.490 . S
H236 C252 0.939 . S
H237 C254 0.940 . S
C238 P224 1.812 . S
C238 C239 1.389 . S
C238 C243 1.391 . S
C239 H225 0.941 . S
C239 C238 1.389 . S
C239 C240 1.397 . S
C240 H226 0.939 . S
C240 C239 1.397 . S
C240 C241 1.378 . S
C241 C240 1.378 . S
C241 C242 1.378 . S
C242 H227 0.940 . S
C242 C241 1.378 . S
C242 C243 1.396 . S
C243 H228 0.940 . S
C243 C238 1.391 . S
C243 C242 1.396 . S
C244 P224 1.803 . S
C244 C245 1.378 . S
C244 C249 1.400 . S
C245 H229 0.939 . S
C245 C244 1.378 . S
C245 C246 1.361 . S
C246 H230 0.942 . S
C246 C245 1.361 . S
C246 C247 1.369 . S
C247 C246 1.369 . S
C247 C248 1.404 . S
C248 H231 0.940 . S
C248 C247 1.404 . S
C248 C249 1.389 . S
C249 H232 0.939 . S
C249 C244 1.400 . S
C249 C248 1.389 . S
C250 P224 1.819 . S
C250 C251 1.391 . S
C250 C255 1.391 . S
C251 H233 0.941 . S
C251 C250 1.391 . S
C251 C252 1.396 . S
C252 H236 0.939 . S
C252 C251 1.396 . S
C252 C253 1.397 . S
C253 C252 1.397 . S
C253 C254 1.385 . S
C254 H237 0.940 . S
C254 C253 1.385 . S
C254 C255 1.388 . S
C255 H234 0.939 . S
C255 C250 1.391 . S
C255 C254 1.388 . S
Dy256 O259 2.307 1_545 S
Dy256 O261 2.395 . S
Dy256 O262 2.379 . S
Dy256 O264 2.339 1_545 S
Dy256 O266 2.324 . S
Dy256 O270 2.275 . S
Dy256 C278 2.738 . S
Dy257 O260 2.298 1_655 S
Dy257 O263 2.275 . S
Dy257 O265 2.307 1_565 S
Dy257 O267 2.395 . S
Dy257 O268 2.379 . S
Dy257 O271 2.339 1_565 S
Dy257 C287 2.738 . S
C258 O270 1.254 . S
C258 O271 1.257 1_455 S
O259 Dy256 2.307 1_565 S
O259 C269 1.266 . S
O260 Dy257 2.298 1_455 S
O260 C269 1.236 . S
O261 Dy256 2.395 . S
O261 C278 1.255 . S
O262 Dy256 2.379 . S
O262 C278 1.249 . S
O263 Dy257 2.275 . S
O263 C279 1.254 . S
O264 Dy256 2.339 1_565 S
O264 C279 1.257 1_455 S
O265 Dy257 2.307 1_545 S
O265 C280 1.266 . S
O266 Dy256 2.324 . S
O266 C280 1.209 1_455 S
O267 Dy257 2.395 . S
O267 C287 1.255 . S
O268 Dy257 2.379 . S
O268 C287 1.249 . S
C269 O259 1.266 . S
C269 O260 1.236 . S
O270 Dy256 2.275 . S
O270 C258 1.254 . S
O271 Dy257 2.339 1_545 S
O271 C258 1.257 1_655 S
C272 C275 1.344 . S
C272 C276 1.328 . S
C272 C278 1.516 . S
C273 C274 1.304 . S
C273 C277 1.323 . S
C274 C273 1.304 . S
C274 C275 1.371 . S
C274 H288 0.930 . S
C275 C272 1.344 . S
C275 C274 1.371 . S
C275 H289 0.931 . S
C276 C272 1.328 . S
C276 C277 1.433 . S
C276 H290 0.931 . S
C277 C273 1.323 . S
C277 C276 1.433 . S
C277 H291 0.933 . S
C278 Dy256 2.738 . S
C278 O261 1.255 . S
C278 O262 1.249 . S
C278 C272 1.516 . S
C279 O263 1.254 . S
C279 O264 1.257 1_655 S
C280 O265 1.266 . S
C280 O266 1.209 1_655 S
C281 C284 1.344 . S
C281 C285 1.328 . S
C281 C287 1.516 . S
C282 C283 1.304 . S
C282 C286 1.323 . S
C283 C282 1.304 . S
C283 C284 1.371 . S
C283 H292 0.930 . S
C284 C281 1.344 . S
C284 C283 1.371 . S
C284 H293 0.931 . S
C285 C281 1.328 . S
C285 C286 1.433 . S
C285 H294 0.931 . S
C286 C282 1.323 . S
C286 C285 1.433 . S
C286 H295 0.933 . S
C287 Dy257 2.738 . S
C287 O267 1.255 . S
C287 O268 1.249 . S
C287 C281 1.516 . S
H288 C274 0.930 . S
H289 C275 0.931 . S
H290 C276 0.931 . S
H291 C277 0.933 . S
H292 C283 0.930 . S
H293 C284 0.931 . S
H294 C285 0.931 . S
H295 C286 0.933 . S
Dy296 O299 2.307 1_556 S
Dy296 O301 2.395 1_545 S
Dy296 O302 2.379 1_545 S
Dy296 O304 2.339 . S
Dy296 O306 2.298 1_545 S
Dy296 O310 2.275 1_546 S
Dy296 C318 2.738 1_545 S
Dy297 O300 2.298 . S
Dy297 O303 2.275 1_554 S
Dy297 O305 2.307 1_544 S
Dy297 O307 2.395 . S
Dy297 O308 2.379 . S
Dy297 O311 2.339 1_545 S
Dy297 C327 2.738 . S
C298 O310 1.254 . S
C298 O311 1.257 . S
O299 Dy296 2.307 1_554 S
O299 C309 1.266 . S
O300 Dy297 2.298 . S
O300 C309 1.236 . S
O301 Dy296 2.395 1_565 S
O301 C318 1.255 . S
O302 Dy296 2.379 1_565 S
O302 C318 1.249 . S
O303 Dy297 2.275 1_556 S
O303 C319 1.254 . S
O304 Dy296 2.339 . S
O304 C319 1.257 . S
O305 Dy297 2.307 1_566 S
O305 C320 1.266 . S
O306 Dy296 2.298 1_565 S
O306 C320 1.236 . S
O307 Dy297 2.395 . S
O307 C327 1.255 . S
O308 Dy297 2.379 . S
O308 C327 1.249 . S
C309 O299 1.266 . S
C309 O300 1.236 . S
O310 Dy296 2.275 1_564 S
O310 C298 1.254 . S
O311 Dy297 2.339 1_565 S
O311 C298 1.257 . S
C312 C315 1.344 . S
C312 C316 1.328 . S
C312 C318 1.516 . S
C313 C314 1.304 . S
C313 C317 1.323 . S
C314 C313 1.304 . S
C314 C315 1.371 . S
C314 H328 0.930 . S
C315 C312 1.344 . S
C315 C314 1.371 . S
C315 H329 0.931 . S
C316 C312 1.328 . S
C316 C317 1.433 . S
C316 H330 0.931 . S
C317 C313 1.323 . S
C317 C316 1.433 . S
C317 H331 0.933 . S
C318 Dy296 2.738 1_565 S
C318 O301 1.255 . S
C318 O302 1.249 . S
C318 C312 1.516 . S
C319 O303 1.254 . S
C319 O304 1.257 . S
C320 O305 1.266 . S
C320 O306 1.236 . S
C321 C324 1.344 . S
C321 C325 1.328 . S
C321 C327 1.516 . S
C322 C323 1.304 . S
C322 C326 1.323 . S
C323 C322 1.304 . S
C323 C324 1.371 . S
C323 H332 0.930 . S
C324 C321 1.344 . S
C324 C323 1.371 . S
C324 H333 0.931 . S
C325 C321 1.328 . S
C325 C326 1.433 . S
C325 H334 0.931 . S
C326 C322 1.323 . S
C326 C325 1.433 . S
C326 H335 0.933 . S
C327 Dy297 2.738 . S
C327 O307 1.255 . S
C327 O308 1.249 . S
C327 C321 1.516 . S
H328 C314 0.930 . S
H329 C315 0.931 . S
H330 C316 0.931 . S
H331 C317 0.933 . S
H332 C323 0.930 . S
H333 C324 0.931 . S
H334 C325 0.931 . S
H335 C326 0.933 . S
Dy336 O339 2.307 . S
Dy336 O341 2.395 . S
Dy336 O342 2.379 . S
Dy336 O344 2.339 . S
Dy336 O346 2.298 . S
Dy336 O350 2.275 . S
Dy336 C358 2.738 . S
Dy337 O340 2.298 . S
Dy337 O343 2.275 . S
Dy337 O345 2.307 . S
Dy337 O347 2.395 . S
Dy337 O348 2.379 . S
Dy337 O351 2.339 . S
Dy337 C367 2.738 . S
C338 O350 1.254 . S
C338 O351 1.257 . S
O339 Dy336 2.307 . S
O339 C349 1.266 . S
O340 Dy337 2.298 . S
O340 C349 1.236 . S
O341 Dy336 2.395 . S
O341 C358 1.255 . S
O342 Dy336 2.379 . S
O342 C358 1.249 . S
O343 Dy337 2.275 . S
O343 C359 1.254 . S
O344 Dy336 2.339 . S
O344 C359 1.257 . S
O345 Dy337 2.307 . S
O345 C360 1.266 . S
O346 Dy336 2.298 . S
O346 C360 1.236 . S
O347 Dy337 2.395 . S
O347 C367 1.255 . S
O348 Dy337 2.379 . S
O348 C367 1.249 . S
C349 O339 1.266 . S
C349 O340 1.236 . S
O350 Dy336 2.275 . S
O350 C338 1.254 . S
O351 Dy337 2.339 . S
O351 C338 1.257 . S
C352 C355 1.344 . S
C352 C356 1.328 . S
C352 C358 1.516 . S
C353 C354 1.304 . S
C353 C357 1.323 . S
C354 C353 1.304 . S
C354 C355 1.371 . S
C354 H368 0.930 . S
C355 C352 1.344 . S
C355 C354 1.371 . S
C355 H369 0.931 . S
C356 C352 1.328 . S
C356 C357 1.433 . S
C356 H370 0.931 . S
C357 C353 1.323 . S
C357 C356 1.433 . S
C357 H371 0.933 . S
C358 Dy336 2.738 . S
C358 O341 1.255 . S
C358 O342 1.249 . S
C358 C352 1.516 . S
C359 O343 1.254 . S
C359 O344 1.257 . S
C360 O345 1.266 . S
C360 O346 1.236 . S
C361 C364 1.344 . S
C361 C365 1.328 . S
C361 C367 1.516 . S
C362 C363 1.304 . S
C362 C366 1.323 . S
C363 C362 1.304 . S
C363 C364 1.371 . S
C363 H372 0.930 . S
C364 C361 1.344 . S
C364 C363 1.371 . S
C364 H373 0.931 . S
C365 C361 1.328 . S
C365 C366 1.433 . S
C365 H374 0.931 . S
C366 C362 1.323 . S
C366 C365 1.433 . S
C366 H375 0.933 . S
C367 Dy337 2.738 . S
C367 O347 1.255 . S
C367 O348 1.249 . S
C367 C361 1.516 . S
H368 C354 0.930 . S
H369 C355 0.931 . S
H370 C356 0.931 . S
H371 C357 0.933 . S
H372 C363 0.930 . S
H373 C364 0.931 . S
H374 C365 0.931 . S
H375 C366 0.933 . S
Dy376 O379 2.290 1_656 S
Dy376 O381 2.413 . S
Dy376 O382 2.389 . S
Dy376 O384 2.328 1_655 S
Dy376 O386 2.310 . S
Dy376 O390 2.279 1_556 S
Dy376 C398 2.753 . S
Dy377 O380 2.298 . S
Dy377 O383 2.275 1_554 S
Dy377 O385 2.307 1_455 S
Dy377 O387 2.395 . S
Dy377 O388 2.379 . S
Dy377 O391 2.339 1_455 S
Dy377 C407 2.738 . S
C378 O390 1.254 . S
C378 O391 1.257 . S
O379 Dy376 2.290 1_454 S
O379 C389 1.266 . S
O380 Dy377 2.298 . S
O380 C389 1.236 . S
O381 Dy376 2.413 . S
O381 C398 1.255 . S
O382 Dy376 2.389 . S
O382 C398 1.249 . S
O383 Dy377 2.275 1_556 S
O383 C399 1.254 . S
O384 Dy376 2.328 1_455 S
O384 C399 1.257 . S
O385 Dy377 2.307 1_655 S
O385 C400 1.266 1_554 S
O386 Dy376 2.310 . S
O386 C400 1.236 . S
O387 Dy377 2.395 . S
O387 C407 1.255 . S
O388 Dy377 2.379 . S
O388 C407 1.249 . S
C389 O379 1.266 . S
C389 O380 1.236 . S
O390 Dy376 2.279 1_554 S
O390 C378 1.254 . S
O391 Dy377 2.339 1_655 S
O391 C378 1.257 . S
C392 C395 1.344 . S
C392 C396 1.328 . S
C392 C398 1.516 . S
C393 C394 1.304 . S
C393 C397 1.323 . S
C394 C393 1.304 . S
C394 C395 1.371 . S
C394 H408 0.930 . S
C395 C392 1.344 . S
C395 C394 1.371 . S
C395 H409 0.931 . S
C396 C392 1.328 . S
C396 C397 1.433 . S
C396 H410 0.931 . S
C397 C393 1.323 . S
C397 C396 1.433 . S
C397 H411 0.933 . S
C398 Dy376 2.753 . S
C398 O381 1.255 . S
C398 O382 1.249 . S
C398 C392 1.516 . S
C399 O383 1.254 . S
C399 O384 1.257 . S
C400 O385 1.266 1_556 S
C400 O386 1.236 . S
C401 C404 1.344 . S
C401 C405 1.328 . S
C401 C407 1.516 . S
C402 C403 1.304 . S
C402 C406 1.323 . S
C403 C402 1.304 . S
C403 C404 1.371 . S
C403 H412 0.930 . S
C404 C401 1.344 . S
C404 C403 1.371 . S
C404 H413 0.931 . S
C405 C401 1.328 . S
C405 C406 1.433 . S
C405 H414 0.931 . S
C406 C402 1.323 . S
C406 C405 1.433 . S
C406 H415 0.933 . S
C407 Dy377 2.738 . S
C407 O387 1.255 . S
C407 O388 1.249 . S
C407 C401 1.516 . S
H408 C394 0.930 . S
H409 C395 0.931 . S
H410 C396 0.931 . S
H411 C397 0.933 . S
H412 C403 0.930 . S
H413 C404 0.931 . S
H414 C405 0.931 . S
H415 C406 0.933 . S
H416 C428 0.930 . S
H417 C430 0.930 . S
H418 C431 0.930 . S
H419 C435 0.959 . S
H420 C435 0.959 . S
H421 C435 0.961 . S
H422 C436 0.960 . S
H423 C436 0.961 . S
H424 C436 0.959 . S
H425 C439 0.929 . S
H426 C440 0.931 . S
H427 C442 0.930 . S
C428 H416 0.930 . S
C428 C429 1.399 . S
C428 C433 1.399 . S
C429 C428 1.399 . S
C429 C430 1.376 . S
C430 H417 0.930 . S
C430 C429 1.376 . S
C430 C431 1.388 . S
C431 H418 0.930 . S
C431 C430 1.388 . S
C431 C432 1.390 . S
C432 C431 1.390 . S
C432 C433 1.394 . S
C432 C438 1.465 . S
C433 C428 1.399 . S
C433 C432 1.394 . S
C433 C434 1.516 . S
C434 C433 1.516 . S
C434 C435 1.502 . S
C434 C436 1.561 . S
C434 C437 1.526 . S
C435 H419 0.959 . S
C435 H420 0.959 . S
C435 H421 0.961 . S
C435 C434 1.502 . S
C436 H422 0.960 . S
C436 H423 0.961 . S
C436 H424 0.959 . S
C436 C434 1.561 . S
C437 C434 1.526 . S
C437 C438 1.396 . S
C437 C442 1.390 . S
C438 C432 1.465 . S
C438 C437 1.396 . S
C438 C439 1.399 . S
C439 H425 0.929 . S
C439 C438 1.399 . S
C439 C440 1.385 . S
C440 H426 0.931 . S
C440 C439 1.385 . S
C440 C441 1.389 . S
C441 C440 1.389 . S
C441 C442 1.387 . S
C442 H427 0.930 . S
C442 C437 1.390 . S
C442 C441 1.387 . S
H443 C455 0.930 . S
H444 C457 0.930 . S
H445 C458 0.930 . S
H446 C462 0.959 . S
H447 C462 0.959 . S
H448 C462 0.961 . S
H449 C463 0.960 . S
H450 C463 0.961 . S
H451 C463 0.959 . S
H452 C466 0.929 . S
H453 C467 0.931 . S
H454 C469 0.930 . S
C455 H443 0.930 . S
C455 C456 1.399 . S
C455 C460 1.399 . S
C456 C455 1.399 . S
C456 C457 1.376 . S
C457 H444 0.930 . S
C457 C456 1.376 . S
C457 C458 1.388 . S
C458 H445 0.930 . S
C458 C457 1.388 . S
C458 C459 1.390 . S
C459 C458 1.390 . S
C459 C460 1.394 . S
C459 C465 1.465 . S
C460 C455 1.399 . S
C460 C459 1.394 . S
C460 C461 1.516 . S
C461 C460 1.516 . S
C461 C462 1.502 . S
C461 C463 1.561 . S
C461 C464 1.526 . S
C462 H446 0.959 . S
C462 H447 0.959 . S
C462 H448 0.961 . S
C462 C461 1.502 . S
C463 H449 0.960 . S
C463 H450 0.961 . S
C463 H451 0.959 . S
C463 C461 1.561 . S
C464 C461 1.526 . S
C464 C465 1.396 . S
C464 C469 1.390 . S
C465 C459 1.465 . S
C465 C464 1.396 . S
C465 C466 1.399 . S
C466 H452 0.929 . S
C466 C465 1.399 . S
C466 C467 1.385 . S
C467 H453 0.931 . S
C467 C466 1.385 . S
C467 C468 1.389 . S
C468 C467 1.389 . S
C468 C469 1.387 . S
C469 H454 0.930 . S
C469 C464 1.390 . S
C469 C468 1.387 . S
H470 C482 0.930 . S
H471 C484 0.930 . S
H472 C485 0.930 . S
H473 C489 0.959 . S
H474 C489 0.959 . S
H475 C489 0.961 . S
H476 C490 0.960 . S
H477 C490 0.961 . S
H478 C490 0.959 . S
H479 C493 0.929 . S
H480 C494 0.931 . S
H481 C496 0.930 . S
C482 H470 0.930 . S
C482 C483 1.399 . S
C482 C487 1.399 . S
C483 C482 1.399 . S
C483 C484 1.376 . S
C484 H471 0.930 . S
C484 C483 1.376 . S
C484 C485 1.388 . S
C485 H472 0.930 . S
C485 C484 1.388 . S
C485 C486 1.390 . S
C486 C485 1.390 . S
C486 C487 1.394 . S
C486 C492 1.465 . S
C487 C482 1.399 . S
C487 C486 1.394 . S
C487 C488 1.516 . S
C488 C487 1.516 . S
C488 C489 1.502 . S
C488 C490 1.561 . S
C488 C491 1.526 . S
C489 H473 0.959 . S
C489 H474 0.959 . S
C489 H475 0.961 . S
C489 C488 1.502 . S
C490 H476 0.960 . S
C490 H477 0.961 . S
C490 H478 0.959 . S
C490 C488 1.561 . S
C491 C488 1.526 . S
C491 C492 1.396 . S
C491 C496 1.390 . S
C492 C486 1.465 . S
C492 C491 1.396 . S
C492 C493 1.399 . S
C493 H479 0.929 . S
C493 C492 1.399 . S
C493 C494 1.385 . S
C494 H480 0.931 . S
C494 C493 1.385 . S
C494 C495 1.389 . S
C495 C494 1.389 . S
C495 C496 1.387 . S
C496 H481 0.930 . S
C496 C491 1.390 . S
C496 C495 1.387 . S
H497 C509 0.930 . S
H498 C511 0.930 . S
H499 C512 0.930 . S
H500 C516 0.959 . S
H501 C516 0.959 . S
H502 C516 0.961 . S
H503 C517 0.960 . S
H504 C517 0.961 . S
H505 C517 0.959 . S
H506 C520 0.929 . S
H507 C521 0.931 . S
H508 C523 0.930 . S
C509 H497 0.930 . S
C509 C510 1.399 . S
C509 C514 1.399 . S
C510 C509 1.399 . S
C510 C511 1.376 . S
C511 H498 0.930 . S
C511 C510 1.376 . S
C511 C512 1.388 . S
C512 H499 0.930 . S
C512 C511 1.388 . S
C512 C513 1.390 . S
C513 C512 1.390 . S
C513 C514 1.394 . S
C513 C519 1.465 . S
C514 C509 1.399 . S
C514 C513 1.394 . S
C514 C515 1.516 . S
C515 C514 1.516 . S
C515 C516 1.502 . S
C515 C517 1.561 . S
C515 C518 1.526 . S
C516 H500 0.959 . S
C516 H501 0.959 . S
C516 H502 0.961 . S
C516 C515 1.502 . S
C517 H503 0.960 . S
C517 H504 0.961 . S
C517 H505 0.959 . S
C517 C515 1.561 . S
C518 C515 1.526 . S
C518 C519 1.396 . S
C518 C523 1.390 . S
C519 C513 1.465 . S
C519 C518 1.396 . S
C519 C520 1.399 . S
C520 H506 0.929 . S
C520 C519 1.399 . S
C520 C521 1.385 . S
C521 H507 0.931 . S
C521 C520 1.385 . S
C521 C522 1.389 . S
C522 C521 1.389 . S
C522 C523 1.387 . S
C523 H508 0.930 . S
C523 C518 1.390 . S
C523 C522 1.387 . S
H524 C536 0.930 . S
H525 C538 0.930 . S
H526 C539 0.930 . S
H527 C543 0.959 . S
H528 C543 0.959 . S
H529 C543 0.961 . S
H530 C544 0.960 . S
H531 C544 0.961 . S
H532 C544 0.959 . S
H533 C547 0.929 . S
H534 C548 0.931 . S
H535 C550 0.930 . S
C536 H524 0.930 . S
C536 C537 1.399 . S
C536 C541 1.399 . S
C537 C536 1.399 . S
C537 C538 1.376 . S
C538 H525 0.930 . S
C538 C537 1.376 . S
C538 C539 1.388 . S
C539 H526 0.930 . S
C539 C538 1.388 . S
C539 C540 1.390 . S
C540 C539 1.390 . S
C540 C541 1.394 . S
C540 C546 1.465 . S
C541 C536 1.399 . S
C541 C540 1.394 . S
C541 C542 1.516 . S
C542 C541 1.516 . S
C542 C543 1.502 . S
C542 C544 1.561 . S
C542 C545 1.526 . S
C543 H527 0.959 . S
C543 H528 0.959 . S
C543 H529 0.961 . S
C543 C542 1.502 . S
C544 H530 0.960 . S
C544 H531 0.961 . S
C544 H532 0.959 . S
C544 C542 1.561 . S
C545 C542 1.526 . S
C545 C546 1.396 . S
C545 C550 1.390 . S
C546 C540 1.465 . S
C546 C545 1.396 . S
C546 C547 1.399 . S
C547 H533 0.929 . S
C547 C546 1.399 . S
C547 C548 1.385 . S
C548 H534 0.931 . S
C548 C547 1.385 . S
C548 C549 1.389 . S
C549 C548 1.389 . S
C549 C550 1.387 . S
C550 H535 0.930 . S
C550 C545 1.390 . S
C550 C549 1.387 . S
H551 C563 0.930 . S
H552 C565 0.930 . S
H553 C566 0.930 . S
H554 C570 0.959 . S
H555 C570 0.959 . S
H556 C570 0.961 . S
H557 C571 0.960 . S
H558 C571 0.961 . S
H559 C571 0.959 . S
H560 C574 0.929 . S
H561 C575 0.931 . S
H562 C577 0.930 . S
C563 H551 0.930 . S
C563 C564 1.399 . S
C563 C568 1.399 . S
C564 C563 1.399 . S
C564 C565 1.376 . S
C565 H552 0.930 . S
C565 C564 1.376 . S
C565 C566 1.388 . S
C566 H553 0.930 . S
C566 C565 1.388 . S
C566 C567 1.390 . S
C567 C566 1.390 . S
C567 C568 1.394 . S
C567 C573 1.465 . S
C568 C563 1.399 . S
C568 C567 1.394 . S
C568 C569 1.516 . S
C569 C568 1.516 . S
C569 C570 1.502 . S
C569 C571 1.561 . S
C569 C572 1.526 . S
C570 H554 0.959 . S
C570 H555 0.959 . S
C570 H556 0.961 . S
C570 C569 1.502 . S
C571 H557 0.960 . S
C571 H558 0.961 . S
C571 H559 0.959 . S
C571 C569 1.561 . S
C572 C569 1.526 . S
C572 C573 1.396 . S
C572 C577 1.390 . S
C573 C567 1.465 . S
C573 C572 1.396 . S
C573 C574 1.399 . S
C574 H560 0.929 . S
C574 C573 1.399 . S
C574 C575 1.385 . S
C575 H561 0.931 . S
C575 C574 1.385 . S
C575 C576 1.389 . S
C576 C575 1.389 . S
C576 C577 1.387 . S
C577 H562 0.930 . S
C577 C572 1.390 . S
C577 C576 1.387 . S
H578 C590 0.930 . S
H579 C592 0.930 . S
H580 C593 0.930 . S
H581 C597 0.959 . S
H582 C597 0.959 . S
H583 C597 0.961 . S
H584 C598 0.960 . S
H585 C598 0.961 . S
H586 C598 0.959 . S
H587 C601 0.929 . S
H588 C602 0.931 . S
H589 C604 0.930 . S
C590 H578 0.930 . S
C590 C591 1.399 . S
C590 C595 1.399 . S
C591 C590 1.399 . S
C591 C592 1.376 . S
C592 H579 0.930 . S
C592 C591 1.376 . S
C592 C593 1.388 . S
C593 H580 0.930 . S
C593 C592 1.388 . S
C593 C594 1.390 . S
C594 C593 1.390 . S
C594 C595 1.394 . S
C594 C600 1.465 . S
C595 C590 1.399 . S
C595 C594 1.394 . S
C595 C596 1.516 . S
C596 C595 1.516 . S
C596 C597 1.502 . S
C596 C598 1.561 . S
C596 C599 1.526 . S
C597 H581 0.959 . S
C597 H582 0.959 . S
C597 H583 0.961 . S
C597 C596 1.502 . S
C598 H584 0.960 . S
C598 H585 0.961 . S
C598 H586 0.959 . S
C598 C596 1.561 . S
C599 C596 1.526 . S
C599 C600 1.396 . S
C599 C604 1.390 . S
C600 C594 1.465 . S
C600 C599 1.396 . S
C600 C601 1.399 . S
C601 H587 0.929 . S
C601 C600 1.399 . S
C601 C602 1.385 . S
C602 H588 0.931 . S
C602 C601 1.385 . S
C602 C603 1.389 . S
C603 C602 1.389 . S
C603 C604 1.387 . S
C604 H589 0.930 . S
C604 C599 1.390 . S
C604 C603 1.387 . S
H605 C617 0.930 . S
H606 C619 0.930 . S
H607 C620 0.930 . S
H608 C624 0.959 . S
H609 C624 0.959 . S
H610 C624 0.961 . S
H611 C625 0.960 . S
H612 C625 0.961 . S
H613 C625 0.959 . S
H614 C628 0.929 . S
H615 C629 0.931 . S
H616 C631 0.930 . S
C617 H605 0.930 . S
C617 C618 1.399 . S
C617 C622 1.399 . S
C618 C617 1.399 . S
C618 C619 1.376 . S
C619 H606 0.930 . S
C619 C618 1.376 . S
C619 C620 1.388 . S
C620 H607 0.930 . S
C620 C619 1.388 . S
C620 C621 1.390 . S
C621 C620 1.390 . S
C621 C622 1.394 . S
C621 C627 1.465 . S
C622 C617 1.399 . S
C622 C621 1.394 . S
C622 C623 1.516 . S
C623 C622 1.516 . S
C623 C624 1.502 . S
C623 C625 1.561 . S
C623 C626 1.526 . S
C624 H608 0.959 . S
C624 H609 0.959 . S
C624 H610 0.961 . S
C624 C623 1.502 . S
C625 H611 0.960 . S
C625 H612 0.961 . S
C625 H613 0.959 . S
C625 C623 1.561 . S
C626 C623 1.526 . S
C626 C627 1.396 . S
C626 C631 1.390 . S
C627 C621 1.465 . S
C627 C626 1.396 . S
C627 C628 1.399 . S
C628 H614 0.929 . S
C628 C627 1.399 . S
C628 C629 1.385 . S
C629 H615 0.931 . S
C629 C628 1.385 . S
C629 C630 1.389 . S
C630 C629 1.389 . S
C630 C631 1.387 . S
C631 H616 0.930 . S
C631 C626 1.390 . S
C631 C630 1.387 . S
H632 C644 0.930 . S
H633 C646 0.930 . S
H634 C647 0.930 . S
H635 C651 0.959 . S
H636 C651 0.959 . S
H637 C651 0.961 . S
H638 C652 0.960 . S
H639 C652 0.961 . S
H640 C652 0.959 . S
H641 C655 0.929 . S
H642 C656 0.931 . S
H643 C658 0.930 . S
C644 H632 0.930 . S
C644 C645 1.399 . S
C644 C649 1.399 . S
C645 C644 1.399 . S
C645 C646 1.376 . S
C646 H633 0.930 . S
C646 C645 1.376 . S
C646 C647 1.388 . S
C647 H634 0.930 . S
C647 C646 1.388 . S
C647 C648 1.390 . S
C648 C647 1.390 . S
C648 C649 1.394 . S
C648 C654 1.465 . S
C649 C644 1.399 . S
C649 C648 1.394 . S
C649 C650 1.516 . S
C650 C649 1.516 . S
C650 C651 1.502 . S
C650 C652 1.561 . S
C650 C653 1.526 . S
C651 H635 0.959 . S
C651 H636 0.959 . S
C651 H637 0.961 . S
C651 C650 1.502 . S
C652 H638 0.960 . S
C652 H639 0.961 . S
C652 H640 0.959 . S
C652 C650 1.561 . S
C653 C650 1.526 . S
C653 C654 1.396 . S
C653 C658 1.390 . S
C654 C648 1.465 . S
C654 C653 1.396 . S
C654 C655 1.399 . S
C655 H641 0.929 . S
C655 C654 1.399 . S
C655 C656 1.385 . S
C656 H642 0.931 . S
C656 C655 1.385 . S
C656 C657 1.389 . S
C657 C656 1.389 . S
C657 C658 1.387 . S
C658 H643 0.930 . S
C658 C653 1.390 . S
C658 C657 1.387 . S
H659 C671 0.930 . S
H660 C673 0.930 . S
H661 C674 0.930 . S
H662 C678 0.959 . S
H663 C678 0.959 . S
H664 C678 0.961 . S
H665 C679 0.960 . S
H666 C679 0.961 . S
H667 C679 0.959 . S
H668 C682 0.929 . S
H669 C683 0.931 . S
H670 C685 0.930 . S
C671 H659 0.930 . S
C671 C672 1.399 . S
C671 C676 1.399 . S
C672 C671 1.399 . S
C672 C673 1.376 . S
C673 H660 0.930 . S
C673 C672 1.376 . S
C673 C674 1.388 . S
C674 H661 0.930 . S
C674 C673 1.388 . S
C674 C675 1.390 . S
C675 C674 1.390 . S
C675 C676 1.394 . S
C675 C681 1.465 . S
C676 C671 1.399 . S
C676 C675 1.394 . S
C676 C677 1.516 . S
C677 C676 1.516 . S
C677 C678 1.502 . S
C677 C679 1.561 . S
C677 C680 1.526 . S
C678 H662 0.959 . S
C678 H663 0.959 . S
C678 H664 0.961 . S
C678 C677 1.502 . S
C679 H665 0.960 . S
C679 H666 0.961 . S
C679 H667 0.959 . S
C679 C677 1.561 . S
C680 C677 1.526 . S
C680 C681 1.396 . S
C680 C685 1.390 . S
C681 C675 1.465 . S
C681 C680 1.396 . S
C681 C682 1.399 . S
C682 H668 0.929 . S
C682 C681 1.399 . S
C682 C683 1.385 . S
C683 H669 0.931 . S
C683 C682 1.385 . S
C683 C684 1.389 . S
C684 C683 1.389 . S
C684 C685 1.387 . S
C685 H670 0.930 . S
C685 C680 1.390 . S
C685 C684 1.387 . S
H686 C698 0.930 . S
H687 C700 0.930 . S
H688 C701 0.930 . S
H689 C705 0.959 . S
H690 C705 0.959 . S
H691 C705 0.961 . S
H692 C706 0.960 . S
H693 C706 0.961 . S
H694 C706 0.959 . S
H695 C709 0.929 1_455 S
H696 C710 0.931 1_455 S
H697 C712 0.930 . S
C698 H686 0.930 . S
C698 C699 1.399 . S
C698 C703 1.399 . S
C699 C698 1.399 . S
C699 C700 1.376 . S
C700 H687 0.930 . S
C700 C699 1.376 . S
C700 C701 1.388 . S
C701 H688 0.930 . S
C701 C700 1.388 . S
C701 C702 1.390 . S
C702 C701 1.390 . S
C702 C703 1.394 . S
C702 C708 1.465 . S
C703 C698 1.399 . S
C703 C702 1.394 . S
C703 C704 1.516 . S
C704 C703 1.516 . S
C704 C705 1.502 . S
C704 C706 1.561 . S
C704 C707 1.526 . S
C705 H689 0.959 . S
C705 H690 0.959 . S
C705 H691 0.961 . S
C705 C704 1.502 . S
C706 H692 0.960 . S
C706 H693 0.961 . S
C706 H694 0.959 . S
C706 C704 1.561 . S
C707 C704 1.526 . S
C707 C708 1.396 . S
C707 C712 1.390 . S
C708 C702 1.465 . S
C708 C707 1.396 . S
C708 C709 1.399 . S
C709 H695 0.929 1_655 S
C709 C708 1.399 . S
C709 C710 1.385 . S
C710 H696 0.931 1_655 S
C710 C709 1.385 . S
C710 C711 1.389 . S
C711 C710 1.389 . S
C711 C712 1.387 . S
C712 H697 0.930 . S
C712 C707 1.390 . S
C712 C711 1.387 . S
H713 C725 0.930 . S
H714 C727 0.930 . S
H715 C728 0.930 . S
H716 C732 0.959 . S
H717 C732 0.959 . S
H718 C732 0.961 . S
H719 C733 0.960 . S
H720 C733 0.961 . S
H721 C733 0.959 . S
H722 C736 0.929 . S
H723 C737 0.931 . S
H724 C739 0.930 . S
C725 H713 0.930 . S
C725 C726 1.399 . S
C725 C730 1.399 . S
C726 C725 1.399 . S
C726 C727 1.376 . S
C727 H714 0.930 . S
C727 C726 1.376 . S
C727 C728 1.388 . S
C728 H715 0.930 . S
C728 C727 1.388 . S
C728 C729 1.390 . S
C729 C728 1.390 . S
C729 C730 1.394 . S
C729 C735 1.465 . S
C730 C725 1.399 . S
C730 C729 1.394 . S
C730 C731 1.516 . S
C731 C730 1.516 . S
C731 C732 1.502 . S
C731 C733 1.561 . S
C731 C734 1.526 . S
C732 H716 0.959 . S
C732 H717 0.959 . S
C732 H718 0.961 . S
C732 C731 1.502 . S
C733 H719 0.960 . S
C733 H720 0.961 . S
C733 H721 0.959 . S
C733 C731 1.561 . S
C734 C731 1.526 . S
C734 C735 1.396 . S
C734 C739 1.390 . S
C735 C729 1.465 . S
C735 C734 1.396 . S
C735 C736 1.399 . S
C736 H722 0.929 . S
C736 C735 1.399 . S
C736 C737 1.385 . S
C737 H723 0.931 . S
C737 C736 1.385 . S
C737 C738 1.389 . S
C738 C737 1.389 . S
C738 C739 1.387 . S
C739 H724 0.930 . S
C739 C734 1.390 . S
C739 C738 1.387 . S
H740 C752 0.930 . S
H741 C754 0.930 . S
H742 C755 0.930 . S
H743 C759 0.959 . S
H744 C759 0.959 . S
H745 C759 0.961 . S
H746 C760 0.960 . S
H747 C760 0.961 . S
H748 C760 0.959 . S
H749 C763 0.929 . S
H750 C764 0.931 . S
H751 C766 0.930 . S
C752 H740 0.930 . S
C752 C753 1.399 . S
C752 C757 1.399 . S
C753 C752 1.399 . S
C753 C754 1.376 . S
C754 H741 0.930 . S
C754 C753 1.376 . S
C754 C755 1.388 . S
C755 H742 0.930 . S
C755 C754 1.388 . S
C755 C756 1.390 . S
C756 C755 1.390 . S
C756 C757 1.394 . S
C756 C762 1.465 . S
C757 C752 1.399 . S
C757 C756 1.394 . S
C757 C758 1.516 . S
C758 C757 1.516 . S
C758 C759 1.502 . S
C758 C760 1.561 . S
C758 C761 1.526 . S
C759 H743 0.959 . S
C759 H744 0.959 . S
C759 H745 0.961 . S
C759 C758 1.502 . S
C760 H746 0.960 . S
C760 H747 0.961 . S
C760 H748 0.959 . S
C760 C758 1.561 . S
C761 C758 1.526 . S
C761 C762 1.396 . S
C761 C766 1.390 . S
C762 C756 1.465 . S
C762 C761 1.396 . S
C762 C763 1.399 . S
C763 H749 0.929 . S
C763 C762 1.399 . S
C763 C764 1.385 . S
C764 H750 0.931 . S
C764 C763 1.385 . S
C764 C765 1.389 . S
C765 C764 1.389 . S
C765 C766 1.387 . S
C766 H751 0.930 . S
C766 C761 1.390 . S
C766 C765 1.387 . S
H767 C779 0.930 . S
H768 C781 0.930 . S
H769 C782 0.930 . S
H770 C786 0.959 . S
H771 C786 0.959 . S
H772 C786 0.961 . S
H773 C787 0.960 . S
H774 C787 0.961 . S
H775 C787 0.959 . S
H776 C790 0.929 . S
H777 C791 0.931 . S
H778 C793 0.930 . S
C779 H767 0.930 . S
C779 C780 1.399 . S
C779 C784 1.399 . S
C780 C779 1.399 . S
C780 C781 1.376 . S
C781 H768 0.930 . S
C781 C780 1.376 . S
C781 C782 1.388 . S
C782 H769 0.930 . S
C782 C781 1.388 . S
C782 C783 1.390 . S
C783 C782 1.390 . S
C783 C784 1.394 . S
C783 C789 1.465 . S
C784 C779 1.399 . S
C784 C783 1.394 . S
C784 C785 1.516 . S
C785 C784 1.516 . S
C785 C786 1.502 . S
C785 C787 1.561 . S
C785 C788 1.526 . S
C786 H770 0.959 . S
C786 H771 0.959 . S
C786 H772 0.961 . S
C786 C785 1.502 . S
C787 H773 0.960 . S
C787 H774 0.961 . S
C787 H775 0.959 . S
C787 C785 1.561 . S
C788 C785 1.526 . S
C788 C789 1.396 . S
C788 C793 1.390 . S
C789 C783 1.465 . S
C789 C788 1.396 . S
C789 C790 1.399 . S
C790 H776 0.929 . S
C790 C789 1.399 . S
C790 C791 1.385 . S
C791 H777 0.931 . S
C791 C790 1.385 . S
C791 C792 1.389 . S
C792 C791 1.389 . S
C792 C793 1.387 . S
C793 H778 0.930 . S
C793 C788 1.390 . S
C793 C792 1.387 . S
H794 C806 0.930 . S
H795 C808 0.930 . S
H796 C809 0.930 . S
H797 C813 0.959 . S
H798 C813 0.959 . S
H799 C813 0.961 . S
H800 C814 0.960 . S
H801 C814 0.961 . S
H802 C814 0.959 . S
H803 C817 0.929 . S
H804 C818 0.931 . S
H805 C820 0.930 . S
C806 H794 0.930 . S
C806 C807 1.399 . S
C806 C811 1.399 . S
C807 C806 1.399 . S
C807 C808 1.376 . S
C808 H795 0.930 . S
C808 C807 1.376 . S
C808 C809 1.388 . S
C809 H796 0.930 . S
C809 C808 1.388 . S
C809 C810 1.390 . S
C810 C809 1.390 . S
C810 C811 1.394 . S
C810 C816 1.465 . S
C811 C806 1.399 . S
C811 C810 1.394 . S
C811 C812 1.516 . S
C812 C811 1.516 . S
C812 C813 1.502 . S
C812 C814 1.561 . S
C812 C815 1.526 . S
C813 H797 0.959 . S
C813 H798 0.959 . S
C813 H799 0.961 . S
C813 C812 1.502 . S
C814 H800 0.960 . S
C814 H801 0.961 . S
C814 H802 0.959 . S
C814 C812 1.561 . S
C815 C812 1.526 . S
C815 C816 1.396 . S
C815 C820 1.390 . S
C816 C810 1.465 . S
C816 C815 1.396 . S
C816 C817 1.399 . S
C817 H803 0.929 . S
C817 C816 1.399 . S
C817 C818 1.385 . S
C818 H804 0.931 . S
C818 C817 1.385 . S
C818 C819 1.389 . S
C819 C818 1.389 . S
C819 C820 1.387 . S
C820 H805 0.930 . S
C820 C815 1.390 . S
C820 C819 1.387 . S
H821 C833 0.930 . S
H822 C835 0.930 . S
H823 C836 0.930 . S
H824 C840 0.959 . S
H825 C840 0.959 . S
H826 C840 0.961 . S
H827 C841 0.960 . S
H828 C841 0.961 . S
H829 C841 0.959 . S
H830 C844 0.929 . S
H831 C845 0.931 . S
H832 C847 0.930 . S
C833 H821 0.930 . S
C833 C834 1.399 . S
C833 C838 1.399 . S
C834 C833 1.399 . S
C834 C835 1.376 . S
C835 H822 0.930 . S
C835 C834 1.376 . S
C835 C836 1.388 . S
C836 H823 0.930 . S
C836 C835 1.388 . S
C836 C837 1.390 . S
C837 C836 1.390 . S
C837 C838 1.394 . S
C837 C843 1.465 . S
C838 C833 1.399 . S
C838 C837 1.394 . S
C838 C839 1.516 . S
C839 C838 1.516 . S
C839 C840 1.502 . S
C839 C841 1.561 . S
C839 C842 1.526 . S
C840 H824 0.959 . S
C840 H825 0.959 . S
C840 H826 0.961 . S
C840 C839 1.502 . S
C841 H827 0.960 . S
C841 H828 0.961 . S
C841 H829 0.959 . S
C841 C839 1.561 . S
C842 C839 1.526 . S
C842 C843 1.396 . S
C842 C847 1.390 . S
C843 C837 1.465 . S
C843 C842 1.396 . S
C843 C844 1.399 . S
C844 H830 0.929 . S
C844 C843 1.399 . S
C844 C845 1.385 . S
C845 H831 0.931 . S
C845 C844 1.385 . S
C845 C846 1.389 . S
C846 C845 1.389 . S
C846 C847 1.387 . S
C847 H832 0.930 . S
C847 C842 1.390 . S
C847 C846 1.387 . S
H848 C860 0.930 . S
H849 C862 0.930 . S
H850 C863 0.930 . S
H851 C867 0.959 . S
H852 C867 0.959 . S
H853 C867 0.961 . S
H854 C868 0.960 . S
H855 C868 0.961 . S
H856 C868 0.959 . S
H857 C871 0.929 . S
H858 C872 0.931 . S
H859 C874 0.930 . S
C860 H848 0.930 . S
C860 C861 1.399 . S
C860 C865 1.399 . S
C861 C860 1.399 . S
C861 C862 1.376 . S
C862 H849 0.930 . S
C862 C861 1.376 . S
C862 C863 1.388 . S
C863 H850 0.930 . S
C863 C862 1.388 . S
C863 C864 1.390 . S
C864 C863 1.390 . S
C864 C865 1.394 . S
C864 C870 1.465 . S
C865 C860 1.399 . S
C865 C864 1.394 . S
C865 C866 1.516 . S
C866 C865 1.516 . S
C866 C867 1.502 . S
C866 C868 1.561 . S
C866 C869 1.526 . S
C867 H851 0.959 . S
C867 H852 0.959 . S
C867 H853 0.961 . S
C867 C866 1.502 . S
C868 H854 0.960 . S
C868 H855 0.961 . S
C868 H856 0.959 . S
C868 C866 1.561 . S
C869 C866 1.526 . S
C869 C870 1.396 . S
C869 C874 1.390 . S
C870 C864 1.465 . S
C870 C869 1.396 . S
C870 C871 1.399 . S
C871 H857 0.929 . S
C871 C870 1.399 . S
C871 C872 1.385 . S
C872 H858 0.931 . S
C872 C871 1.385 . S
C872 C873 1.389 . S
C873 C872 1.389 . S
C873 C874 1.387 . S
C874 H859 0.930 . S
C874 C869 1.390 . S
C874 C873 1.387 . S
H875 C887 0.930 . S
H876 C889 0.930 . S
H877 C890 0.930 . S
H878 C894 0.959 . S
H879 C894 0.959 . S
H880 C894 0.961 . S
H881 C895 0.959 . S
H882 C895 0.961 1_455 S
H883 C895 0.959 1_455 S
H884 C898 0.929 . S
H885 C899 0.931 . S
H886 C901 0.930 . S
C887 H875 0.930 . S
C887 C888 1.399 . S
C887 C892 1.399 . S
C888 C887 1.399 . S
C888 C889 1.376 . S
C889 H876 0.930 . S
C889 C888 1.376 . S
C889 C890 1.388 . S
C890 H877 0.930 . S
C890 C889 1.388 . S
C890 C891 1.390 . S
C891 C890 1.390 . S
C891 C892 1.394 . S
C891 C897 1.465 . S
C892 C887 1.399 . S
C892 C891 1.394 . S
C892 C893 1.516 . S
C893 C892 1.516 . S
C893 C894 1.502 . S
C893 C895 1.561 . S
C893 C896 1.526 . S
C894 H878 0.959 . S
C894 H879 0.959 . S
C894 H880 0.961 . S
C894 C893 1.502 . S
C895 H881 0.959 . S
C895 H882 0.961 1_655 S
C895 H883 0.959 1_655 S
C895 C893 1.561 . S
C896 C893 1.526 . S
C896 C897 1.396 . S
C896 C901 1.390 . S
C897 C891 1.465 . S
C897 C896 1.396 . S
C897 C898 1.399 . S
C898 H884 0.929 . S
C898 C897 1.399 . S
C898 C899 1.385 . S
C899 H885 0.931 . S
C899 C898 1.385 . S
C899 C900 1.389 . S
C900 C899 1.389 . S
C900 C901 1.387 . S
C901 H886 0.930 . S
C901 C896 1.390 . S
C901 C900 1.387 . S
H902 C914 0.930 . S
H903 C916 0.930 . S
H904 C917 0.930 . S
H905 C921 0.959 . S
H906 C921 0.959 . S
H907 C921 0.961 . S
H908 C922 0.960 . S
H909 C922 0.961 . S
H910 C922 0.959 . S
H911 C925 0.929 . S
H912 C926 0.931 . S
H913 C928 0.930 . S
C914 H902 0.930 . S
C914 C915 1.399 . S
C914 C919 1.399 . S
C915 C914 1.399 . S
C915 C916 1.376 . S
C916 H903 0.930 . S
C916 C915 1.376 . S
C916 C917 1.388 . S
C917 H904 0.930 . S
C917 C916 1.388 . S
C917 C918 1.390 . S
C918 C917 1.390 . S
C918 C919 1.394 . S
C918 C924 1.465 . S
C919 C914 1.399 . S
C919 C918 1.394 . S
C919 C920 1.516 . S
C920 C919 1.516 . S
C920 C921 1.502 . S
C920 C922 1.561 . S
C920 C923 1.526 . S
C921 H905 0.959 . S
C921 H906 0.959 . S
C921 H907 0.961 . S
C921 C920 1.502 . S
C922 H908 0.960 . S
C922 H909 0.961 . S
C922 H910 0.959 . S
C922 C920 1.561 . S
C923 C920 1.526 . S
C923 C924 1.396 . S
C923 C928 1.390 . S
C924 C918 1.465 . S
C924 C923 1.396 . S
C924 C925 1.399 . S
C925 H911 0.929 . S
C925 C924 1.399 . S
C925 C926 1.385 . S
C926 H912 0.931 . S
C926 C925 1.385 . S
C926 C927 1.389 . S
C927 C926 1.389 . S
C927 C928 1.387 . S
C928 H913 0.930 . S
C928 C923 1.390 . S
C928 C927 1.387 . S
H929 C941 0.930 . S
H930 C943 0.930 . S
H931 C944 0.930 . S
H932 C948 0.959 . S
H933 C948 0.959 . S
H934 C948 0.961 . S
H935 C949 0.960 . S
H936 C949 0.961 . S
H937 C949 0.959 . S
H938 C952 0.929 . S
H939 C953 0.931 . S
H940 C955 0.930 . S
C941 H929 0.930 . S
C941 C942 1.399 . S
C941 C946 1.399 . S
C942 C941 1.399 . S
C942 C943 1.376 . S
C943 H930 0.930 . S
C943 C942 1.376 . S
C943 C944 1.388 . S
C944 H931 0.930 . S
C944 C943 1.388 . S
C944 C945 1.390 . S
C945 C944 1.390 . S
C945 C946 1.394 . S
C945 C951 1.465 . S
C946 C941 1.399 . S
C946 C945 1.394 . S
C946 C947 1.516 . S
C947 C946 1.516 . S
C947 C948 1.502 . S
C947 C949 1.561 . S
C947 C950 1.526 . S
C948 H932 0.959 . S
C948 H933 0.959 . S
C948 H934 0.961 . S
C948 C947 1.502 . S
C949 H935 0.960 . S
C949 H936 0.961 . S
C949 H937 0.959 . S
C949 C947 1.561 . S
C950 C947 1.526 . S
C950 C951 1.396 . S
C950 C955 1.390 . S
C951 C945 1.465 . S
C951 C950 1.396 . S
C951 C952 1.399 . S
C952 H938 0.929 . S
C952 C951 1.399 . S
C952 C953 1.385 . S
C953 H939 0.931 . S
C953 C952 1.385 . S
C953 C954 1.389 . S
C954 C953 1.389 . S
C954 C955 1.387 . S
C955 H940 0.930 . S
C955 C950 1.390 . S
C955 C954 1.387 . S
H956 C968 0.930 . S
H957 C970 0.930 . S
H958 C971 0.930 . S
H959 C975 0.959 . S
H960 C975 0.959 . S
H961 C975 0.961 . S
H962 C976 0.960 . S
H963 C976 0.961 . S
H964 C976 0.959 . S
H965 C979 0.929 . S
H966 C980 0.931 . S
H967 C982 0.930 . S
C968 H956 0.930 . S
C968 C969 1.399 . S
C968 C973 1.399 . S
C969 C968 1.399 . S
C969 C970 1.376 . S
C970 H957 0.930 . S
C970 C969 1.376 . S
C970 C971 1.388 . S
C971 H958 0.930 . S
C971 C970 1.388 . S
C971 C972 1.390 . S
C972 C971 1.390 . S
C972 C973 1.394 . S
C972 C978 1.465 . S
C973 C968 1.399 . S
C973 C972 1.394 . S
C973 C974 1.516 . S
C974 C973 1.516 . S
C974 C975 1.502 . S
C974 C976 1.561 . S
C974 C977 1.526 . S
C975 H959 0.959 . S
C975 H960 0.959 . S
C975 H961 0.961 . S
C975 C974 1.502 . S
C976 H962 0.960 . S
C976 H963 0.961 . S
C976 H964 0.959 . S
C976 C974 1.561 . S
C977 C974 1.526 . S
C977 C978 1.396 . S
C977 C982 1.390 . S
C978 C972 1.465 . S
C978 C977 1.396 . S
C978 C979 1.399 . S
C979 H965 0.929 . S
C979 C978 1.399 . S
C979 C980 1.385 . S
C980 H966 0.931 . S
C980 C979 1.385 . S
C980 C981 1.389 . S
C981 C980 1.389 . S
C981 C982 1.387 . S
C982 H967 0.930 . S
C982 C977 1.390 . S
C982 C981 1.387 . S
H983 C995 0.930 . S
H984 C997 0.930 . S
H985 C998 0.930 . S
H986 C1002 0.959 . S
H987 C1002 0.959 . S
H988 C1002 0.961 . S
H989 C1003 0.960 . S
H990 C1003 0.961 . S
H991 C1003 0.959 . S
H992 C1006 0.929 . S
H993 C1007 0.931 . S
H994 C1009 0.930 . S
C995 H983 0.930 . S
C995 C996 1.399 . S
C995 C1000 1.399 . S
C996 C995 1.399 . S
C996 C997 1.376 . S
C997 H984 0.930 . S
C997 C996 1.376 . S
C997 C998 1.388 . S
C998 H985 0.930 . S
C998 C997 1.388 . S
C998 C999 1.390 . S
C999 C998 1.390 . S
C999 C1000 1.394 . S
C999 C1005 1.465 . S
C1000 C995 1.399 . S
C1000 C999 1.394 . S
C1000 C1001 1.516 . S
C1001 C1000 1.516 . S
C1001 C1002 1.502 . S
C1001 C1003 1.561 . S
C1001 C1004 1.526 . S
C1002 H986 0.959 . S
C1002 H987 0.959 . S
C1002 H988 0.961 . S
C1002 C1001 1.502 . S
C1003 H989 0.960 . S
C1003 H990 0.961 . S
C1003 H991 0.959 . S
C1003 C1001 1.561 . S
C1004 C1001 1.526 . S
C1004 C1005 1.396 . S
C1004 C1009 1.390 . S
C1005 C999 1.465 . S
C1005 C1004 1.396 . S
C1005 C1006 1.399 . S
C1006 H992 0.929 . S
C1006 C1005 1.399 . S
C1006 C1007 1.385 . S
C1007 H993 0.931 . S
C1007 C1006 1.385 . S
C1007 C1008 1.389 . S
C1008 C1007 1.389 . S
C1008 C1009 1.387 . S
C1009 H994 0.930 . S
C1009 C1004 1.390 . S
C1009 C1008 1.387 . S
H1010 C1022 0.930 . S
H1011 C1024 0.930 . S
H1012 C1025 0.930 . S
H1013 C1029 0.959 . S
H1014 C1029 0.959 . S
H1015 C1029 0.961 . S
H1016 C1030 0.960 . S
H1017 C1030 0.961 . S
H1018 C1030 0.959 . S
H1019 C1033 0.929 . S
H1020 C1034 0.931 . S
H1021 C1036 0.930 . S
C1022 H1010 0.930 . S
C1022 C1023 1.399 . S
C1022 C1027 1.399 . S
C1023 C1022 1.399 . S
C1023 C1024 1.376 . S
C1024 H1011 0.930 . S
C1024 C1023 1.376 . S
C1024 C1025 1.388 . S
C1025 H1012 0.930 . S
C1025 C1024 1.388 . S
C1025 C1026 1.390 . S
C1026 C1025 1.390 . S
C1026 C1027 1.394 . S
C1026 C1032 1.465 . S
C1027 C1022 1.399 . S
C1027 C1026 1.394 . S
C1027 C1028 1.516 . S
C1028 C1027 1.516 . S
C1028 C1029 1.502 . S
C1028 C1030 1.561 . S
C1028 C1031 1.526 . S
C1029 H1013 0.959 . S
C1029 H1014 0.959 . S
C1029 H1015 0.961 . S
C1029 C1028 1.502 . S
C1030 H1016 0.960 . S
C1030 H1017 0.961 . S
C1030 H1018 0.959 . S
C1030 C1028 1.561 . S
C1031 C1028 1.526 . S
C1031 C1032 1.396 . S
C1031 C1036 1.390 . S
C1032 C1026 1.465 . S
C1032 C1031 1.396 . S
C1032 C1033 1.399 . S
C1033 H1019 0.929 . S
C1033 C1032 1.399 . S
C1033 C1034 1.385 . S
C1034 H1020 0.931 . S
C1034 C1033 1.385 . S
C1034 C1035 1.389 . S
C1035 C1034 1.389 . S
C1035 C1036 1.387 . S
C1036 H1021 0.930 . S
C1036 C1031 1.390 . S
C1036 C1035 1.387 . S
H1037 C1049 0.930 . S
H1038 C1051 0.930 . S
H1039 C1052 0.930 . S
H1040 C1056 0.959 . S
H1041 C1056 0.959 . S
H1042 C1056 0.961 . S
H1043 C1057 0.960 . S
H1044 C1057 0.961 . S
H1045 C1057 0.959 . S
H1046 C1060 0.929 . S
H1047 C1061 0.931 . S
H1048 C1063 0.930 . S
C1049 H1037 0.930 . S
C1049 C1050 1.399 . S
C1049 C1054 1.399 . S
C1050 C1049 1.399 . S
C1050 C1051 1.376 . S
C1051 H1038 0.930 . S
C1051 C1050 1.376 . S
C1051 C1052 1.388 . S
C1052 H1039 0.930 . S
C1052 C1051 1.388 . S
C1052 C1053 1.390 . S
C1053 C1052 1.390 . S
C1053 C1054 1.394 . S
C1053 C1059 1.465 . S
C1054 C1049 1.399 . S
C1054 C1053 1.394 . S
C1054 C1055 1.516 . S
C1055 C1054 1.516 . S
C1055 C1056 1.502 . S
C1055 C1057 1.561 . S
C1055 C1058 1.526 . S
C1056 H1040 0.959 . S
C1056 H1041 0.959 . S
C1056 H1042 0.961 . S
C1056 C1055 1.502 . S
C1057 H1043 0.960 . S
C1057 H1044 0.961 . S
C1057 H1045 0.959 . S
C1057 C1055 1.561 . S
C1058 C1055 1.526 . S
C1058 C1059 1.396 . S
C1058 C1063 1.390 . S
C1059 C1053 1.465 . S
C1059 C1058 1.396 . S
C1059 C1060 1.399 . S
C1060 H1046 0.929 . S
C1060 C1059 1.399 . S
C1060 C1061 1.385 . S
C1061 H1047 0.931 . S
C1061 C1060 1.385 . S
C1061 C1062 1.389 . S
C1062 C1061 1.389 . S
C1062 C1063 1.387 . S
C1063 H1048 0.930 . S
C1063 C1058 1.390 . S
C1063 C1062 1.387 . S
C429 C29 1.167 . S
C441 C273 1.166 . S
C456 C49 1.074 . S
C468 C313 1.093 . S
C495 C338 2.441 . S
C483 C93 2.407 . S
C510 C119 2.323 . S
C522 C378 2.347 . S
C549 C309 1.677 . S
C537 C17 1.653 . S
C576 C269 1.740 . S
C564 C61 1.496 . S
C603 C400 1.671 . S
C591 C81 1.686 . S
C630 C360 1.738 . S
C618 C125 1.732 . S
C645 C23 1.302 . S
C657 C402 1.333 . S
C684 C319 2.148 . S
C672 C87 2.091 . S
C699 C113 2.187 . S
C711 C279 2.149 . S
C726 C55 1.197 . S
C738 C362 1.346 . S
C765 C282 1.174 . S
C753 C157 1.047 . S
C780 C189 1.192 . S
C792 C322 1.186 . S
C807 C221 2.419 . S
C819 C359 2.396 . S
C834 C253 2.396 . S
C846 C399 2.400 . S
C861 C145 1.591 . S
C873 C320 1.762 . S
C900 C280 1.704 . S
C888 C183 1.701 . S
C927 C389 1.714 . S
C915 C209 1.713 . S
C954 C349 1.683 . S
C942 C247 1.640 . S
C969 C151 1.152 . S
C981 C393 1.349 . S
C1008 C298 2.121 . S
C996 C215 2.110 . S
C1035 C258 2.150 . S
C1023 C241 2.146 . S
C1050 C177 1.333 . S
C1062 C353 1.359 . S
