# Generated by pormake.
# Topology anh, (6,3)-cn, num edge types: 1
# Building blocks:
#     Node 0, Type 0, BuildingBlock: BETFAJ_clean_sbu_0, # of connection points: 6
#     Node 1, Type 0, BuildingBlock: BETFAJ_clean_sbu_0, # of connection points: 6
#     Node 2, Type 0, BuildingBlock: BETFAJ_clean_sbu_0, # of connection points: 6
#     Node 3, Type 1, BuildingBlock: BELTOD_clean_linker_0, # of connection points: 3
#     Node 4, Type 1, BuildingBlock: BELTOD_clean_linker_0, # of connection points: 3
#     Node 5, Type 1, BuildingBlock: BELTOD_clean_linker_0, # of connection points: 3
#     Node 6, Type 1, BuildingBlock: BELTOD_clean_linker_0, # of connection points: 3
#     Node 7, Type 1, BuildingBlock: BELTOD_clean_linker_0, # of connection points: 3
#     Node 8, Type 1, BuildingBlock: BELTOD_clean_linker_0, # of connection points: 3
#     Edge 9, Type (0, 1), BuildingBlock: XIVTED_clean_linker_0, # of connection points: 2
#     Edge 10, Type (0, 1), BuildingBlock: XIVTED_clean_linker_0, # of connection points: 2
#     Edge 11, Type (0, 1), BuildingBlock: XIVTED_clean_linker_0, # of connection points: 2
#     Edge 12, Type (0, 1), BuildingBlock: XIVTED_clean_linker_0, # of connection points: 2
#     Edge 13, Type (0, 1), BuildingBlock: XIVTED_clean_linker_0, # of connection points: 2
#     Edge 14, Type (0, 1), BuildingBlock: XIVTED_clean_linker_0, # of connection points: 2
#     Edge 15, Type (0, 1), BuildingBlock: XIVTED_clean_linker_0, # of connection points: 2
#     Edge 16, Type (0, 1), BuildingBlock: XIVTED_clean_linker_0, # of connection points: 2
#     Edge 17, Type (0, 1), BuildingBlock: XIVTED_clean_linker_0, # of connection points: 2
#     Edge 18, Type (0, 1), BuildingBlock: XIVTED_clean_linker_0, # of connection points: 2
#     Edge 19, Type (0, 1), BuildingBlock: XIVTED_clean_linker_0, # of connection points: 2
#     Edge 20, Type (0, 1), BuildingBlock: XIVTED_clean_linker_0, # of connection points: 2
#     Edge 21, Type (0, 1), BuildingBlock: XIVTED_clean_linker_0, # of connection points: 2
#     Edge 22, Type (0, 1), BuildingBlock: XIVTED_clean_linker_0, # of connection points: 2
#     Edge 23, Type (0, 1), BuildingBlock: XIVTED_clean_linker_0, # of connection points: 2
#     Edge 24, Type (0, 1), BuildingBlock: XIVTED_clean_linker_0, # of connection points: 2
#     Edge 25, Type (0, 1), BuildingBlock: XIVTED_clean_linker_0, # of connection points: 2
#     Edge 26, Type (0, 1), BuildingBlock: XIVTED_clean_linker_0, # of connection points: 2
# Relax obj value: 0.180
# Max RMSD: 0.207
# Mean RMSD: 0.149
data_MOF--net-anh--node1-BETFAJ_clean_sbu_0--node2-BELTOD_clean_linker_0--edge1-XIVTED_clean_linker_0
_symmetry_space_group_name_H-M    P1
_symmetry_Int_Tables_number       1
_symmetry_cell_setting            triclinic
loop_
_symmetry_equiv_pos_as_xyz
'x, y, z'
_cell_length_a     36.567149
_cell_length_b     41.765756
_cell_length_c     61.009954
_cell_angle_alpha  92.409623
_cell_angle_beta   89.630292
_cell_angle_gamma 128.93436
loop_
_atom_site_label
_atom_site_type_symbol
_atom_site_fract_x
_atom_site_fract_y
_atom_site_fract_z
_atom_type_partial_charge
Sm0 Sm 0.08285 0.52531 0.13782 0.0
Sm1 Sm 0.03316 0.55552 0.15824 0.0
C2 C 0.1315 0.51208 0.11252 0.0
C3 C 0.17739 0.52165 0.11306 0.0
C4 C 0.19211 0.51239 0.0944 0.0
C5 C 0.23152 0.51435 0.09564 0.0
C6 C 0.25667 0.52545 0.11565 0.0
C7 C 0.24354 0.53741 0.13398 0.0
C8 C 0.20411 0.53556 0.13268 0.0
C9 C 0.08173 0.52496 0.18276 0.0
C10 C 0.14318 0.62587 0.15009 0.0
C11 C 0.97914 0.56289 0.18299 0.0
C12 C 0.92848 0.53275 0.18649 0.0
C13 C 0.90908 0.53309 0.20631 0.0
C14 C 0.8612 0.50203 0.21 0.0
C15 C 0.83247 0.47008 0.19398 0.0
C16 C 0.85234 0.47014 0.17417 0.0
C17 C 0.8998 0.50107 0.1705 0.0
C18 C 0.03463 0.55412 0.11298 0.0
C19 C 0.97331 0.45569 0.14692 0.0
O20 O 0.13117 0.54288 0.11012 0.0
O21 O 0.10213 0.48665 0.12712 0.0
O22 O 0.08842 0.55285 0.17157 0.0
O23 O 0.07988 0.49797 0.17037 0.0
O24 O 0.14055 0.59675 0.13865 0.0
O25 O 0.10738 0.61729 0.16145 0.0
O26 O 1.00384 0.55288 0.1907 0.0
O27 O 0.99118 0.57679 0.16324 0.0
O28 O 1.02714 0.52678 0.12486 0.0
O29 O 0.03871 0.58286 0.12482 0.0
O30 O 0.97792 0.48432 0.15979 0.0
O31 O 1.00686 0.4654 0.13339 0.0
H32 H 0.17169 0.50152 0.07917 0.0
H33 H 0.24026 0.5044 0.0813 0.0
H34 H 0.26252 0.54647 0.14953 0.0
H35 H 0.19312 0.54298 0.14723 0.0
H36 H 0.93098 0.55705 0.21895 0.0
H37 H 0.84676 0.50278 0.22538 0.0
H38 H 0.83102 0.44659 0.16127 0.0
H39 H 0.9142 0.49999 0.15516 0.0
Sm40 Sm 0.58986 0.02388 0.47892 0.0
Sm41 Sm 0.533 0.05042 0.46817 0.0
C42 C 0.62363 0.99005 0.49667 0.0
C43 C 0.61264 0.94971 0.49897 0.0
C44 C 0.60792 0.93544 0.52004 0.0
C45 C 0.60109 0.899 0.52287 0.0
C46 C 0.5992 0.87614 0.50468 0.0
C47 C 0.60284 0.88995 0.48352 0.0
C48 C 0.60939 0.92633 0.48068 0.0
C49 C 0.58781 0.03474 0.43504 0.0
C50 C 0.47567 0.95288 0.46771 0.0
C51 C 0.49997 0.0877 0.45494 0.0
C52 C 0.50848 0.12548 0.46331 0.0
C53 C 0.49883 0.1462 0.45015 0.0
C54 C 0.50812 0.18268 0.45817 0.0
C55 C 0.52724 0.199 0.47951 0.0
C56 C 0.53646 0.17774 0.49262 0.0
C57 C 0.52745 0.14156 0.48457 0.0
C58 C 0.54009 0.04303 0.51238 0.0
C59 C 0.6488 0.12115 0.47505 0.0
O60 O 0.59735 0.99643 0.50727 0.0
O61 O 0.63523 0.00567 0.47731 0.0
O62 O 0.55256 0.01762 0.44723 0.0
O63 O 0.6245 0.04447 0.44558 0.0
O64 O 0.51311 0.96254 0.47831 0.0
O65 O 0.47652 0.98158 0.45878 0.0
O66 O 0.53593 0.09299 0.44603 0.0
O67 O 0.47738 0.05704 0.46803 0.0
O68 O 0.57301 0.059 0.49906 0.0
O69 O 0.50208 0.03214 0.50282 0.0
O70 O 0.6098 0.11098 0.46601 0.0
O71 O 0.64909 0.09342 0.48445 0.0
H72 H 0.6106 0.95304 0.53441 0.0
H73 H 0.59903 0.88954 0.5394 0.0
H74 H 0.60103 0.8728 0.46917 0.0
H75 H 0.61273 0.93642 0.46421 0.0
H76 H 0.48449 0.13435 0.43363 0.0
H77 H 0.5011 0.19845 0.44752 0.0
H78 H 0.55034 0.18883 0.50925 0.0
H79 H 0.53532 0.12607 0.49497 0.0
Sm80 Sm 0.56888 0.5572 0.8534 0.0
Sm81 Sm 0.50167 0.46511 0.84965 0.0
C82 C 0.61561 0.6369 0.84807 0.0
C83 C 0.60593 0.66492 0.84213 0.0
C84 C 0.57224 0.65343 0.82578 0.0
C85 C 0.56578 0.68145 0.81944 0.0
C86 C 0.59255 0.72136 0.82945 0.0
C87 C 0.62525 0.73228 0.84625 0.0
C88 C 0.63195 0.70436 0.85246 0.0
C89 C 0.54804 0.51931 0.89234 0.0
C90 C 0.45121 0.50884 0.85301 0.0
C91 C 0.45607 0.38519 0.85361 0.0
C92 C 0.4648 0.35558 0.8487 0.0
C93 C 0.50917 0.36629 0.85262 0.0
C94 C 0.51723 0.33835 0.84709 0.0
C95 C 0.4811 0.29911 0.83748 0.0
C96 C 0.4366 0.28843 0.83378 0.0
C97 C 0.42858 0.31638 0.83934 0.0
C98 C 0.52308 0.50144 0.81004 0.0
C99 C 0.62034 0.5142 0.8521 0.0
O100 O 0.60927 0.61112 0.83254 0.0
O101 O 0.60127 0.62042 0.86715 0.0
O102 O 0.519 0.50953 0.8772 0.0
O103 O 0.59032 0.55139 0.88765 0.0
O104 O 0.49464 0.54286 0.84893 0.0
O105 O 0.445 0.47443 0.85658 0.0
O106 O 0.48132 0.41301 0.86953 0.0
O107 O 0.4506 0.40007 0.83667 0.0
O108 O 0.55225 0.51264 0.82547 0.0
O109 O 0.48133 0.46908 0.81492 0.0
O110 O 0.57608 0.47907 0.85291 0.0
O111 O 0.62746 0.5495 0.8507 0.0
H112 H 0.55135 0.623 0.81769 0.0
H113 H 0.53989 0.6719 0.80665 0.0
H114 H 0.64674 0.76286 0.85415 0.0
H115 H 0.65811 0.71386 0.8651 0.0
H116 H 0.53774 0.39638 0.85975 0.0
H117 H 0.55208 0.34786 0.84993 0.0
H118 H 0.40781 0.25834 0.82667 0.0
H119 H 0.39407 0.30746 0.83619 0.0
P120 P 0.59599 0.02894 0.1948 0.0
H121 H 0.56702 0.9684 0.15882 0.0
H122 H 0.49043 0.90578 0.14621 0.0
H123 H 0.42304 0.93703 0.19044 0.0
H124 H 0.50002 0.00103 0.20182 0.0
H125 H 0.65609 0.06266 0.15681 0.0
H126 H 0.71045 0.13221 0.14387 0.0
H127 H 0.66072 0.17375 0.1929 0.0
H128 H 0.60394 0.10327 0.20447 0.0
H129 H 0.52923 0.96965 0.22693 0.0
H130 H 0.65701 0.09566 0.22811 0.0
O131 O 0.62896 0.01422 0.1917 0.0
H132 H 0.52626 0.97396 0.26673 0.0
H133 H 0.65369 0.10047 0.26787 0.0
C134 C 0.53933 0.98873 0.18181 0.0
C135 C 0.53571 0.96219 0.16548 0.0
C136 C 0.49167 0.92596 0.15847 0.0
C137 C 0.45012 0.91518 0.16782 0.0
C138 C 0.45391 0.94382 0.18285 0.0
C139 C 0.4981 0.98053 0.18951 0.0
C140 C 0.62713 0.07801 0.18214 0.0
C141 C 0.65623 0.08661 0.16446 0.0
C142 C 0.68792 0.12675 0.15728 0.0
C143 C 0.69172 0.15947 0.16782 0.0
C144 C 0.65944 0.14983 0.18434 0.0
C145 C 0.62698 0.10937 0.19117 0.0
C146 C 0.59161 0.03322 0.2242 0.0
C147 C 0.55569 0.99881 0.23557 0.0
C148 C 0.55414 0.00121 0.25846 0.0
C149 C 0.58927 0.03778 0.27053 0.0
C150 C 0.62589 0.07186 0.25912 0.0
C151 C 0.62738 0.06937 0.23625 0.0
P152 P 0.6507 0.58039 0.57984 0.0
H153 H 0.6241 0.54821 0.53409 0.0
H154 H 0.59704 0.4827 0.51624 0.0
H155 H 0.58985 0.43697 0.57963 0.0
H156 H 0.61689 0.50217 0.59728 0.0
H157 H 0.70989 0.66699 0.5699 0.0
H158 H 0.69388 0.70929 0.55336 0.0
H159 H 0.54765 0.60249 0.54408 0.0
H160 H 0.56416 0.55992 0.56055 0.0
H161 H 0.69831 0.58759 0.62025 0.0
H162 H 0.56877 0.56305 0.60207 0.0
O163 O 0.70834 0.60508 0.57854 0.0
H164 H 0.67656 0.57895 0.65866 0.0
H165 H 0.54735 0.55569 0.64057 0.0
C166 C 0.62158 0.52984 0.56706 0.0
C167 C 0.61543 0.52366 0.54417 0.0
C168 C 0.60004 0.48623 0.53398 0.0
C169 C 0.59153 0.45476 0.54653 0.0
C170 C 0.59652 0.46075 0.5695 0.0
C171 C 0.61157 0.49797 0.57964 0.0
C172 C 0.63836 0.61021 0.56617 0.0
C173 C 0.6745 0.65244 0.56403 0.0
C174 C 0.66532 0.67662 0.55452 0.0
C175 C 0.61957 0.65917 0.54728 0.0
C176 C 0.58323 0.61678 0.54956 0.0
C177 C 0.59263 0.59245 0.55887 0.0
C178 C 0.63559 0.57673 0.60831 0.0
C179 C 0.66553 0.58108 0.62456 0.0
C180 C 0.6531 0.57629 0.64659 0.0
C181 C 0.6103 0.56689 0.65281 0.0
C182 C 0.58039 0.56259 0.6364 0.0
C183 C 0.59281 0.5672 0.61434 0.0
P184 P 0.05603 0.53883 0.87275 0.0
H185 H 0.12967 0.56524 0.83899 0.0
H186 H 0.19086 0.55815 0.83492 0.0
H187 H 0.12719 0.46919 0.88503 0.0
H188 H 0.06576 0.47619 0.88876 0.0
H189 H 0.9516 0.46407 0.86034 0.0
H190 H 0.88018 0.45776 0.85555 0.0
H191 H 0.9652 0.58989 0.86334 0.0
H192 H 0.03446 0.59569 0.8674 0.0
H193 H 0.12675 0.56915 0.90756 0.0
H194 H 0.97639 0.50039 0.90368 0.0
O195 O 0.09723 0.58938 0.86988 0.0
H196 H 0.12383 0.56972 0.94771 0.0
H197 H 0.97391 0.50235 0.94354 0.0
C198 C 0.09084 0.52085 0.86397 0.0
C199 C 0.12749 0.54305 0.84873 0.0
C200 C 0.1639 0.53953 0.84672 0.0
C201 C 0.16627 0.51344 0.8598 0.0
C202 C 0.12816 0.48968 0.87432 0.0
C203 C 0.09182 0.49339 0.87638 0.0
C204 C 1.00077 0.53064 0.86344 0.0
C205 C 0.9553 0.49189 0.86023 0.0
C206 C 0.91359 0.48833 0.85786 0.0
C207 C 0.91479 0.52327 0.85873 0.0
C208 C 0.96053 0.56165 0.86181 0.0
C209 C 1.00158 0.56509 0.86413 0.0
C210 C 0.05196 0.53499 0.90235 0.0
C211 C 0.09309 0.55394 0.91524 0.0
C212 C 0.09144 0.5543 0.93818 0.0
C213 C 0.04869 0.53641 0.94871 0.0
C214 C 1.00743 0.51683 0.93584 0.0
C215 C 1.00894 0.51573 0.91291 0.0
P216 P 0.09145 0.51598 0.42253 0.0
H217 H 0.16089 0.55673 0.45864 0.0
H218 H 0.21873 0.62888 0.47085 0.0
H219 H 0.15491 0.66063 0.42676 0.0
H220 H 0.09524 0.5878 0.41583 0.0
H221 H 0.06871 0.46318 0.45868 0.0
H222 H 0.99467 0.40282 0.47216 0.0
H223 H 0.91868 0.42239 0.42823 0.0
H224 H 0.99334 0.48435 0.41586 0.0
H225 H 0.14954 0.57926 0.39061 0.0
H226 H 1.02136 0.45344 0.38931 0.0
O227 O 0.12453 0.50137 0.42448 0.0
H228 H 0.14322 0.58004 0.351 0.0
H229 H 1.01453 0.45422 0.34964 0.0
C230 C 0.12471 0.567 0.43576 0.0
C231 C 0.15866 0.5791 0.45198 0.0
C232 C 0.19225 0.62066 0.45873 0.0
C233 C 0.19302 0.65125 0.4492 0.0
C234 C 0.15603 0.63836 0.43443 0.0
C235 C 0.12181 0.59654 0.42804 0.0
C236 C 0.03663 0.47752 0.43571 0.0
C237 C 0.03612 0.45492 0.45222 0.0
C238 C 0.99351 0.41995 0.45974 0.0
C239 C 0.95022 0.4065 0.45081 0.0
C240 C 0.951 0.43134 0.43551 0.0
C241 C 0.99383 0.46681 0.42826 0.0
C242 C 0.08419 0.51724 0.39333 0.0
C243 C 0.11899 0.55226 0.382 0.0
C244 C 0.11554 0.55262 0.35923 0.0
C245 C 0.07789 0.51747 0.34716 0.0
C246 C 0.0438 0.48195 0.35845 0.0
C247 C 0.04726 0.48171 0.38126 0.0
P248 P 0.62099 0.06191 0.74868 0.0
H249 H 0.66115 0.12964 0.78168 0.0
H250 H 0.63079 0.16183 0.79923 0.0
H251 H 0.49376 0.06659 0.76945 0.0
H252 H 0.52501 0.035 0.75147 0.0
H253 H 0.67405 0.032 0.74469 0.0
H254 H 0.66256 0.97201 0.75793 0.0
H255 H 0.53608 0.93422 0.78988 0.0
H256 H 0.54761 0.99455 0.7763 0.0
H257 H 0.59478 0.10044 0.72095 0.0
H258 H 0.60538 0.00332 0.71364 0.0
O259 O 0.67894 0.09997 0.74844 0.0
H260 H 0.57535 0.09242 0.68184 0.0
H261 H 0.58681 0.99579 0.67448 0.0
C262 C 0.59555 0.08031 0.76496 0.0
C263 C 0.62441 0.11531 0.77913 0.0
C264 C 0.60684 0.13363 0.78929 0.0
C265 C 0.55987 0.11716 0.7856 0.0
C266 C 0.53033 0.08061 0.77234 0.0
C267 C 0.548 0.06228 0.76218 0.0
C268 C 0.61196 0.01799 0.75965 0.0
C269 C 0.64391 0.01096 0.75463 0.0
C270 C 0.63713 0.97646 0.76207 0.0
C271 C 0.59833 0.94829 0.77489 0.0
C272 C 0.56646 0.95555 0.78015 0.0
C273 C 0.57299 0.98997 0.77238 0.0
C274 C 0.60035 0.05176 0.72048 0.0
C275 C 0.59188 0.07673 0.7111 0.0
C276 C 0.58092 0.07224 0.68869 0.0
C277 C 0.57945 0.0434 0.67512 0.0
C278 C 0.58786 0.01837 0.68454 0.0
C279 C 0.59819 0.02251 0.70701 0.0
P280 P 0.41754 0.29079 0.08468 0.0
H281 H 0.42572 0.23575 0.10854 0.0
H282 H 0.47988 0.24908 0.138 0.0
H283 H 0.5545 0.37984 0.13463 0.0
H284 H 0.50107 0.36654 0.10562 0.0
H285 H 0.3445 0.28387 0.11012 0.0
H286 H 0.33004 0.33279 0.11893 0.0
H287 H 0.45372 0.4255 0.08345 0.0
H288 H 0.46652 0.37657 0.07404 0.0
H289 H 0.51255 0.34578 0.06667 0.0
H290 H 0.36939 0.25891 0.0422 0.0
O291 O 0.36775 0.24241 0.08562 0.0
H292 H 0.53712 0.3764 0.03113 0.0
H293 H 0.39404 0.28729 0.00609 0.0
C294 C 0.45893 0.3001 0.10506 0.0
C295 C 0.45377 0.26724 0.1142 0.0
C296 C 0.48458 0.27484 0.13104 0.0
C297 C 0.52069 0.31543 0.13897 0.0
C298 C 0.52611 0.34814 0.12939 0.0
C299 C 0.49569 0.34055 0.11259 0.0
C300 C 0.40581 0.32606 0.09093 0.0
C301 C 0.36808 0.31459 0.10405 0.0
C302 C 0.36025 0.34278 0.1093 0.0
C303 C 0.39056 0.38304 0.10173 0.0
C304 C 0.42899 0.39453 0.08909 0.0
C305 C 0.43634 0.36633 0.08368 0.0
C306 C 0.43902 0.30027 0.05717 0.0
C307 C 0.48673 0.33193 0.05336 0.0
C308 C 0.50078 0.34951 0.03289 0.0
C309 C 0.46734 0.33519 0.0158 0.0
C310 C 0.42053 0.30015 0.01905 0.0
C311 C 0.40643 0.28329 0.03963 0.0
H312 H 0.26711 0.49051 0.14939 0.0
H313 H 0.40217 0.4386 0.07409 0.0
H314 H 0.32455 0.54341 0.08683 0.0
H315 H 0.35826 0.39519 0.13951 0.0
H316 H 0.38376 0.48473 0.0808 0.0
H317 H 0.31109 0.46462 0.14887 0.0
C318 C 0.29 0.4977 0.13581 0.0
C319 C 0.29152 0.51855 0.11791 0.0
C320 C 0.37858 0.46548 0.09381 0.0
C321 C 0.34087 0.48794 0.11695 0.0
C322 C 0.38928 0.43914 0.09002 0.0
C323 C 0.38147 0.41266 0.10622 0.0
C324 C 0.35925 0.46507 0.11383 0.0
C325 C 0.3639 0.41438 0.12638 0.0
C326 C 0.31478 0.48253 0.13543 0.0
C327 C 0.32148 0.52661 0.10071 0.0
N328 N 0.35292 0.43984 0.12953 0.0
N329 N 0.34437 0.51069 0.10047 0.0
H330 H 0.73896 0.15129 0.48463 0.0
H331 H 0.86086 0.38345 0.45431 0.0
H332 H 0.6602 0.18937 0.46255 0.0
H333 H 0.93574 0.33523 0.45972 0.0
H334 H 0.78757 0.31511 0.46149 0.0
H335 H 0.81187 0.22129 0.4803 0.0
C336 C 0.7369 0.17439 0.47903 0.0
C337 C 0.69323 0.16422 0.47387 0.0
C338 C 0.82017 0.31967 0.4612 0.0
C339 C 0.77691 0.24473 0.46886 0.0
C340 C 0.86214 0.35872 0.45699 0.0
C341 C 0.90509 0.36563 0.4564 0.0
C342 C 0.8209 0.28711 0.46501 0.0
C343 C 0.90406 0.33209 0.46042 0.0
C344 C 0.77863 0.21438 0.47647 0.0
C345 C 0.69299 0.19563 0.46662 0.0
N346 N 0.86287 0.29454 0.46453 0.0
N347 N 0.7341 0.23438 0.46433 0.0
H348 H 0.58936 0.77608 0.85426 0.0
H349 H 0.60486 0.89529 0.75101 0.0
H350 H 0.58579 0.73711 0.78714 0.0
H351 H 0.57687 0.9179 0.81618 0.0
H352 H 0.59934 0.83799 0.76421 0.0
H353 H 0.58633 0.82901 0.84104 0.0
C354 C 0.58785 0.7786 0.83675 0.0
C355 C 0.58793 0.75212 0.82179 0.0
C356 C 0.5941 0.85526 0.77564 0.0
C357 C 0.58452 0.8127 0.80655 0.0
C358 C 0.59745 0.8881 0.76812 0.0
C359 C 0.59159 0.91157 0.78255 0.0
C360 C 0.58534 0.84593 0.79785 0.0
C361 C 0.58142 0.90051 0.80449 0.0
C362 C 0.58586 0.80868 0.82922 0.0
C363 C 0.58537 0.75653 0.79928 0.0
N364 N 0.57906 0.86873 0.81152 0.0
N365 N 0.58415 0.78639 0.79237 0.0
H366 H 0.77042 0.48034 0.21043 0.0
H367 H 0.56538 0.28229 0.14259 0.0
H368 H 0.77771 0.38724 0.18366 0.0
H369 H 0.5543 0.37003 0.17437 0.0
H370 H 0.63481 0.31009 0.16556 0.0
H371 H 0.68499 0.43141 0.20604 0.0
C372 C 0.75396 0.44924 0.20419 0.0
C373 C 0.78122 0.4382 0.19676 0.0
C374 C 0.61664 0.32272 0.16787 0.0
C375 C 0.68362 0.38238 0.19115 0.0
C376 C 0.57682 0.30667 0.15481 0.0
C377 C 0.55497 0.32473 0.15615 0.0
C378 C 0.63487 0.3573 0.18213 0.0
C379 C 0.57114 0.35615 0.17234 0.0
C380 C 0.70512 0.42132 0.20155 0.0
C381 C 0.75799 0.39741 0.18888 0.0
N382 N 0.61072 0.37205 0.18437 0.0
N383 N 0.71058 0.37125 0.18581 0.0
H384 H 0.38685 0.92039 0.45291 0.0
H385 H 0.28594 0.68672 0.45644 0.0
H386 H 0.46662 0.88471 0.4772 0.0
H387 H 0.19504 0.71898 0.4507 0.0
H388 H 0.35298 0.75935 0.46174 0.0
H389 H 0.31713 0.84735 0.44928 0.0
C390 C 0.38979 0.89729 0.45746 0.0
C391 C 0.43282 0.90886 0.46536 0.0
C392 C 0.31835 0.75059 0.45945 0.0
C393 C 0.35314 0.82517 0.46114 0.0
C394 C 0.27967 0.70884 0.45661 0.0
C395 C 0.23408 0.69607 0.45331 0.0
C396 C 0.31205 0.78038 0.45871 0.0
C397 C 0.22926 0.72697 0.45296 0.0
C398 C 0.3499 0.8556 0.45546 0.0
C399 C 0.43432 0.87745 0.47107 0.0
N400 N 0.26769 0.7676 0.45553 0.0
N401 N 0.39527 0.8372 0.46874 0.0
H402 H 0.53291 0.28315 0.85971 0.0
H403 H 0.5016 0.12779 0.76526 0.0
H404 H 0.44988 0.24821 0.80028 0.0
H405 H 0.58025 0.15861 0.82576 0.0
H406 H 0.47941 0.16924 0.77859 0.0
H407 H 0.54897 0.2364 0.84807 0.0
C408 C 0.51812 0.26574 0.84419 0.0
C409 C 0.49006 0.2698 0.83095 0.0
C410 C 0.50131 0.16677 0.78902 0.0
C411 C 0.50805 0.2158 0.81757 0.0
C412 C 0.51371 0.14276 0.78148 0.0
C413 C 0.543 0.13963 0.79435 0.0
C414 C 0.51835 0.18807 0.80959 0.0
C415 C 0.55822 0.16053 0.81509 0.0
C416 C 0.52708 0.23882 0.83761 0.0
C417 C 0.47125 0.24584 0.81116 0.0
N418 N 0.54591 0.18394 0.822 0.0
N419 N 0.48074 0.22007 0.80505 0.0
H420 H 0.64854 0.85509 0.48395 0.0
H421 H 0.54747 0.66104 0.55672 0.0
H422 H 0.5437 0.814 0.53303 0.0
H423 H 0.67044 0.71814 0.51714 0.0
H424 H 0.53714 0.70986 0.54397 0.0
H425 H 0.6483 0.79804 0.49167 0.0
C426 C 0.62496 0.83373 0.49614 0.0
C427 C 0.59626 0.8395 0.50794 0.0
C428 C 0.56618 0.7115 0.53796 0.0
C429 C 0.59623 0.77429 0.51705 0.0
C430 C 0.57189 0.68348 0.54512 0.0
C431 C 0.61008 0.68576 0.53811 0.0
C432 C 0.59868 0.7418 0.52357 0.0
C433 C 0.64092 0.71569 0.5232 0.0
C434 C 0.62511 0.80132 0.50065 0.0
C435 C 0.56688 0.81108 0.52375 0.0
N436 N 0.63464 0.74259 0.5165 0.0
N437 N 0.56774 0.7798 0.5279 0.0
H438 H 0.62306 0.44909 0.85836 0.0
H439 H 0.90651 0.58357 0.84719 0.0
H440 H 0.71712 0.57898 0.84764 0.0
H441 H 0.81757 0.45722 0.86575 0.0
H442 H 0.83795 0.58089 0.84611 0.0
H443 H 0.69119 0.45001 0.85973 0.0
C444 C 0.65777 0.47796 0.85623 0.0
C445 C 0.66289 0.51401 0.85284 0.0
C446 C 0.8331 0.5536 0.85047 0.0
C447 C 0.74353 0.51525 0.85437 0.0
C448 C 0.87307 0.55506 0.85131 0.0
C449 C 0.87006 0.52076 0.85695 0.0
C450 C 0.78776 0.51738 0.85507 0.0
C451 C 0.82349 0.48486 0.86122 0.0
C452 C 0.69719 0.47843 0.85706 0.0
C453 C 0.71006 0.55012 0.8503 0.0
N454 N 0.78514 0.48425 0.86022 0.0
N455 N 0.74758 0.54969 0.85106 0.0
H456 H 0.23031 0.65329 0.13725 0.0
H457 H 0.36055 0.89213 0.16582 0.0
H458 H 0.1587 0.69667 0.16487 0.0
H459 H 0.43327 0.84152 0.15946 0.0
H460 H 0.28568 0.8224 0.16058 0.0
H461 H 0.30434 0.72394 0.14001 0.0
C462 C 0.23003 0.67765 0.14378 0.0
C463 C 0.18811 0.66887 0.15093 0.0
C464 C 0.31815 0.82674 0.16024 0.0
C465 C 0.27296 0.75006 0.15402 0.0
C466 C 0.36105 0.8666 0.16332 0.0
C467 C 0.40386 0.87324 0.16312 0.0
C468 C 0.31779 0.79309 0.15668 0.0
C469 C 0.40169 0.83855 0.15935 0.0
C470 C 0.2724 0.718 0.14542 0.0
C471 C 0.19013 0.70187 0.15929 0.0
N472 N 0.35958 0.8002 0.15628 0.0
N473 N 0.23177 0.74095 0.16057 0.0
H474 H 0.60251 0.26079 0.50541 0.0
H475 H 0.52948 0.40571 0.5122 0.0
H476 H 0.47692 0.22686 0.47327 0.0
H477 H 0.63034 0.41852 0.55616 0.0
H478 H 0.51415 0.34406 0.49473 0.0
H479 H 0.61774 0.32281 0.52112 0.0
C480 C 0.5779 0.26618 0.50172 0.0
C481 C 0.53798 0.23809 0.48817 0.0
C482 C 0.53951 0.36037 0.50825 0.0
C483 C 0.55586 0.30989 0.5059 0.0
C484 C 0.54839 0.39558 0.51815 0.0
C485 C 0.58096 0.41708 0.53577 0.0
C486 C 0.56391 0.347 0.51584 0.0
C487 C 0.60439 0.40255 0.54287 0.0
C488 C 0.5868 0.30181 0.51064 0.0
C489 C 0.50827 0.24765 0.48351 0.0
N490 N 0.59552 0.36858 0.53286 0.0
N491 N 0.51775 0.2827 0.49239 0.0
H492 H 0.44802 0.57271 0.8443 0.0
H493 H 0.17058 0.45025 0.8704 0.0
H494 H 0.35618 0.44708 0.86358 0.0
H495 H 0.26058 0.573 0.84667 0.0
H496 H 0.23696 0.44908 0.86887 0.0
H497 H 0.38127 0.57366 0.84572 0.0
C498 C 0.41403 0.54512 0.84886 0.0
C499 C 0.40912 0.5097 0.85378 0.0
C500 C 0.24239 0.47637 0.86395 0.0
C501 C 0.33006 0.51073 0.85558 0.0
C502 C 0.20395 0.47726 0.86492 0.0
C503 C 0.2081 0.51182 0.85866 0.0
C504 C 0.28704 0.51037 0.85675 0.0
C505 C 0.25371 0.54508 0.85148 0.0
C506 C 0.3754 0.54574 0.84966 0.0
C507 C 0.36295 0.47533 0.85955 0.0
N508 N 0.29043 0.54349 0.85082 0.0
N509 N 0.32613 0.4768 0.86031 0.0
H510 H 0.95751 0.38648 0.12898 0.0
H511 H 0.69317 0.22689 0.16941 0.0
H512 H 0.89067 0.42497 0.16747 0.0
H513 H 0.78136 0.19338 0.15476 0.0
H514 H 0.76016 0.2988 0.16337 0.0
H515 H 0.8877 0.31459 0.1325 0.0
C516 C 0.92805 0.37992 0.13801 0.0
C517 C 0.93011 0.41199 0.14794 0.0
C518 C 0.76456 0.27551 0.16138 0.0
C519 C 0.8498 0.32953 0.15193 0.0
C520 C 0.72634 0.23433 0.16493 0.0
C521 C 0.73105 0.20338 0.16265 0.0
C522 C 0.80783 0.28601 0.15519 0.0
C523 C 0.77512 0.21547 0.15632 0.0
C524 C 0.88825 0.33882 0.14008 0.0
C525 C 0.89074 0.40138 0.15952 0.0
N526 N 0.81153 0.2556 0.15281 0.0
N527 N 0.85221 0.36112 0.16115 0.0
H528 H 0.0314 0.6003 0.08365 0.0
H529 H 0.08565 0.51654 0.97903 0.0
H530 H 0.04341 0.50433 0.08734 0.0
H531 H 1.00879 0.56266 0.97361 0.0
H532 H 0.08271 0.52132 0.01919 0.0
H533 H 0.03498 0.59631 0.04345 0.0
C534 C 0.03493 0.57852 0.076 0.0
C535 C 0.03705 0.55258 0.08879 0.0
C536 C 0.06646 0.53033 0.00918 0.0
C537 C 0.04187 0.54829 0.04303 0.0
C538 C 0.06831 0.52778 0.98632 0.0
C539 C 0.04725 0.53905 0.97303 0.0
C540 C 0.04429 0.54509 0.01882 0.0
C541 C 1.02506 0.5533 0.98329 0.0
C542 C 0.03683 0.57617 0.05311 0.0
C543 C 0.0416 0.52486 0.07807 0.0
N544 N 1.02444 0.5562 0.00558 0.0
N545 N 0.04419 0.52364 0.05584 0.0
H546 H 0.51152 0.00492 0.40797 0.0
H547 H 0.66425 0.0743 0.29929 0.0
H548 H 0.66103 0.06998 0.40753 0.0
H549 H 0.51379 0.00522 0.29753 0.0
H550 H 0.66343 0.07591 0.3392 0.0
H551 H 0.51114 0.00727 0.36776 0.0
C552 C 0.54422 0.0198 0.39941 0.0
C553 C 0.58632 0.03704 0.41102 0.0
C554 C 0.63053 0.06047 0.33014 0.0
C555 C 0.58623 0.0399 0.36525 0.0
C556 C 0.63103 0.0598 0.30728 0.0
C557 C 0.58904 0.03969 0.29495 0.0
C558 C 0.58772 0.04082 0.34092 0.0
C559 C 0.54696 0.02071 0.30634 0.0
C560 C 0.544 0.02111 0.37651 0.0
C561 C 0.62773 0.05606 0.39921 0.0
N562 N 0.54735 0.0217 0.32868 0.0
N563 N 0.62661 0.05688 0.37702 0.0
H564 H 0.61079 0.56245 0.79492 0.0
H565 H 0.52257 0.50938 0.66923 0.0
H566 H 0.46535 0.47268 0.77389 0.0
H567 H 0.66615 0.60896 0.68986 0.0
H568 H 0.50092 0.49709 0.70761 0.0
H569 H 0.63195 0.58159 0.75675 0.0
C570 C 0.58331 0.547 0.78228 0.0
C571 C 0.53632 0.51575 0.7875 0.0
C572 C 0.53715 0.52179 0.70377 0.0
C573 C 0.56017 0.5372 0.74389 0.0
C574 C 0.54952 0.52902 0.6818 0.0
C575 C 0.59634 0.56025 0.6762 0.0
C576 C 0.57181 0.54576 0.72039 0.0
C577 C 0.62977 0.58411 0.69333 0.0
C578 C 0.59537 0.55789 0.76051 0.0
C579 C 0.50206 0.49678 0.77055 0.0
N580 N 0.61691 0.57626 0.71462 0.0
N581 N 0.51469 0.5076 0.7495 0.0
H582 H 0.61647 0.0619 0.5347 0.0
H583 H 0.51216 0.04081 0.6534 0.0
H584 H 0.47645 0.02165 0.54419 0.0
H585 H 0.62875 0.04084 0.64215 0.0
H586 H 0.50166 0.03947 0.61364 0.0
H587 H 0.62498 0.06001 0.57433 0.0
C588 C 0.5875 0.05258 0.54514 0.0
C589 C 0.54566 0.04182 0.5362 0.0
C590 C 0.52937 0.03954 0.61988 0.0
C591 C 0.55531 0.04007 0.5815 0.0
C592 C 0.53549 0.04049 0.64254 0.0
C593 C 0.57132 0.04086 0.65107 0.0
C594 C 0.55976 0.03962 0.60563 0.0
C595 C 0.60039 0.04015 0.63626 0.0
C596 C 0.59233 0.05145 0.56773 0.0
C597 C 0.50928 0.03014 0.55045 0.0
N598 N 0.5942 0.03987 0.61428 0.0
N599 N 0.51503 0.0298 0.57241 0.0
H600 H 0.46118 0.45714 0.9065 0.0
H601 H 0.55069 0.38028 0.99323 0.0
H602 H 0.60849 0.52032 0.9193 0.0
H603 H 0.41264 0.34755 0.99355 0.0
H604 H 0.57142 0.42566 0.96313 0.0
H605 H 0.44157 0.41045 0.93551 0.0
C606 C 0.48941 0.46128 0.91555 0.0
C607 C 0.53649 0.49273 0.91067 0.0
C608 C 0.53654 0.40825 0.96978 0.0
C609 C 0.51437 0.43912 0.94367 0.0
C610 C 0.52463 0.38234 0.98698 0.0
C611 C 0.47967 0.35968 0.99601 0.0
C612 C 0.50317 0.41129 0.96144 0.0
C613 C 0.44732 0.36342 0.98693 0.0
C614 C 0.47822 0.43462 0.93207 0.0
C615 C 0.57174 0.49664 0.92275 0.0
N616 N 0.45971 0.38864 0.97021 0.0
N617 N 0.55996 0.46998 0.93868 0.0
H618 H 0.09437 0.58314 0.21195 0.0
H619 H 0.05425 0.45618 0.31705 0.0
H620 H 0.0649 0.46552 0.20844 0.0
H621 H 0.09651 0.57878 0.32175 0.0
H622 H 0.05318 0.45756 0.27712 0.0
H623 H 0.09129 0.58098 0.2521 0.0
C624 C 0.08724 0.55689 0.21965 0.0
C625 C 0.08005 0.52453 0.20692 0.0
C626 C 0.0626 0.48416 0.28686 0.0
C627 C 0.07634 0.52173 0.2527 0.0
C628 C 0.06287 0.48327 0.30969 0.0
C629 C 0.07549 0.51742 0.32282 0.0
C630 C 0.07494 0.51944 0.27696 0.0
C631 C 0.0871 0.55194 0.31229 0.0
C632 C 0.0855 0.55566 0.24253 0.0
C633 C 0.07086 0.4912 0.21767 0.0
N634 N 0.08656 0.55207 0.29 0.0
N635 N 0.06927 0.49067 0.23991 0.0
loop_
_geom_bond_atom_site_label_1
_geom_bond_atom_site_label_2
_geom_bond_distance
_geom_bond_site_symmetry_2
_ccdc_geom_bond_type
Sm0 C2 2.846 . S
Sm0 O20 2.543 . S
Sm0 O21 2.450 . S
Sm0 O22 2.681 . S
Sm0 O23 2.464 . S
Sm0 O24 2.396 . S
Sm0 O28 2.386 . S
Sm0 O31 2.408 1_455 S
Sm1 C11 2.846 . S
Sm1 O22 2.386 1_655 S
Sm1 O25 2.408 1_655 S
Sm1 O26 2.543 . S
Sm1 O27 2.450 . S
Sm1 O28 2.681 1_655 S
Sm1 O29 2.464 . S
Sm1 O30 2.396 . S
C2 Sm0 2.846 . S
C2 C3 1.506 . S
C2 O20 1.261 . S
C2 O21 1.242 . S
C3 C2 1.506 . S
C3 C4 1.358 . S
C3 C8 1.382 . S
C4 C3 1.358 . S
C4 C5 1.385 . S
C4 H32 0.930 . S
C5 C4 1.385 . S
C5 C6 1.395 . S
C5 H33 0.929 . S
C6 C5 1.395 . S
C6 C7 1.335 . S
C7 C6 1.335 . S
C7 C8 1.398 . S
C7 H34 0.930 . S
C8 C3 1.382 . S
C8 C7 1.398 . S
C8 H35 0.929 . S
C9 O22 1.271 . S
C9 O23 1.251 . S
C10 O24 1.252 . S
C10 O25 1.272 . S
C11 Sm1 2.846 . S
C11 C12 1.506 . S
C11 O26 1.261 . S
C11 O27 1.242 . S
C12 C11 1.506 . S
C12 C13 1.358 . S
C12 C17 1.382 . S
C13 C12 1.358 . S
C13 C14 1.385 . S
C13 H36 0.930 . S
C14 C13 1.385 . S
C14 C15 1.395 . S
C14 H37 0.929 . S
C15 C14 1.395 . S
C15 C16 1.335 . S
C16 C15 1.335 . S
C16 C17 1.398 . S
C16 H38 0.930 . S
C17 C12 1.382 . S
C17 C16 1.398 . S
C17 H39 0.929 . S
C18 O28 1.271 . S
C18 O29 1.251 1_455 S
C19 O30 1.252 . S
C19 O31 1.272 . S
O20 Sm0 2.543 . S
O20 C2 1.261 . S
O21 Sm0 2.450 . S
O21 C2 1.242 . S
O22 Sm0 2.681 . S
O22 Sm1 2.386 1_455 S
O22 C9 1.271 . S
O23 Sm0 2.464 . S
O23 C9 1.251 . S
O24 Sm0 2.396 . S
O24 C10 1.252 . S
O25 Sm1 2.408 1_455 S
O25 C10 1.272 . S
O26 Sm1 2.543 . S
O26 C11 1.261 . S
O27 Sm1 2.450 . S
O27 C11 1.242 . S
O28 Sm0 2.386 . S
O28 Sm1 2.681 1_455 S
O28 C18 1.271 . S
O29 Sm1 2.464 . S
O29 C18 1.251 1_655 S
O30 Sm1 2.396 . S
O30 C19 1.252 . S
O31 Sm0 2.408 1_655 S
O31 C19 1.272 . S
H32 C4 0.930 . S
H33 C5 0.929 . S
H34 C7 0.930 . S
H35 C8 0.929 . S
H36 C13 0.930 . S
H37 C14 0.929 . S
H38 C16 0.930 . S
H39 C17 0.929 . S
Sm40 C42 2.846 . S
Sm40 O60 2.543 . S
Sm40 O61 2.450 . S
Sm40 O62 2.681 1_565 S
Sm40 O63 2.464 . S
Sm40 O64 2.396 . S
Sm40 O68 2.385 . S
Sm40 O71 2.408 1_565 S
Sm41 C51 2.846 . S
Sm41 O62 2.386 . S
Sm41 O65 2.408 1_545 S
Sm41 O66 2.543 . S
Sm41 O67 2.450 . S
Sm41 O68 2.683 1_545 S
Sm41 O69 2.464 . S
Sm41 O70 2.396 . S
C42 Sm40 2.846 . S
C42 C43 1.506 . S
C42 O60 1.261 . S
C42 O61 1.242 . S
C43 C42 1.506 . S
C43 C44 1.358 . S
C43 C48 1.382 . S
C44 C43 1.358 . S
C44 C45 1.385 . S
C44 H72 0.930 . S
C45 C44 1.385 . S
C45 C46 1.395 . S
C45 H73 0.929 . S
C46 C45 1.395 . S
C46 C47 1.335 . S
C47 C46 1.335 . S
C47 C48 1.398 . S
C47 H74 0.930 . S
C48 C43 1.382 . S
C48 C47 1.398 . S
C48 H75 0.929 . S
C49 O62 1.271 . S
C49 O63 1.251 1_545 S
C50 O64 1.252 . S
C50 O65 1.272 . S
C51 Sm41 2.846 . S
C51 C52 1.506 . S
C51 O66 1.261 . S
C51 O67 1.242 . S
C52 C51 1.506 . S
C52 C53 1.358 . S
C52 C57 1.382 . S
C53 C52 1.358 . S
C53 C54 1.385 . S
C53 H76 0.930 . S
C54 C53 1.385 . S
C54 C55 1.395 . S
C54 H77 0.929 . S
C55 C54 1.395 . S
C55 C56 1.335 . S
C56 C55 1.335 . S
C56 C57 1.398 . S
C56 H78 0.930 . S
C57 C52 1.382 . S
C57 C56 1.398 . S
C57 H79 0.929 . S
C58 O68 1.272 1_545 S
C58 O69 1.251 . S
C59 O70 1.252 . S
C59 O71 1.272 . S
O60 Sm40 2.543 . S
O60 C42 1.261 . S
O61 Sm40 2.450 . S
O61 C42 1.242 . S
O62 Sm40 2.681 1_545 S
O62 Sm41 2.386 . S
O62 C49 1.271 . S
O63 Sm40 2.464 . S
O63 C49 1.251 1_565 S
O64 Sm40 2.396 . S
O64 C50 1.252 . S
O65 Sm41 2.408 1_565 S
O65 C50 1.272 . S
O66 Sm41 2.543 . S
O66 C51 1.261 . S
O67 Sm41 2.450 . S
O67 C51 1.242 . S
O68 Sm40 2.385 . S
O68 Sm41 2.683 1_565 S
O68 C58 1.272 1_565 S
O69 Sm41 2.464 . S
O69 C58 1.251 . S
O70 Sm41 2.396 . S
O70 C59 1.252 . S
O71 Sm40 2.408 1_545 S
O71 C59 1.272 . S
H72 C44 0.930 . S
H73 C45 0.929 . S
H74 C47 0.930 . S
H75 C48 0.929 . S
H76 C53 0.930 . S
H77 C54 0.929 . S
H78 C56 0.930 . S
H79 C57 0.929 . S
Sm80 C82 2.846 . S
Sm80 O100 2.543 . S
Sm80 O101 2.450 . S
Sm80 O102 2.681 . S
Sm80 O103 2.464 . S
Sm80 O104 2.396 . S
Sm80 O108 2.386 . S
Sm80 O111 2.408 . S
Sm81 C91 2.846 . S
Sm81 O102 2.386 . S
Sm81 O105 2.408 . S
Sm81 O106 2.543 . S
Sm81 O107 2.450 . S
Sm81 O108 2.681 . S
Sm81 O109 2.464 . S
Sm81 O110 2.396 . S
C82 Sm80 2.846 . S
C82 C83 1.506 . S
C82 O100 1.261 . S
C82 O101 1.242 . S
C83 C82 1.506 . S
C83 C84 1.358 . S
C83 C88 1.382 . S
C84 C83 1.358 . S
C84 C85 1.385 . S
C84 H112 0.930 . S
C85 C84 1.385 . S
C85 C86 1.395 . S
C85 H113 0.929 . S
C86 C85 1.395 . S
C86 C87 1.335 . S
C87 C86 1.335 . S
C87 C88 1.398 . S
C87 H114 0.930 . S
C88 C83 1.382 . S
C88 C87 1.398 . S
C88 H115 0.929 . S
C89 O102 1.271 . S
C89 O103 1.251 . S
C90 O104 1.252 . S
C90 O105 1.272 . S
C91 Sm81 2.846 . S
C91 C92 1.506 . S
C91 O106 1.261 . S
C91 O107 1.242 . S
C92 C91 1.506 . S
C92 C93 1.358 . S
C92 C97 1.382 . S
C93 C92 1.358 . S
C93 C94 1.385 . S
C93 H116 0.930 . S
C94 C93 1.385 . S
C94 C95 1.395 . S
C94 H117 0.929 . S
C95 C94 1.395 . S
C95 C96 1.335 . S
C96 C95 1.335 . S
C96 C97 1.398 . S
C96 H118 0.930 . S
C97 C92 1.382 . S
C97 C96 1.398 . S
C97 H119 0.929 . S
C98 O108 1.271 . S
C98 O109 1.251 . S
C99 O110 1.252 . S
C99 O111 1.272 . S
O100 Sm80 2.543 . S
O100 C82 1.261 . S
O101 Sm80 2.450 . S
O101 C82 1.242 . S
O102 Sm80 2.681 . S
O102 Sm81 2.386 . S
O102 C89 1.271 . S
O103 Sm80 2.464 . S
O103 C89 1.251 . S
O104 Sm80 2.396 . S
O104 C90 1.252 . S
O105 Sm81 2.408 . S
O105 C90 1.272 . S
O106 Sm81 2.543 . S
O106 C91 1.261 . S
O107 Sm81 2.450 . S
O107 C91 1.242 . S
O108 Sm80 2.386 . S
O108 Sm81 2.681 . S
O108 C98 1.271 . S
O109 Sm81 2.464 . S
O109 C98 1.251 . S
O110 Sm81 2.396 . S
O110 C99 1.252 . S
O111 Sm80 2.408 . S
O111 C99 1.272 . S
H112 C84 0.930 . S
H113 C85 0.929 . S
H114 C87 0.930 . S
H115 C88 0.929 . S
H116 C93 0.930 . S
H117 C94 0.929 . S
H118 C96 0.930 . S
H119 C97 0.929 . S
P120 O131 1.489 . S
P120 C134 1.811 . S
P120 C140 1.804 1_565 S
P120 C146 1.819 1_565 S
H121 C135 0.941 . S
H122 C136 0.939 . S
H123 C138 0.940 . S
H124 C139 0.940 . S
H125 C141 0.939 . S
H126 C142 0.942 . S
H127 C144 0.940 . S
H128 C145 0.939 . S
H129 C147 0.941 . S
H130 C151 0.939 . S
O131 P120 1.489 . S
H132 C148 0.939 . S
H133 C150 0.940 . S
C134 P120 1.811 . S
C134 C135 1.389 . S
C134 C139 1.391 . S
C135 H121 0.941 . S
C135 C134 1.389 . S
C135 C136 1.397 . S
C136 H122 0.939 . S
C136 C135 1.397 . S
C136 C137 1.378 . S
C137 C136 1.378 . S
C137 C138 1.378 . S
C138 H123 0.940 . S
C138 C137 1.378 . S
C138 C139 1.396 . S
C139 H124 0.940 . S
C139 C134 1.391 . S
C139 C138 1.396 . S
C140 P120 1.804 1_545 S
C140 C141 1.378 . S
C140 C145 1.400 . S
C141 H125 0.939 . S
C141 C140 1.378 . S
C141 C142 1.361 . S
C142 H126 0.942 . S
C142 C141 1.361 . S
C142 C143 1.369 . S
C143 C142 1.369 . S
C143 C144 1.404 . S
C144 H127 0.940 . S
C144 C143 1.404 . S
C144 C145 1.389 . S
C145 H128 0.939 . S
C145 C140 1.400 . S
C145 C144 1.389 . S
C146 P120 1.819 1_545 S
C146 C147 1.391 1_545 S
C146 C151 1.391 . S
C147 H129 0.941 . S
C147 C146 1.391 1_565 S
C147 C148 1.396 . S
C148 H132 0.939 . S
C148 C147 1.396 . S
C148 C149 1.397 1_565 S
C149 C148 1.397 1_545 S
C149 C150 1.385 . S
C150 H133 0.940 . S
C150 C149 1.385 . S
C150 C151 1.388 . S
C151 H130 0.939 . S
C151 C146 1.391 . S
C151 C150 1.388 . S
P152 O163 1.490 . S
P152 C166 1.812 . S
P152 C172 1.803 . S
P152 C178 1.819 . S
H153 C167 0.941 . S
H154 C168 0.939 . S
H155 C170 0.940 . S
H156 C171 0.940 . S
H157 C173 0.939 . S
H158 C174 0.942 . S
H159 C176 0.940 . S
H160 C177 0.939 . S
H161 C179 0.941 . S
H162 C183 0.939 . S
O163 P152 1.490 . S
H164 C180 0.939 . S
H165 C182 0.940 . S
C166 P152 1.812 . S
C166 C167 1.389 . S
C166 C171 1.391 . S
C167 H153 0.941 . S
C167 C166 1.389 . S
C167 C168 1.397 . S
C168 H154 0.939 . S
C168 C167 1.397 . S
C168 C169 1.378 . S
C169 C168 1.378 . S
C169 C170 1.378 . S
C170 H155 0.940 . S
C170 C169 1.378 . S
C170 C171 1.396 . S
C171 H156 0.940 . S
C171 C166 1.391 . S
C171 C170 1.396 . S
C172 P152 1.803 . S
C172 C173 1.378 . S
C172 C177 1.400 . S
C173 H157 0.939 . S
C173 C172 1.378 . S
C173 C174 1.361 . S
C174 H158 0.942 . S
C174 C173 1.361 . S
C174 C175 1.369 . S
C175 C174 1.369 . S
C175 C176 1.404 . S
C176 H159 0.940 . S
C176 C175 1.404 . S
C176 C177 1.389 . S
C177 H160 0.939 . S
C177 C172 1.400 . S
C177 C176 1.389 . S
C178 P152 1.819 . S
C178 C179 1.391 . S
C178 C183 1.391 . S
C179 H161 0.941 . S
C179 C178 1.391 . S
C179 C180 1.396 . S
C180 H164 0.939 . S
C180 C179 1.396 . S
C180 C181 1.397 . S
C181 C180 1.397 . S
C181 C182 1.385 . S
C182 H165 0.940 . S
C182 C181 1.385 . S
C182 C183 1.388 . S
C183 H162 0.939 . S
C183 C178 1.391 . S
C183 C182 1.388 . S
P184 O195 1.490 . S
P184 C198 1.812 . S
P184 C204 1.803 . S
P184 C210 1.819 . S
H185 C199 0.941 . S
H186 C200 0.939 . S
H187 C202 0.940 . S
H188 C203 0.940 . S
H189 C205 0.939 . S
H190 C206 0.942 . S
H191 C208 0.940 . S
H192 C209 0.939 . S
H193 C211 0.941 . S
H194 C215 0.928 1_655 S
O195 P184 1.490 . S
H196 C212 0.939 . S
H197 C214 0.940 1_655 S
C198 P184 1.812 . S
C198 C199 1.389 . S
C198 C203 1.391 . S
C199 H185 0.941 . S
C199 C198 1.389 . S
C199 C200 1.397 . S
C200 H186 0.939 . S
C200 C199 1.397 . S
C200 C201 1.378 . S
C201 C200 1.378 . S
C201 C202 1.378 . S
C202 H187 0.940 . S
C202 C201 1.378 . S
C202 C203 1.396 . S
C203 H188 0.940 . S
C203 C198 1.391 . S
C203 C202 1.396 . S
C204 P184 1.803 . S
C204 C205 1.378 . S
C204 C209 1.400 . S
C205 H189 0.939 . S
C205 C204 1.378 . S
C205 C206 1.361 1_455 S
C206 H190 0.942 . S
C206 C205 1.361 1_655 S
C206 C207 1.369 . S
C207 C206 1.369 . S
C207 C208 1.404 . S
C208 H191 0.940 . S
C208 C207 1.404 . S
C208 C209 1.389 1_655 S
C209 H192 0.939 . S
C209 C204 1.400 . S
C209 C208 1.389 1_455 S
C210 P184 1.819 . S
C210 C211 1.391 . S
C210 C215 1.391 . S
C211 H193 0.941 . S
C211 C210 1.391 . S
C211 C212 1.396 . S
C212 H196 0.939 . S
C212 C211 1.396 . S
C212 C213 1.397 . S
C213 C212 1.397 . S
C213 C214 1.385 . S
C214 H197 0.940 1_455 S
C214 C213 1.385 . S
C214 C215 1.388 . S
C215 H194 0.928 1_455 S
C215 C210 1.391 . S
C215 C214 1.388 . S
P216 O227 1.490 . S
P216 C230 1.812 . S
P216 C236 1.803 1_455 S
P216 C242 1.819 . S
H217 C231 0.941 . S
H218 C232 0.939 . S
H219 C234 0.940 . S
H220 C235 0.940 . S
H221 C237 0.939 . S
H222 C238 0.942 . S
H223 C240 0.940 . S
H224 C241 0.939 . S
H225 C243 0.941 . S
H226 C247 0.939 . S
O227 P216 1.490 . S
H228 C244 0.939 . S
H229 C246 0.940 . S
C230 P216 1.812 . S
C230 C231 1.389 . S
C230 C235 1.391 . S
C231 H217 0.941 . S
C231 C230 1.389 . S
C231 C232 1.397 . S
C232 H218 0.939 . S
C232 C231 1.397 . S
C232 C233 1.378 . S
C233 C232 1.378 . S
C233 C234 1.378 . S
C234 H219 0.940 . S
C234 C233 1.378 . S
C234 C235 1.396 . S
C235 H220 0.940 . S
C235 C230 1.391 . S
C235 C234 1.396 . S
C236 P216 1.803 1_655 S
C236 C237 1.378 . S
C236 C241 1.400 . S
C237 H221 0.939 . S
C237 C236 1.378 . S
C237 C238 1.361 . S
C238 H222 0.942 . S
C238 C237 1.361 . S
C238 C239 1.369 . S
C239 C238 1.369 . S
C239 C240 1.404 . S
C240 H223 0.940 . S
C240 C239 1.404 . S
C240 C241 1.389 . S
C241 H224 0.939 . S
C241 C236 1.400 . S
C241 C240 1.389 . S
C242 P216 1.819 . S
C242 C243 1.391 . S
C242 C247 1.391 1_455 S
C243 H225 0.941 . S
C243 C242 1.391 . S
C243 C244 1.396 . S
C244 H228 0.939 . S
C244 C243 1.396 . S
C244 C245 1.397 . S
C245 C244 1.397 . S
C245 C246 1.385 1_455 S
C246 H229 0.940 . S
C246 C245 1.385 1_655 S
C246 C247 1.388 . S
C247 H226 0.939 . S
C247 C242 1.391 1_655 S
C247 C246 1.388 . S
P248 O259 1.490 . S
P248 C262 1.812 . S
P248 C268 1.803 1_545 S
P248 C274 1.819 . S
H249 C263 0.941 . S
H250 C264 0.939 . S
H251 C266 0.940 . S
H252 C267 0.940 . S
H253 C269 0.939 . S
H254 C270 0.942 . S
H255 C272 0.940 . S
H256 C273 0.939 . S
H257 C275 0.941 . S
H258 C279 0.939 . S
O259 P248 1.490 . S
H260 C276 0.939 . S
H261 C278 0.940 . S
C262 P248 1.812 . S
C262 C263 1.389 . S
C262 C267 1.391 . S
C263 H249 0.941 . S
C263 C262 1.389 . S
C263 C264 1.397 . S
C264 H250 0.939 . S
C264 C263 1.397 . S
C264 C265 1.378 . S
C265 C264 1.378 . S
C265 C266 1.378 . S
C266 H251 0.940 . S
C266 C265 1.378 . S
C266 C267 1.396 . S
C267 H252 0.940 . S
C267 C262 1.391 . S
C267 C266 1.396 . S
C268 P248 1.803 1_565 S
C268 C269 1.378 . S
C268 C273 1.400 . S
C269 H253 0.939 . S
C269 C268 1.378 . S
C269 C270 1.361 . S
C270 H254 0.942 . S
C270 C269 1.361 . S
C270 C271 1.369 . S
C271 C270 1.369 . S
C271 C272 1.404 . S
C272 H255 0.940 . S
C272 C271 1.404 . S
C272 C273 1.389 . S
C273 H256 0.939 . S
C273 C268 1.400 . S
C273 C272 1.389 . S
C274 P248 1.819 . S
C274 C275 1.391 . S
C274 C279 1.391 1_545 S
C275 H257 0.941 . S
C275 C274 1.391 . S
C275 C276 1.396 . S
C276 H260 0.939 . S
C276 C275 1.396 . S
C276 C277 1.397 . S
C277 C276 1.397 . S
C277 C278 1.385 1_545 S
C278 H261 0.940 . S
C278 C277 1.385 1_565 S
C278 C279 1.388 . S
C279 H258 0.939 . S
C279 C274 1.391 1_565 S
C279 C278 1.388 . S
P280 O291 1.490 . S
P280 C294 1.812 . S
P280 C300 1.803 . S
P280 C306 1.819 . S
H281 C295 0.941 . S
H282 C296 0.939 . S
H283 C298 0.940 . S
H284 C299 0.940 . S
H285 C301 0.939 . S
H286 C302 0.942 . S
H287 C304 0.940 . S
H288 C305 0.939 . S
H289 C307 0.941 . S
H290 C311 0.939 . S
O291 P280 1.490 . S
H292 C308 0.939 . S
H293 C310 0.940 . S
C294 P280 1.812 . S
C294 C295 1.389 . S
C294 C299 1.391 . S
C295 H281 0.941 . S
C295 C294 1.389 . S
C295 C296 1.397 . S
C296 H282 0.939 . S
C296 C295 1.397 . S
C296 C297 1.378 . S
C297 C296 1.378 . S
C297 C298 1.378 . S
C298 H283 0.940 . S
C298 C297 1.378 . S
C298 C299 1.396 . S
C299 H284 0.940 . S
C299 C294 1.391 . S
C299 C298 1.396 . S
C300 P280 1.803 . S
C300 C301 1.378 . S
C300 C305 1.400 . S
C301 H285 0.939 . S
C301 C300 1.378 . S
C301 C302 1.361 . S
C302 H286 0.942 . S
C302 C301 1.361 . S
C302 C303 1.369 . S
C303 C302 1.369 . S
C303 C304 1.404 . S
C304 H287 0.940 . S
C304 C303 1.404 . S
C304 C305 1.389 . S
C305 H288 0.939 . S
C305 C300 1.400 . S
C305 C304 1.389 . S
C306 P280 1.819 . S
C306 C307 1.391 . S
C306 C311 1.391 . S
C307 H289 0.941 . S
C307 C306 1.391 . S
C307 C308 1.396 . S
C308 H292 0.939 . S
C308 C307 1.396 . S
C308 C309 1.397 . S
C309 C308 1.397 . S
C309 C310 1.385 . S
C310 H293 0.940 . S
C310 C309 1.385 . S
C310 C311 1.388 . S
C311 H290 0.939 . S
C311 C306 1.391 . S
C311 C310 1.388 . S
H312 C318 0.930 . S
H313 C322 0.930 . S
H314 C327 0.929 . S
H315 C325 0.929 . S
H316 C320 0.929 . S
H317 C326 0.929 . S
C318 H312 0.930 . S
C318 C319 1.367 . S
C318 C326 1.378 . S
C319 C318 1.367 . S
C319 C327 1.433 . S
C320 H316 0.929 . S
C320 C322 1.378 . S
C320 C324 1.350 . S
C321 C324 1.463 . S
C321 C326 1.350 . S
C321 N329 1.427 . S
C322 H313 0.930 . S
C322 C320 1.378 . S
C322 C323 1.367 . S
C323 C322 1.367 . S
C323 C325 1.433 . S
C324 C320 1.350 . S
C324 C321 1.463 . S
C324 N328 1.427 . S
C325 H315 0.929 . S
C325 C323 1.433 . S
C325 N328 1.384 . S
C326 H317 0.929 . S
C326 C318 1.378 . S
C326 C321 1.350 . S
C327 H314 0.929 . S
C327 C319 1.433 . S
C327 N329 1.384 . S
N328 C324 1.427 . S
N328 C325 1.384 . S
N329 C321 1.427 . S
N329 C327 1.384 . S
H330 C336 0.930 . S
H331 C340 0.930 . S
H332 C345 0.929 . S
H333 C343 0.929 . S
H334 C338 0.929 . S
H335 C344 0.929 . S
C336 H330 0.930 . S
C336 C337 1.367 . S
C336 C344 1.378 . S
C337 C336 1.367 . S
C337 C345 1.433 . S
C338 H334 0.929 . S
C338 C340 1.378 . S
C338 C342 1.350 . S
C339 C342 1.463 . S
C339 C344 1.350 . S
C339 N347 1.427 . S
C340 H331 0.930 . S
C340 C338 1.378 . S
C340 C341 1.367 . S
C341 C340 1.367 . S
C341 C343 1.433 . S
C342 C338 1.350 . S
C342 C339 1.463 . S
C342 N346 1.427 . S
C343 H333 0.929 . S
C343 C341 1.433 . S
C343 N346 1.384 . S
C344 H335 0.929 . S
C344 C336 1.378 . S
C344 C339 1.350 . S
C345 H332 0.929 . S
C345 C337 1.433 . S
C345 N347 1.384 . S
N346 C342 1.427 . S
N346 C343 1.384 . S
N347 C339 1.427 . S
N347 C345 1.384 . S
H348 C354 0.930 . S
H349 C358 0.930 . S
H350 C363 0.929 . S
H351 C361 0.929 . S
H352 C356 0.929 . S
H353 C362 0.929 . S
C354 H348 0.930 . S
C354 C355 1.367 . S
C354 C362 1.378 . S
C355 C354 1.367 . S
C355 C363 1.433 . S
C356 H352 0.929 . S
C356 C358 1.378 . S
C356 C360 1.350 . S
C357 C360 1.463 . S
C357 C362 1.350 . S
C357 N365 1.427 . S
C358 H349 0.930 . S
C358 C356 1.378 . S
C358 C359 1.367 . S
C359 C358 1.367 . S
C359 C361 1.433 . S
C360 C356 1.350 . S
C360 C357 1.463 . S
C360 N364 1.427 . S
C361 H351 0.929 . S
C361 C359 1.433 . S
C361 N364 1.384 . S
C362 H353 0.929 . S
C362 C354 1.378 . S
C362 C357 1.350 . S
C363 H350 0.929 . S
C363 C355 1.433 . S
C363 N365 1.384 . S
N364 C360 1.427 . S
N364 C361 1.384 . S
N365 C357 1.427 . S
N365 C363 1.384 . S
H366 C372 0.930 . S
H367 C376 0.930 . S
H368 C381 0.929 . S
H369 C379 0.929 . S
H370 C374 0.929 . S
H371 C380 0.929 . S
C372 H366 0.930 . S
C372 C373 1.367 . S
C372 C380 1.378 . S
C373 C372 1.367 . S
C373 C381 1.433 . S
C374 H370 0.929 . S
C374 C376 1.378 . S
C374 C378 1.350 . S
C375 C378 1.463 . S
C375 C380 1.350 . S
C375 N383 1.427 . S
C376 H367 0.930 . S
C376 C374 1.378 . S
C376 C377 1.367 . S
C377 C376 1.367 . S
C377 C379 1.433 . S
C378 C374 1.350 . S
C378 C375 1.463 . S
C378 N382 1.427 . S
C379 H369 0.929 . S
C379 C377 1.433 . S
C379 N382 1.384 . S
C380 H371 0.929 . S
C380 C372 1.378 . S
C380 C375 1.350 . S
C381 H368 0.929 . S
C381 C373 1.433 . S
C381 N383 1.384 . S
N382 C378 1.427 . S
N382 C379 1.384 . S
N383 C375 1.427 . S
N383 C381 1.384 . S
H384 C390 0.930 . S
H385 C394 0.930 . S
H386 C399 0.929 . S
H387 C397 0.929 . S
H388 C392 0.929 . S
H389 C398 0.929 . S
C390 H384 0.930 . S
C390 C391 1.367 . S
C390 C398 1.378 . S
C391 C390 1.367 . S
C391 C399 1.433 . S
C392 H388 0.929 . S
C392 C394 1.378 . S
C392 C396 1.350 . S
C393 C396 1.463 . S
C393 C398 1.350 . S
C393 N401 1.427 . S
C394 H385 0.930 . S
C394 C392 1.378 . S
C394 C395 1.367 . S
C395 C394 1.367 . S
C395 C397 1.433 . S
C396 C392 1.350 . S
C396 C393 1.463 . S
C396 N400 1.427 . S
C397 H387 0.929 . S
C397 C395 1.433 . S
C397 N400 1.384 . S
C398 H389 0.929 . S
C398 C390 1.378 . S
C398 C393 1.350 . S
C399 H386 0.929 . S
C399 C391 1.433 . S
C399 N401 1.384 . S
N400 C396 1.427 . S
N400 C397 1.384 . S
N401 C393 1.427 . S
N401 C399 1.384 . S
H402 C408 0.930 . S
H403 C412 0.930 . S
H404 C417 0.929 . S
H405 C415 0.929 . S
H406 C410 0.929 . S
H407 C416 0.929 . S
C408 H402 0.930 . S
C408 C409 1.367 . S
C408 C416 1.378 . S
C409 C408 1.367 . S
C409 C417 1.433 . S
C410 H406 0.929 . S
C410 C412 1.378 . S
C410 C414 1.350 . S
C411 C414 1.463 . S
C411 C416 1.350 . S
C411 N419 1.427 . S
C412 H403 0.930 . S
C412 C410 1.378 . S
C412 C413 1.367 . S
C413 C412 1.367 . S
C413 C415 1.433 . S
C414 C410 1.350 . S
C414 C411 1.463 . S
C414 N418 1.427 . S
C415 H405 0.929 . S
C415 C413 1.433 . S
C415 N418 1.384 . S
C416 H407 0.929 . S
C416 C408 1.378 . S
C416 C411 1.350 . S
C417 H404 0.929 . S
C417 C409 1.433 . S
C417 N419 1.384 . S
N418 C414 1.427 . S
N418 C415 1.384 . S
N419 C411 1.427 . S
N419 C417 1.384 . S
H420 C426 0.930 . S
H421 C430 0.930 . S
H422 C435 0.929 . S
H423 C433 0.929 . S
H424 C428 0.929 . S
H425 C434 0.929 . S
C426 H420 0.930 . S
C426 C427 1.367 . S
C426 C434 1.378 . S
C427 C426 1.367 . S
C427 C435 1.433 . S
C428 H424 0.929 . S
C428 C430 1.378 . S
C428 C432 1.350 . S
C429 C432 1.463 . S
C429 C434 1.350 . S
C429 N437 1.427 . S
C430 H421 0.930 . S
C430 C428 1.378 . S
C430 C431 1.367 . S
C431 C430 1.367 . S
C431 C433 1.433 . S
C432 C428 1.350 . S
C432 C429 1.463 . S
C432 N436 1.427 . S
C433 H423 0.929 . S
C433 C431 1.433 . S
C433 N436 1.384 . S
C434 H425 0.929 . S
C434 C426 1.378 . S
C434 C429 1.350 . S
C435 H422 0.929 . S
C435 C427 1.433 . S
C435 N437 1.384 . S
N436 C432 1.427 . S
N436 C433 1.384 . S
N437 C429 1.427 . S
N437 C435 1.384 . S
H438 C444 0.930 . S
H439 C448 0.930 . S
H440 C453 0.929 . S
H441 C451 0.929 . S
H442 C446 0.929 . S
H443 C452 0.929 . S
C444 H438 0.930 . S
C444 C445 1.367 . S
C444 C452 1.378 . S
C445 C444 1.367 . S
C445 C453 1.433 . S
C446 H442 0.929 . S
C446 C448 1.378 . S
C446 C450 1.350 . S
C447 C450 1.463 . S
C447 C452 1.350 . S
C447 N455 1.427 . S
C448 H439 0.930 . S
C448 C446 1.378 . S
C448 C449 1.367 . S
C449 C448 1.367 . S
C449 C451 1.433 . S
C450 C446 1.350 . S
C450 C447 1.463 . S
C450 N454 1.427 . S
C451 H441 0.929 . S
C451 C449 1.433 . S
C451 N454 1.384 . S
C452 H443 0.929 . S
C452 C444 1.378 . S
C452 C447 1.350 . S
C453 H440 0.929 . S
C453 C445 1.433 . S
C453 N455 1.384 . S
N454 C450 1.427 . S
N454 C451 1.384 . S
N455 C447 1.427 . S
N455 C453 1.384 . S
H456 C462 0.930 . S
H457 C466 0.930 . S
H458 C471 0.929 . S
H459 C469 0.929 . S
H460 C464 0.929 . S
H461 C470 0.929 . S
C462 H456 0.930 . S
C462 C463 1.367 . S
C462 C470 1.378 . S
C463 C462 1.367 . S
C463 C471 1.433 . S
C464 H460 0.929 . S
C464 C466 1.378 . S
C464 C468 1.350 . S
C465 C468 1.463 . S
C465 C470 1.350 . S
C465 N473 1.427 . S
C466 H457 0.930 . S
C466 C464 1.378 . S
C466 C467 1.367 . S
C467 C466 1.367 . S
C467 C469 1.433 . S
C468 C464 1.350 . S
C468 C465 1.463 . S
C468 N472 1.427 . S
C469 H459 0.929 . S
C469 C467 1.433 . S
C469 N472 1.384 . S
C470 H461 0.929 . S
C470 C462 1.378 . S
C470 C465 1.350 . S
C471 H458 0.929 . S
C471 C463 1.433 . S
C471 N473 1.384 . S
N472 C468 1.427 . S
N472 C469 1.384 . S
N473 C465 1.427 . S
N473 C471 1.384 . S
H474 C480 0.930 . S
H475 C484 0.930 . S
H476 C489 0.929 . S
H477 C487 0.929 . S
H478 C482 0.929 . S
H479 C488 0.929 . S
C480 H474 0.930 . S
C480 C481 1.367 . S
C480 C488 1.378 . S
C481 C480 1.367 . S
C481 C489 1.433 . S
C482 H478 0.929 . S
C482 C484 1.378 . S
C482 C486 1.350 . S
C483 C486 1.463 . S
C483 C488 1.350 . S
C483 N491 1.427 . S
C484 H475 0.930 . S
C484 C482 1.378 . S
C484 C485 1.367 . S
C485 C484 1.367 . S
C485 C487 1.433 . S
C486 C482 1.350 . S
C486 C483 1.463 . S
C486 N490 1.427 . S
C487 H477 0.929 . S
C487 C485 1.433 . S
C487 N490 1.384 . S
C488 H479 0.929 . S
C488 C480 1.378 . S
C488 C483 1.350 . S
C489 H476 0.929 . S
C489 C481 1.433 . S
C489 N491 1.384 . S
N490 C486 1.427 . S
N490 C487 1.384 . S
N491 C483 1.427 . S
N491 C489 1.384 . S
H492 C498 0.930 . S
H493 C502 0.930 . S
H494 C507 0.929 . S
H495 C505 0.929 . S
H496 C500 0.929 . S
H497 C506 0.929 . S
C498 H492 0.930 . S
C498 C499 1.367 . S
C498 C506 1.378 . S
C499 C498 1.367 . S
C499 C507 1.433 . S
C500 H496 0.929 . S
C500 C502 1.378 . S
C500 C504 1.350 . S
C501 C504 1.463 . S
C501 C506 1.350 . S
C501 N509 1.427 . S
C502 H493 0.930 . S
C502 C500 1.378 . S
C502 C503 1.367 . S
C503 C502 1.367 . S
C503 C505 1.433 . S
C504 C500 1.350 . S
C504 C501 1.463 . S
C504 N508 1.427 . S
C505 H495 0.929 . S
C505 C503 1.433 . S
C505 N508 1.384 . S
C506 H497 0.929 . S
C506 C498 1.378 . S
C506 C501 1.350 . S
C507 H494 0.929 . S
C507 C499 1.433 . S
C507 N509 1.384 . S
N508 C504 1.427 . S
N508 C505 1.384 . S
N509 C501 1.427 . S
N509 C507 1.384 . S
H510 C516 0.930 . S
H511 C520 0.930 . S
H512 C525 0.929 . S
H513 C523 0.929 . S
H514 C518 0.929 . S
H515 C524 0.929 . S
C516 H510 0.930 . S
C516 C517 1.367 . S
C516 C524 1.378 . S
C517 C516 1.367 . S
C517 C525 1.433 . S
C518 H514 0.929 . S
C518 C520 1.378 . S
C518 C522 1.350 . S
C519 C522 1.463 . S
C519 C524 1.350 . S
C519 N527 1.427 . S
C520 H511 0.930 . S
C520 C518 1.378 . S
C520 C521 1.367 . S
C521 C520 1.367 . S
C521 C523 1.433 . S
C522 C518 1.350 . S
C522 C519 1.463 . S
C522 N526 1.427 . S
C523 H513 0.929 . S
C523 C521 1.433 . S
C523 N526 1.384 . S
C524 H515 0.929 . S
C524 C516 1.378 . S
C524 C519 1.350 . S
C525 H512 0.929 . S
C525 C517 1.433 . S
C525 N527 1.384 . S
N526 C522 1.427 . S
N526 C523 1.384 . S
N527 C519 1.427 . S
N527 C525 1.384 . S
H528 C534 0.930 . S
H529 C538 0.930 . S
H530 C543 0.929 . S
H531 C541 0.929 . S
H532 C536 0.929 . S
H533 C542 0.929 . S
C534 H528 0.930 . S
C534 C535 1.367 1_655 S
C534 C542 1.378 . S
C535 C534 1.367 1_455 S
C535 C543 1.433 . S
C536 H532 0.929 . S
C536 C538 1.378 1_554 S
C536 C540 1.350 . S
C537 C540 1.463 . S
C537 C542 1.350 1_455 S
C537 N545 1.427 . S
C538 H529 0.930 . S
C538 C536 1.378 1_556 S
C538 C539 1.367 . S
C539 C538 1.367 . S
C539 C541 1.433 1_455 S
C540 C536 1.350 . S
C540 C537 1.463 . S
C540 N544 1.427 1_455 S
C541 H531 0.929 . S
C541 C539 1.433 1_655 S
C541 N544 1.384 1_556 S
C542 H533 0.929 . S
C542 C534 1.378 . S
C542 C537 1.350 1_655 S
C543 H530 0.929 . S
C543 C535 1.433 . S
C543 N545 1.384 . S
N544 C540 1.427 1_655 S
N544 C541 1.384 1_554 S
N545 C537 1.427 . S
N545 C543 1.384 . S
H546 C552 0.930 . S
H547 C556 0.930 . S
H548 C561 0.929 . S
H549 C559 0.928 . S
H550 C554 0.929 . S
H551 C560 0.929 . S
C552 H546 0.930 . S
C552 C553 1.367 1_565 S
C552 C560 1.378 . S
C553 C552 1.367 1_545 S
C553 C561 1.433 . S
C554 H550 0.929 . S
C554 C556 1.378 . S
C554 C558 1.350 . S
C555 C558 1.463 . S
C555 C560 1.350 1_545 S
C555 N563 1.427 . S
C556 H547 0.930 . S
C556 C554 1.378 . S
C556 C557 1.367 . S
C557 C556 1.367 . S
C557 C559 1.434 1_545 S
C558 C554 1.350 . S
C558 C555 1.463 . S
C558 N562 1.427 1_545 S
C559 H549 0.928 . S
C559 C557 1.434 1_565 S
C559 N562 1.384 . S
C560 H551 0.929 . S
C560 C552 1.378 . S
C560 C555 1.350 1_565 S
C561 H548 0.929 . S
C561 C553 1.433 . S
C561 N563 1.384 . S
N562 C558 1.427 1_565 S
N562 C559 1.384 . S
N563 C555 1.427 . S
N563 C561 1.384 . S
H564 C570 0.930 . S
H565 C574 0.930 . S
H566 C579 0.929 . S
H567 C577 0.929 . S
H568 C572 0.929 . S
H569 C578 0.929 . S
C570 H564 0.930 . S
C570 C571 1.367 . S
C570 C578 1.378 . S
C571 C570 1.367 . S
C571 C579 1.433 . S
C572 H568 0.929 . S
C572 C574 1.378 . S
C572 C576 1.350 . S
C573 C576 1.463 . S
C573 C578 1.350 . S
C573 N581 1.427 . S
C574 H565 0.930 . S
C574 C572 1.378 . S
C574 C575 1.367 . S
C575 C574 1.367 . S
C575 C577 1.433 . S
C576 C572 1.350 . S
C576 C573 1.463 . S
C576 N580 1.427 . S
C577 H567 0.929 . S
C577 C575 1.433 . S
C577 N580 1.384 . S
C578 H569 0.929 . S
C578 C570 1.378 . S
C578 C573 1.350 . S
C579 H566 0.929 . S
C579 C571 1.433 . S
C579 N581 1.384 . S
N580 C576 1.427 . S
N580 C577 1.384 . S
N581 C573 1.427 . S
N581 C579 1.384 . S
H582 C588 0.930 . S
H583 C592 0.930 . S
H584 C597 0.929 . S
H585 C595 0.929 . S
H586 C590 0.929 . S
H587 C596 0.929 . S
C588 H582 0.930 . S
C588 C589 1.367 1_565 S
C588 C596 1.378 . S
C589 C588 1.367 1_545 S
C589 C597 1.433 . S
C590 H586 0.929 . S
C590 C592 1.378 . S
C590 C594 1.350 . S
C591 C594 1.463 . S
C591 C596 1.350 1_545 S
C591 N599 1.427 . S
C592 H583 0.930 . S
C592 C590 1.378 . S
C592 C593 1.400 . S
C593 C592 1.400 . S
C593 C595 1.403 1_545 S
C594 C590 1.350 . S
C594 C591 1.463 . S
C594 N598 1.427 1_545 S
C595 H585 0.929 . S
C595 C593 1.403 1_565 S
C595 N598 1.384 . S
C596 H587 0.929 . S
C596 C588 1.378 . S
C596 C591 1.350 1_565 S
C597 H584 0.929 . S
C597 C589 1.433 . S
C597 N599 1.384 . S
N598 C594 1.427 1_565 S
N598 C595 1.384 . S
N599 C591 1.427 . S
N599 C597 1.384 . S
H600 C606 0.930 . S
H601 C610 0.930 . S
H602 C615 0.929 . S
H603 C613 0.929 1_554 S
H604 C608 0.929 . S
H605 C614 0.929 . S
C606 H600 0.930 . S
C606 C607 1.367 . S
C606 C614 1.378 . S
C607 C606 1.367 . S
C607 C615 1.433 . S
C608 H604 0.929 . S
C608 C610 1.378 . S
C608 C612 1.350 . S
C609 C612 1.463 . S
C609 C614 1.350 . S
C609 N617 1.427 . S
C610 H601 0.930 . S
C610 C608 1.378 . S
C610 C611 1.367 1_556 S
C611 C610 1.367 1_554 S
C611 C613 1.433 1_554 S
C612 C608 1.350 . S
C612 C609 1.463 . S
C612 N616 1.427 . S
C613 H603 0.929 1_556 S
C613 C611 1.433 1_556 S
C613 N616 1.384 . S
C614 H605 0.929 . S
C614 C606 1.378 . S
C614 C609 1.350 . S
C615 H602 0.929 . S
C615 C607 1.433 . S
C615 N617 1.384 . S
N616 C612 1.427 . S
N616 C613 1.384 . S
N617 C609 1.427 . S
N617 C615 1.384 . S
H618 C624 0.930 . S
H619 C628 0.930 . S
H620 C633 0.929 . S
H621 C631 0.929 . S
H622 C626 0.929 . S
H623 C632 0.929 . S
C624 H618 0.930 . S
C624 C625 1.367 . S
C624 C632 1.378 . S
C625 C624 1.367 . S
C625 C633 1.433 1_455 S
C626 H622 0.929 . S
C626 C628 1.378 . S
C626 C630 1.350 1_655 S
C627 C630 1.463 . S
C627 C632 1.350 . S
C627 N635 1.427 1_455 S
C628 H619 0.930 . S
C628 C626 1.378 . S
C628 C629 1.367 1_655 S
C629 C628 1.367 1_455 S
C629 C631 1.433 . S
C630 C626 1.350 1_455 S
C630 C627 1.463 . S
C630 N634 1.427 . S
C631 H621 0.929 . S
C631 C629 1.433 . S
C631 N634 1.384 . S
C632 H623 0.929 . S
C632 C624 1.378 . S
C632 C627 1.350 . S
C633 H620 0.929 . S
C633 C625 1.433 1_655 S
C633 N635 1.384 . S
N634 C630 1.427 . S
N634 C631 1.384 . S
N635 C627 1.427 1_655 S
N635 C633 1.384 . S
C319 C6 0.586 . S
C323 C303 0.536 . S
C337 C59 1.902 . S
C341 C239 1.851 . S
C355 C86 1.249 . S
C359 C271 1.221 . S
C373 C15 0.472 . S
C377 C297 0.415 . S
C395 C233 1.901 . S
C391 C50 1.957 . S
C413 C265 1.277 . S
C409 C95 1.287 . S
C427 C46 1.223 . S
C431 C175 1.233 . S
C445 C99 3.054 . S
C449 C207 2.985 . S
C463 C10 1.983 . S
C467 C137 1.945 . S
C485 C169 1.282 . S
C481 C55 1.268 . S
C503 C201 2.970 . S
C499 C90 2.994 . S
C517 C19 1.898 . S
C521 C143 1.863 . S
C539 C213 1.737 . S
C535 C18 1.708 . S
C553 C49 1.342 . S
C557 C149 1.347 . S
C571 C98 1.462 . S
C575 C181 1.486 . S
C593 C277 1.449 . S
C589 C58 1.451 . S
C611 C309 1.083 . S
C607 C89 1.071 . S
C625 C9 1.335 . S
C629 C245 1.335 . S
