# Generated by pormake.
# Topology zzz, (3,6)-cn, num edge types: 1
# Building blocks:
#     Node 0, Type 0, BuildingBlock: VETTIZ_charged_linker_0, # of connection points: 3
#     Node 1, Type 0, BuildingBlock: VETTIZ_charged_linker_0, # of connection points: 3
#     Node 2, Type 0, BuildingBlock: VETTIZ_charged_linker_0, # of connection points: 3
#     Node 3, Type 0, BuildingBlock: VETTIZ_charged_linker_0, # of connection points: 3
#     Node 4, Type 0, BuildingBlock: VETTIZ_charged_linker_0, # of connection points: 3
#     Node 5, Type 0, BuildingBlock: VETTIZ_charged_linker_0, # of connection points: 3
#     Node 6, Type 0, BuildingBlock: VETTIZ_charged_linker_0, # of connection points: 3
#     Node 7, Type 0, BuildingBlock: VETTIZ_charged_linker_0, # of connection points: 3
#     Node 8, Type 1, BuildingBlock: KUMJIN_clean_sbu_0, # of connection points: 6
#     Node 9, Type 1, BuildingBlock: KUMJIN_clean_sbu_0, # of connection points: 6
#     Node 10, Type 1, BuildingBlock: KUMJIN_clean_sbu_0, # of connection points: 6
#     Node 11, Type 1, BuildingBlock: KUMJIN_clean_sbu_0, # of connection points: 6
#     Edge 12, Type (0, 1), BuildingBlock: KIFKEQ_clean_linker_1, # of connection points: 2
#     Edge 13, Type (0, 1), BuildingBlock: KIFKEQ_clean_linker_1, # of connection points: 2
#     Edge 14, Type (0, 1), BuildingBlock: KIFKEQ_clean_linker_1, # of connection points: 2
#     Edge 15, Type (0, 1), BuildingBlock: KIFKEQ_clean_linker_1, # of connection points: 2
#     Edge 16, Type (0, 1), BuildingBlock: KIFKEQ_clean_linker_1, # of connection points: 2
#     Edge 17, Type (0, 1), BuildingBlock: KIFKEQ_clean_linker_1, # of connection points: 2
#     Edge 18, Type (0, 1), BuildingBlock: KIFKEQ_clean_linker_1, # of connection points: 2
#     Edge 19, Type (0, 1), BuildingBlock: KIFKEQ_clean_linker_1, # of connection points: 2
#     Edge 20, Type (0, 1), BuildingBlock: KIFKEQ_clean_linker_1, # of connection points: 2
#     Edge 21, Type (0, 1), BuildingBlock: KIFKEQ_clean_linker_1, # of connection points: 2
#     Edge 22, Type (0, 1), BuildingBlock: KIFKEQ_clean_linker_1, # of connection points: 2
#     Edge 23, Type (0, 1), BuildingBlock: KIFKEQ_clean_linker_1, # of connection points: 2
#     Edge 24, Type (0, 1), BuildingBlock: KIFKEQ_clean_linker_1, # of connection points: 2
#     Edge 25, Type (0, 1), BuildingBlock: KIFKEQ_clean_linker_1, # of connection points: 2
#     Edge 26, Type (0, 1), BuildingBlock: KIFKEQ_clean_linker_1, # of connection points: 2
#     Edge 27, Type (0, 1), BuildingBlock: KIFKEQ_clean_linker_1, # of connection points: 2
#     Edge 28, Type (0, 1), BuildingBlock: KIFKEQ_clean_linker_1, # of connection points: 2
#     Edge 29, Type (0, 1), BuildingBlock: KIFKEQ_clean_linker_1, # of connection points: 2
#     Edge 30, Type (0, 1), BuildingBlock: KIFKEQ_clean_linker_1, # of connection points: 2
#     Edge 31, Type (0, 1), BuildingBlock: KIFKEQ_clean_linker_1, # of connection points: 2
#     Edge 32, Type (0, 1), BuildingBlock: KIFKEQ_clean_linker_1, # of connection points: 2
#     Edge 33, Type (0, 1), BuildingBlock: KIFKEQ_clean_linker_1, # of connection points: 2
#     Edge 34, Type (0, 1), BuildingBlock: KIFKEQ_clean_linker_1, # of connection points: 2
#     Edge 35, Type (0, 1), BuildingBlock: KIFKEQ_clean_linker_1, # of connection points: 2
# Relax obj value: 0.302
# Max RMSD: 0.229
# Mean RMSD: 0.215
data_MOF--net-zzz--node1-KUMJIN_clean_sbu_0--node2-VETTIZ_charged_linker_0--edge1-KIFKEQ_clean_linker_1
_symmetry_space_group_name_H-M    P1
_symmetry_Int_Tables_number       1
_symmetry_cell_setting            triclinic
loop_
_symmetry_equiv_pos_as_xyz
'x, y, z'
_cell_length_a     56.926565
_cell_length_b     56.85796
_cell_length_c     19.75368
_cell_angle_alpha  91.347895
_cell_angle_beta   90.298004
_cell_angle_gamma 89.932905
loop_
_atom_site_label
_atom_site_type_symbol
_atom_site_fract_x
_atom_site_fract_y
_atom_site_fract_z
_atom_type_partial_charge
C0 C 0.80631 0.54807 0.28718 0.0
C1 C 0.82791 0.55701 0.31348 0.0
C2 C 0.8374 0.57733 0.28541 0.0
C3 C 0.8061 0.57838 0.20214 0.0
C4 C 0.7954 0.55947 0.23181 0.0
C5 C 0.77188 0.55407 0.19725 0.0
H6 H 0.69695 0.58061 0.93304 0.0
C7 C 0.79209 0.58544 0.14291 0.0
C8 C 0.77141 0.57186 0.13981 0.0
H9 H 0.68391 0.52918 0.08583 0.0
H10 H 0.72143 0.53904 0.14 0.0
H11 H 0.71972 0.62157 0.02716 0.0
H12 H 0.7455 0.56417 0.90474 0.0
H13 H 0.76858 0.58448 0.90471 0.0
H14 H 0.74039 0.59243 0.86955 0.0
H15 H 0.71812 0.61972 0.93635 0.0
H16 H 0.74336 0.63216 0.97921 0.0
C17 C 0.75214 0.55884 0.24888 0.0
C18 C 0.77215 0.5285 0.16975 0.0
C19 C 0.83271 0.63368 0.96684 0.0
C20 C 0.8271 0.63772 0.89866 0.0
C21 C 0.8035 0.63544 0.87761 0.0
C22 C 0.78652 0.62652 0.92143 0.0
C23 C 0.79333 0.61931 0.9864 0.0
C24 C 0.81584 0.62397 1.0091 0.0
C25 C 0.82056 0.61404 0.0777 0.0
C26 C 0.79768 0.60106 0.09029 0.0
C27 C 0.78183 0.60432 0.037 0.0
C28 C 0.82426 0.63498 0.12858 0.0
C29 C 0.84184 0.597 0.07126 0.0
C30 C 0.70194 0.57121 0.97793 0.0
C31 C 0.6872 0.55392 1.00425 0.0
C32 C 0.69468 0.54272 0.0641 0.0
C33 C 0.71652 0.54841 0.09555 0.0
C34 C 0.73115 0.56556 0.06719 0.0
C35 C 0.7235 0.57647 1.00908 0.0
C36 C 0.74122 0.59309 0.98185 0.0
C37 C 0.76036 0.59171 0.03496 0.0
C38 C 0.75485 0.57545 0.08555 0.0
C39 C 0.73012 0.61799 0.98048 0.0
C40 C 0.74934 0.58328 0.91153 0.0
H41 H 0.83522 0.60315 0.21132 0.0
H42 H 0.79825 0.5328 0.30905 0.0
H43 H 0.78817 0.52519 0.13893 0.0
H44 H 0.7569 0.52455 0.13671 0.0
H45 H 0.77214 0.51592 0.21195 0.0
H46 H 0.75468 0.57627 0.27461 0.0
H47 H 0.7521 0.54521 0.28828 0.0
H48 H 0.73463 0.5593 0.2249 0.0
H49 H 0.85066 0.63515 0.98486 0.0
H50 H 0.79859 0.6388 0.82566 0.0
H51 H 0.7691 0.62422 0.90148 0.0
H52 H 0.81754 0.65186 0.10856 0.0
H53 H 0.84317 0.63761 0.14065 0.0
H54 H 0.81446 0.63259 0.17633 0.0
H55 H 0.84042 0.58602 0.02403 0.0
H56 H 0.84322 0.58437 0.11241 0.0
H57 H 0.85864 0.60687 0.06946 0.0
H58 H 0.8537 0.58468 0.30509 0.0
C59 C 0.82664 0.58804 0.23067 0.0
C60 C 0.90459 0.80681 0.88787 0.0
C61 C 0.90266 0.83144 0.88217 0.0
C62 C 0.9056 0.84536 0.94203 0.0
C63 C 0.92022 0.81168 1.00175 0.0
C64 C 0.91434 0.79748 0.94684 0.0
C65 C 0.92325 0.77277 0.95446 0.0
H66 H 1.00039 0.69706 0.08817 0.0
C67 C 0.93506 0.79785 0.04806 0.0
C68 C 0.93703 0.77508 1.02079 0.0
H69 H 0.94775 0.68597 0.93155 0.0
H70 H 0.93237 0.72415 0.95313 0.0
H71 H 1.01222 0.75679 0.06367 0.0
H72 H 0.95932 0.72802 0.19686 0.0
H73 H 0.97924 0.74841 0.23568 0.0
H74 H 0.98978 0.72017 0.20659 0.0
H75 H 0.02041 0.7363 0.12785 0.0
H76 H 1.01382 0.76635 0.15039 0.0
C77 C 0.93942 0.76695 0.89311 0.0
C78 C 0.90161 0.75635 0.96075 0.0
C79 C 0.97166 0.8421 0.24525 0.0
C80 C 0.98773 0.83721 0.29706 0.0
C81 C 0.998 0.81438 0.29647 0.0
C82 C 0.99176 0.797 0.24622 0.0
C83 C 0.97507 0.80237 0.19568 0.0
C84 C 0.96556 0.82483 0.19673 0.0
C85 C 0.94873 0.82873 0.14011 0.0
C86 C 0.94854 0.80475 0.10563 0.0
C87 C 0.96417 0.78887 0.13675 0.0
C88 C 0.95929 0.84796 0.09437 0.0
C89 C 0.92442 0.83491 0.17114 0.0
C90 C 0.98571 0.70319 0.05834 0.0
C91 C 0.97548 0.68828 1.00703 0.0
C92 C 0.95599 0.69672 0.97101 0.0
C93 C 0.94704 0.71915 0.98341 0.0
C94 C 0.9577 0.73412 0.03176 0.0
C95 C 0.97611 0.72611 0.07076 0.0
C96 C 0.98282 0.74472 0.12484 0.0
C97 C 0.96632 0.76531 0.10813 0.0
C98 C 0.95215 0.75862 0.05202 0.0
C99 C 1.0088 0.75144 0.1165 0.0
C100 C 0.9776 0.73485 0.19508 0.0
H101 H 0.91714 0.84746 0.04359 0.0
H102 H 0.90101 0.79508 0.84524 0.0
H103 H 0.88539 0.76624 0.97471 0.0
H104 H 0.90391 0.74348 1.00165 0.0
H105 H 0.89788 0.7467 0.91235 0.0
H106 H 0.95064 0.78233 0.88136 0.0
H107 H 0.9289 0.76245 0.84712 0.0
H108 H 0.95188 0.7525 0.90169 0.0
H109 H 0.96399 0.85946 0.24122 0.0
H110 H 1.01063 0.80985 0.33521 0.0
H111 H 1.00008 0.78006 0.24816 0.0
H112 H 0.97868 0.8495 0.10075 0.0
H113 H 0.95168 0.86555 0.10638 0.0
H114 H 0.95691 0.84393 0.03971 0.0
H115 H 0.92129 0.82478 0.21778 0.0
H116 H 0.90957 0.83021 0.13719 0.0
H117 H 0.92325 0.8539 0.18517 0.0
H118 H 0.90375 0.86426 0.94226 0.0
C119 C 0.91406 0.83556 1.00163 0.0
C120 C 0.82451 0.98433 0.06206 0.0
C121 C 0.84009 0.9722 1.01706 0.0
C122 C 0.83513 0.94866 0.99844 0.0
C123 C 0.79787 0.95121 0.05513 0.0
C124 C 0.80357 0.97293 0.08242 0.0
C125 C 0.78577 0.98 0.13713 0.0
H126 H 0.67936 0.95172 0.28311 0.0
C127 C 0.77533 0.94376 0.08129 0.0
C128 C 0.76826 0.95932 0.13345 0.0
H129 H 0.7232 1.01093 0.34095 0.0
H130 H 0.75214 0.9984 0.25674 0.0
H131 H 0.67518 0.94969 0.16052 0.0
H132 H 0.72261 0.91335 0.2723 0.0
H133 H 0.71464 0.89552 0.20141 0.0
H134 H 0.692 0.90912 0.25248 0.0
H135 H 0.67734 0.91974 0.13732 0.0
H136 H 0.69214 0.94175 0.08855 0.0
C137 C 0.77412 1.00338 0.11799 0.0
C138 C 0.79861 0.98146 0.20592 0.0
C139 C 0.71858 0.90304 0.92213 0.0
C140 C 0.69605 0.89352 0.93301 0.0
C141 C 0.69024 0.88675 0.99929 0.0
C142 C 0.70446 0.89351 0.05446 0.0
C143 C 0.72448 0.90706 0.04291 0.0
C144 C 0.7327 0.90927 0.97804 0.0
C145 C 0.75652 0.92072 0.97732 0.0
C146 C 0.75963 0.92707 0.05283 0.0
C147 C 0.73954 0.92112 0.08898 0.0
C148 C 0.75579 0.94294 0.93382 0.0
C149 C 0.7744 0.90256 0.94928 0.0
C150 C 0.69529 0.96197 0.2795 0.0
C151 C 0.6987 0.98228 0.32027 0.0
C152 C 0.7197 0.99522 0.31057 0.0
C153 C 0.73665 0.98787 0.26191 0.0
C154 C 0.73272 0.96736 0.22202 0.0
C155 C 0.71211 0.95498 0.23149 0.0
C156 C 0.71002 0.93371 0.18569 0.0
C157 C 0.73281 0.93515 0.14629 0.0
C158 C 0.74644 0.95485 0.16745 0.0
C159 C 0.68767 0.93624 0.1405 0.0
C160 C 0.70965 0.91166 0.23008 0.0
H161 H 0.81209 0.91943 1.00959 0.0
H162 H 0.82869 1.00184 0.08118 0.0
H163 H 0.80932 0.96536 0.21353 0.0
H164 H 0.78635 0.98279 0.24884 0.0
H165 H 0.81058 0.99689 0.20836 0.0
H166 H 0.7667 1.00204 0.06586 0.0
H167 H 0.78717 0.01791 0.1196 0.0
H168 H 0.75958 1.0082 0.15235 0.0
H169 H 0.72432 0.9076 0.87205 0.0
H170 H 0.67384 0.87786 1.00914 0.0
H171 H 0.69908 0.88882 0.10431 0.0
H172 H 0.74208 0.95539 0.95252 0.0
H173 H 0.75197 0.93833 0.87995 0.0
H174 H 0.77294 0.95219 0.93533 0.0
H175 H 0.76646 0.89113 0.90886 0.0
H176 H 0.78086 0.89094 0.98986 0.0
H177 H 0.78938 0.91124 0.92449 0.0
H178 H 0.84741 0.9385 0.96783 0.0
C179 C 0.81438 0.93797 1.01889 0.0
C180 C 0.55054 0.72724 0.2978 0.0
C181 C 0.55867 0.70535 0.3218 0.0
C182 C 0.57836 0.69479 0.29126 0.0
C183 C 0.58043 0.72592 0.21012 0.0
C184 C 0.56211 0.73748 0.24221 0.0
C185 C 0.55725 0.76101 0.20957 0.0
H186 H 0.5857 0.83637 0.9541 0.0
C187 C 0.58777 0.73961 0.15138 0.0
C188 C 0.57487 0.76074 0.15102 0.0
H189 H 0.534 0.84894 0.10961 0.0
H190 H 0.54277 0.8107 0.15769 0.0
H191 H 0.62662 0.81031 0.04331 0.0
H192 H 0.56821 0.78858 0.91958 0.0
H193 H 0.58734 0.76445 0.91572 0.0
H194 H 0.59672 0.79242 0.88383 0.0
H195 H 0.6243 0.81384 0.95336 0.0
H196 H 0.63593 0.78725 0.98817 0.0
C197 C 0.56265 0.78078 0.26214 0.0
C198 C 0.53163 0.76121 0.18382 0.0
C199 C 0.63468 0.69763 0.96912 0.0
C200 C 0.63874 0.70309 0.90111 0.0
C201 C 0.63698 0.72677 0.88199 0.0
C202 C 0.6286 0.74406 0.92777 0.0
C203 C 0.62142 0.73749 0.99277 0.0
C204 C 0.62549 0.71482 1.01333 0.0
C205 C 0.61544 0.71033 0.08202 0.0
C206 C 0.60315 0.7336 0.09731 0.0
C207 C 0.60686 0.74945 0.0453 0.0
C208 C 0.6362 0.70596 0.1315 0.0
C209 C 0.5978 0.68957 0.07466 0.0
C210 C 0.57664 0.8312 0.99953 0.0
C211 C 0.55962 0.84595 0.02902 0.0
C212 C 0.54744 0.83799 0.08635 0.0
C213 C 0.5526 0.81585 0.11428 0.0
C214 C 0.56982 0.80129 0.08385 0.0
C215 C 0.5812 0.80914 0.02679 0.0
C216 C 0.59713 0.79093 0.9959 0.0
C217 C 0.59502 0.77141 0.0463 0.0
C218 C 0.57893 0.77723 0.09831 0.0
C219 C 0.62238 0.80103 0.99456 0.0
C220 C 0.58706 0.78372 0.92504 0.0
H221 H 0.60385 0.6956 0.21474 0.0
H222 H 0.53571 0.736 0.32146 0.0
H223 H 0.52764 0.74466 0.15487 0.0
H224 H 0.52814 0.77574 0.14918 0.0
H225 H 0.51917 0.76267 0.22682 0.0
H226 H 0.5798 0.77753 0.28751 0.0
H227 H 0.54888 0.78164 0.30177 0.0
H228 H 0.5641 0.79818 0.23915 0.0
H229 H 0.6357 0.67964 0.98566 0.0
H230 H 0.64034 0.73155 0.83017 0.0
H231 H 0.62672 0.76156 0.90944 0.0
H232 H 0.65316 0.71258 0.11168 0.0
H233 H 0.63855 0.6869 0.1408 0.0
H234 H 0.63389 0.71548 0.18067 0.0
H235 H 0.587 0.69127 0.02791 0.0
H236 H 0.58503 0.6887 0.11613 0.0
H237 H 0.60714 0.67243 0.07134 0.0
H238 H 0.58501 0.67817 0.30923 0.0
C239 C 0.58928 0.70494 0.2362 0.0
C240 C 0.33615 0.49111 0.22113 0.0
C241 C 0.34934 0.48073 0.27407 0.0
C242 C 0.33924 0.46202 0.30901 0.0
C243 C 0.30381 0.46415 0.24124 0.0
C244 C 0.3134 0.4822 0.20483 0.0
C245 C 0.29658 0.48963 0.14876 0.0
H246 H 0.18741 0.47253 0.99941 0.0
C247 C 0.28023 0.45858 0.21413 0.0
C248 C 0.2757 0.47296 0.15824 0.0
H249 H 0.23815 0.52429 0.94116 0.0
H250 H 0.26583 0.50987 0.02669 0.0
H251 H 0.22442 0.42928 1.01888 0.0
H252 H 0.18948 0.48114 0.14007 0.0
H253 H 0.19527 0.45944 0.19905 0.0
H254 H 0.1769 0.45263 0.1265 0.0
H255 H 0.19383 0.42892 0.04026 0.0
H256 H 0.21565 0.41489 0.09239 0.0
C257 C 0.30856 0.48541 0.07979 0.0
C258 C 0.28962 0.51554 0.16173 0.0
C259 C 0.22519 0.40949 0.35398 0.0
C260 C 0.2007 0.40578 0.34766 0.0
C261 C 0.19077 0.40721 0.28191 0.0
C262 C 0.20359 0.41623 0.22833 0.0
C263 C 0.22653 0.42427 0.24001 0.0
C264 C 0.23754 0.4194 0.30029 0.0
C265 C 0.26217 0.42906 0.30297 0.0
C266 C 0.26294 0.4427 0.23731 0.0
C267 C 0.24196 0.43986 0.20121 0.0
C268 C 0.27948 0.40791 0.30207 0.0
C269 C 0.26432 0.44555 0.36644 0.0
C270 C 0.2046 0.48062 1.00425 0.0
C271 C 0.21059 0.49942 0.96359 0.0
C272 C 0.23312 0.50963 0.97194 0.0
C273 C 0.24907 0.50133 1.02175 0.0
C274 C 0.24236 0.48269 0.06359 0.0
C275 C 0.22038 0.47273 0.05324 0.0
C276 C 0.21494 0.454 0.10232 0.0
C277 C 0.2372 0.45388 0.14435 0.0
C278 C 0.25368 0.47059 0.12233 0.0
C279 C 0.21184 0.43049 0.06177 0.0
C280 C 0.19302 0.46197 0.14404 0.0
H281 H 0.31048 0.43953 0.32207 0.0
H282 H 0.3435 0.50536 0.19271 0.0
H283 H 0.28374 0.51829 0.21494 0.0
H284 H 0.27496 0.52104 0.12901 0.0
H285 H 0.3048 0.52736 0.15311 0.0
H286 H 0.31589 0.46729 0.07623 0.0
H287 H 0.3232 0.49803 0.07306 0.0
H288 H 0.29617 0.48714 0.03706 0.0
H289 H 0.2343 0.40691 0.40132 0.0
H290 H 0.17243 0.40372 0.272 0.0
H291 H 0.19444 0.41826 0.18133 0.0
H292 H 0.27087 0.39123 0.28497 0.0
H293 H 0.28695 0.40489 0.3532 0.0
H294 H 0.29406 0.41036 0.26586 0.0
H295 H 0.24853 0.45702 0.37127 0.0
H296 H 0.27938 0.45766 0.36486 0.0
H297 H 0.26584 0.43525 0.41334 0.0
H298 H 0.34866 0.45384 0.35008 0.0
C299 C 0.31688 0.45369 0.29277 0.0
C300 C 0.13259 0.23063 0.38313 0.0
C301 C 0.13495 0.20596 0.38685 0.0
C302 C 0.1319 0.19259 0.32598 0.0
C303 C 0.11609 0.22657 0.27007 0.0
C304 C 0.12217 0.24034 0.32565 0.0
C305 C 0.11266 0.26493 0.32077 0.0
H306 H 0.03472 0.34156 0.19406 0.0
C307 C 0.10061 0.24058 0.22596 0.0
C308 C 0.0984 0.26301 0.25526 0.0
H309 H 0.08676 0.35085 0.35333 0.0
H310 H 0.10206 0.31293 0.3292 0.0
H311 H 0.07512 0.31102 0.08293 0.0
H312 H 0.02283 0.28143 0.21657 0.0
H313 H 0.02088 0.27241 0.12949 0.0
H314 H 0.01432 0.30232 0.1538 0.0
H315 H 0.04465 0.31911 0.0751 0.0
H316 H 0.05483 0.29099 0.04396 0.0
C317 C 0.13389 0.28187 0.31437 0.0
C318 C 0.09685 0.26974 0.38359 0.0
C319 C 0.06326 0.19747 0.02812 0.0
C320 C 0.04668 0.20248 0.9778 0.0
C321 C 0.0361 0.22517 0.9804 0.0
C322 C 0.04254 0.2423 0.03119 0.0
C323 C 0.0597 0.23679 0.0803 0.0
C324 C 0.0695 0.21448 0.07723 0.0
C325 C 0.08682 0.21036 0.13244 0.0
C326 C 0.08687 0.23403 0.16863 0.0
C327 C 0.07082 0.24997 0.13953 0.0
C328 C 0.11098 0.20487 0.09945 0.0
C329 C 0.07694 0.19054 0.17735 0.0
C330 C 0.0493 0.33513 0.22377 0.0
C331 C 0.05947 0.34959 0.27628 0.0
C332 C 0.07867 0.34061 0.31253 0.0
C333 C 0.08758 0.31827 0.29863 0.0
C334 C 0.07717 0.30385 0.24851 0.0
C335 C 0.05881 0.31223 0.20998 0.0
C336 C 0.05194 0.29395 0.15505 0.0
C337 C 0.06854 0.27326 0.17002 0.0
C338 C 0.08283 0.27956 0.22623 0.0
C339 C 0.05681 0.30428 0.08518 0.0
C340 C 0.02601 0.28712 0.16394 0.0
H341 H 0.11959 0.19126 0.2251 0.0
H342 H 0.1363 0.24209 0.42623 0.0
H343 H 0.0867 0.25373 0.39631 0.0
H344 H 0.08337 0.28334 0.37598 0.0
H345 H 0.10756 0.27487 0.42871 0.0
H346 H 0.14995 0.27254 0.29625 0.0
H347 H 0.13835 0.2905 0.3638 0.0
H348 H 0.13071 0.29557 0.27634 0.0
H349 H 0.07121 0.18019 0.03056 0.0
H350 H 0.02308 0.22977 0.94283 0.0
H351 H 0.03401 0.25917 0.03075 0.0
H352 H 0.11352 0.21537 0.0532 0.0
H353 H 0.11242 0.18599 0.0843 0.0
H354 H 0.12602 0.20966 0.13264 0.0
H355 H 0.05752 0.18884 0.1724 0.0
H356 H 0.07981 0.19403 0.23208 0.0
H357 H 0.08463 0.17315 0.16326 0.0
H358 H 0.13422 0.17375 0.32386 0.0
C359 C 0.12276 0.20281 0.26779 0.0
C360 C 0.31784 0.04945 0.97539 0.0
C361 C 0.33702 0.06104 0.94421 0.0
C362 C 0.34069 0.08509 0.95945 0.0
C363 C 0.31077 0.08432 0.04507 0.0
C364 C 0.30426 0.06199 0.02457 0.0
C365 C 0.28122 0.05531 0.05876 0.0
H366 H 0.19965 0.0885 0.30281 0.0
C367 C 0.29577 0.09241 0.10052 0.0
C368 C 0.27709 0.07651 0.10735 0.0
H369 H 0.1946 0.02731 0.17038 0.0
H370 H 0.23204 0.03765 0.11803 0.0
H371 H 0.24463 0.08095 0.34754 0.0
H372 H 0.22046 0.12653 0.19711 0.0
H373 H 0.24191 0.14167 0.24644 0.0
H374 H 0.21684 0.12905 0.28735 0.0
H375 H 0.24452 0.11173 0.36494 0.0
H376 H 0.27054 0.09685 0.33391 0.0
C377 C 0.28475 0.03233 0.0972 0.0
C378 C 0.26195 0.05334 1.00388 0.0
C379 C 0.33483 0.13839 0.28959 0.0
C380 C 0.32679 0.14467 0.35485 0.0
C381 C 0.30238 0.14707 0.36503 0.0
C382 C 0.28644 0.13969 0.31456 0.0
C383 C 0.29502 0.12946 0.25421 0.0
C384 C 0.31868 0.13067 0.24018 0.0
C385 C 0.32444 0.12024 0.17152 0.0
C386 C 0.30054 0.10978 0.15119 0.0
C387 C 0.28377 0.1145 0.20123 0.0
C388 C 0.34348 0.10098 0.17877 0.0
C389 C 0.33258 0.14045 0.12585 0.0
C390 C 0.20611 0.07758 0.26124 0.0
C391 C 0.19366 0.05748 0.2397 0.0
C392 C 0.2036 0.04313 0.1876 0.0
C393 C 0.2252 0.04923 0.15685 0.0
C394 C 0.23721 0.06973 0.17892 0.0
C395 C 0.2276 0.08313 0.23136 0.0
C396 C 0.24328 0.10283 0.25472 0.0
C397 C 0.26316 0.1005 0.20425 0.0
C398 C 0.25985 0.08108 0.15909 0.0
C399 C 0.25117 0.09804 0.32887 0.0
C400 C 0.22996 0.12635 0.24646 0.0
H401 H 0.3295 0.1154 1.01568 0.0
H402 H 0.31353 0.03144 0.96142 0.0
H403 H 0.26203 0.06915 0.97176 0.0
H404 H 0.24421 0.05219 0.02556 0.0
H405 H 0.26491 0.03762 0.97052 0.0
H406 H 0.30009 0.03392 0.13207 0.0
H407 H 0.288 0.01736 0.0613 0.0
H408 H 0.26931 0.02805 0.12817 0.0
H409 H 0.35343 0.137 0.27933 0.0
H410 H 0.29565 0.15279 0.41389 0.0
H411 H 0.26808 0.14099 0.32567 0.0
H412 H 0.33766 0.08734 0.21443 0.0
H413 H 0.36028 0.1086 0.19775 0.0
H414 H 0.34749 0.09216 0.12971 0.0
H415 H 0.33878 0.15607 0.15581 0.0
H416 H 0.31808 0.14652 0.09263 0.0
H417 H 0.34786 0.13515 0.09434 0.0
H418 H 0.35432 0.09477 0.93409 0.0
C419 C 0.32728 0.09683 1.00854 0.0
C420 C 0.48593 0.31309 0.97642 0.0
C421 C 0.47783 0.33499 0.95238 0.0
C422 C 0.45816 0.34558 0.98297 0.0
C423 C 0.45596 0.31437 0.06389 0.0
C424 C 0.47434 0.30284 0.03196 0.0
C425 C 0.47921 0.27932 0.06473 0.0
H426 H 0.45009 0.20383 0.31941 0.0
C427 C 0.44844 0.30057 0.12227 0.0
C428 C 0.4614 0.27947 0.12279 0.0
H429 H 0.50278 0.19151 0.16656 0.0
H430 H 0.49393 0.22963 0.11759 0.0
H431 H 0.46685 0.2516 0.35456 0.0
H432 H 0.40961 0.22903 0.22773 0.0
H433 H 0.39955 0.25225 0.28105 0.0
H434 H 0.41113 0.22597 0.31796 0.0
H435 H 0.43815 0.24745 0.38869 0.0
H436 H 0.44747 0.27553 0.35744 0.0
C437 C 0.50474 0.27929 0.0912 0.0
C438 C 0.47413 0.25951 1.01207 0.0
C439 C 0.40061 0.34191 0.30376 0.0
C440 C 0.39617 0.33613 0.37137 0.0
C441 C 0.39759 0.31234 0.38948 0.0
C442 C 0.40616 0.29525 0.34342 0.0
C443 C 0.41383 0.30213 0.27918 0.0
C444 C 0.40995 0.3249 0.25927 0.0
C445 C 0.42036 0.32962 0.19113 0.0
C446 C 0.43274 0.3064 0.17572 0.0
C447 C 0.42874 0.29039 0.2271 0.0
C448 C 0.43796 0.35037 0.19974 0.0
C449 C 0.39984 0.33415 0.14092 0.0
C450 C 0.45937 0.209 0.27437 0.0
C451 C 0.47669 0.19436 0.24592 0.0
C452 C 0.48913 0.20237 0.18908 0.0
C453 C 0.48392 0.22444 0.16064 0.0
C454 C 0.4664 0.23888 0.19008 0.0
C455 C 0.45476 0.23096 0.24663 0.0
C456 C 0.43846 0.24898 0.27661 0.0
C457 C 0.44073 0.26851 0.22639 0.0
C458 C 0.45716 0.26287 0.17515 0.0
C459 C 0.448 0.25627 0.34806 0.0
C460 C 0.41331 0.2386 0.2764 0.0
H461 H 0.43262 0.34476 0.05936 0.0
H462 H 0.50077 0.30432 0.95279 0.0
H463 H 0.45694 0.26252 0.98666 0.0
H464 H 0.47298 0.24207 0.03502 0.0
H465 H 0.48794 0.25887 0.9725 0.0
H466 H 0.50852 0.29583 0.12042 0.0
H467 H 0.51736 0.27797 0.04854 0.0
H468 H 0.50822 0.26473 0.12577 0.0
H469 H 0.39981 0.35999 0.28792 0.0
H470 H 0.3939 0.3073 0.44089 0.0
H471 H 0.40784 0.27764 0.36114 0.0
H472 H 0.44856 0.34851 0.24681 0.0
H473 H 0.42859 0.3675 0.20323 0.0
H474 H 0.45089 0.35138 0.15873 0.0
H475 H 0.38278 0.32749 0.15989 0.0
H476 H 0.40239 0.32476 0.09165 0.0
H477 H 0.39756 0.35323 0.13196 0.0
H478 H 0.45153 0.3622 0.96501 0.0
C479 C 0.44719 0.33541 0.03794 0.0
Eu480 Eu 0.03903 1.01003 0.70242 0.0
C481 C 0.95228 1.00045 0.50927 0.0
C482 C 0.96664 0.97595 0.41664 0.0
C483 C 0.9255 0.97421 0.44778 0.0
C484 C 0.97069 0.99281 0.46917 0.0
C485 C 0.92933 0.99177 0.4977 0.0
C486 C 0.94414 0.96626 0.40745 0.0
C487 C 0.91523 0.01989 0.5815 0.0
N488 N 0.9565 0.01737 0.55711 0.0
C489 C 0.93827 0.02776 0.59155 0.0
C490 C 0.91079 1.00151 0.53524 0.0
Eu491 Eu 0.99612 0.029 0.57558 0.0
N492 N 0.99226 1.00258 0.47938 0.0
C493 C 1.00997 0.99744 0.43453 0.0
C494 C 0.98515 0.96969 0.37377 0.0
C495 C 1.00677 0.9808 0.38207 0.0
H496 H 0.94169 0.04171 0.62842 0.0
H497 H 0.02112 0.97643 0.34828 0.0
H498 H 0.94085 0.95308 0.36802 0.0
H499 H 0.90098 0.02784 0.61001 0.0
H500 H 0.02704 1.00532 0.43884 0.0
H501 H 0.01455 0.06418 0.92721 0.0
H502 H 0.98278 0.95674 0.33318 0.0
H503 H 0.09394 0.99529 0.65837 0.0
H504 H 1.00895 0.03404 0.83972 0.0
H505 H 0.13434 1.01077 0.67086 0.0
H506 H 0.90807 0.96711 0.43881 0.0
H507 H 0.05215 0.08561 0.93685 0.0
H508 H 0.0936 0.09037 0.89799 0.0
H509 H 0.89294 0.99536 0.52769 0.0
H510 H 0.12636 0.07597 0.82757 0.0
N511 N 0.04306 0.03765 0.79608 0.0
C512 C 0.02567 0.04261 0.84203 0.0
C513 C 0.0499 0.07207 0.89782 0.0
C514 C 0.06822 0.06597 0.85409 0.0
C515 C 0.02871 0.05998 0.89262 0.0
C516 C 0.06431 0.04828 0.80378 0.0
H517 H 0.14185 0.04596 0.74386 0.0
N518 N 0.07863 0.02216 0.72046 0.0
C519 C 0.11996 0.01945 0.69696 0.0
C520 C 0.08265 0.04036 0.76425 0.0
C521 C 0.09708 1.01079 0.68985 0.0
C522 C 0.1241 0.03933 0.73801 0.0
C523 C 0.10545 0.04969 0.77369 0.0
O524 O 0.06123 0.98264 0.74553 0.0
O525 O 0.01516 0.99822 0.61739 0.0
O526 O 0.97595 1.00948 0.6569 0.0
O527 O 1.00204 1.01 0.74816 0.0
O528 O 0.04868 0.98435 0.6169 0.0
O529 O 0.02409 0.98196 0.7626 0.0
O530 O 0.97334 0.05723 0.54047 0.0
O531 O 0.02021 0.04105 0.66025 0.0
O532 O 0.06019 0.0247 0.61463 0.0
O533 O 0.03267 0.03033 0.52835 0.0
O534 O 0.98621 0.05378 0.66283 0.0
O535 O 1.00979 0.05701 0.51272 0.0
C536 C 0.02851 0.98361 0.58698 0.0
C537 C 0.04203 0.9461 0.72868 0.0
C538 C 0.01786 0.91422 0.6806 0.0
C539 C 0.02019 0.93474 0.72126 0.0
C540 C 0.03778 0.90498 0.64767 0.0
C541 C 0.06182 0.93614 0.69661 0.0
C542 C 0.05962 0.91579 0.6562 0.0
C543 C 0.98065 1.00699 0.72219 0.0
C544 C 0.04341 0.96974 0.7617 0.0
C545 C 0.10907 0.06833 0.82038 0.0
C546 C 0.09044 0.07649 0.86053 0.0
C547 C 1.00657 0.05523 0.69135 0.0
C548 C 0.99362 0.0933 0.55159 0.0
C549 C 0.01588 0.10397 0.55564 0.0
C550 C 0.01942 0.12467 0.59485 0.0
C551 C 1.00029 0.1347 0.62986 0.0
C552 C 0.97464 0.10408 0.58562 0.0
C553 C 0.97805 0.12455 0.6247 0.0
C554 C 0.0546 0.02971 0.55129 0.0
C555 C 0.99081 0.06968 0.51922 0.0
H556 H 1.00495 0.942 0.74692 0.0
H557 H 0.03649 0.88941 0.61522 0.0
H558 H 0.07887 0.94448 0.70088 0.0
H559 H 0.07486 0.90852 0.63068 0.0
H560 H 0.0305 0.09609 0.52843 0.0
H561 H 1.00253 0.15038 0.66145 0.0
H562 H 0.95729 0.09629 0.5838 0.0
H563 H 0.96344 0.13243 0.6518 0.0
Eu564 Eu 0.52585 0.0428 0.7048 0.0
C565 C 0.54434 0.95699 0.51168 0.0
C566 C 0.56877 0.9735 0.42526 0.0
C567 C 0.57439 0.93287 0.45681 0.0
C568 C 0.55087 0.97596 0.47426 0.0
C569 C 0.5554 0.93495 0.50162 0.0
C570 C 0.58106 0.95215 0.41858 0.0
C571 C 0.52585 0.91793 0.57251 0.0
N572 N 0.52568 0.95952 0.5533 0.0
C573 C 0.51542 0.94011 0.58008 0.0
C574 C 0.54628 0.91543 0.53431 0.0
Eu575 Eu 0.51035 0.99809 0.5723 0.0
N576 N 0.53856 0.9963 0.4822 0.0
C577 C 0.54194 1.01408 0.43755 0.0
C578 C 0.57322 0.99225 0.38279 0.0
C579 C 0.55935 1.01239 0.38795 0.0
H580 H 0.4995 0.94195 0.60938 0.0
H581 H 0.5622 0.0268 0.35408 0.0
H582 H 0.59515 0.95012 0.38223 0.0
H583 H 0.51808 0.90281 0.59598 0.0
H584 H 0.53171 0.02995 0.43947 0.0
H585 H 0.47125 1.01386 0.9168 0.0
H586 H 0.5868 0.99107 0.34462 0.0
H587 H 0.53765 0.09848 0.666 0.0
H588 H 0.50164 1.01009 0.83116 0.0
H589 H 0.52058 0.13822 0.68178 0.0
H590 H 0.58336 0.91621 0.44926 0.0
H591 H 0.44902 0.05095 0.93091 0.0
H592 H 0.44306 0.0928 0.89794 0.0
H593 H 0.55426 0.8982 0.52796 0.0
H594 H 0.45613 0.12667 0.83275 0.0
N595 N 0.49718 0.04484 0.79342 0.0
C596 C 0.49258 0.02662 0.83563 0.0
C597 C 0.46261 0.04953 0.89282 0.0
C598 C 0.46822 0.06857 0.85259 0.0
C599 C 0.47514 0.02861 0.88505 0.0
C600 C 0.48598 0.06574 0.80332 0.0
H601 H 0.48526 0.14389 0.75281 0.0
N602 N 0.51132 0.08165 0.72336 0.0
C603 C 0.51248 0.1233 0.70536 0.0
C604 C 0.49314 0.08469 0.76654 0.0
C605 C 0.52202 0.10078 0.69631 0.0
C606 C 0.49254 0.12641 0.74533 0.0
C607 C 0.48299 0.1071 0.77806 0.0
O608 O 0.55648 0.06436 0.73033 0.0
O609 O 0.53943 0.0176 0.62475 0.0
O610 O 0.52568 0.97766 0.65999 0.0
O611 O 0.52916 1.00585 0.74753 0.0
O612 O 0.55353 0.05117 0.62656 0.0
O613 O 0.54696 0.03572 0.79462 0.0
O614 O 0.48055 0.97577 0.54366 0.0
O615 O 0.49669 0.02296 0.65305 0.0
O616 O 0.50948 0.06325 0.61891 0.0
O617 O 0.50761 0.03526 0.53045 0.0
O618 O 0.48308 0.98916 0.65075 0.0
O619 O 0.48746 1.00706 0.4876 0.0
C620 C 0.55464 0.03062 0.59788 0.0
C621 C 0.58731 0.04273 0.77642 0.0
C622 C 0.61582 1.01164 0.75024 0.0
C623 C 0.59249 0.01992 0.75179 0.0
C624 C 0.63394 0.02727 0.77042 0.0
C625 C 0.60558 0.0579 0.79588 0.0
C626 C 0.62881 0.05023 0.79224 0.0
C627 C 0.52962 0.9838 0.7242 0.0
C628 C 0.56295 0.05116 0.7798 0.0
C629 C 0.46437 0.10969 0.82397 0.0
C630 C 0.45699 0.09043 0.86119 0.0
C631 C 0.48158 1.00966 0.67958 0.0
C632 C 0.44792 0.99904 0.51681 0.0
C633 C 0.44245 0.02317 0.52086 0.0
C634 C 0.42001 0.03084 0.54066 0.0
C635 C 0.40313 1.01404 0.55827 0.0
C636 C 0.43067 0.98257 0.53355 0.0
C637 C 0.40848 0.99008 0.55464 0.0
C638 C 0.50623 0.05722 0.55434 0.0
C639 C 0.47207 0.991 0.50202 0.0
H640 H 0.57826 1.00861 0.73481 0.0
H641 H 0.65208 0.02165 0.77208 0.0
H642 H 0.60186 0.07565 0.81391 0.0
H643 H 0.64289 0.06196 0.8079 0.0
H644 H 0.45568 0.03612 0.50961 0.0
H645 H 0.38557 0.01936 0.57295 0.0
H646 H 0.43453 0.9639 0.53165 0.0
H647 H 0.39532 0.97727 0.56786 0.0
Eu648 Eu 0.54468 0.51248 0.58555 0.0
C649 C 0.44223 0.49828 0.68722 0.0
C650 C 0.41649 0.51359 0.60084 0.0
C651 C 0.40353 0.48111 0.66913 0.0
C652 C 0.43826 0.51368 0.63537 0.0
C653 C 0.42469 0.48221 0.70591 0.0
C654 C 0.39942 0.49679 0.61669 0.0
C655 C 0.44931 0.47121 0.80007 0.0
N656 N 0.46276 0.49994 0.72201 0.0
C657 C 0.46612 0.48745 0.77966 0.0
C658 C 0.42865 0.46828 0.76236 0.0
Eu659 Eu 0.49111 0.52678 0.68222 0.0
N660 N 0.45517 0.52962 0.62121 0.0
C661 C 0.45058 0.54726 0.57725 0.0
C662 C 0.41227 0.5308 0.55282 0.0
C663 C 0.42923 0.54796 0.54191 0.0
H664 H 0.48222 0.48946 0.80843 0.0
H665 H 0.42597 0.56164 0.50585 0.0
H666 H 0.38275 0.49623 0.59001 0.0
H667 H 0.45235 0.46086 0.84457 0.0
H668 H 0.46344 0.56062 0.56787 0.0
H669 H 0.60992 0.47791 0.76198 0.0
H670 H 0.39581 0.5313 0.52509 0.0
H671 H 0.55283 0.55015 0.45989 0.0
H672 H 0.57192 0.47968 0.70318 0.0
H673 H 0.58289 0.5781 0.42128 0.0
H674 H 0.38995 0.46869 0.68215 0.0
H675 H 0.64102 0.50665 0.7368 0.0
H676 H 0.65442 0.54092 0.66916 0.0
H677 H 0.41563 0.4557 0.77828 0.0
H678 H 0.64696 0.56844 0.57714 0.0
N679 N 0.58077 0.50962 0.64578 0.0
C680 C 0.58514 0.49242 0.69135 0.0
C681 C 0.62427 0.50758 0.71071 0.0
C682 C 0.6201 0.52455 0.66195 0.0
C683 C 0.60678 0.4913 0.72495 0.0
C684 C 0.598 0.52491 0.62922 0.0
H685 H 0.62049 0.5822 0.48383 0.0
N686 N 0.57297 0.53912 0.54443 0.0
C687 C 0.58619 0.56763 0.46539 0.0
C688 C 0.5939 0.54026 0.57732 0.0
C689 C 0.56925 0.55176 0.48726 0.0
C690 C 0.60735 0.56995 0.50098 0.0
C691 C 0.61162 0.55587 0.55692 0.0
O692 O 0.55342 0.5005 0.48324 0.0
O693 O 0.50539 0.51194 0.58577 0.0
O694 O 0.49339 0.4871 0.66778 0.0
O695 O 0.53369 0.48225 0.65467 0.0
O696 O 0.52069 0.52117 0.49615 0.0
O697 O 0.55624 0.47636 0.56629 0.0
O698 O 0.48156 0.53824 0.78435 0.0
O699 O 0.53035 0.52733 0.68181 0.0
O700 O 0.54257 0.55214 0.60072 0.0
O701 O 0.50223 0.55706 0.6134 0.0
O702 O 0.51522 0.51833 0.7717 0.0
O703 O 0.48036 0.5631 0.70285 0.0
C704 C 0.50096 0.51754 0.52559 0.0
C705 C 0.54362 0.46131 0.4603 0.0
C706 C 0.50716 0.4407 0.43364 0.0
C707 C 0.52013 0.4562 0.47558 0.0
C708 C 0.51808 0.43025 0.37662 0.0
C709 C 0.55422 0.45079 0.40341 0.0
C710 C 0.54147 0.43525 0.36182 0.0
C711 C 0.51263 0.47407 0.67096 0.0
C712 C 0.55667 0.47879 0.50075 0.0
C713 C 0.63321 0.55641 0.5916 0.0
C714 C 0.63747 0.54074 0.64394 0.0
C715 C 0.53491 0.52208 0.74215 0.0
C716 C 0.49317 0.57665 0.81043 0.0
C717 C 0.51668 0.5815 0.7945 0.0
C718 C 0.53048 0.59553 0.83845 0.0
C719 C 0.52037 0.60481 0.89828 0.0
C720 C 0.48339 0.58601 0.8701 0.0
C721 C 0.49696 0.6001 0.91377 0.0
C722 C 0.52335 0.56523 0.59761 0.0
C723 C 0.47944 0.56021 0.76817 0.0
H724 H 0.51187 0.46457 0.51918 0.0
H725 H 0.50862 0.41791 0.34397 0.0
H726 H 0.57227 0.45478 0.39086 0.0
H727 H 0.5497 0.4271 0.3179 0.0
H728 H 0.52432 0.57401 0.74873 0.0
H729 H 0.53044 0.61605 0.93258 0.0
H730 H 0.46537 0.58216 0.88328 0.0
H731 H 0.48936 0.60734 0.95985 0.0
Eu732 Eu 0.02245 0.54551 0.59361 0.0
C733 C 0.03573 0.44246 0.68986 0.0
C734 C 0.02061 0.4179 0.59819 0.0
C735 C 0.0525 0.40363 0.66833 0.0
C736 C 0.02073 0.43938 0.63561 0.0
C737 C 0.05128 0.42432 0.70839 0.0
C738 C 0.03713 0.4004 0.61331 0.0
C739 C 0.06043 0.44682 0.81025 0.0
N740 N 0.03357 0.46234 0.7283 0.0
C741 C 0.04446 0.46403 0.79013 0.0
C742 C 0.06424 0.42706 0.76844 0.0
Eu743 Eu 1.00806 0.49232 0.68869 0.0
N744 N 1.00508 0.45672 0.62247 0.0
C745 C 0.98733 0.45263 0.57679 0.0
C746 C 1.0034 0.41434 0.54832 0.0
C747 C 0.98639 0.43161 0.53858 0.0
H748 H 0.04113 0.47905 0.82318 0.0
H749 H 0.97262 0.42883 0.50128 0.0
H750 H 0.0376 0.38399 0.58431 0.0
H751 H 0.06961 0.4487 0.85819 0.0
H752 H 0.97397 0.46557 0.56823 0.0
H753 H 0.04945 0.61511 0.7734 0.0
H754 H 1.0027 0.39813 0.51843 0.0
H755 H 0.9872 0.55 0.45733 0.0
H756 H 0.05158 0.57637 0.71524 0.0
H757 H 0.95814 0.57772 0.41115 0.0
H758 H 0.06456 0.38964 0.68113 0.0
H759 H 0.01825 0.64331 0.74299 0.0
H760 H 0.98429 0.65343 0.66742 0.0
H761 H 0.07639 0.41358 0.78442 0.0
H762 H 0.95944 0.64327 0.56873 0.0
N763 N 0.02159 0.58224 0.65304 0.0
C764 C 0.03792 0.5885 0.70109 0.0
C765 C 0.01916 0.62635 0.71696 0.0
C766 C 1.00334 0.62039 0.66491 0.0
C767 C 0.03681 0.6105 0.73418 0.0
C768 C 1.00528 0.59806 0.63268 0.0
H769 H 0.94989 0.61531 0.47212 0.0
N770 N 0.99486 0.57142 0.54445 0.0
C771 C 0.96732 0.58205 0.4579 0.0
C772 C 0.99148 0.59247 0.57675 0.0
C773 C 0.98383 0.56642 0.48411 0.0
C774 C 0.96266 0.60321 0.49259 0.0
C775 C 0.97508 0.60886 0.55212 0.0
O776 O 0.03751 0.55013 0.49328 0.0
O777 O 0.0246 0.50591 0.59505 0.0
O778 O 0.04769 0.49751 0.69756 0.0
O779 O 0.05327 0.53636 0.66435 0.0
O780 O 0.01537 0.5205 0.50388 0.0
O781 O 0.0553 0.56448 0.58224 0.0
O782 O 0.9954 0.48209 0.78778 0.0
O783 O 1.00787 0.53162 0.68907 0.0
O784 O 0.98284 0.54388 0.60444 0.0
O785 O 0.97838 0.50356 0.61539 0.0
O786 O 0.01528 0.51659 0.78046 0.0
O787 O 0.97114 0.48362 0.70352 0.0
C788 C 0.01951 0.50105 0.53378 0.0
C789 C 0.07876 0.55254 0.49096 0.0
C790 C 0.11013 0.52342 0.48693 0.0
C791 C 0.08757 0.53037 0.50802 0.0
C792 C 0.12336 0.5387 0.44698 0.0
C793 C 0.09217 0.56753 0.45138 0.0
C794 C 0.11437 0.56055 0.42923 0.0
C795 C 0.06067 0.51677 0.69308 0.0
C796 C 0.05617 0.56082 0.51697 0.0
C797 C 0.97212 0.63056 0.58645 0.0
C798 C 0.98625 0.63633 0.64268 0.0
C799 C 1.01254 0.53631 0.75065 0.0
C800 C 0.95739 0.49511 0.81154 0.0
C801 C 0.95184 0.51851 0.79642 0.0
C802 C 0.9375 0.53195 0.8401 0.0
C803 C 0.92875 0.52161 0.89897 0.0
C804 C 0.94857 0.48513 0.87033 0.0
C805 C 0.93427 0.49837 0.91383 0.0
C806 C 0.96995 0.52457 0.5994 0.0
C807 C 0.97353 0.48142 0.7687 0.0
H808 H 0.07715 0.51891 0.53906 0.0
H809 H 0.14058 0.53363 0.42866 0.0
H810 H 0.08553 0.5847 0.43812 0.0
H811 H 0.12468 0.57215 0.39848 0.0
H812 H 0.95892 0.5263 0.75135 0.0
H813 H 0.91725 0.53136 0.93301 0.0
H814 H 0.95292 0.46718 0.88281 0.0
H815 H 0.92742 0.4906 0.95916 0.0
H816 H 0.17883 0.01492 0.28881 0.0
H817 H 0.15731 0.08728 0.27141 0.0
H818 H 0.14442 1.00744 0.35933 0.0
H819 H 0.12334 0.08004 0.34251 0.0
H820 H 0.05394 0.05542 0.43479 0.0
H821 H 0.08564 0.06068 0.35316 0.0
H822 H 0.13103 0.01709 0.47309 0.0
H823 H 0.0993 1.01139 0.55275 0.0
C824 C 0.16658 0.02914 0.29903 0.0
C825 C 0.171 0.05173 0.27447 0.0
C826 C 0.14696 0.02495 0.34028 0.0
C827 C 0.13104 0.04318 0.35758 0.0
C828 C 0.13496 0.06548 0.33032 0.0
C829 C 0.15462 0.06968 0.2897 0.0
C830 C 0.07069 0.04697 0.44377 0.0
C831 C 0.07408 0.03338 0.50172 0.0
C832 C 0.08897 0.05006 0.39697 0.0
C833 C 0.11111 0.03936 0.40613 0.0
C834 C 0.1143 0.02549 0.46358 0.0
C835 C 0.09612 0.02258 0.51043 0.0
H836 H 0.44581 0.15997 0.28087 0.0
H837 H 0.51944 0.17768 0.28831 0.0
H838 H 0.45331 0.12573 0.35066 0.0
H839 H 0.52698 0.14345 0.35869 0.0
H840 H 0.52225 0.10265 0.55945 0.0
H841 H 0.51581 0.13374 0.47906 0.0
H842 H 0.47488 0.0861 0.35299 0.0
H843 H 0.48159 0.05472 0.43386 0.0
C844 C 0.46369 0.1563 0.29651 0.0
C845 C 0.48205 0.17155 0.27891 0.0
C846 C 0.46799 0.13664 0.3364 0.0
C847 C 0.49072 0.1319 0.36076 0.0
C848 C 0.50923 0.14671 0.34128 0.0
C849 C 0.50497 0.16618 0.30038 0.0
C850 C 0.51151 0.0988 0.51558 0.0
C851 C 0.50186 0.07626 0.50481 0.0
C852 C 0.50815 0.1166 0.46858 0.0
C853 C 0.49482 0.11248 0.4094 0.0
C854 C 0.48512 0.08994 0.39827 0.0
C855 C 0.48891 0.07196 0.44483 0.0
H856 H 0.38797 0.45309 0.28925 0.0
H857 H 0.36525 0.52525 0.3108 0.0
H858 H 0.42463 0.46286 0.34753 0.0
H859 H 0.40239 0.53506 0.36964 0.0
H860 H 0.48371 0.54301 0.42158 0.0
H861 H 0.44805 0.53571 0.35371 0.0
H862 H 0.43349 0.4744 0.47111 0.0
H863 H 0.46882 0.48207 0.53963 0.0
C864 C 0.39098 0.47118 0.30546 0.0
C865 C 0.37354 0.48837 0.29539 0.0
C866 C 0.41193 0.47668 0.33967 0.0
C867 C 0.4163 0.49957 0.36475 0.0
C868 C 0.39958 0.51721 0.35108 0.0
C869 C 0.37837 0.51165 0.3169 0.0
C870 C 0.47273 0.5281 0.43311 0.0
C871 C 0.47875 0.51344 0.48695 0.0
C872 C 0.4523 0.52395 0.39435 0.0
C873 C 0.43782 0.50452 0.4069 0.0
C874 C 0.44425 0.4895 0.45978 0.0
C875 C 0.46439 0.49396 0.49949 0.0
H876 H 0.08608 0.38907 0.29572 0.0
H877 H 0.01444 0.36502 0.30815 0.0
H878 H 0.07575 0.42515 0.35767 0.0
H879 H 1.00383 0.40195 0.3686 0.0
H880 H 0.99535 0.48404 0.42401 0.0
H881 H 1.00324 0.44847 0.35476 0.0
H882 H 0.06266 0.43289 0.48237 0.0
H883 H 0.05428 0.46811 0.55275 0.0
C884 C 0.06793 0.3917 0.3103 0.0
C885 C 0.05114 0.37389 0.29699 0.0
C886 C 0.06207 0.41239 0.34643 0.0
C887 C 0.03905 0.41636 0.36929 0.0
C888 C 0.02177 0.39943 0.35188 0.0
C889 C 0.02777 0.37836 0.31654 0.0
C890 C 1.00998 0.47286 0.4376 0.0
C891 C 0.02392 0.47865 0.49474 0.0
C892 C 0.01446 0.45247 0.39794 0.0
C893 C 0.03359 0.43774 0.41278 0.0
C894 C 0.04787 0.44388 0.4691 0.0
C895 C 0.043 0.46396 0.50979 0.0
H896 H 0.84266 1.00483 0.91823 0.0
H897 H 0.88584 0.96151 0.04448 0.0
H898 H 0.87701 1.01395 0.84899 0.0
H899 H 0.92023 0.97059 0.97594 0.0
H900 H 0.9811 1.00584 0.86216 0.0
H901 H 0.94805 1.00092 0.93856 0.0
H902 H 0.90165 0.991 0.76699 0.0
H903 H 0.93477 0.99541 0.69073 0.0
C904 C 0.85968 0.99796 0.93264 0.0
C905 C 0.86162 0.98288 0.98776 0.0
C906 C 0.87932 1.00282 0.89228 0.0
C907 C 0.90148 0.99285 0.90623 0.0
C908 C 0.9036 0.97877 0.96371 0.0
C909 C 0.88391 0.97368 1.00343 0.0
C910 C 0.96389 1.00282 0.84033 0.0
C911 C 0.96068 1.00208 0.76945 0.0
C912 C 0.94485 0.99986 0.88448 0.0
C913 C 0.92193 0.99608 0.85931 0.0
C914 C 0.91883 0.99463 0.78854 0.0
C915 C 0.93792 0.99731 0.74449 0.0
H916 H 0.5168 0.86253 0.98745 0.0
H917 H 0.59034 0.8806 0.99471 0.0
H918 H 0.50898 0.89705 0.9184 0.0
H919 H 0.58249 0.91526 0.92671 0.0
H920 H 0.5525 0.9867 0.84741 0.0
H921 H 0.55924 0.95516 0.92808 0.0
H922 H 0.5214 0.90673 0.79655 0.0
H923 H 0.51493 0.9379 0.71649 0.0
C924 C 0.53118 0.87418 0.97567 0.0
C925 C 0.55417 0.86884 0.99666 0.0
C926 C 0.52676 0.89382 0.93565 0.0
C927 C 0.54514 0.90886 0.91677 0.0
C928 C 0.56794 0.90415 0.94062 0.0
C929 C 0.57243 0.88427 0.97946 0.0
C930 C 0.5457 0.96929 0.83555 0.0
C931 C 0.53374 0.96477 0.77397 0.0
C932 C 0.5496 0.95123 0.88179 0.0
C933 C 0.54085 0.9284 0.86879 0.0
C934 C 0.52833 0.92409 0.80831 0.0
C935 C 0.52495 0.94196 0.76159 0.0
H936 H 0.64388 0.54185 0.0573 0.0
H937 H 0.67892 0.55199 0.86681 0.0
H938 H 0.60689 0.53481 0.99615 0.0
H939 H 0.64216 0.54581 0.8067 0.0
H940 H 0.56837 0.55591 0.72035 0.0
H941 H 0.60432 0.56361 0.78563 0.0
H942 H 0.58663 0.50737 0.91941 0.0
H943 H 0.55066 0.49989 0.85396 0.0
C944 C 0.64385 0.54242 1.00256 0.0
C945 C 0.66459 0.54784 0.96762 0.0
C946 C 0.62254 0.53847 0.96734 0.0
C947 C 0.62131 0.53994 0.89615 0.0
C948 C 0.64214 0.54494 0.86137 0.0
C949 C 0.66337 0.54858 0.89628 0.0
C950 C 0.57232 0.54505 0.76325 0.0
C951 C 0.55707 0.52676 0.78061 0.0
C952 C 0.59292 0.54949 0.80099 0.0
C953 C 0.59867 0.53598 0.85782 0.0
C954 C 0.58287 0.51825 0.87641 0.0
C955 C 0.56231 0.51381 0.83856 0.0
H956 H 0.01984 0.67391 0.96605 0.0
H957 H 0.94975 0.64796 0.99852 0.0
H958 H 0.0298 0.63676 0.90574 0.0
H959 H 0.95957 0.61143 0.93785 0.0
H960 H 0.97682 0.56861 0.73692 0.0
H961 H 0.9694 0.60396 0.80763 0.0
H962 H 0.0317 0.58971 0.92494 0.0
H963 H 0.03865 0.55396 0.8555 0.0
C964 C 1.00681 0.66007 0.9623 0.0
C965 C 0.984 0.66401 0.98749 0.0
C966 C 1.01241 0.63888 0.92704 0.0
C967 C 0.99527 0.62129 0.91552 0.0
C968 C 0.97298 0.62475 0.94422 0.0
C969 C 0.96749 0.64563 0.9799 0.0
C970 C 0.98898 0.57311 0.77752 0.0
C971 C 1.00862 0.55877 0.78961 0.0
C972 C 0.98466 0.59327 0.81843 0.0
C973 C 1.00004 0.59979 0.87193 0.0
C974 C 0.01966 0.58539 0.8839 0.0
C975 C 0.02362 0.56491 0.84414 0.0
H976 H 0.14473 0.15913 0.41918 0.0
H977 H 0.12331 0.22506 0.51449 0.0
H978 H 0.12117 0.13823 0.4986 0.0
H979 H 0.10277 0.20391 0.59898 0.0
H980 H 0.02843 0.17152 0.58986 0.0
H981 H 0.06564 0.19043 0.57376 0.0
H982 H 0.10113 0.12335 0.58885 0.0
H983 H 0.06325 0.10422 0.60241 0.0
C984 C 0.13551 0.16935 0.45745 0.0
C985 C 0.13369 0.19405 0.45404 0.0
C986 C 0.12234 0.15716 0.50471 0.0
C987 C 0.10834 0.16954 0.55198 0.0
C988 C 0.11186 0.19389 0.55983 0.0
C989 C 0.12411 0.20611 0.51085 0.0
C990 C 0.04417 0.16083 0.59166 0.0
C991 C 0.04276 0.13632 0.59649 0.0
C992 C 0.06578 0.17175 0.58296 0.0
C993 C 0.08671 0.15849 0.57935 0.0
C994 C 0.08545 0.13413 0.58984 0.0
C995 C 0.06369 0.12314 0.59763 0.0
H996 H 0.31763 0.12366 0.47408 0.0
H997 H 0.37315 0.15871 0.36758 0.0
H998 H 0.34612 0.10423 0.54293 0.0
H999 H 0.4022 0.13922 0.43824 0.0
H1000 H 0.43085 0.06163 0.44187 0.0
H1001 H 0.41302 0.09952 0.42302 0.0
H1002 H 0.3772 0.09574 0.61514 0.0
H1003 H 0.39451 0.05705 0.6322 0.0
C1004 C 0.33592 0.12828 0.4676 0.0
C1005 C 0.34308 0.1421 0.41337 0.0
C1006 C 0.35249 0.11697 0.50754 0.0
C1007 C 0.37663 0.11933 0.49444 0.0
C1008 C 0.38374 0.13627 0.44791 0.0
C1009 C 0.36708 0.14755 0.40759 0.0
C1010 C 0.41972 0.06917 0.48109 0.0
C1011 C 0.41357 0.05609 0.53775 0.0
C1012 C 0.40956 0.09113 0.47057 0.0
C1013 C 0.3931 0.10059 0.51678 0.0
C1014 C 0.38922 0.08871 0.57745 0.0
C1015 C 0.39913 0.06655 0.58739 0.0
H1016 H 0.37456 0.37961 0.37142 0.0
H1017 H 0.4214 0.33667 0.48887 0.0
H1018 H 0.39391 0.41488 0.41672 0.0
H1019 H 0.44054 0.37149 0.53355 0.0
H1020 H 0.46997 0.43886 0.347 0.0
H1021 H 0.43248 0.42011 0.36544 0.0
H1022 H 0.45049 0.41097 0.5761 0.0
H1023 H 0.4888 0.42904 0.55625 0.0
C1024 C 0.3881 0.3777 0.40963 0.0
C1025 C 0.39728 0.35535 0.42371 0.0
C1026 C 0.39923 0.39792 0.43553 0.0
C1027 C 0.41957 0.39589 0.47578 0.0
C1028 C 0.42524 0.37375 0.50153 0.0
C1029 C 0.41413 0.35357 0.47569 0.0
C1030 C 0.46574 0.43327 0.39756 0.0
C1031 C 0.48252 0.43472 0.44965 0.0
C1032 C 0.44399 0.42292 0.40868 0.0
C1033 C 0.43843 0.41388 0.47232 0.0
C1034 C 0.45428 0.41764 0.52641 0.0
C1035 C 0.47619 0.42799 0.5151 0.0
H1036 H 0.21161 0.41879 0.4823 0.0
H1037 H 0.15289 0.39429 0.35994 0.0
H1038 H 0.18505 0.4396 0.55561 0.0
H1039 H 0.12691 0.41837 0.42672 0.0
H1040 H 0.08801 0.48075 0.48431 0.0
H1041 H 0.10601 0.44212 0.49417 0.0
H1042 H 0.17311 0.4759 0.53351 0.0
H1043 H 0.15442 0.51375 0.53048 0.0
C1044 C 0.19315 0.41757 0.47003 0.0
C1045 C 0.18498 0.40709 0.40884 0.0
C1046 C 0.17775 0.43007 0.51236 0.0
C1047 C 0.15417 0.43317 0.49287 0.0
C1048 C 0.1452 0.41798 0.44166 0.0
C1049 C 0.16045 0.40444 0.40152 0.0
C1050 C 0.10637 0.47967 0.49805 0.0
C1051 C 0.11993 0.50019 0.50486 0.0
C1052 C 0.11689 0.45749 0.5026 0.0
C1053 C 0.14138 0.45541 0.51199 0.0
C1054 C 0.1543 0.47617 0.52593 0.0
C1055 C 0.14367 0.49819 0.52285 0.0
H1056 H 0.91657 0.81141 0.75812 0.0
H1057 H 0.89195 0.87749 0.84532 0.0
H1058 H 0.93705 0.8323 0.67285 0.0
H1059 H 0.91553 0.89833 0.76577 0.0
H1060 H 0.97363 0.93334 0.66785 0.0
H1061 H 0.93618 0.91316 0.67779 0.0
H1062 H 0.97338 0.84714 0.69709 0.0
H1063 H 1.01017 0.86709 0.68375 0.0
C1064 C 0.91501 0.83034 0.75955 0.0
C1065 C 0.90439 0.84268 0.81422 0.0
C1066 C 0.92729 0.84243 0.71034 0.0
C1067 C 0.92993 0.86696 0.71616 0.0
C1068 C 0.91505 0.87934 0.76121 0.0
C1069 C 0.90183 0.86722 0.80851 0.0
C1070 C 0.97366 0.91441 0.67254 0.0
C1071 C 0.99493 0.90185 0.67579 0.0
C1072 C 0.95214 0.90281 0.6784 0.0
C1073 C 0.95145 0.87845 0.68948 0.0
C1074 C 0.97277 0.86579 0.68757 0.0
C1075 C 0.99415 0.87731 0.68047 0.0
H1076 H 0.64952 0.90328 0.95338 0.0
H1077 H 0.69963 0.89046 0.79275 0.0
H1078 H 0.62416 0.92288 0.8766 0.0
H1079 H 0.67378 0.91079 0.7145 0.0
H1080 H 0.6557 0.99169 0.6937 0.0
H1081 H 0.6694 0.95206 0.71187 0.0
H1082 H 0.60076 0.93299 0.78524 0.0
H1083 H 0.5879 0.97312 0.77349 0.0
C1084 C 0.6548 0.90357 0.90087 0.0
C1085 C 0.67733 0.89615 0.88047 0.0
C1086 C 0.63999 0.91501 0.85604 0.0
C1087 C 0.64728 0.9194 0.78958 0.0
C1088 C 0.66802 0.90855 0.76611 0.0
C1089 C 0.68289 0.89694 0.81115 0.0
C1090 C 0.64344 0.97907 0.71345 0.0
C1091 C 0.62115 0.98621 0.73657 0.0
C1092 C 0.65117 0.95601 0.72243 0.0
C1093 C 0.63653 0.93948 0.75329 0.0
C1094 C 0.61287 0.94552 0.76418 0.0
C1095 C 0.60537 0.9687 0.75683 0.0
H1096 H 0.61292 0.70146 0.78487 0.0
H1097 H 0.66119 0.66002 0.90212 0.0
H1098 H 0.5949 0.66613 0.74025 0.0
H1099 H 0.64312 0.62413 0.85633 0.0
H1100 H 0.54775 0.60924 0.71644 0.0
H1101 H 0.58565 0.62789 0.69669 0.0
H1102 H 0.60602 0.61419 0.90338 0.0
H1103 H 0.56878 0.59494 0.92156 0.0
C1104 C 0.62071 0.68478 0.7981 0.0
C1105 C 0.63773 0.68357 0.84972 0.0
C1106 C 0.61024 0.66427 0.7723 0.0
C1107 C 0.61671 0.64224 0.79759 0.0
C1108 C 0.63707 0.64091 0.83806 0.0
C1109 C 0.64752 0.66149 0.86408 0.0
C1110 C 0.56074 0.60949 0.75667 0.0
C1111 C 0.55506 0.60148 0.82133 0.0
C1112 C 0.58244 0.62022 0.74545 0.0
C1113 C 0.5987 0.62325 0.79892 0.0
C1114 C 0.59405 0.6124 0.86082 0.0
C1115 C 0.57244 0.6017 0.87189 0.0
H1116 H 0.82923 0.61198 0.78105 0.0
H1117 H 0.86949 0.66121 0.90416 0.0
H1118 H 0.86493 0.59469 0.73831 0.0
H1119 H 0.90573 0.6439 0.86028 0.0
H1120 H 0.93604 0.57011 0.92568 0.0
H1121 H 0.91548 0.60667 0.90759 0.0
H1122 H 0.90376 0.58634 0.69778 0.0
H1123 H 0.92368 0.54898 0.71726 0.0
C1124 C 0.84569 0.62016 0.79598 0.0
C1125 C 0.84654 0.6372 0.84865 0.0
C1126 C 0.86641 0.61012 0.77125 0.0
C1127 C 0.88824 0.61707 0.79871 0.0
C1128 C 0.88911 0.63751 0.84024 0.0
C1129 C 0.86833 0.64752 0.86523 0.0
C1130 C 0.92944 0.57362 0.87537 0.0
C1131 C 0.93064 0.55635 0.82367 0.0
C1132 C 0.918 0.59487 0.86442 0.0
C1133 C 0.9075 0.59937 0.80136 0.0
C1134 C 0.91129 0.58327 0.74726 0.0
C1135 C 0.92273 0.56188 0.75838 0.0
H1136 H 1.00373 0.19112 0.91715 0.0
H1137 H 0.07661 0.17019 0.9179 0.0
H1138 H 0.99444 0.15724 0.84331 0.0
H1139 H 0.0672 0.1356 0.84995 0.0
H1140 H 0.04859 0.0795 0.69209 0.0
H1141 H 0.05785 0.11664 0.75115 0.0
H1142 H 0.98846 0.11735 0.83925 0.0
H1143 H 0.9792 0.081 0.77732 0.0
C1144 C 0.01783 0.17944 0.90154 0.0
C1145 C 0.04088 0.18347 0.92523 0.0
C1146 C 1.01245 0.15959 0.85985 0.0
C1147 C 0.0299 0.14296 0.84075 0.0
C1148 C 0.05308 0.14769 0.86226 0.0
C1149 C 0.05847 0.1676 0.90277 0.0
C1150 C 0.03544 0.08762 0.7244 0.0
C1151 C 1.01334 0.07699 0.73096 0.0
C1152 C 0.0407 0.10902 0.75874 0.0
C1153 C 0.02402 0.12049 0.80108 0.0
C1154 C 1.00182 0.10972 0.80676 0.0
C1155 C 0.99653 0.08855 0.77177 0.0
H1156 H 0.36631 0.02405 0.96988 0.0
H1157 H 0.34769 0.07266 0.81454 0.0
H1158 H 0.40068 1.01163 0.90467 0.0
H1159 H 0.38139 0.05982 0.74771 0.0
H1160 H 0.45815 0.05239 0.6794 0.0
H1161 H 0.42192 0.06288 0.73921 0.0
H1162 H 0.41752 0.99207 0.81331 0.0
H1163 H 0.45431 0.98236 0.75703 0.0
C1164 C 0.36907 0.03141 0.92047 0.0
C1165 C 0.35404 0.04911 0.89713 0.0
C1166 C 0.38894 0.0244 0.88285 0.0
C1167 C 0.39428 0.03474 0.82033 0.0
C1168 C 0.37845 0.05165 0.79578 0.0
C1169 C 0.35877 0.05879 0.83368 0.0
C1170 C 0.44959 0.03927 0.70955 0.0
C1171 C 0.45963 0.01684 0.71571 0.0
C1172 C 0.42848 0.04509 0.74303 0.0
C1173 C 0.4165 0.02844 0.78226 0.0
C1174 C 0.42626 1.00571 0.78566 0.0
C1175 C 0.44739 1.00003 0.75286 0.0
H1176 H 0.46312 0.33887 0.82187 0.0
H1177 H 0.51657 0.3629 0.96196 0.0
H1178 H 0.47409 0.36957 0.74346 0.0
H1179 H 0.5272 0.39421 0.88514 0.0
H1180 H 0.54726 0.44617 0.72535 0.0
H1181 H 0.54259 0.40881 0.78242 0.0
H1182 H 0.46811 0.41045 0.73942 0.0
H1183 H 0.47303 0.44708 0.68036 0.0
C1184 C 0.47782 0.35024 0.8347 0.0
C1185 C 0.48933 0.34815 0.89737 0.0
C1186 C 0.48385 0.3682 0.79038 0.0
C1187 C 0.50132 0.38485 0.80801 0.0
C1188 C 0.51384 0.38174 0.86903 0.0
C1189 C 0.50787 0.36365 0.91313 0.0
C1190 C 0.52996 0.43837 0.72713 0.0
C1191 C 0.51048 0.44997 0.69907 0.0
C1192 C 0.52721 0.41696 0.76052 0.0
C1193 C 0.50491 0.40644 0.7665 0.0
C1194 C 0.48564 0.41764 0.73571 0.0
C1195 C 0.4884 0.43896 0.70241 0.0
H1196 H 0.17189 0.5245 0.99844 0.0
H1197 H 0.20647 0.49303 0.82539 0.0
H1198 H 0.1368 0.53132 0.93009 0.0
H1199 H 0.17106 0.49947 0.75626 0.0
H1200 H 0.10448 0.52794 0.64323 0.0
H1201 H 0.1424 0.5271 0.70347 0.0
H1202 H 0.10671 0.50588 0.88447 0.0
H1203 H 0.06932 0.50733 0.82476 0.0
C1204 C 0.17218 0.51964 0.94508 0.0
C1205 C 0.19209 0.50858 0.91712 0.0
C1206 C 0.15191 0.52321 0.90595 0.0
C1207 C 0.15077 0.51561 0.83758 0.0
C1208 C 0.17122 0.50569 0.80849 0.0
C1209 C 0.1916 0.5021 0.84794 0.0
C1210 C 0.10484 0.52308 0.6958 0.0
C1211 C 0.08389 0.51703 0.72865 0.0
C1212 C 0.1266 0.52251 0.7304 0.0
C1213 C 0.12782 0.51644 0.79923 0.0
C1214 C 0.10667 0.51085 0.83189 0.0
C1215 C 0.08514 0.51119 0.79721 0.0
H1216 H 0.95793 0.87066 0.3523 0.0
H1217 H 0.0302 0.84792 0.3614 0.0
H1218 H 0.96738 0.90527 0.42014 0.0
H1219 H 0.03942 0.88182 0.43512 0.0
H1220 H 0.05596 0.9575 0.50227 0.0
H1221 H 0.04636 0.92156 0.43877 0.0
H1222 H 0.97595 0.9242 0.51975 0.0
H1223 H 0.98562 0.96089 0.58062 0.0
C1224 C 0.97594 0.87286 0.36915 0.0
C1225 C 0.99338 0.85644 0.34912 0.0
C1226 C 0.98132 0.89279 0.40962 0.0
C1227 C 1.00433 0.897 0.43348 0.0
C1228 C 0.02158 0.87987 0.4167 0.0
C1229 C 0.01622 0.86001 0.37507 0.0
C1230 C 0.03833 0.95049 0.50584 0.0
C1231 C 0.02141 0.96241 0.5454 0.0
C1232 C 0.03284 0.92955 0.46998 0.0
C1233 C 1.01029 0.91939 0.47342 0.0
C1234 C 0.99342 0.93132 0.51403 0.0
C1235 C 0.9989 0.95248 0.54935 0.0
H1236 H 0.68581 0.02727 0.36418 0.0
H1237 H 0.66845 0.95422 0.39219 0.0
H1238 H 0.65337 0.03883 0.43725 0.0
H1239 H 0.63474 0.96568 0.45845 0.0
H1240 H 0.58001 0.98955 0.60967 0.0
H1241 H 0.61671 0.97889 0.55324 0.0
H1242 H 0.61426 0.0442 0.44498 0.0
H1243 H 0.57879 0.05524 0.50575 0.0
C1244 C 0.67518 1.01358 0.38566 0.0
C1245 C 0.67988 0.98973 0.37033 0.0
C1246 C 0.65606 0.02025 0.42696 0.0
C1247 C 0.64065 1.00335 0.45365 0.0
C1248 C 0.6459 0.97949 0.44006 0.0
C1249 C 0.66526 0.97284 0.40021 0.0
C1250 C 0.58739 1.0015 0.57357 0.0
C1251 C 0.57613 0.02293 0.56061 0.0
C1252 C 0.60852 0.99541 0.5407 0.0
C1253 C 0.61885 1.01043 0.493 0.0
C1254 C 0.60755 0.03211 0.48162 0.0
C1255 C 0.58685 0.0384 0.51584 0.0
H1256 H 0.51962 0.67792 0.31175 0.0
H1257 H 0.5735 0.70083 0.45196 0.0
H1258 H 0.50885 0.64633 0.38742 0.0
H1259 H 0.5624 0.66985 0.52928 0.0
H1260 H 0.56314 0.59194 0.58839 0.0
H1261 H 0.56816 0.62889 0.53104 0.0
H1262 H 0.49359 0.63128 0.48972 0.0
H1263 H 0.4888 0.59363 0.54504 0.0
C1264 C 0.52838 0.67687 0.36041 0.0
C1265 C 0.54709 0.69212 0.3765 0.0
C1266 C 0.52234 0.65862 0.40384 0.0
C1267 C 0.53495 0.65511 0.46449 0.0
C1268 C 0.55257 0.67154 0.48257 0.0
C1269 C 0.55868 0.68965 0.43891 0.0
C1270 C 0.54777 0.60031 0.56713 0.0
C1271 C 0.52562 0.58944 0.5704 0.0
C1272 C 0.55059 0.6218 0.53481 0.0
C1273 C 0.53131 0.6333 0.50501 0.0
C1274 C 0.50896 0.6229 0.51091 0.0
C1275 C 0.50615 0.60132 0.54329 0.0
H1276 H 0.85631 0.51839 0.3037 0.0
H1277 H 0.83328 0.57257 0.44405 0.0
H1278 H 0.88867 0.50863 0.38006 0.0
H1279 H 0.86506 0.56252 0.52187 0.0
H1280 H 0.9427 0.56411 0.58848 0.0
H1281 H 0.90583 0.56866 0.52755 0.0
H1282 H 0.90466 0.49396 0.48228 0.0
H1283 H 0.94214 0.48966 0.5413 0.0
C1284 C 0.85752 0.52745 0.35246 0.0
C1285 C 0.84191 0.54591 0.36838 0.0
C1286 C 0.87624 0.52201 0.39631 0.0
C1287 C 0.87995 0.53498 0.4573 0.0
C1288 C 0.86328 0.55241 0.475 0.0
C1289 C 0.84469 0.5579 0.431 0.0
C1290 C 0.93463 0.5486 0.56559 0.0
C1291 C 0.94581 0.52656 0.56911 0.0
C1292 C 0.91317 0.55116 0.53108 0.0
C1293 C 0.90197 0.53171 0.49914 0.0
C1294 C 0.91275 0.50948 0.50498 0.0
C1295 C 0.93427 0.50695 0.53957 0.0
loop_
_geom_bond_atom_site_label_1
_geom_bond_atom_site_label_2
_geom_bond_distance
_geom_bond_site_symmetry_2
_ccdc_geom_bond_type
C0 C1 1.391 . S
C0 C4 1.391 . S
C0 H42 0.948 . S
C1 C0 1.391 . S
C1 C2 1.391 . S
C2 C1 1.391 . S
C2 H58 0.947 . S
C2 C59 1.392 . S
C3 C4 1.391 . S
C3 C7 1.397 . S
C3 C59 1.419 . S
C4 C0 1.391 . S
C4 C3 1.391 . S
C4 C5 1.399 . S
C5 C4 1.399 . S
C5 C8 1.396 . S
C5 C17 1.453 . S
C5 C18 1.684 . S
H6 C30 0.948 . S
C7 C3 1.397 . S
C7 C8 1.394 . S
C7 C26 1.723 . S
C8 C5 1.396 . S
C8 C7 1.394 . S
C8 C38 1.723 . S
H9 C32 0.947 . S
H10 C33 0.948 . S
H11 C39 0.982 . S
H12 C40 0.979 . S
H13 C40 0.980 . S
H14 C40 0.994 . S
H15 C39 0.979 . S
H16 C39 0.977 . S
C17 C5 1.453 . S
C17 H46 0.982 . S
C17 H47 0.979 . S
C17 H48 0.977 . S
C18 C5 1.684 . S
C18 H43 0.979 . S
C18 H44 0.980 . S
C18 H45 0.983 . S
C19 C20 1.389 1_554 S
C19 C24 1.391 . S
C19 H49 0.948 . S
C20 C19 1.389 1_556 S
C20 C21 1.392 . S
C21 C20 1.392 . S
C21 C22 1.392 1_556 S
C21 H50 0.947 . S
C22 C21 1.392 1_554 S
C22 C23 1.419 . S
C22 H51 0.948 . S
C23 C22 1.419 . S
C23 C24 1.391 . S
C23 C27 1.397 . S
C24 C19 1.391 . S
C24 C23 1.391 . S
C24 C25 1.399 . S
C25 C24 1.399 . S
C25 C26 1.396 . S
C25 C28 1.453 . S
C25 C29 1.684 . S
C26 C7 1.723 . S
C26 C25 1.396 . S
C26 C27 1.394 . S
C27 C23 1.397 . S
C27 C26 1.394 . S
C27 C37 1.723 . S
C28 C25 1.453 . S
C28 H52 0.982 . S
C28 H53 0.979 . S
C28 H54 0.977 . S
C29 C25 1.684 . S
C29 H55 0.979 . S
C29 H56 0.980 . S
C29 H57 0.983 . S
C30 H6 0.948 . S
C30 C31 1.391 . S
C30 C35 1.391 . S
C31 C30 1.391 . S
C31 C32 1.391 . S
C32 H9 0.947 . S
C32 C31 1.391 . S
C32 C33 1.392 . S
C33 H10 0.948 . S
C33 C32 1.392 . S
C33 C34 1.419 . S
C34 C33 1.419 . S
C34 C35 1.391 . S
C34 C38 1.397 . S
C35 C30 1.391 . S
C35 C34 1.391 . S
C35 C36 1.399 . S
C36 C35 1.399 . S
C36 C37 1.396 . S
C36 C39 1.453 . S
C36 C40 1.684 . S
C37 C27 1.723 . S
C37 C36 1.396 . S
C37 C38 1.394 . S
C38 C8 1.723 . S
C38 C34 1.397 . S
C38 C37 1.394 . S
C39 H11 0.982 . S
C39 H15 0.979 . S
C39 H16 0.977 . S
C39 C36 1.453 . S
C40 H12 0.979 . S
C40 H13 0.980 . S
C40 H14 0.994 . S
C40 C36 1.684 . S
H41 C59 0.948 . S
H42 C0 0.948 . S
H43 C18 0.979 . S
H44 C18 0.980 . S
H45 C18 0.983 . S
H46 C17 0.982 . S
H47 C17 0.979 . S
H48 C17 0.977 . S
H49 C19 0.948 . S
H50 C21 0.947 . S
H51 C22 0.948 . S
H52 C28 0.982 . S
H53 C28 0.979 . S
H54 C28 0.977 . S
H55 C29 0.979 . S
H56 C29 0.980 . S
H57 C29 0.983 . S
H58 C2 0.947 . S
C59 C2 1.392 . S
C59 C3 1.419 . S
C59 H41 0.948 . S
C60 C61 1.391 . S
C60 C64 1.391 . S
C60 H102 0.948 1_554 S
C61 C60 1.391 . S
C61 C62 1.391 . S
C62 C61 1.391 . S
C62 H118 0.947 . S
C62 C119 1.392 . S
C63 C64 1.391 . S
C63 C67 1.397 . S
C63 C119 1.419 . S
C64 C60 1.391 . S
C64 C63 1.391 . S
C64 C65 1.399 . S
C65 C64 1.399 . S
C65 C68 1.396 . S
C65 C77 1.453 . S
C65 C78 1.684 . S
H66 C90 0.948 . S
C67 C63 1.397 . S
C67 C68 1.394 . S
C67 C86 1.723 . S
C68 C65 1.396 . S
C68 C67 1.394 . S
C68 C98 1.723 . S
H69 C92 0.947 . S
H70 C93 0.948 . S
H71 C99 0.982 . S
H72 C100 0.979 . S
H73 C100 0.980 . S
H74 C100 0.983 . S
H75 C99 0.979 . S
H76 C99 0.977 . S
C77 C65 1.453 . S
C77 H106 0.982 . S
C77 H107 0.979 1_554 S
C77 H108 0.977 . S
C78 C65 1.684 . S
C78 H103 0.979 . S
C78 H104 0.980 . S
C78 H105 0.983 1_554 S
C79 C80 1.391 . S
C79 C84 1.391 . S
C79 H109 0.948 . S
C80 C79 1.391 . S
C80 C81 1.391 . S
C81 C80 1.391 . S
C81 C82 1.392 . S
C81 H110 0.947 . S
C82 C81 1.392 . S
C82 C83 1.419 . S
C82 H111 0.948 . S
C83 C82 1.419 . S
C83 C84 1.391 . S
C83 C87 1.397 . S
C84 C79 1.391 . S
C84 C83 1.391 . S
C84 C85 1.399 . S
C85 C84 1.399 . S
C85 C86 1.396 . S
C85 C88 1.453 . S
C85 C89 1.684 . S
C86 C67 1.723 . S
C86 C85 1.396 . S
C86 C87 1.394 . S
C87 C83 1.397 . S
C87 C86 1.394 . S
C87 C97 1.723 . S
C88 C85 1.453 . S
C88 H112 0.982 . S
C88 H113 0.979 . S
C88 H114 0.977 . S
C89 C85 1.684 . S
C89 H115 0.979 . S
C89 H116 0.980 . S
C89 H117 0.983 . S
C90 H66 0.948 . S
C90 C91 1.391 . S
C90 C95 1.391 . S
C91 C90 1.391 . S
C91 C92 1.391 . S
C92 H69 0.947 . S
C92 C91 1.391 . S
C92 C93 1.392 . S
C93 H70 0.948 . S
C93 C92 1.392 . S
C93 C94 1.419 . S
C94 C93 1.419 . S
C94 C95 1.391 . S
C94 C98 1.397 . S
C95 C90 1.391 . S
C95 C94 1.391 . S
C95 C96 1.399 . S
C96 C95 1.399 . S
C96 C97 1.396 . S
C96 C99 1.453 . S
C96 C100 1.684 . S
C97 C87 1.723 . S
C97 C96 1.396 . S
C97 C98 1.394 . S
C98 C68 1.723 . S
C98 C94 1.397 . S
C98 C97 1.394 . S
C99 H71 0.982 . S
C99 H75 0.979 . S
C99 H76 0.977 . S
C99 C96 1.453 . S
C100 H72 0.979 . S
C100 H73 0.980 . S
C100 H74 0.983 . S
C100 C96 1.684 . S
H101 C119 0.948 . S
H102 C60 0.948 1_556 S
H103 C78 0.979 . S
H104 C78 0.980 . S
H105 C78 0.983 1_556 S
H106 C77 0.982 . S
H107 C77 0.979 1_556 S
H108 C77 0.977 . S
H109 C79 0.948 . S
H110 C81 0.947 . S
H111 C82 0.948 . S
H112 C88 0.982 . S
H113 C88 0.979 . S
H114 C88 0.977 . S
H115 C89 0.979 . S
H116 C89 0.980 . S
H117 C89 0.983 . S
H118 C62 0.947 . S
C119 C62 1.392 . S
C119 C63 1.419 . S
C119 H101 0.948 . S
C120 C121 1.391 . S
C120 C124 1.391 . S
C120 H162 0.948 . S
C121 C120 1.391 . S
C121 C122 1.391 . S
C122 C121 1.391 . S
C122 H178 0.947 . S
C122 C179 1.392 . S
C123 C124 1.391 . S
C123 C127 1.397 . S
C123 C179 1.419 . S
C124 C120 1.391 . S
C124 C123 1.391 . S
C124 C125 1.399 . S
C125 C124 1.399 . S
C125 C128 1.396 . S
C125 C137 1.453 . S
C125 C138 1.684 . S
H126 C150 0.948 . S
C127 C123 1.397 . S
C127 C128 1.394 . S
C127 C146 1.723 . S
C128 C125 1.396 . S
C128 C127 1.394 . S
C128 C158 1.723 . S
H129 C152 0.947 . S
H130 C153 0.948 . S
H131 C159 0.982 . S
H132 C160 0.979 . S
H133 C160 0.980 . S
H134 C160 0.983 . S
H135 C159 0.979 . S
H136 C159 0.977 . S
C137 C125 1.453 . S
C137 H166 0.982 . S
C137 H167 0.979 . S
C137 H168 0.977 . S
C138 C125 1.684 . S
C138 H163 0.979 . S
C138 H164 0.980 . S
C138 H165 0.983 . S
C139 C140 1.391 . S
C139 C144 1.391 . S
C139 H169 0.948 1_554 S
C140 C139 1.391 . S
C140 C141 1.391 . S
C141 C140 1.391 . S
C141 C142 1.392 . S
C141 H170 0.947 . S
C142 C141 1.392 . S
C142 C143 1.419 . S
C142 H171 0.948 . S
C143 C142 1.419 . S
C143 C144 1.391 . S
C143 C147 1.397 . S
C144 C139 1.391 . S
C144 C143 1.391 . S
C144 C145 1.399 . S
C145 C144 1.399 . S
C145 C146 1.396 . S
C145 C148 1.453 . S
C145 C149 1.684 . S
C146 C127 1.723 . S
C146 C145 1.396 . S
C146 C147 1.394 . S
C147 C143 1.397 . S
C147 C146 1.394 . S
C147 C157 1.723 . S
C148 C145 1.453 . S
C148 H172 0.982 . S
C148 H173 0.979 1_554 S
C148 H174 0.977 . S
C149 C145 1.684 . S
C149 H175 0.979 . S
C149 H176 0.980 . S
C149 H177 0.983 1_554 S
C150 H126 0.948 . S
C150 C151 1.391 . S
C150 C155 1.391 . S
C151 C150 1.391 . S
C151 C152 1.391 . S
C152 H129 0.947 . S
C152 C151 1.391 . S
C152 C153 1.392 . S
C153 H130 0.948 . S
C153 C152 1.392 . S
C153 C154 1.419 . S
C154 C153 1.419 . S
C154 C155 1.391 . S
C154 C158 1.397 . S
C155 C150 1.391 . S
C155 C154 1.391 . S
C155 C156 1.399 . S
C156 C155 1.399 . S
C156 C157 1.396 . S
C156 C159 1.453 . S
C156 C160 1.684 . S
C157 C147 1.723 . S
C157 C156 1.396 . S
C157 C158 1.394 . S
C158 C128 1.723 . S
C158 C154 1.397 . S
C158 C157 1.394 . S
C159 H131 0.982 . S
C159 H135 0.979 . S
C159 H136 0.977 . S
C159 C156 1.453 . S
C160 H132 0.979 . S
C160 H133 0.980 . S
C160 H134 0.983 . S
C160 C156 1.684 . S
H161 C179 0.948 . S
H162 C120 0.948 . S
H163 C138 0.979 . S
H164 C138 0.980 . S
H165 C138 0.983 . S
H166 C137 0.982 . S
H167 C137 0.979 . S
H168 C137 0.977 . S
H169 C139 0.948 1_556 S
H170 C141 0.947 . S
H171 C142 0.948 . S
H172 C148 0.982 . S
H173 C148 0.979 1_556 S
H174 C148 0.977 . S
H175 C149 0.979 . S
H176 C149 0.980 . S
H177 C149 0.983 1_556 S
H178 C122 0.947 . S
C179 C122 1.392 . S
C179 C123 1.419 . S
C179 H161 0.948 . S
C180 C181 1.391 . S
C180 C184 1.391 . S
C180 H222 0.948 . S
C181 C180 1.391 . S
C181 C182 1.391 . S
C182 C181 1.391 . S
C182 H238 0.947 . S
C182 C239 1.392 . S
C183 C184 1.391 . S
C183 C187 1.397 . S
C183 C239 1.419 . S
C184 C180 1.391 . S
C184 C183 1.391 . S
C184 C185 1.399 . S
C185 C184 1.399 . S
C185 C188 1.396 . S
C185 C197 1.453 . S
C185 C198 1.684 . S
H186 C210 0.948 . S
C187 C183 1.397 . S
C187 C188 1.394 . S
C187 C206 1.723 . S
C188 C185 1.396 . S
C188 C187 1.394 . S
C188 C218 1.723 . S
H189 C212 0.947 . S
H190 C213 0.948 . S
H191 C219 0.982 . S
H192 C220 0.979 . S
H193 C220 0.980 . S
H194 C220 0.983 . S
H195 C219 0.979 . S
H196 C219 0.977 . S
C197 C185 1.453 . S
C197 H226 0.982 . S
C197 H227 0.979 . S
C197 H228 0.977 . S
C198 C185 1.684 . S
C198 H223 0.979 . S
C198 H224 0.980 . S
C198 H225 0.983 . S
C199 C200 1.403 . S
C199 C204 1.391 . S
C199 H229 0.948 . S
C200 C199 1.403 . S
C200 C201 1.388 1_554 S
C201 C200 1.388 1_556 S
C201 C202 1.392 1_556 S
C201 H230 0.947 . S
C202 C201 1.392 1_554 S
C202 C203 1.419 . S
C202 H231 0.948 . S
C203 C202 1.419 . S
C203 C204 1.391 . S
C203 C207 1.397 . S
C204 C199 1.391 . S
C204 C203 1.391 . S
C204 C205 1.399 . S
C205 C204 1.399 . S
C205 C206 1.396 . S
C205 C208 1.453 . S
C205 C209 1.684 . S
C206 C187 1.723 . S
C206 C205 1.396 . S
C206 C207 1.394 . S
C207 C203 1.397 . S
C207 C206 1.394 . S
C207 C217 1.723 . S
C208 C205 1.453 . S
C208 H232 0.982 . S
C208 H233 0.979 . S
C208 H234 0.977 . S
C209 C205 1.684 . S
C209 H235 0.979 . S
C209 H236 0.980 . S
C209 H237 0.983 . S
C210 H186 0.948 . S
C210 C211 1.391 . S
C210 C215 1.391 . S
C211 C210 1.391 . S
C211 C212 1.391 . S
C212 H189 0.947 . S
C212 C211 1.391 . S
C212 C213 1.392 . S
C213 H190 0.948 . S
C213 C212 1.392 . S
C213 C214 1.419 . S
C214 C213 1.419 . S
C214 C215 1.391 . S
C214 C218 1.397 . S
C215 C210 1.391 . S
C215 C214 1.391 . S
C215 C216 1.399 . S
C216 C215 1.399 . S
C216 C217 1.396 . S
C216 C219 1.453 . S
C216 C220 1.684 . S
C217 C207 1.723 . S
C217 C216 1.396 . S
C217 C218 1.394 . S
C218 C188 1.723 . S
C218 C214 1.397 . S
C218 C217 1.394 . S
C219 H191 0.982 . S
C219 H195 0.979 . S
C219 H196 0.977 . S
C219 C216 1.453 . S
C220 H192 0.979 . S
C220 H193 0.980 . S
C220 H194 0.983 . S
C220 C216 1.684 . S
H221 C239 0.948 . S
H222 C180 0.948 . S
H223 C198 0.979 . S
H224 C198 0.980 . S
H225 C198 0.983 . S
H226 C197 0.982 . S
H227 C197 0.979 . S
H228 C197 0.977 . S
H229 C199 0.948 . S
H230 C201 0.947 . S
H231 C202 0.948 . S
H232 C208 0.982 . S
H233 C208 0.979 . S
H234 C208 0.977 . S
H235 C209 0.979 . S
H236 C209 0.980 . S
H237 C209 0.983 . S
H238 C182 0.947 . S
C239 C182 1.392 . S
C239 C183 1.419 . S
C239 H221 0.948 . S
C240 C241 1.391 . S
C240 C244 1.391 . S
C240 H282 0.948 1_554 S
C241 C240 1.391 . S
C241 C242 1.391 . S
C242 C241 1.391 . S
C242 H298 0.947 . S
C242 C299 1.392 . S
C243 C244 1.391 . S
C243 C247 1.397 . S
C243 C299 1.419 . S
C244 C240 1.391 . S
C244 C243 1.391 . S
C244 C245 1.399 1_554 S
C245 C244 1.399 1_556 S
C245 C248 1.396 . S
C245 C257 1.453 . S
C245 C258 1.684 . S
H246 C270 0.948 . S
C247 C243 1.397 . S
C247 C248 1.394 1_554 S
C247 C266 1.723 . S
C248 C245 1.396 . S
C248 C247 1.394 1_556 S
C248 C278 1.723 . S
H249 C272 0.947 . S
H250 C273 0.948 . S
H251 C279 0.982 . S
H252 C280 0.979 . S
H253 C280 0.980 . S
H254 C280 0.983 . S
H255 C279 0.979 . S
H256 C279 0.977 . S
C257 C245 1.453 . S
C257 H286 0.982 . S
C257 H287 0.979 . S
C257 H288 0.977 . S
C258 C245 1.684 . S
C258 H283 0.979 . S
C258 H284 0.980 . S
C258 H285 0.983 . S
C259 C260 1.391 . S
C259 C264 1.391 . S
C259 H289 0.948 . S
C260 C259 1.391 . S
C260 C261 1.391 . S
C261 C260 1.391 . S
C261 C262 1.392 . S
C261 H290 0.947 . S
C262 C261 1.392 . S
C262 C263 1.419 . S
C262 H291 0.948 . S
C263 C262 1.419 . S
C263 C264 1.391 . S
C263 C267 1.397 . S
C264 C259 1.391 . S
C264 C263 1.391 . S
C264 C265 1.399 . S
C265 C264 1.399 . S
C265 C266 1.396 . S
C265 C268 1.453 . S
C265 C269 1.684 . S
C266 C247 1.723 . S
C266 C265 1.396 . S
C266 C267 1.394 . S
C267 C263 1.397 . S
C267 C266 1.394 . S
C267 C277 1.723 1_554 S
C268 C265 1.453 . S
C268 H292 0.982 . S
C268 H293 0.979 . S
C268 H294 0.977 . S
C269 C265 1.684 . S
C269 H295 0.979 . S
C269 H296 0.980 . S
C269 H297 0.983 . S
C270 H246 0.948 . S
C270 C271 1.391 . S
C270 C275 1.391 . S
C271 C270 1.391 . S
C271 C272 1.391 . S
C272 H249 0.947 . S
C272 C271 1.391 . S
C272 C273 1.392 . S
C273 H250 0.948 . S
C273 C272 1.392 . S
C273 C274 1.419 . S
C274 C273 1.419 . S
C274 C275 1.391 . S
C274 C278 1.397 . S
C275 C270 1.391 . S
C275 C274 1.391 . S
C275 C276 1.399 . S
C276 C275 1.399 . S
C276 C277 1.396 . S
C276 C279 1.453 . S
C276 C280 1.684 . S
C277 C267 1.723 1_556 S
C277 C276 1.396 . S
C277 C278 1.394 . S
C278 C248 1.723 . S
C278 C274 1.397 . S
C278 C277 1.394 . S
C279 H251 0.982 . S
C279 H255 0.979 . S
C279 H256 0.977 . S
C279 C276 1.453 . S
C280 H252 0.979 . S
C280 H253 0.980 . S
C280 H254 0.983 . S
C280 C276 1.684 . S
H281 C299 0.948 . S
H282 C240 0.948 1_556 S
H283 C258 0.979 . S
H284 C258 0.980 . S
H285 C258 0.983 . S
H286 C257 0.982 . S
H287 C257 0.979 . S
H288 C257 0.977 . S
H289 C259 0.948 . S
H290 C261 0.947 . S
H291 C262 0.948 . S
H292 C268 0.982 . S
H293 C268 0.979 . S
H294 C268 0.977 . S
H295 C269 0.979 . S
H296 C269 0.980 . S
H297 C269 0.983 . S
H298 C242 0.947 . S
C299 C242 1.392 . S
C299 C243 1.419 . S
C299 H281 0.948 . S
C300 C301 1.391 . S
C300 C304 1.391 . S
C300 H342 0.948 . S
C301 C300 1.391 . S
C301 C302 1.391 . S
C302 C301 1.391 . S
C302 H358 0.947 . S
C302 C359 1.392 . S
C303 C304 1.391 . S
C303 C307 1.397 . S
C303 C359 1.419 . S
C304 C300 1.391 . S
C304 C303 1.391 . S
C304 C305 1.399 . S
C305 C304 1.399 . S
C305 C308 1.396 . S
C305 C317 1.453 . S
C305 C318 1.684 . S
H306 C330 0.948 1_556 S
C307 C303 1.397 . S
C307 C308 1.394 . S
C307 C326 1.723 1_554 S
C308 C305 1.396 . S
C308 C307 1.394 . S
C308 C338 1.723 . S
H309 C332 0.947 . S
H310 C333 0.948 . S
H311 C339 0.982 . S
H312 C340 0.979 . S
H313 C340 0.980 . S
H314 C340 0.983 . S
H315 C339 0.979 . S
H316 C339 0.977 . S
C317 C305 1.453 . S
C317 H346 0.982 . S
C317 H347 0.979 . S
C317 H348 0.977 . S
C318 C305 1.684 . S
C318 H343 0.979 . S
C318 H344 0.980 . S
C318 H345 0.983 . S
C319 C320 1.391 . S
C319 C324 1.391 . S
C319 H349 0.948 . S
C320 C319 1.391 . S
C320 C321 1.391 . S
C321 C320 1.391 . S
C321 C322 1.392 . S
C321 H350 0.947 . S
C322 C321 1.392 . S
C322 C323 1.419 . S
C322 H351 0.948 . S
C323 C322 1.419 . S
C323 C324 1.391 . S
C323 C327 1.397 . S
C324 C319 1.391 . S
C324 C323 1.391 . S
C324 C325 1.399 . S
C325 C324 1.399 . S
C325 C326 1.396 . S
C325 C328 1.453 . S
C325 C329 1.684 . S
C326 C307 1.723 1_556 S
C326 C325 1.396 . S
C326 C327 1.394 . S
C327 C323 1.397 . S
C327 C326 1.394 . S
C327 C337 1.723 . S
C328 C325 1.453 . S
C328 H352 0.982 . S
C328 H353 0.979 . S
C328 H354 0.977 . S
C329 C325 1.684 . S
C329 H355 0.979 . S
C329 H356 0.980 . S
C329 H357 0.983 . S
C330 H306 0.948 1_554 S
C330 C331 1.391 . S
C330 C335 1.391 . S
C331 C330 1.391 . S
C331 C332 1.391 . S
C332 H309 0.947 . S
C332 C331 1.391 . S
C332 C333 1.392 . S
C333 H310 0.948 . S
C333 C332 1.392 . S
C333 C334 1.419 . S
C334 C333 1.419 . S
C334 C335 1.391 . S
C334 C338 1.397 . S
C335 C330 1.391 . S
C335 C334 1.391 . S
C335 C336 1.399 1_554 S
C336 C335 1.399 1_556 S
C336 C337 1.396 . S
C336 C339 1.453 . S
C336 C340 1.684 . S
C337 C327 1.723 . S
C337 C336 1.396 . S
C337 C338 1.394 1_556 S
C338 C308 1.723 . S
C338 C334 1.397 . S
C338 C337 1.394 1_554 S
C339 H311 0.982 . S
C339 H315 0.979 . S
C339 H316 0.977 . S
C339 C336 1.453 . S
C340 H312 0.979 . S
C340 H313 0.980 . S
C340 H314 0.983 . S
C340 C336 1.684 . S
H341 C359 0.948 . S
H342 C300 0.948 . S
H343 C318 0.979 . S
H344 C318 0.980 . S
H345 C318 0.983 . S
H346 C317 0.982 . S
H347 C317 0.979 . S
H348 C317 0.977 . S
H349 C319 0.948 . S
H350 C321 0.947 . S
H351 C322 0.948 . S
H352 C328 0.982 . S
H353 C328 0.979 . S
H354 C328 0.977 . S
H355 C329 0.979 . S
H356 C329 0.980 . S
H357 C329 0.983 . S
H358 C302 0.947 . S
C359 C302 1.392 . S
C359 C303 1.419 . S
C359 H341 0.948 . S
C360 C361 1.391 . S
C360 C364 1.391 . S
C360 H402 0.948 . S
C361 C360 1.391 . S
C361 C362 1.391 . S
C362 C361 1.391 . S
C362 H418 0.947 . S
C362 C419 1.392 . S
C363 C364 1.391 . S
C363 C367 1.397 . S
C363 C419 1.419 . S
C364 C360 1.391 . S
C364 C363 1.391 . S
C364 C365 1.399 . S
C365 C364 1.399 . S
C365 C368 1.396 . S
C365 C377 1.453 . S
C365 C378 1.684 . S
H366 C390 0.948 . S
C367 C363 1.397 . S
C367 C368 1.394 . S
C367 C386 1.723 1_556 S
C368 C365 1.396 . S
C368 C367 1.394 . S
C368 C398 1.723 1_556 S
H369 C392 0.940 1_556 S
H370 C393 0.948 . S
H371 C399 0.982 . S
H372 C400 0.979 . S
H373 C400 0.980 . S
H374 C400 0.983 . S
H375 C399 0.979 . S
H376 C399 0.977 . S
C377 C365 1.453 . S
C377 H406 0.982 . S
C377 H407 0.979 . S
C377 H408 0.977 . S
C378 C365 1.684 . S
C378 H403 0.979 . S
C378 H404 0.980 . S
C378 H405 0.983 . S
C379 C380 1.391 . S
C379 C384 1.391 . S
C379 H409 0.948 . S
C380 C379 1.391 . S
C380 C381 1.391 . S
C381 C380 1.391 . S
C381 C382 1.392 . S
C381 H410 0.947 . S
C382 C381 1.392 . S
C382 C383 1.419 . S
C382 H411 0.948 . S
C383 C382 1.419 . S
C383 C384 1.391 . S
C383 C387 1.397 . S
C384 C379 1.391 . S
C384 C383 1.391 . S
C384 C385 1.399 . S
C385 C384 1.399 . S
C385 C386 1.396 . S
C385 C388 1.453 . S
C385 C389 1.684 . S
C386 C367 1.723 1_554 S
C386 C385 1.396 . S
C386 C387 1.394 . S
C387 C383 1.397 . S
C387 C386 1.394 . S
C387 C397 1.723 . S
C388 C385 1.453 . S
C388 H412 0.982 . S
C388 H413 0.979 . S
C388 H414 0.977 1_554 S
C389 C385 1.684 . S
C389 H415 0.979 . S
C389 H416 0.980 1_554 S
C389 H417 0.983 . S
C390 H366 0.948 . S
C390 C391 1.391 . S
C390 C395 1.391 . S
C391 C390 1.391 . S
C391 C392 1.401 . S
C392 H369 0.940 1_554 S
C392 C391 1.401 . S
C392 C393 1.389 1_554 S
C393 H370 0.948 . S
C393 C392 1.389 1_556 S
C393 C394 1.419 1_556 S
C394 C393 1.419 1_554 S
C394 C395 1.391 . S
C394 C398 1.397 . S
C395 C390 1.391 . S
C395 C394 1.391 . S
C395 C396 1.399 . S
C396 C395 1.399 . S
C396 C397 1.396 . S
C396 C399 1.453 . S
C396 C400 1.684 . S
C397 C387 1.723 . S
C397 C396 1.396 . S
C397 C398 1.394 . S
C398 C368 1.723 1_554 S
C398 C394 1.397 . S
C398 C397 1.394 . S
C399 H371 0.982 . S
C399 H375 0.979 . S
C399 H376 0.977 . S
C399 C396 1.453 . S
C400 H372 0.979 . S
C400 H373 0.980 . S
C400 H374 0.983 . S
C400 C396 1.684 . S
H401 C419 0.948 . S
H402 C360 0.948 . S
H403 C378 0.979 . S
H404 C378 0.980 . S
H405 C378 0.983 . S
H406 C377 0.982 . S
H407 C377 0.979 . S
H408 C377 0.977 . S
H409 C379 0.948 . S
H410 C381 0.947 . S
H411 C382 0.948 . S
H412 C388 0.982 . S
H413 C388 0.979 . S
H414 C388 0.977 1_556 S
H415 C389 0.979 . S
H416 C389 0.980 1_556 S
H417 C389 0.983 . S
H418 C362 0.947 . S
C419 C362 1.392 . S
C419 C363 1.419 . S
C419 H401 0.948 . S
C420 C421 1.391 . S
C420 C424 1.391 . S
C420 H462 0.948 . S
C421 C420 1.391 . S
C421 C422 1.391 . S
C422 C421 1.391 . S
C422 H478 0.947 . S
C422 C479 1.392 . S
C423 C424 1.391 . S
C423 C427 1.397 . S
C423 C479 1.419 . S
C424 C420 1.391 . S
C424 C423 1.391 . S
C424 C425 1.399 . S
C425 C424 1.399 . S
C425 C428 1.396 . S
C425 C437 1.453 . S
C425 C438 1.684 . S
H426 C450 0.948 . S
C427 C423 1.397 . S
C427 C428 1.394 . S
C427 C446 1.723 1_556 S
C428 C425 1.396 . S
C428 C427 1.394 . S
C428 C458 1.723 1_556 S
H429 C452 0.947 1_556 S
H430 C453 0.948 . S
H431 C459 0.982 . S
H432 C460 0.979 . S
H433 C460 0.980 . S
H434 C460 0.983 . S
H435 C459 0.979 . S
H436 C459 0.977 . S
C437 C425 1.453 . S
C437 H466 0.982 . S
C437 H467 0.979 . S
C437 H468 0.977 . S
C438 C425 1.684 . S
C438 H463 0.979 . S
C438 H464 0.980 . S
C438 H465 0.983 . S
C439 C440 1.391 . S
C439 C444 1.391 . S
C439 H469 0.948 . S
C440 C439 1.391 . S
C440 C441 1.391 . S
C441 C440 1.391 . S
C441 C442 1.392 . S
C441 H470 0.947 . S
C442 C441 1.392 . S
C442 C443 1.419 . S
C442 H471 0.948 . S
C443 C442 1.419 . S
C443 C444 1.391 . S
C443 C447 1.397 . S
C444 C439 1.391 . S
C444 C443 1.391 . S
C444 C445 1.399 . S
C445 C444 1.399 . S
C445 C446 1.396 . S
C445 C448 1.453 . S
C445 C449 1.684 . S
C446 C427 1.723 1_554 S
C446 C445 1.396 . S
C446 C447 1.394 . S
C447 C443 1.397 . S
C447 C446 1.394 . S
C447 C457 1.723 . S
C448 C445 1.453 . S
C448 H472 0.982 . S
C448 H473 0.979 . S
C448 H474 0.977 1_554 S
C449 C445 1.684 . S
C449 H475 0.979 . S
C449 H476 0.980 1_554 S
C449 H477 0.983 . S
C450 H426 0.948 . S
C450 C451 1.391 . S
C450 C455 1.391 . S
C451 C450 1.391 . S
C451 C452 1.391 . S
C452 H429 0.947 1_554 S
C452 C451 1.391 . S
C452 C453 1.392 1_554 S
C453 H430 0.948 . S
C453 C452 1.392 1_556 S
C453 C454 1.419 1_556 S
C454 C453 1.419 1_554 S
C454 C455 1.391 . S
C454 C458 1.397 . S
C455 C450 1.391 . S
C455 C454 1.391 . S
C455 C456 1.399 . S
C456 C455 1.399 . S
C456 C457 1.396 . S
C456 C459 1.453 . S
C456 C460 1.684 . S
C457 C447 1.723 . S
C457 C456 1.396 . S
C457 C458 1.394 . S
C458 C428 1.723 1_554 S
C458 C454 1.397 . S
C458 C457 1.394 . S
C459 H431 0.982 . S
C459 H435 0.979 . S
C459 H436 0.977 . S
C459 C456 1.453 . S
C460 H432 0.979 . S
C460 H433 0.980 . S
C460 H434 0.983 . S
C460 C456 1.684 . S
H461 C479 0.948 . S
H462 C420 0.948 . S
H463 C438 0.979 . S
H464 C438 0.980 . S
H465 C438 0.983 . S
H466 C437 0.982 . S
H467 C437 0.979 . S
H468 C437 0.977 . S
H469 C439 0.948 . S
H470 C441 0.947 . S
H471 C442 0.948 . S
H472 C448 0.982 . S
H473 C448 0.979 . S
H474 C448 0.977 1_556 S
H475 C449 0.979 . S
H476 C449 0.980 1_556 S
H477 C449 0.983 . S
H478 C422 0.947 . S
C479 C422 1.392 . S
C479 C423 1.419 . S
C479 H461 0.948 . S
Eu480 N511 2.657 1_565 S
Eu480 N518 2.609 . S
Eu480 O524 2.558 . S
Eu480 O525 2.612 1_455 S
Eu480 O527 2.339 1_455 S
Eu480 O528 2.563 . S
Eu480 O529 2.419 . S
Eu480 O531 2.380 1_565 S
Eu480 O532 2.432 . S
Eu480 C544 2.848 . S
C481 C484 1.429 1_545 S
C481 C485 1.411 . S
C481 N488 1.377 . S
C482 C484 1.420 . S
C482 C486 1.423 . S
C482 C494 1.392 . S
C483 C485 1.420 1_565 S
C483 C486 1.351 . S
C483 H506 0.931 . S
C484 C481 1.429 1_565 S
C484 C482 1.420 . S
C484 N492 1.363 . S
C485 C481 1.411 . S
C485 C483 1.420 1_545 S
C485 C490 1.395 . S
C486 C482 1.423 . S
C486 C483 1.351 . S
C486 H498 0.930 . S
C487 C489 1.400 . S
C487 C490 1.386 . S
C487 H499 0.930 . S
N488 C481 1.377 . S
N488 C489 1.321 . S
N488 Eu491 2.609 . S
C489 C487 1.400 . S
C489 N488 1.321 . S
C489 H496 0.930 . S
C490 C485 1.395 . S
C490 C487 1.386 . S
C490 H509 0.930 . S
Eu491 N488 2.609 . S
Eu491 N492 2.653 1_545 S
Eu491 O525 2.380 1_545 S
Eu491 O526 2.432 . S
Eu491 O530 2.558 . S
Eu491 O531 2.612 1_655 S
Eu491 O533 2.339 1_655 S
Eu491 O534 2.563 1_655 S
Eu491 O535 2.419 . S
Eu491 C555 2.848 . S
N492 C484 1.363 . S
N492 Eu491 2.653 1_565 S
N492 C493 1.336 1_655 S
C493 N492 1.336 1_455 S
C493 C495 1.413 1_455 S
C493 H500 0.929 . S
C494 C482 1.392 . S
C494 C495 1.378 . S
C494 H502 0.930 . S
C495 C493 1.413 1_655 S
C495 C494 1.378 . S
C495 H497 0.921 1_655 S
H496 C489 0.930 . S
H497 C495 0.921 1_455 S
H498 C486 0.930 . S
H499 C487 0.930 . S
H500 C493 0.929 . S
H501 C515 0.930 1_655 S
H502 C494 0.930 . S
H503 C521 0.930 . S
H504 C512 0.929 1_655 S
H505 C519 0.930 . S
H506 C483 0.931 . S
H507 C513 0.930 . S
H508 C546 0.930 . S
H509 C490 0.930 . S
H510 C545 0.931 . S
N511 Eu480 2.657 1_545 S
N511 C512 1.334 . S
N511 C516 1.362 . S
C512 H504 0.929 1_455 S
C512 N511 1.334 . S
C512 C515 1.413 . S
C513 H507 0.930 . S
C513 C514 1.392 . S
C513 C515 1.367 . S
C514 C513 1.392 . S
C514 C516 1.420 . S
C514 C546 1.423 . S
C515 H501 0.930 1_455 S
C515 C512 1.413 . S
C515 C513 1.367 . S
C516 N511 1.362 . S
C516 C514 1.420 . S
C516 C520 1.429 . S
H517 C522 0.930 . S
N518 Eu480 2.609 . S
N518 C520 1.377 1_565 S
N518 C521 1.321 . S
C519 H505 0.930 . S
C519 C521 1.400 . S
C519 C522 1.386 . S
C520 C516 1.429 . S
C520 N518 1.377 1_545 S
C520 C523 1.411 . S
C521 H503 0.930 . S
C521 N518 1.321 . S
C521 C519 1.400 . S
C522 H517 0.930 . S
C522 C519 1.386 . S
C522 C523 1.395 1_565 S
C523 C520 1.411 . S
C523 C522 1.395 1_545 S
C523 C545 1.420 . S
O524 Eu480 2.558 . S
O524 C544 1.257 . S
O525 Eu480 2.612 1_655 S
O525 Eu491 2.380 1_565 S
O525 C536 1.276 . S
O526 Eu491 2.432 . S
O526 C543 1.264 . S
O527 Eu480 2.339 1_655 S
O527 C543 1.254 1_565 S
O528 Eu480 2.563 . S
O528 C536 1.235 1_455 S
O529 Eu480 2.419 . S
O529 C544 1.249 . S
O530 Eu491 2.558 . S
O530 C555 1.257 . S
O531 Eu480 2.380 1_545 S
O531 Eu491 2.612 1_455 S
O531 C547 1.276 . S
O532 Eu480 2.432 . S
O532 C554 1.264 1_565 S
O533 Eu491 2.339 1_455 S
O533 C554 1.254 . S
O534 Eu491 2.563 1_455 S
O534 C547 1.235 . S
O535 Eu491 2.419 . S
O535 C555 1.249 . S
C536 O525 1.276 . S
C536 O528 1.235 1_655 S
C537 C539 1.393 . S
C537 C541 1.395 . S
C537 C544 1.492 . S
C538 C539 1.392 . S
C538 C540 1.386 . S
C539 C537 1.393 . S
C539 C538 1.392 . S
C539 H556 0.930 1_455 S
C540 C538 1.386 . S
C540 C542 1.395 . S
C540 H557 0.930 . S
C541 C537 1.395 . S
C541 C542 1.379 . S
C541 H558 0.930 . S
C542 C540 1.395 . S
C542 C541 1.379 . S
C542 H559 0.930 . S
C543 O526 1.264 . S
C543 O527 1.254 1_545 S
C544 Eu480 2.848 . S
C544 O524 1.257 . S
C544 O529 1.249 . S
C544 C537 1.492 . S
C545 H510 0.931 . S
C545 C523 1.420 . S
C545 C546 1.351 . S
C546 H508 0.930 . S
C546 C514 1.423 . S
C546 C545 1.351 . S
C547 O531 1.276 . S
C547 O534 1.235 . S
C548 C549 1.393 . S
C548 C552 1.395 . S
C548 C555 1.492 . S
C549 C548 1.393 . S
C549 C550 1.392 . S
C549 H560 0.930 1_655 S
C550 C549 1.392 . S
C550 C551 1.386 . S
C551 C550 1.386 . S
C551 C553 1.395 . S
C551 H561 0.930 . S
C552 C548 1.395 . S
C552 C553 1.379 . S
C552 H562 0.930 . S
C553 C551 1.395 . S
C553 C552 1.379 . S
C553 H563 0.930 . S
C554 O532 1.264 1_545 S
C554 O533 1.254 . S
C555 Eu491 2.848 . S
C555 O530 1.257 . S
C555 O535 1.249 . S
C555 C548 1.492 . S
H556 C539 0.930 1_655 S
H557 C540 0.930 . S
H558 C541 0.930 . S
H559 C542 0.930 . S
H560 C549 0.930 1_455 S
H561 C551 0.930 . S
H562 C552 0.930 . S
H563 C553 0.930 . S
Eu564 N595 2.657 . S
Eu564 N602 2.609 . S
Eu564 O608 2.558 . S
Eu564 O609 2.612 1_545 S
Eu564 O611 2.339 1_545 S
Eu564 O612 2.563 . S
Eu564 O613 2.419 . S
Eu564 O615 2.380 . S
Eu564 O616 2.432 . S
Eu564 C628 2.848 . S
C565 C568 1.429 . S
C565 C569 1.411 . S
C565 N572 1.377 . S
C566 C568 1.420 . S
C566 C570 1.423 . S
C566 C578 1.392 . S
C567 C569 1.420 . S
C567 C570 1.351 . S
C567 H590 0.931 . S
C568 C565 1.429 . S
C568 C566 1.420 . S
C568 N576 1.362 . S
C569 C565 1.411 . S
C569 C567 1.420 . S
C569 C574 1.395 . S
C570 C566 1.423 . S
C570 C567 1.351 . S
C570 H582 0.930 . S
C571 C573 1.400 . S
C571 C574 1.386 . S
C571 H583 0.930 . S
N572 C565 1.377 . S
N572 C573 1.321 . S
N572 Eu575 2.609 . S
C573 C571 1.400 . S
C573 N572 1.321 . S
C573 H580 0.930 . S
C574 C569 1.395 . S
C574 C571 1.386 . S
C574 H593 0.930 . S
Eu575 N572 2.609 . S
Eu575 N576 2.657 . S
Eu575 O609 2.380 . S
Eu575 O610 2.432 . S
Eu575 O614 2.558 . S
Eu575 O615 2.612 1_565 S
Eu575 O617 2.339 1_565 S
Eu575 O618 2.563 1_565 S
Eu575 O619 2.419 . S
Eu575 C639 2.848 . S
N576 C568 1.362 . S
N576 Eu575 2.657 . S
N576 C577 1.334 1_565 S
C577 N576 1.334 1_545 S
C577 C579 1.413 . S
C577 H584 0.929 . S
C578 C566 1.392 . S
C578 C579 1.367 1_565 S
C578 H586 0.930 . S
C579 C577 1.413 . S
C579 C578 1.367 1_545 S
C579 H581 0.930 . S
H580 C573 0.930 . S
H581 C579 0.930 . S
H582 C570 0.930 . S
H583 C571 0.930 . S
H584 C577 0.929 . S
H585 C599 0.930 1_565 S
H586 C578 0.930 . S
H587 C605 0.930 . S
H588 C596 0.929 1_565 S
H589 C603 0.930 . S
H590 C567 0.931 . S
H591 C597 0.930 . S
H592 C630 0.930 . S
H593 C574 0.930 . S
H594 C629 0.931 . S
N595 Eu564 2.657 . S
N595 C596 1.334 . S
N595 C600 1.362 . S
C596 H588 0.929 1_545 S
C596 N595 1.334 . S
C596 C599 1.413 . S
C597 H591 0.930 . S
C597 C598 1.392 . S
C597 C599 1.367 . S
C598 C597 1.392 . S
C598 C600 1.420 . S
C598 C630 1.423 . S
C599 H585 0.930 1_545 S
C599 C596 1.413 . S
C599 C597 1.367 . S
C600 N595 1.362 . S
C600 C598 1.420 . S
C600 C604 1.429 . S
H601 C606 0.930 . S
N602 Eu564 2.609 . S
N602 C604 1.377 . S
N602 C605 1.321 . S
C603 H589 0.930 . S
C603 C605 1.400 . S
C603 C606 1.386 . S
C604 C600 1.429 . S
C604 N602 1.377 . S
C604 C607 1.411 . S
C605 H587 0.930 . S
C605 N602 1.321 . S
C605 C603 1.400 . S
C606 H601 0.930 . S
C606 C603 1.386 . S
C606 C607 1.395 . S
C607 C604 1.411 . S
C607 C606 1.395 . S
C607 C629 1.420 . S
O608 Eu564 2.558 . S
O608 C628 1.257 . S
O609 Eu564 2.612 1_565 S
O609 Eu575 2.380 . S
O609 C620 1.276 . S
O610 Eu575 2.432 . S
O610 C627 1.264 . S
O611 Eu564 2.339 1_565 S
O611 C627 1.254 . S
O612 Eu564 2.563 . S
O612 C620 1.235 1_545 S
O613 Eu564 2.419 . S
O613 C628 1.249 . S
O614 Eu575 2.558 . S
O614 C639 1.257 . S
O615 Eu564 2.380 . S
O615 Eu575 2.612 1_545 S
O615 C631 1.276 . S
O616 Eu564 2.432 . S
O616 C638 1.264 . S
O617 Eu575 2.339 1_545 S
O617 C638 1.254 . S
O618 Eu575 2.563 1_545 S
O618 C631 1.235 . S
O619 Eu575 2.419 . S
O619 C639 1.249 . S
C620 O609 1.276 . S
C620 O612 1.235 1_565 S
C621 C623 1.393 . S
C621 C625 1.395 . S
C621 C628 1.492 . S
C622 C623 1.392 . S
C622 C624 1.386 . S
C623 C621 1.393 . S
C623 C622 1.392 . S
C623 H640 0.930 . S
C624 C622 1.386 . S
C624 C626 1.395 . S
C624 H641 0.930 . S
C625 C621 1.395 . S
C625 C626 1.379 . S
C625 H642 0.930 . S
C626 C624 1.395 . S
C626 C625 1.379 . S
C626 H643 0.930 . S
C627 O610 1.264 . S
C627 O611 1.254 . S
C628 Eu564 2.848 . S
C628 O608 1.257 . S
C628 O613 1.249 . S
C628 C621 1.492 . S
C629 H594 0.931 . S
C629 C607 1.420 . S
C629 C630 1.351 . S
C630 H592 0.930 . S
C630 C598 1.423 . S
C630 C629 1.351 . S
C631 O615 1.276 . S
C631 O618 1.235 . S
C632 C633 1.393 . S
C632 C636 1.395 . S
C632 C639 1.492 . S
C633 C632 1.393 . S
C633 C634 1.392 . S
C633 H644 0.930 1_565 S
C634 C633 1.392 . S
C634 C635 1.386 . S
C635 C634 1.386 . S
C635 C637 1.395 . S
C635 H645 0.930 . S
C636 C632 1.395 . S
C636 C637 1.379 . S
C636 H646 0.930 . S
C637 C635 1.395 . S
C637 C636 1.379 . S
C637 H647 0.930 . S
C638 O616 1.264 . S
C638 O617 1.254 . S
C639 Eu575 2.848 . S
C639 O614 1.257 . S
C639 O619 1.249 . S
C639 C632 1.492 . S
H640 C623 0.930 . S
H641 C624 0.930 . S
H642 C625 0.930 . S
H643 C626 0.930 . S
H644 C633 0.930 1_545 S
H645 C635 0.930 . S
H646 C636 0.930 . S
H647 C637 0.930 . S
Eu648 N679 2.657 . S
Eu648 N686 2.609 . S
Eu648 O692 2.558 . S
Eu648 O693 2.612 . S
Eu648 O695 2.339 . S
Eu648 O696 2.563 . S
Eu648 O697 2.419 . S
Eu648 O699 2.380 . S
Eu648 O700 2.432 . S
Eu648 C712 2.848 . S
C649 C652 1.429 . S
C649 C653 1.411 . S
C649 N656 1.377 . S
C650 C652 1.420 . S
C650 C654 1.423 . S
C650 C662 1.392 . S
C651 C653 1.420 . S
C651 C654 1.351 . S
C651 H674 0.931 . S
C652 C649 1.429 . S
C652 C650 1.420 . S
C652 N660 1.362 . S
C653 C649 1.411 . S
C653 C651 1.420 . S
C653 C658 1.395 . S
C654 C650 1.423 . S
C654 C651 1.351 . S
C654 H666 0.930 . S
C655 C657 1.400 . S
C655 C658 1.386 . S
C655 H667 0.930 . S
N656 C649 1.377 . S
N656 C657 1.321 . S
N656 Eu659 2.609 . S
C657 C655 1.400 . S
C657 N656 1.321 . S
C657 H664 0.930 . S
C658 C653 1.395 . S
C658 C655 1.386 . S
C658 H677 0.930 . S
Eu659 N656 2.609 . S
Eu659 N660 2.657 . S
Eu659 O693 2.380 . S
Eu659 O694 2.432 . S
Eu659 O698 2.558 . S
Eu659 O699 2.612 . S
Eu659 O701 2.339 . S
Eu659 O702 2.563 . S
Eu659 O703 2.419 . S
Eu659 C723 2.848 . S
N660 C652 1.362 . S
N660 Eu659 2.657 . S
N660 C661 1.334 . S
C661 N660 1.334 . S
C661 C663 1.413 . S
C661 H668 0.929 . S
C662 C650 1.392 . S
C662 C663 1.367 . S
C662 H670 0.930 . S
C663 C661 1.413 . S
C663 C662 1.367 . S
C663 H665 0.930 . S
H664 C657 0.930 . S
H665 C663 0.930 . S
H666 C654 0.930 . S
H667 C655 0.930 . S
H668 C661 0.929 . S
H669 C683 0.930 . S
H670 C662 0.930 . S
H671 C689 0.930 . S
H672 C680 0.929 . S
H673 C687 0.930 . S
H674 C651 0.931 . S
H675 C681 0.930 . S
H676 C714 0.930 . S
H677 C658 0.930 . S
H678 C713 0.931 . S
N679 Eu648 2.657 . S
N679 C680 1.334 . S
N679 C684 1.362 . S
C680 H672 0.929 . S
C680 N679 1.334 . S
C680 C683 1.413 . S
C681 H675 0.930 . S
C681 C682 1.392 . S
C681 C683 1.367 . S
C682 C681 1.392 . S
C682 C684 1.420 . S
C682 C714 1.423 . S
C683 H669 0.930 . S
C683 C680 1.413 . S
C683 C681 1.367 . S
C684 N679 1.362 . S
C684 C682 1.420 . S
C684 C688 1.429 . S
H685 C690 0.930 . S
N686 Eu648 2.609 . S
N686 C688 1.377 . S
N686 C689 1.321 . S
C687 H673 0.930 . S
C687 C689 1.400 . S
C687 C690 1.386 . S
C688 C684 1.429 . S
C688 N686 1.377 . S
C688 C691 1.411 . S
C689 H671 0.930 . S
C689 N686 1.321 . S
C689 C687 1.400 . S
C690 H685 0.930 . S
C690 C687 1.386 . S
C690 C691 1.395 . S
C691 C688 1.411 . S
C691 C690 1.395 . S
C691 C713 1.420 . S
O692 Eu648 2.558 . S
O692 C712 1.257 . S
O693 Eu648 2.612 . S
O693 Eu659 2.380 . S
O693 C704 1.276 . S
O694 Eu659 2.432 . S
O694 C711 1.264 . S
O695 Eu648 2.339 . S
O695 C711 1.254 . S
O696 Eu648 2.563 . S
O696 C704 1.235 . S
O697 Eu648 2.419 . S
O697 C712 1.249 . S
O698 Eu659 2.558 . S
O698 C723 1.257 . S
O699 Eu648 2.380 . S
O699 Eu659 2.612 . S
O699 C715 1.276 . S
O700 Eu648 2.432 . S
O700 C722 1.264 . S
O701 Eu659 2.339 . S
O701 C722 1.254 . S
O702 Eu659 2.563 . S
O702 C715 1.235 . S
O703 Eu659 2.419 . S
O703 C723 1.249 . S
C704 O693 1.276 . S
C704 O696 1.235 . S
C705 C707 1.393 . S
C705 C709 1.395 . S
C705 C712 1.492 . S
C706 C707 1.392 . S
C706 C708 1.386 . S
C707 C705 1.393 . S
C707 C706 1.392 . S
C707 H724 0.930 . S
C708 C706 1.386 . S
C708 C710 1.395 . S
C708 H725 0.930 . S
C709 C705 1.395 . S
C709 C710 1.379 . S
C709 H726 0.930 . S
C710 C708 1.395 . S
C710 C709 1.379 . S
C710 H727 0.930 . S
C711 O694 1.264 . S
C711 O695 1.254 . S
C712 Eu648 2.848 . S
C712 O692 1.257 . S
C712 O697 1.249 . S
C712 C705 1.492 . S
C713 H678 0.931 . S
C713 C691 1.420 . S
C713 C714 1.351 . S
C714 H676 0.930 . S
C714 C682 1.423 . S
C714 C713 1.351 . S
C715 O699 1.276 . S
C715 O702 1.235 . S
C716 C717 1.393 . S
C716 C720 1.395 . S
C716 C723 1.492 . S
C717 C716 1.393 . S
C717 C718 1.392 . S
C717 H728 0.930 . S
C718 C717 1.392 . S
C718 C719 1.386 . S
C719 C718 1.386 . S
C719 C721 1.395 . S
C719 H729 0.930 . S
C720 C716 1.395 . S
C720 C721 1.379 . S
C720 H730 0.930 . S
C721 C719 1.395 . S
C721 C720 1.379 . S
C721 H731 0.930 . S
C722 O700 1.264 . S
C722 O701 1.254 . S
C723 Eu659 2.848 . S
C723 O698 1.257 . S
C723 O703 1.249 . S
C723 C716 1.492 . S
H724 C707 0.930 . S
H725 C708 0.930 . S
H726 C709 0.930 . S
H727 C710 0.930 . S
H728 C717 0.930 . S
H729 C719 0.930 . S
H730 C720 0.930 . S
H731 C721 0.930 . S
Eu732 N763 2.657 . S
Eu732 N770 2.609 . S
Eu732 O776 2.558 . S
Eu732 O777 2.612 . S
Eu732 O779 2.339 . S
Eu732 O780 2.563 . S
Eu732 O781 2.419 . S
Eu732 O783 2.383 . S
Eu732 O784 2.432 1_455 S
Eu732 C796 2.848 . S
C733 C736 1.429 . S
C733 C737 1.411 . S
C733 N740 1.377 . S
C734 C736 1.420 . S
C734 C738 1.423 . S
C734 C746 1.392 . S
C735 C737 1.420 . S
C735 C738 1.351 . S
C735 H758 0.931 . S
C736 C733 1.429 . S
C736 C734 1.420 . S
C736 N744 1.362 . S
C737 C733 1.411 . S
C737 C735 1.420 . S
C737 C742 1.395 . S
C738 C734 1.423 . S
C738 C735 1.351 . S
C738 H750 0.930 . S
C739 C741 1.400 . S
C739 C742 1.386 1_455 S
C739 H751 0.930 . S
N740 C733 1.377 . S
N740 C741 1.321 1_655 S
N740 Eu743 2.609 . S
C741 C739 1.400 . S
C741 N740 1.321 1_455 S
C741 H748 0.930 . S
C742 C737 1.395 . S
C742 C739 1.386 1_655 S
C742 H761 0.930 . S
Eu743 N740 2.609 . S
Eu743 N744 2.657 . S
Eu743 O777 2.380 1_655 S
Eu743 O778 2.432 1_655 S
Eu743 O782 2.558 . S
Eu743 O783 2.610 1_655 S
Eu743 O785 2.339 . S
Eu743 O786 2.563 . S
Eu743 O787 2.419 . S
Eu743 C807 2.848 . S
N744 C736 1.362 . S
N744 Eu743 2.657 . S
N744 C745 1.334 . S
C745 N744 1.334 . S
C745 C747 1.413 . S
C745 H752 0.929 . S
C746 C734 1.392 . S
C746 C747 1.367 . S
C746 H754 0.930 . S
C747 C745 1.413 . S
C747 C746 1.367 . S
C747 H749 0.930 . S
H748 C741 0.930 . S
H749 C747 0.930 . S
H750 C738 0.930 . S
H751 C739 0.930 . S
H752 C745 0.929 . S
H753 C767 0.930 . S
H754 C746 0.930 . S
H755 C773 0.930 1_655 S
H756 C764 0.929 . S
H757 C771 0.931 1_655 S
H758 C735 0.931 . S
H759 C765 0.930 . S
H760 C798 0.930 . S
H761 C742 0.930 . S
H762 C797 0.931 . S
N763 Eu732 2.657 . S
N763 C764 1.334 . S
N763 C768 1.362 . S
C764 H756 0.929 . S
C764 N763 1.334 . S
C764 C767 1.413 . S
C765 H759 0.930 . S
C765 C766 1.392 . S
C765 C767 1.367 . S
C766 C765 1.392 . S
C766 C768 1.420 . S
C766 C798 1.423 . S
C767 H753 0.930 . S
C767 C764 1.413 . S
C767 C765 1.367 . S
C768 N763 1.362 . S
C768 C766 1.420 . S
C768 C772 1.429 . S
H769 C774 0.930 . S
N770 Eu732 2.609 . S
N770 C772 1.377 . S
N770 C773 1.321 . S
C771 H757 0.931 1_455 S
C771 C773 1.399 . S
C771 C774 1.385 . S
C772 C768 1.429 . S
C772 N770 1.377 . S
C772 C775 1.411 . S
C773 H755 0.930 1_455 S
C773 N770 1.321 . S
C773 C771 1.399 . S
C774 H769 0.930 . S
C774 C771 1.385 . S
C774 C775 1.395 . S
C775 C772 1.411 . S
C775 C774 1.395 . S
C775 C797 1.420 . S
O776 Eu732 2.558 . S
O776 C796 1.257 . S
O777 Eu732 2.612 . S
O777 Eu743 2.380 1_455 S
O777 C788 1.276 . S
O778 Eu743 2.432 1_455 S
O778 C795 1.264 . S
O779 Eu732 2.339 . S
O779 C795 1.254 . S
O780 Eu732 2.563 . S
O780 C788 1.235 . S
O781 Eu732 2.419 . S
O781 C796 1.249 . S
O782 Eu743 2.558 . S
O782 C807 1.257 . S
O783 Eu732 2.383 . S
O783 Eu743 2.610 1_455 S
O783 C799 1.274 1_455 S
O784 Eu732 2.432 1_655 S
O784 C806 1.264 . S
O785 Eu743 2.339 . S
O785 C806 1.254 . S
O786 Eu743 2.563 . S
O786 C799 1.235 . S
O787 Eu743 2.419 . S
O787 C807 1.249 . S
C788 O777 1.276 . S
C788 O780 1.235 . S
C789 C791 1.393 . S
C789 C793 1.395 . S
C789 C796 1.492 . S
C790 C791 1.392 . S
C790 C792 1.386 . S
C791 C789 1.393 . S
C791 C790 1.392 . S
C791 H808 0.930 . S
C792 C790 1.386 . S
C792 C794 1.395 . S
C792 H809 0.930 . S
C793 C789 1.395 . S
C793 C794 1.379 . S
C793 H810 0.930 . S
C794 C792 1.395 . S
C794 C793 1.379 . S
C794 H811 0.930 . S
C795 O778 1.264 . S
C795 O779 1.254 . S
C796 Eu732 2.848 . S
C796 O776 1.257 . S
C796 O781 1.249 . S
C796 C789 1.492 . S
C797 H762 0.931 . S
C797 C775 1.420 . S
C797 C798 1.351 . S
C798 H760 0.930 . S
C798 C766 1.423 . S
C798 C797 1.351 . S
C799 O783 1.274 1_655 S
C799 O786 1.235 . S
C800 C801 1.393 . S
C800 C804 1.395 . S
C800 C807 1.492 . S
C801 C800 1.393 . S
C801 C802 1.392 . S
C801 H812 0.930 . S
C802 C801 1.392 . S
C802 C803 1.386 . S
C803 C802 1.386 . S
C803 C805 1.395 . S
C803 H813 0.930 . S
C804 C800 1.395 . S
C804 C805 1.379 . S
C804 H814 0.930 . S
C805 C803 1.395 . S
C805 C804 1.379 . S
C805 H815 0.930 . S
C806 O784 1.264 . S
C806 O785 1.254 . S
C807 Eu743 2.848 . S
C807 O782 1.257 . S
C807 O787 1.249 . S
C807 C800 1.492 . S
H808 C791 0.930 . S
H809 C792 0.930 . S
H810 C793 0.930 . S
H811 C794 0.930 . S
H812 C801 0.930 . S
H813 C803 0.930 . S
H814 C804 0.930 . S
H815 C805 0.930 . S
H816 C824 0.950 . S
H817 C829 0.950 . S
H818 C826 0.950 . S
H819 C828 0.950 . S
H820 C830 0.950 . S
H821 C832 0.950 . S
H822 C834 0.950 . S
H823 C835 0.950 1_565 S
C824 H816 0.950 . S
C824 C825 1.386 . S
C824 C826 1.391 . S
C825 C824 1.386 . S
C825 C829 1.393 . S
C826 H818 0.950 . S
C826 C824 1.391 . S
C826 C827 1.400 . S
C827 C826 1.400 . S
C827 C828 1.398 . S
C827 C833 1.491 . S
C828 H819 0.950 . S
C828 C827 1.398 . S
C828 C829 1.391 . S
C829 H817 0.950 . S
C829 C825 1.393 . S
C829 C828 1.391 . S
C830 H820 0.950 . S
C830 C831 1.386 . S
C830 C832 1.391 . S
C831 C830 1.386 . S
C831 C835 1.393 . S
C832 H821 0.950 . S
C832 C830 1.391 . S
C832 C833 1.400 . S
C833 C827 1.491 . S
C833 C832 1.400 . S
C833 C834 1.398 . S
C834 H822 0.950 . S
C834 C833 1.398 . S
C834 C835 1.391 . S
C835 H823 0.950 1_545 S
C835 C831 1.393 . S
C835 C834 1.391 . S
H836 C844 0.950 . S
H837 C849 0.950 . S
H838 C846 0.950 . S
H839 C848 0.950 . S
H840 C850 0.950 . S
H841 C852 0.950 . S
H842 C854 0.950 . S
H843 C855 0.950 . S
C844 H836 0.950 . S
C844 C845 1.386 . S
C844 C846 1.391 . S
C845 C844 1.386 . S
C845 C849 1.393 . S
C846 H838 0.950 . S
C846 C844 1.391 . S
C846 C847 1.400 . S
C847 C846 1.400 . S
C847 C848 1.398 . S
C847 C853 1.491 . S
C848 H839 0.950 . S
C848 C847 1.398 . S
C848 C849 1.391 . S
C849 H837 0.950 . S
C849 C845 1.393 . S
C849 C848 1.391 . S
C850 H840 0.950 . S
C850 C851 1.386 . S
C850 C852 1.391 . S
C851 C850 1.386 . S
C851 C855 1.393 . S
C852 H841 0.950 . S
C852 C850 1.391 . S
C852 C853 1.400 . S
C853 C847 1.491 . S
C853 C852 1.400 . S
C853 C854 1.398 . S
C854 H842 0.950 . S
C854 C853 1.398 . S
C854 C855 1.391 . S
C855 H843 0.950 . S
C855 C851 1.393 . S
C855 C854 1.391 . S
H856 C864 0.950 . S
H857 C869 0.950 . S
H858 C866 0.950 . S
H859 C868 0.950 . S
H860 C870 0.950 . S
H861 C872 0.950 . S
H862 C874 0.950 . S
H863 C875 0.950 . S
C864 H856 0.950 . S
C864 C865 1.386 . S
C864 C866 1.391 . S
C865 C864 1.386 . S
C865 C869 1.393 . S
C866 H858 0.950 . S
C866 C864 1.391 . S
C866 C867 1.400 . S
C867 C866 1.400 . S
C867 C868 1.398 . S
C867 C873 1.491 . S
C868 H859 0.950 . S
C868 C867 1.398 . S
C868 C869 1.391 . S
C869 H857 0.950 . S
C869 C865 1.393 . S
C869 C868 1.391 . S
C870 H860 0.950 . S
C870 C871 1.386 . S
C870 C872 1.391 . S
C871 C870 1.386 . S
C871 C875 1.393 . S
C872 H861 0.950 . S
C872 C870 1.391 . S
C872 C873 1.400 . S
C873 C867 1.491 . S
C873 C872 1.400 . S
C873 C874 1.398 . S
C874 H862 0.950 . S
C874 C873 1.398 . S
C874 C875 1.391 . S
C875 H863 0.950 . S
C875 C871 1.393 . S
C875 C874 1.391 . S
H876 C884 0.950 . S
H877 C889 0.950 . S
H878 C886 0.950 . S
H879 C888 0.950 . S
H880 C890 0.950 1_655 S
H881 C892 0.950 . S
H882 C894 0.950 . S
H883 C895 0.950 . S
C884 H876 0.950 . S
C884 C885 1.386 . S
C884 C886 1.391 . S
C885 C884 1.386 . S
C885 C889 1.393 . S
C886 H878 0.950 . S
C886 C884 1.391 . S
C886 C887 1.400 . S
C887 C886 1.400 . S
C887 C888 1.398 . S
C887 C893 1.491 . S
C888 H879 0.950 . S
C888 C887 1.398 . S
C888 C889 1.391 . S
C889 H877 0.950 . S
C889 C885 1.393 . S
C889 C888 1.391 . S
C890 H880 0.950 1_455 S
C890 C891 1.386 . S
C890 C892 1.391 . S
C891 C890 1.386 . S
C891 C895 1.393 . S
C892 H881 0.950 . S
C892 C890 1.391 . S
C892 C893 1.400 . S
C893 C887 1.491 . S
C893 C892 1.400 . S
C893 C894 1.398 . S
C894 H882 0.950 . S
C894 C893 1.398 . S
C894 C895 1.391 . S
C895 H883 0.950 . S
C895 C891 1.393 . S
C895 C894 1.391 . S
H896 C904 0.950 . S
H897 C909 0.950 . S
H898 C906 0.950 . S
H899 C908 0.950 . S
H900 C910 0.950 . S
H901 C912 0.950 . S
H902 C914 0.950 . S
H903 C915 0.950 1_545 S
C904 H896 0.950 . S
C904 C905 1.386 . S
C904 C906 1.391 1_554 S
C905 C904 1.386 . S
C905 C909 1.393 . S
C906 H898 0.950 . S
C906 C904 1.391 1_556 S
C906 C907 1.400 . S
C907 C906 1.400 . S
C907 C908 1.398 . S
C907 C913 1.491 . S
C908 H899 0.950 . S
C908 C907 1.398 . S
C908 C909 1.391 1_556 S
C909 H897 0.950 . S
C909 C905 1.393 . S
C909 C908 1.391 1_554 S
C910 H900 0.950 . S
C910 C911 1.386 . S
C910 C912 1.391 . S
C911 C910 1.386 . S
C911 C915 1.393 . S
C912 H901 0.950 . S
C912 C910 1.391 . S
C912 C913 1.400 . S
C913 C907 1.491 . S
C913 C912 1.400 . S
C913 C914 1.398 . S
C914 H902 0.950 . S
C914 C913 1.398 . S
C914 C915 1.391 . S
C915 H903 0.950 1_565 S
C915 C911 1.393 . S
C915 C914 1.391 . S
H916 C924 0.950 . S
H917 C929 0.950 . S
H918 C926 0.950 . S
H919 C928 0.950 . S
H920 C930 0.950 . S
H921 C932 0.950 . S
H922 C934 0.950 . S
H923 C935 0.950 . S
C924 H916 0.950 . S
C924 C925 1.386 . S
C924 C926 1.391 1_554 S
C925 C924 1.386 . S
C925 C929 1.393 . S
C926 H918 0.950 . S
C926 C924 1.391 1_556 S
C926 C927 1.400 . S
C927 C926 1.400 . S
C927 C928 1.398 . S
C927 C933 1.491 . S
C928 H919 0.950 . S
C928 C927 1.398 . S
C928 C929 1.391 1_556 S
C929 H917 0.950 . S
C929 C925 1.393 . S
C929 C928 1.391 1_554 S
C930 H920 0.950 . S
C930 C931 1.386 . S
C930 C932 1.391 . S
C931 C930 1.386 . S
C931 C935 1.393 . S
C932 H921 0.950 . S
C932 C930 1.391 . S
C932 C933 1.400 . S
C933 C927 1.491 . S
C933 C932 1.400 . S
C933 C934 1.398 . S
C934 H922 0.950 . S
C934 C933 1.398 . S
C934 C935 1.391 . S
C935 H923 0.950 . S
C935 C931 1.393 . S
C935 C934 1.391 . S
H936 C944 0.950 . S
H937 C949 0.950 . S
H938 C946 0.950 . S
H939 C948 0.950 . S
H940 C950 0.950 . S
H941 C952 0.950 . S
H942 C954 0.950 . S
H943 C955 0.950 . S
C944 H936 0.950 . S
C944 C945 1.386 . S
C944 C946 1.391 1_554 S
C945 C944 1.386 . S
C945 C949 1.393 . S
C946 H938 0.950 . S
C946 C944 1.391 1_556 S
C946 C947 1.400 . S
C947 C946 1.400 . S
C947 C948 1.398 . S
C947 C953 1.491 . S
C948 H939 0.950 . S
C948 C947 1.398 . S
C948 C949 1.391 1_556 S
C949 H937 0.950 . S
C949 C945 1.393 . S
C949 C948 1.391 1_554 S
C950 H940 0.950 . S
C950 C951 1.386 . S
C950 C952 1.391 . S
C951 C950 1.386 . S
C951 C955 1.393 . S
C952 H941 0.950 . S
C952 C950 1.391 . S
C952 C953 1.400 . S
C953 C947 1.491 . S
C953 C952 1.400 . S
C953 C954 1.398 . S
C954 H942 0.950 . S
C954 C953 1.398 . S
C954 C955 1.391 . S
C955 H943 0.950 . S
C955 C951 1.393 . S
C955 C954 1.391 . S
H956 C964 0.950 . S
H957 C969 0.950 . S
H958 C966 0.950 . S
H959 C968 0.950 . S
H960 C970 0.950 . S
H961 C972 0.950 . S
H962 C974 0.943 1_455 S
H963 C975 0.950 1_455 S
C964 H956 0.950 . S
C964 C965 1.386 . S
C964 C966 1.391 . S
C965 C964 1.386 . S
C965 C969 1.393 . S
C966 H958 0.950 . S
C966 C964 1.391 . S
C966 C967 1.400 1_554 S
C967 C966 1.400 1_556 S
C967 C968 1.398 . S
C967 C973 1.491 . S
C968 H959 0.950 . S
C968 C967 1.398 . S
C968 C969 1.391 1_556 S
C969 H957 0.950 . S
C969 C965 1.393 . S
C969 C968 1.391 1_554 S
C970 H960 0.950 . S
C970 C971 1.386 . S
C970 C972 1.391 . S
C971 C970 1.386 . S
C971 C975 1.393 . S
C972 H961 0.950 . S
C972 C970 1.391 . S
C972 C973 1.400 . S
C973 C967 1.491 . S
C973 C972 1.400 . S
C973 C974 1.398 . S
C974 H962 0.943 1_655 S
C974 C973 1.398 . S
C974 C975 1.391 . S
C975 H963 0.950 1_655 S
C975 C971 1.393 . S
C975 C974 1.391 . S
H976 C984 0.950 . S
H977 C989 0.950 . S
H978 C986 0.950 . S
H979 C988 0.950 . S
H980 C990 0.950 . S
H981 C992 0.950 . S
H982 C994 0.950 . S
H983 C995 0.950 . S
C984 H976 0.950 . S
C984 C985 1.386 . S
C984 C986 1.391 . S
C985 C984 1.386 . S
C985 C989 1.393 . S
C986 H978 0.950 . S
C986 C984 1.391 . S
C986 C987 1.400 . S
C987 C986 1.400 . S
C987 C988 1.398 . S
C987 C993 1.491 . S
C988 H979 0.950 . S
C988 C987 1.398 . S
C988 C989 1.391 . S
C989 H977 0.950 . S
C989 C985 1.393 . S
C989 C988 1.391 . S
C990 H980 0.950 . S
C990 C991 1.386 1_655 S
C990 C992 1.391 1_655 S
C991 C990 1.386 1_455 S
C991 C995 1.393 . S
C992 H981 0.950 . S
C992 C990 1.391 1_455 S
C992 C993 1.400 . S
C993 C987 1.491 . S
C993 C992 1.400 . S
C993 C994 1.398 . S
C994 H982 0.950 . S
C994 C993 1.398 . S
C994 C995 1.391 . S
C995 H983 0.950 . S
C995 C991 1.393 . S
C995 C994 1.391 . S
H996 C1004 0.950 . S
H997 C1009 0.950 . S
H998 C1006 0.950 . S
H999 C1008 0.950 . S
H1000 C1010 0.950 . S
H1001 C1012 0.950 . S
H1002 C1014 0.950 1_565 S
H1003 C1015 0.950 . S
C1004 H996 0.950 . S
C1004 C1005 1.386 . S
C1004 C1006 1.391 . S
C1005 C1004 1.386 . S
C1005 C1009 1.393 . S
C1006 H998 0.950 . S
C1006 C1004 1.391 . S
C1006 C1007 1.400 . S
C1007 C1006 1.400 . S
C1007 C1008 1.398 . S
C1007 C1013 1.491 . S
C1008 H999 0.950 . S
C1008 C1007 1.398 . S
C1008 C1009 1.391 . S
C1009 H997 0.950 . S
C1009 C1005 1.393 . S
C1009 C1008 1.391 . S
C1010 H1000 0.950 . S
C1010 C1011 1.405 . S
C1010 C1012 1.391 . S
C1011 C1010 1.405 . S
C1011 C1015 1.385 1_545 S
C1012 H1001 0.950 . S
C1012 C1010 1.391 . S
C1012 C1013 1.400 . S
C1013 C1007 1.491 . S
C1013 C1012 1.400 . S
C1013 C1014 1.398 . S
C1014 H1002 0.950 1_545 S
C1014 C1013 1.398 . S
C1014 C1015 1.391 1_545 S
C1015 H1003 0.950 . S
C1015 C1011 1.385 1_565 S
C1015 C1014 1.391 1_565 S
H1016 C1024 0.950 . S
H1017 C1029 0.950 . S
H1018 C1026 0.950 . S
H1019 C1028 0.950 . S
H1020 C1030 0.950 . S
H1021 C1032 0.950 . S
H1022 C1034 0.950 . S
H1023 C1035 0.950 . S
C1024 H1016 0.950 . S
C1024 C1025 1.386 . S
C1024 C1026 1.391 . S
C1025 C1024 1.386 . S
C1025 C1029 1.393 . S
C1026 H1018 0.950 . S
C1026 C1024 1.391 . S
C1026 C1027 1.400 . S
C1027 C1026 1.400 . S
C1027 C1028 1.398 . S
C1027 C1033 1.491 . S
C1028 H1019 0.950 . S
C1028 C1027 1.398 . S
C1028 C1029 1.391 . S
C1029 H1017 0.950 . S
C1029 C1025 1.393 . S
C1029 C1028 1.391 . S
C1030 H1020 0.950 . S
C1030 C1031 1.386 . S
C1030 C1032 1.391 . S
C1031 C1030 1.386 . S
C1031 C1035 1.393 . S
C1032 H1021 0.950 . S
C1032 C1030 1.391 . S
C1032 C1033 1.400 . S
C1033 C1027 1.491 . S
C1033 C1032 1.400 . S
C1033 C1034 1.398 . S
C1034 H1022 0.950 . S
C1034 C1033 1.398 . S
C1034 C1035 1.391 . S
C1035 H1023 0.950 . S
C1035 C1031 1.393 . S
C1035 C1034 1.391 . S
H1036 C1044 0.950 . S
H1037 C1049 0.950 . S
H1038 C1046 0.950 . S
H1039 C1048 0.950 . S
H1040 C1050 0.950 . S
H1041 C1052 0.950 . S
H1042 C1054 0.950 . S
H1043 C1055 0.950 . S
C1044 H1036 0.950 . S
C1044 C1045 1.386 . S
C1044 C1046 1.391 . S
C1045 C1044 1.386 . S
C1045 C1049 1.393 . S
C1046 H1038 0.950 . S
C1046 C1044 1.391 . S
C1046 C1047 1.400 . S
C1047 C1046 1.400 . S
C1047 C1048 1.398 . S
C1047 C1053 1.491 . S
C1048 H1039 0.950 . S
C1048 C1047 1.398 . S
C1048 C1049 1.391 . S
C1049 H1037 0.950 . S
C1049 C1045 1.393 . S
C1049 C1048 1.391 . S
C1050 H1040 0.950 . S
C1050 C1051 1.386 . S
C1050 C1052 1.391 . S
C1051 C1050 1.386 . S
C1051 C1055 1.393 . S
C1052 H1041 0.950 . S
C1052 C1050 1.391 . S
C1052 C1053 1.400 . S
C1053 C1047 1.491 . S
C1053 C1052 1.400 . S
C1053 C1054 1.398 . S
C1054 H1042 0.950 . S
C1054 C1053 1.398 . S
C1054 C1055 1.391 . S
C1055 H1043 0.950 . S
C1055 C1051 1.393 . S
C1055 C1054 1.391 . S
H1056 C1064 0.950 . S
H1057 C1069 0.950 . S
H1058 C1066 0.950 . S
H1059 C1068 0.950 . S
H1060 C1070 0.950 . S
H1061 C1072 0.950 . S
H1062 C1074 0.962 . S
H1063 C1075 0.950 . S
C1064 H1056 0.950 . S
C1064 C1065 1.386 1_554 S
C1064 C1066 1.391 1_554 S
C1065 C1064 1.386 1_556 S
C1065 C1069 1.393 . S
C1066 H1058 0.950 . S
C1066 C1064 1.391 1_556 S
C1066 C1067 1.400 . S
C1067 C1066 1.400 . S
C1067 C1068 1.398 . S
C1067 C1073 1.491 . S
C1068 H1059 0.950 . S
C1068 C1067 1.398 . S
C1068 C1069 1.391 . S
C1069 H1057 0.950 . S
C1069 C1065 1.393 . S
C1069 C1068 1.391 . S
C1070 H1060 0.950 . S
C1070 C1071 1.386 1_655 S
C1070 C1072 1.391 . S
C1071 C1070 1.386 1_455 S
C1071 C1075 1.393 . S
C1072 H1061 0.950 . S
C1072 C1070 1.391 . S
C1072 C1073 1.400 . S
C1073 C1067 1.491 . S
C1073 C1072 1.400 . S
C1073 C1074 1.367 1_655 S
C1074 H1062 0.962 . S
C1074 C1073 1.367 1_455 S
C1074 C1075 1.411 . S
C1075 H1063 0.950 . S
C1075 C1071 1.393 . S
C1075 C1074 1.411 . S
H1076 C1084 0.950 . S
H1077 C1089 0.950 . S
H1078 C1086 0.950 . S
H1079 C1088 0.950 . S
H1080 C1090 0.950 . S
H1081 C1092 0.950 . S
H1082 C1094 0.950 . S
H1083 C1095 0.950 . S
C1084 H1076 0.950 . S
C1084 C1085 1.386 1_554 S
C1084 C1086 1.391 . S
C1085 C1084 1.386 1_556 S
C1085 C1089 1.393 . S
C1086 H1078 0.950 . S
C1086 C1084 1.391 . S
C1086 C1087 1.400 1_554 S
C1087 C1086 1.400 1_556 S
C1087 C1088 1.398 . S
C1087 C1093 1.491 . S
C1088 H1079 0.950 . S
C1088 C1087 1.398 . S
C1088 C1089 1.391 . S
C1089 H1077 0.950 . S
C1089 C1085 1.393 . S
C1089 C1088 1.391 . S
C1090 H1080 0.950 . S
C1090 C1091 1.386 1_565 S
C1090 C1092 1.391 . S
C1091 C1090 1.386 1_545 S
C1091 C1095 1.393 . S
C1092 H1081 0.950 . S
C1092 C1090 1.391 . S
C1092 C1093 1.400 . S
C1093 C1087 1.491 . S
C1093 C1092 1.400 . S
C1093 C1094 1.398 . S
C1094 H1082 0.950 . S
C1094 C1093 1.398 . S
C1094 C1095 1.391 1_565 S
C1095 H1083 0.950 . S
C1095 C1091 1.393 . S
C1095 C1094 1.391 1_545 S
H1096 C1104 0.950 . S
H1097 C1109 0.950 . S
H1098 C1106 0.950 . S
H1099 C1108 0.950 . S
H1100 C1110 0.950 . S
H1101 C1112 0.950 . S
H1102 C1114 0.950 . S
H1103 C1115 0.950 . S
C1104 H1096 0.950 . S
C1104 C1105 1.386 1_554 S
C1104 C1106 1.391 . S
C1105 C1104 1.386 1_556 S
C1105 C1109 1.393 . S
C1106 H1098 0.950 . S
C1106 C1104 1.391 . S
C1106 C1107 1.400 1_554 S
C1107 C1106 1.400 1_556 S
C1107 C1108 1.398 . S
C1107 C1113 1.491 . S
C1108 H1099 0.950 . S
C1108 C1107 1.398 . S
C1108 C1109 1.391 . S
C1109 H1097 0.950 . S
C1109 C1105 1.393 . S
C1109 C1108 1.391 . S
C1110 H1100 0.950 . S
C1110 C1111 1.386 . S
C1110 C1112 1.391 . S
C1111 C1110 1.386 . S
C1111 C1115 1.393 . S
C1112 H1101 0.950 . S
C1112 C1110 1.391 . S
C1112 C1113 1.400 . S
C1113 C1107 1.491 . S
C1113 C1112 1.400 . S
C1113 C1114 1.398 . S
C1114 H1102 0.950 . S
C1114 C1113 1.398 . S
C1114 C1115 1.391 . S
C1115 H1103 0.950 . S
C1115 C1111 1.393 . S
C1115 C1114 1.391 . S
H1116 C1124 0.950 . S
H1117 C1129 0.950 . S
H1118 C1126 0.950 . S
H1119 C1128 0.950 1_554 S
H1120 C1130 0.950 . S
H1121 C1132 0.950 . S
H1122 C1134 0.950 . S
H1123 C1135 0.950 . S
C1124 H1116 0.950 . S
C1124 C1125 1.386 . S
C1124 C1126 1.391 . S
C1125 C1124 1.386 . S
C1125 C1129 1.393 1_556 S
C1126 H1118 0.950 . S
C1126 C1124 1.391 . S
C1126 C1127 1.400 . S
C1127 C1126 1.400 . S
C1127 C1128 1.398 . S
C1127 C1133 1.491 . S
C1128 H1119 0.950 1_556 S
C1128 C1127 1.398 . S
C1128 C1129 1.391 1_556 S
C1129 H1117 0.950 . S
C1129 C1125 1.393 1_554 S
C1129 C1128 1.391 1_554 S
C1130 H1120 0.950 . S
C1130 C1131 1.386 . S
C1130 C1132 1.391 . S
C1131 C1130 1.386 . S
C1131 C1135 1.393 . S
C1132 H1121 0.950 . S
C1132 C1130 1.391 . S
C1132 C1133 1.400 . S
C1133 C1127 1.491 . S
C1133 C1132 1.400 . S
C1133 C1134 1.398 . S
C1134 H1122 0.950 . S
C1134 C1133 1.398 . S
C1134 C1135 1.391 . S
C1135 H1123 0.950 . S
C1135 C1131 1.393 . S
C1135 C1134 1.391 . S
H1136 C1144 0.950 . S
H1137 C1149 0.950 . S
H1138 C1146 0.950 . S
H1139 C1148 0.950 . S
H1140 C1150 0.950 . S
H1141 C1152 0.950 . S
H1142 C1154 0.950 . S
H1143 C1155 0.950 . S
C1144 H1136 0.950 . S
C1144 C1145 1.386 . S
C1144 C1146 1.391 . S
C1145 C1144 1.386 . S
C1145 C1149 1.393 . S
C1146 H1138 0.950 . S
C1146 C1144 1.391 . S
C1146 C1147 1.400 . S
C1147 C1146 1.400 . S
C1147 C1148 1.398 . S
C1147 C1153 1.491 . S
C1148 H1139 0.950 . S
C1148 C1147 1.398 . S
C1148 C1149 1.391 . S
C1149 H1137 0.950 . S
C1149 C1145 1.393 . S
C1149 C1148 1.391 . S
C1150 H1140 0.950 . S
C1150 C1151 1.386 . S
C1150 C1152 1.391 . S
C1151 C1150 1.386 . S
C1151 C1155 1.393 . S
C1152 H1141 0.950 . S
C1152 C1150 1.391 . S
C1152 C1153 1.400 . S
C1153 C1147 1.491 . S
C1153 C1152 1.400 . S
C1153 C1154 1.398 . S
C1154 H1142 0.950 . S
C1154 C1153 1.398 . S
C1154 C1155 1.391 . S
C1155 H1143 0.950 . S
C1155 C1151 1.393 . S
C1155 C1154 1.391 . S
H1156 C1164 0.950 . S
H1157 C1169 0.950 . S
H1158 C1166 0.950 . S
H1159 C1168 0.950 . S
H1160 C1170 0.950 . S
H1161 C1172 0.950 . S
H1162 C1174 0.950 . S
H1163 C1175 0.950 . S
C1164 H1156 0.950 . S
C1164 C1165 1.386 . S
C1164 C1166 1.391 . S
C1165 C1164 1.386 . S
C1165 C1169 1.393 . S
C1166 H1158 0.950 . S
C1166 C1164 1.391 . S
C1166 C1167 1.400 . S
C1167 C1166 1.400 . S
C1167 C1168 1.398 . S
C1167 C1173 1.491 . S
C1168 H1159 0.950 . S
C1168 C1167 1.398 . S
C1168 C1169 1.391 . S
C1169 H1157 0.950 . S
C1169 C1165 1.393 . S
C1169 C1168 1.391 . S
C1170 H1160 0.950 . S
C1170 C1171 1.386 . S
C1170 C1172 1.391 . S
C1171 C1170 1.386 . S
C1171 C1175 1.393 . S
C1172 H1161 0.950 . S
C1172 C1170 1.391 . S
C1172 C1173 1.400 . S
C1173 C1167 1.491 . S
C1173 C1172 1.400 . S
C1173 C1174 1.398 . S
C1174 H1162 0.950 . S
C1174 C1173 1.398 . S
C1174 C1175 1.391 . S
C1175 H1163 0.950 . S
C1175 C1171 1.393 . S
C1175 C1174 1.391 . S
H1176 C1184 0.950 . S
H1177 C1189 0.950 . S
H1178 C1186 0.950 . S
H1179 C1188 0.950 . S
H1180 C1190 0.950 . S
H1181 C1192 0.950 . S
H1182 C1194 0.950 . S
H1183 C1195 0.950 . S
C1184 H1176 0.950 . S
C1184 C1185 1.386 . S
C1184 C1186 1.391 . S
C1185 C1184 1.386 . S
C1185 C1189 1.393 . S
C1186 H1178 0.950 . S
C1186 C1184 1.391 . S
C1186 C1187 1.400 . S
C1187 C1186 1.400 . S
C1187 C1188 1.398 . S
C1187 C1193 1.491 . S
C1188 H1179 0.950 . S
C1188 C1187 1.398 . S
C1188 C1189 1.391 . S
C1189 H1177 0.950 . S
C1189 C1185 1.393 . S
C1189 C1188 1.391 . S
C1190 H1180 0.950 . S
C1190 C1191 1.386 . S
C1190 C1192 1.391 . S
C1191 C1190 1.386 . S
C1191 C1195 1.393 . S
C1192 H1181 0.950 . S
C1192 C1190 1.391 . S
C1192 C1193 1.400 . S
C1193 C1187 1.491 . S
C1193 C1192 1.400 . S
C1193 C1194 1.398 . S
C1194 H1182 0.950 . S
C1194 C1193 1.398 . S
C1194 C1195 1.391 . S
C1195 H1183 0.950 . S
C1195 C1191 1.393 . S
C1195 C1194 1.391 . S
H1196 C1204 0.950 . S
H1197 C1209 0.950 . S
H1198 C1206 0.950 . S
H1199 C1208 0.950 . S
H1200 C1210 0.950 . S
H1201 C1212 0.950 . S
H1202 C1214 0.950 . S
H1203 C1215 0.950 . S
C1204 H1196 0.950 . S
C1204 C1205 1.386 . S
C1204 C1206 1.391 . S
C1205 C1204 1.386 . S
C1205 C1209 1.393 . S
C1206 H1198 0.950 . S
C1206 C1204 1.391 . S
C1206 C1207 1.400 . S
C1207 C1206 1.400 . S
C1207 C1208 1.398 . S
C1207 C1213 1.491 . S
C1208 H1199 0.950 . S
C1208 C1207 1.398 . S
C1208 C1209 1.391 . S
C1209 H1197 0.950 . S
C1209 C1205 1.393 . S
C1209 C1208 1.391 . S
C1210 H1200 0.950 . S
C1210 C1211 1.386 . S
C1210 C1212 1.391 . S
C1211 C1210 1.386 . S
C1211 C1215 1.393 . S
C1212 H1201 0.950 . S
C1212 C1210 1.391 . S
C1212 C1213 1.400 . S
C1213 C1207 1.491 . S
C1213 C1212 1.400 . S
C1213 C1214 1.398 . S
C1214 H1202 0.950 . S
C1214 C1213 1.398 . S
C1214 C1215 1.391 . S
C1215 H1203 0.950 . S
C1215 C1211 1.393 . S
C1215 C1214 1.391 . S
H1216 C1224 0.950 . S
H1217 C1229 0.950 . S
H1218 C1226 0.950 . S
H1219 C1228 0.950 . S
H1220 C1230 0.950 . S
H1221 C1232 0.950 . S
H1222 C1234 0.950 . S
H1223 C1235 0.950 . S
C1224 H1216 0.950 . S
C1224 C1225 1.386 . S
C1224 C1226 1.391 . S
C1225 C1224 1.386 . S
C1225 C1229 1.393 . S
C1226 H1218 0.950 . S
C1226 C1224 1.391 . S
C1226 C1227 1.400 . S
C1227 C1226 1.400 . S
C1227 C1228 1.398 . S
C1227 C1233 1.491 . S
C1228 H1219 0.950 . S
C1228 C1227 1.398 . S
C1228 C1229 1.391 . S
C1229 H1217 0.950 . S
C1229 C1225 1.393 . S
C1229 C1228 1.391 . S
C1230 H1220 0.950 . S
C1230 C1231 1.386 . S
C1230 C1232 1.391 . S
C1231 C1230 1.386 . S
C1231 C1235 1.393 . S
C1232 H1221 0.950 . S
C1232 C1230 1.391 . S
C1232 C1233 1.400 . S
C1233 C1227 1.491 . S
C1233 C1232 1.400 . S
C1233 C1234 1.398 . S
C1234 H1222 0.950 . S
C1234 C1233 1.398 . S
C1234 C1235 1.391 . S
C1235 H1223 0.950 . S
C1235 C1231 1.393 . S
C1235 C1234 1.391 . S
H1236 C1244 0.950 . S
H1237 C1249 0.950 . S
H1238 C1246 0.950 . S
H1239 C1248 0.950 . S
H1240 C1250 0.950 . S
H1241 C1252 0.950 . S
H1242 C1254 0.950 . S
H1243 C1255 0.950 1_545 S
C1244 H1236 0.950 . S
C1244 C1245 1.386 . S
C1244 C1246 1.391 . S
C1245 C1244 1.386 . S
C1245 C1249 1.393 . S
C1246 H1238 0.950 . S
C1246 C1244 1.391 . S
C1246 C1247 1.400 . S
C1247 C1246 1.400 . S
C1247 C1248 1.398 . S
C1247 C1253 1.491 . S
C1248 H1239 0.950 . S
C1248 C1247 1.398 . S
C1248 C1249 1.391 . S
C1249 H1237 0.950 . S
C1249 C1245 1.393 . S
C1249 C1248 1.391 . S
C1250 H1240 0.950 . S
C1250 C1251 1.386 . S
C1250 C1252 1.391 . S
C1251 C1250 1.386 . S
C1251 C1255 1.393 . S
C1252 H1241 0.950 . S
C1252 C1250 1.391 . S
C1252 C1253 1.400 . S
C1253 C1247 1.491 . S
C1253 C1252 1.400 . S
C1253 C1254 1.398 . S
C1254 H1242 0.950 . S
C1254 C1253 1.398 . S
C1254 C1255 1.391 . S
C1255 H1243 0.950 1_565 S
C1255 C1251 1.393 . S
C1255 C1254 1.391 . S
H1256 C1264 0.950 . S
H1257 C1269 0.950 . S
H1258 C1266 0.950 . S
H1259 C1268 0.950 . S
H1260 C1270 0.950 . S
H1261 C1272 0.950 . S
H1262 C1274 0.950 . S
H1263 C1275 0.950 . S
C1264 H1256 0.950 . S
C1264 C1265 1.386 . S
C1264 C1266 1.391 . S
C1265 C1264 1.386 . S
C1265 C1269 1.393 . S
C1266 H1258 0.950 . S
C1266 C1264 1.391 . S
C1266 C1267 1.400 . S
C1267 C1266 1.400 . S
C1267 C1268 1.398 . S
C1267 C1273 1.491 . S
C1268 H1259 0.950 . S
C1268 C1267 1.398 . S
C1268 C1269 1.391 . S
C1269 H1257 0.950 . S
C1269 C1265 1.393 . S
C1269 C1268 1.391 . S
C1270 H1260 0.950 . S
C1270 C1271 1.386 . S
C1270 C1272 1.391 . S
C1271 C1270 1.386 . S
C1271 C1275 1.393 . S
C1272 H1261 0.950 . S
C1272 C1270 1.391 . S
C1272 C1273 1.400 . S
C1273 C1267 1.491 . S
C1273 C1272 1.400 . S
C1273 C1274 1.398 . S
C1274 H1262 0.950 . S
C1274 C1273 1.398 . S
C1274 C1275 1.391 . S
C1275 H1263 0.950 . S
C1275 C1271 1.393 . S
C1275 C1274 1.391 . S
H1276 C1284 0.950 . S
H1277 C1289 0.950 . S
H1278 C1286 0.950 . S
H1279 C1288 0.950 . S
H1280 C1290 0.950 . S
H1281 C1292 0.950 . S
H1282 C1294 0.950 . S
H1283 C1295 0.950 . S
C1284 H1276 0.950 . S
C1284 C1285 1.386 . S
C1284 C1286 1.391 . S
C1285 C1284 1.386 . S
C1285 C1289 1.393 . S
C1286 H1278 0.950 . S
C1286 C1284 1.391 . S
C1286 C1287 1.400 . S
C1287 C1286 1.400 . S
C1287 C1288 1.398 . S
C1287 C1293 1.491 . S
C1288 H1279 0.950 . S
C1288 C1287 1.398 . S
C1288 C1289 1.391 . S
C1289 H1277 0.950 . S
C1289 C1285 1.393 . S
C1289 C1288 1.391 . S
C1290 H1280 0.950 . S
C1290 C1291 1.386 . S
C1290 C1292 1.391 . S
C1291 C1290 1.386 . S
C1291 C1295 1.393 . S
C1292 H1281 0.950 . S
C1292 C1290 1.391 . S
C1292 C1293 1.400 . S
C1293 C1287 1.491 . S
C1293 C1292 1.400 . S
C1293 C1294 1.398 . S
C1294 H1282 0.950 . S
C1294 C1293 1.398 . S
C1294 C1295 1.391 . S
C1295 H1283 0.950 . S
C1295 C1291 1.393 . S
C1295 C1294 1.391 . S
C825 C391 2.373 . S
C831 C554 2.323 . S
C851 C638 2.363 . S
C845 C451 2.406 . S
C871 C704 2.281 . S
C865 C241 2.194 . S
C891 C788 2.272 . S
C885 C331 2.183 . S
C911 C543 2.343 1_565 S
C905 C121 2.133 . S
C925 C211 2.342 . S
C931 C627 2.363 . S
C945 C31 2.440 . S
C951 C715 2.260 . S
C965 C91 2.252 . S
C971 C799 2.272 . S
C991 C550 0.641 1_455 S
C985 C301 0.694 . S
C1011 C634 0.558 1_545 S
C1005 C380 0.578 . S
C1031 C706 0.559 . S
C1025 C440 0.522 . S
C1045 C260 0.637 . S
C1051 C790 0.631 . S
C1065 C61 0.686 1_556 S
C1071 C538 0.633 . S
C1091 C622 0.589 . S
C1085 C140 0.609 1_556 S
C1111 C718 0.544 . S
C1105 C200 0.576 1_556 S
C1125 C20 0.691 . S
C1131 C802 0.593 . S
C1145 C320 2.877 . S
C1151 C547 2.913 . S
C1165 C361 2.537 . S
C1171 C631 2.868 . S
C1191 C711 2.929 . S
C1185 C421 2.410 . S
C1211 C795 2.965 . S
C1205 C271 2.742 . S
C1225 C80 2.922 . S
C1231 C536 2.916 . S
C1251 C620 2.868 . S
C1245 C151 2.873 . S
C1271 C722 2.927 . S
C1265 C181 2.343 . S
C1285 C1 2.375 . S
C1291 C806 2.961 . S
