# Generated by pormake.
# Topology zzz, (3,6)-cn, num edge types: 1
# Building blocks:
#     Node 0, Type 0, BuildingBlock: BELTOD_clean_linker_0, # of connection points: 3
#     Node 1, Type 0, BuildingBlock: BELTOD_clean_linker_0, # of connection points: 3
#     Node 2, Type 0, BuildingBlock: BELTOD_clean_linker_0, # of connection points: 3
#     Node 3, Type 0, BuildingBlock: BELTOD_clean_linker_0, # of connection points: 3
#     Node 4, Type 0, BuildingBlock: BELTOD_clean_linker_0, # of connection points: 3
#     Node 5, Type 0, BuildingBlock: BELTOD_clean_linker_0, # of connection points: 3
#     Node 6, Type 0, BuildingBlock: BELTOD_clean_linker_0, # of connection points: 3
#     Node 7, Type 0, BuildingBlock: BELTOD_clean_linker_0, # of connection points: 3
#     Node 8, Type 1, BuildingBlock: JUFBIX_clean_sbu_0, # of connection points: 6
#     Node 9, Type 1, BuildingBlock: JUFBIX_clean_sbu_0, # of connection points: 6
#     Node 10, Type 1, BuildingBlock: JUFBIX_clean_sbu_0, # of connection points: 6
#     Node 11, Type 1, BuildingBlock: JUFBIX_clean_sbu_0, # of connection points: 6
#     Edge 12, Type (0, 1), BuildingBlock: OJICUG_clean_linker_0, # of connection points: 2
#     Edge 13, Type (0, 1), BuildingBlock: OJICUG_clean_linker_0, # of connection points: 2
#     Edge 14, Type (0, 1), BuildingBlock: OJICUG_clean_linker_0, # of connection points: 2
#     Edge 15, Type (0, 1), BuildingBlock: OJICUG_clean_linker_0, # of connection points: 2
#     Edge 16, Type (0, 1), BuildingBlock: OJICUG_clean_linker_0, # of connection points: 2
#     Edge 17, Type (0, 1), BuildingBlock: OJICUG_clean_linker_0, # of connection points: 2
#     Edge 18, Type (0, 1), BuildingBlock: OJICUG_clean_linker_0, # of connection points: 2
#     Edge 19, Type (0, 1), BuildingBlock: OJICUG_clean_linker_0, # of connection points: 2
#     Edge 20, Type (0, 1), BuildingBlock: OJICUG_clean_linker_0, # of connection points: 2
#     Edge 21, Type (0, 1), BuildingBlock: OJICUG_clean_linker_0, # of connection points: 2
#     Edge 22, Type (0, 1), BuildingBlock: OJICUG_clean_linker_0, # of connection points: 2
#     Edge 23, Type (0, 1), BuildingBlock: OJICUG_clean_linker_0, # of connection points: 2
#     Edge 24, Type (0, 1), BuildingBlock: OJICUG_clean_linker_0, # of connection points: 2
#     Edge 25, Type (0, 1), BuildingBlock: OJICUG_clean_linker_0, # of connection points: 2
#     Edge 26, Type (0, 1), BuildingBlock: OJICUG_clean_linker_0, # of connection points: 2
#     Edge 27, Type (0, 1), BuildingBlock: OJICUG_clean_linker_0, # of connection points: 2
#     Edge 28, Type (0, 1), BuildingBlock: OJICUG_clean_linker_0, # of connection points: 2
#     Edge 29, Type (0, 1), BuildingBlock: OJICUG_clean_linker_0, # of connection points: 2
#     Edge 30, Type (0, 1), BuildingBlock: OJICUG_clean_linker_0, # of connection points: 2
#     Edge 31, Type (0, 1), BuildingBlock: OJICUG_clean_linker_0, # of connection points: 2
#     Edge 32, Type (0, 1), BuildingBlock: OJICUG_clean_linker_0, # of connection points: 2
#     Edge 33, Type (0, 1), BuildingBlock: OJICUG_clean_linker_0, # of connection points: 2
#     Edge 34, Type (0, 1), BuildingBlock: OJICUG_clean_linker_0, # of connection points: 2
#     Edge 35, Type (0, 1), BuildingBlock: OJICUG_clean_linker_0, # of connection points: 2
# Relax obj value: 0.253
# Max RMSD: 0.218
# Mean RMSD: 0.174
data_MOF--net-zzz--node1-JUFBIX_clean_sbu_0--node2-BELTOD_clean_linker_0--edge1-OJICUG_clean_linker_0
_symmetry_space_group_name_H-M    P1
_symmetry_Int_Tables_number       1
_symmetry_cell_setting            triclinic
loop_
_symmetry_equiv_pos_as_xyz
'x, y, z'
_cell_length_a     41.724056
_cell_length_b     43.078376
_cell_length_c     16.401285
_cell_angle_alpha  80.502488
_cell_angle_beta   90.320975
_cell_angle_gamma 85.804637
loop_
_atom_site_label
_atom_site_type_symbol
_atom_site_fract_x
_atom_site_fract_y
_atom_site_fract_z
_atom_type_partial_charge
P0 P 0.76272 0.48388 0.37322 0.0
H1 H 0.76287 0.48081 0.55284 0.0
H2 H 0.79756 0.50475 0.64063 0.0
H3 H 0.82583 0.5692 0.42739 0.0
H4 H 0.79156 0.54468 0.33948 0.0
H5 H 0.70584 0.45317 0.3358 0.0
H6 H 0.6649 0.46661 0.22731 0.0
H7 H 0.70196 0.55817 0.15723 0.0
H8 H 0.74353 0.54412 0.26521 0.0
H9 H 0.83248 0.47888 0.40078 0.0
H10 H 0.76667 0.47311 0.20054 0.0
O11 O 0.7564 0.4493 0.43123 0.0
H12 H 0.8776 0.47748 0.30662 0.0
H13 H 0.81173 0.47121 0.10698 0.0
C14 C 0.77489 0.51063 0.43934 0.0
C15 C 0.77537 0.501 0.52527 0.0
C16 C 0.79523 0.51484 0.57568 0.0
C17 C 0.81497 0.53846 0.54065 0.0
C18 C 0.81122 0.55076 0.45595 0.0
C19 C 0.79124 0.53697 0.40567 0.0
C20 C 0.72753 0.4978 0.30974 0.0
C21 C 0.70465 0.47651 0.2989 0.0
C22 C 0.68116 0.48425 0.23647 0.0
C23 C 0.68016 0.51345 0.18309 0.0
C24 C 0.70227 0.53533 0.19656 0.0
C25 C 0.72582 0.5275 0.25918 0.0
C26 C 0.79605 0.47742 0.30702 0.0
C27 C 0.82768 0.47719 0.33678 0.0
C28 C 0.85347 0.47633 0.28311 0.0
C29 C 0.84804 0.4747 0.19944 0.0
C30 C 0.81655 0.47253 0.17124 0.0
C31 C 0.79074 0.47386 0.22468 0.0
P32 P 0.07471 0.73918 0.35651 0.0
H33 H 0.08448 0.74606 0.52942 0.0
H34 H 0.06279 0.78591 0.60828 0.0
H35 H 0.99408 0.82149 0.41106 0.0
H36 H 0.01579 0.78148 0.33255 0.0
H37 H 0.10218 0.68434 0.2944 0.0
H38 H 0.07992 0.6497 0.20921 0.0
H39 H 0.98451 0.69124 0.24277 0.0
H40 H 0.00711 0.7259 0.329 0.0
H41 H 0.1205 0.78779 0.33 0.0
H42 H 0.04387 0.75688 0.19252 0.0
O43 O 0.1098 0.72486 0.40213 0.0
H44 H 0.12362 0.83419 0.22257 0.0
H45 H 0.046 0.80307 0.08781 0.0
C46 C 0.05172 0.76059 0.42507 0.0
C47 C 0.06408 0.76173 0.50409 0.0
C48 C 0.05188 0.7848 0.54885 0.0
C49 C 0.02705 0.80722 0.51538 0.0
C50 C 0.01308 0.8045 0.43886 0.0
C51 C 0.0254 0.78146 0.394 0.0
C52 C 0.05634 0.70754 0.31886 0.0
C53 C 0.07633 0.68521 0.28626 0.0
C54 C 0.06355 0.66541 0.23717 0.0
C55 C 0.03045 0.66786 0.2186 0.0
C56 C 0.01016 0.68901 0.25533 0.0
C57 C 0.02302 0.70864 0.30536 0.0
C58 C 0.08233 0.76857 0.26892 0.0
C59 C 0.10497 0.79051 0.27576 0.0
C60 C 0.10648 0.81717 0.21475 0.0
C61 C 0.08498 0.82247 0.14656 0.0
C62 C 0.06338 0.79957 0.13836 0.0
C63 C 0.06205 0.77297 0.19894 0.0
P64 P 0.76124 0.04425 0.20738 0.0
H65 H 0.73764 0.07055 0.34989 0.0
H66 H 0.6997 0.05119 0.45452 0.0
H67 H 0.70933 0.95954 0.37903 0.0
H68 H 0.74754 0.97931 0.27358 0.0
H69 H 0.78388 0.04121 0.04201 0.0
H70 H 0.83374 0.02034 0.98916 0.0
H71 H 0.86767 0.98495 0.23892 0.0
H72 H 0.8169 0.00587 0.29196 0.0
H73 H 0.70862 0.09155 0.1497 0.0
H74 H 0.73967 0.99687 0.11602 0.0
O75 O 0.76972 0.08117 0.21213 0.0
H76 H 0.65989 0.08944 0.0675 0.0
H77 H 0.69103 0.9944 0.03502 0.0
C78 C 0.74567 0.02631 0.30435 0.0
C79 C 0.73281 0.04588 0.35816 0.0
C80 C 0.71091 0.03476 0.41803 0.0
C81 C 0.70113 0.00391 0.42448 0.0
C82 C 0.71607 0.98355 0.37486 0.0
C83 C 0.73823 0.99469 0.31528 0.0
C84 C 0.79629 0.02426 0.17085 0.0
C85 C 0.80153 0.0281 0.08559 0.0
C86 C 0.83013 0.01611 0.05531 0.0
C87 C 0.85453 1.00065 0.10977 0.0
C88 C 0.84922 0.99664 0.19549 0.0
C89 C 0.82023 0.00841 0.22583 0.0
C90 C 0.72813 0.04473 0.13674 0.0
C91 C 0.70526 0.07058 0.12318 0.0
C92 C 0.67729 0.0692 0.07707 0.0
C93 C 0.67172 0.04179 0.04459 0.0
C94 C 0.69491 0.01605 0.05787 0.0
C95 C 0.72274 0.01745 0.1041 0.0
P96 P 0.43415 0.75604 0.19609 0.0
H97 H 0.42351 0.75833 0.37099 0.0
H98 H 0.44167 0.72097 0.49377 0.0
H99 H 0.51106 0.67613 0.3475 0.0
H100 H 0.49357 0.71427 0.22557 0.0
H101 H 0.39878 0.81354 0.11583 0.0
H102 H 0.41497 0.86377 0.04341 0.0
H103 H 0.51475 0.83041 0.08574 0.0
H104 H 0.49823 0.77975 0.1602 0.0
H105 H 0.3986 0.70063 0.19812 0.0
H106 H 0.4743 0.74481 0.05497 0.0
O107 O 0.39588 0.76227 0.22224 0.0
H108 H 0.40605 0.65501 0.12756 0.0
H109 H 0.48172 0.69935 0.98361 0.0
C110 C 0.45647 0.73846 0.28866 0.0
C111 C 0.44346 0.74126 0.36585 0.0
C112 C 0.45372 0.7197 0.43594 0.0
C113 C 0.47704 0.69492 0.42971 0.0
C114 C 0.49288 0.69475 0.35435 0.0
C115 C 0.48276 0.71654 0.28432 0.0
C116 C 0.4473 0.79311 0.14482 0.0
C117 C 0.42418 0.81701 0.11063 0.0
C118 C 0.43344 0.84578 0.0691 0.0
C119 C 0.46611 0.85112 0.05956 0.0
C120 C 0.48939 0.82689 0.09227 0.0
C121 C 0.48002 0.79809 0.13511 0.0
C122 C 0.4354 0.72641 0.13053 0.0
C123 C 0.4162 0.70091 0.14976 0.0
C124 C 0.42057 0.67478 0.10967 0.0
C125 C 0.44457 0.67353 0.05034 0.0
C126 C 0.46328 0.6995 0.02977 0.0
C127 C 0.45877 0.72571 0.06973 0.0
P128 P 0.1912 0.42886 0.3757 0.0
H129 H 0.17996 0.39047 0.2476 0.0
H130 H 0.14724 0.40247 0.12105 0.0
H131 H 0.13914 0.5011 0.14666 0.0
H132 H 0.17317 0.48906 0.2696 0.0
H133 H 0.23344 0.40275 0.51361 0.0
H134 H 0.27882 0.42303 0.57576 0.0
H135 H 0.27937 0.49918 0.36818 0.0
H136 H 0.23339 0.47864 0.3063 0.0
H137 H 0.12713 0.41467 0.43184 0.0
H138 H 0.18944 0.4902 0.43359 0.0
O139 O 0.18893 0.39017 0.40648 0.0
H140 H 0.08479 0.44473 0.49377 0.0
H141 H 0.14701 0.52069 0.49371 0.0
C142 C 0.17881 0.43883 0.26859 0.0
C143 C 0.17217 0.41484 0.22408 0.0
C144 C 0.15295 0.4217 0.15221 0.0
C145 C 0.13967 0.45266 0.12422 0.0
C146 C 0.1489 0.47698 0.16528 0.0
C147 C 0.16848 0.47013 0.23625 0.0
C148 C 0.23028 0.43893 0.40481 0.0
C149 C 0.244 0.42317 0.47985 0.0
C150 C 0.27001 0.43486 0.51554 0.0
C151 C 0.28266 0.46285 0.47727 0.0
C152 C 0.26995 0.47773 0.39964 0.0
C153 C 0.24391 0.46583 0.36366 0.0
C154 C 0.16173 0.44972 0.4302 0.0
C155 C 0.13182 0.43756 0.44638 0.0
C156 C 0.10747 0.45506 0.48043 0.0
C157 C 0.11245 0.48531 0.49783 0.0
C158 C 0.14251 0.49742 0.48156 0.0
C159 C 0.16688 0.47984 0.44759 0.0
P160 P 0.06418 0.23649 0.38534 0.0
H161 H 0.11302 0.22847 0.26156 0.0
H162 H 0.11417 0.19471 0.1561 0.0
H163 H 0.01195 0.18687 0.18124 0.0
H164 H 0.01086 0.22152 0.2851 0.0
H165 H 0.09271 0.29475 0.40599 0.0
H166 H 0.07127 0.34021 0.46402 0.0
H167 H 0.97594 0.30718 0.45692 0.0
H168 H 0.99748 0.26323 0.39255 0.0
H169 H 0.06423 0.16879 0.38648 0.0
H170 H 0.02549 0.23521 0.53737 0.0
O171 O 0.10276 0.23372 0.41506 0.0
H172 H 0.03952 0.12652 0.47432 0.0
H173 H 0.99878 0.19342 0.62216 0.0
C174 C 0.06195 0.227 0.28245 0.0
C175 C 0.09057 0.22074 0.24179 0.0
C176 C 0.09127 0.20107 0.18198 0.0
C177 C 0.06337 0.18715 0.16234 0.0
C178 C 0.03393 0.197 0.19505 0.0
C179 C 0.03322 0.21701 0.25437 0.0
C180 C 0.04681 0.27502 0.39765 0.0
C181 C 0.06703 0.29786 0.41441 0.0
C182 C 0.05472 0.32368 0.44904 0.0
C183 C 0.022 0.32683 0.46921 0.0
C184 C 0.00129 0.30571 0.44329 0.0
C185 C 0.01358 0.28037 0.40633 0.0
C186 C 0.04549 0.20563 0.45238 0.0
C187 C 0.04959 0.17454 0.437 0.0
C188 C 0.0351 0.15033 0.48703 0.0
C189 C 0.01631 0.15657 0.55427 0.0
C190 C 0.01281 0.1877 0.57061 0.0
C191 C 0.02778 0.21185 0.52111 0.0
P192 P 0.24291 0.09492 0.36313 0.0
H193 H 0.24207 0.12797 0.19204 0.0
H194 H 0.27922 0.11988 0.08203 0.0
H195 H 0.31044 0.02771 0.21718 0.0
H196 H 0.27245 0.03553 0.32502 0.0
H197 H 0.19442 0.12085 0.46324 0.0
H198 H 0.1549 0.09649 0.55648 0.0
H199 H 0.17658 0.0079 0.4703 0.0
H200 H 0.21583 0.03288 0.37485 0.0
H201 H 0.30869 0.11252 0.35273 0.0
H202 H 0.25344 0.04993 0.51994 0.0
O203 O 0.23756 0.13424 0.34827 0.0
H204 H 0.35767 0.0917 0.43191 0.0
H205 H 0.30212 0.02887 0.59793 0.0
C206 C 0.25495 0.08261 0.26753 0.0
C207 C 0.25572 0.10538 0.19609 0.0
C208 C 0.27736 0.10089 0.13363 0.0
C209 C 0.29872 0.07366 0.14231 0.0
C210 C 0.29454 0.04906 0.20843 0.0
C211 C 0.27259 0.05345 0.27031 0.0
C212 C 0.20778 0.07881 0.41129 0.0
C213 C 0.19001 0.09646 0.46227 0.0
C214 C 0.16777 0.08234 0.51667 0.0
C215 C 0.16314 0.05009 0.52209 0.0
C216 C 0.17963 0.03281 0.46749 0.0
C217 C 0.20192 0.04708 0.41257 0.0
C218 C 0.27732 0.08314 0.43073 0.0
C219 C 0.30702 0.09465 0.40706 0.0
C220 C 0.33503 0.08237 0.45147 0.0
C221 C 0.33373 0.05842 0.52057 0.0
C222 C 0.30382 0.0474 0.54512 0.0
C223 C 0.27587 0.05957 0.50044 0.0
P224 P 0.4705 0.30422 0.37979 0.0
H225 H 0.42812 0.31726 0.23309 0.0
H226 H 0.43124 0.35491 0.10611 0.0
H227 H 0.52952 0.36848 0.16909 0.0
H228 H 0.52691 0.3287 0.29171 0.0
H229 H 0.50542 0.28236 0.53701 0.0
H230 H 0.52137 0.22991 0.60971 0.0
H231 H 0.49494 0.19051 0.39532 0.0
H232 H 0.48047 0.24385 0.32055 0.0
H233 H 0.42817 0.35133 0.44269 0.0
H234 H 0.53018 0.32716 0.4363 0.0
O235 O 0.43172 0.29751 0.39029 0.0
H236 H 0.43825 0.39733 0.50432 0.0
H237 H 0.54063 0.37425 0.4946 0.0
C238 C 0.47709 0.32054 0.27314 0.0
C239 C 0.45076 0.32738 0.218 0.0
C240 C 0.45241 0.34955 0.1458 0.0
C241 C 0.48019 0.36599 0.12822 0.0
C242 C 0.50755 0.35667 0.17981 0.0
C243 C 0.50609 0.33385 0.25085 0.0
C244 C 0.49241 0.26735 0.42215 0.0
C245 C 0.50447 0.26281 0.5036 0.0
C246 C 0.51307 0.23251 0.54608 0.0
C247 C 0.50885 0.20584 0.50912 0.0
C248 C 0.49872 0.21048 0.42563 0.0
C249 C 0.4905 0.24102 0.38262 0.0
C250 C 0.47838 0.33556 0.43581 0.0
C251 C 0.45278 0.35576 0.45513 0.0
C252 C 0.45864 0.38242 0.48921 0.0
C253 C 0.49031 0.38982 0.50317 0.0
C254 C 0.51597 0.36921 0.48494 0.0
C255 C 0.51002 0.34234 0.45135 0.0
Co256 Co 0.03565 0.00563 0.9045 0.0
C257 C 0.97526 0.98621 0.94732 0.0
Co258 Co 0.01446 0.97947 0.8141 0.0
C259 C 0.0524 0.06063 0.97517 0.0
C260 C 0.06642 0.01716 0.05446 0.0
N261 N 0.05272 0.02888 0.97984 0.0
N262 N 0.06529 0.06895 0.04344 0.0
C263 C 0.07424 0.04159 0.09323 0.0
H264 H 0.04272 0.0775 0.92317 0.0
H265 H 0.06978 0.99245 0.0809 0.0
C266 C 0.07413 1.0003 0.76942 0.0
N267 N 0.99769 0.95604 0.74055 0.0
C268 C 0.01258 0.93051 0.71512 0.0
C269 C 0.96839 0.95943 0.70386 0.0
N270 N 0.99382 0.91756 0.66428 0.0
C271 C 0.96594 0.93587 0.65696 0.0
C272 C -4e-05 0.04357 0.77678 0.0
O273 O 0.07223 0.01148 0.83662 0.0
O274 O 0.05182 0.98425 0.74953 0.0
O275 O 0.99588 0.0178 0.75116 0.0
O276 O 0.01536 0.04284 0.84408 0.0
O277 O 0.97689 0.97543 0.87954 0.0
H278 H 0.94991 0.97765 0.7114 0.0
H279 H 0.0366 0.92124 0.73544 0.0
O280 O 0.99884 0.99994 0.97052 0.0
O281 O 0.05582 0.96769 0.9631 0.0
O282 O 0.03362 0.94158 0.87683 0.0
C283 C 0.05133 0.94166 0.93992 0.0
H284 H 0.0845 0.03935 0.15488 0.0
H285 H 0.94519 0.93268 0.62024 0.0
Co286 Co 0.48862 0.03779 0.83821 0.0
C287 C 0.49415 0.97264 0.87614 0.0
Co288 Co 0.51549 0.01557 0.74475 0.0
C289 C 0.43396 0.05035 0.93651 0.0
C290 C 0.4708 0.08148 0.94827 0.0
N291 N 0.46397 0.05677 0.91221 0.0
N292 N 0.42153 0.07031 0.98549 0.0
C293 C 0.4448 0.08985 0.99338 0.0
H294 H 0.42108 0.03203 0.91611 0.0
H295 H 0.49297 0.0931 0.94071 0.0
C296 C 0.50928 0.08095 0.70708 0.0
N297 N 0.54025 0.99659 0.6708 0.0
C298 C 0.56969 0.00432 0.64491 0.0
C299 C 0.53441 0.97142 0.63544 0.0
N300 N 0.58271 0.9849 0.59525 0.0
C301 C 0.56044 0.96424 0.58864 0.0
C302 C 0.45108 0.02436 0.70887 0.0
O303 O 0.49427 0.07796 0.77485 0.0
O304 O 0.52118 0.05632 0.68163 0.0
O305 O 0.47734 0.01365 0.68134 0.0
O306 O 0.45134 0.03526 0.77603 0.0
O307 O 0.50941 0.9749 0.80865 0.0
H308 H 0.51289 0.95878 0.64432 0.0
H309 H 0.58131 0.02398 0.66225 0.0
O310 O 0.48297 0.99767 0.9007 0.0
O311 O 0.52624 0.04045 0.9 0.0
O312 O 0.55324 0.01811 0.80824 0.0
C313 C 0.55286 0.03018 0.87388 0.0
H314 H 0.44319 0.10894 0.02888 0.0
H315 H 0.563 0.94492 0.55395 0.0
Co316 Co 0.50897 0.53065 0.78914 0.0
C317 C 0.4796 0.48106 0.88637 0.0
Co318 Co 0.45667 0.53031 0.76741 0.0
C319 C 0.56389 0.52858 0.89471 0.0
C320 C 0.57763 0.53413 0.76799 0.0
N321 N 0.55191 0.53115 0.81714 0.0
N322 N 0.59613 0.52978 0.89657 0.0
C323 C 0.60487 0.53329 0.81663 0.0
H324 H 0.54897 0.52621 0.94877 0.0
H325 H 0.57665 0.53662 0.70129 0.0
C326 C 0.48566 0.57981 0.67011 0.0
N327 N 0.41336 0.5304 0.73883 0.0
C328 C 0.39931 0.50987 0.69847 0.0
C329 C 0.39033 0.55384 0.74164 0.0
N330 N 0.36873 0.51983 0.67456 0.0
C331 C 0.36294 0.5474 0.70248 0.0
C332 C 0.46938 0.56648 0.88329 0.0
O333 O 0.51175 0.56705 0.70525 0.0
O334 O 0.45954 0.56715 0.68869 0.0
O335 O 0.4464 0.55565 0.84848 0.0
O336 O 0.49812 0.55811 0.86671 0.0
O337 O 0.45406 0.49317 0.84727 0.0
H338 H 0.39367 0.5751 0.76674 0.0
H339 H 0.41187 0.48888 0.68257 0.0
O340 O 0.50572 0.49431 0.87191 0.0
O341 O 0.51943 0.50323 0.71141 0.0
O342 O 0.46759 0.50534 0.68624 0.0
C343 C 0.49595 0.49526 0.67186 0.0
H344 H 0.62921 0.5346 0.79462 0.0
H345 H 0.3408 0.56237 0.69345 0.0
Co346 Co 0.9811 0.532 0.83693 0.0
C347 C 0.02886 0.48609 0.90649 0.0
Co348 Co 0.97564 0.48405 0.80854 0.0
C349 C 0.99275 0.57608 0.94574 0.0
C350 C 0.98221 0.59964 0.82211 0.0
N351 N 0.9858 0.57076 0.86891 0.0
N352 N 0.99353 0.60714 0.94904 0.0
C353 C 0.9869 0.62204 0.87116 0.0
H354 H 0.99665 0.55744 0.99856 0.0
H355 H 0.97649 0.60409 0.75662 0.0
C356 C 0.92853 0.53016 0.73736 0.0
N357 N 0.97022 0.44542 0.77525 0.0
C358 C 0.98978 0.42965 0.72794 0.0
C359 C 0.94248 0.43104 0.77767 0.0
N360 N 0.97505 0.40662 0.69923 0.0
C361 C 0.94534 0.4073 0.7308 0.0
C362 C 0.94352 0.49374 0.94757 0.0
O363 O 0.94344 0.54894 0.77315 0.0
O364 O 0.93872 0.50134 0.74502 0.0
O365 O 0.94995 0.47333 0.90129 0.0
O366 O 0.9549 0.52063 0.93079 0.0
O367 O 0.0133 0.46706 0.8727 0.0
H368 H 0.92081 0.43871 0.8069 0.0
H369 H 0.01352 0.43641 0.70967 0.0
O370 O 0.01843 0.5149 0.89907 0.0
O371 O 0.00766 0.54269 0.74301 0.0
O372 O 0.00094 0.49525 0.71642 0.0
C373 C 0.01293 0.52161 0.69781 0.0
H374 H 0.986 0.6473 0.85068 0.0
H375 H 0.92665 0.39247 0.71833 0.0
C376 C 0.12048 0.01318 0.57015 0.0
C377 C 0.14235 0.03461 0.58746 0.0
H378 H 0.08187 0.98522 0.61449 0.0
C379 C 0.14375 0.04199 0.66777 0.0
H380 H 0.11885 0.00703 0.50892 0.0
C381 C 0.12267 0.02954 0.72821 0.0
C382 C 0.0997 0.00935 0.70986 0.0
H383 H 0.16089 0.05783 0.68365 0.0
H384 H 0.12373 0.03659 0.78853 0.0
C385 C 0.09932 1.0007 0.63073 0.0
C386 C 0.52416 0.14703 0.52953 0.0
C387 C 0.51125 0.17376 0.56057 0.0
H388 H 0.53409 0.09668 0.55166 0.0
C389 C 0.49884 0.16956 0.64093 0.0
H390 H 0.53402 0.14942 0.46806 0.0
C391 C 0.49895 0.13958 0.6886 0.0
C392 C 0.51139 0.1128 0.65739 0.0
H393 H 0.48804 0.1894 0.66645 0.0
H394 H 0.48869 0.13741 0.74962 0.0
C395 C 0.52434 0.11685 0.57758 0.0
C396 C 0.30327 0.51044 0.52396 0.0
C397 C 0.30667 0.47783 0.52252 0.0
H398 H 0.32025 0.54933 0.57277 0.0
C399 C 0.33146 0.45941 0.57027 0.0
H400 H 0.28419 0.52528 0.48887 0.0
C401 C 0.35186 0.47315 0.61973 0.0
C402 C 0.34796 0.50565 0.62272 0.0
H403 H 0.33488 0.43425 0.57017 0.0
H404 H 0.37023 0.45813 0.65694 0.0
C405 C 0.32364 0.52416 0.5734 0.0
C406 C 0.97831 0.36272 0.51936 0.0
C407 C 0.01035 0.34966 0.52415 0.0
H408 H 0.94197 0.39087 0.57177 0.0
C409 C 0.03072 0.35682 0.58643 0.0
H410 H 0.96197 0.35847 0.47162 0.0
C411 C 0.01932 0.376 0.64258 0.0
C412 C 0.9871 0.38794 0.63929 0.0
H413 H 0.05531 0.34678 0.59407 0.0
H414 H 0.0354 0.38066 0.69044 0.0
C415 C 0.96678 0.38136 0.57672 0.0
C416 C 0.9146 1.00008 0.11072 0.0
C417 C 0.88623 0.99171 0.07626 0.0
H418 H 0.96503 0.00486 0.09704 0.0
C419 C 0.88809 0.9782 0.00384 0.0
H420 H 0.91392 0.01078 0.16606 0.0
C421 C 0.91737 0.9749 0.96398 0.0
C422 C 0.94537 0.98519 0.99557 0.0
H423 H 0.86666 0.97118 0.9764 0.0
H424 H 0.91774 0.96555 0.90657 0.0
C425 C 0.94385 0.99692 0.07071 0.0
C426 C 0.49771 0.88402 0.95175 0.0
C427 C 0.4753 0.88211 0.01574 0.0
H428 H 0.52104 0.91417 0.85641 0.0
C429 C 0.46021 0.91013 0.03514 0.0
H430 H 0.50954 0.86276 0.9352 0.0
C431 C 0.46685 0.9394 0.99069 0.0
C432 C 0.48854 0.94141 0.92506 0.0
H433 H 0.44303 0.90939 0.08461 0.0
H434 H 0.45445 0.96045 0.00695 0.0
C435 C 0.50412 0.91341 0.9064 0.0
C436 C 0.66792 0.53444 0.03287 0.0
C437 C 0.65765 0.51986 0.11047 0.0
H438 H 0.65646 0.54931 0.90448 0.0
C439 C 0.62642 0.50962 0.11682 0.0
H440 H 0.69196 0.54226 0.02538 0.0
C441 C 0.60627 0.51309 0.0471 0.0
C442 C 0.6167 0.52709 0.96904 0.0
H443 H 0.61758 0.49858 0.17572 0.0
H444 H 0.58277 0.50406 0.0545 0.0
C445 C 0.64769 0.53804 0.96309 0.0
C446 C 0.9971 0.66688 0.09136 0.0
C447 C 0.01805 0.65085 0.15445 0.0
H448 H 0.97282 0.66554 0.97684 0.0
C449 C 0.02935 0.61953 0.15104 0.0
H450 H 0.98826 0.69114 0.09152 0.0
C451 C 0.0207 0.60493 0.08484 0.0
C452 C 0.00071 0.62139 0.02015 0.0
H453 H 0.04541 0.60649 0.19887 0.0
H454 H 0.03059 0.58113 0.083 0.0
C455 C 0.98862 0.65236 0.02494 0.0
C456 C 0.00458 0.12965 0.69729 0.0
C457 C 0.00345 0.13006 0.61146 0.0
H458 H 0.0027 0.10207 0.81746 0.0
C459 C 0.99362 0.10331 0.58183 0.0
H460 H 0.01195 0.14969 0.7228 0.0
C461 C 0.9889 0.07558 0.6366 0.0
C462 C 0.9937 0.07426 0.72193 0.0
H463 H 0.99144 0.10316 0.51607 0.0
H464 H 0.9841 0.05459 0.6116 0.0
C465 C -0.00054 0.10213 0.75188 0.0
C466 C 0.39216 0.03904 0.52871 0.0
C467 C 0.36333 0.04579 0.56865 0.0
H468 H 0.4428 0.02611 0.54226 0.0
C469 C 0.36319 0.04176 0.65528 0.0
H470 H 0.39279 0.04151 0.46195 0.0
C471 C 0.39157 0.03285 0.70088 0.0
C472 C 0.42071 0.02764 0.66093 0.0
H473 H 0.34142 0.04691 0.68779 0.0
H474 H 0.39089 0.03124 0.76748 0.0
C475 C 0.42065 0.02986 0.57458 0.0
C476 C 0.47599 0.44658 0.51199 0.0
C477 C 0.49608 0.41895 0.53681 0.0
H478 H 0.46061 0.49269 0.53516 0.0
C479 C 0.52004 0.41893 0.59766 0.0
H480 H 0.45798 0.4478 0.46352 0.0
C481 C 0.52212 0.44518 0.6372 0.0
C482 C 0.50007 0.47158 0.61694 0.0
H483 H 0.53589 0.39802 0.61826 0.0
H484 H 0.5393 0.44385 0.68767 0.0
C485 C 0.47776 0.47247 0.55217 0.0
C486 C 0.09341 0.51848 0.60306 0.0
C487 C 0.08658 0.50328 0.53598 0.0
H488 H 0.07433 0.53764 0.70701 0.0
C489 C 0.05439 0.50219 0.51178 0.0
H490 H 0.11798 0.51972 0.6232 0.0
C491 C 0.02959 0.5124 0.55974 0.0
C492 C 0.03654 0.52432 0.63187 0.0
H493 H 0.04836 0.49144 0.45901 0.0
H494 H 0.00507 0.50837 0.54458 0.0
C495 C 0.06845 0.52907 0.65065 0.0
C496 C 0.07371 0.85459 0.0057 0.0
C497 C 0.08207 0.85317 0.08953 0.0
H498 H 0.05728 0.88375 0.8926 0.0
C499 C 0.08371 0.88154 0.12074 0.0
H500 H 0.07288 0.83323 0.9792 0.0
C501 C 0.07529 0.91049 0.0707 0.0
C502 C 0.06468 0.91165 0.98879 0.0
H503 H 0.08965 0.8814 0.18515 0.0
H504 H 0.07545 0.93181 0.09764 0.0
C505 C 0.06486 0.88352 0.95601 0.0
C506 C 0.64148 0.0255 0.92816 0.0
C507 C 0.64131 0.03942 -0.00017 0.0
H508 H 0.6137 0.01164 0.83216 0.0
C509 C 0.6118 0.05022 0.02991 0.0
H510 H 0.66389 0.01723 0.90314 0.0
C511 C 0.58302 0.04704 0.98931 0.0
C512 C 0.5832 0.03303 0.91777 0.0
H513 H 0.61089 0.06062 0.08571 0.0
H514 H 0.56066 0.05553 0.01412 0.0
C515 C 0.61273 0.02236 0.88749 0.0
C516 C 0.48244 0.63267 0.00233 0.0
C517 C 0.45077 0.64484 0.01204 0.0
H518 H 0.51316 0.59796 0.95572 0.0
C519 C 0.42518 0.62942 0.98491 0.0
H520 H 0.50264 0.64365 0.02416 0.0
C521 C 0.43116 0.60307 0.94616 0.0
C522 C 0.46288 0.59152 0.93406 0.0
H523 H 0.40052 0.6383 0.9914 0.0
H524 H 0.41094 0.59234 0.92357 0.0
C525 C 0.48843 0.60626 0.96393 0.0
C526 C 0.89513 0.5021 0.13798 0.0
C527 C 0.87469 0.47748 0.14027 0.0
H528 H 0.93293 0.52669 0.07476 0.0
C529 C 0.87847 0.45703 0.08212 0.0
H530 H 0.8925 0.51837 0.18174 0.0
C531 C 0.90175 0.46161 0.02136 0.0
C532 C 0.92132 0.48703 0.01691 0.0
H533 H 0.86309 0.43778 0.08296 0.0
H534 H 0.90364 0.44585 0.97622 0.0
C535 C 0.91812 0.50697 0.07651 0.0
C536 C 0.09098 0.13522 0.14424 0.0
C537 C 0.06593 0.15878 0.12085 0.0
H538 H 0.11051 0.08847 0.1372 0.0
C539 C 0.04199 0.15317 0.06541 0.0
H540 H 0.10956 0.13838 0.18786 0.0
C541 C 0.04252 0.12421 0.03663 0.0
C542 C 0.06676 0.10018 0.06361 0.0
H543 H 0.02242 0.17083 0.046 0.0
H544 H 0.02316 0.1201 0.99644 0.0
C545 C 0.09134 0.10636 0.11611 0.0
C546 C 0.34196 0.04522 0.0693 0.0
C547 C 0.3284 0.07327 0.09238 0.0
H548 H 0.38238 0.02212 0.01819 0.0
C549 C 0.34542 0.10057 0.07589 0.0
H550 H 0.32948 0.02379 0.08085 0.0
C551 C 0.37556 0.09967 0.03968 0.0
C552 C 0.38966 0.07142 0.01917 0.0
H553 H 0.33612 0.1225 0.09412 0.0
H554 H 0.38794 0.12113 0.02858 0.0
C555 C 0.37224 0.04431 0.033 0.0
C556 C 0.50789 0.40339 0.02034 0.0
C557 C 0.47968 0.39445 0.06176 0.0
H558 H 0.53004 0.43785 0.9338 0.0
C559 C 0.45121 0.41424 0.04294 0.0
H560 H 0.53016 0.38871 0.03136 0.0
C561 C 0.45103 0.44205 0.98512 0.0
C562 C 0.47944 0.45126 0.94605 0.0
H563 H 0.42909 0.40887 0.07452 0.0
H564 H 0.4288 0.45678 0.9727 0.0
C565 C 0.50783 0.43159 0.96399 0.0
C566 C 0.09063 0.4373 0.05355 0.0
C567 C 0.11376 0.45925 0.05899 0.0
H568 H 0.04575 0.42841 0.00012 0.0
C569 C 0.10992 0.4888 0.0072 0.0
H570 H 0.09236 0.41446 0.09299 0.0
C571 C 0.0827 0.497 0.95616 0.0
C572 C 0.05901 0.47561 0.95383 0.0
H573 H 0.12752 0.50604 0.00756 0.0
H574 H 0.07994 0.52038 0.91928 0.0
C575 C 0.0637 0.4453 0.0008 0.0
C576 C 0.04206 0.85125 0.5873 0.0
C577 C 0.01801 0.83497 0.55616 0.0
H578 H 0.05354 0.89035 0.64346 0.0
C579 C 0.98575 0.84635 0.56092 0.0
H580 H 0.06721 0.84359 0.58287 0.0
C581 C 0.97776 0.87329 0.59645 0.0
C582 C 0.00188 0.8897 0.62744 0.0
H583 H 0.96664 0.83427 0.53773 0.0
H584 H 0.95264 0.88099 0.60016 0.0
C585 C 0.03414 0.87824 0.62212 0.0
C586 C 0.64822 0.97959 0.44101 0.0
C587 C 0.67265 0.99481 0.4745 0.0
H588 H 0.60034 0.96488 0.45258 0.0
C589 C 0.66785 0.00441 0.55162 0.0
H590 H 0.6509 0.97234 0.3811 0.0
C591 C 0.63875 1.00027 0.59236 0.0
C592 C 0.61373 0.98647 0.55692 0.0
H593 H 0.68634 0.01581 0.57961 0.0
H594 H 0.63574 0.0083 0.65118 0.0
C595 C 0.61912 0.97544 0.48181 0.0
C596 C 0.51061 0.65061 0.51913 0.0
C597 C 0.48054 0.6668 0.49612 0.0
H598 H 0.53606 0.61035 0.59314 0.0
C599 C 0.45275 0.65432 0.53189 0.0
H600 H 0.53245 0.6596 0.49236 0.0
C601 C 0.45476 0.62627 0.58819 0.0
C602 C 0.48464 0.60982 0.61085 0.0
H603 H 0.42913 0.66569 0.5143 0.0
H604 H 0.43265 0.61738 0.61356 0.0
C605 C 0.51268 0.62245 0.57663 0.0
C606 C 0.87401 0.54299 0.5516 0.0
C607 C 0.84358 0.54486 0.58784 0.0
H608 H 0.92503 0.5369 0.57185 0.0
C609 C 0.84179 0.54718 0.67234 0.0
H610 H 0.87634 0.54055 0.48717 0.0
C611 C 0.8699 0.54537 0.72062 0.0
C612 C 0.90002 0.54101 0.68502 0.0
H613 H 0.8187 0.54859 0.70191 0.0
H614 H 0.86803 0.54506 0.78662 0.0
C615 C 0.90194 0.54079 0.59996 0.0
loop_
_geom_bond_atom_site_label_1
_geom_bond_atom_site_label_2
_geom_bond_distance
_geom_bond_site_symmetry_2
_ccdc_geom_bond_type
P0 O11 1.490 . S
P0 C14 1.812 . S
P0 C20 1.803 . S
P0 C26 1.819 . S
H1 C15 0.941 . S
H2 C16 0.939 . S
H3 C18 0.940 . S
H4 C19 0.940 . S
H5 C21 0.939 . S
H6 C22 0.942 . S
H7 C24 0.940 . S
H8 C25 0.939 . S
H9 C27 0.941 . S
H10 C31 0.939 . S
O11 P0 1.490 . S
H12 C28 0.939 . S
H13 C30 0.940 . S
C14 P0 1.812 . S
C14 C15 1.389 . S
C14 C19 1.391 . S
C15 H1 0.941 . S
C15 C14 1.389 . S
C15 C16 1.397 . S
C16 H2 0.939 . S
C16 C15 1.397 . S
C16 C17 1.378 . S
C17 C16 1.378 . S
C17 C18 1.378 . S
C18 H3 0.940 . S
C18 C17 1.378 . S
C18 C19 1.396 . S
C19 H4 0.940 . S
C19 C14 1.391 . S
C19 C18 1.396 . S
C20 P0 1.803 . S
C20 C21 1.378 . S
C20 C25 1.400 . S
C21 H5 0.939 . S
C21 C20 1.378 . S
C21 C22 1.361 . S
C22 H6 0.942 . S
C22 C21 1.361 . S
C22 C23 1.369 . S
C23 C22 1.369 . S
C23 C24 1.404 . S
C24 H7 0.940 . S
C24 C23 1.404 . S
C24 C25 1.389 . S
C25 H8 0.939 . S
C25 C20 1.400 . S
C25 C24 1.389 . S
C26 P0 1.819 . S
C26 C27 1.391 . S
C26 C31 1.391 . S
C27 H9 0.941 . S
C27 C26 1.391 . S
C27 C28 1.396 . S
C28 H12 0.939 . S
C28 C27 1.396 . S
C28 C29 1.397 1_554 S
C29 C28 1.397 1_556 S
C29 C30 1.385 . S
C30 H13 0.940 . S
C30 C29 1.385 . S
C30 C31 1.388 1_556 S
C31 H10 0.939 . S
C31 C26 1.391 . S
C31 C30 1.388 1_554 S
P32 O43 1.490 . S
P32 C46 1.812 . S
P32 C52 1.803 . S
P32 C58 1.819 . S
H33 C47 0.941 . S
H34 C48 0.939 . S
H35 C50 0.940 . S
H36 C51 0.950 . S
H37 C53 0.939 . S
H38 C54 0.942 . S
H39 C56 0.940 . S
H40 C57 0.958 . S
H41 C59 0.941 . S
H42 C63 0.927 1_655 S
O43 P32 1.490 . S
H44 C60 0.939 . S
H45 C62 0.940 . S
C46 P32 1.812 . S
C46 C47 1.389 . S
C46 C51 1.376 1_455 S
C47 H33 0.941 . S
C47 C46 1.389 . S
C47 C48 1.397 . S
C48 H34 0.939 . S
C48 C47 1.397 . S
C48 C49 1.378 . S
C49 C48 1.378 . S
C49 C50 1.378 1_455 S
C50 H35 0.940 . S
C50 C49 1.378 1_655 S
C50 C51 1.402 . S
C51 H36 0.950 . S
C51 C46 1.376 1_655 S
C51 C50 1.402 . S
C52 P32 1.803 . S
C52 C53 1.378 . S
C52 C57 1.367 1_455 S
C53 H37 0.939 . S
C53 C52 1.378 . S
C53 C54 1.361 . S
C54 H38 0.942 . S
C54 C53 1.361 . S
C54 C55 1.369 . S
C55 C54 1.369 . S
C55 C56 1.404 1_455 S
C56 H39 0.940 . S
C56 C55 1.404 1_655 S
C56 C57 1.404 . S
C57 H40 0.958 . S
C57 C52 1.367 1_655 S
C57 C56 1.404 . S
C58 P32 1.819 . S
C58 C59 1.391 . S
C58 C63 1.391 . S
C59 H41 0.941 . S
C59 C58 1.391 . S
C59 C60 1.396 1_554 S
C60 H44 0.939 . S
C60 C59 1.396 1_556 S
C60 C61 1.397 . S
C61 C60 1.397 . S
C61 C62 1.385 1_455 S
C62 H45 0.940 . S
C62 C61 1.385 1_655 S
C62 C63 1.388 1_656 S
C63 H42 0.927 1_455 S
C63 C58 1.391 . S
C63 C62 1.388 1_454 S
P64 O75 1.490 1_565 S
P64 C78 1.812 . S
P64 C84 1.803 . S
P64 C90 1.819 . S
H65 C79 0.941 1_545 S
H66 C80 0.939 . S
H67 C82 0.940 . S
H68 C83 0.940 . S
H69 C85 0.939 1_545 S
H70 C86 0.942 1_556 S
H71 C88 0.940 . S
H72 C89 0.939 . S
H73 C91 0.973 . S
H74 C95 0.939 . S
O75 P64 1.490 1_545 S
H76 C92 0.939 . S
H77 C94 0.940 . S
C78 P64 1.812 . S
C78 C79 1.389 . S
C78 C83 1.391 . S
C79 H65 0.941 1_565 S
C79 C78 1.389 . S
C79 C80 1.397 . S
C80 H66 0.939 . S
C80 C79 1.397 . S
C80 C81 1.378 . S
C81 C80 1.378 . S
C81 C82 1.378 . S
C82 H67 0.940 . S
C82 C81 1.378 . S
C82 C83 1.396 . S
C83 H68 0.940 . S
C83 C78 1.391 . S
C83 C82 1.396 . S
C84 P64 1.803 . S
C84 C85 1.378 . S
C84 C89 1.400 . S
C85 H69 0.939 1_565 S
C85 C84 1.378 . S
C85 C86 1.361 . S
C86 H70 0.942 1_554 S
C86 C85 1.361 . S
C86 C87 1.369 . S
C87 C86 1.369 . S
C87 C88 1.404 . S
C88 H71 0.940 . S
C88 C87 1.404 . S
C88 C89 1.389 . S
C89 H72 0.939 . S
C89 C84 1.400 . S
C89 C88 1.389 . S
C90 P64 1.819 . S
C90 C91 1.391 . S
C90 C95 1.391 1_554 S
C91 H73 0.973 . S
C91 C90 1.391 . S
C91 C92 1.396 1_554 S
C92 H76 0.939 . S
C92 C91 1.396 1_556 S
C92 C93 1.397 . S
C93 C92 1.397 . S
C93 C94 1.385 . S
C94 H77 0.940 . S
C94 C93 1.385 . S
C94 C95 1.388 . S
C95 H74 0.939 . S
C95 C90 1.391 1_556 S
C95 C94 1.388 . S
P96 O107 1.490 . S
P96 C110 1.812 . S
P96 C116 1.803 . S
P96 C122 1.819 . S
H97 C111 0.941 . S
H98 C112 0.939 . S
H99 C114 0.940 . S
H100 C115 0.940 . S
H101 C117 0.939 . S
H102 C118 0.942 . S
H103 C120 0.940 . S
H104 C121 0.939 . S
H105 C123 0.941 . S
H106 C127 0.939 . S
O107 P96 1.490 . S
H108 C124 0.939 . S
H109 C126 0.940 . S
C110 P96 1.812 . S
C110 C111 1.389 . S
C110 C115 1.391 . S
C111 H97 0.941 . S
C111 C110 1.389 . S
C111 C112 1.397 . S
C112 H98 0.939 . S
C112 C111 1.397 . S
C112 C113 1.378 . S
C113 C112 1.378 . S
C113 C114 1.378 . S
C114 H99 0.940 . S
C114 C113 1.378 . S
C114 C115 1.396 . S
C115 H100 0.940 . S
C115 C110 1.391 . S
C115 C114 1.396 . S
C116 P96 1.803 . S
C116 C117 1.378 . S
C116 C121 1.400 . S
C117 H101 0.939 . S
C117 C116 1.378 . S
C117 C118 1.361 . S
C118 H102 0.942 . S
C118 C117 1.361 . S
C118 C119 1.369 . S
C119 C118 1.369 . S
C119 C120 1.404 . S
C120 H103 0.940 . S
C120 C119 1.404 . S
C120 C121 1.389 . S
C121 H104 0.939 . S
C121 C116 1.400 . S
C121 C120 1.389 . S
C122 P96 1.819 . S
C122 C123 1.391 . S
C122 C127 1.391 . S
C123 H105 0.941 . S
C123 C122 1.391 . S
C123 C124 1.396 . S
C124 H108 0.939 . S
C124 C123 1.396 . S
C124 C125 1.397 1_554 S
C125 C124 1.397 1_556 S
C125 C126 1.385 . S
C126 H109 0.940 . S
C126 C125 1.385 . S
C126 C127 1.388 1_556 S
C127 H106 0.939 . S
C127 C122 1.391 . S
C127 C126 1.388 1_554 S
P128 O139 1.490 . S
P128 C142 1.812 . S
P128 C148 1.803 . S
P128 C154 1.819 . S
H129 C143 0.941 . S
H130 C144 0.939 . S
H131 C146 0.940 . S
H132 C147 0.940 . S
H133 C149 0.939 . S
H134 C150 0.942 . S
H135 C152 0.940 . S
H136 C153 0.939 . S
H137 C155 0.941 . S
H138 C159 0.939 . S
O139 P128 1.490 . S
H140 C156 0.939 . S
H141 C158 0.940 . S
C142 P128 1.812 . S
C142 C143 1.389 . S
C142 C147 1.391 . S
C143 H129 0.941 . S
C143 C142 1.389 . S
C143 C144 1.397 . S
C144 H130 0.939 . S
C144 C143 1.397 . S
C144 C145 1.378 . S
C145 C144 1.378 . S
C145 C146 1.378 . S
C146 H131 0.940 . S
C146 C145 1.378 . S
C146 C147 1.396 . S
C147 H132 0.940 . S
C147 C142 1.391 . S
C147 C146 1.396 . S
C148 P128 1.803 . S
C148 C149 1.378 . S
C148 C153 1.400 . S
C149 H133 0.939 . S
C149 C148 1.378 . S
C149 C150 1.361 . S
C150 H134 0.942 . S
C150 C149 1.361 . S
C150 C151 1.369 . S
C151 C150 1.369 . S
C151 C152 1.404 . S
C152 H135 0.940 . S
C152 C151 1.404 . S
C152 C153 1.389 . S
C153 H136 0.939 . S
C153 C148 1.400 . S
C153 C152 1.389 . S
C154 P128 1.819 . S
C154 C155 1.391 . S
C154 C159 1.391 . S
C155 H137 0.941 . S
C155 C154 1.391 . S
C155 C156 1.396 . S
C156 H140 0.939 . S
C156 C155 1.396 . S
C156 C157 1.397 . S
C157 C156 1.397 . S
C157 C158 1.385 . S
C158 H141 0.940 . S
C158 C157 1.385 . S
C158 C159 1.388 . S
C159 H138 0.939 . S
C159 C154 1.391 . S
C159 C158 1.388 . S
P160 O171 1.490 . S
P160 C174 1.812 . S
P160 C180 1.803 . S
P160 C186 1.819 . S
H161 C175 0.941 . S
H162 C176 0.939 . S
H163 C178 0.940 . S
H164 C179 0.946 . S
H165 C181 0.939 . S
H166 C182 0.942 . S
H167 C184 0.940 . S
H168 C185 0.955 . S
H169 C187 0.941 . S
H170 C191 0.933 1_655 S
O171 P160 1.490 . S
H172 C188 0.939 . S
H173 C190 0.940 . S
C174 P160 1.812 . S
C174 C175 1.389 . S
C174 C179 1.382 1_455 S
C175 H161 0.941 . S
C175 C174 1.389 . S
C175 C176 1.397 . S
C176 H162 0.939 . S
C176 C175 1.397 . S
C176 C177 1.378 . S
C177 C176 1.378 . S
C177 C178 1.378 1_455 S
C178 H163 0.940 . S
C178 C177 1.378 1_655 S
C178 C179 1.400 . S
C179 H164 0.946 . S
C179 C174 1.382 1_655 S
C179 C178 1.400 . S
C180 P160 1.803 . S
C180 C181 1.378 . S
C180 C185 1.377 1_455 S
C181 H165 0.939 . S
C181 C180 1.378 . S
C181 C182 1.361 . S
C182 H166 0.942 . S
C182 C181 1.361 . S
C182 C183 1.369 . S
C183 C182 1.369 . S
C183 C184 1.404 1_455 S
C184 H167 0.940 . S
C184 C183 1.404 1_655 S
C184 C185 1.397 . S
C185 H168 0.955 . S
C185 C180 1.377 1_655 S
C185 C184 1.397 . S
C186 P160 1.819 . S
C186 C187 1.391 . S
C186 C191 1.391 . S
C187 H169 0.941 . S
C187 C186 1.391 . S
C187 C188 1.396 . S
C188 H172 0.939 . S
C188 C187 1.396 . S
C188 C189 1.397 . S
C189 C188 1.397 . S
C189 C190 1.385 1_455 S
C190 H173 0.940 . S
C190 C189 1.385 1_655 S
C190 C191 1.388 1_655 S
C191 H170 0.933 1_455 S
C191 C186 1.391 . S
C191 C190 1.388 1_455 S
P192 O203 1.490 . S
P192 C206 1.812 . S
P192 C212 1.803 . S
P192 C218 1.819 . S
H193 C207 0.941 . S
H194 C208 0.939 . S
H195 C210 0.940 . S
H196 C211 0.940 . S
H197 C213 0.939 . S
H198 C214 0.942 . S
H199 C216 0.940 . S
H200 C217 0.939 . S
H201 C219 0.941 . S
H202 C223 0.939 . S
O203 P192 1.490 . S
H204 C220 0.939 . S
H205 C222 0.940 . S
C206 P192 1.812 . S
C206 C207 1.389 . S
C206 C211 1.391 . S
C207 H193 0.941 . S
C207 C206 1.389 . S
C207 C208 1.397 . S
C208 H194 0.939 . S
C208 C207 1.397 . S
C208 C209 1.378 . S
C209 C208 1.378 . S
C209 C210 1.378 . S
C210 H195 0.940 . S
C210 C209 1.378 . S
C210 C211 1.396 . S
C211 H196 0.940 . S
C211 C206 1.391 . S
C211 C210 1.396 . S
C212 P192 1.803 . S
C212 C213 1.378 . S
C212 C217 1.400 . S
C213 H197 0.939 . S
C213 C212 1.378 . S
C213 C214 1.361 . S
C214 H198 0.942 . S
C214 C213 1.361 . S
C214 C215 1.369 . S
C215 C214 1.369 . S
C215 C216 1.404 . S
C216 H199 0.940 . S
C216 C215 1.404 . S
C216 C217 1.389 . S
C217 H200 0.939 . S
C217 C212 1.400 . S
C217 C216 1.389 . S
C218 P192 1.819 . S
C218 C219 1.391 . S
C218 C223 1.391 . S
C219 H201 0.941 . S
C219 C218 1.391 . S
C219 C220 1.396 . S
C220 H204 0.939 . S
C220 C219 1.396 . S
C220 C221 1.397 . S
C221 C220 1.397 . S
C221 C222 1.385 . S
C222 H205 0.940 . S
C222 C221 1.385 . S
C222 C223 1.388 . S
C223 H202 0.939 . S
C223 C218 1.391 . S
C223 C222 1.388 . S
P224 O235 1.490 . S
P224 C238 1.812 . S
P224 C244 1.803 . S
P224 C250 1.819 . S
H225 C239 0.941 . S
H226 C240 0.939 . S
H227 C242 0.940 . S
H228 C243 0.940 . S
H229 C245 0.939 . S
H230 C246 0.942 . S
H231 C248 0.940 . S
H232 C249 0.939 . S
H233 C251 0.941 . S
H234 C255 0.939 . S
O235 P224 1.490 . S
H236 C252 0.939 . S
H237 C254 0.940 . S
C238 P224 1.812 . S
C238 C239 1.389 . S
C238 C243 1.391 . S
C239 H225 0.941 . S
C239 C238 1.389 . S
C239 C240 1.397 . S
C240 H226 0.939 . S
C240 C239 1.397 . S
C240 C241 1.378 . S
C241 C240 1.378 . S
C241 C242 1.378 . S
C242 H227 0.940 . S
C242 C241 1.378 . S
C242 C243 1.396 . S
C243 H228 0.940 . S
C243 C238 1.391 . S
C243 C242 1.396 . S
C244 P224 1.803 . S
C244 C245 1.378 . S
C244 C249 1.400 . S
C245 H229 0.939 . S
C245 C244 1.378 . S
C245 C246 1.361 . S
C246 H230 0.942 . S
C246 C245 1.361 . S
C246 C247 1.369 . S
C247 C246 1.369 . S
C247 C248 1.404 . S
C248 H231 0.940 . S
C248 C247 1.404 . S
C248 C249 1.389 . S
C249 H232 0.939 . S
C249 C244 1.400 . S
C249 C248 1.389 . S
C250 P224 1.819 . S
C250 C251 1.391 . S
C250 C255 1.391 . S
C251 H233 0.941 . S
C251 C250 1.391 . S
C251 C252 1.396 . S
C252 H236 0.939 . S
C252 C251 1.396 . S
C252 C253 1.397 . S
C253 C252 1.397 . S
C253 C254 1.385 . S
C254 H237 0.940 . S
C254 C253 1.385 . S
C254 C255 1.388 . S
C255 H234 0.939 . S
C255 C250 1.391 . S
C255 C254 1.388 . S
Co256 N261 2.061 . S
Co256 O273 2.021 . S
Co256 O276 2.062 1_455 S
Co256 O280 2.117 1_455 S
Co256 O281 2.020 1_545 S
C257 O277 1.259 1_545 S
C257 O280 1.258 . S
Co258 N267 2.060 . S
Co258 O274 2.117 1_665 S
Co258 O275 2.020 1_565 S
Co258 O277 2.021 . S
Co258 O282 2.062 1_655 S
C259 N261 1.340 1_554 S
C259 N262 1.347 . S
C259 H264 0.931 1_554 S
C260 N261 1.347 1_654 S
C260 C263 1.350 . S
C260 H265 0.930 . S
N261 Co256 2.061 . S
N261 C259 1.340 1_556 S
N261 C260 1.347 1_456 S
N262 C259 1.347 . S
N262 C263 1.373 1_455 S
C263 C260 1.350 . S
C263 N262 1.373 1_655 S
C263 H284 0.931 . S
H264 C259 0.931 1_556 S
H265 C260 0.930 . S
C266 O273 1.259 . S
C266 O274 1.258 . S
N267 Co258 2.060 . S
N267 C268 1.334 . S
N267 C269 1.354 1_655 S
C268 N267 1.334 . S
C268 N270 1.347 . S
C268 H279 0.931 . S
C269 N267 1.354 1_455 S
C269 C271 1.350 . S
C269 H278 0.930 . S
N270 C268 1.347 . S
N270 C271 1.373 1_655 S
C271 C269 1.350 . S
C271 N270 1.373 1_455 S
C271 H285 0.931 . S
C272 O275 1.256 . S
C272 O276 1.255 . S
O273 Co256 2.021 . S
O273 C266 1.259 . S
O274 Co258 2.117 1_445 S
O274 C266 1.258 . S
O275 Co258 2.020 1_545 S
O275 C272 1.256 . S
O276 Co256 2.062 1_655 S
O276 C272 1.255 . S
O277 C257 1.259 1_565 S
O277 Co258 2.021 . S
H278 C269 0.930 . S
H279 C268 0.931 . S
O280 Co256 2.117 1_655 S
O280 C257 1.258 . S
O281 Co256 2.020 1_565 S
O281 C283 1.256 . S
O282 Co258 2.062 1_455 S
O282 C283 1.255 . S
C283 O281 1.256 . S
C283 O282 1.255 . S
H284 C263 0.931 . S
H285 C271 0.931 . S
Co286 N291 2.057 . S
Co286 O303 2.021 . S
Co286 O306 2.062 . S
Co286 O310 2.117 1_545 S
Co286 O311 2.020 . S
C287 O307 1.259 . S
C287 O310 1.258 . S
Co288 N297 2.052 1_545 S
Co288 O304 2.152 . S
Co288 O305 2.024 . S
Co288 O307 1.988 1_545 S
Co288 O312 2.063 1_545 S
C289 N291 1.316 1_554 S
C289 N292 1.347 . S
C289 H294 0.931 1_554 S
C290 N291 1.353 1_564 S
C290 C293 1.338 1_565 S
C290 H295 0.959 . S
N291 Co286 2.057 . S
N291 C289 1.316 1_556 S
N291 C290 1.353 1_546 S
N292 C289 1.347 . S
N292 C293 1.373 . S
C293 C290 1.338 1_545 S
C293 N292 1.373 . S
C293 H314 0.931 1_545 S
H294 C289 0.931 1_556 S
H295 C290 0.959 . S
C296 O303 1.259 . S
C296 O304 1.258 . S
N297 Co288 2.052 1_565 S
N297 C298 1.321 . S
N297 C299 1.371 1_565 S
C298 N297 1.321 . S
C298 N300 1.347 . S
C298 H309 0.931 . S
C299 N297 1.371 1_545 S
C299 C301 1.350 . S
C299 H308 0.930 . S
N300 C298 1.347 . S
N300 C301 1.373 1_565 S
C301 C299 1.350 . S
C301 N300 1.373 1_545 S
C301 H315 0.931 . S
C302 O305 1.256 . S
C302 O306 1.255 . S
O303 Co286 2.021 . S
O303 C296 1.259 . S
O304 Co288 2.152 . S
O304 C296 1.258 . S
O305 Co288 2.024 . S
O305 C302 1.256 . S
O306 Co286 2.062 . S
O306 C302 1.255 . S
O307 C287 1.259 . S
O307 Co288 1.988 1_565 S
H308 C299 0.930 . S
H309 C298 0.931 . S
O310 Co286 2.117 1_565 S
O310 C287 1.258 . S
O311 Co286 2.020 . S
O311 C313 1.256 . S
O312 Co288 2.063 1_565 S
O312 C313 1.255 1_565 S
C313 O311 1.256 . S
C313 O312 1.255 1_545 S
H314 C293 0.931 1_565 S
H315 C301 0.931 . S
Co316 N321 2.057 . S
Co316 O333 2.021 . S
Co316 O336 2.062 . S
Co316 O340 2.117 . S
Co316 O341 2.020 . S
C317 O337 1.259 . S
C317 O340 1.258 . S
Co318 N327 2.057 . S
Co318 O334 2.117 . S
Co318 O335 2.020 . S
Co318 O337 2.021 . S
Co318 O342 2.062 . S
C319 N321 1.316 . S
C319 N322 1.347 . S
C319 H324 0.931 . S
C320 N321 1.375 . S
C320 C323 1.350 . S
C320 H325 0.930 . S
N321 Co316 2.057 . S
N321 C319 1.316 . S
N321 C320 1.375 . S
N322 C319 1.347 . S
N322 C323 1.373 . S
C323 C320 1.350 . S
C323 N322 1.373 . S
C323 H344 0.931 1_556 S
H324 C319 0.931 . S
H325 C320 0.930 . S
C326 O333 1.259 . S
C326 O334 1.258 . S
N327 Co318 2.057 . S
N327 C328 1.316 . S
N327 C329 1.375 . S
C328 N327 1.316 . S
C328 N330 1.347 . S
C328 H339 0.931 . S
C329 N327 1.375 . S
C329 C331 1.350 . S
C329 H338 0.930 . S
N330 C328 1.347 . S
N330 C331 1.373 . S
C331 C329 1.350 . S
C331 N330 1.373 . S
C331 H345 0.931 . S
C332 O335 1.256 . S
C332 O336 1.255 . S
O333 Co316 2.021 . S
O333 C326 1.259 . S
O334 Co318 2.117 . S
O334 C326 1.258 . S
O335 Co318 2.020 . S
O335 C332 1.256 . S
O336 Co316 2.062 . S
O336 C332 1.255 . S
O337 C317 1.259 . S
O337 Co318 2.021 . S
H338 C329 0.930 . S
H339 C328 0.931 . S
O340 Co316 2.117 . S
O340 C317 1.258 . S
O341 Co316 2.020 . S
O341 C343 1.256 . S
O342 Co318 2.062 . S
O342 C343 1.255 . S
C343 O341 1.256 . S
C343 O342 1.255 . S
H344 C323 0.931 1_554 S
H345 C331 0.931 . S
Co346 N351 2.057 . S
Co346 O363 2.021 1_455 S
Co346 O366 2.062 1_455 S
Co346 O370 2.117 . S
Co346 O371 2.020 . S
C347 O367 1.259 . S
C347 O370 1.258 . S
Co348 N357 2.057 . S
Co348 O364 2.117 . S
Co348 O365 2.020 . S
Co348 O367 2.021 1_655 S
Co348 O372 2.062 1_655 S
C349 N351 1.316 . S
C349 N352 1.347 . S
C349 H354 0.931 1_455 S
C350 N351 1.375 . S
C350 C353 1.350 . S
C350 H355 0.930 . S
N351 Co346 2.057 . S
N351 C349 1.316 . S
N351 C350 1.375 . S
N352 C349 1.347 . S
N352 C353 1.373 . S
C353 C350 1.350 . S
C353 N352 1.373 . S
C353 H374 0.931 . S
H354 C349 0.931 1_655 S
H355 C350 0.930 . S
C356 O363 1.259 . S
C356 O364 1.258 . S
N357 Co348 2.057 . S
N357 C358 1.316 . S
N357 C359 1.375 . S
C358 N357 1.316 . S
C358 N360 1.347 . S
C358 H369 0.931 1_655 S
C359 N357 1.375 . S
C359 C361 1.350 . S
C359 H368 0.930 . S
N360 C358 1.347 . S
N360 C361 1.373 . S
C361 C359 1.350 . S
C361 N360 1.373 . S
C361 H375 0.931 . S
C362 O365 1.256 . S
C362 O366 1.255 . S
O363 Co346 2.021 1_655 S
O363 C356 1.259 . S
O364 Co348 2.117 . S
O364 C356 1.258 . S
O365 Co348 2.020 . S
O365 C362 1.256 . S
O366 Co346 2.062 1_655 S
O366 C362 1.255 . S
O367 C347 1.259 . S
O367 Co348 2.021 1_455 S
H368 C359 0.930 . S
H369 C358 0.931 1_455 S
O370 Co346 2.117 . S
O370 C347 1.258 . S
O371 Co346 2.020 . S
O371 C373 1.256 . S
O372 Co348 2.062 1_455 S
O372 C373 1.255 . S
C373 O371 1.256 . S
C373 O372 1.255 . S
H374 C353 0.931 . S
H375 C361 0.931 . S
C376 C377 1.387 . S
C376 H380 0.950 . S
C376 C385 1.390 . S
C377 C376 1.387 . S
C377 C379 1.387 . S
H378 C385 0.950 . S
C379 C377 1.387 . S
C379 C381 1.390 . S
C379 H383 0.950 . S
H380 C376 0.950 . S
C381 C379 1.390 . S
C381 C382 1.387 . S
C381 H384 0.950 . S
C382 C381 1.387 . S
C382 C385 1.387 . S
H383 C379 0.950 . S
H384 C381 0.950 . S
C385 C376 1.390 . S
C385 H378 0.950 . S
C385 C382 1.387 . S
C386 C387 1.387 . S
C386 H390 0.950 . S
C386 C395 1.390 . S
C387 C386 1.387 . S
C387 C389 1.387 . S
H388 C395 0.950 . S
C389 C387 1.387 . S
C389 C391 1.390 . S
C389 H393 0.950 . S
H390 C386 0.950 . S
C391 C389 1.390 . S
C391 C392 1.387 . S
C391 H394 0.950 . S
C392 C391 1.387 . S
C392 C395 1.387 . S
H393 C389 0.950 . S
H394 C391 0.950 . S
C395 C386 1.390 . S
C395 H388 0.950 . S
C395 C392 1.387 . S
C396 C397 1.387 . S
C396 H400 0.950 . S
C396 C405 1.390 . S
C397 C396 1.387 . S
C397 C399 1.387 . S
H398 C405 0.950 . S
C399 C397 1.387 . S
C399 C401 1.390 . S
C399 H403 0.950 . S
H400 C396 0.950 . S
C401 C399 1.390 . S
C401 C402 1.387 . S
C401 H404 0.950 . S
C402 C401 1.387 . S
C402 C405 1.387 . S
H403 C399 0.950 . S
H404 C401 0.950 . S
C405 C396 1.390 . S
C405 H398 0.950 . S
C405 C402 1.387 . S
C406 C407 1.387 . S
C406 H410 0.950 . S
C406 C415 1.390 . S
C407 C406 1.387 . S
C407 C409 1.387 1_655 S
H408 C415 0.950 . S
C409 C407 1.387 1_455 S
C409 C411 1.390 . S
C409 H413 0.950 . S
H410 C406 0.950 . S
C411 C409 1.390 . S
C411 C412 1.387 1_455 S
C411 H414 0.950 . S
C412 C411 1.387 1_655 S
C412 C415 1.387 . S
H413 C409 0.950 . S
H414 C411 0.950 . S
C415 C406 1.390 . S
C415 H408 0.950 . S
C415 C412 1.387 . S
C416 C417 1.387 1_554 S
C416 H420 0.950 . S
C416 C425 1.390 1_554 S
C417 C416 1.387 1_556 S
C417 C419 1.387 . S
H418 C425 0.950 . S
C419 C417 1.387 . S
C419 C421 1.390 . S
C419 H423 0.950 . S
H420 C416 0.950 . S
C421 C419 1.390 . S
C421 C422 1.387 . S
C421 H424 0.950 1_565 S
C422 C421 1.387 . S
C422 C425 1.387 . S
H423 C419 0.950 . S
H424 C421 0.950 1_545 S
C425 C416 1.390 1_556 S
C425 H418 0.950 . S
C425 C422 1.387 . S
C426 C427 1.387 1_556 S
C426 H430 0.950 . S
C426 C435 1.390 . S
C427 C426 1.387 1_554 S
C427 C429 1.387 . S
H428 C435 0.950 . S
C429 C427 1.387 . S
C429 C431 1.390 1_554 S
C429 H433 0.950 . S
H430 C426 0.950 . S
C431 C429 1.390 1_556 S
C431 C432 1.387 . S
C431 H434 0.950 . S
C432 C431 1.387 . S
C432 C435 1.387 . S
H433 C429 0.950 . S
H434 C431 0.950 . S
C435 C426 1.390 . S
C435 H428 0.950 . S
C435 C432 1.387 . S
C436 C437 1.387 1_556 S
C436 H440 0.950 . S
C436 C445 1.390 . S
C437 C436 1.387 1_554 S
C437 C439 1.387 . S
H438 C445 0.950 . S
C439 C437 1.387 . S
C439 C441 1.390 . S
C439 H443 0.950 . S
H440 C436 0.950 . S
C441 C439 1.390 . S
C441 C442 1.387 1_554 S
C441 H444 0.950 . S
C442 C441 1.387 1_556 S
C442 C445 1.387 . S
H443 C439 0.950 . S
H444 C441 0.950 . S
C445 C436 1.390 . S
C445 H438 0.950 . S
C445 C442 1.387 . S
C446 C447 1.387 1_656 S
C446 H450 0.950 . S
C446 C455 1.390 . S
C447 C446 1.387 1_454 S
C447 C449 1.387 . S
H448 C455 0.950 . S
C449 C447 1.387 . S
C449 C451 1.390 1_554 S
C449 H453 0.950 . S
H450 C446 0.950 . S
C451 C449 1.390 1_556 S
C451 C452 1.387 . S
C451 H454 0.950 . S
C452 C451 1.387 . S
C452 C455 1.387 1_455 S
H453 C449 0.950 . S
H454 C451 0.950 . S
C455 C446 1.390 . S
C455 H448 0.950 . S
C455 C452 1.387 1_655 S
C456 C457 1.387 . S
C456 H460 0.950 . S
C456 C465 1.390 1_455 S
C457 C456 1.387 . S
C457 C459 1.387 1_455 S
H458 C465 0.950 . S
C459 C457 1.387 1_655 S
C459 C461 1.390 . S
C459 H463 0.950 . S
H460 C456 0.950 . S
C461 C459 1.390 . S
C461 C462 1.387 . S
C461 H464 0.950 . S
C462 C461 1.387 . S
C462 C465 1.387 . S
H463 C459 0.950 . S
H464 C461 0.950 . S
C465 C456 1.390 1_655 S
C465 H458 0.950 . S
C465 C462 1.387 . S
C466 C467 1.387 . S
C466 H470 0.950 . S
C466 C475 1.390 . S
C467 C466 1.387 . S
C467 C469 1.387 . S
H468 C475 0.950 . S
C469 C467 1.387 . S
C469 C471 1.390 . S
C469 H473 0.950 . S
H470 C466 0.950 . S
C471 C469 1.390 . S
C471 C472 1.387 . S
C471 H474 0.950 . S
C472 C471 1.387 . S
C472 C475 1.387 . S
H473 C469 0.950 . S
H474 C471 0.950 . S
C475 C466 1.390 . S
C475 H468 0.950 . S
C475 C472 1.387 . S
C476 C477 1.387 . S
C476 H480 0.950 . S
C476 C485 1.390 . S
C477 C476 1.387 . S
C477 C479 1.387 . S
H478 C485 0.950 . S
C479 C477 1.387 . S
C479 C481 1.390 . S
C479 H483 0.950 . S
H480 C476 0.950 . S
C481 C479 1.390 . S
C481 C482 1.387 . S
C481 H484 0.950 . S
C482 C481 1.387 . S
C482 C485 1.387 . S
H483 C479 0.950 . S
H484 C481 0.950 . S
C485 C476 1.390 . S
C485 H478 0.950 . S
C485 C482 1.387 . S
C486 C487 1.387 . S
C486 H490 0.950 . S
C486 C495 1.390 . S
C487 C486 1.387 . S
C487 C489 1.387 . S
H488 C495 0.950 . S
C489 C487 1.387 . S
C489 C491 1.390 . S
C489 H493 0.950 . S
H490 C486 0.950 . S
C491 C489 1.390 . S
C491 C492 1.387 . S
C491 H494 0.950 . S
C492 C491 1.387 . S
C492 C495 1.387 . S
H493 C489 0.950 . S
H494 C491 0.950 . S
C495 C486 1.390 . S
C495 H488 0.950 . S
C495 C492 1.387 . S
C496 C497 1.387 1_455 S
C496 H500 0.950 . S
C496 C505 1.390 . S
C497 C496 1.387 1_655 S
C497 C499 1.387 . S
H498 C505 0.950 . S
C499 C497 1.387 . S
C499 C501 1.390 . S
C499 H503 0.950 . S
H500 C496 0.950 . S
C501 C499 1.390 . S
C501 C502 1.387 1_655 S
C501 H504 0.950 . S
C502 C501 1.387 1_455 S
C502 C505 1.387 . S
H503 C499 0.950 . S
H504 C501 0.950 . S
C505 C496 1.390 . S
C505 H498 0.950 . S
C505 C502 1.387 . S
C506 C507 1.387 . S
C506 H510 0.950 . S
C506 C515 1.390 . S
C507 C506 1.387 . S
C507 C509 1.387 . S
H508 C515 0.950 . S
C509 C507 1.387 . S
C509 C511 1.390 . S
C509 H513 0.950 1_556 S
H510 C506 0.950 . S
C511 C509 1.390 . S
C511 C512 1.387 . S
C511 H514 0.950 1_556 S
C512 C511 1.387 . S
C512 C515 1.387 . S
H513 C509 0.950 1_554 S
H514 C511 0.950 1_554 S
C515 C506 1.390 . S
C515 H508 0.950 . S
C515 C512 1.387 . S
C516 C517 1.387 1_554 S
C516 H520 0.950 . S
C516 C525 1.390 . S
C517 C516 1.387 1_556 S
C517 C519 1.387 . S
H518 C525 0.950 . S
C519 C517 1.387 . S
C519 C521 1.390 . S
C519 H523 0.950 . S
H520 C516 0.950 . S
C521 C519 1.390 . S
C521 C522 1.387 . S
C521 H524 0.950 . S
C522 C521 1.387 . S
C522 C525 1.387 1_556 S
H523 C519 0.950 . S
H524 C521 0.950 . S
C525 C516 1.390 . S
C525 H518 0.950 . S
C525 C522 1.387 1_554 S
C526 C527 1.387 1_554 S
C526 H530 0.950 . S
C526 C535 1.390 . S
C527 C526 1.387 1_556 S
C527 C529 1.387 . S
H528 C535 0.950 . S
C529 C527 1.387 . S
C529 C531 1.390 . S
C529 H533 0.950 . S
H530 C526 0.950 . S
C531 C529 1.390 . S
C531 C532 1.387 . S
C531 H534 0.950 . S
C532 C531 1.387 . S
C532 C535 1.387 1_556 S
H533 C529 0.950 . S
H534 C531 0.950 . S
C535 C526 1.390 . S
C535 H528 0.950 . S
C535 C532 1.387 1_554 S
C536 C537 1.387 . S
C536 H540 0.950 . S
C536 C545 1.390 . S
C537 C536 1.387 . S
C537 C539 1.387 1_455 S
H538 C545 0.950 . S
C539 C537 1.387 1_655 S
C539 C541 1.390 . S
C539 H543 0.950 . S
H540 C536 0.950 . S
C541 C539 1.390 . S
C541 C542 1.387 1_655 S
C541 H544 0.950 . S
C542 C541 1.387 1_455 S
C542 C545 1.387 . S
H543 C539 0.950 . S
H544 C541 0.950 . S
C545 C536 1.390 . S
C545 H538 0.950 . S
C545 C542 1.387 . S
C546 C547 1.387 . S
C546 H550 0.950 . S
C546 C555 1.390 . S
C547 C546 1.387 . S
C547 C549 1.387 . S
H548 C555 0.950 . S
C549 C547 1.387 . S
C549 C551 1.390 . S
C549 H553 0.950 . S
H550 C546 0.950 . S
C551 C549 1.390 . S
C551 C552 1.387 . S
C551 H554 0.950 . S
C552 C551 1.387 . S
C552 C555 1.387 . S
H553 C549 0.950 . S
H554 C551 0.950 . S
C555 C546 1.390 . S
C555 H548 0.950 . S
C555 C552 1.387 . S
C556 C557 1.387 . S
C556 H560 0.950 . S
C556 C565 1.390 . S
C557 C556 1.387 . S
C557 C559 1.387 . S
H558 C565 0.950 . S
C559 C557 1.387 . S
C559 C561 1.390 . S
C559 H563 0.950 . S
H560 C556 0.950 . S
C561 C559 1.390 . S
C561 C562 1.387 . S
C561 H564 0.952 . S
C562 C561 1.387 . S
C562 C565 1.387 . S
H563 C559 0.950 . S
H564 C561 0.952 . S
C565 C556 1.390 . S
C565 H558 0.950 . S
C565 C562 1.387 . S
C566 C567 1.387 . S
C566 H570 0.950 . S
C566 C575 1.390 . S
C567 C566 1.387 . S
C567 C569 1.387 . S
H568 C575 0.950 1_556 S
C569 C567 1.387 . S
C569 C571 1.390 . S
C569 H573 0.950 . S
H570 C566 0.950 . S
C571 C569 1.390 . S
C571 C572 1.387 . S
C571 H574 0.950 . S
C572 C571 1.387 . S
C572 C575 1.387 . S
H573 C569 0.950 . S
H574 C571 0.950 . S
C575 C566 1.390 . S
C575 H568 0.950 1_554 S
C575 C572 1.387 . S
C576 C577 1.387 1_455 S
C576 H580 0.950 . S
C576 C585 1.390 . S
C577 C576 1.387 1_655 S
C577 C579 1.387 . S
H578 C585 0.950 . S
C579 C577 1.387 . S
C579 C581 1.390 . S
C579 H583 0.950 . S
H580 C576 0.950 . S
C581 C579 1.390 . S
C581 C582 1.387 . S
C581 H584 0.950 . S
C582 C581 1.387 . S
C582 C585 1.387 1_655 S
H583 C579 0.950 . S
H584 C581 0.950 . S
C585 C576 1.390 . S
C585 H578 0.950 . S
C585 C582 1.387 1_455 S
C586 C587 1.387 . S
C586 H590 0.950 . S
C586 C595 1.390 . S
C587 C586 1.387 . S
C587 C589 1.387 . S
H588 C595 0.950 1_545 S
C589 C587 1.387 . S
C589 C591 1.390 . S
C589 H593 0.950 . S
H590 C586 0.950 . S
C591 C589 1.390 . S
C591 C592 1.387 . S
C591 H594 0.950 . S
C592 C591 1.387 . S
C592 C595 1.387 . S
H593 C589 0.950 . S
H594 C591 0.950 . S
C595 C586 1.390 . S
C595 H588 0.950 1_565 S
C595 C592 1.387 . S
C596 C597 1.387 . S
C596 H600 0.950 . S
C596 C605 1.390 . S
C597 C596 1.387 . S
C597 C599 1.387 . S
H598 C605 0.950 . S
C599 C597 1.387 . S
C599 C601 1.390 . S
C599 H603 0.950 . S
H600 C596 0.950 . S
C601 C599 1.390 . S
C601 C602 1.387 . S
C601 H604 0.950 . S
C602 C601 1.387 . S
C602 C605 1.387 . S
H603 C599 0.950 . S
H604 C601 0.950 . S
C605 C596 1.390 . S
C605 H598 0.950 . S
C605 C602 1.387 . S
C606 C607 1.387 . S
C606 H610 0.950 . S
C606 C615 1.390 . S
C607 C606 1.387 . S
C607 C609 1.387 . S
H608 C615 0.950 . S
C609 C607 1.387 . S
C609 C611 1.390 . S
C609 H613 0.950 . S
H610 C606 0.950 . S
C611 C609 1.390 . S
C611 C612 1.387 . S
C611 H614 0.950 . S
C612 C611 1.387 . S
C612 C615 1.387 . S
H613 C609 0.950 . S
H614 C611 0.950 . S
C615 C606 1.390 . S
C615 H608 0.950 . S
C615 C612 1.387 . S
C377 C215 1.904 . S
C382 C266 1.864 . S
C392 C296 1.779 . S
C387 C247 1.721 . S
C402 N330 1.731 . S
C397 C151 1.767 . S
C412 N360 1.410 . S
C407 C183 1.493 1_655 S
C422 C257 1.866 1_565 S
C417 C87 1.723 1_556 S
C427 C119 1.758 . S
C432 C287 1.779 . S
C437 C23 1.604 . S
C442 N322 1.730 . S
C447 C55 1.440 . S
C452 N352 1.412 . S
C462 C272 0.604 . S
C457 C189 0.576 . S
C472 C302 1.120 . S
C467 C221 1.123 . S
C482 C343 1.032 . S
C477 C253 1.005 . S
C487 C157 1.078 . S
C492 C373 1.023 . S
C497 C61 0.706 1_655 S
C502 C283 0.595 . S
C512 C313 1.119 1_565 S
C507 C93 0.941 . S
C522 C332 1.031 . S
C517 C125 1.016 . S
C527 C29 0.867 . S
C532 C362 1.028 . S
C537 C177 1.522 . S
C542 N262 1.599 . S
C547 C209 1.700 . S
C552 N292 1.745 . S
C562 C317 1.852 1_554 S
C557 C241 1.734 . S
C572 C347 2.001 1_554 S
C567 C145 1.958 . S
C577 C49 1.563 1_655 S
C582 N270 1.601 . S
C592 N300 1.746 . S
C587 C81 1.617 . S
C602 C326 1.852 . S
C597 C113 1.805 . S
C607 C17 1.807 . S
C612 C356 2.003 . S
