# Generated by pormake.
# Topology eea, (3,6)-cn, num edge types: 1
# Building blocks:
#     Node 0, Type 0, BuildingBlock: CUQRIR_clean_linker_1, # of connection points: 3
#     Node 1, Type 0, BuildingBlock: CUQRIR_clean_linker_1, # of connection points: 3
#     Node 2, Type 0, BuildingBlock: CUQRIR_clean_linker_1, # of connection points: 3
#     Node 3, Type 0, BuildingBlock: CUQRIR_clean_linker_1, # of connection points: 3
#     Node 4, Type 0, BuildingBlock: CUQRIR_clean_linker_1, # of connection points: 3
#     Node 5, Type 0, BuildingBlock: CUQRIR_clean_linker_1, # of connection points: 3
#     Node 6, Type 0, BuildingBlock: CUQRIR_clean_linker_1, # of connection points: 3
#     Node 7, Type 0, BuildingBlock: CUQRIR_clean_linker_1, # of connection points: 3
#     Node 8, Type 0, BuildingBlock: CUQRIR_clean_linker_1, # of connection points: 3
#     Node 9, Type 0, BuildingBlock: CUQRIR_clean_linker_1, # of connection points: 3
#     Node 10, Type 0, BuildingBlock: CUQRIR_clean_linker_1, # of connection points: 3
#     Node 11, Type 0, BuildingBlock: CUQRIR_clean_linker_1, # of connection points: 3
#     Node 12, Type 0, BuildingBlock: CUQRIR_clean_linker_1, # of connection points: 3
#     Node 13, Type 0, BuildingBlock: CUQRIR_clean_linker_1, # of connection points: 3
#     Node 14, Type 0, BuildingBlock: CUQRIR_clean_linker_1, # of connection points: 3
#     Node 15, Type 0, BuildingBlock: CUQRIR_clean_linker_1, # of connection points: 3
#     Node 16, Type 0, BuildingBlock: CUQRIR_clean_linker_1, # of connection points: 3
#     Node 17, Type 0, BuildingBlock: CUQRIR_clean_linker_1, # of connection points: 3
#     Node 18, Type 1, BuildingBlock: KUMJIN_clean_sbu_0, # of connection points: 6
#     Node 19, Type 1, BuildingBlock: KUMJIN_clean_sbu_0, # of connection points: 6
#     Node 20, Type 1, BuildingBlock: KUMJIN_clean_sbu_0, # of connection points: 6
#     Node 21, Type 1, BuildingBlock: KUMJIN_clean_sbu_0, # of connection points: 6
#     Node 22, Type 1, BuildingBlock: KUMJIN_clean_sbu_0, # of connection points: 6
#     Node 23, Type 1, BuildingBlock: KUMJIN_clean_sbu_0, # of connection points: 6
#     Node 24, Type 1, BuildingBlock: KUMJIN_clean_sbu_0, # of connection points: 6
#     Node 25, Type 1, BuildingBlock: KUMJIN_clean_sbu_0, # of connection points: 6
#     Node 26, Type 1, BuildingBlock: KUMJIN_clean_sbu_0, # of connection points: 6
#     Edge 27, Type (0, 1), BuildingBlock: EZIPEK_clean_linker_0, # of connection points: 2
#     Edge 28, Type (0, 1), BuildingBlock: EZIPEK_clean_linker_0, # of connection points: 2
#     Edge 29, Type (0, 1), BuildingBlock: EZIPEK_clean_linker_0, # of connection points: 2
#     Edge 30, Type (0, 1), BuildingBlock: EZIPEK_clean_linker_0, # of connection points: 2
#     Edge 31, Type (0, 1), BuildingBlock: EZIPEK_clean_linker_0, # of connection points: 2
#     Edge 32, Type (0, 1), BuildingBlock: EZIPEK_clean_linker_0, # of connection points: 2
#     Edge 33, Type (0, 1), BuildingBlock: EZIPEK_clean_linker_0, # of connection points: 2
#     Edge 34, Type (0, 1), BuildingBlock: EZIPEK_clean_linker_0, # of connection points: 2
#     Edge 35, Type (0, 1), BuildingBlock: EZIPEK_clean_linker_0, # of connection points: 2
#     Edge 36, Type (0, 1), BuildingBlock: EZIPEK_clean_linker_0, # of connection points: 2
#     Edge 37, Type (0, 1), BuildingBlock: EZIPEK_clean_linker_0, # of connection points: 2
#     Edge 38, Type (0, 1), BuildingBlock: EZIPEK_clean_linker_0, # of connection points: 2
#     Edge 39, Type (0, 1), BuildingBlock: EZIPEK_clean_linker_0, # of connection points: 2
#     Edge 40, Type (0, 1), BuildingBlock: EZIPEK_clean_linker_0, # of connection points: 2
#     Edge 41, Type (0, 1), BuildingBlock: EZIPEK_clean_linker_0, # of connection points: 2
#     Edge 42, Type (0, 1), BuildingBlock: EZIPEK_clean_linker_0, # of connection points: 2
#     Edge 43, Type (0, 1), BuildingBlock: EZIPEK_clean_linker_0, # of connection points: 2
#     Edge 44, Type (0, 1), BuildingBlock: EZIPEK_clean_linker_0, # of connection points: 2
#     Edge 45, Type (0, 1), BuildingBlock: EZIPEK_clean_linker_0, # of connection points: 2
#     Edge 46, Type (0, 1), BuildingBlock: EZIPEK_clean_linker_0, # of connection points: 2
#     Edge 47, Type (0, 1), BuildingBlock: EZIPEK_clean_linker_0, # of connection points: 2
#     Edge 48, Type (0, 1), BuildingBlock: EZIPEK_clean_linker_0, # of connection points: 2
#     Edge 49, Type (0, 1), BuildingBlock: EZIPEK_clean_linker_0, # of connection points: 2
#     Edge 50, Type (0, 1), BuildingBlock: EZIPEK_clean_linker_0, # of connection points: 2
#     Edge 51, Type (0, 1), BuildingBlock: EZIPEK_clean_linker_0, # of connection points: 2
#     Edge 52, Type (0, 1), BuildingBlock: EZIPEK_clean_linker_0, # of connection points: 2
#     Edge 53, Type (0, 1), BuildingBlock: EZIPEK_clean_linker_0, # of connection points: 2
#     Edge 54, Type (0, 1), BuildingBlock: EZIPEK_clean_linker_0, # of connection points: 2
#     Edge 55, Type (0, 1), BuildingBlock: EZIPEK_clean_linker_0, # of connection points: 2
#     Edge 56, Type (0, 1), BuildingBlock: EZIPEK_clean_linker_0, # of connection points: 2
#     Edge 57, Type (0, 1), BuildingBlock: EZIPEK_clean_linker_0, # of connection points: 2
#     Edge 58, Type (0, 1), BuildingBlock: EZIPEK_clean_linker_0, # of connection points: 2
#     Edge 59, Type (0, 1), BuildingBlock: EZIPEK_clean_linker_0, # of connection points: 2
#     Edge 60, Type (0, 1), BuildingBlock: EZIPEK_clean_linker_0, # of connection points: 2
#     Edge 61, Type (0, 1), BuildingBlock: EZIPEK_clean_linker_0, # of connection points: 2
#     Edge 62, Type (0, 1), BuildingBlock: EZIPEK_clean_linker_0, # of connection points: 2
#     Edge 63, Type (0, 1), BuildingBlock: EZIPEK_clean_linker_0, # of connection points: 2
#     Edge 64, Type (0, 1), BuildingBlock: EZIPEK_clean_linker_0, # of connection points: 2
#     Edge 65, Type (0, 1), BuildingBlock: EZIPEK_clean_linker_0, # of connection points: 2
#     Edge 66, Type (0, 1), BuildingBlock: EZIPEK_clean_linker_0, # of connection points: 2
#     Edge 67, Type (0, 1), BuildingBlock: EZIPEK_clean_linker_0, # of connection points: 2
#     Edge 68, Type (0, 1), BuildingBlock: EZIPEK_clean_linker_0, # of connection points: 2
#     Edge 69, Type (0, 1), BuildingBlock: EZIPEK_clean_linker_0, # of connection points: 2
#     Edge 70, Type (0, 1), BuildingBlock: EZIPEK_clean_linker_0, # of connection points: 2
#     Edge 71, Type (0, 1), BuildingBlock: EZIPEK_clean_linker_0, # of connection points: 2
#     Edge 72, Type (0, 1), BuildingBlock: EZIPEK_clean_linker_0, # of connection points: 2
#     Edge 73, Type (0, 1), BuildingBlock: EZIPEK_clean_linker_0, # of connection points: 2
#     Edge 74, Type (0, 1), BuildingBlock: EZIPEK_clean_linker_0, # of connection points: 2
#     Edge 75, Type (0, 1), BuildingBlock: EZIPEK_clean_linker_0, # of connection points: 2
#     Edge 76, Type (0, 1), BuildingBlock: EZIPEK_clean_linker_0, # of connection points: 2
#     Edge 77, Type (0, 1), BuildingBlock: EZIPEK_clean_linker_0, # of connection points: 2
#     Edge 78, Type (0, 1), BuildingBlock: EZIPEK_clean_linker_0, # of connection points: 2
#     Edge 79, Type (0, 1), BuildingBlock: EZIPEK_clean_linker_0, # of connection points: 2
#     Edge 80, Type (0, 1), BuildingBlock: EZIPEK_clean_linker_0, # of connection points: 2
# Relax obj value: 0.041
# Max RMSD: 0.229
# Mean RMSD: 0.164
data_MOF--net-eea--node1-KUMJIN_clean_sbu_0--node2-CUQRIR_clean_linker_1--edge1-EZIPEK_clean_linker_0
_symmetry_space_group_name_H-M    P1
_symmetry_Int_Tables_number       1
_symmetry_cell_setting            triclinic
loop_
_symmetry_equiv_pos_as_xyz
'x, y, z'
_cell_length_a     33.261102
_cell_length_b     36.005241
_cell_length_c     48.934024
_cell_angle_alpha  82.843774
_cell_angle_beta   89.914709
_cell_angle_gamma 118.23339
loop_
_atom_site_label
_atom_site_type_symbol
_atom_site_fract_x
_atom_site_fract_y
_atom_site_fract_z
_atom_type_partial_charge
C0 C 0.2215 0.11169 0.4026 0.0
N1 N 0.24166 0.14422 0.41779 0.0
N2 N 0.23204 0.08036 0.41114 0.0
C3 C 0.19183 0.11051 0.37924 0.0
C4 C 0.25892 0.09451 0.4322 0.0
N5 N 0.26421 0.13297 0.43682 0.0
C6 C 0.27965 0.07023 0.44833 0.0
H7 H 0.16447 0.07743 0.3786 0.0
H8 H 0.2131 0.12168 0.35946 0.0
H9 H 0.17626 0.13144 0.3812 0.0
H10 H 0.28972 0.05337 0.43452 0.0
H11 H 0.25373 0.04585 0.46423 0.0
H12 H 0.30999 0.09172 0.45864 0.0
C13 C 0.91183 0.12169 0.3999 0.0
N14 N 0.93166 0.15182 0.41689 0.0
N15 N 0.87418 0.08706 0.41258 0.0
C16 C 0.92817 0.12719 0.37043 0.0
C17 C 0.87142 0.09711 0.43801 0.0
N18 N 0.90571 0.13663 0.44076 0.0
C19 C 0.83399 0.06863 0.45986 0.0
H20 H 0.90305 0.10207 0.35917 0.0
H21 H 0.96099 0.12626 0.36968 0.0
H22 H 0.93433 0.15887 0.36024 0.0
H23 H 0.84547 0.07548 0.4808 0.0
H24 H 0.82286 0.03467 0.45836 0.0
H25 H 0.80411 0.07412 0.4566 0.0
C26 C 0.87734 0.7758 0.3919 0.0
N27 N 0.90045 0.76288 0.41005 0.0
N28 N 0.84291 0.77744 0.40517 0.0
C29 C 0.88871 0.78776 0.36133 0.0
C30 C 0.8457 0.76546 0.43199 0.0
N31 N 0.88046 0.75609 0.4352 0.0
C32 C 0.81216 0.75995 0.45485 0.0
H33 H 0.91694 0.78215 0.35462 0.0
H34 H 0.89836 0.82186 0.35548 0.0
H35 H 0.85791 0.76865 0.35051 0.0
H36 H 0.78079 0.72897 0.45487 0.0
H37 H 0.80221 0.78546 0.45142 0.0
H38 H 0.82673 0.7604 0.47527 0.0
C39 C 0.08876 0.18769 0.65213 0.0
N40 N 0.12934 0.20539 0.63713 0.0
N41 N 0.06093 0.20173 0.64035 0.0
C42 C 0.07691 0.1587 0.67927 0.0
C43 C 0.08486 0.22707 0.61699 0.0
N44 N 0.12646 0.22929 0.61493 0.0
C45 C 0.0692 0.2526 0.59754 0.0
H46 H 0.04107 0.13286 0.6802 0.0
H47 H 0.0795 0.17707 0.6964 0.0
H48 H 0.09982 0.14425 0.68236 0.0
H49 H 0.08649 0.28609 0.6017 0.0
H50 H 0.03162 0.2398 0.60028 0.0
H51 H 0.07892 0.25254 0.57585 0.0
C52 C 0.77122 0.89988 0.66276 0.0
N53 N 0.75806 0.86948 0.64581 0.0
N54 N 0.75574 0.92793 0.65472 0.0
C55 C 0.79968 0.90251 0.68698 0.0
C56 C 0.73264 0.91372 0.63236 0.0
N57 N 0.73467 0.8788 0.62632 0.0
C58 C 0.70962 0.93543 0.61574 0.0
H59 H 0.81833 0.93559 0.69182 0.0
H60 H 0.82438 0.89098 0.68285 0.0
H61 H 0.77682 0.88188 0.7053 0.0
H62 H 0.73555 0.9626 0.60125 0.0
H63 H 0.69431 0.94835 0.62951 0.0
H64 H 0.68256 0.91317 0.60378 0.0
C65 C 0.10905 0.90272 0.66694 0.0
N66 N 0.08648 0.87054 0.65176 0.0
N67 N 0.14414 0.93645 0.65164 0.0
C68 C 0.09836 0.90165 0.69683 0.0
C69 C 0.1429 0.9239 0.62662 0.0
N70 N 0.1076 0.88415 0.62642 0.0
C71 C 0.17771 0.94975 0.6029 0.0
H72 H 0.07312 0.86943 0.70646 0.0
H73 H 0.08531 0.92447 0.69876 0.0
H74 H 0.13018 0.91234 0.70792 0.0
H75 H 0.20603 0.94167 0.60428 0.0
H76 H 0.19216 0.98432 0.60385 0.0
H77 H 0.16276 0.94256 0.58276 0.0
C78 C 0.88815 0.44977 0.73302 0.0
N79 N 0.90455 0.4808 0.74954 0.0
N80 N 0.89757 0.41791 0.74256 0.0
C81 C 0.86286 0.4505 0.70767 0.0
C82 C 0.92006 0.43041 0.76547 0.0
N83 N 0.9236 0.46815 0.77014 0.0
C84 C 0.93696 0.4047 0.78398 0.0
H85 H 0.84374 0.46838 0.7097 0.0
H86 H 0.83892 0.41779 0.70371 0.0
H87 H 0.8879 0.46663 0.68954 0.0
H88 H 0.96469 0.42504 0.79639 0.0
H89 H 0.95001 0.3881 0.77195 0.0
H90 H 0.90806 0.38 0.79814 0.0
C91 C 0.57037 0.43651 0.74311 0.0
N92 N 0.59046 0.4762 0.75115 0.0
N93 N 0.52427 0.41888 0.74586 0.0
C94 C 0.59202 0.40761 0.74572 0.0
C95 C 0.51665 0.44547 0.75946 0.0
N96 N 0.55671 0.47943 0.76411 0.0
C97 C 0.47037 0.43438 0.77228 0.0
H98 H 0.59433 0.39761 0.72549 0.0
H99 H 0.57057 0.37791 0.75981 0.0
H100 H 0.62564 0.42231 0.75479 0.0
H101 H 0.47018 0.42823 0.79509 0.0
H102 H 0.4426 0.40577 0.76509 0.0
H103 H 0.46313 0.46137 0.76713 0.0
C104 C 0.54942 0.10995 0.73162 0.0
N105 N 0.58372 0.12256 0.7492 0.0
N106 N 0.50831 0.09356 0.74537 0.0
C107 C 0.55304 0.10314 0.70211 0.0
C108 C 0.51736 0.09059 0.77207 0.0
N109 N 0.56293 0.10771 0.7747 0.0
C110 C 0.48093 0.07201 0.79548 0.0
H111 H 0.54951 0.12772 0.68788 0.0
H112 H 0.52405 0.07214 0.69872 0.0
H113 H 0.58525 0.10272 0.69689 0.0
H114 H 0.49073 0.05652 0.81331 0.0
H115 H 0.44797 0.04838 0.78853 0.0
H116 H 0.47578 0.09781 0.80227 0.0
C117 C 0.79712 0.60128 1.00052 0.0
N118 N 0.83059 0.61158 0.98059 0.0
N119 N 0.75734 0.59335 0.98939 0.0
C120 C 0.80249 0.5966 0.03093 0.0
C121 C 0.76737 0.5999 0.962 0.0
N122 N 0.81191 0.61137 0.95634 0.0
C123 C 0.73392 0.59712 0.94057 0.0
H124 H 0.79079 0.56256 0.03863 0.0
H125 H 0.78102 0.60685 0.04184 0.0
H126 H 0.83877 0.61576 0.03536 0.0
H127 H 0.73631 0.62896 0.93497 0.0
H128 H 0.69828 0.57431 0.94859 0.0
H129 H 0.74196 0.58711 0.92168 0.0
C130 C 0.46321 0.23504 0.997 0.0
N131 N 0.45279 0.20521 0.97995 0.0
N132 N 0.45051 0.26432 0.98676 0.0
C133 C 0.48708 0.23617 0.02318 0.0
C134 C 0.43176 0.25127 0.96295 0.0
N135 N 0.43303 0.21537 0.95864 0.0
C136 C 0.41456 0.27502 0.94307 0.0
H137 H 0.48527 0.25874 0.03598 0.0
H138 H 0.52355 0.24618 0.01786 0.0
H139 H 0.47172 0.20384 0.03529 0.0
H140 H 0.44185 0.29511 0.92656 0.0
H141 H 0.40551 0.29591 0.95359 0.0
H142 H 0.38428 0.25251 0.93322 0.0
C143 C 0.78548 0.24689 0.99591 0.0
N144 N 0.76753 0.21363 0.9812 0.0
N145 N 0.82063 0.28173 0.98127 0.0
C146 C 0.76767 0.24564 0.02425 0.0
C147 C 0.82318 0.26877 0.95681 0.0
N148 N 0.7909 0.22769 0.95652 0.0
C149 C 0.8584 0.29574 0.93349 0.0
H150 H 0.73227 0.24075 0.02298 0.0
H151 H 0.78877 0.27522 0.03316 0.0
H152 H 0.76689 0.21847 0.03795 0.0
H153 H 0.88587 0.28651 0.93384 0.0
H154 H 0.87376 0.33009 0.9354 0.0
H155 H 0.84294 0.29016 0.91334 0.0
C156 C 0.54028 0.76975 0.0706 0.0
N157 N 0.56062 0.80017 0.08724 0.0
N158 N 0.54459 0.73484 0.0798 0.0
C159 C 0.51758 0.77459 0.04487 0.0
C160 C 0.56772 0.74474 0.10283 0.0
N161 N 0.57685 0.78411 0.1077 0.0
C162 C 0.58192 0.71608 0.12047 0.0
H163 H 0.48864 0.74363 0.04148 0.0
H164 H 0.54269 0.78594 0.02681 0.0
H165 H 0.50502 0.79793 0.04613 0.0
H166 H 0.61418 0.73507 0.13014 0.0
H167 H 0.58647 0.69403 0.10849 0.0
H168 H 0.55477 0.69643 0.13712 0.0
C169 C 0.24916 0.789 0.06827 0.0
N170 N 0.27178 0.81823 0.08539 0.0
N171 N 0.20891 0.75732 0.08048 0.0
C172 C 0.26668 0.7913 0.03961 0.0
C173 C 0.20744 0.76812 0.10582 0.0
N174 N 0.24536 0.80501 0.10904 0.0
C175 C 0.16856 0.74291 0.12749 0.0
H176 H 0.23949 0.76938 0.02757 0.0
H177 H 0.29466 0.78275 0.04083 0.0
H178 H 0.28069 0.82435 0.02897 0.0
H179 H 0.18157 0.73281 0.14627 0.0
H180 H 0.1409 0.71422 0.12032 0.0
H181 H 0.15436 0.76341 0.13334 0.0
C182 C 0.21666 0.44629 0.05455 0.0
N183 N 0.24273 0.43801 0.07297 0.0
N184 N 0.1798 0.44434 0.06764 0.0
C185 C 0.22824 0.45798 0.02409 0.0
C186 C 0.18403 0.43451 0.09462 0.0
N187 N 0.22257 0.43126 0.09802 0.0
C188 C 0.15128 0.42978 0.11772 0.0
H189 H 0.25885 0.48984 0.01982 0.0
H190 H 0.19936 0.45823 1.01307 0.0
H191 H 0.23649 0.43452 0.01652 0.0
H192 H 0.15122 0.40791 0.13584 0.0
H193 H 0.11607 0.41772 0.11083 0.0
H194 H 0.1621 0.46147 0.12413 0.0
C195 C 0.45588 0.919 0.34187 0.0
N196 N 0.48574 0.92504 0.3208 0.0
N197 N 0.41501 0.91109 0.33253 0.0
C198 C 0.46551 0.91813 0.37167 0.0
C199 C 0.42048 0.91267 0.30511 0.0
N200 N 0.46355 0.92138 0.29767 0.0
C201 C 0.38438 0.90848 0.28534 0.0
H202 H 0.46138 0.88623 0.37945 0.0
H203 H 0.44129 0.92365 0.38398 0.0
H204 H 0.50105 0.94259 0.374 0.0
H205 H 0.38666 0.94022 0.2794 0.0
H206 H 0.34965 0.88647 0.29516 0.0
H207 H 0.38951 0.89684 0.26636 0.0
C208 C 0.14849 0.58688 0.31546 0.0
N209 N 0.12808 0.55031 0.30384 0.0
N210 N 0.12016 0.60356 0.31765 0.0
C211 C 0.19887 0.61067 0.3198 0.0
C212 C 0.08428 0.5791 0.30393 0.0
N213 N 0.09232 0.55107 0.29165 0.0
C214 C 0.04027 0.58144 0.30356 0.0
H215 H 0.20389 0.6185 0.34118 0.0
H216 H 0.2149 0.64139 0.30584 0.0
H217 H 0.2167 0.59255 0.3152 0.0
H218 H 0.04711 0.6142 0.29538 0.0
H219 H 0.02543 0.57461 0.32507 0.0
H220 H 0.015 0.55798 0.29137 0.0
C221 C 0.43518 0.58145 0.32406 0.0
N222 N 0.4168 0.55131 0.30694 0.0
N223 N 0.47073 0.61783 0.31098 0.0
C224 C 0.41946 0.57487 0.3538 0.0
C225 C 0.47324 0.60885 0.28514 0.0
N226 N 0.44062 0.56873 0.28254 0.0
C227 C 0.50844 0.63877 0.26253 0.0
H228 H 0.38184 0.55453 0.35671 0.0
H229 H 0.42926 0.60561 0.36137 0.0
H230 H 0.43601 0.55857 0.36609 0.0
H231 H 0.53126 0.62548 0.25774 0.0
H232 H 0.52926 0.67095 0.26843 0.0
H233 H 0.4914 0.64146 0.24349 0.0
Eu234 Eu 0.51846 0.99108 1.00285 0.0
C235 C 0.61054 0.13023 0.06566 0.0
C236 C 0.67826 0.12877 0.08289 0.0
C237 C 0.6794 0.19643 0.07033 0.0
C238 C 0.63261 0.10707 0.07519 0.0
C239 C 0.63373 0.17521 0.06381 0.0
C240 C 0.70165 0.1733 0.07975 0.0
C241 C 0.56211 0.17505 0.05702 0.0
N242 N 0.56502 0.10896 0.06205 0.0
C243 C 0.5403 0.13065 0.06039 0.0
C244 C 0.6093 0.19755 0.05797 0.0
Eu245 Eu 0.53002 0.03316 0.06764 0.0
N246 N 0.60804 0.06377 0.08034 0.0
C247 C 0.62606 0.04169 0.09628 0.0
C248 C 0.69814 0.10528 0.09574 0.0
C249 C 0.67151 0.06165 0.10309 0.0
H250 H 0.50341 0.11423 0.06201 0.0
H251 H 0.68547 0.04346 0.11489 0.0
H252 H 0.73634 0.19015 0.0859 0.0
H253 H 0.54228 0.1918 0.05457 0.0
H254 H 0.60578 0.00882 0.10512 0.0
H255 H 0.34417 0.96004 0.98467 0.0
H256 H 0.73303 0.12085 0.10177 0.0
H257 H 0.56253 0.92363 0.99655 0.0
H258 H 0.42652 1.00317 0.98822 0.0
H259 H 0.53566 0.84738 0.99623 0.0
H260 H 0.69723 0.23076 0.06947 0.0
H261 H 0.31 0.8819 0.98818 0.0
H262 H 0.32208 0.81808 0.99065 0.0
H263 H 0.62602 0.23198 0.05623 0.0
H264 H 0.37338 0.78683 0.99621 0.0
N265 N 0.4385 0.95046 0.99884 0.0
C266 C 0.41183 0.96924 0.99233 0.0
C267 C 0.34599 0.9007 0.99129 0.0
C268 C 0.37408 0.88172 0.99567 0.0
C269 C 0.3651 0.94476 0.98934 0.0
C270 C 0.42081 0.90771 0.99957 0.0
H271 H 0.45285 0.79729 0.99855 0.0
N272 N 0.49559 0.917 1.00225 0.0
C273 C 0.51112 0.8588 0.99817 0.0
C274 C 0.45017 0.89042 1.00156 0.0
C275 C 0.52613 0.90202 0.99862 0.0
C276 C 0.46445 0.83072 0.99951 0.0
C277 C 0.43342 0.84656 1.00018 0.0
O278 O 0.51765 0.02171 0.96079 0.0
O279 O 0.56326 0.04779 0.0245 0.0
O280 O 0.48879 0.05644 0.04033 0.0
O281 O 0.50439 0.04795 0.99593 0.0
O282 O 0.5955 0.02082 1.00508 0.0
O283 O 0.54521 0.97856 0.96667 0.0
O284 O 0.47696 0.03581 0.09259 0.0
O285 O 0.47877 0.98581 0.04193 0.0
O286 O 0.54279 0.95469 0.0334 0.0
O287 O 0.55351 0.98327 0.07416 0.0
O288 O 0.48112 0.96385 0.08281 0.0
O289 O 0.5363 0.03795 0.11155 0.0
C290 C 0.60254 0.05225 0.01794 0.0
C291 C 0.57988 0.03375 0.92974 0.0
C292 C 0.61063 0.0681 0.88281 0.0
C293 C 0.57324 0.04625 0.90254 0.0
C294 C 0.6547 0.07761 0.89042 0.0
C295 C 0.62463 0.04448 0.93712 0.0
C296 C 0.66173 0.06649 0.91759 0.0
C297 C 0.48953 0.06497 1.01326 0.0
C298 C 0.53986 1.00557 0.94921 0.0
C299 C 0.38671 0.8204 0.99753 0.0
C300 C 0.35736 0.83813 0.99468 0.0
C301 C 0.45997 0.95344 0.0607 0.0
C302 C 0.4667 0.99988 0.1385 0.0
C303 C 0.48574 0.99637 0.16376 0.0
C304 C 0.45918 0.96449 0.18558 0.0
C305 C 0.41368 0.93535 0.18179 0.0
C306 C 0.42095 0.97055 0.1352 0.0
C307 C 0.39477 0.93836 0.15671 0.0
C308 C 0.55463 0.95606 0.05903 0.0
C309 C 0.49552 0.03334 0.1157 0.0
H310 H 0.539 0.03803 0.89649 0.0
H311 H 0.68341 0.09299 0.87522 0.0
H312 H 0.63101 0.03483 0.95772 0.0
H313 H 0.69588 0.07405 0.92338 0.0
H314 H 0.52096 0.0187 0.16663 0.0
H315 H 0.39269 0.91048 0.19839 0.0
H316 H 0.40542 0.97224 0.116 0.0
H317 H 0.35964 0.9158 0.15397 0.0
Eu318 Eu 0.03653 0.54093 0.9917 0.0
C319 C 0.8702 0.46145 0.08362 0.0
C320 C 0.8421 0.51252 0.08192 0.0
C321 C 0.79097 0.43792 0.09854 0.0
C322 C 0.87738 0.50256 0.07673 0.0
C323 C 0.82699 0.42868 0.09491 0.0
C324 C 0.79867 0.47986 0.09234 0.0
C325 C 0.85962 0.38125 0.10167 0.0
N326 N 0.90625 0.45401 0.08094 0.0
C327 C 0.902 0.41495 0.09102 0.0
C328 C 0.82178 0.388 0.10334 0.0
Eu329 Eu 0.97743 0.51326 0.06288 0.0
N330 N 0.91989 0.53345 0.0671 0.0
C331 C 0.93025 0.5752 0.06418 0.0
C332 C 0.85219 0.55524 0.07787 0.0
C333 C 0.89657 0.58679 0.06903 0.0
H334 H 0.93103 0.4093 0.09029 0.0
H335 H 0.90507 0.62004 0.0664 0.0
H336 H 0.77126 0.48687 0.09656 0.0
H337 H 0.8563 0.35019 0.10887 0.0
H338 H 0.96468 0.59955 0.05829 0.0
H339 H 0.13201 0.45297 0.98714 0.0
H340 H 0.82639 0.56426 0.08245 0.0
H341 H 0.07175 0.64412 0.96639 0.0
H342 H 0.06408 0.46268 0.99199 0.0
H343 H 0.14338 0.70981 0.95137 0.0
H344 H 0.75754 0.4132 0.10714 0.0
H345 H 0.20866 0.51618 0.9776 0.0
H346 H 0.25575 0.59551 0.96699 0.0
H347 H 0.78912 0.36198 0.11201 0.0
H348 H 0.25869 0.66547 0.95672 0.0
N349 N 0.10105 0.52976 0.98709 0.0
C350 C 0.09705 0.49014 0.9885 0.0
C351 C 0.17874 0.52032 0.98015 0.0
C352 C 0.18241 0.56094 0.97667 0.0
C353 C 0.13564 0.48468 0.98548 0.0
C354 C 0.14226 0.56459 0.97969 0.0
H355 H 0.2169 0.70825 0.95039 0.0
N356 N 0.10395 0.60534 0.97472 0.0
C357 C 0.14403 0.68018 0.95756 0.0
C358 C 0.14377 0.60361 0.97316 0.0
C359 C 0.10336 0.64272 0.96609 0.0
C360 C 0.18545 0.67919 0.95707 0.0
C361 C 0.18565 0.6405 0.96451 0.0
O362 O 0.01633 0.55587 0.95111 0.0
O363 O 0.98389 0.54342 0.0188 0.0
O364 O 0.9346 0.45673 0.04009 0.0
O365 O 0.98018 0.4705 0.99969 0.0
O366 O 1.00064 0.57982 0.98049 0.0
O367 O 0.02179 0.49789 0.96109 0.0
O368 O 0.01153 0.5019 0.09876 0.0
O369 O 0.03167 0.51356 0.03593 0.0
O370 O 0.08224 0.59235 0.01664 0.0
O371 O 0.03356 0.58382 0.0542 0.0
O372 O 0.00353 0.46566 0.06918 0.0
O373 O 0.98573 0.54627 0.09903 0.0
C374 C 0.97487 0.56892 1.00273 0.0
C375 C 0.03366 0.52847 0.91411 0.0
C376 C 0.02166 0.52421 0.86519 0.0
C377 C 0.00589 0.5242 0.89187 0.0
C378 C 0.06675 0.53141 0.8608 0.0
C379 C 0.07869 0.5361 0.90934 0.0
C380 C 0.09522 0.53795 0.88268 0.0
C381 C 0.94324 0.44544 0.01681 0.0
C382 C 0.01392 0.52227 0.94218 0.0
C383 C 0.22614 0.63745 0.9631 0.0
C384 C 0.2245 0.59767 0.96905 0.0
C385 C 0.03277 0.48078 0.04814 0.0
C386 C 0.98938 0.51011 0.14233 0.0
C387 C 0.02051 0.52322 0.16312 0.0
C388 C 0.00572 0.50661 0.19111 0.0
C389 C 0.95978 0.47638 0.19803 0.0
C390 C 0.94352 0.4801 0.14977 0.0
C391 C 0.92894 0.46322 0.17745 0.0
C392 C 0.07325 0.60527 0.03892 0.0
C393 C 0.00544 0.52701 0.11304 0.0
H394 H 0.97111 0.51843 0.89554 0.0
H395 H 0.07969 0.53137 0.84048 0.0
H396 H 0.10068 0.53986 0.92622 0.0
H397 H 0.12984 0.54343 0.87909 0.0
H398 H 0.05594 0.54669 0.15763 0.0
H399 H 0.94769 0.46352 0.21942 0.0
H400 H 0.91899 0.46974 0.13424 0.0
H401 H 0.89348 0.44009 0.18299 0.0
Eu402 Eu 0.51175 0.48893 0.06735 0.0
C403 C 0.41917 0.55783 0.97636 0.0
C404 C 0.34067 0.50288 0.97657 0.0
C405 C 0.35983 0.5772 0.96463 0.0
C406 C 0.38682 0.51544 0.98149 0.0
C407 C 0.40627 0.5892 0.96733 0.0
C408 C 0.32709 0.53402 0.96901 0.0
C409 C 0.48646 0.641 0.96067 0.0
N410 N 0.46374 0.56803 0.97819 0.0
C411 C 0.49751 0.60858 0.96916 0.0
C412 C 0.4406 0.63139 0.96015 0.0
Eu413 Eu 0.48011 0.51213 0.99496 0.0
N414 N 0.40119 0.48623 0.98854 0.0
C415 C 0.3719 0.44396 0.98861 0.0
C416 C 0.31013 0.45946 0.9778 0.0
C417 C 0.32592 0.42988 0.98359 0.0
H418 H 0.53302 0.61611 0.96969 0.0
H419 H 0.30282 0.39626 0.98392 0.0
H420 H 0.29166 0.52499 0.96559 0.0
H421 H 0.5133 0.67331 0.95445 0.0
H422 H 0.38381 0.42081 0.99222 0.0
H423 H 0.68015 0.62156 0.07916 0.0
H424 H 0.27481 0.44857 0.97316 0.0
H425 H 0.47843 0.38627 0.09282 0.0
H426 H 0.5964 0.58447 0.0782 0.0
H427 H 0.51205 0.33793 0.1013 0.0
H428 H 0.34914 0.60084 0.95801 0.0
H429 H 0.72264 0.58078 0.07925 0.0
H430 H 0.72006 0.50982 0.08118 0.0
H431 H 0.4321 0.65645 0.95324 0.0
H432 H 0.67394 0.43152 0.08728 0.0
N433 N 0.59187 0.52515 0.07256 0.0
C434 C 0.61471 0.56714 0.07579 0.0
C435 C 0.68602 0.56484 0.07747 0.0
C436 C 0.66172 0.52084 0.07739 0.0
C437 C 0.66218 0.58795 0.07737 0.0
C438 C 0.61395 0.50163 0.07534 0.0
H439 H 0.59596 0.36695 0.09537 0.0
N440 N 0.54205 0.44119 0.07974 0.0
C441 C 0.5339 0.37159 0.09461 0.0
C442 C 0.58812 0.45803 0.07877 0.0
C443 C 0.51495 0.39896 0.08965 0.0
C444 C 0.58123 0.38806 0.09116 0.0
C445 C 0.60912 0.43201 0.08412 0.0
O446 O 0.51057 0.5253 0.10025 0.0
O447 O 0.45786 0.48964 0.04012 0.0
O448 O 0.48558 0.5643 0.01875 0.0
O449 O 0.52482 0.55806 0.05742 0.0
O450 O 0.43632 0.44041 0.07208 0.0
O451 O 0.48487 0.45781 0.10951 0.0
O452 O 0.5191 0.5367 0.95459 0.0
O453 O 0.53452 0.51448 0.02277 0.0
O454 O 0.50127 0.43519 0.04317 0.0
O455 O 0.4605 0.44185 1.00548 0.0
O456 O 0.55588 0.55552 0.98631 0.0
O457 O 0.46792 0.4706 0.96349 0.0
C458 C 0.4227 0.45735 0.05197 0.0
C459 C 0.45229 0.48793 0.13707 0.0
C460 C 0.42363 0.50175 0.17897 0.0
C461 C 0.46061 0.50755 0.16132 0.0
C462 C 0.37886 0.47757 0.17151 0.0
C463 C 0.40684 0.46244 0.13104 0.0
C464 C 0.37058 0.45804 0.14778 0.0
C465 C 0.50842 0.57891 0.04053 0.0
C466 C 0.49065 0.492 0.11905 0.0
C467 C 0.65704 0.45091 0.08377 0.0
C468 C 0.68331 0.49537 0.08044 0.0
C469 C 0.56979 0.54364 1.0085 0.0
C470 C 0.48448 0.50144 0.91624 0.0
C471 C 0.51481 0.50647 0.89396 0.0
C472 C 0.50016 0.50293 0.86676 0.0
C473 C 0.45534 0.49563 0.86236 0.0
C474 C 0.44039 0.49495 0.91092 0.0
C475 C 0.42606 0.49217 0.88414 0.0
C476 C 0.47764 0.42113 0.02151 0.0
C477 C 0.49795 0.50049 0.94506 0.0
H478 H 0.49542 0.52654 0.16669 0.0
H479 H 0.35027 0.47337 0.18446 0.0
H480 H 0.39897 0.44566 0.1134 0.0
H481 H 0.33591 0.43883 0.14246 0.0
H482 H 0.54912 0.51196 0.89787 0.0
H483 H 0.44288 0.49254 0.84187 0.0
H484 H 0.41676 0.49135 0.92757 0.0
H485 H 0.39179 0.48674 0.88028 0.0
Eu486 Eu 0.16976 0.32072 0.32993 0.0
C487 C 0.23772 0.46313 0.4081 0.0
C488 C 0.3203 0.49491 0.40581 0.0
C489 C 0.28352 0.53499 0.41905 0.0
C490 C 0.27708 0.46094 0.40198 0.0
C491 C 0.24048 0.49998 0.41705 0.0
C492 C 0.32337 0.53236 0.41359 0.0
C493 C 0.15796 0.46387 0.42327 0.0
N494 N 0.19668 0.42841 0.40664 0.0
C495 C 0.15698 0.42791 0.41461 0.0
C496 C 0.19991 0.50009 0.4245 0.0
Eu497 Eu 0.19807 0.36735 0.39456 0.0
N498 N 0.27301 0.42418 0.39476 0.0
C499 C 0.31034 0.41798 0.39353 0.0
C500 C 0.3589 0.48932 0.40326 0.0
C501 C 0.35385 0.45055 0.3973 0.0
H502 H 0.12448 0.39976 0.41404 0.0
H503 H 0.3833 0.44541 0.39614 0.0
H504 H 0.35633 0.55898 0.41624 0.0
H505 H 0.12641 0.46352 0.4292 0.0
H506 H 0.30662 0.38753 0.39024 0.0
H507 H 0.99744 0.30684 0.33053 0.0
H508 H 0.39244 0.51405 0.40697 0.0
H509 H 0.19906 0.24192 0.32515 0.0
H510 H 0.07836 0.34044 0.33809 0.0
H511 H 0.16171 0.16599 0.32114 0.0
H512 H 0.28633 0.5637 0.42566 0.0
H513 H 0.9579 0.23315 0.31994 0.0
H514 H 0.96156 0.16787 0.31197 0.0
H515 H 0.2006 0.52778 0.43148 0.0
H516 H 0.00481 0.12851 0.31232 0.0
N517 N 0.08811 0.2882 0.32985 0.0
C518 C 0.06332 0.30921 0.33221 0.0
C519 C 0.99427 0.24816 0.32273 0.0
C520 C 0.01895 0.22602 0.32128 0.0
C521 C 0.01648 0.28977 0.32853 0.0
C522 C 0.06631 0.24683 0.32533 0.0
H523 H 0.07837 0.12687 0.31708 0.0
N524 N 0.13675 0.24564 0.32789 0.0
C525 C 0.14129 0.18191 0.32247 0.0
C526 C 0.09104 0.22483 0.32484 0.0
C527 C 0.16214 0.22495 0.32549 0.0
C528 C 0.09435 0.16004 0.3201 0.0
C529 C 0.06883 0.18159 0.32057 0.0
O530 O 0.17304 0.35418 0.28816 0.0
O531 O 0.22056 0.37662 0.34974 0.0
O532 O 0.17718 0.40926 0.36578 0.0
O533 O 0.15531 0.3775 0.32568 0.0
O534 O 0.24789 0.35241 0.32448 0.0
O535 O 0.1861 0.30085 0.29329 0.0
O536 O 0.17505 0.35593 0.4385 0.0
O537 O 0.14701 0.31234 0.37462 0.0
O538 O 0.19608 0.28368 0.358 0.0
O539 O 0.23157 0.32503 0.39226 0.0
O540 O 0.12155 0.3296 0.40601 0.0
O541 O 0.22848 0.3421 0.42552 0.0
C542 C 0.25833 0.38292 0.33888 0.0
C543 C 0.22678 0.3534 0.25565 0.0
C544 C 0.25767 0.38394 0.20814 0.0
C545 C 0.22147 0.36811 0.22862 0.0
C546 C 0.29941 0.3857 0.2149 0.0
C547 C 0.26896 0.35511 0.26184 0.0
C548 C 0.30511 0.37175 0.24171 0.0
C549 C 0.16139 0.40785 0.34073 0.0
C550 C 0.18682 0.33152 0.27606 0.0
C551 C 0.02213 0.16138 0.31604 0.0
C552 C 0.99751 0.18379 0.31588 0.0
C553 C 0.11011 0.30307 0.38847 0.0
C554 C 0.22972 0.35757 0.47085 0.0
C555 C 0.21019 0.33326 0.49655 0.0
C556 C 0.23654 0.33936 0.51967 0.0
C557 C 0.28258 0.37102 0.51691 0.0
C558 C 0.27522 0.39033 0.46868 0.0
C559 C 0.3014 0.39707 0.49166 0.0
C560 C 0.22022 0.29123 0.37982 0.0
C561 C 0.20466 0.34324 0.44625 0.0
H562 H 0.18889 0.36596 0.22325 0.0
H563 H 0.32706 0.39654 0.19926 0.0
H564 H 0.27382 0.342 0.28183 0.0
H565 H 0.33717 0.37252 0.24669 0.0
H566 H 0.17504 0.30793 0.49828 0.0
H567 H 0.30369 0.37573 0.53433 0.0
H568 H 0.29107 0.40962 0.44914 0.0
H569 H 0.33674 0.4218 0.48969 0.0
Eu570 Eu 0.70019 0.86817 0.32598 0.0
C571 C 0.53143 0.80049 0.41389 0.0
C572 C 0.51386 0.858 0.41595 0.0
C573 C 0.45436 0.78481 0.42848 0.0
C574 C 0.54464 0.84337 0.40914 0.0
C575 C 0.48621 0.77065 0.42386 0.0
C576 C 0.46835 0.82849 0.42493 0.0
C577 C 0.509 0.71585 0.42802 0.0
N578 N 0.56378 0.7883 0.41088 0.0
C579 C 0.55368 0.74683 0.41902 0.0
C580 C 0.47495 0.72773 0.43019 0.0
Eu581 Eu 0.63917 0.84261 0.39538 0.0
N582 N 0.58886 0.87104 0.4006 0.0
C583 C 0.60488 0.91372 0.39951 0.0
C584 C 0.53039 0.90182 0.41495 0.0
C585 C 0.57599 0.92986 0.40636 0.0
H586 H 0.57989 0.73738 0.41772 0.0
H587 H 0.58923 0.96383 0.40569 0.0
H588 H 0.44404 0.83917 0.42982 0.0
H589 H 0.50099 0.68292 0.43359 0.0
H590 H 0.64036 0.93526 0.3945 0.0
H591 H 0.76979 0.75889 0.32083 0.0
H592 H 0.50843 0.91425 0.42129 0.0
H593 H 0.75172 0.97342 0.30153 0.0
H594 H 0.71009 0.78044 0.32498 0.0
H595 H 0.82928 0.03254 0.28852 0.0
H596 H 0.41942 0.76239 0.436 0.0
H597 H 0.851 0.81409 0.3129 0.0
H598 H 0.90914 0.8915 0.30541 0.0
H599 H 0.44054 0.70381 0.4377 0.0
H600 H 0.92531 0.96625 0.29632 0.0
N601 N 0.7565 0.846 0.32215 0.0
C602 C 0.74523 0.8043 0.32273 0.0
C603 C 0.82487 0.82334 0.31575 0.0
C604 C 0.83611 0.86627 0.31347 0.0
C605 C 0.77909 0.79219 0.31998 0.0
C606 C 0.80054 0.87671 0.31616 0.0
H607 H 0.89562 0.01904 0.28943 0.0
N608 N 0.77358 0.92656 0.31058 0.0
C609 C 0.82421 1.00059 0.29463 0.0
C610 C 0.8094 0.91839 0.31015 0.0
C611 C 0.78017 0.96685 0.30193 0.0
C612 C 0.86157 0.99288 0.29526 0.0
C613 C 0.85439 0.95127 0.30257 0.0
O614 O 0.68796 0.89097 0.28487 0.0
O615 O 0.64438 0.86889 0.35082 0.0
O616 O 0.592 0.79205 0.36987 0.0
O617 O 0.64146 0.79836 0.33353 0.0
O618 O 0.67603 0.91732 0.31873 0.0
O619 O 0.67592 0.82598 0.29464 0.0
O620 O 0.65334 0.81568 0.43448 0.0
O621 O 0.69446 0.84185 0.37032 0.0
O622 O 0.7483 0.91715 0.35176 0.0
O623 O 0.69915 0.91195 0.38791 0.0
O624 O 0.66018 0.79131 0.40107 0.0
O625 O 0.66328 0.8799 0.42957 0.0
C626 C 0.64467 0.90221 0.3385 0.0
C627 C 0.69559 0.85727 0.24818 0.0
C628 C 0.68268 0.84542 0.20025 0.0
C629 C 0.66769 0.85017 0.22584 0.0
C630 C 0.72704 0.8503 0.19696 0.0
C631 C 0.73992 0.86262 0.24446 0.0
C632 C 0.75565 0.85951 0.21882 0.0
C633 C 0.60138 0.77732 0.34853 0.0
C634 C 0.67633 0.85504 0.27566 0.0
C635 C 0.89046 0.94141 0.30184 0.0
C636 C 0.8813 0.8989 0.30712 0.0
C637 C 0.69248 0.80743 0.38177 0.0
C638 C 0.64426 0.84147 0.47478 0.0
C639 C 0.67108 0.84315 0.49735 0.0
C640 C 0.65359 0.83912 0.52449 0.0
C641 C 0.60825 0.83126 0.52871 0.0
C642 C 0.59913 0.83347 0.47955 0.0
C643 C 0.58117 0.82807 0.50642 0.0
C644 C 0.73957 0.93173 0.37329 0.0
C645 C 0.66408 0.84919 0.44638 0.0
H646 H 0.63338 0.846 0.22874 0.0
H647 H 0.73933 0.84654 0.17752 0.0
H648 H 0.76186 0.86822 0.26148 0.0
H649 H 0.78971 0.8632 0.21608 0.0
H650 H 0.70602 0.84934 0.49377 0.0
H651 H 0.59402 0.8282 0.54931 0.0
H652 H 0.57797 0.83187 0.46252 0.0
H653 H 0.54637 0.82215 0.50994 0.0
Eu654 Eu 0.16455 0.8191 0.40782 0.0
C655 C 0.08014 0.88194 0.31245 0.0
C656 C 0.00553 0.82047 0.31335 0.0
C657 C 0.01391 0.89144 0.30161 0.0
C658 C 0.05274 0.83849 0.31734 0.0
C659 C 0.06136 0.90893 0.30362 0.0
C660 C 0.986 0.8472 0.30643 0.0
C661 C 0.13821 0.96748 0.29577 0.0
N662 N 0.12576 0.89755 0.31432 0.0
C663 C 0.15502 0.93926 0.30442 0.0
C664 C 0.09105 0.95241 0.29595 0.0
Eu665 Eu 0.15216 0.84909 0.33277 0.0
N666 N 0.0729 0.81377 0.32394 0.0
C667 C 0.04844 0.77076 0.32372 0.0
C668 C 0.9798 0.77623 0.31521 0.0
C669 C 0.00161 0.75138 0.31973 0.0
H670 H 0.19148 0.95091 0.30373 0.0
H671 H 0.98235 0.71719 0.32031 0.0
H672 H 0.94969 0.83395 0.30374 0.0
H673 H 0.16162 1.00074 0.28882 0.0
H674 H 0.06423 0.75067 0.32695 0.0
H675 H 0.34115 0.93033 0.42642 0.0
H676 H 0.94352 0.76111 0.31214 0.0
H677 H 0.10635 0.71631 0.43769 0.0
H678 H 0.26061 0.9087 0.41814 0.0
H679 H 0.12263 0.65747 0.45444 0.0
H680 H 0.99874 0.91169 0.29528 0.0
H681 H 0.3672 0.8761 0.43395 0.0
H682 H 0.34661 0.79868 0.44195 0.0
H683 H 0.07803 0.97422 0.28905 0.0
H684 H 0.28658 0.72378 0.44979 0.0
N685 N 0.24171 0.84326 0.41858 0.0
C686 C 0.2715 0.88476 0.42077 0.0
C687 C 0.33178 0.86645 0.43008 0.0
C688 C 0.29979 0.82342 0.43101 0.0
C689 C 0.31721 0.89713 0.42584 0.0
C690 C 0.25413 0.81261 0.42572 0.0
H691 H 0.20275 0.67084 0.45529 0.0
N692 N 0.1762 0.76155 0.42746 0.0
C693 C 0.15046 0.68897 0.44735 0.0
C694 C 0.22035 0.77043 0.43014 0.0
C695 C 0.14132 0.7223 0.43785 0.0
C696 C 0.19572 0.69662 0.44771 0.0
C697 C 0.23139 0.73803 0.43988 0.0
O698 O 0.11527 0.82544 0.43406 0.0
O699 O 0.11874 0.82486 0.3761 0.0
O700 O 0.1657 0.90591 0.35435 0.0
O701 O 0.18996 0.89114 0.39756 0.0
O702 O 0.0906 0.77136 0.40611 0.0
O703 O 0.17563 0.8288 0.45131 0.0
O704 O 0.19215 0.88074 0.29303 0.0
O705 O 0.1977 0.84457 0.36517 0.0
O706 O 0.15319 0.76207 0.3864 0.0
O707 O 0.1383 0.78041 0.34118 0.0
O708 O 0.22882 0.89247 0.33245 0.0
O709 O 0.15675 0.81246 0.30172 0.0
C710 C 0.08174 0.79151 0.38513 0.0
C711 C 0.10994 0.80342 0.48213 0.0
C712 C 0.08775 0.7993 0.53064 0.0
C713 C 0.11441 0.82299 0.506 0.0
C714 C 0.05705 0.75585 0.53124 0.0
C715 C 0.07835 0.76011 0.48309 0.0
C716 C 0.05232 0.73648 0.50756 0.0
C717 C 0.18254 0.91654 0.3784 0.0
C718 C 0.13725 0.82873 0.45621 0.0
C719 C 0.27736 0.74834 0.44284 0.0
C720 C 0.31154 0.791 0.4384 0.0
C721 C 0.23599 0.87442 0.35495 0.0
C722 C 0.1701 0.84223 0.25466 0.0
C723 C 0.20213 0.84676 0.23363 0.0
C724 C 0.18852 0.83868 0.20661 0.0
C725 C 0.14294 0.82743 0.20108 0.0
C726 C 0.12523 0.8316 0.24823 0.0
C727 C 0.11188 0.8244 0.22158 0.0
C728 C 0.14273 0.75396 0.36079 0.0
C729 C 0.1824 0.84538 0.28364 0.0
H730 H 0.13822 0.85657 0.5054 0.0
H731 H 0.03628 0.73713 0.54995 0.0
H732 H 0.07346 0.74467 0.46488 0.0
H733 H 0.02805 0.70309 0.5081 0.0
H734 H 0.23699 0.85533 0.23842 0.0
H735 H 0.13127 0.82087 0.18069 0.0
H736 H 0.10029 0.8281 0.26399 0.0
H737 H 0.07704 0.81582 0.21685 0.0
Eu738 Eu 0.82861 0.65681 0.67002 0.0
C739 C 0.94668 0.77784 0.7411 0.0
C740 C 0.98006 0.75284 0.77844 0.0
C741 C 0.02075 0.82625 0.75648 0.0
C742 C 0.94433 0.74507 0.76063 0.0
C743 C 0.98457 0.81903 0.73945 0.0
C744 C 0.0188 0.79314 0.77562 0.0
C745 C 0.94758 0.84416 0.70525 0.0
N746 N 0.91077 0.77041 0.72514 0.0
C747 C 0.91083 0.80306 0.70752 0.0
C748 C 0.98429 0.85228 0.7215 0.0
Eu749 Eu 0.84672 0.70127 0.73456 0.0
N750 N 0.90545 0.70689 0.764 0.0
C751 C 0.89808 0.67765 0.78683 0.0
C752 C 0.9746 0.72075 0.79978 0.0
C753 C 0.93298 0.68332 0.80436 0.0
H754 H 0.88261 0.79837 0.69533 0.0
H755 H 0.92728 0.65937 0.82184 0.0
H756 H 0.04653 0.79957 0.78906 0.0
H757 H 0.94709 0.86977 0.69135 0.0
H758 H 0.86493 0.65007 0.79155 0.0
H759 H 0.6467 0.60681 0.66641 0.0
H760 H 1.00129 0.72557 0.81379 0.0
H761 H 0.88539 0.60232 0.65999 0.0
H762 H 0.72731 0.6554 0.67285 0.0
H763 H 0.86844 0.52989 0.65249 0.0
H764 H 0.04999 0.85769 0.75551 0.0
H765 H 0.6237 0.53381 0.65688 0.0
H766 H 0.64662 0.47903 0.64817 0.0
H767 H 0.01165 0.88459 0.72052 0.0
H768 H 0.70628 0.45735 0.64608 0.0
N769 N 0.74968 0.60991 0.66873 0.0
C770 C 0.71772 0.62344 0.66938 0.0
C771 C 0.65911 0.55485 0.6602 0.0
C772 C 0.69222 0.54149 0.65884 0.0
C773 C 0.67194 0.59601 0.66554 0.0
C774 C 0.73772 0.56984 0.66381 0.0
H775 H 0.78844 0.47519 0.64916 0.0
N776 N 0.81535 0.58677 0.66553 0.0
C777 C 0.84077 0.53708 0.65558 0.0
C778 C 0.77137 0.55767 0.66262 0.0
C779 C 0.8502 0.57779 0.66032 0.0
C780 C 0.79559 0.50633 0.65372 0.0
C781 C 0.76041 0.51685 0.65626 0.0
O782 O 0.87329 0.67336 0.63283 0.0
O783 O 0.87538 0.7141 0.69054 0.0
O784 O 0.81495 0.73533 0.7072 0.0
O785 O 0.80759 0.70971 0.6648 0.0
O786 O 0.90526 0.68533 0.6699 0.0
O787 O 0.80609 0.66661 0.62855 0.0
O788 O 0.78844 0.70105 0.7556 0.0
O789 O 0.79401 0.65305 0.7106 0.0
O790 O 0.8488 0.61677 0.70075 0.0
O791 O 0.87603 0.65442 0.73798 0.0
O792 O 0.79573 0.63308 0.75202 0.0
O793 O 0.85374 0.73159 0.77183 0.0
C794 C 0.91362 0.71643 0.6834 0.0
C795 C 0.84116 0.65305 0.5909 0.0
C796 C 0.85775 0.65897 0.54133 0.0
C797 C 0.85426 0.67737 0.56448 0.0
C798 C 0.84939 0.61656 0.54504 0.0
C799 C 0.82997 0.60996 0.59358 0.0
C800 C 0.83472 0.59202 0.57095 0.0
C801 C 0.80329 0.73457 0.68126 0.0
C802 C 0.84388 0.67387 0.61561 0.0
C803 C 0.71522 0.48864 0.6512 0.0
C804 C 0.6813 0.50107 0.65225 0.0
C805 C 0.77511 0.62127 0.72986 0.0
C806 C 0.79 0.6924 0.80438 0.0
C807 C 0.81753 0.69011 0.8259 0.0
C808 C 0.79715 0.66554 0.85166 0.0
C809 C 0.74928 0.64352 0.85581 0.0
C810 C 0.74217 0.67028 0.80924 0.0
C811 C 0.72205 0.64597 0.83476 0.0
C812 C 0.86987 0.62313 0.72395 0.0
C813 C 0.81031 0.71679 0.7767 0.0
H814 H 0.86194 0.71046 0.56193 0.0
H815 H 0.85239 0.60199 0.5276 0.0
H816 H 0.81811 0.59012 0.6131 0.0
H817 H 0.82681 0.55891 0.57352 0.0
H818 H 0.85447 0.70724 0.82283 0.0
H819 H 0.73294 0.62446 0.87548 0.0
H820 H 0.72025 0.67156 0.7932 0.0
H821 H 0.68516 0.62889 0.83824 0.0
Eu822 Eu 0.3627 0.19438 0.66293 0.0
C823 C 0.21861 0.14193 0.76974 0.0
C824 C 0.22119 0.20943 0.77369 0.0
C825 C 0.16119 0.14416 0.79934 0.0
C826 C 0.24016 0.1859 0.76315 0.0
C827 C 0.17829 0.12054 0.78737 0.0
C828 C 0.18264 0.18853 0.79254 0.0
C829 C 0.17312 0.05382 0.77876 0.0
N830 N 0.2351 0.11993 0.75711 0.0
C831 C 0.21328 0.07639 0.76153 0.0
C832 C 0.15569 0.07597 0.79189 0.0
Eu833 Eu 0.30887 0.16075 0.73433 0.0
N834 N 0.27576 0.20467 0.74356 0.0
C835 C 0.29161 0.24641 0.73242 0.0
C836 C 0.23969 0.25276 0.76369 0.0
C837 C 0.27435 0.27105 0.74254 0.0
H838 H 0.22792 0.059 0.75275 0.0
H839 H 0.28761 0.30415 0.73384 0.0
H840 H 0.16799 0.20618 0.80107 0.0
H841 H 0.1561 0.01936 0.7823 0.0
H842 H 0.31742 0.26127 0.71555 0.0
H843 H 0.46062 0.10887 0.6567 0.0
H844 H 0.22599 0.27186 0.77119 0.0
H845 H 0.39545 0.29576 0.63587 0.0
H846 H 0.39136 0.1172 0.66034 0.0
H847 H 0.46692 0.36296 0.62179 0.0
H848 H 0.13056 0.12831 0.81318 0.0
H849 H 0.53689 0.17283 0.64963 0.0
H850 H 0.5831 0.25258 0.64069 0.0
H851 H 0.12461 0.05838 0.80527 0.0
H852 H 0.58484 0.32211 0.63114 0.0
N853 N 0.42767 0.18417 0.65774 0.0
C854 C 0.4243 0.14495 0.65786 0.0
C855 C 0.5065 0.17639 0.65168 0.0
C856 C 0.50951 0.21677 0.649 0.0
C857 C 0.46355 0.14028 0.65555 0.0
C858 C 0.46885 0.21963 0.65176 0.0
H859 H 0.54159 0.36358 0.62361 0.0
N860 N 0.42963 0.25959 0.6473 0.0
C861 C 0.46832 0.33393 0.62893 0.0
C862 C 0.46988 0.25863 0.64639 0.0
C863 C 0.42797 0.29592 0.63697 0.0
C864 C 0.51039 0.33416 0.63005 0.0
C865 C 0.51148 0.29598 0.63813 0.0
O866 O 0.34669 0.21594 0.62247 0.0
O867 O 0.29995 0.17753 0.68969 0.0
O868 O 0.26528 0.10674 0.70938 0.0
O869 O 0.31165 0.12248 0.66874 0.0
O870 O 0.32068 0.22899 0.65992 0.0
O871 O 0.35215 0.15799 0.62863 0.0
O872 O 0.30117 0.13045 0.7774 0.0
O873 O 0.36398 0.16537 0.70614 0.0
O874 O 0.40288 0.2497 0.68733 0.0
O875 O 0.36341 0.23015 0.73083 0.0
O876 O 0.32902 0.10984 0.73374 0.0
O877 O 0.36575 0.18229 0.76068 0.0
C878 C 0.28814 0.20402 0.67831 0.0
C879 C 0.36764 0.19491 0.58303 0.0
C880 C 0.3589 0.19161 0.53359 0.0
C881 C 0.3405 0.18873 0.56024 0.0
C882 C 0.4056 0.20344 0.52996 0.0
C883 C 0.41419 0.20719 0.57887 0.0
C884 C 0.43311 0.21185 0.55236 0.0
C885 C 0.27468 0.09669 0.68564 0.0
C886 C 0.3458 0.18479 0.61106 0.0
C887 C 0.55245 0.29369 0.63709 0.0
C888 C 0.55146 0.25411 0.64252 0.0
C889 C 0.36292 0.13022 0.71529 0.0
C890 C 0.34666 0.17858 0.80735 0.0
C891 C 0.3628 0.16687 0.83184 0.0
C892 C 0.36898 0.18942 0.85444 0.0
C893 C 0.35819 0.22291 0.85244 0.0
C894 C 0.33681 0.21261 0.80579 0.0
C895 C 0.34221 0.23437 0.82827 0.0
C896 C 0.39681 0.25736 0.71243 0.0
C897 C 0.34234 0.15727 0.78284 0.0
H898 H 0.30447 0.17923 0.56345 0.0
H899 H 0.42067 0.20562 0.50979 0.0
H900 H 0.43559 0.21221 0.59613 0.0
H901 H 0.46897 0.22088 0.54928 0.0
H902 H 0.37131 0.14117 0.83314 0.0
H903 H 0.36276 0.24059 0.86959 0.0
H904 H 0.3257 0.22291 0.787 0.0
H905 H 0.33453 0.26057 0.82682 0.0
Eu906 Eu 0.82887 0.15137 0.73495 0.0
C907 C 0.77938 0.24033 0.62524 0.0
C908 C 0.70375 0.18702 0.61586 0.0
C909 C 0.73336 0.26052 0.59453 0.0
C910 C 0.7452 0.19824 0.62862 0.0
C911 C 0.7736 0.27198 0.60839 0.0
C912 C 0.69848 0.21815 0.59829 0.0
C913 C 0.84715 0.32432 0.62094 0.0
N914 N 0.81713 0.25064 0.63969 0.0
C915 C 0.85142 0.29182 0.6373 0.0
C916 C 0.80812 0.31435 0.60635 0.0
Eu917 Eu 0.8253 0.19292 0.66238 0.0
N918 N 0.75054 0.16935 0.64682 0.0
C919 C 0.71515 0.12895 0.65365 0.0
C920 C 0.66803 0.14533 0.62214 0.0
C921 C 0.67357 0.11638 0.64139 0.0
H922 H 0.88263 0.29941 0.64754 0.0
H923 H 0.64573 0.08436 0.6469 0.0
H924 H 0.66704 0.21003 0.58814 0.0
H925 H 0.87429 0.3569 0.61921 0.0
H926 H 0.71816 0.10612 0.66877 0.0
H927 H 0.01299 0.2321 0.74658 0.0
H928 H 0.63559 0.13555 0.6129 0.0
H929 H 0.7525 0.04922 0.75775 0.0
H930 H 0.93701 0.22645 0.73914 0.0
H931 H 0.7518 0.98082 0.7733 0.0
H932 H 0.72843 0.28435 0.58136 0.0
H933 H 0.02037 0.16662 0.75695 0.0
H934 H 0.98185 0.08675 0.76718 0.0
H935 H 0.80494 0.33957 0.59361 0.0
H936 H 0.91072 0.01834 0.77447 0.0
N937 N 0.90245 0.15923 0.74358 0.0
C938 C 0.94005 0.19798 0.74336 0.0
C939 C 0.98706 0.16414 0.75354 0.0
C940 C 0.94775 0.1244 0.75593 0.0
C941 C 0.98304 0.20114 0.74772 0.0
C942 C 0.90526 0.12299 0.75113 0.0
H943 H 0.82482 0.97856 0.77703 0.0
N944 N 0.82496 0.08452 0.75106 0.0
C945 C 0.78397 0.00963 0.76792 0.0
C946 C 0.86532 0.08447 0.75495 0.0
C947 C 0.78445 0.04827 0.75903 0.0
C948 C 0.82525 0.0085 0.76999 0.0
C949 C 0.86663 0.04633 0.76406 0.0
O950 O 0.78264 0.12886 0.77173 0.0
O951 O 0.79209 0.17634 0.70573 0.0
O952 O 0.83412 0.24492 0.68809 0.0
O953 O 0.85978 0.22523 0.72932 0.0
O954 O 0.75236 0.12202 0.73204 0.0
O955 O 0.85136 0.17997 0.77343 0.0
O956 O 0.88308 0.22079 0.63148 0.0
O957 O 0.86413 0.17202 0.69241 0.0
O958 O 0.80843 0.09622 0.71069 0.0
O959 O 0.79507 0.12067 0.66692 0.0
O960 O 0.89954 0.23089 0.66858 0.0
O961 O 0.8218 0.1653 0.62387 0.0
C962 C 0.75089 0.15113 0.71441 0.0
C963 C 0.80967 0.13761 0.81649 0.0
C964 C 0.79597 0.14137 0.86523 0.0
C965 C 0.80807 0.16084 0.83736 0.0
C966 C 0.7862 0.09867 0.87178 0.0
C967 C 0.80161 0.09564 0.82398 0.0
C968 C 0.78989 0.07636 0.85141 0.0
C969 C 0.85331 0.2535 0.71199 0.0
C970 C 0.81201 0.15471 0.78704 0.0
C971 C 0.90899 0.04736 0.76777 0.0
C972 C 0.94949 0.08632 0.76365 0.0
C973 C 0.90387 0.20292 0.68576 0.0
C974 C 0.87083 0.21251 0.58433 0.0
C975 C 0.87752 0.19134 0.56354 0.0
C976 C 0.88953 0.21153 0.53571 0.0
C977 C 0.89474 0.25271 0.52912 0.0
C978 C 0.87602 0.25353 0.57668 0.0
C979 C 0.88781 0.27335 0.54941 0.0
C980 C 0.79535 0.09066 0.68539 0.0
C981 C 0.86293 0.19403 0.61414 0.0
H982 H 0.81458 0.1934 0.83185 0.0
H983 H 0.77656 0.08284 0.89289 0.0
H984 H 0.80287 0.07721 0.80853 0.0
H985 H 0.78293 0.0437 0.85685 0.0
H986 H 0.87369 0.15967 0.56893 0.0
H987 H 0.9036 0.26869 0.50802 0.0
H988 H 0.87205 0.27092 0.59186 0.0
H989 H 0.89182 0.30507 0.544 0.0
C990 C 0.32793 0.89347 0.06691 0.0
C991 C 0.31885 0.85252 0.07963 0.0
C992 C 0.40138 0.87532 0.07203 0.0
C993 C 0.41088 0.91821 0.06372 0.0
N994 N 0.38142 0.96829 0.06107 0.0
N995 N 0.34729 0.80323 0.09289 0.0
C996 C 0.37367 0.92735 0.06332 0.0
C997 C 0.3559 0.84323 0.08189 0.0
N998 N 0.29337 0.89956 0.05625 0.0
N999 N 0.43562 0.86497 0.06952 0.0
H1000 H 0.3142 0.77834 0.09787 0.0
H1001 H 0.37267 0.79511 0.09827 0.0
H1002 H 0.46841 0.8873 0.06148 0.0
H1003 H 0.43085 0.834 0.07274 0.0
H1004 H 0.29891 0.92832 0.04495 0.0
H1005 H 0.26093 0.8742 0.05503 0.0
H1006 H 0.35518 0.97599 0.06335 0.0
H1007 H 0.41409 0.99404 0.05995 0.0
C1008 C 0.10332 0.42249 0.05151 0.0
C1009 C 0.14623 0.45535 0.05674 0.0
C1010 C 0.11514 0.50451 0.05649 0.0
C1011 C 0.0724 0.47261 0.04941 0.0
N1012 N 0.02185 0.3968 0.05183 0.0
N1013 N 0.19616 0.52917 0.05919 0.0
C1014 C 0.06526 0.43022 0.0499 0.0
C1015 C 0.15311 0.49692 0.05735 0.0
N1016 N 0.09933 0.38384 0.04819 0.0
N1017 N 0.11787 0.53907 0.06682 0.0
H1018 H 0.22456 0.52417 0.06036 0.0
H1019 H 0.20393 0.56109 0.05693 0.0
H1020 H 0.09025 0.54481 0.06876 0.0
H1021 H 0.14617 0.55924 0.07664 0.0
H1022 H 0.07021 0.3595 0.04146 0.0
H1023 H 0.12698 0.37767 0.04981 0.0
H1024 H 0.01444 0.36502 0.05536 0.0
H1025 H 0.99262 0.40045 0.0523 0.0
C1026 C 0.57099 0.69483 0.05433 0.0
C1027 C 0.53456 0.69866 0.0659 0.0
C1028 C 0.48044 0.63019 0.05215 0.0
C1029 C 0.51729 0.62195 0.0464 0.0
N1030 N 0.599 0.64754 0.04353 0.0
N1031 N 0.45443 0.66831 0.07867 0.0
C1032 C 0.56301 0.65473 0.04781 0.0
C1033 C 0.48913 0.66602 0.06541 0.0
N1034 N 0.61331 0.72969 0.04975 0.0
N1035 N 0.43748 0.60482 0.04467 0.0
H1036 H 0.46 0.69414 0.08867 0.0
H1037 H 0.42108 0.64319 0.08152 0.0
H1038 H 0.42895 0.5784 0.03479 0.0
H1039 H 0.41122 0.61274 0.04584 0.0
H1040 H 0.64058 0.73007 0.03898 0.0
H1041 H 0.61973 0.75944 0.05439 0.0
H1042 H 0.63248 0.66834 0.04748 0.0
H1043 H 0.59471 0.61913 0.03802 0.0
C1044 C 0.83427 0.34993 0.99628 0.0
C1045 C 0.85093 0.3221 0.9905 0.0
C1046 C 0.9277 0.37457 1.00071 0.0
C1047 C 0.91054 0.40129 1.00952 0.0
N1048 N 0.84146 0.40403 0.02304 0.0
N1049 N 0.91096 0.30319 0.99382 0.0
C1050 C 0.86207 0.38599 1.00954 0.0
C1051 C 0.89694 0.33312 0.99459 0.0
N1052 N 0.79179 0.34218 0.98877 0.0
N1053 N 0.97343 0.38814 0.99822 0.0
H1054 H 0.88893 0.27227 0.9901 0.0
H1055 H 0.9429 0.30763 0.99961 0.0
H1056 H 0.99708 0.41534 1.00545 0.0
H1057 H 0.98778 0.37292 0.98813 0.0
H1058 H 0.77942 0.36374 0.98978 0.0
H1059 H 0.77088 0.31606 0.97902 0.0
H1060 H 0.80606 0.3912 0.02561 0.0
H1061 H 0.8585 0.42809 0.0348 0.0
C1062 C 0.68193 0.53766 1.00915 0.0
C1063 C 0.71354 0.58116 1.00266 0.0
C1064 C 0.65254 0.60022 1.00331 0.0
C1065 C 0.6194 0.5562 1.0103 0.0
N1066 N 0.6034 0.48284 1.01291 0.0
N1067 N 0.73221 0.65399 1.00112 0.0
C1068 C 0.63442 0.52478 1.01187 0.0
C1069 C 0.69969 0.61233 1.00258 0.0
N1070 N 0.69779 0.50876 1.01247 0.0
N1071 N 0.63965 0.63027 0.99418 0.0
H1072 H 0.76712 0.6633 1.00004 0.0
H1073 H 0.72461 0.67828 1.00389 0.0
H1074 H 0.60596 0.62438 0.99331 0.0
H1075 H 0.66274 0.66114 0.98529 0.0
H1076 H 0.6777 0.47662 0.01994 0.0
H1077 H 0.73246 0.51785 1.01011 0.0
H1078 H 0.61154 0.45872 1.01091 0.0
H1079 H 0.56872 0.47224 1.0137 0.0
C1080 C 0.42592 0.12989 0.99971 0.0
C1081 C 0.46055 0.16866 0.98527 0.0
C1082 C 0.51503 0.14078 0.9919 0.0
C1083 C 0.47871 0.09975 1.0022 0.0
N1084 N 0.398 0.05474 0.0142 0.0
N1085 N 0.53933 0.21211 0.96866 0.0
C1086 C 0.43359 0.09408 1.00532 0.0
C1087 C 0.50529 0.17405 0.98122 0.0
N1088 N 0.38751 0.12862 1.01072 0.0
N1089 N 0.55917 0.14945 0.99529 0.0
H1090 H 0.53543 0.23925 0.96495 0.0
H1091 H 0.57093 0.21633 0.96148 0.0
H1092 H 0.56742 0.12713 1.00553 0.0
H1093 H 0.58697 0.17995 0.99156 0.0
H1094 H 0.36267 0.10244 0.02366 0.0
H1095 H 0.38359 0.15577 1.00996 0.0
H1096 H 0.36386 0.04783 0.01385 0.0
H1097 H 0.40265 0.02842 0.02001 0.0
C1098 C 0.72918 0.14144 1.01009 0.0
C1099 C 0.72719 0.17247 0.98986 0.0
C1100 C 0.64564 0.12415 0.98678 0.0
C1101 C 0.64544 0.09454 1.00912 0.0
N1102 N 0.69067 0.07029 0.03656 0.0
N1103 N 0.68029 0.19759 0.96559 0.0
C1104 C 0.68844 0.10197 0.01925 0.0
C1105 C 0.68453 0.16487 0.98005 0.0
N1106 N 0.76969 0.15075 0.02152 0.0
N1107 N 0.61024 0.1123 0.97011 0.0
H1108 H 0.70688 0.22881 0.96303 0.0
H1109 H 0.64915 0.19467 0.95925 0.0
H1110 H 0.58184 0.08258 0.97371 0.0
H1111 H 0.61121 0.13054 0.95156 0.0
H1112 H 0.77336 0.13224 0.0384 0.0
H1113 H 0.79951 0.17918 0.01536 0.0
H1114 H 0.72097 0.07084 0.04238 0.0
H1115 H 0.6617 0.04196 0.04421 0.0
C1116 C 0.91155 0.63396 0.99015 0.0
C1117 C 0.86756 0.60168 0.9858 0.0
C1118 C 0.89086 0.54762 1.00155 0.0
C1119 C 0.93664 0.5799 1.00277 0.0
N1120 N 0.99176 0.65486 0.99266 0.0
N1121 N 0.81591 0.52751 0.98466 0.0
C1122 C 0.94727 0.62343 0.99559 0.0
C1123 C 0.85737 0.55841 0.99098 0.0
N1124 N 0.91896 0.67463 0.9898 0.0
N1125 N 0.87925 0.50627 1.01004 0.0
H1126 H 0.79101 0.53425 0.9762 0.0
H1127 H 0.80774 0.49578 0.98485 0.0
H1128 H 0.9034 0.49717 0.01598 0.0
H1129 H 0.84557 0.48212 1.01363 0.0
H1130 H 0.94897 0.69889 0.9958 0.0
H1131 H 0.89333 0.68299 0.98593 0.0
H1132 H 0.00166 0.68626 0.98432 0.0
H1133 H 0.01921 0.64911 0.99655 0.0
C1134 C 0.49403 0.3425 0.98331 0.0
C1135 C 0.45939 0.30325 0.99695 0.0
C1136 C 0.44076 0.34068 0.02922 0.0
C1137 C 0.4719 0.38034 1.01357 0.0
N1138 N 0.52415 0.4187 0.97324 0.0
N1139 N 0.39591 0.26399 0.03053 0.0
C1140 C 0.4974 0.38117 0.98988 0.0
C1141 C 0.43179 0.30206 0.01938 0.0
N1142 N 0.52445 0.34258 0.9645 0.0
N1143 N 0.41985 0.33981 0.05348 0.0
H1144 H 0.389 0.23533 0.02375 0.0
H1145 H 0.3712 0.26113 0.04495 0.0
H1146 H 0.42431 0.3673 0.06083 0.0
H1147 H 0.40074 0.31214 0.06727 0.0
H1148 H 0.55351 0.37003 0.95574 0.0
H1149 H 0.52285 0.31455 0.95961 0.0
H1150 H 0.53905 0.42052 0.95405 0.0
H1151 H 0.5288 0.44799 0.97751 0.0
C1152 C 0.133 0.71706 0.06203 0.0
C1153 C 0.17554 0.72025 0.06913 0.0
C1154 C 0.1557 0.65397 0.05045 0.0
C1155 C 0.10979 0.64668 0.04727 0.0
N1156 N 0.05562 0.67329 0.05033 0.0
N1157 N 0.22466 0.68854 0.0746 0.0
C1158 C 0.09872 0.67879 0.05332 0.0
C1159 C 0.18609 0.68784 0.06452 0.0
N1160 N 0.12614 0.75148 0.06265 0.0
N1161 N 0.1715 0.62979 0.0396 0.0
H1162 H 0.24724 0.71263 0.08529 0.0
H1163 H 0.23177 0.66326 0.07476 0.0
H1164 H 0.15175 0.60378 0.02979 0.0
H1165 H 0.20602 0.63785 0.03834 0.0
H1166 H 0.09791 0.75341 0.05498 0.0
H1167 H 0.15086 0.77982 0.06874 0.0
H1168 H 0.04347 0.69206 0.05806 0.0
H1169 H 0.03148 0.64901 0.04071 0.0
C1170 C 0.29229 0.4097 0.05689 0.0
C1171 C 0.28758 0.44282 0.06683 0.0
C1172 C 0.3706 0.48563 0.06599 0.0
C1173 C 0.37619 0.45355 0.05487 0.0
N1174 N 0.34222 0.38142 0.0448 0.0
N1175 N 0.32152 0.51662 0.07229 0.0
C1176 C 0.33686 0.41444 0.05182 0.0
C1177 C 0.32654 0.48199 0.0689 0.0
N1178 N 0.25411 0.37499 0.05059 0.0
N1179 N 0.40643 0.51743 0.0766 0.0
H1180 H 0.28978 0.5157 0.07239 0.0
H1181 H 0.34898 0.54713 0.0717 0.0
H1182 H 0.4389 0.5202 0.07673 0.0
H1183 H 0.40252 0.53784 0.08841 0.0
H1184 H 0.25477 0.35133 0.04068 0.0
H1185 H 0.22143 0.37173 0.05309 0.0
H1186 H 0.31574 0.35039 0.0457 0.0
H1187 H 0.37397 0.3849 0.03879 0.0
C1188 C 0.53787 0.85244 0.09985 0.0
C1189 C 0.56511 0.84259 0.08302 0.0
C1190 C 0.5955 0.91341 0.05542 0.0
C1191 C 0.56621 0.92229 0.07134 0.0
N1192 N 0.52254 0.90612 0.11499 0.0
N1193 N 0.61641 0.86149 0.04282 0.0
C1194 C 0.54166 0.89384 0.09563 0.0
C1195 C 0.59353 0.87277 0.06047 0.0
N1196 N 0.50511 0.82078 0.11824 0.0
N1197 N 0.62664 0.94482 0.03612 0.0
H1198 H 0.61667 0.83247 0.0461 0.0
H1199 H 0.63266 0.87944 0.02394 0.0
H1200 H 0.62933 0.97503 0.03247 0.0
H1201 H 0.65241 0.94256 0.02559 0.0
H1202 H 0.48016 0.82412 0.1289 0.0
H1203 H 0.49958 0.78957 0.12037 0.0
H1204 H 0.50785 0.88779 0.13405 0.0
H1205 H 0.52639 0.93657 0.11402 0.0
C1206 C 0.97952 0.23038 0.40254 0.0
C1207 C 0.97628 0.18992 0.4107 0.0
C1208 C 0.05913 0.22121 0.39767 0.0
C1209 C 0.06356 0.26299 0.39243 0.0
N1210 N 0.02665 0.30691 0.39396 0.0
N1211 N 0.01357 0.14679 0.41756 0.0
C1212 C 0.02334 0.26731 0.3963 0.0
C1213 C 0.01635 0.18549 0.40856 0.0
N1214 N 0.94039 0.23321 0.39892 0.0
N1215 N 0.09564 0.21522 0.39232 0.0
H1216 H 0.98279 0.1198 0.42465 0.0
H1217 H 0.04183 0.14186 0.42005 0.0
H1218 H 0.12773 0.24017 0.38625 0.0
H1219 H 0.09361 0.18556 0.39187 0.0
H1220 H 0.93996 0.26085 0.39006 0.0
H1221 H 0.90825 0.2065 0.40197 0.0
H1222 H 1.0 0.31212 0.40024 0.0
H1223 H 0.05648 0.33489 0.38686 0.0
C1224 C 0.8129 0.82726 0.39505 0.0
C1225 C 0.80839 0.78666 0.39394 0.0
C1226 C 0.72721 0.75833 0.38664 0.0
C1227 C 0.73232 0.79999 0.3859 0.0
N1228 N 0.7732 0.86539 0.40521 0.0
N1229 N 0.76463 0.71491 0.38468 0.0
C1230 C 0.77356 0.8327 0.39397 0.0
C1231 C 0.76652 0.75265 0.38834 0.0
N1232 N 0.8549 0.86041 0.39787 0.0
N1233 N 0.68466 0.72368 0.38887 0.0
H1234 H 0.79313 0.71009 0.38616 0.0
H1235 H 0.73638 0.69011 0.37761 0.0
H1236 H 0.65465 0.72575 0.3908 0.0
H1237 H 0.67888 0.69236 0.39211 0.0
H1238 H 0.86103 0.89177 0.39661 0.0
H1239 H 0.8842 0.85679 0.399 0.0
H1240 H 0.80063 0.88644 0.41522 0.0
H1241 H 0.74363 0.86782 0.40823 0.0
C1242 C 0.24111 0.03747 0.37838 0.0
C1243 C 0.21682 0.04004 0.40112 0.0
C1244 C 0.1682 0.96245 0.40784 0.0
C1245 C 0.19268 0.95955 0.38499 0.0
N1246 N 0.246 0.9955 0.34489 0.0
N1247 N 0.15307 1.0077 0.43466 0.0
C1248 C 0.22696 0.99747 0.36903 0.0
C1249 C 0.17909 1.00319 0.41504 0.0
N1250 N 0.27918 0.07325 0.36657 0.0
N1251 N 0.13419 0.92618 0.42251 0.0
H1252 H 0.16047 0.03734 0.43997 0.0
H1253 H 0.12257 0.98302 0.44427 0.0
H1254 H 0.12168 0.89648 0.41602 0.0
H1255 H 0.1189 0.92508 0.44136 0.0
H1256 H 0.30203 0.07311 0.35207 0.0
H1257 H 0.28972 0.10297 0.3728 0.0
H1258 H 0.26654 0.02213 0.33065 0.0
H1259 H 0.23941 0.96699 0.33825 0.0
C1260 C 0.48818 0.68639 0.32732 0.0
C1261 C 0.50181 0.656 0.32242 0.0
C1262 C 0.57914 0.70331 0.33532 0.0
C1263 C 0.5657 0.73406 0.34129 0.0
N1264 N 0.50115 0.74666 0.34978 0.0
N1265 N 0.55662 0.63086 0.3272 0.0
C1266 C 0.51836 0.72312 0.33949 0.0
C1267 C 0.54631 0.66325 0.32797 0.0
N1268 N 0.44666 0.68093 0.31927 0.0
N1269 N 0.6234 0.71183 0.33708 0.0
H1270 H 0.53309 0.60129 0.32205 0.0
H1271 H 0.58667 0.63172 0.33395 0.0
H1272 H 0.6465 0.73668 0.34662 0.0
H1273 H 0.63724 0.69477 0.32877 0.0
H1274 H 0.42386 0.65424 0.31063 0.0
H1275 H 0.43657 0.7043 0.31897 0.0
H1276 H 0.4662 0.73639 0.35236 0.0
H1277 H 0.5205 0.7747 0.3578 0.0
C1278 C 0.34203 0.85982 0.3571 0.0
C1279 C 0.37405 0.90237 0.34774 0.0
C1280 C 0.31808 0.92494 0.35785 0.0
C1281 C 0.28312 0.88191 0.36056 0.0
N1282 N 0.26299 0.80744 0.364 0.0
N1283 N 0.39532 0.97652 0.34017 0.0
C1284 C 0.29548 0.84895 0.36115 0.0
C1285 C 0.36309 0.93541 0.34887 0.0
N1286 N 0.35625 0.82983 0.36151 0.0
N1287 N 0.30813 0.95541 0.36456 0.0
H1288 H 0.42908 0.98476 0.33448 0.0
H1289 H 0.38808 1.00184 0.33737 0.0
H1290 H 0.276 0.94735 0.37322 0.0
H1291 H 0.33257 0.987 0.36488 0.0
H1292 H 0.33544 0.79876 0.37106 0.0
H1293 H 0.39033 0.83738 0.35813 0.0
H1294 H 0.26918 0.78259 0.3605 0.0
H1295 H 0.22942 0.79813 0.36951 0.0
C1296 C 0.15818 0.51191 0.33781 0.0
C1297 C 0.12778 0.51071 0.31727 0.0
C1298 C 0.11476 0.43852 0.31236 0.0
C1299 C 0.15198 0.44397 0.32919 0.0
N1300 N 0.21857 0.49589 0.3491 0.0
N1301 N 0.05547 0.45851 0.30349 0.0
C1302 C 0.17648 0.48363 0.33922 0.0
C1303 C 0.09931 0.46974 0.30981 0.0
N1304 N 0.16325 0.53425 0.35921 0.0
N1305 N 0.09588 0.4059 0.29701 0.0
H1306 H 0.04051 0.47767 0.30595 0.0
H1307 H 0.03204 0.42777 0.30023 0.0
H1308 H 0.10882 0.38526 0.29475 0.0
H1309 H 0.07152 0.40344 0.28295 0.0
H1310 H 0.18395 0.53445 0.37521 0.0
H1311 H 0.14194 0.5473 0.36274 0.0
H1312 H 0.23798 0.52598 0.35499 0.0
H1313 H 0.23611 0.47856 0.34808 0.0
C1314 C 0.33287 0.50241 0.31015 0.0
C1315 C 0.37772 0.50877 0.3138 0.0
C1316 C 0.34529 0.43243 0.33264 0.0
C1317 C 0.29995 0.4263 0.32968 0.0
N1318 N 0.25539 0.45232 0.30296 0.0
N1319 N 0.4262 0.4822 0.33421 0.0
C1320 C 0.29495 0.46054 0.31512 0.0
C1321 C 0.38387 0.47422 0.32627 0.0
N1322 N 0.32614 0.5368 0.303 0.0
N1323 N 0.35165 0.39816 0.34123 0.0
H1324 H 0.45406 0.51276 0.33144 0.0
H1325 H 0.43282 0.45979 0.34596 0.0
H1326 H 0.32455 0.36791 0.34757 0.0
H1327 H 0.38341 0.39912 0.34059 0.0
H1328 H 0.29377 0.53465 0.30277 0.0
H1329 H 0.35297 0.56791 0.30029 0.0
H1330 H 0.25081 0.47519 0.29013 0.0
H1331 H 0.23013 0.42141 0.30226 0.0
C1332 C 0.52233 0.87908 0.3274 0.0
C1333 C 0.52621 0.92024 0.32452 0.0
C1334 C 0.60833 0.95046 0.33101 0.0
C1335 C 0.60392 0.90874 0.33425 0.0
N1336 N 0.56159 0.84006 0.31912 0.0
N1337 N 0.57007 0.99344 0.33113 0.0
C1338 C 0.56216 0.87453 0.32828 0.0
C1339 C 0.56852 0.95558 0.32833 0.0
N1340 N 0.48036 0.84381 0.33034 0.0
N1341 N 0.65065 0.98545 0.32805 0.0
H1342 H 0.54098 0.99729 0.33073 0.0
H1343 H 0.59866 0.01925 0.33707 0.0
H1344 H 0.68084 0.98356 0.32707 0.0
H1345 H 0.65603 0.01649 0.323 0.0
H1346 H 0.47612 0.81311 0.33541 0.0
H1347 H 0.45 0.8455 0.32925 0.0
H1348 H 0.53282 0.81714 0.31104 0.0
H1349 H 0.59122 0.83798 0.31537 0.0
C1350 C 0.15471 0.6818 0.31434 0.0
C1351 C 0.12791 0.64102 0.32951 0.0
C1352 C 0.11028 0.67319 0.36605 0.0
C1353 C 0.13987 0.71454 0.35171 0.0
N1354 N 0.19979 0.75714 0.31551 0.0
N1355 N 0.08628 0.59737 0.37153 0.0
C1356 C 0.16484 0.71852 0.32679 0.0
C1357 C 0.10777 0.63665 0.356 0.0
N1358 N 0.16955 0.68547 0.28762 0.0
N1359 N 0.08248 0.66845 0.38819 0.0
H1360 H 0.08282 0.57008 0.36419 0.0
H1361 H 0.07507 0.59238 0.3922 0.0
H1362 H 0.08243 0.69413 0.39572 0.0
H1363 H 0.05677 0.63909 0.39763 0.0
H1364 H 0.18437 0.7142 0.2743 0.0
H1365 H 0.16382 0.65916 0.27818 0.0
H1366 H 0.22207 0.76091 0.29914 0.0
H1367 H 0.20961 0.78495 0.32408 0.0
C1368 C 0.79963 0.04588 0.39282 0.0
C1369 C 0.8419 0.04955 0.40101 0.0
C1370 C 0.82226 0.98133 0.38479 0.0
C1371 C 0.77648 0.97383 0.38084 0.0
N1372 N 0.72358 1.00212 0.37913 0.0
N1373 N 0.89236 0.01948 0.40748 0.0
C1374 C 0.76579 1.00703 0.38454 0.0
C1375 C 0.85293 0.01699 0.39758 0.0
N1376 N 0.79293 0.08063 0.39161 0.0
N1377 N 0.83765 0.95571 0.37563 0.0
H1378 H 0.91554 0.04537 0.41662 0.0
H1379 H 0.90008 0.99447 0.40872 0.0
H1380 H 0.81747 0.9286 0.36686 0.0
H1381 H 0.8721 0.96354 0.37457 0.0
H1382 H 0.76483 0.08217 0.3834 0.0
H1383 H 0.81798 0.10968 0.3965 0.0
H1384 H 0.7107 0.02137 0.38518 0.0
H1385 H 0.70117 0.97796 0.36871 0.0
C1386 C 0.95237 0.73611 0.39629 0.0
C1387 C 0.94598 0.76961 0.40386 0.0
C1388 C 0.02558 0.82053 0.38817 0.0
C1389 C 0.03421 0.78613 0.38483 0.0
N1390 N 0.00489 0.71085 0.3844 0.0
N1391 N 0.97548 0.84404 0.40693 0.0
C1392 C 0.99713 0.7438 0.38851 0.0
C1393 C 0.98244 0.81188 0.39981 0.0
N1394 N 0.91516 0.69748 0.39514 0.0
N1395 N 0.05751 0.86147 0.37909 0.0
H1396 H 0.94371 0.83932 0.41418 0.0
H1397 H 0.00168 0.87461 0.40816 0.0
H1398 H 0.08771 0.86903 0.3685 0.0
H1399 H 0.05183 0.8876 0.37837 0.0
H1400 H 0.91649 0.67269 0.38699 0.0
H1401 H 0.88209 0.69151 0.40025 0.0
H1402 H 0.98149 0.67892 0.39053 0.0
H1403 H 0.03547 0.71586 0.37498 0.0
C1404 C 0.26671 0.21177 0.38623 0.0
C1405 C 0.2432 0.18542 0.41134 0.0
C1406 C 0.20944 0.23193 0.41759 0.0
C1407 C 0.23164 0.2574 0.39194 0.0
N1408 N 0.28429 0.27425 0.35285 0.0
N1409 N 0.18781 0.16653 0.44891 0.0
C1410 C 0.26118 0.24804 0.37659 0.0
C1411 C 0.21424 0.1951 0.42683 0.0
N1412 N 0.29221 0.20023 0.37081 0.0
N1413 N 0.18238 0.24206 0.43274 0.0
H1414 H 0.18947 0.1387 0.45531 0.0
H1415 H 0.16207 0.16841 0.45975 0.0
H1416 H 0.17252 0.26461 0.42516 0.0
H1417 H 0.17064 0.22915 0.4532 0.0
H1418 H 0.30604 0.2142 0.35081 0.0
H1419 H 0.29846 0.17499 0.37777 0.0
H1420 H 0.31028 0.27278 0.34201 0.0
H1421 H 0.2787 0.29917 0.34426 0.0
C1422 C 0.67384 0.508 0.73196 0.0
C1423 C 0.63614 0.51263 0.74128 0.0
C1424 C 0.68785 0.5902 0.735 0.0
C1425 C 0.7269 0.58413 0.73178 0.0
N1426 N 0.75465 0.53303 0.7315 0.0
N1427 N 0.60744 0.5611 0.72817 0.0
C1428 C 0.71914 0.54171 0.73216 0.0
C1429 C 0.64284 0.55481 0.73681 0.0
N1430 N 0.66702 0.47795 0.71568 0.0
N1431 N 0.69321 0.62968 0.73654 0.0
H1432 H 0.57837 0.53609 0.72183 0.0
H1433 H 0.61031 0.59112 0.72221 0.0
H1434 H 0.72499 0.65647 0.73359 0.0
H1435 H 0.66632 0.63504 0.74216 0.0
H1436 H 0.69335 0.47317 0.70825 0.0
H1437 H 0.6372 0.46467 0.70525 0.0
H1438 H 0.74991 0.50197 0.73389 0.0
H1439 H 0.78827 0.55664 0.73047 0.0
C1440 C 0.4321 0.07068 0.72811 0.0
C1441 C 0.47326 0.10321 0.73553 0.0
C1442 C 0.44732 0.15563 0.72254 0.0
C1443 C 0.40296 0.12219 0.7185 0.0
N1444 N 0.35195 0.0456 0.72267 0.0
N1445 N 0.51762 0.17562 0.74473 0.0
C1446 C 0.39506 0.07903 0.72257 0.0
C1447 C 0.48018 0.14531 0.73409 0.0
N1448 N 0.42843 0.03158 0.72668 0.0
N1449 N 0.45949 0.19753 0.71509 0.0
H1450 H 0.54453 0.17111 0.75194 0.0
H1451 H 0.52035 0.20455 0.74852 0.0
H1452 H 0.43814 0.20862 0.70695 0.0
H1453 H 0.49319 0.22189 0.71399 0.0
H1454 H 0.40112 1.0076 0.71832 0.0
H1455 H 0.45473 0.02449 0.73186 0.0
H1456 H 0.34404 0.01403 0.72887 0.0
H1457 H 0.32304 0.04888 0.71869 0.0
C1458 C 0.83935 0.34493 0.73601 0.0
C1459 C 0.88499 0.37822 0.73224 0.0
C1460 C 0.91011 0.32804 0.72093 0.0
C1461 C 0.86408 0.29576 0.72071 0.0
N1462 N 0.78397 0.27636 0.72494 0.0
N1463 N 0.96236 0.40383 0.71492 0.0
C1464 C 0.82838 0.30525 0.72708 0.0
C1465 C 0.91973 0.37052 0.72226 0.0
N1466 N 0.80693 0.3505 0.74934 0.0
N1467 N 0.94454 0.31782 0.72223 0.0
H1468 H 0.97005 0.43527 0.71599 0.0
H1469 H 0.9883 0.40036 0.70551 0.0
H1470 H 0.93755 0.28634 0.72574 0.0
H1471 H 0.97851 0.3398 0.72427 0.0
H1472 H 0.77405 0.32587 0.75535 0.0
H1473 H 0.81413 0.379 0.75644 0.0
H1474 H 0.7569 0.28312 0.72637 0.0
H1475 H 0.77494 0.24645 0.72001 0.0
C1476 C 0.22138 0.98419 0.66487 0.0
C1477 C 0.1764 0.97631 0.66039 0.0
C1478 C 0.19422 0.04563 0.67406 0.0
C1479 C 0.2408 0.05514 0.67669 0.0
N1480 N 0.29983 0.03576 0.66806 0.0
N1481 N 0.12112 1.00112 0.65602 0.0
C1482 C 0.25472 0.02517 0.67008 0.0
C1483 C 0.16307 1.00745 0.6638 0.0
N1484 N 0.23184 0.95176 0.66503 0.0
N1485 N 0.17969 0.07321 0.68087 0.0
H1486 H 0.09794 0.97351 0.64842 0.0
H1487 H 0.11063 0.02427 0.65497 0.0
H1488 H 0.20161 0.10323 0.68585 0.0
H1489 H 0.1454 0.06565 0.68279 0.0
H1490 H 0.26268 0.95385 0.67129 0.0
H1491 H 0.20794 0.92135 0.66136 0.0
H1492 H 0.31207 0.01742 0.65982 0.0
H1493 H 0.32545 0.0642 0.67291 0.0
C1494 C 0.98045 0.16349 0.65765 0.0
C1495 C 0.02254 0.20105 0.65413 0.0
C1496 C 0.98917 0.23789 0.67633 0.0
C1497 C 0.94652 0.19948 0.68105 0.0
N1498 N 0.91012 0.12238 0.68532 0.0
N1499 N 0.07085 0.27049 0.66656 0.0
C1500 C 0.94456 0.16114 0.67451 0.0
C1501 C 0.02816 0.23706 0.66567 0.0
N1502 N 0.97462 0.13016 0.64451 0.0
N1503 N 0.99229 0.27581 0.68071 0.0
H1504 H 0.10009 0.27175 0.6579 0.0
H1505 H 0.07762 0.29528 0.67785 0.0
H1506 H 0.96527 0.27827 0.68912 0.0
H1507 H 0.02067 0.30522 0.67406 0.0
H1508 H 0.94302 0.1032 0.64417 0.0
H1509 H 1.00079 0.13124 0.63207 0.0
H1510 H 0.90994 0.09382 0.68328 0.0
H1511 H 0.88537 0.11905 0.69945 0.0
C1512 C 0.80154 0.83102 0.63767 0.0
C1513 C 0.76407 0.83168 0.65089 0.0
C1514 C 0.7472 0.76429 0.68015 0.0
C1515 C 0.78797 0.7664 0.66934 0.0
N1516 N 0.85799 0.80682 0.64079 0.0
N1517 N 0.70563 0.80235 0.68825 0.0
C1518 C 0.81582 0.8008 0.64852 0.0
C1519 C 0.73806 0.79912 0.67309 0.0
N1520 N 0.82478 0.86051 0.61531 0.0
N1521 N 0.71629 0.72832 0.69652 0.0
H1522 H 0.69703 0.82662 0.68331 0.0
H1523 H 0.68953 0.78266 0.70671 0.0
H1524 H 0.7213 0.70191 0.70086 0.0
H1525 H 0.68393 0.723 0.70303 0.0
H1526 H 0.84899 0.85908 0.60259 0.0
H1527 H 0.81732 0.88484 0.60847 0.0
H1528 H 0.88239 0.83347 0.62799 0.0
H1529 H 0.87015 0.78705 0.65001 0.0
C1530 C 0.04193 0.79871 0.68041 0.0
C1531 C 0.04379 0.83162 0.66021 0.0
C1532 C 0.96326 0.78688 0.65317 0.0
C1533 C 0.95845 0.75677 0.67636 0.0
N1534 N 0.99502 0.73345 0.7118 0.0
N1535 N 0.00178 0.8612 0.63451 0.0
C1536 C 0.99853 0.76244 0.68985 0.0
C1537 C 0.00321 0.82682 0.64862 0.0
N1538 N 0.08165 0.80222 0.69045 0.0
N1539 N 0.93144 0.77664 0.63409 0.0
H1540 H 0.02902 0.89189 0.63375 0.0
H1541 H 0.9717 0.85964 0.62711 0.0
H1542 H 0.90117 0.74804 0.63648 0.0
H1543 H 0.93665 0.79606 0.61529 0.0
H1544 H 0.08394 0.77786 0.70301 0.0
H1545 H 0.1131 0.82932 0.68506 0.0
H1546 H 0.02168 0.73718 0.72421 0.0
H1547 H 0.96399 0.70696 0.71907 0.0
C1548 C 0.18741 0.18124 0.63342 0.0
C1549 C 0.16996 0.20427 0.64635 0.0
C1550 C 0.2122 0.20074 0.68575 0.0
C1551 C 0.24054 0.19169 0.67006 0.0
N1552 N 0.24704 0.16129 0.63036 0.0
N1553 N 0.17059 0.23921 0.68591 0.0
C1554 C 0.22625 0.17895 0.64387 0.0
C1555 C 0.1855 0.21682 0.67231 0.0
N1556 N 0.16415 0.158 0.61338 0.0
N1557 N 0.19796 0.17984 0.71162 0.0
H1558 H 0.14888 0.25026 0.67755 0.0
H1559 H 0.18206 0.24787 0.70517 0.0
H1560 H 0.20544 0.15523 0.71799 0.0
H1561 H 0.17247 0.18107 0.72338 0.0
H1562 H 0.1733 0.13814 0.60435 0.0
H1563 H 0.13225 0.15449 0.6085 0.0
H1564 H 0.24227 0.15598 0.60988 0.0
H1565 H 0.26833 0.15128 0.64051 0.0
C1566 C 0.806 1.00538 0.65171 0.0
C1567 C 0.76714 0.96806 0.66415 0.0
C1568 C 0.74529 0.01091 0.68999 0.0
C1569 C 0.78349 0.0486 0.67667 0.0
N1570 N 0.84568 0.08218 0.64116 0.0
N1571 N 0.69843 0.93369 0.69375 0.0
C1572 C 0.81247 0.04597 0.65641 0.0
C1573 C 0.7365 0.97042 0.68308 0.0
N1574 N 0.83755 1.00171 0.63597 0.0
N1575 N 0.71694 0.01416 0.70868 0.0
H1576 H 0.69242 0.90389 0.68942 0.0
H1577 H 0.67222 0.93234 0.70612 0.0
H1578 H 0.71983 0.04335 0.71202 0.0
H1579 H 0.69101 0.98841 0.72122 0.0
H1580 H 0.86933 0.02711 0.62871 0.0
H1581 H 0.83368 0.97237 0.63225 0.0
H1582 H 0.86344 0.08217 0.62364 0.0
H1583 H 0.85392 0.11273 0.64481 0.0
C1584 C 0.47733 0.34027 0.75602 0.0
C1585 C 0.4908 0.3786 0.73806 0.0
C1586 C 0.43682 0.33827 0.70526 0.0
C1587 C 0.4297 0.29943 0.72094 0.0
N1588 N 0.45359 0.26557 0.75845 0.0
N1589 N 0.48674 0.4145 0.69422 0.0
C1590 C 0.45248 0.30092 0.74574 0.0
C1591 C 0.47163 0.37767 0.71217 0.0
N1592 N 0.48832 0.34144 0.78285 0.0
N1593 N 0.40855 0.33783 0.68498 0.0
H1594 H 0.51125 0.44387 0.69914 0.0
H1595 H 0.47742 0.41522 0.67391 0.0
H1596 H 0.38081 0.3098 0.68068 0.0
H1597 H 0.40973 0.36539 0.67449 0.0
H1598 H 0.47559 0.31424 0.79755 0.0
H1599 H 0.50697 0.37005 0.79074 0.0
H1600 H 0.47239 0.26578 0.7755 0.0
H1601 H 0.44125 0.23788 0.74951 0.0
C1602 C 0.66658 0.16168 0.76027 0.0
C1603 C 0.63254 0.15018 0.74123 0.0
C1604 C 0.69312 0.17921 0.70443 0.0
C1605 C 0.71778 0.16587 0.7229 0.0
N1606 N 0.74575 0.18219 0.76723 0.0
N1607 N 0.62574 0.18898 0.69937 0.0
C1608 C 0.70984 0.16735 0.75115 0.0
C1609 C 0.64894 0.17138 0.71392 0.0
N1610 N 0.66213 0.17926 0.78234 0.0
N1611 N 0.71576 0.20725 0.68166 0.0
H1612 H 0.59825 0.19027 0.70871 0.0
H1613 H 0.63381 0.20249 0.67873 0.0
H1614 H 0.75104 0.22002 0.67905 0.0
H1615 H 0.7015 0.22133 0.66785 0.0
H1616 H 0.68665 0.19094 0.79666 0.0
H1617 H 0.63577 0.18702 0.78373 0.0
H1618 H 0.74234 0.18105 0.78853 0.0
H1619 H 0.77905 0.19754 0.75817 0.0
C1620 C 0.92612 0.55219 0.72345 0.0
C1621 C 0.90073 0.51965 0.74571 0.0
C1622 C 0.86267 0.56018 0.75784 0.0
C1623 C 0.88591 0.59163 0.73455 0.0
N1624 N 0.94813 0.62293 0.6996 0.0
N1625 N 0.83692 0.48761 0.77926 0.0
C1626 C 0.92006 0.58907 0.71863 0.0
C1627 C 0.86754 0.5227 0.76199 0.0
N1628 N 0.95396 0.54646 0.7058 0.0
N1629 N 0.83535 0.5656 0.77593 0.0
H1630 H 0.83662 0.45847 0.78032 0.0
H1631 H 0.80857 0.48568 0.78972 0.0
H1632 H 0.82842 0.59088 0.77272 0.0
H1633 H 0.82234 0.54682 0.79505 0.0
H1634 H 0.96871 0.56575 0.68706 0.0
H1635 H 0.95998 0.5204 0.70897 0.0
H1636 H 0.97698 0.62563 0.68929 0.0
H1637 H 0.9449 0.65039 0.69588 0.0
C1638 C 0.489 0.98042 0.25967 0.0
C1639 C 0.48334 0.93938 0.26971 0.0
C1640 C 0.48313 0.92517 0.22192 0.0
C1641 C 0.47785 0.9614 0.21291 0.0
N1642 N 0.4764 0.02471 0.2229 0.0
N1643 N 0.4733 0.87176 0.26027 0.0
C1644 C 0.48247 0.99019 0.2315 0.0
C1645 C 0.4814 0.91199 0.2507 0.0
N1646 N 0.49664 0.00858 0.27778 0.0
N1647 N 0.48851 0.90286 0.20291 0.0
H1648 H 0.47082 0.86119 0.28119 0.0
H1649 H 0.46599 0.84832 0.24771 0.0
H1650 H 0.4897 0.91209 0.1817 0.0
H1651 H 0.49621 0.87808 0.20802 0.0
H1652 H 0.50585 0.0405 0.27178 0.0
H1653 H 0.49647 1.00037 0.29891 0.0
H1654 H 0.47353 0.04391 0.23617 0.0
H1655 H 0.47143 0.033 0.20251 0.0
C1656 C 0.08676 0.5155 0.24857 0.0
C1657 C 0.08376 0.54683 0.26212 0.0
C1658 C 0.04546 0.56182 0.22246 0.0
C1659 C 0.03716 0.52298 0.21355 0.0
N1660 N 0.05221 0.46323 0.21742 0.0
N1661 N 0.09261 0.61664 0.24988 0.0
C1662 C 0.05858 0.49993 0.22635 0.0
C1663 C 0.07266 0.57537 0.24526 0.0
N1664 N 0.12208 0.50686 0.25288 0.0
N1665 N 0.02517 0.58442 0.21039 0.0
H1666 H 0.09058 0.64106 0.23719 0.0
H1667 H 0.09058 0.64106 0.23719 0.0
H1668 H 0.00559 0.57601 0.19338 0.0
H1669 H 0.02492 0.60966 0.21862 0.0
H1670 H 0.12779 0.48653 0.24194 0.0
H1671 H 0.14953 0.52539 0.2639 0.0
H1672 H 0.06346 0.44325 0.22799 0.0
H1673 H 0.03347 0.45179 0.20048 0.0
C1674 C 0.45426 0.52376 0.25305 0.0
C1675 C 0.43381 0.54944 0.2574 0.0
C1676 C 0.41475 0.55023 0.20881 0.0
C1677 C 0.43021 0.52025 0.20551 0.0
N1678 N 0.45673 0.47223 0.22662 0.0
N1679 N 0.39202 0.58538 0.2401 0.0
C1680 C 0.44771 0.50519 0.22825 0.0
C1681 C 0.41296 0.56183 0.23546 0.0
N1682 N 0.48231 0.51924 0.27192 0.0
N1683 N 0.40377 0.56912 0.18619 0.0
H1684 H 0.39314 0.59683 0.25877 0.0
H1685 H 0.37146 0.59141 0.22618 0.0
H1686 H 0.40623 0.56257 0.16626 0.0
H1687 H 0.39639 0.59409 0.18665 0.0
H1688 H 0.50166 0.50413 0.26877 0.0
H1689 H 0.49011 0.53489 0.28924 0.0
H1690 H 0.46499 0.45719 0.24357 0.0
H1691 H 0.45198 0.45738 0.20902 0.0
C1692 C 0.92263 0.46455 0.82089 0.0
C1693 C 0.9418 0.48818 0.79444 0.0
C1694 C 0.00429 0.54215 0.81675 0.0
C1695 C 0.99058 0.514 0.84202 0.0
N1696 N 0.93937 0.44387 0.86644 0.0
N1697 N 0.00622 0.54606 0.76717 0.0
C1698 C 0.94989 0.47426 0.84392 0.0
C1699 C 0.98371 0.52658 0.79233 0.0
N1700 N 0.87941 0.43098 0.82367 0.0
N1701 N 0.03736 0.58348 0.81598 0.0
H1702 H 0.99428 0.53299 0.74922 0.0
H1703 H 0.03898 0.57213 0.76464 0.0
H1704 H 0.05243 0.59598 0.83369 0.0
H1705 H 0.04603 0.60607 0.79841 0.0
H1706 H 0.86196 0.41552 0.84281 0.0
H1707 H 0.86002 0.42043 0.80688 0.0
H1708 H 0.9127 0.41286 0.86737 0.0
H1709 H 0.95995 0.44772 0.88299 0.0
C1710 C 0.56707 0.47688 0.81459 0.0
C1711 C 0.56024 0.49774 0.78967 0.0
C1712 C 0.53521 0.53558 0.8184 0.0
C1713 C 0.53004 0.50648 0.84221 0.0
N1714 N 0.53779 0.44533 0.86181 0.0
N1715 N 0.52815 0.54176 0.76936 0.0
C1716 C 0.54594 0.47648 0.8402 0.0
C1717 C 0.54268 0.52654 0.79194 0.0
N1718 N 0.59194 0.45584 0.81384 0.0
N1719 N 0.53081 0.57081 0.82095 0.0
H1720 H 0.52677 0.53134 0.75037 0.0
H1721 H 0.51158 0.55997 0.77048 0.0
H1722 H 0.52551 0.57816 0.84016 0.0
H1723 H 0.53738 0.59459 0.80438 0.0
H1724 H 0.60859 0.4558 0.79588 0.0
H1725 H 0.60066 0.44288 0.83162 0.0
H1726 H 0.54378 0.41974 0.8602 0.0
H1727 H 0.52126 0.44269 0.88059 0.0
C1728 C 0.57964 0.12406 0.82239 0.0
C1729 C 0.58218 0.10252 0.80052 0.0
C1730 C 0.60469 0.05863 0.8326 0.0
C1731 C 0.60352 0.08131 0.85408 0.0
N1732 N 0.60032 0.14159 0.86833 0.0
N1733 N 0.60182 0.05279 0.78365 0.0
C1734 C 0.59411 0.11586 0.84863 0.0
C1735 C 0.59673 0.0712 0.80525 0.0
N1736 N 0.56283 0.15216 0.81797 0.0
N1737 N 0.6109 0.02363 0.8387 0.0
H1738 H 0.59299 0.05885 0.76381 0.0
H1739 H 0.61738 0.03352 0.78486 0.0
H1740 H 0.61675 0.01346 0.85846 0.0
H1741 H 0.60724 1.00285 0.82475 0.0
H1742 H 0.55431 0.16468 0.83371 0.0
H1743 H 0.55529 0.16139 0.79846 0.0
H1744 H 0.5987 0.16994 0.86464 0.0
H1745 H 0.61118 0.13665 0.88779 0.0
C1746 C 0.18977 0.2991 0.59497 0.0
C1747 C 0.1615 0.25538 0.59327 0.0
C1748 C 0.19384 0.26618 0.54641 0.0
C1749 C 0.21565 0.31091 0.54625 0.0
N1750 N 0.2278 0.37037 0.56974 0.0
N1751 N 0.12716 0.20045 0.56423 0.0
C1752 C 0.21255 0.32769 0.5705 0.0
C1753 C 0.16116 0.23953 0.56821 0.0
N1754 N 0.19318 0.31346 0.61976 0.0
N1755 N 0.20392 0.24916 0.52568 0.0
H1756 H 0.1 0.18163 0.57889 0.0
H1757 H 0.12329 0.18915 0.54528 0.0
H1758 H 0.22894 0.26783 0.50976 0.0
H1759 H 0.19093 0.21644 0.5261 0.0
H1760 H 0.21655 0.34426 0.62293 0.0
H1761 H 0.17516 0.29323 0.6376 0.0
H1762 H 0.22197 0.38351 0.58612 0.0
H1763 H 0.2423 0.39236 0.55194 0.0
C1764 C 0.68431 0.82336 0.5981 0.0
C1765 C 0.72313 0.86311 0.59989 0.0
C1766 C 0.7208 0.88572 0.55057 0.0
C1767 C 0.68259 0.84541 0.5487 0.0
N1768 N 0.63745 0.7719 0.56862 0.0
N1769 N 0.785 0.92801 0.5761 0.0
C1770 C 0.66782 0.81281 0.57179 0.0
C1771 C 0.74408 0.89233 0.57531 0.0
N1772 N 0.66064 0.79727 0.62161 0.0
N1773 N 0.73237 0.91909 0.52993 0.0
H1774 H 0.80115 0.93589 0.59431 0.0
H1775 H 0.8044 0.94799 0.55842 0.0
H1776 H 0.71521 0.9168 0.51193 0.0
H1777 H 0.75634 0.95033 0.53174 0.0
H1778 H 0.62935 0.76982 0.62173 0.0
H1779 H 0.67029 0.80548 0.64106 0.0
H1780 H 0.62826 0.74624 0.58421 0.0
H1781 H 0.62525 0.76329 0.5495 0.0
C1782 C 0.11748 0.83182 0.60264 0.0
C1783 C 0.09873 0.85979 0.60356 0.0
C1784 C 0.07005 0.84568 0.55763 0.0
C1785 C 0.0913 0.81985 0.55591 0.0
N1786 N 0.13904 0.79115 0.57531 0.0
N1787 N 0.06687 0.90112 0.57943 0.0
C1788 C 0.11572 0.81333 0.57818 0.0
C1789 C 0.07738 0.86864 0.58042 0.0
N1790 N 0.13838 0.82421 0.62499 0.0
N1791 N 0.04227 0.84785 0.53764 0.0
H1792 H 0.07398 0.92003 0.59508 0.0
H1793 H 0.05564 0.91222 0.562 0.0
H1794 H 0.03711 0.83253 0.52023 0.0
H1795 H 0.02156 0.86201 0.53937 0.0
H1796 H 0.14824 0.80062 0.62749 0.0
H1797 H 0.14458 0.84097 0.64173 0.0
H1798 H 0.16108 0.78837 0.58946 0.0
H1799 H 0.13867 0.77744 0.55769 0.0
C1800 C 0.64385 0.84002 0.12736 0.0
C1801 C 0.59977 0.80409 0.13112 0.0
C1802 C 0.60925 0.79465 0.18073 0.0
C1803 C 0.65156 0.83314 0.17719 0.0
N1804 N 0.70168 0.8986 0.14779 0.0
N1805 N 0.5363 0.75278 0.16233 0.0
C1806 C 0.66625 0.858 0.15071 0.0
C1807 C 0.5809 0.78369 0.15822 0.0
N1808 N 0.66623 0.85456 0.10184 0.0
N1809 N 0.59766 0.76667 0.20463 0.0
H1810 H 0.51525 0.74249 0.14612 0.0
H1811 H 0.5195 0.73982 0.18189 0.0
H1812 H 0.6187 0.7715 0.22103 0.0
H1813 H 0.56937 0.73636 0.20702 0.0
H1814 H 0.70003 0.8787 0.09831 0.0
H1815 H 0.65292 0.83854 0.08507 0.0
H1816 H 0.71121 0.91895 0.12908 0.0
H1817 H 0.71806 0.91318 0.16462 0.0
C1818 C 0.25768 0.80927 0.15862 0.0
C1819 C 0.24998 0.82697 0.13287 0.0
C1820 C 0.22389 0.86742 0.15813 0.0
C1821 C 0.22017 0.84148 0.18333 0.0
N1822 N 0.23246 0.78505 0.20712 0.0
N1823 N 0.21619 0.86695 0.10925 0.0
C1824 C 0.23794 0.81239 0.18369 0.0
C1825 C 0.23174 0.85551 0.13284 0.0
N1826 N 0.28131 0.78703 0.15881 0.0
N1827 N 0.21736 0.90205 0.15831 0.0
H1828 H 0.2155 0.85405 0.09132 0.0
H1829 H 0.19875 0.88463 0.10861 0.0
H1830 H 0.21151 0.91129 0.17667 0.0
H1831 H 0.22259 0.92361 0.14061 0.0
H1832 H 0.29416 0.78322 0.14058 0.0
H1833 H 0.29152 0.77607 0.17678 0.0
H1834 H 0.23989 0.75994 0.20763 0.0
H1835 H 0.21732 0.78529 0.22568 0.0
C1836 C 0.22903 0.37906 0.13298 0.0
C1837 C 0.23751 0.42125 0.1243 0.0
C1838 C 0.2567 0.43852 0.17118 0.0
C1839 C 0.25142 0.39712 0.17918 0.0
N1840 N 0.23934 0.32985 0.16694 0.0
N1841 N 0.26218 0.49236 0.13401 0.0
C1842 C 0.24007 0.36809 0.15975 0.0
C1843 C 0.25251 0.45142 0.1431 0.0
N1844 N 0.20666 0.34857 0.11646 0.0
N1845 N 0.26462 0.46503 0.19059 0.0
H1846 H 0.25583 0.50176 0.11423 0.0
H1847 H 0.27845 0.5174 0.14542 0.0
H1848 H 0.2697 0.45728 0.21109 0.0
H1849 H 0.26394 0.49381 0.1869 0.0
H1850 H 0.19519 0.31623 0.12259 0.0
H1851 H 0.19519 0.35516 0.09763 0.0
H1852 H 0.23657 0.30965 0.15271 0.0
H1853 H 0.24472 0.31952 0.18679 0.0
C1854 C 0.83647 0.61227 0.90873 0.0
C1855 C 0.83515 0.63523 0.92988 0.0
C1856 C 0.836 0.69056 0.8945 0.0
C1857 C 0.82453 0.66191 0.87498 0.0
N1858 N 0.82183 0.5992 0.86113 0.0
N1859 N 0.83732 0.69824 0.943 0.0
C1860 C 0.82843 0.6243 0.88122 0.0
C1861 C 0.83834 0.67608 0.92256 0.0
N1862 N 0.84314 0.57787 0.91552 0.0
N1863 N 0.84241 0.73076 0.88633 0.0
H1864 H 0.83719 0.68748 0.96377 0.0
H1865 H 0.83363 0.72555 0.93966 0.0
H1866 H 0.83986 0.74143 0.86591 0.0
H1867 H 0.85433 0.75448 0.89901 0.0
H1868 H 0.84642 0.5601 0.9013 0.0
H1869 H 0.84963 0.56977 0.93553 0.0
H1870 H 0.81958 0.56916 0.86457 0.0
H1871 H 0.81781 0.60862 0.8407 0.0
C1872 C 0.37315 0.16771 0.93073 0.0
C1873 C 0.42002 0.19615 0.93353 0.0
C1874 C 0.43532 0.20422 0.88326 0.0
C1875 C 0.3879 0.18029 0.88048 0.0
N1876 N 0.31368 0.12868 0.9007 0.0
N1877 N 0.49449 0.24603 0.91195 0.0
C1878 C 0.35761 0.1581 0.9041 0.0
C1879 C 0.45116 0.21453 0.9097 0.0
N1880 N 0.34267 0.15428 0.9531 0.0
N1881 N 0.46485 0.21812 0.86033 0.0
H1882 H 0.51781 0.26403 0.89521 0.0
H1883 H 0.50566 0.25724 0.93051 0.0
H1884 H 0.45354 0.21134 0.84078 0.0
H1885 H 0.50026 0.23256 0.86098 0.0
H1886 H 0.30738 0.13686 0.95234 0.0
H1887 H 0.3526 0.16397 0.9722 0.0
H1888 H 0.29022 0.10858 0.91691 0.0
H1889 H 0.30212 0.1218 0.88119 0.0
C1890 C 0.7649 0.20526 0.91083 0.0
C1891 C 0.78836 0.20299 0.93466 0.0
C1892 C 0.82345 0.16851 0.9104 0.0
C1893 C 0.79488 0.16516 0.88818 0.0
N1894 N 0.7344 0.17702 0.86869 0.0
N1895 N 0.83951 0.18184 0.95757 0.0
C1896 C 0.76437 0.18255 0.88881 0.0
C1897 C 0.81704 0.18389 0.93461 0.0
N1898 N 0.7457 0.23154 0.90843 0.0
N1899 N 0.85891 0.15977 0.90756 0.0
H1900 H 0.83899 0.19649 0.97451 0.0
H1901 H 0.85646 0.16379 0.96042 0.0
H1902 H 0.86658 0.151 0.88953 0.0
H1903 H 0.88371 0.16549 0.92178 0.0
H1904 H 0.73191 0.23795 0.89049 0.0
H1905 H 0.74833 0.25075 0.92329 0.0
H1906 H 0.70793 0.18463 0.86992 0.0
H1907 H 0.73319 0.16139 0.85193 0.0
C1908 C 0.32304 0.19196 0.45967 0.0
C1909 C 0.28256 0.15238 0.4614 0.0
C1910 C 0.29067 0.13853 0.51094 0.0
C1911 C 0.32931 0.17964 0.50964 0.0
N1912 N 0.37287 0.24999 0.4839 0.0
N1913 N 0.22109 0.09378 0.49043 0.0
C1914 C 0.34226 0.20794 0.48436 0.0
C1915 C 0.26388 0.12802 0.48774 0.0
N1916 N 0.34531 0.21272 0.43465 0.0
N1917 N 0.28158 0.108 0.53316 0.0
H1918 H 0.20105 0.08431 0.47373 0.0
H1919 H 0.2042 0.07734 0.50955 0.0
H1920 H 0.30222 0.11259 0.54973 0.0
H1921 H 0.25646 0.07641 0.53366 0.0
H1922 H 0.3772 0.23992 0.43236 0.0
H1923 H 0.33419 0.19983 0.41654 0.0
H1924 H 0.38066 0.27249 0.46636 0.0
H1925 H 0.3865 0.26293 0.50176 0.0
C1926 C 0.86892 0.1686 0.46688 0.0
C1927 C 0.90594 0.15995 0.46318 0.0
C1928 C 0.93313 0.18504 0.5077 0.0
C1929 C 0.89371 0.18985 0.51234 0.0
N1930 N 0.81942 0.17771 0.49873 0.0
N1931 N 0.9681 0.15214 0.48275 0.0
C1932 C 0.86033 0.17923 0.49254 0.0
C1933 C 0.93681 0.16624 0.48431 0.0
N1934 N 0.84166 0.1665 0.44569 0.0
N1935 N 0.96747 0.19921 0.52527 0.0
H1936 H 0.97043 0.13732 0.46634 0.0
H1937 H 0.9887 0.15177 0.49868 0.0
H1938 H 0.96546 0.21219 0.5428 0.0
H1939 H 0.99909 0.20079 0.52141 0.0
H1940 H 0.8174 0.17702 0.44577 0.0
H1941 H 0.84595 0.15748 0.42699 0.0
H1942 H 0.79171 0.1658 0.48648 0.0
H1943 H 0.81145 0.18433 0.51754 0.0
C1944 C 0.8445 0.68739 0.46545 0.0
C1945 C 0.8821 0.72894 0.45914 0.0
C1946 C 0.90866 0.72109 0.50524 0.0
C1947 C 0.86717 0.68277 0.51281 0.0
N1948 N 0.79107 0.63423 0.50122 0.0
N1949 N 0.94632 0.78801 0.47465 0.0
C1950 C 0.83403 0.66684 0.49312 0.0
C1951 C 0.91357 0.74641 0.47939 0.0
N1952 N 0.81724 0.66856 0.44512 0.0
N1953 N 0.94348 0.73311 0.52252 0.0
H1954 H 0.94974 0.80732 0.45626 0.0
H1955 H 0.96717 0.80407 0.4897 0.0
H1956 H 0.94145 0.71491 0.54132 0.0
H1957 H 0.9757 0.75903 0.517 0.0
H1958 H 0.79227 0.63666 0.44775 0.0
H1959 H 0.82202 0.68397 0.42499 0.0
H1960 H 0.76419 0.62442 0.48826 0.0
H1961 H 0.7806 0.61997 0.52165 0.0
loop_
_geom_bond_atom_site_label_1
_geom_bond_atom_site_label_2
_geom_bond_distance
_geom_bond_site_symmetry_2
_ccdc_geom_bond_type
C0 N1 1.317 . S
C0 N2 1.348 . S
C0 C3 1.485 . S
N1 C0 1.317 . S
N1 N5 1.370 . S
N2 C0 1.348 . S
N2 C4 1.346 . S
C3 C0 1.485 . S
C3 H7 0.960 . S
C3 H8 0.961 . S
C3 H9 0.960 . S
C4 N2 1.346 . S
C4 N5 1.307 . S
C4 C6 1.486 . S
N5 N1 1.370 . S
N5 C4 1.307 . S
C6 C4 1.486 . S
C6 H10 0.960 . S
C6 H11 0.960 . S
C6 H12 0.959 . S
H7 C3 0.960 . S
H8 C3 0.961 . S
H9 C3 0.960 . S
H10 C6 0.960 . S
H11 C6 0.960 . S
H12 C6 0.959 . S
C13 N14 1.317 . S
C13 N15 1.348 . S
C13 C16 1.485 . S
N14 C13 1.317 . S
N14 N18 1.370 . S
N15 C13 1.348 . S
N15 C17 1.346 . S
C16 C13 1.485 . S
C16 H20 0.960 . S
C16 H21 0.961 . S
C16 H22 0.960 . S
C17 N15 1.346 . S
C17 N18 1.307 . S
C17 C19 1.486 . S
N18 N14 1.370 . S
N18 C17 1.307 . S
C19 C17 1.486 . S
C19 H23 0.960 . S
C19 H24 0.960 . S
C19 H25 0.959 . S
H20 C16 0.960 . S
H21 C16 0.961 . S
H22 C16 0.960 . S
H23 C19 0.960 . S
H24 C19 0.960 . S
H25 C19 0.959 . S
C26 N27 1.317 . S
C26 N28 1.348 . S
C26 C29 1.485 . S
N27 C26 1.317 . S
N27 N31 1.370 . S
N28 C26 1.348 . S
N28 C30 1.346 . S
C29 C26 1.485 . S
C29 H33 0.960 . S
C29 H34 0.961 . S
C29 H35 0.960 . S
C30 N28 1.346 . S
C30 N31 1.307 . S
C30 C32 1.486 . S
N31 N27 1.370 . S
N31 C30 1.307 . S
C32 C30 1.486 . S
C32 H36 0.960 . S
C32 H37 0.960 . S
C32 H38 0.959 . S
H33 C29 0.960 . S
H34 C29 0.961 . S
H35 C29 0.960 . S
H36 C32 0.960 . S
H37 C32 0.960 . S
H38 C32 0.959 . S
C39 N40 1.317 . S
C39 N41 1.348 . S
C39 C42 1.485 . S
N40 C39 1.317 . S
N40 N44 1.370 . S
N41 C39 1.348 . S
N41 C43 1.346 . S
C42 C39 1.485 . S
C42 H46 0.960 . S
C42 H47 0.961 . S
C42 H48 0.960 . S
C43 N41 1.346 . S
C43 N44 1.307 . S
C43 C45 1.486 . S
N44 N40 1.370 . S
N44 C43 1.307 . S
C45 C43 1.486 . S
C45 H49 0.960 . S
C45 H50 0.960 1_455 S
C45 H51 0.959 . S
H46 C42 0.960 . S
H47 C42 0.961 . S
H48 C42 0.960 . S
H49 C45 0.960 . S
H50 C45 0.960 1_655 S
H51 C45 0.959 . S
C52 N53 1.317 . S
C52 N54 1.348 . S
C52 C55 1.485 . S
N53 C52 1.317 . S
N53 N57 1.370 . S
N54 C52 1.348 . S
N54 C56 1.346 . S
C55 C52 1.485 . S
C55 H59 0.960 . S
C55 H60 0.961 . S
C55 H61 0.960 . S
C56 N54 1.346 . S
C56 N57 1.307 . S
C56 C58 1.486 . S
N57 N53 1.370 . S
N57 C56 1.307 . S
C58 C56 1.486 . S
C58 H62 0.960 . S
C58 H63 0.960 . S
C58 H64 0.959 . S
H59 C55 0.960 . S
H60 C55 0.961 . S
H61 C55 0.960 . S
H62 C58 0.960 . S
H63 C58 0.960 . S
H64 C58 0.959 . S
C65 N66 1.317 . S
C65 N67 1.348 . S
C65 C68 1.485 . S
N66 C65 1.317 . S
N66 N70 1.370 . S
N67 C65 1.348 . S
N67 C69 1.346 . S
C68 C65 1.485 . S
C68 H72 0.960 . S
C68 H73 0.961 . S
C68 H74 0.960 . S
C69 N67 1.346 . S
C69 N70 1.307 . S
C69 C71 1.486 . S
N70 N66 1.370 . S
N70 C69 1.307 . S
C71 C69 1.486 . S
C71 H75 0.960 . S
C71 H76 0.960 . S
C71 H77 0.959 . S
H72 C68 0.960 . S
H73 C68 0.961 . S
H74 C68 0.960 . S
H75 C71 0.960 . S
H76 C71 0.960 . S
H77 C71 0.959 . S
C78 N79 1.317 . S
C78 N80 1.348 . S
C78 C81 1.485 . S
N79 C78 1.317 . S
N79 N83 1.370 . S
N80 C78 1.348 . S
N80 C82 1.346 . S
C81 C78 1.485 . S
C81 H85 0.960 . S
C81 H86 0.961 . S
C81 H87 0.960 . S
C82 N80 1.346 . S
C82 N83 1.307 . S
C82 C84 1.486 . S
N83 N79 1.370 . S
N83 C82 1.307 . S
C84 C82 1.486 . S
C84 H88 0.960 . S
C84 H89 0.960 . S
C84 H90 0.959 . S
H85 C81 0.960 . S
H86 C81 0.961 . S
H87 C81 0.960 . S
H88 C84 0.960 . S
H89 C84 0.960 . S
H90 C84 0.959 . S
C91 N92 1.317 . S
C91 N93 1.348 . S
C91 C94 1.485 . S
N92 C91 1.317 . S
N92 N96 1.370 . S
N93 C91 1.348 . S
N93 C95 1.346 . S
C94 C91 1.485 . S
C94 H98 0.960 . S
C94 H99 0.961 . S
C94 H100 0.960 . S
C95 N93 1.346 . S
C95 N96 1.307 . S
C95 C97 1.486 . S
N96 N92 1.370 . S
N96 C95 1.307 . S
C97 C95 1.486 . S
C97 H101 0.960 . S
C97 H102 0.960 . S
C97 H103 0.959 . S
H98 C94 0.960 . S
H99 C94 0.961 . S
H100 C94 0.960 . S
H101 C97 0.960 . S
H102 C97 0.960 . S
H103 C97 0.959 . S
C104 N105 1.317 . S
C104 N106 1.348 . S
C104 C107 1.485 . S
N105 C104 1.317 . S
N105 N109 1.370 . S
N106 C104 1.348 . S
N106 C108 1.346 . S
C107 C104 1.485 . S
C107 H111 0.960 . S
C107 H112 0.961 . S
C107 H113 0.960 . S
C108 N106 1.346 . S
C108 N109 1.307 . S
C108 C110 1.486 . S
N109 N105 1.370 . S
N109 C108 1.307 . S
C110 C108 1.486 . S
C110 H114 0.960 . S
C110 H115 0.960 . S
C110 H116 0.959 . S
H111 C107 0.960 . S
H112 C107 0.961 . S
H113 C107 0.960 . S
H114 C110 0.960 . S
H115 C110 0.960 . S
H116 C110 0.959 . S
C117 N118 1.317 . S
C117 N119 1.348 . S
C117 C120 1.485 1_556 S
N118 C117 1.317 . S
N118 N122 1.370 . S
N119 C117 1.348 . S
N119 C121 1.346 . S
C120 C117 1.485 1_554 S
C120 H124 0.960 . S
C120 H125 0.961 . S
C120 H126 0.960 . S
C121 N119 1.346 . S
C121 N122 1.307 . S
C121 C123 1.486 . S
N122 N118 1.370 . S
N122 C121 1.307 . S
C123 C121 1.486 . S
C123 H127 0.960 . S
C123 H128 0.960 . S
C123 H129 0.959 . S
H124 C120 0.960 . S
H125 C120 0.961 . S
H126 C120 0.960 . S
H127 C123 0.960 . S
H128 C123 0.960 . S
H129 C123 0.959 . S
C130 N131 1.317 . S
C130 N132 1.348 . S
C130 C133 1.485 1_556 S
N131 C130 1.317 . S
N131 N135 1.370 . S
N132 C130 1.348 . S
N132 C134 1.346 . S
C133 C130 1.485 1_554 S
C133 H137 0.960 . S
C133 H138 0.961 . S
C133 H139 0.960 . S
C134 N132 1.346 . S
C134 N135 1.307 . S
C134 C136 1.486 . S
N135 N131 1.370 . S
N135 C134 1.307 . S
C136 C134 1.486 . S
C136 H140 0.960 . S
C136 H141 0.960 . S
C136 H142 0.959 . S
H137 C133 0.960 . S
H138 C133 0.961 . S
H139 C133 0.960 . S
H140 C136 0.960 . S
H141 C136 0.960 . S
H142 C136 0.959 . S
C143 N144 1.317 . S
C143 N145 1.348 . S
C143 C146 1.485 1_556 S
N144 C143 1.317 . S
N144 N148 1.370 . S
N145 C143 1.348 . S
N145 C147 1.346 . S
C146 C143 1.485 1_554 S
C146 H150 0.960 . S
C146 H151 0.961 . S
C146 H152 0.960 . S
C147 N145 1.346 . S
C147 N148 1.307 . S
C147 C149 1.486 . S
N148 N144 1.370 . S
N148 C147 1.307 . S
C149 C147 1.486 . S
C149 H153 0.960 . S
C149 H154 0.960 . S
C149 H155 0.959 . S
H150 C146 0.960 . S
H151 C146 0.961 . S
H152 C146 0.960 . S
H153 C149 0.960 . S
H154 C149 0.960 . S
H155 C149 0.959 . S
C156 N157 1.317 . S
C156 N158 1.348 . S
C156 C159 1.485 . S
N157 C156 1.317 . S
N157 N161 1.370 . S
N158 C156 1.348 . S
N158 C160 1.346 . S
C159 C156 1.485 . S
C159 H163 0.960 . S
C159 H164 0.961 . S
C159 H165 0.960 . S
C160 N158 1.346 . S
C160 N161 1.307 . S
C160 C162 1.486 . S
N161 N157 1.370 . S
N161 C160 1.307 . S
C162 C160 1.486 . S
C162 H166 0.960 . S
C162 H167 0.960 . S
C162 H168 0.959 . S
H163 C159 0.960 . S
H164 C159 0.961 . S
H165 C159 0.960 . S
H166 C162 0.960 . S
H167 C162 0.960 . S
H168 C162 0.959 . S
C169 N170 1.317 . S
C169 N171 1.348 . S
C169 C172 1.485 . S
N170 C169 1.317 . S
N170 N174 1.370 . S
N171 C169 1.348 . S
N171 C173 1.346 . S
C172 C169 1.485 . S
C172 H176 0.960 . S
C172 H177 0.961 . S
C172 H178 0.960 . S
C173 N171 1.346 . S
C173 N174 1.307 . S
C173 C175 1.486 . S
N174 N170 1.370 . S
N174 C173 1.307 . S
C175 C173 1.486 . S
C175 H179 0.960 . S
C175 H180 0.960 . S
C175 H181 0.959 . S
H176 C172 0.960 . S
H177 C172 0.961 . S
H178 C172 0.960 . S
H179 C175 0.960 . S
H180 C175 0.960 . S
H181 C175 0.959 . S
C182 N183 1.317 . S
C182 N184 1.348 . S
C182 C185 1.485 . S
N183 C182 1.317 . S
N183 N187 1.370 . S
N184 C182 1.348 . S
N184 C186 1.346 . S
C185 C182 1.485 . S
C185 H189 0.960 . S
C185 H190 0.961 . S
C185 H191 0.960 . S
C186 N184 1.346 . S
C186 N187 1.307 . S
C186 C188 1.486 . S
N187 N183 1.370 . S
N187 C186 1.307 . S
C188 C186 1.486 . S
C188 H192 0.960 . S
C188 H193 0.960 . S
C188 H194 0.959 . S
H189 C185 0.960 . S
H190 C185 0.961 . S
H191 C185 0.960 . S
H192 C188 0.960 . S
H193 C188 0.960 . S
H194 C188 0.959 . S
C195 N196 1.317 . S
C195 N197 1.348 . S
C195 C198 1.485 . S
N196 C195 1.317 . S
N196 N200 1.370 . S
N197 C195 1.348 . S
N197 C199 1.346 . S
C198 C195 1.485 . S
C198 H202 0.960 . S
C198 H203 0.961 . S
C198 H204 0.960 . S
C199 N197 1.346 . S
C199 N200 1.307 . S
C199 C201 1.486 . S
N200 N196 1.370 . S
N200 C199 1.307 . S
C201 C199 1.486 . S
C201 H205 0.960 . S
C201 H206 0.960 . S
C201 H207 0.959 . S
H202 C198 0.960 . S
H203 C198 0.961 . S
H204 C198 0.960 . S
H205 C201 0.960 . S
H206 C201 0.960 . S
H207 C201 0.959 . S
C208 N209 1.317 . S
C208 N210 1.348 . S
C208 C211 1.485 . S
N209 C208 1.317 . S
N209 N213 1.370 . S
N210 C208 1.348 . S
N210 C212 1.346 . S
C211 C208 1.485 . S
C211 H215 0.960 . S
C211 H216 0.961 . S
C211 H217 0.960 . S
C212 N210 1.346 . S
C212 N213 1.307 . S
C212 C214 1.486 . S
N213 N209 1.370 . S
N213 C212 1.307 . S
C214 C212 1.486 . S
C214 H218 0.960 . S
C214 H219 0.960 . S
C214 H220 0.959 . S
H215 C211 0.960 . S
H216 C211 0.961 . S
H217 C211 0.960 . S
H218 C214 0.960 . S
H219 C214 0.960 . S
H220 C214 0.959 . S
C221 N222 1.317 . S
C221 N223 1.348 . S
C221 C224 1.485 . S
N222 C221 1.317 . S
N222 N226 1.370 . S
N223 C221 1.348 . S
N223 C225 1.346 . S
C224 C221 1.485 . S
C224 H228 0.960 . S
C224 H229 0.961 . S
C224 H230 0.960 . S
C225 N223 1.346 . S
C225 N226 1.307 . S
C225 C227 1.486 . S
N226 N222 1.370 . S
N226 C225 1.307 . S
C227 C225 1.486 . S
C227 H231 0.960 . S
C227 H232 0.960 . S
C227 H233 0.959 . S
H228 C224 0.960 . S
H229 C224 0.961 . S
H230 C224 0.960 . S
H231 C227 0.960 . S
H232 C227 0.960 . S
H233 C227 0.959 . S
Eu234 N265 2.657 . S
Eu234 N272 2.609 . S
Eu234 O278 2.558 . S
Eu234 O279 2.612 1_566 S
Eu234 O281 2.339 1_565 S
Eu234 O282 2.563 1_565 S
Eu234 O283 2.419 1_565 S
Eu234 O285 2.380 1_556 S
Eu234 O286 2.432 1_556 S
Eu234 C298 2.848 1_565 S
C235 C238 1.429 . S
C235 C239 1.411 . S
C235 N242 1.377 . S
C236 C238 1.420 . S
C236 C240 1.423 . S
C236 C248 1.392 . S
C237 C239 1.420 . S
C237 C240 1.351 . S
C237 H260 0.931 . S
C238 C235 1.429 . S
C238 C236 1.420 . S
C238 N246 1.362 . S
C239 C235 1.411 . S
C239 C237 1.420 . S
C239 C244 1.395 . S
C240 C236 1.423 . S
C240 C237 1.351 . S
C240 H252 0.930 . S
C241 C243 1.400 . S
C241 C244 1.386 . S
C241 H253 0.930 . S
N242 C235 1.377 . S
N242 C243 1.321 . S
N242 Eu245 2.609 . S
C243 C241 1.400 . S
C243 N242 1.321 . S
C243 H250 0.930 . S
C244 C239 1.395 . S
C244 C241 1.386 . S
C244 H263 0.930 . S
Eu245 N242 2.609 . S
Eu245 N246 2.657 . S
Eu245 O279 2.380 . S
Eu245 O280 2.432 . S
Eu245 O284 2.558 . S
Eu245 O285 2.612 1_545 S
Eu245 O287 2.339 1_545 S
Eu245 O288 2.563 1_545 S
Eu245 O289 2.419 1_545 S
Eu245 C309 2.848 1_545 S
N246 C238 1.362 . S
N246 Eu245 2.657 . S
N246 C247 1.334 . S
C247 N246 1.334 . S
C247 C249 1.413 . S
C247 H254 0.929 . S
C248 C236 1.392 . S
C248 C249 1.367 . S
C248 H256 0.930 . S
C249 C247 1.413 . S
C249 C248 1.367 . S
C249 H251 0.930 . S
H250 C243 0.930 . S
H251 C249 0.930 . S
H252 C240 0.930 . S
H253 C241 0.930 . S
H254 C247 0.929 . S
H255 C269 0.930 . S
H256 C248 0.930 . S
H257 C275 0.930 . S
H258 C266 0.929 1_545 S
H259 C273 0.930 . S
H260 C237 0.931 . S
H261 C267 0.930 . S
H262 C300 0.930 . S
H263 C244 0.930 . S
H264 C299 0.931 . S
N265 Eu234 2.657 . S
N265 C266 1.334 . S
N265 C270 1.362 . S
C266 H258 0.929 1_565 S
C266 N265 1.334 . S
C266 C269 1.413 . S
C267 H261 0.930 . S
C267 C268 1.392 . S
C267 C269 1.367 . S
C268 C267 1.392 . S
C268 C270 1.420 . S
C268 C300 1.423 . S
C269 H255 0.930 . S
C269 C266 1.413 . S
C269 C267 1.367 . S
C270 N265 1.362 . S
C270 C268 1.420 . S
C270 C274 1.429 . S
H271 C276 0.930 . S
N272 Eu234 2.609 . S
N272 C274 1.377 . S
N272 C275 1.321 . S
C273 H259 0.930 . S
C273 C275 1.400 . S
C273 C276 1.386 . S
C274 C270 1.429 . S
C274 N272 1.377 . S
C274 C277 1.411 . S
C275 H257 0.930 . S
C275 N272 1.321 . S
C275 C273 1.400 . S
C276 H271 0.930 . S
C276 C273 1.386 . S
C276 C277 1.395 . S
C277 C274 1.411 . S
C277 C276 1.395 . S
C277 C299 1.420 . S
O278 Eu234 2.558 . S
O278 C298 1.257 1_565 S
O279 Eu234 2.612 1_544 S
O279 Eu245 2.380 . S
O279 C290 1.276 1_554 S
O280 Eu245 2.432 . S
O280 C297 1.264 . S
O281 Eu234 2.339 1_545 S
O281 C297 1.254 1_556 S
O282 Eu234 2.563 1_545 S
O282 C290 1.235 . S
O283 Eu234 2.419 1_545 S
O283 C298 1.249 . S
O284 Eu245 2.558 . S
O284 C309 1.257 1_545 S
O285 Eu234 2.380 1_554 S
O285 Eu245 2.612 1_565 S
O285 C301 1.276 . S
O286 Eu234 2.432 1_554 S
O286 C308 1.264 . S
O287 Eu245 2.339 1_565 S
O287 C308 1.254 . S
O288 Eu245 2.563 1_565 S
O288 C301 1.235 . S
O289 Eu245 2.419 1_565 S
O289 C309 1.249 . S
C290 O279 1.276 1_556 S
C290 O282 1.235 . S
C291 C293 1.393 . S
C291 C295 1.395 . S
C291 C298 1.492 . S
C292 C293 1.392 . S
C292 C294 1.386 . S
C293 C291 1.393 . S
C293 C292 1.392 . S
C293 H310 0.930 . S
C294 C292 1.386 . S
C294 C296 1.395 . S
C294 H311 0.930 . S
C295 C291 1.395 . S
C295 C296 1.379 . S
C295 H312 0.930 1_545 S
C296 C294 1.395 . S
C296 C295 1.379 . S
C296 H313 0.930 . S
C297 O280 1.264 . S
C297 O281 1.254 1_554 S
C298 Eu234 2.848 1_545 S
C298 O278 1.257 1_545 S
C298 O283 1.249 . S
C298 C291 1.492 . S
C299 H264 0.931 . S
C299 C277 1.420 . S
C299 C300 1.351 . S
C300 H262 0.930 . S
C300 C268 1.423 . S
C300 C299 1.351 . S
C301 O285 1.276 . S
C301 O288 1.235 . S
C302 C303 1.393 . S
C302 C306 1.395 . S
C302 C309 1.492 . S
C303 C302 1.393 . S
C303 C304 1.392 . S
C303 H314 0.930 . S
C304 C303 1.392 . S
C304 C305 1.386 . S
C305 C304 1.386 . S
C305 C307 1.395 . S
C305 H315 0.930 . S
C306 C302 1.395 . S
C306 C307 1.379 . S
C306 H316 0.930 1_565 S
C307 C305 1.395 . S
C307 C306 1.379 . S
C307 H317 0.930 . S
C308 O286 1.264 . S
C308 O287 1.254 . S
C309 Eu245 2.848 1_565 S
C309 O284 1.257 1_565 S
C309 O289 1.249 . S
C309 C302 1.492 . S
H310 C293 0.930 . S
H311 C294 0.930 . S
H312 C295 0.930 1_565 S
H313 C296 0.930 . S
H314 C303 0.930 . S
H315 C305 0.930 . S
H316 C306 0.930 1_545 S
H317 C307 0.930 . S
Eu318 N349 2.657 . S
Eu318 N356 2.609 . S
Eu318 O362 2.558 . S
Eu318 O363 2.612 1_456 S
Eu318 O365 2.339 1_455 S
Eu318 O366 2.563 1_455 S
Eu318 O367 2.419 . S
Eu318 O369 2.380 1_556 S
Eu318 O370 2.432 . S
Eu318 C382 2.848 . S
C319 C322 1.429 . S
C319 C323 1.411 . S
C319 N326 1.377 . S
C320 C322 1.420 . S
C320 C324 1.423 . S
C320 C332 1.392 . S
C321 C323 1.420 . S
C321 C324 1.351 . S
C321 H344 0.931 . S
C322 C319 1.429 . S
C322 C320 1.420 . S
C322 N330 1.362 . S
C323 C319 1.411 . S
C323 C321 1.420 . S
C323 C328 1.395 . S
C324 C320 1.423 . S
C324 C321 1.351 . S
C324 H336 0.930 . S
C325 C327 1.400 . S
C325 C328 1.386 . S
C325 H337 0.930 . S
N326 C319 1.377 . S
N326 C327 1.321 . S
N326 Eu329 2.609 . S
C327 C325 1.400 . S
C327 N326 1.321 . S
C327 H334 0.930 . S
C328 C323 1.395 . S
C328 C325 1.386 . S
C328 H347 0.930 . S
Eu329 N326 2.609 . S
Eu329 N330 2.657 . S
Eu329 O363 2.380 . S
Eu329 O364 2.432 . S
Eu329 O368 2.558 . S
Eu329 O369 2.612 1_655 S
Eu329 O371 2.339 1_655 S
Eu329 O372 2.563 1_655 S
Eu329 O373 2.419 . S
Eu329 C393 2.848 . S
N330 C322 1.362 . S
N330 Eu329 2.657 . S
N330 C331 1.334 . S
C331 N330 1.334 . S
C331 C333 1.413 . S
C331 H338 0.929 . S
C332 C320 1.392 . S
C332 C333 1.367 . S
C332 H340 0.930 . S
C333 C331 1.413 . S
C333 C332 1.367 . S
C333 H335 0.930 . S
H334 C327 0.930 . S
H335 C333 0.930 . S
H336 C324 0.930 . S
H337 C325 0.930 . S
H338 C331 0.929 . S
H339 C353 0.930 . S
H340 C332 0.930 . S
H341 C359 0.930 . S
H342 C350 0.929 . S
H343 C357 0.930 . S
H344 C321 0.931 . S
H345 C351 0.930 . S
H346 C384 0.930 . S
H347 C328 0.930 . S
H348 C383 0.931 . S
N349 Eu318 2.657 . S
N349 C350 1.334 . S
N349 C354 1.362 . S
C350 H342 0.929 . S
C350 N349 1.334 . S
C350 C353 1.413 . S
C351 H345 0.930 . S
C351 C352 1.392 . S
C351 C353 1.367 . S
C352 C351 1.392 . S
C352 C354 1.420 . S
C352 C384 1.423 . S
C353 H339 0.930 . S
C353 C350 1.413 . S
C353 C351 1.367 . S
C354 N349 1.362 . S
C354 C352 1.420 . S
C354 C358 1.429 . S
H355 C360 0.930 . S
N356 Eu318 2.609 . S
N356 C358 1.377 . S
N356 C359 1.321 . S
C357 H343 0.930 . S
C357 C359 1.400 . S
C357 C360 1.386 . S
C358 C354 1.429 . S
C358 N356 1.377 . S
C358 C361 1.411 . S
C359 H341 0.930 . S
C359 N356 1.321 . S
C359 C357 1.400 . S
C360 H355 0.930 . S
C360 C357 1.386 . S
C360 C361 1.395 . S
C361 C358 1.411 . S
C361 C360 1.395 . S
C361 C383 1.420 . S
O362 Eu318 2.558 . S
O362 C382 1.257 . S
O363 Eu318 2.612 1_654 S
O363 Eu329 2.380 . S
O363 C374 1.276 1_554 S
O364 Eu329 2.432 . S
O364 C381 1.260 1_554 S
O365 Eu318 2.339 1_655 S
O365 C381 1.256 . S
O366 Eu318 2.563 1_655 S
O366 C374 1.235 . S
O367 Eu318 2.419 . S
O367 C382 1.249 . S
O368 Eu329 2.558 . S
O368 C393 1.257 . S
O369 Eu318 2.380 1_554 S
O369 Eu329 2.612 1_455 S
O369 C385 1.276 . S
O370 Eu318 2.432 . S
O370 C392 1.264 1_556 S
O371 Eu329 2.339 1_455 S
O371 C392 1.254 . S
O372 Eu329 2.563 1_455 S
O372 C385 1.235 . S
O373 Eu329 2.419 . S
O373 C393 1.249 . S
C374 O363 1.276 1_556 S
C374 O366 1.235 . S
C375 C377 1.393 1_455 S
C375 C379 1.395 . S
C375 C382 1.492 . S
C376 C377 1.392 . S
C376 C378 1.386 1_655 S
C377 C375 1.393 1_655 S
C377 C376 1.392 . S
C377 H394 0.930 . S
C378 C376 1.386 1_455 S
C378 C380 1.395 . S
C378 H395 0.930 . S
C379 C375 1.395 . S
C379 C380 1.379 . S
C379 H396 0.930 . S
C380 C378 1.395 . S
C380 C379 1.379 . S
C380 H397 0.930 . S
C381 O364 1.260 1_556 S
C381 O365 1.256 . S
C382 Eu318 2.848 . S
C382 O362 1.257 . S
C382 O367 1.249 . S
C382 C375 1.492 . S
C383 H348 0.931 . S
C383 C361 1.420 . S
C383 C384 1.351 . S
C384 H346 0.930 . S
C384 C352 1.423 . S
C384 C383 1.351 . S
C385 O369 1.276 . S
C385 O372 1.235 . S
C386 C387 1.393 1_655 S
C386 C390 1.395 . S
C386 C393 1.492 . S
C387 C386 1.393 1_455 S
C387 C388 1.392 . S
C387 H398 0.930 . S
C388 C387 1.392 . S
C388 C389 1.386 . S
C389 C388 1.386 . S
C389 C391 1.395 1_455 S
C389 H399 0.930 . S
C390 C386 1.395 . S
C390 C391 1.379 . S
C390 H400 0.930 . S
C391 C389 1.395 1_655 S
C391 C390 1.379 . S
C391 H401 0.930 . S
C392 O370 1.264 1_554 S
C392 O371 1.254 . S
C393 Eu329 2.848 . S
C393 O368 1.257 . S
C393 O373 1.249 . S
C393 C386 1.492 . S
H394 C377 0.930 . S
H395 C378 0.930 . S
H396 C379 0.930 . S
H397 C380 0.930 . S
H398 C387 0.930 . S
H399 C389 0.930 . S
H400 C390 0.930 . S
H401 C391 0.930 . S
Eu402 N433 2.657 . S
Eu402 N440 2.609 . S
Eu402 O446 2.558 . S
Eu402 O447 2.612 . S
Eu402 O449 2.339 . S
Eu402 O450 2.563 . S
Eu402 O451 2.419 . S
Eu402 O453 2.380 . S
Eu402 O454 2.432 . S
Eu402 C466 2.848 . S
C403 C406 1.429 . S
C403 C407 1.411 . S
C403 N410 1.377 . S
C404 C406 1.420 . S
C404 C408 1.423 . S
C404 C416 1.392 . S
C405 C407 1.420 . S
C405 C408 1.351 . S
C405 H428 0.931 . S
C406 C403 1.429 . S
C406 C404 1.420 . S
C406 N414 1.362 . S
C407 C403 1.411 . S
C407 C405 1.420 . S
C407 C412 1.395 . S
C408 C404 1.423 . S
C408 C405 1.351 . S
C408 H420 0.930 . S
C409 C411 1.400 . S
C409 C412 1.386 . S
C409 H421 0.930 . S
N410 C403 1.377 . S
N410 C411 1.321 . S
N410 Eu413 2.609 . S
C411 C409 1.400 . S
C411 N410 1.321 . S
C411 H418 0.930 . S
C412 C407 1.395 . S
C412 C409 1.386 . S
C412 H431 0.930 . S
Eu413 N410 2.609 . S
Eu413 N414 2.657 . S
Eu413 O447 2.380 1_556 S
Eu413 O448 2.432 1_556 S
Eu413 O452 2.558 . S
Eu413 O453 2.612 1_556 S
Eu413 O455 2.339 1_556 S
Eu413 O456 2.563 . S
Eu413 O457 2.419 . S
Eu413 C477 2.848 . S
N414 C406 1.362 . S
N414 Eu413 2.657 . S
N414 C415 1.334 . S
C415 N414 1.334 . S
C415 C417 1.413 . S
C415 H422 0.929 . S
C416 C404 1.392 . S
C416 C417 1.367 . S
C416 H424 0.930 . S
C417 C415 1.413 . S
C417 C416 1.367 . S
C417 H419 0.930 . S
H418 C411 0.930 . S
H419 C417 0.930 . S
H420 C408 0.930 . S
H421 C409 0.930 . S
H422 C415 0.929 . S
H423 C437 0.930 . S
H424 C416 0.930 . S
H425 C443 0.930 . S
H426 C434 0.929 . S
H427 C441 0.930 . S
H428 C405 0.931 . S
H429 C435 0.930 . S
H430 C468 0.930 . S
H431 C412 0.930 . S
H432 C467 0.931 . S
N433 Eu402 2.657 . S
N433 C434 1.334 . S
N433 C438 1.362 . S
C434 H426 0.929 . S
C434 N433 1.334 . S
C434 C437 1.413 . S
C435 H429 0.930 . S
C435 C436 1.392 . S
C435 C437 1.367 . S
C436 C435 1.392 . S
C436 C438 1.420 . S
C436 C468 1.423 . S
C437 H423 0.930 . S
C437 C434 1.413 . S
C437 C435 1.367 . S
C438 N433 1.362 . S
C438 C436 1.420 . S
C438 C442 1.429 . S
H439 C444 0.930 . S
N440 Eu402 2.609 . S
N440 C442 1.377 . S
N440 C443 1.321 . S
C441 H427 0.930 . S
C441 C443 1.400 . S
C441 C444 1.386 . S
C442 C438 1.429 . S
C442 N440 1.377 . S
C442 C445 1.411 . S
C443 H425 0.930 . S
C443 N440 1.321 . S
C443 C441 1.400 . S
C444 H439 0.930 . S
C444 C441 1.386 . S
C444 C445 1.395 . S
C445 C442 1.411 . S
C445 C444 1.395 . S
C445 C467 1.420 . S
O446 Eu402 2.558 . S
O446 C466 1.257 . S
O447 Eu402 2.612 . S
O447 Eu413 2.380 1_554 S
O447 C458 1.276 . S
O448 Eu413 2.432 1_554 S
O448 C465 1.264 . S
O449 Eu402 2.339 . S
O449 C465 1.254 . S
O450 Eu402 2.563 . S
O450 C458 1.235 . S
O451 Eu402 2.419 . S
O451 C466 1.249 . S
O452 Eu413 2.558 . S
O452 C477 1.257 . S
O453 Eu402 2.380 . S
O453 Eu413 2.612 1_554 S
O453 C469 1.276 . S
O454 Eu402 2.432 . S
O454 C476 1.264 . S
O455 Eu413 2.339 1_554 S
O455 C476 1.254 . S
O456 Eu413 2.563 . S
O456 C469 1.235 1_556 S
O457 Eu413 2.419 . S
O457 C477 1.249 . S
C458 O447 1.276 . S
C458 O450 1.235 . S
C459 C461 1.393 . S
C459 C463 1.395 . S
C459 C466 1.492 . S
C460 C461 1.392 . S
C460 C462 1.386 . S
C461 C459 1.393 . S
C461 C460 1.392 . S
C461 H478 0.930 . S
C462 C460 1.386 . S
C462 C464 1.395 . S
C462 H479 0.930 . S
C463 C459 1.395 . S
C463 C464 1.379 . S
C463 H480 0.930 . S
C464 C462 1.395 . S
C464 C463 1.379 . S
C464 H481 0.930 . S
C465 O448 1.264 . S
C465 O449 1.254 . S
C466 Eu402 2.848 . S
C466 O446 1.257 . S
C466 O451 1.249 . S
C466 C459 1.492 . S
C467 H432 0.931 . S
C467 C445 1.420 . S
C467 C468 1.351 . S
C468 H430 0.930 . S
C468 C436 1.423 . S
C468 C467 1.351 . S
C469 O453 1.276 . S
C469 O456 1.235 1_554 S
C470 C471 1.393 . S
C470 C474 1.395 . S
C470 C477 1.492 . S
C471 C470 1.393 . S
C471 C472 1.392 . S
C471 H482 0.930 . S
C472 C471 1.392 . S
C472 C473 1.386 . S
C473 C472 1.386 . S
C473 C475 1.395 . S
C473 H483 0.930 . S
C474 C470 1.395 . S
C474 C475 1.379 . S
C474 H484 0.930 . S
C475 C473 1.395 . S
C475 C474 1.379 . S
C475 H485 0.930 . S
C476 O454 1.264 . S
C476 O455 1.254 . S
C477 Eu413 2.848 . S
C477 O452 1.257 . S
C477 O457 1.249 . S
C477 C470 1.492 . S
H478 C461 0.930 . S
H479 C462 0.930 . S
H480 C463 0.930 . S
H481 C464 0.930 . S
H482 C471 0.930 . S
H483 C473 0.930 . S
H484 C474 0.930 . S
H485 C475 0.930 . S
Eu486 N517 2.657 . S
Eu486 N524 2.609 . S
Eu486 O530 2.558 . S
Eu486 O531 2.612 . S
Eu486 O533 2.339 . S
Eu486 O534 2.563 . S
Eu486 O535 2.419 . S
Eu486 O537 2.380 . S
Eu486 O538 2.432 . S
Eu486 C550 2.848 . S
C487 C490 1.429 . S
C487 C491 1.411 . S
C487 N494 1.377 . S
C488 C490 1.420 . S
C488 C492 1.423 . S
C488 C500 1.392 . S
C489 C491 1.420 . S
C489 C492 1.351 . S
C489 H512 0.931 . S
C490 C487 1.429 . S
C490 C488 1.420 . S
C490 N498 1.362 . S
C491 C487 1.411 . S
C491 C489 1.420 . S
C491 C496 1.395 . S
C492 C488 1.423 . S
C492 C489 1.351 . S
C492 H504 0.930 . S
C493 C495 1.400 . S
C493 C496 1.386 . S
C493 H505 0.930 . S
N494 C487 1.377 . S
N494 C495 1.321 . S
N494 Eu497 2.609 . S
C495 C493 1.400 . S
C495 N494 1.321 . S
C495 H502 0.930 . S
C496 C491 1.395 . S
C496 C493 1.386 . S
C496 H515 0.930 . S
Eu497 N494 2.609 . S
Eu497 N498 2.657 . S
Eu497 O531 2.380 . S
Eu497 O532 2.432 . S
Eu497 O536 2.558 . S
Eu497 O537 2.612 . S
Eu497 O539 2.339 . S
Eu497 O540 2.563 . S
Eu497 O541 2.419 . S
Eu497 C561 2.848 . S
N498 C490 1.362 . S
N498 Eu497 2.657 . S
N498 C499 1.334 . S
C499 N498 1.334 . S
C499 C501 1.413 . S
C499 H506 0.929 . S
C500 C488 1.392 . S
C500 C501 1.367 . S
C500 H508 0.930 . S
C501 C499 1.413 . S
C501 C500 1.367 . S
C501 H503 0.930 . S
H502 C495 0.930 . S
H503 C501 0.930 . S
H504 C492 0.930 . S
H505 C493 0.930 . S
H506 C499 0.929 . S
H507 C521 0.930 . S
H508 C500 0.930 . S
H509 C527 0.930 . S
H510 C518 0.929 . S
H511 C525 0.930 . S
H512 C489 0.931 . S
H513 C519 0.930 1_655 S
H514 C552 0.930 1_655 S
H515 C496 0.930 . S
H516 C551 0.931 . S
N517 Eu486 2.657 . S
N517 C518 1.334 . S
N517 C522 1.362 . S
C518 H510 0.929 . S
C518 N517 1.334 . S
C518 C521 1.413 . S
C519 H513 0.930 1_455 S
C519 C520 1.392 . S
C519 C521 1.367 . S
C520 C519 1.392 . S
C520 C522 1.420 . S
C520 C552 1.423 . S
C521 H507 0.930 . S
C521 C518 1.413 . S
C521 C519 1.367 . S
C522 N517 1.362 . S
C522 C520 1.420 . S
C522 C526 1.429 . S
H523 C528 0.930 . S
N524 Eu486 2.609 . S
N524 C526 1.377 . S
N524 C527 1.321 . S
C525 H511 0.930 . S
C525 C527 1.400 . S
C525 C528 1.386 . S
C526 C522 1.429 . S
C526 N524 1.377 . S
C526 C529 1.411 . S
C527 H509 0.930 . S
C527 N524 1.321 . S
C527 C525 1.400 . S
C528 H523 0.930 . S
C528 C525 1.386 . S
C528 C529 1.395 . S
C529 C526 1.411 . S
C529 C528 1.395 . S
C529 C551 1.420 . S
O530 Eu486 2.558 . S
O530 C550 1.257 . S
O531 Eu486 2.612 . S
O531 Eu497 2.380 . S
O531 C542 1.276 . S
O532 Eu497 2.432 . S
O532 C549 1.264 . S
O533 Eu486 2.339 . S
O533 C549 1.254 . S
O534 Eu486 2.563 . S
O534 C542 1.235 . S
O535 Eu486 2.419 . S
O535 C550 1.249 . S
O536 Eu497 2.558 . S
O536 C561 1.257 . S
O537 Eu486 2.380 . S
O537 Eu497 2.612 . S
O537 C553 1.276 . S
O538 Eu486 2.432 . S
O538 C560 1.264 . S
O539 Eu497 2.339 . S
O539 C560 1.254 . S
O540 Eu497 2.563 . S
O540 C553 1.235 . S
O541 Eu497 2.419 . S
O541 C561 1.249 . S
C542 O531 1.276 . S
C542 O534 1.235 . S
C543 C545 1.393 . S
C543 C547 1.395 . S
C543 C550 1.492 . S
C544 C545 1.392 . S
C544 C546 1.386 . S
C545 C543 1.393 . S
C545 C544 1.392 . S
C545 H562 0.930 . S
C546 C544 1.386 . S
C546 C548 1.395 . S
C546 H563 0.930 . S
C547 C543 1.395 . S
C547 C548 1.379 . S
C547 H564 0.930 . S
C548 C546 1.395 . S
C548 C547 1.379 . S
C548 H565 0.930 . S
C549 O532 1.264 . S
C549 O533 1.254 . S
C550 Eu486 2.848 . S
C550 O530 1.257 . S
C550 O535 1.249 . S
C550 C543 1.492 . S
C551 H516 0.931 . S
C551 C529 1.420 . S
C551 C552 1.351 . S
C552 H514 0.930 1_455 S
C552 C520 1.423 . S
C552 C551 1.351 . S
C553 O537 1.276 . S
C553 O540 1.235 . S
C554 C555 1.393 . S
C554 C558 1.395 . S
C554 C561 1.492 . S
C555 C554 1.393 . S
C555 C556 1.392 . S
C555 H566 0.930 . S
C556 C555 1.392 . S
C556 C557 1.386 . S
C557 C556 1.386 . S
C557 C559 1.395 . S
C557 H567 0.930 . S
C558 C554 1.395 . S
C558 C559 1.379 . S
C558 H568 0.930 . S
C559 C557 1.395 . S
C559 C558 1.379 . S
C559 H569 0.930 . S
C560 O538 1.264 . S
C560 O539 1.254 . S
C561 Eu497 2.848 . S
C561 O536 1.257 . S
C561 O541 1.249 . S
C561 C554 1.492 . S
H562 C545 0.930 . S
H563 C546 0.930 . S
H564 C547 0.930 . S
H565 C548 0.930 . S
H566 C555 0.930 . S
H567 C557 0.930 . S
H568 C558 0.930 . S
H569 C559 0.930 . S
Eu570 N601 2.657 . S
Eu570 N608 2.609 . S
Eu570 O614 2.558 . S
Eu570 O615 2.612 . S
Eu570 O617 2.339 . S
Eu570 O618 2.563 . S
Eu570 O619 2.419 . S
Eu570 O621 2.380 . S
Eu570 O622 2.432 . S
Eu570 C634 2.848 . S
C571 C574 1.429 . S
C571 C575 1.411 . S
C571 N578 1.377 . S
C572 C574 1.420 . S
C572 C576 1.423 . S
C572 C584 1.392 . S
C573 C575 1.420 . S
C573 C576 1.351 . S
C573 H596 0.931 . S
C574 C571 1.429 . S
C574 C572 1.420 . S
C574 N582 1.362 . S
C575 C571 1.411 . S
C575 C573 1.420 . S
C575 C580 1.395 . S
C576 C572 1.423 . S
C576 C573 1.351 . S
C576 H588 0.930 . S
C577 C579 1.400 . S
C577 C580 1.386 . S
C577 H589 0.930 . S
N578 C571 1.377 . S
N578 C579 1.321 . S
N578 Eu581 2.609 . S
C579 C577 1.400 . S
C579 N578 1.321 . S
C579 H586 0.930 . S
C580 C575 1.395 . S
C580 C577 1.386 . S
C580 H599 0.930 . S
Eu581 N578 2.609 . S
Eu581 N582 2.657 . S
Eu581 O615 2.380 . S
Eu581 O616 2.432 . S
Eu581 O620 2.558 . S
Eu581 O621 2.612 . S
Eu581 O623 2.339 . S
Eu581 O624 2.563 . S
Eu581 O625 2.419 . S
Eu581 C645 2.848 . S
N582 C574 1.362 . S
N582 Eu581 2.657 . S
N582 C583 1.334 . S
C583 N582 1.334 . S
C583 C585 1.413 . S
C583 H590 0.929 . S
C584 C572 1.392 . S
C584 C585 1.367 . S
C584 H592 0.930 . S
C585 C583 1.413 . S
C585 C584 1.367 . S
C585 H587 0.930 . S
H586 C579 0.930 . S
H587 C585 0.930 . S
H588 C576 0.930 . S
H589 C577 0.930 . S
H590 C583 0.929 . S
H591 C605 0.930 . S
H592 C584 0.930 . S
H593 C611 0.930 . S
H594 C602 0.929 . S
H595 C609 0.930 1_545 S
H596 C573 0.931 . S
H597 C603 0.930 . S
H598 C636 0.930 . S
H599 C580 0.930 . S
H600 C635 0.931 . S
N601 Eu570 2.657 . S
N601 C602 1.334 . S
N601 C606 1.362 . S
C602 H594 0.929 . S
C602 N601 1.334 . S
C602 C605 1.413 . S
C603 H597 0.930 . S
C603 C604 1.392 . S
C603 C605 1.367 . S
C604 C603 1.392 . S
C604 C606 1.420 . S
C604 C636 1.423 . S
C605 H591 0.930 . S
C605 C602 1.413 . S
C605 C603 1.367 . S
C606 N601 1.362 . S
C606 C604 1.420 . S
C606 C610 1.429 . S
H607 C612 0.930 . S
N608 Eu570 2.609 . S
N608 C610 1.377 . S
N608 C611 1.321 . S
C609 H595 0.930 1_565 S
C609 C611 1.400 . S
C609 C612 1.386 . S
C610 C606 1.429 . S
C610 N608 1.377 . S
C610 C613 1.411 . S
C611 H593 0.930 . S
C611 N608 1.321 . S
C611 C609 1.400 . S
C612 H607 0.930 . S
C612 C609 1.386 . S
C612 C613 1.395 . S
C613 C610 1.411 . S
C613 C612 1.395 . S
C613 C635 1.420 . S
O614 Eu570 2.558 . S
O614 C634 1.257 . S
O615 Eu570 2.612 . S
O615 Eu581 2.380 . S
O615 C626 1.276 . S
O616 Eu581 2.432 . S
O616 C633 1.264 . S
O617 Eu570 2.339 . S
O617 C633 1.254 . S
O618 Eu570 2.563 . S
O618 C626 1.235 . S
O619 Eu570 2.419 . S
O619 C634 1.249 . S
O620 Eu581 2.558 . S
O620 C645 1.257 . S
O621 Eu570 2.380 . S
O621 Eu581 2.612 . S
O621 C637 1.276 . S
O622 Eu570 2.432 . S
O622 C644 1.264 . S
O623 Eu581 2.339 . S
O623 C644 1.254 . S
O624 Eu581 2.563 . S
O624 C637 1.235 . S
O625 Eu581 2.419 . S
O625 C645 1.249 . S
C626 O615 1.276 . S
C626 O618 1.235 . S
C627 C629 1.393 . S
C627 C631 1.395 . S
C627 C634 1.492 . S
C628 C629 1.392 . S
C628 C630 1.386 . S
C629 C627 1.393 . S
C629 C628 1.392 . S
C629 H646 0.930 . S
C630 C628 1.386 . S
C630 C632 1.395 . S
C630 H647 0.930 . S
C631 C627 1.395 . S
C631 C632 1.379 . S
C631 H648 0.930 . S
C632 C630 1.395 . S
C632 C631 1.379 . S
C632 H649 0.930 . S
C633 O616 1.264 . S
C633 O617 1.254 . S
C634 Eu570 2.848 . S
C634 O614 1.257 . S
C634 O619 1.249 . S
C634 C627 1.492 . S
C635 H600 0.931 . S
C635 C613 1.420 . S
C635 C636 1.351 . S
C636 H598 0.930 . S
C636 C604 1.423 . S
C636 C635 1.351 . S
C637 O621 1.276 . S
C637 O624 1.235 . S
C638 C639 1.393 . S
C638 C642 1.395 . S
C638 C645 1.492 . S
C639 C638 1.393 . S
C639 C640 1.392 . S
C639 H650 0.930 . S
C640 C639 1.392 . S
C640 C641 1.386 . S
C641 C640 1.386 . S
C641 C643 1.395 . S
C641 H651 0.930 . S
C642 C638 1.395 . S
C642 C643 1.379 . S
C642 H652 0.930 . S
C643 C641 1.395 . S
C643 C642 1.379 . S
C643 H653 0.930 . S
C644 O622 1.264 . S
C644 O623 1.254 . S
C645 Eu581 2.848 . S
C645 O620 1.257 . S
C645 O625 1.249 . S
C645 C638 1.492 . S
H646 C629 0.930 . S
H647 C630 0.930 . S
H648 C631 0.930 . S
H649 C632 0.930 . S
H650 C639 0.930 . S
H651 C641 0.930 . S
H652 C642 0.930 . S
H653 C643 0.930 . S
Eu654 N685 2.657 . S
Eu654 N692 2.609 . S
Eu654 O698 2.558 . S
Eu654 O699 2.612 . S
Eu654 O701 2.339 . S
Eu654 O702 2.563 . S
Eu654 O703 2.419 . S
Eu654 O705 2.380 . S
Eu654 O706 2.432 . S
Eu654 C718 2.848 . S
C655 C658 1.429 . S
C655 C659 1.411 . S
C655 N662 1.377 . S
C656 C658 1.420 1_655 S
C656 C660 1.423 . S
C656 C668 1.392 . S
C657 C659 1.420 . S
C657 C660 1.351 1_455 S
C657 H680 0.931 1_455 S
C658 C655 1.429 . S
C658 C656 1.420 1_455 S
C658 N666 1.362 . S
C659 C655 1.411 . S
C659 C657 1.420 . S
C659 C664 1.395 . S
C660 C656 1.423 . S
C660 C657 1.351 1_655 S
C660 H672 0.930 . S
C661 C663 1.400 . S
C661 C664 1.386 . S
C661 H673 0.930 . S
N662 C655 1.377 . S
N662 C663 1.321 . S
N662 Eu665 2.609 . S
C663 C661 1.400 . S
C663 N662 1.321 . S
C663 H670 0.930 . S
C664 C659 1.395 . S
C664 C661 1.386 . S
C664 H683 0.930 . S
Eu665 N662 2.609 . S
Eu665 N666 2.657 . S
Eu665 O699 2.380 . S
Eu665 O700 2.432 . S
Eu665 O704 2.558 . S
Eu665 O705 2.612 . S
Eu665 O707 2.339 . S
Eu665 O708 2.563 . S
Eu665 O709 2.419 . S
Eu665 C729 2.848 . S
N666 C658 1.362 . S
N666 Eu665 2.657 . S
N666 C667 1.334 . S
C667 N666 1.334 . S
C667 C669 1.413 1_455 S
C667 H674 0.929 . S
C668 C656 1.392 . S
C668 C669 1.367 . S
C668 H676 0.930 . S
C669 C667 1.413 1_655 S
C669 C668 1.367 . S
C669 H671 0.930 . S
H670 C663 0.930 . S
H671 C669 0.930 . S
H672 C660 0.930 . S
H673 C661 0.930 . S
H674 C667 0.929 . S
H675 C689 0.930 . S
H676 C668 0.930 . S
H677 C695 0.930 . S
H678 C686 0.929 . S
H679 C693 0.930 . S
H680 C657 0.931 1_655 S
H681 C687 0.930 . S
H682 C720 0.930 . S
H683 C664 0.930 . S
H684 C719 0.931 . S
N685 Eu654 2.657 . S
N685 C686 1.334 . S
N685 C690 1.362 . S
C686 H678 0.929 . S
C686 N685 1.334 . S
C686 C689 1.413 . S
C687 H681 0.930 . S
C687 C688 1.392 . S
C687 C689 1.367 . S
C688 C687 1.392 . S
C688 C690 1.420 . S
C688 C720 1.423 . S
C689 H675 0.930 . S
C689 C686 1.413 . S
C689 C687 1.367 . S
C690 N685 1.362 . S
C690 C688 1.420 . S
C690 C694 1.429 . S
H691 C696 0.930 . S
N692 Eu654 2.609 . S
N692 C694 1.377 . S
N692 C695 1.321 . S
C693 H679 0.930 . S
C693 C695 1.400 . S
C693 C696 1.386 . S
C694 C690 1.429 . S
C694 N692 1.377 . S
C694 C697 1.411 . S
C695 H677 0.930 . S
C695 N692 1.321 . S
C695 C693 1.400 . S
C696 H691 0.930 . S
C696 C693 1.386 . S
C696 C697 1.395 . S
C697 C694 1.411 . S
C697 C696 1.395 . S
C697 C719 1.420 . S
O698 Eu654 2.558 . S
O698 C718 1.257 . S
O699 Eu654 2.612 . S
O699 Eu665 2.380 . S
O699 C710 1.276 . S
O700 Eu665 2.432 . S
O700 C717 1.264 . S
O701 Eu654 2.339 . S
O701 C717 1.254 . S
O702 Eu654 2.563 . S
O702 C710 1.235 . S
O703 Eu654 2.419 . S
O703 C718 1.249 . S
O704 Eu665 2.558 . S
O704 C729 1.257 . S
O705 Eu654 2.380 . S
O705 Eu665 2.612 . S
O705 C721 1.276 . S
O706 Eu654 2.432 . S
O706 C728 1.264 . S
O707 Eu665 2.339 . S
O707 C728 1.254 . S
O708 Eu665 2.563 . S
O708 C721 1.235 . S
O709 Eu665 2.419 . S
O709 C729 1.249 . S
C710 O699 1.276 . S
C710 O702 1.235 . S
C711 C713 1.393 . S
C711 C715 1.395 . S
C711 C718 1.492 . S
C712 C713 1.392 . S
C712 C714 1.386 . S
C713 C711 1.393 . S
C713 C712 1.392 . S
C713 H730 0.930 . S
C714 C712 1.386 . S
C714 C716 1.395 . S
C714 H731 0.930 . S
C715 C711 1.395 . S
C715 C716 1.379 . S
C715 H732 0.930 . S
C716 C714 1.395 . S
C716 C715 1.379 . S
C716 H733 0.930 . S
C717 O700 1.264 . S
C717 O701 1.254 . S
C718 Eu654 2.848 . S
C718 O698 1.257 . S
C718 O703 1.249 . S
C718 C711 1.492 . S
C719 H684 0.931 . S
C719 C697 1.420 . S
C719 C720 1.351 . S
C720 H682 0.930 . S
C720 C688 1.423 . S
C720 C719 1.351 . S
C721 O705 1.276 . S
C721 O708 1.235 . S
C722 C723 1.393 . S
C722 C726 1.395 . S
C722 C729 1.492 . S
C723 C722 1.393 . S
C723 C724 1.392 . S
C723 H734 0.930 . S
C724 C723 1.392 . S
C724 C725 1.386 . S
C725 C724 1.386 . S
C725 C727 1.395 . S
C725 H735 0.930 . S
C726 C722 1.395 . S
C726 C727 1.379 . S
C726 H736 0.930 . S
C727 C725 1.395 . S
C727 C726 1.379 . S
C727 H737 0.930 . S
C728 O706 1.264 . S
C728 O707 1.254 . S
C729 Eu665 2.848 . S
C729 O704 1.257 . S
C729 O709 1.249 . S
C729 C722 1.492 . S
H730 C713 0.930 . S
H731 C714 0.930 . S
H732 C715 0.930 . S
H733 C716 0.930 . S
H734 C723 0.930 . S
H735 C725 0.930 . S
H736 C726 0.930 . S
H737 C727 0.930 . S
Eu738 N769 2.657 . S
Eu738 N776 2.609 . S
Eu738 O782 2.558 . S
Eu738 O783 2.612 . S
Eu738 O785 2.339 . S
Eu738 O786 2.563 . S
Eu738 O787 2.419 . S
Eu738 O789 2.380 . S
Eu738 O790 2.432 . S
Eu738 C802 2.848 . S
C739 C742 1.429 . S
C739 C743 1.411 . S
C739 N746 1.377 . S
C740 C742 1.420 1_455 S
C740 C744 1.423 . S
C740 C752 1.392 . S
C741 C743 1.420 1_455 S
C741 C744 1.351 . S
C741 H764 0.931 . S
C742 C739 1.429 . S
C742 C740 1.420 1_655 S
C742 N750 1.362 . S
C743 C739 1.411 . S
C743 C741 1.420 1_655 S
C743 C748 1.395 . S
C744 C740 1.423 . S
C744 C741 1.351 . S
C744 H756 0.930 . S
C745 C747 1.400 . S
C745 C748 1.386 . S
C745 H757 0.930 . S
N746 C739 1.377 . S
N746 C747 1.321 . S
N746 Eu749 2.609 . S
C747 C745 1.400 . S
C747 N746 1.321 . S
C747 H754 0.930 . S
C748 C743 1.395 . S
C748 C745 1.386 . S
C748 H767 0.930 . S
Eu749 N746 2.609 . S
Eu749 N750 2.657 . S
Eu749 O783 2.380 . S
Eu749 O784 2.432 . S
Eu749 O788 2.558 . S
Eu749 O789 2.612 . S
Eu749 O791 2.339 . S
Eu749 O792 2.563 . S
Eu749 O793 2.419 . S
Eu749 C813 2.848 . S
N750 C742 1.362 . S
N750 Eu749 2.657 . S
N750 C751 1.334 . S
C751 N750 1.334 . S
C751 C753 1.413 1_655 S
C751 H758 0.929 . S
C752 C740 1.392 . S
C752 C753 1.367 . S
C752 H760 0.930 . S
C753 C751 1.413 1_455 S
C753 C752 1.367 . S
C753 H755 0.930 . S
H754 C747 0.930 . S
H755 C753 0.930 . S
H756 C744 0.930 . S
H757 C745 0.930 . S
H758 C751 0.929 . S
H759 C773 0.930 . S
H760 C752 0.930 . S
H761 C779 0.930 . S
H762 C770 0.929 . S
H763 C777 0.930 . S
H764 C741 0.931 . S
H765 C771 0.930 . S
H766 C804 0.930 . S
H767 C748 0.930 . S
H768 C803 0.931 . S
N769 Eu738 2.657 . S
N769 C770 1.334 . S
N769 C774 1.362 . S
C770 H762 0.929 . S
C770 N769 1.334 . S
C770 C773 1.413 . S
C771 H765 0.930 . S
C771 C772 1.392 . S
C771 C773 1.367 . S
C772 C771 1.392 . S
C772 C774 1.420 . S
C772 C804 1.423 . S
C773 H759 0.930 . S
C773 C770 1.413 . S
C773 C771 1.367 . S
C774 N769 1.362 . S
C774 C772 1.420 . S
C774 C778 1.429 . S
H775 C780 0.930 . S
N776 Eu738 2.609 . S
N776 C778 1.377 . S
N776 C779 1.321 . S
C777 H763 0.930 . S
C777 C779 1.400 . S
C777 C780 1.386 . S
C778 C774 1.429 . S
C778 N776 1.377 . S
C778 C781 1.411 . S
C779 H761 0.930 . S
C779 N776 1.321 . S
C779 C777 1.400 . S
C780 H775 0.930 . S
C780 C777 1.386 . S
C780 C781 1.395 . S
C781 C778 1.411 . S
C781 C780 1.395 . S
C781 C803 1.420 . S
O782 Eu738 2.558 . S
O782 C802 1.257 . S
O783 Eu738 2.612 . S
O783 Eu749 2.380 . S
O783 C794 1.276 . S
O784 Eu749 2.432 . S
O784 C801 1.264 . S
O785 Eu738 2.339 . S
O785 C801 1.254 . S
O786 Eu738 2.563 . S
O786 C794 1.235 . S
O787 Eu738 2.419 . S
O787 C802 1.249 . S
O788 Eu749 2.558 . S
O788 C813 1.257 . S
O789 Eu738 2.380 . S
O789 Eu749 2.612 . S
O789 C805 1.276 . S
O790 Eu738 2.432 . S
O790 C812 1.264 . S
O791 Eu749 2.339 . S
O791 C812 1.254 . S
O792 Eu749 2.563 . S
O792 C805 1.235 . S
O793 Eu749 2.419 . S
O793 C813 1.249 . S
C794 O783 1.276 . S
C794 O786 1.235 . S
C795 C797 1.393 . S
C795 C799 1.395 . S
C795 C802 1.492 . S
C796 C797 1.392 . S
C796 C798 1.386 . S
C797 C795 1.393 . S
C797 C796 1.392 . S
C797 H814 0.930 . S
C798 C796 1.386 . S
C798 C800 1.395 . S
C798 H815 0.930 . S
C799 C795 1.395 . S
C799 C800 1.379 . S
C799 H816 0.930 . S
C800 C798 1.395 . S
C800 C799 1.379 . S
C800 H817 0.930 . S
C801 O784 1.264 . S
C801 O785 1.254 . S
C802 Eu738 2.848 . S
C802 O782 1.257 . S
C802 O787 1.249 . S
C802 C795 1.492 . S
C803 H768 0.931 . S
C803 C781 1.420 . S
C803 C804 1.351 . S
C804 H766 0.930 . S
C804 C772 1.423 . S
C804 C803 1.351 . S
C805 O789 1.276 . S
C805 O792 1.235 . S
C806 C807 1.393 . S
C806 C810 1.395 . S
C806 C813 1.492 . S
C807 C806 1.393 . S
C807 C808 1.392 . S
C807 H818 0.930 . S
C808 C807 1.392 . S
C808 C809 1.386 . S
C809 C808 1.386 . S
C809 C811 1.395 . S
C809 H819 0.930 . S
C810 C806 1.395 . S
C810 C811 1.379 . S
C810 H820 0.930 . S
C811 C809 1.395 . S
C811 C810 1.379 . S
C811 H821 0.930 . S
C812 O790 1.264 . S
C812 O791 1.254 . S
C813 Eu749 2.848 . S
C813 O788 1.257 . S
C813 O793 1.249 . S
C813 C806 1.492 . S
H814 C797 0.930 . S
H815 C798 0.930 . S
H816 C799 0.930 . S
H817 C800 0.930 . S
H818 C807 0.930 . S
H819 C809 0.930 . S
H820 C810 0.930 . S
H821 C811 0.930 . S
Eu822 N853 2.657 . S
Eu822 N860 2.609 . S
Eu822 O866 2.558 . S
Eu822 O867 2.612 . S
Eu822 O869 2.339 . S
Eu822 O870 2.563 . S
Eu822 O871 2.419 . S
Eu822 O873 2.380 . S
Eu822 O874 2.432 . S
Eu822 C886 2.848 . S
C823 C826 1.429 . S
C823 C827 1.411 . S
C823 N830 1.377 . S
C824 C826 1.420 . S
C824 C828 1.423 . S
C824 C836 1.392 . S
C825 C827 1.420 . S
C825 C828 1.351 . S
C825 H848 0.931 . S
C826 C823 1.429 . S
C826 C824 1.420 . S
C826 N834 1.362 . S
C827 C823 1.411 . S
C827 C825 1.420 . S
C827 C832 1.395 . S
C828 C824 1.423 . S
C828 C825 1.351 . S
C828 H840 0.930 . S
C829 C831 1.400 . S
C829 C832 1.386 . S
C829 H841 0.930 . S
N830 C823 1.377 . S
N830 C831 1.321 . S
N830 Eu833 2.609 . S
C831 C829 1.400 . S
C831 N830 1.321 . S
C831 H838 0.930 . S
C832 C827 1.395 . S
C832 C829 1.386 . S
C832 H851 0.930 . S
Eu833 N830 2.609 . S
Eu833 N834 2.657 . S
Eu833 O867 2.380 . S
Eu833 O868 2.432 . S
Eu833 O872 2.558 . S
Eu833 O873 2.612 . S
Eu833 O875 2.339 . S
Eu833 O876 2.563 . S
Eu833 O877 2.419 . S
Eu833 C897 2.848 . S
N834 C826 1.362 . S
N834 Eu833 2.657 . S
N834 C835 1.334 . S
C835 N834 1.334 . S
C835 C837 1.413 . S
C835 H842 0.929 . S
C836 C824 1.392 . S
C836 C837 1.367 . S
C836 H844 0.930 . S
C837 C835 1.413 . S
C837 C836 1.367 . S
C837 H839 0.930 . S
H838 C831 0.930 . S
H839 C837 0.930 . S
H840 C828 0.930 . S
H841 C829 0.930 . S
H842 C835 0.929 . S
H843 C857 0.930 . S
H844 C836 0.930 . S
H845 C863 0.930 . S
H846 C854 0.929 . S
H847 C861 0.930 . S
H848 C825 0.931 . S
H849 C855 0.930 . S
H850 C888 0.930 . S
H851 C832 0.930 . S
H852 C887 0.931 . S
N853 Eu822 2.657 . S
N853 C854 1.334 . S
N853 C858 1.362 . S
C854 H846 0.929 . S
C854 N853 1.334 . S
C854 C857 1.413 . S
C855 H849 0.930 . S
C855 C856 1.392 . S
C855 C857 1.367 . S
C856 C855 1.392 . S
C856 C858 1.420 . S
C856 C888 1.423 . S
C857 H843 0.930 . S
C857 C854 1.413 . S
C857 C855 1.367 . S
C858 N853 1.362 . S
C858 C856 1.420 . S
C858 C862 1.429 . S
H859 C864 0.930 . S
N860 Eu822 2.609 . S
N860 C862 1.377 . S
N860 C863 1.321 . S
C861 H847 0.930 . S
C861 C863 1.400 . S
C861 C864 1.386 . S
C862 C858 1.429 . S
C862 N860 1.377 . S
C862 C865 1.411 . S
C863 H845 0.930 . S
C863 N860 1.321 . S
C863 C861 1.400 . S
C864 H859 0.930 . S
C864 C861 1.386 . S
C864 C865 1.395 . S
C865 C862 1.411 . S
C865 C864 1.395 . S
C865 C887 1.420 . S
O866 Eu822 2.558 . S
O866 C886 1.257 . S
O867 Eu822 2.612 . S
O867 Eu833 2.380 . S
O867 C878 1.276 . S
O868 Eu833 2.432 . S
O868 C885 1.264 . S
O869 Eu822 2.339 . S
O869 C885 1.254 . S
O870 Eu822 2.563 . S
O870 C878 1.235 . S
O871 Eu822 2.419 . S
O871 C886 1.249 . S
O872 Eu833 2.558 . S
O872 C897 1.257 . S
O873 Eu822 2.380 . S
O873 Eu833 2.612 . S
O873 C889 1.276 . S
O874 Eu822 2.432 . S
O874 C896 1.264 . S
O875 Eu833 2.339 . S
O875 C896 1.254 . S
O876 Eu833 2.563 . S
O876 C889 1.235 . S
O877 Eu833 2.419 . S
O877 C897 1.249 . S
C878 O867 1.276 . S
C878 O870 1.235 . S
C879 C881 1.393 . S
C879 C883 1.395 . S
C879 C886 1.492 . S
C880 C881 1.392 . S
C880 C882 1.386 . S
C881 C879 1.393 . S
C881 C880 1.392 . S
C881 H898 0.930 . S
C882 C880 1.386 . S
C882 C884 1.395 . S
C882 H899 0.930 . S
C883 C879 1.395 . S
C883 C884 1.379 . S
C883 H900 0.930 . S
C884 C882 1.395 . S
C884 C883 1.379 . S
C884 H901 0.930 . S
C885 O868 1.264 . S
C885 O869 1.254 . S
C886 Eu822 2.848 . S
C886 O866 1.257 . S
C886 O871 1.249 . S
C886 C879 1.492 . S
C887 H852 0.931 . S
C887 C865 1.420 . S
C887 C888 1.351 . S
C888 H850 0.930 . S
C888 C856 1.423 . S
C888 C887 1.351 . S
C889 O873 1.276 . S
C889 O876 1.235 . S
C890 C891 1.393 . S
C890 C894 1.395 . S
C890 C897 1.492 . S
C891 C890 1.393 . S
C891 C892 1.392 . S
C891 H902 0.930 . S
C892 C891 1.392 . S
C892 C893 1.386 . S
C893 C892 1.386 . S
C893 C895 1.395 . S
C893 H903 0.930 . S
C894 C890 1.395 . S
C894 C895 1.379 . S
C894 H904 0.930 . S
C895 C893 1.395 . S
C895 C894 1.379 . S
C895 H905 0.930 . S
C896 O874 1.264 . S
C896 O875 1.254 . S
C897 Eu833 2.848 . S
C897 O872 1.257 . S
C897 O877 1.249 . S
C897 C890 1.492 . S
H898 C881 0.930 . S
H899 C882 0.930 . S
H900 C883 0.930 . S
H901 C884 0.930 . S
H902 C891 0.930 . S
H903 C893 0.930 . S
H904 C894 0.930 . S
H905 C895 0.930 . S
Eu906 N937 2.657 . S
Eu906 N944 2.609 . S
Eu906 O950 2.558 . S
Eu906 O951 2.612 . S
Eu906 O953 2.339 . S
Eu906 O954 2.563 . S
Eu906 O955 2.419 . S
Eu906 O957 2.380 . S
Eu906 O958 2.432 . S
Eu906 C970 2.848 . S
C907 C910 1.429 . S
C907 C911 1.411 . S
C907 N914 1.377 . S
C908 C910 1.420 . S
C908 C912 1.423 . S
C908 C920 1.392 . S
C909 C911 1.420 . S
C909 C912 1.351 . S
C909 H932 0.931 . S
C910 C907 1.429 . S
C910 C908 1.420 . S
C910 N918 1.362 . S
C911 C907 1.411 . S
C911 C909 1.420 . S
C911 C916 1.395 . S
C912 C908 1.423 . S
C912 C909 1.351 . S
C912 H924 0.930 . S
C913 C915 1.400 . S
C913 C916 1.386 . S
C913 H925 0.930 . S
N914 C907 1.377 . S
N914 C915 1.321 . S
N914 Eu917 2.609 . S
C915 C913 1.400 . S
C915 N914 1.321 . S
C915 H922 0.930 . S
C916 C911 1.395 . S
C916 C913 1.386 . S
C916 H935 0.930 . S
Eu917 N914 2.609 . S
Eu917 N918 2.657 . S
Eu917 O951 2.380 . S
Eu917 O952 2.432 . S
Eu917 O956 2.558 . S
Eu917 O957 2.612 . S
Eu917 O959 2.339 . S
Eu917 O960 2.563 . S
Eu917 O961 2.419 . S
Eu917 C981 2.848 . S
N918 C910 1.362 . S
N918 Eu917 2.657 . S
N918 C919 1.334 . S
C919 N918 1.334 . S
C919 C921 1.413 . S
C919 H926 0.929 . S
C920 C908 1.392 . S
C920 C921 1.367 . S
C920 H928 0.930 . S
C921 C919 1.413 . S
C921 C920 1.367 . S
C921 H923 0.930 . S
H922 C915 0.930 . S
H923 C921 0.930 . S
H924 C912 0.930 . S
H925 C913 0.930 . S
H926 C919 0.929 . S
H927 C941 0.930 1_455 S
H928 C920 0.930 . S
H929 C947 0.930 . S
H930 C938 0.929 . S
H931 C945 0.930 1_565 S
H932 C909 0.931 . S
H933 C939 0.930 . S
H934 C972 0.930 . S
H935 C916 0.930 . S
H936 C971 0.931 . S
N937 Eu906 2.657 . S
N937 C938 1.334 . S
N937 C942 1.362 . S
C938 H930 0.929 . S
C938 N937 1.334 . S
C938 C941 1.413 . S
C939 H933 0.930 . S
C939 C940 1.392 1_455 S
C939 C941 1.367 1_455 S
C940 C939 1.392 1_655 S
C940 C942 1.420 . S
C940 C972 1.423 1_655 S
C941 H927 0.930 1_655 S
C941 C938 1.413 . S
C941 C939 1.367 1_655 S
C942 N937 1.362 . S
C942 C940 1.420 . S
C942 C946 1.429 . S
H943 C948 0.930 . S
N944 Eu906 2.609 . S
N944 C946 1.377 . S
N944 C947 1.321 . S
C945 H931 0.930 1_545 S
C945 C947 1.400 . S
C945 C948 1.386 . S
C946 C942 1.429 . S
C946 N944 1.377 . S
C946 C949 1.411 . S
C947 H929 0.930 . S
C947 N944 1.321 . S
C947 C945 1.400 . S
C948 H943 0.930 . S
C948 C945 1.386 . S
C948 C949 1.395 . S
C949 C946 1.411 . S
C949 C948 1.395 . S
C949 C971 1.420 . S
O950 Eu906 2.558 . S
O950 C970 1.257 . S
O951 Eu906 2.612 . S
O951 Eu917 2.380 . S
O951 C962 1.276 . S
O952 Eu917 2.432 . S
O952 C969 1.264 . S
O953 Eu906 2.339 . S
O953 C969 1.254 . S
O954 Eu906 2.563 . S
O954 C962 1.235 . S
O955 Eu906 2.419 . S
O955 C970 1.249 . S
O956 Eu917 2.558 . S
O956 C981 1.257 . S
O957 Eu906 2.380 . S
O957 Eu917 2.612 . S
O957 C973 1.276 . S
O958 Eu906 2.432 . S
O958 C980 1.264 . S
O959 Eu917 2.339 . S
O959 C980 1.254 . S
O960 Eu917 2.563 . S
O960 C973 1.235 . S
O961 Eu917 2.419 . S
O961 C981 1.249 . S
C962 O951 1.276 . S
C962 O954 1.235 . S
C963 C965 1.393 . S
C963 C967 1.395 . S
C963 C970 1.492 . S
C964 C965 1.392 . S
C964 C966 1.386 . S
C965 C963 1.393 . S
C965 C964 1.392 . S
C965 H982 0.930 . S
C966 C964 1.386 . S
C966 C968 1.395 . S
C966 H983 0.930 . S
C967 C963 1.395 . S
C967 C968 1.379 . S
C967 H984 0.930 . S
C968 C966 1.395 . S
C968 C967 1.379 . S
C968 H985 0.930 . S
C969 O952 1.264 . S
C969 O953 1.254 . S
C970 Eu906 2.848 . S
C970 O950 1.257 . S
C970 O955 1.249 . S
C970 C963 1.492 . S
C971 H936 0.931 . S
C971 C949 1.420 . S
C971 C972 1.351 1_655 S
C972 H934 0.930 . S
C972 C940 1.423 1_455 S
C972 C971 1.351 1_455 S
C973 O957 1.276 . S
C973 O960 1.235 . S
C974 C975 1.393 . S
C974 C978 1.395 . S
C974 C981 1.492 . S
C975 C974 1.393 . S
C975 C976 1.392 . S
C975 H986 0.930 . S
C976 C975 1.392 . S
C976 C977 1.386 . S
C977 C976 1.386 . S
C977 C979 1.395 . S
C977 H987 0.930 . S
C978 C974 1.395 . S
C978 C979 1.379 . S
C978 H988 0.930 . S
C979 C977 1.395 . S
C979 C978 1.379 . S
C979 H989 0.930 . S
C980 O958 1.264 . S
C980 O959 1.254 . S
C981 Eu917 2.848 . S
C981 O956 1.257 . S
C981 O961 1.249 . S
C981 C974 1.492 . S
H982 C965 0.930 . S
H983 C966 0.930 . S
H984 C967 0.930 . S
H985 C968 0.930 . S
H986 C975 0.930 . S
H987 C977 0.930 . S
H988 C978 0.930 . S
H989 C979 0.930 . S
C990 C991 1.363 . S
C990 C996 1.379 . S
C990 N998 1.356 . S
C991 C990 1.363 . S
C991 C997 1.363 . S
C992 C993 1.363 . S
C992 C997 1.379 . S
C992 N999 1.356 . S
C993 C992 1.363 . S
C993 C996 1.363 . S
N994 C996 1.356 . S
N994 H1006 0.984 . S
N994 H1007 0.985 . S
N995 C997 1.356 . S
N995 H1000 0.984 . S
N995 H1001 0.985 . S
C996 C990 1.379 . S
C996 C993 1.363 . S
C996 N994 1.356 . S
C997 C991 1.363 . S
C997 C992 1.379 . S
C997 N995 1.356 . S
N998 C990 1.356 . S
N998 H1004 0.984 . S
N998 H1005 0.984 . S
N999 C992 1.356 . S
N999 H1002 0.984 . S
N999 H1003 0.985 . S
H1000 N995 0.984 . S
H1001 N995 0.985 . S
H1002 N999 0.984 . S
H1003 N999 0.985 . S
H1004 N998 0.984 . S
H1005 N998 0.984 . S
H1006 N994 0.984 . S
H1007 N994 0.985 . S
C1008 C1009 1.363 . S
C1008 C1014 1.379 . S
C1008 N1016 1.356 . S
C1009 C1008 1.363 . S
C1009 C1015 1.363 . S
C1010 C1011 1.363 . S
C1010 C1015 1.379 . S
C1010 N1017 1.356 . S
C1011 C1010 1.363 . S
C1011 C1014 1.363 . S
N1012 C1014 1.356 . S
N1012 H1024 0.990 . S
N1012 H1025 0.985 . S
N1013 C1015 1.356 . S
N1013 H1018 0.984 . S
N1013 H1019 0.985 . S
C1014 C1008 1.379 . S
C1014 C1011 1.363 . S
C1014 N1012 1.356 . S
C1015 C1009 1.363 . S
C1015 C1010 1.379 . S
C1015 N1013 1.356 . S
N1016 C1008 1.356 . S
N1016 H1022 0.984 . S
N1016 H1023 0.984 . S
N1017 C1010 1.356 . S
N1017 H1020 0.984 . S
N1017 H1021 0.985 . S
H1018 N1013 0.984 . S
H1019 N1013 0.985 . S
H1020 N1017 0.984 . S
H1021 N1017 0.985 . S
H1022 N1016 0.984 . S
H1023 N1016 0.984 . S
H1024 N1012 0.990 . S
H1025 N1012 0.985 . S
C1026 C1027 1.363 . S
C1026 C1032 1.379 . S
C1026 N1034 1.356 . S
C1027 C1026 1.363 . S
C1027 C1033 1.363 . S
C1028 C1029 1.363 . S
C1028 C1033 1.379 . S
C1028 N1035 1.356 . S
C1029 C1028 1.363 . S
C1029 C1032 1.363 . S
N1030 C1032 1.356 . S
N1030 H1042 0.984 . S
N1030 H1043 0.985 . S
N1031 C1033 1.356 . S
N1031 H1036 0.984 . S
N1031 H1037 0.985 1_554 S
C1032 C1026 1.379 . S
C1032 C1029 1.363 . S
C1032 N1030 1.356 . S
C1033 C1027 1.363 . S
C1033 C1028 1.379 . S
C1033 N1031 1.356 . S
N1034 C1026 1.356 . S
N1034 H1040 0.984 . S
N1034 H1041 0.984 . S
N1035 C1028 1.356 . S
N1035 H1038 0.984 . S
N1035 H1039 0.985 1_554 S
H1036 N1031 0.984 . S
H1037 N1031 0.985 1_556 S
H1038 N1035 0.984 . S
H1039 N1035 0.985 1_556 S
H1040 N1034 0.984 . S
H1041 N1034 0.984 . S
H1042 N1030 0.984 . S
H1043 N1030 0.985 . S
C1044 C1045 1.363 1_554 S
C1044 C1050 1.379 . S
C1044 N1052 1.356 . S
C1045 C1044 1.363 1_556 S
C1045 C1051 1.363 . S
C1046 C1047 1.363 . S
C1046 C1051 1.379 . S
C1046 N1053 1.356 . S
C1047 C1046 1.363 . S
C1047 C1050 1.363 1_556 S
N1048 C1050 1.356 . S
N1048 H1060 0.984 . S
N1048 H1061 0.985 . S
N1049 C1051 1.356 . S
N1049 H1054 0.984 . S
N1049 H1055 0.985 . S
C1050 C1044 1.379 . S
C1050 C1047 1.363 1_554 S
C1050 N1048 1.356 . S
C1051 C1045 1.363 . S
C1051 C1046 1.379 . S
C1051 N1049 1.356 . S
N1052 C1044 1.356 . S
N1052 H1058 0.984 . S
N1052 H1059 0.984 . S
N1053 C1046 1.356 . S
N1053 H1056 0.984 . S
N1053 H1057 0.985 . S
H1054 N1049 0.984 . S
H1055 N1049 0.985 . S
H1056 N1053 0.984 . S
H1057 N1053 0.985 . S
H1058 N1052 0.984 . S
H1059 N1052 0.984 . S
H1060 N1048 0.984 . S
H1061 N1048 0.985 . S
C1062 C1063 1.363 . S
C1062 C1068 1.379 . S
C1062 N1070 1.356 . S
C1063 C1062 1.363 . S
C1063 C1069 1.363 . S
C1064 C1065 1.363 . S
C1064 C1069 1.379 1_554 S
C1064 N1071 1.356 . S
C1065 C1064 1.363 . S
C1065 C1068 1.363 1_554 S
N1066 C1068 1.356 . S
N1066 H1078 0.984 . S
N1066 H1079 0.985 1_556 S
N1067 C1069 1.356 . S
N1067 H1072 0.984 . S
N1067 H1073 0.985 . S
C1068 C1062 1.379 . S
C1068 C1065 1.363 1_556 S
C1068 N1066 1.356 . S
C1069 C1063 1.363 . S
C1069 C1064 1.379 1_556 S
C1069 N1067 1.356 . S
N1070 C1062 1.356 . S
N1070 H1076 0.984 . S
N1070 H1077 0.984 . S
N1071 C1064 1.356 . S
N1071 H1074 0.984 . S
N1071 H1075 0.985 . S
H1072 N1067 0.984 . S
H1073 N1067 0.985 . S
H1074 N1071 0.984 . S
H1075 N1071 0.985 . S
H1076 N1070 0.984 . S
H1077 N1070 0.984 . S
H1078 N1066 0.984 . S
H1079 N1066 0.985 1_554 S
C1080 C1081 1.363 . S
C1080 C1086 1.379 . S
C1080 N1088 1.356 . S
C1081 C1080 1.363 . S
C1081 C1087 1.363 . S
C1082 C1083 1.363 1_554 S
C1082 C1087 1.379 1_554 S
C1082 N1089 1.356 . S
C1083 C1082 1.363 1_556 S
C1083 C1086 1.363 . S
N1084 C1086 1.356 . S
N1084 H1096 0.984 . S
N1084 H1097 0.985 . S
N1085 C1087 1.366 . S
N1085 H1090 0.996 . S
N1085 H1091 0.964 1_556 S
C1086 C1080 1.379 . S
C1086 C1083 1.363 . S
C1086 N1084 1.356 . S
C1087 C1081 1.363 . S
C1087 C1082 1.379 1_556 S
C1087 N1085 1.366 . S
N1088 C1080 1.356 . S
N1088 H1094 0.984 . S
N1088 H1095 0.984 . S
N1089 C1082 1.356 . S
N1089 H1092 0.984 . S
N1089 H1093 0.985 . S
H1090 N1085 0.996 . S
H1091 N1085 0.964 1_554 S
H1092 N1089 0.984 . S
H1093 N1089 0.985 . S
H1094 N1088 0.984 . S
H1095 N1088 0.984 . S
H1096 N1084 0.984 . S
H1097 N1084 0.985 . S
C1098 C1099 1.363 1_554 S
C1098 C1104 1.379 . S
C1098 N1106 1.356 . S
C1099 C1098 1.363 1_556 S
C1099 C1105 1.363 . S
C1100 C1101 1.363 . S
C1100 C1105 1.379 . S
C1100 N1107 1.356 . S
C1101 C1100 1.363 . S
C1101 C1104 1.363 1_556 S
N1102 C1104 1.356 . S
N1102 H1114 0.984 . S
N1102 H1115 0.985 . S
N1103 C1105 1.356 . S
N1103 H1108 0.984 . S
N1103 H1109 0.985 . S
C1104 C1098 1.379 . S
C1104 C1101 1.363 1_554 S
C1104 N1102 1.356 . S
C1105 C1099 1.363 . S
C1105 C1100 1.379 . S
C1105 N1103 1.356 . S
N1106 C1098 1.356 . S
N1106 H1112 0.984 . S
N1106 H1113 0.984 . S
N1107 C1100 1.356 . S
N1107 H1110 0.984 . S
N1107 H1111 0.985 . S
H1108 N1103 0.984 . S
H1109 N1103 0.985 . S
H1110 N1107 0.984 . S
H1111 N1107 0.985 . S
H1112 N1106 0.984 . S
H1113 N1106 0.984 . S
H1114 N1102 0.984 . S
H1115 N1102 0.985 . S
C1116 C1117 1.363 . S
C1116 C1122 1.379 . S
C1116 N1124 1.356 . S
C1117 C1116 1.363 . S
C1117 C1123 1.363 . S
C1118 C1119 1.355 1_554 S
C1118 C1123 1.375 1_554 S
C1118 N1125 1.367 . S
C1119 C1118 1.355 1_556 S
C1119 C1122 1.363 . S
N1120 C1122 1.356 . S
N1120 H1132 0.984 . S
N1120 H1133 0.985 . S
N1121 C1123 1.356 1_554 S
N1121 H1126 0.984 1_554 S
N1121 H1127 0.985 . S
C1122 C1116 1.379 . S
C1122 C1119 1.363 . S
C1122 N1120 1.356 . S
C1123 C1117 1.363 . S
C1123 C1118 1.375 1_556 S
C1123 N1121 1.356 1_556 S
N1124 C1116 1.356 . S
N1124 H1130 0.984 . S
N1124 H1131 0.984 . S
N1125 C1118 1.367 . S
N1125 H1128 0.984 . S
N1125 H1129 0.985 . S
H1126 N1121 0.984 1_556 S
H1127 N1121 0.985 . S
H1128 N1125 0.984 . S
H1129 N1125 0.985 . S
H1130 N1124 0.984 . S
H1131 N1124 0.984 . S
H1132 N1120 0.984 . S
H1133 N1120 0.985 . S
C1134 C1135 1.363 . S
C1134 C1140 1.379 . S
C1134 N1142 1.356 . S
C1135 C1134 1.363 . S
C1135 C1141 1.363 1_556 S
C1136 C1137 1.363 . S
C1136 C1141 1.379 . S
C1136 N1143 1.356 . S
C1137 C1136 1.363 . S
C1137 C1140 1.363 1_554 S
N1138 C1140 1.356 . S
N1138 H1150 0.984 . S
N1138 H1151 0.985 . S
N1139 C1141 1.356 . S
N1139 H1144 0.984 . S
N1139 H1145 0.985 . S
C1140 C1134 1.379 . S
C1140 C1137 1.363 1_556 S
C1140 N1138 1.356 . S
C1141 C1135 1.363 1_554 S
C1141 C1136 1.379 . S
C1141 N1139 1.356 . S
N1142 C1134 1.356 . S
N1142 H1148 0.984 . S
N1142 H1149 0.984 . S
N1143 C1136 1.356 . S
N1143 H1146 0.984 . S
N1143 H1147 0.985 . S
H1144 N1139 0.984 . S
H1145 N1139 0.985 . S
H1146 N1143 0.984 . S
H1147 N1143 0.985 . S
H1148 N1142 0.984 . S
H1149 N1142 0.984 . S
H1150 N1138 0.984 . S
H1151 N1138 0.985 . S
C1152 C1153 1.363 . S
C1152 C1158 1.379 . S
C1152 N1160 1.356 . S
C1153 C1152 1.363 . S
C1153 C1159 1.363 . S
C1154 C1155 1.363 . S
C1154 C1159 1.379 . S
C1154 N1161 1.356 . S
C1155 C1154 1.363 . S
C1155 C1158 1.363 . S
N1156 C1158 1.356 . S
N1156 H1168 0.984 1_554 S
N1156 H1169 0.985 1_554 S
N1157 C1159 1.356 . S
N1157 H1162 0.984 . S
N1157 H1163 0.985 . S
C1158 C1152 1.379 . S
C1158 C1155 1.363 . S
C1158 N1156 1.356 . S
C1159 C1153 1.363 . S
C1159 C1154 1.379 . S
C1159 N1157 1.356 . S
N1160 C1152 1.356 . S
N1160 H1166 0.984 . S
N1160 H1167 0.984 . S
N1161 C1154 1.356 . S
N1161 H1164 0.984 . S
N1161 H1165 0.985 . S
H1162 N1157 0.984 . S
H1163 N1157 0.985 . S
H1164 N1161 0.984 . S
H1165 N1161 0.985 . S
H1166 N1160 0.984 . S
H1167 N1160 0.984 . S
H1168 N1156 0.984 1_556 S
H1169 N1156 0.985 1_556 S
C1170 C1171 1.363 . S
C1170 C1176 1.379 . S
C1170 N1178 1.356 . S
C1171 C1170 1.363 . S
C1171 C1177 1.363 . S
C1172 C1173 1.363 . S
C1172 C1177 1.379 . S
C1172 N1179 1.356 . S
C1173 C1172 1.363 . S
C1173 C1176 1.363 . S
N1174 C1176 1.356 . S
N1174 H1186 0.984 . S
N1174 H1187 0.985 . S
N1175 C1177 1.356 . S
N1175 H1180 0.984 . S
N1175 H1181 0.985 . S
C1176 C1170 1.379 . S
C1176 C1173 1.363 . S
C1176 N1174 1.356 . S
C1177 C1171 1.363 . S
C1177 C1172 1.379 . S
C1177 N1175 1.356 . S
N1178 C1170 1.356 . S
N1178 H1184 0.984 . S
N1178 H1185 0.984 . S
N1179 C1172 1.356 . S
N1179 H1182 0.984 . S
N1179 H1183 0.985 1_554 S
H1180 N1175 0.984 . S
H1181 N1175 0.985 . S
H1182 N1179 0.984 . S
H1183 N1179 0.985 1_556 S
H1184 N1178 0.984 . S
H1185 N1178 0.984 . S
H1186 N1174 0.984 . S
H1187 N1174 0.985 . S
C1188 C1189 1.363 . S
C1188 C1194 1.379 . S
C1188 N1196 1.356 . S
C1189 C1188 1.363 . S
C1189 C1195 1.363 . S
C1190 C1191 1.363 . S
C1190 C1195 1.379 . S
C1190 N1197 1.356 1_554 S
C1191 C1190 1.363 . S
C1191 C1194 1.363 . S
N1192 C1194 1.356 . S
N1192 H1204 0.984 . S
N1192 H1205 0.985 . S
N1193 C1195 1.356 . S
N1193 H1198 0.984 . S
N1193 H1199 0.985 1_554 S
C1194 C1188 1.379 . S
C1194 C1191 1.363 . S
C1194 N1192 1.356 . S
C1195 C1189 1.363 . S
C1195 C1190 1.379 . S
C1195 N1193 1.356 . S
N1196 C1188 1.356 . S
N1196 H1202 0.984 . S
N1196 H1203 0.984 . S
N1197 C1190 1.356 1_556 S
N1197 H1200 0.991 . S
N1197 H1201 0.985 . S
H1198 N1193 0.984 . S
H1199 N1193 0.985 1_556 S
H1200 N1197 0.991 . S
H1201 N1197 0.985 . S
H1202 N1196 0.984 . S
H1203 N1196 0.984 . S
H1204 N1192 0.984 . S
H1205 N1192 0.985 . S
C1206 C1207 1.363 . S
C1206 C1212 1.379 1_655 S
C1206 N1214 1.356 . S
C1207 C1206 1.363 . S
C1207 C1213 1.363 . S
C1208 C1209 1.363 . S
C1208 C1213 1.379 1_455 S
C1208 N1215 1.356 . S
C1209 C1208 1.363 . S
C1209 C1212 1.363 . S
N1210 C1212 1.356 . S
N1210 H1222 0.984 . S
N1210 H1223 0.985 . S
N1211 C1213 1.356 . S
N1211 H1216 0.984 . S
N1211 H1217 0.985 . S
C1212 C1206 1.379 1_455 S
C1212 C1209 1.363 . S
C1212 N1210 1.356 . S
C1213 C1207 1.363 . S
C1213 C1208 1.379 1_655 S
C1213 N1211 1.356 . S
N1214 C1206 1.356 . S
N1214 H1220 0.984 . S
N1214 H1221 0.984 . S
N1215 C1208 1.356 . S
N1215 H1218 0.984 . S
N1215 H1219 0.985 . S
H1216 N1211 0.984 . S
H1217 N1211 0.985 . S
H1218 N1215 0.984 . S
H1219 N1215 0.985 . S
H1220 N1214 0.984 . S
H1221 N1214 0.984 . S
H1222 N1210 0.984 . S
H1223 N1210 0.985 . S
C1224 C1225 1.363 . S
C1224 C1230 1.379 . S
C1224 N1232 1.356 . S
C1225 C1224 1.363 . S
C1225 C1231 1.363 . S
C1226 C1227 1.363 . S
C1226 C1231 1.379 . S
C1226 N1233 1.356 . S
C1227 C1226 1.363 . S
C1227 C1230 1.363 . S
N1228 C1230 1.356 . S
N1228 H1240 0.984 . S
N1228 H1241 0.985 . S
N1229 C1231 1.356 . S
N1229 H1234 0.984 . S
N1229 H1235 0.985 . S
C1230 C1224 1.379 . S
C1230 C1227 1.363 . S
C1230 N1228 1.356 . S
C1231 C1225 1.363 . S
C1231 C1226 1.379 . S
C1231 N1229 1.356 . S
N1232 C1224 1.356 . S
N1232 H1238 0.984 . S
N1232 H1239 0.984 . S
N1233 C1226 1.356 . S
N1233 H1236 0.984 . S
N1233 H1237 0.985 . S
H1234 N1229 0.984 . S
H1235 N1229 0.985 . S
H1236 N1233 0.984 . S
H1237 N1233 0.985 . S
H1238 N1232 0.984 . S
H1239 N1232 0.984 . S
H1240 N1228 0.984 . S
H1241 N1228 0.985 . S
C1242 C1243 1.363 . S
C1242 C1248 1.379 1_545 S
C1242 N1250 1.356 . S
C1243 C1242 1.363 . S
C1243 C1249 1.363 1_545 S
C1244 C1245 1.363 . S
C1244 C1249 1.379 . S
C1244 N1251 1.356 . S
C1245 C1244 1.363 . S
C1245 C1248 1.363 . S
N1246 C1248 1.356 . S
N1246 H1258 0.984 . S
N1246 H1259 0.985 . S
N1247 C1249 1.356 1_545 S
N1247 H1252 0.984 . S
N1247 H1253 0.985 . S
C1248 C1242 1.379 1_565 S
C1248 C1245 1.363 . S
C1248 N1246 1.356 . S
C1249 C1243 1.363 1_565 S
C1249 C1244 1.379 . S
C1249 N1247 1.356 1_565 S
N1250 C1242 1.356 . S
N1250 H1256 0.984 . S
N1250 H1257 0.984 . S
N1251 C1244 1.356 . S
N1251 H1254 0.984 . S
N1251 H1255 0.985 . S
H1252 N1247 0.984 . S
H1253 N1247 0.985 . S
H1254 N1251 0.984 . S
H1255 N1251 0.985 . S
H1256 N1250 0.984 . S
H1257 N1250 0.984 . S
H1258 N1246 0.984 . S
H1259 N1246 0.985 . S
C1260 C1261 1.363 . S
C1260 C1266 1.379 . S
C1260 N1268 1.356 . S
C1261 C1260 1.363 . S
C1261 C1267 1.363 . S
C1262 C1263 1.363 . S
C1262 C1267 1.379 . S
C1262 N1269 1.356 . S
C1263 C1262 1.363 . S
C1263 C1266 1.363 . S
N1264 C1266 1.356 . S
N1264 H1276 0.984 . S
N1264 H1277 0.985 . S
N1265 C1267 1.356 . S
N1265 H1270 0.984 . S
N1265 H1271 0.985 . S
C1266 C1260 1.379 . S
C1266 C1263 1.363 . S
C1266 N1264 1.356 . S
C1267 C1261 1.363 . S
C1267 C1262 1.379 . S
C1267 N1265 1.356 . S
N1268 C1260 1.356 . S
N1268 H1274 0.984 . S
N1268 H1275 0.984 . S
N1269 C1262 1.356 . S
N1269 H1272 0.984 . S
N1269 H1273 0.985 . S
H1270 N1265 0.984 . S
H1271 N1265 0.985 . S
H1272 N1269 0.984 . S
H1273 N1269 0.985 . S
H1274 N1268 0.984 . S
H1275 N1268 0.984 . S
H1276 N1264 0.984 . S
H1277 N1264 0.985 . S
C1278 C1279 1.363 . S
C1278 C1284 1.379 . S
C1278 N1286 1.356 . S
C1279 C1278 1.363 . S
C1279 C1285 1.363 . S
C1280 C1281 1.363 . S
C1280 C1285 1.379 . S
C1280 N1287 1.356 . S
C1281 C1280 1.363 . S
C1281 C1284 1.363 . S
N1282 C1284 1.356 . S
N1282 H1294 0.984 . S
N1282 H1295 0.985 . S
N1283 C1285 1.356 . S
N1283 H1288 0.984 . S
N1283 H1289 0.985 . S
C1284 C1278 1.379 . S
C1284 C1281 1.363 . S
C1284 N1282 1.356 . S
C1285 C1279 1.363 . S
C1285 C1280 1.379 . S
C1285 N1283 1.356 . S
N1286 C1278 1.356 . S
N1286 H1292 0.984 . S
N1286 H1293 0.984 . S
N1287 C1280 1.356 . S
N1287 H1290 0.984 . S
N1287 H1291 0.985 . S
H1288 N1283 0.984 . S
H1289 N1283 0.985 . S
H1290 N1287 0.984 . S
H1291 N1287 0.985 . S
H1292 N1286 0.984 . S
H1293 N1286 0.984 . S
H1294 N1282 0.984 . S
H1295 N1282 0.985 . S
C1296 C1297 1.363 . S
C1296 C1302 1.379 . S
C1296 N1304 1.356 . S
C1297 C1296 1.363 . S
C1297 C1303 1.363 . S
C1298 C1299 1.363 . S
C1298 C1303 1.379 . S
C1298 N1305 1.356 . S
C1299 C1298 1.363 . S
C1299 C1302 1.363 . S
N1300 C1302 1.356 . S
N1300 H1312 0.984 . S
N1300 H1313 0.985 . S
N1301 C1303 1.356 . S
N1301 H1306 0.984 . S
N1301 H1307 0.985 . S
C1302 C1296 1.379 . S
C1302 C1299 1.363 . S
C1302 N1300 1.356 . S
C1303 C1297 1.363 . S
C1303 C1298 1.379 . S
C1303 N1301 1.356 . S
N1304 C1296 1.356 . S
N1304 H1310 0.984 . S
N1304 H1311 0.984 . S
N1305 C1298 1.356 . S
N1305 H1308 0.984 . S
N1305 H1309 0.985 . S
H1306 N1301 0.984 . S
H1307 N1301 0.985 . S
H1308 N1305 0.984 . S
H1309 N1305 0.985 . S
H1310 N1304 0.984 . S
H1311 N1304 0.984 . S
H1312 N1300 0.984 . S
H1313 N1300 0.985 . S
C1314 C1315 1.363 . S
C1314 C1320 1.379 . S
C1314 N1322 1.356 . S
C1315 C1314 1.363 . S
C1315 C1321 1.363 . S
C1316 C1317 1.363 . S
C1316 C1321 1.379 . S
C1316 N1323 1.356 . S
C1317 C1316 1.363 . S
C1317 C1320 1.363 . S
N1318 C1320 1.356 . S
N1318 H1330 0.984 . S
N1318 H1331 0.985 . S
N1319 C1321 1.356 . S
N1319 H1324 0.984 . S
N1319 H1325 0.985 . S
C1320 C1314 1.379 . S
C1320 C1317 1.363 . S
C1320 N1318 1.356 . S
C1321 C1315 1.363 . S
C1321 C1316 1.379 . S
C1321 N1319 1.356 . S
N1322 C1314 1.356 . S
N1322 H1328 0.984 . S
N1322 H1329 0.984 . S
N1323 C1316 1.356 . S
N1323 H1326 0.984 . S
N1323 H1327 0.985 . S
H1324 N1319 0.984 . S
H1325 N1319 0.985 . S
H1326 N1323 0.984 . S
H1327 N1323 0.985 . S
H1328 N1322 0.984 . S
H1329 N1322 0.984 . S
H1330 N1318 0.984 . S
H1331 N1318 0.985 . S
C1332 C1333 1.363 . S
C1332 C1338 1.379 . S
C1332 N1340 1.356 . S
C1333 C1332 1.363 . S
C1333 C1339 1.363 . S
C1334 C1335 1.363 . S
C1334 C1339 1.379 . S
C1334 N1341 1.356 . S
C1335 C1334 1.363 . S
C1335 C1338 1.363 . S
N1336 C1338 1.356 . S
N1336 H1348 0.984 . S
N1336 H1349 0.985 . S
N1337 C1339 1.356 . S
N1337 H1342 0.984 . S
N1337 H1343 0.985 . S
C1338 C1332 1.379 . S
C1338 C1335 1.363 . S
C1338 N1336 1.356 . S
C1339 C1333 1.363 . S
C1339 C1334 1.379 . S
C1339 N1337 1.356 . S
N1340 C1332 1.356 . S
N1340 H1346 0.984 . S
N1340 H1347 0.984 . S
N1341 C1334 1.356 . S
N1341 H1344 0.984 . S
N1341 H1345 0.985 . S
H1342 N1337 0.984 . S
H1343 N1337 0.985 . S
H1344 N1341 0.984 . S
H1345 N1341 0.985 . S
H1346 N1340 0.984 . S
H1347 N1340 0.984 . S
H1348 N1336 0.984 . S
H1349 N1336 0.985 . S
C1350 C1351 1.363 . S
C1350 C1356 1.379 . S
C1350 N1358 1.356 . S
C1351 C1350 1.363 . S
C1351 C1357 1.363 . S
C1352 C1353 1.363 . S
C1352 C1357 1.379 . S
C1352 N1359 1.356 . S
C1353 C1352 1.363 . S
C1353 C1356 1.363 . S
N1354 C1356 1.356 . S
N1354 H1366 0.984 . S
N1354 H1367 0.985 . S
N1355 C1357 1.356 . S
N1355 H1360 0.984 . S
N1355 H1361 0.985 . S
C1356 C1350 1.379 . S
C1356 C1353 1.363 . S
C1356 N1354 1.356 . S
C1357 C1351 1.363 . S
C1357 C1352 1.379 . S
C1357 N1355 1.356 . S
N1358 C1350 1.356 . S
N1358 H1364 0.984 . S
N1358 H1365 0.984 . S
N1359 C1352 1.356 . S
N1359 H1362 0.984 . S
N1359 H1363 0.985 . S
H1360 N1355 0.984 . S
H1361 N1355 0.985 . S
H1362 N1359 0.984 . S
H1363 N1359 0.985 . S
H1364 N1358 0.984 . S
H1365 N1358 0.984 . S
H1366 N1354 0.984 . S
H1367 N1354 0.985 . S
C1368 C1369 1.363 . S
C1368 C1374 1.379 1_545 S
C1368 N1376 1.356 . S
C1369 C1368 1.363 . S
C1369 C1375 1.363 . S
C1370 C1371 1.363 . S
C1370 C1375 1.379 1_565 S
C1370 N1377 1.356 . S
C1371 C1370 1.363 . S
C1371 C1374 1.363 . S
N1372 C1374 1.356 . S
N1372 H1384 0.984 . S
N1372 H1385 0.985 . S
N1373 C1375 1.356 . S
N1373 H1378 0.984 . S
N1373 H1379 0.985 . S
C1374 C1368 1.379 1_565 S
C1374 C1371 1.363 . S
C1374 N1372 1.356 . S
C1375 C1369 1.363 . S
C1375 C1370 1.379 1_545 S
C1375 N1373 1.356 . S
N1376 C1368 1.356 . S
N1376 H1382 0.984 . S
N1376 H1383 0.984 . S
N1377 C1370 1.356 . S
N1377 H1380 0.984 . S
N1377 H1381 0.985 . S
H1378 N1373 0.984 . S
H1379 N1373 0.985 . S
H1380 N1377 0.984 . S
H1381 N1377 0.985 . S
H1382 N1376 0.984 . S
H1383 N1376 0.984 . S
H1384 N1372 0.984 . S
H1385 N1372 0.985 . S
C1386 C1387 1.363 . S
C1386 C1392 1.379 1_655 S
C1386 N1394 1.356 . S
C1387 C1386 1.363 . S
C1387 C1393 1.363 1_655 S
C1388 C1389 1.363 . S
C1388 C1393 1.379 . S
C1388 N1395 1.356 . S
C1389 C1388 1.363 . S
C1389 C1392 1.363 . S
N1390 C1392 1.356 . S
N1390 H1402 0.984 1_455 S
N1390 H1403 0.985 . S
N1391 C1393 1.356 . S
N1391 H1396 0.984 1_455 S
N1391 H1397 0.985 . S
C1392 C1386 1.379 1_455 S
C1392 C1389 1.363 . S
C1392 N1390 1.356 . S
C1393 C1387 1.363 1_455 S
C1393 C1388 1.379 . S
C1393 N1391 1.356 . S
N1394 C1386 1.356 . S
N1394 H1400 0.984 . S
N1394 H1401 0.984 . S
N1395 C1388 1.356 . S
N1395 H1398 0.984 . S
N1395 H1399 0.985 . S
H1396 N1391 0.984 1_655 S
H1397 N1391 0.985 . S
H1398 N1395 0.984 . S
H1399 N1395 0.985 . S
H1400 N1394 0.984 . S
H1401 N1394 0.984 . S
H1402 N1390 0.984 1_655 S
H1403 N1390 0.985 . S
C1404 C1405 1.363 . S
C1404 C1410 1.379 . S
C1404 N1412 1.356 . S
C1405 C1404 1.363 . S
C1405 C1411 1.363 . S
C1406 C1407 1.363 . S
C1406 C1411 1.379 . S
C1406 N1413 1.356 . S
C1407 C1406 1.363 . S
C1407 C1410 1.363 . S
N1408 C1410 1.356 . S
N1408 H1420 0.984 . S
N1408 H1421 0.985 . S
N1409 C1411 1.356 . S
N1409 H1414 0.984 . S
N1409 H1415 0.985 . S
C1410 C1404 1.379 . S
C1410 C1407 1.363 . S
C1410 N1408 1.356 . S
C1411 C1405 1.363 . S
C1411 C1406 1.379 . S
C1411 N1409 1.356 . S
N1412 C1404 1.356 . S
N1412 H1418 0.984 . S
N1412 H1419 0.984 . S
N1413 C1406 1.356 . S
N1413 H1416 0.984 . S
N1413 H1417 0.985 . S
H1414 N1409 0.984 . S
H1415 N1409 0.985 . S
H1416 N1413 0.984 . S
H1417 N1413 0.985 . S
H1418 N1412 0.984 . S
H1419 N1412 0.984 . S
H1420 N1408 0.984 . S
H1421 N1408 0.985 . S
C1422 C1423 1.363 . S
C1422 C1428 1.379 . S
C1422 N1430 1.356 . S
C1423 C1422 1.363 . S
C1423 C1429 1.363 . S
C1424 C1425 1.363 . S
C1424 C1429 1.379 . S
C1424 N1431 1.356 . S
C1425 C1424 1.363 . S
C1425 C1428 1.363 . S
N1426 C1428 1.356 . S
N1426 H1438 0.984 . S
N1426 H1439 0.985 . S
N1427 C1429 1.356 . S
N1427 H1432 0.984 . S
N1427 H1433 0.985 . S
C1428 C1422 1.379 . S
C1428 C1425 1.363 . S
C1428 N1426 1.356 . S
C1429 C1423 1.363 . S
C1429 C1424 1.379 . S
C1429 N1427 1.356 . S
N1430 C1422 1.356 . S
N1430 H1436 0.984 . S
N1430 H1437 0.984 . S
N1431 C1424 1.356 . S
N1431 H1434 0.984 . S
N1431 H1435 0.985 . S
H1432 N1427 0.984 . S
H1433 N1427 0.985 . S
H1434 N1431 0.984 . S
H1435 N1431 0.985 . S
H1436 N1430 0.984 . S
H1437 N1430 0.984 . S
H1438 N1426 0.984 . S
H1439 N1426 0.985 . S
C1440 C1441 1.363 . S
C1440 C1446 1.379 . S
C1440 N1448 1.356 . S
C1441 C1440 1.363 . S
C1441 C1447 1.363 . S
C1442 C1443 1.363 . S
C1442 C1447 1.379 . S
C1442 N1449 1.356 . S
C1443 C1442 1.363 . S
C1443 C1446 1.363 . S
N1444 C1446 1.356 . S
N1444 H1456 0.984 . S
N1444 H1457 0.985 . S
N1445 C1447 1.356 . S
N1445 H1450 0.984 . S
N1445 H1451 0.985 . S
C1446 C1440 1.379 . S
C1446 C1443 1.363 . S
C1446 N1444 1.356 . S
C1447 C1441 1.363 . S
C1447 C1442 1.379 . S
C1447 N1445 1.356 . S
N1448 C1440 1.356 . S
N1448 H1454 0.984 . S
N1448 H1455 0.984 . S
N1449 C1442 1.356 . S
N1449 H1452 0.984 . S
N1449 H1453 0.985 . S
H1450 N1445 0.984 . S
H1451 N1445 0.985 . S
H1452 N1449 0.984 . S
H1453 N1449 0.985 . S
H1454 N1448 0.984 . S
H1455 N1448 0.984 . S
H1456 N1444 0.984 . S
H1457 N1444 0.985 . S
C1458 C1459 1.363 . S
C1458 C1464 1.379 . S
C1458 N1466 1.356 . S
C1459 C1458 1.363 . S
C1459 C1465 1.363 . S
C1460 C1461 1.363 . S
C1460 C1465 1.379 . S
C1460 N1467 1.356 . S
C1461 C1460 1.363 . S
C1461 C1464 1.363 . S
N1462 C1464 1.356 . S
N1462 H1474 0.984 . S
N1462 H1475 0.985 . S
N1463 C1465 1.356 . S
N1463 H1468 0.984 . S
N1463 H1469 0.985 . S
C1464 C1458 1.379 . S
C1464 C1461 1.363 . S
C1464 N1462 1.356 . S
C1465 C1459 1.363 . S
C1465 C1460 1.379 . S
C1465 N1463 1.356 . S
N1466 C1458 1.356 . S
N1466 H1472 0.984 . S
N1466 H1473 0.984 . S
N1467 C1460 1.356 . S
N1467 H1470 0.984 . S
N1467 H1471 0.985 . S
H1468 N1463 0.984 . S
H1469 N1463 0.985 . S
H1470 N1467 0.984 . S
H1471 N1467 0.985 . S
H1472 N1466 0.984 . S
H1473 N1466 0.984 . S
H1474 N1462 0.984 . S
H1475 N1462 0.985 . S
C1476 C1477 1.363 1_545 S
C1476 C1482 1.379 . S
C1476 N1484 1.356 1_545 S
C1477 C1476 1.363 1_565 S
C1477 C1483 1.363 . S
C1478 C1479 1.363 . S
C1478 C1483 1.379 1_545 S
C1478 N1485 1.356 . S
C1479 C1478 1.363 . S
C1479 C1482 1.363 . S
N1480 C1482 1.356 . S
N1480 H1492 0.984 . S
N1480 H1493 0.985 . S
N1481 C1483 1.356 . S
N1481 H1486 0.984 . S
N1481 H1487 0.985 . S
C1482 C1476 1.379 . S
C1482 C1479 1.363 . S
C1482 N1480 1.356 . S
C1483 C1477 1.363 . S
C1483 C1478 1.379 1_565 S
C1483 N1481 1.356 . S
N1484 C1476 1.356 1_565 S
N1484 H1490 0.984 . S
N1484 H1491 0.984 . S
N1485 C1478 1.356 . S
N1485 H1488 0.984 . S
N1485 H1489 0.985 . S
H1486 N1481 0.984 . S
H1487 N1481 0.985 . S
H1488 N1485 0.984 . S
H1489 N1485 0.985 . S
H1490 N1484 0.984 . S
H1491 N1484 0.984 . S
H1492 N1480 0.984 . S
H1493 N1480 0.985 . S
C1494 C1495 1.363 . S
C1494 C1500 1.379 . S
C1494 N1502 1.356 . S
C1495 C1494 1.363 . S
C1495 C1501 1.363 . S
C1496 C1497 1.363 . S
C1496 C1501 1.379 . S
C1496 N1503 1.356 . S
C1497 C1496 1.363 . S
C1497 C1500 1.363 . S
N1498 C1500 1.356 . S
N1498 H1510 0.984 . S
N1498 H1511 0.985 . S
N1499 C1501 1.356 1_455 S
N1499 H1504 0.984 . S
N1499 H1505 0.985 . S
C1500 C1494 1.379 . S
C1500 C1497 1.363 . S
C1500 N1498 1.356 . S
C1501 C1495 1.363 . S
C1501 C1496 1.379 . S
C1501 N1499 1.356 1_655 S
N1502 C1494 1.356 . S
N1502 H1508 0.984 . S
N1502 H1509 0.984 . S
N1503 C1496 1.356 . S
N1503 H1506 0.984 . S
N1503 H1507 0.985 . S
H1504 N1499 0.984 . S
H1505 N1499 0.985 . S
H1506 N1503 0.984 . S
H1507 N1503 0.985 . S
H1508 N1502 0.984 . S
H1509 N1502 0.984 . S
H1510 N1498 0.984 . S
H1511 N1498 0.985 . S
C1512 C1513 1.363 . S
C1512 C1518 1.379 . S
C1512 N1520 1.356 . S
C1513 C1512 1.363 . S
C1513 C1519 1.363 . S
C1514 C1515 1.363 . S
C1514 C1519 1.379 . S
C1514 N1521 1.356 . S
C1515 C1514 1.363 . S
C1515 C1518 1.363 . S
N1516 C1518 1.356 . S
N1516 H1528 0.984 . S
N1516 H1529 0.985 . S
N1517 C1519 1.356 . S
N1517 H1522 0.984 . S
N1517 H1523 0.985 . S
C1518 C1512 1.379 . S
C1518 C1515 1.363 . S
C1518 N1516 1.356 . S
C1519 C1513 1.363 . S
C1519 C1514 1.379 . S
C1519 N1517 1.356 . S
N1520 C1512 1.356 . S
N1520 H1526 0.984 . S
N1520 H1527 0.984 . S
N1521 C1514 1.356 . S
N1521 H1524 0.984 . S
N1521 H1525 0.985 . S
H1522 N1517 0.984 . S
H1523 N1517 0.985 . S
H1524 N1521 0.984 . S
H1525 N1521 0.985 . S
H1526 N1520 0.984 . S
H1527 N1520 0.984 . S
H1528 N1516 0.984 . S
H1529 N1516 0.985 . S
C1530 C1531 1.363 . S
C1530 C1536 1.379 . S
C1530 N1538 1.356 . S
C1531 C1530 1.363 . S
C1531 C1537 1.363 . S
C1532 C1533 1.363 . S
C1532 C1537 1.379 1_655 S
C1532 N1539 1.356 . S
C1533 C1532 1.363 . S
C1533 C1536 1.363 1_655 S
N1534 C1536 1.356 1_655 S
N1534 H1546 0.984 1_655 S
N1534 H1547 0.985 . S
N1535 C1537 1.356 . S
N1535 H1540 0.984 . S
N1535 H1541 0.985 . S
C1536 C1530 1.379 . S
C1536 C1533 1.363 1_455 S
C1536 N1534 1.356 1_455 S
C1537 C1531 1.363 . S
C1537 C1532 1.379 1_455 S
C1537 N1535 1.356 . S
N1538 C1530 1.356 . S
N1538 H1544 0.984 . S
N1538 H1545 0.984 . S
N1539 C1532 1.356 . S
N1539 H1542 0.984 . S
N1539 H1543 0.985 . S
H1540 N1535 0.984 . S
H1541 N1535 0.985 . S
H1542 N1539 0.984 . S
H1543 N1539 0.985 . S
H1544 N1538 0.984 . S
H1545 N1538 0.984 . S
H1546 N1534 0.984 1_455 S
H1547 N1534 0.985 . S
C1548 C1549 1.363 . S
C1548 C1554 1.379 . S
C1548 N1556 1.356 . S
C1549 C1548 1.363 . S
C1549 C1555 1.363 . S
C1550 C1551 1.363 . S
C1550 C1555 1.379 . S
C1550 N1557 1.356 . S
C1551 C1550 1.363 . S
C1551 C1554 1.363 . S
N1552 C1554 1.356 . S
N1552 H1564 0.984 . S
N1552 H1565 0.985 . S
N1553 C1555 1.356 . S
N1553 H1558 0.984 . S
N1553 H1559 0.985 . S
C1554 C1548 1.379 . S
C1554 C1551 1.363 . S
C1554 N1552 1.356 . S
C1555 C1549 1.363 . S
C1555 C1550 1.379 . S
C1555 N1553 1.356 . S
N1556 C1548 1.356 . S
N1556 H1562 0.984 . S
N1556 H1563 0.984 . S
N1557 C1550 1.356 . S
N1557 H1560 0.984 . S
N1557 H1561 0.985 . S
H1558 N1553 0.984 . S
H1559 N1553 0.985 . S
H1560 N1557 0.984 . S
H1561 N1557 0.985 . S
H1562 N1556 0.984 . S
H1563 N1556 0.984 . S
H1564 N1552 0.984 . S
H1565 N1552 0.985 . S
C1566 C1567 1.363 . S
C1566 C1572 1.379 1_565 S
C1566 N1574 1.356 . S
C1567 C1566 1.363 . S
C1567 C1573 1.363 . S
C1568 C1569 1.363 1_565 S
C1568 C1573 1.379 . S
C1568 N1575 1.356 1_565 S
C1569 C1568 1.363 1_545 S
C1569 C1572 1.363 . S
N1570 C1572 1.356 . S
N1570 H1582 0.984 . S
N1570 H1583 0.985 . S
N1571 C1573 1.356 . S
N1571 H1576 0.984 . S
N1571 H1577 0.985 . S
C1572 C1566 1.379 1_545 S
C1572 C1569 1.363 . S
C1572 N1570 1.356 . S
C1573 C1567 1.363 . S
C1573 C1568 1.379 . S
C1573 N1571 1.356 . S
N1574 C1566 1.356 . S
N1574 H1580 0.984 1_565 S
N1574 H1581 0.984 . S
N1575 C1568 1.356 1_545 S
N1575 H1578 0.984 . S
N1575 H1579 0.985 1_545 S
H1576 N1571 0.984 . S
H1577 N1571 0.985 . S
H1578 N1575 0.984 . S
H1579 N1575 0.985 1_565 S
H1580 N1574 0.984 1_545 S
H1581 N1574 0.984 . S
H1582 N1570 0.984 . S
H1583 N1570 0.985 . S
C1584 C1585 1.363 . S
C1584 C1590 1.379 . S
C1584 N1592 1.356 . S
C1585 C1584 1.363 . S
C1585 C1591 1.363 . S
C1586 C1587 1.363 . S
C1586 C1591 1.379 . S
C1586 N1593 1.356 . S
C1587 C1586 1.363 . S
C1587 C1590 1.363 . S
N1588 C1590 1.356 . S
N1588 H1600 0.984 . S
N1588 H1601 0.985 . S
N1589 C1591 1.356 . S
N1589 H1594 0.984 . S
N1589 H1595 0.985 . S
C1590 C1584 1.379 . S
C1590 C1587 1.363 . S
C1590 N1588 1.356 . S
C1591 C1585 1.363 . S
C1591 C1586 1.379 . S
C1591 N1589 1.356 . S
N1592 C1584 1.356 . S
N1592 H1598 0.984 . S
N1592 H1599 0.984 . S
N1593 C1586 1.356 . S
N1593 H1596 0.984 . S
N1593 H1597 0.985 . S
H1594 N1589 0.984 . S
H1595 N1589 0.985 . S
H1596 N1593 0.984 . S
H1597 N1593 0.985 . S
H1598 N1592 0.984 . S
H1599 N1592 0.984 . S
H1600 N1588 0.984 . S
H1601 N1588 0.985 . S
C1602 C1603 1.363 . S
C1602 C1608 1.379 . S
C1602 N1610 1.356 . S
C1603 C1602 1.363 . S
C1603 C1609 1.363 . S
C1604 C1605 1.363 . S
C1604 C1609 1.379 . S
C1604 N1611 1.356 . S
C1605 C1604 1.363 . S
C1605 C1608 1.363 . S
N1606 C1608 1.356 . S
N1606 H1618 0.984 . S
N1606 H1619 0.985 . S
N1607 C1609 1.356 . S
N1607 H1612 0.984 . S
N1607 H1613 0.985 . S
C1608 C1602 1.379 . S
C1608 C1605 1.363 . S
C1608 N1606 1.356 . S
C1609 C1603 1.363 . S
C1609 C1604 1.379 . S
C1609 N1607 1.356 . S
N1610 C1602 1.356 . S
N1610 H1616 0.984 . S
N1610 H1617 0.984 . S
N1611 C1604 1.356 . S
N1611 H1614 0.984 . S
N1611 H1615 0.985 . S
H1612 N1607 0.984 . S
H1613 N1607 0.985 . S
H1614 N1611 0.984 . S
H1615 N1611 0.985 . S
H1616 N1610 0.984 . S
H1617 N1610 0.984 . S
H1618 N1606 0.984 . S
H1619 N1606 0.985 . S
C1620 C1621 1.363 . S
C1620 C1626 1.379 . S
C1620 N1628 1.356 . S
C1621 C1620 1.363 . S
C1621 C1627 1.363 . S
C1622 C1623 1.363 . S
C1622 C1627 1.379 . S
C1622 N1629 1.356 . S
C1623 C1622 1.363 . S
C1623 C1626 1.363 . S
N1624 C1626 1.356 . S
N1624 H1636 0.984 . S
N1624 H1637 0.985 . S
N1625 C1627 1.356 . S
N1625 H1630 0.984 . S
N1625 H1631 0.985 . S
C1626 C1620 1.379 . S
C1626 C1623 1.363 . S
C1626 N1624 1.356 . S
C1627 C1621 1.363 . S
C1627 C1622 1.379 . S
C1627 N1625 1.356 . S
N1628 C1620 1.356 . S
N1628 H1634 0.984 . S
N1628 H1635 0.984 . S
N1629 C1622 1.356 . S
N1629 H1632 0.984 . S
N1629 H1633 0.985 . S
H1630 N1625 0.984 . S
H1631 N1625 0.985 . S
H1632 N1629 0.984 . S
H1633 N1629 0.985 . S
H1634 N1628 0.984 . S
H1635 N1628 0.984 . S
H1636 N1624 0.984 . S
H1637 N1624 0.985 . S
C1638 C1639 1.363 . S
C1638 C1644 1.379 . S
C1638 N1646 1.356 . S
C1639 C1638 1.363 . S
C1639 C1645 1.363 . S
C1640 C1641 1.363 . S
C1640 C1645 1.379 . S
C1640 N1647 1.356 . S
C1641 C1640 1.363 . S
C1641 C1644 1.363 . S
N1642 C1644 1.356 . S
N1642 H1654 0.984 . S
N1642 H1655 0.985 . S
N1643 C1645 1.356 . S
N1643 H1648 0.984 . S
N1643 H1649 0.985 . S
C1644 C1638 1.379 . S
C1644 C1641 1.363 . S
C1644 N1642 1.356 . S
C1645 C1639 1.363 . S
C1645 C1640 1.379 . S
C1645 N1643 1.356 . S
N1646 C1638 1.356 . S
N1646 H1652 0.984 . S
N1646 H1653 0.984 . S
N1647 C1640 1.356 . S
N1647 H1650 0.984 . S
N1647 H1651 0.985 . S
H1648 N1643 0.984 . S
H1649 N1643 0.985 . S
H1650 N1647 0.984 . S
H1651 N1647 0.985 . S
H1652 N1646 0.984 . S
H1653 N1646 0.984 . S
H1654 N1642 0.984 . S
H1655 N1642 0.985 . S
C1656 C1657 1.363 . S
C1656 C1662 1.379 . S
C1656 N1664 1.356 . S
C1657 C1656 1.363 . S
C1657 C1663 1.363 . S
C1658 C1659 1.363 . S
C1658 C1663 1.379 . S
C1658 N1665 1.356 . S
C1659 C1658 1.363 . S
C1659 C1662 1.363 . S
N1660 C1662 1.356 . S
N1660 H1672 0.984 . S
N1660 H1673 0.985 . S
N1661 C1663 1.356 . S
N1661 H1666 0.984 . S
N1661 H1667 0.985 . S
C1662 C1656 1.379 . S
C1662 C1659 1.363 . S
C1662 N1660 1.356 . S
C1663 C1657 1.363 . S
C1663 C1658 1.379 . S
C1663 N1661 1.356 . S
N1664 C1656 1.356 . S
N1664 H1670 0.984 . S
N1664 H1671 0.984 . S
N1665 C1658 1.356 . S
N1665 H1668 0.984 . S
N1665 H1669 0.985 . S
H1666 N1661 0.984 . S
H1667 N1661 0.985 . S
H1668 N1665 0.984 . S
H1669 N1665 0.985 . S
H1670 N1664 0.984 . S
H1671 N1664 0.984 . S
H1672 N1660 0.984 . S
H1673 N1660 0.985 . S
C1674 C1675 1.363 . S
C1674 C1680 1.379 . S
C1674 N1682 1.356 . S
C1675 C1674 1.363 . S
C1675 C1681 1.363 . S
C1676 C1677 1.363 . S
C1676 C1681 1.379 . S
C1676 N1683 1.356 . S
C1677 C1676 1.363 . S
C1677 C1680 1.363 . S
N1678 C1680 1.356 . S
N1678 H1690 0.984 . S
N1678 H1691 0.985 . S
N1679 C1681 1.356 . S
N1679 H1684 0.984 . S
N1679 H1685 0.985 . S
C1680 C1674 1.379 . S
C1680 C1677 1.363 . S
C1680 N1678 1.356 . S
C1681 C1675 1.363 . S
C1681 C1676 1.379 . S
C1681 N1679 1.356 . S
N1682 C1674 1.356 . S
N1682 H1688 0.984 . S
N1682 H1689 0.984 . S
N1683 C1676 1.356 . S
N1683 H1686 0.984 . S
N1683 H1687 0.985 . S
H1684 N1679 0.984 . S
H1685 N1679 0.985 . S
H1686 N1683 0.984 . S
H1687 N1683 0.985 . S
H1688 N1682 0.984 . S
H1689 N1682 0.984 . S
H1690 N1678 0.984 . S
H1691 N1678 0.985 . S
C1692 C1693 1.363 . S
C1692 C1698 1.379 . S
C1692 N1700 1.356 . S
C1693 C1692 1.363 . S
C1693 C1699 1.363 . S
C1694 C1695 1.363 . S
C1694 C1699 1.379 . S
C1694 N1701 1.356 . S
C1695 C1694 1.363 . S
C1695 C1698 1.363 . S
N1696 C1698 1.356 . S
N1696 H1708 0.984 . S
N1696 H1709 0.985 . S
N1697 C1699 1.356 . S
N1697 H1702 0.984 . S
N1697 H1703 0.985 . S
C1698 C1692 1.379 . S
C1698 C1695 1.363 . S
C1698 N1696 1.356 . S
C1699 C1693 1.363 . S
C1699 C1694 1.379 . S
C1699 N1697 1.356 . S
N1700 C1692 1.356 . S
N1700 H1706 0.984 . S
N1700 H1707 0.984 . S
N1701 C1694 1.356 . S
N1701 H1704 0.984 . S
N1701 H1705 0.985 1_655 S
H1702 N1697 0.984 . S
H1703 N1697 0.985 . S
H1704 N1701 0.984 . S
H1705 N1701 0.985 1_455 S
H1706 N1700 0.984 . S
H1707 N1700 0.984 . S
H1708 N1696 0.984 . S
H1709 N1696 0.985 . S
C1710 C1711 1.363 . S
C1710 C1716 1.379 . S
C1710 N1718 1.356 . S
C1711 C1710 1.363 . S
C1711 C1717 1.363 . S
C1712 C1713 1.363 . S
C1712 C1717 1.379 . S
C1712 N1719 1.356 . S
C1713 C1712 1.363 . S
C1713 C1716 1.363 . S
N1714 C1716 1.356 . S
N1714 H1726 0.984 . S
N1714 H1727 0.985 . S
N1715 C1717 1.356 . S
N1715 H1720 0.984 . S
N1715 H1721 0.985 . S
C1716 C1710 1.379 . S
C1716 C1713 1.363 . S
C1716 N1714 1.356 . S
C1717 C1711 1.363 . S
C1717 C1712 1.379 . S
C1717 N1715 1.356 . S
N1718 C1710 1.356 . S
N1718 H1724 0.984 . S
N1718 H1725 0.984 . S
N1719 C1712 1.356 . S
N1719 H1722 0.984 . S
N1719 H1723 0.985 . S
H1720 N1715 0.984 . S
H1721 N1715 0.985 . S
H1722 N1719 0.984 . S
H1723 N1719 0.985 . S
H1724 N1718 0.984 . S
H1725 N1718 0.984 . S
H1726 N1714 0.984 . S
H1727 N1714 0.985 . S
C1728 C1729 1.363 . S
C1728 C1734 1.379 . S
C1728 N1736 1.356 . S
C1729 C1728 1.363 . S
C1729 C1735 1.363 . S
C1730 C1731 1.363 . S
C1730 C1735 1.379 . S
C1730 N1737 1.356 . S
C1731 C1730 1.363 . S
C1731 C1734 1.363 . S
N1732 C1734 1.356 . S
N1732 H1744 0.984 . S
N1732 H1745 0.985 . S
N1733 C1735 1.356 . S
N1733 H1738 0.984 . S
N1733 H1739 0.985 . S
C1734 C1728 1.379 . S
C1734 C1731 1.363 . S
C1734 N1732 1.356 . S
C1735 C1729 1.363 . S
C1735 C1730 1.379 . S
C1735 N1733 1.356 . S
N1736 C1728 1.356 . S
N1736 H1742 0.984 . S
N1736 H1743 0.984 . S
N1737 C1730 1.356 . S
N1737 H1740 0.984 . S
N1737 H1741 0.985 . S
H1738 N1733 0.984 . S
H1739 N1733 0.985 . S
H1740 N1737 0.984 . S
H1741 N1737 0.985 . S
H1742 N1736 0.984 . S
H1743 N1736 0.984 . S
H1744 N1732 0.984 . S
H1745 N1732 0.985 . S
C1746 C1747 1.363 . S
C1746 C1752 1.379 . S
C1746 N1754 1.356 . S
C1747 C1746 1.363 . S
C1747 C1753 1.363 . S
C1748 C1749 1.363 . S
C1748 C1753 1.379 . S
C1748 N1755 1.356 . S
C1749 C1748 1.363 . S
C1749 C1752 1.363 . S
N1750 C1752 1.356 . S
N1750 H1762 0.984 . S
N1750 H1763 0.985 . S
N1751 C1753 1.356 . S
N1751 H1756 0.984 . S
N1751 H1757 0.985 . S
C1752 C1746 1.379 . S
C1752 C1749 1.363 . S
C1752 N1750 1.356 . S
C1753 C1747 1.363 . S
C1753 C1748 1.379 . S
C1753 N1751 1.356 . S
N1754 C1746 1.356 . S
N1754 H1760 0.984 . S
N1754 H1761 0.984 . S
N1755 C1748 1.356 . S
N1755 H1758 0.984 . S
N1755 H1759 0.985 . S
H1756 N1751 0.984 . S
H1757 N1751 0.985 . S
H1758 N1755 0.984 . S
H1759 N1755 0.985 . S
H1760 N1754 0.984 . S
H1761 N1754 0.984 . S
H1762 N1750 0.984 . S
H1763 N1750 0.985 . S
C1764 C1765 1.363 . S
C1764 C1770 1.379 . S
C1764 N1772 1.356 . S
C1765 C1764 1.363 . S
C1765 C1771 1.363 . S
C1766 C1767 1.363 . S
C1766 C1771 1.379 . S
C1766 N1773 1.356 . S
C1767 C1766 1.363 . S
C1767 C1770 1.363 . S
N1768 C1770 1.356 . S
N1768 H1780 0.984 . S
N1768 H1781 0.985 . S
N1769 C1771 1.356 . S
N1769 H1774 0.984 . S
N1769 H1775 0.985 . S
C1770 C1764 1.379 . S
C1770 C1767 1.363 . S
C1770 N1768 1.356 . S
C1771 C1765 1.363 . S
C1771 C1766 1.379 . S
C1771 N1769 1.356 . S
N1772 C1764 1.356 . S
N1772 H1778 0.984 . S
N1772 H1779 0.984 . S
N1773 C1766 1.356 . S
N1773 H1776 0.984 . S
N1773 H1777 0.985 . S
H1774 N1769 0.984 . S
H1775 N1769 0.985 . S
H1776 N1773 0.984 . S
H1777 N1773 0.985 . S
H1778 N1772 0.984 . S
H1779 N1772 0.984 . S
H1780 N1768 0.984 . S
H1781 N1768 0.985 . S
C1782 C1783 1.363 . S
C1782 C1788 1.379 . S
C1782 N1790 1.356 . S
C1783 C1782 1.363 . S
C1783 C1789 1.363 . S
C1784 C1785 1.363 . S
C1784 C1789 1.379 . S
C1784 N1791 1.356 . S
C1785 C1784 1.363 . S
C1785 C1788 1.363 . S
N1786 C1788 1.356 . S
N1786 H1798 0.984 . S
N1786 H1799 0.985 . S
N1787 C1789 1.356 . S
N1787 H1792 0.984 . S
N1787 H1793 0.985 . S
C1788 C1782 1.379 . S
C1788 C1785 1.363 . S
C1788 N1786 1.356 . S
C1789 C1783 1.363 . S
C1789 C1784 1.379 . S
C1789 N1787 1.356 . S
N1790 C1782 1.356 . S
N1790 H1796 0.984 . S
N1790 H1797 0.984 . S
N1791 C1784 1.356 . S
N1791 H1794 0.984 . S
N1791 H1795 0.985 . S
H1792 N1787 0.984 . S
H1793 N1787 0.985 . S
H1794 N1791 0.984 . S
H1795 N1791 0.985 . S
H1796 N1790 0.984 . S
H1797 N1790 0.984 . S
H1798 N1786 0.984 . S
H1799 N1786 0.985 . S
C1800 C1801 1.363 . S
C1800 C1806 1.379 . S
C1800 N1808 1.356 . S
C1801 C1800 1.363 . S
C1801 C1807 1.363 . S
C1802 C1803 1.363 . S
C1802 C1807 1.379 . S
C1802 N1809 1.356 . S
C1803 C1802 1.363 . S
C1803 C1806 1.363 . S
N1804 C1806 1.356 . S
N1804 H1816 0.984 . S
N1804 H1817 0.985 . S
N1805 C1807 1.356 . S
N1805 H1810 0.984 . S
N1805 H1811 0.985 . S
C1806 C1800 1.379 . S
C1806 C1803 1.363 . S
C1806 N1804 1.356 . S
C1807 C1801 1.363 . S
C1807 C1802 1.379 . S
C1807 N1805 1.356 . S
N1808 C1800 1.356 . S
N1808 H1814 0.984 . S
N1808 H1815 0.984 . S
N1809 C1802 1.356 . S
N1809 H1812 0.984 . S
N1809 H1813 0.985 . S
H1810 N1805 0.984 . S
H1811 N1805 0.985 . S
H1812 N1809 0.984 . S
H1813 N1809 0.985 . S
H1814 N1808 0.984 . S
H1815 N1808 0.984 . S
H1816 N1804 0.984 . S
H1817 N1804 0.985 . S
C1818 C1819 1.363 . S
C1818 C1824 1.379 . S
C1818 N1826 1.356 . S
C1819 C1818 1.363 . S
C1819 C1825 1.363 . S
C1820 C1821 1.363 . S
C1820 C1825 1.379 . S
C1820 N1827 1.356 . S
C1821 C1820 1.363 . S
C1821 C1824 1.363 . S
N1822 C1824 1.356 . S
N1822 H1834 0.984 . S
N1822 H1835 0.985 . S
N1823 C1825 1.356 . S
N1823 H1828 0.984 . S
N1823 H1829 0.985 . S
C1824 C1818 1.379 . S
C1824 C1821 1.363 . S
C1824 N1822 1.356 . S
C1825 C1819 1.363 . S
C1825 C1820 1.379 . S
C1825 N1823 1.356 . S
N1826 C1818 1.356 . S
N1826 H1832 0.984 . S
N1826 H1833 0.984 . S
N1827 C1820 1.356 . S
N1827 H1830 0.984 . S
N1827 H1831 0.985 . S
H1828 N1823 0.984 . S
H1829 N1823 0.985 . S
H1830 N1827 0.984 . S
H1831 N1827 0.985 . S
H1832 N1826 0.984 . S
H1833 N1826 0.984 . S
H1834 N1822 0.984 . S
H1835 N1822 0.985 . S
C1836 C1837 1.363 . S
C1836 C1842 1.379 . S
C1836 N1844 1.356 . S
C1837 C1836 1.363 . S
C1837 C1843 1.363 . S
C1838 C1839 1.363 . S
C1838 C1843 1.379 . S
C1838 N1845 1.356 . S
C1839 C1838 1.363 . S
C1839 C1842 1.363 . S
N1840 C1842 1.356 . S
N1840 H1852 0.984 . S
N1840 H1853 0.985 . S
N1841 C1843 1.356 . S
N1841 H1846 0.984 . S
N1841 H1847 0.985 . S
C1842 C1836 1.379 . S
C1842 C1839 1.363 . S
C1842 N1840 1.356 . S
C1843 C1837 1.363 . S
C1843 C1838 1.379 . S
C1843 N1841 1.356 . S
N1844 C1836 1.356 . S
N1844 H1850 0.984 . S
N1844 H1851 0.984 . S
N1845 C1838 1.356 . S
N1845 H1848 0.984 . S
N1845 H1849 0.985 . S
H1846 N1841 0.984 . S
H1847 N1841 0.985 . S
H1848 N1845 0.984 . S
H1849 N1845 0.985 . S
H1850 N1844 0.984 . S
H1851 N1844 0.984 . S
H1852 N1840 0.984 . S
H1853 N1840 0.985 . S
C1854 C1855 1.363 . S
C1854 C1860 1.379 . S
C1854 N1862 1.356 . S
C1855 C1854 1.363 . S
C1855 C1861 1.363 . S
C1856 C1857 1.363 . S
C1856 C1861 1.379 . S
C1856 N1863 1.356 . S
C1857 C1856 1.363 . S
C1857 C1860 1.363 . S
N1858 C1860 1.356 . S
N1858 H1870 0.984 . S
N1858 H1871 0.985 . S
N1859 C1861 1.356 . S
N1859 H1864 0.984 . S
N1859 H1865 0.985 . S
C1860 C1854 1.379 . S
C1860 C1857 1.363 . S
C1860 N1858 1.356 . S
C1861 C1855 1.363 . S
C1861 C1856 1.379 . S
C1861 N1859 1.356 . S
N1862 C1854 1.356 . S
N1862 H1868 0.984 . S
N1862 H1869 0.984 . S
N1863 C1856 1.356 . S
N1863 H1866 0.984 . S
N1863 H1867 0.985 . S
H1864 N1859 0.984 . S
H1865 N1859 0.985 . S
H1866 N1863 0.984 . S
H1867 N1863 0.985 . S
H1868 N1862 0.984 . S
H1869 N1862 0.984 . S
H1870 N1858 0.984 . S
H1871 N1858 0.985 . S
C1872 C1873 1.363 . S
C1872 C1878 1.379 . S
C1872 N1880 1.356 . S
C1873 C1872 1.363 . S
C1873 C1879 1.363 . S
C1874 C1875 1.363 . S
C1874 C1879 1.379 . S
C1874 N1881 1.356 . S
C1875 C1874 1.363 . S
C1875 C1878 1.363 . S
N1876 C1878 1.356 . S
N1876 H1888 0.984 . S
N1876 H1889 0.985 . S
N1877 C1879 1.356 . S
N1877 H1882 0.984 . S
N1877 H1883 0.985 . S
C1878 C1872 1.379 . S
C1878 C1875 1.363 . S
C1878 N1876 1.356 . S
C1879 C1873 1.363 . S
C1879 C1874 1.379 . S
C1879 N1877 1.356 . S
N1880 C1872 1.356 . S
N1880 H1886 0.984 . S
N1880 H1887 0.984 . S
N1881 C1874 1.356 . S
N1881 H1884 0.984 . S
N1881 H1885 0.985 . S
H1882 N1877 0.984 . S
H1883 N1877 0.985 . S
H1884 N1881 0.984 . S
H1885 N1881 0.985 . S
H1886 N1880 0.984 . S
H1887 N1880 0.984 . S
H1888 N1876 0.984 . S
H1889 N1876 0.985 . S
C1890 C1891 1.363 . S
C1890 C1896 1.379 . S
C1890 N1898 1.356 . S
C1891 C1890 1.363 . S
C1891 C1897 1.363 . S
C1892 C1893 1.363 . S
C1892 C1897 1.379 . S
C1892 N1899 1.356 . S
C1893 C1892 1.363 . S
C1893 C1896 1.363 . S
N1894 C1896 1.356 . S
N1894 H1906 0.984 . S
N1894 H1907 0.985 . S
N1895 C1897 1.356 . S
N1895 H1900 0.984 . S
N1895 H1901 0.985 . S
C1896 C1890 1.379 . S
C1896 C1893 1.363 . S
C1896 N1894 1.356 . S
C1897 C1891 1.363 . S
C1897 C1892 1.379 . S
C1897 N1895 1.356 . S
N1898 C1890 1.356 . S
N1898 H1904 0.984 . S
N1898 H1905 0.984 . S
N1899 C1892 1.356 . S
N1899 H1902 0.984 . S
N1899 H1903 0.985 . S
H1900 N1895 0.984 . S
H1901 N1895 0.985 . S
H1902 N1899 0.984 . S
H1903 N1899 0.985 . S
H1904 N1898 0.984 . S
H1905 N1898 0.984 . S
H1906 N1894 0.984 . S
H1907 N1894 0.985 . S
C1908 C1909 1.363 . S
C1908 C1914 1.379 . S
C1908 N1916 1.356 . S
C1909 C1908 1.363 . S
C1909 C1915 1.363 . S
C1910 C1911 1.363 . S
C1910 C1915 1.379 . S
C1910 N1917 1.356 . S
C1911 C1910 1.363 . S
C1911 C1914 1.363 . S
N1912 C1914 1.356 . S
N1912 H1924 0.984 . S
N1912 H1925 0.985 . S
N1913 C1915 1.356 . S
N1913 H1918 0.984 . S
N1913 H1919 0.985 . S
C1914 C1908 1.379 . S
C1914 C1911 1.363 . S
C1914 N1912 1.356 . S
C1915 C1909 1.363 . S
C1915 C1910 1.379 . S
C1915 N1913 1.356 . S
N1916 C1908 1.356 . S
N1916 H1922 0.984 . S
N1916 H1923 0.984 . S
N1917 C1910 1.356 . S
N1917 H1920 0.984 . S
N1917 H1921 0.985 . S
H1918 N1913 0.984 . S
H1919 N1913 0.985 . S
H1920 N1917 0.984 . S
H1921 N1917 0.985 . S
H1922 N1916 0.984 . S
H1923 N1916 0.984 . S
H1924 N1912 0.984 . S
H1925 N1912 0.985 . S
C1926 C1927 1.363 . S
C1926 C1932 1.379 . S
C1926 N1934 1.356 . S
C1927 C1926 1.363 . S
C1927 C1933 1.363 . S
C1928 C1929 1.363 . S
C1928 C1933 1.379 . S
C1928 N1935 1.356 . S
C1929 C1928 1.363 . S
C1929 C1932 1.363 . S
N1930 C1932 1.356 . S
N1930 H1942 0.984 . S
N1930 H1943 0.985 . S
N1931 C1933 1.356 . S
N1931 H1936 0.984 . S
N1931 H1937 0.985 . S
C1932 C1926 1.379 . S
C1932 C1929 1.363 . S
C1932 N1930 1.356 . S
C1933 C1927 1.363 . S
C1933 C1928 1.379 . S
C1933 N1931 1.356 . S
N1934 C1926 1.356 . S
N1934 H1940 0.984 . S
N1934 H1941 0.984 . S
N1935 C1928 1.356 . S
N1935 H1938 0.984 . S
N1935 H1939 0.985 . S
H1936 N1931 0.984 . S
H1937 N1931 0.985 . S
H1938 N1935 0.984 . S
H1939 N1935 0.985 . S
H1940 N1934 0.984 . S
H1941 N1934 0.984 . S
H1942 N1930 0.984 . S
H1943 N1930 0.985 . S
C1944 C1945 1.363 . S
C1944 C1950 1.379 . S
C1944 N1952 1.356 . S
C1945 C1944 1.363 . S
C1945 C1951 1.363 . S
C1946 C1947 1.363 . S
C1946 C1951 1.379 . S
C1946 N1953 1.356 . S
C1947 C1946 1.363 . S
C1947 C1950 1.363 . S
N1948 C1950 1.356 . S
N1948 H1960 0.984 . S
N1948 H1961 0.985 . S
N1949 C1951 1.356 . S
N1949 H1954 0.984 . S
N1949 H1955 0.985 1_655 S
C1950 C1944 1.379 . S
C1950 C1947 1.363 . S
C1950 N1948 1.356 . S
C1951 C1945 1.363 . S
C1951 C1946 1.379 . S
C1951 N1949 1.356 . S
N1952 C1944 1.356 . S
N1952 H1958 0.984 . S
N1952 H1959 0.984 . S
N1953 C1946 1.356 . S
N1953 H1956 0.984 . S
N1953 H1957 0.985 1_655 S
H1954 N1949 0.984 . S
H1955 N1949 0.985 1_455 S
H1956 N1953 0.984 . S
H1957 N1953 0.985 1_455 S
H1958 N1952 0.984 . S
H1959 N1952 0.984 . S
H1960 N1948 0.984 . S
H1961 N1948 0.985 . S
C991 N170 1.894 . S
C993 C301 1.826 . S
C1009 N184 1.096 . S
C1011 C385 1.078 . S
C1027 N158 1.557 . S
C1029 C465 1.529 . S
C1045 N145 1.538 . S
C1047 C381 1.511 . S
C1065 C469 1.034 . S
C1063 N119 1.056 . S
C1081 N131 1.854 . S
C1083 C297 1.812 1_556 S
C1101 C290 1.571 . S
C1099 N144 1.631 . S
C1119 C374 1.419 . S
C1117 N118 1.422 . S
C1135 N132 1.461 . S
C1137 C476 1.457 . S
C1153 N171 1.451 . S
C1155 C392 1.445 . S
C1171 N183 1.383 . S
C1173 C458 1.378 . S
C1191 C308 1.555 . S
C1189 N157 1.592 . S
C1209 C553 1.826 . S
C1207 N14 1.894 . S
C1225 N28 1.096 . S
C1227 C637 1.078 . S
C1243 N2 1.557 . S
C1245 C717 1.529 . S
C1261 N223 1.538 . S
C1263 C633 1.510 . S
C1279 N197 1.056 . S
C1281 C721 1.034 . S
C1297 N209 1.854 . S
C1299 C549 1.812 . S
C1315 N222 1.630 . S
C1317 C542 1.571 . S
C1333 N196 1.422 . S
C1335 C626 1.419 . S
C1353 C728 1.457 . S
C1351 N210 1.461 . S
C1369 N15 1.451 . S
C1371 C644 1.446 . S
C1389 C710 1.378 . S
C1387 N27 1.383 . S
C1405 N1 1.592 . S
C1407 C560 1.555 . S
C1425 C805 1.826 . S
C1423 N92 1.893 . S
C1441 N106 1.096 . S
C1443 C889 1.078 . S
C1461 C969 1.529 . S
C1459 N80 1.557 . S
C1479 C885 1.510 . S
C1477 N67 1.538 . S
C1497 C973 1.034 . S
C1495 N41 1.056 1_655 S
C1513 N53 1.854 . S
C1515 C801 1.812 . S
C1531 N66 1.630 . S
C1533 C794 1.571 . S
C1549 N40 1.422 . S
C1551 C878 1.419 . S
C1569 C980 1.457 . S
C1567 N54 1.461 . S
C1585 N93 1.451 . S
C1587 C896 1.446 . S
C1603 N105 1.383 . S
C1605 C962 1.378 . S
C1621 N79 1.592 . S
C1623 C812 1.555 . S
C1639 N200 1.329 . S
C1641 C304 1.216 . S
C1659 C388 1.512 . S
C1657 N213 1.699 . S
C1675 N226 1.525 . S
C1677 C460 1.405 . S
C1693 N83 1.553 . S
C1695 C376 1.421 . S
C1711 N96 1.682 . S
C1713 C472 1.505 . S
C1731 C292 1.258 . S
C1729 N109 1.356 . S
C1747 N44 1.329 . S
C1749 C556 1.216 . S
C1765 N57 1.699 . S
C1767 C640 1.512 . S
C1783 N70 1.525 . S
C1785 C712 1.405 . S
C1801 N161 1.553 . S
C1803 C628 1.421 . S
C1821 C724 1.505 . S
C1819 N174 1.682 . S
C1837 N187 1.356 . S
C1839 C544 1.258 . S
C1855 N122 1.329 . S
C1857 C808 1.216 . S
C1873 N135 1.699 . S
C1875 C892 1.512 . S
C1893 C964 1.405 . S
C1891 N148 1.525 . S
C1909 N5 1.553 . S
C1911 C880 1.421 . S
C1927 N18 1.682 . S
C1929 C976 1.505 . S
C1945 N31 1.356 . S
C1947 C796 1.258 . S
