# Generated by pormake.
# Topology pto, (3,4)-cn, num edge types: 1
# Building blocks:
#     Node 0, Type 0, BuildingBlock: PAMTOO_clean_linker_0, # of connection points: 3
#     Node 1, Type 0, BuildingBlock: PAMTOO_clean_linker_0, # of connection points: 3
#     Node 2, Type 0, BuildingBlock: PAMTOO_clean_linker_0, # of connection points: 3
#     Node 3, Type 0, BuildingBlock: PAMTOO_clean_linker_0, # of connection points: 3
#     Node 4, Type 0, BuildingBlock: PAMTOO_clean_linker_0, # of connection points: 3
#     Node 5, Type 0, BuildingBlock: PAMTOO_clean_linker_0, # of connection points: 3
#     Node 6, Type 0, BuildingBlock: PAMTOO_clean_linker_0, # of connection points: 3
#     Node 7, Type 0, BuildingBlock: PAMTOO_clean_linker_0, # of connection points: 3
#     Node 8, Type 1, BuildingBlock: KOZSID_clean_sbu_0, # of connection points: 4
#     Node 9, Type 1, BuildingBlock: KOZSID_clean_sbu_0, # of connection points: 4
#     Node 10, Type 1, BuildingBlock: KOZSID_clean_sbu_0, # of connection points: 4
#     Node 11, Type 1, BuildingBlock: KOZSID_clean_sbu_0, # of connection points: 4
#     Node 12, Type 1, BuildingBlock: KOZSID_clean_sbu_0, # of connection points: 4
#     Node 13, Type 1, BuildingBlock: KOZSID_clean_sbu_0, # of connection points: 4
#     Edge 14, Type (0, 1), BuildingBlock: EZIPEK_clean_linker_0, # of connection points: 2
#     Edge 15, Type (0, 1), BuildingBlock: EZIPEK_clean_linker_0, # of connection points: 2
#     Edge 16, Type (0, 1), BuildingBlock: EZIPEK_clean_linker_0, # of connection points: 2
#     Edge 17, Type (0, 1), BuildingBlock: EZIPEK_clean_linker_0, # of connection points: 2
#     Edge 18, Type (0, 1), BuildingBlock: EZIPEK_clean_linker_0, # of connection points: 2
#     Edge 19, Type (0, 1), BuildingBlock: EZIPEK_clean_linker_0, # of connection points: 2
#     Edge 20, Type (0, 1), BuildingBlock: EZIPEK_clean_linker_0, # of connection points: 2
#     Edge 21, Type (0, 1), BuildingBlock: EZIPEK_clean_linker_0, # of connection points: 2
#     Edge 22, Type (0, 1), BuildingBlock: EZIPEK_clean_linker_0, # of connection points: 2
#     Edge 23, Type (0, 1), BuildingBlock: EZIPEK_clean_linker_0, # of connection points: 2
#     Edge 24, Type (0, 1), BuildingBlock: EZIPEK_clean_linker_0, # of connection points: 2
#     Edge 25, Type (0, 1), BuildingBlock: EZIPEK_clean_linker_0, # of connection points: 2
#     Edge 26, Type (0, 1), BuildingBlock: EZIPEK_clean_linker_0, # of connection points: 2
#     Edge 27, Type (0, 1), BuildingBlock: EZIPEK_clean_linker_0, # of connection points: 2
#     Edge 28, Type (0, 1), BuildingBlock: EZIPEK_clean_linker_0, # of connection points: 2
#     Edge 29, Type (0, 1), BuildingBlock: EZIPEK_clean_linker_0, # of connection points: 2
#     Edge 30, Type (0, 1), BuildingBlock: EZIPEK_clean_linker_0, # of connection points: 2
#     Edge 31, Type (0, 1), BuildingBlock: EZIPEK_clean_linker_0, # of connection points: 2
#     Edge 32, Type (0, 1), BuildingBlock: EZIPEK_clean_linker_0, # of connection points: 2
#     Edge 33, Type (0, 1), BuildingBlock: EZIPEK_clean_linker_0, # of connection points: 2
#     Edge 34, Type (0, 1), BuildingBlock: EZIPEK_clean_linker_0, # of connection points: 2
#     Edge 35, Type (0, 1), BuildingBlock: EZIPEK_clean_linker_0, # of connection points: 2
#     Edge 36, Type (0, 1), BuildingBlock: EZIPEK_clean_linker_0, # of connection points: 2
#     Edge 37, Type (0, 1), BuildingBlock: EZIPEK_clean_linker_0, # of connection points: 2
# Relax obj value: 0.027
# Max RMSD: 0.179
# Mean RMSD: 0.071
data_MOF--net-pto--node1-KOZSID_clean_sbu_0--node2-PAMTOO_clean_linker_0--edge1-EZIPEK_clean_linker_0
_symmetry_space_group_name_H-M    P1
_symmetry_Int_Tables_number       1
_symmetry_cell_setting            triclinic
loop_
_symmetry_equiv_pos_as_xyz
'x, y, z'
_cell_length_a     29.490647
_cell_length_b     37.208892
_cell_length_c     34.067265
_cell_angle_alpha  81.061954
_cell_angle_beta   79.444285
_cell_angle_gamma 104.02525
loop_
_atom_site_label
_atom_site_type_symbol
_atom_site_fract_x
_atom_site_fract_y
_atom_site_fract_z
_atom_type_partial_charge
H0 H 0.17685 0.28297 0.41045 0.0
H1 H 0.2738 0.24807 0.3237 0.0
H2 H 0.23995 0.35272 0.28986 0.0
H3 H 0.24053 0.29203 0.22844 0.0
C4 C 0.27361 0.28647 0.23545 0.0
O5 O 0.28749 0.3065 0.26429 0.0
H6 H 0.26304 0.25552 0.24852 0.0
C7 C 0.20035 0.28817 0.38047 0.0
C8 C 0.20644 0.32161 0.35177 0.0
C9 C 0.22487 0.26158 0.37044 0.0
C10 C 0.25506 0.26856 0.33152 0.0
C11 C 0.2595 0.3008 0.30217 0.0
C12 C 0.23562 0.32743 0.31244 0.0
H13 H 0.20193 0.80135 0.69955 0.0
H14 H 0.25071 0.74975 0.79989 0.0
H15 H 0.28959 0.87086 0.76302 0.0
H16 H 0.36674 0.84132 0.78683 0.0
C17 C 0.3445 0.81522 0.80932 0.0
O18 O 0.29653 0.81382 0.81503 0.0
H19 H 0.3518 0.79158 0.79517 0.0
C20 C 0.22188 0.804 0.72321 0.0
C21 C 0.24522 0.84017 0.72825 0.0
C22 C 0.22422 0.77123 0.74865 0.0
C23 C 0.24929 0.77482 0.77974 0.0
C24 C 0.27293 0.81066 0.78474 0.0
C25 C 0.27125 0.84321 0.75886 0.0
H26 H 0.70929 0.8328 0.29391 0.0
H27 H 0.74117 0.73128 0.26591 0.0
H28 H 0.78924 0.77668 0.36428 0.0
H29 H 0.85894 0.75062 0.30877 0.0
C30 C 0.83384 0.72403 0.3059 0.0
O31 O 0.78717 0.72197 0.32405 0.0
H32 H 0.83818 0.72645 0.27242 0.0
C33 C 0.72571 0.81004 0.29994 0.0
C34 C 0.74971 0.80813 0.33196 0.0
C35 C 0.72267 0.78248 0.27582 0.0
C36 C 0.74361 0.75283 0.28409 0.0
C37 C 0.76775 0.75089 0.31581 0.0
C38 C 0.7708 0.7785 0.3396 0.0
H39 H 0.7693 0.3374 0.79385 0.0
H40 H 0.69664 0.23096 0.7694 0.0
H41 H 0.82956 0.29954 0.6883 0.0
H42 H 0.76395 0.26584 0.64618 0.0
C43 C 0.74322 0.23894 0.66809 0.0
O44 O 0.76108 0.2359 0.70277 0.0
H45 H 0.70613 0.24177 0.67539 0.0
C46 C 0.76728 0.31658 0.77473 0.0
C47 C 0.80381 0.32251 0.73972 0.0
C48 C 0.7285 0.28375 0.78557 0.0
C49 C 0.72621 0.25662 0.76103 0.0
C50 C 0.76271 0.26233 0.72599 0.0
C51 C 0.80141 0.29526 0.71537 0.0
H52 H 0.72545 0.84158 0.78581 0.0
H53 H 0.78857 0.7556 0.8314 0.0
H54 H 0.82688 0.80613 0.70331 0.0
H55 H 0.79432 0.7143 0.73896 0.0
C56 C 0.8193 0.7171 0.75973 0.0
O57 O 0.83887 0.75482 0.75971 0.0
H58 H 0.79611 0.70232 0.79038 0.0
C59 C 0.7499 0.82435 0.78048 0.0
C60 C 0.77636 0.82768 0.7407 0.0
C61 C 0.75443 0.79863 0.81336 0.0
C62 C 0.78555 0.776 0.8063 0.0
C63 C 0.81098 0.77823 0.76655 0.0
C64 C 0.80673 0.80427 0.7339 0.0
H65 H 0.81266 0.26577 0.3942 0.0
H66 H 0.72979 0.2115 0.31691 0.0
H67 H 0.78929 0.33213 0.28833 0.0
H68 H 0.69251 0.30437 0.27359 0.0
C69 C 0.69697 0.27852 0.26261 0.0
O70 O 0.7416 0.27403 0.26431 0.0
H71 H 0.66838 0.25471 0.28395 0.0
C72 C 0.79631 0.2675 0.36819 0.0
C73 C 0.80261 0.30305 0.3432 0.0
C74 C 0.77006 0.23415 0.35893 0.0
C75 C 0.74975 0.23688 0.32471 0.0
C76 C 0.75722 0.27207 0.29918 0.0
C77 C 0.78329 0.30504 0.30853 0.0
H78 H 0.20443 0.29806 0.68347 0.0
H79 H 0.25415 0.34234 0.78113 0.0
H80 H 0.28524 0.24218 0.75355 0.0
H81 H 0.25337 0.2409 0.83953 0.0
C82 C 0.27242 0.27061 0.83959 0.0
O83 O 0.29605 0.29006 0.80039 0.0
H84 H 0.2456 0.28539 0.8504 0.0
C85 C 0.22669 0.29706 0.70521 0.0
C86 C 0.25276 0.26965 0.709 0.0
C87 C 0.22787 0.3236 0.73058 0.0
C88 C 0.25249 0.32171 0.76182 0.0
C89 C 0.27331 0.29234 0.76942 0.0
C90 C 0.27175 0.26584 0.74435 0.0
H91 H 0.16506 0.77927 0.43033 0.0
H92 H 0.23994 0.73699 0.33599 0.0
H93 H 0.28412 0.85406 0.33703 0.0
H94 H 0.26797 0.81446 0.25492 0.0
C95 C 0.2926 0.79773 0.26278 0.0
O96 O 0.30208 0.80222 0.30021 0.0
H97 H 0.2724 0.76782 0.26487 0.0
C98 C 0.19542 0.78425 0.40497 0.0
C99 C 0.23114 0.81985 0.39239 0.0
C100 C 0.19835 0.75448 0.38445 0.0
C101 C 0.23628 0.76019 0.35088 0.0
C102 C 0.26689 0.79638 0.33411 0.0
C103 C 0.2623 0.8263 0.35331 0.0
C104 C 0.05056 0.57563 0.4322 0.0
C105 C 0.04659 0.58173 0.47164 0.0
C106 C 0.01589 0.54936 0.49679 0.0
C107 C 0.00305 0.52531 0.47147 0.0
N108 N 0.02335 0.54069 0.43176 0.0
Co109 Co 0.01001 0.51794 0.38448 0.0
N110 N 0.9512 0.47888 0.41899 0.0
C111 C 0.93872 0.47064 0.46016 0.0
C112 C 0.89781 0.44128 0.47591 0.0
C113 C 0.88399 0.4296 0.4427 0.0
C114 C 0.91731 0.45269 0.40834 0.0
N115 N 0.99761 0.49515 0.3369 0.0
C116 C 0.95944 0.46805 0.33327 0.0
C117 C 0.9659 0.46073 0.29417 0.0
C118 C 0.01042 0.48288 0.27305 0.0
C119 C 0.02838 0.50274 0.30013 0.0
N120 N 0.0676 0.55784 0.34983 0.0
C121 C 0.09132 0.55771 0.31214 0.0
C122 C 0.12956 0.58927 0.29585 0.0
C123 C 0.12997 0.61071 0.32509 0.0
C124 C 0.09175 0.5909 0.35758 0.0
N125 N 0.05035 0.4835 0.39556 0.0
C126 C 0.108 0.43366 0.39079 0.0
C127 C 0.12893 0.47267 0.38505 0.0
C128 C 0.09937 0.497 0.38893 0.0
C129 C 0.0583 0.41985 0.40378 0.0
C130 C 0.03035 0.44501 0.40582 0.0
N131 N 0.97024 0.55194 0.37318 0.0
C132 C 0.95104 0.59832 0.3262 0.0
C133 C 0.91708 0.60346 0.35773 0.0
C134 C 0.90918 0.58156 0.3969 0.0
C135 C 0.93654 0.55641 0.40408 0.0
C136 C 0.97683 0.57219 0.33446 0.0
H137 H 0.93061 0.54096 0.43481 0.0
H138 H 0.00259 0.56887 0.3095 0.0
H139 H 0.11669 0.52676 0.38477 0.0
H140 H 0.99252 0.43231 0.41379 0.0
C141 C 0.96479 0.49236 0.48281 0.0
C142 C 0.08093 0.6034 0.39597 0.0
C143 C 0.92012 0.44457 0.36723 0.0
C144 C 0.07194 0.531 0.29083 0.0
H145 H 0.06313 0.60722 0.48114 0.0
H146 H 0.00166 0.54516 0.52922 0.0
H147 H 0.88041 0.42946 0.50774 0.0
H148 H 0.85404 0.40567 0.44385 0.0
H149 H 0.94173 0.44034 0.28263 0.0
H150 H 0.02753 0.48443 0.24165 0.0
H151 H 0.15309 0.5966 0.26569 0.0
H152 H 0.15535 0.63781 0.32279 0.0
H153 H 0.1676 0.48432 0.37628 0.0
H154 H 0.04088 0.38971 0.40967 0.0
H155 H 0.95767 0.6145 0.29539 0.0
H156 H 0.88281 0.58456 0.42194 0.0
C157 C 0.10632 0.59123 0.77025 0.0
C158 C 0.1113 0.59697 0.80869 0.0
C159 C 0.07959 0.56668 0.83617 0.0
C160 C 0.05716 0.54438 0.81299 0.0
N161 N 0.07349 0.558 0.77231 0.0
Co162 Co 0.04744 0.53688 0.7277 0.0
N163 N 0.99713 0.49458 0.76819 0.0
C164 C 0.99165 0.48692 0.80921 0.0
C165 C 0.95503 0.45528 0.82897 0.0
C166 C 0.93636 0.44155 0.79874 0.0
C167 C 0.96283 0.46576 0.76214 0.0
N168 N 0.01993 0.51705 0.68312 0.0
C169 C 0.98296 0.48642 0.68514 0.0
C170 C 0.97647 0.48211 0.64666 0.0
C171 C 0.01068 0.51101 0.61934 0.0
C172 C 0.03567 0.53149 0.64254 0.0
N173 N 0.09932 0.57817 0.68727 0.0
C174 C 0.10884 0.58307 0.64613 0.0
C175 C 0.14545 0.61483 0.62646 0.0
C176 C 0.15963 0.63153 0.65683 0.0
C177 C 0.13071 0.60889 0.69338 0.0
N178 N 0.09047 0.50297 0.7253 0.0
C179 C 0.13904 0.4465 0.72344 0.0
C180 C 0.13224 0.46586 0.68756 0.0
C181 C 0.10852 0.49407 0.68911 0.0
C182 C 0.12353 0.45704 0.75998 0.0
C183 C 0.09968 0.48527 0.7602 0.0
N184 N 0.00411 0.57029 0.73013 0.0
C185 C 0.98016 0.62376 0.69937 0.0
C186 C 0.94678 0.62076 0.73544 0.0
C187 C 0.94165 0.59145 0.76838 0.0
C188 C 0.9711 0.56726 0.76541 0.0
C189 C 0.00726 0.59776 0.69702 0.0
H190 H 0.96687 0.54667 0.7923 0.0
H191 H 0.03112 0.60086 0.66829 0.0
H192 H 0.10443 0.50763 0.66065 0.0
H193 H 0.08819 0.49162 0.78914 0.0
C194 C 0.01965 0.51123 0.8284 0.0
C195 C 0.13157 0.61915 0.73286 0.0
C196 C 0.9544 0.45977 0.7225 0.0
C197 C 0.07742 0.56146 0.62706 0.0
H198 H 0.13456 0.62107 0.81604 0.0
H199 H 0.07268 0.56205 0.86914 0.0
H200 H 0.94312 0.44372 0.86149 0.0
H201 H 0.90668 0.41648 0.80314 0.0
H202 H 0.95062 0.45974 0.6391 0.0
H203 H 0.01801 0.51543 0.58648 0.0
H204 H 0.15819 0.62584 0.59389 0.0
H205 H 0.1867 0.65819 0.6525 0.0
H206 H 0.14453 0.45881 0.65853 0.0
H207 H 0.1289 0.44296 0.78837 0.0
H208 H 0.98514 0.64601 0.67304 0.0
H209 H 0.91599 0.58801 0.79683 0.0
C210 C 0.27536 0.00456 0.6018 0.0
C211 C 0.32095 0.00446 0.6069 0.0
C212 C 0.35274 0.03211 0.5763 0.0
C213 C 0.32487 0.04766 0.55455 0.0
N214 N 0.27715 0.03189 0.56976 0.0
Co215 Co 0.2238 0.0461 0.54779 0.0
N216 N 0.27039 0.08363 0.50022 0.0
C217 C 0.31845 0.0892 0.48973 0.0
C218 C 0.34093 0.11749 0.45587 0.0
C219 C 0.3052 0.13117 0.44452 0.0
C220 C 0.26289 0.11048 0.47236 0.0
N221 N 0.17069 0.06205 0.52709 0.0
C222 C 0.17292 0.09231 0.49814 0.0
C223 C 0.12756 0.09588 0.49624 0.0
C224 C 0.0955 0.06715 0.52542 0.0
C225 C 0.12305 0.04799 0.54356 0.0
N226 N 0.17709 0.00718 0.59422 0.0
C227 C 0.12864 0.99805 0.60139 0.0
C228 C 0.10586 0.96759 0.63288 0.0
C229 C 0.14189 0.95598 0.64615 0.0
C230 C 0.18478 0.98036 0.62207 0.0
N231 N 0.22685 0.08587 0.5808 0.0
C232 C 0.23207 0.14552 0.62312 0.0
C233 C 0.18899 0.11717 0.62929 0.0
C234 C 0.18709 0.0878 0.60767 0.0
C235 C 0.27238 0.14313 0.59622 0.0
C236 C 0.26918 0.11321 0.57596 0.0
N237 N 0.22109 0.00612 0.51463 0.0
C238 C 0.17669 0.95666 0.48601 0.0
C239 C 0.21777 0.94477 0.47456 0.0
C240 C 0.26056 0.96494 0.48209 0.0
C241 C 0.26165 0.99561 0.50102 0.0
C242 C 0.17897 0.98691 0.50643 0.0
H243 H 0.29589 0.00984 0.50481 0.0
H244 H 0.14617 0.99394 0.51562 0.0
H245 H 0.15317 0.06713 0.61282 0.0
H246 H 0.30146 0.11321 0.55605 0.0
C247 C 0.34207 0.07283 0.51658 0.0
C248 C 0.23182 0.97599 0.62572 0.0
C249 C 0.21717 0.11923 0.47311 0.0
C250 C 0.10562 0.01803 0.57739 0.0
H251 H 0.33023 0.98525 0.62934 0.0
H252 H 0.39153 0.0387 0.56947 0.0
H253 H 0.37911 0.12856 0.44265 0.0
H254 H 0.30997 0.15481 0.41975 0.0
H255 H 0.11862 0.11754 0.47651 0.0
H256 H 0.05685 0.0617 0.53344 0.0
H257 H 0.06759 0.95474 0.64414 0.0
H258 H 0.13704 0.93178 0.67026 0.0
H259 H 0.15701 0.11797 0.65023 0.0
H260 H 0.3065 0.16443 0.59086 0.0
H261 H 0.14288 0.94214 0.4801 0.0
H262 H 0.29345 0.95709 0.47319 0.0
C263 C 0.48451 0.84267 0.10035 0.0
C264 C 0.48589 0.87904 0.10603 0.0
C265 C 0.51683 0.90346 0.07228 0.0
C266 C 0.53316 0.88079 0.04826 0.0
N267 N 0.51484 0.84354 0.06485 0.0
Co268 Co 0.53262 0.80127 0.0421 0.0
N269 N 0.58987 0.83677 0.00141 0.0
C270 C 0.5988 0.87473 0.99152 0.0
C271 C 0.6387 0.89197 0.96059 0.0
C272 C 0.65574 0.86311 0.94951 0.0
C273 C 0.62529 0.82968 0.97461 0.0
N274 N 0.55043 0.75876 0.01959 0.0
C275 C 0.59108 0.75823 0.99373 0.0
C276 C 0.58964 0.72178 0.9883 0.0
C277 C 0.54573 0.69894 0.00996 0.0
C278 C 0.52324 0.7225 0.02783 0.0
N279 N 0.47539 0.76573 0.08237 0.0
C280 C 0.45511 0.72941 0.08132 0.0
C281 C 0.41441 0.71234 0.11151 0.0
C282 C 0.40827 0.73959 0.13295 0.0
C283 C 0.44603 0.77183 0.1147 0.0
N284 N 0.49246 0.80657 0.00253 0.0
C285 C 0.43455 0.811 0.94643 0.0
C286 C 0.4165 0.80996 0.98759 0.0
C287 C 0.44618 0.80804 0.01509 0.0
C288 C 0.48217 0.81091 0.93357 0.0
C289 C 0.51043 0.80893 0.962 0.0
N290 N 0.57222 0.79626 0.08209 0.0
C291 C 0.59288 0.75805 0.13633 0.0
C292 C 0.62322 0.79035 0.14356 0.0
C293 C 0.62848 0.8255 0.1189 0.0
C294 C 0.60283 0.82783 0.08836 0.0
C295 C 0.56778 0.7616 0.10544 0.0
H296 H 0.60721 0.85539 0.07041 0.0
H297 H 0.54417 0.73631 0.10105 0.0
H298 H 0.43147 0.80766 0.04646 0.0
H299 H 0.54686 0.8096 0.95092 0.0
C300 C 0.57086 0.89341 0.01365 0.0
C301 C 0.45054 0.80828 0.12717 0.0
C302 C 0.62728 0.79189 0.96792 0.0
C303 C 0.47863 0.71095 0.05524 0.0
H304 H 0.46605 0.88713 0.13157 0.0
H305 H 0.52749 0.9341 0.06666 0.0
H306 H 0.65348 0.92193 0.94743 0.0
H307 H 0.68608 0.86641 0.92466 0.0
H308 H 0.61651 0.71304 0.96885 0.0
H309 H 0.53191 0.66874 0.01245 0.0
H310 H 0.39244 0.68329 0.1178 0.0
H311 H 0.37895 0.73615 0.15876 0.0
H312 H 0.37979 0.81047 0.99837 0.0
H313 H 0.49738 0.81221 0.90174 0.0
H314 H 0.58811 0.73037 0.15482 0.0
H315 H 0.65176 0.85106 0.12363 0.0
C316 C 0.80694 0.96324 0.57996 0.0
C317 C 0.85164 0.96086 0.58572 0.0
C318 C 0.88508 0.98827 0.55615 0.0
C319 C 0.85907 0.00571 0.53409 0.0
N320 N 0.81096 0.99105 0.5476 0.0
Co321 Co 0.76015 0.00808 0.52411 0.0
N322 N 0.80963 0.0483 0.48058 0.0
C323 C 0.85779 0.05419 0.47294 0.0
C324 C 0.88277 0.08534 0.44288 0.0
C325 C 0.84865 0.10066 0.43101 0.0
C326 C 0.80451 0.0777 0.45445 0.0
N327 N 0.70946 0.02639 0.50175 0.0
C328 C 0.7138 0.05791 0.47365 0.0
C329 C 0.66935 0.06177 0.46898 0.0
C330 C 0.63562 0.0322 0.49592 0.0
C331 C 0.66133 0.01208 0.51537 0.0
N332 N 0.7107 0.96706 0.56689 0.0
C333 C 0.66249 0.95824 0.57135 0.0
C334 C 0.63767 0.92857 0.60323 0.0
C335 C 0.67204 0.91758 0.62002 0.0
C336 C 0.71605 0.94126 0.59728 0.0
N337 N 0.75953 0.0446 0.56061 0.0
C338 C 0.75251 0.1093 0.59269 0.0
C339 C 0.71369 0.07627 0.60221 0.0
C340 C 0.71752 0.0451 0.58507 0.0
C341 C 0.79737 0.10456 0.57532 0.0
C342 C 0.79998 0.0726 0.55906 0.0
N343 N 0.76028 0.97166 0.48678 0.0
C344 C 0.71719 0.92746 0.45191 0.0
C345 C 0.75921 0.91914 0.43517 0.0
C346 C 0.80194 0.93759 0.44429 0.0
C347 C 0.80173 0.96372 0.46977 0.0
C348 C 0.71847 0.9534 0.47752 0.0
H349 H 0.83555 0.97698 0.47526 0.0
H350 H 0.68497 0.95795 0.48949 0.0
H351 H 0.68566 0.02217 0.59115 0.0
H352 H 0.83478 0.07154 0.5443 0.0
C353 C 0.87869 0.03426 0.49908 0.0
C354 C 0.76187 0.93812 0.60583 0.0
C355 C 0.75899 0.08616 0.45261 0.0
C356 C 0.64155 0.98036 0.5473 0.0
H357 H 0.85933 0.9411 0.60867 0.0
H358 H 0.92376 0.99435 0.55092 0.0
H359 H 0.92135 0.09695 0.4327 0.0
H360 H 0.85585 0.12668 0.4088 0.0
H361 H 0.66212 0.08427 0.44902 0.0
H362 H 0.59698 0.02666 0.5015 0.0
H363 H 0.59913 0.91682 0.61354 0.0
H364 H 0.66544 0.89485 0.6462 0.0
H365 H 0.6799 0.07366 0.62252 0.0
H366 H 0.83081 0.12524 0.57361 0.0
H367 H 0.68332 0.91367 0.44552 0.0
H368 H 0.83533 0.93183 0.43178 0.0
C369 C 0.4651 0.33199 0.07152 0.0
C370 C 0.46635 0.36829 0.07734 0.0
C371 C 0.509 0.3918 0.05365 0.0
C372 C 0.53131 0.36867 0.0347 0.0
N373 N 0.50518 0.33207 0.04452 0.0
Co374 Co 0.5253 0.28939 0.02467 0.0
N375 N 0.57723 0.32469 0.97984 0.0
C376 C 0.59586 0.36197 0.9774 0.0
C377 C 0.6319 0.37899 0.9431 0.0
C378 C 0.63643 0.35058 0.92278 0.0
C379 C 0.60274 0.31775 0.94595 0.0
N380 N 0.5457 0.2469 0.00501 0.0
C381 C 0.57352 0.24653 0.9688 0.0
C382 C 0.57859 0.21058 0.96756 0.0
C383 C 0.5535 0.18781 0.00458 0.0
C384 C 0.53445 0.21102 0.0262 0.0
N385 N 0.4733 0.254 0.06968 0.0
C386 C 0.4695 0.21721 0.08358 0.0
C387 C 0.43042 0.19984 0.11534 0.0
C388 C 0.40859 0.22753 0.12236 0.0
C389 C 0.43585 0.26047 0.09451 0.0
N390 N 0.48047 0.2872 0.98878 0.0
C391 C 0.41452 0.28311 0.93922 0.0
C392 C 0.41813 0.25027 0.96297 0.0
C393 C 0.45132 0.2529 0.98746 0.0
C394 C 0.44479 0.31813 0.9402 0.0
C395 C 0.47758 0.31956 0.96528 0.0
N396 N 0.57009 0.29121 0.06072 0.0
C397 C 0.58339 0.29194 0.12811 0.0
C398 C 0.62977 0.28913 0.1153 0.0
C399 C 0.64656 0.28814 0.07442 0.0
C400 C 0.61598 0.28928 0.0475 0.0
C401 C 0.55435 0.2929 0.10039 0.0
H402 H 0.62908 0.28795 0.01631 0.0
H403 H 0.51866 0.29401 0.11123 0.0
H404 H 0.45313 0.22709 0.00553 0.0
H405 H 0.5004 0.34681 0.96583 0.0
C406 C 0.57382 0.38077 0.00428 0.0
C407 C 0.4283 0.29794 0.09599 0.0
C408 C 0.59867 0.28015 0.93653 0.0
C409 C 0.49976 0.19902 0.06302 0.0
H410 H 0.43979 0.37671 0.09749 0.0
H411 H 0.52184 0.4222 0.05022 0.0
H412 H 0.65148 0.40869 0.93335 0.0
H413 H 0.66191 0.35359 0.89439 0.0
H414 H 0.59868 0.20183 0.94267 0.0
H415 H 0.54833 0.15767 0.01398 0.0
H416 H 0.41868 0.17042 0.13107 0.0
H417 H 0.37689 0.22406 0.14597 0.0
H418 H 0.39522 0.22276 0.96272 0.0
H419 H 0.44282 0.34405 0.922 0.0
H420 H 0.56935 0.29264 0.15961 0.0
H421 H 0.68248 0.28591 0.06367 0.0
C422 C 0.14622 0.3577 0.34147 0.0
C423 C 0.18163 0.35052 0.36227 0.0
C424 C 0.16842 0.39757 0.40317 0.0
C425 C 0.13643 0.40713 0.37961 0.0
N426 N 0.10368 0.40245 0.31999 0.0
N427 N 0.23332 0.36877 0.4074 0.0
C428 C 0.12802 0.38903 0.3468 0.0
C429 C 0.19473 0.37192 0.39161 0.0
N430 N 0.12855 0.33373 0.3178 0.0
N431 N 0.17243 0.41184 0.43738 0.0
H432 H 0.25393 0.35078 0.39928 0.0
H433 H 0.24753 0.38646 0.42567 0.0
H434 H 0.15381 0.4307 0.44673 0.0
H435 H 0.19111 0.40263 0.45822 0.0
H436 H 0.09916 0.33537 0.30539 0.0
H437 H 0.14004 0.30985 0.31391 0.0
H438 H 0.10055 0.39265 0.2933 0.0
H439 H 0.09088 0.42604 0.32211 0.0
C440 C 0.22902 0.70911 0.73017 0.0
C441 C 0.20054 0.73288 0.74284 0.0
C442 C 0.12773 0.68399 0.7432 0.0
C443 C 0.15578 0.65878 0.73521 0.0
N444 N 0.23235 0.64513 0.72689 0.0
N445 N 0.12222 0.74059 0.76818 0.0
C446 C 0.20628 0.67071 0.73037 0.0
C447 C 0.14969 0.71976 0.75103 0.0
N448 N 0.27768 0.72363 0.71653 0.0
N449 N 0.0802 0.67405 0.74254 0.0
H450 H 0.13681 0.76663 0.77516 0.0
H451 H 0.08508 0.73051 0.77888 0.0
H452 H 0.06247 0.64765 0.73819 0.0
H453 H 0.05957 0.69315 0.74274 0.0
H454 H 0.29976 0.70877 0.70305 0.0
H455 H 0.29556 0.75184 0.71508 0.0
H456 H 0.26848 0.65111 0.72779 0.0
H457 H 0.21694 0.6169 0.7263 0.0
C458 C 0.87196 0.69158 0.35702 0.0
C459 C 0.84744 0.68944 0.32493 0.0
C460 C 0.85667 0.62558 0.32397 0.0
C461 C 0.88979 0.63163 0.34938 0.0
N462 N 0.93071 0.6714 0.3892 0.0
N463 N 0.80981 0.652 0.28171 0.0
C464 C 0.89751 0.66471 0.36607 0.0
C465 C 0.83745 0.65552 0.30978 0.0
N466 N 0.86951 0.71853 0.37978 0.0
N467 N 0.8424 0.59071 0.31469 0.0
H468 H 0.79033 0.671 0.27434 0.0
H469 H 0.80677 0.63069 0.26506 0.0
H470 H 0.85504 0.56805 0.32536 0.0
H471 H 0.81512 0.58304 0.29953 0.0
H472 H 0.88302 0.71926 0.40592 0.0
H473 H 0.84887 0.73732 0.37556 0.0
H474 H 0.94214 0.69721 0.3977 0.0
H475 H 0.94963 0.65228 0.39743 0.0
C476 C 0.89081 0.35573 0.73392 0.0
C477 C 0.84452 0.35757 0.72917 0.0
C478 C 0.87113 0.42691 0.71691 0.0
C479 C 0.91764 0.42501 0.7205 0.0
N480 N 0.97526 0.38905 0.72212 0.0
N481 N 0.79385 0.39448 0.70638 0.0
C482 C 0.92862 0.3898 0.72552 0.0
C483 C 0.83573 0.39312 0.71752 0.0
N484 N 0.89804 0.32175 0.74869 0.0
N485 N 0.8603 0.46078 0.71444 0.0
H486 H 0.76744 0.3702 0.70601 0.0
H487 H 0.78722 0.41954 0.69388 0.0
H488 H 0.88564 0.48625 0.71303 0.0
H489 H 0.82558 0.46329 0.71654 0.0
H490 H 0.92952 0.31929 0.75714 0.0
H491 H 0.87121 0.29612 0.75571 0.0
H492 H 0.98615 0.36449 0.72141 0.0
H493 H 0.00373 0.41362 0.71612 0.0
C494 C 0.19706 0.19054 0.38912 0.0
C495 C 0.21812 0.2253 0.39953 0.0
C496 C 0.23064 0.19 0.46185 0.0
C497 C 0.21587 0.15574 0.44832 0.0
N498 N 0.19131 0.12368 0.3962 0.0
N499 N 0.2611 0.25841 0.44311 0.0
C500 C 0.20077 0.15607 0.41112 0.0
C501 C 0.23632 0.22517 0.43537 0.0
N502 N 0.17239 0.19042 0.35883 0.0
N503 N 0.23855 0.18884 0.50027 0.0
H504 H 0.26654 0.28472 0.42429 0.0
H505 H 0.27968 0.25968 0.46631 0.0
H506 H 0.23462 0.16355 0.52041 0.0
H507 H 0.24472 0.21251 0.51343 0.0
H508 H 0.15237 0.16571 0.35252 0.0
H509 H 0.16791 0.21507 0.34272 0.0
H510 H 0.18529 0.12315 0.36708 0.0
H511 H 0.19331 0.0978 0.41162 0.0
C512 C 0.35584 0.77824 0.87465 0.0
C513 C 0.35935 0.8137 0.84989 0.0
C514 C 0.40188 0.84703 0.89509 0.0
C515 C 0.40391 0.81175 0.91643 0.0
N516 N 0.38353 0.74365 0.92753 0.0
N517 N 0.36807 0.88037 0.84602 0.0
C518 C 0.38042 0.77725 0.90688 0.0
C519 C 0.37702 0.84776 0.86302 0.0
N520 N 0.3272 0.74575 0.86844 0.0
N521 N 0.42573 0.87991 0.90425 0.0
H522 H 0.34777 0.88144 0.82404 0.0
H523 H 0.3761 0.90542 0.85657 0.0
H524 H 0.44279 0.8804 0.9285 0.0
H525 H 0.43106 0.90669 0.8866 0.0
H526 H 0.31951 0.71931 0.88756 0.0
H527 H 0.30676 0.74564 0.84652 0.0
H528 H 0.37287 0.71791 0.91877 0.0
H529 H 0.39929 0.74169 0.95253 0.0
C530 C 0.72679 0.82583 0.39976 0.0
C531 C 0.75215 0.83682 0.35819 0.0
C532 C 0.77931 0.90252 0.36621 0.0
C533 C 0.75795 0.89073 0.40868 0.0
N534 N 0.71932 0.83986 0.46737 0.0
N535 N 0.8097 0.88415 0.30355 0.0
C536 C 0.73395 0.85196 0.4259 0.0
C537 C 0.78046 0.87479 0.34185 0.0
N538 N 0.69451 0.79085 0.41397 0.0
N539 N 0.79695 0.94027 0.34883 0.0
H540 H 0.81184 0.86462 0.28488 0.0
H541 H 0.83496 0.91037 0.29172 0.0
H542 H 0.79647 0.96146 0.36554 0.0
H543 H 0.80816 0.95065 0.3174 0.0
H544 H 0.6713 0.78277 0.44279 0.0
H545 H 0.68763 0.7711 0.39564 0.0
H546 H 0.70618 0.81137 0.48181 0.0
H547 H 0.72454 0.85803 0.4876 0.0
C548 C 0.64711 0.2848 0.8235 0.0
C549 C 0.69203 0.27747 0.8242 0.0
C550 C 0.67557 0.27095 0.89846 0.0
C551 C 0.62972 0.27666 0.89812 0.0
N552 N 0.56811 0.28257 0.862 0.0
N553 N 0.74459 0.25529 0.8624 0.0
C554 C 0.61428 0.28147 0.86108 0.0
C555 C 0.70478 0.26788 0.86178 0.0
N556 N 0.63676 0.29654 0.78696 0.0
N557 N 0.69214 0.2701 0.93342 0.0
H558 H 0.76683 0.25267 0.83603 0.0
H559 H 0.75309 0.24413 0.88918 0.0
H560 H 0.6717 0.27166 0.96113 0.0
H561 H 0.72741 0.27073 0.93435 0.0
H562 H 0.60716 0.30652 0.7843 0.0
H563 H 0.65958 0.29865 0.7589 0.0
H564 H 0.55301 0.28226 0.83669 0.0
H565 H 0.54354 0.28077 0.88901 0.0
C566 C 0.22095 0.90095 0.71981 0.0
C567 C 0.24186 0.87498 0.70188 0.0
C568 C 0.25103 0.9131 0.63387 0.0
C569 C 0.23551 0.94115 0.65211 0.0
N570 N 0.21476 0.96527 0.71263 0.0
N571 N 0.28638 0.86092 0.64203 0.0
C572 C 0.22338 0.93618 0.69519 0.0
C573 C 0.2596 0.88231 0.65889 0.0
N574 N 0.19672 0.8913 0.75987 0.0
N575 N 0.25643 0.91534 0.59278 0.0
H576 H 0.295 0.83896 0.65939 0.0
H577 H 0.30408 0.86743 0.61132 0.0
H578 H 0.25004 0.9373 0.57353 0.0
H579 H 0.26285 0.89365 0.5785 0.0
H580 H 0.17685 0.90767 0.7733 0.0
H581 H 0.19219 0.86509 0.77857 0.0
H582 H 0.21052 0.96448 0.74383 0.0
H583 H 0.21606 0.99146 0.69551 0.0
C584 C 0.64629 0.77578 0.25096 0.0
C585 C 0.69715 0.78441 0.24192 0.0
C586 C 0.699 0.79277 0.16861 0.0
C587 C 0.64863 0.78768 0.17751 0.0
N588 N 0.57533 0.78081 0.2267 0.0
N589 N 0.77282 0.80718 0.19225 0.0
C590 C 0.62251 0.78093 0.21861 0.0
C591 C 0.7238 0.79457 0.20072 0.0
N592 N 0.62055 0.76151 0.29036 0.0
N593 N 0.72294 0.79478 0.12961 0.0
H594 H 0.79224 0.80906 0.21491 0.0
H595 H 0.79403 0.81886 0.16289 0.0
H596 H 0.70599 0.79355 0.10533 0.0
H597 H 0.75863 0.79438 0.12192 0.0
H598 H 0.5833 0.75079 0.29834 0.0
H599 H 0.63662 0.75729 0.31489 0.0
H600 H 0.55576 0.78019 0.25565 0.0
H601 H 0.55681 0.7847 0.20383 0.0
C602 C 0.78825 0.20664 0.61972 0.0
C603 C 0.7457 0.20541 0.64805 0.0
C604 C 0.70331 0.14947 0.6266 0.0
C605 C 0.7474 0.14644 0.60437 0.0
N606 N 0.81851 0.18846 0.55743 0.0
N607 N 0.66489 0.16939 0.6846 0.0
C608 C 0.78682 0.17958 0.59444 0.0
C609 C 0.70391 0.17493 0.65345 0.0
N610 N 0.8305 0.23289 0.61748 0.0
N611 N 0.66131 0.13383 0.61656 0.0
H612 H 0.6647 0.18543 0.70713 0.0
H613 H 0.63507 0.14582 0.69057 0.0
H614 H 0.66092 0.12224 0.59056 0.0
H615 H 0.62867 0.13799 0.62979 0.0
H616 H 0.86313 0.23244 0.5998 0.0
H617 H 0.83389 0.2524 0.63641 0.0
H618 H 0.84538 0.21405 0.54698 0.0
H619 H 0.81298 0.17285 0.53493 0.0
C620 C 0.35908 0.28686 0.20414 0.0
C621 C 0.31556 0.2948 0.19849 0.0
C622 C 0.34691 0.30698 0.12411 0.0
C623 C 0.39106 0.30155 0.13048 0.0
N624 N 0.44427 0.303 0.17643 0.0
N625 N 0.2766 0.32556 0.15166 0.0
C626 C 0.39882 0.29674 0.17046 0.0
C627 C 0.3118 0.30884 0.15805 0.0
N628 N 0.36274 0.26909 0.24117 0.0
N629 N 0.3383 0.31011 0.08586 0.0
H630 H 0.25322 0.33145 0.175 0.0
H631 H 0.27493 0.33844 0.12274 0.0
H632 H 0.36393 0.31017 0.06025 0.0
H633 H 0.3047 0.30997 0.08022 0.0
H634 H 0.39249 0.25964 0.24502 0.0
H635 H 0.33477 0.26035 0.26706 0.0
H636 H 0.45187 0.30211 0.20522 0.0
H637 H 0.47412 0.31516 0.15243 0.0
C638 C 0.86521 0.68349 0.71363 0.0
C639 C 0.85872 0.6977 0.74997 0.0
C640 C 0.92007 0.66949 0.7708 0.0
C641 C 0.918 0.64858 0.73929 0.0
N642 N 0.88081 0.63127 0.68467 0.0
N643 N 0.87984 0.70303 0.81467 0.0
C644 C 0.88859 0.65446 0.7116 0.0
C645 C 0.88634 0.69054 0.77893 0.0
N646 N 0.85056 0.69836 0.68053 0.0
N647 N 0.95522 0.67037 0.79209 0.0
H648 H 0.85755 0.72019 0.82134 0.0
H649 H 0.89447 0.69438 0.83888 0.0
H650 H 0.98135 0.65614 0.78647 0.0
H651 H 0.96148 0.6883 0.81234 0.0
H652 H 0.85777 0.69054 0.65244 0.0
H653 H 0.83749 0.72206 0.67934 0.0
H654 H 0.85606 0.6325 0.66658 0.0
H655 H 0.89491 0.60823 0.68358 0.0
C656 C 0.8827 0.34501 0.34478 0.0
C657 C 0.83225 0.33837 0.35138 0.0
C658 C 0.83976 0.40239 0.3645 0.0
C659 C 0.88963 0.40768 0.36181 0.0
N660 N 0.95723 0.38108 0.35591 0.0
N661 N 0.76142 0.35781 0.37435 0.0
C662 C 0.91064 0.37804 0.35403 0.0
C663 C 0.81036 0.36626 0.36323 0.0
N664 N 0.90439 0.32075 0.32764 0.0
N665 N 0.82074 0.43222 0.36714 0.0
H666 H 0.73885 0.33152 0.37412 0.0
H667 H 0.74336 0.3755 0.38724 0.0
H668 H 0.84116 0.45904 0.36823 0.0
H669 H 0.78575 0.43126 0.36485 0.0
H670 H 0.94147 0.32655 0.31757 0.0
H671 H 0.88546 0.29637 0.31989 0.0
H672 H 0.97231 0.35849 0.35604 0.0
H673 H 0.98012 0.40545 0.36001 0.0
C674 C 0.23175 0.39137 0.70464 0.0
C675 C 0.20372 0.35413 0.72467 0.0
C676 C 0.1321 0.37678 0.73862 0.0
C677 C 0.16128 0.41463 0.72292 0.0
N678 N 0.23973 0.45875 0.69529 0.0
N679 N 0.12842 0.31128 0.76418 0.0
C680 C 0.21135 0.42216 0.70683 0.0
C681 C 0.15411 0.34674 0.74242 0.0
N682 N 0.27771 0.39713 0.68305 0.0
N683 N 0.08323 0.36951 0.74898 0.0
H684 H 0.14297 0.28834 0.76667 0.0
H685 H 0.09371 0.30508 0.78199 0.0
H686 H 0.06586 0.39079 0.74707 0.0
H687 H 0.05969 0.34234 0.75631 0.0
H688 H 0.29844 0.4229 0.66429 0.0
H689 H 0.29378 0.37519 0.681 0.0
H690 H 0.27709 0.46608 0.6876 0.0
H691 H 0.22614 0.48206 0.69654 0.0
C692 C 0.17246 0.68577 0.41791 0.0
C693 C 0.16152 0.71701 0.39619 0.0
C694 C 0.09182 0.6738 0.38213 0.0
C695 C 0.10672 0.6425 0.39906 0.0
N696 N 0.16456 0.61839 0.42868 0.0
N697 N 0.11238 0.7417 0.356 0.0
C698 C 0.14769 0.64834 0.4162 0.0
C699 C 0.12117 0.71131 0.37829 0.0
N700 N 0.2068 0.69209 0.44001 0.0
N701 N 0.04964 0.66749 0.36962 0.0
H702 H 0.13191 0.7696 0.35401 0.0
H703 H 0.08747 0.73941 0.33784 0.0
H704 H 0.02777 0.64036 0.37149 0.0
H705 H 0.03449 0.68886 0.36008 0.0
H706 H 0.21354 0.67064 0.45966 0.0
H707 H 0.22547 0.71931 0.44161 0.0
H708 H 0.1972 0.62134 0.43719 0.0
H709 H 0.14779 0.5906 0.4275 0.0
C710 C 0.7528 0.84325 0.67372 0.0
C711 C 0.77189 0.85574 0.70622 0.0
C712 C 0.77637 0.92121 0.6761 0.0
C713 C 0.76311 0.90924 0.64127 0.0
N714 N 0.74626 0.85964 0.60367 0.0
N715 N 0.8108 0.90764 0.73404 0.0
C716 C 0.75351 0.87044 0.63911 0.0
C717 C 0.78606 0.89505 0.7063 0.0
N718 N 0.73223 0.80556 0.67658 0.0
N719 N 0.77916 0.95751 0.68055 0.0
H720 H 0.82013 0.88957 0.75581 0.0
H721 H 0.82623 0.93622 0.73285 0.0
H722 H 0.77233 0.97746 0.65898 0.0
H723 H 0.7839 0.96675 0.70725 0.0
H724 H 0.71348 0.79525 0.6557 0.0
H725 H 0.72975 0.78483 0.70192 0.0
H726 H 0.74423 0.83236 0.59891 0.0
H727 H 0.74623 0.8787 0.57775 0.0
C728 C 0.67133 0.24696 0.20602 0.0
C729 C 0.69056 0.28062 0.21918 0.0
C730 C 0.68552 0.31911 0.15569 0.0
C731 C 0.65904 0.28578 0.14598 0.0
N732 N 0.62801 0.21784 0.1597 0.0
N733 N 0.73443 0.34679 0.19936 0.0
C734 C 0.65325 0.24955 0.17007 0.0
C735 C 0.70355 0.31623 0.19168 0.0
N736 N 0.67195 0.21276 0.22719 0.0
N737 N 0.69107 0.3536 0.13158 0.0
H738 H 0.75015 0.34505 0.22437 0.0
H739 H 0.74852 0.37284 0.17904 0.0
H740 H 0.68023 0.35645 0.10403 0.0
H741 H 0.7044 0.37936 0.13949 0.0
H742 H 0.6623 0.18743 0.21743 0.0
H743 H 0.68691 0.21013 0.25259 0.0
H744 H 0.6168 0.191 0.17857 0.0
H745 H 0.61624 0.21864 0.13258 0.0
C746 C 0.23412 0.24313 0.64571 0.0
C747 C 0.25638 0.24276 0.67941 0.0
C748 C 0.26743 0.18078 0.67222 0.0
C749 C 0.23681 0.17777 0.64459 0.0
N750 N 0.1913 0.20703 0.6038 0.0
N751 N 0.32613 0.22544 0.69391 0.0
C752 C 0.21995 0.20916 0.63112 0.0
C753 C 0.2824 0.21554 0.68449 0.0
N754 N 0.23567 0.27696 0.62253 0.0
N755 N 0.28235 0.15047 0.68699 0.0
H756 H 0.34243 0.25331 0.69532 0.0
H757 H 0.34862 0.20771 0.6943 0.0
H758 H 0.27156 0.12411 0.67934 0.0
H759 H 0.30173 0.15085 0.70973 0.0
H760 H 0.22387 0.27942 0.59547 0.0
H761 H 0.25619 0.30254 0.62681 0.0
H762 H 0.17408 0.22767 0.59642 0.0
H763 H 0.18211 0.18354 0.59071 0.0
C764 C 0.37208 0.78419 0.23478 0.0
C765 C 0.33918 0.80624 0.2305 0.0
C766 C 0.37902 0.82958 0.15828 0.0
C767 C 0.41446 0.81051 0.16334 0.0
N768 N 0.45117 0.77734 0.20918 0.0
N769 N 0.32556 0.86124 0.19137 0.0
C770 C 0.4133 0.79062 0.20268 0.0
C771 C 0.3471 0.83261 0.19333 0.0
N772 N 0.36307 0.75578 0.26828 0.0
N773 N 0.37405 0.84336 0.12023 0.0
H774 H 0.30619 0.86723 0.21715 0.0
H775 H 0.33304 0.8823 0.16514 0.0
H776 H 0.39516 0.84032 0.09356 0.0
H777 H 0.34568 0.85437 0.11555 0.0
H778 H 0.38333 0.73647 0.2704 0.0
H779 H 0.33316 0.74916 0.29248 0.0
H780 H 0.4542 0.7657 0.23813 0.0
H781 H 0.48157 0.78123 0.18605 0.0
C782 C 0.78362 0.16941 0.36376 0.0
C783 C 0.76618 0.19607 0.38336 0.0
C784 C 0.74597 0.15128 0.4492 0.0
C785 C 0.75887 0.12351 0.42872 0.0
N786 N 0.77818 0.10324 0.36541 0.0
N787 N 0.7208 0.20884 0.44363 0.0
C788 C 0.77367 0.13163 0.38558 0.0
C789 C 0.74448 0.18603 0.42585 0.0
N790 N 0.81201 0.18055 0.32507 0.0
N791 N 0.73622 0.14488 0.49088 0.0
H792 H 0.71749 0.23384 0.42731 0.0
H793 H 0.70043 0.20108 0.47358 0.0
H794 H 0.73662 0.11971 0.50898 0.0
H795 H 0.73157 0.16565 0.50727 0.0
H796 H 0.82923 0.16295 0.31101 0.0
H797 H 0.82281 0.20851 0.30876 0.0
H798 H 0.78456 0.10706 0.33371 0.0
H799 H 0.771 0.07512 0.3805 0.0
C800 C 0.3529 0.26358 0.85275 0.0
C801 C 0.30787 0.27026 0.86716 0.0
C802 C 0.33202 0.28322 0.9301 0.0
C803 C 0.37844 0.28021 0.91377 0.0
N804 N 0.43543 0.27146 0.85828 0.0
N805 N 0.2485 0.26983 0.92655 0.0
C806 C 0.38947 0.27134 0.87478 0.0
C807 C 0.2956 0.27552 0.90786 0.0
N808 N 0.35937 0.24707 0.81977 0.0
N809 N 0.32304 0.29418 0.96659 0.0
H810 H 0.22017 0.25989 0.91314 0.0
H811 H 0.23673 0.26998 0.95723 0.0
H812 H 0.34824 0.29878 0.98445 0.0
H813 H 0.29203 0.30157 0.97777 0.0
H814 H 0.38967 0.23831 0.80989 0.0
H815 H 0.33196 0.2377 0.80521 0.0
H816 H 0.44733 0.26974 0.82809 0.0
H817 H 0.46292 0.27647 0.87381 0.0
C818 C 0.26371 0.888 0.40207 0.0
C819 C 0.23327 0.85062 0.41784 0.0
C820 C 0.1958 0.87407 0.47605 0.0
C821 C 0.21807 0.91202 0.45403 0.0
N822 N 0.26883 0.95431 0.39204 0.0
N823 N 0.19835 0.80882 0.48364 0.0
C824 C 0.25007 0.91862 0.41555 0.0
C825 C 0.20616 0.84337 0.45888 0.0
N826 N 0.31013 0.89381 0.38195 0.0
N827 N 0.16562 0.86721 0.51361 0.0
H828 H 0.21459 0.7886 0.47435 0.0
H829 H 0.18254 0.8023 0.51475 0.0
H830 H 0.16011 0.88858 0.52877 0.0
H831 H 0.14375 0.84035 0.52865 0.0
H832 H 0.33468 0.92066 0.37279 0.0
H833 H 0.3256 0.87142 0.38094 0.0
H834 H 0.29056 0.95948 0.36274 0.0
H835 H 0.25895 0.9777 0.40027 0.0
C836 C 0.74187 0.80551 0.88697 0.0
C837 C 0.72286 0.793 0.85453 0.0
C838 C 0.64118 0.77697 0.8967 0.0
C839 C 0.66002 0.78857 0.92988 0.0
N840 N 0.72838 0.80453 0.95966 0.0
N841 N 0.65628 0.75703 0.83236 0.0
C842 C 0.71051 0.79972 0.92596 0.0
C843 C 0.67307 0.77575 0.86061 0.0
N844 N 0.78945 0.82436 0.88008 0.0
N845 N 0.59299 0.7682 0.8987 0.0
H846 H 0.67858 0.75509 0.80567 0.0
H847 H 0.62111 0.74019 0.83726 0.0
H848 H 0.56727 0.76499 0.92512 0.0
H849 H 0.57845 0.76569 0.87326 0.0
H850 H 0.80439 0.83783 0.9012 0.0
H851 H 0.81343 0.82907 0.85196 0.0
H852 H 0.76465 0.80918 0.95965 0.0
H853 H 0.70631 0.80042 0.98861 0.0
loop_
_geom_bond_atom_site_label_1
_geom_bond_atom_site_label_2
_geom_bond_distance
_geom_bond_site_symmetry_2
_ccdc_geom_bond_type
H0 C7 0.929 . S
H1 C10 0.930 . S
H2 C12 0.929 . S
H3 C4 0.969 . S
C4 H3 0.969 . S
C4 O5 1.550 . S
C4 H6 0.973 . S
O5 C4 1.550 . S
O5 C11 1.412 . S
H6 C4 0.973 . S
C7 H0 0.929 . S
C7 C8 1.400 . S
C7 C9 1.364 . S
C8 C7 1.400 . S
C8 C12 1.377 . S
C9 C7 1.364 . S
C9 C10 1.374 . S
C10 H1 0.930 . S
C10 C9 1.374 . S
C10 C11 1.383 . S
C11 O5 1.412 . S
C11 C10 1.383 . S
C11 C12 1.394 . S
C12 H2 0.929 . S
C12 C8 1.377 . S
C12 C11 1.394 . S
H13 C20 0.929 . S
H14 C23 0.930 . S
H15 C25 0.929 . S
H16 C17 0.969 . S
C17 H16 0.969 . S
C17 O18 1.550 . S
C17 H19 0.973 . S
O18 C17 1.550 . S
O18 C24 1.412 . S
H19 C17 0.973 . S
C20 H13 0.929 . S
C20 C21 1.400 . S
C20 C22 1.364 . S
C21 C20 1.400 . S
C21 C25 1.377 . S
C22 C20 1.364 . S
C22 C23 1.374 . S
C23 H14 0.930 . S
C23 C22 1.374 . S
C23 C24 1.383 . S
C24 O18 1.412 . S
C24 C23 1.383 . S
C24 C25 1.394 . S
C25 H15 0.929 . S
C25 C21 1.377 . S
C25 C24 1.394 . S
H26 C33 0.929 . S
H27 C36 0.930 . S
H28 C38 0.929 . S
H29 C30 0.969 . S
C30 H29 0.969 . S
C30 O31 1.550 . S
C30 H32 0.973 . S
O31 C30 1.550 . S
O31 C37 1.412 . S
H32 C30 0.973 . S
C33 H26 0.929 . S
C33 C34 1.400 . S
C33 C35 1.364 . S
C34 C33 1.400 . S
C34 C38 1.377 . S
C35 C33 1.364 . S
C35 C36 1.374 . S
C36 H27 0.930 . S
C36 C35 1.374 . S
C36 C37 1.383 . S
C37 O31 1.412 . S
C37 C36 1.383 . S
C37 C38 1.394 . S
C38 H28 0.929 . S
C38 C34 1.377 . S
C38 C37 1.394 . S
H39 C46 0.929 . S
H40 C49 0.930 . S
H41 C51 0.929 . S
H42 C43 0.969 . S
C43 H42 0.969 . S
C43 O44 1.550 . S
C43 H45 0.973 . S
O44 C43 1.550 . S
O44 C50 1.412 . S
H45 C43 0.973 . S
C46 H39 0.929 . S
C46 C47 1.400 . S
C46 C48 1.364 . S
C47 C46 1.400 . S
C47 C51 1.377 . S
C48 C46 1.364 . S
C48 C49 1.374 . S
C49 H40 0.930 . S
C49 C48 1.374 . S
C49 C50 1.383 . S
C50 O44 1.412 . S
C50 C49 1.383 . S
C50 C51 1.394 . S
C51 H41 0.929 . S
C51 C47 1.377 . S
C51 C50 1.394 . S
H52 C59 0.929 . S
H53 C62 0.930 . S
H54 C64 0.929 . S
H55 C56 0.969 . S
C56 H55 0.969 . S
C56 O57 1.550 . S
C56 H58 0.973 . S
O57 C56 1.550 . S
O57 C63 1.412 . S
H58 C56 0.973 . S
C59 H52 0.929 . S
C59 C60 1.400 . S
C59 C61 1.364 . S
C60 C59 1.400 . S
C60 C64 1.377 . S
C61 C59 1.364 . S
C61 C62 1.374 . S
C62 H53 0.930 . S
C62 C61 1.374 . S
C62 C63 1.383 . S
C63 O57 1.412 . S
C63 C62 1.383 . S
C63 C64 1.394 . S
C64 H54 0.929 . S
C64 C60 1.377 . S
C64 C63 1.394 . S
H65 C72 0.929 . S
H66 C75 0.930 . S
H67 C77 0.929 . S
H68 C69 0.969 . S
C69 H68 0.969 . S
C69 O70 1.550 . S
C69 H71 0.973 . S
O70 C69 1.550 . S
O70 C76 1.412 . S
H71 C69 0.973 . S
C72 H65 0.929 . S
C72 C73 1.400 . S
C72 C74 1.364 . S
C73 C72 1.400 . S
C73 C77 1.377 . S
C74 C72 1.364 . S
C74 C75 1.374 . S
C75 H66 0.930 . S
C75 C74 1.374 . S
C75 C76 1.383 . S
C76 O70 1.412 . S
C76 C75 1.383 . S
C76 C77 1.394 . S
C77 H67 0.929 . S
C77 C73 1.377 . S
C77 C76 1.394 . S
H78 C85 0.929 . S
H79 C88 0.930 . S
H80 C90 0.929 . S
H81 C82 0.969 . S
C82 H81 0.969 . S
C82 O83 1.550 . S
C82 H84 0.973 . S
O83 C82 1.550 . S
O83 C89 1.412 . S
H84 C82 0.973 . S
C85 H78 0.929 . S
C85 C86 1.400 . S
C85 C87 1.364 . S
C86 C85 1.400 . S
C86 C90 1.377 . S
C87 C85 1.364 . S
C87 C88 1.374 . S
C88 H79 0.930 . S
C88 C87 1.374 . S
C88 C89 1.383 . S
C89 O83 1.412 . S
C89 C88 1.383 . S
C89 C90 1.394 . S
C90 H80 0.929 . S
C90 C86 1.377 . S
C90 C89 1.394 . S
H91 C98 0.929 . S
H92 C101 0.930 . S
H93 C103 0.929 . S
H94 C95 0.969 . S
C95 H94 0.969 . S
C95 O96 1.550 . S
C95 H97 0.973 . S
O96 C95 1.550 . S
O96 C102 1.412 . S
H97 C95 0.973 . S
C98 H91 0.929 . S
C98 C99 1.400 . S
C98 C100 1.364 . S
C99 C98 1.400 . S
C99 C103 1.377 . S
C100 C98 1.364 . S
C100 C101 1.374 . S
C101 H92 0.930 . S
C101 C100 1.374 . S
C101 C102 1.383 . S
C102 O96 1.412 . S
C102 C101 1.383 . S
C102 C103 1.394 . S
C103 H93 0.929 . S
C103 C99 1.377 . S
C103 C102 1.394 . S
C104 C105 1.443 . S
C104 N108 1.376 . S
C104 C142 1.389 . S
C105 C104 1.443 . S
C105 C106 1.340 . S
C105 H145 0.951 . S
C106 C105 1.340 . S
C106 C107 1.439 1_455 S
C106 H146 0.952 . S
C107 C106 1.439 1_655 S
C107 N108 1.374 1_655 S
C107 C141 1.395 . S
N108 C104 1.376 . S
N108 C107 1.374 1_455 S
N108 Co109 2.010 . S
Co109 N108 2.010 . S
Co109 N110 1.992 1_455 S
Co109 N115 2.007 1_455 S
Co109 N120 1.997 . S
Co109 N125 2.287 . S
Co109 N131 2.278 1_455 S
N110 Co109 1.992 1_655 S
N110 C111 1.376 . S
N110 C114 1.383 . S
C111 N110 1.376 . S
C111 C112 1.446 . S
C111 C141 1.391 . S
C112 C111 1.446 . S
C112 C113 1.339 . S
C112 H147 0.949 . S
C113 C112 1.339 . S
C113 C114 1.439 . S
C113 H148 0.950 . S
C114 N110 1.383 . S
C114 C113 1.439 . S
C114 C143 1.392 . S
N115 Co109 2.007 1_655 S
N115 C116 1.376 . S
N115 C119 1.374 1_655 S
C116 N115 1.376 . S
C116 C117 1.443 . S
C116 C143 1.389 . S
C117 C116 1.443 . S
C117 C118 1.340 . S
C117 H149 0.951 . S
C118 C117 1.340 . S
C118 C119 1.439 1_655 S
C118 H150 0.950 . S
C119 N115 1.374 1_455 S
C119 C118 1.439 1_455 S
C119 C144 1.395 . S
N120 Co109 1.997 . S
N120 C121 1.376 . S
N120 C124 1.383 . S
C121 N120 1.376 . S
C121 C122 1.446 . S
C121 C144 1.391 . S
C122 C121 1.446 . S
C122 C123 1.339 . S
C122 H151 0.949 . S
C123 C122 1.339 . S
C123 C124 1.439 . S
C123 H152 0.950 . S
C124 N120 1.383 . S
C124 C123 1.439 . S
C124 C142 1.392 . S
N125 Co109 2.287 . S
N125 C128 1.332 . S
N125 C130 1.332 . S
C126 C127 1.386 . S
C126 C129 1.388 . S
C127 C126 1.386 . S
C127 C128 1.382 . S
C127 H153 0.950 . S
C128 N125 1.332 . S
C128 C127 1.382 . S
C128 H139 0.952 . S
C129 C126 1.388 . S
C129 C130 1.382 . S
C129 H154 0.950 . S
C130 N125 1.332 . S
C130 C129 1.382 . S
C130 H140 0.948 . S
N131 Co109 2.278 1_655 S
N131 C135 1.332 . S
N131 C136 1.332 . S
C132 C133 1.388 . S
C132 C136 1.382 . S
C132 H155 0.950 . S
C133 C132 1.388 . S
C133 C134 1.386 . S
C134 C133 1.386 . S
C134 C135 1.382 . S
C134 H156 0.950 . S
C135 N131 1.332 . S
C135 C134 1.382 . S
C135 H137 0.952 . S
C136 N131 1.332 . S
C136 C132 1.382 . S
C136 H138 0.948 . S
H137 C135 0.952 . S
H138 C136 0.948 . S
H139 C128 0.952 . S
H140 C130 0.948 . S
C141 C107 1.395 . S
C141 C111 1.391 . S
C142 C104 1.389 . S
C142 C124 1.392 . S
C143 C114 1.392 . S
C143 C116 1.389 . S
C144 C119 1.395 . S
C144 C121 1.391 . S
H145 C105 0.951 . S
H146 C106 0.952 . S
H147 C112 0.949 . S
H148 C113 0.950 . S
H149 C117 0.951 . S
H150 C118 0.950 . S
H151 C122 0.949 . S
H152 C123 0.950 . S
H153 C127 0.950 . S
H154 C129 0.950 . S
H155 C132 0.950 . S
H156 C134 0.950 . S
C157 C158 1.443 . S
C157 N161 1.376 . S
C157 C195 1.389 . S
C158 C157 1.443 . S
C158 C159 1.340 . S
C158 H198 0.951 . S
C159 C158 1.340 . S
C159 C160 1.439 . S
C159 H199 0.950 . S
C160 C159 1.439 . S
C160 N161 1.374 . S
C160 C194 1.395 . S
N161 C157 1.376 . S
N161 C160 1.374 . S
N161 Co162 2.008 . S
Co162 N161 2.008 . S
Co162 N163 1.995 . S
Co162 N168 2.008 . S
Co162 N173 1.995 . S
Co162 N178 2.282 . S
Co162 N184 2.282 . S
N163 Co162 1.995 . S
N163 C164 1.376 1_455 S
N163 C167 1.383 1_455 S
C164 N163 1.376 1_655 S
C164 C165 1.446 . S
C164 C194 1.391 1_655 S
C165 C164 1.446 . S
C165 C166 1.339 . S
C165 H200 0.949 . S
C166 C165 1.339 . S
C166 C167 1.439 . S
C166 H201 0.950 . S
C167 N163 1.383 1_655 S
C167 C166 1.439 . S
C167 C196 1.392 . S
N168 Co162 2.008 . S
N168 C169 1.376 . S
N168 C172 1.374 . S
C169 N168 1.376 . S
C169 C170 1.443 . S
C169 C196 1.389 1_455 S
C170 C169 1.443 . S
C170 C171 1.340 . S
C170 H202 0.951 1_455 S
C171 C170 1.340 . S
C171 C172 1.439 . S
C171 H203 0.950 . S
C172 N168 1.374 . S
C172 C171 1.439 . S
C172 C197 1.395 . S
N173 Co162 1.995 . S
N173 C174 1.376 . S
N173 C177 1.383 . S
C174 N173 1.376 . S
C174 C175 1.446 . S
C174 C197 1.391 . S
C175 C174 1.446 . S
C175 C176 1.339 . S
C175 H204 0.949 . S
C176 C175 1.339 . S
C176 C177 1.439 . S
C176 H205 0.950 . S
C177 N173 1.383 . S
C177 C176 1.439 . S
C177 C195 1.392 . S
N178 Co162 2.282 . S
N178 C181 1.332 . S
N178 C183 1.332 . S
C179 C180 1.386 . S
C179 C182 1.388 . S
C180 C179 1.386 . S
C180 C181 1.382 . S
C180 H206 0.950 . S
C181 N178 1.332 . S
C181 C180 1.382 . S
C181 H192 0.952 . S
C182 C179 1.388 . S
C182 C183 1.382 . S
C182 H207 0.950 . S
C183 N178 1.332 . S
C183 C182 1.382 . S
C183 H193 0.948 . S
N184 Co162 2.282 . S
N184 C188 1.332 1_455 S
N184 C189 1.332 . S
C185 C186 1.388 . S
C185 C189 1.382 1_655 S
C185 H208 0.950 . S
C186 C185 1.388 . S
C186 C187 1.386 . S
C187 C186 1.386 . S
C187 C188 1.382 . S
C187 H209 0.950 . S
C188 N184 1.332 1_655 S
C188 C187 1.382 . S
C188 H190 0.952 . S
C189 N184 1.332 . S
C189 C185 1.382 1_455 S
C189 H191 0.948 . S
H190 C188 0.952 . S
H191 C189 0.948 . S
H192 C181 0.952 . S
H193 C183 0.948 . S
C194 C160 1.395 . S
C194 C164 1.391 1_455 S
C195 C157 1.389 . S
C195 C177 1.392 . S
C196 C167 1.392 . S
C196 C169 1.389 1_655 S
C197 C172 1.395 . S
C197 C174 1.391 . S
H198 C158 0.951 . S
H199 C159 0.950 . S
H200 C165 0.949 . S
H201 C166 0.950 . S
H202 C170 0.951 1_655 S
H203 C171 0.950 . S
H204 C175 0.949 . S
H205 C176 0.950 . S
H206 C180 0.950 . S
H207 C182 0.950 . S
H208 C185 0.950 . S
H209 C187 0.950 . S
C210 C211 1.443 . S
C210 N214 1.376 . S
C210 C248 1.389 . S
C211 C210 1.443 . S
C211 C212 1.340 . S
C211 H251 0.951 . S
C212 C211 1.340 . S
C212 C213 1.439 1_565 S
C212 H252 0.950 . S
C213 C212 1.439 1_545 S
C213 N214 1.374 1_545 S
C213 C247 1.395 . S
N214 C210 1.376 . S
N214 C213 1.374 1_565 S
N214 Co215 2.008 1_565 S
Co215 N214 2.008 1_545 S
Co215 N216 1.995 . S
Co215 N221 2.008 . S
Co215 N226 1.995 1_545 S
Co215 N231 2.282 . S
Co215 N237 2.282 1_545 S
N216 Co215 1.995 . S
N216 C217 1.376 . S
N216 C220 1.383 . S
C217 N216 1.376 . S
C217 C218 1.446 . S
C217 C247 1.391 . S
C218 C217 1.446 . S
C218 C219 1.339 . S
C218 H253 0.949 . S
C219 C218 1.339 . S
C219 C220 1.439 . S
C219 H254 0.950 . S
C220 N216 1.383 . S
C220 C219 1.439 . S
C220 C249 1.392 . S
N221 Co215 2.008 . S
N221 C222 1.376 . S
N221 C225 1.374 . S
C222 N221 1.376 . S
C222 C223 1.443 . S
C222 C249 1.389 . S
C223 C222 1.443 . S
C223 C224 1.340 . S
C223 H255 0.951 . S
C224 C223 1.340 . S
C224 C225 1.439 . S
C224 H256 0.950 1_455 S
C225 N221 1.374 . S
C225 C224 1.439 . S
C225 C250 1.395 1_545 S
N226 Co215 1.995 1_565 S
N226 C227 1.376 . S
N226 C230 1.383 . S
C227 N226 1.376 . S
C227 C228 1.446 . S
C227 C250 1.391 . S
C228 C227 1.446 . S
C228 C229 1.339 . S
C228 H257 0.949 1_455 S
C229 C228 1.339 . S
C229 C230 1.439 . S
C229 H258 0.950 . S
C230 N226 1.383 . S
C230 C229 1.439 . S
C230 C248 1.392 . S
N231 Co215 2.282 . S
N231 C234 1.332 . S
N231 C236 1.332 . S
C232 C233 1.386 . S
C232 C235 1.388 . S
C233 C232 1.386 . S
C233 C234 1.382 . S
C233 H259 0.950 . S
C234 N231 1.332 . S
C234 C233 1.382 . S
C234 H245 0.952 . S
C235 C232 1.388 . S
C235 C236 1.382 . S
C235 H260 0.950 . S
C236 N231 1.332 . S
C236 C235 1.382 . S
C236 H246 0.948 . S
N237 Co215 2.282 1_565 S
N237 C241 1.332 . S
N237 C242 1.332 . S
C238 C239 1.388 . S
C238 C242 1.382 . S
C238 H261 0.950 . S
C239 C238 1.388 . S
C239 C240 1.386 . S
C240 C239 1.386 . S
C240 C241 1.382 . S
C240 H262 0.950 . S
C241 N237 1.332 . S
C241 C240 1.382 . S
C241 H243 0.952 . S
C242 N237 1.332 . S
C242 C238 1.382 . S
C242 H244 0.948 . S
H243 C241 0.952 . S
H244 C242 0.948 . S
H245 C234 0.952 . S
H246 C236 0.948 . S
C247 C213 1.395 . S
C247 C217 1.391 . S
C248 C210 1.389 . S
C248 C230 1.392 . S
C249 C220 1.392 . S
C249 C222 1.389 . S
C250 C225 1.395 1_565 S
C250 C227 1.391 . S
H251 C211 0.951 . S
H252 C212 0.950 . S
H253 C218 0.949 . S
H254 C219 0.950 . S
H255 C223 0.951 . S
H256 C224 0.950 1_655 S
H257 C228 0.949 1_655 S
H258 C229 0.950 . S
H259 C233 0.950 . S
H260 C235 0.950 . S
H261 C238 0.950 . S
H262 C240 0.950 . S
C263 C264 1.443 . S
C263 N267 1.376 . S
C263 C301 1.389 . S
C264 C263 1.443 . S
C264 C265 1.340 . S
C264 H304 0.951 . S
C265 C264 1.340 . S
C265 C266 1.439 . S
C265 H305 0.950 . S
C266 C265 1.439 . S
C266 N267 1.374 . S
C266 C300 1.395 . S
N267 C263 1.376 . S
N267 C266 1.374 . S
N267 Co268 2.008 . S
Co268 N267 2.008 . S
Co268 N269 1.995 1_554 S
Co268 N274 2.008 . S
Co268 N279 1.995 . S
Co268 N284 2.282 1_554 S
Co268 N290 2.282 . S
N269 Co268 1.995 1_556 S
N269 C270 1.376 . S
N269 C273 1.383 . S
C270 N269 1.376 . S
C270 C271 1.446 . S
C270 C300 1.391 1_556 S
C271 C270 1.446 . S
C271 C272 1.339 . S
C271 H306 0.949 . S
C272 C271 1.339 . S
C272 C273 1.439 . S
C272 H307 0.950 . S
C273 N269 1.383 . S
C273 C272 1.439 . S
C273 C302 1.392 . S
N274 Co268 2.008 . S
N274 C275 1.376 1_554 S
N274 C278 1.374 . S
C275 N274 1.376 1_556 S
C275 C276 1.443 . S
C275 C302 1.389 . S
C276 C275 1.443 . S
C276 C277 1.340 . S
C276 H308 0.951 . S
C277 C276 1.340 . S
C277 C278 1.439 1_556 S
C277 H309 0.950 . S
C278 N274 1.374 . S
C278 C277 1.439 1_554 S
C278 C303 1.395 . S
N279 Co268 1.995 . S
N279 C280 1.376 . S
N279 C283 1.383 . S
C280 N279 1.376 . S
C280 C281 1.446 . S
C280 C303 1.391 . S
C281 C280 1.446 . S
C281 C282 1.339 . S
C281 H310 0.949 . S
C282 C281 1.339 . S
C282 C283 1.439 . S
C282 H311 0.950 . S
C283 N279 1.383 . S
C283 C282 1.439 . S
C283 C301 1.392 . S
N284 Co268 2.282 1_556 S
N284 C287 1.332 . S
N284 C289 1.332 . S
C285 C286 1.386 . S
C285 C288 1.388 . S
C286 C285 1.386 . S
C286 C287 1.382 . S
C286 H312 0.950 . S
C287 N284 1.332 . S
C287 C286 1.382 . S
C287 H298 0.952 1_556 S
C288 C285 1.388 . S
C288 C289 1.382 . S
C288 H313 0.950 . S
C289 N284 1.332 . S
C289 C288 1.382 . S
C289 H299 0.948 . S
N290 Co268 2.282 . S
N290 C294 1.332 . S
N290 C295 1.332 . S
C291 C292 1.388 . S
C291 C295 1.382 . S
C291 H314 0.950 . S
C292 C291 1.388 . S
C292 C293 1.386 . S
C293 C292 1.386 . S
C293 C294 1.382 . S
C293 H315 0.950 . S
C294 N290 1.332 . S
C294 C293 1.382 . S
C294 H296 0.952 . S
C295 N290 1.332 . S
C295 C291 1.382 . S
C295 H297 0.948 . S
H296 C294 0.952 . S
H297 C295 0.948 . S
H298 C287 0.952 1_554 S
H299 C289 0.948 . S
C300 C266 1.395 . S
C300 C270 1.391 1_554 S
C301 C263 1.389 . S
C301 C283 1.392 . S
C302 C273 1.392 . S
C302 C275 1.389 . S
C303 C278 1.395 . S
C303 C280 1.391 . S
H304 C264 0.951 . S
H305 C265 0.950 . S
H306 C271 0.949 . S
H307 C272 0.950 . S
H308 C276 0.951 . S
H309 C277 0.950 . S
H310 C281 0.949 . S
H311 C282 0.950 . S
H312 C286 0.950 . S
H313 C288 0.950 . S
H314 C291 0.950 . S
H315 C293 0.950 . S
C316 C317 1.443 . S
C316 N320 1.376 . S
C316 C354 1.389 . S
C317 C316 1.443 . S
C317 C318 1.340 . S
C317 H357 0.951 . S
C318 C317 1.340 . S
C318 C319 1.439 . S
C318 H358 0.950 . S
C319 C318 1.439 . S
C319 N320 1.374 . S
C319 C353 1.395 1_565 S
N320 C316 1.376 . S
N320 C319 1.374 . S
N320 Co321 2.008 1_565 S
Co321 N320 2.008 1_545 S
Co321 N322 1.995 . S
Co321 N327 2.008 . S
Co321 N332 1.995 1_545 S
Co321 N337 2.282 . S
Co321 N343 2.282 1_545 S
N322 Co321 1.995 . S
N322 C323 1.376 . S
N322 C326 1.383 . S
C323 N322 1.376 . S
C323 C324 1.446 . S
C323 C353 1.391 . S
C324 C323 1.446 . S
C324 C325 1.339 . S
C324 H359 0.949 . S
C325 C324 1.339 . S
C325 C326 1.439 . S
C325 H360 0.950 . S
C326 N322 1.383 . S
C326 C325 1.439 . S
C326 C355 1.392 . S
N327 Co321 2.008 . S
N327 C328 1.376 . S
N327 C331 1.374 . S
C328 N327 1.376 . S
C328 C329 1.443 . S
C328 C355 1.389 . S
C329 C328 1.443 . S
C329 C330 1.340 . S
C329 H361 0.951 . S
C330 C329 1.340 . S
C330 C331 1.439 . S
C330 H362 0.950 . S
C331 N327 1.374 . S
C331 C330 1.439 . S
C331 C356 1.395 1_545 S
N332 Co321 1.995 1_565 S
N332 C333 1.376 . S
N332 C336 1.383 . S
C333 N332 1.376 . S
C333 C334 1.446 . S
C333 C356 1.391 . S
C334 C333 1.446 . S
C334 C335 1.339 . S
C334 H363 0.949 . S
C335 C334 1.339 . S
C335 C336 1.439 . S
C335 H364 0.950 . S
C336 N332 1.383 . S
C336 C335 1.439 . S
C336 C354 1.392 . S
N337 Co321 2.282 . S
N337 C340 1.332 . S
N337 C342 1.332 . S
C338 C339 1.386 . S
C338 C341 1.388 . S
C339 C338 1.386 . S
C339 C340 1.382 . S
C339 H365 0.950 . S
C340 N337 1.332 . S
C340 C339 1.382 . S
C340 H351 0.952 . S
C341 C338 1.388 . S
C341 C342 1.382 . S
C341 H366 0.950 . S
C342 N337 1.332 . S
C342 C341 1.382 . S
C342 H352 0.948 . S
N343 Co321 2.282 1_565 S
N343 C347 1.332 . S
N343 C348 1.332 . S
C344 C345 1.388 . S
C344 C348 1.382 . S
C344 H367 0.950 . S
C345 C344 1.388 . S
C345 C346 1.386 . S
C346 C345 1.386 . S
C346 C347 1.382 . S
C346 H368 0.950 . S
C347 N343 1.332 . S
C347 C346 1.382 . S
C347 H349 0.952 . S
C348 N343 1.332 . S
C348 C344 1.382 . S
C348 H350 0.948 . S
H349 C347 0.952 . S
H350 C348 0.948 . S
H351 C340 0.952 . S
H352 C342 0.948 . S
C353 C319 1.395 1_545 S
C353 C323 1.391 . S
C354 C316 1.389 . S
C354 C336 1.392 . S
C355 C326 1.392 . S
C355 C328 1.389 . S
C356 C331 1.395 1_565 S
C356 C333 1.391 . S
H357 C317 0.951 . S
H358 C318 0.950 . S
H359 C324 0.949 . S
H360 C325 0.950 . S
H361 C329 0.951 . S
H362 C330 0.950 . S
H363 C334 0.949 . S
H364 C335 0.950 . S
H365 C339 0.950 . S
H366 C341 0.950 . S
H367 C344 0.950 . S
H368 C346 0.950 . S
C369 C370 1.443 . S
C369 N373 1.376 . S
C369 C407 1.389 . S
C370 C369 1.443 . S
C370 C371 1.340 . S
C370 H410 0.951 . S
C371 C370 1.340 . S
C371 C372 1.439 . S
C371 H411 0.950 . S
C372 C371 1.439 . S
C372 N373 1.374 . S
C372 C406 1.395 1_554 S
N373 C369 1.376 . S
N373 C372 1.374 . S
N373 Co374 2.008 . S
Co374 N373 2.008 . S
Co374 N375 1.995 1_554 S
Co374 N380 2.008 1_554 S
Co374 N385 1.995 . S
Co374 N390 2.282 1_554 S
Co374 N396 2.282 . S
N375 Co374 1.995 1_556 S
N375 C376 1.376 . S
N375 C379 1.383 . S
C376 N375 1.376 . S
C376 C377 1.446 . S
C376 C406 1.391 . S
C377 C376 1.446 . S
C377 C378 1.339 . S
C377 H412 0.949 . S
C378 C377 1.339 . S
C378 C379 1.439 . S
C378 H413 0.950 . S
C379 N375 1.383 . S
C379 C378 1.439 . S
C379 C408 1.392 . S
N380 Co374 2.008 1_556 S
N380 C381 1.376 . S
N380 C384 1.374 . S
C381 N380 1.376 . S
C381 C382 1.443 . S
C381 C408 1.389 . S
C382 C381 1.443 . S
C382 C383 1.340 . S
C382 H414 0.951 . S
C383 C382 1.340 . S
C383 C384 1.439 . S
C383 H415 0.950 . S
C384 N380 1.374 . S
C384 C383 1.439 . S
C384 C409 1.395 1_556 S
N385 Co374 1.995 . S
N385 C386 1.376 . S
N385 C389 1.383 . S
C386 N385 1.376 . S
C386 C387 1.446 . S
C386 C409 1.391 . S
C387 C386 1.446 . S
C387 C388 1.339 . S
C387 H416 0.949 . S
C388 C387 1.339 . S
C388 C389 1.439 . S
C388 H417 0.950 . S
C389 N385 1.383 . S
C389 C388 1.439 . S
C389 C407 1.392 . S
N390 Co374 2.282 1_556 S
N390 C393 1.332 . S
N390 C395 1.332 . S
C391 C392 1.386 . S
C391 C394 1.388 . S
C392 C391 1.386 . S
C392 C393 1.382 . S
C392 H418 0.950 . S
C393 N390 1.332 . S
C393 C392 1.382 . S
C393 H404 0.952 . S
C394 C391 1.388 . S
C394 C395 1.382 . S
C394 H419 0.950 . S
C395 N390 1.332 . S
C395 C394 1.382 . S
C395 H405 0.948 . S
N396 Co374 2.282 . S
N396 C400 1.332 . S
N396 C401 1.332 . S
C397 C398 1.388 . S
C397 C401 1.382 . S
C397 H420 0.950 . S
C398 C397 1.388 . S
C398 C399 1.386 . S
C399 C398 1.386 . S
C399 C400 1.382 . S
C399 H421 0.950 . S
C400 N396 1.332 . S
C400 C399 1.382 . S
C400 H402 0.952 . S
C401 N396 1.332 . S
C401 C397 1.382 . S
C401 H403 0.948 . S
H402 C400 0.952 . S
H403 C401 0.948 . S
H404 C393 0.952 . S
H405 C395 0.948 . S
C406 C372 1.395 1_556 S
C406 C376 1.391 . S
C407 C369 1.389 . S
C407 C389 1.392 . S
C408 C379 1.392 . S
C408 C381 1.389 . S
C409 C384 1.395 1_554 S
C409 C386 1.391 . S
H410 C370 0.951 . S
H411 C371 0.950 . S
H412 C377 0.949 . S
H413 C378 0.950 . S
H414 C382 0.951 . S
H415 C383 0.950 . S
H416 C387 0.949 . S
H417 C388 0.950 . S
H418 C392 0.950 . S
H419 C394 0.950 . S
H420 C397 0.950 . S
H421 C399 0.950 . S
C422 C423 1.363 . S
C422 C428 1.379 . S
C422 N430 1.356 . S
C423 C422 1.363 . S
C423 C429 1.363 . S
C424 C425 1.363 . S
C424 C429 1.379 . S
C424 N431 1.356 . S
C425 C424 1.363 . S
C425 C428 1.363 . S
N426 C428 1.356 . S
N426 H438 0.984 . S
N426 H439 0.985 . S
N427 C429 1.356 . S
N427 H432 0.984 . S
N427 H433 0.985 . S
C428 C422 1.379 . S
C428 C425 1.363 . S
C428 N426 1.356 . S
C429 C423 1.363 . S
C429 C424 1.379 . S
C429 N427 1.356 . S
N430 C422 1.356 . S
N430 H436 0.984 . S
N430 H437 0.984 . S
N431 C424 1.356 . S
N431 H434 0.984 . S
N431 H435 0.985 . S
H432 N427 0.984 . S
H433 N427 0.985 . S
H434 N431 0.984 . S
H435 N431 0.985 . S
H436 N430 0.984 . S
H437 N430 0.984 . S
H438 N426 0.984 . S
H439 N426 0.985 . S
C440 C441 1.363 . S
C440 C446 1.379 . S
C440 N448 1.356 . S
C441 C440 1.363 . S
C441 C447 1.363 . S
C442 C443 1.363 . S
C442 C447 1.379 . S
C442 N449 1.356 . S
C443 C442 1.363 . S
C443 C446 1.363 . S
N444 C446 1.356 . S
N444 H456 0.984 . S
N444 H457 0.985 . S
N445 C447 1.356 . S
N445 H450 0.984 . S
N445 H451 0.985 . S
C446 C440 1.379 . S
C446 C443 1.363 . S
C446 N444 1.356 . S
C447 C441 1.363 . S
C447 C442 1.379 . S
C447 N445 1.356 . S
N448 C440 1.356 . S
N448 H454 0.984 . S
N448 H455 0.984 . S
N449 C442 1.356 . S
N449 H452 0.984 . S
N449 H453 0.985 . S
H450 N445 0.984 . S
H451 N445 0.985 . S
H452 N449 0.984 . S
H453 N449 0.985 . S
H454 N448 0.984 . S
H455 N448 0.984 . S
H456 N444 0.984 . S
H457 N444 0.985 . S
C458 C459 1.363 . S
C458 C464 1.379 . S
C458 N466 1.356 . S
C459 C458 1.363 . S
C459 C465 1.363 . S
C460 C461 1.363 . S
C460 C465 1.379 . S
C460 N467 1.356 . S
C461 C460 1.363 . S
C461 C464 1.363 . S
N462 C464 1.356 . S
N462 H474 0.984 . S
N462 H475 0.985 . S
N463 C465 1.356 . S
N463 H468 0.984 . S
N463 H469 0.985 . S
C464 C458 1.379 . S
C464 C461 1.363 . S
C464 N462 1.356 . S
C465 C459 1.363 . S
C465 C460 1.379 . S
C465 N463 1.356 . S
N466 C458 1.356 . S
N466 H472 0.984 . S
N466 H473 0.984 . S
N467 C460 1.356 . S
N467 H470 0.984 . S
N467 H471 0.985 . S
H468 N463 0.984 . S
H469 N463 0.985 . S
H470 N467 0.984 . S
H471 N467 0.985 . S
H472 N466 0.984 . S
H473 N466 0.984 . S
H474 N462 0.984 . S
H475 N462 0.985 . S
C476 C477 1.363 . S
C476 C482 1.379 . S
C476 N484 1.356 . S
C477 C476 1.363 . S
C477 C483 1.363 . S
C478 C479 1.363 . S
C478 C483 1.379 . S
C478 N485 1.356 . S
C479 C478 1.363 . S
C479 C482 1.363 . S
N480 C482 1.356 . S
N480 H492 0.984 . S
N480 H493 0.985 1_655 S
N481 C483 1.356 . S
N481 H486 0.984 . S
N481 H487 0.985 . S
C482 C476 1.379 . S
C482 C479 1.363 . S
C482 N480 1.356 . S
C483 C477 1.363 . S
C483 C478 1.379 . S
C483 N481 1.356 . S
N484 C476 1.356 . S
N484 H490 0.984 . S
N484 H491 0.984 . S
N485 C478 1.356 . S
N485 H488 0.984 . S
N485 H489 0.985 . S
H486 N481 0.984 . S
H487 N481 0.985 . S
H488 N485 0.984 . S
H489 N485 0.985 . S
H490 N484 0.984 . S
H491 N484 0.984 . S
H492 N480 0.984 . S
H493 N480 0.985 1_455 S
C494 C495 1.363 . S
C494 C500 1.379 . S
C494 N502 1.356 . S
C495 C494 1.363 . S
C495 C501 1.363 . S
C496 C497 1.363 . S
C496 C501 1.379 . S
C496 N503 1.356 . S
C497 C496 1.363 . S
C497 C500 1.363 . S
N498 C500 1.356 . S
N498 H510 0.984 . S
N498 H511 0.985 . S
N499 C501 1.356 . S
N499 H504 0.984 . S
N499 H505 0.985 . S
C500 C494 1.379 . S
C500 C497 1.363 . S
C500 N498 1.356 . S
C501 C495 1.363 . S
C501 C496 1.379 . S
C501 N499 1.356 . S
N502 C494 1.356 . S
N502 H508 0.984 . S
N502 H509 0.984 . S
N503 C496 1.356 . S
N503 H506 0.984 . S
N503 H507 0.985 . S
H504 N499 0.984 . S
H505 N499 0.985 . S
H506 N503 0.984 . S
H507 N503 0.985 . S
H508 N502 0.984 . S
H509 N502 0.984 . S
H510 N498 0.984 . S
H511 N498 0.985 . S
C512 C513 1.363 . S
C512 C518 1.379 . S
C512 N520 1.356 . S
C513 C512 1.363 . S
C513 C519 1.363 . S
C514 C515 1.363 . S
C514 C519 1.379 . S
C514 N521 1.356 . S
C515 C514 1.363 . S
C515 C518 1.363 . S
N516 C518 1.356 . S
N516 H528 0.984 . S
N516 H529 0.985 . S
N517 C519 1.356 . S
N517 H522 0.984 . S
N517 H523 0.985 . S
C518 C512 1.379 . S
C518 C515 1.363 . S
C518 N516 1.356 . S
C519 C513 1.363 . S
C519 C514 1.379 . S
C519 N517 1.356 . S
N520 C512 1.356 . S
N520 H526 0.984 . S
N520 H527 0.984 . S
N521 C514 1.356 . S
N521 H524 0.984 . S
N521 H525 0.985 . S
H522 N517 0.984 . S
H523 N517 0.985 . S
H524 N521 0.984 . S
H525 N521 0.985 . S
H526 N520 0.984 . S
H527 N520 0.984 . S
H528 N516 0.984 . S
H529 N516 0.985 . S
C530 C531 1.363 . S
C530 C536 1.379 . S
C530 N538 1.356 . S
C531 C530 1.363 . S
C531 C537 1.363 . S
C532 C533 1.363 . S
C532 C537 1.379 . S
C532 N539 1.356 . S
C533 C532 1.363 . S
C533 C536 1.363 . S
N534 C536 1.356 . S
N534 H546 0.984 . S
N534 H547 0.985 . S
N535 C537 1.356 . S
N535 H540 0.984 . S
N535 H541 0.985 . S
C536 C530 1.379 . S
C536 C533 1.363 . S
C536 N534 1.356 . S
C537 C531 1.363 . S
C537 C532 1.379 . S
C537 N535 1.356 . S
N538 C530 1.356 . S
N538 H544 0.984 . S
N538 H545 0.984 . S
N539 C532 1.356 . S
N539 H542 0.984 . S
N539 H543 0.985 . S
H540 N535 0.984 . S
H541 N535 0.985 . S
H542 N539 0.984 . S
H543 N539 0.985 . S
H544 N538 0.984 . S
H545 N538 0.984 . S
H546 N534 0.984 . S
H547 N534 0.985 . S
C548 C549 1.363 . S
C548 C554 1.379 . S
C548 N556 1.356 . S
C549 C548 1.363 . S
C549 C555 1.363 . S
C550 C551 1.363 . S
C550 C555 1.379 . S
C550 N557 1.356 . S
C551 C550 1.363 . S
C551 C554 1.363 . S
N552 C554 1.356 . S
N552 H564 0.984 . S
N552 H565 0.985 . S
N553 C555 1.356 . S
N553 H558 0.984 . S
N553 H559 0.985 . S
C554 C548 1.379 . S
C554 C551 1.363 . S
C554 N552 1.356 . S
C555 C549 1.363 . S
C555 C550 1.379 . S
C555 N553 1.356 . S
N556 C548 1.356 . S
N556 H562 0.984 . S
N556 H563 0.984 . S
N557 C550 1.356 . S
N557 H560 0.984 . S
N557 H561 0.985 . S
H558 N553 0.984 . S
H559 N553 0.985 . S
H560 N557 0.984 . S
H561 N557 0.985 . S
H562 N556 0.984 . S
H563 N556 0.984 . S
H564 N552 0.984 . S
H565 N552 0.985 . S
C566 C567 1.363 . S
C566 C572 1.379 . S
C566 N574 1.356 . S
C567 C566 1.363 . S
C567 C573 1.363 . S
C568 C569 1.363 . S
C568 C573 1.379 . S
C568 N575 1.356 . S
C569 C568 1.363 . S
C569 C572 1.363 . S
N570 C572 1.356 . S
N570 H582 0.984 . S
N570 H583 0.985 . S
N571 C573 1.356 . S
N571 H576 0.984 . S
N571 H577 0.985 . S
C572 C566 1.379 . S
C572 C569 1.363 . S
C572 N570 1.356 . S
C573 C567 1.363 . S
C573 C568 1.379 . S
C573 N571 1.356 . S
N574 C566 1.356 . S
N574 H580 0.984 . S
N574 H581 0.984 . S
N575 C568 1.356 . S
N575 H578 0.984 . S
N575 H579 0.985 . S
H576 N571 0.984 . S
H577 N571 0.985 . S
H578 N575 0.984 . S
H579 N575 0.985 . S
H580 N574 0.984 . S
H581 N574 0.984 . S
H582 N570 0.984 . S
H583 N570 0.985 . S
C584 C585 1.363 . S
C584 C590 1.379 . S
C584 N592 1.356 . S
C585 C584 1.363 . S
C585 C591 1.363 . S
C586 C587 1.363 . S
C586 C591 1.379 . S
C586 N593 1.356 . S
C587 C586 1.363 . S
C587 C590 1.363 . S
N588 C590 1.356 . S
N588 H600 0.984 . S
N588 H601 0.985 . S
N589 C591 1.356 . S
N589 H594 0.984 . S
N589 H595 0.985 . S
C590 C584 1.379 . S
C590 C587 1.363 . S
C590 N588 1.356 . S
C591 C585 1.363 . S
C591 C586 1.379 . S
C591 N589 1.356 . S
N592 C584 1.356 . S
N592 H598 0.984 . S
N592 H599 0.984 . S
N593 C586 1.356 . S
N593 H596 0.984 . S
N593 H597 0.985 . S
H594 N589 0.984 . S
H595 N589 0.985 . S
H596 N593 0.984 . S
H597 N593 0.985 . S
H598 N592 0.984 . S
H599 N592 0.984 . S
H600 N588 0.984 . S
H601 N588 0.985 . S
C602 C603 1.363 . S
C602 C608 1.379 . S
C602 N610 1.356 . S
C603 C602 1.363 . S
C603 C609 1.363 . S
C604 C605 1.363 . S
C604 C609 1.379 . S
C604 N611 1.356 . S
C605 C604 1.363 . S
C605 C608 1.363 . S
N606 C608 1.356 . S
N606 H618 0.984 . S
N606 H619 0.985 . S
N607 C609 1.356 . S
N607 H612 0.984 . S
N607 H613 0.985 . S
C608 C602 1.379 . S
C608 C605 1.363 . S
C608 N606 1.356 . S
C609 C603 1.363 . S
C609 C604 1.379 . S
C609 N607 1.356 . S
N610 C602 1.356 . S
N610 H616 0.984 . S
N610 H617 0.984 . S
N611 C604 1.356 . S
N611 H614 0.984 . S
N611 H615 0.985 . S
H612 N607 0.984 . S
H613 N607 0.985 . S
H614 N611 0.984 . S
H615 N611 0.985 . S
H616 N610 0.984 . S
H617 N610 0.984 . S
H618 N606 0.984 . S
H619 N606 0.985 . S
C620 C621 1.363 . S
C620 C626 1.379 . S
C620 N628 1.356 . S
C621 C620 1.363 . S
C621 C627 1.363 . S
C622 C623 1.363 . S
C622 C627 1.379 . S
C622 N629 1.356 . S
C623 C622 1.363 . S
C623 C626 1.363 . S
N624 C626 1.356 . S
N624 H636 0.984 . S
N624 H637 0.985 . S
N625 C627 1.356 . S
N625 H630 0.984 . S
N625 H631 0.985 . S
C626 C620 1.379 . S
C626 C623 1.363 . S
C626 N624 1.356 . S
C627 C621 1.363 . S
C627 C622 1.379 . S
C627 N625 1.356 . S
N628 C620 1.356 . S
N628 H634 0.984 . S
N628 H635 0.984 . S
N629 C622 1.356 . S
N629 H632 0.984 . S
N629 H633 0.985 . S
H630 N625 0.984 . S
H631 N625 0.985 . S
H632 N629 0.984 . S
H633 N629 0.985 . S
H634 N628 0.984 . S
H635 N628 0.984 . S
H636 N624 0.984 . S
H637 N624 0.985 . S
C638 C639 1.363 . S
C638 C644 1.379 . S
C638 N646 1.356 . S
C639 C638 1.363 . S
C639 C645 1.363 . S
C640 C641 1.363 . S
C640 C645 1.379 . S
C640 N647 1.356 . S
C641 C640 1.363 . S
C641 C644 1.363 . S
N642 C644 1.356 . S
N642 H654 0.984 . S
N642 H655 0.985 . S
N643 C645 1.356 . S
N643 H648 0.984 . S
N643 H649 0.985 . S
C644 C638 1.379 . S
C644 C641 1.363 . S
C644 N642 1.356 . S
C645 C639 1.363 . S
C645 C640 1.379 . S
C645 N643 1.356 . S
N646 C638 1.356 . S
N646 H652 0.984 . S
N646 H653 0.984 . S
N647 C640 1.356 . S
N647 H650 0.984 . S
N647 H651 0.985 . S
H648 N643 0.984 . S
H649 N643 0.985 . S
H650 N647 0.984 . S
H651 N647 0.985 . S
H652 N646 0.984 . S
H653 N646 0.984 . S
H654 N642 0.984 . S
H655 N642 0.985 . S
C656 C657 1.363 . S
C656 C662 1.379 . S
C656 N664 1.356 . S
C657 C656 1.363 . S
C657 C663 1.363 . S
C658 C659 1.363 . S
C658 C663 1.379 . S
C658 N665 1.356 . S
C659 C658 1.363 . S
C659 C662 1.363 . S
N660 C662 1.356 . S
N660 H672 0.984 . S
N660 H673 0.985 . S
N661 C663 1.356 . S
N661 H666 0.984 . S
N661 H667 0.985 . S
C662 C656 1.379 . S
C662 C659 1.363 . S
C662 N660 1.356 . S
C663 C657 1.363 . S
C663 C658 1.379 . S
C663 N661 1.356 . S
N664 C656 1.356 . S
N664 H670 0.984 . S
N664 H671 0.984 . S
N665 C658 1.356 . S
N665 H668 0.984 . S
N665 H669 0.985 . S
H666 N661 0.984 . S
H667 N661 0.985 . S
H668 N665 0.984 . S
H669 N665 0.985 . S
H670 N664 0.984 . S
H671 N664 0.984 . S
H672 N660 0.984 . S
H673 N660 0.985 . S
C674 C675 1.363 . S
C674 C680 1.379 . S
C674 N682 1.356 . S
C675 C674 1.363 . S
C675 C681 1.363 . S
C676 C677 1.363 . S
C676 C681 1.379 . S
C676 N683 1.356 . S
C677 C676 1.363 . S
C677 C680 1.363 . S
N678 C680 1.356 . S
N678 H690 0.984 . S
N678 H691 0.985 . S
N679 C681 1.356 . S
N679 H684 0.984 . S
N679 H685 0.985 . S
C680 C674 1.379 . S
C680 C677 1.363 . S
C680 N678 1.356 . S
C681 C675 1.363 . S
C681 C676 1.379 . S
C681 N679 1.356 . S
N682 C674 1.356 . S
N682 H688 0.984 . S
N682 H689 0.984 . S
N683 C676 1.356 . S
N683 H686 0.984 . S
N683 H687 0.985 . S
H684 N679 0.984 . S
H685 N679 0.985 . S
H686 N683 0.984 . S
H687 N683 0.985 . S
H688 N682 0.984 . S
H689 N682 0.984 . S
H690 N678 0.984 . S
H691 N678 0.985 . S
C692 C693 1.363 . S
C692 C698 1.379 . S
C692 N700 1.356 . S
C693 C692 1.363 . S
C693 C699 1.363 . S
C694 C695 1.363 . S
C694 C699 1.379 . S
C694 N701 1.356 . S
C695 C694 1.363 . S
C695 C698 1.363 . S
N696 C698 1.356 . S
N696 H708 0.984 . S
N696 H709 0.985 . S
N697 C699 1.356 . S
N697 H702 0.984 . S
N697 H703 0.985 . S
C698 C692 1.379 . S
C698 C695 1.363 . S
C698 N696 1.356 . S
C699 C693 1.363 . S
C699 C694 1.379 . S
C699 N697 1.356 . S
N700 C692 1.356 . S
N700 H706 0.984 . S
N700 H707 0.984 . S
N701 C694 1.356 . S
N701 H704 0.984 . S
N701 H705 0.985 . S
H702 N697 0.984 . S
H703 N697 0.985 . S
H704 N701 0.984 . S
H705 N701 0.985 . S
H706 N700 0.984 . S
H707 N700 0.984 . S
H708 N696 0.984 . S
H709 N696 0.985 . S
C710 C711 1.363 . S
C710 C716 1.379 . S
C710 N718 1.356 . S
C711 C710 1.363 . S
C711 C717 1.363 . S
C712 C713 1.363 . S
C712 C717 1.379 . S
C712 N719 1.356 . S
C713 C712 1.363 . S
C713 C716 1.363 . S
N714 C716 1.356 . S
N714 H726 0.984 . S
N714 H727 0.985 . S
N715 C717 1.356 . S
N715 H720 0.984 . S
N715 H721 0.985 . S
C716 C710 1.379 . S
C716 C713 1.363 . S
C716 N714 1.356 . S
C717 C711 1.363 . S
C717 C712 1.379 . S
C717 N715 1.356 . S
N718 C710 1.356 . S
N718 H724 0.984 . S
N718 H725 0.984 . S
N719 C712 1.356 . S
N719 H722 0.984 . S
N719 H723 0.985 . S
H720 N715 0.984 . S
H721 N715 0.985 . S
H722 N719 0.984 . S
H723 N719 0.985 . S
H724 N718 0.984 . S
H725 N718 0.984 . S
H726 N714 0.984 . S
H727 N714 0.985 . S
C728 C729 1.363 . S
C728 C734 1.379 . S
C728 N736 1.356 . S
C729 C728 1.363 . S
C729 C735 1.363 . S
C730 C731 1.363 . S
C730 C735 1.379 . S
C730 N737 1.356 . S
C731 C730 1.363 . S
C731 C734 1.363 . S
N732 C734 1.356 . S
N732 H744 0.984 . S
N732 H745 0.985 . S
N733 C735 1.356 . S
N733 H738 0.984 . S
N733 H739 0.985 . S
C734 C728 1.379 . S
C734 C731 1.363 . S
C734 N732 1.356 . S
C735 C729 1.363 . S
C735 C730 1.379 . S
C735 N733 1.356 . S
N736 C728 1.356 . S
N736 H742 0.984 . S
N736 H743 0.984 . S
N737 C730 1.356 . S
N737 H740 0.984 . S
N737 H741 0.985 . S
H738 N733 0.984 . S
H739 N733 0.985 . S
H740 N737 0.984 . S
H741 N737 0.985 . S
H742 N736 0.984 . S
H743 N736 0.984 . S
H744 N732 0.984 . S
H745 N732 0.985 . S
C746 C747 1.363 . S
C746 C752 1.379 . S
C746 N754 1.356 . S
C747 C746 1.363 . S
C747 C753 1.363 . S
C748 C749 1.363 . S
C748 C753 1.379 . S
C748 N755 1.356 . S
C749 C748 1.363 . S
C749 C752 1.363 . S
N750 C752 1.356 . S
N750 H762 0.984 . S
N750 H763 0.985 . S
N751 C753 1.356 . S
N751 H756 0.984 . S
N751 H757 0.985 . S
C752 C746 1.379 . S
C752 C749 1.363 . S
C752 N750 1.356 . S
C753 C747 1.363 . S
C753 C748 1.379 . S
C753 N751 1.356 . S
N754 C746 1.356 . S
N754 H760 0.984 . S
N754 H761 0.984 . S
N755 C748 1.356 . S
N755 H758 0.984 . S
N755 H759 0.985 . S
H756 N751 0.984 . S
H757 N751 0.985 . S
H758 N755 0.984 . S
H759 N755 0.985 . S
H760 N754 0.984 . S
H761 N754 0.984 . S
H762 N750 0.984 . S
H763 N750 0.985 . S
C764 C765 1.363 . S
C764 C770 1.379 . S
C764 N772 1.356 . S
C765 C764 1.363 . S
C765 C771 1.363 . S
C766 C767 1.363 . S
C766 C771 1.379 . S
C766 N773 1.356 . S
C767 C766 1.363 . S
C767 C770 1.363 . S
N768 C770 1.356 . S
N768 H780 0.984 . S
N768 H781 0.985 . S
N769 C771 1.356 . S
N769 H774 0.984 . S
N769 H775 0.985 . S
C770 C764 1.379 . S
C770 C767 1.363 . S
C770 N768 1.356 . S
C771 C765 1.363 . S
C771 C766 1.379 . S
C771 N769 1.356 . S
N772 C764 1.356 . S
N772 H778 0.984 . S
N772 H779 0.984 . S
N773 C766 1.356 . S
N773 H776 0.984 . S
N773 H777 0.985 . S
H774 N769 0.984 . S
H775 N769 0.985 . S
H776 N773 0.984 . S
H777 N773 0.985 . S
H778 N772 0.984 . S
H779 N772 0.984 . S
H780 N768 0.984 . S
H781 N768 0.985 . S
C782 C783 1.363 . S
C782 C788 1.379 . S
C782 N790 1.356 . S
C783 C782 1.363 . S
C783 C789 1.363 . S
C784 C785 1.363 . S
C784 C789 1.379 . S
C784 N791 1.356 . S
C785 C784 1.363 . S
C785 C788 1.363 . S
N786 C788 1.356 . S
N786 H798 0.984 . S
N786 H799 0.985 . S
N787 C789 1.356 . S
N787 H792 0.984 . S
N787 H793 0.985 . S
C788 C782 1.379 . S
C788 C785 1.363 . S
C788 N786 1.356 . S
C789 C783 1.363 . S
C789 C784 1.379 . S
C789 N787 1.356 . S
N790 C782 1.356 . S
N790 H796 0.984 . S
N790 H797 0.984 . S
N791 C784 1.356 . S
N791 H794 0.984 . S
N791 H795 0.985 . S
H792 N787 0.984 . S
H793 N787 0.985 . S
H794 N791 0.984 . S
H795 N791 0.985 . S
H796 N790 0.984 . S
H797 N790 0.984 . S
H798 N786 0.984 . S
H799 N786 0.985 . S
C800 C801 1.363 . S
C800 C806 1.379 . S
C800 N808 1.356 . S
C801 C800 1.363 . S
C801 C807 1.363 . S
C802 C803 1.363 . S
C802 C807 1.379 . S
C802 N809 1.356 . S
C803 C802 1.363 . S
C803 C806 1.363 . S
N804 C806 1.356 . S
N804 H816 0.984 . S
N804 H817 0.985 . S
N805 C807 1.356 . S
N805 H810 0.984 . S
N805 H811 0.985 . S
C806 C800 1.379 . S
C806 C803 1.363 . S
C806 N804 1.356 . S
C807 C801 1.363 . S
C807 C802 1.379 . S
C807 N805 1.356 . S
N808 C800 1.356 . S
N808 H814 0.984 . S
N808 H815 0.984 . S
N809 C802 1.356 . S
N809 H812 0.984 . S
N809 H813 0.985 . S
H810 N805 0.984 . S
H811 N805 0.985 . S
H812 N809 0.984 . S
H813 N809 0.985 . S
H814 N808 0.984 . S
H815 N808 0.984 . S
H816 N804 0.984 . S
H817 N804 0.985 . S
C818 C819 1.363 . S
C818 C824 1.379 . S
C818 N826 1.356 . S
C819 C818 1.363 . S
C819 C825 1.363 . S
C820 C821 1.363 . S
C820 C825 1.379 . S
C820 N827 1.356 . S
C821 C820 1.363 . S
C821 C824 1.363 . S
N822 C824 1.356 . S
N822 H834 0.984 . S
N822 H835 0.985 . S
N823 C825 1.356 . S
N823 H828 0.984 . S
N823 H829 0.985 . S
C824 C818 1.379 . S
C824 C821 1.363 . S
C824 N822 1.356 . S
C825 C819 1.363 . S
C825 C820 1.379 . S
C825 N823 1.356 . S
N826 C818 1.356 . S
N826 H832 0.984 . S
N826 H833 0.984 . S
N827 C820 1.356 . S
N827 H830 0.984 . S
N827 H831 0.985 . S
H828 N823 0.984 . S
H829 N823 0.985 . S
H830 N827 0.984 . S
H831 N827 0.985 . S
H832 N826 0.984 . S
H833 N826 0.984 . S
H834 N822 0.984 . S
H835 N822 0.985 . S
C836 C837 1.363 . S
C836 C842 1.379 . S
C836 N844 1.356 . S
C837 C836 1.363 . S
C837 C843 1.363 . S
C838 C839 1.363 . S
C838 C843 1.379 . S
C838 N845 1.356 . S
C839 C838 1.363 . S
C839 C842 1.363 . S
N840 C842 1.356 . S
N840 H852 0.984 . S
N840 H853 0.985 . S
N841 C843 1.356 . S
N841 H846 0.984 . S
N841 H847 0.985 . S
C842 C836 1.379 . S
C842 C839 1.363 . S
C842 N840 1.356 . S
C843 C837 1.363 . S
C843 C838 1.379 . S
C843 N841 1.356 . S
N844 C836 1.356 . S
N844 H850 0.984 . S
N844 H851 0.984 . S
N845 C838 1.356 . S
N845 H848 0.984 . S
N845 H849 0.985 . S
H846 N841 0.984 . S
H847 N841 0.985 . S
H848 N845 0.984 . S
H849 N845 0.985 . S
H850 N844 0.984 . S
H851 N844 0.984 . S
H852 N840 0.984 . S
H853 N840 0.985 . S
C425 C126 1.807 . S
C423 C8 1.848 . S
C443 C195 1.692 . S
C441 C22 1.689 . S
C461 C133 1.740 . S
C459 C30 1.841 . S
C479 C196 1.394 . S
C477 C47 1.427 . S
C497 C249 1.804 . S
C495 C9 1.831 . S
C515 C285 1.687 . S
C513 C17 1.669 . S
C531 C34 1.641 . S
C533 C345 1.618 . S
C551 C408 1.512 . S
C549 C48 1.495 . S
C569 C248 1.841 . S
C567 C21 1.902 . S
C585 C35 1.774 . S
C587 C292 1.787 . S
C605 C338 1.396 . S
C603 C43 1.327 . S
C623 C407 1.569 . S
C621 C4 1.527 . S
C639 C56 1.563 . S
C641 C186 1.551 . S
C659 C143 1.732 . S
C657 C73 1.777 . S
C675 C87 1.721 . S
C677 C179 1.708 . S
C693 C100 1.946 . S
C695 C142 1.902 . S
C713 C354 1.652 . S
C711 C60 1.689 . S
C731 C398 1.456 . S
C729 C69 1.423 . S
C749 C232 1.856 . S
C747 C86 1.907 . S
C765 C95 1.476 . S
C767 C301 1.536 . S
C785 C355 1.677 . S
C783 C74 1.711 . S
C803 C391 1.440 . S
C801 C82 1.381 . S
C821 C239 1.925 . S
C819 C99 1.959 . S
C837 C61 1.653 . S
C839 C302 1.663 . S
