# Generated by pormake.
# Topology apo, (3,6)-cn, num edge types: 1
# Building blocks:
#     Node 0, Type 0, BuildingBlock: ESEHIV_clean_linker_0, # of connection points: 3
#     Node 1, Type 0, BuildingBlock: ESEHIV_clean_linker_0, # of connection points: 3
#     Node 2, Type 0, BuildingBlock: ESEHIV_clean_linker_0, # of connection points: 3
#     Node 3, Type 0, BuildingBlock: ESEHIV_clean_linker_0, # of connection points: 3
#     Node 4, Type 0, BuildingBlock: ESEHIV_clean_linker_0, # of connection points: 3
#     Node 5, Type 0, BuildingBlock: ESEHIV_clean_linker_0, # of connection points: 3
#     Node 6, Type 0, BuildingBlock: ESEHIV_clean_linker_0, # of connection points: 3
#     Node 7, Type 0, BuildingBlock: ESEHIV_clean_linker_0, # of connection points: 3
#     Node 8, Type 1, BuildingBlock: MIDCAF_clean_sbu_0, # of connection points: 6
#     Node 9, Type 1, BuildingBlock: MIDCAF_clean_sbu_0, # of connection points: 6
#     Node 10, Type 1, BuildingBlock: MIDCAF_clean_sbu_0, # of connection points: 6
#     Node 11, Type 1, BuildingBlock: MIDCAF_clean_sbu_0, # of connection points: 6
#     Edge 12, Type (0, 1), BuildingBlock: XIVTED_clean_linker_0, # of connection points: 2
#     Edge 13, Type (0, 1), BuildingBlock: XIVTED_clean_linker_0, # of connection points: 2
#     Edge 14, Type (0, 1), BuildingBlock: XIVTED_clean_linker_0, # of connection points: 2
#     Edge 15, Type (0, 1), BuildingBlock: XIVTED_clean_linker_0, # of connection points: 2
#     Edge 16, Type (0, 1), BuildingBlock: XIVTED_clean_linker_0, # of connection points: 2
#     Edge 17, Type (0, 1), BuildingBlock: XIVTED_clean_linker_0, # of connection points: 2
#     Edge 18, Type (0, 1), BuildingBlock: XIVTED_clean_linker_0, # of connection points: 2
#     Edge 19, Type (0, 1), BuildingBlock: XIVTED_clean_linker_0, # of connection points: 2
#     Edge 20, Type (0, 1), BuildingBlock: XIVTED_clean_linker_0, # of connection points: 2
#     Edge 21, Type (0, 1), BuildingBlock: XIVTED_clean_linker_0, # of connection points: 2
#     Edge 22, Type (0, 1), BuildingBlock: XIVTED_clean_linker_0, # of connection points: 2
#     Edge 23, Type (0, 1), BuildingBlock: XIVTED_clean_linker_0, # of connection points: 2
#     Edge 24, Type (0, 1), BuildingBlock: XIVTED_clean_linker_0, # of connection points: 2
#     Edge 25, Type (0, 1), BuildingBlock: XIVTED_clean_linker_0, # of connection points: 2
#     Edge 26, Type (0, 1), BuildingBlock: XIVTED_clean_linker_0, # of connection points: 2
#     Edge 27, Type (0, 1), BuildingBlock: XIVTED_clean_linker_0, # of connection points: 2
#     Edge 28, Type (0, 1), BuildingBlock: XIVTED_clean_linker_0, # of connection points: 2
#     Edge 29, Type (0, 1), BuildingBlock: XIVTED_clean_linker_0, # of connection points: 2
#     Edge 30, Type (0, 1), BuildingBlock: XIVTED_clean_linker_0, # of connection points: 2
#     Edge 31, Type (0, 1), BuildingBlock: XIVTED_clean_linker_0, # of connection points: 2
#     Edge 32, Type (0, 1), BuildingBlock: XIVTED_clean_linker_0, # of connection points: 2
#     Edge 33, Type (0, 1), BuildingBlock: XIVTED_clean_linker_0, # of connection points: 2
#     Edge 34, Type (0, 1), BuildingBlock: XIVTED_clean_linker_0, # of connection points: 2
#     Edge 35, Type (0, 1), BuildingBlock: XIVTED_clean_linker_0, # of connection points: 2
# Relax obj value: 0.086
# Max RMSD: 0.099
# Mean RMSD: 0.089
data_MOF--net-apo--node1-MIDCAF_clean_sbu_0--node2-ESEHIV_clean_linker_0--edge1-XIVTED_clean_linker_0
_symmetry_space_group_name_H-M    P1
_symmetry_Int_Tables_number       1
_symmetry_cell_setting            triclinic
loop_
_symmetry_equiv_pos_as_xyz
'x, y, z'
_cell_length_a     32.597939
_cell_length_b     39.323232
_cell_length_c     34.30264
_cell_angle_alpha  90.537673
_cell_angle_beta   89.96903
_cell_angle_gamma 90.03296
loop_
_atom_site_label
_atom_site_type_symbol
_atom_site_fract_x
_atom_site_fract_y
_atom_site_fract_z
_atom_type_partial_charge
H0 H 0.36908 0.38443 0.44407 0.0
H1 H 0.31789 0.35788 0.33214 0.0
H2 H 0.29804 0.29281 0.43013 0.0
C3 C 0.35129 0.36729 0.42583 0.0
C4 C 0.33471 0.33743 0.44193 0.0
C5 C 0.34509 0.37509 0.38626 0.0
C6 C 0.32207 0.35259 0.36284 0.0
C7 C 0.3053 0.32279 0.37831 0.0
C8 C 0.31178 0.31541 0.41784 0.0
H9 H 0.10906 0.12666 0.94179 0.0
H10 H 0.15324 0.15128 0.827 0.0
H11 H 0.18926 0.21203 0.9261 0.0
C12 C 0.12687 0.14266 0.92258 0.0
C13 C 0.14845 0.17044 0.93848 0.0
C14 C 0.12799 0.13552 0.88228 0.0
C15 C 0.15221 0.15614 0.85812 0.0
C16 C 0.17455 0.18362 0.87366 0.0
C17 C 0.17193 0.19099 0.91379 0.0
H18 H 0.88424 0.13842 0.58133 0.0
H19 H 0.8326 0.13983 0.69679 0.0
H20 H 0.7953 0.2143 0.61257 0.0
C21 C 0.86376 0.1494 0.60293 0.0
C22 C 0.83977 0.17747 0.59261 0.0
C23 C 0.86165 0.13552 0.64045 0.0
C24 C 0.83531 0.15065 0.66799 0.0
C25 C 0.81147 0.17919 0.65847 0.0
C26 C 0.8142 0.19282 0.62065 0.0
H27 H 0.60196 0.35613 0.12057 0.0
H28 H 0.68408 0.34507 0.21838 0.0
H29 H 0.68763 0.27373 0.12274 0.0
C30 C 0.62668 0.34314 0.13531 0.0
C31 C 0.64396 0.31435 0.11719 0.0
C32 C 0.64123 0.35524 0.17165 0.0
C33 C 0.67231 0.33659 0.19046 0.0
C34 C 0.68834 0.30664 0.17366 0.0
C35 C 0.6747 0.29622 0.1365 0.0
H36 H 0.63229 0.59173 0.57924 0.0
H37 H 0.69017 0.68954 0.58733 0.0
H38 H 0.69564 0.62006 0.68419 0.0
C39 C 0.6505 0.60999 0.59567 0.0
C40 C 0.66332 0.60214 0.63342 0.0
C41 C 0.65979 0.64134 0.57897 0.0
C42 C 0.68233 0.6655 0.6006 0.0
C43 C 0.6962 0.65784 0.63863 0.0
C44 C 0.68582 0.6262 0.65492 0.0
H45 H 0.88888 0.853 0.07618 0.0
H46 H 0.81475 0.86837 0.17894 0.0
H47 H 0.77112 0.80498 0.08477 0.0
C48 C 0.86099 0.84865 0.09259 0.0
C49 C 0.83028 0.82808 0.07606 0.0
C50 C 0.85576 0.86381 0.12961 0.0
C51 C 0.81977 0.85663 0.15065 0.0
C52 C 0.78927 0.83518 0.13505 0.0
C53 C 0.79433 0.82157 0.09721 0.0
H54 H 0.16213 0.86901 0.46356 0.0
H55 H 0.27551 0.81486 0.45294 0.0
H56 H 0.23934 0.88567 0.36384 0.0
C57 C 0.19016 0.86419 0.44741 0.0
C58 C 0.19693 0.88014 0.41152 0.0
C59 C 0.21879 0.84139 0.46268 0.0
C60 C 0.25437 0.83351 0.44147 0.0
C61 C 0.26186 0.84892 0.40514 0.0
C62 C 0.23318 0.87264 0.39088 0.0
H63 H 0.39026 0.61566 0.90065 0.0
H64 H 0.33735 0.64305 0.79035 0.0
H65 H 0.31728 0.70572 0.89278 0.0
C66 C 0.37143 0.63247 0.88328 0.0
C67 C 0.35402 0.66106 0.90113 0.0
C68 C 0.36582 0.62573 0.8434 0.0
C69 C 0.34225 0.64825 0.82109 0.0
C70 C 0.32457 0.67729 0.83867 0.0
C71 C 0.33111 0.68374 0.87873 0.0
Zn72 Zn 0.03737 0.14035 0.33878 0.0
Zn73 Zn 0.97437 0.13583 0.20925 0.0
Zn74 Zn 0.00661 0.13706 0.27336 0.0
C75 C 0.03958 0.17589 0.19656 0.0
C76 C 0.99449 0.06947 0.22185 0.0
O77 O 0.96347 0.16413 0.31441 0.0
O78 O 0.00334 0.17524 0.36484 0.0
C79 C 0.09663 0.16614 0.29115 0.0
O80 O 0.04736 0.1631 0.23026 0.0
O81 O 0.00448 0.17201 0.18178 0.0
O82 O 0.98728 0.08866 0.19343 0.0
O83 O 1.00018 0.08253 0.25603 0.0
O84 O 0.09368 0.15344 0.32463 0.0
O85 O 0.06587 0.16485 0.26761 0.0
O86 O 0.01862 0.08407 0.29334 0.0
O87 O 0.03039 0.09292 0.3559 0.0
C88 C 0.02606 0.07248 0.32766 0.0
O89 O 0.94505 0.16223 0.27731 0.0
O90 O 0.9167 0.14511 0.22215 0.0
C91 C 0.9691 0.17818 0.34816 0.0
C92 C 0.91368 0.16038 0.25447 0.0
Zn93 Zn 0.53469 0.30719 0.70942 0.0
Zn94 Zn 0.46253 0.34767 0.8311 0.0
Zn95 Zn 0.50067 0.32968 0.77151 0.0
C96 C 0.49172 0.40715 0.80263 0.0
C97 C 0.40355 0.3179 0.78648 0.0
O98 O 0.55337 0.29642 0.78855 0.0
O99 O 0.57079 0.27328 0.7319 0.0
C100 C 0.5513 0.37743 0.71503 0.0
O101 O 0.50186 0.38625 0.77513 0.0
O102 O 0.4767 0.39609 0.83391 0.0
O103 O 0.40587 0.33697 0.81611 0.0
O104 O 0.4361 0.31109 0.76645 0.0
O105 O 0.55981 0.35154 0.69449 0.0
O106 O 0.52769 0.37467 0.74489 0.0
O107 O 0.45439 0.30795 0.72899 0.0
O108 O 0.48954 0.29045 0.67753 0.0
C109 C 0.45556 0.29513 0.69418 0.0
O110 O 0.53179 0.30577 0.82311 0.0
O111 O 0.48758 0.31796 0.86992 0.0
C112 C 0.57566 0.27574 0.76823 0.0
C113 C 0.52024 0.30361 0.85901 0.0
Zn114 Zn 0.02838 0.84664 0.82259 0.0
Zn115 Zn 0.97325 0.84088 0.68457 0.0
Zn116 Zn 0.99897 0.84393 0.75449 0.0
C117 C 0.98007 0.9093 0.70113 0.0
C118 C 0.91204 0.81149 0.72884 0.0
O119 O 0.06062 0.81916 0.75393 0.0
O120 O 0.08512 0.83224 0.81221 0.0
C121 C 0.0131 0.91291 0.80545 0.0
O122 O 0.98807 0.89678 0.73488 0.0
O123 O 0.97534 0.88978 0.67209 0.0
O124 O 0.91855 0.82234 0.69494 0.0
O125 O 0.93942 0.8154 0.75567 0.0
O126 O 0.02031 0.89532 0.8352 0.0
O127 O 0.00575 0.89819 0.77243 0.0
O128 O 0.95478 0.8176 0.79438 0.0
O129 O 0.99179 0.81391 0.84808 0.0
C130 C 0.9591 0.80746 0.82983 0.0
O131 O 0.0459 0.8193 0.71548 0.0
O132 O 0.01418 0.81101 0.65934 0.0
C133 C 0.09011 0.81888 0.779 0.0
C134 C 0.04592 0.808 0.68001 0.0
Zn135 Zn 0.56063 0.64489 0.20256 0.0
Zn136 Zn 0.44214 0.65885 0.27125 0.0
Zn137 Zn 0.50445 0.65236 0.24477 0.0
C138 C 0.50324 0.64391 0.32874 0.0
C139 C 0.44752 0.59213 0.26885 0.0
O140 O 0.46966 0.64858 0.19262 0.0
O141 O 0.52426 0.65521 0.15596 0.0
C142 C 0.57657 0.70384 0.24628 0.0
O143 O 0.51389 0.62547 0.29905 0.0
O144 O 0.4731 0.66396 0.32461 0.0
O145 O 0.41985 0.61232 0.25748 0.0
O146 O 0.48435 0.60364 0.27299 0.0
O147 O 0.59463 0.68213 0.22504 0.0
O148 O 0.53916 0.69905 0.25635 0.0
O149 O 0.53065 0.60353 0.26589 0.0
O150 O 0.57433 0.59716 0.217 0.0
C151 C 0.55787 0.58564 0.2475 0.0
O152 O 0.49391 0.70492 0.26607 0.0
O153 O 0.43217 0.70164 0.24109 0.0
C154 C 0.48558 0.6537 0.15928 0.0
C155 C 0.46031 0.71968 0.2561 0.0
H156 H 0.17364 0.89049 0.33496 0.0
H157 H 0.01439 0.03669 0.39388 0.0
H158 H 0.14952 0.9259 0.45237 0.0
H159 H 0.06357 0.02719 0.27758 0.0
H160 H 0.0503 0.98489 0.41208 0.0
H161 H 0.12331 0.93159 0.31079 0.0
C162 C 0.15793 0.90683 0.3557 0.0
C163 C 0.16611 0.9046 0.39591 0.0
C164 C 0.05274 0.99373 0.38236 0.0
C165 C 0.10759 0.95087 0.36835 0.0
C166 C 0.03191 0.02312 0.37184 0.0
C167 C 0.03644 0.03644 0.33432 0.0
C168 C 0.07867 0.97759 0.35528 0.0
C169 C 0.05932 0.01774 0.30684 0.0
C170 C 0.12893 0.93002 0.34183 0.0
C171 C 0.144 0.92605 0.42127 0.0
N172 N 0.08031 0.98949 0.31807 0.0
N173 N 0.11591 0.94816 0.40708 0.0
H174 H 0.41022 0.61889 0.77499 0.0
H175 H 0.5131 0.45542 0.85518 0.0
H176 H 0.36548 0.56223 0.87347 0.0
H177 H 0.46624 0.44239 0.73851 0.0
H178 H 0.48667 0.51351 0.8562 0.0
H179 H 0.45183 0.56889 0.75532 0.0
C180 C 0.40861 0.59587 0.79201 0.0
C181 C 0.38502 0.59483 0.82634 0.0
C182 C 0.48353 0.4983 0.82985 0.0
C183 C 0.43287 0.53898 0.80487 0.0
C184 C 0.49874 0.46533 0.82917 0.0
C185 C 0.49115 0.44414 0.79699 0.0
C186 C 0.4604 0.50997 0.7983 0.0
C187 C 0.47239 0.45811 0.76393 0.0
C188 C 0.43248 0.56767 0.78094 0.0
C189 C 0.38401 0.56447 0.84741 0.0
N190 N 0.45642 0.49012 0.76576 0.0
N191 N 0.40816 0.53803 0.83674 0.0
H192 H 0.63194 0.58754 0.70574 0.0
H193 H 0.57904 0.39658 0.64385 0.0
H194 H 0.67038 0.54038 0.59768 0.0
H195 H 0.56624 0.43286 0.76227 0.0
H196 H 0.61036 0.45053 0.62638 0.0
H197 H 0.60662 0.53213 0.72788 0.0
C198 C 0.63559 0.56544 0.68698 0.0
C199 C 0.65275 0.56853 0.64966 0.0
C200 C 0.60059 0.44682 0.65621 0.0
C201 C 0.62347 0.50559 0.67435 0.0
C202 C 0.58259 0.41603 0.66617 0.0
C203 C 0.56916 0.41054 0.70441 0.0
C204 C 0.60524 0.47242 0.68468 0.0
C205 C 0.57473 0.43656 0.73218 0.0
C206 C 0.62095 0.53394 0.69949 0.0
C207 C 0.65658 0.53921 0.62636 0.0
N208 N 0.59223 0.46652 0.72175 0.0
N209 N 0.64172 0.50908 0.63894 0.0
H210 H 0.90317 0.90913 0.08898 0.0
H211 H 0.96462 0.02072 0.27145 0.0
H212 H 0.87913 0.87534 0.20635 0.0
H213 H 0.01419 0.03455 0.15613 0.0
H214 H 0.9396 0.96425 0.25127 0.0
H215 H 0.94915 0.95209 0.11482 0.0
C216 C 0.90798 0.91019 0.12018 0.0
C217 C 0.88672 0.88841 0.14536 0.0
C218 C 0.95688 0.97931 0.23073 0.0
C219 C 0.93893 0.93894 0.17552 0.0
C220 C 0.97146 0.01139 0.24236 0.0
C221 C 0.99086 0.03246 0.21517 0.0
C222 C 0.96166 0.96864 0.1917 0.0
C223 C 0.99873 0.0193 0.17778 0.0
C224 C 0.93425 0.93506 0.13502 0.0
C225 C 0.89391 0.892 0.18571 0.0
N226 N 0.9835 0.98856 0.16696 0.0
N227 N 0.91892 0.9171 0.19957 0.0
H228 H 0.8795 0.08122 0.59251 0.0
H229 H 0.95267 0.95634 0.75488 0.0
H230 H 0.89732 0.11781 0.71054 0.0
H231 H 0.98897 0.94519 0.63449 0.0
H232 H 0.9306 0.01472 0.74151 0.0
H233 H 0.91653 0.02976 0.6087 0.0
C234 C 0.89168 0.07883 0.62171 0.0
C235 C 0.88529 0.10427 0.65008 0.0
C236 C 0.94421 -0.00035 0.71829 0.0
C237 C 0.92681 0.04442 0.66913 0.0
C238 C 0.95719 0.9665 0.726 0.0
C239 C 0.97299 0.94602 0.69583 0.0
C240 C 0.94614 0.01187 0.67999 0.0
C241 C 0.97676 0.96005 0.65856 0.0
C242 C 0.9127 0.04922 0.63097 0.0
C243 C 0.90083 0.09879 0.6878 0.0
N244 N 0.9629 0.99191 0.65157 0.0
N245 N 0.92052 0.06928 0.69636 0.0
H246 H 0.60913 0.41117 0.13412 0.0
H247 H 0.62269 0.55238 0.28039 0.0
H248 H 0.63543 0.37429 0.25001 0.0
H249 H 0.50565 0.53658 0.22498 0.0
H250 H 0.63921 0.49188 0.2688 0.0
H251 H 0.58207 0.46311 0.16302 0.0
C252 C 0.60886 0.4134 0.16556 0.0
C253 C 0.62453 0.38748 0.18936 0.0
C254 C 0.60933 0.50151 0.2606 0.0
C255 C 0.59519 0.44835 0.22233 0.0
C256 C 0.59981 0.53578 0.26745 0.0
C257 C 0.56241 0.54905 0.25439 0.0
C258 C 0.5819 0.48117 0.23917 0.0
C259 C 0.53436 0.52698 0.2363 0.0
C260 C 0.59363 0.44339 0.18194 0.0
C261 C 0.6246 0.39341 0.23007 0.0
N262 N 0.5451 0.4943 0.22822 0.0
N263 N 0.61074 0.42344 0.24525 0.0
H264 H 0.42142 0.40384 0.39771 0.0
H265 H 0.37753 0.55743 0.25157 0.0
H266 H 0.30797 0.41836 0.33525 0.0
H267 H 0.49029 0.54876 0.31656 0.0
H268 H 0.35422 0.50397 0.27908 0.0
H269 H 0.44907 0.45508 0.36692 0.0
C270 C 0.40225 0.41787 0.37773 0.0
C271 C 0.36231 0.40665 0.36899 0.0
C272 C 0.38419 0.51353 0.28724 0.0
C273 C 0.39395 0.46499 0.3333 0.0
C274 C 0.39759 0.54408 0.27141 0.0
C275 C 0.43586 0.55766 0.28186 0.0
C276 C 0.40906 0.49633 0.31403 0.0
C277 C 0.46061 0.53913 0.30759 0.0
C278 C 0.41817 0.44695 0.35995 0.0
C279 C 0.3391 0.42564 0.34247 0.0
N280 N 0.44666 0.50948 0.32304 0.0
N281 N 0.35523 0.45375 0.32566 0.0
H282 H 0.05168 0.11232 0.90393 0.0
H283 H 0.0513 0.95517 0.75421 0.0
H284 H 0.14981 0.09214 0.82219 0.0
H285 H 0.98893 0.95422 0.86504 0.0
H286 H 0.07357 0.01383 0.76772 0.0
H287 H 0.01581 0.06192 0.87942 0.0
C288 C 0.06578 0.0974 0.88087 0.0
C289 C 0.1043 0.10636 0.86563 0.0
C290 C 0.05433 0.00095 0.78868 0.0
C291 C 0.06256 0.0492 0.83666 0.0
C292 C 0.04133 0.9677 0.78084 0.0
C293 C 0.01839 0.95001 0.80866 0.0
C294 C 0.04396 0.01648 0.8244 0.0
C295 C 0.00673 0.96708 0.84296 0.0
C296 C 0.04503 0.06882 0.86667 0.0
C297 C 0.12017 0.08651 0.8348 0.0
N298 N 0.01984 -0.00067 0.85 0.0
N299 N 0.09935 0.05878 0.82149 0.0
H300 H 0.12894 0.23094 0.97381 0.0
H301 H 0.11512 0.14797 0.1853 0.0
H302 H 0.16153 0.12728 0.99933 0.0
H303 H 0.03667 0.22897 0.14636 0.0
H304 H 0.15453 0.15242 0.12455 0.0
H305 H 0.1161 0.24107 0.04356 0.0
C306 C 0.13415 0.21054 0.99422 0.0
C307 C 0.1457 0.1781 0.98086 0.0
C308 C 0.12953 0.16998 0.12996 0.0
C309 C 0.13167 0.18959 0.06039 0.0
C310 C 0.10744 0.16781 0.16485 0.0
C311 C 0.0724 0.18793 0.17053 0.0
C312 C 0.11671 0.19278 0.10109 0.0
C313 C 0.06338 0.21288 0.14285 0.0
C314 C 0.12681 0.21631 0.0339 0.0
C315 C 0.15199 0.1525 1.00845 0.0
N316 N 0.08497 0.21426 0.109 0.0
N317 N 0.14463 0.15871 0.0469 0.0
H318 H 0.33208 0.37979 0.50633 0.0
H319 H 0.43486 0.24422 0.64396 0.0
H320 H 0.3532 0.27523 0.47277 0.0
H321 H 0.39583 0.34279 0.68516 0.0
H322 H 0.39421 0.25186 0.58499 0.0
H323 H 0.34739 0.36515 0.57405 0.0
C324 C 0.33983 0.35375 0.51319 0.0
C325 C 0.34176 0.3288 0.48365 0.0
C326 C 0.39347 0.27152 0.6073 0.0
C327 C 0.3589 0.31175 0.56128 0.0
C328 C 0.41624 0.26689 0.64127 0.0
C329 C 0.41876 0.29295 0.66934 0.0
C330 C 0.37393 0.30282 0.60091 0.0
C331 C 0.39451 0.32203 0.66424 0.0
C332 C 0.34814 0.34532 0.55195 0.0
C333 C 0.35117 0.29532 0.49447 0.0
N334 N 0.37398 0.32664 0.6301 0.0
N335 N 0.3598 0.2879 0.53222 0.0
H336 H 0.56613 0.29755 0.09588 0.0
H337 H 0.60361 0.30997 0.8696 0.0
H338 H 0.6886 0.30649 0.04985 0.0
H339 H 0.49482 0.26652 0.92033 0.0
H340 H 0.63852 0.30459 0.93292 0.0
H341 H 0.54106 0.28374 0.0305 0.0
C342 C 0.58774 0.29633 0.0719 0.0
C343 C 0.62936 0.30326 0.07811 0.0
C344 C 0.6074 0.2953 0.92982 0.0
C345 C 0.60098 0.28789 1.00289 0.0
C346 C 0.58768 0.29798 0.89356 0.0
C347 C 0.54618 0.28896 0.88993 0.0
C348 C 0.58517 0.28381 0.96237 0.0
C349 C 0.52674 0.27406 0.92204 0.0
C350 C 0.57355 0.28827 0.03458 0.0
C351 C 0.65623 0.30122 0.04612 0.0
N352 N 0.54606 0.27259 0.957 0.0
N353 N 0.64151 0.29425 1.00969 0.0
H354 H 0.87166 0.2369 0.56492 0.0
H355 H 0.88967 0.15576 0.35181 0.0
H356 H 0.81383 0.14358 0.52789 0.0
H357 H 0.97189 0.23127 0.3994 0.0
H358 H 0.8435 0.16521 0.4074 0.0
H359 H 0.89026 0.24824 0.49678 0.0
C360 C 0.86172 0.21944 0.54221 0.0
C361 C 0.84146 0.18923 0.55179 0.0
C362 C 0.87104 0.18047 0.40503 0.0
C363 C 0.86294 0.20161 0.47423 0.0
C364 C 0.89714 0.17536 0.37305 0.0
C365 C 0.93491 0.19237 0.37145 0.0
C366 C 0.88286 0.20285 0.43527 0.0
C367 C 0.94326 0.2173 0.39992 0.0
C368 C 0.87251 0.22575 0.50343 0.0
C369 C 0.82962 0.16711 0.52149 0.0
N370 N 0.91787 0.22135 0.43103 0.0
N371 N 0.841 0.17349 0.48414 0.0
H372 H 0.88376 0.77836 0.0549 0.0
H373 H 0.88064 0.83182 0.83396 0.0
H374 H 0.79261 0.8457 1.00794 0.0
H375 H 0.9609 0.7558 0.88149 0.0
H376 H 0.83748 0.82782 0.8924 0.0
H377 H 0.90292 0.76124 0.98865 0.0
C378 C 0.86728 0.789 0.03045 0.0
C379 C 0.83673 0.81344 0.03663 0.0
C380 C 0.86375 0.81115 0.88949 0.0
C381 C 0.85908 0.79483 0.96055 0.0
C382 C 0.88803 0.81306 0.8558 0.0
C383 C 0.9246 0.79439 0.85321 0.0
C384 C 0.87642 0.7905 0.92057 0.0
C385 C 0.93309 0.77085 0.88258 0.0
C386 C 0.87817 0.7793 0.9926 0.0
C387 C 0.81632 0.82669 1.00415 0.0
N388 N 0.90979 0.77012 0.91537 0.0
N389 N 0.82836 0.81769 0.96741 0.0
H390 H 0.67763 0.60487 0.51353 0.0
H391 H 0.49066 0.68334 0.39362 0.0
H392 H 0.60617 0.69018 0.55428 0.0
H393 H 0.56992 0.60462 0.34788 0.0
H394 H 0.53305 0.68663 0.45212 0.0
H395 H 0.641 0.6063 0.45135 0.0
C396 C 0.65483 0.62446 0.50889 0.0
C397 C 0.64497 0.64757 0.53887 0.0
C398 C 0.54119 0.66859 0.42937 0.0
C399 C 0.60195 0.64874 0.46829 0.0
C400 C 0.51676 0.66645 0.39602 0.0
C401 C 0.52654 0.64346 0.36583 0.0
C402 C 0.57572 0.64753 0.43278 0.0
C403 C 0.56103 0.62255 0.3705 0.0
C404 C 0.63367 0.62509 0.47356 0.0
C405 C 0.61492 0.67219 0.53169 0.0
N406 N 0.58434 0.62506 0.40334 0.0
N407 N 0.59408 0.67187 0.49727 0.0
H408 H 0.33154 0.62017 0.96099 0.0
H409 H 0.50518 0.69127 0.09612 0.0
H410 H 0.39485 0.71364 0.93595 0.0
H411 H 0.40763 0.63011 0.14364 0.0
H412 H 0.46494 0.69924 0.03707 0.0
H413 H 0.35699 0.6231 0.02823 0.0
C414 C 0.34999 0.64175 0.97009 0.0
C415 C 0.36124 0.66673 0.94317 0.0
C416 C 0.45206 0.68436 0.06051 0.0
C417 C 0.39133 0.66972 0.01927 0.0
C418 C 0.47517 0.67953 0.0941 0.0
C419 C 0.45988 0.65963 0.12458 0.0
C420 C 0.41367 0.66856 0.05685 0.0
C421 C 0.42056 0.64548 0.12067 0.0
C422 C 0.36452 0.64339 1.00833 0.0
C423 C 0.38542 0.69404 0.95602 0.0
N424 N 0.39901 0.64972 0.08703 0.0
N425 N 0.40036 0.69448 0.99303 0.0
H426 H 0.23547 0.86689 0.53486 0.0
H427 H 0.05559 0.75976 0.6234 0.0
H428 H 0.17936 0.78167 0.47601 0.0
H429 H 0.12241 0.83539 0.68925 0.0
H430 H 0.1109 0.7582 0.57546 0.0
H431 H 0.20513 0.84805 0.59645 0.0
C432 C 0.21779 0.84356 0.53532 0.0
C433 C 0.20989 0.82564 0.50065 0.0
C434 C 0.11417 0.7745 0.60088 0.0
C435 C 0.17405 0.80446 0.57042 0.0
C436 C 0.08267 0.77518 0.62843 0.0
C437 C 0.08428 0.79798 0.66007 0.0
C438 C 0.14703 0.79747 0.60445 0.0
C439 C 0.11998 0.81744 0.66524 0.0
C440 C 0.20031 0.83286 0.57036 0.0
C441 C 0.18625 0.79596 0.50234 0.0
N442 N 0.14949 0.81743 0.63712 0.0
N443 N 0.1686 0.78658 0.53653 0.0
H444 H 0.24495 0.33927 0.32596 0.0
H445 H 0.17487 0.14657 0.30365 0.0
H446 H 0.30928 0.25338 0.37376 0.0
H447 H 0.10268 0.23065 0.26258 0.0
H448 H 0.23289 0.18482 0.31347 0.0
H449 H 0.20055 0.30002 0.28946 0.0
C450 C 0.25011 0.31216 0.32833 0.0
C451 C 0.28046 0.29953 0.3534 0.0
C452 C 0.20477 0.19493 0.30143 0.0
C453 C 0.22984 0.25455 0.31174 0.0
C454 C 0.17181 0.17299 0.29539 0.0
C455 C 0.13401 0.18564 0.28264 0.0
C456 C 0.19958 0.22995 0.29553 0.0
C457 C 0.13144 0.22001 0.27247 0.0
C458 C 0.22473 0.28979 0.30753 0.0
C459 C 0.28571 0.26421 0.35545 0.0
N460 N 0.16354 0.24126 0.28008 0.0
N461 N 0.26047 0.24301 0.33518 0.0
H462 H 0.22985 0.16054 0.81941 0.0
H463 H 0.32766 0.34459 0.79624 0.0
H464 H 0.18132 0.25285 0.87023 0.0
H465 H 0.38983 0.25246 0.76148 0.0
H466 H 0.26468 0.31225 0.80554 0.0
H467 H 0.27973 0.19441 0.78291 0.0
C468 C 0.22926 0.18799 0.82236 0.0
C469 C 0.20182 0.20395 0.84827 0.0
C470 C 0.29178 0.2991 0.79509 0.0
C471 C 0.25861 0.24272 0.80666 0.0
C472 C 0.32764 0.31761 0.78946 0.0
C473 C 0.36403 0.30098 0.77878 0.0
C474 C 0.29248 0.2636 0.79066 0.0
C475 C 0.36237 0.26612 0.77001 0.0
C476 C 0.25776 0.20726 0.8016 0.0
C477 C 0.20245 0.23951 0.85113 0.0
N478 N 0.32733 0.24832 0.77709 0.0
N479 N 0.23059 0.25765 0.83084 0.0
H480 H 0.79793 0.24597 0.6788 0.0
H481 H 0.58865 0.20836 0.77818 0.0
H482 H 0.75807 0.14399 0.70447 0.0
H483 H 0.64711 0.30622 0.78702 0.0
H484 H 0.65481 0.18261 0.76259 0.0
H485 H 0.74673 0.26804 0.72489 0.0
C486 C 0.77854 0.22826 0.6943 0.0
C487 C 0.78202 0.19315 0.68757 0.0
C488 C 0.65367 0.20954 0.76939 0.0
C489 C 0.72356 0.21808 0.74047 0.0
C490 C 0.61594 0.2241 0.77915 0.0
C491 C 0.61252 0.25942 0.78366 0.0
C492 C 0.68776 0.23071 0.76318 0.0
C493 C 0.64862 0.27882 0.78377 0.0
C494 C 0.74967 0.2408 0.72096 0.0
C495 C 0.75652 0.17126 0.70885 0.0
N496 N 0.68459 0.26445 0.77211 0.0
N497 N 0.72803 0.18409 0.73388 0.0
H498 H 0.75606 0.32777 0.21552 0.0
H499 H 0.836 0.13845 0.24297 0.0
H500 H 0.68893 0.23765 0.18166 0.0
H501 H 0.90552 0.22624 0.27972 0.0
H502 H 0.77635 0.1746 0.2328 0.0
H503 H 0.8063 0.29184 0.24881 0.0
C504 C 0.75167 0.30046 0.21539 0.0
C505 C 0.71854 0.28565 0.19526 0.0
C506 C 0.80427 0.18605 0.24389 0.0
C507 C 0.77579 0.24444 0.23337 0.0
C508 C 0.83819 0.1653 0.25011 0.0
C509 C 0.87564 0.1795 0.26194 0.0
C510 C 0.80808 0.22143 0.24864 0.0
C511 C 0.87705 0.21439 0.27064 0.0
C512 C 0.78035 0.27998 0.23441 0.0
C513 C 0.71447 0.25014 0.196 0.0
N514 N 0.84396 0.2344 0.26292 0.0
N515 N 0.74283 0.23082 0.21446 0.0
H516 H 0.69029 0.72757 0.64415 0.0
H517 H 0.9022 0.74796 0.75971 0.0
H518 H 0.76308 0.64312 0.68411 0.0
H519 H 0.83581 0.8308 0.70808 0.0
H520 H 0.84362 0.71027 0.74597 0.0
H521 H 0.73658 0.7665 0.6786 0.0
C522 C 0.71593 0.71718 0.66018 0.0
C523 C 0.72285 0.68197 0.6609 0.0
C524 C 0.84145 0.73692 0.73858 0.0
C525 C 0.77586 0.72644 0.70091 0.0
C526 C 0.87463 0.75848 0.74698 0.0
C527 C 0.87372 0.79237 0.7348 0.0
C528 C 0.80743 0.74955 0.71793 0.0
C529 C 0.83762 0.80471 0.71777 0.0
C530 C 0.74219 0.73941 0.68016 0.0
C531 C 0.75621 0.67001 0.68291 0.0
N532 N 0.8062 0.78324 0.70931 0.0
N533 N 0.7816 0.69217 0.70171 0.0
H534 H 0.70807 0.8329 0.11356 0.0
H535 H 0.64639 0.71709 0.28635 0.0
H536 H 0.78833 0.81627 0.21148 0.0
H537 H 0.55613 0.76305 0.21205 0.0
H538 H 0.69623 0.75988 0.26628 0.0
H539 H 0.65023 0.81255 0.15261 0.0
C540 C 0.71342 0.82521 0.14337 0.0
C541 C 0.75311 0.82591 0.15915 0.0
C542 C 0.66513 0.76151 0.25536 0.0
C543 C 0.68718 0.80267 0.20404 0.0
C544 C 0.63651 0.73738 0.26737 0.0
C545 C 0.5972 0.73675 0.25093 0.0
C546 C 0.65462 0.78436 0.22573 0.0
C547 C 0.58613 0.76298 0.22563 0.0
C548 C 0.68036 0.81395 0.1658 0.0
C549 C 0.75824 0.81617 0.19814 0.0
N550 N 0.6151 0.78514 0.21277 0.0
N551 N 0.72582 0.80444 0.21901 0.0
H552 H 0.26696 0.84262 0.32549 0.0
H553 H 0.48034 0.74687 0.32727 0.0
H554 H 0.34034 0.8326 0.42957 0.0
H555 H 0.40927 0.76609 0.22391 0.0
H556 H 0.43758 0.7877 0.36328 0.0
H557 H 0.32484 0.8234 0.28675 0.0
C558 C 0.29542 0.83695 0.34032 0.0
C559 C 0.29838 0.83918 0.38114 0.0
C560 C 0.43212 0.78378 0.33243 0.0
C561 C 0.36515 0.81599 0.33646 0.0
C562 C 0.45697 0.76086 0.3117 0.0
C563 C 0.44797 0.75288 0.27266 0.0
C564 C 0.39818 0.79863 0.31385 0.0
C565 C 0.41695 0.77134 0.25408 0.0
C566 C 0.32859 0.82573 0.31802 0.0
C567 C 0.33615 0.83064 0.39835 0.0
N568 N 0.39267 0.7928 0.275 0.0
N569 N 0.36785 0.81904 0.37599 0.0
H570 H 0.32586 0.74664 0.83692 0.0
H571 H 0.10411 0.75865 0.7399 0.0
H572 H 0.26124 0.65983 0.78982 0.0
H573 H 0.16536 0.84025 0.80123 0.0
H574 H 0.16787 0.72524 0.74235 0.0
H575 H 0.2742 0.78396 0.80875 0.0
C576 C 0.30097 0.7355 0.82022 0.0
C577 C 0.29739 0.70013 0.81624 0.0
C578 C 0.16754 0.75076 0.75448 0.0
C579 C 0.23779 0.74262 0.78417 0.0
C580 C 0.13131 0.76986 0.75281 0.0
C581 C 0.12953 0.80194 0.77092 0.0
C582 C 0.20192 0.7641 0.7742 0.0
C583 C 0.16542 0.81535 0.78745 0.0
C584 C 0.2715 0.75678 0.80405 0.0
C585 C 0.26499 0.68701 0.79368 0.0
N586 N 0.19994 0.79625 0.7891 0.0
N587 N 0.23597 0.70824 0.77903 0.0
loop_
_geom_bond_atom_site_label_1
_geom_bond_atom_site_label_2
_geom_bond_distance
_geom_bond_site_symmetry_2
_ccdc_geom_bond_type
H0 C3 0.931 . S
H1 C6 0.928 . S
H2 C8 0.930 . S
C3 H0 0.931 . S
C3 C4 1.413 . S
C3 C5 1.360 . S
C4 C3 1.413 . S
C4 C8 1.429 . S
C5 C3 1.360 . S
C5 C6 1.372 . S
C6 H1 0.928 . S
C6 C5 1.372 . S
C6 C7 1.404 . S
C7 C6 1.404 . S
C7 C8 1.391 . S
C8 H2 0.930 . S
C8 C4 1.429 . S
C8 C7 1.391 . S
H9 C12 0.931 . S
H10 C15 0.928 . S
H11 C17 0.930 . S
C12 H9 0.931 . S
C12 C13 1.413 . S
C12 C14 1.360 . S
C13 C12 1.413 . S
C13 C17 1.429 . S
C14 C12 1.360 . S
C14 C15 1.372 . S
C15 H10 0.928 . S
C15 C14 1.372 . S
C15 C16 1.404 . S
C16 C15 1.404 . S
C16 C17 1.391 . S
C17 H11 0.930 . S
C17 C13 1.429 . S
C17 C16 1.391 . S
H18 C21 0.931 . S
H19 C24 0.928 . S
H20 C26 0.930 . S
C21 H18 0.931 . S
C21 C22 1.413 . S
C21 C23 1.360 . S
C22 C21 1.413 . S
C22 C26 1.429 . S
C23 C21 1.360 . S
C23 C24 1.372 . S
C24 H19 0.928 . S
C24 C23 1.372 . S
C24 C25 1.404 . S
C25 C24 1.404 . S
C25 C26 1.391 . S
C26 H20 0.930 . S
C26 C22 1.429 . S
C26 C25 1.391 . S
H27 C30 0.931 . S
H28 C33 0.928 . S
H29 C35 0.930 . S
C30 H27 0.931 . S
C30 C31 1.413 . S
C30 C32 1.360 . S
C31 C30 1.413 . S
C31 C35 1.429 . S
C32 C30 1.360 . S
C32 C33 1.372 . S
C33 H28 0.928 . S
C33 C32 1.372 . S
C33 C34 1.404 . S
C34 C33 1.404 . S
C34 C35 1.391 . S
C35 H29 0.930 . S
C35 C31 1.429 . S
C35 C34 1.391 . S
H36 C39 0.931 . S
H37 C42 0.928 . S
H38 C44 0.930 . S
C39 H36 0.931 . S
C39 C40 1.413 . S
C39 C41 1.360 . S
C40 C39 1.413 . S
C40 C44 1.429 . S
C41 C39 1.360 . S
C41 C42 1.372 . S
C42 H37 0.928 . S
C42 C41 1.372 . S
C42 C43 1.404 . S
C43 C42 1.404 . S
C43 C44 1.391 . S
C44 H38 0.930 . S
C44 C40 1.429 . S
C44 C43 1.391 . S
H45 C48 0.931 . S
H46 C51 0.928 . S
H47 C53 0.930 . S
C48 H45 0.931 . S
C48 C49 1.413 . S
C48 C50 1.360 . S
C49 C48 1.413 . S
C49 C53 1.429 . S
C50 C48 1.360 . S
C50 C51 1.372 . S
C51 H46 0.928 . S
C51 C50 1.372 . S
C51 C52 1.404 . S
C52 C51 1.404 . S
C52 C53 1.391 . S
C53 H47 0.930 . S
C53 C49 1.429 . S
C53 C52 1.391 . S
H54 C57 0.931 . S
H55 C60 0.928 . S
H56 C62 0.930 . S
C57 H54 0.931 . S
C57 C58 1.413 . S
C57 C59 1.360 . S
C58 C57 1.413 . S
C58 C62 1.429 . S
C59 C57 1.360 . S
C59 C60 1.372 . S
C60 H55 0.928 . S
C60 C59 1.372 . S
C60 C61 1.404 . S
C61 C60 1.404 . S
C61 C62 1.391 . S
C62 H56 0.930 . S
C62 C58 1.429 . S
C62 C61 1.391 . S
H63 C66 0.931 . S
H64 C69 0.928 . S
H65 C71 0.930 . S
C66 H63 0.931 . S
C66 C67 1.413 . S
C66 C68 1.360 . S
C67 C66 1.413 . S
C67 C71 1.429 . S
C68 C66 1.360 . S
C68 C69 1.372 . S
C69 H64 0.928 . S
C69 C68 1.372 . S
C69 C70 1.404 . S
C70 C69 1.404 . S
C70 C71 1.391 . S
C71 H65 0.930 . S
C71 C67 1.429 . S
C71 C70 1.391 . S
Zn72 O78 1.920 1_455 S
Zn72 O84 1.898 . S
Zn72 O87 1.905 . S
Zn73 O81 1.905 1_655 S
Zn73 O82 1.898 . S
Zn73 O90 1.920 . S
Zn74 O77 2.080 1_455 S
Zn74 O80 2.114 . S
Zn74 O83 2.120 1_455 S
Zn74 O85 2.120 . S
Zn74 O86 2.114 . S
Zn74 O89 2.080 1_455 S
C75 O80 1.166 . S
C75 O81 1.182 . S
C76 O82 1.167 . S
C76 O83 1.299 . S
O77 Zn74 2.080 1_655 S
O77 C91 1.305 . S
O78 Zn72 1.920 1_655 S
O78 C91 1.234 . S
C79 O84 1.167 . S
C79 O85 1.299 . S
O80 Zn74 2.114 . S
O80 C75 1.166 . S
O81 Zn73 1.905 1_455 S
O81 C75 1.182 . S
O82 Zn73 1.898 . S
O82 C76 1.167 . S
O83 Zn74 2.120 1_655 S
O83 C76 1.299 . S
O84 Zn72 1.898 . S
O84 C79 1.167 . S
O85 Zn74 2.120 . S
O85 C79 1.299 . S
O86 Zn74 2.114 . S
O86 C88 1.166 . S
O87 Zn72 1.905 . S
O87 C88 1.182 . S
C88 O86 1.166 . S
C88 O87 1.182 . S
O89 Zn74 2.080 1_655 S
O89 C92 1.305 . S
O90 Zn73 1.920 . S
O90 C92 1.234 . S
C91 O77 1.305 . S
C91 O78 1.234 . S
C92 O89 1.305 . S
C92 O90 1.234 . S
Zn93 O99 1.920 . S
Zn93 O105 1.898 . S
Zn93 O108 1.905 . S
Zn94 O102 1.905 . S
Zn94 O103 1.898 . S
Zn94 O111 1.920 . S
Zn95 O98 2.080 . S
Zn95 O101 2.114 . S
Zn95 O104 2.120 . S
Zn95 O106 2.120 . S
Zn95 O107 2.114 . S
Zn95 O110 2.080 . S
C96 O101 1.166 . S
C96 O102 1.182 . S
C97 O103 1.167 . S
C97 O104 1.299 . S
O98 Zn95 2.080 . S
O98 C112 1.305 . S
O99 Zn93 1.920 . S
O99 C112 1.234 . S
C100 O105 1.167 . S
C100 O106 1.299 . S
O101 Zn95 2.114 . S
O101 C96 1.166 . S
O102 Zn94 1.905 . S
O102 C96 1.182 . S
O103 Zn94 1.898 . S
O103 C97 1.167 . S
O104 Zn95 2.120 . S
O104 C97 1.299 . S
O105 Zn93 1.898 . S
O105 C100 1.167 . S
O106 Zn95 2.120 . S
O106 C100 1.299 . S
O107 Zn95 2.114 . S
O107 C109 1.166 . S
O108 Zn93 1.905 . S
O108 C109 1.182 . S
C109 O107 1.166 . S
C109 O108 1.182 . S
O110 Zn95 2.080 . S
O110 C113 1.305 . S
O111 Zn94 1.920 . S
O111 C113 1.234 . S
C112 O98 1.305 . S
C112 O99 1.234 . S
C113 O110 1.305 . S
C113 O111 1.234 . S
Zn114 O120 1.920 . S
Zn114 O126 1.898 . S
Zn114 O129 1.905 1_455 S
Zn115 O123 1.905 . S
Zn115 O124 1.898 . S
Zn115 O132 1.920 1_655 S
Zn116 O119 2.080 . S
Zn116 O122 2.114 1_455 S
Zn116 O125 2.120 1_455 S
Zn116 O127 2.120 . S
Zn116 O128 2.114 1_455 S
Zn116 O131 2.080 . S
C117 O122 1.166 . S
C117 O123 1.182 . S
C118 O124 1.167 . S
C118 O125 1.299 . S
O119 Zn116 2.080 . S
O119 C133 1.305 . S
O120 Zn114 1.920 . S
O120 C133 1.234 . S
C121 O126 1.167 . S
C121 O127 1.299 . S
O122 Zn116 2.114 1_655 S
O122 C117 1.166 . S
O123 Zn115 1.905 . S
O123 C117 1.182 . S
O124 Zn115 1.898 . S
O124 C118 1.167 . S
O125 Zn116 2.120 1_655 S
O125 C118 1.299 . S
O126 Zn114 1.898 . S
O126 C121 1.167 . S
O127 Zn116 2.120 . S
O127 C121 1.299 . S
O128 Zn116 2.114 1_655 S
O128 C130 1.166 . S
O129 Zn114 1.905 1_655 S
O129 C130 1.182 . S
C130 O128 1.166 . S
C130 O129 1.182 . S
O131 Zn116 2.080 . S
O131 C134 1.305 . S
O132 Zn115 1.920 1_455 S
O132 C134 1.234 . S
C133 O119 1.305 . S
C133 O120 1.234 . S
C134 O131 1.305 . S
C134 O132 1.234 . S
Zn135 O141 1.920 . S
Zn135 O147 1.898 . S
Zn135 O150 1.905 . S
Zn136 O144 1.905 . S
Zn136 O145 1.898 . S
Zn136 O153 1.920 . S
Zn137 O140 2.080 . S
Zn137 O143 2.114 . S
Zn137 O146 2.120 . S
Zn137 O148 2.120 . S
Zn137 O149 2.114 . S
Zn137 O152 2.080 . S
C138 O143 1.166 . S
C138 O144 1.182 . S
C139 O145 1.167 . S
C139 O146 1.299 . S
O140 Zn137 2.080 . S
O140 C154 1.305 . S
O141 Zn135 1.920 . S
O141 C154 1.234 . S
C142 O147 1.167 . S
C142 O148 1.299 . S
O143 Zn137 2.114 . S
O143 C138 1.166 . S
O144 Zn136 1.905 . S
O144 C138 1.182 . S
O145 Zn136 1.898 . S
O145 C139 1.167 . S
O146 Zn137 2.120 . S
O146 C139 1.299 . S
O147 Zn135 1.898 . S
O147 C142 1.167 . S
O148 Zn137 2.120 . S
O148 C142 1.299 . S
O149 Zn137 2.114 . S
O149 C151 1.166 . S
O150 Zn135 1.905 . S
O150 C151 1.182 . S
C151 O149 1.166 . S
C151 O150 1.182 . S
O152 Zn137 2.080 . S
O152 C155 1.305 . S
O153 Zn136 1.920 . S
O153 C155 1.234 . S
C154 O140 1.305 . S
C154 O141 1.234 . S
C155 O152 1.305 . S
C155 O153 1.234 . S
H156 C162 0.930 . S
H157 C166 0.930 . S
H158 C171 0.929 . S
H159 C169 0.929 . S
H160 C164 0.929 . S
H161 C170 0.929 . S
C162 H156 0.930 . S
C162 C163 1.367 . S
C162 C170 1.378 . S
C163 C162 1.367 . S
C163 C171 1.433 . S
C164 H160 0.929 . S
C164 C166 1.378 . S
C164 C168 1.328 1_545 S
C165 C168 1.486 . S
C165 C170 1.350 . S
C165 N173 1.427 . S
C166 H157 0.930 . S
C166 C164 1.378 . S
C166 C167 1.367 . S
C167 C166 1.367 . S
C167 C169 1.433 . S
C168 C164 1.328 1_565 S
C168 C165 1.486 . S
C168 N172 1.428 . S
C169 H159 0.929 . S
C169 C167 1.433 . S
C169 N172 1.384 1_545 S
C170 H161 0.929 . S
C170 C162 1.378 . S
C170 C165 1.350 . S
C171 H158 0.929 . S
C171 C163 1.433 . S
C171 N173 1.384 . S
N172 C168 1.428 . S
N172 C169 1.384 1_565 S
N173 C165 1.427 . S
N173 C171 1.384 . S
H174 C180 0.930 . S
H175 C184 0.930 . S
H176 C189 0.929 . S
H177 C187 0.929 . S
H178 C182 0.929 . S
H179 C188 0.929 . S
C180 H174 0.930 . S
C180 C181 1.367 . S
C180 C188 1.378 . S
C181 C180 1.367 . S
C181 C189 1.433 . S
C182 H178 0.929 . S
C182 C184 1.378 . S
C182 C186 1.350 . S
C183 C186 1.463 . S
C183 C188 1.350 . S
C183 N191 1.427 . S
C184 H175 0.930 . S
C184 C182 1.378 . S
C184 C185 1.367 . S
C185 C184 1.367 . S
C185 C187 1.433 . S
C186 C182 1.350 . S
C186 C183 1.463 . S
C186 N190 1.427 . S
C187 H177 0.929 . S
C187 C185 1.433 . S
C187 N190 1.384 . S
C188 H179 0.929 . S
C188 C180 1.378 . S
C188 C183 1.350 . S
C189 H176 0.929 . S
C189 C181 1.433 . S
C189 N191 1.384 . S
N190 C186 1.427 . S
N190 C187 1.384 . S
N191 C183 1.427 . S
N191 C189 1.384 . S
H192 C198 0.930 . S
H193 C202 0.930 . S
H194 C207 0.929 . S
H195 C205 0.929 . S
H196 C200 0.929 . S
H197 C206 0.929 . S
C198 H192 0.930 . S
C198 C199 1.367 . S
C198 C206 1.378 . S
C199 C198 1.367 . S
C199 C207 1.433 . S
C200 H196 0.929 . S
C200 C202 1.378 . S
C200 C204 1.350 . S
C201 C204 1.463 . S
C201 C206 1.350 . S
C201 N209 1.427 . S
C202 H193 0.930 . S
C202 C200 1.378 . S
C202 C203 1.367 . S
C203 C202 1.367 . S
C203 C205 1.433 . S
C204 C200 1.350 . S
C204 C201 1.463 . S
C204 N208 1.427 . S
C205 H195 0.929 . S
C205 C203 1.433 . S
C205 N208 1.384 . S
C206 H197 0.929 . S
C206 C198 1.378 . S
C206 C201 1.350 . S
C207 H194 0.929 . S
C207 C199 1.433 . S
C207 N209 1.384 . S
N208 C204 1.427 . S
N208 C205 1.384 . S
N209 C201 1.427 . S
N209 C207 1.384 . S
H210 C216 0.930 . S
H211 C220 0.930 . S
H212 C225 0.929 . S
H213 C223 0.929 . S
H214 C218 0.929 1_565 S
H215 C224 0.929 . S
C216 H210 0.930 . S
C216 C217 1.367 . S
C216 C224 1.378 . S
C217 C216 1.367 . S
C217 C225 1.433 . S
C218 H214 0.929 1_545 S
C218 C220 1.378 . S
C218 C222 1.350 1_545 S
C219 C222 1.463 . S
C219 C224 1.350 . S
C219 N227 1.427 . S
C220 H211 0.930 . S
C220 C218 1.378 . S
C220 C221 1.367 . S
C221 C220 1.367 . S
C221 C223 1.433 . S
C222 C218 1.350 1_565 S
C222 C219 1.463 . S
C222 N226 1.427 1_565 S
C223 H213 0.929 . S
C223 C221 1.433 . S
C223 N226 1.384 . S
C224 H215 0.929 . S
C224 C216 1.378 . S
C224 C219 1.350 . S
C225 H212 0.929 . S
C225 C217 1.433 . S
C225 N227 1.384 . S
N226 C222 1.427 1_545 S
N226 C223 1.384 . S
N227 C219 1.427 . S
N227 C225 1.384 . S
H228 C234 0.930 . S
H229 C238 0.930 . S
H230 C243 0.929 . S
H231 C241 0.929 . S
H232 C236 0.929 . S
H233 C242 0.929 . S
C234 H228 0.930 . S
C234 C235 1.367 . S
C234 C242 1.378 . S
C235 C234 1.367 . S
C235 C243 1.433 . S
C236 H232 0.929 . S
C236 C238 1.378 1_545 S
C236 C240 1.350 . S
C237 C240 1.463 . S
C237 C242 1.350 . S
C237 N245 1.427 . S
C238 H229 0.930 . S
C238 C236 1.378 1_565 S
C238 C239 1.367 . S
C239 C238 1.367 . S
C239 C241 1.433 . S
C240 C236 1.350 . S
C240 C237 1.463 . S
C240 N244 1.427 1_545 S
C241 H231 0.929 . S
C241 C239 1.433 . S
C241 N244 1.384 . S
C242 H233 0.929 . S
C242 C234 1.378 . S
C242 C237 1.350 . S
C243 H230 0.929 . S
C243 C235 1.433 . S
C243 N245 1.384 . S
N244 C240 1.427 1_565 S
N244 C241 1.384 . S
N245 C237 1.427 . S
N245 C243 1.384 . S
H246 C252 0.930 . S
H247 C256 0.930 . S
H248 C261 0.929 . S
H249 C259 0.929 . S
H250 C254 0.929 . S
H251 C260 0.929 . S
C252 H246 0.930 . S
C252 C253 1.367 . S
C252 C260 1.378 . S
C253 C252 1.367 . S
C253 C261 1.433 . S
C254 H250 0.929 . S
C254 C256 1.378 . S
C254 C258 1.350 . S
C255 C258 1.463 . S
C255 C260 1.350 . S
C255 N263 1.427 . S
C256 H247 0.930 . S
C256 C254 1.378 . S
C256 C257 1.367 . S
C257 C256 1.367 . S
C257 C259 1.433 . S
C258 C254 1.350 . S
C258 C255 1.463 . S
C258 N262 1.427 . S
C259 H249 0.929 . S
C259 C257 1.433 . S
C259 N262 1.384 . S
C260 H251 0.929 . S
C260 C252 1.378 . S
C260 C255 1.350 . S
C261 H248 0.929 . S
C261 C253 1.433 . S
C261 N263 1.384 . S
N262 C258 1.427 . S
N262 C259 1.384 . S
N263 C255 1.427 . S
N263 C261 1.384 . S
H264 C270 0.930 . S
H265 C274 0.930 . S
H266 C279 0.929 . S
H267 C277 0.929 . S
H268 C272 0.929 . S
H269 C278 0.929 . S
C270 H264 0.930 . S
C270 C271 1.367 . S
C270 C278 1.378 . S
C271 C270 1.367 . S
C271 C279 1.433 . S
C272 H268 0.929 . S
C272 C274 1.378 . S
C272 C276 1.350 . S
C273 C276 1.463 . S
C273 C278 1.350 . S
C273 N281 1.427 . S
C274 H265 0.930 . S
C274 C272 1.378 . S
C274 C275 1.367 . S
C275 C274 1.367 . S
C275 C277 1.433 . S
C276 C272 1.350 . S
C276 C273 1.463 . S
C276 N280 1.427 . S
C277 H267 0.929 . S
C277 C275 1.433 . S
C277 N280 1.384 . S
C278 H269 0.929 . S
C278 C270 1.378 . S
C278 C273 1.350 . S
C279 H266 0.929 . S
C279 C271 1.433 . S
C279 N281 1.384 . S
N280 C276 1.427 . S
N280 C277 1.384 . S
N281 C273 1.427 . S
N281 C279 1.384 . S
H282 C288 0.930 . S
H283 C292 0.930 . S
H284 C297 0.929 . S
H285 C295 0.929 . S
H286 C290 0.929 . S
H287 C296 0.929 . S
C288 H282 0.930 . S
C288 C289 1.367 . S
C288 C296 1.378 . S
C289 C288 1.367 . S
C289 C297 1.433 . S
C290 H286 0.929 . S
C290 C292 1.378 . S
C290 C294 1.350 1_565 S
C291 C294 1.463 . S
C291 C296 1.350 . S
C291 N299 1.427 . S
C292 H283 0.930 . S
C292 C290 1.378 . S
C292 C293 1.367 . S
C293 C292 1.367 . S
C293 C295 1.433 . S
C294 C290 1.350 1_545 S
C294 C291 1.463 . S
C294 N298 1.427 1_545 S
C295 H285 0.929 . S
C295 C293 1.433 . S
C295 N298 1.384 . S
C296 H287 0.929 . S
C296 C288 1.378 . S
C296 C291 1.350 . S
C297 H284 0.929 . S
C297 C289 1.433 . S
C297 N299 1.384 . S
N298 C294 1.427 1_565 S
N298 C295 1.384 . S
N299 C291 1.427 . S
N299 C297 1.384 . S
H300 C306 0.930 . S
H301 C310 0.930 . S
H302 C315 0.929 . S
H303 C313 0.929 . S
H304 C308 0.929 . S
H305 C314 0.929 . S
C306 H300 0.930 . S
C306 C307 1.367 . S
C306 C314 1.378 1_556 S
C307 C306 1.367 . S
C307 C315 1.433 . S
C308 H304 0.929 . S
C308 C310 1.378 . S
C308 C312 1.350 . S
C309 C312 1.463 . S
C309 C314 1.350 . S
C309 N317 1.427 . S
C310 H301 0.930 . S
C310 C308 1.378 . S
C310 C311 1.367 . S
C311 C310 1.367 . S
C311 C313 1.433 . S
C312 C308 1.350 . S
C312 C309 1.463 . S
C312 N316 1.427 . S
C313 H303 0.929 . S
C313 C311 1.433 . S
C313 N316 1.384 . S
C314 H305 0.929 . S
C314 C306 1.378 1_554 S
C314 C309 1.350 . S
C315 H302 0.929 . S
C315 C307 1.433 . S
C315 N317 1.384 1_556 S
N316 C312 1.427 . S
N316 C313 1.384 . S
N317 C309 1.427 . S
N317 C315 1.384 1_554 S
H318 C324 0.930 . S
H319 C328 0.930 . S
H320 C333 0.929 . S
H321 C331 0.929 . S
H322 C326 0.929 . S
H323 C332 0.929 . S
C324 H318 0.930 . S
C324 C325 1.367 . S
C324 C332 1.378 . S
C325 C324 1.367 . S
C325 C333 1.433 . S
C326 H322 0.929 . S
C326 C328 1.378 . S
C326 C330 1.350 . S
C327 C330 1.463 . S
C327 C332 1.350 . S
C327 N335 1.427 . S
C328 H319 0.930 . S
C328 C326 1.378 . S
C328 C329 1.367 . S
C329 C328 1.367 . S
C329 C331 1.433 . S
C330 C326 1.350 . S
C330 C327 1.463 . S
C330 N334 1.427 . S
C331 H321 0.929 . S
C331 C329 1.433 . S
C331 N334 1.384 . S
C332 H323 0.929 . S
C332 C324 1.378 . S
C332 C327 1.350 . S
C333 H320 0.929 . S
C333 C325 1.433 . S
C333 N335 1.384 . S
N334 C330 1.427 . S
N334 C331 1.384 . S
N335 C327 1.427 . S
N335 C333 1.384 . S
H336 C342 0.930 . S
H337 C346 0.930 . S
H338 C351 0.929 . S
H339 C349 0.929 . S
H340 C344 0.929 . S
H341 C350 0.929 . S
C342 H336 0.930 . S
C342 C343 1.367 . S
C342 C350 1.378 1_554 S
C343 C342 1.367 . S
C343 C351 1.433 . S
C344 H340 0.929 . S
C344 C346 1.378 . S
C344 C348 1.350 . S
C345 C348 1.463 . S
C345 C350 1.350 . S
C345 N353 1.427 . S
C346 H337 0.930 . S
C346 C344 1.378 . S
C346 C347 1.367 . S
C347 C346 1.367 . S
C347 C349 1.433 . S
C348 C344 1.350 . S
C348 C345 1.463 . S
C348 N352 1.427 . S
C349 H339 0.929 . S
C349 C347 1.433 . S
C349 N352 1.384 . S
C350 H341 0.929 . S
C350 C342 1.378 1_556 S
C350 C345 1.350 . S
C351 H338 0.929 . S
C351 C343 1.433 . S
C351 N353 1.384 1_554 S
N352 C348 1.427 . S
N352 C349 1.384 . S
N353 C345 1.427 . S
N353 C351 1.384 1_556 S
H354 C360 0.930 . S
H355 C364 0.930 . S
H356 C369 0.929 . S
H357 C367 0.929 . S
H358 C362 0.929 . S
H359 C368 0.929 . S
C360 H354 0.930 . S
C360 C361 1.367 . S
C360 C368 1.378 . S
C361 C360 1.367 . S
C361 C369 1.433 . S
C362 H358 0.929 . S
C362 C364 1.378 . S
C362 C366 1.350 . S
C363 C366 1.463 . S
C363 C368 1.350 . S
C363 N371 1.427 . S
C364 H355 0.930 . S
C364 C362 1.378 . S
C364 C365 1.367 . S
C365 C364 1.367 . S
C365 C367 1.433 . S
C366 C362 1.350 . S
C366 C363 1.463 . S
C366 N370 1.427 . S
C367 H357 0.929 . S
C367 C365 1.433 . S
C367 N370 1.384 . S
C368 H359 0.929 . S
C368 C360 1.378 . S
C368 C363 1.350 . S
C369 H356 0.929 . S
C369 C361 1.433 . S
C369 N371 1.384 . S
N370 C366 1.427 . S
N370 C367 1.384 . S
N371 C363 1.427 . S
N371 C369 1.384 . S
H372 C378 0.930 . S
H373 C382 0.930 . S
H374 C387 0.929 . S
H375 C385 0.929 . S
H376 C380 0.929 . S
H377 C386 0.929 . S
C378 H372 0.930 . S
C378 C379 1.367 . S
C378 C386 1.378 1_554 S
C379 C378 1.367 . S
C379 C387 1.433 . S
C380 H376 0.929 . S
C380 C382 1.378 . S
C380 C384 1.350 . S
C381 C384 1.463 . S
C381 C386 1.350 . S
C381 N389 1.427 . S
C382 H373 0.930 . S
C382 C380 1.378 . S
C382 C383 1.367 . S
C383 C382 1.367 . S
C383 C385 1.433 . S
C384 C380 1.350 . S
C384 C381 1.463 . S
C384 N388 1.427 . S
C385 H375 0.929 . S
C385 C383 1.433 . S
C385 N388 1.384 . S
C386 H377 0.929 . S
C386 C378 1.378 1_556 S
C386 C381 1.350 . S
C387 H374 0.929 . S
C387 C379 1.433 . S
C387 N389 1.384 1_554 S
N388 C384 1.427 . S
N388 C385 1.384 . S
N389 C381 1.427 . S
N389 C387 1.384 1_556 S
H390 C396 0.930 . S
H391 C400 0.930 . S
H392 C405 0.929 . S
H393 C403 0.929 . S
H394 C398 0.929 . S
H395 C404 0.929 . S
C396 H390 0.930 . S
C396 C397 1.367 . S
C396 C404 1.378 . S
C397 C396 1.367 . S
C397 C405 1.433 . S
C398 H394 0.929 . S
C398 C400 1.378 . S
C398 C402 1.350 . S
C399 C402 1.463 . S
C399 C404 1.350 . S
C399 N407 1.427 . S
C400 H391 0.930 . S
C400 C398 1.378 . S
C400 C401 1.367 . S
C401 C400 1.367 . S
C401 C403 1.433 . S
C402 C398 1.350 . S
C402 C399 1.463 . S
C402 N406 1.427 . S
C403 H393 0.929 . S
C403 C401 1.433 . S
C403 N406 1.384 . S
C404 H395 0.929 . S
C404 C396 1.378 . S
C404 C399 1.350 . S
C405 H392 0.929 . S
C405 C397 1.433 . S
C405 N407 1.384 . S
N406 C402 1.427 . S
N406 C403 1.384 . S
N407 C399 1.427 . S
N407 C405 1.384 . S
H408 C414 0.930 . S
H409 C418 0.930 . S
H410 C423 0.929 . S
H411 C421 0.929 . S
H412 C416 0.929 . S
H413 C422 0.929 . S
C414 H408 0.930 . S
C414 C415 1.367 . S
C414 C422 1.378 1_556 S
C415 C414 1.367 . S
C415 C423 1.433 . S
C416 H412 0.929 . S
C416 C418 1.378 . S
C416 C420 1.350 . S
C417 C420 1.463 . S
C417 C422 1.350 . S
C417 N425 1.427 . S
C418 H409 0.930 . S
C418 C416 1.378 . S
C418 C419 1.367 . S
C419 C418 1.367 . S
C419 C421 1.433 . S
C420 C416 1.350 . S
C420 C417 1.463 . S
C420 N424 1.427 . S
C421 H411 0.929 . S
C421 C419 1.433 . S
C421 N424 1.384 . S
C422 H413 0.929 . S
C422 C414 1.378 1_554 S
C422 C417 1.350 . S
C423 H410 0.929 . S
C423 C415 1.433 . S
C423 N425 1.384 1_556 S
N424 C420 1.427 . S
N424 C421 1.384 . S
N425 C417 1.427 . S
N425 C423 1.384 1_554 S
H426 C432 0.930 . S
H427 C436 0.930 . S
H428 C441 0.929 . S
H429 C439 0.929 . S
H430 C434 0.929 . S
H431 C440 0.929 . S
C432 H426 0.930 . S
C432 C433 1.367 . S
C432 C440 1.378 . S
C433 C432 1.367 . S
C433 C441 1.433 . S
C434 H430 0.929 . S
C434 C436 1.378 . S
C434 C438 1.350 . S
C435 C438 1.463 . S
C435 C440 1.350 . S
C435 N443 1.427 . S
C436 H427 0.930 . S
C436 C434 1.378 . S
C436 C437 1.367 . S
C437 C436 1.367 . S
C437 C439 1.433 . S
C438 C434 1.350 . S
C438 C435 1.463 . S
C438 N442 1.427 . S
C439 H429 0.929 . S
C439 C437 1.433 . S
C439 N442 1.384 . S
C440 H431 0.929 . S
C440 C432 1.378 . S
C440 C435 1.350 . S
C441 H428 0.929 . S
C441 C433 1.433 . S
C441 N443 1.384 . S
N442 C438 1.427 . S
N442 C439 1.384 . S
N443 C435 1.427 . S
N443 C441 1.384 . S
H444 C450 0.930 . S
H445 C454 0.930 . S
H446 C459 0.929 . S
H447 C457 0.929 . S
H448 C452 0.929 . S
H449 C458 0.929 . S
C450 H444 0.930 . S
C450 C451 1.367 . S
C450 C458 1.378 . S
C451 C450 1.367 . S
C451 C459 1.433 . S
C452 H448 0.929 . S
C452 C454 1.378 . S
C452 C456 1.350 . S
C453 C456 1.463 . S
C453 C458 1.350 . S
C453 N461 1.427 . S
C454 H445 0.930 . S
C454 C452 1.378 . S
C454 C455 1.367 . S
C455 C454 1.367 . S
C455 C457 1.433 . S
C456 C452 1.350 . S
C456 C453 1.463 . S
C456 N460 1.427 . S
C457 H447 0.929 . S
C457 C455 1.433 . S
C457 N460 1.384 . S
C458 H449 0.929 . S
C458 C450 1.378 . S
C458 C453 1.350 . S
C459 H446 0.929 . S
C459 C451 1.433 . S
C459 N461 1.384 . S
N460 C456 1.427 . S
N460 C457 1.384 . S
N461 C453 1.427 . S
N461 C459 1.384 . S
H462 C468 0.930 . S
H463 C472 0.930 . S
H464 C477 0.929 . S
H465 C475 0.929 . S
H466 C470 0.929 . S
H467 C476 0.929 . S
C468 H462 0.930 . S
C468 C469 1.367 . S
C468 C476 1.378 . S
C469 C468 1.367 . S
C469 C477 1.433 . S
C470 H466 0.929 . S
C470 C472 1.378 . S
C470 C474 1.350 . S
C471 C474 1.463 . S
C471 C476 1.350 . S
C471 N479 1.427 . S
C472 H463 0.930 . S
C472 C470 1.378 . S
C472 C473 1.367 . S
C473 C472 1.367 . S
C473 C475 1.433 . S
C474 C470 1.350 . S
C474 C471 1.463 . S
C474 N478 1.427 . S
C475 H465 0.929 . S
C475 C473 1.433 . S
C475 N478 1.384 . S
C476 H467 0.929 . S
C476 C468 1.378 . S
C476 C471 1.350 . S
C477 H464 0.929 . S
C477 C469 1.433 . S
C477 N479 1.384 . S
N478 C474 1.427 . S
N478 C475 1.384 . S
N479 C471 1.427 . S
N479 C477 1.384 . S
H480 C486 0.930 . S
H481 C490 0.930 . S
H482 C495 0.929 . S
H483 C493 0.929 . S
H484 C488 0.929 . S
H485 C494 0.929 . S
C486 H480 0.930 . S
C486 C487 1.367 . S
C486 C494 1.378 . S
C487 C486 1.367 . S
C487 C495 1.433 . S
C488 H484 0.929 . S
C488 C490 1.378 . S
C488 C492 1.350 . S
C489 C492 1.463 . S
C489 C494 1.350 . S
C489 N497 1.427 . S
C490 H481 0.930 . S
C490 C488 1.378 . S
C490 C491 1.367 . S
C491 C490 1.367 . S
C491 C493 1.433 . S
C492 C488 1.350 . S
C492 C489 1.463 . S
C492 N496 1.427 . S
C493 H483 0.929 . S
C493 C491 1.433 . S
C493 N496 1.384 . S
C494 H485 0.929 . S
C494 C486 1.378 . S
C494 C489 1.350 . S
C495 H482 0.929 . S
C495 C487 1.433 . S
C495 N497 1.384 . S
N496 C492 1.427 . S
N496 C493 1.384 . S
N497 C489 1.427 . S
N497 C495 1.384 . S
H498 C504 0.930 . S
H499 C508 0.930 . S
H500 C513 0.929 . S
H501 C511 0.929 . S
H502 C506 0.929 . S
H503 C512 0.929 . S
C504 H498 0.930 . S
C504 C505 1.367 . S
C504 C512 1.378 . S
C505 C504 1.367 . S
C505 C513 1.433 . S
C506 H502 0.929 . S
C506 C508 1.378 . S
C506 C510 1.350 . S
C507 C510 1.463 . S
C507 C512 1.350 . S
C507 N515 1.427 . S
C508 H499 0.930 . S
C508 C506 1.378 . S
C508 C509 1.367 . S
C509 C508 1.367 . S
C509 C511 1.433 . S
C510 C506 1.350 . S
C510 C507 1.463 . S
C510 N514 1.427 . S
C511 H501 0.929 . S
C511 C509 1.433 . S
C511 N514 1.384 . S
C512 H503 0.929 . S
C512 C504 1.378 . S
C512 C507 1.350 . S
C513 H500 0.929 . S
C513 C505 1.433 . S
C513 N515 1.384 . S
N514 C510 1.427 . S
N514 C511 1.384 . S
N515 C507 1.427 . S
N515 C513 1.384 . S
H516 C522 0.930 . S
H517 C526 0.930 . S
H518 C531 0.929 . S
H519 C529 0.929 . S
H520 C524 0.929 . S
H521 C530 0.929 . S
C522 H516 0.930 . S
C522 C523 1.367 . S
C522 C530 1.378 . S
C523 C522 1.367 . S
C523 C531 1.433 . S
C524 H520 0.929 . S
C524 C526 1.378 . S
C524 C528 1.350 . S
C525 C528 1.463 . S
C525 C530 1.350 . S
C525 N533 1.427 . S
C526 H517 0.930 . S
C526 C524 1.378 . S
C526 C527 1.367 . S
C527 C526 1.367 . S
C527 C529 1.433 . S
C528 C524 1.350 . S
C528 C525 1.463 . S
C528 N532 1.427 . S
C529 H519 0.929 . S
C529 C527 1.433 . S
C529 N532 1.384 . S
C530 H521 0.929 . S
C530 C522 1.378 . S
C530 C525 1.350 . S
C531 H518 0.929 . S
C531 C523 1.433 . S
C531 N533 1.384 . S
N532 C528 1.427 . S
N532 C529 1.384 . S
N533 C525 1.427 . S
N533 C531 1.384 . S
H534 C540 0.930 . S
H535 C544 0.930 . S
H536 C549 0.929 . S
H537 C547 0.929 . S
H538 C542 0.929 . S
H539 C548 0.929 . S
C540 H534 0.930 . S
C540 C541 1.367 . S
C540 C548 1.378 . S
C541 C540 1.367 . S
C541 C549 1.433 . S
C542 H538 0.929 . S
C542 C544 1.378 . S
C542 C546 1.350 . S
C543 C546 1.463 . S
C543 C548 1.350 . S
C543 N551 1.427 . S
C544 H535 0.930 . S
C544 C542 1.378 . S
C544 C545 1.367 . S
C545 C544 1.367 . S
C545 C547 1.433 . S
C546 C542 1.350 . S
C546 C543 1.463 . S
C546 N550 1.427 . S
C547 H537 0.929 . S
C547 C545 1.433 . S
C547 N550 1.384 . S
C548 H539 0.929 . S
C548 C540 1.378 . S
C548 C543 1.350 . S
C549 H536 0.929 . S
C549 C541 1.433 . S
C549 N551 1.384 . S
N550 C546 1.427 . S
N550 C547 1.384 . S
N551 C543 1.427 . S
N551 C549 1.384 . S
H552 C558 0.930 . S
H553 C562 0.930 . S
H554 C567 0.929 . S
H555 C565 0.929 . S
H556 C560 0.929 . S
H557 C566 0.929 . S
C558 H552 0.930 . S
C558 C559 1.367 . S
C558 C566 1.378 . S
C559 C558 1.367 . S
C559 C567 1.433 . S
C560 H556 0.929 . S
C560 C562 1.378 . S
C560 C564 1.350 . S
C561 C564 1.463 . S
C561 C566 1.350 . S
C561 N569 1.427 . S
C562 H553 0.930 . S
C562 C560 1.378 . S
C562 C563 1.367 . S
C563 C562 1.367 . S
C563 C565 1.433 . S
C564 C560 1.350 . S
C564 C561 1.463 . S
C564 N568 1.427 . S
C565 H555 0.929 . S
C565 C563 1.433 . S
C565 N568 1.384 . S
C566 H557 0.929 . S
C566 C558 1.378 . S
C566 C561 1.350 . S
C567 H554 0.929 . S
C567 C559 1.433 . S
C567 N569 1.384 . S
N568 C564 1.427 . S
N568 C565 1.384 . S
N569 C561 1.427 . S
N569 C567 1.384 . S
H570 C576 0.930 . S
H571 C580 0.930 . S
H572 C585 0.929 . S
H573 C583 0.929 . S
H574 C578 0.929 . S
H575 C584 0.929 . S
C576 H570 0.930 . S
C576 C577 1.367 . S
C576 C584 1.378 . S
C577 C576 1.367 . S
C577 C585 1.433 . S
C578 H574 0.929 . S
C578 C580 1.378 . S
C578 C582 1.350 . S
C579 C582 1.463 . S
C579 C584 1.350 . S
C579 N587 1.427 . S
C580 H571 0.930 . S
C580 C578 1.378 . S
C580 C581 1.367 . S
C581 C580 1.367 . S
C581 C583 1.433 . S
C582 C578 1.350 . S
C582 C579 1.463 . S
C582 N586 1.427 . S
C583 H573 0.929 . S
C583 C581 1.433 . S
C583 N586 1.384 . S
C584 H575 0.929 . S
C584 C576 1.378 . S
C584 C579 1.350 . S
C585 H572 0.929 . S
C585 C577 1.433 . S
C585 N587 1.384 . S
N586 C582 1.427 . S
N586 C583 1.384 . S
N587 C579 1.427 . S
N587 C585 1.384 . S
C163 C58 1.384 . S
C167 C88 1.298 . S
C185 C96 1.302 . S
C181 C68 1.388 . S
C203 C100 1.287 . S
C199 C40 1.380 . S
C217 C50 1.378 . S
C221 C76 1.309 . S
C239 C117 1.321 . S
C235 C23 1.379 . S
C257 C151 1.318 . S
C253 C32 1.379 . S
C271 C5 1.382 . S
C275 C139 1.289 . S
C289 C14 1.376 . S
C293 C121 1.304 . S
C311 C75 1.286 . S
C307 C13 1.443 . S
C329 C109 1.279 . S
C325 C4 1.440 . S
C347 C113 1.290 . S
C343 C31 1.447 . S
C365 C91 1.279 . S
C361 C22 1.450 . S
C383 C130 1.288 . S
C379 C49 1.444 . S
C397 C41 1.446 . S
C401 C138 1.263 . S
C419 C154 1.288 . S
C415 C67 1.448 . S
C433 C59 1.448 . S
C437 C134 1.284 . S
C455 C79 1.322 . S
C451 C7 1.501 . S
C473 C97 1.301 . S
C469 C16 1.497 . S
C487 C25 1.494 . S
C491 C112 1.323 . S
C509 C92 1.308 . S
C505 C34 1.489 . S
C527 C118 1.300 . S
C523 C43 1.502 . S
C541 C52 1.503 . S
C545 C142 1.321 . S
C559 C61 1.493 . S
C563 C155 1.296 . S
C577 C70 1.496 . S
C581 C133 1.324 . S
