# Generated by pormake.
# Topology rtl, (3,6)-cn, num edge types: 1
# Building blocks:
#     Node 0, Type 0, BuildingBlock: KAKCAD_clean_linker_0, # of connection points: 3
#     Node 1, Type 0, BuildingBlock: KAKCAD_clean_linker_0, # of connection points: 3
#     Node 2, Type 0, BuildingBlock: KAKCAD_clean_linker_0, # of connection points: 3
#     Node 3, Type 0, BuildingBlock: KAKCAD_clean_linker_0, # of connection points: 3
#     Node 4, Type 1, BuildingBlock: KUMJIN_clean_sbu_1, # of connection points: 6
#     Node 5, Type 1, BuildingBlock: KUMJIN_clean_sbu_1, # of connection points: 6
#     Edge 6, Type (0, 1), BuildingBlock: UVAHIK_clean_linker_0, # of connection points: 2
#     Edge 7, Type (0, 1), BuildingBlock: UVAHIK_clean_linker_0, # of connection points: 2
#     Edge 8, Type (0, 1), BuildingBlock: UVAHIK_clean_linker_0, # of connection points: 2
#     Edge 9, Type (0, 1), BuildingBlock: UVAHIK_clean_linker_0, # of connection points: 2
#     Edge 10, Type (0, 1), BuildingBlock: UVAHIK_clean_linker_0, # of connection points: 2
#     Edge 11, Type (0, 1), BuildingBlock: UVAHIK_clean_linker_0, # of connection points: 2
#     Edge 12, Type (0, 1), BuildingBlock: UVAHIK_clean_linker_0, # of connection points: 2
#     Edge 13, Type (0, 1), BuildingBlock: UVAHIK_clean_linker_0, # of connection points: 2
#     Edge 14, Type (0, 1), BuildingBlock: UVAHIK_clean_linker_0, # of connection points: 2
#     Edge 15, Type (0, 1), BuildingBlock: UVAHIK_clean_linker_0, # of connection points: 2
#     Edge 16, Type (0, 1), BuildingBlock: UVAHIK_clean_linker_0, # of connection points: 2
#     Edge 17, Type (0, 1), BuildingBlock: UVAHIK_clean_linker_0, # of connection points: 2
# Relax obj value: 0.017
# Max RMSD: 0.086
# Mean RMSD: 0.053
data_MOF--net-rtl--node1-KUMJIN_clean_sbu_1--node2-KAKCAD_clean_linker_0--edge1-UVAHIK_clean_linker_0
_symmetry_space_group_name_H-M    P1
_symmetry_Int_Tables_number       1
_symmetry_cell_setting            triclinic
loop_
_symmetry_equiv_pos_as_xyz
'x, y, z'
_cell_length_a     49.280299
_cell_length_b     49.808742
_cell_length_c     42.737278
_cell_angle_alpha  82.22983
_cell_angle_beta   99.574495
_cell_angle_gamma 90.234419
loop_
_atom_site_label
_atom_site_type_symbol
_atom_site_fract_x
_atom_site_fract_y
_atom_site_fract_z
_atom_type_partial_charge
C0 C 0.19812 0.89019 0.90314 0.0
C1 C 0.18993 0.91754 0.89437 0.0
C2 C 0.2128 0.88115 0.93351 0.0
C3 C 0.21996 0.89924 0.95595 0.0
C4 C 0.21228 0.92674 0.9471 0.0
C5 C 0.19747 0.93582 0.91658 0.0
C6 C 0.23457 0.88896 0.98871 0.0
C7 C 0.25535 0.86896 0.993 0.0
C8 C 0.26718 0.85667 0.02373 0.0
C9 C 0.25881 0.86544 0.05061 0.0
C10 C 0.23823 0.88573 0.04691 0.0
C11 C 0.22631 0.89739 0.01581 0.0
C12 C 0.22797 0.89369 0.07528 0.0
C13 C 0.22406 0.87404 0.10099 0.0
C14 C 0.22118 0.92091 0.07646 0.0
C15 C 0.21059 0.92826 0.10255 0.0
C16 C 0.20669 0.90861 0.12819 0.0
C17 C 0.28654 0.83319 0.02735 0.0
C18 C 0.28059 0.8128 0.00759 0.0
C19 C 0.31058 0.83056 0.05061 0.0
C20 C 0.32831 0.80804 0.05383 0.0
C21 C 0.32196 0.78763 0.03424 0.0
C22 C 0.29804 0.79025 0.0111 0.0
C23 C 0.21363 0.88143 0.12717 0.0
H24 H 0.19314 0.87561 0.8865 0.0
H25 H 0.21803 0.85977 0.93962 0.0
H26 H 0.21768 0.94122 0.96377 0.0
H27 H 0.19141 0.95701 0.91068 0.0
H28 H 0.26209 0.86259 0.97222 0.0
H29 H 0.20956 0.91205 0.01265 0.0
H30 H 0.26779 0.85594 0.07437 0.0
H31 H 0.2285 0.85283 0.10062 0.0
H32 H 0.22424 0.93661 0.05728 0.0
H33 H 0.20578 0.94941 0.10283 0.0
H34 H 0.26209 0.814 0.98974 0.0
H35 H 0.31573 0.84598 0.06611 0.0
H36 H 0.21048 0.86576 0.14634 0.0
H37 H 0.29283 0.77476 0.99569 0.0
H38 H 0.34667 0.80629 0.07191 0.0
C39 C 0.61473 0.70635 0.69217 0.0
C40 C 0.61415 0.67797 0.69923 0.0
C41 C 0.62344 0.71845 0.66406 0.0
C42 C 0.63118 0.70237 0.64227 0.0
C43 C 0.63041 0.67402 0.64933 0.0
C44 C 0.62216 0.66196 0.67758 0.0
C45 C 0.63983 0.71484 0.612 0.0
C46 C 0.66013 0.73479 0.6122 0.0
C47 C 0.66956 0.74531 0.58373 0.0
C48 C 0.65778 0.73598 0.5549 0.0
C49 C 0.63758 0.71597 0.55424 0.0
C50 C 0.62864 0.70568 0.58297 0.0
C51 C 0.62677 0.70511 0.52376 0.0
C52 C 0.62271 0.72222 0.49427 0.0
C53 C 0.62136 0.67732 0.52376 0.0
C54 C 0.61237 0.66694 0.49505 0.0
C55 C 0.60891 0.68401 0.46563 0.0
C56 C 0.69245 0.76512 0.58391 0.0
C57 C 0.69517 0.78541 0.6042 0.0
C58 C 0.71177 0.76397 0.56325 0.0
C59 C 0.73243 0.7831 0.5619 0.0
C60 C 0.73481 0.80354 0.58168 0.0
C61 C 0.71632 0.80431 0.60327 0.0
C62 C 0.61409 0.71176 0.46556 0.0
H63 H 0.60874 0.71912 0.70856 0.0
H64 H 0.62375 0.74035 0.6591 0.0
H65 H 0.63644 0.66113 0.63308 0.0
H66 H 0.62171 0.64006 0.68232 0.0
H67 H 0.66939 0.74114 0.63477 0.0
H68 H 0.61275 0.69057 0.58282 0.0
H69 H 0.66478 0.74397 0.53285 0.0
H70 H 0.6261 0.74379 0.49328 0.0
H71 H 0.62471 0.66339 0.54585 0.0
H72 H 0.6088 0.6454 0.49581 0.0
H73 H 0.68065 0.78709 0.62029 0.0
H74 H 0.71111 0.74819 0.54806 0.0
H75 H 0.61122 0.72546 0.44327 0.0
H76 H 0.71781 0.81994 0.61879 0.0
H77 H 0.74676 0.78179 0.54547 0.0
C78 C 0.79192 0.09056 0.14219 0.0
C79 C 0.82085 0.08815 0.1487 0.0
C80 C 0.77823 0.10045 0.11141 0.0
C81 C 0.79311 0.10788 0.08632 0.0
C82 C 0.82193 0.10514 0.09268 0.0
C83 C 0.83561 0.09554 0.12344 0.0
C84 C 0.77881 0.11901 0.05373 0.0
C85 C 0.7578 0.13875 0.04968 0.0
C86 C 0.74506 0.1504 0.01888 0.0
C87 C 0.75368 0.14187 0.99193 0.0
C88 C 0.77497 0.12242 0.99556 0.0
C89 C 0.78711 0.11089 0.02654 0.0
C90 C 0.78547 0.11477 0.96725 0.0
C91 C 0.76737 0.11002 0.93953 0.0
C92 C 0.81395 0.11199 0.968 0.0
C93 C 0.82411 0.10404 0.94202 0.0
C94 C 0.80607 0.09867 0.91456 0.0
C95 C 0.724 0.17256 0.0152 0.0
C96 C 0.70538 0.17225 0.0369 0.0
C97 C 0.72333 0.19497 0.99113 0.0
C98 C 0.70525 0.21687 0.98956 0.0
C99 C 0.68762 0.21702 0.01222 0.0
C100 C 0.68755 0.19427 0.03554 0.0
C101 C 0.77758 0.10205 0.91343 0.0
H102 H 0.77975 0.08468 0.16079 0.0
H103 H 0.75597 0.10206 0.10716 0.0
H104 H 0.83403 0.1111 0.07401 0.0
H105 H 0.85788 0.09461 0.12748 0.0
H106 H 0.75227 0.14589 0.07067 0.0
H107 H 0.80309 0.09542 0.02951 0.0
H108 H 0.74425 0.15077 0.96808 0.0
H109 H 0.74532 0.11185 0.93829 0.0
H110 H 0.82848 0.11612 0.98868 0.0
H111 H 0.84619 0.10226 0.94339 0.0
H112 H 0.70479 0.15511 0.05527 0.0
H113 H 0.73754 0.19618 0.97423 0.0
H114 H 0.76313 0.0979 0.8927 0.0
H115 H 0.67385 0.19361 0.05299 0.0
H116 H 0.70591 0.23421 0.97145 0.0
C117 C 0.37559 0.318 0.34473 0.0
C118 C 0.40325 0.3255 0.34601 0.0
C119 C 0.36637 0.30514 0.3721 0.0
C120 C 0.38464 0.29951 0.40125 0.0
C121 C 0.41248 0.30616 0.40218 0.0
C122 C 0.42167 0.31903 0.37489 0.0
C123 C 0.37453 0.28809 0.43104 0.0
C124 C 0.35537 0.26709 0.43096 0.0
C125 C 0.34528 0.25691 0.45908 0.0
C126 C 0.35499 0.26786 0.48744 0.0
C127 C 0.37408 0.28889 0.48801 0.0
C128 C 0.3836 0.29893 0.45959 0.0
C129 C 0.38345 0.3008 0.51808 0.0
C130 C 0.36524 0.30322 0.53964 0.0
C131 C 0.41058 0.30979 0.52558 0.0
C132 C 0.41915 0.32108 0.55377 0.0
C133 C 0.40095 0.3232 0.57548 0.0
C134 C 0.32381 0.23568 0.45895 0.0
C135 C 0.30247 0.2356 0.43254 0.0
C136 C 0.32343 0.21637 0.48618 0.0
C137 C 0.30153 0.19867 0.48775 0.0
C138 C 0.27986 0.19933 0.46184 0.0
C139 C 0.28082 0.21743 0.4339 0.0
C140 C 0.37397 0.31383 0.56809 0.0
H141 H 0.36086 0.32292 0.32289 0.0
H142 H 0.34474 0.30051 0.3707 0.0
H143 H 0.42716 0.30162 0.42414 0.0
H144 H 0.44322 0.32405 0.37646 0.0
H145 H 0.34861 0.25848 0.40908 0.0
H146 H 0.39743 0.31589 0.45936 0.0
H147 H 0.34735 0.26021 0.50918 0.0
H148 H 0.34404 0.29711 0.53455 0.0
H149 H 0.42534 0.30797 0.5098 0.0
H150 H 0.43997 0.32836 0.55828 0.0
H151 H 0.30182 0.25029 0.41129 0.0
H152 H 0.33983 0.21516 0.50662 0.0
H153 H 0.35941 0.31445 0.58435 0.0
H154 H 0.26422 0.21833 0.41366 0.0
H155 H 0.30135 0.18461 0.5094 0.0
Eu156 Eu 0.02255 0.97305 0.50304 0.0
C157 C 0.96155 0.08682 0.49917 0.0
N158 N 0.98661 0.07808 0.51575 0.0
C159 C 0.00503 0.12223 0.50418 0.0
C160 C 0.95736 0.11385 0.48418 0.0
C161 C 0.00822 0.09528 0.51861 0.0
C162 C 0.9795 0.13157 0.48686 0.0
C163 C 0.91387 0.07714 0.47971 0.0
C164 C 0.94006 0.0686 0.49691 0.0
C165 C 0.90964 0.10405 0.46481 0.0
C166 C 0.93131 0.12234 0.46706 0.0
Eu167 Eu 0.98956 0.03275 0.5407 0.0
N168 N 0.94479 0.04254 0.51133 0.0
C169 C 0.8926 0.05843 0.47821 0.0
C170 C 0.92377 0.02467 0.5112 0.0
C171 C 0.89754 0.03215 0.49424 0.0
H172 H 0.0277 0.08844 0.53282 0.0
H173 H 0.88103 0.01774 0.494 0.0
H174 H 0.98166 0.91918 0.51006 0.0
H175 H 0.13106 0.984 0.55288 0.0
H176 H 0.92678 0.00493 0.52481 0.0
H177 H 0.8722 0.0642 0.46527 0.0
H178 H 0.08596 0.99874 0.52134 0.0
H179 H 0.0222 0.13584 0.50667 0.0
H180 H 0.88965 0.11094 0.45156 0.0
H181 H 0.9277 0.14305 0.45547 0.0
H182 H 0.98495 0.87178 0.53641 0.0
H183 H 0.97707 0.1525 0.47578 0.0
H184 H 0.1378 0.93717 0.58107 0.0
N185 N 0.02326 0.92776 0.52773 0.0
C186 C 0.04783 0.91804 0.54481 0.0
C187 C 0.00273 0.88461 0.5391 0.0
C188 C 0.05069 0.89099 0.55996 0.0
C189 C 1.00086 0.91155 0.5245 0.0
C190 C 0.02774 0.87428 0.55692 0.0
N191 N 0.06665 0.96146 0.5331 0.0
C192 C 0.08826 0.97865 0.53426 0.0
C193 C 0.09578 0.92581 0.56536 0.0
C194 C 0.07015 0.93529 0.54749 0.0
C195 C 0.11778 0.94369 0.56758 0.0
C196 C 0.11403 0.97018 0.55181 0.0
H197 H 0.02914 0.85337 0.56815 0.0
H198 H 0.07882 0.86076 0.58939 0.0
H199 H 0.11826 0.89121 0.59412 0.0
O200 O 0.04449 0.97784 0.46132 0.0
O201 O 0.02889 0.96983 0.55761 0.0
O202 O 0.03047 0.01436 0.56589 0.0
O203 O 0.01763 0.94347 0.46988 0.0
O204 O 0.03829 0.0158 0.49168 0.0
O205 O 0.03426 0.0379 0.53501 0.0
O206 O 0.96741 0.02842 0.58215 0.0
O207 O 0.98419 0.03708 0.48609 0.0
O208 O 0.98208 0.99264 0.4784 0.0
O209 O 0.99467 0.06247 0.57377 0.0
O210 O 0.97527 0.98936 0.55303 0.0
O211 O 0.97769 0.96958 0.50788 0.0
C212 C 0.03581 0.98864 0.57608 0.0
C213 C 0.03873 0.94486 0.42257 0.0
C214 C 0.06273 0.94449 0.37703 0.0
C215 C 0.04522 0.92413 0.36633 0.0
C216 C 0.0216 0.92432 0.41136 0.0
C217 C 0.02488 0.91407 0.38347 0.0
C218 C 0.05959 0.95487 0.40535 0.0
C219 C 0.04547 0.03498 0.5097 0.0
C220 C 0.0338 0.95575 0.45167 0.0
C221 C 0.07623 0.8815 0.57765 0.0
C222 C 0.0987 0.89885 0.58036 0.0
C223 C 0.97825 0.01837 0.46726 0.0
C224 C 0.9728 0.06164 0.62048 0.0
C225 C 0.94834 0.06209 0.66555 0.0
C226 C 0.96441 0.08377 0.67517 0.0
C227 C 0.98858 0.08346 0.6306 0.0
C228 C 0.9525 0.05093 0.63813 0.0
C229 C 0.98438 0.09438 0.65776 0.0
C230 C 0.96793 0.97057 0.53452 0.0
C231 C 0.97812 0.05052 0.5917 0.0
H232 H 0.04752 0.91581 0.34474 0.0
H233 H 0.00539 0.91626 0.42401 0.0
H234 H 0.01155 0.89829 0.37507 0.0
H235 H 0.07307 0.97061 0.41367 0.0
H236 H 0.96138 0.09257 0.69621 0.0
H237 H 0.00432 0.0921 0.61758 0.0
H238 H 0.94008 0.03418 0.63068 0.0
H239 H 0.99665 0.11114 0.66533 0.0
Eu240 Eu 0.47614 0.48761 0.99053 0.0
C241 C 0.59231 0.53615 0.03099 0.0
N242 N 0.58107 0.51309 0.04372 0.0
C243 C 0.62302 0.48836 0.04529 0.0
C244 C 0.61921 0.53586 0.02374 0.0
C245 C 0.59634 0.48966 0.05215 0.0
C246 C 0.6344 0.51148 0.03066 0.0
C247 C 0.58836 0.58455 0.01287 0.0
C248 C 0.57704 0.56027 0.02566 0.0
C249 C 0.61488 0.58417 0.00492 0.0
C250 C 0.63026 0.5599 0.01035 0.0
Eu251 Eu 0.53588 0.51747 0.05425 0.0
N252 N 0.55133 0.56008 0.03345 0.0
C253 C 0.57286 0.60861 0.00894 0.0
C254 C 0.53675 0.58365 0.03117 0.0
C255 C 0.54708 0.60819 0.01848 0.0
H256 H 0.58831 0.47203 0.06478 0.0
H257 H 0.5353 0.62682 0.01645 0.0
H258 H 0.42228 0.53307 0.97862 0.0
H259 H 0.47578 0.37822 0.02127 0.0
H260 H 0.51749 0.58372 0.03987 0.0
H261 H 0.58086 0.62769 0.99927 0.0
H262 H 0.49492 0.42265 0.00352 0.0
H263 H 0.63491 0.46961 0.05166 0.0
H264 H 0.62384 0.60261 0.99496 0.0
H265 H 0.65083 0.56002 0.00451 0.0
H266 H 0.37529 0.53435 0.99011 0.0
H267 H 0.65515 0.51044 0.02552 0.0
H268 H 0.4292 0.37609 0.03586 0.0
N269 N 0.43043 0.49204 1.00027 0.0
C270 C 0.41906 0.46859 0.01201 0.0
C271 C 0.38753 0.51584 0.99691 0.0
C272 C 0.39157 0.4682 0.01747 0.0
C273 C 0.41461 0.51516 0.9912 0.0
C274 C 0.37607 0.49236 0.0105 0.0
N275 N 0.46043 0.44515 0.01034 0.0
C276 C 0.47494 0.42179 0.01072 0.0
C277 C 0.4223 0.41959 0.02624 0.0
C278 C 0.43424 0.44447 0.01649 0.0
C279 C 0.43768 0.39559 0.02852 0.0
C280 C 0.46402 0.39669 0.02039 0.0
H281 H 0.35489 0.49286 0.01433 0.0
H282 H 0.35899 0.44299 0.03287 0.0
H283 H 0.38588 0.40047 0.04048 0.0
O284 O 0.4871 0.47024 0.94951 0.0
O285 O 0.48445 0.46711 0.04192 0.0
O286 O 0.49513 0.50364 0.06785 0.0
O287 O 0.44516 0.48323 0.94916 0.0
O288 O 0.52038 0.47286 0.9968 0.0
O289 O 0.53854 0.47249 0.05012 0.0
O290 O 0.54679 0.54258 0.09271 0.0
O291 O 0.53956 0.52133 1.00114 0.0
O292 O 0.4952 0.52709 0.97348 0.0
O293 O 0.55668 0.49903 0.10162 0.0
O294 O 0.49467 0.53987 0.04614 0.0
O295 O 0.46985 0.53197 0.99661 0.0
C296 C 0.48677 0.47871 0.06793 0.0
C297 C 0.45683 0.47713 0.89911 0.0
C298 C 0.45094 0.45836 0.84885 0.0
C299 C 0.43943 0.48317 0.83274 0.0
C300 C 0.44557 0.50197 0.88274 0.0
C301 C 0.43696 0.50492 0.84961 0.0
C302 C 0.45978 0.45543 0.88202 0.0
C303 C 0.53584 0.46157 0.02334 0.0
C304 C 0.46191 0.47192 0.93415 0.0
C305 C 0.38003 0.4436 0.02847 0.0
C306 C 0.39531 0.41936 0.03275 0.0
C307 C 0.52167 0.53192 0.97612 0.0
C308 C 0.56963 0.52469 0.14652 0.0
C309 C 0.57327 0.54766 0.19404 0.0
C310 C 0.59314 0.52833 0.21024 0.0
C311 C 0.58948 0.50553 0.16331 0.0
C312 C 0.56157 0.54595 0.162 0.0
C313 C 0.6012 0.50745 0.19493 0.0
C314 C 0.47474 0.54562 0.02138 0.0
C315 C 0.55743 0.52205 0.11313 0.0
H316 H 0.43207 0.48555 0.80716 0.0
H317 H 0.44272 0.51874 0.89565 0.0
H318 H 0.42781 0.52392 0.83707 0.0
H319 H 0.46783 0.43598 0.89464 0.0
H320 H 0.60239 0.52942 0.23488 0.0
H321 H 0.59608 0.48913 0.1519 0.0
H322 H 0.54617 0.56083 0.14943 0.0
H323 H 0.61657 0.49266 0.20766 0.0
C324 C 0.24642 0.16459 0.44268 0.0
C325 C 0.25554 0.18235 0.46492 0.0
C326 C 0.22346 0.14849 0.44611 0.0
C327 C 0.1612 0.14461 0.48417 0.0
H328 H 0.16235 0.06867 0.47294 0.0
C329 C 0.08091 0.06929 0.52508 0.0
C330 C 0.06911 0.05213 0.50315 0.0
C331 C 0.10333 0.08524 0.51911 0.0
C332 C 0.16165 0.08992 0.47581 0.0
H333 H 0.2478 0.19772 0.50769 0.0
H334 H 0.20766 0.16986 0.51364 0.0
H335 H 0.20215 0.09659 0.4646 0.0
H336 H 0.07234 0.03772 0.45815 0.0
H337 H 0.11189 0.06529 0.4481 0.0
H338 H 0.12091 0.13783 0.49587 0.0
C339 C 0.21814 0.16822 0.4936 0.0
C340 C 0.18439 0.10591 0.47099 0.0
C341 C 0.24123 0.184 0.49039 0.0
C342 C 0.08073 0.05087 0.47544 0.0
C343 C 0.10346 0.06655 0.46972 0.0
C344 C 0.13857 0.12861 0.48913 0.0
C345 C 0.20899 0.15024 0.47155 0.0
C346 C 0.18448 0.1334 0.47534 0.0
C347 C 0.11483 0.08404 0.49138 0.0
C348 C 0.13862 0.10108 0.4852 0.0
H349 H 0.25723 0.16297 0.4229 0.0
H350 H 0.21681 0.13496 0.42863 0.0
H351 H 0.16041 0.16583 0.48714 0.0
H352 H 0.07308 0.07023 0.54713 0.0
H353 H 0.11199 0.09821 0.5365 0.0
C354 C 0.36659 0.76496 0.03138 0.0
C355 C 0.33965 0.76315 0.03795 0.0
C356 C 0.38189 0.7414 0.03095 0.0
C357 C 0.37141 0.66814 0.0234 0.0
H358 H 0.45095 0.66372 0.04556 0.0
C359 C 0.43567 0.56861 0.03757 0.0
C360 C 0.45785 0.56993 0.02077 0.0
C361 C 0.42103 0.59219 0.03939 0.0
C362 C 0.42873 0.66479 0.03916 0.0
H363 H 0.30797 0.73575 0.05094 0.0
H364 H 0.33494 0.69468 0.05194 0.0
H365 H 0.42655 0.70479 0.05174 0.0
H366 H 0.48192 0.59629 0.99199 0.0
H367 H 0.45714 0.63791 0.99645 0.0
H368 H 0.37372 0.62776 0.01179 0.0
C369 C 0.34408 0.71406 0.04575 0.0
C370 C 0.41471 0.68835 0.04256 0.0
C371 C 0.32868 0.73756 0.04556 0.0
C372 C 0.465 0.59498 0.00535 0.0
C373 C 0.45091 0.61868 0.00795 0.0
C374 C 0.38539 0.64448 0.02058 0.0
C375 C 0.37062 0.71559 0.03756 0.0
C376 C 0.38582 0.69038 0.03466 0.0
C377 C 0.42888 0.6175 0.02512 0.0
C378 C 0.41416 0.64262 0.02829 0.0
H379 H 0.37534 0.78457 0.02522 0.0
H380 H 0.40211 0.74351 0.02425 0.0
H381 H 0.34927 0.66905 0.01623 0.0
H382 H 0.4299 0.54939 0.04959 0.0
H383 H 0.40408 0.59077 0.05271 0.0
C384 C 0.7762 0.82786 0.60583 0.0
C385 C 0.75653 0.82397 0.5791 0.0
C386 C 0.79849 0.84493 0.60226 0.0
C387 C 0.83912 0.87251 0.54074 0.0
H388 H 0.86797 0.92125 0.60108 0.0
C389 C 0.92567 0.9459 0.51503 0.0
C390 C 0.94449 0.95321 0.54076 0.0
C391 C 0.90261 0.93074 0.5205 0.0
C392 C 0.86054 0.90744 0.58421 0.0
H393 H 0.74369 0.83591 0.52818 0.0
H394 H 0.78212 0.86613 0.52199 0.0
H395 H 0.8277 0.89444 0.60964 0.0
H396 H 0.9544 0.95002 0.59238 0.0
H397 H 0.91505 0.92208 0.60223 0.0
H398 H 0.87211 0.88458 0.51576 0.0
C399 C 0.78088 0.85549 0.54553 0.0
C400 C 0.8373 0.89216 0.58909 0.0
C401 C 0.75881 0.83833 0.54907 0.0
C402 C 0.94009 0.94471 0.57213 0.0
C403 C 0.91735 0.9289 0.57769 0.0
C404 C 0.8625 0.88745 0.53609 0.0
C405 C 0.80135 0.85851 0.57191 0.0
C406 C 0.82618 0.8747 0.56724 0.0
C407 C 0.89812 0.92183 0.55192 0.0
C408 C 0.87349 0.90534 0.55758 0.0
H409 H 0.77495 0.81683 0.62919 0.0
H410 H 0.814 0.84667 0.623 0.0
H411 H 0.83143 0.85884 0.52378 0.0
H412 H 0.9283 0.95261 0.49054 0.0
H413 H 0.88807 0.9265 0.49993 0.0
C414 C 0.66994 0.25141 0.04186 0.0
C415 C 0.67062 0.24144 0.01277 0.0
C416 C 0.65503 0.27503 0.04255 0.0
C417 C 0.59885 0.32028 0.99654 0.0
H418 H 0.63174 0.37186 0.0514 0.0
C419 C 0.55222 0.42716 0.99274 0.0
C420 C 0.5515 0.43645 0.02227 0.0
C421 C 0.56649 0.40331 0.99138 0.0
C422 C 0.62215 0.35752 0.03624 0.0
H423 H 0.65579 0.24817 0.96163 0.0
H424 H 0.62972 0.28964 0.96277 0.0
H425 H 0.65699 0.33043 0.0489 0.0
H426 H 0.56496 0.42762 0.0736 0.0
H427 H 0.59026 0.38609 0.07116 0.0
H428 H 0.56406 0.34755 0.98377 0.0
C429 C 0.64067 0.27908 0.98509 0.0
C430 C 0.6366 0.33377 0.03479 0.0
C431 C 0.65576 0.25547 0.98438 0.0
C432 C 0.56541 0.42127 0.05043 0.0
C433 C 0.5799 0.39748 0.04904 0.0
C434 C 0.58441 0.3441 0.99794 0.0
C435 C 0.64035 0.28927 0.01418 0.0
C436 C 0.62508 0.31478 0.01507 0.0
C437 C 0.58054 0.38821 0.01949 0.0
C438 C 0.59586 0.36293 0.01791 0.0
H439 H 0.68142 0.24123 0.06409 0.0
H440 H 0.65494 0.28211 0.06541 0.0
H441 H 0.58924 0.30595 0.98141 0.0
H442 H 0.54175 0.43831 0.97053 0.0
H443 H 0.56683 0.39689 0.96823 0.0
C444 C 0.20697 0.90561 0.18736 0.0
C445 C 0.1954 0.91642 0.15591 0.0
C446 C 0.19637 0.9129 0.21345 0.0
C447 C 0.15138 0.96421 0.23682 0.0
H448 H 0.14593 0.90797 0.3075 0.0
C449 C 0.07667 0.96729 0.32699 0.0
C450 C 0.08436 0.95365 0.35816 0.0
C451 C 0.0947 0.96816 0.30486 0.0
C452 C 0.14781 0.92412 0.28833 0.0
H453 H 0.16334 0.94306 0.12716 0.0
H454 H 0.14445 0.9554 0.1726 0.0
H455 H 0.16739 0.89756 0.26331 0.0
H456 H 0.11737 0.93201 0.39157 0.0
H457 H 0.14921 0.93378 0.35302 0.0
H458 H 0.13069 0.99044 0.26152 0.0
C459 C 0.1622 0.94183 0.17723 0.0
C460 C 0.1601 0.91811 0.26285 0.0
C461 C 0.17296 0.93468 0.15114 0.0
C462 C 0.11117 0.94292 0.36774 0.0
C463 C 0.12919 0.94363 0.34555 0.0
C464 C 0.1389 0.97018 0.26227 0.0
C465 C 0.17376 0.93102 0.20877 0.0
C466 C 0.16182 0.93798 0.23658 0.0
C467 C 0.12063 0.95509 0.31345 0.0
C468 C 0.13674 0.95011 0.28819 0.0
H469 H 0.22451 0.89177 0.19184 0.0
H470 H 0.20611 0.90448 0.23736 0.0
H471 H 0.15274 0.98016 0.21726 0.0
H472 H 0.05593 0.97539 0.31904 0.0
H473 H 0.08739 0.97706 0.28036 0.0
C474 C 0.62121 0.64378 0.74859 0.0
C475 C 0.6052 0.6648 0.72899 0.0
C476 C 0.61228 0.63026 0.77576 0.0
C477 C 0.56167 0.63498 0.83092 0.0
H478 H 0.57873 0.55815 0.85366 0.0
C479 C 0.51335 0.56557 0.92634 0.0
C480 C 0.53159 0.5481 0.94875 0.0
C481 C 0.52231 0.58032 0.89987 0.0
C482 C 0.574 0.57964 0.84774 0.0
H483 H 0.56734 0.68829 0.72243 0.0
H484 H 0.55116 0.66418 0.76932 0.0
H485 H 0.59376 0.58284 0.80657 0.0
H486 H 0.57351 0.53232 0.96089 0.0
H487 H 0.58911 0.55797 0.91442 0.0
H488 H 0.54118 0.63135 0.87176 0.0
C489 C 0.571 0.65849 0.76428 0.0
C490 C 0.58272 0.59389 0.8208 0.0
C491 C 0.58019 0.6723 0.73732 0.0
C492 C 0.55902 0.54575 0.94418 0.0
C493 C 0.56789 0.56025 0.91745 0.0
C494 C 0.55263 0.62061 0.85762 0.0
C495 C 0.58685 0.63712 0.78378 0.0
C496 C 0.57691 0.62184 0.81214 0.0
C497 C 0.54961 0.57766 0.89501 0.0
C498 C 0.5589 0.59285 0.86645 0.0
H499 H 0.64076 0.63783 0.74292 0.0
H500 H 0.62544 0.61447 0.79052 0.0
H501 H 0.5571 0.6565 0.8254 0.0
H502 H 0.4921 0.56789 0.92925 0.0
H503 H 0.50773 0.59344 0.88286 0.0
C504 C 0.86051 0.06365 0.18651 0.0
C505 C 0.83576 0.07877 0.18175 0.0
C506 C 0.87568 0.05673 0.21721 0.0
C507 C 0.88225 0.07467 0.30064 0.0
H508 H 0.93062 0.01144 0.31974 0.0
C509 C 0.95709 0.05302 0.42125 0.0
C510 C 0.96282 0.02583 0.43437 0.0
C511 C 0.94211 0.05956 0.39028 0.0
C512 C 0.91693 0.02898 0.31519 0.0
H513 H 0.8072 0.09753 0.20623 0.0
H514 H 0.83243 0.08381 0.25967 0.0
H515 H 0.90171 0.02056 0.26792 0.0
H516 H 0.95752 0.9842 0.42497 0.0
H517 H 0.93076 0.99538 0.37211 0.0
H518 H 0.89603 0.08194 0.34877 0.0
C519 C 0.84091 0.07827 0.23959 0.0
C520 C 0.90061 0.03457 0.28495 0.0
C521 C 0.82603 0.08572 0.20879 0.0
C522 C 0.95345 0.0054 0.41574 0.0
C523 C 0.93826 0.01189 0.38505 0.0
C524 C 0.89803 0.06866 0.33119 0.0
C525 C 0.86628 0.06412 0.24429 0.0
C526 C 0.8831 0.05762 0.27705 0.0
C527 C 0.93231 0.03906 0.37175 0.0
C528 C 0.91571 0.04576 0.33895 0.0
H529 H 0.86842 0.05732 0.16646 0.0
H530 H 0.89516 0.04612 0.2194 0.0
H531 H 0.86958 0.09294 0.29559 0.0
H532 H 0.96424 0.06928 0.43479 0.0
H533 H 0.93852 0.08076 0.38084 0.0
C534 C 0.39054 0.34965 0.6182 0.0
C535 C 0.40971 0.33529 0.60557 0.0
C536 C 0.39798 0.35987 0.6471 0.0
C537 C 0.45271 0.35588 0.71971 0.0
H538 H 0.41319 0.41992 0.73148 0.0
C539 C 0.47492 0.43053 0.81713 0.0
C540 C 0.45176 0.43528 0.83089 0.0
C541 C 0.47328 0.41302 0.7939 0.0
C542 C 0.42427 0.40193 0.72853 0.0
H543 H 0.45227 0.32111 0.61361 0.0
H544 H 0.4658 0.34087 0.66279 0.0
H545 H 0.40446 0.40313 0.68027 0.0
H546 H 0.4097 0.42415 0.83379 0.0
H547 H 0.40668 0.39371 0.79289 0.0
H548 H 0.47364 0.35622 0.7681 0.0
C549 C 0.4446 0.3432 0.65093 0.0
C550 C 0.41915 0.39209 0.69923 0.0
C551 C 0.43691 0.33226 0.6223 0.0
C552 C 0.42773 0.4207 0.82332 0.0
C553 C 0.42605 0.40334 0.80009 0.0
C554 C 0.45836 0.36626 0.74898 0.0
C555 C 0.42515 0.35702 0.66384 0.0
C556 C 0.43272 0.36852 0.69453 0.0
C557 C 0.44838 0.40036 0.7842 0.0
C558 C 0.44367 0.38902 0.75369 0.0
H559 H 0.36958 0.35313 0.60583 0.0
H560 H 0.38211 0.36976 0.65637 0.0
H561 H 0.46353 0.33764 0.71717 0.0
H562 H 0.49358 0.44175 0.82271 0.0
H563 H 0.49063 0.41114 0.7817 0.0
C564 C 0.61396 0.68014 0.40894 0.0
C565 C 0.60022 0.67288 0.43505 0.0
C566 C 0.60595 0.66956 0.38019 0.0
C567 C 0.56834 0.61243 0.34713 0.0
H568 H 0.57201 0.65594 0.2656 0.0
C569 C 0.54587 0.56383 0.232 0.0
C570 C 0.56536 0.56916 0.2116 0.0
C571 C 0.54398 0.58029 0.25565 0.0
C572 C 0.57093 0.64346 0.28814 0.0
H573 H 0.56706 0.64918 0.45137 0.0
H574 H 0.55271 0.63102 0.40102 0.0
H575 H 0.58182 0.67646 0.31485 0.0
H576 H 0.59692 0.59653 0.19834 0.0
H577 H 0.59396 0.62522 0.23967 0.0
H578 H 0.55829 0.57926 0.3208 0.0
C579 C 0.57003 0.64449 0.40289 0.0
C580 C 0.57663 0.65523 0.31644 0.0
C581 C 0.57821 0.65491 0.43175 0.0
C582 C 0.58151 0.59229 0.21361 0.0
C583 C 0.57976 0.60869 0.23736 0.0
C584 C 0.5627 0.60067 0.31891 0.0
C585 C 0.58385 0.65161 0.37674 0.0
C586 C 0.57586 0.63973 0.34636 0.0
C587 C 0.56186 0.60217 0.25967 0.0
C588 C 0.56436 0.61587 0.28903 0.0
H589 H 0.63127 0.69364 0.41096 0.0
H590 H 0.61748 0.67504 0.36087 0.0
H591 H 0.56788 0.59974 0.36969 0.0
H592 H 0.53339 0.54591 0.231 0.0
H593 H 0.52947 0.57501 0.27184 0.0
C594 C 0.80636 0.09927 0.85557 0.0
C595 C 0.81714 0.08919 0.88756 0.0
C596 C 0.81768 0.09097 0.8304 0.0
C597 C 0.88212 0.06272 0.81411 0.0
H598 H 0.83786 0.05051 0.73354 0.0
C599 C 0.93545 0.03577 0.71422 0.0
C600 C 0.92728 0.05213 0.6848 0.0
C601 C 0.91867 0.03378 0.73773 0.0
C602 C 0.85048 0.05385 0.7559 0.0
H603 H 0.84746 0.0616 0.91806 0.0
H604 H 0.86711 0.04718 0.87435 0.0
H605 H 0.81532 0.0612 0.77736 0.0
H606 H 0.89466 0.07765 0.65572 0.0
H607 H 0.86523 0.07438 0.69673 0.0
H608 H 0.91724 0.05621 0.79273 0.0
C609 C 0.85029 0.06189 0.86866 0.0
C610 C 0.83758 0.06008 0.78095 0.0
C611 C 0.83903 0.07019 0.89374 0.0
C612 C 0.9011 0.06458 0.67813 0.0
C613 C 0.88433 0.06274 0.7017 0.0
C614 C 0.89496 0.05654 0.78918 0.0
C615 C 0.83998 0.07239 0.8367 0.0
C616 C 0.85329 0.06477 0.81028 0.0
C617 C 0.8936 0.04849 0.73237 0.0
C618 C 0.87937 0.0522 0.75966 0.0
H619 H 0.78967 0.11413 0.85002 0.0
H620 H 0.80948 0.09972 0.80608 0.0
H621 H 0.89489 0.06675 0.8361 0.0
H622 H 0.95573 0.02625 0.71991 0.0
H623 H 0.92614 0.02213 0.76083 0.0
C624 C 0.43017 0.36312 0.32152 0.0
C625 C 0.41272 0.34097 0.31774 0.0
C626 C 0.43884 0.37806 0.29503 0.0
C627 C 0.4495 0.37375 0.21315 0.0
H628 H 0.44597 0.45228 0.20305 0.0
C629 C 0.46882 0.43723 0.0969 0.0
C630 C 0.47998 0.46314 0.09762 0.0
C631 C 0.46121 0.42267 0.12413 0.0
C632 C 0.44762 0.4304 0.2057 0.0
H633 H 0.39085 0.31699 0.28322 0.0
H634 H 0.40602 0.3432 0.2368 0.0
H635 H 0.43139 0.42615 0.24957 0.0
H636 H 0.4937 0.4934 0.12847 0.0
H637 H 0.48212 0.46723 0.17685 0.0
H638 H 0.46647 0.37768 0.17006 0.0
C639 C 0.41302 0.34889 0.26035 0.0
C640 C 0.43907 0.41543 0.23231 0.0
C641 C 0.40417 0.33404 0.28686 0.0
C642 C 0.4846 0.4737 0.12687 0.0
C643 C 0.47773 0.45873 0.15458 0.0
C644 C 0.45847 0.38867 0.18683 0.0
C645 C 0.43038 0.3711 0.26419 0.0
C646 C 0.43971 0.38697 0.23615 0.0
C647 C 0.46563 0.43309 0.15348 0.0
C648 C 0.45738 0.41724 0.1825 0.0
H649 H 0.43685 0.36917 0.34495 0.0
H650 H 0.4524 0.39493 0.29872 0.0
H651 H 0.45062 0.35183 0.21576 0.0
H652 H 0.46583 0.42801 0.07527 0.0
H653 H 0.45156 0.40331 0.12188 0.0
C654 C 0.17787 0.95143 0.84444 0.0
C655 C 0.17314 0.92655 0.86235 0.0
C656 C 0.16265 0.95911 0.81381 0.0
C657 C 0.09935 0.94175 0.75912 0.0
H658 H 0.13597 0.98018 0.69334 0.0
C659 C 0.05306 0.95448 0.624 0.0
C660 C 0.0526 0.98113 0.60813 0.0
C661 C 0.06791 0.948 0.65502 0.0
C662 C 0.12548 0.96953 0.71154 0.0
H663 H 0.1479 0.89076 0.86249 0.0
H664 H 0.12246 0.90339 0.80897 0.0
H665 H 0.16107 0.96928 0.74778 0.0
H666 H 0.06814 0.02163 0.61184 0.0
H667 H 0.09436 0.01013 0.6656 0.0
H668 H 0.06402 0.94139 0.72238 0.0
C669 C 0.13752 0.91734 0.81853 0.0
C670 C 0.13977 0.96344 0.74284 0.0
C671 C 0.15249 0.90983 0.84916 0.0
C672 C 0.06789 0.00094 0.62351 0.0
C673 C 0.08305 0.99436 0.65423 0.0
C674 C 0.08523 0.94747 0.72772 0.0
C675 C 0.14244 0.94201 0.80028 0.0
C676 C 0.12693 0.9494 0.7671 0.0
C677 C 0.08296 0.96792 0.67045 0.0
C678 C 0.09816 0.96139 0.70362 0.0
H679 H 0.1937 0.96476 0.85379 0.0
H680 H 0.16677 0.97847 0.80079 0.0
H681 H 0.08848 0.9315 0.77717 0.0
H682 H 0.04151 0.93878 0.61274 0.0
H683 H 0.0677 0.92739 0.66693 0.0
loop_
_geom_bond_atom_site_label_1
_geom_bond_atom_site_label_2
_geom_bond_distance
_geom_bond_site_symmetry_2
_ccdc_geom_bond_type
C0 C1 1.386 . S
C0 C2 1.397 . S
C0 H24 0.931 . S
C1 C0 1.386 . S
C1 C5 1.397 . S
C2 C0 1.397 . S
C2 C3 1.384 . S
C2 H25 0.930 . S
C3 C2 1.384 . S
C3 C4 1.377 . S
C3 C6 1.481 . S
C4 C3 1.377 . S
C4 C5 1.389 . S
C4 H26 0.929 . S
C5 C1 1.397 . S
C5 C4 1.389 . S
C5 H27 0.931 . S
C6 C3 1.481 . S
C6 C7 1.387 . S
C6 C11 1.390 1_556 S
C7 C6 1.387 . S
C7 C8 1.401 1_556 S
C7 H28 0.930 . S
C8 C7 1.401 1_554 S
C8 C9 1.376 . S
C8 C17 1.511 . S
C9 C8 1.376 . S
C9 C10 1.392 . S
C9 H30 0.931 . S
C10 C9 1.392 . S
C10 C11 1.361 . S
C10 C12 1.500 . S
C11 C6 1.390 1_554 S
C11 C10 1.361 . S
C11 H29 0.931 . S
C12 C10 1.500 . S
C12 C13 1.371 . S
C12 C14 1.365 . S
C13 C12 1.371 . S
C13 C23 1.386 . S
C13 H31 0.931 . S
C14 C12 1.365 . S
C14 C15 1.409 . S
C14 H32 0.929 . S
C15 C14 1.409 . S
C15 C16 1.380 . S
C15 H33 0.930 . S
C16 C15 1.380 . S
C16 C23 1.357 . S
C17 C8 1.511 . S
C17 C18 1.341 . S
C17 C19 1.371 . S
C18 C17 1.341 . S
C18 C22 1.394 . S
C18 H34 0.930 1_554 S
C19 C17 1.371 . S
C19 C20 1.392 . S
C19 H35 0.931 . S
C20 C19 1.392 . S
C20 C21 1.331 . S
C20 H38 0.932 . S
C21 C20 1.331 . S
C21 C22 1.336 . S
C22 C18 1.394 . S
C22 C21 1.336 . S
C22 H37 0.929 1_554 S
C23 C13 1.386 . S
C23 C16 1.357 . S
C23 H36 0.928 . S
H24 C0 0.931 . S
H25 C2 0.930 . S
H26 C4 0.929 . S
H27 C5 0.931 . S
H28 C7 0.930 . S
H29 C11 0.931 . S
H30 C9 0.931 . S
H31 C13 0.931 . S
H32 C14 0.929 . S
H33 C15 0.930 . S
H34 C18 0.930 1_556 S
H35 C19 0.931 . S
H36 C23 0.928 . S
H37 C22 0.929 1_556 S
H38 C20 0.932 . S
C39 C40 1.386 . S
C39 C41 1.397 . S
C39 H63 0.931 . S
C40 C39 1.386 . S
C40 C44 1.397 . S
C41 C39 1.397 . S
C41 C42 1.384 . S
C41 H64 0.930 . S
C42 C41 1.384 . S
C42 C43 1.377 . S
C42 C45 1.481 . S
C43 C42 1.377 . S
C43 C44 1.389 . S
C43 H65 0.929 . S
C44 C40 1.397 . S
C44 C43 1.389 . S
C44 H66 0.931 . S
C45 C42 1.481 . S
C45 C46 1.387 . S
C45 C50 1.390 . S
C46 C45 1.387 . S
C46 C47 1.401 . S
C46 H67 0.930 . S
C47 C46 1.401 . S
C47 C48 1.376 . S
C47 C56 1.511 . S
C48 C47 1.376 . S
C48 C49 1.392 . S
C48 H69 0.931 . S
C49 C48 1.392 . S
C49 C50 1.361 . S
C49 C51 1.500 . S
C50 C45 1.390 . S
C50 C49 1.361 . S
C50 H68 0.931 . S
C51 C49 1.500 . S
C51 C52 1.371 . S
C51 C53 1.365 . S
C52 C51 1.371 . S
C52 C62 1.386 . S
C52 H70 0.931 . S
C53 C51 1.365 . S
C53 C54 1.409 . S
C53 H71 0.929 . S
C54 C53 1.409 . S
C54 C55 1.380 . S
C54 H72 0.930 . S
C55 C54 1.380 . S
C55 C62 1.357 . S
C56 C47 1.511 . S
C56 C57 1.341 . S
C56 C58 1.371 . S
C57 C56 1.341 . S
C57 C61 1.394 . S
C57 H73 0.930 . S
C58 C56 1.371 . S
C58 C59 1.392 . S
C58 H74 0.931 . S
C59 C58 1.392 . S
C59 C60 1.331 . S
C59 H77 0.932 . S
C60 C59 1.331 . S
C60 C61 1.336 . S
C61 C57 1.394 . S
C61 C60 1.336 . S
C61 H76 0.929 . S
C62 C52 1.386 . S
C62 C55 1.357 . S
C62 H75 0.928 . S
H63 C39 0.931 . S
H64 C41 0.930 . S
H65 C43 0.929 . S
H66 C44 0.931 . S
H67 C46 0.930 . S
H68 C50 0.931 . S
H69 C48 0.931 . S
H70 C52 0.931 . S
H71 C53 0.929 . S
H72 C54 0.930 . S
H73 C57 0.930 . S
H74 C58 0.931 . S
H75 C62 0.928 . S
H76 C61 0.929 . S
H77 C59 0.932 . S
C78 C79 1.386 . S
C78 C80 1.397 . S
C78 H102 0.931 . S
C79 C78 1.386 . S
C79 C83 1.397 . S
C80 C78 1.397 . S
C80 C81 1.384 . S
C80 H103 0.930 . S
C81 C80 1.384 . S
C81 C82 1.377 . S
C81 C84 1.481 . S
C82 C81 1.377 . S
C82 C83 1.389 . S
C82 H104 0.929 . S
C83 C79 1.397 . S
C83 C82 1.389 . S
C83 H105 0.931 . S
C84 C81 1.481 . S
C84 C85 1.387 . S
C84 C89 1.390 . S
C85 C84 1.387 . S
C85 C86 1.401 . S
C85 H106 0.930 . S
C86 C85 1.401 . S
C86 C87 1.376 1_554 S
C86 C95 1.511 . S
C87 C86 1.376 1_556 S
C87 C88 1.392 . S
C87 H108 0.931 . S
C88 C87 1.392 . S
C88 C89 1.361 1_556 S
C88 C90 1.500 . S
C89 C84 1.390 . S
C89 C88 1.361 1_554 S
C89 H107 0.931 . S
C90 C88 1.500 . S
C90 C91 1.371 . S
C90 C92 1.365 . S
C91 C90 1.371 . S
C91 C101 1.386 . S
C91 H109 0.931 . S
C92 C90 1.365 . S
C92 C93 1.409 . S
C92 H110 0.929 . S
C93 C92 1.409 . S
C93 C94 1.380 . S
C93 H111 0.930 . S
C94 C93 1.380 . S
C94 C101 1.357 . S
C95 C86 1.511 . S
C95 C96 1.341 . S
C95 C97 1.371 1_554 S
C96 C95 1.341 . S
C96 C100 1.394 . S
C96 H112 0.930 . S
C97 C95 1.371 1_556 S
C97 C98 1.392 . S
C97 H113 0.931 . S
C98 C97 1.392 . S
C98 C99 1.331 1_556 S
C98 H116 0.932 . S
C99 C98 1.331 1_554 S
C99 C100 1.336 . S
C100 C96 1.394 . S
C100 C99 1.336 . S
C100 H115 0.929 . S
C101 C91 1.386 . S
C101 C94 1.357 . S
C101 H114 0.928 . S
H102 C78 0.931 . S
H103 C80 0.930 . S
H104 C82 0.929 . S
H105 C83 0.931 . S
H106 C85 0.930 . S
H107 C89 0.931 . S
H108 C87 0.931 . S
H109 C91 0.931 . S
H110 C92 0.929 . S
H111 C93 0.930 . S
H112 C96 0.930 . S
H113 C97 0.931 . S
H114 C101 0.928 . S
H115 C100 0.929 . S
H116 C98 0.932 . S
C117 C118 1.386 . S
C117 C119 1.397 . S
C117 H141 0.931 . S
C118 C117 1.386 . S
C118 C122 1.397 . S
C119 C117 1.397 . S
C119 C120 1.384 . S
C119 H142 0.930 . S
C120 C119 1.384 . S
C120 C121 1.377 . S
C120 C123 1.481 . S
C121 C120 1.377 . S
C121 C122 1.389 . S
C121 H143 0.929 . S
C122 C118 1.397 . S
C122 C121 1.389 . S
C122 H144 0.931 . S
C123 C120 1.481 . S
C123 C124 1.387 . S
C123 C128 1.390 . S
C124 C123 1.387 . S
C124 C125 1.401 . S
C124 H145 0.930 . S
C125 C124 1.401 . S
C125 C126 1.376 . S
C125 C134 1.511 . S
C126 C125 1.376 . S
C126 C127 1.392 . S
C126 H147 0.931 . S
C127 C126 1.392 . S
C127 C128 1.361 . S
C127 C129 1.500 . S
C128 C123 1.390 . S
C128 C127 1.361 . S
C128 H146 0.931 . S
C129 C127 1.500 . S
C129 C130 1.371 . S
C129 C131 1.365 . S
C130 C129 1.371 . S
C130 C140 1.386 . S
C130 H148 0.931 . S
C131 C129 1.365 . S
C131 C132 1.409 . S
C131 H149 0.929 . S
C132 C131 1.409 . S
C132 C133 1.380 . S
C132 H150 0.930 . S
C133 C132 1.380 . S
C133 C140 1.357 . S
C134 C125 1.511 . S
C134 C135 1.341 . S
C134 C136 1.371 . S
C135 C134 1.341 . S
C135 C139 1.394 . S
C135 H151 0.930 . S
C136 C134 1.371 . S
C136 C137 1.392 . S
C136 H152 0.931 . S
C137 C136 1.392 . S
C137 C138 1.331 . S
C137 H155 0.932 . S
C138 C137 1.331 . S
C138 C139 1.336 . S
C139 C135 1.394 . S
C139 C138 1.336 . S
C139 H154 0.929 . S
C140 C130 1.386 . S
C140 C133 1.357 . S
C140 H153 0.928 . S
H141 C117 0.931 . S
H142 C119 0.930 . S
H143 C121 0.929 . S
H144 C122 0.931 . S
H145 C124 0.930 . S
H146 C128 0.931 . S
H147 C126 0.931 . S
H148 C130 0.931 . S
H149 C131 0.929 . S
H150 C132 0.930 . S
H151 C135 0.930 . S
H152 C136 0.931 . S
H153 C140 0.928 . S
H154 C139 0.929 . S
H155 C137 0.932 . S
Eu156 N185 2.600 . S
Eu156 N191 2.562 . S
Eu156 O200 2.462 . S
Eu156 O201 2.373 . S
Eu156 O203 2.432 . S
Eu156 O204 2.291 1_565 S
Eu156 O208 2.352 1_455 S
Eu156 O211 2.372 1_455 S
Eu156 C220 2.787 . S
C157 N158 1.365 . S
C157 C160 1.405 . S
C157 C164 1.448 . S
N158 C157 1.365 . S
N158 C161 1.319 1_655 S
N158 Eu167 2.600 . S
C159 C161 1.397 . S
C159 C162 1.367 1_455 S
C159 H179 0.931 . S
C160 C157 1.405 . S
C160 C162 1.403 . S
C160 C166 1.439 . S
C161 N158 1.319 1_455 S
C161 C159 1.397 . S
C161 H172 0.930 . S
C162 C159 1.367 1_655 S
C162 C160 1.403 . S
C162 H183 0.929 . S
C163 C164 1.430 . S
C163 C165 1.387 . S
C163 C169 1.404 . S
C164 C157 1.448 . S
C164 C163 1.430 . S
C164 N168 1.351 . S
C165 C163 1.387 . S
C165 C166 1.374 . S
C165 H180 0.931 . S
C166 C160 1.439 . S
C166 C165 1.374 . S
C166 H181 0.931 . S
Eu167 N158 2.600 . S
Eu167 N168 2.562 . S
Eu167 O202 2.335 1_655 S
Eu167 O205 2.372 1_655 S
Eu167 O206 2.462 . S
Eu167 O207 2.373 . S
Eu167 O209 2.432 . S
Eu167 O210 2.291 1_545 S
Eu167 C231 2.787 . S
N168 C164 1.351 . S
N168 Eu167 2.562 . S
N168 C170 1.325 . S
C169 C163 1.404 . S
C169 C171 1.366 . S
C169 H177 0.930 . S
C170 N168 1.325 . S
C170 C171 1.416 . S
C170 H176 0.929 . S
C171 C169 1.366 . S
C171 C170 1.416 . S
C171 H173 0.930 . S
H172 C161 0.930 . S
H173 C171 0.930 . S
H174 C189 0.930 1_655 S
H175 C196 0.930 . S
H176 C170 0.929 . S
H177 C169 0.930 . S
H178 C192 0.929 . S
H179 C159 0.931 . S
H180 C165 0.931 . S
H181 C166 0.931 . S
H182 C187 0.931 1_655 S
H183 C162 0.929 . S
H184 C195 0.930 . S
N185 Eu156 2.600 . S
N185 C186 1.365 . S
N185 C189 1.319 . S
C186 N185 1.365 . S
C186 C188 1.405 . S
C186 C194 1.448 . S
C187 H182 0.931 1_455 S
C187 C189 1.397 . S
C187 C190 1.367 . S
C188 C186 1.405 . S
C188 C190 1.403 . S
C188 C221 1.439 . S
C189 H174 0.930 1_455 S
C189 N185 1.319 . S
C189 C187 1.397 . S
C190 C187 1.367 . S
C190 C188 1.403 . S
C190 H197 0.929 . S
N191 Eu156 2.562 . S
N191 C192 1.325 . S
N191 C194 1.351 . S
C192 H178 0.929 . S
C192 N191 1.325 . S
C192 C196 1.416 . S
C193 C194 1.430 . S
C193 C195 1.404 . S
C193 C222 1.387 . S
C194 C186 1.448 . S
C194 N191 1.351 . S
C194 C193 1.430 . S
C195 H184 0.930 . S
C195 C193 1.404 . S
C195 C196 1.366 . S
C196 H175 0.930 . S
C196 C192 1.416 . S
C196 C195 1.366 . S
H197 C190 0.929 . S
H198 C221 0.931 . S
H199 C222 0.931 . S
O200 Eu156 2.462 . S
O200 C220 1.252 . S
O201 Eu156 2.373 . S
O201 C212 1.249 . S
O202 Eu167 2.335 1_455 S
O202 C212 1.264 1_545 S
O203 Eu156 2.432 . S
O203 C220 1.268 . S
O204 Eu156 2.291 1_545 S
O204 C219 1.255 . S
O205 Eu167 2.372 1_455 S
O205 C219 1.257 . S
O206 Eu167 2.462 . S
O206 C231 1.252 . S
O207 Eu167 2.373 . S
O207 C223 1.249 . S
O208 Eu156 2.352 1_655 S
O208 C223 1.237 1_565 S
O209 Eu167 2.432 . S
O209 C231 1.268 . S
O210 Eu167 2.291 1_565 S
O210 C230 1.255 . S
O211 Eu156 2.372 1_655 S
O211 C230 1.257 . S
C212 O201 1.249 . S
C212 O202 1.264 1_565 S
C213 C216 1.382 . S
C213 C218 1.390 . S
C213 C220 1.506 . S
C214 C215 1.398 . S
C214 C218 1.392 . S
C215 C214 1.398 . S
C215 C217 1.372 . S
C215 H232 0.931 . S
C216 C213 1.382 . S
C216 C217 1.390 . S
C216 H233 0.931 . S
C217 C215 1.372 . S
C217 C216 1.390 . S
C217 H234 0.929 . S
C218 C213 1.390 . S
C218 C214 1.392 . S
C218 H235 0.930 . S
C219 O204 1.255 . S
C219 O205 1.257 . S
C220 Eu156 2.787 . S
C220 O200 1.252 . S
C220 O203 1.268 . S
C220 C213 1.506 . S
C221 C188 1.439 . S
C221 H198 0.931 . S
C221 C222 1.374 . S
C222 C193 1.387 . S
C222 H199 0.931 . S
C222 C221 1.374 . S
C223 O207 1.249 . S
C223 O208 1.237 1_545 S
C224 C227 1.382 . S
C224 C228 1.390 . S
C224 C231 1.506 . S
C225 C226 1.398 . S
C225 C228 1.392 . S
C226 C225 1.398 . S
C226 C229 1.372 . S
C226 H236 0.931 . S
C227 C224 1.382 . S
C227 C229 1.390 . S
C227 H237 0.931 . S
C228 C224 1.390 . S
C228 C225 1.392 . S
C228 H238 0.930 . S
C229 C226 1.372 . S
C229 C227 1.390 . S
C229 H239 0.929 . S
C230 O210 1.255 . S
C230 O211 1.257 . S
C231 Eu167 2.787 . S
C231 O206 1.252 . S
C231 O209 1.268 . S
C231 C224 1.506 . S
H232 C215 0.931 . S
H233 C216 0.931 . S
H234 C217 0.929 . S
H235 C218 0.930 . S
H236 C226 0.931 . S
H237 C227 0.931 . S
H238 C228 0.930 . S
H239 C229 0.929 . S
Eu240 N269 2.600 . S
Eu240 N275 2.562 1_556 S
Eu240 O284 2.462 . S
Eu240 O285 2.373 1_556 S
Eu240 O287 2.432 . S
Eu240 O288 2.291 1_556 S
Eu240 O292 2.335 . S
Eu240 O295 2.372 . S
Eu240 C304 2.787 . S
C241 N242 1.365 . S
C241 C244 1.405 . S
C241 C248 1.448 . S
N242 C241 1.365 . S
N242 C245 1.319 . S
N242 Eu251 2.600 . S
C243 C245 1.397 . S
C243 C246 1.367 . S
C243 H263 0.931 . S
C244 C241 1.405 . S
C244 C246 1.403 . S
C244 C250 1.439 . S
C245 N242 1.319 . S
C245 C243 1.397 . S
C245 H256 0.930 . S
C246 C243 1.367 . S
C246 C244 1.403 . S
C246 H267 0.929 . S
C247 C248 1.430 . S
C247 C249 1.387 . S
C247 C253 1.404 . S
C248 C241 1.448 . S
C248 C247 1.430 . S
C248 N252 1.351 . S
C249 C247 1.387 . S
C249 C250 1.374 . S
C249 H264 0.931 . S
C250 C244 1.439 . S
C250 C249 1.374 . S
C250 H265 0.931 . S
Eu251 N242 2.600 . S
Eu251 N252 2.562 . S
Eu251 O286 2.335 . S
Eu251 O289 2.372 . S
Eu251 O290 2.462 . S
Eu251 O291 2.373 1_554 S
Eu251 O293 2.432 . S
Eu251 O294 2.291 . S
Eu251 C315 2.787 . S
N252 C248 1.351 . S
N252 Eu251 2.562 . S
N252 C254 1.325 . S
C253 C247 1.404 . S
C253 C255 1.366 . S
C253 H261 0.930 . S
C254 N252 1.325 . S
C254 C255 1.416 . S
C254 H260 0.929 . S
C255 C253 1.366 . S
C255 C254 1.416 . S
C255 H257 0.930 . S
H256 C245 0.930 . S
H257 C255 0.930 . S
H258 C273 0.930 . S
H259 C280 0.930 . S
H260 C254 0.929 . S
H261 C253 0.930 . S
H262 C276 0.929 . S
H263 C243 0.931 . S
H264 C249 0.931 . S
H265 C250 0.931 . S
H266 C271 0.931 . S
H267 C246 0.929 . S
H268 C279 0.930 . S
N269 Eu240 2.600 . S
N269 C270 1.365 1_556 S
N269 C273 1.319 . S
C270 N269 1.365 1_554 S
C270 C272 1.405 . S
C270 C278 1.448 . S
C271 H266 0.931 . S
C271 C273 1.397 . S
C271 C274 1.367 1_556 S
C272 C270 1.405 . S
C272 C274 1.403 . S
C272 C305 1.439 . S
C273 H258 0.930 . S
C273 N269 1.319 . S
C273 C271 1.397 . S
C274 C271 1.367 1_554 S
C274 C272 1.403 . S
C274 H281 0.929 . S
N275 Eu240 2.562 1_554 S
N275 C276 1.325 . S
N275 C278 1.351 . S
C276 H262 0.929 . S
C276 N275 1.325 . S
C276 C280 1.416 . S
C277 C278 1.430 . S
C277 C279 1.404 . S
C277 C306 1.387 . S
C278 C270 1.448 . S
C278 N275 1.351 . S
C278 C277 1.430 . S
C279 H268 0.930 . S
C279 C277 1.404 . S
C279 C280 1.366 . S
C280 H259 0.930 . S
C280 C276 1.416 . S
C280 C279 1.366 . S
H281 C274 0.929 . S
H282 C305 0.931 . S
H283 C306 0.931 . S
O284 Eu240 2.462 . S
O284 C304 1.252 . S
O285 Eu240 2.373 1_554 S
O285 C296 1.249 . S
O286 Eu251 2.335 . S
O286 C296 1.264 . S
O287 Eu240 2.432 . S
O287 C304 1.268 . S
O288 Eu240 2.291 1_554 S
O288 C303 1.255 . S
O289 Eu251 2.372 . S
O289 C303 1.257 . S
O290 Eu251 2.462 . S
O290 C315 1.252 . S
O291 Eu251 2.373 1_556 S
O291 C307 1.249 . S
O292 Eu240 2.335 . S
O292 C307 1.264 . S
O293 Eu251 2.432 . S
O293 C315 1.268 . S
O294 Eu251 2.291 . S
O294 C314 1.255 . S
O295 Eu240 2.372 . S
O295 C314 1.257 1_556 S
C296 O285 1.249 . S
C296 O286 1.264 . S
C297 C300 1.382 . S
C297 C302 1.390 . S
C297 C304 1.506 . S
C298 C299 1.398 . S
C298 C302 1.392 . S
C299 C298 1.398 . S
C299 C301 1.372 . S
C299 H316 0.931 . S
C300 C297 1.382 . S
C300 C301 1.390 . S
C300 H317 0.931 . S
C301 C299 1.372 . S
C301 C300 1.390 . S
C301 H318 0.929 . S
C302 C297 1.390 . S
C302 C298 1.392 . S
C302 H319 0.930 . S
C303 O288 1.255 . S
C303 O289 1.257 . S
C304 Eu240 2.787 . S
C304 O284 1.252 . S
C304 O287 1.268 . S
C304 C297 1.506 . S
C305 C272 1.439 . S
C305 H282 0.931 . S
C305 C306 1.374 . S
C306 C277 1.387 . S
C306 H283 0.931 . S
C306 C305 1.374 . S
C307 O291 1.249 . S
C307 O292 1.264 . S
C308 C311 1.382 . S
C308 C312 1.390 . S
C308 C315 1.506 . S
C309 C310 1.398 . S
C309 C312 1.392 . S
C310 C309 1.398 . S
C310 C313 1.372 . S
C310 H320 0.931 . S
C311 C308 1.382 . S
C311 C313 1.390 . S
C311 H321 0.931 . S
C312 C308 1.390 . S
C312 C309 1.392 . S
C312 H322 0.930 . S
C313 C310 1.372 . S
C313 C311 1.390 . S
C313 H323 0.929 . S
C314 O294 1.255 . S
C314 O295 1.257 1_554 S
C315 Eu251 2.787 . S
C315 O290 1.252 . S
C315 O293 1.268 . S
C315 C308 1.506 . S
H316 C299 0.931 . S
H317 C300 0.931 . S
H318 C301 0.929 . S
H319 C302 0.930 . S
H320 C310 0.931 . S
H321 C311 0.931 . S
H322 C312 0.930 . S
H323 C313 0.929 . S
C324 C325 1.349 . S
C324 C326 1.327 . S
C324 H349 0.950 . S
C325 C324 1.349 . S
C325 C341 1.349 . S
C326 C324 1.327 . S
C326 C345 1.429 . S
C326 H350 0.950 . S
C327 C344 1.574 . S
C327 C346 1.368 . S
C327 H351 0.949 . S
H328 C332 0.949 . S
C329 C330 1.349 . S
C329 C331 1.327 . S
C329 H352 0.950 . S
C330 C329 1.349 . S
C330 C342 1.349 . S
C331 C329 1.327 . S
C331 C347 1.429 . S
C331 H353 0.950 . S
C332 H328 0.949 . S
C332 C340 1.574 . S
C332 C348 1.368 . S
H333 C341 0.950 . S
H334 C339 0.950 . S
H335 C340 0.949 . S
H336 C342 0.950 . S
H337 C343 0.950 . S
H338 C344 0.949 . S
C339 H334 0.950 . S
C339 C341 1.327 . S
C339 C345 1.429 . S
C340 C332 1.574 . S
C340 H335 0.949 . S
C340 C346 1.368 . S
C341 C325 1.349 . S
C341 H333 0.950 . S
C341 C339 1.327 . S
C342 C330 1.349 . S
C342 H336 0.950 . S
C342 C343 1.327 . S
C343 H337 0.950 . S
C343 C342 1.327 . S
C343 C347 1.429 . S
C344 C327 1.574 . S
C344 H338 0.949 . S
C344 C348 1.368 . S
C345 C326 1.429 . S
C345 C339 1.429 . S
C345 C346 1.523 . S
C346 C327 1.368 . S
C346 C340 1.368 . S
C346 C345 1.523 . S
C347 C331 1.429 . S
C347 C343 1.429 . S
C347 C348 1.523 . S
C348 C332 1.368 . S
C348 C344 1.368 . S
C348 C347 1.523 . S
H349 C324 0.950 . S
H350 C326 0.950 . S
H351 C327 0.949 . S
H352 C329 0.950 . S
H353 C331 0.950 . S
C354 C355 1.349 . S
C354 C356 1.327 . S
C354 H379 0.950 . S
C355 C354 1.349 . S
C355 C371 1.349 . S
C356 C354 1.327 . S
C356 C375 1.429 . S
C356 H380 0.950 . S
C357 C374 1.574 . S
C357 C376 1.368 . S
C357 H381 0.949 . S
H358 C362 0.949 . S
C359 C360 1.349 . S
C359 C361 1.327 . S
C359 H382 0.950 . S
C360 C359 1.349 . S
C360 C372 1.349 . S
C361 C359 1.327 . S
C361 C377 1.429 . S
C361 H383 0.950 . S
C362 H358 0.949 . S
C362 C370 1.574 . S
C362 C378 1.368 . S
H363 C371 0.950 . S
H364 C369 0.950 . S
H365 C370 0.949 . S
H366 C372 0.950 . S
H367 C373 0.950 . S
H368 C374 0.949 . S
C369 H364 0.950 . S
C369 C371 1.327 . S
C369 C375 1.429 . S
C370 C362 1.574 . S
C370 H365 0.949 . S
C370 C376 1.368 . S
C371 C355 1.349 . S
C371 H363 0.950 . S
C371 C369 1.327 . S
C372 C360 1.349 . S
C372 H366 0.950 . S
C372 C373 1.327 . S
C373 H367 0.950 . S
C373 C372 1.327 . S
C373 C377 1.429 . S
C374 C357 1.574 . S
C374 H368 0.949 . S
C374 C378 1.368 . S
C375 C356 1.429 . S
C375 C369 1.429 . S
C375 C376 1.523 . S
C376 C357 1.368 . S
C376 C370 1.368 . S
C376 C375 1.523 . S
C377 C361 1.429 . S
C377 C373 1.429 . S
C377 C378 1.523 . S
C378 C362 1.368 . S
C378 C374 1.368 . S
C378 C377 1.523 . S
H379 C354 0.950 . S
H380 C356 0.950 . S
H381 C357 0.949 . S
H382 C359 0.950 . S
H383 C361 0.950 . S
C384 C385 1.349 . S
C384 C386 1.327 . S
C384 H409 0.950 . S
C385 C384 1.349 . S
C385 C401 1.349 . S
C386 C384 1.327 . S
C386 C405 1.429 . S
C386 H410 0.950 . S
C387 C404 1.574 . S
C387 C406 1.368 . S
C387 H411 0.949 . S
H388 C392 0.949 . S
C389 C390 1.349 . S
C389 C391 1.327 . S
C389 H412 0.950 . S
C390 C389 1.349 . S
C390 C402 1.349 . S
C391 C389 1.327 . S
C391 C407 1.429 . S
C391 H413 0.950 . S
C392 H388 0.949 . S
C392 C400 1.574 . S
C392 C408 1.368 . S
H393 C401 0.950 . S
H394 C399 0.950 . S
H395 C400 0.949 . S
H396 C402 0.950 . S
H397 C403 0.950 . S
H398 C404 0.949 . S
C399 H394 0.950 . S
C399 C401 1.327 . S
C399 C405 1.429 . S
C400 C392 1.574 . S
C400 H395 0.949 . S
C400 C406 1.368 . S
C401 C385 1.349 . S
C401 H393 0.950 . S
C401 C399 1.327 . S
C402 C390 1.349 . S
C402 H396 0.950 . S
C402 C403 1.327 . S
C403 H397 0.950 . S
C403 C402 1.327 . S
C403 C407 1.429 . S
C404 C387 1.574 . S
C404 H398 0.949 . S
C404 C408 1.368 . S
C405 C386 1.429 . S
C405 C399 1.429 . S
C405 C406 1.523 . S
C406 C387 1.368 . S
C406 C400 1.368 . S
C406 C405 1.523 . S
C407 C391 1.429 . S
C407 C403 1.429 . S
C407 C408 1.523 . S
C408 C392 1.368 . S
C408 C404 1.368 . S
C408 C407 1.523 . S
H409 C384 0.950 . S
H410 C386 0.950 . S
H411 C387 0.949 . S
H412 C389 0.950 . S
H413 C391 0.950 . S
C414 C415 1.349 . S
C414 C416 1.327 . S
C414 H439 0.950 . S
C415 C414 1.349 . S
C415 C431 1.349 1_554 S
C416 C414 1.327 . S
C416 C435 1.429 . S
C416 H440 0.950 . S
C417 C434 1.574 . S
C417 C436 1.368 1_556 S
C417 H441 0.949 . S
H418 C422 0.949 . S
C419 C420 1.349 1_556 S
C419 C421 1.327 . S
C419 H442 0.950 . S
C420 C419 1.349 1_554 S
C420 C432 1.349 . S
C421 C419 1.327 . S
C421 C437 1.429 1_556 S
C421 H443 0.950 . S
C422 H418 0.949 . S
C422 C430 1.574 . S
C422 C438 1.368 . S
H423 C431 0.950 . S
H424 C429 0.950 . S
H425 C430 0.949 . S
H426 C432 0.950 . S
H427 C433 0.950 . S
H428 C434 0.949 . S
C429 H424 0.950 . S
C429 C431 1.327 . S
C429 C435 1.429 1_556 S
C430 C422 1.574 . S
C430 H425 0.949 . S
C430 C436 1.368 . S
C431 C415 1.349 1_556 S
C431 H423 0.950 . S
C431 C429 1.327 . S
C432 C420 1.349 . S
C432 H426 0.950 . S
C432 C433 1.327 . S
C433 H427 0.950 . S
C433 C432 1.327 . S
C433 C437 1.429 . S
C434 C417 1.574 . S
C434 H428 0.949 . S
C434 C438 1.368 1_556 S
C435 C416 1.429 . S
C435 C429 1.429 1_554 S
C435 C436 1.523 . S
C436 C417 1.368 1_554 S
C436 C430 1.368 . S
C436 C435 1.523 . S
C437 C421 1.429 1_554 S
C437 C433 1.429 . S
C437 C438 1.523 . S
C438 C422 1.368 . S
C438 C434 1.368 1_554 S
C438 C437 1.523 . S
H439 C414 0.950 . S
H440 C416 0.950 . S
H441 C417 0.949 . S
H442 C419 0.950 . S
H443 C421 0.950 . S
C444 C445 1.349 . S
C444 C446 1.327 . S
C444 H469 0.950 . S
C445 C444 1.349 . S
C445 C461 1.349 . S
C446 C444 1.327 . S
C446 C465 1.429 . S
C446 H470 0.950 . S
C447 C464 1.574 . S
C447 C466 1.368 . S
C447 H471 0.949 . S
H448 C452 0.949 . S
C449 C450 1.349 . S
C449 C451 1.327 . S
C449 H472 0.950 . S
C450 C449 1.349 . S
C450 C462 1.349 . S
C451 C449 1.327 . S
C451 C467 1.429 . S
C451 H473 0.950 . S
C452 H448 0.949 . S
C452 C460 1.574 . S
C452 C468 1.368 . S
H453 C461 0.950 . S
H454 C459 0.950 . S
H455 C460 0.949 . S
H456 C462 0.950 . S
H457 C463 0.950 . S
H458 C464 0.949 . S
C459 H454 0.950 . S
C459 C461 1.327 . S
C459 C465 1.429 . S
C460 C452 1.574 . S
C460 H455 0.949 . S
C460 C466 1.368 . S
C461 C445 1.349 . S
C461 H453 0.950 . S
C461 C459 1.327 . S
C462 C450 1.349 . S
C462 H456 0.950 . S
C462 C463 1.327 . S
C463 H457 0.950 . S
C463 C462 1.327 . S
C463 C467 1.429 . S
C464 C447 1.574 . S
C464 H458 0.949 . S
C464 C468 1.368 . S
C465 C446 1.429 . S
C465 C459 1.429 . S
C465 C466 1.523 . S
C466 C447 1.368 . S
C466 C460 1.368 . S
C466 C465 1.523 . S
C467 C451 1.429 . S
C467 C463 1.429 . S
C467 C468 1.523 . S
C468 C452 1.368 . S
C468 C464 1.368 . S
C468 C467 1.523 . S
H469 C444 0.950 . S
H470 C446 0.950 . S
H471 C447 0.949 . S
H472 C449 0.950 . S
H473 C451 0.950 . S
C474 C475 1.349 . S
C474 C476 1.327 . S
C474 H499 0.950 . S
C475 C474 1.349 . S
C475 C491 1.349 . S
C476 C474 1.327 . S
C476 C495 1.429 . S
C476 H500 0.950 . S
C477 C494 1.574 . S
C477 C496 1.368 . S
C477 H501 0.949 . S
H478 C482 0.949 . S
C479 C480 1.349 . S
C479 C481 1.327 . S
C479 H502 0.950 . S
C480 C479 1.349 . S
C480 C492 1.349 . S
C481 C479 1.327 . S
C481 C497 1.429 . S
C481 H503 0.950 . S
C482 H478 0.949 . S
C482 C490 1.574 . S
C482 C498 1.368 . S
H483 C491 0.950 . S
H484 C489 0.950 . S
H485 C490 0.949 . S
H486 C492 0.950 . S
H487 C493 0.950 . S
H488 C494 0.949 . S
C489 H484 0.950 . S
C489 C491 1.327 . S
C489 C495 1.429 . S
C490 C482 1.574 . S
C490 H485 0.949 . S
C490 C496 1.368 . S
C491 C475 1.349 . S
C491 H483 0.950 . S
C491 C489 1.327 . S
C492 C480 1.349 . S
C492 H486 0.950 . S
C492 C493 1.327 . S
C493 H487 0.950 . S
C493 C492 1.327 . S
C493 C497 1.429 . S
C494 C477 1.574 . S
C494 H488 0.949 . S
C494 C498 1.368 . S
C495 C476 1.429 . S
C495 C489 1.429 . S
C495 C496 1.523 . S
C496 C477 1.368 . S
C496 C490 1.368 . S
C496 C495 1.523 . S
C497 C481 1.429 . S
C497 C493 1.429 . S
C497 C498 1.523 . S
C498 C482 1.368 . S
C498 C494 1.368 . S
C498 C497 1.523 . S
H499 C474 0.950 . S
H500 C476 0.950 . S
H501 C477 0.949 . S
H502 C479 0.950 . S
H503 C481 0.950 . S
C504 C505 1.349 . S
C504 C506 1.327 . S
C504 H529 0.950 . S
C505 C504 1.349 . S
C505 C521 1.349 . S
C506 C504 1.327 . S
C506 C525 1.429 . S
C506 H530 0.950 . S
C507 C524 1.574 . S
C507 C526 1.368 . S
C507 H531 0.949 . S
H508 C512 0.949 . S
C509 C510 1.349 . S
C509 C511 1.327 . S
C509 H532 0.950 . S
C510 C509 1.349 . S
C510 C522 1.349 . S
C511 C509 1.327 . S
C511 C527 1.429 . S
C511 H533 0.950 . S
C512 H508 0.949 . S
C512 C520 1.574 . S
C512 C528 1.368 . S
H513 C521 0.950 . S
H514 C519 0.950 . S
H515 C520 0.949 . S
H516 C522 0.950 1_565 S
H517 C523 0.950 . S
H518 C524 0.949 . S
C519 H514 0.950 . S
C519 C521 1.327 . S
C519 C525 1.429 . S
C520 C512 1.574 . S
C520 H515 0.949 . S
C520 C526 1.368 . S
C521 C505 1.349 . S
C521 H513 0.950 . S
C521 C519 1.327 . S
C522 C510 1.349 . S
C522 H516 0.950 1_545 S
C522 C523 1.327 . S
C523 H517 0.950 . S
C523 C522 1.327 . S
C523 C527 1.429 . S
C524 C507 1.574 . S
C524 H518 0.949 . S
C524 C528 1.368 . S
C525 C506 1.429 . S
C525 C519 1.429 . S
C525 C526 1.523 . S
C526 C507 1.368 . S
C526 C520 1.368 . S
C526 C525 1.523 . S
C527 C511 1.429 . S
C527 C523 1.429 . S
C527 C528 1.523 . S
C528 C512 1.368 . S
C528 C524 1.368 . S
C528 C527 1.523 . S
H529 C504 0.950 . S
H530 C506 0.950 . S
H531 C507 0.949 . S
H532 C509 0.950 . S
H533 C511 0.950 . S
C534 C535 1.349 . S
C534 C536 1.327 . S
C534 H559 0.950 . S
C535 C534 1.349 . S
C535 C551 1.349 . S
C536 C534 1.327 . S
C536 C555 1.429 . S
C536 H560 0.950 . S
C537 C554 1.574 . S
C537 C556 1.368 . S
C537 H561 0.949 . S
H538 C542 0.949 . S
C539 C540 1.349 . S
C539 C541 1.327 . S
C539 H562 0.950 . S
C540 C539 1.349 . S
C540 C552 1.349 . S
C541 C539 1.327 . S
C541 C557 1.429 . S
C541 H563 0.950 . S
C542 H538 0.949 . S
C542 C550 1.574 . S
C542 C558 1.368 . S
H543 C551 0.950 . S
H544 C549 0.950 . S
H545 C550 0.949 . S
H546 C552 0.950 . S
H547 C553 0.950 . S
H548 C554 0.949 . S
C549 H544 0.950 . S
C549 C551 1.327 . S
C549 C555 1.429 . S
C550 C542 1.574 . S
C550 H545 0.949 . S
C550 C556 1.368 . S
C551 C535 1.349 . S
C551 H543 0.950 . S
C551 C549 1.327 . S
C552 C540 1.349 . S
C552 H546 0.950 . S
C552 C553 1.327 . S
C553 H547 0.950 . S
C553 C552 1.327 . S
C553 C557 1.429 . S
C554 C537 1.574 . S
C554 H548 0.949 . S
C554 C558 1.368 . S
C555 C536 1.429 . S
C555 C549 1.429 . S
C555 C556 1.523 . S
C556 C537 1.368 . S
C556 C550 1.368 . S
C556 C555 1.523 . S
C557 C541 1.429 . S
C557 C553 1.429 . S
C557 C558 1.523 . S
C558 C542 1.368 . S
C558 C554 1.368 . S
C558 C557 1.523 . S
H559 C534 0.950 . S
H560 C536 0.950 . S
H561 C537 0.949 . S
H562 C539 0.950 . S
H563 C541 0.950 . S
C564 C565 1.349 . S
C564 C566 1.327 . S
C564 H589 0.950 . S
C565 C564 1.349 . S
C565 C581 1.349 . S
C566 C564 1.327 . S
C566 C585 1.429 . S
C566 H590 0.950 . S
C567 C584 1.574 . S
C567 C586 1.368 . S
C567 H591 0.949 . S
H568 C572 0.949 . S
C569 C570 1.349 . S
C569 C571 1.327 . S
C569 H592 0.950 . S
C570 C569 1.349 . S
C570 C582 1.349 . S
C571 C569 1.327 . S
C571 C587 1.429 . S
C571 H593 0.950 . S
C572 H568 0.949 . S
C572 C580 1.574 . S
C572 C588 1.368 . S
H573 C581 0.950 . S
H574 C579 0.950 . S
H575 C580 0.949 . S
H576 C582 0.950 . S
H577 C583 0.950 . S
H578 C584 0.949 . S
C579 H574 0.950 . S
C579 C581 1.327 . S
C579 C585 1.429 . S
C580 C572 1.574 . S
C580 H575 0.949 . S
C580 C586 1.368 . S
C581 C565 1.349 . S
C581 H573 0.950 . S
C581 C579 1.327 . S
C582 C570 1.349 . S
C582 H576 0.950 . S
C582 C583 1.327 . S
C583 H577 0.950 . S
C583 C582 1.327 . S
C583 C587 1.429 . S
C584 C567 1.574 . S
C584 H578 0.949 . S
C584 C588 1.368 . S
C585 C566 1.429 . S
C585 C579 1.429 . S
C585 C586 1.523 . S
C586 C567 1.368 . S
C586 C580 1.368 . S
C586 C585 1.523 . S
C587 C571 1.429 . S
C587 C583 1.429 . S
C587 C588 1.523 . S
C588 C572 1.368 . S
C588 C584 1.368 . S
C588 C587 1.523 . S
H589 C564 0.950 . S
H590 C566 0.950 . S
H591 C567 0.949 . S
H592 C569 0.950 . S
H593 C571 0.950 . S
C594 C595 1.349 . S
C594 C596 1.327 . S
C594 H619 0.950 . S
C595 C594 1.349 . S
C595 C611 1.349 . S
C596 C594 1.327 . S
C596 C615 1.429 . S
C596 H620 0.950 . S
C597 C614 1.574 . S
C597 C616 1.368 . S
C597 H621 0.949 . S
H598 C602 0.949 . S
C599 C600 1.349 . S
C599 C601 1.327 . S
C599 H622 0.950 . S
C600 C599 1.349 . S
C600 C612 1.349 . S
C601 C599 1.327 . S
C601 C617 1.429 . S
C601 H623 0.950 . S
C602 H598 0.949 . S
C602 C610 1.574 . S
C602 C618 1.368 . S
H603 C611 0.950 . S
H604 C609 0.950 . S
H605 C610 0.949 . S
H606 C612 0.950 . S
H607 C613 0.950 . S
H608 C614 0.949 . S
C609 H604 0.950 . S
C609 C611 1.327 . S
C609 C615 1.429 . S
C610 C602 1.574 . S
C610 H605 0.949 . S
C610 C616 1.368 . S
C611 C595 1.349 . S
C611 H603 0.950 . S
C611 C609 1.327 . S
C612 C600 1.349 . S
C612 H606 0.950 . S
C612 C613 1.327 . S
C613 H607 0.950 . S
C613 C612 1.327 . S
C613 C617 1.429 . S
C614 C597 1.574 . S
C614 H608 0.949 . S
C614 C618 1.368 . S
C615 C596 1.429 . S
C615 C609 1.429 . S
C615 C616 1.523 . S
C616 C597 1.368 . S
C616 C610 1.368 . S
C616 C615 1.523 . S
C617 C601 1.429 . S
C617 C613 1.429 . S
C617 C618 1.523 . S
C618 C602 1.368 . S
C618 C614 1.368 . S
C618 C617 1.523 . S
H619 C594 0.950 . S
H620 C596 0.950 . S
H621 C597 0.949 . S
H622 C599 0.950 . S
H623 C601 0.950 . S
C624 C625 1.349 . S
C624 C626 1.327 . S
C624 H649 0.950 . S
C625 C624 1.349 . S
C625 C641 1.349 . S
C626 C624 1.327 . S
C626 C645 1.429 . S
C626 H650 0.950 . S
C627 C644 1.574 . S
C627 C646 1.368 . S
C627 H651 0.949 . S
H628 C632 0.949 . S
C629 C630 1.349 . S
C629 C631 1.327 . S
C629 H652 0.950 . S
C630 C629 1.349 . S
C630 C642 1.349 . S
C631 C629 1.327 . S
C631 C647 1.429 . S
C631 H653 0.950 . S
C632 H628 0.949 . S
C632 C640 1.574 . S
C632 C648 1.368 . S
H633 C641 0.950 . S
H634 C639 0.950 . S
H635 C640 0.949 . S
H636 C642 0.950 . S
H637 C643 0.950 . S
H638 C644 0.949 . S
C639 H634 0.950 . S
C639 C641 1.327 . S
C639 C645 1.429 . S
C640 C632 1.574 . S
C640 H635 0.949 . S
C640 C646 1.368 . S
C641 C625 1.349 . S
C641 H633 0.950 . S
C641 C639 1.327 . S
C642 C630 1.349 . S
C642 H636 0.950 . S
C642 C643 1.327 . S
C643 H637 0.950 . S
C643 C642 1.327 . S
C643 C647 1.429 . S
C644 C627 1.574 . S
C644 H638 0.949 . S
C644 C648 1.368 . S
C645 C626 1.429 . S
C645 C639 1.429 . S
C645 C646 1.523 . S
C646 C627 1.368 . S
C646 C640 1.368 . S
C646 C645 1.523 . S
C647 C631 1.429 . S
C647 C643 1.429 . S
C647 C648 1.523 . S
C648 C632 1.368 . S
C648 C644 1.368 . S
C648 C647 1.523 . S
H649 C624 0.950 . S
H650 C626 0.950 . S
H651 C627 0.949 . S
H652 C629 0.950 . S
H653 C631 0.950 . S
C654 C655 1.349 . S
C654 C656 1.327 . S
C654 H679 0.950 . S
C655 C654 1.349 . S
C655 C671 1.349 . S
C656 C654 1.327 . S
C656 C675 1.429 . S
C656 H680 0.950 . S
C657 C674 1.574 . S
C657 C676 1.368 . S
C657 H681 0.949 . S
H658 C662 0.949 . S
C659 C660 1.349 . S
C659 C661 1.327 . S
C659 H682 0.950 . S
C660 C659 1.349 . S
C660 C672 1.349 . S
C661 C659 1.327 . S
C661 C677 1.429 . S
C661 H683 0.950 . S
C662 H658 0.949 . S
C662 C670 1.574 . S
C662 C678 1.368 . S
H663 C671 0.950 . S
H664 C669 0.950 . S
H665 C670 0.949 . S
H666 C672 0.950 1_545 S
H667 C673 0.950 . S
H668 C674 0.949 . S
C669 H664 0.950 . S
C669 C671 1.327 . S
C669 C675 1.429 . S
C670 C662 1.574 . S
C670 H665 0.949 . S
C670 C676 1.368 . S
C671 C655 1.349 . S
C671 H663 0.950 . S
C671 C669 1.327 . S
C672 C660 1.349 . S
C672 H666 0.950 1_565 S
C672 C673 1.327 . S
C673 H667 0.950 . S
C673 C672 1.327 . S
C673 C677 1.429 . S
C674 C657 1.574 . S
C674 H668 0.949 . S
C674 C678 1.368 . S
C675 C656 1.429 . S
C675 C669 1.429 . S
C675 C676 1.523 . S
C676 C657 1.368 . S
C676 C670 1.368 . S
C676 C675 1.523 . S
C677 C661 1.429 . S
C677 C673 1.429 . S
C677 C678 1.523 . S
C678 C662 1.368 . S
C678 C674 1.368 . S
C678 C677 1.523 . S
H679 C654 0.950 . S
H680 C656 0.950 . S
H681 C657 0.949 . S
H682 C659 0.950 . S
H683 C661 0.950 . S
C330 C219 1.625 . S
C325 C138 1.626 . S
C355 C21 1.613 . S
C360 C314 1.612 . S
C385 C60 1.631 . S
C390 C230 1.625 . S
C415 C99 1.621 . S
C420 C303 1.612 . S
C450 C214 1.418 . S
C445 C16 1.562 . S
C480 C307 1.612 . S
C475 C40 1.605 . S
C505 C79 1.592 . S
C510 C223 1.605 . S
C535 C133 1.546 . S
C540 C298 1.406 . S
C570 C309 1.406 . S
C565 C55 1.545 . S
C600 C225 1.418 . S
C595 C94 1.560 . S
C630 C296 1.612 . S
C625 C118 1.603 . S
C655 C1 1.588 . S
C660 C212 1.605 . S
