# Generated by pormake.
# Topology pyr, (3,6)-cn, num edge types: 1
# Building blocks:
#     Node 0, Type 0, BuildingBlock: BETDAH_clean_linker_0, # of connection points: 3
#     Node 1, Type 0, BuildingBlock: BETDAH_clean_linker_0, # of connection points: 3
#     Node 2, Type 0, BuildingBlock: BETDAH_clean_linker_0, # of connection points: 3
#     Node 3, Type 0, BuildingBlock: BETDAH_clean_linker_0, # of connection points: 3
#     Node 4, Type 0, BuildingBlock: BETDAH_clean_linker_0, # of connection points: 3
#     Node 5, Type 0, BuildingBlock: BETDAH_clean_linker_0, # of connection points: 3
#     Node 6, Type 0, BuildingBlock: BETDAH_clean_linker_0, # of connection points: 3
#     Node 7, Type 0, BuildingBlock: BETDAH_clean_linker_0, # of connection points: 3
#     Node 8, Type 1, BuildingBlock: PAMTOO_clean_sbu_0, # of connection points: 6
#     Node 9, Type 1, BuildingBlock: PAMTOO_clean_sbu_0, # of connection points: 6
#     Node 10, Type 1, BuildingBlock: PAMTOO_clean_sbu_0, # of connection points: 6
#     Node 11, Type 1, BuildingBlock: PAMTOO_clean_sbu_0, # of connection points: 6
#     Edge 12, Type (0, 1), BuildingBlock: AJUNOK_clean_linker_0, # of connection points: 2
#     Edge 13, Type (0, 1), BuildingBlock: AJUNOK_clean_linker_0, # of connection points: 2
#     Edge 14, Type (0, 1), BuildingBlock: AJUNOK_clean_linker_0, # of connection points: 2
#     Edge 15, Type (0, 1), BuildingBlock: AJUNOK_clean_linker_0, # of connection points: 2
#     Edge 16, Type (0, 1), BuildingBlock: AJUNOK_clean_linker_0, # of connection points: 2
#     Edge 17, Type (0, 1), BuildingBlock: AJUNOK_clean_linker_0, # of connection points: 2
#     Edge 18, Type (0, 1), BuildingBlock: AJUNOK_clean_linker_0, # of connection points: 2
#     Edge 19, Type (0, 1), BuildingBlock: AJUNOK_clean_linker_0, # of connection points: 2
#     Edge 20, Type (0, 1), BuildingBlock: AJUNOK_clean_linker_0, # of connection points: 2
#     Edge 21, Type (0, 1), BuildingBlock: AJUNOK_clean_linker_0, # of connection points: 2
#     Edge 22, Type (0, 1), BuildingBlock: AJUNOK_clean_linker_0, # of connection points: 2
#     Edge 23, Type (0, 1), BuildingBlock: AJUNOK_clean_linker_0, # of connection points: 2
#     Edge 24, Type (0, 1), BuildingBlock: AJUNOK_clean_linker_0, # of connection points: 2
#     Edge 25, Type (0, 1), BuildingBlock: AJUNOK_clean_linker_0, # of connection points: 2
#     Edge 26, Type (0, 1), BuildingBlock: AJUNOK_clean_linker_0, # of connection points: 2
#     Edge 27, Type (0, 1), BuildingBlock: AJUNOK_clean_linker_0, # of connection points: 2
#     Edge 28, Type (0, 1), BuildingBlock: AJUNOK_clean_linker_0, # of connection points: 2
#     Edge 29, Type (0, 1), BuildingBlock: AJUNOK_clean_linker_0, # of connection points: 2
#     Edge 30, Type (0, 1), BuildingBlock: AJUNOK_clean_linker_0, # of connection points: 2
#     Edge 31, Type (0, 1), BuildingBlock: AJUNOK_clean_linker_0, # of connection points: 2
#     Edge 32, Type (0, 1), BuildingBlock: AJUNOK_clean_linker_0, # of connection points: 2
#     Edge 33, Type (0, 1), BuildingBlock: AJUNOK_clean_linker_0, # of connection points: 2
#     Edge 34, Type (0, 1), BuildingBlock: AJUNOK_clean_linker_0, # of connection points: 2
#     Edge 35, Type (0, 1), BuildingBlock: AJUNOK_clean_linker_0, # of connection points: 2
# Relax obj value: 0.191
# Max RMSD: 0.221
# Mean RMSD: 0.129
data_MOF--net-pyr--node1-PAMTOO_clean_sbu_0--node2-BETDAH_clean_linker_0--edge1-AJUNOK_clean_linker_0
_symmetry_space_group_name_H-M    P1
_symmetry_Int_Tables_number       1
_symmetry_cell_setting            triclinic
loop_
_symmetry_equiv_pos_as_xyz
'x, y, z'
_cell_length_a     26.572275
_cell_length_b     29.46438
_cell_length_c     29.238409
_cell_angle_alpha  90.566776
_cell_angle_beta   90.990474
_cell_angle_gamma 111.38502
loop_
_atom_site_label
_atom_site_type_symbol
_atom_site_fract_x
_atom_site_fract_y
_atom_site_fract_z
_atom_type_partial_charge
H0 H 0.44419 0.24957 0.31733 0.0
H1 H 0.48824 0.3377 0.19731 0.0
H2 H 0.38852 0.36769 0.29864 0.0
C3 C 0.44481 0.28102 0.29802 0.0
C4 C 0.41543 0.30881 0.31341 0.0
C5 C 0.4711 0.29094 0.2561 0.0
C6 C 0.4699 0.33075 0.2306 0.0
C7 C 0.43991 0.35838 0.24549 0.0
C8 C 0.41295 0.34744 0.28726 0.0
N9 N 0.43321 0.39379 0.21603 0.0
C10 C 0.38526 0.40254 0.21414 0.0
H11 H 0.25106 0.78998 0.82671 0.0
H12 H 0.11012 0.82343 0.79507 0.0
H13 H 0.17025 0.74822 0.69594 0.0
C14 C 0.21669 0.78593 0.8043 0.0
C15 C 0.2138 0.76462 0.76081 0.0
C16 C 0.1792 0.80683 0.81718 0.0
C17 C 0.13827 0.8061 0.78591 0.0
C18 C 0.13494 0.78487 0.74218 0.0
C19 C 0.172 0.76329 0.73015 0.0
N20 N 0.09766 0.78859 0.70858 0.0
C21 C 0.08496 0.83022 0.70539 0.0
H22 H 0.74521 0.3754 1.00112 0.0
H23 H 0.73404 0.48805 0.91313 0.0
H24 H 0.60369 0.34806 0.91613 0.0
C25 C 0.72373 0.38709 0.97466 0.0
C26 C 0.673 0.35482 0.95915 0.0
C27 C 0.74677 0.43474 0.95804 0.0
C28 C 0.71738 0.45107 0.92536 0.0
C29 C 0.66545 0.41957 0.90994 0.0
C30 C 0.6437 0.37194 0.92749 0.0
N31 N 0.63093 0.43539 0.8813 0.0
C32 C 0.64416 0.46628 0.84352 0.0
H33 H 0.83084 0.77685 0.5047 0.0
H34 H 0.96838 0.80392 0.42001 0.0
H35 H 0.84006 0.66267 0.41551 0.0
C36 C 0.85105 0.76478 0.47794 0.0
C37 C 0.828 0.71642 0.46116 0.0
C38 C 0.90057 0.79735 0.4626 0.0
C39 C 0.92898 0.77993 0.43093 0.0
C40 C 0.90743 0.73171 0.41312 0.0
C41 C 0.85644 0.69997 0.42817 0.0
N42 N 0.94214 0.71521 0.38613 0.0
C43 C 0.93009 0.68628 0.34599 0.0
H44 H 0.74215 0.78397 0.88117 0.0
H45 H 0.66231 0.74835 1.01008 0.0
H46 H 0.60269 0.82002 0.90677 0.0
C47 C 0.70846 0.7813 0.90279 0.0
C48 C 0.67103 0.80172 0.88806 0.0
C49 C 0.70596 0.76197 0.94675 0.0
C50 C 0.66423 0.76218 0.97569 0.0
C51 C 0.62714 0.78333 0.96152 0.0
C52 C 0.63061 0.80286 0.9176 0.0
N53 N 0.58933 0.78819 0.99298 0.0
C54 C 0.57802 0.83067 0.99531 0.0
H55 H 0.96073 0.26521 0.39391 0.0
H56 H 0.97282 0.33554 0.52517 0.0
H57 H 0.90857 0.38665 0.40933 0.0
C58 C 0.95818 0.2951 0.41448 0.0
C59 C 0.93601 0.32744 0.3953 0.0
C60 C 0.97089 0.29743 0.46132 0.0
C61 C 0.96435 0.33425 0.48867 0.0
C62 C 0.94161 0.36619 0.47016 0.0
C63 C 0.92746 0.36274 0.42345 0.0
N64 N 0.9292 0.39877 0.49979 0.0
C65 C 0.87874 0.40292 0.49857 0.0
H66 H 0.35272 0.79353 0.20495 0.0
H67 H 0.35086 0.68477 0.30338 0.0
H68 H 0.48233 0.82411 0.30385 0.0
C69 C 0.37192 0.78189 0.23313 0.0
C70 C 0.421 0.81456 0.2514 0.0
C71 C 0.34706 0.73445 0.24986 0.0
C72 C 0.36986 0.72079 0.28943 0.0
C73 C 0.41856 0.75391 0.3097 0.0
C74 C 0.44385 0.79994 0.28966 0.0
N75 N 0.44586 0.74347 0.34873 0.0
C76 C 0.43118 0.70395 0.37869 0.0
H77 H 0.234 0.36476 0.7128 0.0
H78 H 0.2306 0.4849 0.79695 0.0
H79 H 0.10029 0.34549 0.80037 0.0
C80 C 0.21425 0.37949 0.73789 0.0
C81 C 0.16433 0.34897 0.75456 0.0
C82 C 0.23846 0.42883 0.75146 0.0
C83 C 0.21373 0.44684 0.78658 0.0
C84 C 0.16436 0.41603 0.80558 0.0
C85 C 0.13987 0.36779 0.78836 0.0
N86 N 0.13271 0.4334 0.8354 0.0
C87 C 0.14829 0.46522 0.87361 0.0
Dy88 Dy 0.08701 0.08583 0.58615 0.0
Dy89 Dy 0.96977 0.06068 0.63424 0.0
C90 C 0.07073 0.157 0.66257 0.0
O91 O 0.08815 0.04382 0.64947 0.0
O92 O 0.99757 1.00176 0.65627 0.0
O93 O 0.17408 0.11763 0.59361 0.0
O94 O 0.13632 0.08145 0.53002 0.0
O95 O 0.95353 1.00899 0.57329 0.0
O96 O 0.03899 1.00976 0.56202 0.0
O97 O 0.98114 0.12527 0.59182 0.0
O98 O 0.04167 0.11875 0.53969 0.0
O99 O 0.8838 0.04514 0.62771 0.0
O100 O 0.92286 0.05317 0.69474 0.0
C101 C 0.04774 1.00589 0.66387 0.0
O102 O 0.09155 0.15408 0.62282 0.0
O103 O 0.03069 0.1195 0.67829 0.0
C104 C 0.21728 0.14864 0.52495 0.0
C105 C 0.28309 0.21761 0.46493 0.0
C106 C 0.22971 0.2143 0.47181 0.0
C107 C 0.197 0.18008 0.50183 0.0
C108 C 0.27145 0.1539 0.52024 0.0
C109 C 0.30432 0.18839 0.49049 0.0
C110 C 0.18129 0.10804 0.55111 0.0
C111 C 0.98647 0.98966 0.55524 0.0
C112 C 1.00539 0.13668 0.55269 0.0
C113 C 0.83324 0.99866 0.68785 0.0
C114 C 0.75565 0.92274 0.73421 0.0
C115 C 0.80364 0.91778 0.71972 0.0
C116 C 0.84201 0.95539 0.69643 0.0
C117 C 0.78399 1.00247 0.69933 0.0
C118 C 0.7453 0.96466 0.72223 0.0
C119 C 0.87719 0.04167 0.67181 0.0
H120 H 0.21273 0.2367 0.45249 0.0
H121 H 0.15528 0.17668 0.5055 0.0
H122 H 0.28763 0.12996 0.53804 0.0
H123 H 0.3453 0.1902 0.48538 0.0
H124 H 0.81344 0.88649 0.72924 0.0
H125 H 0.87985 0.95193 0.68754 0.0
H126 H 0.77662 0.03566 0.6927 0.0
H127 H 0.70859 0.96932 0.73284 0.0
Dy128 Dy 0.49015 0.07009 0.08095 0.0
Dy129 Dy 0.61188 0.09591 0.12511 0.0
C130 C 0.51182 0.99989 0.15452 0.0
O131 O 0.49401 0.10664 0.14882 0.0
O132 O 0.58367 0.15372 0.15072 0.0
O133 O 0.40321 0.04104 0.08807 0.0
O134 O 0.43919 0.07878 1.02662 0.0
O135 O 0.62331 0.14395 0.06383 0.0
O136 O 0.53845 0.14628 1.05915 0.0
O137 O 0.59825 0.03044 0.08139 0.0
O138 O 0.52691 0.02973 1.03498 0.0
O139 O 0.69798 0.11472 0.11778 0.0
O140 O 0.66263 0.10402 0.18501 0.0
C141 C 0.53413 0.14583 0.16304 0.0
O142 O 0.48599 1.00204 0.1164 0.0
O143 O 0.55492 0.03693 0.16872 0.0
C144 C 0.35398 1.01486 1.01769 0.0
C145 C 0.27689 0.94368 0.96185 0.0
C146 C 0.27283 0.94167 1.00967 0.0
C147 C 0.31105 0.97711 1.03741 0.0
C148 C 0.35711 1.01717 0.96982 0.0
C149 C 0.3192 0.98191 0.94231 0.0
C150 C 0.39453 0.05263 1.04647 0.0
C151 C 0.58985 0.16453 1.04903 0.0
C152 C 0.56598 1.01396 1.04563 0.0
C153 C 0.75043 0.16118 0.1797 0.0
C154 C 0.82578 0.23905 0.22966 0.0
C155 C 0.78039 0.24452 0.20855 0.0
C156 C 0.74288 0.20575 0.18368 0.0
C157 C 0.79729 0.15668 0.19802 0.0
C158 C 0.83469 0.19527 0.22287 0.0
C159 C 0.70706 0.11752 0.16188 0.0
H160 H 0.24016 0.91288 1.02553 0.0
H161 H 0.30706 0.9749 0.0742 0.0
H162 H 0.38911 0.04608 0.95341 0.0
H163 H 0.32362 0.98408 0.90553 0.0
H164 H 0.77247 0.27778 0.2134 0.0
H165 H 0.70666 0.20965 0.16971 0.0
H166 H 0.8034 0.12233 0.19544 0.0
H167 H 0.86841 0.18938 0.23964 0.0
Dy168 Dy 0.52467 0.52334 0.57879 0.0
Dy169 Dy 0.54437 0.62559 0.63256 0.0
C170 C 0.58725 0.54693 0.67754 0.0
O171 O 0.44314 0.5113 0.60937 0.0
O172 O 0.47227 0.57116 0.66496 0.0
O173 O 0.5064 0.44544 0.57688 0.0
O174 O 0.52914 0.48694 0.51522 0.0
O175 O 0.48329 0.62184 0.57633 0.0
O176 O 0.50192 0.5695 0.52743 0.0
O177 O 0.60752 0.64352 0.57892 0.0
O178 O 0.61286 0.56844 0.57154 0.0
O179 O 0.56146 0.70319 0.63198 0.0
O180 O 0.54823 0.66521 0.69603 0.0
C181 C 0.43538 0.53128 0.64801 0.0
O182 O 0.55383 0.51421 0.64942 0.0
O183 O 0.59778 0.59383 0.67166 0.0
C184 C 0.57137 0.43173 0.53062 0.0
C185 C 0.66838 0.41562 0.5169 0.0
C186 C 0.66262 0.44179 0.55551 0.0
C187 C 0.61491 0.45017 0.56201 0.0
C188 C 0.5764 0.40474 0.49234 0.0
C189 C 0.6247 0.39673 0.48548 0.0
C190 C 0.52441 0.44653 0.53551 0.0
C191 C 0.48189 0.60361 0.53474 0.0
C192 C 0.63202 0.61528 0.56333 0.0
C193 C 0.50492 0.72062 0.68526 0.0
C194 C 0.40934 0.73466 0.70923 0.0
C195 C 0.41603 0.7208 0.6644 0.0
C196 C 0.46319 0.7136 0.65259 0.0
C197 C 0.49925 0.7363 0.72965 0.0
C198 C 0.45179 0.74336 0.74157 0.0
C199 C 0.54986 0.70443 0.67501 0.0
H200 H 0.6958 0.45727 0.57994 0.0
H201 H 0.61269 0.47255 0.5909 0.0
H202 H 0.54364 0.39098 0.46728 0.0
H203 H 0.62806 0.37612 0.45558 0.0
H204 H 0.38394 0.71381 0.63886 0.0
H205 H 0.46603 0.70075 0.61829 0.0
H206 H 0.53069 0.74143 0.75547 0.0
H207 H 0.44797 0.75498 0.77617 0.0
Dy208 Dy 0.05 0.633 0.08153 0.0
Dy209 Dy 0.03655 0.53265 0.13404 0.0
C210 C 0.99113 0.60926 0.17952 0.0
O211 O 0.13366 0.64667 0.11049 0.0
O212 O 0.10865 0.59012 0.16719 0.0
O213 O 0.06241 0.70984 0.08214 0.0
O214 O 0.04623 0.6691 1.01828 0.0
O215 O 0.09491 0.53605 0.07743 0.0
O216 O 0.07394 0.58792 1.02969 0.0
O217 O 0.97192 0.51175 0.07914 0.0
O218 O 0.9627 0.58521 0.07146 0.0
O219 O 1.01639 0.45458 0.13343 0.0
O220 O 0.04307 0.49596 0.19635 0.0
C221 C 0.14438 0.6287 0.14902 0.0
O222 O 0.02341 0.64218 0.15254 0.0
O223 O 0.98191 0.56254 0.17265 0.0
C224 C 0.99998 0.72198 1.02957 0.0
C225 C 0.90211 0.73312 1.005 0.0
C226 C 0.90834 0.71464 1.04788 0.0
C227 C 0.95661 0.70861 0.05984 0.0
C228 C 0.99443 0.74189 0.98728 0.0
C229 C 0.94581 0.74738 0.97504 0.0
C230 C 0.04735 0.70861 1.03929 0.0
C231 C 0.09544 0.55472 1.03651 0.0
C232 C 0.94557 0.53822 0.06277 0.0
C233 C 0.08021 0.43702 0.18004 0.0
C234 C 0.17696 0.41995 0.19376 0.0
C235 C 0.1631 0.43238 0.15042 0.0
C236 C 0.11528 0.44086 0.14363 0.0
C237 C 0.09292 0.42283 0.22304 0.0
C238 C 0.14096 0.41423 0.22987 0.0
C239 C 0.03552 0.45504 0.17485 0.0
H240 H 0.87517 0.70321 0.07144 0.0
H241 H 0.95932 0.69185 0.09211 0.0
H242 H 0.02704 0.75168 0.96316 0.0
H243 H 0.94208 0.76221 0.94195 0.0
H244 H 0.18992 0.43661 0.12195 0.0
H245 H 0.1069 0.45231 0.11025 0.0
H246 H 0.06687 0.42043 0.25175 0.0
H247 H 0.151 0.40516 0.26377 0.0
C248 C 0.39878 0.30313 0.39729 0.0
C249 C 0.37939 0.29112 0.3521 0.0
C250 C 0.36652 0.28071 0.43422 0.0
C251 C 0.31409 0.246 0.42673 0.0
H252 H 0.43956 0.32865 0.40397 0.0
H253 H 0.38305 0.28953 0.46871 0.0
S254 S 0.24675 0.20068 0.31442 0.0
N255 N 0.30604 0.2418 0.30164 0.0
N256 N 0.24511 0.2 0.37084 0.0
C257 C 0.29422 0.23454 0.38159 0.0
C258 C 0.32705 0.25703 0.34425 0.0
C259 C 0.19357 0.88591 0.85659 0.0
C260 C 0.18977 0.83718 0.85951 0.0
C261 C 0.21776 0.91945 0.89195 0.0
C262 C 0.23916 0.90551 0.93138 0.0
H263 H 0.1818 0.89926 0.82535 0.0
H264 H 0.22292 0.95729 0.88711 0.0
S265 S 0.22997 0.7802 0.95916 0.0
N266 N 0.2014 0.77484 0.90777 0.0
N267 N 0.24855 0.83838 0.97393 0.0
C268 C 0.23088 0.85595 0.93667 0.0
C269 C 0.20585 0.82166 0.90071 0.0
C270 C 0.63891 0.53754 0.79983 0.0
C271 C 0.64017 0.49012 0.80038 0.0
C272 C 0.62475 0.55693 0.7595 0.0
C273 C 0.61019 0.52926 0.7183 0.0
H274 H 0.64687 0.55916 0.83118 0.0
H275 H 0.62262 0.59292 0.76129 0.0
S276 S 0.61086 0.40412 0.70146 0.0
N277 N 0.62881 0.41723 0.75579 0.0
N278 N 0.60172 0.45258 0.68085 0.0
C279 C 0.61341 0.48241 0.71842 0.0
C280 C 0.62841 0.46315 0.75916 0.0
C281 C 0.93727 0.6164 0.3001 0.0
C282 C 0.93562 0.66367 0.30218 0.0
C283 C 0.95256 0.59796 0.2598 0.0
C284 C 0.96789 0.62641 0.22014 0.0
H285 H 0.92863 0.59411 0.33033 0.0
H286 H 0.95474 0.56198 0.26051 0.0
S287 S 0.96696 0.75167 0.20747 0.0
N288 N 0.94781 0.73741 0.26053 0.0
N289 N 0.97683 0.70377 0.18564 0.0
C290 C 0.96445 0.67318 0.22168 0.0
C291 C 0.94837 0.69153 0.26241 0.0
C292 C 0.45614 0.20547 0.23296 0.0
C293 C 0.49095 0.25464 0.23559 0.0
C294 C 0.4713 0.17042 0.21072 0.0
C295 C 0.522 0.18303 0.19032 0.0
H296 H 0.41601 0.19418 0.24697 0.0
H297 H 0.44247 0.13328 0.20882 0.0
S298 S 0.62916 0.30664 0.1899 0.0
N299 N 0.57908 0.31409 0.21775 0.0
N300 N 0.60806 0.24817 0.1757 0.0
C301 C 0.55799 0.23192 0.19388 0.0
C302 C 0.54226 0.26776 0.2164 0.0
C303 C 0.11815 0.91654 0.6846 0.0
C304 C 0.07625 0.87543 0.70034 0.0
C305 C 0.10956 0.95986 0.67563 0.0
C306 C 0.05859 0.96331 0.68194 0.0
H307 H 0.1574 0.9148 0.67788 0.0
H308 H 0.14249 0.98998 0.66168 0.0
S309 S 0.93748 0.86619 0.72757 0.0
N310 N 0.98373 0.84104 0.72539 0.0
N311 N 0.96696 0.92226 0.70895 0.0
C312 C 0.01717 0.92274 0.70004 0.0
C313 C 0.02614 0.87874 0.70909 0.0
C314 C 0.80823 0.50981 1.00156 0.0
C315 C 0.80097 0.4662 0.97735 0.0
C316 C 0.85558 0.53379 1.02828 0.0
C317 C 0.89697 0.51459 1.03232 0.0
H318 H 0.77608 0.52418 1.00164 0.0
H319 H 0.85881 0.56653 1.04728 0.0
S320 S 0.90085 0.40541 0.97006 0.0
N321 N 0.84194 0.4082 0.95493 0.0
N322 N 0.92969 0.45221 1.0053 0.0
C323 C 0.89124 0.47251 1.00618 0.0
C324 C 0.84368 0.44868 0.97868 0.0
C325 C 0.73446 0.7048 0.48651 0.0
C326 C 0.77484 0.68487 0.48056 0.0
C327 C 0.68888 0.68178 0.51289 0.0
C328 C 0.6805 0.63702 0.53412 0.0
H329 H 0.7391 0.73972 0.47189 0.0
H330 H 0.66012 0.69972 0.51692 0.0
S331 S 0.77046 0.56604 0.52541 0.0
N332 N 0.80138 0.61566 0.49587 0.0
N333 N 0.71446 0.57131 0.54406 0.0
C334 C 0.71864 0.61488 0.52618 0.0
C335 C 0.76589 0.6389 0.49968 0.0
C336 C 0.32827 0.44865 0.1916 0.0
C337 C 0.33324 0.40735 0.2114 0.0
C338 C 0.27749 0.45265 0.18653 0.0
C339 C 0.23023 0.41548 0.20126 0.0
H340 H 0.36367 0.47775 0.17949 0.0
H341 H 0.27516 0.48504 0.17092 0.0
S342 S 0.22262 0.29979 0.25476 0.0
N343 N 0.28766 0.32859 0.24557 0.0
N344 N 0.19202 0.33602 0.23615 0.0
C345 C 0.23508 0.37424 0.22158 0.0
C346 C 0.28673 0.37016 0.22654 0.0
C347 C 0.59777 0.28488 0.99461 0.0
C348 C 0.6507 0.30413 0.97797 0.0
C349 C 0.57827 0.23951 1.01655 0.0
C350 C 0.61075 0.21121 1.02296 0.0
H351 H 0.57172 0.30574 0.99205 0.0
H352 H 0.53766 0.22718 1.0296 0.0
S353 S 0.75056 0.24275 0.98131 0.0
N354 N 0.73371 0.28919 0.96605 0.0
N355 N 0.69769 0.20491 1.00773 0.0
C356 C 0.66317 0.22936 1.00508 0.0
C357 C 0.68289 0.2754 0.98254 0.0
C358 C 0.97703 0.86884 0.49843 0.0
C359 C 0.92309 0.84848 0.48221 0.0
C360 C 0.99715 0.91464 0.52105 0.0
C361 C 0.96431 0.9423 0.52873 0.0
H362 H 1.00354 0.84854 0.49499 0.0
H363 H 0.03863 0.9278 0.53369 0.0
S364 S 0.82161 0.90792 0.48879 0.0
N365 N 0.83845 0.86177 0.47208 0.0
N366 N 0.87577 0.94683 0.51528 0.0
C367 C 0.91075 0.92303 0.51145 0.0
C368 C 0.89038 0.87657 0.48808 0.0
C369 C 0.28765 0.77294 0.70625 0.0
C370 C 0.25962 0.75142 0.74556 0.0
C371 C 0.3358 0.76701 0.69461 0.0
C372 C 0.35773 0.73945 0.72192 0.0
H373 H 0.27342 0.79614 0.68531 0.0
H374 H 0.3568 0.78521 0.66465 0.0
S375 S 0.29654 0.67108 0.82544 0.0
N376 N 0.25487 0.6985 0.80985 0.0
N377 N 0.34537 0.68701 0.7878 0.0
C378 C 0.32906 0.71626 0.7604 0.0
C379 C 0.28 0.7223 0.77223 0.0
C380 C 0.6894 0.87906 0.84673 0.0
C381 C 0.68038 0.82907 0.84504 0.0
C382 C 0.71 0.90852 0.80917 0.0
C383 C 0.72208 0.88894 0.76852 0.0
H384 H 0.68415 0.8962 0.87834 0.0
H385 H 0.72013 0.94744 0.81329 0.0
S386 S 0.69526 0.75831 0.74414 0.0
N387 N 0.6778 0.75986 0.79794 0.0
N388 N 0.7158 0.81523 0.72664 0.0
C389 C 0.70876 0.83823 0.76514 0.0
C390 C 0.68808 0.80827 0.8036 0.0
C391 C 0.85725 0.30886 0.34159 0.0
C392 C 0.91255 0.3177 0.34835 0.0
C393 C 0.83031 0.28742 0.30087 0.0
C394 C 0.85777 0.27417 0.26549 0.0
H395 H 0.83365 0.31483 0.36927 0.0
H396 H 0.78685 0.27747 0.29877 0.0
S397 S 1.0051 0.30001 0.26258 0.0
N398 N 0.99564 0.31912 0.31389 0.0
N399 N 0.94498 0.27917 0.23682 0.0
C400 C 0.91413 0.28752 0.27004 0.0
C401 C 0.94153 0.30918 0.31165 0.0
C402 C 0.43423 0.68994 0.46261 0.0
C403 C 0.43388 0.67305 0.4173 0.0
C404 C 0.44728 0.66617 0.5003 0.0
C405 C 0.46119 0.62453 0.49454 0.0
H406 H 0.42646 0.72306 0.46895 0.0
H407 H 0.44844 0.68185 0.53412 0.0
S408 S 0.46332 0.56423 0.38237 0.0
N409 N 0.44638 0.61113 0.36877 0.0
N410 N 0.4705 0.56625 0.43867 0.0
C411 C 0.45891 0.60634 0.44917 0.0
C412 C 0.44552 0.63064 0.41091 0.0
C413 C 0.13451 0.46756 0.95786 0.0
C414 C 0.1454 0.49188 0.91583 0.0
C415 C 0.12109 0.48895 0.99713 0.0
C416 C 0.11708 0.53548 0.99609 0.0
H417 H 0.13419 0.43077 0.96002 0.0
H418 H 0.1113 0.46774 1.02794 0.0
S419 S 0.14578 0.6159 0.89484 0.0
N420 N 0.15426 0.56612 0.87615 0.0
N421 N 0.12918 0.60632 0.94907 0.0
C422 C 0.12999 0.56084 0.95445 0.0
C423 C 0.14399 0.53909 0.91465 0.0
C424 C 0.52431 0.88342 1.00397 0.0
C425 C 0.57451 0.87821 1.00001 0.0
C426 C 0.5215 0.92909 1.01464 0.0
C427 C 0.56889 0.97045 1.02214 0.0
H428 H 0.4872 0.85181 1.00076 0.0
H429 H 0.48223 0.93127 1.0202 0.0
S430 S 0.70972 0.97586 1.01078 0.0
N431 N 0.67205 0.91813 1.00013 0.0
N432 N 0.66707 1.00367 1.02102 0.0
C433 C 0.61909 0.9658 1.01567 0.0
C434 C 0.62182 0.91963 1.0044 0.0
C435 C 0.02525 0.24405 0.47404 0.0
C436 C 0.9795 0.25568 0.48308 0.0
C437 C 0.0328 0.20421 0.49523 0.0
C438 C 0.99447 0.1746 0.52564 0.0
H439 H 0.05575 0.26644 0.45126 0.0
H440 H 0.0695 0.19749 0.48878 0.0
S441 S 0.86399 0.18634 0.55476 0.0
N442 N 0.89326 0.23229 0.52059 0.0
N443 N 0.90637 0.15727 0.55963 0.0
C444 C 0.94728 0.18478 0.53286 0.0
C445 C 0.94007 0.22535 0.51178 0.0
C446 C 0.249 0.67658 0.24706 0.0
C447 C 0.29744 0.70106 0.22433 0.0
C448 C 0.20005 0.65258 0.22242 0.0
C449 C 0.19726 0.65275 0.17407 0.0
H450 H 0.2484 0.67767 0.28408 0.0
H451 H 0.16364 0.63518 0.24153 0.0
S452 S 0.31383 0.70506 0.09808 0.0
N453 N 0.34037 0.71827 0.15025 0.0
N454 N 0.24846 0.67538 0.10464 0.0
C455 C 0.24573 0.67516 0.15101 0.0
C456 C 0.29565 0.69855 0.17592 0.0
C457 C 0.28978 0.45312 0.67785 0.0
C458 C 0.28757 0.46006 0.72572 0.0
C459 C 0.33715 0.47606 0.65311 0.0
C460 C 0.38464 0.50816 0.67465 0.0
H461 H 0.25457 0.42885 0.65915 0.0
H462 H 0.33644 0.46848 0.61673 0.0
S463 S 0.40055 0.54153 0.79874 0.0
N464 N 0.33754 0.50279 0.79322 0.0
N465 N 0.42577 0.54727 0.74697 0.0
C466 C 0.38254 0.51717 0.72218 0.0
C467 C 0.33434 0.49309 0.74752 0.0
C468 C 0.77829 0.76864 1.00545 0.0
C469 C 0.7515 0.74837 0.96391 0.0
C470 C 0.82641 0.76269 1.01899 0.0
C471 C 0.84969 0.73667 0.99131 0.0
H472 H 0.76328 0.79102 1.02672 0.0
H473 H 0.84652 0.77996 1.0506 0.0
S474 S 0.79189 0.67097 0.88262 0.0
N475 N 0.74902 0.69702 0.89763 0.0
N476 N 0.83988 0.68655 0.92282 0.0
C477 C 0.82217 0.71445 0.95077 0.0
C478 C 0.77298 0.72011 0.93717 0.0
C479 C 0.4475 0.8646 0.18009 0.0
C480 C 0.44831 0.86268 0.22835 0.0
C481 C 0.46841 0.90891 0.15695 0.0
C482 C 0.49235 0.95363 0.18073 0.0
H483 H 0.43012 0.83142 0.15973 0.0
H484 H 0.46594 0.90802 0.1199 0.0
S485 S 0.50601 0.96992 0.30691 0.0
N486 N 0.47533 0.91047 0.29903 0.0
N487 N 0.51665 0.99344 0.2553 0.0
C488 C 0.49519 0.95249 0.22882 0.0
C489 C 0.47287 0.90723 0.25262 0.0
C490 C 0.13797 0.2937 0.68498 0.0
C491 C 0.13674 0.29922 0.73287 0.0
C492 C 0.11627 0.24785 0.66314 0.0
C493 C 0.09132 0.20494 0.68784 0.0
H494 H 0.15618 0.32525 0.66387 0.0
H495 H 0.119 0.24621 0.62627 0.0
S496 S 0.07573 0.19849 0.8138 0.0
N497 N 0.10772 0.25714 0.8044 0.0
N498 N 0.06542 0.17099 0.76308 0.0
C499 C 0.08813 0.20973 0.73561 0.0
C500 C 0.11102 0.25672 0.75812 0.0
C501 C 0.79594 0.3896 0.54124 0.0
C502 C 0.82527 0.40462 0.50118 0.0
C503 C 0.74455 0.3921 0.54551 0.0
C504 C 0.72068 0.40942 0.5097 0.0
H505 H 0.81307 0.37635 0.56969 0.0
H506 H 0.72346 0.38076 0.57725 0.0
S507 S 0.78194 0.4533 0.39777 0.0
N508 N 0.82761 0.43712 0.42503 0.0
N509 N 0.73089 0.44213 0.43289 0.0
C510 C 0.74958 0.42391 0.46914 0.0
C511 C 0.80204 0.42149 0.46494 0.0
loop_
_geom_bond_atom_site_label_1
_geom_bond_atom_site_label_2
_geom_bond_distance
_geom_bond_site_symmetry_2
_ccdc_geom_bond_type
H0 C3 0.929 . S
H1 C6 0.929 . S
H2 C8 0.930 . S
C3 H0 0.929 . S
C3 C4 1.398 . S
C3 C5 1.396 . S
C4 C3 1.398 . S
C4 C8 1.407 . S
C5 C3 1.396 . S
C5 C6 1.394 . S
C6 H1 0.929 . S
C6 C5 1.394 . S
C6 C7 1.382 . S
C7 C6 1.382 . S
C7 C8 1.392 . S
C7 N9 1.420 . S
C8 H2 0.930 . S
C8 C4 1.407 . S
C8 C7 1.392 . S
N9 C7 1.420 . S
N9 C10 1.244 . S
C10 N9 1.244 . S
H11 C14 0.929 . S
H12 C17 0.929 . S
H13 C19 0.930 . S
C14 H11 0.929 . S
C14 C15 1.398 . S
C14 C16 1.396 . S
C15 C14 1.398 . S
C15 C19 1.407 . S
C16 C14 1.396 . S
C16 C17 1.394 . S
C17 H12 0.929 . S
C17 C16 1.394 . S
C17 C18 1.382 . S
C18 C17 1.382 . S
C18 C19 1.392 . S
C18 N20 1.420 . S
C19 H13 0.930 . S
C19 C15 1.407 . S
C19 C18 1.392 . S
N20 C18 1.420 . S
N20 C21 1.244 . S
C21 N20 1.244 . S
H22 C25 0.929 . S
H23 C28 0.929 . S
H24 C30 0.930 . S
C25 H22 0.929 . S
C25 C26 1.398 . S
C25 C27 1.396 . S
C26 C25 1.398 . S
C26 C30 1.407 . S
C27 C25 1.396 . S
C27 C28 1.394 . S
C28 H23 0.929 . S
C28 C27 1.394 . S
C28 C29 1.382 . S
C29 C28 1.382 . S
C29 C30 1.392 . S
C29 N31 1.420 . S
C30 H24 0.930 . S
C30 C26 1.407 . S
C30 C29 1.392 . S
N31 C29 1.420 . S
N31 C32 1.244 . S
C32 N31 1.244 . S
H33 C36 0.929 . S
H34 C39 0.929 . S
H35 C41 0.930 . S
C36 H33 0.929 . S
C36 C37 1.398 . S
C36 C38 1.396 . S
C37 C36 1.398 . S
C37 C41 1.407 . S
C38 C36 1.396 . S
C38 C39 1.394 . S
C39 H34 0.929 . S
C39 C38 1.394 . S
C39 C40 1.382 . S
C40 C39 1.382 . S
C40 C41 1.392 . S
C40 N42 1.420 . S
C41 H35 0.930 . S
C41 C37 1.407 . S
C41 C40 1.392 . S
N42 C40 1.420 . S
N42 C43 1.244 . S
C43 N42 1.244 . S
H44 C47 0.929 . S
H45 C50 0.929 . S
H46 C52 0.930 . S
C47 H44 0.929 . S
C47 C48 1.398 . S
C47 C49 1.396 . S
C48 C47 1.398 . S
C48 C52 1.407 . S
C49 C47 1.396 . S
C49 C50 1.394 . S
C50 H45 0.929 . S
C50 C49 1.394 . S
C50 C51 1.382 . S
C51 C50 1.382 . S
C51 C52 1.392 . S
C51 N53 1.420 . S
C52 H46 0.930 . S
C52 C48 1.407 . S
C52 C51 1.392 . S
N53 C51 1.420 . S
N53 C54 1.244 . S
C54 N53 1.244 . S
H55 C58 0.929 . S
H56 C61 0.929 . S
H57 C63 0.930 . S
C58 H55 0.929 . S
C58 C59 1.398 . S
C58 C60 1.396 . S
C59 C58 1.398 . S
C59 C63 1.407 . S
C60 C58 1.396 . S
C60 C61 1.394 . S
C61 H56 0.929 . S
C61 C60 1.394 . S
C61 C62 1.382 . S
C62 C61 1.382 . S
C62 C63 1.392 . S
C62 N64 1.420 . S
C63 H57 0.930 . S
C63 C59 1.407 . S
C63 C62 1.392 . S
N64 C62 1.420 . S
N64 C65 1.244 . S
C65 N64 1.244 . S
H66 C69 0.929 . S
H67 C72 0.929 . S
H68 C74 0.930 . S
C69 H66 0.929 . S
C69 C70 1.398 . S
C69 C71 1.396 . S
C70 C69 1.398 . S
C70 C74 1.407 . S
C71 C69 1.396 . S
C71 C72 1.394 . S
C72 H67 0.929 . S
C72 C71 1.394 . S
C72 C73 1.382 . S
C73 C72 1.382 . S
C73 C74 1.392 . S
C73 N75 1.420 . S
C74 H68 0.930 . S
C74 C70 1.407 . S
C74 C73 1.392 . S
N75 C73 1.420 . S
N75 C76 1.244 . S
C76 N75 1.244 . S
H77 C80 0.929 . S
H78 C83 0.929 . S
H79 C85 0.930 . S
C80 H77 0.929 . S
C80 C81 1.398 . S
C80 C82 1.396 . S
C81 C80 1.398 . S
C81 C85 1.407 . S
C82 C80 1.396 . S
C82 C83 1.394 . S
C83 H78 0.929 . S
C83 C82 1.394 . S
C83 C84 1.382 . S
C84 C83 1.382 . S
C84 C85 1.392 . S
C84 N86 1.420 . S
C85 H79 0.930 . S
C85 C81 1.407 . S
C85 C84 1.392 . S
N86 C84 1.420 . S
N86 C87 1.244 . S
C87 N86 1.244 . S
Dy88 O91 2.307 1_545 S
Dy88 O93 2.395 . S
Dy88 O94 2.379 . S
Dy88 O96 2.339 1_545 S
Dy88 O98 2.298 . S
Dy88 O102 2.275 . S
Dy88 C110 2.738 . S
Dy89 O92 2.298 1_645 S
Dy89 O95 2.275 1_545 S
Dy89 O97 2.307 . S
Dy89 O99 2.395 1_545 S
Dy89 O100 2.379 1_545 S
Dy89 O103 2.339 1_655 S
Dy89 C119 2.738 1_545 S
C90 O102 1.254 . S
C90 O103 1.257 . S
O91 Dy88 2.307 1_565 S
O91 C101 1.266 . S
O92 Dy89 2.298 1_465 S
O92 C101 1.236 . S
O93 Dy88 2.395 . S
O93 C110 1.255 . S
O94 Dy88 2.379 . S
O94 C110 1.249 . S
O95 Dy89 2.275 1_565 S
O95 C111 1.254 . S
O96 Dy88 2.339 1_565 S
O96 C111 1.257 1_455 S
O97 Dy89 2.307 . S
O97 C112 1.266 . S
O98 Dy88 2.298 . S
O98 C112 1.236 1_455 S
O99 Dy89 2.395 1_565 S
O99 C119 1.255 . S
O100 Dy89 2.379 1_565 S
O100 C119 1.249 . S
C101 O91 1.266 . S
C101 O92 1.236 . S
O102 Dy88 2.275 . S
O102 C90 1.254 . S
O103 Dy89 2.339 1_455 S
O103 C90 1.257 . S
C104 C107 1.344 . S
C104 C108 1.328 . S
C104 C110 1.516 . S
C105 C106 1.304 . S
C105 C109 1.323 . S
C106 C105 1.304 . S
C106 C107 1.371 . S
C106 H120 0.930 . S
C107 C104 1.344 . S
C107 C106 1.371 . S
C107 H121 0.931 . S
C108 C104 1.328 . S
C108 C109 1.433 . S
C108 H122 0.931 . S
C109 C105 1.323 . S
C109 C108 1.433 . S
C109 H123 0.933 . S
C110 Dy88 2.738 . S
C110 O93 1.255 . S
C110 O94 1.249 . S
C110 C104 1.516 . S
C111 O95 1.254 . S
C111 O96 1.257 1_655 S
C112 O97 1.266 . S
C112 O98 1.236 1_655 S
C113 C116 1.344 . S
C113 C117 1.328 . S
C113 C119 1.516 . S
C114 C115 1.304 . S
C114 C118 1.323 . S
C115 C114 1.304 . S
C115 C116 1.371 . S
C115 H124 0.930 . S
C116 C113 1.344 . S
C116 C115 1.371 . S
C116 H125 0.931 . S
C117 C113 1.328 . S
C117 C118 1.433 . S
C117 H126 0.931 . S
C118 C114 1.323 . S
C118 C117 1.433 . S
C118 H127 0.933 . S
C119 Dy89 2.738 1_565 S
C119 O99 1.255 . S
C119 O100 1.249 . S
C119 C113 1.516 . S
H120 C106 0.930 . S
H121 C107 0.931 . S
H122 C108 0.931 . S
H123 C109 0.933 . S
H124 C115 0.930 . S
H125 C116 0.931 . S
H126 C117 0.931 . S
H127 C118 0.933 . S
Dy128 O131 2.307 . S
Dy128 O133 2.395 1_544 S
Dy128 O134 2.379 1_544 S
Dy128 O136 2.339 1_554 S
Dy128 O138 2.298 1_544 S
Dy128 O142 2.275 1_545 S
Dy128 C150 2.738 1_544 S
Dy129 O132 2.298 . S
Dy129 O135 2.275 . S
Dy129 O137 2.307 1_545 S
Dy129 O139 2.395 . S
Dy129 O140 2.379 . S
Dy129 O143 2.339 1_545 S
Dy129 C159 2.738 . S
C130 O142 1.254 . S
C130 O143 1.257 . S
O131 Dy128 2.307 . S
O131 C141 1.266 . S
O132 Dy129 2.298 . S
O132 C141 1.236 . S
O133 Dy128 2.395 1_566 S
O133 C150 1.255 . S
O134 Dy128 2.379 1_566 S
O134 C150 1.249 . S
O135 Dy129 2.275 . S
O135 C151 1.254 . S
O136 Dy128 2.339 1_556 S
O136 C151 1.257 1_556 S
O137 Dy129 2.307 1_565 S
O137 C152 1.266 . S
O138 Dy128 2.298 1_566 S
O138 C152 1.236 1_556 S
O139 Dy129 2.395 . S
O139 C159 1.255 . S
O140 Dy129 2.379 . S
O140 C159 1.249 . S
C141 O131 1.266 . S
C141 O132 1.236 . S
O142 Dy128 2.275 1_565 S
O142 C130 1.254 . S
O143 Dy129 2.339 1_565 S
O143 C130 1.257 . S
C144 C147 1.344 . S
C144 C148 1.328 . S
C144 C150 1.516 . S
C145 C146 1.304 . S
C145 C149 1.323 . S
C146 C145 1.304 . S
C146 C147 1.371 . S
C146 H160 0.930 . S
C147 C144 1.344 . S
C147 C146 1.371 . S
C147 H161 0.931 . S
C148 C144 1.328 . S
C148 C149 1.433 . S
C148 H162 0.931 . S
C149 C145 1.323 . S
C149 C148 1.433 . S
C149 H163 0.933 . S
C150 Dy128 2.738 1_566 S
C150 O133 1.255 . S
C150 O134 1.249 . S
C150 C144 1.516 . S
C151 O135 1.254 . S
C151 O136 1.257 1_554 S
C152 O137 1.266 . S
C152 O138 1.236 1_554 S
C153 C156 1.344 . S
C153 C157 1.328 . S
C153 C159 1.516 . S
C154 C155 1.304 . S
C154 C158 1.323 . S
C155 C154 1.304 . S
C155 C156 1.371 . S
C155 H164 0.930 . S
C156 C153 1.344 . S
C156 C155 1.371 . S
C156 H165 0.931 . S
C157 C153 1.328 . S
C157 C158 1.433 . S
C157 H166 0.931 . S
C158 C154 1.323 . S
C158 C157 1.433 . S
C158 H167 0.933 . S
C159 Dy129 2.738 . S
C159 O139 1.255 . S
C159 O140 1.249 . S
C159 C153 1.516 . S
H160 C146 0.930 . S
H161 C147 0.931 . S
H162 C148 0.931 . S
H163 C149 0.933 . S
H164 C155 0.930 . S
H165 C156 0.931 . S
H166 C157 0.931 . S
H167 C158 0.933 . S
Dy168 O171 2.307 . S
Dy168 O173 2.395 . S
Dy168 O174 2.379 . S
Dy168 O176 2.339 . S
Dy168 O178 2.298 . S
Dy168 O182 2.275 . S
Dy168 C190 2.738 . S
Dy169 O172 2.298 . S
Dy169 O175 2.275 . S
Dy169 O177 2.307 . S
Dy169 O179 2.395 . S
Dy169 O180 2.379 . S
Dy169 O183 2.339 . S
Dy169 C199 2.738 . S
C170 O182 1.254 . S
C170 O183 1.257 . S
O171 Dy168 2.307 . S
O171 C181 1.266 . S
O172 Dy169 2.298 . S
O172 C181 1.236 . S
O173 Dy168 2.395 . S
O173 C190 1.255 . S
O174 Dy168 2.379 . S
O174 C190 1.249 . S
O175 Dy169 2.275 . S
O175 C191 1.254 . S
O176 Dy168 2.339 . S
O176 C191 1.257 . S
O177 Dy169 2.307 . S
O177 C192 1.266 . S
O178 Dy168 2.298 . S
O178 C192 1.236 . S
O179 Dy169 2.395 . S
O179 C199 1.255 . S
O180 Dy169 2.379 . S
O180 C199 1.249 . S
C181 O171 1.266 . S
C181 O172 1.236 . S
O182 Dy168 2.275 . S
O182 C170 1.254 . S
O183 Dy169 2.339 . S
O183 C170 1.257 . S
C184 C187 1.344 . S
C184 C188 1.328 . S
C184 C190 1.516 . S
C185 C186 1.304 . S
C185 C189 1.323 . S
C186 C185 1.304 . S
C186 C187 1.371 . S
C186 H200 0.930 . S
C187 C184 1.344 . S
C187 C186 1.371 . S
C187 H201 0.931 . S
C188 C184 1.328 . S
C188 C189 1.433 . S
C188 H202 0.931 . S
C189 C185 1.323 . S
C189 C188 1.433 . S
C189 H203 0.933 . S
C190 Dy168 2.738 . S
C190 O173 1.255 . S
C190 O174 1.249 . S
C190 C184 1.516 . S
C191 O175 1.254 . S
C191 O176 1.257 . S
C192 O177 1.266 . S
C192 O178 1.236 . S
C193 C196 1.344 . S
C193 C197 1.328 . S
C193 C199 1.516 . S
C194 C195 1.304 . S
C194 C198 1.323 . S
C195 C194 1.304 . S
C195 C196 1.371 . S
C195 H204 0.930 . S
C196 C193 1.344 . S
C196 C195 1.371 . S
C196 H205 0.931 . S
C197 C193 1.328 . S
C197 C198 1.433 . S
C197 H206 0.931 . S
C198 C194 1.323 . S
C198 C197 1.433 . S
C198 H207 0.933 . S
C199 Dy169 2.738 . S
C199 O179 1.255 . S
C199 O180 1.249 . S
C199 C193 1.516 . S
H200 C186 0.930 . S
H201 C187 0.931 . S
H202 C188 0.931 . S
H203 C189 0.933 . S
H204 C195 0.930 . S
H205 C196 0.931 . S
H206 C197 0.931 . S
H207 C198 0.933 . S
Dy208 O211 2.307 1_556 S
Dy208 O213 2.395 1_455 S
Dy208 O214 2.379 . S
Dy208 O216 2.339 . S
Dy208 O218 2.298 1_455 S
Dy208 O222 2.275 1_556 S
Dy208 C230 2.738 1_455 S
Dy209 O212 2.298 . S
Dy209 O215 2.275 1_554 S
Dy209 O217 2.307 1_455 S
Dy209 O219 2.395 . S
Dy209 O220 2.379 . S
Dy209 O223 2.339 . S
Dy209 C239 2.738 . S
C210 O222 1.260 . S
C210 O223 1.268 . S
O211 Dy208 2.307 1_554 S
O211 C221 1.266 . S
O212 Dy209 2.298 . S
O212 C221 1.236 . S
O213 Dy208 2.395 1_655 S
O213 C230 1.255 . S
O214 Dy208 2.379 . S
O214 C230 1.249 1_455 S
O215 Dy209 2.275 1_556 S
O215 C231 1.254 . S
O216 Dy208 2.339 . S
O216 C231 1.257 . S
O217 Dy209 2.307 1_655 S
O217 C232 1.266 1_554 S
O218 Dy208 2.298 1_655 S
O218 C232 1.236 . S
O219 Dy209 2.395 . S
O219 C239 1.255 . S
O220 Dy209 2.379 . S
O220 C239 1.249 . S
C221 O211 1.266 . S
C221 O212 1.236 . S
O222 Dy208 2.275 1_554 S
O222 C210 1.260 . S
O223 Dy209 2.339 . S
O223 C210 1.268 . S
C224 C227 1.344 . S
C224 C228 1.328 . S
C224 C230 1.516 . S
C225 C226 1.304 . S
C225 C229 1.323 . S
C226 C225 1.304 . S
C226 C227 1.371 . S
C226 H240 0.930 . S
C227 C224 1.344 . S
C227 C226 1.371 . S
C227 H241 0.931 . S
C228 C224 1.328 . S
C228 C229 1.433 . S
C228 H242 0.931 . S
C229 C225 1.323 . S
C229 C228 1.433 . S
C229 H243 0.933 . S
C230 Dy208 2.738 1_655 S
C230 O213 1.255 . S
C230 O214 1.249 1_655 S
C230 C224 1.516 . S
C231 O215 1.254 . S
C231 O216 1.257 . S
C232 O217 1.266 1_556 S
C232 O218 1.236 . S
C233 C236 1.344 . S
C233 C237 1.328 . S
C233 C239 1.516 . S
C234 C235 1.304 . S
C234 C238 1.323 . S
C235 C234 1.304 . S
C235 C236 1.371 . S
C235 H244 0.930 . S
C236 C233 1.344 . S
C236 C235 1.371 . S
C236 H245 0.931 . S
C237 C233 1.328 . S
C237 C238 1.433 . S
C237 H246 0.931 . S
C238 C234 1.323 . S
C238 C237 1.433 . S
C238 H247 0.933 . S
C239 Dy209 2.738 . S
C239 O219 1.255 . S
C239 O220 1.249 . S
C239 C233 1.516 . S
H240 C226 0.930 . S
H241 C227 0.931 . S
H242 C228 0.931 . S
H243 C229 0.933 . S
H244 C235 0.930 . S
H245 C236 0.931 . S
H246 C237 0.931 . S
H247 C238 0.933 . S
C248 C249 1.369 . S
C248 C250 1.419 . S
C248 H252 0.930 . S
C249 C248 1.369 . S
C249 C258 1.429 . S
C250 C248 1.419 . S
C250 C251 1.363 . S
C250 H253 0.929 . S
C251 C250 1.363 . S
C251 C257 1.428 . S
H252 C248 0.930 . S
H253 C250 0.929 . S
S254 N255 1.613 . S
S254 N256 1.610 . S
N255 S254 1.613 . S
N255 C258 1.350 . S
N256 S254 1.610 . S
N256 C257 1.351 . S
C257 C251 1.428 . S
C257 N256 1.351 . S
C257 C258 1.434 . S
C258 C249 1.429 . S
C258 N255 1.350 . S
C258 C257 1.434 . S
C259 C260 1.369 . S
C259 C261 1.419 . S
C259 H263 0.930 . S
C260 C259 1.369 . S
C260 C269 1.429 . S
C261 C259 1.419 . S
C261 C262 1.363 . S
C261 H264 0.929 . S
C262 C261 1.363 . S
C262 C268 1.428 . S
H263 C259 0.930 . S
H264 C261 0.929 . S
S265 N266 1.613 . S
S265 N267 1.610 . S
N266 S265 1.613 . S
N266 C269 1.350 . S
N267 S265 1.610 . S
N267 C268 1.351 . S
C268 C262 1.428 . S
C268 N267 1.351 . S
C268 C269 1.434 . S
C269 C260 1.429 . S
C269 N266 1.350 . S
C269 C268 1.434 . S
C270 C271 1.369 . S
C270 C272 1.419 . S
C270 H274 0.930 . S
C271 C270 1.369 . S
C271 C280 1.429 . S
C272 C270 1.419 . S
C272 C273 1.363 . S
C272 H275 0.929 . S
C273 C272 1.363 . S
C273 C279 1.428 . S
H274 C270 0.930 . S
H275 C272 0.929 . S
S276 N277 1.613 . S
S276 N278 1.610 . S
N277 S276 1.613 . S
N277 C280 1.350 . S
N278 S276 1.610 . S
N278 C279 1.351 . S
C279 C273 1.428 . S
C279 N278 1.351 . S
C279 C280 1.434 . S
C280 C271 1.429 . S
C280 N277 1.350 . S
C280 C279 1.434 . S
C281 C282 1.369 . S
C281 C283 1.419 . S
C281 H285 0.930 . S
C282 C281 1.369 . S
C282 C291 1.429 . S
C283 C281 1.419 . S
C283 C284 1.363 . S
C283 H286 0.929 . S
C284 C283 1.363 . S
C284 C290 1.428 . S
H285 C281 0.930 . S
H286 C283 0.929 . S
S287 N288 1.613 . S
S287 N289 1.610 . S
N288 S287 1.613 . S
N288 C291 1.350 1_455 S
N289 S287 1.610 . S
N289 C290 1.351 1_455 S
C290 C284 1.428 . S
C290 N289 1.351 1_655 S
C290 C291 1.434 . S
C291 C282 1.429 . S
C291 N288 1.350 1_655 S
C291 C290 1.434 . S
C292 C293 1.369 . S
C292 C294 1.419 . S
C292 H296 0.930 . S
C293 C292 1.369 . S
C293 C302 1.429 . S
C294 C292 1.419 . S
C294 C295 1.363 . S
C294 H297 0.929 . S
C295 C294 1.363 . S
C295 C301 1.428 . S
H296 C292 0.930 . S
H297 C294 0.929 . S
S298 N299 1.613 . S
S298 N300 1.610 . S
N299 S298 1.613 . S
N299 C302 1.350 . S
N300 S298 1.610 . S
N300 C301 1.351 . S
C301 C295 1.428 . S
C301 N300 1.351 . S
C301 C302 1.434 . S
C302 C293 1.429 . S
C302 N299 1.350 . S
C302 C301 1.434 . S
C303 C304 1.369 . S
C303 C305 1.419 . S
C303 H307 0.930 1_455 S
C304 C303 1.369 . S
C304 C313 1.429 . S
C305 C303 1.419 . S
C305 C306 1.363 . S
C305 H308 0.929 . S
C306 C305 1.363 . S
C306 C312 1.428 . S
H307 C303 0.930 1_655 S
H308 C305 0.929 . S
S309 N310 1.613 . S
S309 N311 1.610 . S
N310 S309 1.613 . S
N310 C313 1.350 . S
N311 S309 1.610 . S
N311 C312 1.351 . S
C312 C306 1.428 . S
C312 N311 1.351 . S
C312 C313 1.434 . S
C313 C304 1.429 . S
C313 N310 1.350 . S
C313 C312 1.434 . S
C314 C315 1.369 . S
C314 C316 1.419 . S
C314 H318 0.930 . S
C315 C314 1.369 . S
C315 C324 1.429 . S
C316 C314 1.419 . S
C316 C317 1.363 . S
C316 H319 0.929 1_556 S
C317 C316 1.363 . S
C317 C323 1.428 . S
H318 C314 0.930 . S
H319 C316 0.929 1_554 S
S320 N321 1.613 . S
S320 N322 1.610 . S
N321 S320 1.613 . S
N321 C324 1.350 . S
N322 S320 1.610 . S
N322 C323 1.351 . S
C323 C317 1.428 . S
C323 N322 1.351 . S
C323 C324 1.434 . S
C324 C315 1.429 . S
C324 N321 1.350 . S
C324 C323 1.434 . S
C325 C326 1.369 . S
C325 C327 1.419 . S
C325 H329 0.930 . S
C326 C325 1.369 . S
C326 C335 1.429 . S
C327 C325 1.419 . S
C327 C328 1.363 . S
C327 H330 0.929 . S
C328 C327 1.363 . S
C328 C334 1.428 . S
H329 C325 0.930 . S
H330 C327 0.929 . S
S331 N332 1.613 . S
S331 N333 1.610 . S
N332 S331 1.613 . S
N332 C335 1.350 . S
N333 S331 1.610 . S
N333 C334 1.351 . S
C334 C328 1.428 . S
C334 N333 1.351 . S
C334 C335 1.434 . S
C335 C326 1.429 . S
C335 N332 1.350 . S
C335 C334 1.434 . S
C336 C337 1.369 . S
C336 C338 1.419 . S
C336 H340 0.930 . S
C337 C336 1.369 . S
C337 C346 1.429 . S
C338 C336 1.419 . S
C338 C339 1.363 . S
C338 H341 0.929 . S
C339 C338 1.363 . S
C339 C345 1.428 . S
H340 C336 0.930 . S
H341 C338 0.929 . S
S342 N343 1.613 . S
S342 N344 1.610 . S
N343 S342 1.613 . S
N343 C346 1.350 . S
N344 S342 1.610 . S
N344 C345 1.351 . S
C345 C339 1.428 . S
C345 N344 1.351 . S
C345 C346 1.434 . S
C346 C337 1.429 . S
C346 N343 1.350 . S
C346 C345 1.434 . S
C347 C348 1.369 . S
C347 C349 1.419 . S
C347 H351 0.930 . S
C348 C347 1.369 . S
C348 C357 1.429 . S
C349 C347 1.419 . S
C349 C350 1.363 . S
C349 H352 0.929 1_556 S
C350 C349 1.363 . S
C350 C356 1.428 . S
H351 C347 0.930 . S
H352 C349 0.929 1_554 S
S353 N354 1.613 . S
S353 N355 1.610 . S
N354 S353 1.613 . S
N354 C357 1.350 . S
N355 S353 1.610 . S
N355 C356 1.351 . S
C356 C350 1.428 . S
C356 N355 1.351 . S
C356 C357 1.434 . S
C357 C348 1.429 . S
C357 N354 1.350 . S
C357 C356 1.434 . S
C358 C359 1.369 . S
C358 C360 1.419 . S
C358 H362 0.930 . S
C359 C358 1.369 . S
C359 C368 1.429 . S
C360 C358 1.419 . S
C360 C361 1.363 . S
C360 H363 0.929 1_655 S
C361 C360 1.363 . S
C361 C367 1.428 . S
H362 C358 0.930 . S
H363 C360 0.929 1_455 S
S364 N365 1.613 . S
S364 N366 1.610 . S
N365 S364 1.613 . S
N365 C368 1.350 . S
N366 S364 1.610 . S
N366 C367 1.351 . S
C367 C361 1.428 . S
C367 N366 1.351 . S
C367 C368 1.434 . S
C368 C359 1.429 . S
C368 N365 1.350 . S
C368 C367 1.434 . S
C369 C370 1.369 . S
C369 C371 1.419 . S
C369 H373 0.930 . S
C370 C369 1.369 . S
C370 C379 1.429 . S
C371 C369 1.419 . S
C371 C372 1.363 . S
C371 H374 0.929 . S
C372 C371 1.363 . S
C372 C378 1.428 . S
H373 C369 0.930 . S
H374 C371 0.929 . S
S375 N376 1.613 . S
S375 N377 1.610 . S
N376 S375 1.613 . S
N376 C379 1.350 . S
N377 S375 1.610 . S
N377 C378 1.351 . S
C378 C372 1.428 . S
C378 N377 1.351 . S
C378 C379 1.434 . S
C379 C370 1.429 . S
C379 N376 1.350 . S
C379 C378 1.434 . S
C380 C381 1.369 . S
C380 C382 1.419 . S
C380 H384 0.930 . S
C381 C380 1.369 . S
C381 C390 1.429 . S
C382 C380 1.419 . S
C382 C383 1.363 . S
C382 H385 0.929 . S
C383 C382 1.363 . S
C383 C389 1.428 . S
H384 C380 0.930 . S
H385 C382 0.929 . S
S386 N387 1.613 . S
S386 N388 1.610 . S
N387 S386 1.613 . S
N387 C390 1.350 . S
N388 S386 1.610 . S
N388 C389 1.351 . S
C389 C383 1.428 . S
C389 N388 1.351 . S
C389 C390 1.434 . S
C390 C381 1.429 . S
C390 N387 1.350 . S
C390 C389 1.434 . S
C391 C392 1.369 . S
C391 C393 1.419 . S
C391 H395 0.930 . S
C392 C391 1.369 . S
C392 C401 1.429 . S
C393 C391 1.419 . S
C393 C394 1.363 . S
C393 H396 0.929 . S
C394 C393 1.363 . S
C394 C400 1.428 . S
H395 C391 0.930 . S
H396 C393 0.929 . S
S397 N398 1.613 . S
S397 N399 1.610 . S
N398 S397 1.613 . S
N398 C401 1.350 . S
N399 S397 1.610 . S
N399 C400 1.351 . S
C400 C394 1.428 . S
C400 N399 1.351 . S
C400 C401 1.434 . S
C401 C392 1.429 . S
C401 N398 1.350 . S
C401 C400 1.434 . S
C402 C403 1.369 . S
C402 C404 1.419 . S
C402 H406 0.930 . S
C403 C402 1.369 . S
C403 C412 1.429 . S
C404 C402 1.419 . S
C404 C405 1.363 . S
C404 H407 0.929 . S
C405 C404 1.363 . S
C405 C411 1.428 . S
H406 C402 0.930 . S
H407 C404 0.929 . S
S408 N409 1.613 . S
S408 N410 1.610 . S
N409 S408 1.613 . S
N409 C412 1.350 . S
N410 S408 1.610 . S
N410 C411 1.351 . S
C411 C405 1.428 . S
C411 N410 1.351 . S
C411 C412 1.434 . S
C412 C403 1.429 . S
C412 N409 1.350 . S
C412 C411 1.434 . S
C413 C414 1.369 . S
C413 C415 1.419 . S
C413 H417 0.930 . S
C414 C413 1.369 . S
C414 C423 1.429 . S
C415 C413 1.419 . S
C415 C416 1.363 . S
C415 H418 0.929 . S
C416 C415 1.363 . S
C416 C422 1.428 . S
H417 C413 0.930 . S
H418 C415 0.929 . S
S419 N420 1.613 . S
S419 N421 1.610 . S
N420 S419 1.613 . S
N420 C423 1.350 . S
N421 S419 1.610 . S
N421 C422 1.351 . S
C422 C416 1.428 . S
C422 N421 1.351 . S
C422 C423 1.434 . S
C423 C414 1.429 . S
C423 N420 1.350 . S
C423 C422 1.434 . S
C424 C425 1.369 . S
C424 C426 1.419 . S
C424 H428 0.930 . S
C425 C424 1.369 . S
C425 C434 1.429 . S
C426 C424 1.419 . S
C426 C427 1.363 . S
C426 H429 0.929 . S
C427 C426 1.363 . S
C427 C433 1.428 . S
H428 C424 0.930 . S
H429 C426 0.929 . S
S430 N431 1.613 1_554 S
S430 N432 1.610 . S
N431 S430 1.613 1_556 S
N431 C434 1.350 . S
N432 S430 1.610 . S
N432 C433 1.351 1_554 S
C433 C427 1.428 . S
C433 N432 1.351 1_556 S
C433 C434 1.434 . S
C434 C425 1.429 . S
C434 N431 1.350 . S
C434 C433 1.434 . S
C435 C436 1.369 . S
C435 C437 1.419 . S
C435 H439 0.930 . S
C436 C435 1.369 . S
C436 C445 1.429 . S
C437 C435 1.419 . S
C437 C438 1.363 . S
C437 H440 0.929 . S
C438 C437 1.363 . S
C438 C444 1.428 . S
H439 C435 0.930 . S
H440 C437 0.929 . S
S441 N442 1.613 . S
S441 N443 1.610 . S
N442 S441 1.613 . S
N442 C445 1.350 . S
N443 S441 1.610 . S
N443 C444 1.351 . S
C444 C438 1.428 . S
C444 N443 1.351 . S
C444 C445 1.434 . S
C445 C436 1.429 . S
C445 N442 1.350 . S
C445 C444 1.434 . S
C446 C447 1.369 . S
C446 C448 1.419 . S
C446 H450 0.930 . S
C447 C446 1.369 . S
C447 C456 1.429 . S
C448 C446 1.419 . S
C448 C449 1.363 . S
C448 H451 0.929 . S
C449 C448 1.363 . S
C449 C455 1.428 . S
H450 C446 0.930 . S
H451 C448 0.929 . S
S452 N453 1.613 . S
S452 N454 1.610 . S
N453 S452 1.613 . S
N453 C456 1.350 . S
N454 S452 1.610 . S
N454 C455 1.351 . S
C455 C449 1.428 . S
C455 N454 1.351 . S
C455 C456 1.434 . S
C456 C447 1.429 . S
C456 N453 1.350 . S
C456 C455 1.434 . S
C457 C458 1.369 . S
C457 C459 1.419 . S
C457 H461 0.930 . S
C458 C457 1.369 . S
C458 C467 1.429 . S
C459 C457 1.419 . S
C459 C460 1.363 . S
C459 H462 0.929 . S
C460 C459 1.363 . S
C460 C466 1.428 . S
H461 C457 0.930 . S
H462 C459 0.929 . S
S463 N464 1.613 . S
S463 N465 1.610 . S
N464 S463 1.613 . S
N464 C467 1.350 . S
N465 S463 1.610 . S
N465 C466 1.351 . S
C466 C460 1.428 . S
C466 N465 1.351 . S
C466 C467 1.434 . S
C467 C458 1.429 . S
C467 N464 1.350 . S
C467 C466 1.434 . S
C468 C469 1.369 . S
C468 C470 1.419 . S
C468 H472 0.930 . S
C469 C468 1.369 . S
C469 C478 1.429 . S
C470 C468 1.419 . S
C470 C471 1.363 . S
C470 H473 0.929 . S
C471 C470 1.363 . S
C471 C477 1.428 . S
H472 C468 0.930 . S
H473 C470 0.929 . S
S474 N475 1.613 . S
S474 N476 1.610 . S
N475 S474 1.613 . S
N475 C478 1.350 . S
N476 S474 1.610 . S
N476 C477 1.351 . S
C477 C471 1.428 . S
C477 N476 1.351 . S
C477 C478 1.434 . S
C478 C469 1.429 . S
C478 N475 1.350 . S
C478 C477 1.434 . S
C479 C480 1.369 . S
C479 C481 1.419 . S
C479 H483 0.930 . S
C480 C479 1.369 . S
C480 C489 1.429 . S
C481 C479 1.419 . S
C481 C482 1.363 . S
C481 H484 0.929 . S
C482 C481 1.363 . S
C482 C488 1.428 . S
H483 C479 0.930 . S
H484 C481 0.929 . S
S485 N486 1.613 . S
S485 N487 1.610 . S
N486 S485 1.613 . S
N486 C489 1.350 . S
N487 S485 1.610 . S
N487 C488 1.351 . S
C488 C482 1.428 . S
C488 N487 1.351 . S
C488 C489 1.434 . S
C489 C480 1.429 . S
C489 N486 1.350 . S
C489 C488 1.434 . S
C490 C491 1.369 . S
C490 C492 1.419 . S
C490 H494 0.930 . S
C491 C490 1.369 . S
C491 C500 1.429 . S
C492 C490 1.419 . S
C492 C493 1.363 . S
C492 H495 0.929 . S
C493 C492 1.363 . S
C493 C499 1.428 . S
H494 C490 0.930 . S
H495 C492 0.929 . S
S496 N497 1.613 . S
S496 N498 1.610 . S
N497 S496 1.613 . S
N497 C500 1.350 . S
N498 S496 1.610 . S
N498 C499 1.351 . S
C499 C493 1.428 . S
C499 N498 1.351 . S
C499 C500 1.434 . S
C500 C491 1.429 . S
C500 N497 1.350 . S
C500 C499 1.434 . S
C501 C502 1.369 . S
C501 C503 1.419 . S
C501 H505 0.930 . S
C502 C501 1.369 . S
C502 C511 1.429 . S
C503 C501 1.419 . S
C503 C504 1.363 . S
C503 H506 0.929 . S
C504 C503 1.363 . S
C504 C510 1.428 . S
H505 C501 0.930 . S
H506 C503 0.929 . S
S507 N508 1.613 . S
S507 N509 1.610 . S
N508 S507 1.613 . S
N508 C511 1.350 . S
N509 S507 1.610 . S
N509 C510 1.351 . S
C510 C504 1.428 . S
C510 N509 1.351 . S
C510 C511 1.434 . S
C511 C502 1.429 . S
C511 N508 1.350 . S
C511 C510 1.434 . S
C249 C4 1.081 . S
C251 C105 1.132 . S
C260 C16 1.173 . S
C262 C145 1.239 . S
C273 C170 2.184 . S
C271 C32 2.202 . S
C282 C43 2.434 . S
C284 C210 2.363 1_655 S
C295 C141 2.076 . S
C293 C5 1.954 . S
C306 C101 1.554 . S
C304 C21 1.414 . S
C317 C232 1.767 . S
C315 C27 1.787 . S
C328 C192 1.750 . S
C326 C37 1.813 . S
C337 C10 1.311 . S
C339 C234 1.337 . S
C350 C151 2.395 1_556 S
C348 C26 2.439 . S
C359 C38 1.991 . S
C361 C111 1.965 . S
C370 C15 1.680 . S
C372 C194 1.714 . S
C383 C114 1.196 . S
C381 C48 1.162 . S
C392 C59 1.070 . S
C394 C154 1.094 . S
C403 C76 2.449 . S
C405 C191 2.382 . S
C414 C87 2.276 . S
C416 C231 2.255 . S
C425 C54 1.474 . S
C427 C152 1.596 1_556 S
C438 C112 2.048 . S
C436 C60 1.941 . S
C449 C221 1.760 . S
C447 C71 1.766 . S
C460 C181 1.769 . S
C458 C82 1.786 . S
C469 C49 1.703 . S
C471 C225 1.785 . S
C482 C130 1.902 . S
C480 C70 1.953 . S
C493 C90 2.365 . S
C491 C81 2.419 . S
C502 C65 1.337 . S
C504 C185 1.359 . S
