# Generated by pormake.
# Topology wbl, (4,4)-cn, num edge types: 1
# Building blocks:
#     Node 0, Type 0, BuildingBlock: NAWXER_clean_linker_0, # of connection points: 4
#     Node 1, Type 0, BuildingBlock: NAWXER_clean_linker_0, # of connection points: 4
#     Node 2, Type 0, BuildingBlock: NAWXER_clean_linker_0, # of connection points: 4
#     Node 3, Type 0, BuildingBlock: NAWXER_clean_linker_0, # of connection points: 4
#     Node 4, Type 0, BuildingBlock: NAWXER_clean_linker_0, # of connection points: 4
#     Node 5, Type 0, BuildingBlock: NAWXER_clean_linker_0, # of connection points: 4
#     Node 6, Type 0, BuildingBlock: NAWXER_clean_linker_0, # of connection points: 4
#     Node 7, Type 0, BuildingBlock: NAWXER_clean_linker_0, # of connection points: 4
#     Node 8, Type 1, BuildingBlock: QUQFOY_clean_sbu_3, # of connection points: 4
#     Node 9, Type 1, BuildingBlock: QUQFOY_clean_sbu_3, # of connection points: 4
#     Node 10, Type 1, BuildingBlock: QUQFOY_clean_sbu_3, # of connection points: 4
#     Node 11, Type 1, BuildingBlock: QUQFOY_clean_sbu_3, # of connection points: 4
#     Node 12, Type 1, BuildingBlock: QUQFOY_clean_sbu_3, # of connection points: 4
#     Node 13, Type 1, BuildingBlock: QUQFOY_clean_sbu_3, # of connection points: 4
#     Node 14, Type 1, BuildingBlock: QUQFOY_clean_sbu_3, # of connection points: 4
#     Node 15, Type 1, BuildingBlock: QUQFOY_clean_sbu_3, # of connection points: 4
#     Edge 16, Type (0, 1), BuildingBlock: XUDNAN_clean_linker_2, # of connection points: 2
#     Edge 17, Type (0, 1), BuildingBlock: XUDNAN_clean_linker_2, # of connection points: 2
#     Edge 18, Type (0, 1), BuildingBlock: XUDNAN_clean_linker_2, # of connection points: 2
#     Edge 19, Type (0, 1), BuildingBlock: XUDNAN_clean_linker_2, # of connection points: 2
#     Edge 20, Type (0, 1), BuildingBlock: XUDNAN_clean_linker_2, # of connection points: 2
#     Edge 21, Type (0, 1), BuildingBlock: XUDNAN_clean_linker_2, # of connection points: 2
#     Edge 22, Type (0, 1), BuildingBlock: XUDNAN_clean_linker_2, # of connection points: 2
#     Edge 23, Type (0, 1), BuildingBlock: XUDNAN_clean_linker_2, # of connection points: 2
#     Edge 24, Type (0, 1), BuildingBlock: XUDNAN_clean_linker_2, # of connection points: 2
#     Edge 25, Type (0, 1), BuildingBlock: XUDNAN_clean_linker_2, # of connection points: 2
#     Edge 26, Type (0, 1), BuildingBlock: XUDNAN_clean_linker_2, # of connection points: 2
#     Edge 27, Type (0, 1), BuildingBlock: XUDNAN_clean_linker_2, # of connection points: 2
#     Edge 28, Type (0, 1), BuildingBlock: XUDNAN_clean_linker_2, # of connection points: 2
#     Edge 29, Type (0, 1), BuildingBlock: XUDNAN_clean_linker_2, # of connection points: 2
#     Edge 30, Type (0, 1), BuildingBlock: XUDNAN_clean_linker_2, # of connection points: 2
#     Edge 31, Type (0, 1), BuildingBlock: XUDNAN_clean_linker_2, # of connection points: 2
#     Edge 32, Type (0, 1), BuildingBlock: XUDNAN_clean_linker_2, # of connection points: 2
#     Edge 33, Type (0, 1), BuildingBlock: XUDNAN_clean_linker_2, # of connection points: 2
#     Edge 34, Type (0, 1), BuildingBlock: XUDNAN_clean_linker_2, # of connection points: 2
#     Edge 35, Type (0, 1), BuildingBlock: XUDNAN_clean_linker_2, # of connection points: 2
#     Edge 36, Type (0, 1), BuildingBlock: XUDNAN_clean_linker_2, # of connection points: 2
#     Edge 37, Type (0, 1), BuildingBlock: XUDNAN_clean_linker_2, # of connection points: 2
#     Edge 38, Type (0, 1), BuildingBlock: XUDNAN_clean_linker_2, # of connection points: 2
#     Edge 39, Type (0, 1), BuildingBlock: XUDNAN_clean_linker_2, # of connection points: 2
#     Edge 40, Type (0, 1), BuildingBlock: XUDNAN_clean_linker_2, # of connection points: 2
#     Edge 41, Type (0, 1), BuildingBlock: XUDNAN_clean_linker_2, # of connection points: 2
#     Edge 42, Type (0, 1), BuildingBlock: XUDNAN_clean_linker_2, # of connection points: 2
#     Edge 43, Type (0, 1), BuildingBlock: XUDNAN_clean_linker_2, # of connection points: 2
#     Edge 44, Type (0, 1), BuildingBlock: XUDNAN_clean_linker_2, # of connection points: 2
#     Edge 45, Type (0, 1), BuildingBlock: XUDNAN_clean_linker_2, # of connection points: 2
#     Edge 46, Type (0, 1), BuildingBlock: XUDNAN_clean_linker_2, # of connection points: 2
#     Edge 47, Type (0, 1), BuildingBlock: XUDNAN_clean_linker_2, # of connection points: 2
# Relax obj value: 0.172
# Max RMSD: 0.174
# Mean RMSD: 0.145
data_MOF--net-wbl--node1-QUQFOY_clean_sbu_3--node2-NAWXER_clean_linker_0--edge1-XUDNAN_clean_linker_2
_symmetry_space_group_name_H-M    P1
_symmetry_Int_Tables_number       1
_symmetry_cell_setting            triclinic
loop_
_symmetry_equiv_pos_as_xyz
'x, y, z'
_cell_length_a     45.388579
_cell_length_b     45.772682
_cell_length_c     78.75622
_cell_angle_alpha  90.704344
_cell_angle_beta   90.321979
_cell_angle_gamma 90.167077
loop_
_atom_site_label
_atom_site_type_symbol
_atom_site_fract_x
_atom_site_fract_y
_atom_site_fract_z
_atom_type_partial_charge
C0 C 0.10975 0.9704 0.35506 0.0
C1 C 0.11695 0.98196 0.37123 0.0
C2 C 0.09557 0.98762 0.34294 0.0
C3 C 0.08905 0.01708 0.3465 0.0
C4 C 0.11055 0.01151 0.37465 0.0
C5 C 0.09697 0.0288 0.36244 0.0
C6 C 0.071 0.03511 0.33484 0.0
C7 C 0.14931 0.01048 0.30244 0.0
C8 C 0.1418 0.98916 0.29018 0.0
C9 C 0.12731 0.02526 0.31139 0.0
C10 C 0.09751 0.01925 0.30799 0.0
C11 C 0.11201 0.98292 0.28691 0.0
C12 C 0.08999 -0.0018 0.29559 0.0
C13 C 0.07419 0.03546 0.31699 0.0
C14 C 0.99258 0.13543 0.29899 0.0
C15 C 0.9784 0.12366 0.28456 0.0
C16 C 0.01202 0.11839 0.30844 0.0
C17 C 0.01699 0.08901 0.3039 0.0
C18 C 0.98497 0.09492 0.27936 0.0
C19 C 0.00413 0.07776 0.28895 0.0
C20 C 0.03477 0.06975 0.31492 0.0
C21 C 0.95508 0.094 0.34625 0.0
C22 C 0.96152 0.10845 0.36171 0.0
C23 C 0.97764 0.08165 0.33653 0.0
C24 C 0.00713 0.08397 0.34193 0.0
C25 C 0.99112 0.11109 0.36691 0.0
C26 C 0.01363 0.09891 0.35715 0.0
C27 C 0.03104 0.06874 0.3327 0.0
H28 H 0.11451 0.94786 0.35183 0.0
H29 H 0.08875 0.97744 0.33108 0.0
H30 H 0.11495 0.02121 0.38701 0.0
H31 H 0.09188 0.05129 0.36568 0.0
H32 H 0.17221 0.01556 0.30512 0.0
H33 H 0.13351 0.04164 0.32081 0.0
H34 H 0.10584 0.96663 0.27743 0.0
H35 H 0.06708 0.99341 0.29276 0.0
H36 H 0.98824 0.15765 0.30312 0.0
H37 H 0.02254 0.12796 0.31957 0.0
H38 H 0.97422 0.08525 0.26832 0.0
H39 H 0.00791 0.05529 0.28507 0.0
H40 H 0.93254 0.09166 0.34184 0.0
H41 H 0.97191 0.06957 0.32507 0.0
H42 H -0.00312 0.1215 0.3789 0.0
H43 H 0.03616 0.10067 0.36168 0.0
N44 N 0.04947 0.05175 0.3419 0.0
N45 N 0.05597 0.05275 0.30771 0.0
C46 C 0.91682 0.49403 0.60017 0.0
C47 C 0.92746 0.48365 0.6158 0.0
C48 C 0.93499 0.51057 0.58962 0.0
C49 C 0.96438 0.51642 0.5943 0.0
C50 C 0.95668 0.49025 0.62056 0.0
C51 C 0.97487 0.50627 0.60993 0.0
C52 C 0.98418 0.53442 0.58371 0.0
C53 C 0.95894 0.45709 0.55133 0.0
C54 C 0.9458 0.46367 0.53567 0.0
C55 C 0.97238 0.47902 0.56112 0.0
C56 C 0.97203 0.50816 0.55572 0.0
C57 C 0.94626 0.49259 0.52995 0.0
C58 C 0.95921 0.51468 0.53993 0.0
C59 C 0.98676 0.53153 0.56583 0.0
C60 C 0.08929 0.59254 0.54118 0.0
C61 C 0.08462 0.62271 0.53921 0.0
C62 C 0.06861 0.57536 0.54961 0.0
C63 C 0.04294 0.58802 0.55616 0.0
C64 C 0.05831 0.63501 0.5454 0.0
C65 C 0.03756 0.61774 0.55363 0.0
C66 C 0.02207 0.57027 0.5659 0.0
C67 C 0.05455 0.6374 0.6065 0.0
C68 C 0.07581 0.62369 0.61669 0.0
C69 C 0.0368 0.62084 0.59541 0.0
C70 C 0.04057 0.5905 0.59407 0.0
C71 C 0.07963 0.59332 0.6152 0.0
C72 C 0.06214 0.57689 0.60399 0.0
C73 C 0.02044 0.57223 0.5837 0.0
H74 H 0.89448 0.48939 0.59605 0.0
H75 H 0.92596 0.51892 0.57789 0.0
H76 H 0.96551 0.48354 0.6327 0.0
H77 H -0.00272 0.51082 0.61401 0.0
H78 H 0.95945 0.4348 0.55581 0.0
H79 H 0.98333 0.47306 0.57282 0.0
H80 H 0.9364 0.49812 0.51786 0.0
H81 H 0.95915 0.53689 0.53534 0.0
H82 H 0.109 0.58221 0.53632 0.0
H83 H 0.0729 0.55229 0.5513 0.0
H84 H 0.05401 0.65817 0.54435 0.0
H85 H 0.01749 0.6277 0.55825 0.0
H86 H 0.05085 0.66071 0.60762 0.0
H87 H 0.01953 0.6316 0.58835 0.0
H88 H 0.09594 0.58223 0.62285 0.0
H89 H 0.06509 0.55342 0.60327 0.0
N90 N 0.00158 0.55433 0.5919 0.0
N91 N 0.00546 0.54982 0.55761 0.0
C92 C 0.54243 0.44164 0.87309 0.0
C93 C 0.57225 0.43827 0.86866 0.0
C94 C 0.52343 0.45809 0.86305 0.0
C95 C 0.53367 0.47193 0.84841 0.0
C96 C 0.58226 0.4514 0.85366 0.0
C97 C 0.56337 0.4685 0.84385 0.0
C98 C 0.51394 0.49255 0.83945 0.0
C99 C 0.56151 0.47484 0.78494 0.0
C100 C 0.56208 0.44419 0.7858 0.0
C101 C 0.54525 0.49123 0.79656 0.0
C102 C 0.52946 0.47746 0.80945 0.0
C103 C 0.54569 0.4303 0.79851 0.0
C104 C 0.52935 0.44681 0.81019 0.0
C105 C 0.51265 0.49568 0.8216 0.0
C106 C 0.45347 0.61104 0.81284 0.0
C107 C 0.43093 0.60437 0.80104 0.0
C108 C 0.46939 0.58874 0.82063 0.0
C109 C 0.46333 0.5594 0.81659 0.0
C110 C 0.42533 0.5748 0.79694 0.0
C111 C 0.44166 0.5526 0.80445 0.0
C112 C 0.4795 0.53565 0.82495 0.0
C113 C 0.41544 0.57258 0.86253 0.0
C114 C 0.42816 0.58287 0.87776 0.0
C115 C 0.4319 0.55571 0.85116 0.0
C116 C 0.46168 0.54956 0.85457 0.0
C117 C 0.45763 0.57599 0.88143 0.0
C118 C 0.47423 0.55952 0.86992 0.0
C119 C 0.47957 0.5317 0.84268 0.0
H120 H 0.53385 0.43262 0.8847 0.0
H121 H 0.50077 0.46072 0.86705 0.0
H122 H 0.60491 0.44909 0.84964 0.0
H123 H 0.57239 0.4798 0.83306 0.0
H124 H 0.57433 0.48632 0.77555 0.0
H125 H 0.54557 0.51484 0.79569 0.0
H126 H 0.54546 0.40671 0.79941 0.0
H127 H 0.51669 0.43567 0.81979 0.0
H128 H 0.45885 0.63348 0.81611 0.0
H129 H 0.48642 0.59436 0.8298 0.0
H130 H 0.40776 0.56856 0.78828 0.0
H131 H 0.43672 0.53004 0.8012 0.0
H132 H 0.39258 0.57712 0.85958 0.0
H133 H 0.42116 0.54718 0.83984 0.0
H134 H 0.46795 0.58371 0.89309 0.0
H135 H 0.49702 0.55479 0.87297 0.0
N136 N 0.49704 0.51053 0.84921 0.0
N137 N 0.4957 0.51732 0.8151 0.0
C138 C 0.49887 0.89716 0.04847 0.0
C139 C 0.47148 0.90888 0.04358 0.0
C140 C 0.51976 0.91447 0.05687 0.0
C141 C 0.51409 0.94402 0.06015 0.0
C142 C 0.46624 0.93884 0.04658 0.0
C143 C 0.48759 0.95635 0.05458 0.0
C144 C 0.53581 0.9617 0.06966 0.0
C145 C 0.48113 0.9208 0.11024 0.0
C146 C 0.49584 0.90091 0.12076 0.0
C147 C 0.49673 0.93743 0.09858 0.0
C148 C 0.52738 0.93445 0.09705 0.0
C149 C 0.52648 0.89743 0.11892 0.0
C150 C 0.54212 0.91422 0.10727 0.0
C151 C 0.54424 0.95491 0.08638 0.0
C152 C 0.61611 0.05153 0.11261 0.0
C153 C 0.63822 0.03558 0.12097 0.0
C154 C 0.59867 0.03816 0.10001 0.0
C155 C 0.60312 0.00871 0.09561 0.0
C156 C 0.64401 0.0068 0.11551 0.0
C157 C 0.6264 0.99341 0.1031 0.0
C158 C 0.58078 0.99235 0.0857 0.0
C159 C 0.62557 0.05114 0.04803 0.0
C160 C 0.60628 0.06987 0.03938 0.0
C161 C 0.61447 0.02857 0.05799 0.0
C162 C 0.58391 0.02462 0.05961 0.0
C163 C 0.57575 0.06583 0.04107 0.0
C164 C 0.56472 0.04338 0.05101 0.0
C165 C 0.57136 6e-05 0.06923 0.0
H166 H 0.50424 0.87452 0.04591 0.0
H167 H 0.54039 0.90477 0.06084 0.0
H168 H 0.44538 0.94865 0.04321 0.0
H169 H 0.48297 0.97922 0.05702 0.0
H170 H 0.45772 0.92464 0.11157 0.0
H171 H 0.48494 0.9537 0.09137 0.0
H172 H 0.53847 0.88212 0.12671 0.0
H173 H 0.56581 0.91179 0.10644 0.0
H174 H 0.61089 0.07363 0.11659 0.0
H175 H 0.58046 0.0502 0.09458 0.0
H176 H 0.66127 0.99412 0.12144 0.0
H177 H 0.63011 0.97063 0.09988 0.0
H178 H 0.64921 0.05356 0.04682 0.0
H179 H 0.62977 0.01385 0.06407 0.0
H180 H 0.56031 0.08021 0.03483 0.0
H181 H 0.54106 0.04073 0.05203 0.0
N182 N 0.54935 0.98418 0.06176 0.0
N183 N 0.5667 0.97022 0.09368 0.0
C184 C 0.0522 0.61943 0.8901 0.0
C185 C 0.06926 0.60095 0.8797 0.0
C186 C 0.02946 0.60784 0.89999 0.0
C187 C 0.02346 0.5777 0.89946 0.0
C188 C 0.06288 0.57092 0.87915 0.0
C189 C 0.04018 0.55948 0.88884 0.0
C190 C -0.00042 0.56435 0.90943 0.0
C191 C 0.06752 0.59612 0.94706 0.0
C192 C 0.05662 0.61313 0.96053 0.0
C193 C 0.04821 0.58129 0.93615 0.0
C194 C 0.01759 0.58416 0.93811 0.0
C195 C 0.02614 0.61546 0.96288 0.0
C196 C 0.00674 0.60117 0.95167 0.0
C197 C -0.00317 0.56721 0.92726 0.0
C198 C 0.92475 0.46313 0.94393 0.0
C199 C 0.90534 0.47397 0.95631 0.0
C200 C 0.94152 0.48222 0.93426 0.0
C201 C 0.93901 0.51255 0.93665 0.0
C202 C 0.90322 0.50436 0.9589 0.0
C203 C 0.92015 0.52349 0.94923 0.0
C204 C 0.95735 0.53259 0.92663 0.0
C205 C 0.89272 0.49209 0.88946 0.0
C206 C 0.90575 0.47644 0.87602 0.0
C207 C 0.91003 0.50954 0.90032 0.0
C208 C 0.94071 0.51115 0.89808 0.0
C209 C 0.93641 0.47798 0.87389 0.0
C210 C 0.95367 0.49518 0.88477 0.0
C211 C 0.95952 0.53048 0.90879 0.0
H212 H 0.0566 0.64269 0.89067 0.0
H213 H 0.01651 0.62234 0.90793 0.0
H214 H 0.07519 0.55622 0.87098 0.0
H215 H 0.03582 0.5362 0.88814 0.0
H216 H 0.09105 0.59358 0.94532 0.0
H217 H 0.05734 0.567 0.9265 0.0
H218 H 0.01742 0.62829 0.97334 0.0
H219 H 0.98323 0.60316 0.95369 0.0
H220 H 0.92667 0.43987 0.94152 0.0
H221 H 0.95657 0.47325 0.92494 0.0
H222 H 0.88866 0.51329 0.96848 0.0
H223 H 0.91832 0.54682 0.95146 0.0
H224 H 0.86908 0.49155 0.89125 0.0
H225 H 0.89935 0.52225 0.91019 0.0
H226 H 0.94708 0.46587 0.86375 0.0
H227 H 0.97725 0.49603 0.88276 0.0
N228 N 0.98072 0.54623 0.90097 0.0
N229 N 0.97574 0.55121 0.93514 0.0
C230 C 0.42353 0.56611 0.14612 0.0
C231 C 0.43748 0.58674 0.13581 0.0
C232 C 0.44024 0.54731 0.15615 0.0
C233 C 0.47115 0.54866 0.15587 0.0
C234 C 0.4684 0.58823 0.13568 0.0
C235 C 0.4851 0.56909 0.14548 0.0
C236 C 0.48897 0.52785 0.16576 0.0
C237 C 0.45085 0.59174 0.20223 0.0
C238 C 0.43206 0.58011 0.21454 0.0
C239 C 0.46829 0.57342 0.19227 0.0
C240 C 0.46673 0.54294 0.19404 0.0
C241 C 0.43114 0.54971 0.21676 0.0
C242 C 0.44831 0.53125 0.20654 0.0
C243 C 0.48522 0.5235 0.18333 0.0
C244 C 0.57639 0.42845 0.19701 0.0
C245 C 0.55969 0.41151 0.20828 0.0
C246 C 0.56405 0.45277 0.18912 0.0
C247 C 0.53429 0.46002 0.19164 0.0
C248 C 0.53064 0.42038 0.21184 0.0
C249 C 0.51807 0.4441 0.20352 0.0
C250 C 0.51965 0.48406 0.18227 0.0
C251 C 0.5568 0.42678 0.13947 0.0
C252 C 0.58107 0.44057 0.13195 0.0
C253 C 0.53846 0.44241 0.15052 0.0
C254 C 0.54401 0.47207 0.15397 0.0
C255 C 0.58665 0.47019 0.13557 0.0
C256 C 0.56803 0.4859 0.14632 0.0
C257 C 0.52412 0.48938 0.1648 0.0
H258 H 0.39972 0.56455 0.14641 0.0
H259 H 0.42906 0.53136 0.16388 0.0
H260 H 0.47966 0.6037 0.12766 0.0
H261 H 0.50893 0.57028 0.145 0.0
H262 H 0.45268 0.61516 0.20062 0.0
H263 H 0.48334 0.58321 0.18335 0.0
H264 H 0.41703 0.54027 0.2263 0.0
H265 H 0.44708 0.50786 0.20834 0.0
H266 H 0.59881 0.42266 0.19387 0.0
H267 H 0.57788 0.46563 0.18092 0.0
H268 H 0.51731 0.40887 0.22095 0.0
H269 H 0.49533 0.4496 0.20614 0.0
H270 H 0.5521 0.40396 0.13681 0.0
H271 H 0.51977 0.43152 0.15617 0.0
H272 H 0.60502 0.48135 0.12975 0.0
H273 H 0.57242 0.50887 0.14874 0.0
N274 N 0.50859 0.51097 0.15725 0.0
N275 N 0.50036 0.50149 0.19086 0.0
C276 C 0.48437 0.94668 0.40248 0.0
C277 C 0.46837 0.95817 0.3888 0.0
C278 C 0.50057 0.96516 0.41328 0.0
C279 C 0.50046 -0.00446 0.41083 0.0
C280 C 0.46873 0.98847 0.38618 0.0
C281 C 0.48467 0.00697 0.39708 0.0
C282 C 0.51778 0.01543 0.42203 0.0
C283 C 0.44929 0.97505 0.4549 0.0
C284 C 0.46015 0.95884 0.4686 0.0
C285 C 0.4681 0.99278 0.44559 0.0
C286 C 0.49832 0.99408 0.4495 0.0
C287 C 0.49025 0.96053 0.47274 0.0
C288 C 0.50919 0.978 0.46324 0.0
C289 C 0.51829 0.01339 0.43992 0.0
C290 C 0.59347 0.11667 0.46144 0.0
C291 C 0.61091 0.1031 0.47385 0.0
C292 C 0.57488 0.10002 0.45089 0.0
C293 C 0.57374 0.06949 0.45244 0.0
C294 C 0.60907 0.07263 0.47563 0.0
C295 C 0.59056 0.05604 0.46509 0.0
C296 C 0.55444 0.0513 0.4414 0.0
C297 C 0.62049 0.08921 0.40431 0.0
C298 C 0.60745 0.10797 0.39245 0.0
C299 C 0.60293 0.07245 0.41503 0.0
C300 C 0.57209 0.07407 0.41395 0.0
C301 C 0.5766 0.11021 0.39181 0.0
C302 C 0.55909 0.09318 0.40235 0.0
C303 C 0.55325 0.05392 0.42358 0.0
H304 H 0.48491 0.92335 0.40459 0.0
H305 H 0.51343 0.95565 0.42342 0.0
H306 H 0.45649 -0.00209 0.37575 0.0
H307 H 0.48448 0.03028 0.39484 0.0
H308 H 0.42603 0.97476 0.45173 0.0
H309 H 0.45888 0.00586 0.43551 0.0
H310 H 0.49909 0.94836 0.48331 0.0
H311 H 0.53234 0.97896 0.46663 0.0
H312 H 0.59414 0.14015 0.45991 0.0
H313 H 0.56134 0.11104 0.44161 0.0
H314 H 0.62255 0.06142 0.48487 0.0
H315 H 0.58986 0.03255 0.4666 0.0
H316 H 0.64423 0.08706 0.40502 0.0
H317 H 0.61339 0.05745 0.42371 0.0
H318 H 0.56596 0.12413 0.38261 0.0
H319 H 0.53533 0.0945 0.40122 0.0
N320 N 0.535 0.03588 0.41459 0.0
N321 N 0.53688 0.03115 0.44888 0.0
C322 C 0.10478 0.96551 0.65824 0.0
C323 C 0.09277 0.94925 0.64457 0.0
C324 C 0.08661 0.98306 0.66841 0.0
C325 C 0.05621 0.98442 0.66509 0.0
C326 C 0.06212 0.94939 0.642 0.0
C327 C 0.04409 0.96692 0.65207 0.0
C328 C 0.03743 0.0068 0.67325 0.0
C329 C 0.05839 0.94356 0.71406 0.0
C330 C 0.07703 0.95504 0.72672 0.0
C331 C 0.04505 0.96201 0.70239 0.0
C332 C 0.05019 0.99224 0.70322 0.0
C333 C 0.08207 0.98524 0.72773 0.0
C334 C 0.06842 0.00383 0.71612 0.0
C335 C 0.03572 0.01164 0.69094 0.0
C336 C 0.92923 0.08517 0.69796 0.0
C337 C 0.93851 0.11131 0.70599 0.0
C338 C 0.9498 0.06523 0.69171 0.0
C339 C 0.98001 0.07062 0.69372 0.0
C340 C 0.969 0.11623 0.70824 0.0
C341 C 0.98952 0.09582 0.70239 0.0
C342 C 0.00149 0.0502 0.68633 0.0
C343 C 0.9799 0.11043 0.64248 0.0
C344 C 0.97009 0.09614 0.62763 0.0
C345 C 0.98921 0.09415 0.65644 0.0
C346 C 0.9882 0.06342 0.6558 0.0
C347 C 0.96773 0.06561 0.62729 0.0
C348 C 0.9766 0.04941 0.64127 0.0
C349 C 0.00351 0.04556 0.66865 0.0
H350 H 0.12835 0.96598 0.66045 0.0
H351 H 0.09653 -0.00322 0.67819 0.0
H352 H 0.05215 0.93666 0.63179 0.0
H353 H 0.02068 0.96761 0.64931 0.0
H354 H 0.05431 0.92025 0.71315 0.0
H355 H 0.03055 0.95269 0.69277 0.0
H356 H 0.09645 0.99435 0.73748 0.0
H357 H 0.07239 0.02715 0.71704 0.0
H358 H 0.90607 0.08009 0.69637 0.0
H359 H 0.94214 0.04559 0.68522 0.0
H360 H 0.97719 0.13622 0.71404 0.0
H361 H 0.01284 0.10026 0.70401 0.0
H362 H 0.9822 0.13399 0.64285 0.0
H363 H -0.00098 0.10557 0.66718 0.0
H364 H 0.96019 0.05422 0.61592 0.0
H365 H 0.97573 0.02577 0.64041 0.0
N366 N 0.02133 0.02398 0.66286 0.0
N367 N 0.01774 0.03318 0.69688 0.0
C368 C 0.32659 0.67317 0.0426 0.0
O369 O 0.3163 0.65308 0.03315 0.0
Cd370 Cd 0.30999 0.68682 0.00936 0.0
O371 O 0.32608 0.69874 0.0367 0.0
Cd372 Cd 0.30151 0.69796 0.00641 0.0
C373 C 0.33605 0.75105 0.00992 0.0
O374 O 0.32796 0.66024 0.98717 0.0
O375 O 0.31813 0.70199 0.97639 0.0
O376 O 0.25782 0.66883 0.01478 0.0
C377 C 0.3286 0.67653 0.97433 0.0
O378 O 0.34835 0.7265 0.01178 0.0
C379 C 0.23965 0.68515 0.00711 0.0
O380 O 0.30872 0.75102 0.00674 0.0
O381 O 0.2501 0.70729 -0.00032 0.0
C382 C 0.41252 0.83769 0.22884 0.0
O383 O 0.43293 0.8331 0.23955 0.0
Cd384 Cd 0.42349 0.82191 0.26866 0.0
O385 O 0.38565 0.83792 0.23346 0.0
Cd386 Cd 0.35719 0.83304 0.26023 0.0
C387 C 0.37755 0.76288 0.2627 0.0
O388 O 0.39129 0.8588 0.27915 0.0
O389 O 0.35846 0.83252 0.29151 0.0
O390 O 0.3301 0.8751 0.25032 0.0
C391 C 0.37869 0.85159 0.29278 0.0
O392 O 0.40161 0.77307 0.26872 0.0
C393 C 0.30476 0.86609 0.25456 0.0
O394 O 0.35763 0.77972 0.25698 0.0
O395 O 0.30332 0.84055 0.26069 0.0
C396 C 0.19051 0.90215 0.47835 0.0
O397 O 0.1954 0.92386 0.48817 0.0
Cd398 Cd 0.20965 0.91993 0.51754 0.0
O399 O 0.19404 0.87619 0.48364 0.0
Cd400 Cd 0.21156 0.85369 0.51043 0.0
C401 C 0.27654 0.88918 0.51185 0.0
O402 O 0.18148 0.88204 0.53039 0.0
O403 O 0.21612 0.85636 0.54153 0.0
O404 O 0.17783 0.81338 0.50443 0.0
C405 C 0.19346 0.87203 0.54367 0.0
O406 O 0.26224 0.91021 0.51851 0.0
C407 C 0.19638 0.79327 0.50721 0.0
O408 O 0.26331 0.8668 0.50577 0.0
O409 O 0.22254 0.80127 0.51077 0.0
C410 C 0.17671 0.66516 0.78088 0.0
O411 O 0.18544 0.64595 0.77029 0.0
Cd412 Cd 0.19954 0.65552 0.7416 0.0
O413 O 0.17603 0.69209 0.77698 0.0
Cd414 Cd 0.19147 0.72127 0.75211 0.0
C415 C 0.26092 0.69341 0.75254 0.0
O416 O 0.16526 0.6909 0.73129 0.0
O417 O 0.19201 0.72518 0.72089 0.0
O418 O 0.15506 0.7557 0.76291 0.0
C419 C 0.17316 0.70509 0.71838 0.0
O420 O 0.25047 0.67137 0.74454 0.0
C421 C 0.17013 0.77839 0.75976 0.0
O422 O 0.24399 0.71369 0.75779 0.0
O423 O 0.19552 0.77447 0.75346 0.0
C424 C 0.86521 0.16601 0.46489 0.0
O425 O 0.86231 0.1448 0.47499 0.0
Cd426 Cd 0.8638 0.14855 0.50525 0.0
O427 O 0.86673 0.19225 0.47049 0.0
Cd428 Cd 0.8605 0.21467 0.49933 0.0
C429 C 0.79736 0.17934 0.50881 0.0
O430 O 0.8993 0.1856 0.51188 0.0
O431 O 0.87329 0.2097 0.52987 0.0
O432 O 0.88612 0.25744 0.48801 0.0
C433 C 0.8959 0.19427 0.52703 0.0
O434 O 0.81368 0.15879 0.51408 0.0
C435 C 0.87108 0.2759 0.4964 0.0
O436 O 0.80835 0.20095 0.50102 0.0
O437 O 0.85045 0.26591 0.50548 0.0
C438 C 0.8487 0.38124 0.71359 0.0
O439 O 0.87117 0.37671 0.72287 0.0
Cd440 Cd 0.86948 0.35905 0.75132 0.0
O441 O 0.82291 0.37519 0.71889 0.0
Cd442 Cd 0.80152 0.35278 0.74479 0.0
C443 C 0.84281 0.29134 0.74203 0.0
O444 O 0.82924 0.38467 0.76412 0.0
O445 O 0.80331 0.35137 0.77607 0.0
O446 O 0.75811 0.37999 0.73574 0.0
C447 C 0.8193 0.37396 0.77767 0.0
O448 O 0.86379 0.30635 0.74847 0.0
C449 C 0.73964 0.36183 0.74153 0.0
O450 O 0.81842 0.3033 0.73821 0.0
O451 O 0.7499 0.33893 0.74825 0.0
C452 C 0.66567 0.3432 0.96551 0.0
O453 O 0.6462 0.33158 0.97462 0.0
Cd454 Cd 0.68115 0.32618 -0.00142 0.0
O455 O 0.69143 0.34428 0.97165 0.0
Cd456 Cd 0.69196 0.31846 0.0011 0.0
C457 C 0.74652 0.3503 0.99751 0.0
O458 O 0.65516 0.34267 0.02155 0.0
O459 O 0.69985 0.33891 0.03035 0.0
O460 O 0.66099 0.27622 0.99215 0.0
C461 C 0.67356 0.34653 0.0335 0.0
O462 O 0.72212 0.36366 0.99701 0.0
C463 C 0.6766 0.25749 -0.00021 0.0
O464 O 0.74553 0.32289 -0.00068 0.0
O465 O 0.69935 0.26688 0.00758 0.0
C466 C 0.70542 0.15417 0.28689 0.0
O467 O 0.71504 0.13011 0.28094 0.0
Cd468 Cd 0.73099 0.12222 0.25231 0.0
O469 O 0.70341 0.17658 0.27747 0.0
Cd470 Cd 0.71232 0.19136 0.24757 0.0
C471 C 0.78513 0.17532 0.25048 0.0
O472 O 0.69483 0.14581 0.23566 0.0
O473 O 0.71272 0.17537 0.2173 0.0
O474 O 0.66564 0.21613 0.24998 0.0
C475 C 0.7006 0.151 0.2203 0.0
O476 O 0.77715 0.14866 0.25029 0.0
C477 C 0.67413 0.24067 0.24451 0.0
O478 O 0.76645 0.19609 0.2507 0.0
O479 O 0.70128 0.24303 0.24082 0.0
H480 H 0.15475 0.9309 0.29029 0.0
H481 H 0.18181 0.01361 0.26914 0.0
H482 H 0.2229 0.98898 0.25424 0.0
H483 H 0.22593 0.90674 0.29946 0.0
H484 H 0.21898 0.86874 0.29462 0.0
H485 H 0.18929 0.89192 0.30146 0.0
H486 H 0.15968 0.878 0.2743 0.0
H487 H 0.18942 0.85482 0.26734 0.0
H488 H 0.17602 0.88333 0.25375 0.0
H489 H 0.2629 0.95665 0.24371 0.0
H490 H 0.30188 0.91981 0.2401 0.0
H491 H 0.25026 0.85788 0.26889 0.0
C492 C 0.16902 0.94355 0.28219 0.0
C493 C 0.16514 0.97397 0.28059 0.0
C494 C 0.18453 0.99021 0.27035 0.0
C495 C 0.20772 0.97639 0.26179 0.0
C496 C 0.21125 0.94637 0.26374 0.0
C497 C 0.19258 0.93013 0.27376 0.0
C498 C 0.20315 0.89885 0.27517 0.0
C499 C 0.20973 0.89113 0.29378 0.0
C500 C 0.18073 0.87749 0.26716 0.0
C501 C 0.23111 0.90027 0.26477 0.0
C502 C 0.23499 0.92774 0.25801 0.0
C503 C 0.25997 0.93496 0.24877 0.0
C504 C 0.282 0.91386 0.24679 0.0
C505 C 0.27908 0.88592 0.25415 0.0
C506 C 0.25292 0.87887 0.26288 0.0
H507 H 0.07638 0.67036 0.51877 0.0
H508 H 0.14477 0.61872 0.54269 0.0
H509 H 0.18228 0.6533 0.53257 0.0
H510 H 0.12042 0.69697 0.48224 0.0
H511 H 0.10385 0.73267 0.48345 0.0
H512 H 0.08307 0.70089 0.48956 0.0
H513 H 0.07324 0.72463 0.51904 0.0
H514 H 0.09388 0.75638 0.51303 0.0
H515 H 0.10398 0.73682 0.53191 0.0
H516 H 0.21153 0.69681 0.52339 0.0
H517 H 0.22955 0.74642 0.51702 0.0
H518 H 0.14179 0.77063 0.50031 0.0
C519 C 0.09926 0.66603 0.52171 0.0
C520 C 0.10752 0.64163 0.53147 0.0
C521 C 0.13781 0.63683 0.53493 0.0
C522 C 0.15934 0.65644 0.52928 0.0
C523 C 0.15029 0.68071 0.52012 0.0
C524 C 0.12095 0.68552 0.51634 0.0
C525 C 0.11654 0.71488 0.50809 0.0
C526 C 0.10531 0.71112 0.48975 0.0
C527 C 0.09569 0.73431 0.51866 0.0
C528 C 0.1478 0.72643 0.50852 0.0
C529 C 0.16708 0.70614 0.51514 0.0
C530 C 0.19674 0.71269 0.51793 0.0
C531 C 0.20678 0.74094 0.51427 0.0
C532 C 0.18709 0.76236 0.50813 0.0
C533 C 0.15744 0.75465 0.50481 0.0
H534 H 0.40557 0.60578 0.76921 0.0
H535 H 0.41282 0.65569 0.81632 0.0
H536 H 0.37703 0.69111 0.8054 0.0
H537 H 0.38826 0.66791 0.74002 0.0
H538 H 0.3617 0.64601 0.72843 0.0
H539 H 0.39356 0.62903 0.73784 0.0
H540 H 0.35958 0.59358 0.75417 0.0
H541 H 0.32781 0.61029 0.74478 0.0
H542 H 0.33104 0.60834 0.76756 0.0
H543 H 0.33472 0.71638 0.79167 0.0
H544 H 0.28706 0.72629 0.77776 0.0
H545 H 0.30459 0.65781 0.74063 0.0
C546 C 0.40007 0.62437 0.77718 0.0
C547 C 0.41231 0.62784 0.79364 0.0
C548 C 0.40446 0.65271 0.80352 0.0
C549 C 0.38402 0.67303 0.79742 0.0
C550 C 0.37155 0.66825 0.78141 0.0
C551 C 0.37927 0.64446 0.77144 0.0
C552 C 0.35939 0.64151 0.75602 0.0
C553 C 0.37677 0.64642 0.73961 0.0
C554 C 0.34352 0.61168 0.75563 0.0
C555 C 0.33821 0.66635 0.75938 0.0
C556 C 0.34619 0.68216 0.77376 0.0
C557 C 0.32854 0.70451 0.78022 0.0
C558 C 0.30148 0.71002 0.77221 0.0
C559 C 0.29209 0.69279 0.75811 0.0
C560 C 0.31129 0.67151 0.75128 0.0
H561 H 0.46059 0.85128 0.05068 0.0
H562 H 0.42947 0.92252 0.01936 0.0
H563 H 0.39053 0.89027 0.00759 0.0
H564 H 0.45144 0.79559 0.01838 0.0
H565 H 0.44094 0.76811 0.03341 0.0
H566 H 0.46529 0.79737 0.03987 0.0
H567 H 0.42979 0.81105 0.06438 0.0
H568 H 0.40527 0.78193 0.05795 0.0
H569 H 0.39174 0.81883 0.05962 0.0
H570 H 0.35373 0.85002 0.0 0.0
H571 H 0.325 0.80429 0.99569 0.0
H572 H 0.38437 0.75927 0.02978 0.0
C573 C 0.44606 0.86019 0.04112 0.0
C574 C 0.44828 0.88961 0.03601 0.0
C575 C 0.42804 0.90027 0.02377 0.0
C576 C 0.40594 0.88205 0.0169 0.0
C577 C 0.40462 0.85316 0.02222 0.0
C578 C 0.42441 0.84226 0.0339 0.0
C579 C 0.41903 0.81026 0.0372 0.0
C580 C 0.44576 0.79175 0.03189 0.0
C581 C 0.41097 0.80524 0.0559 0.0
C582 C 0.39299 0.80479 0.02559 0.0
C583 C 0.38467 0.82982 0.01719 0.0
C584 C 0.36026 0.83022 0.00636 0.0
C585 C 0.34408 0.80426 0.00401 0.0
C586 C 0.35281 0.77835 0.01224 0.0
C587 C 0.37758 0.7787 0.0231 0.0
H588 H 0.09548 0.65632 0.95352 0.0
H589 H 0.06545 0.60019 0.99377 0.0
H590 H 0.10649 0.61769 0.01219 0.0
H591 H 0.16879 0.64486 0.95834 0.0
H592 H 0.18074 0.68167 0.95419 0.0
H593 H 0.14652 0.6685 0.94541 0.0
H594 H 0.11868 0.71159 0.95963 0.0
H595 H 0.15296 0.72512 0.96838 0.0
H596 H 0.12234 0.71781 0.9822 0.0
H597 H 0.15572 0.63402 0.02369 0.0
H598 H 0.20683 0.65148 0.02847 0.0
H599 H 0.20251 0.69982 0.98153 0.0
C600 C 0.09711 0.64856 0.96643 0.0
C601 C 0.07747 0.62723 0.97242 0.0
C602 C 0.08025 0.61691 0.98918 0.0
C603 C 0.10343 0.62669 -0.00033 0.0
C604 C 0.12309 0.6472 0.99323 0.0
C605 C 0.11975 0.6585 0.97712 0.0
C606 C 0.14495 0.67864 0.97271 0.0
C607 C 0.1612 0.66775 0.95673 0.0
C608 C 0.13408 0.71016 0.97061 0.0
C609 C 0.16381 0.67572 0.98848 0.0
C610 C 0.15081 0.65763 0.00023 0.0
C611 C 0.16573 0.64893 0.01484 0.0
C612 C 0.19474 0.6588 0.01742 0.0
C613 C 0.20827 0.67736 0.00551 0.0
C614 C 0.19234 0.68634 0.99108 0.0
H615 H 0.39765 0.62565 0.20466 0.0
H616 H 0.42948 0.58062 0.24918 0.0
H617 H 0.40908 0.61973 0.26753 0.0
H618 H 0.41742 0.69322 0.21685 0.0
H619 H 0.38605 0.71235 0.20839 0.0
H620 H 0.39685 0.678 0.19918 0.0
H621 H 0.34457 0.65712 0.20429 0.0
H622 H 0.33349 0.69162 0.2135 0.0
H623 H 0.32915 0.65844 0.22533 0.0
H624 H 0.39659 0.66826 0.28003 0.0
H625 H 0.38986 0.72102 0.28587 0.0
H626 H 0.36286 0.73379 0.2337 0.0
C627 C 0.39938 0.62361 0.21831 0.0
C628 C 0.41498 0.60018 0.22556 0.0
C629 C 0.41722 0.59823 0.24343 0.0
C630 C 0.40571 0.62035 0.25393 0.0
C631 C 0.39149 0.64386 0.24634 0.0
C632 C 0.38774 0.64533 0.22894 0.0
C633 C 0.37468 0.67434 0.2238 0.0
C634 C 0.39497 0.69041 0.21133 0.0
C635 C 0.34362 0.67012 0.21629 0.0
C636 C 0.37354 0.68976 0.24089 0.0
C637 C 0.38294 0.67167 0.25378 0.0
C638 C 0.38811 0.68231 0.27021 0.0
C639 C 0.3843 0.71226 0.27342 0.0
C640 C 0.37504 0.73106 0.26034 0.0
C641 C 0.3687 0.71951 0.24405 0.0
H642 H 0.41721 0.92097 0.45769 0.0
H643 H 0.45578 0.95984 0.50313 0.0
H644 H 0.41614 0.9383 0.52035 0.0
H645 H 0.34616 0.93573 0.4668 0.0
H646 H 0.33037 0.90232 0.45843 0.0
H647 H 0.36469 0.91553 0.45023 0.0
H648 H 0.38971 0.86635 0.45738 0.0
H649 H 0.35529 0.85284 0.46555 0.0
H650 H 0.38791 0.85263 0.47871 0.0
H651 H 0.36761 0.92226 0.53132 0.0
H652 H 0.31525 0.90945 0.53566 0.0
H653 H 0.30907 0.8781 0.48364 0.0
C654 C 0.4177 0.92418 0.47134 0.0
C655 C 0.4395 0.94193 0.47914 0.0
C656 C 0.43947 0.94594 0.49698 0.0
C657 C 0.41703 0.93382 0.50684 0.0
C658 C 0.39521 0.91728 0.49868 0.0
C659 C 0.39567 0.91195 0.48136 0.0
C660 C 0.36817 0.8959 0.47547 0.0
C661 C 0.35137 0.91343 0.46195 0.0
C662 C 0.37573 0.86509 0.46889 0.0
C663 C 0.35134 0.89464 0.49198 0.0
C664 C 0.36748 0.9068 0.50526 0.0
C665 C 0.35512 0.91177 0.5212 0.0
C666 C 0.32541 0.90457 0.52354 0.0
C667 C 0.30859 0.89224 0.51008 0.0
C668 C 0.3219 0.88652 0.49427 0.0
H669 H 0.13232 0.93347 0.72439 0.0
H670 H 0.05273 0.92969 0.75425 0.0
H671 H 0.07301 0.88806 0.77029 0.0
H672 H 0.13849 0.86121 0.71797 0.0
H673 H 0.17809 0.85883 0.71904 0.0
H674 H 0.16097 0.89247 0.71299 0.0
H675 H 0.18856 0.91998 0.73726 0.0
H676 H 0.20607 0.88634 0.74333 0.0
H677 H 0.18554 0.90725 0.75876 0.0
H678 H 0.09688 0.84172 0.77862 0.0
H679 H 0.12292 0.79445 0.77907 0.0
H680 H 0.1877 0.82819 0.74406 0.0
C681 C 0.11993 0.92463 0.73487 0.0
C682 C 0.09143 0.93491 0.73851 0.0
C683 C 0.07493 0.92227 0.75168 0.0
C684 C 0.08629 0.89873 0.76081 0.0
C685 C 0.11417 0.88826 0.75658 0.0
C686 C 0.13095 0.90101 0.74403 0.0
C687 C 0.15823 0.88316 0.74024 0.0
C688 C 0.15895 0.87333 0.72146 0.0
C689 C 0.18626 0.9002 0.7452 0.0
C690 C 0.15334 0.85759 0.75191 0.0
C691 C 0.12809 0.8612 0.76145 0.0
C692 C 0.11712 0.83896 0.77159 0.0
C693 C 0.13196 0.81216 0.77172 0.0
C694 C 0.15747 0.80786 0.76176 0.0
C695 C 0.16869 0.83116 0.75214 0.0
H696 H 0.59753 0.39774 0.7934 0.0
H697 H 0.5708 0.45323 0.75182 0.0
H698 H 0.60951 0.43157 0.73386 0.0
H699 H 0.67048 0.40411 0.78841 0.0
H700 H 0.68031 0.36699 0.79323 0.0
H701 H 0.64705 0.38233 0.8017 0.0
H702 H 0.61654 0.34009 0.78815 0.0
H703 H 0.64986 0.32436 0.77973 0.0
H704 H 0.61952 0.3325 0.76571 0.0
H705 H 0.65698 0.41236 0.72289 0.0
H706 H 0.70766 0.39381 0.71898 0.0
H707 H 0.70151 0.3476 0.76652 0.0
C708 C 0.59896 0.40444 0.7803 0.0
C709 C 0.58124 0.42728 0.77406 0.0
C710 C 0.5844 0.43602 0.75696 0.0
C711 C 0.60615 0.42366 0.7466 0.0
C712 C 0.62415 0.4021 0.75338 0.0
C713 C 0.62039 0.39209 0.76973 0.0
C714 C 0.64451 0.37091 0.77456 0.0
C715 C 0.66158 0.38176 0.7904 0.0
C716 C 0.63184 0.34014 0.77719 0.0
C717 C 0.66335 0.37196 0.75877 0.0
C718 C 0.65106 0.38984 0.74662 0.0
C719 C 0.66637 0.39749 0.73201 0.0
C720 C 0.69513 0.38699 0.72992 0.0
C721 C 0.70806 0.36882 0.74227 0.0
C722 C 0.69165 0.3606 0.7566 0.0
H723 H 0.65158 0.10776 0.04682 0.0
H724 H 0.58616 0.08663 0.00816 0.0
H725 H 0.60115 0.13 0.99201 0.0
H726 H 0.64098 0.18213 0.0473 0.0
H727 H 0.67913 0.19216 0.0502 0.0
H728 H 0.66611 0.15746 0.05759 0.0
H729 H 0.7058 0.13086 0.03968 0.0
H730 H 0.71909 0.16558 0.03227 0.0
H731 H 0.70809 0.13759 0.01722 0.0
H732 H 0.61835 0.17866 0.98215 0.0
H733 H 0.63787 0.2287 0.9788 0.0
H734 H 0.69369 0.2172 0.02311 0.0
C735 C 0.64104 0.11177 0.03471 0.0
C736 C 0.61767 0.09389 0.02876 0.0
C737 C 0.60389 0.10026 0.01305 0.0
C738 C 0.61242 0.12468 0.00371 0.0
C739 C 0.635 0.14231 0.01015 0.0
C740 C 0.64936 0.13601 0.02519 0.0
C741 C 0.67136 0.15969 0.02995 0.0
C742 C 0.66393 0.17368 0.04728 0.0
C743 C 0.70296 0.14771 0.02976 0.0
C744 C 0.66632 0.18078 0.01558 0.0
C745 C 0.64545 0.17022 0.00421 0.0
C746 C 0.63519 0.18693 0.99074 0.0
C747 C 0.6463 0.21532 0.98898 0.0
C748 C 0.66749 0.22661 0.00058 0.0
C749 C 0.67799 0.20886 0.01383 0.0
H750 H 0.93227 0.15219 0.29911 0.0
H751 H 0.97082 0.13098 0.2503 0.0
H752 H 0.92783 0.1528 0.23583 0.0
H753 H 0.86307 0.13108 0.28893 0.0
H754 H 0.8441 0.15899 0.30091 0.0
H755 H 0.88043 0.14804 0.30721 0.0
H756 H 0.89834 0.20172 0.30538 0.0
H757 H 0.86189 0.21286 0.29899 0.0
H758 H 0.89317 0.22152 0.28595 0.0
H759 H 0.87767 0.16841 0.22692 0.0
H760 H 0.82364 0.17406 0.2244 0.0
H761 H 0.81742 0.18548 0.27884 0.0
C762 C 0.93218 0.15325 0.28538 0.0
C763 C 0.95498 0.14031 0.27579 0.0
C764 C 0.95359 0.14095 0.25785 0.0
C765 C 0.9294 0.1535 0.24954 0.0
C766 C 0.90683 0.16541 0.25938 0.0
C767 C 0.90807 0.16546 0.27693 0.0
C768 C 0.87927 0.17562 0.28458 0.0
C769 C 0.86594 0.15202 0.29606 0.0
C770 C 0.88343 0.20466 0.2943 0.0
C771 C 0.86106 0.17977 0.26862 0.0
C772 C 0.8776 0.17452 0.25419 0.0
C773 C 0.86473 0.1735 0.23806 0.0
C774 C 0.83411 0.17687 0.23671 0.0
C775 C 0.81684 0.18125 0.25138 0.0
C776 C 0.83053 0.18353 0.26743 0.0
H777 H 0.90503 0.42363 0.54554 0.0
H778 H 0.95726 0.45017 0.50247 0.0
H779 H 0.93915 0.40716 0.48606 0.0
H780 H 0.91774 0.34959 0.54218 0.0
H781 H 0.8812 0.33824 0.54812 0.0
H782 H 0.89545 0.3728 0.55555 0.0
H783 H 0.85037 0.39922 0.54253 0.0
H784 H 0.83591 0.36463 0.53507 0.0
H785 H 0.84168 0.3939 0.52034 0.0
H786 H 0.92131 0.35747 0.47622 0.0
H787 H 0.90253 0.30683 0.47303 0.0
H788 H 0.85947 0.3147 0.52187 0.0
C789 C 0.91216 0.42061 0.53254 0.0
C790 C 0.93246 0.44005 0.5252 0.0
C791 C 0.94147 0.43556 0.5082 0.0
C792 C 0.93133 0.41122 0.49883 0.0
C793 C 0.91177 0.39204 0.50656 0.0
C794 C 0.9019 0.39677 0.52295 0.0
C795 C 0.88217 0.37217 0.5287 0.0
C796 C 0.89492 0.35733 0.54457 0.0
C797 C 0.85066 0.38314 0.53184 0.0
C798 C 0.88342 0.35223 0.51327 0.0
C799 C 0.9005 0.36407 0.50059 0.0
C800 C 0.90728 0.34829 0.48586 0.0
C801 C 0.89661 0.31957 0.48417 0.0
C802 C 0.87917 0.30712 0.49707 0.0
C803 C 0.87206 0.32395 0.5116 0.0
H804 H 0.6477 0.14658 0.4633 0.0
H805 H 0.62329 0.09726 0.50777 0.0
H806 H 0.66467 0.11958 0.52372 0.0
H807 H 0.72059 0.13732 0.46648 0.0
H808 H 0.73169 0.17315 0.45969 0.0
H809 H 0.69681 0.15841 0.45294 0.0
H810 H 0.67013 0.20373 0.46542 0.0
H811 H 0.70511 0.21878 0.47218 0.0
H812 H 0.67598 0.21397 0.48736 0.0
H813 H 0.7137 0.1384 0.53261 0.0
H814 H 0.76583 0.15396 0.53405 0.0
H815 H 0.75723 0.19386 0.48468 0.0
C816 C 0.65029 0.14144 0.4766 0.0
C817 C 0.6323 0.1202 0.48429 0.0
C818 C 0.63699 0.11331 0.50158 0.0
C819 C 0.66026 0.1261 0.5108 0.0
C820 C 0.67833 0.14612 0.50264 0.0
C821 C 0.67334 0.15414 0.486 0.0
C822 C 0.69794 0.17339 0.47955 0.0
C823 C 0.71262 0.15973 0.46375 0.0
C824 C 0.68661 0.20431 0.47592 0.0
C825 C 0.71842 0.17342 0.49478 0.0
C826 C 0.70648 0.15795 0.50808 0.0
C827 C 0.72292 0.15141 0.52255 0.0
C828 C 0.75249 0.16023 0.52325 0.0
C829 C 0.76519 0.17559 0.50964 0.0
C830 C 0.74766 0.18309 0.49552 0.0
H831 H 0.94202 0.15014 0.73309 0.0
H832 H 0.88563 0.12461 0.6906 0.0
H833 H 0.851 0.16363 0.6983 0.0
H834 H 0.8842 0.17576 0.76232 0.0
H835 H 0.90605 0.20642 0.76961 0.0
H836 H 0.92382 0.17314 0.7628 0.0
H837 H 0.95471 0.20217 0.74111 0.0
H838 H 0.93717 0.23546 0.74788 0.0
H839 H 0.93613 0.22468 0.7258 0.0
H840 H 0.82465 0.20815 0.70882 0.0
H841 H 0.81121 0.2571 0.7197 0.0
H842 H 0.88691 0.25602 0.75362 0.0
C843 C 0.92237 0.1525 0.7254 0.0
C844 C 0.91661 0.13381 0.71132 0.0
C845 C 0.89036 0.13787 0.70175 0.0
C846 C 0.8705 0.16016 0.70597 0.0
C847 C 0.87721 0.17843 0.71972 0.0
C848 C 0.90262 0.17499 0.72921 0.0
C849 C 0.90646 0.19958 0.74206 0.0
C850 C 0.90504 0.18803 0.76028 0.0
C851 C 0.93531 0.21647 0.73902 0.0
C852 C 0.87973 0.2179 0.73791 0.0
C853 C 0.86273 0.20495 0.7253 0.0
C854 C 0.83763 0.21839 0.71882 0.0
C855 C 0.83014 0.24617 0.7251 0.0
C856 C 0.84804 0.26038 0.73748 0.0
C857 C 0.87275 0.24568 0.74419 0.0
H858 H 0.84665 0.47899 0.96348 0.0
H859 H 0.92209 0.4224 0.97073 0.0
H860 H 0.89009 0.386 0.98445 0.0
H861 H 0.80871 0.46062 0.00357 0.0
H862 H 0.77285 0.46211 0.99368 0.0
H863 H 0.80229 0.48494 0.98611 0.0
H864 H 0.7949 0.46349 0.95576 0.0
H865 H 0.76561 0.44053 0.96323 0.0
H866 H 0.79666 0.42449 0.95245 0.0
H867 H 0.84919 0.35388 0.99471 0.0
H868 H 0.80239 0.32871 0.00116 0.0
H869 H 0.75403 0.40686 0.98775 0.0
C870 C 0.85658 0.4593 0.96838 0.0
C871 C 0.88683 0.45351 0.96608 0.0
C872 C 0.89889 0.42714 0.97225 0.0
C873 C 0.88095 0.40644 0.98016 0.0
C874 C 0.85107 0.41256 0.9819 0.0
C875 C 0.839 0.43844 0.97629 0.0
C876 C 0.80594 0.43885 0.97864 0.0
C877 C 0.79692 0.46307 0.99125 0.0
C878 C 0.78985 0.44201 0.9615 0.0
C879 C 0.80121 0.40887 0.98603 0.0
C880 C 0.82752 0.39412 0.98794 0.0
C881 C 0.82849 0.36536 0.99352 0.0
C882 C 0.80182 0.35122 0.99711 0.0
C883 C 0.77463 0.3659 0.99506 0.0
C884 C 0.77449 0.39521 0.98968 0.0
H885 H 0.61797 0.39845 0.21634 0.0
H886 H 0.52952 0.36149 0.21664 0.0
H887 H 0.54917 0.31615 0.22832 0.0
H888 H 0.65189 0.33321 0.20109 0.0
H889 H 0.68536 0.33834 0.2132 0.0
H890 H 0.66418 0.36954 0.20677 0.0
H891 H 0.66103 0.38701 0.23812 0.0
H892 H 0.68214 0.35578 0.24467 0.0
H893 H 0.64652 0.36268 0.25387 0.0
H894 H 0.57786 0.2742 0.23905 0.0
H895 H 0.61444 0.23658 0.24597 0.0
H896 H 0.68513 0.29821 0.23622 0.0
C897 C 0.60259 0.38093 0.21878 0.0
C898 C 0.57192 0.38418 0.21577 0.0
C899 C 0.55288 0.36037 0.21933 0.0
C900 C 0.56387 0.33425 0.22586 0.0
C901 C 0.59406 0.33187 0.22856 0.0
C902 C 0.61325 0.35438 0.22497 0.0
C903 C 0.64499 0.34519 0.22783 0.0
C904 C 0.66264 0.34665 0.21123 0.0
C905 C 0.65952 0.36377 0.24196 0.0
C906 C 0.64056 0.31388 0.23339 0.0
C907 C 0.61095 0.30692 0.23398 0.0
C908 C 0.60113 0.27936 0.23865 0.0
C909 C 0.62213 0.25815 0.24258 0.0
C910 C 0.65267 0.26441 0.24161 0.0
C911 C 0.66195 0.29278 0.23708 0.0
H912 H 0.15581 -0.00245 0.39691 0.0
H913 H 0.10554 0.92366 0.37699 0.0
H914 H 0.12268 0.89388 0.40089 0.0
H915 H 0.21717 0.95686 0.41522 0.0
H916 H 0.21943 0.98047 0.43367 0.0
H917 H 0.20668 0.99471 0.41371 0.0
H918 H 0.15863 0.01245 0.42812 0.0
H919 H 0.17117 -0.00178 0.44808 0.0
H920 H 0.13616 0.98664 0.43938 0.0
H921 H 0.14274 0.87291 0.42815 0.0
H922 H 0.16224 0.86343 0.45694 0.0
H923 H 0.19549 0.95235 0.46002 0.0
C924 C 0.14836 0.9751 0.39745 0.0
C925 C 0.12936 0.96309 0.38486 0.0
C926 C 0.12062 0.93339 0.38614 0.0
C927 C 0.13008 0.91627 0.39978 0.0
C928 C 0.14814 0.92911 0.41215 0.0
C929 C 0.15711 0.95789 0.41112 0.0
C930 C 0.17451 0.96727 0.42672 0.0
C931 C 0.20634 0.97529 0.42205 0.0
C932 C 0.15919 0.99264 0.43613 0.0
C933 C 0.17341 0.93944 0.43687 0.0
C934 C 0.15857 0.9175 0.42813 0.0
C935 C 0.15449 0.88991 0.43507 0.0
C936 C 0.16565 0.88472 0.45143 0.0
C937 C 0.18025 0.90718 0.46075 0.0
C938 C 0.18429 0.93478 0.45326 0.0
H939 H 0.08409 0.61012 0.64997 0.0
H940 H 0.10525 0.67557 0.61258 0.0
H941 H 0.13335 0.70362 0.63444 0.0
H942 H 0.07333 0.66001 0.68467 0.0
H943 H 0.08897 0.63595 0.70024 0.0
H944 H 0.07136 0.62097 0.68152 0.0
H945 H 0.11887 0.59224 0.67422 0.0
H946 H 0.13664 0.60712 0.69293 0.0
H947 H 0.15332 0.61164 0.67241 0.0
H948 H 0.15974 0.72394 0.66059 0.0
H949 H 0.18014 0.73605 0.68905 0.0
H950 H 0.14009 0.65755 0.70908 0.0
C951 C 0.0949 0.63021 0.64634 0.0
C952 C 0.09279 0.64062 0.62959 0.0
C953 C 0.10663 0.66731 0.62538 0.0
C954 C 0.12268 0.68327 0.63768 0.0
C955 C 0.12439 0.67232 0.65411 0.0
C956 C 0.11068 0.64648 0.65845 0.0
C957 C 0.11507 0.63977 0.67705 0.0
C958 C 0.08542 0.63915 0.68641 0.0
C959 C 0.13199 0.61099 0.67927 0.0
C960 C 0.13352 0.6658 0.68252 0.0
C961 C 0.13883 0.68429 0.66913 0.0
C962 C 0.15564 0.70965 0.67118 0.0
C963 C 0.16716 0.71632 0.68736 0.0
C964 C 0.16162 0.69779 0.70127 0.0
C965 C 0.1446 0.67223 0.69872 0.0
H966 H 0.42234 0.57489 0.91194 0.0
H967 H 0.39461 0.6307 0.87075 0.0
H968 H 0.36595 0.66088 0.89101 0.0
H969 H 0.35315 0.57606 0.93424 0.0
H970 H 0.37012 0.57611 0.95499 0.0
H971 H 0.38862 0.55921 0.93726 0.0
H972 H 0.43448 0.59182 0.94297 0.0
H973 H 0.41612 0.60884 0.96071 0.0
H974 H 0.43036 0.63098 0.94384 0.0
H975 H 0.3419 0.68583 0.91593 0.0
H976 H 0.32163 0.70225 0.94348 0.0
H977 H 0.36344 0.62882 0.96818 0.0
C978 C 0.41032 0.59355 0.90723 0.0
C979 C 0.41071 0.60064 0.88984 0.0
C980 C 0.39441 0.62491 0.88404 0.0
C981 C 0.3782 0.64219 0.89545 0.0
C982 C 0.37833 0.63467 0.91254 0.0
C983 C 0.39375 0.61078 0.9184 0.0
C984 C 0.38979 0.60707 0.93732 0.0
C985 C 0.37451 0.57788 0.94117 0.0
C986 C 0.41945 0.60985 0.94676 0.0
C987 C 0.36992 0.63275 0.94124 0.0
C988 C 0.36372 0.64849 0.92679 0.0
C989 C 0.34644 0.67358 0.92731 0.0
C990 C 0.33509 0.68275 0.943 0.0
C991 C 0.34086 0.66671 0.95792 0.0
C992 C 0.35846 0.64137 0.95696 0.0
H993 H 0.51455 0.89059 0.15334 0.0
H994 H 0.43988 0.87766 0.11934 0.0
H995 H 0.41087 0.85809 0.14309 0.0
H996 H 0.50228 0.82415 0.17854 0.0
H997 H 0.51402 0.842 0.19796 0.0
H998 H 0.52936 0.85301 0.17797 0.0
H999 H 0.51343 0.90639 0.18418 0.0
H1000 H 0.49776 0.89553 0.20407 0.0
H1001 H 0.4753 0.91409 0.18867 0.0
H1002 H 0.38863 0.84436 0.17117 0.0
H1003 H 0.37598 0.83431 0.20104 0.0
H1004 H 0.46607 0.85395 0.21616 0.0
C1005 C 0.49239 0.88289 0.15072 0.0
C1006 C 0.47953 0.88575 0.13443 0.0
C1007 C 0.45014 0.87606 0.13174 0.0
C1008 C 0.43352 0.86475 0.14513 0.0
C1009 C 0.4467 0.86293 0.16109 0.0
C1010 C 0.4756 0.87136 0.16388 0.0
C1011 C 0.48428 0.86815 0.18235 0.0
C1012 C 0.50895 0.84547 0.18431 0.0
C1013 C 0.49321 0.8978 0.19028 0.0
C1014 C 0.45556 0.85719 0.18959 0.0
C1015 C 0.43413 0.85432 0.17715 0.0
C1016 C 0.40535 0.84611 0.18098 0.0
C1017 C 0.39834 0.84059 0.19798 0.0
C1018 C 0.42008 0.84314 0.2109 0.0
C1019 C 0.44906 0.85139 0.20655 0.0
H1020 H 0.0675 0.64827 0.8586 0.0
H1021 H 0.12444 0.57866 0.87595 0.0
H1022 H 0.16094 0.59148 0.8542 0.0
H1023 H 0.07822 0.63788 0.81617 0.0
H1024 H 0.07874 0.67578 0.81021 0.0
H1025 H 0.05916 0.66479 0.82887 0.0
H1026 H 0.08936 0.70154 0.84724 0.0
H1027 H 0.10883 0.713 0.82856 0.0
H1028 H 0.12905 0.70032 0.84679 0.0
H1029 H 0.18639 0.6053 0.82784 0.0
H1030 H 0.20218 0.62301 0.79983 0.0
H1031 H 0.13097 0.68597 0.80008 0.0
C1032 C 0.08816 0.63651 0.85821 0.0
C1033 C 0.09317 0.61243 0.8689 0.0
C1034 C 0.12012 0.59703 0.86777 0.0
C1035 C 0.14103 0.60424 0.85553 0.0
C1036 C 0.13489 0.62722 0.84467 0.0
C1037 C 0.10941 0.64356 0.84606 0.0
C1038 C 0.10725 0.66562 0.8319 0.0
C1039 C 0.07918 0.6607 0.82115 0.0
C1040 C 0.10872 0.69698 0.83905 0.0
C1041 C 0.13474 0.65815 0.82192 0.0
C1042 C 0.15041 0.63602 0.82959 0.0
C1043 C 0.17482 0.62317 0.82193 0.0
C1044 C 0.18348 0.63319 0.80599 0.0
C1045 C 0.16797 0.65602 0.79799 0.0
C1046 C 0.14358 0.66894 0.80617 0.0
H1047 H 0.39431 0.57025 0.11339 0.0
H1048 H 0.44198 0.64598 0.13267 0.0
H1049 H 0.41484 0.67742 0.1126 0.0
H1050 H 0.39683 0.58987 0.07064 0.0
H1051 H 0.36075 0.57592 0.06525 0.0
H1052 H 0.38123 0.56014 0.08246 0.0
H1053 H 0.33774 0.57031 0.10286 0.0
H1054 H 0.31708 0.58614 0.08568 0.0
H1055 H 0.32352 0.60691 0.10495 0.0
H1056 H 0.38484 0.69988 0.08928 0.0
H1057 H 0.35645 0.71141 0.06341 0.0
H1058 H 0.32947 0.62057 0.05881 0.0
C1059 C 0.3985 0.59356 0.11363 0.0
C1060 C 0.41994 0.60585 0.12464 0.0
C1061 C 0.42554 0.63627 0.12431 0.0
C1062 C 0.41014 0.65425 0.11304 0.0
C1063 C 0.38935 0.6414 0.10217 0.0
C1064 C 0.38359 0.61173 0.10233 0.0
C1065 C 0.36207 0.60298 0.08841 0.0
C1066 C 0.37607 0.58094 0.07596 0.0
C1067 C 0.3334 0.59087 0.09593 0.0
C1068 C 0.35705 0.63225 0.08017 0.0
C1069 C 0.37263 0.65421 0.08846 0.0
C1070 C 0.37235 0.68292 0.08278 0.0
C1071 C 0.35613 0.68925 0.06808 0.0
C1072 C 0.34069 0.6669 0.05912 0.0
C1073 C 0.34087 0.63816 0.06544 0.0
H1074 H 0.46872 0.95893 0.35416 0.0
H1075 H 0.43129 0.91311 0.39686 0.0
H1076 H 0.40385 0.88055 0.37697 0.0
H1077 H 0.40443 0.95662 0.3274 0.0
H1078 H 0.42509 0.95106 0.30816 0.0
H1079 H 0.44146 0.97063 0.32582 0.0
H1080 H 0.4854 0.93455 0.32578 0.0
H1081 H 0.46916 0.91486 0.30813 0.0
H1082 H 0.47838 0.89589 0.32735 0.0
H1083 H 0.37977 0.85374 0.35218 0.0
H1084 H 0.36259 0.83358 0.32453 0.0
H1085 H 0.417 0.89671 0.29842 0.0
C1086 C 0.45456 0.94219 0.35932 0.0
C1087 C 0.45195 0.93857 0.37701 0.0
C1088 C 0.43366 0.91609 0.38331 0.0
C1089 C 0.41794 0.89762 0.37214 0.0
C1090 C 0.42097 0.90185 0.35473 0.0
C1091 C 0.43896 0.92349 0.34837 0.0
C1092 C 0.43887 0.92323 0.32918 0.0
C1093 C 0.42673 0.9521 0.32224 0.0
C1094 C 0.46979 0.91674 0.32221 0.0
C1095 C 0.4179 0.89813 0.32569 0.0
C1096 C 0.40767 0.88612 0.34056 0.0
C1097 C 0.38772 0.8629 0.34046 0.0
C1098 C 0.37807 0.85163 0.32472 0.0
C1099 C 0.38858 0.8635 0.30936 0.0
C1100 C 0.40872 0.88705 0.30994 0.0
H1101 H 0.08775 0.95033 0.61011 0.0
H1102 H 0.14168 0.91528 0.65065 0.0
H1103 H 0.17369 0.89128 0.62924 0.0
H1104 H 0.09058 0.88755 0.58238 0.0
H1105 H 0.09201 0.90904 0.56338 0.0
H1106 H 0.0737 0.92314 0.58196 0.0
H1107 H 0.1068 0.96938 0.58142 0.0
H1108 H 0.12526 0.95541 0.56286 0.0
H1109 H 0.14631 0.96538 0.58153 0.0
H1110 H 0.19941 0.87088 0.603 0.0
H1111 H 0.21719 0.85674 0.57443 0.0
H1112 H 0.14571 0.90562 0.55161 0.0
C1113 C 0.10605 0.93728 0.61454 0.0
C1114 C 0.11206 0.93436 0.63205 0.0
C1115 C 0.13672 0.91779 0.63728 0.0
C1116 C 0.15492 0.90403 0.62523 0.0
C1117 C 0.14818 0.90726 0.60804 0.0
C1118 C 0.12435 0.92357 0.60274 0.0
C1119 C 0.12192 0.92412 0.5836 0.0
C1120 C 0.09283 0.91012 0.57748 0.0
C1121 C 0.12528 0.95543 0.57697 0.0
C1122 C 0.14807 0.90546 0.57887 0.0
C1123 C 0.16298 0.89588 0.5931 0.0
C1124 C 0.1879 0.87829 0.59179 0.0
C1125 C 0.19781 0.87037 0.57552 0.0
C1126 C 0.18284 0.88011 0.5608 0.0
C1127 C 0.15765 0.89784 0.5626 0.0
H1128 H 0.56087 0.39155 0.88964 0.0
H1129 H 0.63078 0.45099 0.87477 0.0
H1130 H 0.66381 0.42882 0.89576 0.0
H1131 H 0.57448 0.39893 0.93318 0.0
H1132 H 0.56563 0.36161 0.93819 0.0
H1133 H 0.54887 0.37849 0.92005 0.0
H1134 H 0.56832 0.33681 0.90061 0.0
H1135 H 0.58513 0.31973 0.91873 0.0
H1136 H 0.60714 0.32861 0.90051 0.0
H1137 H 0.68813 0.4034 0.91999 0.0
H1138 H 0.70107 0.37812 0.94649 0.0
H1139 H 0.61418 0.33826 0.94721 0.0
C1140 C 0.58314 0.39992 0.89065 0.0
C1141 C 0.59307 0.42299 0.88029 0.0
C1142 C 0.62261 0.43288 0.8821 0.0
C1143 C 0.6416 0.42054 0.89412 0.0
C1144 C 0.63078 0.39843 0.90437 0.0
C1145 C 0.60222 0.38826 0.9028 0.0
C1146 C 0.59515 0.36632 0.91645 0.0
C1147 C 0.56953 0.37699 0.92763 0.0
C1148 C 0.58855 0.33607 0.9086 0.0
C1149 C 0.62398 0.36633 0.92621 0.0
C1150 C 0.64443 0.38458 0.91883 0.0
C1151 C 0.67238 0.38888 0.92582 0.0
C1152 C 0.67952 0.37442 0.94087 0.0
C1153 C 0.65862 0.35624 0.94891 0.0
C1154 C 0.63063 0.35196 0.94134 0.0
H1155 H 0.65795 0.09185 0.12757 0.0
H1156 H 0.64922 0.00622 0.15022 0.0
H1157 H 0.66812 0.02596 0.17731 0.0
H1158 H 0.72513 0.11441 0.15129 0.0
H1159 H 0.71294 0.15168 0.15362 0.0
H1160 H 0.70172 0.13029 0.13532 0.0
H1161 H 0.647 0.1408 0.14222 0.0
H1162 H 0.65801 0.16207 0.16057 0.0
H1163 H 0.6329 0.13181 0.16288 0.0
H1164 H 0.68233 0.05529 0.20259 0.0
H1165 H 0.69373 0.09258 0.22451 0.0
H1166 H 0.69432 0.15958 0.18598 0.0
C1167 C 0.66042 0.0772 0.13817 0.0
C1168 C 0.65245 0.04737 0.13665 0.0
C1169 C 0.65586 0.02895 0.15087 0.0
C1170 C 0.6664 0.03999 0.16639 0.0
C1171 C 0.6736 0.0695 0.16752 0.0
C1172 C 0.67104 0.08786 0.1538 0.0
C1173 C 0.6789 0.11905 0.15879 0.0
C1174 C 0.70631 0.12946 0.14918 0.0
C1175 C 0.65263 0.13964 0.15595 0.0
C1176 C 0.68546 0.11538 0.17754 0.0
C1177 C 0.68233 0.08656 0.18225 0.0
C1178 C 0.68532 0.07786 0.19904 0.0
C1179 C 0.69164 0.09921 0.2114 0.0
C1180 C 0.69508 0.12886 0.2069 0.0
C1181 C 0.69225 0.13697 0.18971 0.0
H1182 H 0.95972 0.15825 0.38162 0.0
H1183 H 0.90979 0.08011 0.36844 0.0
H1184 H 0.87385 0.09213 0.3907 0.0
H1185 H 0.95538 0.15062 0.4243 0.0
H1186 H 0.95195 0.18885 0.42969 0.0
H1187 H 0.97002 0.17802 0.41039 0.0
H1188 H 0.93403 0.20994 0.39301 0.0
H1189 H 0.91584 0.22099 0.41233 0.0
H1190 H 0.89486 0.20469 0.39516 0.0
H1191 H 0.84959 0.10643 0.41754 0.0
H1192 H 0.83769 0.1232 0.4466 0.0
H1193 H 0.90222 0.19272 0.44264 0.0
C1194 C 0.94082 0.14405 0.38315 0.0
C1195 C 0.93753 0.11832 0.37318 0.0
C1196 C 0.91254 0.10026 0.37563 0.0
C1197 C 0.892 0.10686 0.3883 0.0
C1198 C 0.89652 0.13178 0.39832 0.0
C1199 C 0.92012 0.15034 0.39577 0.0
C1200 C 0.92183 0.17378 0.40951 0.0
C1201 C 0.95154 0.17272 0.41903 0.0
C1202 C 0.9163 0.20415 0.40205 0.0
C1203 C 0.89657 0.16447 0.42072 0.0
C1204 C 0.88196 0.14047 0.41387 0.0
C1205 C 0.86024 0.1257 0.42282 0.0
C1206 C 0.85371 0.13529 0.43932 0.0
C1207 C 0.86873 0.15949 0.44666 0.0
C1208 C 0.8898 0.17474 0.43707 0.0
H1209 H 0.94347 0.43862 0.63664 0.0
H1210 H 0.86805 0.49085 0.62183 0.0
H1211 H 0.83779 0.46585 0.6432 0.0
H1212 H 0.90371 0.37164 0.64781 0.0
H1213 H 0.92736 0.3651 0.66582 0.0
H1214 H 0.94159 0.38359 0.64752 0.0
H1215 H 0.95802 0.42715 0.66672 0.0
H1216 H 0.94384 0.40887 0.68503 0.0
H1217 H 0.93127 0.4451 0.68005 0.0
H1218 H 0.81689 0.43794 0.66806 0.0
H1219 H 0.80816 0.41169 0.69488 0.0
H1220 H 0.89859 0.38126 0.69445 0.0
C1221 C 0.92056 0.44482 0.63776 0.0
C1222 C 0.90825 0.46679 0.62746 0.0
C1223 C 0.87799 0.47376 0.6293 0.0
C1224 C 0.86061 0.45975 0.64148 0.0
C1225 C 0.87379 0.43885 0.65175 0.0
C1226 C 0.90312 0.43148 0.64999 0.0
C1227 C 0.91291 0.41049 0.66357 0.0
C1228 C 0.92192 0.38095 0.65571 0.0
C1229 C 0.93798 0.42371 0.67449 0.0
C1230 C 0.88473 0.4078 0.67357 0.0
C1231 C 0.8622 0.42379 0.66638 0.0
C1232 C 0.83433 0.42519 0.67372 0.0
C1233 C 0.82956 0.4102 0.68893 0.0
C1234 C 0.85273 0.39456 0.69676 0.0
C1235 C 0.88048 0.39311 0.68879 0.0
H1236 H 0.65019 0.08412 0.37255 0.0
H1237 H 0.60418 0.16521 0.38283 0.0
H1238 H 0.62954 0.18815 0.35864 0.0
H1239 H 0.72057 0.11708 0.35707 0.0
H1240 H 0.72461 0.08902 0.341 0.0
H1241 H 0.70675 0.08076 0.36077 0.0
H1242 H 0.6608 0.06217 0.34415 0.0
H1243 H 0.67835 0.07054 0.3244 0.0
H1244 H 0.64289 0.08603 0.32928 0.0
H1245 H 0.65533 0.20023 0.33144 0.0
H1246 H 0.67845 0.20023 0.30314 0.0
H1247 H 0.70688 0.11075 0.31052 0.0
C1248 C 0.64629 0.10701 0.37007 0.0
C1249 C 0.62557 0.12306 0.37965 0.0
C1250 C 0.62013 0.15264 0.37566 0.0
C1251 C 0.63452 0.16585 0.36201 0.0
C1252 C 0.65426 0.14916 0.35252 0.0
C1253 C 0.66025 0.1204 0.35643 0.0
C1254 C 0.67985 0.10625 0.34321 0.0
C1255 C 0.70972 0.09779 0.35098 0.0
C1256 C 0.66454 0.0797 0.33477 0.0
C1257 C 0.68312 0.13121 0.33094 0.0
C1258 C 0.66866 0.15593 0.33666 0.0
C1259 C 0.6671 0.18114 0.32695 0.0
C1260 C 0.68027 0.18091 0.31086 0.0
C1261 C 0.69454 0.15551 0.30458 0.0
C1262 C 0.69636 0.13061 0.31497 0.0
H1263 H 0.92905 0.13848 0.62078 0.0
H1264 H 0.00136 0.08954 0.59884 0.0
H1265 H 0.99339 0.11388 0.57139 0.0
H1266 H 0.88252 0.13255 0.58522 0.0
H1267 H 0.86684 0.16856 0.58718 0.0
H1268 H 0.88054 0.15037 0.60573 0.0
H1269 H 0.91489 0.1944 0.6124 0.0
H1270 H 0.90125 0.21276 0.59384 0.0
H1271 H 0.94024 0.20677 0.59647 0.0
H1272 H 0.97544 0.13969 0.54609 0.0
H1273 H 0.94723 0.16439 0.52369 0.0
H1274 H 0.88546 0.19646 0.56143 0.0
C1275 C 0.94347 0.13347 0.61023 0.0
C1276 C 0.9659 0.11239 0.61178 0.0
C1277 C 0.98409 0.10572 0.59775 0.0
C1278 C 0.97984 0.11951 0.5822 0.0
C1279 C 0.95725 0.13987 0.58091 0.0
C1280 C 0.93928 0.14686 0.59449 0.0
C1281 C 0.91501 0.1676 0.58918 0.0
C1282 C 0.88443 0.15394 0.59199 0.0
C1283 C 0.91804 0.19714 0.59853 0.0
C1284 C 0.92174 0.17047 0.57044 0.0
C1285 C 0.94647 0.15462 0.56605 0.0
C1286 C 0.95623 0.15247 0.54936 0.0
C1287 C 0.94001 0.16651 0.53673 0.0
C1288 C 0.91421 0.18236 0.54083 0.0
C1289 C 0.9053 0.18478 0.55796 0.0
H1290 H 0.90953 0.47645 0.84151 0.0
H1291 H 0.86107 0.43786 0.88295 0.0
H1292 H 0.83245 0.4078 0.86226 0.0
H1293 H 0.84859 0.47965 0.81184 0.0
H1294 H 0.87128 0.47106 0.79375 0.0
H1295 H 0.88696 0.48994 0.81187 0.0
H1296 H 0.92693 0.44984 0.81442 0.0
H1297 H 0.91134 0.4308 0.79635 0.0
H1298 H 0.91585 0.41215 0.81621 0.0
H1299 H 0.81107 0.38021 0.8368 0.0
H1300 H 0.79718 0.3591 0.80877 0.0
H1301 H 0.85969 0.41682 0.78446 0.0
C1302 C 0.89292 0.46164 0.84624 0.0
C1303 C 0.88757 0.45928 0.86381 0.0
C1304 C 0.86534 0.44004 0.86951 0.0
C1305 C 0.84911 0.42284 0.85787 0.0
C1306 C 0.85527 0.42544 0.84062 0.0
C1307 C 0.8765 0.44454 0.83485 0.0
C1308 C 0.87913 0.44323 0.81574 0.0
C1309 C 0.87099 0.47272 0.80784 0.0
C1310 C 0.91015 0.43341 0.81037 0.0
C1311 C 0.8563 0.42011 0.81161 0.0
C1312 C 0.84274 0.41004 0.82609 0.0
C1313 C 0.82141 0.38808 0.82537 0.0
C1314 C 0.81372 0.37619 0.80943 0.0
C1315 C 0.8273 0.38639 0.79446 0.0
C1316 C 0.84878 0.40868 0.79565 0.0
H1317 H 0.56389 0.4102 0.10353 0.0
H1318 H 0.64095 0.43612 0.13285 0.0
H1319 H 0.67311 0.41262 0.11142 0.0
H1320 H 0.592 0.33988 0.08783 0.0
H1321 H 0.57527 0.34394 0.06719 0.0
H1322 H 0.55841 0.36043 0.0856 0.0
H1323 H 0.55976 0.41085 0.071 0.0
H1324 H 0.57678 0.39458 0.05261 0.0
H1325 H 0.59436 0.42492 0.06343 0.0
H1326 H 0.69671 0.38799 0.08636 0.0
H1327 H 0.71042 0.36525 0.05893 0.0
H1328 H 0.6179 0.35726 0.04535 0.0
C1329 C 0.58751 0.41035 0.10556 0.0
C1330 C 0.60007 0.42461 0.11986 0.0
C1331 C 0.63105 0.42515 0.12196 0.0
C1332 C 0.64941 0.41183 0.1099 0.0
C1333 C 0.63637 0.3983 0.09579 0.0
C1334 C 0.60615 0.39751 0.09354 0.0
C1335 C 0.59783 0.38322 0.07674 0.0
C1336 C 0.57982 0.3552 0.07951 0.0
C1337 C 0.58121 0.40468 0.06527 0.0
C1338 C 0.62811 0.37636 0.06981 0.0
C1339 C 0.65002 0.38494 0.08108 0.0
C1340 C 0.67976 0.3811 0.07744 0.0
C1341 C 0.68732 0.36819 0.06184 0.0
C1342 C 0.66522 0.35958 0.05002 0.0
C1343 C 0.63526 0.3637 0.05412 0.0
loop_
_geom_bond_atom_site_label_1
_geom_bond_atom_site_label_2
_geom_bond_distance
_geom_bond_site_symmetry_2
_ccdc_geom_bond_type
C0 C1 1.384 . S
C0 C2 1.384 . S
C0 H28 0.931 . S
C1 C0 1.384 . S
C1 C4 1.382 1_565 S
C2 C0 1.384 . S
C2 C3 1.381 1_565 S
C2 H29 0.930 . S
C3 C2 1.381 1_545 S
C3 C5 1.381 . S
C3 C6 1.487 . S
C4 C1 1.382 1_545 S
C4 C5 1.387 . S
C4 H30 0.930 . S
C5 C3 1.381 . S
C5 C4 1.387 . S
C5 H31 0.931 . S
C6 C3 1.487 . S
C6 C13 1.399 . S
C6 N44 1.343 . S
C7 C8 1.384 . S
C7 C9 1.384 1_565 S
C7 H32 0.931 . S
C8 C7 1.384 . S
C8 C11 1.382 . S
C9 C7 1.384 1_545 S
C9 C10 1.381 . S
C9 H33 0.930 . S
C10 C9 1.381 . S
C10 C12 1.381 1_545 S
C10 C13 1.487 . S
C11 C8 1.382 . S
C11 C12 1.387 . S
C11 H34 0.930 . S
C12 C10 1.381 1_565 S
C12 C11 1.387 . S
C12 H35 0.931 . S
C13 C6 1.399 . S
C13 C10 1.487 . S
C13 N45 1.343 . S
C14 C15 1.384 . S
C14 C16 1.384 . S
C14 H36 0.931 . S
C15 C14 1.384 . S
C15 C18 1.382 . S
C16 C14 1.384 . S
C16 C17 1.381 . S
C16 H37 0.930 1_655 S
C17 C16 1.381 . S
C17 C19 1.381 . S
C17 C20 1.487 1_655 S
C18 C15 1.382 . S
C18 C19 1.387 . S
C18 H38 0.930 . S
C19 C17 1.381 . S
C19 C18 1.387 . S
C19 H39 0.931 . S
C20 C17 1.487 1_455 S
C20 C27 1.399 . S
C20 N45 1.343 . S
C21 C22 1.384 . S
C21 C23 1.384 . S
C21 H40 0.931 . S
C22 C21 1.384 . S
C22 C25 1.382 . S
C23 C21 1.384 . S
C23 C24 1.381 1_655 S
C23 H41 0.930 . S
C24 C23 1.381 1_455 S
C24 C26 1.381 . S
C24 C27 1.487 . S
C25 C22 1.382 . S
C25 C26 1.387 1_655 S
C25 H42 0.922 1_655 S
C26 C24 1.381 . S
C26 C25 1.387 1_455 S
C26 H43 0.931 . S
C27 C20 1.399 . S
C27 C24 1.487 . S
C27 N44 1.343 . S
H28 C0 0.931 . S
H29 C2 0.930 . S
H30 C4 0.930 . S
H31 C5 0.931 . S
H32 C7 0.931 . S
H33 C9 0.930 . S
H34 C11 0.930 . S
H35 C12 0.931 . S
H36 C14 0.931 . S
H37 C16 0.930 1_455 S
H38 C18 0.930 . S
H39 C19 0.931 . S
H40 C21 0.931 . S
H41 C23 0.930 . S
H42 C25 0.922 1_455 S
H43 C26 0.931 . S
N44 C6 1.343 . S
N44 C27 1.343 . S
N45 C13 1.343 . S
N45 C20 1.343 . S
C46 C47 1.384 . S
C46 C48 1.384 . S
C46 H74 0.931 . S
C47 C46 1.384 . S
C47 C50 1.382 . S
C48 C46 1.384 . S
C48 C49 1.381 . S
C48 H75 0.930 . S
C49 C48 1.381 . S
C49 C51 1.381 . S
C49 C52 1.487 . S
C50 C47 1.382 . S
C50 C51 1.387 . S
C50 H76 0.930 . S
C51 C49 1.381 . S
C51 C50 1.387 . S
C51 H77 0.931 1_655 S
C52 C49 1.487 . S
C52 C59 1.399 . S
C52 N90 1.343 1_655 S
C53 C54 1.384 . S
C53 C55 1.384 . S
C53 H78 0.931 . S
C54 C53 1.384 . S
C54 C57 1.382 . S
C55 C53 1.384 . S
C55 C56 1.381 . S
C55 H79 0.930 . S
C56 C55 1.381 . S
C56 C58 1.381 . S
C56 C59 1.487 . S
C57 C54 1.382 . S
C57 C58 1.387 . S
C57 H80 0.930 . S
C58 C56 1.381 . S
C58 C57 1.387 . S
C58 H81 0.931 . S
C59 C52 1.399 . S
C59 C56 1.487 . S
C59 N91 1.343 1_655 S
C60 C61 1.384 . S
C60 C62 1.384 . S
C60 H82 0.931 . S
C61 C60 1.384 . S
C61 C64 1.382 . S
C62 C60 1.384 . S
C62 C63 1.381 . S
C62 H83 0.930 . S
C63 C62 1.381 . S
C63 C65 1.381 . S
C63 C66 1.487 . S
C64 C61 1.382 . S
C64 C65 1.387 . S
C64 H84 0.930 . S
C65 C63 1.381 . S
C65 C64 1.387 . S
C65 H85 0.931 . S
C66 C63 1.487 . S
C66 C73 1.399 . S
C66 N91 1.343 . S
C67 C68 1.384 . S
C67 C69 1.384 . S
C67 H86 0.931 . S
C68 C67 1.384 . S
C68 C71 1.382 . S
C69 C67 1.384 . S
C69 C70 1.381 . S
C69 H87 0.930 . S
C70 C69 1.381 . S
C70 C72 1.381 . S
C70 C73 1.487 . S
C71 C68 1.382 . S
C71 C72 1.387 . S
C71 H88 0.930 . S
C72 C70 1.381 . S
C72 C71 1.387 . S
C72 H89 0.931 . S
C73 C66 1.399 . S
C73 C70 1.487 . S
C73 N90 1.343 . S
H74 C46 0.931 . S
H75 C48 0.930 . S
H76 C50 0.930 . S
H77 C51 0.931 1_455 S
H78 C53 0.931 . S
H79 C55 0.930 . S
H80 C57 0.930 . S
H81 C58 0.931 . S
H82 C60 0.931 . S
H83 C62 0.930 . S
H84 C64 0.930 . S
H85 C65 0.931 . S
H86 C67 0.931 . S
H87 C69 0.930 . S
H88 C71 0.930 . S
H89 C72 0.931 . S
N90 C52 1.343 1_455 S
N90 C73 1.343 . S
N91 C59 1.343 1_455 S
N91 C66 1.343 . S
C92 C93 1.384 . S
C92 C94 1.384 . S
C92 H120 0.931 . S
C93 C92 1.384 . S
C93 C96 1.382 . S
C94 C92 1.384 . S
C94 C95 1.381 . S
C94 H121 0.930 . S
C95 C94 1.381 . S
C95 C97 1.381 . S
C95 C98 1.487 . S
C96 C93 1.382 . S
C96 C97 1.387 . S
C96 H122 0.930 . S
C97 C95 1.381 . S
C97 C96 1.387 . S
C97 H123 0.931 . S
C98 C95 1.487 . S
C98 C105 1.399 . S
C98 N136 1.343 . S
C99 C100 1.384 . S
C99 C101 1.384 . S
C99 H124 0.931 . S
C100 C99 1.384 . S
C100 C103 1.382 . S
C101 C99 1.384 . S
C101 C102 1.381 . S
C101 H125 0.930 . S
C102 C101 1.381 . S
C102 C104 1.381 . S
C102 C105 1.487 . S
C103 C100 1.382 . S
C103 C104 1.387 . S
C103 H126 0.930 . S
C104 C102 1.381 . S
C104 C103 1.387 . S
C104 H127 0.931 . S
C105 C98 1.399 . S
C105 C102 1.487 . S
C105 N137 1.343 . S
C106 C107 1.384 . S
C106 C108 1.384 . S
C106 H128 0.931 . S
C107 C106 1.384 . S
C107 C110 1.382 . S
C108 C106 1.384 . S
C108 C109 1.381 . S
C108 H129 0.930 . S
C109 C108 1.381 . S
C109 C111 1.381 . S
C109 C112 1.487 . S
C110 C107 1.382 . S
C110 C111 1.387 . S
C110 H130 0.930 . S
C111 C109 1.381 . S
C111 C110 1.387 . S
C111 H131 0.931 . S
C112 C109 1.487 . S
C112 C119 1.399 . S
C112 N137 1.343 . S
C113 C114 1.384 . S
C113 C115 1.384 . S
C113 H132 0.931 . S
C114 C113 1.384 . S
C114 C117 1.382 . S
C115 C113 1.384 . S
C115 C116 1.381 . S
C115 H133 0.930 . S
C116 C115 1.381 . S
C116 C118 1.381 . S
C116 C119 1.487 . S
C117 C114 1.382 . S
C117 C118 1.387 . S
C117 H134 0.930 . S
C118 C116 1.381 . S
C118 C117 1.387 . S
C118 H135 0.931 . S
C119 C112 1.399 . S
C119 C116 1.487 . S
C119 N136 1.343 . S
H120 C92 0.931 . S
H121 C94 0.930 . S
H122 C96 0.930 . S
H123 C97 0.931 . S
H124 C99 0.931 . S
H125 C101 0.930 . S
H126 C103 0.930 . S
H127 C104 0.931 . S
H128 C106 0.931 . S
H129 C108 0.930 . S
H130 C110 0.930 . S
H131 C111 0.931 . S
H132 C113 0.931 . S
H133 C115 0.930 . S
H134 C117 0.930 . S
H135 C118 0.931 . S
N136 C98 1.343 . S
N136 C119 1.343 . S
N137 C105 1.343 . S
N137 C112 1.343 . S
C138 C139 1.384 . S
C138 C140 1.384 . S
C138 H166 0.931 . S
C139 C138 1.384 . S
C139 C142 1.382 . S
C140 C138 1.384 . S
C140 C141 1.381 . S
C140 H167 0.930 . S
C141 C140 1.381 . S
C141 C143 1.381 . S
C141 C144 1.487 . S
C142 C139 1.382 . S
C142 C143 1.387 . S
C142 H168 0.930 . S
C143 C141 1.381 . S
C143 C142 1.387 . S
C143 H169 0.931 . S
C144 C141 1.487 . S
C144 C151 1.399 . S
C144 N182 1.343 1_565 S
C145 C146 1.384 . S
C145 C147 1.384 . S
C145 H170 0.931 . S
C146 C145 1.384 . S
C146 C149 1.382 . S
C147 C145 1.384 . S
C147 C148 1.381 . S
C147 H171 0.930 . S
C148 C147 1.381 . S
C148 C150 1.381 . S
C148 C151 1.487 . S
C149 C146 1.382 . S
C149 C150 1.387 . S
C149 H172 0.930 . S
C150 C148 1.381 . S
C150 C149 1.387 . S
C150 H173 0.931 . S
C151 C144 1.399 . S
C151 C148 1.487 . S
C151 N183 1.343 . S
C152 C153 1.384 . S
C152 C154 1.384 . S
C152 H174 0.931 . S
C153 C152 1.384 . S
C153 C156 1.382 . S
C154 C152 1.384 . S
C154 C155 1.381 . S
C154 H175 0.930 . S
C155 C154 1.381 . S
C155 C157 1.381 . S
C155 C158 1.487 . S
C156 C153 1.382 . S
C156 C157 1.387 . S
C156 H176 0.930 . S
C157 C155 1.381 . S
C157 C156 1.387 . S
C157 H177 0.931 . S
C158 C155 1.487 . S
C158 C165 1.399 . S
C158 N183 1.343 1_545 S
C159 C160 1.384 . S
C159 C161 1.384 . S
C159 H178 0.931 . S
C160 C159 1.384 . S
C160 C163 1.382 . S
C161 C159 1.384 . S
C161 C162 1.381 . S
C161 H179 0.930 . S
C162 C161 1.381 . S
C162 C164 1.381 . S
C162 C165 1.487 . S
C163 C160 1.382 . S
C163 C164 1.387 . S
C163 H180 0.930 . S
C164 C162 1.381 . S
C164 C163 1.387 . S
C164 H181 0.931 . S
C165 C158 1.399 . S
C165 C162 1.487 . S
C165 N182 1.343 . S
H166 C138 0.931 . S
H167 C140 0.930 . S
H168 C142 0.930 . S
H169 C143 0.931 . S
H170 C145 0.931 . S
H171 C147 0.930 . S
H172 C149 0.930 . S
H173 C150 0.931 . S
H174 C152 0.931 . S
H175 C154 0.930 . S
H176 C156 0.930 . S
H177 C157 0.931 . S
H178 C159 0.931 . S
H179 C161 0.930 . S
H180 C163 0.930 . S
H181 C164 0.931 . S
N182 C144 1.343 1_545 S
N182 C165 1.343 . S
N183 C151 1.343 . S
N183 C158 1.343 1_565 S
C184 C185 1.384 . S
C184 C186 1.384 . S
C184 H212 0.931 . S
C185 C184 1.384 . S
C185 C188 1.382 . S
C186 C184 1.384 . S
C186 C187 1.381 . S
C186 H213 0.930 . S
C187 C186 1.381 . S
C187 C189 1.381 . S
C187 C190 1.487 . S
C188 C185 1.382 . S
C188 C189 1.387 . S
C188 H214 0.930 . S
C189 C187 1.381 . S
C189 C188 1.387 . S
C189 H215 0.931 . S
C190 C187 1.487 . S
C190 C197 1.399 . S
C190 N228 1.343 . S
C191 C192 1.384 . S
C191 C193 1.384 . S
C191 H216 0.931 . S
C192 C191 1.384 . S
C192 C195 1.382 . S
C193 C191 1.384 . S
C193 C194 1.381 . S
C193 H217 0.930 . S
C194 C193 1.381 . S
C194 C196 1.381 . S
C194 C197 1.487 . S
C195 C192 1.382 . S
C195 C196 1.387 . S
C195 H218 0.930 . S
C196 C194 1.381 . S
C196 C195 1.387 . S
C196 H219 0.931 . S
C197 C190 1.399 . S
C197 C194 1.487 . S
C197 N229 1.343 1_455 S
C198 C199 1.384 . S
C198 C200 1.384 . S
C198 H220 0.931 . S
C199 C198 1.384 . S
C199 C202 1.382 . S
C200 C198 1.384 . S
C200 C201 1.381 . S
C200 H221 0.930 . S
C201 C200 1.381 . S
C201 C203 1.381 . S
C201 C204 1.487 . S
C202 C199 1.382 . S
C202 C203 1.387 . S
C202 H222 0.930 . S
C203 C201 1.381 . S
C203 C202 1.387 . S
C203 H223 0.931 . S
C204 C201 1.487 . S
C204 C211 1.399 . S
C204 N229 1.343 . S
C205 C206 1.384 . S
C205 C207 1.384 . S
C205 H224 0.931 . S
C206 C205 1.384 . S
C206 C209 1.382 . S
C207 C205 1.384 . S
C207 C208 1.381 . S
C207 H225 0.930 . S
C208 C207 1.381 . S
C208 C210 1.381 . S
C208 C211 1.487 . S
C209 C206 1.382 . S
C209 C210 1.387 . S
C209 H226 0.930 . S
C210 C208 1.381 . S
C210 C209 1.387 . S
C210 H227 0.931 . S
C211 C204 1.399 . S
C211 C208 1.487 . S
C211 N228 1.343 1_655 S
H212 C184 0.931 . S
H213 C186 0.930 . S
H214 C188 0.930 . S
H215 C189 0.931 . S
H216 C191 0.931 . S
H217 C193 0.930 . S
H218 C195 0.930 . S
H219 C196 0.931 . S
H220 C198 0.931 . S
H221 C200 0.930 . S
H222 C202 0.930 . S
H223 C203 0.931 . S
H224 C205 0.931 . S
H225 C207 0.930 . S
H226 C209 0.930 . S
H227 C210 0.931 . S
N228 C190 1.343 . S
N228 C211 1.343 1_455 S
N229 C197 1.343 1_655 S
N229 C204 1.343 . S
C230 C231 1.384 . S
C230 C232 1.384 . S
C230 H258 0.931 . S
C231 C230 1.384 . S
C231 C234 1.382 . S
C232 C230 1.384 . S
C232 C233 1.381 . S
C232 H259 0.930 . S
C233 C232 1.381 . S
C233 C235 1.381 . S
C233 C236 1.487 . S
C234 C231 1.382 . S
C234 C235 1.387 . S
C234 H260 0.930 . S
C235 C233 1.381 . S
C235 C234 1.387 . S
C235 H261 0.931 . S
C236 C233 1.487 . S
C236 C243 1.399 . S
C236 N274 1.343 . S
C237 C238 1.384 . S
C237 C239 1.384 . S
C237 H262 0.931 . S
C238 C237 1.384 . S
C238 C241 1.382 . S
C239 C237 1.384 . S
C239 C240 1.381 . S
C239 H263 0.930 . S
C240 C239 1.381 . S
C240 C242 1.381 . S
C240 C243 1.487 . S
C241 C238 1.382 . S
C241 C242 1.387 . S
C241 H264 0.930 . S
C242 C240 1.381 . S
C242 C241 1.387 . S
C242 H265 0.931 . S
C243 C236 1.399 . S
C243 C240 1.487 . S
C243 N275 1.343 . S
C244 C245 1.384 . S
C244 C246 1.384 . S
C244 H266 0.931 . S
C245 C244 1.384 . S
C245 C248 1.382 . S
C246 C244 1.384 . S
C246 C247 1.381 . S
C246 H267 0.930 . S
C247 C246 1.381 . S
C247 C249 1.381 . S
C247 C250 1.487 . S
C248 C245 1.382 . S
C248 C249 1.387 . S
C248 H268 0.930 . S
C249 C247 1.381 . S
C249 C248 1.387 . S
C249 H269 0.931 . S
C250 C247 1.487 . S
C250 C257 1.399 . S
C250 N275 1.343 . S
C251 C252 1.384 . S
C251 C253 1.384 . S
C251 H270 0.931 . S
C252 C251 1.384 . S
C252 C255 1.382 . S
C253 C251 1.384 . S
C253 C254 1.381 . S
C253 H271 0.930 . S
C254 C253 1.381 . S
C254 C256 1.381 . S
C254 C257 1.487 . S
C255 C252 1.382 . S
C255 C256 1.387 . S
C255 H272 0.930 . S
C256 C254 1.381 . S
C256 C255 1.387 . S
C256 H273 0.931 . S
C257 C250 1.399 . S
C257 C254 1.487 . S
C257 N274 1.343 . S
H258 C230 0.931 . S
H259 C232 0.930 . S
H260 C234 0.930 . S
H261 C235 0.931 . S
H262 C237 0.931 . S
H263 C239 0.930 . S
H264 C241 0.930 . S
H265 C242 0.931 . S
H266 C244 0.931 . S
H267 C246 0.930 . S
H268 C248 0.930 . S
H269 C249 0.931 . S
H270 C251 0.931 . S
H271 C253 0.930 . S
H272 C255 0.930 . S
H273 C256 0.931 . S
N274 C236 1.343 . S
N274 C257 1.343 . S
N275 C243 1.343 . S
N275 C250 1.343 . S
C276 C277 1.384 . S
C276 C278 1.384 . S
C276 H304 0.931 . S
C277 C276 1.384 . S
C277 C280 1.382 . S
C278 C276 1.384 . S
C278 C279 1.381 . S
C278 H305 0.930 . S
C279 C278 1.381 . S
C279 C281 1.381 . S
C279 C282 1.487 . S
C280 C277 1.382 . S
C280 C281 1.387 . S
C280 H306 0.930 . S
C281 C279 1.381 . S
C281 C280 1.387 . S
C281 H307 0.931 1_565 S
C282 C279 1.487 . S
C282 C289 1.399 . S
C282 N320 1.343 1_565 S
C283 C284 1.384 . S
C283 C285 1.384 . S
C283 H308 0.931 . S
C284 C283 1.384 . S
C284 C287 1.382 . S
C285 C283 1.384 . S
C285 C286 1.381 . S
C285 H309 0.930 . S
C286 C285 1.381 . S
C286 C288 1.381 . S
C286 C289 1.487 . S
C287 C284 1.382 . S
C287 C288 1.387 . S
C287 H310 0.930 . S
C288 C286 1.381 . S
C288 C287 1.387 . S
C288 H311 0.931 . S
C289 C282 1.399 . S
C289 C286 1.487 . S
C289 N321 1.343 1_565 S
C290 C291 1.384 . S
C290 C292 1.384 . S
C290 H312 0.931 . S
C291 C290 1.384 . S
C291 C294 1.382 . S
C292 C290 1.384 . S
C292 C293 1.381 . S
C292 H313 0.930 . S
C293 C292 1.381 . S
C293 C295 1.381 . S
C293 C296 1.487 . S
C294 C291 1.382 . S
C294 C295 1.387 . S
C294 H314 0.930 . S
C295 C293 1.381 . S
C295 C294 1.387 . S
C295 H315 0.931 . S
C296 C293 1.487 . S
C296 C303 1.399 . S
C296 N321 1.343 . S
C297 C298 1.384 . S
C297 C299 1.384 . S
C297 H316 0.931 . S
C298 C297 1.384 . S
C298 C301 1.382 . S
C299 C297 1.384 . S
C299 C300 1.381 . S
C299 H317 0.930 . S
C300 C299 1.381 . S
C300 C302 1.381 . S
C300 C303 1.487 . S
C301 C298 1.382 . S
C301 C302 1.387 . S
C301 H318 0.930 . S
C302 C300 1.381 . S
C302 C301 1.387 . S
C302 H319 0.931 . S
C303 C296 1.399 . S
C303 C300 1.487 . S
C303 N320 1.343 . S
H304 C276 0.931 . S
H305 C278 0.930 . S
H306 C280 0.930 . S
H307 C281 0.931 1_545 S
H308 C283 0.931 . S
H309 C285 0.930 . S
H310 C287 0.930 . S
H311 C288 0.931 . S
H312 C290 0.931 . S
H313 C292 0.930 . S
H314 C294 0.930 . S
H315 C295 0.931 . S
H316 C297 0.931 . S
H317 C299 0.930 . S
H318 C301 0.930 . S
H319 C302 0.931 . S
N320 C282 1.343 1_545 S
N320 C303 1.343 . S
N321 C289 1.343 1_545 S
N321 C296 1.343 . S
C322 C323 1.384 . S
C322 C324 1.384 1_565 S
C322 H350 0.931 . S
C323 C322 1.384 . S
C323 C326 1.382 . S
C324 C322 1.384 1_545 S
C324 C325 1.381 . S
C324 H351 0.930 . S
C325 C324 1.381 . S
C325 C327 1.380 . S
C325 C328 1.487 . S
C326 C323 1.382 . S
C326 C327 1.389 1_565 S
C326 H352 0.930 . S
C327 C325 1.380 . S
C327 C326 1.389 1_545 S
C327 H353 0.931 . S
C328 C325 1.487 . S
C328 C335 1.399 . S
C328 N366 1.343 . S
C329 C330 1.384 . S
C329 C331 1.384 . S
C329 H354 0.931 . S
C330 C329 1.384 . S
C330 C333 1.382 1_565 S
C331 C329 1.384 . S
C331 C332 1.381 1_565 S
C331 H355 0.930 . S
C332 C331 1.381 1_545 S
C332 C334 1.381 . S
C332 C335 1.487 . S
C333 C330 1.382 1_545 S
C333 C334 1.387 . S
C333 H356 0.930 . S
C334 C332 1.381 . S
C334 C333 1.387 . S
C334 H357 0.931 . S
C335 C328 1.399 . S
C335 C332 1.487 . S
C335 N367 1.343 . S
C336 C337 1.384 . S
C336 C338 1.384 . S
C336 H358 0.931 . S
C337 C336 1.384 . S
C337 C340 1.382 1_655 S
C338 C336 1.384 . S
C338 C339 1.381 1_655 S
C338 H359 0.930 . S
C339 C338 1.381 1_455 S
C339 C341 1.381 . S
C339 C342 1.487 . S
C340 C337 1.382 1_455 S
C340 C341 1.387 . S
C340 H360 0.930 . S
C341 C339 1.381 . S
C341 C340 1.387 . S
C341 H361 0.931 . S
C342 C339 1.487 . S
C342 C349 1.399 . S
C342 N367 1.343 . S
C343 C344 1.384 1_455 S
C343 C345 1.384 . S
C343 H362 0.931 . S
C344 C343 1.384 1_655 S
C344 C347 1.382 . S
C345 C343 1.384 . S
C345 C346 1.381 . S
C345 H363 0.930 . S
C346 C345 1.381 . S
C346 C348 1.381 1_455 S
C346 C349 1.487 . S
C347 C344 1.382 . S
C347 C348 1.387 . S
C347 H364 0.930 . S
C348 C346 1.381 1_655 S
C348 C347 1.387 . S
C348 H365 0.931 . S
C349 C342 1.399 . S
C349 C346 1.487 . S
C349 N366 1.343 . S
H350 C322 0.931 . S
H351 C324 0.930 . S
H352 C326 0.930 . S
H353 C327 0.931 . S
H354 C329 0.931 . S
H355 C331 0.930 . S
H356 C333 0.930 . S
H357 C334 0.931 . S
H358 C336 0.931 . S
H359 C338 0.930 . S
H360 C340 0.930 . S
H361 C341 0.931 . S
H362 C343 0.931 . S
H363 C345 0.930 . S
H364 C347 0.930 . S
H365 C348 0.931 . S
N366 C328 1.343 . S
N366 C349 1.343 . S
N367 C335 1.343 . S
N367 C342 1.343 . S
C368 O369 1.306 . S
C368 O371 1.160 . S
O369 C368 1.306 . S
O369 Cd370 2.228 . S
Cd370 O369 2.228 . S
Cd370 O374 2.273 1_554 S
Cd370 O378 2.277 . S
O371 C368 1.160 . S
O371 Cd372 2.203 . S
Cd372 O371 2.203 . S
Cd372 O374 2.411 1_554 S
Cd372 O375 2.333 1_554 S
Cd372 O376 2.352 . S
Cd372 O380 2.277 . S
Cd372 O381 2.356 . S
C373 O378 1.209 . S
C373 O380 1.226 . S
O374 Cd370 2.273 1_556 S
O374 Cd372 2.411 1_556 S
O374 C377 1.320 . S
O375 Cd372 2.333 1_556 S
O375 C377 1.214 . S
O376 Cd372 2.352 . S
O376 C379 1.258 . S
C377 O374 1.320 . S
C377 O375 1.214 . S
O378 Cd370 2.277 . S
O378 C373 1.209 . S
C379 O376 1.258 . S
C379 O381 1.282 . S
O380 Cd372 2.277 . S
O380 C373 1.226 . S
O381 Cd372 2.356 . S
O381 C379 1.282 . S
C382 O383 1.306 . S
C382 O385 1.160 . S
O383 C382 1.306 . S
O383 Cd384 2.228 . S
Cd384 O383 2.228 . S
Cd384 O388 2.273 . S
Cd384 O392 2.277 . S
O385 C382 1.160 . S
O385 Cd386 2.203 . S
Cd386 O385 2.203 . S
Cd386 O388 2.411 . S
Cd386 O389 2.333 . S
Cd386 O390 2.352 . S
Cd386 O394 2.277 . S
Cd386 O395 2.356 . S
C387 O392 1.209 . S
C387 O394 1.226 . S
O388 Cd384 2.273 . S
O388 Cd386 2.411 . S
O388 C391 1.320 . S
O389 Cd386 2.333 . S
O389 C391 1.214 . S
O390 Cd386 2.352 . S
O390 C393 1.258 . S
C391 O388 1.320 . S
C391 O389 1.214 . S
O392 Cd384 2.277 . S
O392 C387 1.209 . S
C393 O390 1.258 . S
C393 O395 1.282 . S
O394 Cd386 2.277 . S
O394 C387 1.226 . S
O395 Cd386 2.356 . S
O395 C393 1.282 . S
C396 O397 1.306 . S
C396 O399 1.160 . S
O397 C396 1.306 . S
O397 Cd398 2.228 . S
Cd398 O397 2.228 . S
Cd398 O402 2.273 . S
Cd398 O406 2.277 . S
O399 C396 1.160 . S
O399 Cd400 2.203 . S
Cd400 O399 2.203 . S
Cd400 O402 2.411 . S
Cd400 O403 2.333 . S
Cd400 O404 2.352 . S
Cd400 O408 2.277 . S
Cd400 O409 2.356 . S
C401 O406 1.209 . S
C401 O408 1.226 . S
O402 Cd398 2.273 . S
O402 Cd400 2.411 . S
O402 C405 1.320 . S
O403 Cd400 2.333 . S
O403 C405 1.214 . S
O404 Cd400 2.352 . S
O404 C407 1.258 . S
C405 O402 1.320 . S
C405 O403 1.214 . S
O406 Cd398 2.277 . S
O406 C401 1.209 . S
C407 O404 1.258 . S
C407 O409 1.282 . S
O408 Cd400 2.277 . S
O408 C401 1.226 . S
O409 Cd400 2.356 . S
O409 C407 1.282 . S
C410 O411 1.306 . S
C410 O413 1.160 . S
O411 C410 1.306 . S
O411 Cd412 2.228 . S
Cd412 O411 2.228 . S
Cd412 O416 2.273 . S
Cd412 O420 2.277 . S
O413 C410 1.160 . S
O413 Cd414 2.203 . S
Cd414 O413 2.203 . S
Cd414 O416 2.411 . S
Cd414 O417 2.333 . S
Cd414 O418 2.352 . S
Cd414 O422 2.277 . S
Cd414 O423 2.356 . S
C415 O420 1.209 . S
C415 O422 1.226 . S
O416 Cd412 2.273 . S
O416 Cd414 2.411 . S
O416 C419 1.320 . S
O417 Cd414 2.333 . S
O417 C419 1.214 . S
O418 Cd414 2.352 . S
O418 C421 1.258 . S
C419 O416 1.320 . S
C419 O417 1.214 . S
O420 Cd412 2.277 . S
O420 C415 1.209 . S
C421 O418 1.258 . S
C421 O423 1.282 . S
O422 Cd414 2.277 . S
O422 C415 1.226 . S
O423 Cd414 2.356 . S
O423 C421 1.282 . S
C424 O425 1.306 . S
C424 O427 1.160 . S
O425 C424 1.306 . S
O425 Cd426 2.228 . S
Cd426 O425 2.228 . S
Cd426 O430 2.273 . S
Cd426 O434 2.277 . S
O427 C424 1.160 . S
O427 Cd428 2.203 . S
Cd428 O427 2.203 . S
Cd428 O430 2.411 . S
Cd428 O431 2.333 . S
Cd428 O432 2.352 . S
Cd428 O436 2.277 . S
Cd428 O437 2.356 . S
C429 O434 1.209 . S
C429 O436 1.226 . S
O430 Cd426 2.273 . S
O430 Cd428 2.411 . S
O430 C433 1.320 . S
O431 Cd428 2.333 . S
O431 C433 1.214 . S
O432 Cd428 2.352 . S
O432 C435 1.258 . S
C433 O430 1.320 . S
C433 O431 1.214 . S
O434 Cd426 2.277 . S
O434 C429 1.209 . S
C435 O432 1.258 . S
C435 O437 1.282 . S
O436 Cd428 2.277 . S
O436 C429 1.226 . S
O437 Cd428 2.356 . S
O437 C435 1.282 . S
C438 O439 1.306 . S
C438 O441 1.160 . S
O439 C438 1.306 . S
O439 Cd440 2.228 . S
Cd440 O439 2.228 . S
Cd440 O444 2.273 . S
Cd440 O448 2.277 . S
O441 C438 1.160 . S
O441 Cd442 2.203 . S
Cd442 O441 2.203 . S
Cd442 O444 2.411 . S
Cd442 O445 2.333 . S
Cd442 O446 2.352 . S
Cd442 O450 2.277 . S
Cd442 O451 2.356 . S
C443 O448 1.209 . S
C443 O450 1.226 . S
O444 Cd440 2.273 . S
O444 Cd442 2.411 . S
O444 C447 1.320 . S
O445 Cd442 2.333 . S
O445 C447 1.214 . S
O446 Cd442 2.352 . S
O446 C449 1.258 . S
C447 O444 1.320 . S
C447 O445 1.214 . S
O448 Cd440 2.277 . S
O448 C443 1.209 . S
C449 O446 1.258 . S
C449 O451 1.282 . S
O450 Cd442 2.277 . S
O450 C443 1.226 . S
O451 Cd442 2.356 . S
O451 C449 1.282 . S
C452 O453 1.306 . S
C452 O455 1.160 . S
O453 C452 1.306 . S
O453 Cd454 2.271 . S
Cd454 O453 2.271 . S
Cd454 O458 2.237 1_556 S
Cd454 O462 2.284 . S
O455 C452 1.160 . S
O455 Cd456 2.203 1_556 S
Cd456 O455 2.203 1_554 S
Cd456 O458 2.411 . S
Cd456 O459 2.333 . S
Cd456 O460 2.352 . S
Cd456 O464 2.277 1_554 S
Cd456 O465 2.356 . S
C457 O462 1.209 . S
C457 O464 1.226 . S
O458 Cd454 2.237 1_554 S
O458 Cd456 2.411 . S
O458 C461 1.320 . S
O459 Cd456 2.333 . S
O459 C461 1.214 . S
O460 Cd456 2.352 . S
O460 C463 1.258 . S
C461 O458 1.320 . S
C461 O459 1.214 . S
O462 Cd454 2.284 . S
O462 C457 1.209 . S
C463 O460 1.258 . S
C463 O465 1.282 . S
O464 Cd456 2.277 1_556 S
O464 C457 1.226 . S
O465 Cd456 2.356 . S
O465 C463 1.282 . S
C466 O467 1.306 . S
C466 O469 1.160 . S
O467 C466 1.306 . S
O467 Cd468 2.228 . S
Cd468 O467 2.228 . S
Cd468 O472 2.273 . S
Cd468 O476 2.277 . S
O469 C466 1.160 . S
O469 Cd470 2.203 . S
Cd470 O469 2.203 . S
Cd470 O472 2.411 . S
Cd470 O473 2.333 . S
Cd470 O474 2.352 . S
Cd470 O478 2.277 . S
Cd470 O479 2.356 . S
C471 O476 1.209 . S
C471 O478 1.226 . S
O472 Cd468 2.273 . S
O472 Cd470 2.411 . S
O472 C475 1.320 . S
O473 Cd470 2.333 . S
O473 C475 1.214 . S
O474 Cd470 2.352 . S
O474 C477 1.258 . S
C475 O472 1.320 . S
C475 O473 1.214 . S
O476 Cd468 2.277 . S
O476 C471 1.209 . S
C477 O474 1.258 . S
C477 O479 1.282 . S
O478 Cd470 2.277 . S
O478 C471 1.226 . S
O479 Cd470 2.356 . S
O479 C477 1.282 . S
H480 C492 0.930 . S
H481 C494 0.930 . S
H482 C495 0.930 . S
H483 C499 0.959 . S
H484 C499 0.959 . S
H485 C499 0.961 . S
H486 C500 0.960 . S
H487 C500 0.961 . S
H488 C500 0.959 . S
H489 C503 0.929 . S
H490 C504 0.931 . S
H491 C506 0.930 . S
C492 H480 0.930 . S
C492 C493 1.399 . S
C492 C497 1.399 . S
C493 C492 1.399 . S
C493 C494 1.376 . S
C494 H481 0.930 . S
C494 C493 1.376 . S
C494 C495 1.388 . S
C495 H482 0.930 . S
C495 C494 1.388 . S
C495 C496 1.390 . S
C496 C495 1.390 . S
C496 C497 1.394 . S
C496 C502 1.465 . S
C497 C492 1.399 . S
C497 C496 1.394 . S
C497 C498 1.516 . S
C498 C497 1.516 . S
C498 C499 1.502 . S
C498 C500 1.561 . S
C498 C501 1.526 . S
C499 H483 0.959 . S
C499 H484 0.959 . S
C499 H485 0.961 . S
C499 C498 1.502 . S
C500 H486 0.960 . S
C500 H487 0.961 . S
C500 H488 0.959 . S
C500 C498 1.561 . S
C501 C498 1.526 . S
C501 C502 1.396 . S
C501 C506 1.390 . S
C502 C496 1.465 . S
C502 C501 1.396 . S
C502 C503 1.399 . S
C503 H489 0.929 . S
C503 C502 1.399 . S
C503 C504 1.385 . S
C504 H490 0.931 . S
C504 C503 1.385 . S
C504 C505 1.389 . S
C505 C504 1.389 . S
C505 C506 1.387 . S
C506 H491 0.930 . S
C506 C501 1.390 . S
C506 C505 1.387 . S
H507 C519 0.930 . S
H508 C521 0.930 . S
H509 C522 0.930 . S
H510 C526 0.959 . S
H511 C526 0.959 . S
H512 C526 0.961 . S
H513 C527 0.960 . S
H514 C527 0.961 . S
H515 C527 0.959 . S
H516 C530 0.929 . S
H517 C531 0.931 . S
H518 C533 0.930 . S
C519 H507 0.930 . S
C519 C520 1.399 . S
C519 C524 1.399 . S
C520 C519 1.399 . S
C520 C521 1.376 . S
C521 H508 0.930 . S
C521 C520 1.376 . S
C521 C522 1.388 . S
C522 H509 0.930 . S
C522 C521 1.388 . S
C522 C523 1.390 . S
C523 C522 1.390 . S
C523 C524 1.394 . S
C523 C529 1.465 . S
C524 C519 1.399 . S
C524 C523 1.394 . S
C524 C525 1.516 . S
C525 C524 1.516 . S
C525 C526 1.502 . S
C525 C527 1.561 . S
C525 C528 1.526 . S
C526 H510 0.959 . S
C526 H511 0.959 . S
C526 H512 0.961 . S
C526 C525 1.502 . S
C527 H513 0.960 . S
C527 H514 0.961 . S
C527 H515 0.959 . S
C527 C525 1.561 . S
C528 C525 1.526 . S
C528 C529 1.396 . S
C528 C533 1.390 . S
C529 C523 1.465 . S
C529 C528 1.396 . S
C529 C530 1.399 . S
C530 H516 0.929 . S
C530 C529 1.399 . S
C530 C531 1.385 . S
C531 H517 0.931 . S
C531 C530 1.385 . S
C531 C532 1.389 . S
C532 C531 1.389 . S
C532 C533 1.387 . S
C533 H518 0.930 . S
C533 C528 1.390 . S
C533 C532 1.387 . S
H534 C546 0.930 . S
H535 C548 0.930 . S
H536 C549 0.930 . S
H537 C553 0.959 . S
H538 C553 0.959 . S
H539 C553 0.961 . S
H540 C554 0.960 . S
H541 C554 0.961 . S
H542 C554 0.959 . S
H543 C557 0.929 . S
H544 C558 0.931 . S
H545 C560 0.930 . S
C546 H534 0.930 . S
C546 C547 1.399 . S
C546 C551 1.399 . S
C547 C546 1.399 . S
C547 C548 1.376 . S
C548 H535 0.930 . S
C548 C547 1.376 . S
C548 C549 1.388 . S
C549 H536 0.930 . S
C549 C548 1.388 . S
C549 C550 1.390 . S
C550 C549 1.390 . S
C550 C551 1.394 . S
C550 C556 1.465 . S
C551 C546 1.399 . S
C551 C550 1.394 . S
C551 C552 1.516 . S
C552 C551 1.516 . S
C552 C553 1.502 . S
C552 C554 1.561 . S
C552 C555 1.526 . S
C553 H537 0.959 . S
C553 H538 0.959 . S
C553 H539 0.961 . S
C553 C552 1.502 . S
C554 H540 0.960 . S
C554 H541 0.961 . S
C554 H542 0.959 . S
C554 C552 1.561 . S
C555 C552 1.526 . S
C555 C556 1.396 . S
C555 C560 1.390 . S
C556 C550 1.465 . S
C556 C555 1.396 . S
C556 C557 1.399 . S
C557 H543 0.929 . S
C557 C556 1.399 . S
C557 C558 1.385 . S
C558 H544 0.931 . S
C558 C557 1.385 . S
C558 C559 1.389 . S
C559 C558 1.389 . S
C559 C560 1.387 . S
C560 H545 0.930 . S
C560 C555 1.390 . S
C560 C559 1.387 . S
H561 C573 0.930 . S
H562 C575 0.930 . S
H563 C576 0.892 1_556 S
H564 C580 0.959 . S
H565 C580 0.959 . S
H566 C580 0.961 . S
H567 C581 0.960 . S
H568 C581 0.961 . S
H569 C581 0.959 . S
H570 C584 0.929 1_556 S
H571 C585 0.931 1_556 S
H572 C587 0.930 . S
C573 H561 0.930 . S
C573 C574 1.399 . S
C573 C578 1.399 . S
C574 C573 1.399 . S
C574 C575 1.376 . S
C575 H562 0.930 . S
C575 C574 1.376 . S
C575 C576 1.388 . S
C576 H563 0.892 1_554 S
C576 C575 1.388 . S
C576 C577 1.390 . S
C577 C576 1.390 . S
C577 C578 1.394 . S
C577 C583 1.465 . S
C578 C573 1.399 . S
C578 C577 1.394 . S
C578 C579 1.516 . S
C579 C578 1.516 . S
C579 C580 1.502 . S
C579 C581 1.561 . S
C579 C582 1.526 . S
C580 H564 0.959 . S
C580 H565 0.959 . S
C580 H566 0.961 . S
C580 C579 1.502 . S
C581 H567 0.960 . S
C581 H568 0.961 . S
C581 H569 0.959 . S
C581 C579 1.561 . S
C582 C579 1.526 . S
C582 C583 1.396 . S
C582 C587 1.390 . S
C583 C577 1.465 . S
C583 C582 1.396 . S
C583 C584 1.399 . S
C584 H570 0.929 1_554 S
C584 C583 1.399 . S
C584 C585 1.385 . S
C585 H571 0.931 1_554 S
C585 C584 1.385 . S
C585 C586 1.389 . S
C586 C585 1.389 . S
C586 C587 1.387 . S
C587 H572 0.930 . S
C587 C582 1.390 . S
C587 C586 1.387 . S
H588 C600 0.930 . S
H589 C602 0.930 1_554 S
H590 C603 0.930 . S
H591 C607 0.959 . S
H592 C607 0.959 . S
H593 C607 0.961 . S
H594 C608 0.960 . S
H595 C608 0.961 . S
H596 C608 0.959 . S
H597 C611 0.929 . S
H598 C612 0.931 . S
H599 C614 0.930 . S
C600 H588 0.930 . S
C600 C601 1.399 . S
C600 C605 1.399 . S
C601 C600 1.399 . S
C601 C602 1.376 . S
C602 H589 0.930 1_556 S
C602 C601 1.376 . S
C602 C603 1.388 1_556 S
C603 H590 0.930 . S
C603 C602 1.388 1_554 S
C603 C604 1.390 1_554 S
C604 C603 1.390 1_556 S
C604 C605 1.394 . S
C604 C610 1.463 . S
C605 C600 1.399 . S
C605 C604 1.394 . S
C605 C606 1.516 . S
C606 C605 1.516 . S
C606 C607 1.502 . S
C606 C608 1.561 . S
C606 C609 1.526 . S
C607 H591 0.959 . S
C607 H592 0.959 . S
C607 H593 0.961 . S
C607 C606 1.502 . S
C608 H594 0.960 . S
C608 H595 0.961 . S
C608 H596 0.959 . S
C608 C606 1.561 . S
C609 C606 1.526 . S
C609 C610 1.390 . S
C609 C614 1.390 . S
C610 C604 1.463 . S
C610 C609 1.390 . S
C610 C611 1.405 1_556 S
C611 H597 0.929 . S
C611 C610 1.405 1_554 S
C611 C612 1.385 . S
C612 H598 0.931 . S
C612 C611 1.385 . S
C612 C613 1.389 . S
C613 C612 1.389 . S
C613 C614 1.387 1_554 S
C614 H599 0.930 . S
C614 C609 1.390 . S
C614 C613 1.387 1_556 S
H615 C627 0.930 . S
H616 C629 0.930 . S
H617 C630 0.930 . S
H618 C634 0.959 . S
H619 C634 0.959 . S
H620 C634 0.961 . S
H621 C635 0.960 . S
H622 C635 0.961 . S
H623 C635 0.959 . S
H624 C638 0.929 . S
H625 C639 0.931 . S
H626 C641 0.930 . S
C627 H615 0.930 . S
C627 C628 1.399 . S
C627 C632 1.399 . S
C628 C627 1.399 . S
C628 C629 1.376 . S
C629 H616 0.930 . S
C629 C628 1.376 . S
C629 C630 1.388 . S
C630 H617 0.930 . S
C630 C629 1.388 . S
C630 C631 1.390 . S
C631 C630 1.390 . S
C631 C632 1.394 . S
C631 C637 1.465 . S
C632 C627 1.399 . S
C632 C631 1.394 . S
C632 C633 1.516 . S
C633 C632 1.516 . S
C633 C634 1.502 . S
C633 C635 1.561 . S
C633 C636 1.526 . S
C634 H618 0.959 . S
C634 H619 0.959 . S
C634 H620 0.961 . S
C634 C633 1.502 . S
C635 H621 0.960 . S
C635 H622 0.961 . S
C635 H623 0.959 . S
C635 C633 1.561 . S
C636 C633 1.526 . S
C636 C637 1.396 . S
C636 C641 1.390 . S
C637 C631 1.465 . S
C637 C636 1.396 . S
C637 C638 1.399 . S
C638 H624 0.929 . S
C638 C637 1.399 . S
C638 C639 1.385 . S
C639 H625 0.931 . S
C639 C638 1.385 . S
C639 C640 1.389 . S
C640 C639 1.389 . S
C640 C641 1.387 . S
C641 H626 0.930 . S
C641 C636 1.390 . S
C641 C640 1.387 . S
H642 C654 0.930 . S
H643 C656 0.930 . S
H644 C657 0.930 . S
H645 C661 0.959 . S
H646 C661 0.959 . S
H647 C661 0.961 . S
H648 C662 0.960 . S
H649 C662 0.961 . S
H650 C662 0.959 . S
H651 C665 0.929 . S
H652 C666 0.931 . S
H653 C668 0.930 . S
C654 H642 0.930 . S
C654 C655 1.399 . S
C654 C659 1.399 . S
C655 C654 1.399 . S
C655 C656 1.376 . S
C656 H643 0.930 . S
C656 C655 1.376 . S
C656 C657 1.388 . S
C657 H644 0.930 . S
C657 C656 1.388 . S
C657 C658 1.390 . S
C658 C657 1.390 . S
C658 C659 1.394 . S
C658 C664 1.465 . S
C659 C654 1.399 . S
C659 C658 1.394 . S
C659 C660 1.516 . S
C660 C659 1.516 . S
C660 C661 1.502 . S
C660 C662 1.561 . S
C660 C663 1.526 . S
C661 H645 0.959 . S
C661 H646 0.959 . S
C661 H647 0.961 . S
C661 C660 1.502 . S
C662 H648 0.960 . S
C662 H649 0.961 . S
C662 H650 0.959 . S
C662 C660 1.561 . S
C663 C660 1.526 . S
C663 C664 1.396 . S
C663 C668 1.390 . S
C664 C658 1.465 . S
C664 C663 1.396 . S
C664 C665 1.399 . S
C665 H651 0.929 . S
C665 C664 1.399 . S
C665 C666 1.385 . S
C666 H652 0.931 . S
C666 C665 1.385 . S
C666 C667 1.389 . S
C667 C666 1.389 . S
C667 C668 1.387 . S
C668 H653 0.930 . S
C668 C663 1.390 . S
C668 C667 1.387 . S
H669 C681 0.930 . S
H670 C683 0.930 . S
H671 C684 0.930 . S
H672 C688 0.959 . S
H673 C688 0.959 . S
H674 C688 0.961 . S
H675 C689 0.960 . S
H676 C689 0.961 . S
H677 C689 0.959 . S
H678 C692 0.929 . S
H679 C693 0.931 . S
H680 C695 0.930 . S
C681 H669 0.930 . S
C681 C682 1.399 . S
C681 C686 1.399 . S
C682 C681 1.399 . S
C682 C683 1.376 . S
C683 H670 0.930 . S
C683 C682 1.376 . S
C683 C684 1.388 . S
C684 H671 0.930 . S
C684 C683 1.388 . S
C684 C685 1.390 . S
C685 C684 1.390 . S
C685 C686 1.394 . S
C685 C691 1.465 . S
C686 C681 1.399 . S
C686 C685 1.394 . S
C686 C687 1.516 . S
C687 C686 1.516 . S
C687 C688 1.502 . S
C687 C689 1.561 . S
C687 C690 1.526 . S
C688 H672 0.959 . S
C688 H673 0.959 . S
C688 H674 0.961 . S
C688 C687 1.502 . S
C689 H675 0.960 . S
C689 H676 0.961 . S
C689 H677 0.959 . S
C689 C687 1.561 . S
C690 C687 1.526 . S
C690 C691 1.396 . S
C690 C695 1.390 . S
C691 C685 1.465 . S
C691 C690 1.396 . S
C691 C692 1.399 . S
C692 H678 0.929 . S
C692 C691 1.399 . S
C692 C693 1.385 . S
C693 H679 0.931 . S
C693 C692 1.385 . S
C693 C694 1.389 . S
C694 C693 1.389 . S
C694 C695 1.387 . S
C695 H680 0.930 . S
C695 C690 1.390 . S
C695 C694 1.387 . S
H696 C708 0.930 . S
H697 C710 0.930 . S
H698 C711 0.930 . S
H699 C715 0.959 . S
H700 C715 0.959 . S
H701 C715 0.961 . S
H702 C716 0.960 . S
H703 C716 0.961 . S
H704 C716 0.959 . S
H705 C719 0.929 . S
H706 C720 0.931 . S
H707 C722 0.930 . S
C708 H696 0.930 . S
C708 C709 1.399 . S
C708 C713 1.399 . S
C709 C708 1.399 . S
C709 C710 1.376 . S
C710 H697 0.930 . S
C710 C709 1.376 . S
C710 C711 1.388 . S
C711 H698 0.930 . S
C711 C710 1.388 . S
C711 C712 1.390 . S
C712 C711 1.390 . S
C712 C713 1.394 . S
C712 C718 1.465 . S
C713 C708 1.399 . S
C713 C712 1.394 . S
C713 C714 1.516 . S
C714 C713 1.516 . S
C714 C715 1.502 . S
C714 C716 1.561 . S
C714 C717 1.526 . S
C715 H699 0.959 . S
C715 H700 0.959 . S
C715 H701 0.961 . S
C715 C714 1.502 . S
C716 H702 0.960 . S
C716 H703 0.961 . S
C716 H704 0.959 . S
C716 C714 1.561 . S
C717 C714 1.526 . S
C717 C718 1.396 . S
C717 C722 1.390 . S
C718 C712 1.465 . S
C718 C717 1.396 . S
C718 C719 1.399 . S
C719 H705 0.929 . S
C719 C718 1.399 . S
C719 C720 1.385 . S
C720 H706 0.931 . S
C720 C719 1.385 . S
C720 C721 1.389 . S
C721 C720 1.389 . S
C721 C722 1.387 . S
C722 H707 0.930 . S
C722 C717 1.390 . S
C722 C721 1.387 . S
H723 C735 0.930 . S
H724 C737 0.930 . S
H725 C738 0.930 1_556 S
H726 C742 0.959 . S
H727 C742 0.959 . S
H728 C742 0.961 . S
H729 C743 0.960 . S
H730 C743 0.961 . S
H731 C743 0.959 . S
H732 C746 0.929 . S
H733 C747 0.931 . S
H734 C749 0.930 . S
C735 H723 0.930 . S
C735 C736 1.399 . S
C735 C740 1.399 . S
C736 C735 1.399 . S
C736 C737 1.376 . S
C737 H724 0.930 . S
C737 C736 1.376 . S
C737 C738 1.388 . S
C738 H725 0.930 1_554 S
C738 C737 1.388 . S
C738 C739 1.390 . S
C739 C738 1.390 . S
C739 C740 1.394 . S
C739 C745 1.465 . S
C740 C735 1.399 . S
C740 C739 1.394 . S
C740 C741 1.516 . S
C741 C740 1.516 . S
C741 C742 1.502 . S
C741 C743 1.561 . S
C741 C744 1.526 . S
C742 H726 0.959 . S
C742 H727 0.959 . S
C742 H728 0.961 . S
C742 C741 1.502 . S
C743 H729 0.960 . S
C743 H730 0.961 . S
C743 H731 0.959 . S
C743 C741 1.561 . S
C744 C741 1.526 . S
C744 C745 1.396 . S
C744 C749 1.390 . S
C745 C739 1.465 . S
C745 C744 1.396 . S
C745 C746 1.399 1_554 S
C746 H732 0.929 . S
C746 C745 1.399 1_556 S
C746 C747 1.385 . S
C747 H733 0.931 . S
C747 C746 1.385 . S
C747 C748 1.389 1_556 S
C748 C747 1.389 1_554 S
C748 C749 1.387 . S
C749 H734 0.930 . S
C749 C744 1.390 . S
C749 C748 1.387 . S
H750 C762 0.930 . S
H751 C764 0.930 . S
H752 C765 0.930 . S
H753 C769 0.959 . S
H754 C769 0.959 . S
H755 C769 0.961 . S
H756 C770 0.960 . S
H757 C770 0.961 . S
H758 C770 0.959 . S
H759 C773 0.929 . S
H760 C774 0.931 . S
H761 C776 0.930 . S
C762 H750 0.930 . S
C762 C763 1.399 . S
C762 C767 1.399 . S
C763 C762 1.399 . S
C763 C764 1.376 . S
C764 H751 0.930 . S
C764 C763 1.376 . S
C764 C765 1.388 . S
C765 H752 0.930 . S
C765 C764 1.388 . S
C765 C766 1.390 . S
C766 C765 1.390 . S
C766 C767 1.394 . S
C766 C772 1.465 . S
C767 C762 1.399 . S
C767 C766 1.394 . S
C767 C768 1.516 . S
C768 C767 1.516 . S
C768 C769 1.502 . S
C768 C770 1.561 . S
C768 C771 1.526 . S
C769 H753 0.959 . S
C769 H754 0.959 . S
C769 H755 0.961 . S
C769 C768 1.502 . S
C770 H756 0.960 . S
C770 H757 0.961 . S
C770 H758 0.959 . S
C770 C768 1.561 . S
C771 C768 1.526 . S
C771 C772 1.396 . S
C771 C776 1.390 . S
C772 C766 1.465 . S
C772 C771 1.396 . S
C772 C773 1.399 . S
C773 H759 0.929 . S
C773 C772 1.399 . S
C773 C774 1.385 . S
C774 H760 0.931 . S
C774 C773 1.385 . S
C774 C775 1.389 . S
C775 C774 1.389 . S
C775 C776 1.387 . S
C776 H761 0.930 . S
C776 C771 1.390 . S
C776 C775 1.387 . S
H777 C789 0.930 . S
H778 C791 0.930 . S
H779 C792 0.930 . S
H780 C796 0.959 . S
H781 C796 0.959 . S
H782 C796 0.961 . S
H783 C797 0.960 . S
H784 C797 0.961 . S
H785 C797 0.959 . S
H786 C800 0.929 . S
H787 C801 0.931 . S
H788 C803 0.930 . S
C789 H777 0.930 . S
C789 C790 1.399 . S
C789 C794 1.399 . S
C790 C789 1.399 . S
C790 C791 1.376 . S
C791 H778 0.930 . S
C791 C790 1.376 . S
C791 C792 1.388 . S
C792 H779 0.930 . S
C792 C791 1.388 . S
C792 C793 1.390 . S
C793 C792 1.390 . S
C793 C794 1.394 . S
C793 C799 1.465 . S
C794 C789 1.399 . S
C794 C793 1.394 . S
C794 C795 1.516 . S
C795 C794 1.516 . S
C795 C796 1.502 . S
C795 C797 1.561 . S
C795 C798 1.526 . S
C796 H780 0.959 . S
C796 H781 0.959 . S
C796 H782 0.961 . S
C796 C795 1.502 . S
C797 H783 0.960 . S
C797 H784 0.961 . S
C797 H785 0.959 . S
C797 C795 1.561 . S
C798 C795 1.526 . S
C798 C799 1.396 . S
C798 C803 1.390 . S
C799 C793 1.465 . S
C799 C798 1.396 . S
C799 C800 1.399 . S
C800 H786 0.929 . S
C800 C799 1.399 . S
C800 C801 1.385 . S
C801 H787 0.931 . S
C801 C800 1.385 . S
C801 C802 1.389 . S
C802 C801 1.389 . S
C802 C803 1.387 . S
C803 H788 0.930 . S
C803 C798 1.390 . S
C803 C802 1.387 . S
H804 C816 0.930 . S
H805 C818 0.930 . S
H806 C819 0.930 . S
H807 C823 0.959 . S
H808 C823 0.959 . S
H809 C823 0.961 . S
H810 C824 0.960 . S
H811 C824 0.961 . S
H812 C824 0.959 . S
H813 C827 0.929 . S
H814 C828 0.931 . S
H815 C830 0.930 . S
C816 H804 0.930 . S
C816 C817 1.399 . S
C816 C821 1.399 . S
C817 C816 1.399 . S
C817 C818 1.376 . S
C818 H805 0.930 . S
C818 C817 1.376 . S
C818 C819 1.388 . S
C819 H806 0.930 . S
C819 C818 1.388 . S
C819 C820 1.390 . S
C820 C819 1.390 . S
C820 C821 1.394 . S
C820 C826 1.465 . S
C821 C816 1.399 . S
C821 C820 1.394 . S
C821 C822 1.516 . S
C822 C821 1.516 . S
C822 C823 1.502 . S
C822 C824 1.561 . S
C822 C825 1.526 . S
C823 H807 0.959 . S
C823 H808 0.959 . S
C823 H809 0.961 . S
C823 C822 1.502 . S
C824 H810 0.960 . S
C824 H811 0.961 . S
C824 H812 0.959 . S
C824 C822 1.561 . S
C825 C822 1.526 . S
C825 C826 1.396 . S
C825 C830 1.390 . S
C826 C820 1.465 . S
C826 C825 1.396 . S
C826 C827 1.399 . S
C827 H813 0.929 . S
C827 C826 1.399 . S
C827 C828 1.385 . S
C828 H814 0.931 . S
C828 C827 1.385 . S
C828 C829 1.389 . S
C829 C828 1.389 . S
C829 C830 1.387 . S
C830 H815 0.930 . S
C830 C825 1.390 . S
C830 C829 1.387 . S
H831 C843 0.930 . S
H832 C845 0.930 . S
H833 C846 0.930 . S
H834 C850 0.959 . S
H835 C850 0.959 . S
H836 C850 0.961 . S
H837 C851 0.960 . S
H838 C851 0.961 . S
H839 C851 0.959 . S
H840 C854 0.929 . S
H841 C855 0.931 . S
H842 C857 0.930 . S
C843 H831 0.930 . S
C843 C844 1.399 . S
C843 C848 1.399 . S
C844 C843 1.399 . S
C844 C845 1.376 . S
C845 H832 0.930 . S
C845 C844 1.376 . S
C845 C846 1.388 . S
C846 H833 0.930 . S
C846 C845 1.388 . S
C846 C847 1.390 . S
C847 C846 1.390 . S
C847 C848 1.394 . S
C847 C853 1.465 . S
C848 C843 1.399 . S
C848 C847 1.394 . S
C848 C849 1.516 . S
C849 C848 1.516 . S
C849 C850 1.502 . S
C849 C851 1.561 . S
C849 C852 1.526 . S
C850 H834 0.959 . S
C850 H835 0.959 . S
C850 H836 0.961 . S
C850 C849 1.502 . S
C851 H837 0.960 . S
C851 H838 0.961 . S
C851 H839 0.959 . S
C851 C849 1.561 . S
C852 C849 1.526 . S
C852 C853 1.396 . S
C852 C857 1.390 . S
C853 C847 1.465 . S
C853 C852 1.396 . S
C853 C854 1.399 . S
C854 H840 0.929 . S
C854 C853 1.399 . S
C854 C855 1.385 . S
C855 H841 0.931 . S
C855 C854 1.385 . S
C855 C856 1.389 . S
C856 C855 1.389 . S
C856 C857 1.387 . S
C857 H842 0.930 . S
C857 C852 1.390 . S
C857 C856 1.387 . S
H858 C870 0.930 . S
H859 C872 0.930 . S
H860 C873 0.930 1_554 S
H861 C877 0.959 . S
H862 C877 0.959 . S
H863 C877 0.961 . S
H864 C878 0.960 . S
H865 C878 0.961 . S
H866 C878 0.959 . S
H867 C881 0.929 . S
H868 C882 0.931 . S
H869 C884 0.930 . S
C870 H858 0.930 . S
C870 C871 1.399 . S
C870 C875 1.399 . S
C871 C870 1.399 . S
C871 C872 1.376 . S
C872 H859 0.930 . S
C872 C871 1.376 . S
C872 C873 1.388 . S
C873 H860 0.930 1_556 S
C873 C872 1.388 . S
C873 C874 1.390 . S
C874 C873 1.390 . S
C874 C875 1.394 . S
C874 C880 1.465 . S
C875 C870 1.399 . S
C875 C874 1.394 . S
C875 C876 1.516 . S
C876 C875 1.516 . S
C876 C877 1.502 . S
C876 C878 1.561 . S
C876 C879 1.526 . S
C877 H861 0.959 . S
C877 H862 0.959 . S
C877 H863 0.961 . S
C877 C876 1.502 . S
C878 H864 0.960 . S
C878 H865 0.961 . S
C878 H866 0.959 . S
C878 C876 1.561 . S
C879 C876 1.526 . S
C879 C880 1.396 . S
C879 C884 1.390 . S
C880 C874 1.465 . S
C880 C879 1.396 . S
C880 C881 1.399 1_556 S
C881 H867 0.929 . S
C881 C880 1.399 1_554 S
C881 C882 1.385 . S
C882 H868 0.931 . S
C882 C881 1.385 . S
C882 C883 1.389 1_554 S
C883 C882 1.389 1_556 S
C883 C884 1.387 . S
C884 H869 0.930 . S
C884 C879 1.390 . S
C884 C883 1.387 . S
H885 C897 0.930 . S
H886 C899 0.930 . S
H887 C900 0.930 . S
H888 C904 0.959 . S
H889 C904 0.959 . S
H890 C904 0.961 . S
H891 C905 0.960 . S
H892 C905 0.961 . S
H893 C905 0.959 . S
H894 C908 0.929 . S
H895 C909 0.931 . S
H896 C911 0.930 . S
C897 H885 0.930 . S
C897 C898 1.399 . S
C897 C902 1.399 . S
C898 C897 1.399 . S
C898 C899 1.376 . S
C899 H886 0.930 . S
C899 C898 1.376 . S
C899 C900 1.388 . S
C900 H887 0.930 . S
C900 C899 1.388 . S
C900 C901 1.390 . S
C901 C900 1.390 . S
C901 C902 1.394 . S
C901 C907 1.465 . S
C902 C897 1.399 . S
C902 C901 1.394 . S
C902 C903 1.516 . S
C903 C902 1.516 . S
C903 C904 1.502 . S
C903 C905 1.561 . S
C903 C906 1.526 . S
C904 H888 0.959 . S
C904 H889 0.959 . S
C904 H890 0.961 . S
C904 C903 1.502 . S
C905 H891 0.960 . S
C905 H892 0.961 . S
C905 H893 0.959 . S
C905 C903 1.561 . S
C906 C903 1.526 . S
C906 C907 1.396 . S
C906 C911 1.390 . S
C907 C901 1.465 . S
C907 C906 1.396 . S
C907 C908 1.399 . S
C908 H894 0.929 . S
C908 C907 1.399 . S
C908 C909 1.385 . S
C909 H895 0.931 . S
C909 C908 1.385 . S
C909 C910 1.389 . S
C910 C909 1.389 . S
C910 C911 1.387 . S
C911 H896 0.930 . S
C911 C906 1.390 . S
C911 C910 1.387 . S
H912 C924 0.930 . S
H913 C926 0.930 . S
H914 C927 0.930 . S
H915 C931 0.959 . S
H916 C931 0.959 . S
H917 C931 0.961 . S
H918 C932 0.960 . S
H919 C932 0.961 . S
H920 C932 0.959 . S
H921 C935 0.929 . S
H922 C936 0.931 . S
H923 C938 0.930 . S
C924 H912 0.930 . S
C924 C925 1.399 . S
C924 C929 1.399 . S
C925 C924 1.399 . S
C925 C926 1.376 . S
C926 H913 0.930 . S
C926 C925 1.376 . S
C926 C927 1.388 . S
C927 H914 0.930 . S
C927 C926 1.388 . S
C927 C928 1.390 . S
C928 C927 1.390 . S
C928 C929 1.394 . S
C928 C934 1.465 . S
C929 C924 1.399 . S
C929 C928 1.394 . S
C929 C930 1.516 . S
C930 C929 1.516 . S
C930 C931 1.502 . S
C930 C932 1.561 . S
C930 C933 1.526 . S
C931 H915 0.959 . S
C931 H916 0.959 . S
C931 H917 0.961 . S
C931 C930 1.502 . S
C932 H918 0.960 . S
C932 H919 0.961 . S
C932 H920 0.959 . S
C932 C930 1.561 . S
C933 C930 1.526 . S
C933 C934 1.396 . S
C933 C938 1.390 . S
C934 C928 1.465 . S
C934 C933 1.396 . S
C934 C935 1.399 . S
C935 H921 0.929 . S
C935 C934 1.399 . S
C935 C936 1.385 . S
C936 H922 0.931 . S
C936 C935 1.385 . S
C936 C937 1.389 . S
C937 C936 1.389 . S
C937 C938 1.387 . S
C938 H923 0.930 . S
C938 C933 1.390 . S
C938 C937 1.387 . S
H939 C951 0.930 . S
H940 C953 0.930 . S
H941 C954 0.930 . S
H942 C958 0.959 . S
H943 C958 0.959 . S
H944 C958 0.961 . S
H945 C959 0.960 . S
H946 C959 0.961 . S
H947 C959 0.959 . S
H948 C962 0.929 . S
H949 C963 0.931 . S
H950 C965 0.930 . S
C951 H939 0.930 . S
C951 C952 1.399 . S
C951 C956 1.399 . S
C952 C951 1.399 . S
C952 C953 1.376 . S
C953 H940 0.930 . S
C953 C952 1.376 . S
C953 C954 1.388 . S
C954 H941 0.930 . S
C954 C953 1.388 . S
C954 C955 1.390 . S
C955 C954 1.390 . S
C955 C956 1.394 . S
C955 C961 1.465 . S
C956 C951 1.399 . S
C956 C955 1.394 . S
C956 C957 1.516 . S
C957 C956 1.516 . S
C957 C958 1.502 . S
C957 C959 1.561 . S
C957 C960 1.526 . S
C958 H942 0.959 . S
C958 H943 0.959 . S
C958 H944 0.961 . S
C958 C957 1.502 . S
C959 H945 0.960 . S
C959 H946 0.961 . S
C959 H947 0.959 . S
C959 C957 1.561 . S
C960 C957 1.526 . S
C960 C961 1.396 . S
C960 C965 1.390 . S
C961 C955 1.465 . S
C961 C960 1.396 . S
C961 C962 1.399 . S
C962 H948 0.929 . S
C962 C961 1.399 . S
C962 C963 1.385 . S
C963 H949 0.931 . S
C963 C962 1.385 . S
C963 C964 1.389 . S
C964 C963 1.389 . S
C964 C965 1.387 . S
C965 H950 0.930 . S
C965 C960 1.390 . S
C965 C964 1.387 . S
H966 C978 0.930 . S
H967 C980 0.930 . S
H968 C981 0.930 . S
H969 C985 0.959 . S
H970 C985 0.959 . S
H971 C985 0.961 . S
H972 C986 0.960 . S
H973 C986 0.961 . S
H974 C986 0.959 . S
H975 C989 0.929 . S
H976 C990 0.931 . S
H977 C992 0.930 . S
C978 H966 0.930 . S
C978 C979 1.399 . S
C978 C983 1.399 . S
C979 C978 1.399 . S
C979 C980 1.376 . S
C980 H967 0.930 . S
C980 C979 1.376 . S
C980 C981 1.388 . S
C981 H968 0.930 . S
C981 C980 1.388 . S
C981 C982 1.390 . S
C982 C981 1.390 . S
C982 C983 1.394 . S
C982 C988 1.465 . S
C983 C978 1.399 . S
C983 C982 1.394 . S
C983 C984 1.516 . S
C984 C983 1.516 . S
C984 C985 1.502 . S
C984 C986 1.561 . S
C984 C987 1.526 . S
C985 H969 0.959 . S
C985 H970 0.959 . S
C985 H971 0.961 . S
C985 C984 1.502 . S
C986 H972 0.960 . S
C986 H973 0.961 . S
C986 H974 0.959 . S
C986 C984 1.561 . S
C987 C984 1.526 . S
C987 C988 1.396 . S
C987 C992 1.390 . S
C988 C982 1.465 . S
C988 C987 1.396 . S
C988 C989 1.399 . S
C989 H975 0.929 . S
C989 C988 1.399 . S
C989 C990 1.385 . S
C990 H976 0.931 . S
C990 C989 1.385 . S
C990 C991 1.389 . S
C991 C990 1.389 . S
C991 C992 1.387 . S
C992 H977 0.930 . S
C992 C987 1.390 . S
C992 C991 1.387 . S
H993 C1005 0.930 . S
H994 C1007 0.930 . S
H995 C1008 0.930 . S
H996 C1012 0.959 . S
H997 C1012 0.959 . S
H998 C1012 0.961 . S
H999 C1013 0.960 . S
H1000 C1013 0.961 . S
H1001 C1013 0.959 . S
H1002 C1016 0.929 . S
H1003 C1017 0.931 . S
H1004 C1019 0.930 . S
C1005 H993 0.930 . S
C1005 C1006 1.399 . S
C1005 C1010 1.399 . S
C1006 C1005 1.399 . S
C1006 C1007 1.376 . S
C1007 H994 0.930 . S
C1007 C1006 1.376 . S
C1007 C1008 1.388 . S
C1008 H995 0.930 . S
C1008 C1007 1.388 . S
C1008 C1009 1.390 . S
C1009 C1008 1.390 . S
C1009 C1010 1.394 . S
C1009 C1015 1.465 . S
C1010 C1005 1.399 . S
C1010 C1009 1.394 . S
C1010 C1011 1.516 . S
C1011 C1010 1.516 . S
C1011 C1012 1.502 . S
C1011 C1013 1.561 . S
C1011 C1014 1.526 . S
C1012 H996 0.959 . S
C1012 H997 0.959 . S
C1012 H998 0.961 . S
C1012 C1011 1.502 . S
C1013 H999 0.960 . S
C1013 H1000 0.961 . S
C1013 H1001 0.959 . S
C1013 C1011 1.561 . S
C1014 C1011 1.526 . S
C1014 C1015 1.396 . S
C1014 C1019 1.390 . S
C1015 C1009 1.465 . S
C1015 C1014 1.396 . S
C1015 C1016 1.399 . S
C1016 H1002 0.929 . S
C1016 C1015 1.399 . S
C1016 C1017 1.385 . S
C1017 H1003 0.931 . S
C1017 C1016 1.385 . S
C1017 C1018 1.389 . S
C1018 C1017 1.389 . S
C1018 C1019 1.387 . S
C1019 H1004 0.930 . S
C1019 C1014 1.390 . S
C1019 C1018 1.387 . S
H1020 C1032 0.930 . S
H1021 C1034 0.930 . S
H1022 C1035 0.930 . S
H1023 C1039 0.959 . S
H1024 C1039 0.959 . S
H1025 C1039 0.961 . S
H1026 C1040 0.960 . S
H1027 C1040 0.961 . S
H1028 C1040 0.959 . S
H1029 C1043 0.929 . S
H1030 C1044 0.931 . S
H1031 C1046 0.930 . S
C1032 H1020 0.930 . S
C1032 C1033 1.399 . S
C1032 C1037 1.399 . S
C1033 C1032 1.399 . S
C1033 C1034 1.376 . S
C1034 H1021 0.930 . S
C1034 C1033 1.376 . S
C1034 C1035 1.388 . S
C1035 H1022 0.930 . S
C1035 C1034 1.388 . S
C1035 C1036 1.390 . S
C1036 C1035 1.390 . S
C1036 C1037 1.394 . S
C1036 C1042 1.465 . S
C1037 C1032 1.399 . S
C1037 C1036 1.394 . S
C1037 C1038 1.516 . S
C1038 C1037 1.516 . S
C1038 C1039 1.502 . S
C1038 C1040 1.561 . S
C1038 C1041 1.526 . S
C1039 H1023 0.959 . S
C1039 H1024 0.959 . S
C1039 H1025 0.961 . S
C1039 C1038 1.502 . S
C1040 H1026 0.960 . S
C1040 H1027 0.961 . S
C1040 H1028 0.959 . S
C1040 C1038 1.561 . S
C1041 C1038 1.526 . S
C1041 C1042 1.396 . S
C1041 C1046 1.390 . S
C1042 C1036 1.465 . S
C1042 C1041 1.396 . S
C1042 C1043 1.399 . S
C1043 H1029 0.929 . S
C1043 C1042 1.399 . S
C1043 C1044 1.385 . S
C1044 H1030 0.931 . S
C1044 C1043 1.385 . S
C1044 C1045 1.389 . S
C1045 C1044 1.389 . S
C1045 C1046 1.387 . S
C1046 H1031 0.930 . S
C1046 C1041 1.390 . S
C1046 C1045 1.387 . S
H1047 C1059 0.930 . S
H1048 C1061 0.930 . S
H1049 C1062 0.930 . S
H1050 C1066 0.959 . S
H1051 C1066 0.959 . S
H1052 C1066 0.961 . S
H1053 C1067 0.960 . S
H1054 C1067 0.961 . S
H1055 C1067 0.959 . S
H1056 C1070 0.929 . S
H1057 C1071 0.931 . S
H1058 C1073 0.930 . S
C1059 H1047 0.930 . S
C1059 C1060 1.399 . S
C1059 C1064 1.399 . S
C1060 C1059 1.399 . S
C1060 C1061 1.376 . S
C1061 H1048 0.930 . S
C1061 C1060 1.376 . S
C1061 C1062 1.388 . S
C1062 H1049 0.930 . S
C1062 C1061 1.388 . S
C1062 C1063 1.390 . S
C1063 C1062 1.390 . S
C1063 C1064 1.394 . S
C1063 C1069 1.465 . S
C1064 C1059 1.399 . S
C1064 C1063 1.394 . S
C1064 C1065 1.516 . S
C1065 C1064 1.516 . S
C1065 C1066 1.502 . S
C1065 C1067 1.561 . S
C1065 C1068 1.526 . S
C1066 H1050 0.959 . S
C1066 H1051 0.959 . S
C1066 H1052 0.961 . S
C1066 C1065 1.502 . S
C1067 H1053 0.960 . S
C1067 H1054 0.961 . S
C1067 H1055 0.959 . S
C1067 C1065 1.561 . S
C1068 C1065 1.526 . S
C1068 C1069 1.396 . S
C1068 C1073 1.390 . S
C1069 C1063 1.465 . S
C1069 C1068 1.396 . S
C1069 C1070 1.399 . S
C1070 H1056 0.929 . S
C1070 C1069 1.399 . S
C1070 C1071 1.385 . S
C1071 H1057 0.931 . S
C1071 C1070 1.385 . S
C1071 C1072 1.389 . S
C1072 C1071 1.389 . S
C1072 C1073 1.387 . S
C1073 H1058 0.930 . S
C1073 C1068 1.390 . S
C1073 C1072 1.387 . S
H1074 C1086 0.930 . S
H1075 C1088 0.930 . S
H1076 C1089 0.930 . S
H1077 C1093 0.959 . S
H1078 C1093 0.959 . S
H1079 C1093 0.961 . S
H1080 C1094 0.960 . S
H1081 C1094 0.961 . S
H1082 C1094 0.959 . S
H1083 C1097 0.929 . S
H1084 C1098 0.931 . S
H1085 C1100 0.930 . S
C1086 H1074 0.930 . S
C1086 C1087 1.399 . S
C1086 C1091 1.399 . S
C1087 C1086 1.399 . S
C1087 C1088 1.376 . S
C1088 H1075 0.930 . S
C1088 C1087 1.376 . S
C1088 C1089 1.388 . S
C1089 H1076 0.930 . S
C1089 C1088 1.388 . S
C1089 C1090 1.390 . S
C1090 C1089 1.390 . S
C1090 C1091 1.394 . S
C1090 C1096 1.465 . S
C1091 C1086 1.399 . S
C1091 C1090 1.394 . S
C1091 C1092 1.516 . S
C1092 C1091 1.516 . S
C1092 C1093 1.502 . S
C1092 C1094 1.561 . S
C1092 C1095 1.526 . S
C1093 H1077 0.959 . S
C1093 H1078 0.959 . S
C1093 H1079 0.961 . S
C1093 C1092 1.502 . S
C1094 H1080 0.960 . S
C1094 H1081 0.961 . S
C1094 H1082 0.959 . S
C1094 C1092 1.561 . S
C1095 C1092 1.526 . S
C1095 C1096 1.396 . S
C1095 C1100 1.390 . S
C1096 C1090 1.465 . S
C1096 C1095 1.396 . S
C1096 C1097 1.399 . S
C1097 H1083 0.929 . S
C1097 C1096 1.399 . S
C1097 C1098 1.385 . S
C1098 H1084 0.931 . S
C1098 C1097 1.385 . S
C1098 C1099 1.389 . S
C1099 C1098 1.389 . S
C1099 C1100 1.387 . S
C1100 H1085 0.930 . S
C1100 C1095 1.390 . S
C1100 C1099 1.387 . S
H1101 C1113 0.930 . S
H1102 C1115 0.930 . S
H1103 C1116 0.930 . S
H1104 C1120 0.959 . S
H1105 C1120 0.959 . S
H1106 C1120 0.961 . S
H1107 C1121 0.960 . S
H1108 C1121 0.961 . S
H1109 C1121 0.959 . S
H1110 C1124 0.929 . S
H1111 C1125 0.931 . S
H1112 C1127 0.930 . S
C1113 H1101 0.930 . S
C1113 C1114 1.399 . S
C1113 C1118 1.399 . S
C1114 C1113 1.399 . S
C1114 C1115 1.376 . S
C1115 H1102 0.930 . S
C1115 C1114 1.376 . S
C1115 C1116 1.388 . S
C1116 H1103 0.930 . S
C1116 C1115 1.388 . S
C1116 C1117 1.390 . S
C1117 C1116 1.390 . S
C1117 C1118 1.394 . S
C1117 C1123 1.465 . S
C1118 C1113 1.399 . S
C1118 C1117 1.394 . S
C1118 C1119 1.516 . S
C1119 C1118 1.516 . S
C1119 C1120 1.502 . S
C1119 C1121 1.561 . S
C1119 C1122 1.526 . S
C1120 H1104 0.959 . S
C1120 H1105 0.959 . S
C1120 H1106 0.961 . S
C1120 C1119 1.502 . S
C1121 H1107 0.960 . S
C1121 H1108 0.961 . S
C1121 H1109 0.959 . S
C1121 C1119 1.561 . S
C1122 C1119 1.526 . S
C1122 C1123 1.396 . S
C1122 C1127 1.390 . S
C1123 C1117 1.465 . S
C1123 C1122 1.396 . S
C1123 C1124 1.399 . S
C1124 H1110 0.929 . S
C1124 C1123 1.399 . S
C1124 C1125 1.385 . S
C1125 H1111 0.931 . S
C1125 C1124 1.385 . S
C1125 C1126 1.389 . S
C1126 C1125 1.389 . S
C1126 C1127 1.387 . S
C1127 H1112 0.930 . S
C1127 C1122 1.390 . S
C1127 C1126 1.387 . S
H1128 C1140 0.930 . S
H1129 C1142 0.930 . S
H1130 C1143 0.930 . S
H1131 C1147 0.959 . S
H1132 C1147 0.959 . S
H1133 C1147 0.961 . S
H1134 C1148 0.960 . S
H1135 C1148 0.961 . S
H1136 C1148 0.959 . S
H1137 C1151 0.929 . S
H1138 C1152 0.931 . S
H1139 C1154 0.930 . S
C1140 H1128 0.930 . S
C1140 C1141 1.399 . S
C1140 C1145 1.399 . S
C1141 C1140 1.399 . S
C1141 C1142 1.376 . S
C1142 H1129 0.930 . S
C1142 C1141 1.376 . S
C1142 C1143 1.388 . S
C1143 H1130 0.930 . S
C1143 C1142 1.388 . S
C1143 C1144 1.390 . S
C1144 C1143 1.390 . S
C1144 C1145 1.394 . S
C1144 C1150 1.465 . S
C1145 C1140 1.399 . S
C1145 C1144 1.394 . S
C1145 C1146 1.516 . S
C1146 C1145 1.516 . S
C1146 C1147 1.502 . S
C1146 C1148 1.561 . S
C1146 C1149 1.526 . S
C1147 H1131 0.959 . S
C1147 H1132 0.959 . S
C1147 H1133 0.961 . S
C1147 C1146 1.502 . S
C1148 H1134 0.960 . S
C1148 H1135 0.961 . S
C1148 H1136 0.959 . S
C1148 C1146 1.561 . S
C1149 C1146 1.526 . S
C1149 C1150 1.396 . S
C1149 C1154 1.390 . S
C1150 C1144 1.465 . S
C1150 C1149 1.396 . S
C1150 C1151 1.399 . S
C1151 H1137 0.929 . S
C1151 C1150 1.399 . S
C1151 C1152 1.385 . S
C1152 H1138 0.931 . S
C1152 C1151 1.385 . S
C1152 C1153 1.389 . S
C1153 C1152 1.389 . S
C1153 C1154 1.387 . S
C1154 H1139 0.930 . S
C1154 C1149 1.390 . S
C1154 C1153 1.387 . S
H1155 C1167 0.930 . S
H1156 C1169 0.930 . S
H1157 C1170 0.930 . S
H1158 C1174 0.959 . S
H1159 C1174 0.959 . S
H1160 C1174 0.961 . S
H1161 C1175 0.960 . S
H1162 C1175 0.961 . S
H1163 C1175 0.959 . S
H1164 C1178 0.929 . S
H1165 C1179 0.931 . S
H1166 C1181 0.930 . S
C1167 H1155 0.930 . S
C1167 C1168 1.399 . S
C1167 C1172 1.399 . S
C1168 C1167 1.399 . S
C1168 C1169 1.376 . S
C1169 H1156 0.930 . S
C1169 C1168 1.376 . S
C1169 C1170 1.388 . S
C1170 H1157 0.930 . S
C1170 C1169 1.388 . S
C1170 C1171 1.390 . S
C1171 C1170 1.390 . S
C1171 C1172 1.394 . S
C1171 C1177 1.465 . S
C1172 C1167 1.399 . S
C1172 C1171 1.394 . S
C1172 C1173 1.516 . S
C1173 C1172 1.516 . S
C1173 C1174 1.502 . S
C1173 C1175 1.561 . S
C1173 C1176 1.526 . S
C1174 H1158 0.959 . S
C1174 H1159 0.959 . S
C1174 H1160 0.961 . S
C1174 C1173 1.502 . S
C1175 H1161 0.960 . S
C1175 H1162 0.961 . S
C1175 H1163 0.959 . S
C1175 C1173 1.561 . S
C1176 C1173 1.526 . S
C1176 C1177 1.396 . S
C1176 C1181 1.390 . S
C1177 C1171 1.465 . S
C1177 C1176 1.396 . S
C1177 C1178 1.399 . S
C1178 H1164 0.929 . S
C1178 C1177 1.399 . S
C1178 C1179 1.385 . S
C1179 H1165 0.931 . S
C1179 C1178 1.385 . S
C1179 C1180 1.389 . S
C1180 C1179 1.389 . S
C1180 C1181 1.387 . S
C1181 H1166 0.930 . S
C1181 C1176 1.390 . S
C1181 C1180 1.387 . S
H1182 C1194 0.930 . S
H1183 C1196 0.930 . S
H1184 C1197 0.930 . S
H1185 C1201 0.959 . S
H1186 C1201 0.959 . S
H1187 C1201 0.961 . S
H1188 C1202 0.960 . S
H1189 C1202 0.961 . S
H1190 C1202 0.959 . S
H1191 C1205 0.929 . S
H1192 C1206 0.931 . S
H1193 C1208 0.930 . S
C1194 H1182 0.930 . S
C1194 C1195 1.399 . S
C1194 C1199 1.399 . S
C1195 C1194 1.399 . S
C1195 C1196 1.376 . S
C1196 H1183 0.930 . S
C1196 C1195 1.376 . S
C1196 C1197 1.388 . S
C1197 H1184 0.930 . S
C1197 C1196 1.388 . S
C1197 C1198 1.390 . S
C1198 C1197 1.390 . S
C1198 C1199 1.394 . S
C1198 C1204 1.465 . S
C1199 C1194 1.399 . S
C1199 C1198 1.394 . S
C1199 C1200 1.516 . S
C1200 C1199 1.516 . S
C1200 C1201 1.502 . S
C1200 C1202 1.561 . S
C1200 C1203 1.526 . S
C1201 H1185 0.959 . S
C1201 H1186 0.959 . S
C1201 H1187 0.961 . S
C1201 C1200 1.502 . S
C1202 H1188 0.960 . S
C1202 H1189 0.961 . S
C1202 H1190 0.959 . S
C1202 C1200 1.561 . S
C1203 C1200 1.526 . S
C1203 C1204 1.396 . S
C1203 C1208 1.390 . S
C1204 C1198 1.465 . S
C1204 C1203 1.396 . S
C1204 C1205 1.399 . S
C1205 H1191 0.929 . S
C1205 C1204 1.399 . S
C1205 C1206 1.385 . S
C1206 H1192 0.931 . S
C1206 C1205 1.385 . S
C1206 C1207 1.389 . S
C1207 C1206 1.389 . S
C1207 C1208 1.387 . S
C1208 H1193 0.930 . S
C1208 C1203 1.390 . S
C1208 C1207 1.387 . S
H1209 C1221 0.930 . S
H1210 C1223 0.930 . S
H1211 C1224 0.930 . S
H1212 C1228 0.959 . S
H1213 C1228 0.959 . S
H1214 C1228 0.961 . S
H1215 C1229 0.960 . S
H1216 C1229 0.961 . S
H1217 C1229 0.959 . S
H1218 C1232 0.929 . S
H1219 C1233 0.931 . S
H1220 C1235 0.930 . S
C1221 H1209 0.930 . S
C1221 C1222 1.399 . S
C1221 C1226 1.399 . S
C1222 C1221 1.399 . S
C1222 C1223 1.376 . S
C1223 H1210 0.930 . S
C1223 C1222 1.376 . S
C1223 C1224 1.388 . S
C1224 H1211 0.930 . S
C1224 C1223 1.388 . S
C1224 C1225 1.390 . S
C1225 C1224 1.390 . S
C1225 C1226 1.394 . S
C1225 C1231 1.465 . S
C1226 C1221 1.399 . S
C1226 C1225 1.394 . S
C1226 C1227 1.516 . S
C1227 C1226 1.516 . S
C1227 C1228 1.502 . S
C1227 C1229 1.561 . S
C1227 C1230 1.526 . S
C1228 H1212 0.959 . S
C1228 H1213 0.959 . S
C1228 H1214 0.961 . S
C1228 C1227 1.502 . S
C1229 H1215 0.960 . S
C1229 H1216 0.961 . S
C1229 H1217 0.959 . S
C1229 C1227 1.561 . S
C1230 C1227 1.526 . S
C1230 C1231 1.396 . S
C1230 C1235 1.390 . S
C1231 C1225 1.465 . S
C1231 C1230 1.396 . S
C1231 C1232 1.399 . S
C1232 H1218 0.929 . S
C1232 C1231 1.399 . S
C1232 C1233 1.385 . S
C1233 H1219 0.931 . S
C1233 C1232 1.385 . S
C1233 C1234 1.389 . S
C1234 C1233 1.389 . S
C1234 C1235 1.387 . S
C1235 H1220 0.930 . S
C1235 C1230 1.390 . S
C1235 C1234 1.387 . S
H1236 C1248 0.930 . S
H1237 C1250 0.930 . S
H1238 C1251 0.930 . S
H1239 C1255 0.959 . S
H1240 C1255 0.959 . S
H1241 C1255 0.961 . S
H1242 C1256 0.960 . S
H1243 C1256 0.961 . S
H1244 C1256 0.959 . S
H1245 C1259 0.929 . S
H1246 C1260 0.931 . S
H1247 C1262 0.930 . S
C1248 H1236 0.930 . S
C1248 C1249 1.399 . S
C1248 C1253 1.399 . S
C1249 C1248 1.399 . S
C1249 C1250 1.376 . S
C1250 H1237 0.930 . S
C1250 C1249 1.376 . S
C1250 C1251 1.388 . S
C1251 H1238 0.930 . S
C1251 C1250 1.388 . S
C1251 C1252 1.390 . S
C1252 C1251 1.390 . S
C1252 C1253 1.394 . S
C1252 C1258 1.465 . S
C1253 C1248 1.399 . S
C1253 C1252 1.394 . S
C1253 C1254 1.516 . S
C1254 C1253 1.516 . S
C1254 C1255 1.502 . S
C1254 C1256 1.561 . S
C1254 C1257 1.526 . S
C1255 H1239 0.959 . S
C1255 H1240 0.959 . S
C1255 H1241 0.961 . S
C1255 C1254 1.502 . S
C1256 H1242 0.960 . S
C1256 H1243 0.961 . S
C1256 H1244 0.959 . S
C1256 C1254 1.561 . S
C1257 C1254 1.526 . S
C1257 C1258 1.396 . S
C1257 C1262 1.390 . S
C1258 C1252 1.465 . S
C1258 C1257 1.396 . S
C1258 C1259 1.399 . S
C1259 H1245 0.929 . S
C1259 C1258 1.399 . S
C1259 C1260 1.385 . S
C1260 H1246 0.931 . S
C1260 C1259 1.385 . S
C1260 C1261 1.389 . S
C1261 C1260 1.389 . S
C1261 C1262 1.387 . S
C1262 H1247 0.930 . S
C1262 C1257 1.390 . S
C1262 C1261 1.387 . S
H1263 C1275 0.930 . S
H1264 C1277 0.930 . S
H1265 C1278 0.930 . S
H1266 C1282 0.959 . S
H1267 C1282 0.959 . S
H1268 C1282 0.961 . S
H1269 C1283 0.960 . S
H1270 C1283 0.961 . S
H1271 C1283 0.959 . S
H1272 C1286 0.929 . S
H1273 C1287 0.931 . S
H1274 C1289 0.930 . S
C1275 H1263 0.930 . S
C1275 C1276 1.399 . S
C1275 C1280 1.399 . S
C1276 C1275 1.399 . S
C1276 C1277 1.376 . S
C1277 H1264 0.930 . S
C1277 C1276 1.376 . S
C1277 C1278 1.388 . S
C1278 H1265 0.930 . S
C1278 C1277 1.388 . S
C1278 C1279 1.390 . S
C1279 C1278 1.390 . S
C1279 C1280 1.394 . S
C1279 C1285 1.465 . S
C1280 C1275 1.399 . S
C1280 C1279 1.394 . S
C1280 C1281 1.516 . S
C1281 C1280 1.516 . S
C1281 C1282 1.502 . S
C1281 C1283 1.561 . S
C1281 C1284 1.526 . S
C1282 H1266 0.959 . S
C1282 H1267 0.959 . S
C1282 H1268 0.961 . S
C1282 C1281 1.502 . S
C1283 H1269 0.960 . S
C1283 H1270 0.961 . S
C1283 H1271 0.959 . S
C1283 C1281 1.561 . S
C1284 C1281 1.526 . S
C1284 C1285 1.396 . S
C1284 C1289 1.390 . S
C1285 C1279 1.465 . S
C1285 C1284 1.396 . S
C1285 C1286 1.399 . S
C1286 H1272 0.929 . S
C1286 C1285 1.399 . S
C1286 C1287 1.385 . S
C1287 H1273 0.931 . S
C1287 C1286 1.385 . S
C1287 C1288 1.389 . S
C1288 C1287 1.389 . S
C1288 C1289 1.387 . S
C1289 H1274 0.930 . S
C1289 C1284 1.390 . S
C1289 C1288 1.387 . S
H1290 C1302 0.930 . S
H1291 C1304 0.930 . S
H1292 C1305 0.930 . S
H1293 C1309 0.959 . S
H1294 C1309 0.959 . S
H1295 C1309 0.961 . S
H1296 C1310 0.960 . S
H1297 C1310 0.961 . S
H1298 C1310 0.959 . S
H1299 C1313 0.929 . S
H1300 C1314 0.931 . S
H1301 C1316 0.930 . S
C1302 H1290 0.930 . S
C1302 C1303 1.399 . S
C1302 C1307 1.399 . S
C1303 C1302 1.399 . S
C1303 C1304 1.376 . S
C1304 H1291 0.930 . S
C1304 C1303 1.376 . S
C1304 C1305 1.388 . S
C1305 H1292 0.930 . S
C1305 C1304 1.388 . S
C1305 C1306 1.390 . S
C1306 C1305 1.390 . S
C1306 C1307 1.394 . S
C1306 C1312 1.465 . S
C1307 C1302 1.399 . S
C1307 C1306 1.394 . S
C1307 C1308 1.516 . S
C1308 C1307 1.516 . S
C1308 C1309 1.502 . S
C1308 C1310 1.561 . S
C1308 C1311 1.526 . S
C1309 H1293 0.959 . S
C1309 H1294 0.959 . S
C1309 H1295 0.961 . S
C1309 C1308 1.502 . S
C1310 H1296 0.960 . S
C1310 H1297 0.961 . S
C1310 H1298 0.959 . S
C1310 C1308 1.561 . S
C1311 C1308 1.526 . S
C1311 C1312 1.396 . S
C1311 C1316 1.390 . S
C1312 C1306 1.465 . S
C1312 C1311 1.396 . S
C1312 C1313 1.399 . S
C1313 H1299 0.929 . S
C1313 C1312 1.399 . S
C1313 C1314 1.385 . S
C1314 H1300 0.931 . S
C1314 C1313 1.385 . S
C1314 C1315 1.389 . S
C1315 C1314 1.389 . S
C1315 C1316 1.387 . S
C1316 H1301 0.930 . S
C1316 C1311 1.390 . S
C1316 C1315 1.387 . S
H1317 C1329 0.930 . S
H1318 C1331 0.930 . S
H1319 C1332 0.930 . S
H1320 C1336 0.959 . S
H1321 C1336 0.959 . S
H1322 C1336 0.961 . S
H1323 C1337 0.960 . S
H1324 C1337 0.961 . S
H1325 C1337 0.959 . S
H1326 C1340 0.929 . S
H1327 C1341 0.931 . S
H1328 C1343 0.930 . S
C1329 H1317 0.930 . S
C1329 C1330 1.399 . S
C1329 C1334 1.399 . S
C1330 C1329 1.399 . S
C1330 C1331 1.376 . S
C1331 H1318 0.930 . S
C1331 C1330 1.376 . S
C1331 C1332 1.388 . S
C1332 H1319 0.930 . S
C1332 C1331 1.388 . S
C1332 C1333 1.390 . S
C1333 C1332 1.390 . S
C1333 C1334 1.394 . S
C1333 C1339 1.465 . S
C1334 C1329 1.399 . S
C1334 C1333 1.394 . S
C1334 C1335 1.516 . S
C1335 C1334 1.516 . S
C1335 C1336 1.502 . S
C1335 C1337 1.561 . S
C1335 C1338 1.526 . S
C1336 H1320 0.959 . S
C1336 H1321 0.959 . S
C1336 H1322 0.961 . S
C1336 C1335 1.502 . S
C1337 H1323 0.960 . S
C1337 H1324 0.961 . S
C1337 H1325 0.959 . S
C1337 C1335 1.561 . S
C1338 C1335 1.526 . S
C1338 C1339 1.396 . S
C1338 C1343 1.390 . S
C1339 C1333 1.465 . S
C1339 C1338 1.396 . S
C1339 C1340 1.399 . S
C1340 H1326 0.929 . S
C1340 C1339 1.399 . S
C1340 C1341 1.385 . S
C1341 H1327 0.931 . S
C1341 C1340 1.385 . S
C1341 C1342 1.389 . S
C1342 C1341 1.389 . S
C1342 C1343 1.387 . S
C1343 H1328 0.930 . S
C1343 C1338 1.390 . S
C1343 C1342 1.387 . S
C505 C393 1.304 . S
C493 C8 1.270 . S
C532 C407 1.316 . S
C520 C61 1.261 . S
C559 C415 1.356 . S
C547 C107 1.309 . S
C574 C139 1.332 . S
C586 C373 1.340 . S
C601 C192 1.277 . S
C613 C379 1.274 . S
C628 C238 1.259 . S
C640 C387 1.271 . S
C667 C401 1.374 . S
C655 C284 1.375 . S
C694 C421 1.355 . S
C682 C330 1.341 . S
C709 C100 1.264 . S
C721 C449 1.276 . S
C748 C463 1.379 . S
C736 C160 1.363 . S
C763 C15 1.278 . S
C775 C471 1.280 . S
C802 C435 1.235 . S
C790 C54 1.222 . S
C817 C291 1.346 . S
C829 C429 1.355 . S
C844 C337 1.306 . S
C856 C443 1.375 . S
C883 C457 1.368 . S
C871 C199 1.360 . S
C898 C245 1.336 . S
C910 C477 1.356 . S
C937 C396 1.689 . S
C925 C1 1.687 . S
C964 C419 1.681 . S
C952 C68 1.711 . S
C979 C114 1.693 . S
C991 C377 1.737 . S
C1006 C146 1.741 . S
C1018 C382 1.716 . S
C1033 C185 1.632 . S
C1045 C410 1.541 . S
C1072 C368 1.558 . S
C1060 C231 1.651 . S
C1099 C391 1.648 . S
C1087 C277 1.642 . S
C1126 C405 1.614 . S
C1114 C323 1.661 . S
C1153 C452 1.547 . S
C1141 C93 1.627 . S
C1180 C475 1.630 . S
C1168 C153 1.616 . S
C1195 C22 1.630 . S
C1207 C424 1.539 . S
C1234 C438 1.548 . S
C1222 C47 1.603 . S
C1261 C466 1.724 . S
C1249 C298 1.716 . S
C1276 C344 1.720 . S
C1288 C433 1.742 . S
C1315 C447 1.743 . S
C1303 C206 1.697 . S
C1342 C461 1.720 . S
C1330 C252 1.678 . S
