# Generated by pormake.
# Topology ana-f, (3,3)-cn, num edge types: 1
# Building blocks:
#     Node 0, Type 0, BuildingBlock: OLANEW_clean_sbu_2, # of connection points: 3
#     Node 1, Type 0, BuildingBlock: OLANEW_clean_sbu_2, # of connection points: 3
#     Node 2, Type 0, BuildingBlock: OLANEW_clean_sbu_2, # of connection points: 3
#     Node 3, Type 0, BuildingBlock: OLANEW_clean_sbu_2, # of connection points: 3
#     Node 4, Type 0, BuildingBlock: OLANEW_clean_sbu_2, # of connection points: 3
#     Node 5, Type 0, BuildingBlock: OLANEW_clean_sbu_2, # of connection points: 3
#     Node 6, Type 0, BuildingBlock: OLANEW_clean_sbu_2, # of connection points: 3
#     Node 7, Type 0, BuildingBlock: OLANEW_clean_sbu_2, # of connection points: 3
#     Node 8, Type 0, BuildingBlock: OLANEW_clean_sbu_2, # of connection points: 3
#     Node 9, Type 0, BuildingBlock: OLANEW_clean_sbu_2, # of connection points: 3
#     Node 10, Type 0, BuildingBlock: OLANEW_clean_sbu_2, # of connection points: 3
#     Node 11, Type 0, BuildingBlock: OLANEW_clean_sbu_2, # of connection points: 3
#     Node 12, Type 0, BuildingBlock: OLANEW_clean_sbu_2, # of connection points: 3
#     Node 13, Type 0, BuildingBlock: OLANEW_clean_sbu_2, # of connection points: 3
#     Node 14, Type 0, BuildingBlock: OLANEW_clean_sbu_2, # of connection points: 3
#     Node 15, Type 0, BuildingBlock: OLANEW_clean_sbu_2, # of connection points: 3
#     Node 16, Type 0, BuildingBlock: OLANEW_clean_sbu_2, # of connection points: 3
#     Node 17, Type 0, BuildingBlock: OLANEW_clean_sbu_2, # of connection points: 3
#     Node 18, Type 0, BuildingBlock: OLANEW_clean_sbu_2, # of connection points: 3
#     Node 19, Type 0, BuildingBlock: OLANEW_clean_sbu_2, # of connection points: 3
#     Node 20, Type 0, BuildingBlock: OLANEW_clean_sbu_2, # of connection points: 3
#     Node 21, Type 0, BuildingBlock: OLANEW_clean_sbu_2, # of connection points: 3
#     Node 22, Type 0, BuildingBlock: OLANEW_clean_sbu_2, # of connection points: 3
#     Node 23, Type 0, BuildingBlock: OLANEW_clean_sbu_2, # of connection points: 3
#     Node 24, Type 0, BuildingBlock: OLANEW_clean_sbu_2, # of connection points: 3
#     Node 25, Type 0, BuildingBlock: OLANEW_clean_sbu_2, # of connection points: 3
#     Node 26, Type 0, BuildingBlock: OLANEW_clean_sbu_2, # of connection points: 3
#     Node 27, Type 0, BuildingBlock: OLANEW_clean_sbu_2, # of connection points: 3
#     Node 28, Type 0, BuildingBlock: OLANEW_clean_sbu_2, # of connection points: 3
#     Node 29, Type 0, BuildingBlock: OLANEW_clean_sbu_2, # of connection points: 3
#     Node 30, Type 0, BuildingBlock: OLANEW_clean_sbu_2, # of connection points: 3
#     Node 31, Type 0, BuildingBlock: OLANEW_clean_sbu_2, # of connection points: 3
#     Node 32, Type 0, BuildingBlock: OLANEW_clean_sbu_2, # of connection points: 3
#     Node 33, Type 0, BuildingBlock: OLANEW_clean_sbu_2, # of connection points: 3
#     Node 34, Type 0, BuildingBlock: OLANEW_clean_sbu_2, # of connection points: 3
#     Node 35, Type 0, BuildingBlock: OLANEW_clean_sbu_2, # of connection points: 3
#     Node 36, Type 0, BuildingBlock: OLANEW_clean_sbu_2, # of connection points: 3
#     Node 37, Type 0, BuildingBlock: OLANEW_clean_sbu_2, # of connection points: 3
#     Node 38, Type 0, BuildingBlock: OLANEW_clean_sbu_2, # of connection points: 3
#     Node 39, Type 0, BuildingBlock: OLANEW_clean_sbu_2, # of connection points: 3
#     Node 40, Type 0, BuildingBlock: OLANEW_clean_sbu_2, # of connection points: 3
#     Node 41, Type 0, BuildingBlock: OLANEW_clean_sbu_2, # of connection points: 3
#     Node 42, Type 0, BuildingBlock: OLANEW_clean_sbu_2, # of connection points: 3
#     Node 43, Type 0, BuildingBlock: OLANEW_clean_sbu_2, # of connection points: 3
#     Node 44, Type 0, BuildingBlock: OLANEW_clean_sbu_2, # of connection points: 3
#     Node 45, Type 0, BuildingBlock: OLANEW_clean_sbu_2, # of connection points: 3
#     Node 46, Type 0, BuildingBlock: OLANEW_clean_sbu_2, # of connection points: 3
#     Node 47, Type 0, BuildingBlock: OLANEW_clean_sbu_2, # of connection points: 3
#     Node 48, Type 0, BuildingBlock: OLANEW_clean_sbu_2, # of connection points: 3
#     Node 49, Type 0, BuildingBlock: OLANEW_clean_sbu_2, # of connection points: 3
#     Node 50, Type 0, BuildingBlock: OLANEW_clean_sbu_2, # of connection points: 3
#     Node 51, Type 0, BuildingBlock: OLANEW_clean_sbu_2, # of connection points: 3
#     Node 52, Type 0, BuildingBlock: OLANEW_clean_sbu_2, # of connection points: 3
#     Node 53, Type 0, BuildingBlock: OLANEW_clean_sbu_2, # of connection points: 3
#     Node 54, Type 0, BuildingBlock: OLANEW_clean_sbu_2, # of connection points: 3
#     Node 55, Type 0, BuildingBlock: OLANEW_clean_sbu_2, # of connection points: 3
#     Node 56, Type 0, BuildingBlock: OLANEW_clean_sbu_2, # of connection points: 3
#     Node 57, Type 0, BuildingBlock: OLANEW_clean_sbu_2, # of connection points: 3
#     Node 58, Type 0, BuildingBlock: OLANEW_clean_sbu_2, # of connection points: 3
#     Node 59, Type 0, BuildingBlock: OLANEW_clean_sbu_2, # of connection points: 3
#     Node 60, Type 0, BuildingBlock: OLANEW_clean_sbu_2, # of connection points: 3
#     Node 61, Type 0, BuildingBlock: OLANEW_clean_sbu_2, # of connection points: 3
#     Node 62, Type 0, BuildingBlock: OLANEW_clean_sbu_2, # of connection points: 3
#     Node 63, Type 0, BuildingBlock: OLANEW_clean_sbu_2, # of connection points: 3
#     Node 64, Type 0, BuildingBlock: OLANEW_clean_sbu_2, # of connection points: 3
#     Node 65, Type 0, BuildingBlock: OLANEW_clean_sbu_2, # of connection points: 3
#     Node 66, Type 0, BuildingBlock: OLANEW_clean_sbu_2, # of connection points: 3
#     Node 67, Type 0, BuildingBlock: OLANEW_clean_sbu_2, # of connection points: 3
#     Node 68, Type 0, BuildingBlock: OLANEW_clean_sbu_2, # of connection points: 3
#     Node 69, Type 0, BuildingBlock: OLANEW_clean_sbu_2, # of connection points: 3
#     Node 70, Type 0, BuildingBlock: OLANEW_clean_sbu_2, # of connection points: 3
#     Node 71, Type 0, BuildingBlock: OLANEW_clean_sbu_2, # of connection points: 3
#     Node 72, Type 0, BuildingBlock: OLANEW_clean_sbu_2, # of connection points: 3
#     Node 73, Type 0, BuildingBlock: OLANEW_clean_sbu_2, # of connection points: 3
#     Node 74, Type 0, BuildingBlock: OLANEW_clean_sbu_2, # of connection points: 3
#     Node 75, Type 0, BuildingBlock: OLANEW_clean_sbu_2, # of connection points: 3
#     Node 76, Type 0, BuildingBlock: OLANEW_clean_sbu_2, # of connection points: 3
#     Node 77, Type 0, BuildingBlock: OLANEW_clean_sbu_2, # of connection points: 3
#     Node 78, Type 0, BuildingBlock: OLANEW_clean_sbu_2, # of connection points: 3
#     Node 79, Type 0, BuildingBlock: OLANEW_clean_sbu_2, # of connection points: 3
#     Node 80, Type 0, BuildingBlock: OLANEW_clean_sbu_2, # of connection points: 3
#     Node 81, Type 0, BuildingBlock: OLANEW_clean_sbu_2, # of connection points: 3
#     Node 82, Type 0, BuildingBlock: OLANEW_clean_sbu_2, # of connection points: 3
#     Node 83, Type 0, BuildingBlock: OLANEW_clean_sbu_2, # of connection points: 3
#     Node 84, Type 0, BuildingBlock: OLANEW_clean_sbu_2, # of connection points: 3
#     Node 85, Type 0, BuildingBlock: OLANEW_clean_sbu_2, # of connection points: 3
#     Node 86, Type 0, BuildingBlock: OLANEW_clean_sbu_2, # of connection points: 3
#     Node 87, Type 0, BuildingBlock: OLANEW_clean_sbu_2, # of connection points: 3
#     Node 88, Type 0, BuildingBlock: OLANEW_clean_sbu_2, # of connection points: 3
#     Node 89, Type 0, BuildingBlock: OLANEW_clean_sbu_2, # of connection points: 3
#     Node 90, Type 0, BuildingBlock: OLANEW_clean_sbu_2, # of connection points: 3
#     Node 91, Type 0, BuildingBlock: OLANEW_clean_sbu_2, # of connection points: 3
#     Node 92, Type 0, BuildingBlock: OLANEW_clean_sbu_2, # of connection points: 3
#     Node 93, Type 0, BuildingBlock: OLANEW_clean_sbu_2, # of connection points: 3
#     Node 94, Type 0, BuildingBlock: OLANEW_clean_sbu_2, # of connection points: 3
#     Node 95, Type 0, BuildingBlock: OLANEW_clean_sbu_2, # of connection points: 3
#     Node 96, Type 1, BuildingBlock: CUQRIR_clean_linker_1, # of connection points: 3
#     Node 97, Type 1, BuildingBlock: CUQRIR_clean_linker_1, # of connection points: 3
#     Node 98, Type 1, BuildingBlock: CUQRIR_clean_linker_1, # of connection points: 3
#     Node 99, Type 1, BuildingBlock: CUQRIR_clean_linker_1, # of connection points: 3
#     Node 100, Type 1, BuildingBlock: CUQRIR_clean_linker_1, # of connection points: 3
#     Node 101, Type 1, BuildingBlock: CUQRIR_clean_linker_1, # of connection points: 3
#     Node 102, Type 1, BuildingBlock: CUQRIR_clean_linker_1, # of connection points: 3
#     Node 103, Type 1, BuildingBlock: CUQRIR_clean_linker_1, # of connection points: 3
#     Node 104, Type 1, BuildingBlock: CUQRIR_clean_linker_1, # of connection points: 3
#     Node 105, Type 1, BuildingBlock: CUQRIR_clean_linker_1, # of connection points: 3
#     Node 106, Type 1, BuildingBlock: CUQRIR_clean_linker_1, # of connection points: 3
#     Node 107, Type 1, BuildingBlock: CUQRIR_clean_linker_1, # of connection points: 3
#     Node 108, Type 1, BuildingBlock: CUQRIR_clean_linker_1, # of connection points: 3
#     Node 109, Type 1, BuildingBlock: CUQRIR_clean_linker_1, # of connection points: 3
#     Node 110, Type 1, BuildingBlock: CUQRIR_clean_linker_1, # of connection points: 3
#     Node 111, Type 1, BuildingBlock: CUQRIR_clean_linker_1, # of connection points: 3
#     Node 112, Type 1, BuildingBlock: CUQRIR_clean_linker_1, # of connection points: 3
#     Node 113, Type 1, BuildingBlock: CUQRIR_clean_linker_1, # of connection points: 3
#     Node 114, Type 1, BuildingBlock: CUQRIR_clean_linker_1, # of connection points: 3
#     Node 115, Type 1, BuildingBlock: CUQRIR_clean_linker_1, # of connection points: 3
#     Node 116, Type 1, BuildingBlock: CUQRIR_clean_linker_1, # of connection points: 3
#     Node 117, Type 1, BuildingBlock: CUQRIR_clean_linker_1, # of connection points: 3
#     Node 118, Type 1, BuildingBlock: CUQRIR_clean_linker_1, # of connection points: 3
#     Node 119, Type 1, BuildingBlock: CUQRIR_clean_linker_1, # of connection points: 3
#     Node 120, Type 1, BuildingBlock: CUQRIR_clean_linker_1, # of connection points: 3
#     Node 121, Type 1, BuildingBlock: CUQRIR_clean_linker_1, # of connection points: 3
#     Node 122, Type 1, BuildingBlock: CUQRIR_clean_linker_1, # of connection points: 3
#     Node 123, Type 1, BuildingBlock: CUQRIR_clean_linker_1, # of connection points: 3
#     Node 124, Type 1, BuildingBlock: CUQRIR_clean_linker_1, # of connection points: 3
#     Node 125, Type 1, BuildingBlock: CUQRIR_clean_linker_1, # of connection points: 3
#     Node 126, Type 1, BuildingBlock: CUQRIR_clean_linker_1, # of connection points: 3
#     Node 127, Type 1, BuildingBlock: CUQRIR_clean_linker_1, # of connection points: 3
#     Node 128, Type 1, BuildingBlock: CUQRIR_clean_linker_1, # of connection points: 3
#     Node 129, Type 1, BuildingBlock: CUQRIR_clean_linker_1, # of connection points: 3
#     Node 130, Type 1, BuildingBlock: CUQRIR_clean_linker_1, # of connection points: 3
#     Node 131, Type 1, BuildingBlock: CUQRIR_clean_linker_1, # of connection points: 3
#     Node 132, Type 1, BuildingBlock: CUQRIR_clean_linker_1, # of connection points: 3
#     Node 133, Type 1, BuildingBlock: CUQRIR_clean_linker_1, # of connection points: 3
#     Node 134, Type 1, BuildingBlock: CUQRIR_clean_linker_1, # of connection points: 3
#     Node 135, Type 1, BuildingBlock: CUQRIR_clean_linker_1, # of connection points: 3
#     Node 136, Type 1, BuildingBlock: CUQRIR_clean_linker_1, # of connection points: 3
#     Node 137, Type 1, BuildingBlock: CUQRIR_clean_linker_1, # of connection points: 3
#     Node 138, Type 1, BuildingBlock: CUQRIR_clean_linker_1, # of connection points: 3
#     Node 139, Type 1, BuildingBlock: CUQRIR_clean_linker_1, # of connection points: 3
#     Node 140, Type 1, BuildingBlock: CUQRIR_clean_linker_1, # of connection points: 3
#     Node 141, Type 1, BuildingBlock: CUQRIR_clean_linker_1, # of connection points: 3
#     Node 142, Type 1, BuildingBlock: CUQRIR_clean_linker_1, # of connection points: 3
#     Node 143, Type 1, BuildingBlock: CUQRIR_clean_linker_1, # of connection points: 3
#     Node 144, Type 1, BuildingBlock: CUQRIR_clean_linker_1, # of connection points: 3
#     Node 145, Type 1, BuildingBlock: CUQRIR_clean_linker_1, # of connection points: 3
#     Node 146, Type 1, BuildingBlock: CUQRIR_clean_linker_1, # of connection points: 3
#     Node 147, Type 1, BuildingBlock: CUQRIR_clean_linker_1, # of connection points: 3
#     Node 148, Type 1, BuildingBlock: CUQRIR_clean_linker_1, # of connection points: 3
#     Node 149, Type 1, BuildingBlock: CUQRIR_clean_linker_1, # of connection points: 3
#     Node 150, Type 1, BuildingBlock: CUQRIR_clean_linker_1, # of connection points: 3
#     Node 151, Type 1, BuildingBlock: CUQRIR_clean_linker_1, # of connection points: 3
#     Node 152, Type 1, BuildingBlock: CUQRIR_clean_linker_1, # of connection points: 3
#     Node 153, Type 1, BuildingBlock: CUQRIR_clean_linker_1, # of connection points: 3
#     Node 154, Type 1, BuildingBlock: CUQRIR_clean_linker_1, # of connection points: 3
#     Node 155, Type 1, BuildingBlock: CUQRIR_clean_linker_1, # of connection points: 3
#     Node 156, Type 1, BuildingBlock: CUQRIR_clean_linker_1, # of connection points: 3
#     Node 157, Type 1, BuildingBlock: CUQRIR_clean_linker_1, # of connection points: 3
#     Node 158, Type 1, BuildingBlock: CUQRIR_clean_linker_1, # of connection points: 3
#     Node 159, Type 1, BuildingBlock: CUQRIR_clean_linker_1, # of connection points: 3
#     Node 160, Type 1, BuildingBlock: CUQRIR_clean_linker_1, # of connection points: 3
#     Node 161, Type 1, BuildingBlock: CUQRIR_clean_linker_1, # of connection points: 3
#     Node 162, Type 1, BuildingBlock: CUQRIR_clean_linker_1, # of connection points: 3
#     Node 163, Type 1, BuildingBlock: CUQRIR_clean_linker_1, # of connection points: 3
#     Node 164, Type 1, BuildingBlock: CUQRIR_clean_linker_1, # of connection points: 3
#     Node 165, Type 1, BuildingBlock: CUQRIR_clean_linker_1, # of connection points: 3
#     Node 166, Type 1, BuildingBlock: CUQRIR_clean_linker_1, # of connection points: 3
#     Node 167, Type 1, BuildingBlock: CUQRIR_clean_linker_1, # of connection points: 3
#     Node 168, Type 1, BuildingBlock: CUQRIR_clean_linker_1, # of connection points: 3
#     Node 169, Type 1, BuildingBlock: CUQRIR_clean_linker_1, # of connection points: 3
#     Node 170, Type 1, BuildingBlock: CUQRIR_clean_linker_1, # of connection points: 3
#     Node 171, Type 1, BuildingBlock: CUQRIR_clean_linker_1, # of connection points: 3
#     Node 172, Type 1, BuildingBlock: CUQRIR_clean_linker_1, # of connection points: 3
#     Node 173, Type 1, BuildingBlock: CUQRIR_clean_linker_1, # of connection points: 3
#     Node 174, Type 1, BuildingBlock: CUQRIR_clean_linker_1, # of connection points: 3
#     Node 175, Type 1, BuildingBlock: CUQRIR_clean_linker_1, # of connection points: 3
#     Node 176, Type 1, BuildingBlock: CUQRIR_clean_linker_1, # of connection points: 3
#     Node 177, Type 1, BuildingBlock: CUQRIR_clean_linker_1, # of connection points: 3
#     Node 178, Type 1, BuildingBlock: CUQRIR_clean_linker_1, # of connection points: 3
#     Node 179, Type 1, BuildingBlock: CUQRIR_clean_linker_1, # of connection points: 3
#     Node 180, Type 1, BuildingBlock: CUQRIR_clean_linker_1, # of connection points: 3
#     Node 181, Type 1, BuildingBlock: CUQRIR_clean_linker_1, # of connection points: 3
#     Node 182, Type 1, BuildingBlock: CUQRIR_clean_linker_1, # of connection points: 3
#     Node 183, Type 1, BuildingBlock: CUQRIR_clean_linker_1, # of connection points: 3
#     Node 184, Type 1, BuildingBlock: CUQRIR_clean_linker_1, # of connection points: 3
#     Node 185, Type 1, BuildingBlock: CUQRIR_clean_linker_1, # of connection points: 3
#     Node 186, Type 1, BuildingBlock: CUQRIR_clean_linker_1, # of connection points: 3
#     Node 187, Type 1, BuildingBlock: CUQRIR_clean_linker_1, # of connection points: 3
#     Node 188, Type 1, BuildingBlock: CUQRIR_clean_linker_1, # of connection points: 3
#     Node 189, Type 1, BuildingBlock: CUQRIR_clean_linker_1, # of connection points: 3
#     Node 190, Type 1, BuildingBlock: CUQRIR_clean_linker_1, # of connection points: 3
#     Node 191, Type 1, BuildingBlock: CUQRIR_clean_linker_1, # of connection points: 3
#     Edge 192, Type (0, 1), None
#     Edge 193, Type (0, 1), None
#     Edge 194, Type (0, 1), None
#     Edge 195, Type (0, 1), None
#     Edge 196, Type (0, 1), None
#     Edge 197, Type (0, 1), None
#     Edge 198, Type (0, 1), None
#     Edge 199, Type (0, 1), None
#     Edge 200, Type (0, 1), None
#     Edge 201, Type (0, 1), None
#     Edge 202, Type (0, 1), None
#     Edge 203, Type (0, 1), None
#     Edge 204, Type (0, 1), None
#     Edge 205, Type (0, 1), None
#     Edge 206, Type (0, 1), None
#     Edge 207, Type (0, 1), None
#     Edge 208, Type (0, 1), None
#     Edge 209, Type (0, 1), None
#     Edge 210, Type (0, 1), None
#     Edge 211, Type (0, 1), None
#     Edge 212, Type (0, 1), None
#     Edge 213, Type (0, 1), None
#     Edge 214, Type (0, 1), None
#     Edge 215, Type (0, 1), None
#     Edge 216, Type (0, 1), None
#     Edge 217, Type (0, 1), None
#     Edge 218, Type (0, 1), None
#     Edge 219, Type (0, 1), None
#     Edge 220, Type (0, 1), None
#     Edge 221, Type (0, 1), None
#     Edge 222, Type (0, 1), None
#     Edge 223, Type (0, 1), None
#     Edge 224, Type (0, 1), None
#     Edge 225, Type (0, 1), None
#     Edge 226, Type (0, 1), None
#     Edge 227, Type (0, 1), None
#     Edge 228, Type (0, 1), None
#     Edge 229, Type (0, 1), None
#     Edge 230, Type (0, 1), None
#     Edge 231, Type (0, 1), None
#     Edge 232, Type (0, 1), None
#     Edge 233, Type (0, 1), None
#     Edge 234, Type (0, 1), None
#     Edge 235, Type (0, 1), None
#     Edge 236, Type (0, 1), None
#     Edge 237, Type (0, 1), None
#     Edge 238, Type (0, 1), None
#     Edge 239, Type (0, 1), None
#     Edge 240, Type (0, 1), None
#     Edge 241, Type (0, 1), None
#     Edge 242, Type (0, 1), None
#     Edge 243, Type (0, 1), None
#     Edge 244, Type (0, 1), None
#     Edge 245, Type (0, 1), None
#     Edge 246, Type (0, 1), None
#     Edge 247, Type (0, 1), None
#     Edge 248, Type (0, 1), None
#     Edge 249, Type (0, 1), None
#     Edge 250, Type (0, 1), None
#     Edge 251, Type (0, 1), None
#     Edge 252, Type (0, 1), None
#     Edge 253, Type (0, 1), None
#     Edge 254, Type (0, 1), None
#     Edge 255, Type (0, 1), None
#     Edge 256, Type (0, 1), None
#     Edge 257, Type (0, 1), None
#     Edge 258, Type (0, 1), None
#     Edge 259, Type (0, 1), None
#     Edge 260, Type (0, 1), None
#     Edge 261, Type (0, 1), None
#     Edge 262, Type (0, 1), None
#     Edge 263, Type (0, 1), None
#     Edge 264, Type (0, 1), None
#     Edge 265, Type (0, 1), None
#     Edge 266, Type (0, 1), None
#     Edge 267, Type (0, 1), None
#     Edge 268, Type (0, 1), None
#     Edge 269, Type (0, 1), None
#     Edge 270, Type (0, 1), None
#     Edge 271, Type (0, 1), None
#     Edge 272, Type (0, 1), None
#     Edge 273, Type (0, 1), None
#     Edge 274, Type (0, 1), None
#     Edge 275, Type (0, 1), None
#     Edge 276, Type (0, 1), None
#     Edge 277, Type (0, 1), None
#     Edge 278, Type (0, 1), None
#     Edge 279, Type (0, 1), None
#     Edge 280, Type (0, 1), None
#     Edge 281, Type (0, 1), None
#     Edge 282, Type (0, 1), None
#     Edge 283, Type (0, 1), None
#     Edge 284, Type (0, 1), None
#     Edge 285, Type (0, 1), None
#     Edge 286, Type (0, 1), None
#     Edge 287, Type (0, 1), None
#     Edge 288, Type (0, 1), None
#     Edge 289, Type (0, 1), None
#     Edge 290, Type (0, 1), None
#     Edge 291, Type (0, 1), None
#     Edge 292, Type (0, 1), None
#     Edge 293, Type (0, 1), None
#     Edge 294, Type (0, 1), None
#     Edge 295, Type (0, 1), None
#     Edge 296, Type (0, 1), None
#     Edge 297, Type (0, 1), None
#     Edge 298, Type (0, 1), None
#     Edge 299, Type (0, 1), None
#     Edge 300, Type (0, 1), None
#     Edge 301, Type (0, 1), None
#     Edge 302, Type (0, 1), None
#     Edge 303, Type (0, 1), None
#     Edge 304, Type (0, 1), None
#     Edge 305, Type (0, 1), None
#     Edge 306, Type (0, 1), None
#     Edge 307, Type (0, 1), None
#     Edge 308, Type (0, 1), None
#     Edge 309, Type (0, 1), None
#     Edge 310, Type (0, 1), None
#     Edge 311, Type (0, 1), None
#     Edge 312, Type (0, 1), None
#     Edge 313, Type (0, 1), None
#     Edge 314, Type (0, 1), None
#     Edge 315, Type (0, 1), None
#     Edge 316, Type (0, 1), None
#     Edge 317, Type (0, 1), None
#     Edge 318, Type (0, 1), None
#     Edge 319, Type (0, 1), None
#     Edge 320, Type (0, 1), None
#     Edge 321, Type (0, 1), None
#     Edge 322, Type (0, 1), None
#     Edge 323, Type (0, 1), None
#     Edge 324, Type (0, 1), None
#     Edge 325, Type (0, 1), None
#     Edge 326, Type (0, 1), None
#     Edge 327, Type (0, 1), None
#     Edge 328, Type (0, 1), None
#     Edge 329, Type (0, 1), None
#     Edge 330, Type (0, 1), None
#     Edge 331, Type (0, 1), None
#     Edge 332, Type (0, 1), None
#     Edge 333, Type (0, 1), None
#     Edge 334, Type (0, 1), None
#     Edge 335, Type (0, 1), None
#     Edge 336, Type (0, 1), None
#     Edge 337, Type (0, 1), None
#     Edge 338, Type (0, 1), None
#     Edge 339, Type (0, 1), None
#     Edge 340, Type (0, 1), None
#     Edge 341, Type (0, 1), None
#     Edge 342, Type (0, 1), None
#     Edge 343, Type (0, 1), None
#     Edge 344, Type (0, 1), None
#     Edge 345, Type (0, 1), None
#     Edge 346, Type (0, 1), None
#     Edge 347, Type (0, 1), None
#     Edge 348, Type (0, 1), None
#     Edge 349, Type (0, 1), None
#     Edge 350, Type (0, 1), None
#     Edge 351, Type (0, 1), None
#     Edge 352, Type (0, 1), None
#     Edge 353, Type (0, 1), None
#     Edge 354, Type (0, 1), None
#     Edge 355, Type (0, 1), None
#     Edge 356, Type (0, 1), None
#     Edge 357, Type (0, 1), None
#     Edge 358, Type (0, 1), None
#     Edge 359, Type (0, 1), None
#     Edge 360, Type (0, 1), None
#     Edge 361, Type (0, 1), None
#     Edge 362, Type (0, 1), None
#     Edge 363, Type (0, 1), None
#     Edge 364, Type (0, 1), None
#     Edge 365, Type (0, 1), None
#     Edge 366, Type (0, 1), None
#     Edge 367, Type (0, 1), None
#     Edge 368, Type (0, 1), None
#     Edge 369, Type (0, 1), None
#     Edge 370, Type (0, 1), None
#     Edge 371, Type (0, 1), None
#     Edge 372, Type (0, 1), None
#     Edge 373, Type (0, 1), None
#     Edge 374, Type (0, 1), None
#     Edge 375, Type (0, 1), None
#     Edge 376, Type (0, 1), None
#     Edge 377, Type (0, 1), None
#     Edge 378, Type (0, 1), None
#     Edge 379, Type (0, 1), None
#     Edge 380, Type (0, 1), None
#     Edge 381, Type (0, 1), None
#     Edge 382, Type (0, 1), None
#     Edge 383, Type (0, 1), None
#     Edge 384, Type (0, 1), None
#     Edge 385, Type (0, 1), None
#     Edge 386, Type (0, 1), None
#     Edge 387, Type (0, 1), None
#     Edge 388, Type (0, 1), None
#     Edge 389, Type (0, 1), None
#     Edge 390, Type (0, 1), None
#     Edge 391, Type (0, 1), None
#     Edge 392, Type (0, 1), None
#     Edge 393, Type (0, 1), None
#     Edge 394, Type (0, 1), None
#     Edge 395, Type (0, 1), None
#     Edge 396, Type (0, 1), None
#     Edge 397, Type (0, 1), None
#     Edge 398, Type (0, 1), None
#     Edge 399, Type (0, 1), None
#     Edge 400, Type (0, 1), None
#     Edge 401, Type (0, 1), None
#     Edge 402, Type (0, 1), None
#     Edge 403, Type (0, 1), None
#     Edge 404, Type (0, 1), None
#     Edge 405, Type (0, 1), None
#     Edge 406, Type (0, 1), None
#     Edge 407, Type (0, 1), None
#     Edge 408, Type (0, 1), None
#     Edge 409, Type (0, 1), None
#     Edge 410, Type (0, 1), None
#     Edge 411, Type (0, 1), None
#     Edge 412, Type (0, 1), None
#     Edge 413, Type (0, 1), None
#     Edge 414, Type (0, 1), None
#     Edge 415, Type (0, 1), None
#     Edge 416, Type (0, 1), None
#     Edge 417, Type (0, 1), None
#     Edge 418, Type (0, 1), None
#     Edge 419, Type (0, 1), None
#     Edge 420, Type (0, 1), None
#     Edge 421, Type (0, 1), None
#     Edge 422, Type (0, 1), None
#     Edge 423, Type (0, 1), None
#     Edge 424, Type (0, 1), None
#     Edge 425, Type (0, 1), None
#     Edge 426, Type (0, 1), None
#     Edge 427, Type (0, 1), None
#     Edge 428, Type (0, 1), None
#     Edge 429, Type (0, 1), None
#     Edge 430, Type (0, 1), None
#     Edge 431, Type (0, 1), None
#     Edge 432, Type (0, 1), None
#     Edge 433, Type (0, 1), None
#     Edge 434, Type (0, 1), None
#     Edge 435, Type (0, 1), None
#     Edge 436, Type (0, 1), None
#     Edge 437, Type (0, 1), None
#     Edge 438, Type (0, 1), None
#     Edge 439, Type (0, 1), None
#     Edge 440, Type (0, 1), None
#     Edge 441, Type (0, 1), None
#     Edge 442, Type (0, 1), None
#     Edge 443, Type (0, 1), None
#     Edge 444, Type (0, 1), None
#     Edge 445, Type (0, 1), None
#     Edge 446, Type (0, 1), None
#     Edge 447, Type (0, 1), None
#     Edge 448, Type (0, 1), None
#     Edge 449, Type (0, 1), None
#     Edge 450, Type (0, 1), None
#     Edge 451, Type (0, 1), None
#     Edge 452, Type (0, 1), None
#     Edge 453, Type (0, 1), None
#     Edge 454, Type (0, 1), None
#     Edge 455, Type (0, 1), None
#     Edge 456, Type (0, 1), None
#     Edge 457, Type (0, 1), None
#     Edge 458, Type (0, 1), None
#     Edge 459, Type (0, 1), None
#     Edge 460, Type (0, 1), None
#     Edge 461, Type (0, 1), None
#     Edge 462, Type (0, 1), None
#     Edge 463, Type (0, 1), None
#     Edge 464, Type (0, 1), None
#     Edge 465, Type (0, 1), None
#     Edge 466, Type (0, 1), None
#     Edge 467, Type (0, 1), None
#     Edge 468, Type (0, 1), None
#     Edge 469, Type (0, 1), None
#     Edge 470, Type (0, 1), None
#     Edge 471, Type (0, 1), None
#     Edge 472, Type (0, 1), None
#     Edge 473, Type (0, 1), None
#     Edge 474, Type (0, 1), None
#     Edge 475, Type (0, 1), None
#     Edge 476, Type (0, 1), None
#     Edge 477, Type (0, 1), None
#     Edge 478, Type (0, 1), None
#     Edge 479, Type (0, 1), None
# Relax obj value: 0.002
# Max RMSD: 0.038
# Mean RMSD: 0.030
data_MOF--net-ana-f--node1-OLANEW_clean_sbu_2--node2-CUQRIR_clean_linker_1--edge1-none
_symmetry_space_group_name_H-M    P1
_symmetry_Int_Tables_number       1
_symmetry_cell_setting            triclinic
loop_
_symmetry_equiv_pos_as_xyz
'x, y, z'
_cell_length_a     59.642027
_cell_length_b     59.670606
_cell_length_c     59.654524
_cell_angle_alpha  90.024373
_cell_angle_beta   90.000142
_cell_angle_gamma 89.999895
loop_
_atom_site_label
_atom_site_type_symbol
_atom_site_fract_x
_atom_site_fract_y
_atom_site_fract_z
_atom_type_partial_charge
O0 O 0.0651 0.19177 0.40286 0.0
Cd1 Cd 0.04421 0.16609 0.42688 0.0
O2 O 0.08777 0.16582 0.38999 0.0
Cd3 Cd 0.0783 0.14057 0.41489 0.0
O4 O 0.0984 0.12068 0.43828 0.0
C5 C 0.11774 0.12939 0.44016 0.0
O6 O 0.12092 0.14896 0.43076 0.0
C7 C 0.0809 0.18598 0.38979 0.0
C8 C 0.00583 0.15403 0.40313 0.0
O9 O 0.00659 0.17206 0.41477 0.0
O10 O 0.02306 0.14119 0.40352 0.0
O11 O 0.05502 0.81499 0.65203 0.0
Cd12 Cd 0.0803 0.79427 0.67663 0.0
O13 O 0.08113 0.83762 0.63942 0.0
Cd14 Cd 0.10612 0.82819 0.6646 0.0
O15 O 0.12586 0.84835 0.68806 0.0
C16 C 0.11709 0.86764 0.69004 0.0
O17 O 0.09748 0.87081 0.6807 0.0
C18 C 0.06097 0.83074 0.63899 0.0
C19 C 0.09255 0.75553 0.65358 0.0
O20 O 0.07439 0.75649 0.665 0.0
O21 O 0.1054 0.77275 0.65385 0.0
O22 O 0.432 0.80522 0.90195 0.0
Cd23 Cd 0.45253 0.83074 0.92648 0.0
O24 O 0.40948 0.83126 0.88899 0.0
Cd25 Cd 0.41881 0.85628 0.91415 0.0
O26 O 0.39866 0.87571 0.93787 0.0
C27 C 0.37949 0.86672 0.94007 0.0
O28 O 0.37643 0.84707 0.93079 0.0
C29 C 0.41634 0.81109 0.88875 0.0
C30 C 0.49128 0.843 0.90348 0.0
O31 O 0.49036 0.82492 0.91501 0.0
O32 O 0.47402 0.8558 0.90363 0.0
O33 O 0.4416 0.18176 0.15194 0.0
Cd34 Cd 0.41614 0.20264 0.17622 0.0
O35 O 0.41556 0.15914 0.13916 0.0
Cd36 Cd 0.39045 0.16859 0.1642 0.0
O37 O 0.37068 0.14849 0.18768 0.0
C38 C 0.37949 0.12922 0.18976 0.0
O39 O 0.39914 0.12607 0.1805 0.0
C40 C 0.43574 0.16599 0.13888 0.0
C41 C 0.40413 0.24117 0.15275 0.0
O42 O 0.42221 0.24029 0.1643 0.0
O43 O 0.39122 0.224 0.1531 0.0
O44 O 0.0651 0.80529 0.09417 0.0
Cd45 Cd 0.04422 0.83096 0.07014 0.0
O46 O 0.08777 0.83124 0.10704 0.0
Cd47 Cd 0.07829 0.85649 0.08214 0.0
O48 O 0.0984 0.87638 0.05875 0.0
C49 C 0.11773 0.86767 0.05687 0.0
O50 O 0.12091 0.8481 0.06627 0.0
C51 C 0.08089 0.81108 0.10725 0.0
C52 C 0.00583 0.84303 0.09387 0.0
O53 O 0.00659 0.82501 0.08223 0.0
O54 O 0.02305 0.85588 0.09348 0.0
O55 O 0.4416 0.81531 0.34508 0.0
Cd56 Cd 0.41614 0.79443 0.32081 0.0
O57 O 0.41556 0.83794 0.35787 0.0
Cd58 Cd 0.39045 0.82848 0.33282 0.0
O59 O 0.37068 0.84859 0.30934 0.0
C60 C 0.37949 0.86785 0.30726 0.0
O61 O 0.39914 0.87101 0.31652 0.0
C62 C 0.43574 0.83108 0.35815 0.0
C63 C 0.40413 0.7559 0.34429 0.0
O64 O 0.42221 0.75678 0.33273 0.0
O65 O 0.39122 0.77308 0.34394 0.0
O66 O 0.43201 0.19188 0.59507 0.0
Cd67 Cd 0.45253 0.16637 0.57051 0.0
O68 O 0.4095 0.16583 0.60801 0.0
Cd69 Cd 0.41883 0.14081 0.58285 0.0
O70 O 0.39868 0.12137 0.55914 0.0
C71 C 0.3795 0.13035 0.55695 0.0
O72 O 0.37644 0.15 0.56624 0.0
C73 C 0.41635 0.186 0.60826 0.0
C74 C 0.49129 0.15409 0.59349 0.0
O75 O 0.49037 0.17218 0.58197 0.0
O76 O 0.47403 0.1413 0.59334 0.0
O77 O 0.05503 0.18209 0.845 0.0
Cd78 Cd 0.0803 0.20281 0.82039 0.0
O79 O 0.08114 0.15945 0.85761 0.0
Cd80 Cd 0.10612 0.16889 0.83243 0.0
O81 O 0.12586 0.14873 0.80897 0.0
C82 C 0.11709 0.12943 0.80699 0.0
O83 O 0.09748 0.12627 0.81632 0.0
C84 C 0.06097 0.16634 0.85803 0.0
C85 C 0.09255 0.24154 0.84345 0.0
O86 O 0.07439 0.24059 0.83202 0.0
O87 O 0.1054 0.22432 0.84317 0.0
O88 O 0.40188 0.06501 0.19172 0.0
Cd89 Cd 0.42648 0.04422 0.16648 0.0
O90 O 0.3892 0.08758 0.1656 0.0
Cd91 Cd 0.41436 0.07809 0.1406 0.0
O92 O 0.43787 0.0982 0.12089 0.0
C93 C 0.43983 0.1175 0.12964 0.0
O94 O 0.43044 0.12069 0.14922 0.0
C95 C 0.38882 0.08075 0.18577 0.0
C96 C 0.40347 0.00542 0.15437 0.0
O97 O 0.41486 0.00647 0.17254 0.0
O98 O 0.40376 0.02257 0.14144 0.0
O99 O 0.18189 0.15179 0.44174 0.0
Cd100 Cd 0.20243 0.17621 0.41614 0.0
O101 O 0.15932 0.13884 0.41573 0.0
Cd102 Cd 0.16864 0.16396 0.39068 0.0
O103 O 0.14851 0.18769 0.37128 0.0
C104 C 0.12935 0.18994 0.38031 0.0
O105 O 0.12632 0.18069 0.39998 0.0
C106 C 0.16621 0.13862 0.43589 0.0
C107 C 0.2411 0.15306 0.40391 0.0
O108 O 0.24024 0.16468 0.42195 0.0
O109 O 0.22382 0.1532 0.39113 0.0
O110 O 0.09484 0.93192 0.69176 0.0
Cd111 Cd 0.0705 0.95273 0.66631 0.0
O112 O 0.10753 0.90922 0.66574 0.0
Cd113 Cd 0.08243 0.91862 0.64066 0.0
O114 O 0.05898 0.89847 0.62089 0.0
C115 C 0.05691 0.87921 0.6297 0.0
O116 O 0.06615 0.87607 0.64936 0.0
C117 C 0.10787 0.91613 0.68589 0.0
C118 C 0.0939 0.99129 0.65423 0.0
O119 O 0.08235 0.99042 0.67231 0.0
O120 O 0.09358 0.97409 0.64136 0.0
O121 O 0.31521 0.84425 0.94184 0.0
Cd122 Cd 0.29432 0.82022 0.91616 0.0
O123 O 0.33791 0.85709 0.9159 0.0
Cd124 Cd 0.32843 0.8322 0.89063 0.0
O125 O 0.34854 0.80881 0.87073 0.0
C126 C 0.36787 0.80691 0.87946 0.0
O127 O 0.37104 0.81629 0.89905 0.0
C128 C 0.33102 0.85731 0.93607 0.0
C129 C 0.25592 0.84391 0.90408 0.0
O130 O 0.25669 0.83229 0.92211 0.0
O131 O 0.27315 0.84353 0.89124 0.0
O132 O 0.40188 0.93207 0.3053 0.0
Cd133 Cd 0.42648 0.95285 0.33054 0.0
O134 O 0.3892 0.90949 0.33142 0.0
Cd135 Cd 0.41436 0.91898 0.35642 0.0
O136 O 0.43787 0.89887 0.37614 0.0
C137 C 0.43983 0.87957 0.36738 0.0
O138 O 0.43044 0.87638 0.3478 0.0
C139 C 0.38882 0.91633 0.31125 0.0
C140 C 0.40347 0.99165 0.34265 0.0
O141 O 0.41486 0.9906 0.32448 0.0
O142 O 0.40376 0.9745 0.35558 0.0
O143 O 0.31522 0.15281 0.5552 0.0
Cd144 Cd 0.29433 0.17684 0.58088 0.0
O145 O 0.33792 0.13997 0.58113 0.0
Cd146 Cd 0.32845 0.16486 0.60641 0.0
O147 O 0.34856 0.18826 0.6263 0.0
C148 C 0.36788 0.19017 0.61756 0.0
O149 O 0.37105 0.1808 0.59797 0.0
C150 C 0.33103 0.13975 0.56097 0.0
C151 C 0.25593 0.15315 0.59295 0.0
O152 O 0.2567 0.16477 0.57492 0.0
O153 O 0.27316 0.15353 0.6058 0.0
O154 O 0.09484 0.06516 0.80527 0.0
Cd155 Cd 0.07051 0.04435 0.83071 0.0
O156 O 0.10753 0.08786 0.83129 0.0
Cd157 Cd 0.08243 0.07845 0.85636 0.0
O158 O 0.05898 0.0986 0.87613 0.0
C159 C 0.05691 0.11787 0.86733 0.0
O160 O 0.06615 0.12101 0.84767 0.0
C161 C 0.10787 0.08095 0.81113 0.0
C162 C 0.09391 0.00579 0.84279 0.0
O163 O 0.08236 0.00666 0.82471 0.0
O164 O 0.09359 0.02299 0.85567 0.0
O165 O 0.18189 0.84527 0.05529 0.0
Cd166 Cd 0.20243 0.82086 0.08089 0.0
O167 O 0.15932 0.85823 0.08129 0.0
Cd168 Cd 0.16864 0.83311 0.10635 0.0
O169 O 0.14851 0.80938 0.12575 0.0
C170 C 0.12935 0.80713 0.11672 0.0
O171 O 0.12632 0.81638 0.09705 0.0
C172 C 0.1662 0.85845 0.06113 0.0
C173 C 0.2411 0.84401 0.09313 0.0
O174 O 0.24024 0.83239 0.07509 0.0
O175 O 0.22382 0.84388 0.10591 0.0
O176 O 0.19181 0.40185 0.06513 0.0
Cd177 Cd 0.16634 0.42622 0.04439 0.0
O178 O 0.16571 0.38897 0.08763 0.0
Cd179 Cd 0.14073 0.41416 0.07829 0.0
O180 O 0.12122 0.43783 0.09844 0.0
C181 C 0.13017 0.44 0.11763 0.0
O182 O 0.14983 0.43074 0.12072 0.0
C183 C 0.1859 0.3887 0.08081 0.0
C184 C 0.15421 0.40285 0.00582 0.0
O185 O 0.1723 0.41438 0.0067 0.0
O186 O 0.14133 0.40319 0.02302 0.0
O187 O 0.6918 0.09524 0.93189 0.0
Cd188 Cd 0.66634 0.07087 0.95262 0.0
O189 O 0.66571 0.10813 0.90939 0.0
Cd190 Cd 0.64072 0.08293 0.91874 0.0
O191 O 0.62123 0.05926 0.8986 0.0
C192 C 0.63018 0.05708 0.8794 0.0
O193 O 0.64984 0.06634 0.87632 0.0
C194 C 0.6859 0.10839 0.91621 0.0
C195 C 0.65421 0.09424 0.9912 0.0
O196 O 0.67231 0.08271 0.99032 0.0
O197 O 0.64133 0.09389 0.974 0.0
O198 O 0.15249 0.4416 0.18194 0.0
Cd199 Cd 0.17655 0.41586 0.20271 0.0
O200 O 0.13967 0.41573 0.15915 0.0
Cd201 Cd 0.16453 0.39044 0.16864 0.0
O202 O 0.188 0.37061 0.14857 0.0
C203 C 0.18996 0.37937 0.12927 0.0
O204 O 0.18058 0.39895 0.12612 0.0
C205 C 0.13945 0.43587 0.1661 0.0
C206 C 0.15303 0.40384 0.24122 0.0
O207 O 0.16471 0.42184 0.2404 0.0
O208 O 0.15326 0.39101 0.22399 0.0
O209 O 0.80511 0.90206 0.43187 0.0
Cd210 Cd 0.8305 0.92654 0.45261 0.0
O211 O 0.8312 0.88933 0.40926 0.0
Cd212 Cd 0.85621 0.91448 0.41868 0.0
O213 O 0.87587 0.93801 0.39855 0.0
C214 C 0.86704 0.94006 0.37929 0.0
O215 O 0.84741 0.93074 0.37615 0.0
C216 C 0.81103 0.88898 0.41613 0.0
C217 C 0.84272 0.90331 0.49122 0.0
O218 O 0.8246 0.91479 0.49034 0.0
O219 O 0.85557 0.90362 0.474 0.0
O220 O 0.84461 0.05522 0.18197 0.0
Cd221 Cd 0.82027 0.08068 0.20276 0.0
O222 O 0.8574 0.08125 0.15936 0.0
Cd223 Cd 0.83234 0.10635 0.16881 0.0
O224 O 0.8089 0.12615 0.14867 0.0
C225 C 0.8069 0.11737 0.12938 0.0
O226 O 0.8162 0.09775 0.12621 0.0
C227 C 0.8577 0.06109 0.16622 0.0
C228 C 0.84366 0.09282 0.24133 0.0
O229 O 0.83211 0.07475 0.24047 0.0
O230 O 0.84335 0.10566 0.22411 0.0
O231 O 0.30511 0.59502 0.56515 0.0
Cd232 Cd 0.33049 0.57053 0.54441 0.0
O233 O 0.33119 0.60774 0.58776 0.0
Cd234 Cd 0.35621 0.58259 0.57834 0.0
O235 O 0.37587 0.55907 0.59848 0.0
C236 C 0.36703 0.55702 0.61774 0.0
O237 O 0.3474 0.56634 0.62087 0.0
C238 C 0.31102 0.6081 0.58089 0.0
C239 C 0.34272 0.59376 0.5058 0.0
O240 O 0.32459 0.58228 0.50668 0.0
O241 O 0.35556 0.59345 0.52302 0.0
O242 O 0.1525 0.55547 0.3151 0.0
Cd243 Cd 0.17654 0.58122 0.29432 0.0
O244 O 0.13967 0.58135 0.33788 0.0
Cd245 Cd 0.16452 0.60664 0.32838 0.0
O246 O 0.188 0.62648 0.34845 0.0
C247 C 0.18995 0.61772 0.36775 0.0
O248 O 0.18056 0.59814 0.37091 0.0
C249 C 0.13946 0.5612 0.33094 0.0
C250 C 0.15299 0.59323 0.25581 0.0
O251 O 0.16468 0.57524 0.25663 0.0
O252 O 0.15323 0.60607 0.27304 0.0
O253 O 0.34462 0.44185 0.81506 0.0
Cd254 Cd 0.32028 0.41638 0.79426 0.0
O255 O 0.35741 0.41582 0.83767 0.0
Cd256 Cd 0.33235 0.39071 0.82822 0.0
O257 O 0.30891 0.37092 0.84835 0.0
C258 C 0.30691 0.3797 0.86765 0.0
O259 O 0.31621 0.39932 0.87081 0.0
C260 C 0.3577 0.43598 0.83081 0.0
C261 C 0.34369 0.40425 0.75571 0.0
O262 O 0.33213 0.42232 0.75656 0.0
O263 O 0.34337 0.3914 0.77292 0.0
O264 O 0.93108 0.81356 0.60606 0.0
Cd265 Cd 0.95231 0.83351 0.57731 0.0
O266 O 0.90752 0.80193 0.58034 0.0
Cd267 Cd 0.91798 0.82496 0.55388 0.0
O268 O 0.89892 0.84787 0.53269 0.0
C269 C 0.88088 0.8535 0.5425 0.0
O270 O 0.87807 0.84709 0.56337 0.0
C271 C 0.91444 0.80151 0.60051 0.0
C272 C 0.9955 0.84185 0.59312 0.0
O273 O 0.98926 0.82222 0.58715 0.0
O274 O 0.98119 0.85778 0.59132 0.0
O275 O 0.9336 0.181 0.3562 0.0
Cd276 Cd 0.91371 0.20222 0.3274 0.0
O277 O 0.94524 0.15742 0.33051 0.0
Cd278 Cd 0.92223 0.16789 0.304 0.0
O279 O 0.8993 0.14886 0.2828 0.0
C280 C 0.89363 0.13084 0.2926 0.0
O281 O 0.90003 0.12803 0.31347 0.0
C282 C 0.94564 0.16434 0.35067 0.0
C283 C 0.90533 0.24541 0.34315 0.0
O284 O 0.92499 0.23917 0.33725 0.0
O285 O 0.88941 0.23111 0.34133 0.0
O286 O 0.56605 0.18276 0.10701 0.0
Cd287 Cd 0.54491 0.16292 0.0781 0.0
O288 O 0.58934 0.19488 0.08129 0.0
Cd289 Cd 0.57893 0.17204 0.05461 0.0
O290 O 0.59798 0.1494 0.03311 0.0
C291 C 0.61611 0.14382 0.04278 0.0
O292 O 0.61899 0.15012 0.06368 0.0
C293 C 0.58253 0.19504 0.10149 0.0
C294 C 0.50157 0.15472 0.09355 0.0
O295 O 0.50792 0.17433 0.08767 0.0
O296 O 0.51584 0.13875 0.09185 0.0
O297 O 0.56412 0.81629 0.8572 0.0
Cd298 Cd 0.58397 0.79493 0.8285 0.0
O299 O 0.55213 0.8395 0.83136 0.0
Cd300 Cd 0.575 0.82894 0.80477 0.0
O301 O 0.59766 0.84788 0.78321 0.0
C302 C 0.60331 0.866 0.79285 0.0
O303 O 0.59705 0.86893 0.81376 0.0
C304 C 0.55191 0.83278 0.85159 0.0
C305 C 0.59213 0.75175 0.84434 0.0
O306 O 0.5725 0.75807 0.83844 0.0
O307 O 0.60812 0.76597 0.8425 0.0
O308 O 0.93108 0.18351 0.89097 0.0
Cd309 Cd 0.95232 0.16356 0.91972 0.0
O310 O 0.90752 0.19514 0.91669 0.0
Cd311 Cd 0.91798 0.17211 0.94315 0.0
O312 O 0.89892 0.1492 0.96434 0.0
C313 C 0.88088 0.14356 0.95452 0.0
O314 O 0.87807 0.14998 0.93365 0.0
C315 C 0.91444 0.19556 0.89652 0.0
C316 C 0.9955 0.15522 0.90391 0.0
O317 O 0.98927 0.17485 0.90988 0.0
O318 O 0.9812 0.13929 0.9057 0.0
O319 O 0.56416 0.18075 0.63976 0.0
Cd320 Cd 0.58401 0.20211 0.66848 0.0
O321 O 0.55212 0.15757 0.66561 0.0
Cd322 Cd 0.57496 0.16813 0.69223 0.0
O323 O 0.5976 0.14919 0.71381 0.0
C324 C 0.60325 0.13106 0.70418 0.0
O325 O 0.59699 0.12812 0.68328 0.0
C326 C 0.55192 0.16428 0.64538 0.0
C327 C 0.59215 0.2453 0.65266 0.0
O328 O 0.57252 0.23897 0.65856 0.0
O329 O 0.60814 0.23108 0.65449 0.0
O330 O 0.56605 0.81431 0.39001 0.0
Cd331 Cd 0.54491 0.83416 0.41892 0.0
O332 O 0.58934 0.8022 0.41573 0.0
Cd333 Cd 0.57894 0.82503 0.44241 0.0
O334 O 0.59799 0.84767 0.46391 0.0
C335 C 0.61612 0.85326 0.45424 0.0
O336 O 0.61899 0.84696 0.43334 0.0
C337 C 0.58254 0.80204 0.39553 0.0
C338 C 0.50158 0.84236 0.40347 0.0
O339 O 0.50792 0.82274 0.40934 0.0
O340 O 0.51584 0.85833 0.40517 0.0
O341 O 0.93357 0.8161 0.14079 0.0
Cd342 Cd 0.91369 0.79488 0.16959 0.0
O343 O 0.94523 0.83966 0.16648 0.0
Cd344 Cd 0.92224 0.82919 0.19299 0.0
O345 O 0.89933 0.84821 0.21422 0.0
C346 C 0.89366 0.86624 0.20442 0.0
O347 O 0.90005 0.86906 0.18355 0.0
C348 C 0.94562 0.83274 0.14631 0.0
C349 C 0.90532 0.75168 0.15386 0.0
O350 O 0.92498 0.75793 0.15975 0.0
O351 O 0.88939 0.76597 0.15568 0.0
O352 O 0.60668 0.93089 0.81381 0.0
Cd353 Cd 0.57809 0.95226 0.83382 0.0
O354 O 0.58082 0.90747 0.80222 0.0
Cd355 Cd 0.55441 0.91805 0.8253 0.0
O356 O 0.53309 0.89908 0.84817 0.0
C357 C 0.54285 0.88102 0.85384 0.0
O358 O 0.56373 0.87816 0.84747 0.0
C359 C 0.60102 0.91429 0.80176 0.0
C360 C 0.59404 0.99539 0.84209 0.0
O361 O 0.58806 0.98914 0.82246 0.0
O362 O 0.59222 0.98112 0.85803 0.0
O363 O 0.8161 0.85662 0.5638 0.0
Cd364 Cd 0.79495 0.82775 0.58367 0.0
O365 O 0.83945 0.83091 0.55177 0.0
Cd366 Cd 0.82901 0.80428 0.57462 0.0
O367 O 0.84804 0.7829 0.59736 0.0
C368 C 0.86614 0.79261 0.60298 0.0
O369 O 0.86901 0.8135 0.59666 0.0
C370 C 0.83262 0.8511 0.55158 0.0
C371 C 0.75165 0.84326 0.59195 0.0
O372 O 0.75797 0.83739 0.57231 0.0
O373 O 0.76593 0.84152 0.60791 0.0
O374 O 0.89036 0.06606 0.31384 0.0
Cd375 Cd 0.91913 0.0448 0.33371 0.0
O376 O 0.91614 0.08941 0.30194 0.0
Cd377 Cd 0.94272 0.07893 0.32486 0.0
O378 O 0.96418 0.09794 0.34759 0.0
C379 C 0.9545 0.11606 0.35317 0.0
O380 O 0.93361 0.11895 0.34682 0.0
C381 C 0.89593 0.0826 0.30167 0.0
C382 C 0.90334 0.00161 0.34198 0.0
O383 O 0.90927 0.00788 0.32235 0.0
O384 O 0.90516 0.01589 0.35794 0.0
O385 O 0.68108 0.14089 0.06368 0.0
Cd386 Cd 0.70228 0.16964 0.08364 0.0
O387 O 0.65745 0.16655 0.05211 0.0
Cd388 Cd 0.66787 0.19299 0.0752 0.0
O389 O 0.64877 0.21408 0.09817 0.0
C390 C 0.63077 0.20421 0.10384 0.0
O391 O 0.628 0.18334 0.09742 0.0
C392 C 0.66441 0.14641 0.05165 0.0
C393 C 0.74547 0.15386 0.092 0.0
O394 O 0.73924 0.15981 0.07236 0.0
O395 O 0.73116 0.15566 0.10792 0.0
O396 O 0.60659 0.06615 0.68327 0.0
Cd397 Cd 0.578 0.04478 0.66325 0.0
O398 O 0.58074 0.0896 0.69481 0.0
Cd399 Cd 0.55434 0.07903 0.67172 0.0
O400 O 0.53306 0.098 0.64882 0.0
C401 C 0.54283 0.11605 0.64315 0.0
O402 O 0.56371 0.1189 0.64953 0.0
C403 C 0.60093 0.08277 0.69529 0.0
C404 C 0.59398 0.00166 0.65497 0.0
O405 O 0.58799 0.00789 0.67459 0.0
O406 O 0.59216 0.01593 0.63903 0.0
O407 O 0.68108 0.8562 0.43334 0.0
Cd408 Cd 0.70229 0.82744 0.41338 0.0
O409 O 0.65745 0.83053 0.44492 0.0
Cd410 Cd 0.66787 0.80409 0.42182 0.0
O411 O 0.64877 0.783 0.39885 0.0
C412 C 0.63077 0.79286 0.39318 0.0
O413 O 0.62801 0.81374 0.39961 0.0
C414 C 0.66441 0.85067 0.44537 0.0
C415 C 0.74547 0.84322 0.40502 0.0
O416 O 0.73925 0.83726 0.42466 0.0
O417 O 0.73116 0.84142 0.3891 0.0
O418 O 0.8904 0.93103 0.18321 0.0
Cd419 Cd 0.91917 0.9523 0.16333 0.0
O420 O 0.91618 0.90767 0.19508 0.0
Cd421 Cd 0.94275 0.91815 0.17215 0.0
O422 O 0.96419 0.89913 0.14941 0.0
C423 C 0.9545 0.88102 0.14382 0.0
O424 O 0.93361 0.87813 0.15018 0.0
C425 C 0.89597 0.91448 0.19537 0.0
C426 C 0.90336 0.99548 0.15506 0.0
O427 O 0.90929 0.98922 0.17469 0.0
O428 O 0.90518 0.98121 0.13911 0.0
O429 O 0.8161 0.14045 0.93321 0.0
Cd430 Cd 0.79496 0.16933 0.91335 0.0
O431 O 0.83945 0.16616 0.94526 0.0
Cd432 Cd 0.82901 0.19279 0.92241 0.0
O433 O 0.84804 0.21417 0.89968 0.0
C434 C 0.86614 0.20446 0.89405 0.0
O435 O 0.86901 0.18358 0.90037 0.0
C436 C 0.83262 0.14597 0.94545 0.0
C437 C 0.75166 0.15382 0.90507 0.0
O438 O 0.75797 0.1597 0.9247 0.0
O439 O 0.76593 0.15556 0.88911 0.0
O440 O 0.81405 0.60705 0.93062 0.0
Cd441 Cd 0.8341 0.57848 0.95195 0.0
O442 O 0.80229 0.58112 0.90737 0.0
Cd443 Cd 0.82546 0.55479 0.91788 0.0
O444 O 0.84834 0.53353 0.89885 0.0
C445 C 0.85389 0.54323 0.88073 0.0
O446 O 0.84743 0.56407 0.87783 0.0
C447 C 0.80189 0.60134 0.91411 0.0
C448 C 0.84227 0.59435 0.99514 0.0
O449 O 0.82265 0.58838 0.98884 0.0
O450 O 0.85825 0.59256 0.98089 0.0
O451 O 0.31405 0.89002 0.06642 0.0
Cd452 Cd 0.3341 0.91859 0.04509 0.0
O453 O 0.30229 0.91596 0.08966 0.0
Cd454 Cd 0.32546 0.94229 0.07915 0.0
O455 O 0.34834 0.96355 0.09818 0.0
C456 C 0.35389 0.95384 0.11629 0.0
O457 O 0.34743 0.933 0.1192 0.0
C458 C 0.30189 0.89574 0.08292 0.0
C459 C 0.34226 0.90272 0.0019 0.0
O460 O 0.32265 0.90868 0.0082 0.0
O461 O 0.35824 0.9045 0.01614 0.0
O462 O 0.85674 0.56419 0.81587 0.0
Cd463 Cd 0.82775 0.58388 0.79472 0.0
O464 O 0.83112 0.55218 0.83934 0.0
Cd465 Cd 0.80435 0.57488 0.82888 0.0
O466 O 0.78291 0.59764 0.84787 0.0
C467 C 0.79269 0.60343 0.86587 0.0
O468 O 0.81363 0.59722 0.86868 0.0
C469 C 0.8513 0.55202 0.83246 0.0
C470 C 0.84323 0.59205 0.7514 0.0
O471 O 0.83737 0.57243 0.75777 0.0
O472 O 0.84147 0.60804 0.76564 0.0
O473 O 0.18362 0.10627 0.56604 0.0
Cd474 Cd 0.16368 0.07747 0.54484 0.0
O475 O 0.1953 0.08059 0.58959 0.0
Cd476 Cd 0.1723 0.05408 0.57913 0.0
O477 O 0.14943 0.03284 0.59817 0.0
C478 C 0.14377 0.04262 0.61622 0.0
O479 O 0.15014 0.0635 0.61905 0.0
C480 C 0.19569 0.10074 0.58268 0.0
C481 C 0.15525 0.09315 0.50164 0.0
O482 O 0.17491 0.08724 0.50786 0.0
O483 O 0.13934 0.09136 0.51597 0.0
O484 O 0.14058 0.93328 0.81595 0.0
Cd485 Cd 0.16933 0.91335 0.7947 0.0
O486 O 0.16633 0.94507 0.83939 0.0
Cd487 Cd 0.19288 0.92211 0.82892 0.0
O488 O 0.21429 0.89938 0.84796 0.0
C489 C 0.20459 0.8938 0.86607 0.0
O490 O 0.1837 0.90015 0.86894 0.0
C491 C 0.14614 0.94541 0.83254 0.0
C492 C 0.15354 0.90501 0.75151 0.0
O493 O 0.1595 0.92465 0.75776 0.0
O494 O 0.15533 0.88909 0.76581 0.0
O495 O 0.68361 0.39079 0.43099 0.0
Cd496 Cd 0.66366 0.41958 0.45218 0.0
O497 O 0.69529 0.41647 0.40744 0.0
Cd498 Cd 0.67229 0.44298 0.4179 0.0
O499 O 0.64943 0.46422 0.39886 0.0
C500 C 0.64377 0.45445 0.3808 0.0
O501 O 0.65014 0.43357 0.37797 0.0
C502 C 0.69568 0.39631 0.41435 0.0
C503 C 0.65523 0.40391 0.49538 0.0
O504 O 0.67489 0.40982 0.48916 0.0
O505 O 0.63933 0.40569 0.48105 0.0
O506 O 0.85673 0.43289 0.68115 0.0
Cd507 Cd 0.82774 0.4132 0.7023 0.0
O508 O 0.83112 0.4449 0.65769 0.0
Cd509 Cd 0.80434 0.4222 0.66815 0.0
O510 O 0.7829 0.39945 0.64917 0.0
C511 C 0.79268 0.39365 0.63116 0.0
O512 O 0.81362 0.39986 0.62836 0.0
C513 C 0.8513 0.44506 0.66457 0.0
C514 C 0.84323 0.40502 0.74562 0.0
O515 O 0.83737 0.42464 0.73926 0.0
O516 O 0.84147 0.38903 0.73138 0.0
O517 O 0.64056 0.5638 0.18106 0.0
Cd518 Cd 0.66932 0.58373 0.20231 0.0
O519 O 0.66632 0.552 0.15764 0.0
Cd520 Cd 0.69287 0.57496 0.1681 0.0
O521 O 0.71429 0.59768 0.14907 0.0
C522 C 0.70459 0.60326 0.13096 0.0
O523 O 0.68371 0.59691 0.12808 0.0
C524 C 0.64612 0.55167 0.16448 0.0
C525 C 0.65353 0.59207 0.2455 0.0
O526 O 0.65949 0.57244 0.23926 0.0
O527 O 0.65532 0.60799 0.23121 0.0
O528 O 0.5651 0.69178 0.90286 0.0
Cd529 Cd 0.54422 0.66611 0.92689 0.0
O530 O 0.58777 0.66582 0.88999 0.0
Cd531 Cd 0.57829 0.64058 0.9149 0.0
O532 O 0.5984 0.62069 0.93828 0.0
C533 C 0.61774 0.6294 0.94016 0.0
O534 O 0.62092 0.64896 0.93076 0.0
C535 C 0.58089 0.68599 0.88978 0.0
C536 C 0.50582 0.65403 0.90318 0.0
O537 O 0.50659 0.67206 0.91481 0.0
O538 O 0.52304 0.64119 0.90356 0.0
O539 O 0.55502 0.31499 0.15203 0.0
Cd540 Cd 0.58029 0.29427 0.17663 0.0
O541 O 0.58113 0.33762 0.13942 0.0
Cd542 Cd 0.60611 0.32819 0.1646 0.0
O543 O 0.62585 0.34835 0.18806 0.0
C544 C 0.61709 0.36764 0.19004 0.0
O545 O 0.59748 0.37081 0.1807 0.0
C546 C 0.56096 0.33074 0.13899 0.0
C547 C 0.59254 0.25553 0.15358 0.0
O548 O 0.57438 0.25649 0.165 0.0
O549 O 0.60539 0.27275 0.15385 0.0
O550 O 0.932 0.30522 0.40195 0.0
Cd551 Cd 0.95253 0.33073 0.42649 0.0
O552 O 0.90948 0.33125 0.389 0.0
Cd553 Cd 0.91881 0.35628 0.41416 0.0
O554 O 0.89866 0.37571 0.43788 0.0
C555 C 0.87949 0.36672 0.44007 0.0
O556 O 0.87643 0.34707 0.43079 0.0
C557 C 0.91634 0.31109 0.38875 0.0
C558 C 0.99128 0.343 0.4035 0.0
O559 O 0.99036 0.32492 0.41503 0.0
O560 O 0.97402 0.35579 0.40365 0.0
O561 O 0.9416 0.68176 0.65194 0.0
Cd562 Cd 0.91614 0.70264 0.67621 0.0
O563 O 0.91556 0.65914 0.63915 0.0
Cd564 Cd 0.89044 0.66859 0.6642 0.0
O565 O 0.87068 0.64848 0.68768 0.0
C566 C 0.87949 0.62922 0.68976 0.0
O567 O 0.89914 0.62607 0.6805 0.0
C568 C 0.93574 0.66599 0.63888 0.0
C569 C 0.90413 0.74117 0.65274 0.0
O570 O 0.92221 0.74029 0.6643 0.0
O571 O 0.89122 0.724 0.65309 0.0
O572 O 0.5651 0.30529 0.59417 0.0
Cd573 Cd 0.54422 0.33096 0.57014 0.0
O574 O 0.58777 0.33124 0.60704 0.0
Cd575 Cd 0.57829 0.35649 0.58214 0.0
O576 O 0.5984 0.37638 0.55875 0.0
C577 C 0.61773 0.36767 0.55687 0.0
O578 O 0.62091 0.3481 0.56627 0.0
C579 C 0.58089 0.31108 0.60725 0.0
C580 C 0.50583 0.34304 0.59387 0.0
O581 O 0.50659 0.32501 0.58223 0.0
O582 O 0.52305 0.35588 0.59349 0.0
O583 O 0.9416 0.31531 0.84508 0.0
Cd584 Cd 0.91614 0.29443 0.82082 0.0
O585 O 0.91556 0.33794 0.85787 0.0
Cd586 Cd 0.89045 0.32848 0.83282 0.0
O587 O 0.87068 0.34859 0.80934 0.0
C588 C 0.87949 0.36785 0.80726 0.0
O589 O 0.89914 0.37101 0.81652 0.0
C590 C 0.93574 0.33108 0.85815 0.0
C591 C 0.90413 0.2559 0.84429 0.0
O592 O 0.92221 0.25678 0.83273 0.0
O593 O 0.89122 0.27308 0.84394 0.0
O594 O 0.93201 0.69187 0.09507 0.0
Cd595 Cd 0.95253 0.66637 0.07052 0.0
O596 O 0.9095 0.66583 0.10801 0.0
Cd597 Cd 0.91883 0.64081 0.08285 0.0
O598 O 0.89868 0.62137 0.05914 0.0
C599 C 0.8795 0.63035 0.05696 0.0
O600 O 0.87644 0.65 0.06624 0.0
C601 C 0.91635 0.686 0.10826 0.0
C602 C 0.99129 0.65409 0.0935 0.0
O603 O 0.99037 0.67217 0.08197 0.0
O604 O 0.97403 0.6413 0.09335 0.0
O605 O 0.55503 0.68209 0.345 0.0
Cd606 Cd 0.5803 0.7028 0.32039 0.0
O607 O 0.58114 0.65945 0.35761 0.0
Cd608 Cd 0.60612 0.66888 0.33243 0.0
O609 O 0.62586 0.64873 0.30897 0.0
C610 C 0.61709 0.62943 0.30699 0.0
O611 O 0.59748 0.62627 0.31632 0.0
C612 C 0.56097 0.66634 0.35803 0.0
C613 C 0.59255 0.74154 0.34345 0.0
O614 O 0.57439 0.74059 0.33202 0.0
O615 O 0.6054 0.72432 0.34317 0.0
O616 O 0.90188 0.56501 0.69172 0.0
Cd617 Cd 0.92648 0.54422 0.66648 0.0
O618 O 0.8892 0.58758 0.6656 0.0
Cd619 Cd 0.91436 0.57809 0.6406 0.0
O620 O 0.93787 0.5982 0.62089 0.0
C621 C 0.93983 0.6175 0.62964 0.0
O622 O 0.93044 0.62069 0.64922 0.0
C623 C 0.88882 0.58074 0.68577 0.0
C624 C 0.90347 0.50542 0.65437 0.0
O625 O 0.91486 0.50647 0.67254 0.0
O626 O 0.90376 0.52257 0.64144 0.0
O627 O 0.6819 0.6518 0.94174 0.0
Cd628 Cd 0.70243 0.67621 0.91614 0.0
O629 O 0.65932 0.63885 0.91573 0.0
Cd630 Cd 0.66864 0.66397 0.89068 0.0
O631 O 0.6485 0.68769 0.87128 0.0
C632 C 0.62935 0.68994 0.88031 0.0
O633 O 0.62631 0.6807 0.89998 0.0
C634 C 0.66621 0.63862 0.9359 0.0
C635 C 0.7411 0.65307 0.90391 0.0
O636 O 0.74024 0.66468 0.92195 0.0
O637 O 0.72383 0.65321 0.89113 0.0
O638 O 0.59484 0.43192 0.19176 0.0
Cd639 Cd 0.5705 0.45273 0.16631 0.0
O640 O 0.60752 0.40922 0.16574 0.0
Cd641 Cd 0.58242 0.41862 0.14066 0.0
O642 O 0.55897 0.39847 0.12089 0.0
C643 C 0.5569 0.37921 0.1297 0.0
O644 O 0.56614 0.37607 0.14936 0.0
C645 C 0.60787 0.41613 0.18589 0.0
C646 C 0.5939 0.49129 0.15423 0.0
O647 O 0.58235 0.49042 0.17231 0.0
O648 O 0.59358 0.47409 0.14135 0.0
O649 O 0.81521 0.34425 0.44185 0.0
Cd650 Cd 0.79432 0.32021 0.41616 0.0
O651 O 0.83791 0.35708 0.41591 0.0
Cd652 Cd 0.82843 0.33219 0.39063 0.0
O653 O 0.84855 0.30881 0.37073 0.0
C654 C 0.86787 0.3069 0.37946 0.0
O655 O 0.87104 0.31627 0.39905 0.0
C656 C 0.83102 0.3573 0.43607 0.0
C657 C 0.75592 0.34391 0.40408 0.0
O658 O 0.75669 0.33229 0.42212 0.0
O659 O 0.77315 0.34352 0.39124 0.0
O660 O 0.90188 0.43207 0.8053 0.0
Cd661 Cd 0.92648 0.45285 0.83054 0.0
O662 O 0.8892 0.40949 0.83142 0.0
Cd663 Cd 0.91436 0.41898 0.85642 0.0
O664 O 0.93787 0.39887 0.87614 0.0
C665 C 0.93983 0.37957 0.86738 0.0
O666 O 0.93044 0.37638 0.8478 0.0
C667 C 0.88882 0.41633 0.81125 0.0
C668 C 0.90347 0.49165 0.84265 0.0
O669 O 0.91486 0.4906 0.82448 0.0
O670 O 0.90376 0.4745 0.85558 0.0
O671 O 0.81522 0.65281 0.0552 0.0
Cd672 Cd 0.79434 0.67684 0.08088 0.0
O673 O 0.83792 0.63997 0.08113 0.0
Cd674 Cd 0.82845 0.66486 0.10641 0.0
O675 O 0.84856 0.68825 0.1263 0.0
C676 C 0.86788 0.69017 0.11756 0.0
O677 O 0.87105 0.6808 0.09797 0.0
C678 C 0.83103 0.63975 0.06097 0.0
C679 C 0.75594 0.65315 0.09295 0.0
O680 O 0.7567 0.66477 0.07492 0.0
O681 O 0.77316 0.65353 0.1058 0.0
O682 O 0.59484 0.56516 0.30526 0.0
Cd683 Cd 0.57051 0.54435 0.33071 0.0
O684 O 0.60753 0.58786 0.33129 0.0
Cd685 Cd 0.58243 0.57845 0.35636 0.0
O686 O 0.55898 0.5986 0.37613 0.0
C687 C 0.55691 0.61787 0.36733 0.0
O688 O 0.56615 0.621 0.34767 0.0
C689 C 0.60787 0.58095 0.31113 0.0
C690 C 0.59391 0.50579 0.34279 0.0
O691 O 0.58236 0.50666 0.32471 0.0
O692 O 0.59359 0.52299 0.35567 0.0
O693 O 0.68189 0.34527 0.55529 0.0
Cd694 Cd 0.70243 0.32086 0.58089 0.0
O695 O 0.65932 0.35823 0.58129 0.0
Cd696 Cd 0.66864 0.33311 0.60635 0.0
O697 O 0.64851 0.30938 0.62575 0.0
C698 C 0.62936 0.30713 0.61672 0.0
O699 O 0.62632 0.31638 0.59705 0.0
C700 C 0.6662 0.35845 0.56113 0.0
C701 C 0.7411 0.34401 0.59313 0.0
O702 O 0.74024 0.33239 0.57509 0.0
O703 O 0.72382 0.34388 0.60591 0.0
O704 O 0.6918 0.90185 0.56513 0.0
Cd705 Cd 0.66634 0.92622 0.54439 0.0
O706 O 0.66571 0.88897 0.58763 0.0
Cd707 Cd 0.64072 0.91416 0.57828 0.0
O708 O 0.62122 0.93783 0.59843 0.0
C709 C 0.63017 0.94 0.61763 0.0
O710 O 0.64983 0.93075 0.62071 0.0
C711 C 0.6859 0.8887 0.58081 0.0
C712 C 0.65421 0.90285 0.50582 0.0
O713 O 0.67231 0.91438 0.5067 0.0
O714 O 0.64133 0.90319 0.52302 0.0
O715 O 0.1918 0.59524 0.43189 0.0
Cd716 Cd 0.16634 0.57087 0.45262 0.0
O717 O 0.16571 0.60813 0.40939 0.0
Cd718 Cd 0.14072 0.58293 0.41874 0.0
O719 O 0.12123 0.55926 0.3986 0.0
C720 C 0.13018 0.55708 0.3794 0.0
O721 O 0.14984 0.56634 0.37632 0.0
C722 C 0.18589 0.60839 0.41622 0.0
C723 C 0.15421 0.59423 0.4912 0.0
O724 O 0.17231 0.58271 0.49032 0.0
O725 O 0.14133 0.59389 0.474 0.0
O726 O 0.65249 0.94161 0.68194 0.0
Cd727 Cd 0.67656 0.91587 0.7027 0.0
O728 O 0.63967 0.91573 0.65915 0.0
Cd729 Cd 0.66452 0.89044 0.66864 0.0
O730 O 0.688 0.87061 0.64857 0.0
C731 C 0.68996 0.87937 0.62927 0.0
O732 O 0.68057 0.89895 0.62611 0.0
C733 C 0.63945 0.93587 0.6661 0.0
C734 C 0.65305 0.90384 0.74123 0.0
O735 O 0.66473 0.92184 0.7404 0.0
O736 O 0.65328 0.89101 0.72399 0.0
O737 O 0.30511 0.40206 0.93187 0.0
Cd738 Cd 0.3305 0.42653 0.95261 0.0
O739 O 0.3312 0.38933 0.90926 0.0
Cd740 Cd 0.35621 0.41448 0.91868 0.0
O741 O 0.37588 0.43801 0.89854 0.0
C742 C 0.36704 0.44005 0.87928 0.0
O743 O 0.34741 0.43074 0.87615 0.0
C744 C 0.31103 0.38898 0.91613 0.0
C745 C 0.34272 0.40329 0.99122 0.0
O746 O 0.3246 0.41478 0.99034 0.0
O747 O 0.35557 0.40361 0.97399 0.0
O748 O 0.34461 0.55523 0.68196 0.0
Cd749 Cd 0.32029 0.58071 0.70276 0.0
O750 O 0.35741 0.58126 0.65935 0.0
Cd751 Cd 0.33235 0.60637 0.66879 0.0
O752 O 0.30891 0.62616 0.64867 0.0
C753 C 0.30691 0.61739 0.62937 0.0
O754 O 0.31621 0.59776 0.62621 0.0
C755 C 0.3577 0.5611 0.66621 0.0
C756 C 0.3437 0.59283 0.74132 0.0
O757 O 0.33214 0.57476 0.74046 0.0
O758 O 0.34339 0.60568 0.7241 0.0
O759 O 0.80511 0.09502 0.06515 0.0
Cd760 Cd 0.83049 0.07053 0.04442 0.0
O761 O 0.83119 0.10774 0.08777 0.0
Cd762 Cd 0.85621 0.08259 0.07835 0.0
O763 O 0.87587 0.05907 0.09849 0.0
C764 C 0.86703 0.05702 0.11775 0.0
O765 O 0.84741 0.06633 0.12088 0.0
C766 C 0.81102 0.10809 0.0809 0.0
C767 C 0.84272 0.09376 0.0058 0.0
O768 O 0.82459 0.08228 0.00668 0.0
O769 O 0.85556 0.09345 0.02302 0.0
O770 O 0.6525 0.05547 0.8151 0.0
Cd771 Cd 0.67654 0.08123 0.79431 0.0
O772 O 0.63967 0.08135 0.83788 0.0
Cd773 Cd 0.66452 0.10664 0.82838 0.0
O774 O 0.68799 0.12648 0.84845 0.0
C775 C 0.68995 0.11772 0.86775 0.0
O776 O 0.68056 0.09814 0.87091 0.0
C777 C 0.63946 0.0612 0.83094 0.0
C778 C 0.65298 0.09323 0.75581 0.0
O779 O 0.66467 0.07524 0.75663 0.0
O780 O 0.65323 0.10607 0.77305 0.0
O781 O 0.84461 0.94186 0.31506 0.0
Cd782 Cd 0.82028 0.91638 0.29426 0.0
O783 O 0.85741 0.91582 0.33767 0.0
Cd784 Cd 0.83235 0.89072 0.32822 0.0
O785 O 0.80891 0.87092 0.34835 0.0
C786 C 0.80691 0.8797 0.36765 0.0
O787 O 0.81621 0.89932 0.37081 0.0
C788 C 0.8577 0.93599 0.33081 0.0
C789 C 0.8437 0.90425 0.25571 0.0
O790 O 0.83214 0.92232 0.25656 0.0
O791 O 0.84338 0.89141 0.27292 0.0
O792 O 0.43107 0.31357 0.10607 0.0
Cd793 Cd 0.4523 0.33352 0.07732 0.0
O794 O 0.40752 0.30192 0.08035 0.0
Cd795 Cd 0.41798 0.32495 0.05388 0.0
O796 O 0.39892 0.34785 0.03269 0.0
C797 C 0.38088 0.35349 0.0425 0.0
O798 O 0.37806 0.34707 0.06336 0.0
C799 C 0.41443 0.30151 0.10052 0.0
C800 C 0.49549 0.34186 0.09312 0.0
O801 O 0.48925 0.32223 0.08715 0.0
O802 O 0.48119 0.35778 0.09133 0.0
O803 O 0.43355 0.68097 0.85626 0.0
Cd804 Cd 0.41368 0.70219 0.82746 0.0
O805 O 0.44523 0.65742 0.83057 0.0
Cd806 Cd 0.42224 0.66789 0.80405 0.0
O807 O 0.39933 0.64887 0.78282 0.0
C808 C 0.39366 0.63084 0.79261 0.0
O809 O 0.40005 0.62802 0.81348 0.0
C810 C 0.44561 0.66433 0.85073 0.0
C811 C 0.40531 0.74539 0.84318 0.0
O812 O 0.42497 0.73914 0.83729 0.0
O813 O 0.38938 0.7311 0.84136 0.0
O814 O 0.06605 0.68276 0.60701 0.0
Cd815 Cd 0.04491 0.66292 0.5781 0.0
O816 O 0.08934 0.69488 0.58129 0.0
Cd817 Cd 0.07893 0.67204 0.55461 0.0
O818 O 0.09798 0.6494 0.53311 0.0
C819 C 0.11611 0.64382 0.54278 0.0
O820 O 0.11899 0.65012 0.56368 0.0
C821 C 0.08253 0.69504 0.6015 0.0
C822 C 0.00157 0.65472 0.59355 0.0
O823 O 0.00792 0.67433 0.58768 0.0
O824 O 0.01584 0.63875 0.59185 0.0
O825 O 0.06414 0.3163 0.35723 0.0
Cd826 Cd 0.08399 0.29494 0.32852 0.0
O827 O 0.05213 0.3395 0.33139 0.0
Cd828 Cd 0.07499 0.32894 0.30478 0.0
O829 O 0.09765 0.34788 0.28322 0.0
C830 C 0.1033 0.36601 0.29286 0.0
O831 O 0.09703 0.36894 0.31376 0.0
C832 C 0.05191 0.33279 0.35161 0.0
C833 C 0.09214 0.25176 0.34436 0.0
O834 O 0.07251 0.25808 0.33846 0.0
O835 O 0.10813 0.26597 0.34252 0.0
O836 O 0.43108 0.68351 0.39097 0.0
Cd837 Cd 0.45232 0.66356 0.41972 0.0
O838 O 0.40752 0.69514 0.41669 0.0
Cd839 Cd 0.41798 0.67211 0.44315 0.0
O840 O 0.39892 0.6492 0.46433 0.0
C841 C 0.38088 0.64356 0.45452 0.0
O842 O 0.37807 0.64998 0.43365 0.0
C843 C 0.41444 0.69556 0.39652 0.0
C844 C 0.4955 0.65522 0.40391 0.0
O845 O 0.48927 0.67485 0.40988 0.0
O846 O 0.4812 0.63929 0.4057 0.0
O847 O 0.06416 0.68075 0.13977 0.0
Cd848 Cd 0.08401 0.70211 0.16848 0.0
O849 O 0.05212 0.65757 0.16561 0.0
Cd850 Cd 0.07497 0.66813 0.19223 0.0
O851 O 0.09761 0.64919 0.21381 0.0
C852 C 0.10325 0.63106 0.20418 0.0
O853 O 0.09699 0.62813 0.18328 0.0
C854 C 0.05192 0.66428 0.14538 0.0
C855 C 0.09215 0.7453 0.15266 0.0
O856 O 0.07252 0.73897 0.15856 0.0
O857 O 0.10814 0.73108 0.15449 0.0
O858 O 0.06605 0.31431 0.89001 0.0
Cd859 Cd 0.04491 0.33416 0.91892 0.0
O860 O 0.08934 0.3022 0.91573 0.0
Cd861 Cd 0.07893 0.32503 0.94242 0.0
O862 O 0.09799 0.34767 0.96391 0.0
C863 C 0.11611 0.35326 0.95424 0.0
O864 O 0.11899 0.34696 0.93334 0.0
C865 C 0.08254 0.30204 0.89553 0.0
C866 C 0.00158 0.34236 0.90347 0.0
O867 O 0.00792 0.32274 0.90935 0.0
O868 O 0.01584 0.35833 0.90517 0.0
O869 O 0.43357 0.3161 0.64079 0.0
Cd870 Cd 0.41369 0.29487 0.66959 0.0
O871 O 0.44523 0.33966 0.66648 0.0
Cd872 Cd 0.42224 0.32919 0.693 0.0
O873 O 0.39932 0.34821 0.71422 0.0
C874 C 0.39365 0.36624 0.70442 0.0
O875 O 0.40005 0.36906 0.68355 0.0
C876 C 0.44562 0.33274 0.64632 0.0
C877 C 0.40533 0.25168 0.65386 0.0
O878 O 0.42498 0.25793 0.65976 0.0
O879 O 0.38939 0.26597 0.65568 0.0
O880 O 0.10666 0.4309 0.3138 0.0
Cd881 Cd 0.07806 0.45227 0.33381 0.0
O882 O 0.0808 0.40748 0.30223 0.0
Cd883 Cd 0.05439 0.41805 0.32531 0.0
O884 O 0.03309 0.39907 0.34819 0.0
C885 C 0.04284 0.38103 0.35386 0.0
O886 O 0.06373 0.37817 0.34748 0.0
C887 C 0.101 0.41429 0.30176 0.0
C888 C 0.09402 0.4954 0.34208 0.0
O889 O 0.08804 0.48915 0.32246 0.0
O890 O 0.09221 0.48113 0.35802 0.0
O891 O 0.31609 0.35659 0.06379 0.0
Cd892 Cd 0.29495 0.32773 0.08366 0.0
O893 O 0.33945 0.33089 0.05176 0.0
Cd894 Cd 0.32901 0.30427 0.07461 0.0
O895 O 0.34804 0.28289 0.09736 0.0
C896 C 0.36614 0.29261 0.10298 0.0
O897 O 0.369 0.31349 0.09666 0.0
C898 C 0.33262 0.35108 0.05157 0.0
C899 C 0.25165 0.34325 0.09195 0.0
O900 O 0.25796 0.33738 0.07231 0.0
O901 O 0.26593 0.34151 0.1079 0.0
O902 O 0.39041 0.56604 0.81381 0.0
Cd903 Cd 0.41917 0.54477 0.83369 0.0
O904 O 0.41618 0.58941 0.80195 0.0
Cd905 Cd 0.44275 0.57893 0.82488 0.0
O906 O 0.46418 0.59794 0.84763 0.0
C907 C 0.45449 0.61605 0.85322 0.0
O908 O 0.43361 0.61894 0.84686 0.0
C909 C 0.39598 0.58259 0.80166 0.0
C910 C 0.40336 0.5016 0.84197 0.0
O911 O 0.40929 0.50785 0.82233 0.0
O912 O 0.40518 0.51587 0.85792 0.0
O913 O 0.18107 0.64088 0.56368 0.0
Cd914 Cd 0.20228 0.66965 0.58364 0.0
O915 O 0.15745 0.66655 0.5521 0.0
Cd916 Cd 0.16787 0.69299 0.57519 0.0
O917 O 0.14877 0.71408 0.59817 0.0
C918 C 0.13077 0.70421 0.60384 0.0
O919 O 0.128 0.68334 0.59741 0.0
C920 C 0.16441 0.64641 0.55165 0.0
C921 C 0.24547 0.65386 0.59199 0.0
O922 O 0.23924 0.65982 0.57236 0.0
O923 O 0.23116 0.65566 0.60792 0.0
O924 O 0.1066 0.56615 0.18327 0.0
Cd925 Cd 0.07801 0.54478 0.16325 0.0
O926 O 0.08074 0.5896 0.19481 0.0
Cd927 Cd 0.05435 0.57902 0.17172 0.0
O928 O 0.03306 0.598 0.14882 0.0
C929 C 0.04283 0.61605 0.14315 0.0
O930 O 0.06371 0.6189 0.14953 0.0
C931 C 0.10094 0.58277 0.19529 0.0
C932 C 0.09399 0.50166 0.15496 0.0
O933 O 0.088 0.5079 0.17459 0.0
O934 O 0.09217 0.51593 0.13903 0.0
O935 O 0.18107 0.3562 0.93334 0.0
Cd936 Cd 0.20228 0.32744 0.91338 0.0
O937 O 0.15745 0.33053 0.94492 0.0
Cd938 Cd 0.16787 0.30409 0.92183 0.0
O939 O 0.14877 0.283 0.89885 0.0
C940 C 0.13077 0.29286 0.89318 0.0
O941 O 0.12801 0.31374 0.89961 0.0
C942 C 0.16441 0.35067 0.94537 0.0
C943 C 0.24547 0.34322 0.90503 0.0
O944 O 0.23924 0.33727 0.92466 0.0
O945 O 0.23116 0.34142 0.8891 0.0
O946 O 0.39039 0.43103 0.68321 0.0
Cd947 Cd 0.41915 0.4523 0.66333 0.0
O948 O 0.41617 0.40767 0.69508 0.0
Cd949 Cd 0.44274 0.41815 0.67215 0.0
O950 O 0.46418 0.39914 0.64941 0.0
C951 C 0.45449 0.38102 0.64383 0.0
O952 O 0.43361 0.37813 0.65018 0.0
C953 C 0.39596 0.41448 0.69536 0.0
C954 C 0.40335 0.49548 0.65505 0.0
O955 O 0.40928 0.48922 0.67468 0.0
O956 O 0.40517 0.4812 0.6391 0.0
O957 O 0.3161 0.64046 0.43321 0.0
Cd958 Cd 0.29496 0.66933 0.41335 0.0
O959 O 0.33945 0.66616 0.44526 0.0
Cd960 Cd 0.32901 0.69279 0.42241 0.0
O961 O 0.34804 0.71417 0.39968 0.0
C962 C 0.36614 0.70446 0.39405 0.0
O963 O 0.36901 0.68358 0.40037 0.0
C964 C 0.33262 0.64597 0.44544 0.0
C965 C 0.25166 0.65382 0.40507 0.0
O966 O 0.25797 0.6597 0.4247 0.0
O967 O 0.26593 0.65556 0.38911 0.0
O968 O 0.31405 0.10705 0.43062 0.0
Cd969 Cd 0.3341 0.07848 0.45195 0.0
O970 O 0.30229 0.08112 0.40737 0.0
Cd971 Cd 0.32546 0.05479 0.41788 0.0
O972 O 0.34834 0.03353 0.39885 0.0
C973 C 0.3539 0.04324 0.38073 0.0
O974 O 0.34744 0.06407 0.37783 0.0
C975 C 0.30189 0.10134 0.41411 0.0
C976 C 0.34227 0.09435 0.49514 0.0
O977 O 0.32265 0.08838 0.48884 0.0
O978 O 0.35825 0.09256 0.48089 0.0
O979 O 0.81405 0.39002 0.56642 0.0
Cd980 Cd 0.8341 0.41859 0.54509 0.0
O981 O 0.80229 0.41596 0.58966 0.0
Cd982 Cd 0.82545 0.44229 0.57915 0.0
O983 O 0.84833 0.46355 0.59818 0.0
C984 C 0.85389 0.45384 0.61629 0.0
O985 O 0.84743 0.433 0.6192 0.0
C986 C 0.80189 0.39574 0.58292 0.0
C987 C 0.84226 0.40271 0.5019 0.0
O988 O 0.82264 0.40868 0.50819 0.0
O989 O 0.85824 0.4045 0.51614 0.0
O990 O 0.35674 0.06419 0.31587 0.0
Cd991 Cd 0.32775 0.08388 0.29472 0.0
O992 O 0.33112 0.05218 0.33934 0.0
Cd993 Cd 0.30435 0.07488 0.32888 0.0
O994 O 0.28291 0.09764 0.34786 0.0
C995 C 0.29269 0.10343 0.36587 0.0
O996 O 0.31363 0.09722 0.36867 0.0
C997 C 0.35131 0.05202 0.33246 0.0
C998 C 0.34323 0.09205 0.2514 0.0
O999 O 0.33738 0.07243 0.25777 0.0
O1000 O 0.34147 0.10804 0.26564 0.0
O1001 O 0.68363 0.60626 0.06603 0.0
Cd1002 Cd 0.66369 0.57747 0.04484 0.0
O1003 O 0.6953 0.58059 0.08959 0.0
Cd1004 Cd 0.6723 0.55408 0.07913 0.0
O1005 O 0.64943 0.53284 0.09817 0.0
C1006 C 0.64377 0.54262 0.11622 0.0
O1007 O 0.65014 0.5635 0.11905 0.0
C1008 C 0.69569 0.60074 0.08267 0.0
C1009 C 0.65525 0.59315 0.00164 0.0
O1010 O 0.67491 0.58725 0.00786 0.0
O1011 O 0.63934 0.59137 0.01597 0.0
O1012 O 0.64057 0.43328 0.31595 0.0
Cd1013 Cd 0.66933 0.41335 0.2947 0.0
O1014 O 0.66633 0.44507 0.33939 0.0
Cd1015 Cd 0.69288 0.42211 0.32892 0.0
O1016 O 0.71429 0.39938 0.34796 0.0
C1017 C 0.70459 0.3938 0.36607 0.0
O1018 O 0.6837 0.40015 0.36894 0.0
C1019 C 0.64614 0.44541 0.33254 0.0
C1020 C 0.65354 0.40501 0.25151 0.0
O1021 O 0.6595 0.42464 0.25776 0.0
O1022 O 0.65533 0.38909 0.26581 0.0
O1023 O 0.18361 0.89079 0.93098 0.0
Cd1024 Cd 0.16366 0.91958 0.95218 0.0
O1025 O 0.19529 0.91647 0.90744 0.0
Cd1026 Cd 0.17229 0.94298 0.9179 0.0
O1027 O 0.14943 0.96422 0.89886 0.0
C1028 C 0.14377 0.95445 0.8808 0.0
O1029 O 0.15014 0.93357 0.87797 0.0
C1030 C 0.19567 0.89631 0.91435 0.0
C1031 C 0.15523 0.90391 0.99538 0.0
O1032 O 0.17489 0.90982 0.98916 0.0
O1033 O 0.13933 0.90569 0.98105 0.0
O1034 O 0.35674 0.93289 0.18115 0.0
Cd1035 Cd 0.32774 0.9132 0.2023 0.0
O1036 O 0.33112 0.9449 0.15769 0.0
Cd1037 Cd 0.30435 0.9222 0.16815 0.0
O1038 O 0.28291 0.89945 0.14917 0.0
C1039 C 0.29268 0.89365 0.13116 0.0
O1040 O 0.31362 0.89986 0.12836 0.0
C1041 C 0.3513 0.94506 0.16457 0.0
C1042 C 0.34323 0.90502 0.24562 0.0
O1043 O 0.33737 0.92464 0.23926 0.0
O1044 O 0.34147 0.88903 0.23138 0.0
O1045 O 0.14056 0.0638 0.68106 0.0
Cd1046 Cd 0.16932 0.08373 0.70231 0.0
O1047 O 0.16632 0.052 0.65764 0.0
Cd1048 Cd 0.19287 0.07496 0.6681 0.0
O1049 O 0.21429 0.09768 0.64907 0.0
C1050 C 0.20459 0.10326 0.63096 0.0
O1051 O 0.18371 0.09691 0.62808 0.0
C1052 C 0.14613 0.05167 0.66448 0.0
C1053 C 0.15353 0.09207 0.7455 0.0
O1054 O 0.15949 0.07244 0.73926 0.0
O1055 O 0.15532 0.10799 0.73121 0.0
C1056 C 0.0805 0.21881 0.36557 0.0
N1057 N 0.09086 0.20148 0.37609 0.0
N1058 N 0.0956 0.2312 0.35384 0.0
C1059 C 0.05549 0.22311 0.36579 0.0
C1060 C 0.11533 0.22011 0.35664 0.0
N1061 N 0.1126 0.20229 0.37057 0.0
C1062 C 0.13719 0.2265 0.34552 0.0
H1063 H 0.04565 0.20884 0.37235 0.0
H1064 H 0.04937 0.22614 0.34851 0.0
H1065 H 0.05194 0.23826 0.37599 0.0
H1066 H 0.14849 0.23424 0.35811 0.0
H1067 H 0.1348 0.23816 0.3313 0.0
H1068 H 0.14556 0.21144 0.33857 0.0
C1069 C 0.02698 0.86515 0.60568 0.0
N1070 N 0.04473 0.86244 0.61974 0.0
N1071 N 0.01601 0.84538 0.60267 0.0
C1072 C 0.02053 0.88702 0.59465 0.0
C1073 C 0.02842 0.83029 0.61441 0.0
N1074 N 0.04561 0.84068 0.62513 0.0
C1075 C 0.02427 0.80526 0.61444 0.0
H1076 H 0.01262 0.89819 0.60725 0.0
H1077 H 0.00898 0.88463 0.58033 0.0
H1078 H 0.0356 0.89552 0.58787 0.0
H1079 H 0.02139 0.79923 0.5971 0.0
H1080 H 0.00908 0.80155 0.62453 0.0
H1081 H 0.03858 0.7955 0.62105 0.0
C1082 C 0.38198 0.77691 0.85557 0.0
N1083 N 0.38466 0.79472 0.86955 0.0
N1084 N 0.40177 0.76593 0.85266 0.0
C1085 C 0.36013 0.77042 0.8445 0.0
C1086 C 0.41684 0.77839 0.86437 0.0
N1087 N 0.40643 0.79564 0.87496 0.0
C1088 C 0.44187 0.77422 0.86454 0.0
H1089 H 0.34895 0.76248 0.85707 0.0
H1090 H 0.36257 0.75887 0.83018 0.0
H1091 H 0.3516 0.78545 0.8377 0.0
H1092 H 0.44797 0.7713 0.84723 0.0
H1093 H 0.44551 0.75904 0.87465 0.0
H1094 H 0.45163 0.78851 0.87118 0.0
C1095 C 0.46993 0.1315 0.10583 0.0
N1096 N 0.45208 0.13425 0.11976 0.0
N1097 N 0.48096 0.15125 0.10292 0.0
C1098 C 0.47641 0.10963 0.09482 0.0
C1099 C 0.46849 0.16637 0.11455 0.0
N1100 N 0.45119 0.15602 0.12513 0.0
C1101 C 0.47268 0.19139 0.11463 0.0
H1102 H 0.48426 0.09845 0.10745 0.0
H1103 H 0.48804 0.11201 0.08056 0.0
H1104 H 0.46138 0.10114 0.08795 0.0
H1105 H 0.47576 0.1974 0.09732 0.0
H1106 H 0.48776 0.19508 0.12488 0.0
H1107 H 0.45831 0.20118 0.12107 0.0
C1108 C 0.0805 0.77825 0.13146 0.0
N1109 N 0.09086 0.79558 0.12094 0.0
N1110 N 0.09561 0.76586 0.14319 0.0
C1111 C 0.05549 0.77394 0.13124 0.0
C1112 C 0.11534 0.77695 0.14039 0.0
N1113 N 0.1126 0.79478 0.12646 0.0
C1114 C 0.1372 0.77057 0.15151 0.0
H1115 H 0.04565 0.78822 0.12469 0.0
H1116 H 0.04938 0.77091 0.14852 0.0
H1117 H 0.05194 0.7588 0.12104 0.0
H1118 H 0.1485 0.76282 0.13891 0.0
H1119 H 0.13481 0.7589 0.16572 0.0
H1120 H 0.14557 0.78562 0.15846 0.0
C1121 C 0.46994 0.86557 0.39119 0.0
N1122 N 0.45209 0.86283 0.37726 0.0
N1123 N 0.48096 0.84582 0.3941 0.0
C1124 C 0.47641 0.88745 0.4022 0.0
C1125 C 0.46849 0.83071 0.38247 0.0
N1126 N 0.4512 0.84106 0.37189 0.0
C1127 C 0.47268 0.80569 0.38239 0.0
H1128 H 0.48426 0.89863 0.38957 0.0
H1129 H 0.48804 0.88507 0.41646 0.0
H1130 H 0.46138 0.89594 0.40906 0.0
H1131 H 0.47576 0.79968 0.3997 0.0
H1132 H 0.48776 0.80199 0.37214 0.0
H1133 H 0.45831 0.79589 0.37595 0.0
C1134 C 0.38199 0.22017 0.64146 0.0
N1135 N 0.38468 0.20236 0.62748 0.0
N1136 N 0.40178 0.23114 0.64437 0.0
C1137 C 0.36014 0.22665 0.65254 0.0
C1138 C 0.41685 0.21869 0.63266 0.0
N1139 N 0.40644 0.20144 0.62206 0.0
C1140 C 0.44188 0.22287 0.63249 0.0
H1141 H 0.34896 0.23458 0.63997 0.0
H1142 H 0.36259 0.2382 0.66685 0.0
H1143 H 0.35162 0.21162 0.65933 0.0
H1144 H 0.44799 0.22578 0.6498 0.0
H1145 H 0.44552 0.23805 0.62239 0.0
H1146 H 0.45165 0.20858 0.62583 0.0
C1147 C 0.02698 0.13193 0.89134 0.0
N1148 N 0.04473 0.13463 0.87728 0.0
N1149 N 0.01602 0.1517 0.89435 0.0
C1150 C 0.02054 0.11006 0.90238 0.0
C1151 C 0.02842 0.16678 0.88262 0.0
N1152 N 0.04561 0.1564 0.8719 0.0
C1153 C 0.02427 0.19181 0.88258 0.0
H1154 H 0.01263 0.09888 0.88978 0.0
H1155 H 0.00899 0.11245 0.9167 0.0
H1156 H 0.0356 0.10156 0.90916 0.0
H1157 H 0.02139 0.19784 0.89992 0.0
H1158 H 0.00908 0.19552 0.8725 0.0
H1159 H 0.03859 0.20158 0.87598 0.0
C1160 C 0.35558 0.11523 0.21978 0.0
N1161 N 0.36958 0.11248 0.20199 0.0
N1162 N 0.35265 0.0955 0.23082 0.0
C1163 C 0.34454 0.13711 0.22621 0.0
C1164 C 0.36434 0.08038 0.2184 0.0
N1165 N 0.37498 0.09072 0.20115 0.0
C1166 C 0.36443 0.05537 0.22262 0.0
H1167 H 0.35715 0.1483 0.23408 0.0
H1168 H 0.33025 0.13474 0.23779 0.0
H1169 H 0.33772 0.14559 0.21116 0.0
H1170 H 0.34712 0.04934 0.22566 0.0
H1171 H 0.37465 0.05171 0.23773 0.0
H1172 H 0.37092 0.04556 0.20827 0.0
C1173 C 0.13187 0.10553 0.47016 0.0
N1174 N 0.13454 0.11947 0.45233 0.0
N1175 N 0.15167 0.10261 0.4811 0.0
C1176 C 0.11001 0.0945 0.47669 0.0
C1177 C 0.16674 0.11428 0.4686 0.0
N1178 N 0.15631 0.12486 0.45137 0.0
C1179 C 0.19178 0.11441 0.47273 0.0
H1180 H 0.09887 0.1071 0.48465 0.0
H1181 H 0.11246 0.0802 0.48825 0.0
H1182 H 0.10144 0.0877 0.46168 0.0
H1183 H 0.19786 0.0971 0.47563 0.0
H1184 H 0.19547 0.12452 0.48791 0.0
H1185 H 0.20152 0.12102 0.45841 0.0
C1186 C 0.14103 0.88171 0.72002 0.0
N1187 N 0.12703 0.88441 0.70223 0.0
N1188 N 0.14402 0.90148 0.73098 0.0
C1189 C 0.15207 0.85984 0.72648 0.0
C1190 C 0.13233 0.91657 0.71854 0.0
N1191 N 0.12166 0.90618 0.70132 0.0
C1192 C 0.1323 0.9416 0.72267 0.0
H1193 H 0.13946 0.84868 0.73438 0.0
H1194 H 0.16638 0.86224 0.73805 0.0
H1195 H 0.15888 0.85133 0.71144 0.0
H1196 H 0.14963 0.94762 0.72561 0.0
H1197 H 0.12217 0.94533 0.73783 0.0
H1198 H 0.12574 0.95137 0.70834 0.0
C1199 C 0.33063 0.88153 0.96892 0.0
N1200 N 0.34098 0.87099 0.95159 0.0
N1201 N 0.34573 0.89324 0.98133 0.0
C1202 C 0.30561 0.88133 0.97321 0.0
C1203 C 0.36547 0.89041 0.97025 0.0
N1204 N 0.36273 0.87648 0.95241 0.0
C1205 C 0.38733 0.9015 0.97667 0.0
H1206 H 0.29577 0.87478 0.95892 0.0
H1207 H 0.29951 0.89862 0.97624 0.0
H1208 H 0.30204 0.87114 0.98836 0.0
H1209 H 0.39862 0.8889 0.9844 0.0
H1210 H 0.38495 0.91571 0.98835 0.0
H1211 H 0.39572 0.90845 0.96162 0.0
C1212 C 0.35558 0.88184 0.27724 0.0
N1213 N 0.36957 0.88459 0.29503 0.0
N1214 N 0.35265 0.90158 0.26621 0.0
C1215 C 0.34454 0.85996 0.27081 0.0
C1216 C 0.36434 0.91669 0.27862 0.0
N1217 N 0.37498 0.90636 0.29588 0.0
C1218 C 0.36443 0.94171 0.27441 0.0
H1219 H 0.35715 0.84877 0.26294 0.0
H1220 H 0.33025 0.86234 0.25923 0.0
H1221 H 0.33772 0.85149 0.28587 0.0
H1222 H 0.34712 0.94774 0.27137 0.0
H1223 H 0.37465 0.94537 0.2593 0.0
H1224 H 0.37092 0.95151 0.28875 0.0
C1225 C 0.33064 0.11553 0.52812 0.0
N1226 N 0.34099 0.12607 0.54545 0.0
N1227 N 0.34574 0.10382 0.5157 0.0
C1228 C 0.30562 0.11572 0.52384 0.0
C1229 C 0.36548 0.10666 0.52677 0.0
N1230 N 0.36275 0.12058 0.54462 0.0
C1231 C 0.38735 0.09557 0.52036 0.0
H1232 H 0.29578 0.12227 0.53813 0.0
H1233 H 0.29952 0.09843 0.52081 0.0
H1234 H 0.30204 0.1259 0.5087 0.0
H1235 H 0.39863 0.10817 0.51262 0.0
H1236 H 0.38496 0.08136 0.50867 0.0
H1237 H 0.39574 0.08863 0.5354 0.0
C1238 C 0.14103 0.11537 0.777 0.0
N1239 N 0.12703 0.11266 0.79479 0.0
N1240 N 0.14401 0.09559 0.76604 0.0
C1241 C 0.15206 0.13723 0.77054 0.0
C1242 C 0.13233 0.08051 0.77848 0.0
N1243 N 0.12166 0.0909 0.7957 0.0
C1244 C 0.13229 0.05548 0.77434 0.0
H1245 H 0.13946 0.1484 0.76264 0.0
H1246 H 0.16637 0.13484 0.75897 0.0
H1247 H 0.15887 0.14575 0.78558 0.0
H1248 H 0.14963 0.04946 0.77141 0.0
H1249 H 0.12216 0.05175 0.75919 0.0
H1250 H 0.12574 0.04571 0.78868 0.0
C1251 C 0.13186 0.89153 0.02687 0.0
N1252 N 0.13453 0.87759 0.0447 0.0
N1253 N 0.15166 0.89445 0.01592 0.0
C1254 C 0.11 0.90255 0.02033 0.0
C1255 C 0.16673 0.88279 0.02842 0.0
N1256 N 0.1563 0.8722 0.04566 0.0
C1257 C 0.19177 0.88265 0.02429 0.0
H1258 H 0.09886 0.88995 0.01238 0.0
H1259 H 0.11244 0.91685 0.00877 0.0
H1260 H 0.10144 0.90936 0.03535 0.0
H1261 H 0.19785 0.89997 0.02138 0.0
H1262 H 0.19546 0.87254 0.00912 0.0
H1263 H 0.20151 0.87604 0.03861 0.0
C1264 C 0.22004 0.35556 0.11522 0.0
N1265 N 0.20221 0.3695 0.1125 0.0
N1266 N 0.23106 0.35266 0.09545 0.0
C1267 C 0.22652 0.34452 0.13707 0.0
C1268 C 0.21861 0.36434 0.08036 0.0
N1269 N 0.20132 0.37491 0.09074 0.0
C1270 C 0.22281 0.36448 0.05534 0.0
H1271 H 0.23439 0.35712 0.14827 0.0
H1272 H 0.23813 0.33025 0.13466 0.0
H1273 H 0.21148 0.33767 0.14556 0.0
H1274 H 0.22581 0.34718 0.04926 0.0
H1275 H 0.23795 0.37466 0.0517 0.0
H1276 H 0.20848 0.37103 0.04556 0.0
C1277 C 0.72004 0.14153 0.8818 0.0
N1278 N 0.7022 0.1276 0.88452 0.0
N1279 N 0.73106 0.14442 0.90156 0.0
C1280 C 0.72652 0.15257 0.85994 0.0
C1281 C 0.71861 0.13275 0.91665 0.0
N1282 N 0.70132 0.12218 0.90628 0.0
C1283 C 0.72282 0.13261 0.94168 0.0
H1284 H 0.73438 0.13997 0.84875 0.0
H1285 H 0.73813 0.16684 0.86236 0.0
H1286 H 0.71148 0.15942 0.85145 0.0
H1287 H 0.72583 0.1499 0.94776 0.0
H1288 H 0.73795 0.12242 0.94531 0.0
H1289 H 0.70849 0.12606 0.95146 0.0
C1290 C 0.11521 0.46869 0.16654 0.0
N1291 N 0.12578 0.45141 0.15615 0.0
N1292 N 0.10351 0.48113 0.15144 0.0
C1293 C 0.11534 0.47291 0.19156 0.0
C1294 C 0.1064 0.47011 0.13168 0.0
N1295 N 0.12034 0.45229 0.1344 0.0
C1296 C 0.09535 0.47657 0.10981 0.0
H1297 H 0.12192 0.45863 0.20137 0.0
H1298 H 0.09803 0.47587 0.19763 0.0
H1299 H 0.12548 0.48808 0.1952 0.0
H1300 H 0.10798 0.48438 0.0986 0.0
H1301 H 0.0811 0.4882 0.1122 0.0
H1302 H 0.08846 0.46154 0.10135 0.0
C1303 C 0.77696 0.85573 0.38171 0.0
N1304 N 0.79473 0.86976 0.38442 0.0
N1305 N 0.766 0.85275 0.40149 0.0
C1306 C 0.77049 0.84469 0.35984 0.0
C1307 C 0.77842 0.86447 0.41658 0.0
N1308 N 0.79563 0.87515 0.40619 0.0
C1309 C 0.77428 0.86454 0.44162 0.0
H1310 H 0.76257 0.85728 0.34867 0.0
H1311 H 0.75894 0.83038 0.36224 0.0
H1312 H 0.78554 0.8379 0.35132 0.0
H1313 H 0.77139 0.84722 0.44766 0.0
H1314 H 0.75909 0.87463 0.44532 0.0
H1315 H 0.78859 0.87116 0.45138 0.0
C1316 C 0.89092 0.027 0.13179 0.0
N1317 N 0.87691 0.04479 0.13451 0.0
N1318 N 0.89385 0.01601 0.15155 0.0
C1319 C 0.90199 0.02057 0.10993 0.0
C1320 C 0.88212 0.02842 0.16665 0.0
N1321 N 0.87148 0.04566 0.15627 0.0
C1322 C 0.88201 0.02424 0.19167 0.0
H1323 H 0.88941 0.0127 0.09871 0.0
H1324 H 0.91628 0.00899 0.11233 0.0
H1325 H 0.90883 0.03562 0.10147 0.0
H1326 H 0.89934 0.02131 0.19773 0.0
H1327 H 0.87189 0.00907 0.19533 0.0
H1328 H 0.87542 0.03854 0.20147 0.0
C1329 C 0.27696 0.64135 0.6153 0.0
N1330 N 0.29473 0.62732 0.6126 0.0
N1331 N 0.26599 0.64433 0.59552 0.0
C1332 C 0.27049 0.65239 0.63717 0.0
C1333 C 0.27842 0.63261 0.58044 0.0
N1334 N 0.29562 0.62193 0.59083 0.0
C1335 C 0.27427 0.63253 0.5554 0.0
H1336 H 0.26257 0.63981 0.64834 0.0
H1337 H 0.25894 0.66671 0.63477 0.0
H1338 H 0.28555 0.65918 0.64569 0.0
H1339 H 0.27139 0.64986 0.54936 0.0
H1340 H 0.25908 0.62245 0.5517 0.0
H1341 H 0.28858 0.62592 0.54563 0.0
C1342 C 0.11523 0.52837 0.3305 0.0
N1343 N 0.1258 0.54566 0.34088 0.0
N1344 N 0.10354 0.51593 0.3456 0.0
C1345 C 0.11537 0.52414 0.30548 0.0
C1346 C 0.10642 0.52695 0.36536 0.0
N1347 N 0.12036 0.54479 0.36264 0.0
C1348 C 0.09538 0.5205 0.38723 0.0
H1349 H 0.12194 0.53843 0.29567 0.0
H1350 H 0.09806 0.52117 0.29941 0.0
H1351 H 0.12552 0.50898 0.30185 0.0
H1352 H 0.108 0.5127 0.39845 0.0
H1353 H 0.08113 0.50886 0.38484 0.0
H1354 H 0.08848 0.53553 0.39568 0.0
C1355 C 0.39092 0.47007 0.86524 0.0
N1356 N 0.37692 0.45228 0.86252 0.0
N1357 N 0.39385 0.48107 0.84547 0.0
C1358 C 0.40199 0.47651 0.8871 0.0
C1359 C 0.38212 0.46865 0.83038 0.0
N1360 N 0.37149 0.45141 0.84076 0.0
C1361 C 0.38202 0.47283 0.80536 0.0
H1362 H 0.3894 0.48437 0.89832 0.0
H1363 H 0.41628 0.48809 0.8847 0.0
H1364 H 0.40883 0.46146 0.89556 0.0
H1365 H 0.39934 0.47576 0.79929 0.0
H1366 H 0.37189 0.488 0.8017 0.0
H1367 H 0.37542 0.45853 0.79556 0.0
C1368 C 0.87977 0.76423 0.62911 0.0
N1369 N 0.8825 0.78175 0.61486 0.0
N1370 N 0.89947 0.7592 0.6394 0.0
C1371 C 0.85738 0.75406 0.63526 0.0
C1372 C 0.91428 0.7745 0.63114 0.0
N1373 N 0.90403 0.78792 0.6158 0.0
C1374 C 0.93935 0.77322 0.63503 0.0
H1375 H 0.85753 0.74693 0.65241 0.0
H1376 H 0.85323 0.74062 0.62309 0.0
H1377 H 0.84386 0.7668 0.63488 0.0
H1378 H 0.94522 0.75573 0.63267 0.0
H1379 H 0.94303 0.77818 0.65258 0.0
H1380 H 0.94944 0.78379 0.6237 0.0
C1381 C 0.98287 0.12968 0.37935 0.0
N1382 N 0.96538 0.13242 0.36505 0.0
N1383 N 0.98788 0.14938 0.38967 0.0
C1384 C 0.99305 0.10731 0.3855 0.0
C1385 C 0.9726 0.16418 0.38136 0.0
N1386 N 0.95921 0.15394 0.36598 0.0
C1387 C 0.97388 0.18925 0.38525 0.0
H1388 H 0.00021 0.10747 0.40264 0.0
H1389 H 0.00648 0.10315 0.37332 0.0
H1390 H 0.9803 0.0938 0.38512 0.0
H1391 H 0.99141 0.19508 0.38313 0.0
H1392 H 0.96868 0.19295 0.40273 0.0
H1393 H 0.96348 0.19933 0.37375 0.0
C1394 C 0.58262 0.22193 0.13225 0.0
N1395 N 0.59291 0.20858 0.11686 0.0
N1396 N 0.59732 0.2374 0.1404 0.0
C1397 C 0.55757 0.22292 0.13637 0.0
C1398 C 0.61703 0.23248 0.13007 0.0
N1399 N 0.61438 0.21492 0.11584 0.0
C1400 C 0.63935 0.24286 0.13611 0.0
H1401 H 0.55141 0.24022 0.13343 0.0
H1402 H 0.55416 0.21861 0.15415 0.0
H1403 H 0.54752 0.21173 0.12563 0.0
H1404 H 0.63921 0.25 0.15325 0.0
H1405 H 0.64332 0.25633 0.12392 0.0
H1406 H 0.65299 0.23025 0.13566 0.0
C1407 C 0.51441 0.8674 0.87995 0.0
N1408 N 0.53203 0.86469 0.8658 0.0
N1409 N 0.50943 0.84773 0.89031 0.0
C1410 C 0.50404 0.88974 0.8859 0.0
C1411 C 0.52489 0.83299 0.88222 0.0
N1412 N 0.53832 0.84322 0.86687 0.0
C1413 C 0.52379 0.80794 0.88631 0.0
H1414 H 0.49673 0.88963 0.90297 0.0
H1415 H 0.49069 0.89374 0.87358 0.0
H1416 H 0.51671 0.90332 0.88558 0.0
H1417 H 0.50642 0.80189 0.88351 0.0
H1418 H 0.52826 0.80449 0.90403 0.0
H1419 H 0.53481 0.79785 0.87542 0.0
C1420 C 0.87977 0.23284 0.86792 0.0
N1421 N 0.88251 0.21532 0.88217 0.0
N1422 N 0.89947 0.23788 0.85764 0.0
C1423 C 0.85739 0.24301 0.86177 0.0
C1424 C 0.91428 0.22258 0.8659 0.0
N1425 N 0.90403 0.20915 0.88123 0.0
C1426 C 0.93936 0.22385 0.862 0.0
H1427 H 0.85753 0.25014 0.84463 0.0
H1428 H 0.85324 0.25645 0.87394 0.0
H1429 H 0.84386 0.23027 0.86215 0.0
H1430 H 0.94522 0.24135 0.86435 0.0
H1431 H 0.94303 0.21889 0.84445 0.0
H1432 H 0.94945 0.21329 0.87334 0.0
C1433 C 0.51442 0.12968 0.61701 0.0
N1434 N 0.53203 0.13238 0.63117 0.0
N1435 N 0.50945 0.14935 0.60665 0.0
C1436 C 0.50402 0.10735 0.61107 0.0
C1437 C 0.52493 0.16408 0.61473 0.0
N1438 N 0.53834 0.15385 0.63009 0.0
C1439 C 0.52385 0.18912 0.61062 0.0
H1440 H 0.49672 0.10745 0.594 0.0
H1441 H 0.49067 0.10336 0.6234 0.0
H1442 H 0.51668 0.09375 0.61141 0.0
H1443 H 0.5065 0.19521 0.61347 0.0
H1444 H 0.52828 0.19255 0.59288 0.0
H1445 H 0.53492 0.19921 0.62147 0.0
C1446 C 0.58263 0.77515 0.36477 0.0
N1447 N 0.59291 0.7885 0.38016 0.0
N1448 N 0.59733 0.75967 0.35662 0.0
C1449 C 0.55757 0.77416 0.36065 0.0
C1450 C 0.61704 0.7646 0.36696 0.0
N1451 N 0.61438 0.78215 0.38118 0.0
C1452 C 0.63936 0.75422 0.36092 0.0
H1453 H 0.55142 0.75686 0.36359 0.0
H1454 H 0.55417 0.77846 0.34287 0.0
H1455 H 0.54752 0.78535 0.37139 0.0
H1456 H 0.63922 0.74707 0.34377 0.0
H1457 H 0.64333 0.74075 0.3731 0.0
H1458 H 0.65299 0.76683 0.36136 0.0
C1459 C 0.98287 0.86739 0.11764 0.0
N1460 N 0.96537 0.86466 0.13194 0.0
N1461 N 0.98786 0.8477 0.10732 0.0
C1462 C 0.99306 0.88976 0.1115 0.0
C1463 C 0.97257 0.8329 0.11562 0.0
N1464 N 0.95919 0.84315 0.131 0.0
C1465 C 0.97383 0.80784 0.11171 0.0
H1466 H 0.00021 0.88961 0.09436 0.0
H1467 H 0.00649 0.8939 0.12368 0.0
H1468 H 0.98032 0.90327 0.11188 0.0
H1469 H 0.99136 0.80199 0.11387 0.0
H1470 H 0.96868 0.80414 0.09422 0.0
H1471 H 0.9634 0.79775 0.12318 0.0
C1472 C 0.62936 0.87955 0.76432 0.0
N1473 N 0.61519 0.88232 0.78192 0.0
N1474 N 0.63971 0.89921 0.75928 0.0
C1475 C 0.63536 0.85717 0.75408 0.0
C1476 C 0.63156 0.91403 0.77463 0.0
N1477 N 0.61623 0.90383 0.78811 0.0
C1478 C 0.63553 0.93908 0.77337 0.0
H1479 H 0.65244 0.85727 0.74677 0.0
H1480 H 0.62305 0.85305 0.74075 0.0
H1481 H 0.63507 0.84366 0.76681 0.0
H1482 H 0.63324 0.94495 0.75587 0.0
H1483 H 0.65307 0.94271 0.77838 0.0
H1484 H 0.62418 0.9492 0.7839 0.0
C1485 C 0.86717 0.87972 0.51423 0.0
N1486 N 0.8645 0.86547 0.53175 0.0
N1487 N 0.84747 0.89004 0.50929 0.0
C1488 C 0.88951 0.8858 0.50392 0.0
C1489 C 0.83273 0.88184 0.52469 0.0
N1490 N 0.84301 0.86645 0.53804 0.0
C1491 C 0.80767 0.88586 0.5236 0.0
H1492 H 0.88937 0.90294 0.49678 0.0
H1493 H 0.89354 0.87362 0.49044 0.0
H1494 H 0.90311 0.88537 0.51657 0.0
H1495 H 0.80163 0.88317 0.50621 0.0
H1496 H 0.80414 0.90353 0.52821 0.0
H1497 H 0.7976 0.87485 0.53452 0.0
C1498 C 0.86736 0.1172 0.26432 0.0
N1499 N 0.88164 0.11449 0.28183 0.0
N1500 N 0.85699 0.09752 0.25937 0.0
C1501 C 0.8613 0.13955 0.25404 0.0
C1502 C 0.8652 0.08277 0.27475 0.0
N1503 N 0.88062 0.09301 0.2881 0.0
C1504 C 0.86116 0.05772 0.27361 0.0
H1505 H 0.84414 0.13944 0.24692 0.0
H1506 H 0.87347 0.14357 0.24056 0.0
H1507 H 0.86176 0.15313 0.26671 0.0
H1508 H 0.86369 0.05172 0.25618 0.0
H1509 H 0.84352 0.0542 0.27837 0.0
H1510 H 0.87228 0.04763 0.2844 0.0
C1511 C 0.62979 0.11778 0.01431 0.0
N1512 N 0.6325 0.13201 0.03187 0.0
N1513 N 0.64952 0.10755 0.00925 0.0
C1514 C 0.60743 0.11161 0.00412 0.0
C1515 C 0.66431 0.11582 0.02457 0.0
N1516 N 0.65403 0.13111 0.03803 0.0
C1517 C 0.6894 0.112 0.02327 0.0
H1518 H 0.60762 0.0945 0.9969 0.0
H1519 H 0.60324 0.12382 0.99073 0.0
H1520 H 0.59391 0.11192 0.01686 0.0
H1521 H 0.69524 0.11436 0.00577 0.0
H1522 H 0.69313 0.09447 0.02822 0.0
H1523 H 0.69947 0.12337 0.03382 0.0
C1524 C 0.62928 0.11751 0.73272 0.0
N1525 N 0.61511 0.11474 0.71513 0.0
N1526 N 0.63963 0.09785 0.73778 0.0
C1527 C 0.6353 0.1399 0.74295 0.0
C1528 C 0.63146 0.08303 0.72244 0.0
N1529 N 0.61613 0.09323 0.70896 0.0
C1530 C 0.63541 0.05797 0.72372 0.0
H1531 H 0.65238 0.1398 0.75025 0.0
H1532 H 0.62299 0.14404 0.75627 0.0
H1533 H 0.63501 0.1534 0.7302 0.0
H1534 H 0.63318 0.05213 0.74124 0.0
H1535 H 0.65293 0.05432 0.71865 0.0
H1536 H 0.624 0.04786 0.71325 0.0
C1537 C 0.62979 0.8793 0.48271 0.0
N1538 N 0.6325 0.86507 0.46515 0.0
N1539 N 0.64952 0.88953 0.48777 0.0
C1540 C 0.60743 0.88547 0.4929 0.0
C1541 C 0.66431 0.88126 0.47245 0.0
N1542 N 0.65403 0.86597 0.45899 0.0
C1543 C 0.6894 0.88508 0.47375 0.0
H1544 H 0.60761 0.90258 0.50012 0.0
H1545 H 0.60324 0.87326 0.50629 0.0
H1546 H 0.59391 0.88516 0.48016 0.0
H1547 H 0.69524 0.88272 0.49125 0.0
H1548 H 0.69313 0.90261 0.4688 0.0
H1549 H 0.69947 0.87371 0.4632 0.0
C1550 C 0.8674 0.87988 0.23272 0.0
N1551 N 0.88167 0.88259 0.2152 0.0
N1552 N 0.85704 0.89956 0.23767 0.0
C1553 C 0.86133 0.85753 0.24298 0.0
C1554 C 0.86525 0.91432 0.2223 0.0
N1555 N 0.88066 0.90408 0.20894 0.0
C1556 C 0.86122 0.93937 0.22345 0.0
H1557 H 0.84418 0.85765 0.2501 0.0
H1558 H 0.8735 0.8535 0.25646 0.0
H1559 H 0.86179 0.84396 0.2303 0.0
H1560 H 0.86372 0.94535 0.24089 0.0
H1561 H 0.8436 0.9429 0.21866 0.0
H1562 H 0.87237 0.94945 0.21269 0.0
C1563 C 0.86717 0.11735 0.9828 0.0
N1564 N 0.8645 0.1316 0.96527 0.0
N1565 N 0.84746 0.10702 0.98773 0.0
C1566 C 0.88951 0.11127 0.99311 0.0
C1567 C 0.83273 0.11523 0.97233 0.0
N1568 N 0.84301 0.13061 0.95898 0.0
C1569 C 0.80766 0.11121 0.97342 0.0
H1570 H 0.88936 0.09413 0.00024 0.0
H1571 H 0.89354 0.12344 0.00658 0.0
H1572 H 0.90311 0.11169 0.98045 0.0
H1573 H 0.80162 0.1139 0.9908 0.0
H1574 H 0.80415 0.09353 0.96882 0.0
H1575 H 0.7976 0.12221 0.96249 0.0
C1576 C 0.7642 0.62947 0.87952 0.0
N1577 N 0.78185 0.61536 0.88222 0.0
N1578 N 0.75922 0.63985 0.89919 0.0
C1579 C 0.75378 0.63535 0.85718 0.0
C1580 C 0.77471 0.63182 0.91393 0.0
N1581 N 0.78817 0.6165 0.90369 0.0
C1582 C 0.7736 0.6359 0.93898 0.0
H1583 H 0.74648 0.65242 0.85726 0.0
H1584 H 0.74042 0.62302 0.85323 0.0
H1585 H 0.76641 0.63497 0.84356 0.0
H1586 H 0.75619 0.63332 0.94501 0.0
H1587 H 0.7783 0.65355 0.94247 0.0
H1588 H 0.78444 0.62484 0.94907 0.0
C1589 C 0.26419 0.86762 0.11752 0.0
N1590 N 0.28184 0.88172 0.11481 0.0
N1591 N 0.25922 0.85723 0.09785 0.0
C1592 C 0.25377 0.86174 0.13985 0.0
C1593 C 0.27471 0.86526 0.08311 0.0
N1594 N 0.28817 0.88058 0.09335 0.0
C1595 C 0.2736 0.86117 0.05806 0.0
H1596 H 0.24647 0.84467 0.13977 0.0
H1597 H 0.2404 0.87407 0.1438 0.0
H1598 H 0.2664 0.86212 0.15347 0.0
H1599 H 0.25619 0.86376 0.05202 0.0
H1600 H 0.2783 0.84352 0.05456 0.0
H1601 H 0.28444 0.87223 0.04797 0.0
C1602 C 0.88209 0.52517 0.8326 0.0
N1603 N 0.86673 0.53858 0.84286 0.0
N1604 N 0.89031 0.50981 0.84737 0.0
C1605 C 0.8861 0.524 0.80754 0.0
C1606 C 0.88006 0.51487 0.86708 0.0
N1607 N 0.86581 0.5324 0.86437 0.0
C1608 C 0.8862 0.50466 0.88944 0.0
H1609 H 0.88315 0.50665 0.80152 0.0
H1610 H 0.90386 0.52831 0.80403 0.0
H1611 H 0.8753 0.53509 0.79746 0.0
H1612 H 0.90332 0.49747 0.88927 0.0
H1613 H 0.87399 0.49125 0.89359 0.0
H1614 H 0.88587 0.51739 0.90297 0.0
C1615 C 0.23297 0.12942 0.61732 0.0
N1616 N 0.21546 0.11513 0.61459 0.0
N1617 N 0.23796 0.13972 0.59762 0.0
C1618 C 0.24316 0.13557 0.63969 0.0
C1619 C 0.22266 0.13142 0.58283 0.0
N1620 N 0.20927 0.11606 0.59308 0.0
C1621 C 0.22392 0.1353 0.55775 0.0
H1622 H 0.25032 0.1527 0.63954 0.0
H1623 H 0.2566 0.1234 0.64383 0.0
H1624 H 0.23043 0.1352 0.65321 0.0
H1625 H 0.24144 0.13312 0.55189 0.0
H1626 H 0.21878 0.15279 0.55406 0.0
H1627 H 0.21347 0.12384 0.54767 0.0
C1628 C 0.11757 0.98277 0.86717 0.0
N1629 N 0.13182 0.96524 0.86445 0.0
N1630 N 0.10723 0.98774 0.84748 0.0
C1631 C 0.11147 0.99302 0.88953 0.0
C1632 C 0.11546 0.97238 0.8327 0.0
N1633 N 0.13083 0.959 0.84295 0.0
C1634 C 0.11147 0.97356 0.80764 0.0
H1635 H 0.09432 0.00015 0.8894 0.0
H1636 H 0.12365 0.00648 0.8936 0.0
H1637 H 0.1119 0.98033 0.90309 0.0
H1638 H 0.11396 0.991 0.80169 0.0
H1639 H 0.09385 0.96875 0.80406 0.0
H1640 H 0.12265 0.96283 0.79755 0.0
C1641 C 0.73296 0.36764 0.37971 0.0
N1642 N 0.71545 0.38193 0.38244 0.0
N1643 N 0.73795 0.35734 0.39941 0.0
C1644 C 0.74316 0.36149 0.35734 0.0
C1645 C 0.72265 0.36564 0.4142 0.0
N1646 N 0.70926 0.381 0.40395 0.0
C1647 C 0.7239 0.36175 0.43927 0.0
H1648 H 0.75032 0.34436 0.35749 0.0
H1649 H 0.7566 0.37367 0.35321 0.0
H1650 H 0.73043 0.36186 0.34381 0.0
H1651 H 0.74142 0.36393 0.44514 0.0
H1652 H 0.71876 0.34426 0.44296 0.0
H1653 H 0.71344 0.3732 0.44936 0.0
C1654 C 0.88209 0.47191 0.66442 0.0
N1655 N 0.86673 0.4585 0.65417 0.0
N1656 N 0.89031 0.48726 0.64965 0.0
C1657 C 0.88611 0.47307 0.68948 0.0
C1658 C 0.88005 0.48221 0.62994 0.0
N1659 N 0.86581 0.46468 0.63265 0.0
C1660 C 0.8862 0.49242 0.60758 0.0
H1661 H 0.88315 0.49042 0.6955 0.0
H1662 H 0.90386 0.46876 0.69299 0.0
H1663 H 0.8753 0.46197 0.69956 0.0
H1664 H 0.90332 0.49961 0.60776 0.0
H1665 H 0.87399 0.50582 0.60343 0.0
H1666 H 0.88586 0.47969 0.59405 0.0
C1667 C 0.61756 0.51431 0.12985 0.0
N1668 N 0.63181 0.53183 0.13257 0.0
N1669 N 0.60722 0.50934 0.14954 0.0
C1670 C 0.61147 0.50406 0.10749 0.0
C1671 C 0.61544 0.5247 0.16432 0.0
N1672 N 0.63082 0.53808 0.15407 0.0
C1673 C 0.61145 0.52353 0.18938 0.0
H1674 H 0.59431 0.49693 0.10762 0.0
H1675 H 0.62364 0.49059 0.10343 0.0
H1676 H 0.6119 0.51674 0.09393 0.0
H1677 H 0.61394 0.50609 0.19533 0.0
H1678 H 0.59382 0.52833 0.19295 0.0
H1679 H 0.62261 0.53427 0.19947 0.0
C1680 C 0.58049 0.71881 0.86556 0.0
N1681 N 0.59085 0.70148 0.87608 0.0
N1682 N 0.59559 0.7312 0.85382 0.0
C1683 C 0.55548 0.72311 0.86578 0.0
C1684 C 0.61533 0.72011 0.85663 0.0
N1685 N 0.61259 0.70229 0.87056 0.0
C1686 C 0.63718 0.72649 0.84551 0.0
H1687 H 0.54564 0.70884 0.87234 0.0
H1688 H 0.54936 0.72613 0.84849 0.0
H1689 H 0.55193 0.73826 0.87597 0.0
H1690 H 0.64848 0.73424 0.8581 0.0
H1691 H 0.63479 0.73815 0.83129 0.0
H1692 H 0.64556 0.71144 0.83856 0.0
C1693 C 0.52697 0.36515 0.10569 0.0
N1694 N 0.54472 0.36244 0.11975 0.0
N1695 N 0.51601 0.34538 0.10268 0.0
C1696 C 0.52053 0.38702 0.09466 0.0
C1697 C 0.52841 0.33029 0.11441 0.0
N1698 N 0.5456 0.34068 0.12513 0.0
C1699 C 0.52426 0.30527 0.11445 0.0
H1700 H 0.51262 0.3982 0.10725 0.0
H1701 H 0.50897 0.38463 0.08034 0.0
H1702 H 0.53559 0.39552 0.08787 0.0
H1703 H 0.52138 0.29924 0.09711 0.0
H1704 H 0.50907 0.30156 0.12453 0.0
H1705 H 0.53858 0.2955 0.12105 0.0
C1706 C 0.88199 0.27691 0.35556 0.0
N1707 N 0.88467 0.29472 0.36954 0.0
N1708 N 0.90178 0.26594 0.35264 0.0
C1709 C 0.86014 0.27042 0.34449 0.0
C1710 C 0.91685 0.2784 0.36436 0.0
N1711 N 0.90643 0.29564 0.37496 0.0
C1712 C 0.94188 0.27423 0.36452 0.0
H1713 H 0.84897 0.26248 0.35706 0.0
H1714 H 0.86258 0.25888 0.33017 0.0
H1715 H 0.85161 0.28545 0.33769 0.0
H1716 H 0.94799 0.27133 0.34721 0.0
H1717 H 0.94553 0.25904 0.37462 0.0
H1718 H 0.95164 0.28852 0.37118 0.0
C1719 C 0.96993 0.6315 0.60584 0.0
N1720 N 0.95208 0.63425 0.61976 0.0
N1721 N 0.98096 0.65125 0.60293 0.0
C1722 C 0.97641 0.60963 0.59482 0.0
C1723 C 0.96849 0.66637 0.61456 0.0
N1724 N 0.95119 0.65602 0.62514 0.0
C1725 C 0.97268 0.69139 0.61463 0.0
H1726 H 0.98426 0.59845 0.60745 0.0
H1727 H 0.98804 0.61201 0.58056 0.0
H1728 H 0.96138 0.60114 0.58796 0.0
H1729 H 0.97576 0.6974 0.59732 0.0
H1730 H 0.98776 0.69508 0.62488 0.0
H1731 H 0.95831 0.70118 0.62108 0.0
C1732 C 0.5805 0.27825 0.63146 0.0
N1733 N 0.59086 0.29558 0.62094 0.0
N1734 N 0.59561 0.26586 0.64319 0.0
C1735 C 0.55549 0.27394 0.63124 0.0
C1736 C 0.61534 0.27695 0.64039 0.0
N1737 N 0.6126 0.29478 0.62646 0.0
C1738 C 0.6372 0.27057 0.6515 0.0
H1739 H 0.54565 0.28822 0.62469 0.0
H1740 H 0.54938 0.27091 0.64852 0.0
H1741 H 0.55194 0.2588 0.62103 0.0
H1742 H 0.6485 0.26282 0.63891 0.0
H1743 H 0.63481 0.2589 0.66572 0.0
H1744 H 0.64557 0.28562 0.65846 0.0
C1745 C 0.96994 0.36557 0.89119 0.0
N1746 N 0.95209 0.36283 0.87727 0.0
N1747 N 0.98096 0.34582 0.8941 0.0
C1748 C 0.97641 0.38745 0.9022 0.0
C1749 C 0.96849 0.33071 0.88247 0.0
N1750 N 0.95119 0.34106 0.87189 0.0
C1751 C 0.97268 0.30569 0.88239 0.0
H1752 H 0.98426 0.39863 0.88957 0.0
H1753 H 0.98804 0.38507 0.91646 0.0
H1754 H 0.96138 0.39594 0.90906 0.0
H1755 H 0.97576 0.29968 0.8997 0.0
H1756 H 0.98776 0.30199 0.87214 0.0
H1757 H 0.95831 0.29589 0.87595 0.0
C1758 C 0.88199 0.72017 0.14146 0.0
N1759 N 0.88468 0.70236 0.12748 0.0
N1760 N 0.90178 0.73114 0.14437 0.0
C1761 C 0.86014 0.72665 0.15254 0.0
C1762 C 0.91685 0.71869 0.13266 0.0
N1763 N 0.90644 0.70144 0.12206 0.0
C1764 C 0.94188 0.72287 0.13249 0.0
H1765 H 0.84896 0.73458 0.13996 0.0
H1766 H 0.86258 0.7382 0.16685 0.0
H1767 H 0.85162 0.71162 0.15933 0.0
H1768 H 0.94799 0.72578 0.1498 0.0
H1769 H 0.94552 0.73805 0.12239 0.0
H1770 H 0.95165 0.70858 0.12584 0.0
C1771 C 0.52698 0.63192 0.39134 0.0
N1772 N 0.54473 0.63463 0.37728 0.0
N1773 N 0.51602 0.65169 0.39435 0.0
C1774 C 0.52054 0.61006 0.40237 0.0
C1775 C 0.52842 0.66678 0.38262 0.0
N1776 N 0.54561 0.6564 0.3719 0.0
C1777 C 0.52427 0.69181 0.38258 0.0
H1778 H 0.51262 0.59888 0.38978 0.0
H1779 H 0.50898 0.61245 0.41669 0.0
H1780 H 0.5356 0.60155 0.40916 0.0
H1781 H 0.52139 0.69784 0.39992 0.0
H1782 H 0.50908 0.69552 0.3725 0.0
H1783 H 0.53859 0.70158 0.37598 0.0
C1784 C 0.85558 0.61523 0.71978 0.0
N1785 N 0.86957 0.61248 0.70199 0.0
N1786 N 0.85265 0.5955 0.73082 0.0
C1787 C 0.84454 0.63711 0.72621 0.0
C1788 C 0.86434 0.58038 0.7184 0.0
N1789 N 0.87498 0.59072 0.70114 0.0
C1790 C 0.86443 0.55537 0.72262 0.0
H1791 H 0.85715 0.6483 0.73408 0.0
H1792 H 0.83024 0.63473 0.73779 0.0
H1793 H 0.83772 0.64558 0.71115 0.0
H1794 H 0.84712 0.54934 0.72566 0.0
H1795 H 0.87465 0.55171 0.73773 0.0
H1796 H 0.87092 0.54556 0.70827 0.0
C1797 C 0.63187 0.60554 0.97016 0.0
N1798 N 0.63454 0.61948 0.95233 0.0
N1799 N 0.65167 0.60261 0.9811 0.0
C1800 C 0.61002 0.59451 0.97669 0.0
C1801 C 0.66674 0.61428 0.9686 0.0
N1802 N 0.65631 0.62487 0.95137 0.0
C1803 C 0.69178 0.61441 0.97273 0.0
H1804 H 0.59887 0.60711 0.98465 0.0
H1805 H 0.61246 0.58021 0.98825 0.0
H1806 H 0.60145 0.58771 0.96168 0.0
H1807 H 0.69786 0.5971 0.97563 0.0
H1808 H 0.69547 0.62453 0.9879 0.0
H1809 H 0.70152 0.62103 0.95841 0.0
C1810 C 0.64103 0.38171 0.22002 0.0
N1811 N 0.62702 0.38441 0.20223 0.0
N1812 N 0.64402 0.40148 0.23098 0.0
C1813 C 0.65207 0.35984 0.22648 0.0
C1814 C 0.63233 0.41657 0.21854 0.0
N1815 N 0.62166 0.40618 0.20132 0.0
C1816 C 0.6323 0.4416 0.22267 0.0
H1817 H 0.63946 0.34868 0.23438 0.0
H1818 H 0.66637 0.36224 0.23805 0.0
H1819 H 0.65887 0.35133 0.21144 0.0
H1820 H 0.64964 0.44762 0.22561 0.0
H1821 H 0.62217 0.44533 0.23783 0.0
H1822 H 0.62574 0.45137 0.20834 0.0
C1823 C 0.83062 0.38152 0.46892 0.0
N1824 N 0.84098 0.37099 0.45159 0.0
N1825 N 0.84573 0.39324 0.48134 0.0
C1826 C 0.80561 0.38133 0.47321 0.0
C1827 C 0.86547 0.39041 0.47026 0.0
N1828 N 0.86273 0.37648 0.45241 0.0
C1829 C 0.88733 0.4015 0.47667 0.0
H1830 H 0.79577 0.37477 0.45892 0.0
H1831 H 0.79951 0.39861 0.47624 0.0
H1832 H 0.80204 0.37114 0.48835 0.0
H1833 H 0.89862 0.3889 0.4844 0.0
H1834 H 0.88495 0.41571 0.48835 0.0
H1835 H 0.89571 0.40845 0.46162 0.0
C1836 C 0.85558 0.38184 0.77724 0.0
N1837 N 0.86957 0.38459 0.79503 0.0
N1838 N 0.85265 0.40158 0.76621 0.0
C1839 C 0.84454 0.35996 0.77081 0.0
C1840 C 0.86434 0.41669 0.77862 0.0
N1841 N 0.87498 0.40636 0.79588 0.0
C1842 C 0.86443 0.44171 0.77441 0.0
H1843 H 0.85715 0.34877 0.76294 0.0
H1844 H 0.83025 0.36234 0.75923 0.0
H1845 H 0.83772 0.35149 0.78587 0.0
H1846 H 0.84712 0.44774 0.77137 0.0
H1847 H 0.87465 0.44537 0.7593 0.0
H1848 H 0.87093 0.45151 0.78875 0.0
C1849 C 0.83064 0.61553 0.02812 0.0
N1850 N 0.84099 0.62607 0.04545 0.0
N1851 N 0.84574 0.60382 0.0157 0.0
C1852 C 0.80562 0.61572 0.02384 0.0
C1853 C 0.86548 0.60666 0.02677 0.0
N1854 N 0.86275 0.62058 0.04462 0.0
C1855 C 0.88735 0.59557 0.02036 0.0
H1856 H 0.79578 0.62227 0.03813 0.0
H1857 H 0.79952 0.59843 0.02081 0.0
H1858 H 0.80204 0.6259 0.0087 0.0
H1859 H 0.89863 0.60817 0.01262 0.0
H1860 H 0.88496 0.58136 0.00867 0.0
H1861 H 0.89574 0.58862 0.0354 0.0
C1862 C 0.64103 0.61537 0.277 0.0
N1863 N 0.62702 0.61266 0.29479 0.0
N1864 N 0.64401 0.59559 0.26604 0.0
C1865 C 0.65206 0.63723 0.27054 0.0
C1866 C 0.63233 0.58051 0.27848 0.0
N1867 N 0.62166 0.59089 0.2957 0.0
C1868 C 0.63229 0.55548 0.27434 0.0
H1869 H 0.63946 0.6484 0.26264 0.0
H1870 H 0.66637 0.63484 0.25897 0.0
H1871 H 0.65887 0.64575 0.28558 0.0
H1872 H 0.64963 0.54946 0.2714 0.0
H1873 H 0.62216 0.55175 0.25919 0.0
H1874 H 0.62574 0.54571 0.28867 0.0
C1875 C 0.63186 0.39153 0.52687 0.0
N1876 N 0.63453 0.37759 0.5447 0.0
N1877 N 0.65166 0.39445 0.51592 0.0
C1878 C 0.61 0.40256 0.52033 0.0
C1879 C 0.66673 0.38279 0.52842 0.0
N1880 N 0.6563 0.3722 0.54566 0.0
C1881 C 0.69177 0.38265 0.52429 0.0
H1882 H 0.59886 0.38996 0.51238 0.0
H1883 H 0.61244 0.41685 0.50877 0.0
H1884 H 0.60144 0.40936 0.53535 0.0
H1885 H 0.69785 0.39997 0.52138 0.0
H1886 H 0.69546 0.37254 0.50912 0.0
H1887 H 0.70151 0.37604 0.53861 0.0
C1888 C 0.72004 0.85555 0.61521 0.0
N1889 N 0.7022 0.86949 0.6125 0.0
N1890 N 0.73106 0.85266 0.59545 0.0
C1891 C 0.72651 0.84451 0.63707 0.0
C1892 C 0.7186 0.86434 0.58036 0.0
N1893 N 0.70132 0.87491 0.59074 0.0
C1894 C 0.72281 0.86448 0.55534 0.0
H1895 H 0.73438 0.85711 0.64827 0.0
H1896 H 0.73812 0.83025 0.63465 0.0
H1897 H 0.71148 0.83766 0.64556 0.0
H1898 H 0.72582 0.84719 0.54926 0.0
H1899 H 0.73795 0.87467 0.5517 0.0
H1900 H 0.70848 0.87103 0.54556 0.0
C1901 C 0.22004 0.64153 0.3818 0.0
N1902 N 0.2022 0.62759 0.38452 0.0
N1903 N 0.23106 0.64442 0.40157 0.0
C1904 C 0.22652 0.65257 0.35995 0.0
C1905 C 0.21861 0.63275 0.41666 0.0
N1906 N 0.20132 0.62218 0.40628 0.0
C1907 C 0.22282 0.6326 0.44168 0.0
H1908 H 0.23438 0.63997 0.34875 0.0
H1909 H 0.23813 0.66684 0.36236 0.0
H1910 H 0.21148 0.65942 0.35146 0.0
H1911 H 0.22583 0.6499 0.44776 0.0
H1912 H 0.23795 0.62242 0.44532 0.0
H1913 H 0.20849 0.62606 0.45146 0.0
C1914 C 0.61521 0.96869 0.66654 0.0
N1915 N 0.62578 0.95141 0.65615 0.0
N1916 N 0.60351 0.98113 0.65144 0.0
C1917 C 0.61534 0.97291 0.69156 0.0
C1918 C 0.6064 0.97011 0.63168 0.0
N1919 N 0.62034 0.95229 0.6344 0.0
C1920 C 0.59535 0.97657 0.60981 0.0
H1921 H 0.62192 0.95863 0.70137 0.0
H1922 H 0.59802 0.97587 0.69763 0.0
H1923 H 0.62548 0.98808 0.6952 0.0
H1924 H 0.60797 0.98438 0.5986 0.0
H1925 H 0.5811 0.9882 0.6122 0.0
H1926 H 0.58846 0.96154 0.60135 0.0
C1927 C 0.27696 0.35573 0.88172 0.0
N1928 N 0.29473 0.36976 0.88442 0.0
N1929 N 0.26599 0.35275 0.90149 0.0
C1930 C 0.27049 0.34469 0.85985 0.0
C1931 C 0.27842 0.36448 0.91658 0.0
N1932 N 0.29563 0.37516 0.90619 0.0
C1933 C 0.27427 0.36455 0.94162 0.0
H1934 H 0.26257 0.35727 0.84868 0.0
H1935 H 0.25894 0.33038 0.86224 0.0
H1936 H 0.28554 0.3379 0.85133 0.0
H1937 H 0.27139 0.34722 0.94766 0.0
H1938 H 0.25908 0.37463 0.94532 0.0
H1939 H 0.28859 0.37117 0.95138 0.0
C1940 C 0.39091 0.527 0.63178 0.0
N1941 N 0.37691 0.54479 0.6345 0.0
N1942 N 0.39384 0.516 0.65154 0.0
C1943 C 0.40198 0.52056 0.60992 0.0
C1944 C 0.38211 0.52843 0.66664 0.0
N1945 N 0.37148 0.54567 0.65626 0.0
C1946 C 0.38201 0.52424 0.69166 0.0
H1947 H 0.38939 0.5127 0.5987 0.0
H1948 H 0.41627 0.50898 0.61232 0.0
H1949 H 0.40882 0.53561 0.60146 0.0
H1950 H 0.39933 0.52131 0.69772 0.0
H1951 H 0.37188 0.50908 0.69532 0.0
H1952 H 0.37542 0.53855 0.70146 0.0
C1953 C 0.77695 0.14134 0.11531 0.0
N1954 N 0.79472 0.12731 0.1126 0.0
N1955 N 0.76599 0.14432 0.09553 0.0
C1956 C 0.77049 0.15238 0.13718 0.0
C1957 C 0.77842 0.1326 0.08044 0.0
N1958 N 0.79562 0.12192 0.09083 0.0
C1959 C 0.77428 0.13253 0.05541 0.0
H1960 H 0.76256 0.1398 0.14835 0.0
H1961 H 0.75893 0.1667 0.13478 0.0
H1962 H 0.78554 0.15917 0.1457 0.0
H1963 H 0.77139 0.14986 0.04937 0.0
H1964 H 0.75908 0.12245 0.0517 0.0
H1965 H 0.78859 0.12592 0.04564 0.0
C1966 C 0.61524 0.02837 0.83051 0.0
N1967 N 0.6258 0.04566 0.84089 0.0
N1968 N 0.60355 0.01592 0.8456 0.0
C1969 C 0.61538 0.02414 0.80549 0.0
C1970 C 0.60643 0.02695 0.86536 0.0
N1971 N 0.62036 0.04479 0.86264 0.0
C1972 C 0.59538 0.0205 0.88723 0.0
H1973 H 0.62194 0.03842 0.79567 0.0
H1974 H 0.59806 0.02116 0.79941 0.0
H1975 H 0.62553 0.00898 0.80185 0.0
H1976 H 0.60801 0.0127 0.89845 0.0
H1977 H 0.58114 0.00885 0.88485 0.0
H1978 H 0.58848 0.03553 0.89569 0.0
C1979 C 0.89091 0.97008 0.36524 0.0
N1980 N 0.87691 0.95229 0.36252 0.0
N1981 N 0.89383 0.98108 0.34548 0.0
C1982 C 0.90198 0.97652 0.38711 0.0
C1983 C 0.88211 0.96866 0.33039 0.0
N1984 N 0.87148 0.95142 0.34076 0.0
C1985 C 0.882 0.97285 0.30536 0.0
H1986 H 0.88939 0.98438 0.39833 0.0
H1987 H 0.91627 0.9881 0.38471 0.0
H1988 H 0.90883 0.96147 0.39557 0.0
H1989 H 0.89933 0.97579 0.2993 0.0
H1990 H 0.87187 0.98801 0.30171 0.0
H1991 H 0.87542 0.95855 0.29557 0.0
C1992 C 0.37977 0.26423 0.12912 0.0
N1993 N 0.3825 0.28175 0.11487 0.0
N1994 N 0.39947 0.2592 0.13941 0.0
C1995 C 0.35738 0.25406 0.13527 0.0
C1996 C 0.41427 0.2745 0.13115 0.0
N1997 N 0.40403 0.28792 0.11581 0.0
C1998 C 0.43935 0.27323 0.13505 0.0
H1999 H 0.35753 0.24693 0.15241 0.0
H2000 H 0.35324 0.24061 0.1231 0.0
H2001 H 0.34386 0.26679 0.13488 0.0
H2002 H 0.44522 0.25574 0.13268 0.0
H2003 H 0.44302 0.27818 0.1526 0.0
H2004 H 0.44944 0.28381 0.12373 0.0
C2005 C 0.48286 0.62968 0.8794 0.0
N2006 N 0.46536 0.63241 0.86511 0.0
N2007 N 0.48785 0.64937 0.88973 0.0
C2008 C 0.49305 0.60731 0.88554 0.0
C2009 C 0.47256 0.66417 0.88143 0.0
N2010 N 0.45918 0.65392 0.86605 0.0
C2011 C 0.47382 0.68923 0.88534 0.0
H2012 H 0.50021 0.60746 0.90268 0.0
H2013 H 0.50649 0.60317 0.87336 0.0
H2014 H 0.48031 0.5938 0.88516 0.0
H2015 H 0.49135 0.69509 0.88317 0.0
H2016 H 0.46868 0.69292 0.90284 0.0
H2017 H 0.46338 0.69932 0.87389 0.0
C2018 C 0.08262 0.72193 0.63225 0.0
N2019 N 0.09291 0.70858 0.61686 0.0
N2020 N 0.09733 0.7374 0.6404 0.0
C2021 C 0.05757 0.72292 0.63638 0.0
C2022 C 0.11704 0.73248 0.63007 0.0
N2023 N 0.11438 0.71492 0.61584 0.0
C2024 C 0.13936 0.74286 0.63611 0.0
H2025 H 0.05142 0.74022 0.63343 0.0
H2026 H 0.05417 0.71861 0.65415 0.0
H2027 H 0.04752 0.71173 0.62563 0.0
H2028 H 0.13922 0.75 0.65325 0.0
H2029 H 0.14332 0.75633 0.62392 0.0
H2030 H 0.15299 0.73024 0.63566 0.0
C2031 C 0.01442 0.3674 0.37998 0.0
N2032 N 0.03203 0.36469 0.36582 0.0
N2033 N 0.00944 0.34773 0.39033 0.0
C2034 C 0.00404 0.38974 0.38592 0.0
C2035 C 0.02491 0.33299 0.38225 0.0
N2036 N 0.03833 0.34322 0.3669 0.0
C2037 C 0.02381 0.30795 0.38634 0.0
H2038 H 0.99673 0.38963 0.40299 0.0
H2039 H 0.99069 0.39374 0.3736 0.0
H2040 H 0.0167 0.40333 0.3856 0.0
H2041 H 0.00645 0.30188 0.38353 0.0
H2042 H 0.02826 0.3045 0.40407 0.0
H2043 H 0.03485 0.29786 0.37547 0.0
C2044 C 0.37977 0.73284 0.36792 0.0
N2045 N 0.38251 0.71532 0.38217 0.0
N2046 N 0.39947 0.73788 0.35763 0.0
C2047 C 0.35739 0.74301 0.36177 0.0
C2048 C 0.41428 0.72258 0.3659 0.0
N2049 N 0.40403 0.70915 0.38123 0.0
C2050 C 0.43936 0.72385 0.362 0.0
H2051 H 0.35754 0.75014 0.34462 0.0
H2052 H 0.35324 0.75645 0.37394 0.0
H2053 H 0.34386 0.73027 0.36215 0.0
H2054 H 0.44522 0.74134 0.36435 0.0
H2055 H 0.44303 0.71889 0.34445 0.0
H2056 H 0.44945 0.71329 0.37334 0.0
C2057 C 0.01442 0.62968 0.11702 0.0
N2058 N 0.03203 0.63238 0.13118 0.0
N2059 N 0.00945 0.64935 0.10666 0.0
C2060 C 0.00403 0.60735 0.11108 0.0
C2061 C 0.02492 0.66408 0.11473 0.0
N2062 N 0.03834 0.65385 0.13009 0.0
C2063 C 0.02385 0.68912 0.11063 0.0
H2064 H 0.99672 0.60745 0.094 0.0
H2065 H 0.99067 0.60336 0.1234 0.0
H2066 H 0.01668 0.59375 0.11141 0.0
H2067 H 0.0065 0.69521 0.11347 0.0
H2068 H 0.02827 0.69255 0.09289 0.0
H2069 H 0.03492 0.69921 0.12147 0.0
C2070 C 0.08262 0.27515 0.86477 0.0
N2071 N 0.09291 0.2885 0.88016 0.0
N2072 N 0.09733 0.25967 0.85662 0.0
C2073 C 0.05757 0.27416 0.86065 0.0
C2074 C 0.11704 0.2646 0.86696 0.0
N2075 N 0.11438 0.28215 0.88118 0.0
C2076 C 0.13936 0.25422 0.86092 0.0
H2077 H 0.05142 0.25686 0.86359 0.0
H2078 H 0.05417 0.27846 0.84287 0.0
H2079 H 0.04752 0.28535 0.87139 0.0
H2080 H 0.13922 0.24707 0.84377 0.0
H2081 H 0.14332 0.24075 0.8731 0.0
H2082 H 0.15299 0.26683 0.86136 0.0
C2083 C 0.48287 0.36739 0.61764 0.0
N2084 N 0.46537 0.36466 0.63194 0.0
N2085 N 0.48786 0.3477 0.60732 0.0
C2086 C 0.49305 0.38976 0.6115 0.0
C2087 C 0.47258 0.3329 0.61562 0.0
N2088 N 0.45919 0.34315 0.631 0.0
C2089 C 0.47384 0.30784 0.61172 0.0
H2090 H 0.50021 0.38961 0.59436 0.0
H2091 H 0.50649 0.39391 0.62368 0.0
H2092 H 0.48031 0.40327 0.61188 0.0
H2093 H 0.49137 0.30199 0.61388 0.0
H2094 H 0.46868 0.30414 0.59423 0.0
H2095 H 0.46341 0.29775 0.62319 0.0
C2096 C 0.12934 0.37955 0.26432 0.0
N2097 N 0.11516 0.38233 0.28191 0.0
N2098 N 0.13969 0.39922 0.25927 0.0
C2099 C 0.13535 0.35717 0.25408 0.0
C2100 C 0.13153 0.41403 0.27462 0.0
N2101 N 0.1162 0.40384 0.2881 0.0
C2102 C 0.13549 0.43909 0.27335 0.0
H2103 H 0.15242 0.35727 0.24677 0.0
H2104 H 0.12303 0.35305 0.24076 0.0
H2105 H 0.13505 0.34366 0.26682 0.0
H2106 H 0.13322 0.44495 0.25584 0.0
H2107 H 0.15303 0.44272 0.27838 0.0
H2108 H 0.12413 0.4492 0.28386 0.0
C2109 C 0.36717 0.3797 0.01422 0.0
N2110 N 0.3645 0.36545 0.03174 0.0
N2111 N 0.34747 0.39002 0.00928 0.0
C2112 C 0.38951 0.38578 0.00391 0.0
C2113 C 0.33273 0.38181 0.02468 0.0
N2114 N 0.34301 0.36643 0.03803 0.0
C2115 C 0.30766 0.38583 0.02358 0.0
H2116 H 0.38937 0.40292 0.99678 0.0
H2117 H 0.39355 0.37361 0.99044 0.0
H2118 H 0.40311 0.38536 0.01657 0.0
H2119 H 0.30163 0.38315 0.00619 0.0
H2120 H 0.30414 0.40349 0.02821 0.0
H2121 H 0.2976 0.37481 0.03449 0.0
C2122 C 0.36741 0.6172 0.76431 0.0
N2123 N 0.38168 0.61449 0.78183 0.0
N2124 N 0.35704 0.59752 0.75935 0.0
C2125 C 0.36134 0.63955 0.75405 0.0
C2126 C 0.36526 0.58276 0.77472 0.0
N2127 N 0.38067 0.593 0.78809 0.0
C2128 C 0.36124 0.55771 0.77356 0.0
H2129 H 0.34418 0.63944 0.74693 0.0
H2130 H 0.37351 0.64359 0.74058 0.0
H2131 H 0.36179 0.65312 0.76673 0.0
H2132 H 0.36372 0.55173 0.75612 0.0
H2133 H 0.34361 0.55417 0.77836 0.0
H2134 H 0.37239 0.54762 0.78431 0.0
C2135 C 0.12979 0.61778 0.51431 0.0
N2136 N 0.1325 0.63201 0.53187 0.0
N2137 N 0.14952 0.60755 0.50925 0.0
C2138 C 0.10742 0.61161 0.50412 0.0
C2139 C 0.16431 0.61582 0.52457 0.0
N2140 N 0.15403 0.63111 0.53803 0.0
C2141 C 0.1894 0.612 0.52327 0.0
H2142 H 0.10761 0.5945 0.4969 0.0
H2143 H 0.10324 0.62382 0.49073 0.0
H2144 H 0.09391 0.61192 0.51686 0.0
H2145 H 0.19524 0.61436 0.50577 0.0
H2146 H 0.19313 0.59447 0.52822 0.0
H2147 H 0.19946 0.62337 0.53382 0.0
C2148 C 0.12929 0.61752 0.23272 0.0
N2149 N 0.11511 0.61474 0.21513 0.0
N2150 N 0.13963 0.59785 0.23777 0.0
C2151 C 0.13531 0.6399 0.24295 0.0
C2152 C 0.13147 0.58303 0.22243 0.0
N2153 N 0.11614 0.59323 0.20895 0.0
C2154 C 0.13541 0.55797 0.22372 0.0
H2155 H 0.15239 0.6398 0.25025 0.0
H2156 H 0.123 0.64404 0.25627 0.0
H2157 H 0.13502 0.65341 0.2302 0.0
H2158 H 0.13318 0.55213 0.24123 0.0
H2159 H 0.15294 0.55432 0.21865 0.0
H2160 H 0.12402 0.54786 0.21324 0.0
C2161 C 0.12979 0.3793 0.98271 0.0
N2162 N 0.1325 0.36507 0.96515 0.0
N2163 N 0.14952 0.38953 0.98777 0.0
C2164 C 0.10742 0.38546 0.99291 0.0
C2165 C 0.16431 0.38126 0.97245 0.0
N2166 N 0.15403 0.36597 0.95899 0.0
C2167 C 0.1894 0.38508 0.97375 0.0
H2168 H 0.10761 0.40258 0.00012 0.0
H2169 H 0.10324 0.37326 0.0063 0.0
H2170 H 0.0939 0.38516 0.98016 0.0
H2171 H 0.19524 0.38272 0.99125 0.0
H2172 H 0.19313 0.40261 0.9688 0.0
H2173 H 0.19946 0.37371 0.9632 0.0
C2174 C 0.3674 0.37988 0.73271 0.0
N2175 N 0.38167 0.38259 0.7152 0.0
N2176 N 0.35703 0.39955 0.73767 0.0
C2177 C 0.36133 0.35753 0.74298 0.0
C2178 C 0.36524 0.41431 0.7223 0.0
N2179 N 0.38065 0.40407 0.70893 0.0
C2180 C 0.36121 0.43936 0.72345 0.0
H2181 H 0.34417 0.35764 0.7501 0.0
H2182 H 0.3735 0.3535 0.75646 0.0
H2183 H 0.36179 0.34395 0.7303 0.0
H2184 H 0.36371 0.44535 0.74088 0.0
H2185 H 0.34358 0.4429 0.71866 0.0
H2186 H 0.37235 0.44945 0.71269 0.0
C2187 C 0.36717 0.61735 0.48279 0.0
N2188 N 0.3645 0.6316 0.46527 0.0
N2189 N 0.34746 0.60702 0.48773 0.0
C2190 C 0.38951 0.61127 0.49311 0.0
C2191 C 0.33273 0.61523 0.47233 0.0
N2192 N 0.34301 0.63061 0.45898 0.0
C2193 C 0.30766 0.61121 0.47341 0.0
H2194 H 0.38936 0.59413 0.50024 0.0
H2195 H 0.39354 0.62344 0.50658 0.0
H2196 H 0.40311 0.61169 0.48045 0.0
H2197 H 0.30162 0.61391 0.4908 0.0
H2198 H 0.30415 0.59353 0.46882 0.0
H2199 H 0.2976 0.62221 0.46248 0.0
C2200 C 0.26419 0.12946 0.37952 0.0
N2201 N 0.28185 0.11536 0.38222 0.0
N2202 N 0.25922 0.13985 0.39919 0.0
C2203 C 0.25378 0.13534 0.35718 0.0
C2204 C 0.27471 0.13182 0.41393 0.0
N2205 N 0.28817 0.1165 0.40369 0.0
C2206 C 0.2736 0.1359 0.43898 0.0
H2207 H 0.24648 0.15241 0.35726 0.0
H2208 H 0.24042 0.12302 0.35323 0.0
H2209 H 0.26641 0.13497 0.34356 0.0
H2210 H 0.25619 0.13331 0.44501 0.0
H2211 H 0.27829 0.15355 0.44247 0.0
H2212 H 0.28444 0.12484 0.44907 0.0
C2213 C 0.76419 0.36762 0.61752 0.0
N2214 N 0.78184 0.38172 0.61481 0.0
N2215 N 0.75922 0.35723 0.59785 0.0
C2216 C 0.75377 0.36174 0.63985 0.0
C2217 C 0.7747 0.36526 0.58311 0.0
N2218 N 0.78817 0.38058 0.59335 0.0
C2219 C 0.7736 0.36117 0.55806 0.0
H2220 H 0.74647 0.34467 0.63978 0.0
H2221 H 0.7404 0.37407 0.6438 0.0
H2222 H 0.7664 0.36212 0.65347 0.0
H2223 H 0.75619 0.36376 0.55202 0.0
H2224 H 0.77829 0.34352 0.55457 0.0
H2225 H 0.78444 0.37223 0.54797 0.0
C2226 C 0.38209 0.02517 0.3326 0.0
N2227 N 0.36674 0.03858 0.34286 0.0
N2228 N 0.39031 0.00981 0.34737 0.0
C2229 C 0.38611 0.024 0.30754 0.0
C2230 C 0.38006 0.01487 0.36708 0.0
N2231 N 0.36581 0.0324 0.36437 0.0
C2232 C 0.3862 0.00466 0.38944 0.0
H2233 H 0.38316 0.00665 0.30152 0.0
H2234 H 0.40386 0.02831 0.30403 0.0
H2235 H 0.3753 0.0351 0.29746 0.0
H2236 H 0.40333 0.99747 0.38927 0.0
H2237 H 0.37399 0.99125 0.39359 0.0
H2238 H 0.38587 0.01739 0.40297 0.0
C2239 C 0.73297 0.62942 0.11732 0.0
N2240 N 0.71546 0.61513 0.11459 0.0
N2241 N 0.73796 0.63972 0.09762 0.0
C2242 C 0.74316 0.63557 0.13969 0.0
C2243 C 0.72266 0.63142 0.08283 0.0
N2244 N 0.70927 0.61605 0.09308 0.0
C2245 C 0.72392 0.6353 0.05775 0.0
H2246 H 0.75032 0.6527 0.13954 0.0
H2247 H 0.7566 0.6234 0.14383 0.0
H2248 H 0.73043 0.6352 0.15321 0.0
H2249 H 0.74144 0.63312 0.05189 0.0
H2250 H 0.71878 0.65279 0.05406 0.0
H2251 H 0.71347 0.62384 0.04767 0.0
C2252 C 0.61757 0.48276 0.36717 0.0
N2253 N 0.63182 0.46524 0.36444 0.0
N2254 N 0.60723 0.48774 0.34747 0.0
C2255 C 0.61147 0.49301 0.38953 0.0
C2256 C 0.61545 0.47238 0.3327 0.0
N2257 N 0.63083 0.459 0.34294 0.0
C2258 C 0.61147 0.47355 0.30764 0.0
H2259 H 0.59432 0.50015 0.3894 0.0
H2260 H 0.62365 0.50647 0.3936 0.0
H2261 H 0.6119 0.48033 0.40309 0.0
H2262 H 0.61396 0.491 0.30169 0.0
H2263 H 0.59385 0.46875 0.30406 0.0
H2264 H 0.62265 0.46283 0.29755 0.0
C2265 C 0.23296 0.86764 0.87971 0.0
N2266 N 0.21545 0.88193 0.88243 0.0
N2267 N 0.23795 0.85734 0.89941 0.0
C2268 C 0.24316 0.86149 0.85734 0.0
C2269 C 0.22265 0.86563 0.9142 0.0
N2270 N 0.20926 0.881 0.90395 0.0
C2271 C 0.22389 0.86175 0.93927 0.0
H2272 H 0.25032 0.84436 0.85749 0.0
H2273 H 0.2566 0.87367 0.85321 0.0
H2274 H 0.23043 0.86186 0.84381 0.0
H2275 H 0.24142 0.86393 0.94514 0.0
H2276 H 0.21876 0.84426 0.94296 0.0
H2277 H 0.21344 0.8732 0.94935 0.0
C2278 C 0.38209 0.97191 0.16442 0.0
N2279 N 0.36673 0.9585 0.15417 0.0
N2280 N 0.39031 0.98726 0.14966 0.0
C2281 C 0.38611 0.97307 0.18948 0.0
C2282 C 0.38006 0.98221 0.12994 0.0
N2283 N 0.36581 0.96468 0.13265 0.0
C2284 C 0.3862 0.99242 0.10758 0.0
H2285 H 0.38315 0.99042 0.1955 0.0
H2286 H 0.40387 0.96876 0.19299 0.0
H2287 H 0.3753 0.96197 0.19956 0.0
H2288 H 0.40332 -0.00039 0.10776 0.0
H2289 H 0.37399 0.00582 0.10344 0.0
H2290 H 0.38587 0.97969 0.09405 0.0
C2291 C 0.11756 0.01431 0.62985 0.0
N2292 N 0.13182 0.03183 0.63258 0.0
N2293 N 0.10722 0.00933 0.64954 0.0
C2294 C 0.11147 0.00405 0.60749 0.0
C2295 C 0.11544 0.0247 0.66432 0.0
N2296 N 0.13082 0.03808 0.65407 0.0
C2297 C 0.11145 0.02353 0.68938 0.0
H2298 H 0.09432 0.99692 0.60762 0.0
H2299 H 0.12364 0.99059 0.60343 0.0
H2300 H 0.1119 0.01674 0.59393 0.0
H2301 H 0.11394 0.00609 0.69533 0.0
H2302 H 0.09383 0.02832 0.69295 0.0
H2303 H 0.12262 0.03427 0.69947 0.0
loop_
_geom_bond_atom_site_label_1
_geom_bond_atom_site_label_2
_geom_bond_distance
_geom_bond_site_symmetry_2
_ccdc_geom_bond_type
O0 Cd1 2.300 . S
O0 C7 1.275 . S
Cd1 O0 2.300 . S
Cd1 O9 2.381 . S
Cd1 O10 2.378 . S
O2 Cd3 2.385 . S
O2 C7 1.255 . S
Cd3 O2 2.385 . S
Cd3 O4 2.317 . S
O4 Cd3 2.317 . S
O4 C5 1.232 . S
C5 O4 1.232 . S
C5 O6 1.218 . S
O6 C5 1.218 . S
C7 O0 1.275 . S
C7 O2 1.255 . S
C8 O9 1.258 . S
C8 O10 1.256 . S
O9 Cd1 2.381 . S
O9 C8 1.258 . S
O10 Cd1 2.378 . S
O10 C8 1.256 . S
O11 Cd12 2.300 . S
O11 C18 1.275 . S
Cd12 O11 2.300 . S
Cd12 O20 2.381 . S
Cd12 O21 2.378 . S
O13 Cd14 2.385 . S
O13 C18 1.255 . S
Cd14 O13 2.385 . S
Cd14 O15 2.317 . S
O15 Cd14 2.317 . S
O15 C16 1.232 . S
C16 O15 1.232 . S
C16 O17 1.218 . S
O17 C16 1.218 . S
C18 O11 1.275 . S
C18 O13 1.255 . S
C19 O20 1.258 . S
C19 O21 1.256 . S
O20 Cd12 2.381 . S
O20 C19 1.258 . S
O21 Cd12 2.378 . S
O21 C19 1.256 . S
O22 Cd23 2.300 . S
O22 C29 1.275 . S
Cd23 O22 2.300 . S
Cd23 O31 2.381 . S
Cd23 O32 2.378 . S
O24 Cd25 2.385 . S
O24 C29 1.255 . S
Cd25 O24 2.385 . S
Cd25 O26 2.317 . S
O26 Cd25 2.317 . S
O26 C27 1.232 . S
C27 O26 1.232 . S
C27 O28 1.218 . S
O28 C27 1.218 . S
C29 O22 1.275 . S
C29 O24 1.255 . S
C30 O31 1.258 . S
C30 O32 1.256 . S
O31 Cd23 2.381 . S
O31 C30 1.258 . S
O32 Cd23 2.378 . S
O32 C30 1.256 . S
O33 Cd34 2.300 . S
O33 C40 1.275 . S
Cd34 O33 2.300 . S
Cd34 O42 2.381 . S
Cd34 O43 2.378 . S
O35 Cd36 2.385 . S
O35 C40 1.255 . S
Cd36 O35 2.385 . S
Cd36 O37 2.317 . S
O37 Cd36 2.317 . S
O37 C38 1.232 . S
C38 O37 1.232 . S
C38 O39 1.218 . S
O39 C38 1.218 . S
C40 O33 1.275 . S
C40 O35 1.255 . S
C41 O42 1.258 . S
C41 O43 1.256 . S
O42 Cd34 2.381 . S
O42 C41 1.258 . S
O43 Cd34 2.378 . S
O43 C41 1.256 . S
O44 Cd45 2.300 . S
O44 C51 1.275 . S
Cd45 O44 2.300 . S
Cd45 O53 2.381 . S
Cd45 O54 2.378 . S
O46 Cd47 2.385 . S
O46 C51 1.255 . S
Cd47 O46 2.385 . S
Cd47 O48 2.317 . S
O48 Cd47 2.317 . S
O48 C49 1.232 . S
C49 O48 1.232 . S
C49 O50 1.218 . S
O50 C49 1.218 . S
C51 O44 1.275 . S
C51 O46 1.255 . S
C52 O53 1.258 . S
C52 O54 1.256 . S
O53 Cd45 2.381 . S
O53 C52 1.258 . S
O54 Cd45 2.378 . S
O54 C52 1.256 . S
O55 Cd56 2.300 . S
O55 C62 1.275 . S
Cd56 O55 2.300 . S
Cd56 O64 2.381 . S
Cd56 O65 2.378 . S
O57 Cd58 2.385 . S
O57 C62 1.255 . S
Cd58 O57 2.385 . S
Cd58 O59 2.317 . S
O59 Cd58 2.317 . S
O59 C60 1.232 . S
C60 O59 1.232 . S
C60 O61 1.218 . S
O61 C60 1.218 . S
C62 O55 1.275 . S
C62 O57 1.255 . S
C63 O64 1.258 . S
C63 O65 1.256 . S
O64 Cd56 2.381 . S
O64 C63 1.258 . S
O65 Cd56 2.378 . S
O65 C63 1.256 . S
O66 Cd67 2.300 . S
O66 C73 1.275 . S
Cd67 O66 2.300 . S
Cd67 O75 2.381 . S
Cd67 O76 2.378 . S
O68 Cd69 2.385 . S
O68 C73 1.255 . S
Cd69 O68 2.385 . S
Cd69 O70 2.317 . S
O70 Cd69 2.317 . S
O70 C71 1.232 . S
C71 O70 1.232 . S
C71 O72 1.218 . S
O72 C71 1.218 . S
C73 O66 1.275 . S
C73 O68 1.255 . S
C74 O75 1.258 . S
C74 O76 1.256 . S
O75 Cd67 2.381 . S
O75 C74 1.258 . S
O76 Cd67 2.378 . S
O76 C74 1.256 . S
O77 Cd78 2.300 . S
O77 C84 1.275 . S
Cd78 O77 2.300 . S
Cd78 O86 2.381 . S
Cd78 O87 2.378 . S
O79 Cd80 2.385 . S
O79 C84 1.255 . S
Cd80 O79 2.385 . S
Cd80 O81 2.317 . S
O81 Cd80 2.317 . S
O81 C82 1.232 . S
C82 O81 1.232 . S
C82 O83 1.218 . S
O83 C82 1.218 . S
C84 O77 1.275 . S
C84 O79 1.255 . S
C85 O86 1.258 . S
C85 O87 1.256 . S
O86 Cd78 2.381 . S
O86 C85 1.258 . S
O87 Cd78 2.378 . S
O87 C85 1.256 . S
O88 Cd89 2.300 . S
O88 C95 1.275 . S
Cd89 O88 2.300 . S
Cd89 O97 2.381 . S
Cd89 O98 2.378 . S
O90 Cd91 2.385 . S
O90 C95 1.255 . S
Cd91 O90 2.385 . S
Cd91 O92 2.317 . S
O92 Cd91 2.317 . S
O92 C93 1.232 . S
C93 O92 1.232 . S
C93 O94 1.218 . S
O94 C93 1.218 . S
C95 O88 1.275 . S
C95 O90 1.255 . S
C96 O97 1.258 . S
C96 O98 1.256 . S
O97 Cd89 2.381 . S
O97 C96 1.258 . S
O98 Cd89 2.378 . S
O98 C96 1.256 . S
O99 Cd100 2.300 . S
O99 C106 1.275 . S
Cd100 O99 2.300 . S
Cd100 O108 2.381 . S
Cd100 O109 2.378 . S
O101 Cd102 2.385 . S
O101 C106 1.255 . S
Cd102 O101 2.385 . S
Cd102 O103 2.317 . S
O103 Cd102 2.317 . S
O103 C104 1.232 . S
C104 O103 1.232 . S
C104 O105 1.218 . S
O105 C104 1.218 . S
C106 O99 1.275 . S
C106 O101 1.255 . S
C107 O108 1.258 . S
C107 O109 1.256 . S
O108 Cd100 2.381 . S
O108 C107 1.258 . S
O109 Cd100 2.378 . S
O109 C107 1.256 . S
O110 Cd111 2.300 . S
O110 C117 1.275 . S
Cd111 O110 2.300 . S
Cd111 O119 2.381 . S
Cd111 O120 2.378 . S
O112 Cd113 2.385 . S
O112 C117 1.255 . S
Cd113 O112 2.385 . S
Cd113 O114 2.317 . S
O114 Cd113 2.317 . S
O114 C115 1.232 . S
C115 O114 1.232 . S
C115 O116 1.218 . S
O116 C115 1.218 . S
C117 O110 1.275 . S
C117 O112 1.255 . S
C118 O119 1.258 . S
C118 O120 1.256 . S
O119 Cd111 2.381 . S
O119 C118 1.258 . S
O120 Cd111 2.378 . S
O120 C118 1.256 . S
O121 Cd122 2.300 . S
O121 C128 1.275 . S
Cd122 O121 2.300 . S
Cd122 O130 2.381 . S
Cd122 O131 2.378 . S
O123 Cd124 2.385 . S
O123 C128 1.255 . S
Cd124 O123 2.385 . S
Cd124 O125 2.317 . S
O125 Cd124 2.317 . S
O125 C126 1.232 . S
C126 O125 1.232 . S
C126 O127 1.218 . S
O127 C126 1.218 . S
C128 O121 1.275 . S
C128 O123 1.255 . S
C129 O130 1.258 . S
C129 O131 1.256 . S
O130 Cd122 2.381 . S
O130 C129 1.258 . S
O131 Cd122 2.378 . S
O131 C129 1.256 . S
O132 Cd133 2.300 . S
O132 C139 1.275 . S
Cd133 O132 2.300 . S
Cd133 O141 2.381 . S
Cd133 O142 2.378 . S
O134 Cd135 2.385 . S
O134 C139 1.255 . S
Cd135 O134 2.385 . S
Cd135 O136 2.317 . S
O136 Cd135 2.317 . S
O136 C137 1.232 . S
C137 O136 1.232 . S
C137 O138 1.218 . S
O138 C137 1.218 . S
C139 O132 1.275 . S
C139 O134 1.255 . S
C140 O141 1.258 . S
C140 O142 1.256 . S
O141 Cd133 2.381 . S
O141 C140 1.258 . S
O142 Cd133 2.378 . S
O142 C140 1.256 . S
O143 Cd144 2.300 . S
O143 C150 1.275 . S
Cd144 O143 2.300 . S
Cd144 O152 2.381 . S
Cd144 O153 2.378 . S
O145 Cd146 2.385 . S
O145 C150 1.255 . S
Cd146 O145 2.385 . S
Cd146 O147 2.317 . S
O147 Cd146 2.317 . S
O147 C148 1.232 . S
C148 O147 1.232 . S
C148 O149 1.218 . S
O149 C148 1.218 . S
C150 O143 1.275 . S
C150 O145 1.255 . S
C151 O152 1.258 . S
C151 O153 1.256 . S
O152 Cd144 2.381 . S
O152 C151 1.258 . S
O153 Cd144 2.378 . S
O153 C151 1.256 . S
O154 Cd155 2.300 . S
O154 C161 1.275 . S
Cd155 O154 2.300 . S
Cd155 O163 2.381 . S
Cd155 O164 2.378 . S
O156 Cd157 2.385 . S
O156 C161 1.255 . S
Cd157 O156 2.385 . S
Cd157 O158 2.317 . S
O158 Cd157 2.317 . S
O158 C159 1.232 . S
C159 O158 1.232 . S
C159 O160 1.218 . S
O160 C159 1.218 . S
C161 O154 1.275 . S
C161 O156 1.255 . S
C162 O163 1.258 . S
C162 O164 1.256 . S
O163 Cd155 2.381 . S
O163 C162 1.258 . S
O164 Cd155 2.378 . S
O164 C162 1.256 . S
O165 Cd166 2.300 . S
O165 C172 1.275 . S
Cd166 O165 2.300 . S
Cd166 O174 2.381 . S
Cd166 O175 2.378 . S
O167 Cd168 2.385 . S
O167 C172 1.255 . S
Cd168 O167 2.385 . S
Cd168 O169 2.317 . S
O169 Cd168 2.317 . S
O169 C170 1.232 . S
C170 O169 1.232 . S
C170 O171 1.218 . S
O171 C170 1.218 . S
C172 O165 1.275 . S
C172 O167 1.255 . S
C173 O174 1.258 . S
C173 O175 1.256 . S
O174 Cd166 2.381 . S
O174 C173 1.258 . S
O175 Cd166 2.378 . S
O175 C173 1.256 . S
O176 Cd177 2.300 . S
O176 C183 1.275 . S
Cd177 O176 2.300 . S
Cd177 O185 2.381 . S
Cd177 O186 2.378 . S
O178 Cd179 2.385 . S
O178 C183 1.255 . S
Cd179 O178 2.385 . S
Cd179 O180 2.317 . S
O180 Cd179 2.317 . S
O180 C181 1.232 . S
C181 O180 1.232 . S
C181 O182 1.218 . S
O182 C181 1.218 . S
C183 O176 1.275 . S
C183 O178 1.255 . S
C184 O185 1.258 . S
C184 O186 1.256 . S
O185 Cd177 2.381 . S
O185 C184 1.258 . S
O186 Cd177 2.378 . S
O186 C184 1.256 . S
O187 Cd188 2.300 . S
O187 C194 1.275 . S
Cd188 O187 2.300 . S
Cd188 O196 2.381 . S
Cd188 O197 2.378 . S
O189 Cd190 2.385 . S
O189 C194 1.255 . S
Cd190 O189 2.385 . S
Cd190 O191 2.317 . S
O191 Cd190 2.317 . S
O191 C192 1.232 . S
C192 O191 1.232 . S
C192 O193 1.218 . S
O193 C192 1.218 . S
C194 O187 1.275 . S
C194 O189 1.255 . S
C195 O196 1.258 . S
C195 O197 1.256 . S
O196 Cd188 2.381 . S
O196 C195 1.258 . S
O197 Cd188 2.378 . S
O197 C195 1.256 . S
O198 Cd199 2.300 . S
O198 C205 1.275 . S
Cd199 O198 2.300 . S
Cd199 O207 2.381 . S
Cd199 O208 2.378 . S
O200 Cd201 2.385 . S
O200 C205 1.255 . S
Cd201 O200 2.385 . S
Cd201 O202 2.317 . S
O202 Cd201 2.317 . S
O202 C203 1.232 . S
C203 O202 1.232 . S
C203 O204 1.218 . S
O204 C203 1.218 . S
C205 O198 1.275 . S
C205 O200 1.255 . S
C206 O207 1.258 . S
C206 O208 1.256 . S
O207 Cd199 2.381 . S
O207 C206 1.258 . S
O208 Cd199 2.378 . S
O208 C206 1.256 . S
O209 Cd210 2.300 . S
O209 C216 1.275 . S
Cd210 O209 2.300 . S
Cd210 O218 2.381 . S
Cd210 O219 2.378 . S
O211 Cd212 2.385 . S
O211 C216 1.255 . S
Cd212 O211 2.385 . S
Cd212 O213 2.317 . S
O213 Cd212 2.317 . S
O213 C214 1.232 . S
C214 O213 1.232 . S
C214 O215 1.218 . S
O215 C214 1.218 . S
C216 O209 1.275 . S
C216 O211 1.255 . S
C217 O218 1.258 . S
C217 O219 1.256 . S
O218 Cd210 2.381 . S
O218 C217 1.258 . S
O219 Cd210 2.378 . S
O219 C217 1.256 . S
O220 Cd221 2.300 . S
O220 C227 1.275 . S
Cd221 O220 2.300 . S
Cd221 O229 2.381 . S
Cd221 O230 2.378 . S
O222 Cd223 2.385 . S
O222 C227 1.255 . S
Cd223 O222 2.385 . S
Cd223 O224 2.317 . S
O224 Cd223 2.317 . S
O224 C225 1.232 . S
C225 O224 1.232 . S
C225 O226 1.218 . S
O226 C225 1.218 . S
C227 O220 1.275 . S
C227 O222 1.255 . S
C228 O229 1.258 . S
C228 O230 1.256 . S
O229 Cd221 2.381 . S
O229 C228 1.258 . S
O230 Cd221 2.378 . S
O230 C228 1.256 . S
O231 Cd232 2.300 . S
O231 C238 1.275 . S
Cd232 O231 2.300 . S
Cd232 O240 2.381 . S
Cd232 O241 2.378 . S
O233 Cd234 2.385 . S
O233 C238 1.255 . S
Cd234 O233 2.385 . S
Cd234 O235 2.317 . S
O235 Cd234 2.317 . S
O235 C236 1.232 . S
C236 O235 1.232 . S
C236 O237 1.218 . S
O237 C236 1.218 . S
C238 O231 1.275 . S
C238 O233 1.255 . S
C239 O240 1.258 . S
C239 O241 1.256 . S
O240 Cd232 2.381 . S
O240 C239 1.258 . S
O241 Cd232 2.378 . S
O241 C239 1.256 . S
O242 Cd243 2.300 . S
O242 C249 1.275 . S
Cd243 O242 2.300 . S
Cd243 O251 2.381 . S
Cd243 O252 2.378 . S
O244 Cd245 2.385 . S
O244 C249 1.255 . S
Cd245 O244 2.385 . S
Cd245 O246 2.317 . S
O246 Cd245 2.317 . S
O246 C247 1.232 . S
C247 O246 1.232 . S
C247 O248 1.218 . S
O248 C247 1.218 . S
C249 O242 1.275 . S
C249 O244 1.255 . S
C250 O251 1.258 . S
C250 O252 1.256 . S
O251 Cd243 2.381 . S
O251 C250 1.258 . S
O252 Cd243 2.378 . S
O252 C250 1.256 . S
O253 Cd254 2.300 . S
O253 C260 1.275 . S
Cd254 O253 2.300 . S
Cd254 O262 2.381 . S
Cd254 O263 2.378 . S
O255 Cd256 2.385 . S
O255 C260 1.255 . S
Cd256 O255 2.385 . S
Cd256 O257 2.317 . S
O257 Cd256 2.317 . S
O257 C258 1.232 . S
C258 O257 1.232 . S
C258 O259 1.218 . S
O259 C258 1.218 . S
C260 O253 1.275 . S
C260 O255 1.255 . S
C261 O262 1.258 . S
C261 O263 1.256 . S
O262 Cd254 2.381 . S
O262 C261 1.258 . S
O263 Cd254 2.378 . S
O263 C261 1.256 . S
O264 Cd265 2.300 . S
O264 C271 1.275 . S
Cd265 O264 2.300 . S
Cd265 O273 2.381 . S
Cd265 O274 2.378 . S
O266 Cd267 2.385 . S
O266 C271 1.255 . S
Cd267 O266 2.385 . S
Cd267 O268 2.317 . S
O268 Cd267 2.317 . S
O268 C269 1.232 . S
C269 O268 1.232 . S
C269 O270 1.218 . S
O270 C269 1.218 . S
C271 O264 1.275 . S
C271 O266 1.255 . S
C272 O273 1.258 . S
C272 O274 1.256 . S
O273 Cd265 2.381 . S
O273 C272 1.258 . S
O274 Cd265 2.378 . S
O274 C272 1.256 . S
O275 Cd276 2.300 . S
O275 C282 1.275 . S
Cd276 O275 2.300 . S
Cd276 O284 2.381 . S
Cd276 O285 2.378 . S
O277 Cd278 2.385 . S
O277 C282 1.255 . S
Cd278 O277 2.385 . S
Cd278 O279 2.317 . S
O279 Cd278 2.317 . S
O279 C280 1.232 . S
C280 O279 1.232 . S
C280 O281 1.218 . S
O281 C280 1.218 . S
C282 O275 1.275 . S
C282 O277 1.255 . S
C283 O284 1.258 . S
C283 O285 1.256 . S
O284 Cd276 2.381 . S
O284 C283 1.258 . S
O285 Cd276 2.378 . S
O285 C283 1.256 . S
O286 Cd287 2.300 . S
O286 C293 1.275 . S
Cd287 O286 2.300 . S
Cd287 O295 2.381 . S
Cd287 O296 2.378 . S
O288 Cd289 2.385 . S
O288 C293 1.255 . S
Cd289 O288 2.385 . S
Cd289 O290 2.317 . S
O290 Cd289 2.317 . S
O290 C291 1.232 . S
C291 O290 1.232 . S
C291 O292 1.218 . S
O292 C291 1.218 . S
C293 O286 1.275 . S
C293 O288 1.255 . S
C294 O295 1.258 . S
C294 O296 1.256 . S
O295 Cd287 2.381 . S
O295 C294 1.258 . S
O296 Cd287 2.378 . S
O296 C294 1.256 . S
O297 Cd298 2.300 . S
O297 C304 1.275 . S
Cd298 O297 2.300 . S
Cd298 O306 2.381 . S
Cd298 O307 2.378 . S
O299 Cd300 2.385 . S
O299 C304 1.255 . S
Cd300 O299 2.385 . S
Cd300 O301 2.317 . S
O301 Cd300 2.317 . S
O301 C302 1.232 . S
C302 O301 1.232 . S
C302 O303 1.218 . S
O303 C302 1.218 . S
C304 O297 1.275 . S
C304 O299 1.255 . S
C305 O306 1.258 . S
C305 O307 1.256 . S
O306 Cd298 2.381 . S
O306 C305 1.258 . S
O307 Cd298 2.378 . S
O307 C305 1.256 . S
O308 Cd309 2.300 . S
O308 C315 1.275 . S
Cd309 O308 2.300 . S
Cd309 O317 2.381 . S
Cd309 O318 2.378 . S
O310 Cd311 2.385 . S
O310 C315 1.255 . S
Cd311 O310 2.385 . S
Cd311 O312 2.317 . S
O312 Cd311 2.317 . S
O312 C313 1.232 . S
C313 O312 1.232 . S
C313 O314 1.218 . S
O314 C313 1.218 . S
C315 O308 1.275 . S
C315 O310 1.255 . S
C316 O317 1.258 . S
C316 O318 1.256 . S
O317 Cd309 2.381 . S
O317 C316 1.258 . S
O318 Cd309 2.378 . S
O318 C316 1.256 . S
O319 Cd320 2.300 . S
O319 C326 1.275 . S
Cd320 O319 2.300 . S
Cd320 O328 2.381 . S
Cd320 O329 2.378 . S
O321 Cd322 2.385 . S
O321 C326 1.255 . S
Cd322 O321 2.385 . S
Cd322 O323 2.317 . S
O323 Cd322 2.317 . S
O323 C324 1.232 . S
C324 O323 1.232 . S
C324 O325 1.218 . S
O325 C324 1.218 . S
C326 O319 1.275 . S
C326 O321 1.255 . S
C327 O328 1.258 . S
C327 O329 1.256 . S
O328 Cd320 2.381 . S
O328 C327 1.258 . S
O329 Cd320 2.378 . S
O329 C327 1.256 . S
O330 Cd331 2.300 . S
O330 C337 1.275 . S
Cd331 O330 2.300 . S
Cd331 O339 2.381 . S
Cd331 O340 2.378 . S
O332 Cd333 2.385 . S
O332 C337 1.255 . S
Cd333 O332 2.385 . S
Cd333 O334 2.317 . S
O334 Cd333 2.317 . S
O334 C335 1.232 . S
C335 O334 1.232 . S
C335 O336 1.218 . S
O336 C335 1.218 . S
C337 O330 1.275 . S
C337 O332 1.255 . S
C338 O339 1.258 . S
C338 O340 1.256 . S
O339 Cd331 2.381 . S
O339 C338 1.258 . S
O340 Cd331 2.378 . S
O340 C338 1.256 . S
O341 Cd342 2.300 . S
O341 C348 1.275 . S
Cd342 O341 2.300 . S
Cd342 O350 2.381 . S
Cd342 O351 2.378 . S
O343 Cd344 2.385 . S
O343 C348 1.255 . S
Cd344 O343 2.385 . S
Cd344 O345 2.317 . S
O345 Cd344 2.317 . S
O345 C346 1.232 . S
C346 O345 1.232 . S
C346 O347 1.218 . S
O347 C346 1.218 . S
C348 O341 1.275 . S
C348 O343 1.255 . S
C349 O350 1.258 . S
C349 O351 1.256 . S
O350 Cd342 2.381 . S
O350 C349 1.258 . S
O351 Cd342 2.378 . S
O351 C349 1.256 . S
O352 Cd353 2.300 . S
O352 C359 1.275 . S
Cd353 O352 2.300 . S
Cd353 O361 2.381 . S
Cd353 O362 2.378 . S
O354 Cd355 2.385 . S
O354 C359 1.255 . S
Cd355 O354 2.385 . S
Cd355 O356 2.317 . S
O356 Cd355 2.317 . S
O356 C357 1.232 . S
C357 O356 1.232 . S
C357 O358 1.218 . S
O358 C357 1.218 . S
C359 O352 1.275 . S
C359 O354 1.255 . S
C360 O361 1.258 . S
C360 O362 1.256 . S
O361 Cd353 2.381 . S
O361 C360 1.258 . S
O362 Cd353 2.378 . S
O362 C360 1.256 . S
O363 Cd364 2.300 . S
O363 C370 1.275 . S
Cd364 O363 2.300 . S
Cd364 O372 2.381 . S
Cd364 O373 2.378 . S
O365 Cd366 2.385 . S
O365 C370 1.255 . S
Cd366 O365 2.385 . S
Cd366 O367 2.317 . S
O367 Cd366 2.317 . S
O367 C368 1.232 . S
C368 O367 1.232 . S
C368 O369 1.218 . S
O369 C368 1.218 . S
C370 O363 1.275 . S
C370 O365 1.255 . S
C371 O372 1.258 . S
C371 O373 1.256 . S
O372 Cd364 2.381 . S
O372 C371 1.258 . S
O373 Cd364 2.378 . S
O373 C371 1.256 . S
O374 Cd375 2.300 . S
O374 C381 1.275 . S
Cd375 O374 2.300 . S
Cd375 O383 2.381 . S
Cd375 O384 2.378 . S
O376 Cd377 2.385 . S
O376 C381 1.255 . S
Cd377 O376 2.385 . S
Cd377 O378 2.317 . S
O378 Cd377 2.317 . S
O378 C379 1.232 . S
C379 O378 1.232 . S
C379 O380 1.218 . S
O380 C379 1.218 . S
C381 O374 1.275 . S
C381 O376 1.255 . S
C382 O383 1.258 . S
C382 O384 1.256 . S
O383 Cd375 2.381 . S
O383 C382 1.258 . S
O384 Cd375 2.378 . S
O384 C382 1.256 . S
O385 Cd386 2.300 . S
O385 C392 1.275 . S
Cd386 O385 2.300 . S
Cd386 O394 2.381 . S
Cd386 O395 2.378 . S
O387 Cd388 2.385 . S
O387 C392 1.255 . S
Cd388 O387 2.385 . S
Cd388 O389 2.317 . S
O389 Cd388 2.317 . S
O389 C390 1.232 . S
C390 O389 1.232 . S
C390 O391 1.218 . S
O391 C390 1.218 . S
C392 O385 1.275 . S
C392 O387 1.255 . S
C393 O394 1.258 . S
C393 O395 1.256 . S
O394 Cd386 2.381 . S
O394 C393 1.258 . S
O395 Cd386 2.378 . S
O395 C393 1.256 . S
O396 Cd397 2.300 . S
O396 C403 1.275 . S
Cd397 O396 2.300 . S
Cd397 O405 2.381 . S
Cd397 O406 2.378 . S
O398 Cd399 2.385 . S
O398 C403 1.255 . S
Cd399 O398 2.385 . S
Cd399 O400 2.317 . S
O400 Cd399 2.317 . S
O400 C401 1.232 . S
C401 O400 1.232 . S
C401 O402 1.218 . S
O402 C401 1.218 . S
C403 O396 1.275 . S
C403 O398 1.255 . S
C404 O405 1.258 . S
C404 O406 1.256 . S
O405 Cd397 2.381 . S
O405 C404 1.258 . S
O406 Cd397 2.378 . S
O406 C404 1.256 . S
O407 Cd408 2.300 . S
O407 C414 1.275 . S
Cd408 O407 2.300 . S
Cd408 O416 2.381 . S
Cd408 O417 2.378 . S
O409 Cd410 2.385 . S
O409 C414 1.255 . S
Cd410 O409 2.385 . S
Cd410 O411 2.317 . S
O411 Cd410 2.317 . S
O411 C412 1.232 . S
C412 O411 1.232 . S
C412 O413 1.218 . S
O413 C412 1.218 . S
C414 O407 1.275 . S
C414 O409 1.255 . S
C415 O416 1.258 . S
C415 O417 1.256 . S
O416 Cd408 2.381 . S
O416 C415 1.258 . S
O417 Cd408 2.378 . S
O417 C415 1.256 . S
O418 Cd419 2.300 . S
O418 C425 1.275 . S
Cd419 O418 2.300 . S
Cd419 O427 2.381 . S
Cd419 O428 2.378 . S
O420 Cd421 2.385 . S
O420 C425 1.255 . S
Cd421 O420 2.385 . S
Cd421 O422 2.317 . S
O422 Cd421 2.317 . S
O422 C423 1.232 . S
C423 O422 1.232 . S
C423 O424 1.218 . S
O424 C423 1.218 . S
C425 O418 1.275 . S
C425 O420 1.255 . S
C426 O427 1.258 . S
C426 O428 1.256 . S
O427 Cd419 2.381 . S
O427 C426 1.258 . S
O428 Cd419 2.378 . S
O428 C426 1.256 . S
O429 Cd430 2.300 . S
O429 C436 1.275 . S
Cd430 O429 2.300 . S
Cd430 O438 2.381 . S
Cd430 O439 2.378 . S
O431 Cd432 2.385 . S
O431 C436 1.255 . S
Cd432 O431 2.385 . S
Cd432 O433 2.317 . S
O433 Cd432 2.317 . S
O433 C434 1.232 . S
C434 O433 1.232 . S
C434 O435 1.218 . S
O435 C434 1.218 . S
C436 O429 1.275 . S
C436 O431 1.255 . S
C437 O438 1.258 . S
C437 O439 1.256 . S
O438 Cd430 2.381 . S
O438 C437 1.258 . S
O439 Cd430 2.378 . S
O439 C437 1.256 . S
O440 Cd441 2.300 . S
O440 C447 1.275 . S
Cd441 O440 2.300 . S
Cd441 O449 2.381 . S
Cd441 O450 2.378 . S
O442 Cd443 2.385 . S
O442 C447 1.255 . S
Cd443 O442 2.385 . S
Cd443 O444 2.317 . S
O444 Cd443 2.317 . S
O444 C445 1.232 . S
C445 O444 1.232 . S
C445 O446 1.218 . S
O446 C445 1.218 . S
C447 O440 1.275 . S
C447 O442 1.255 . S
C448 O449 1.258 . S
C448 O450 1.256 . S
O449 Cd441 2.381 . S
O449 C448 1.258 . S
O450 Cd441 2.378 . S
O450 C448 1.256 . S
O451 Cd452 2.300 . S
O451 C458 1.275 . S
Cd452 O451 2.300 . S
Cd452 O460 2.381 . S
Cd452 O461 2.378 . S
O453 Cd454 2.385 . S
O453 C458 1.255 . S
Cd454 O453 2.385 . S
Cd454 O455 2.317 . S
O455 Cd454 2.317 . S
O455 C456 1.232 . S
C456 O455 1.232 . S
C456 O457 1.218 . S
O457 C456 1.218 . S
C458 O451 1.275 . S
C458 O453 1.255 . S
C459 O460 1.258 . S
C459 O461 1.256 . S
O460 Cd452 2.381 . S
O460 C459 1.258 . S
O461 Cd452 2.378 . S
O461 C459 1.256 . S
O462 Cd463 2.300 . S
O462 C469 1.275 . S
Cd463 O462 2.300 . S
Cd463 O471 2.381 . S
Cd463 O472 2.378 . S
O464 Cd465 2.385 . S
O464 C469 1.255 . S
Cd465 O464 2.385 . S
Cd465 O466 2.317 . S
O466 Cd465 2.317 . S
O466 C467 1.232 . S
C467 O466 1.232 . S
C467 O468 1.218 . S
O468 C467 1.218 . S
C469 O462 1.275 . S
C469 O464 1.255 . S
C470 O471 1.258 . S
C470 O472 1.256 . S
O471 Cd463 2.381 . S
O471 C470 1.258 . S
O472 Cd463 2.378 . S
O472 C470 1.256 . S
O473 Cd474 2.300 . S
O473 C480 1.275 . S
Cd474 O473 2.300 . S
Cd474 O482 2.381 . S
Cd474 O483 2.378 . S
O475 Cd476 2.385 . S
O475 C480 1.255 . S
Cd476 O475 2.385 . S
Cd476 O477 2.317 . S
O477 Cd476 2.317 . S
O477 C478 1.232 . S
C478 O477 1.232 . S
C478 O479 1.218 . S
O479 C478 1.218 . S
C480 O473 1.275 . S
C480 O475 1.255 . S
C481 O482 1.258 . S
C481 O483 1.256 . S
O482 Cd474 2.381 . S
O482 C481 1.258 . S
O483 Cd474 2.378 . S
O483 C481 1.256 . S
O484 Cd485 2.300 . S
O484 C491 1.275 . S
Cd485 O484 2.300 . S
Cd485 O493 2.381 . S
Cd485 O494 2.378 . S
O486 Cd487 2.385 . S
O486 C491 1.255 . S
Cd487 O486 2.385 . S
Cd487 O488 2.317 . S
O488 Cd487 2.317 . S
O488 C489 1.232 . S
C489 O488 1.232 . S
C489 O490 1.218 . S
O490 C489 1.218 . S
C491 O484 1.275 . S
C491 O486 1.255 . S
C492 O493 1.258 . S
C492 O494 1.256 . S
O493 Cd485 2.381 . S
O493 C492 1.258 . S
O494 Cd485 2.378 . S
O494 C492 1.256 . S
O495 Cd496 2.300 . S
O495 C502 1.275 . S
Cd496 O495 2.300 . S
Cd496 O504 2.381 . S
Cd496 O505 2.378 . S
O497 Cd498 2.385 . S
O497 C502 1.255 . S
Cd498 O497 2.385 . S
Cd498 O499 2.317 . S
O499 Cd498 2.317 . S
O499 C500 1.232 . S
C500 O499 1.232 . S
C500 O501 1.218 . S
O501 C500 1.218 . S
C502 O495 1.275 . S
C502 O497 1.255 . S
C503 O504 1.258 . S
C503 O505 1.256 . S
O504 Cd496 2.381 . S
O504 C503 1.258 . S
O505 Cd496 2.378 . S
O505 C503 1.256 . S
O506 Cd507 2.300 . S
O506 C513 1.275 . S
Cd507 O506 2.300 . S
Cd507 O515 2.381 . S
Cd507 O516 2.378 . S
O508 Cd509 2.385 . S
O508 C513 1.255 . S
Cd509 O508 2.385 . S
Cd509 O510 2.317 . S
O510 Cd509 2.317 . S
O510 C511 1.232 . S
C511 O510 1.232 . S
C511 O512 1.218 . S
O512 C511 1.218 . S
C513 O506 1.275 . S
C513 O508 1.255 . S
C514 O515 1.258 . S
C514 O516 1.256 . S
O515 Cd507 2.381 . S
O515 C514 1.258 . S
O516 Cd507 2.378 . S
O516 C514 1.256 . S
O517 Cd518 2.300 . S
O517 C524 1.275 . S
Cd518 O517 2.300 . S
Cd518 O526 2.381 . S
Cd518 O527 2.378 . S
O519 Cd520 2.385 . S
O519 C524 1.255 . S
Cd520 O519 2.385 . S
Cd520 O521 2.317 . S
O521 Cd520 2.317 . S
O521 C522 1.232 . S
C522 O521 1.232 . S
C522 O523 1.218 . S
O523 C522 1.218 . S
C524 O517 1.275 . S
C524 O519 1.255 . S
C525 O526 1.258 . S
C525 O527 1.256 . S
O526 Cd518 2.381 . S
O526 C525 1.258 . S
O527 Cd518 2.378 . S
O527 C525 1.256 . S
O528 Cd529 2.300 . S
O528 C535 1.275 . S
Cd529 O528 2.300 . S
Cd529 O537 2.381 . S
Cd529 O538 2.378 . S
O530 Cd531 2.385 . S
O530 C535 1.255 . S
Cd531 O530 2.385 . S
Cd531 O532 2.317 . S
O532 Cd531 2.317 . S
O532 C533 1.232 . S
C533 O532 1.232 . S
C533 O534 1.218 . S
O534 C533 1.218 . S
C535 O528 1.275 . S
C535 O530 1.255 . S
C536 O537 1.258 . S
C536 O538 1.256 . S
O537 Cd529 2.381 . S
O537 C536 1.258 . S
O538 Cd529 2.378 . S
O538 C536 1.256 . S
O539 Cd540 2.300 . S
O539 C546 1.275 . S
Cd540 O539 2.300 . S
Cd540 O548 2.381 . S
Cd540 O549 2.378 . S
O541 Cd542 2.385 . S
O541 C546 1.255 . S
Cd542 O541 2.385 . S
Cd542 O543 2.317 . S
O543 Cd542 2.317 . S
O543 C544 1.232 . S
C544 O543 1.232 . S
C544 O545 1.218 . S
O545 C544 1.218 . S
C546 O539 1.275 . S
C546 O541 1.255 . S
C547 O548 1.258 . S
C547 O549 1.256 . S
O548 Cd540 2.381 . S
O548 C547 1.258 . S
O549 Cd540 2.378 . S
O549 C547 1.256 . S
O550 Cd551 2.300 . S
O550 C557 1.275 . S
Cd551 O550 2.300 . S
Cd551 O559 2.381 . S
Cd551 O560 2.378 . S
O552 Cd553 2.385 . S
O552 C557 1.255 . S
Cd553 O552 2.385 . S
Cd553 O554 2.317 . S
O554 Cd553 2.317 . S
O554 C555 1.232 . S
C555 O554 1.232 . S
C555 O556 1.218 . S
O556 C555 1.218 . S
C557 O550 1.275 . S
C557 O552 1.255 . S
C558 O559 1.258 . S
C558 O560 1.256 . S
O559 Cd551 2.381 . S
O559 C558 1.258 . S
O560 Cd551 2.378 . S
O560 C558 1.256 . S
O561 Cd562 2.300 . S
O561 C568 1.275 . S
Cd562 O561 2.300 . S
Cd562 O570 2.381 . S
Cd562 O571 2.378 . S
O563 Cd564 2.385 . S
O563 C568 1.255 . S
Cd564 O563 2.385 . S
Cd564 O565 2.317 . S
O565 Cd564 2.317 . S
O565 C566 1.232 . S
C566 O565 1.232 . S
C566 O567 1.218 . S
O567 C566 1.218 . S
C568 O561 1.275 . S
C568 O563 1.255 . S
C569 O570 1.258 . S
C569 O571 1.256 . S
O570 Cd562 2.381 . S
O570 C569 1.258 . S
O571 Cd562 2.378 . S
O571 C569 1.256 . S
O572 Cd573 2.300 . S
O572 C579 1.275 . S
Cd573 O572 2.300 . S
Cd573 O581 2.381 . S
Cd573 O582 2.378 . S
O574 Cd575 2.385 . S
O574 C579 1.255 . S
Cd575 O574 2.385 . S
Cd575 O576 2.317 . S
O576 Cd575 2.317 . S
O576 C577 1.232 . S
C577 O576 1.232 . S
C577 O578 1.218 . S
O578 C577 1.218 . S
C579 O572 1.275 . S
C579 O574 1.255 . S
C580 O581 1.258 . S
C580 O582 1.256 . S
O581 Cd573 2.381 . S
O581 C580 1.258 . S
O582 Cd573 2.378 . S
O582 C580 1.256 . S
O583 Cd584 2.300 . S
O583 C590 1.275 . S
Cd584 O583 2.300 . S
Cd584 O592 2.381 . S
Cd584 O593 2.378 . S
O585 Cd586 2.385 . S
O585 C590 1.255 . S
Cd586 O585 2.385 . S
Cd586 O587 2.317 . S
O587 Cd586 2.317 . S
O587 C588 1.232 . S
C588 O587 1.232 . S
C588 O589 1.218 . S
O589 C588 1.218 . S
C590 O583 1.275 . S
C590 O585 1.255 . S
C591 O592 1.258 . S
C591 O593 1.256 . S
O592 Cd584 2.381 . S
O592 C591 1.258 . S
O593 Cd584 2.378 . S
O593 C591 1.256 . S
O594 Cd595 2.300 . S
O594 C601 1.275 . S
Cd595 O594 2.300 . S
Cd595 O603 2.381 . S
Cd595 O604 2.378 . S
O596 Cd597 2.385 . S
O596 C601 1.255 . S
Cd597 O596 2.385 . S
Cd597 O598 2.317 . S
O598 Cd597 2.317 . S
O598 C599 1.232 . S
C599 O598 1.232 . S
C599 O600 1.218 . S
O600 C599 1.218 . S
C601 O594 1.275 . S
C601 O596 1.255 . S
C602 O603 1.258 . S
C602 O604 1.256 . S
O603 Cd595 2.381 . S
O603 C602 1.258 . S
O604 Cd595 2.378 . S
O604 C602 1.256 . S
O605 Cd606 2.300 . S
O605 C612 1.275 . S
Cd606 O605 2.300 . S
Cd606 O614 2.381 . S
Cd606 O615 2.378 . S
O607 Cd608 2.385 . S
O607 C612 1.255 . S
Cd608 O607 2.385 . S
Cd608 O609 2.317 . S
O609 Cd608 2.317 . S
O609 C610 1.232 . S
C610 O609 1.232 . S
C610 O611 1.218 . S
O611 C610 1.218 . S
C612 O605 1.275 . S
C612 O607 1.255 . S
C613 O614 1.258 . S
C613 O615 1.256 . S
O614 Cd606 2.381 . S
O614 C613 1.258 . S
O615 Cd606 2.378 . S
O615 C613 1.256 . S
O616 Cd617 2.300 . S
O616 C623 1.275 . S
Cd617 O616 2.300 . S
Cd617 O625 2.381 . S
Cd617 O626 2.378 . S
O618 Cd619 2.385 . S
O618 C623 1.255 . S
Cd619 O618 2.385 . S
Cd619 O620 2.317 . S
O620 Cd619 2.317 . S
O620 C621 1.232 . S
C621 O620 1.232 . S
C621 O622 1.218 . S
O622 C621 1.218 . S
C623 O616 1.275 . S
C623 O618 1.255 . S
C624 O625 1.258 . S
C624 O626 1.256 . S
O625 Cd617 2.381 . S
O625 C624 1.258 . S
O626 Cd617 2.378 . S
O626 C624 1.256 . S
O627 Cd628 2.300 . S
O627 C634 1.275 . S
Cd628 O627 2.300 . S
Cd628 O636 2.381 . S
Cd628 O637 2.378 . S
O629 Cd630 2.385 . S
O629 C634 1.255 . S
Cd630 O629 2.385 . S
Cd630 O631 2.317 . S
O631 Cd630 2.317 . S
O631 C632 1.232 . S
C632 O631 1.232 . S
C632 O633 1.218 . S
O633 C632 1.218 . S
C634 O627 1.275 . S
C634 O629 1.255 . S
C635 O636 1.258 . S
C635 O637 1.256 . S
O636 Cd628 2.381 . S
O636 C635 1.258 . S
O637 Cd628 2.378 . S
O637 C635 1.256 . S
O638 Cd639 2.300 . S
O638 C645 1.275 . S
Cd639 O638 2.300 . S
Cd639 O647 2.381 . S
Cd639 O648 2.378 . S
O640 Cd641 2.385 . S
O640 C645 1.255 . S
Cd641 O640 2.385 . S
Cd641 O642 2.317 . S
O642 Cd641 2.317 . S
O642 C643 1.232 . S
C643 O642 1.232 . S
C643 O644 1.218 . S
O644 C643 1.218 . S
C645 O638 1.275 . S
C645 O640 1.255 . S
C646 O647 1.258 . S
C646 O648 1.256 . S
O647 Cd639 2.381 . S
O647 C646 1.258 . S
O648 Cd639 2.378 . S
O648 C646 1.256 . S
O649 Cd650 2.300 . S
O649 C656 1.275 . S
Cd650 O649 2.300 . S
Cd650 O658 2.381 . S
Cd650 O659 2.378 . S
O651 Cd652 2.385 . S
O651 C656 1.255 . S
Cd652 O651 2.385 . S
Cd652 O653 2.317 . S
O653 Cd652 2.317 . S
O653 C654 1.232 . S
C654 O653 1.232 . S
C654 O655 1.218 . S
O655 C654 1.218 . S
C656 O649 1.275 . S
C656 O651 1.255 . S
C657 O658 1.258 . S
C657 O659 1.256 . S
O658 Cd650 2.381 . S
O658 C657 1.258 . S
O659 Cd650 2.378 . S
O659 C657 1.256 . S
O660 Cd661 2.300 . S
O660 C667 1.275 . S
Cd661 O660 2.300 . S
Cd661 O669 2.381 . S
Cd661 O670 2.378 . S
O662 Cd663 2.385 . S
O662 C667 1.255 . S
Cd663 O662 2.385 . S
Cd663 O664 2.317 . S
O664 Cd663 2.317 . S
O664 C665 1.232 . S
C665 O664 1.232 . S
C665 O666 1.218 . S
O666 C665 1.218 . S
C667 O660 1.275 . S
C667 O662 1.255 . S
C668 O669 1.258 . S
C668 O670 1.256 . S
O669 Cd661 2.381 . S
O669 C668 1.258 . S
O670 Cd661 2.378 . S
O670 C668 1.256 . S
O671 Cd672 2.300 . S
O671 C678 1.275 . S
Cd672 O671 2.300 . S
Cd672 O680 2.381 . S
Cd672 O681 2.378 . S
O673 Cd674 2.385 . S
O673 C678 1.255 . S
Cd674 O673 2.385 . S
Cd674 O675 2.317 . S
O675 Cd674 2.317 . S
O675 C676 1.232 . S
C676 O675 1.232 . S
C676 O677 1.218 . S
O677 C676 1.218 . S
C678 O671 1.275 . S
C678 O673 1.255 . S
C679 O680 1.258 . S
C679 O681 1.256 . S
O680 Cd672 2.381 . S
O680 C679 1.258 . S
O681 Cd672 2.378 . S
O681 C679 1.256 . S
O682 Cd683 2.300 . S
O682 C689 1.275 . S
Cd683 O682 2.300 . S
Cd683 O691 2.381 . S
Cd683 O692 2.378 . S
O684 Cd685 2.385 . S
O684 C689 1.255 . S
Cd685 O684 2.385 . S
Cd685 O686 2.317 . S
O686 Cd685 2.317 . S
O686 C687 1.232 . S
C687 O686 1.232 . S
C687 O688 1.218 . S
O688 C687 1.218 . S
C689 O682 1.275 . S
C689 O684 1.255 . S
C690 O691 1.258 . S
C690 O692 1.256 . S
O691 Cd683 2.381 . S
O691 C690 1.258 . S
O692 Cd683 2.378 . S
O692 C690 1.256 . S
O693 Cd694 2.300 . S
O693 C700 1.275 . S
Cd694 O693 2.300 . S
Cd694 O702 2.381 . S
Cd694 O703 2.378 . S
O695 Cd696 2.385 . S
O695 C700 1.255 . S
Cd696 O695 2.385 . S
Cd696 O697 2.317 . S
O697 Cd696 2.317 . S
O697 C698 1.232 . S
C698 O697 1.232 . S
C698 O699 1.218 . S
O699 C698 1.218 . S
C700 O693 1.275 . S
C700 O695 1.255 . S
C701 O702 1.258 . S
C701 O703 1.256 . S
O702 Cd694 2.381 . S
O702 C701 1.258 . S
O703 Cd694 2.378 . S
O703 C701 1.256 . S
O704 Cd705 2.300 . S
O704 C711 1.275 . S
Cd705 O704 2.300 . S
Cd705 O713 2.381 . S
Cd705 O714 2.378 . S
O706 Cd707 2.385 . S
O706 C711 1.255 . S
Cd707 O706 2.385 . S
Cd707 O708 2.317 . S
O708 Cd707 2.317 . S
O708 C709 1.232 . S
C709 O708 1.232 . S
C709 O710 1.218 . S
O710 C709 1.218 . S
C711 O704 1.275 . S
C711 O706 1.255 . S
C712 O713 1.258 . S
C712 O714 1.256 . S
O713 Cd705 2.381 . S
O713 C712 1.258 . S
O714 Cd705 2.378 . S
O714 C712 1.256 . S
O715 Cd716 2.300 . S
O715 C722 1.275 . S
Cd716 O715 2.300 . S
Cd716 O724 2.381 . S
Cd716 O725 2.378 . S
O717 Cd718 2.385 . S
O717 C722 1.255 . S
Cd718 O717 2.385 . S
Cd718 O719 2.317 . S
O719 Cd718 2.317 . S
O719 C720 1.232 . S
C720 O719 1.232 . S
C720 O721 1.218 . S
O721 C720 1.218 . S
C722 O715 1.275 . S
C722 O717 1.255 . S
C723 O724 1.258 . S
C723 O725 1.256 . S
O724 Cd716 2.381 . S
O724 C723 1.258 . S
O725 Cd716 2.378 . S
O725 C723 1.256 . S
O726 Cd727 2.300 . S
O726 C733 1.275 . S
Cd727 O726 2.300 . S
Cd727 O735 2.381 . S
Cd727 O736 2.378 . S
O728 Cd729 2.385 . S
O728 C733 1.255 . S
Cd729 O728 2.385 . S
Cd729 O730 2.317 . S
O730 Cd729 2.317 . S
O730 C731 1.232 . S
C731 O730 1.232 . S
C731 O732 1.218 . S
O732 C731 1.218 . S
C733 O726 1.275 . S
C733 O728 1.255 . S
C734 O735 1.258 . S
C734 O736 1.256 . S
O735 Cd727 2.381 . S
O735 C734 1.258 . S
O736 Cd727 2.378 . S
O736 C734 1.256 . S
O737 Cd738 2.300 . S
O737 C744 1.275 . S
Cd738 O737 2.300 . S
Cd738 O746 2.381 . S
Cd738 O747 2.378 . S
O739 Cd740 2.385 . S
O739 C744 1.255 . S
Cd740 O739 2.385 . S
Cd740 O741 2.317 . S
O741 Cd740 2.317 . S
O741 C742 1.232 . S
C742 O741 1.232 . S
C742 O743 1.218 . S
O743 C742 1.218 . S
C744 O737 1.275 . S
C744 O739 1.255 . S
C745 O746 1.258 . S
C745 O747 1.256 . S
O746 Cd738 2.381 . S
O746 C745 1.258 . S
O747 Cd738 2.378 . S
O747 C745 1.256 . S
O748 Cd749 2.300 . S
O748 C755 1.275 . S
Cd749 O748 2.300 . S
Cd749 O757 2.381 . S
Cd749 O758 2.378 . S
O750 Cd751 2.385 . S
O750 C755 1.255 . S
Cd751 O750 2.385 . S
Cd751 O752 2.317 . S
O752 Cd751 2.317 . S
O752 C753 1.232 . S
C753 O752 1.232 . S
C753 O754 1.218 . S
O754 C753 1.218 . S
C755 O748 1.275 . S
C755 O750 1.255 . S
C756 O757 1.258 . S
C756 O758 1.256 . S
O757 Cd749 2.381 . S
O757 C756 1.258 . S
O758 Cd749 2.378 . S
O758 C756 1.256 . S
O759 Cd760 2.300 . S
O759 C766 1.275 . S
Cd760 O759 2.300 . S
Cd760 O768 2.381 . S
Cd760 O769 2.378 . S
O761 Cd762 2.385 . S
O761 C766 1.255 . S
Cd762 O761 2.385 . S
Cd762 O763 2.317 . S
O763 Cd762 2.317 . S
O763 C764 1.232 . S
C764 O763 1.232 . S
C764 O765 1.218 . S
O765 C764 1.218 . S
C766 O759 1.275 . S
C766 O761 1.255 . S
C767 O768 1.258 . S
C767 O769 1.256 . S
O768 Cd760 2.381 . S
O768 C767 1.258 . S
O769 Cd760 2.378 . S
O769 C767 1.256 . S
O770 Cd771 2.300 . S
O770 C777 1.275 . S
Cd771 O770 2.300 . S
Cd771 O779 2.381 . S
Cd771 O780 2.378 . S
O772 Cd773 2.385 . S
O772 C777 1.255 . S
Cd773 O772 2.385 . S
Cd773 O774 2.317 . S
O774 Cd773 2.317 . S
O774 C775 1.232 . S
C775 O774 1.232 . S
C775 O776 1.218 . S
O776 C775 1.218 . S
C777 O770 1.275 . S
C777 O772 1.255 . S
C778 O779 1.258 . S
C778 O780 1.256 . S
O779 Cd771 2.381 . S
O779 C778 1.258 . S
O780 Cd771 2.378 . S
O780 C778 1.256 . S
O781 Cd782 2.300 . S
O781 C788 1.275 . S
Cd782 O781 2.300 . S
Cd782 O790 2.381 . S
Cd782 O791 2.378 . S
O783 Cd784 2.385 . S
O783 C788 1.255 . S
Cd784 O783 2.385 . S
Cd784 O785 2.317 . S
O785 Cd784 2.317 . S
O785 C786 1.232 . S
C786 O785 1.232 . S
C786 O787 1.218 . S
O787 C786 1.218 . S
C788 O781 1.275 . S
C788 O783 1.255 . S
C789 O790 1.258 . S
C789 O791 1.256 . S
O790 Cd782 2.381 . S
O790 C789 1.258 . S
O791 Cd782 2.378 . S
O791 C789 1.256 . S
O792 Cd793 2.300 . S
O792 C799 1.275 . S
Cd793 O792 2.300 . S
Cd793 O801 2.381 . S
Cd793 O802 2.378 . S
O794 Cd795 2.385 . S
O794 C799 1.255 . S
Cd795 O794 2.385 . S
Cd795 O796 2.317 . S
O796 Cd795 2.317 . S
O796 C797 1.232 . S
C797 O796 1.232 . S
C797 O798 1.218 . S
O798 C797 1.218 . S
C799 O792 1.275 . S
C799 O794 1.255 . S
C800 O801 1.258 . S
C800 O802 1.256 . S
O801 Cd793 2.381 . S
O801 C800 1.258 . S
O802 Cd793 2.378 . S
O802 C800 1.256 . S
O803 Cd804 2.300 . S
O803 C810 1.275 . S
Cd804 O803 2.300 . S
Cd804 O812 2.381 . S
Cd804 O813 2.378 . S
O805 Cd806 2.385 . S
O805 C810 1.255 . S
Cd806 O805 2.385 . S
Cd806 O807 2.317 . S
O807 Cd806 2.317 . S
O807 C808 1.232 . S
C808 O807 1.232 . S
C808 O809 1.218 . S
O809 C808 1.218 . S
C810 O803 1.275 . S
C810 O805 1.255 . S
C811 O812 1.258 . S
C811 O813 1.256 . S
O812 Cd804 2.381 . S
O812 C811 1.258 . S
O813 Cd804 2.378 . S
O813 C811 1.256 . S
O814 Cd815 2.300 . S
O814 C821 1.275 . S
Cd815 O814 2.300 . S
Cd815 O823 2.381 . S
Cd815 O824 2.378 . S
O816 Cd817 2.385 . S
O816 C821 1.255 . S
Cd817 O816 2.385 . S
Cd817 O818 2.317 . S
O818 Cd817 2.317 . S
O818 C819 1.232 . S
C819 O818 1.232 . S
C819 O820 1.218 . S
O820 C819 1.218 . S
C821 O814 1.275 . S
C821 O816 1.255 . S
C822 O823 1.258 . S
C822 O824 1.256 . S
O823 Cd815 2.381 . S
O823 C822 1.258 . S
O824 Cd815 2.378 . S
O824 C822 1.256 . S
O825 Cd826 2.300 . S
O825 C832 1.275 . S
Cd826 O825 2.300 . S
Cd826 O834 2.381 . S
Cd826 O835 2.378 . S
O827 Cd828 2.385 . S
O827 C832 1.255 . S
Cd828 O827 2.385 . S
Cd828 O829 2.317 . S
O829 Cd828 2.317 . S
O829 C830 1.232 . S
C830 O829 1.232 . S
C830 O831 1.218 . S
O831 C830 1.218 . S
C832 O825 1.275 . S
C832 O827 1.255 . S
C833 O834 1.258 . S
C833 O835 1.256 . S
O834 Cd826 2.381 . S
O834 C833 1.258 . S
O835 Cd826 2.378 . S
O835 C833 1.256 . S
O836 Cd837 2.300 . S
O836 C843 1.275 . S
Cd837 O836 2.300 . S
Cd837 O845 2.381 . S
Cd837 O846 2.378 . S
O838 Cd839 2.385 . S
O838 C843 1.255 . S
Cd839 O838 2.385 . S
Cd839 O840 2.317 . S
O840 Cd839 2.317 . S
O840 C841 1.232 . S
C841 O840 1.232 . S
C841 O842 1.218 . S
O842 C841 1.218 . S
C843 O836 1.275 . S
C843 O838 1.255 . S
C844 O845 1.258 . S
C844 O846 1.256 . S
O845 Cd837 2.381 . S
O845 C844 1.258 . S
O846 Cd837 2.378 . S
O846 C844 1.256 . S
O847 Cd848 2.300 . S
O847 C854 1.275 . S
Cd848 O847 2.300 . S
Cd848 O856 2.381 . S
Cd848 O857 2.378 . S
O849 Cd850 2.385 . S
O849 C854 1.255 . S
Cd850 O849 2.385 . S
Cd850 O851 2.317 . S
O851 Cd850 2.317 . S
O851 C852 1.232 . S
C852 O851 1.232 . S
C852 O853 1.218 . S
O853 C852 1.218 . S
C854 O847 1.275 . S
C854 O849 1.255 . S
C855 O856 1.258 . S
C855 O857 1.256 . S
O856 Cd848 2.381 . S
O856 C855 1.258 . S
O857 Cd848 2.378 . S
O857 C855 1.256 . S
O858 Cd859 2.300 . S
O858 C865 1.275 . S
Cd859 O858 2.300 . S
Cd859 O867 2.381 . S
Cd859 O868 2.378 . S
O860 Cd861 2.385 . S
O860 C865 1.255 . S
Cd861 O860 2.385 . S
Cd861 O862 2.317 . S
O862 Cd861 2.317 . S
O862 C863 1.232 . S
C863 O862 1.232 . S
C863 O864 1.218 . S
O864 C863 1.218 . S
C865 O858 1.275 . S
C865 O860 1.255 . S
C866 O867 1.258 . S
C866 O868 1.256 . S
O867 Cd859 2.381 . S
O867 C866 1.258 . S
O868 Cd859 2.378 . S
O868 C866 1.256 . S
O869 Cd870 2.300 . S
O869 C876 1.275 . S
Cd870 O869 2.300 . S
Cd870 O878 2.381 . S
Cd870 O879 2.378 . S
O871 Cd872 2.385 . S
O871 C876 1.255 . S
Cd872 O871 2.385 . S
Cd872 O873 2.317 . S
O873 Cd872 2.317 . S
O873 C874 1.232 . S
C874 O873 1.232 . S
C874 O875 1.218 . S
O875 C874 1.218 . S
C876 O869 1.275 . S
C876 O871 1.255 . S
C877 O878 1.258 . S
C877 O879 1.256 . S
O878 Cd870 2.381 . S
O878 C877 1.258 . S
O879 Cd870 2.378 . S
O879 C877 1.256 . S
O880 Cd881 2.300 . S
O880 C887 1.275 . S
Cd881 O880 2.300 . S
Cd881 O889 2.381 . S
Cd881 O890 2.378 . S
O882 Cd883 2.385 . S
O882 C887 1.255 . S
Cd883 O882 2.385 . S
Cd883 O884 2.317 . S
O884 Cd883 2.317 . S
O884 C885 1.232 . S
C885 O884 1.232 . S
C885 O886 1.218 . S
O886 C885 1.218 . S
C887 O880 1.275 . S
C887 O882 1.255 . S
C888 O889 1.258 . S
C888 O890 1.256 . S
O889 Cd881 2.381 . S
O889 C888 1.258 . S
O890 Cd881 2.378 . S
O890 C888 1.256 . S
O891 Cd892 2.300 . S
O891 C898 1.275 . S
Cd892 O891 2.300 . S
Cd892 O900 2.381 . S
Cd892 O901 2.378 . S
O893 Cd894 2.385 . S
O893 C898 1.255 . S
Cd894 O893 2.385 . S
Cd894 O895 2.317 . S
O895 Cd894 2.317 . S
O895 C896 1.232 . S
C896 O895 1.232 . S
C896 O897 1.218 . S
O897 C896 1.218 . S
C898 O891 1.275 . S
C898 O893 1.255 . S
C899 O900 1.258 . S
C899 O901 1.256 . S
O900 Cd892 2.381 . S
O900 C899 1.258 . S
O901 Cd892 2.378 . S
O901 C899 1.256 . S
O902 Cd903 2.300 . S
O902 C909 1.275 . S
Cd903 O902 2.300 . S
Cd903 O911 2.381 . S
Cd903 O912 2.378 . S
O904 Cd905 2.385 . S
O904 C909 1.255 . S
Cd905 O904 2.385 . S
Cd905 O906 2.317 . S
O906 Cd905 2.317 . S
O906 C907 1.232 . S
C907 O906 1.232 . S
C907 O908 1.218 . S
O908 C907 1.218 . S
C909 O902 1.275 . S
C909 O904 1.255 . S
C910 O911 1.258 . S
C910 O912 1.256 . S
O911 Cd903 2.381 . S
O911 C910 1.258 . S
O912 Cd903 2.378 . S
O912 C910 1.256 . S
O913 Cd914 2.300 . S
O913 C920 1.275 . S
Cd914 O913 2.300 . S
Cd914 O922 2.381 . S
Cd914 O923 2.378 . S
O915 Cd916 2.385 . S
O915 C920 1.255 . S
Cd916 O915 2.385 . S
Cd916 O917 2.317 . S
O917 Cd916 2.317 . S
O917 C918 1.232 . S
C918 O917 1.232 . S
C918 O919 1.218 . S
O919 C918 1.218 . S
C920 O913 1.275 . S
C920 O915 1.255 . S
C921 O922 1.258 . S
C921 O923 1.256 . S
O922 Cd914 2.381 . S
O922 C921 1.258 . S
O923 Cd914 2.378 . S
O923 C921 1.256 . S
O924 Cd925 2.300 . S
O924 C931 1.275 . S
Cd925 O924 2.300 . S
Cd925 O933 2.381 . S
Cd925 O934 2.378 . S
O926 Cd927 2.385 . S
O926 C931 1.255 . S
Cd927 O926 2.385 . S
Cd927 O928 2.317 . S
O928 Cd927 2.317 . S
O928 C929 1.232 . S
C929 O928 1.232 . S
C929 O930 1.218 . S
O930 C929 1.218 . S
C931 O924 1.275 . S
C931 O926 1.255 . S
C932 O933 1.258 . S
C932 O934 1.256 . S
O933 Cd925 2.381 . S
O933 C932 1.258 . S
O934 Cd925 2.378 . S
O934 C932 1.256 . S
O935 Cd936 2.300 . S
O935 C942 1.275 . S
Cd936 O935 2.300 . S
Cd936 O944 2.381 . S
Cd936 O945 2.378 . S
O937 Cd938 2.385 . S
O937 C942 1.255 . S
Cd938 O937 2.385 . S
Cd938 O939 2.317 . S
O939 Cd938 2.317 . S
O939 C940 1.232 . S
C940 O939 1.232 . S
C940 O941 1.218 . S
O941 C940 1.218 . S
C942 O935 1.275 . S
C942 O937 1.255 . S
C943 O944 1.258 . S
C943 O945 1.256 . S
O944 Cd936 2.381 . S
O944 C943 1.258 . S
O945 Cd936 2.378 . S
O945 C943 1.256 . S
O946 Cd947 2.300 . S
O946 C953 1.275 . S
Cd947 O946 2.300 . S
Cd947 O955 2.381 . S
Cd947 O956 2.378 . S
O948 Cd949 2.385 . S
O948 C953 1.255 . S
Cd949 O948 2.385 . S
Cd949 O950 2.317 . S
O950 Cd949 2.317 . S
O950 C951 1.232 . S
C951 O950 1.232 . S
C951 O952 1.218 . S
O952 C951 1.218 . S
C953 O946 1.275 . S
C953 O948 1.255 . S
C954 O955 1.258 . S
C954 O956 1.256 . S
O955 Cd947 2.381 . S
O955 C954 1.258 . S
O956 Cd947 2.378 . S
O956 C954 1.256 . S
O957 Cd958 2.300 . S
O957 C964 1.275 . S
Cd958 O957 2.300 . S
Cd958 O966 2.381 . S
Cd958 O967 2.378 . S
O959 Cd960 2.385 . S
O959 C964 1.255 . S
Cd960 O959 2.385 . S
Cd960 O961 2.317 . S
O961 Cd960 2.317 . S
O961 C962 1.232 . S
C962 O961 1.232 . S
C962 O963 1.218 . S
O963 C962 1.218 . S
C964 O957 1.275 . S
C964 O959 1.255 . S
C965 O966 1.258 . S
C965 O967 1.256 . S
O966 Cd958 2.381 . S
O966 C965 1.258 . S
O967 Cd958 2.378 . S
O967 C965 1.256 . S
O968 Cd969 2.300 . S
O968 C975 1.275 . S
Cd969 O968 2.300 . S
Cd969 O977 2.381 . S
Cd969 O978 2.378 . S
O970 Cd971 2.385 . S
O970 C975 1.255 . S
Cd971 O970 2.385 . S
Cd971 O972 2.317 . S
O972 Cd971 2.317 . S
O972 C973 1.232 . S
C973 O972 1.232 . S
C973 O974 1.218 . S
O974 C973 1.218 . S
C975 O968 1.275 . S
C975 O970 1.255 . S
C976 O977 1.258 . S
C976 O978 1.256 . S
O977 Cd969 2.381 . S
O977 C976 1.258 . S
O978 Cd969 2.378 . S
O978 C976 1.256 . S
O979 Cd980 2.300 . S
O979 C986 1.275 . S
Cd980 O979 2.300 . S
Cd980 O988 2.381 . S
Cd980 O989 2.378 . S
O981 Cd982 2.385 . S
O981 C986 1.255 . S
Cd982 O981 2.385 . S
Cd982 O983 2.317 . S
O983 Cd982 2.317 . S
O983 C984 1.232 . S
C984 O983 1.232 . S
C984 O985 1.218 . S
O985 C984 1.218 . S
C986 O979 1.275 . S
C986 O981 1.255 . S
C987 O988 1.258 . S
C987 O989 1.256 . S
O988 Cd980 2.381 . S
O988 C987 1.258 . S
O989 Cd980 2.378 . S
O989 C987 1.256 . S
O990 Cd991 2.300 . S
O990 C997 1.275 . S
Cd991 O990 2.300 . S
Cd991 O999 2.381 . S
Cd991 O1000 2.378 . S
O992 Cd993 2.385 . S
O992 C997 1.255 . S
Cd993 O992 2.385 . S
Cd993 O994 2.317 . S
O994 Cd993 2.317 . S
O994 C995 1.232 . S
C995 O994 1.232 . S
C995 O996 1.218 . S
O996 C995 1.218 . S
C997 O990 1.275 . S
C997 O992 1.255 . S
C998 O999 1.258 . S
C998 O1000 1.256 . S
O999 Cd991 2.381 . S
O999 C998 1.258 . S
O1000 Cd991 2.378 . S
O1000 C998 1.256 . S
O1001 Cd1002 2.300 . S
O1001 C1008 1.275 . S
Cd1002 O1001 2.300 . S
Cd1002 O1010 2.381 . S
Cd1002 O1011 2.378 . S
O1003 Cd1004 2.385 . S
O1003 C1008 1.255 . S
Cd1004 O1003 2.385 . S
Cd1004 O1005 2.317 . S
O1005 Cd1004 2.317 . S
O1005 C1006 1.232 . S
C1006 O1005 1.232 . S
C1006 O1007 1.218 . S
O1007 C1006 1.218 . S
C1008 O1001 1.275 . S
C1008 O1003 1.255 . S
C1009 O1010 1.258 . S
C1009 O1011 1.256 . S
O1010 Cd1002 2.381 . S
O1010 C1009 1.258 . S
O1011 Cd1002 2.378 . S
O1011 C1009 1.256 . S
O1012 Cd1013 2.300 . S
O1012 C1019 1.275 . S
Cd1013 O1012 2.300 . S
Cd1013 O1021 2.381 . S
Cd1013 O1022 2.378 . S
O1014 Cd1015 2.385 . S
O1014 C1019 1.255 . S
Cd1015 O1014 2.385 . S
Cd1015 O1016 2.317 . S
O1016 Cd1015 2.317 . S
O1016 C1017 1.232 . S
C1017 O1016 1.232 . S
C1017 O1018 1.218 . S
O1018 C1017 1.218 . S
C1019 O1012 1.275 . S
C1019 O1014 1.255 . S
C1020 O1021 1.258 . S
C1020 O1022 1.256 . S
O1021 Cd1013 2.381 . S
O1021 C1020 1.258 . S
O1022 Cd1013 2.378 . S
O1022 C1020 1.256 . S
O1023 Cd1024 2.300 . S
O1023 C1030 1.275 . S
Cd1024 O1023 2.300 . S
Cd1024 O1032 2.381 . S
Cd1024 O1033 2.378 . S
O1025 Cd1026 2.385 . S
O1025 C1030 1.255 . S
Cd1026 O1025 2.385 . S
Cd1026 O1027 2.317 . S
O1027 Cd1026 2.317 . S
O1027 C1028 1.232 . S
C1028 O1027 1.232 . S
C1028 O1029 1.218 . S
O1029 C1028 1.218 . S
C1030 O1023 1.275 . S
C1030 O1025 1.255 . S
C1031 O1032 1.258 . S
C1031 O1033 1.256 . S
O1032 Cd1024 2.381 . S
O1032 C1031 1.258 . S
O1033 Cd1024 2.378 . S
O1033 C1031 1.256 . S
O1034 Cd1035 2.300 . S
O1034 C1041 1.275 . S
Cd1035 O1034 2.300 . S
Cd1035 O1043 2.381 . S
Cd1035 O1044 2.378 . S
O1036 Cd1037 2.385 . S
O1036 C1041 1.255 . S
Cd1037 O1036 2.385 . S
Cd1037 O1038 2.317 . S
O1038 Cd1037 2.317 . S
O1038 C1039 1.232 . S
C1039 O1038 1.232 . S
C1039 O1040 1.218 . S
O1040 C1039 1.218 . S
C1041 O1034 1.275 . S
C1041 O1036 1.255 . S
C1042 O1043 1.258 . S
C1042 O1044 1.256 . S
O1043 Cd1035 2.381 . S
O1043 C1042 1.258 . S
O1044 Cd1035 2.378 . S
O1044 C1042 1.256 . S
O1045 Cd1046 2.300 . S
O1045 C1052 1.275 . S
Cd1046 O1045 2.300 . S
Cd1046 O1054 2.381 . S
Cd1046 O1055 2.378 . S
O1047 Cd1048 2.385 . S
O1047 C1052 1.255 . S
Cd1048 O1047 2.385 . S
Cd1048 O1049 2.317 . S
O1049 Cd1048 2.317 . S
O1049 C1050 1.232 . S
C1050 O1049 1.232 . S
C1050 O1051 1.218 . S
O1051 C1050 1.218 . S
C1052 O1045 1.275 . S
C1052 O1047 1.255 . S
C1053 O1054 1.258 . S
C1053 O1055 1.256 . S
O1054 Cd1046 2.381 . S
O1054 C1053 1.258 . S
O1055 Cd1046 2.378 . S
O1055 C1053 1.256 . S
C1056 N1057 1.317 . S
C1056 N1058 1.348 . S
C1056 C1059 1.485 . S
N1057 C1056 1.317 . S
N1057 N1061 1.370 . S
N1058 C1056 1.348 . S
N1058 C1060 1.346 . S
C1059 C1056 1.485 . S
C1059 H1063 0.960 . S
C1059 H1064 0.961 . S
C1059 H1065 0.960 . S
C1060 N1058 1.346 . S
C1060 N1061 1.307 . S
C1060 C1062 1.486 . S
N1061 N1057 1.370 . S
N1061 C1060 1.307 . S
C1062 C1060 1.486 . S
C1062 H1066 0.960 . S
C1062 H1067 0.960 . S
C1062 H1068 0.959 . S
H1063 C1059 0.960 . S
H1064 C1059 0.961 . S
H1065 C1059 0.960 . S
H1066 C1062 0.960 . S
H1067 C1062 0.960 . S
H1068 C1062 0.959 . S
C1069 N1070 1.317 . S
C1069 N1071 1.348 . S
C1069 C1072 1.485 . S
N1070 C1069 1.317 . S
N1070 N1074 1.370 . S
N1071 C1069 1.348 . S
N1071 C1073 1.346 . S
C1072 C1069 1.485 . S
C1072 H1076 0.960 . S
C1072 H1077 0.961 . S
C1072 H1078 0.960 . S
C1073 N1071 1.346 . S
C1073 N1074 1.307 . S
C1073 C1075 1.486 . S
N1074 N1070 1.370 . S
N1074 C1073 1.307 . S
C1075 C1073 1.486 . S
C1075 H1079 0.960 . S
C1075 H1080 0.960 . S
C1075 H1081 0.959 . S
H1076 C1072 0.960 . S
H1077 C1072 0.961 . S
H1078 C1072 0.960 . S
H1079 C1075 0.960 . S
H1080 C1075 0.960 . S
H1081 C1075 0.959 . S
C1082 N1083 1.317 . S
C1082 N1084 1.348 . S
C1082 C1085 1.485 . S
N1083 C1082 1.317 . S
N1083 N1087 1.370 . S
N1084 C1082 1.348 . S
N1084 C1086 1.346 . S
C1085 C1082 1.485 . S
C1085 H1089 0.960 . S
C1085 H1090 0.961 . S
C1085 H1091 0.960 . S
C1086 N1084 1.346 . S
C1086 N1087 1.307 . S
C1086 C1088 1.486 . S
N1087 N1083 1.370 . S
N1087 C1086 1.307 . S
C1088 C1086 1.486 . S
C1088 H1092 0.960 . S
C1088 H1093 0.960 . S
C1088 H1094 0.959 . S
H1089 C1085 0.960 . S
H1090 C1085 0.961 . S
H1091 C1085 0.960 . S
H1092 C1088 0.960 . S
H1093 C1088 0.960 . S
H1094 C1088 0.959 . S
C1095 N1096 1.317 . S
C1095 N1097 1.348 . S
C1095 C1098 1.485 . S
N1096 C1095 1.317 . S
N1096 N1100 1.370 . S
N1097 C1095 1.348 . S
N1097 C1099 1.346 . S
C1098 C1095 1.485 . S
C1098 H1102 0.960 . S
C1098 H1103 0.961 . S
C1098 H1104 0.960 . S
C1099 N1097 1.346 . S
C1099 N1100 1.307 . S
C1099 C1101 1.486 . S
N1100 N1096 1.370 . S
N1100 C1099 1.307 . S
C1101 C1099 1.486 . S
C1101 H1105 0.960 . S
C1101 H1106 0.960 . S
C1101 H1107 0.959 . S
H1102 C1098 0.960 . S
H1103 C1098 0.961 . S
H1104 C1098 0.960 . S
H1105 C1101 0.960 . S
H1106 C1101 0.960 . S
H1107 C1101 0.959 . S
C1108 N1109 1.317 . S
C1108 N1110 1.348 . S
C1108 C1111 1.485 . S
N1109 C1108 1.317 . S
N1109 N1113 1.370 . S
N1110 C1108 1.348 . S
N1110 C1112 1.346 . S
C1111 C1108 1.485 . S
C1111 H1115 0.960 . S
C1111 H1116 0.961 . S
C1111 H1117 0.960 . S
C1112 N1110 1.346 . S
C1112 N1113 1.307 . S
C1112 C1114 1.486 . S
N1113 N1109 1.370 . S
N1113 C1112 1.307 . S
C1114 C1112 1.486 . S
C1114 H1118 0.960 . S
C1114 H1119 0.960 . S
C1114 H1120 0.959 . S
H1115 C1111 0.960 . S
H1116 C1111 0.961 . S
H1117 C1111 0.960 . S
H1118 C1114 0.960 . S
H1119 C1114 0.960 . S
H1120 C1114 0.959 . S
C1121 N1122 1.317 . S
C1121 N1123 1.348 . S
C1121 C1124 1.485 . S
N1122 C1121 1.317 . S
N1122 N1126 1.370 . S
N1123 C1121 1.348 . S
N1123 C1125 1.346 . S
C1124 C1121 1.485 . S
C1124 H1128 0.960 . S
C1124 H1129 0.961 . S
C1124 H1130 0.960 . S
C1125 N1123 1.346 . S
C1125 N1126 1.307 . S
C1125 C1127 1.486 . S
N1126 N1122 1.370 . S
N1126 C1125 1.307 . S
C1127 C1125 1.486 . S
C1127 H1131 0.960 . S
C1127 H1132 0.960 . S
C1127 H1133 0.959 . S
H1128 C1124 0.960 . S
H1129 C1124 0.961 . S
H1130 C1124 0.960 . S
H1131 C1127 0.960 . S
H1132 C1127 0.960 . S
H1133 C1127 0.959 . S
C1134 N1135 1.317 . S
C1134 N1136 1.348 . S
C1134 C1137 1.485 . S
N1135 C1134 1.317 . S
N1135 N1139 1.370 . S
N1136 C1134 1.348 . S
N1136 C1138 1.346 . S
C1137 C1134 1.485 . S
C1137 H1141 0.960 . S
C1137 H1142 0.961 . S
C1137 H1143 0.960 . S
C1138 N1136 1.346 . S
C1138 N1139 1.307 . S
C1138 C1140 1.486 . S
N1139 N1135 1.370 . S
N1139 C1138 1.307 . S
C1140 C1138 1.486 . S
C1140 H1144 0.960 . S
C1140 H1145 0.960 . S
C1140 H1146 0.959 . S
H1141 C1137 0.960 . S
H1142 C1137 0.961 . S
H1143 C1137 0.960 . S
H1144 C1140 0.960 . S
H1145 C1140 0.960 . S
H1146 C1140 0.959 . S
C1147 N1148 1.317 . S
C1147 N1149 1.348 . S
C1147 C1150 1.485 . S
N1148 C1147 1.317 . S
N1148 N1152 1.370 . S
N1149 C1147 1.348 . S
N1149 C1151 1.346 . S
C1150 C1147 1.485 . S
C1150 H1154 0.960 . S
C1150 H1155 0.961 . S
C1150 H1156 0.960 . S
C1151 N1149 1.346 . S
C1151 N1152 1.307 . S
C1151 C1153 1.486 . S
N1152 N1148 1.370 . S
N1152 C1151 1.307 . S
C1153 C1151 1.486 . S
C1153 H1157 0.960 . S
C1153 H1158 0.960 . S
C1153 H1159 0.959 . S
H1154 C1150 0.960 . S
H1155 C1150 0.961 . S
H1156 C1150 0.960 . S
H1157 C1153 0.960 . S
H1158 C1153 0.960 . S
H1159 C1153 0.959 . S
C1160 N1161 1.317 . S
C1160 N1162 1.348 . S
C1160 C1163 1.485 . S
N1161 C1160 1.317 . S
N1161 N1165 1.370 . S
N1162 C1160 1.348 . S
N1162 C1164 1.346 . S
C1163 C1160 1.485 . S
C1163 H1167 0.960 . S
C1163 H1168 0.961 . S
C1163 H1169 0.960 . S
C1164 N1162 1.346 . S
C1164 N1165 1.307 . S
C1164 C1166 1.486 . S
N1165 N1161 1.370 . S
N1165 C1164 1.307 . S
C1166 C1164 1.486 . S
C1166 H1170 0.960 . S
C1166 H1171 0.960 . S
C1166 H1172 0.959 . S
H1167 C1163 0.960 . S
H1168 C1163 0.961 . S
H1169 C1163 0.960 . S
H1170 C1166 0.960 . S
H1171 C1166 0.960 . S
H1172 C1166 0.959 . S
C1173 N1174 1.317 . S
C1173 N1175 1.348 . S
C1173 C1176 1.485 . S
N1174 C1173 1.317 . S
N1174 N1178 1.370 . S
N1175 C1173 1.348 . S
N1175 C1177 1.346 . S
C1176 C1173 1.485 . S
C1176 H1180 0.960 . S
C1176 H1181 0.961 . S
C1176 H1182 0.960 . S
C1177 N1175 1.346 . S
C1177 N1178 1.307 . S
C1177 C1179 1.486 . S
N1178 N1174 1.370 . S
N1178 C1177 1.307 . S
C1179 C1177 1.486 . S
C1179 H1183 0.960 . S
C1179 H1184 0.960 . S
C1179 H1185 0.959 . S
H1180 C1176 0.960 . S
H1181 C1176 0.961 . S
H1182 C1176 0.960 . S
H1183 C1179 0.960 . S
H1184 C1179 0.960 . S
H1185 C1179 0.959 . S
C1186 N1187 1.317 . S
C1186 N1188 1.348 . S
C1186 C1189 1.485 . S
N1187 C1186 1.317 . S
N1187 N1191 1.370 . S
N1188 C1186 1.348 . S
N1188 C1190 1.346 . S
C1189 C1186 1.485 . S
C1189 H1193 0.960 . S
C1189 H1194 0.961 . S
C1189 H1195 0.960 . S
C1190 N1188 1.346 . S
C1190 N1191 1.307 . S
C1190 C1192 1.486 . S
N1191 N1187 1.370 . S
N1191 C1190 1.307 . S
C1192 C1190 1.486 . S
C1192 H1196 0.960 . S
C1192 H1197 0.960 . S
C1192 H1198 0.959 . S
H1193 C1189 0.960 . S
H1194 C1189 0.961 . S
H1195 C1189 0.960 . S
H1196 C1192 0.960 . S
H1197 C1192 0.960 . S
H1198 C1192 0.959 . S
C1199 N1200 1.317 . S
C1199 N1201 1.348 . S
C1199 C1202 1.485 . S
N1200 C1199 1.317 . S
N1200 N1204 1.370 . S
N1201 C1199 1.348 . S
N1201 C1203 1.346 . S
C1202 C1199 1.485 . S
C1202 H1206 0.960 . S
C1202 H1207 0.961 . S
C1202 H1208 0.960 . S
C1203 N1201 1.346 . S
C1203 N1204 1.307 . S
C1203 C1205 1.486 . S
N1204 N1200 1.370 . S
N1204 C1203 1.307 . S
C1205 C1203 1.486 . S
C1205 H1209 0.960 . S
C1205 H1210 0.960 . S
C1205 H1211 0.959 . S
H1206 C1202 0.960 . S
H1207 C1202 0.961 . S
H1208 C1202 0.960 . S
H1209 C1205 0.960 . S
H1210 C1205 0.960 . S
H1211 C1205 0.959 . S
C1212 N1213 1.317 . S
C1212 N1214 1.348 . S
C1212 C1215 1.485 . S
N1213 C1212 1.317 . S
N1213 N1217 1.370 . S
N1214 C1212 1.348 . S
N1214 C1216 1.346 . S
C1215 C1212 1.485 . S
C1215 H1219 0.960 . S
C1215 H1220 0.961 . S
C1215 H1221 0.960 . S
C1216 N1214 1.346 . S
C1216 N1217 1.307 . S
C1216 C1218 1.486 . S
N1217 N1213 1.370 . S
N1217 C1216 1.307 . S
C1218 C1216 1.486 . S
C1218 H1222 0.960 . S
C1218 H1223 0.960 . S
C1218 H1224 0.959 . S
H1219 C1215 0.960 . S
H1220 C1215 0.961 . S
H1221 C1215 0.960 . S
H1222 C1218 0.960 . S
H1223 C1218 0.960 . S
H1224 C1218 0.959 . S
C1225 N1226 1.317 . S
C1225 N1227 1.348 . S
C1225 C1228 1.485 . S
N1226 C1225 1.317 . S
N1226 N1230 1.370 . S
N1227 C1225 1.348 . S
N1227 C1229 1.346 . S
C1228 C1225 1.485 . S
C1228 H1232 0.960 . S
C1228 H1233 0.961 . S
C1228 H1234 0.960 . S
C1229 N1227 1.346 . S
C1229 N1230 1.307 . S
C1229 C1231 1.486 . S
N1230 N1226 1.370 . S
N1230 C1229 1.307 . S
C1231 C1229 1.486 . S
C1231 H1235 0.960 . S
C1231 H1236 0.960 . S
C1231 H1237 0.959 . S
H1232 C1228 0.960 . S
H1233 C1228 0.961 . S
H1234 C1228 0.960 . S
H1235 C1231 0.960 . S
H1236 C1231 0.960 . S
H1237 C1231 0.959 . S
C1238 N1239 1.317 . S
C1238 N1240 1.348 . S
C1238 C1241 1.485 . S
N1239 C1238 1.317 . S
N1239 N1243 1.370 . S
N1240 C1238 1.348 . S
N1240 C1242 1.346 . S
C1241 C1238 1.485 . S
C1241 H1245 0.960 . S
C1241 H1246 0.961 . S
C1241 H1247 0.960 . S
C1242 N1240 1.346 . S
C1242 N1243 1.307 . S
C1242 C1244 1.486 . S
N1243 N1239 1.370 . S
N1243 C1242 1.307 . S
C1244 C1242 1.486 . S
C1244 H1248 0.960 . S
C1244 H1249 0.960 . S
C1244 H1250 0.959 . S
H1245 C1241 0.960 . S
H1246 C1241 0.961 . S
H1247 C1241 0.960 . S
H1248 C1244 0.960 . S
H1249 C1244 0.960 . S
H1250 C1244 0.959 . S
C1251 N1252 1.317 . S
C1251 N1253 1.348 . S
C1251 C1254 1.485 . S
N1252 C1251 1.317 . S
N1252 N1256 1.370 . S
N1253 C1251 1.348 . S
N1253 C1255 1.346 . S
C1254 C1251 1.485 . S
C1254 H1258 0.960 . S
C1254 H1259 0.961 . S
C1254 H1260 0.960 . S
C1255 N1253 1.346 . S
C1255 N1256 1.307 . S
C1255 C1257 1.486 . S
N1256 N1252 1.370 . S
N1256 C1255 1.307 . S
C1257 C1255 1.486 . S
C1257 H1261 0.960 . S
C1257 H1262 0.960 . S
C1257 H1263 0.959 . S
H1258 C1254 0.960 . S
H1259 C1254 0.961 . S
H1260 C1254 0.960 . S
H1261 C1257 0.960 . S
H1262 C1257 0.960 . S
H1263 C1257 0.959 . S
C1264 N1265 1.317 . S
C1264 N1266 1.348 . S
C1264 C1267 1.485 . S
N1265 C1264 1.317 . S
N1265 N1269 1.370 . S
N1266 C1264 1.348 . S
N1266 C1268 1.346 . S
C1267 C1264 1.485 . S
C1267 H1271 0.960 . S
C1267 H1272 0.961 . S
C1267 H1273 0.960 . S
C1268 N1266 1.346 . S
C1268 N1269 1.307 . S
C1268 C1270 1.486 . S
N1269 N1265 1.370 . S
N1269 C1268 1.307 . S
C1270 C1268 1.486 . S
C1270 H1274 0.960 . S
C1270 H1275 0.960 . S
C1270 H1276 0.959 . S
H1271 C1267 0.960 . S
H1272 C1267 0.961 . S
H1273 C1267 0.960 . S
H1274 C1270 0.960 . S
H1275 C1270 0.960 . S
H1276 C1270 0.959 . S
C1277 N1278 1.317 . S
C1277 N1279 1.348 . S
C1277 C1280 1.485 . S
N1278 C1277 1.317 . S
N1278 N1282 1.370 . S
N1279 C1277 1.348 . S
N1279 C1281 1.346 . S
C1280 C1277 1.485 . S
C1280 H1284 0.960 . S
C1280 H1285 0.961 . S
C1280 H1286 0.960 . S
C1281 N1279 1.346 . S
C1281 N1282 1.307 . S
C1281 C1283 1.486 . S
N1282 N1278 1.370 . S
N1282 C1281 1.307 . S
C1283 C1281 1.486 . S
C1283 H1287 0.960 . S
C1283 H1288 0.960 . S
C1283 H1289 0.959 . S
H1284 C1280 0.960 . S
H1285 C1280 0.961 . S
H1286 C1280 0.960 . S
H1287 C1283 0.960 . S
H1288 C1283 0.960 . S
H1289 C1283 0.959 . S
C1290 N1291 1.317 . S
C1290 N1292 1.348 . S
C1290 C1293 1.485 . S
N1291 C1290 1.317 . S
N1291 N1295 1.370 . S
N1292 C1290 1.348 . S
N1292 C1294 1.346 . S
C1293 C1290 1.485 . S
C1293 H1297 0.960 . S
C1293 H1298 0.961 . S
C1293 H1299 0.960 . S
C1294 N1292 1.346 . S
C1294 N1295 1.307 . S
C1294 C1296 1.486 . S
N1295 N1291 1.370 . S
N1295 C1294 1.307 . S
C1296 C1294 1.486 . S
C1296 H1300 0.960 . S
C1296 H1301 0.960 . S
C1296 H1302 0.959 . S
H1297 C1293 0.960 . S
H1298 C1293 0.961 . S
H1299 C1293 0.960 . S
H1300 C1296 0.960 . S
H1301 C1296 0.960 . S
H1302 C1296 0.959 . S
C1303 N1304 1.317 . S
C1303 N1305 1.348 . S
C1303 C1306 1.485 . S
N1304 C1303 1.317 . S
N1304 N1308 1.370 . S
N1305 C1303 1.348 . S
N1305 C1307 1.346 . S
C1306 C1303 1.485 . S
C1306 H1310 0.960 . S
C1306 H1311 0.961 . S
C1306 H1312 0.960 . S
C1307 N1305 1.346 . S
C1307 N1308 1.307 . S
C1307 C1309 1.486 . S
N1308 N1304 1.370 . S
N1308 C1307 1.307 . S
C1309 C1307 1.486 . S
C1309 H1313 0.960 . S
C1309 H1314 0.960 . S
C1309 H1315 0.959 . S
H1310 C1306 0.960 . S
H1311 C1306 0.961 . S
H1312 C1306 0.960 . S
H1313 C1309 0.960 . S
H1314 C1309 0.960 . S
H1315 C1309 0.959 . S
C1316 N1317 1.317 . S
C1316 N1318 1.348 . S
C1316 C1319 1.485 . S
N1317 C1316 1.317 . S
N1317 N1321 1.370 . S
N1318 C1316 1.348 . S
N1318 C1320 1.346 . S
C1319 C1316 1.485 . S
C1319 H1323 0.960 . S
C1319 H1324 0.961 . S
C1319 H1325 0.960 . S
C1320 N1318 1.346 . S
C1320 N1321 1.307 . S
C1320 C1322 1.486 . S
N1321 N1317 1.370 . S
N1321 C1320 1.307 . S
C1322 C1320 1.486 . S
C1322 H1326 0.960 . S
C1322 H1327 0.960 . S
C1322 H1328 0.959 . S
H1323 C1319 0.960 . S
H1324 C1319 0.961 . S
H1325 C1319 0.960 . S
H1326 C1322 0.960 . S
H1327 C1322 0.960 . S
H1328 C1322 0.959 . S
C1329 N1330 1.317 . S
C1329 N1331 1.348 . S
C1329 C1332 1.485 . S
N1330 C1329 1.317 . S
N1330 N1334 1.370 . S
N1331 C1329 1.348 . S
N1331 C1333 1.346 . S
C1332 C1329 1.485 . S
C1332 H1336 0.960 . S
C1332 H1337 0.961 . S
C1332 H1338 0.960 . S
C1333 N1331 1.346 . S
C1333 N1334 1.307 . S
C1333 C1335 1.486 . S
N1334 N1330 1.370 . S
N1334 C1333 1.307 . S
C1335 C1333 1.486 . S
C1335 H1339 0.960 . S
C1335 H1340 0.960 . S
C1335 H1341 0.959 . S
H1336 C1332 0.960 . S
H1337 C1332 0.961 . S
H1338 C1332 0.960 . S
H1339 C1335 0.960 . S
H1340 C1335 0.960 . S
H1341 C1335 0.959 . S
C1342 N1343 1.317 . S
C1342 N1344 1.348 . S
C1342 C1345 1.485 . S
N1343 C1342 1.317 . S
N1343 N1347 1.370 . S
N1344 C1342 1.348 . S
N1344 C1346 1.346 . S
C1345 C1342 1.485 . S
C1345 H1349 0.960 . S
C1345 H1350 0.961 . S
C1345 H1351 0.960 . S
C1346 N1344 1.346 . S
C1346 N1347 1.307 . S
C1346 C1348 1.486 . S
N1347 N1343 1.370 . S
N1347 C1346 1.307 . S
C1348 C1346 1.486 . S
C1348 H1352 0.960 . S
C1348 H1353 0.960 . S
C1348 H1354 0.959 . S
H1349 C1345 0.960 . S
H1350 C1345 0.961 . S
H1351 C1345 0.960 . S
H1352 C1348 0.960 . S
H1353 C1348 0.960 . S
H1354 C1348 0.959 . S
C1355 N1356 1.317 . S
C1355 N1357 1.348 . S
C1355 C1358 1.485 . S
N1356 C1355 1.317 . S
N1356 N1360 1.370 . S
N1357 C1355 1.348 . S
N1357 C1359 1.346 . S
C1358 C1355 1.485 . S
C1358 H1362 0.960 . S
C1358 H1363 0.961 . S
C1358 H1364 0.960 . S
C1359 N1357 1.346 . S
C1359 N1360 1.307 . S
C1359 C1361 1.486 . S
N1360 N1356 1.370 . S
N1360 C1359 1.307 . S
C1361 C1359 1.486 . S
C1361 H1365 0.960 . S
C1361 H1366 0.960 . S
C1361 H1367 0.959 . S
H1362 C1358 0.960 . S
H1363 C1358 0.961 . S
H1364 C1358 0.960 . S
H1365 C1361 0.960 . S
H1366 C1361 0.960 . S
H1367 C1361 0.959 . S
C1368 N1369 1.317 . S
C1368 N1370 1.348 . S
C1368 C1371 1.485 . S
N1369 C1368 1.317 . S
N1369 N1373 1.370 . S
N1370 C1368 1.348 . S
N1370 C1372 1.346 . S
C1371 C1368 1.485 . S
C1371 H1375 0.960 . S
C1371 H1376 0.961 . S
C1371 H1377 0.960 . S
C1372 N1370 1.346 . S
C1372 N1373 1.307 . S
C1372 C1374 1.486 . S
N1373 N1369 1.370 . S
N1373 C1372 1.307 . S
C1374 C1372 1.486 . S
C1374 H1378 0.960 . S
C1374 H1379 0.960 . S
C1374 H1380 0.959 . S
H1375 C1371 0.960 . S
H1376 C1371 0.961 . S
H1377 C1371 0.960 . S
H1378 C1374 0.960 . S
H1379 C1374 0.960 . S
H1380 C1374 0.959 . S
C1381 N1382 1.317 . S
C1381 N1383 1.348 . S
C1381 C1384 1.485 . S
N1382 C1381 1.317 . S
N1382 N1386 1.370 . S
N1383 C1381 1.348 . S
N1383 C1385 1.346 . S
C1384 C1381 1.485 . S
C1384 H1388 0.960 . S
C1384 H1389 0.961 . S
C1384 H1390 0.960 . S
C1385 N1383 1.346 . S
C1385 N1386 1.307 . S
C1385 C1387 1.486 . S
N1386 N1382 1.370 . S
N1386 C1385 1.307 . S
C1387 C1385 1.486 . S
C1387 H1391 0.960 . S
C1387 H1392 0.960 . S
C1387 H1393 0.959 . S
H1388 C1384 0.960 . S
H1389 C1384 0.961 . S
H1390 C1384 0.960 . S
H1391 C1387 0.960 . S
H1392 C1387 0.960 . S
H1393 C1387 0.959 . S
C1394 N1395 1.317 . S
C1394 N1396 1.348 . S
C1394 C1397 1.485 . S
N1395 C1394 1.317 . S
N1395 N1399 1.370 . S
N1396 C1394 1.348 . S
N1396 C1398 1.346 . S
C1397 C1394 1.485 . S
C1397 H1401 0.960 . S
C1397 H1402 0.961 . S
C1397 H1403 0.960 . S
C1398 N1396 1.346 . S
C1398 N1399 1.307 . S
C1398 C1400 1.486 . S
N1399 N1395 1.370 . S
N1399 C1398 1.307 . S
C1400 C1398 1.486 . S
C1400 H1404 0.960 . S
C1400 H1405 0.960 . S
C1400 H1406 0.959 . S
H1401 C1397 0.960 . S
H1402 C1397 0.961 . S
H1403 C1397 0.960 . S
H1404 C1400 0.960 . S
H1405 C1400 0.960 . S
H1406 C1400 0.959 . S
C1407 N1408 1.317 . S
C1407 N1409 1.348 . S
C1407 C1410 1.485 . S
N1408 C1407 1.317 . S
N1408 N1412 1.370 . S
N1409 C1407 1.348 . S
N1409 C1411 1.346 . S
C1410 C1407 1.485 . S
C1410 H1414 0.960 . S
C1410 H1415 0.961 . S
C1410 H1416 0.960 . S
C1411 N1409 1.346 . S
C1411 N1412 1.307 . S
C1411 C1413 1.486 . S
N1412 N1408 1.370 . S
N1412 C1411 1.307 . S
C1413 C1411 1.486 . S
C1413 H1417 0.960 . S
C1413 H1418 0.960 . S
C1413 H1419 0.959 . S
H1414 C1410 0.960 . S
H1415 C1410 0.961 . S
H1416 C1410 0.960 . S
H1417 C1413 0.960 . S
H1418 C1413 0.960 . S
H1419 C1413 0.959 . S
C1420 N1421 1.317 . S
C1420 N1422 1.348 . S
C1420 C1423 1.485 . S
N1421 C1420 1.317 . S
N1421 N1425 1.370 . S
N1422 C1420 1.348 . S
N1422 C1424 1.346 . S
C1423 C1420 1.485 . S
C1423 H1427 0.960 . S
C1423 H1428 0.961 . S
C1423 H1429 0.960 . S
C1424 N1422 1.346 . S
C1424 N1425 1.307 . S
C1424 C1426 1.486 . S
N1425 N1421 1.370 . S
N1425 C1424 1.307 . S
C1426 C1424 1.486 . S
C1426 H1430 0.960 . S
C1426 H1431 0.960 . S
C1426 H1432 0.959 . S
H1427 C1423 0.960 . S
H1428 C1423 0.961 . S
H1429 C1423 0.960 . S
H1430 C1426 0.960 . S
H1431 C1426 0.960 . S
H1432 C1426 0.959 . S
C1433 N1434 1.317 . S
C1433 N1435 1.348 . S
C1433 C1436 1.485 . S
N1434 C1433 1.317 . S
N1434 N1438 1.370 . S
N1435 C1433 1.348 . S
N1435 C1437 1.346 . S
C1436 C1433 1.485 . S
C1436 H1440 0.960 . S
C1436 H1441 0.961 . S
C1436 H1442 0.960 . S
C1437 N1435 1.346 . S
C1437 N1438 1.307 . S
C1437 C1439 1.486 . S
N1438 N1434 1.370 . S
N1438 C1437 1.307 . S
C1439 C1437 1.486 . S
C1439 H1443 0.960 . S
C1439 H1444 0.960 . S
C1439 H1445 0.959 . S
H1440 C1436 0.960 . S
H1441 C1436 0.961 . S
H1442 C1436 0.960 . S
H1443 C1439 0.960 . S
H1444 C1439 0.960 . S
H1445 C1439 0.959 . S
C1446 N1447 1.317 . S
C1446 N1448 1.348 . S
C1446 C1449 1.485 . S
N1447 C1446 1.317 . S
N1447 N1451 1.370 . S
N1448 C1446 1.348 . S
N1448 C1450 1.346 . S
C1449 C1446 1.485 . S
C1449 H1453 0.960 . S
C1449 H1454 0.961 . S
C1449 H1455 0.960 . S
C1450 N1448 1.346 . S
C1450 N1451 1.307 . S
C1450 C1452 1.486 . S
N1451 N1447 1.370 . S
N1451 C1450 1.307 . S
C1452 C1450 1.486 . S
C1452 H1456 0.960 . S
C1452 H1457 0.960 . S
C1452 H1458 0.959 . S
H1453 C1449 0.960 . S
H1454 C1449 0.961 . S
H1455 C1449 0.960 . S
H1456 C1452 0.960 . S
H1457 C1452 0.960 . S
H1458 C1452 0.959 . S
C1459 N1460 1.317 . S
C1459 N1461 1.348 . S
C1459 C1462 1.485 . S
N1460 C1459 1.317 . S
N1460 N1464 1.370 . S
N1461 C1459 1.348 . S
N1461 C1463 1.346 . S
C1462 C1459 1.485 . S
C1462 H1466 0.960 . S
C1462 H1467 0.961 . S
C1462 H1468 0.960 . S
C1463 N1461 1.346 . S
C1463 N1464 1.307 . S
C1463 C1465 1.486 . S
N1464 N1460 1.370 . S
N1464 C1463 1.307 . S
C1465 C1463 1.486 . S
C1465 H1469 0.960 . S
C1465 H1470 0.960 . S
C1465 H1471 0.959 . S
H1466 C1462 0.960 . S
H1467 C1462 0.961 . S
H1468 C1462 0.960 . S
H1469 C1465 0.960 . S
H1470 C1465 0.960 . S
H1471 C1465 0.959 . S
C1472 N1473 1.317 . S
C1472 N1474 1.348 . S
C1472 C1475 1.485 . S
N1473 C1472 1.317 . S
N1473 N1477 1.370 . S
N1474 C1472 1.348 . S
N1474 C1476 1.346 . S
C1475 C1472 1.485 . S
C1475 H1479 0.960 . S
C1475 H1480 0.961 . S
C1475 H1481 0.960 . S
C1476 N1474 1.346 . S
C1476 N1477 1.307 . S
C1476 C1478 1.486 . S
N1477 N1473 1.370 . S
N1477 C1476 1.307 . S
C1478 C1476 1.486 . S
C1478 H1482 0.960 . S
C1478 H1483 0.960 . S
C1478 H1484 0.959 . S
H1479 C1475 0.960 . S
H1480 C1475 0.961 . S
H1481 C1475 0.960 . S
H1482 C1478 0.960 . S
H1483 C1478 0.960 . S
H1484 C1478 0.959 . S
C1485 N1486 1.317 . S
C1485 N1487 1.348 . S
C1485 C1488 1.485 . S
N1486 C1485 1.317 . S
N1486 N1490 1.370 . S
N1487 C1485 1.348 . S
N1487 C1489 1.346 . S
C1488 C1485 1.485 . S
C1488 H1492 0.960 . S
C1488 H1493 0.961 . S
C1488 H1494 0.960 . S
C1489 N1487 1.346 . S
C1489 N1490 1.307 . S
C1489 C1491 1.486 . S
N1490 N1486 1.370 . S
N1490 C1489 1.307 . S
C1491 C1489 1.486 . S
C1491 H1495 0.960 . S
C1491 H1496 0.960 . S
C1491 H1497 0.959 . S
H1492 C1488 0.960 . S
H1493 C1488 0.961 . S
H1494 C1488 0.960 . S
H1495 C1491 0.960 . S
H1496 C1491 0.960 . S
H1497 C1491 0.959 . S
C1498 N1499 1.317 . S
C1498 N1500 1.348 . S
C1498 C1501 1.485 . S
N1499 C1498 1.317 . S
N1499 N1503 1.370 . S
N1500 C1498 1.348 . S
N1500 C1502 1.346 . S
C1501 C1498 1.485 . S
C1501 H1505 0.960 . S
C1501 H1506 0.961 . S
C1501 H1507 0.960 . S
C1502 N1500 1.346 . S
C1502 N1503 1.307 . S
C1502 C1504 1.486 . S
N1503 N1499 1.370 . S
N1503 C1502 1.307 . S
C1504 C1502 1.486 . S
C1504 H1508 0.960 . S
C1504 H1509 0.960 . S
C1504 H1510 0.959 . S
H1505 C1501 0.960 . S
H1506 C1501 0.961 . S
H1507 C1501 0.960 . S
H1508 C1504 0.960 . S
H1509 C1504 0.960 . S
H1510 C1504 0.959 . S
C1511 N1512 1.317 . S
C1511 N1513 1.348 . S
C1511 C1514 1.485 . S
N1512 C1511 1.317 . S
N1512 N1516 1.370 . S
N1513 C1511 1.348 . S
N1513 C1515 1.346 . S
C1514 C1511 1.485 . S
C1514 H1518 0.960 . S
C1514 H1519 0.961 . S
C1514 H1520 0.960 . S
C1515 N1513 1.346 . S
C1515 N1516 1.307 . S
C1515 C1517 1.486 . S
N1516 N1512 1.370 . S
N1516 C1515 1.307 . S
C1517 C1515 1.486 . S
C1517 H1521 0.960 . S
C1517 H1522 0.960 . S
C1517 H1523 0.959 . S
H1518 C1514 0.960 . S
H1519 C1514 0.961 . S
H1520 C1514 0.960 . S
H1521 C1517 0.960 . S
H1522 C1517 0.960 . S
H1523 C1517 0.959 . S
C1524 N1525 1.317 . S
C1524 N1526 1.348 . S
C1524 C1527 1.485 . S
N1525 C1524 1.317 . S
N1525 N1529 1.370 . S
N1526 C1524 1.348 . S
N1526 C1528 1.346 . S
C1527 C1524 1.485 . S
C1527 H1531 0.960 . S
C1527 H1532 0.961 . S
C1527 H1533 0.960 . S
C1528 N1526 1.346 . S
C1528 N1529 1.307 . S
C1528 C1530 1.486 . S
N1529 N1525 1.370 . S
N1529 C1528 1.307 . S
C1530 C1528 1.486 . S
C1530 H1534 0.960 . S
C1530 H1535 0.960 . S
C1530 H1536 0.959 . S
H1531 C1527 0.960 . S
H1532 C1527 0.961 . S
H1533 C1527 0.960 . S
H1534 C1530 0.960 . S
H1535 C1530 0.960 . S
H1536 C1530 0.959 . S
C1537 N1538 1.317 . S
C1537 N1539 1.348 . S
C1537 C1540 1.485 . S
N1538 C1537 1.317 . S
N1538 N1542 1.370 . S
N1539 C1537 1.348 . S
N1539 C1541 1.346 . S
C1540 C1537 1.485 . S
C1540 H1544 0.960 . S
C1540 H1545 0.961 . S
C1540 H1546 0.960 . S
C1541 N1539 1.346 . S
C1541 N1542 1.307 . S
C1541 C1543 1.486 . S
N1542 N1538 1.370 . S
N1542 C1541 1.307 . S
C1543 C1541 1.486 . S
C1543 H1547 0.960 . S
C1543 H1548 0.960 . S
C1543 H1549 0.959 . S
H1544 C1540 0.960 . S
H1545 C1540 0.961 . S
H1546 C1540 0.960 . S
H1547 C1543 0.960 . S
H1548 C1543 0.960 . S
H1549 C1543 0.959 . S
C1550 N1551 1.317 . S
C1550 N1552 1.348 . S
C1550 C1553 1.485 . S
N1551 C1550 1.317 . S
N1551 N1555 1.370 . S
N1552 C1550 1.348 . S
N1552 C1554 1.346 . S
C1553 C1550 1.485 . S
C1553 H1557 0.960 . S
C1553 H1558 0.961 . S
C1553 H1559 0.960 . S
C1554 N1552 1.346 . S
C1554 N1555 1.307 . S
C1554 C1556 1.486 . S
N1555 N1551 1.370 . S
N1555 C1554 1.307 . S
C1556 C1554 1.486 . S
C1556 H1560 0.960 . S
C1556 H1561 0.960 . S
C1556 H1562 0.959 . S
H1557 C1553 0.960 . S
H1558 C1553 0.961 . S
H1559 C1553 0.960 . S
H1560 C1556 0.960 . S
H1561 C1556 0.960 . S
H1562 C1556 0.959 . S
C1563 N1564 1.317 . S
C1563 N1565 1.348 . S
C1563 C1566 1.485 . S
N1564 C1563 1.317 . S
N1564 N1568 1.370 . S
N1565 C1563 1.348 . S
N1565 C1567 1.346 . S
C1566 C1563 1.485 . S
C1566 H1570 0.960 . S
C1566 H1571 0.961 . S
C1566 H1572 0.960 . S
C1567 N1565 1.346 . S
C1567 N1568 1.307 . S
C1567 C1569 1.486 . S
N1568 N1564 1.370 . S
N1568 C1567 1.307 . S
C1569 C1567 1.486 . S
C1569 H1573 0.960 . S
C1569 H1574 0.960 . S
C1569 H1575 0.959 . S
H1570 C1566 0.960 . S
H1571 C1566 0.961 . S
H1572 C1566 0.960 . S
H1573 C1569 0.960 . S
H1574 C1569 0.960 . S
H1575 C1569 0.959 . S
C1576 N1577 1.317 . S
C1576 N1578 1.348 . S
C1576 C1579 1.485 . S
N1577 C1576 1.317 . S
N1577 N1581 1.370 . S
N1578 C1576 1.348 . S
N1578 C1580 1.346 . S
C1579 C1576 1.485 . S
C1579 H1583 0.960 . S
C1579 H1584 0.961 . S
C1579 H1585 0.960 . S
C1580 N1578 1.346 . S
C1580 N1581 1.307 . S
C1580 C1582 1.486 . S
N1581 N1577 1.370 . S
N1581 C1580 1.307 . S
C1582 C1580 1.486 . S
C1582 H1586 0.960 . S
C1582 H1587 0.960 . S
C1582 H1588 0.959 . S
H1583 C1579 0.960 . S
H1584 C1579 0.961 . S
H1585 C1579 0.960 . S
H1586 C1582 0.960 . S
H1587 C1582 0.960 . S
H1588 C1582 0.959 . S
C1589 N1590 1.317 . S
C1589 N1591 1.348 . S
C1589 C1592 1.485 . S
N1590 C1589 1.317 . S
N1590 N1594 1.370 . S
N1591 C1589 1.348 . S
N1591 C1593 1.346 . S
C1592 C1589 1.485 . S
C1592 H1596 0.960 . S
C1592 H1597 0.961 . S
C1592 H1598 0.960 . S
C1593 N1591 1.346 . S
C1593 N1594 1.307 . S
C1593 C1595 1.486 . S
N1594 N1590 1.370 . S
N1594 C1593 1.307 . S
C1595 C1593 1.486 . S
C1595 H1599 0.960 . S
C1595 H1600 0.960 . S
C1595 H1601 0.959 . S
H1596 C1592 0.960 . S
H1597 C1592 0.961 . S
H1598 C1592 0.960 . S
H1599 C1595 0.960 . S
H1600 C1595 0.960 . S
H1601 C1595 0.959 . S
C1602 N1603 1.317 . S
C1602 N1604 1.348 . S
C1602 C1605 1.485 . S
N1603 C1602 1.317 . S
N1603 N1607 1.370 . S
N1604 C1602 1.348 . S
N1604 C1606 1.346 . S
C1605 C1602 1.485 . S
C1605 H1609 0.960 . S
C1605 H1610 0.961 . S
C1605 H1611 0.960 . S
C1606 N1604 1.346 . S
C1606 N1607 1.307 . S
C1606 C1608 1.486 . S
N1607 N1603 1.370 . S
N1607 C1606 1.307 . S
C1608 C1606 1.486 . S
C1608 H1612 0.960 . S
C1608 H1613 0.960 . S
C1608 H1614 0.959 . S
H1609 C1605 0.960 . S
H1610 C1605 0.961 . S
H1611 C1605 0.960 . S
H1612 C1608 0.960 . S
H1613 C1608 0.960 . S
H1614 C1608 0.959 . S
C1615 N1616 1.317 . S
C1615 N1617 1.348 . S
C1615 C1618 1.485 . S
N1616 C1615 1.317 . S
N1616 N1620 1.370 . S
N1617 C1615 1.348 . S
N1617 C1619 1.346 . S
C1618 C1615 1.485 . S
C1618 H1622 0.960 . S
C1618 H1623 0.961 . S
C1618 H1624 0.960 . S
C1619 N1617 1.346 . S
C1619 N1620 1.307 . S
C1619 C1621 1.486 . S
N1620 N1616 1.370 . S
N1620 C1619 1.307 . S
C1621 C1619 1.486 . S
C1621 H1625 0.960 . S
C1621 H1626 0.960 . S
C1621 H1627 0.959 . S
H1622 C1618 0.960 . S
H1623 C1618 0.961 . S
H1624 C1618 0.960 . S
H1625 C1621 0.960 . S
H1626 C1621 0.960 . S
H1627 C1621 0.959 . S
C1628 N1629 1.317 . S
C1628 N1630 1.348 . S
C1628 C1631 1.485 . S
N1629 C1628 1.317 . S
N1629 N1633 1.370 . S
N1630 C1628 1.348 . S
N1630 C1632 1.346 . S
C1631 C1628 1.485 . S
C1631 H1635 0.960 . S
C1631 H1636 0.961 . S
C1631 H1637 0.960 . S
C1632 N1630 1.346 . S
C1632 N1633 1.307 . S
C1632 C1634 1.486 . S
N1633 N1629 1.370 . S
N1633 C1632 1.307 . S
C1634 C1632 1.486 . S
C1634 H1638 0.960 . S
C1634 H1639 0.960 . S
C1634 H1640 0.959 . S
H1635 C1631 0.960 . S
H1636 C1631 0.961 . S
H1637 C1631 0.960 . S
H1638 C1634 0.960 . S
H1639 C1634 0.960 . S
H1640 C1634 0.959 . S
C1641 N1642 1.317 . S
C1641 N1643 1.348 . S
C1641 C1644 1.485 . S
N1642 C1641 1.317 . S
N1642 N1646 1.370 . S
N1643 C1641 1.348 . S
N1643 C1645 1.346 . S
C1644 C1641 1.485 . S
C1644 H1648 0.960 . S
C1644 H1649 0.961 . S
C1644 H1650 0.960 . S
C1645 N1643 1.346 . S
C1645 N1646 1.307 . S
C1645 C1647 1.486 . S
N1646 N1642 1.370 . S
N1646 C1645 1.307 . S
C1647 C1645 1.486 . S
C1647 H1651 0.960 . S
C1647 H1652 0.960 . S
C1647 H1653 0.959 . S
H1648 C1644 0.960 . S
H1649 C1644 0.961 . S
H1650 C1644 0.960 . S
H1651 C1647 0.960 . S
H1652 C1647 0.960 . S
H1653 C1647 0.959 . S
C1654 N1655 1.317 . S
C1654 N1656 1.348 . S
C1654 C1657 1.485 . S
N1655 C1654 1.317 . S
N1655 N1659 1.370 . S
N1656 C1654 1.348 . S
N1656 C1658 1.346 . S
C1657 C1654 1.485 . S
C1657 H1661 0.960 . S
C1657 H1662 0.961 . S
C1657 H1663 0.960 . S
C1658 N1656 1.346 . S
C1658 N1659 1.307 . S
C1658 C1660 1.486 . S
N1659 N1655 1.370 . S
N1659 C1658 1.307 . S
C1660 C1658 1.486 . S
C1660 H1664 0.960 . S
C1660 H1665 0.960 . S
C1660 H1666 0.959 . S
H1661 C1657 0.960 . S
H1662 C1657 0.961 . S
H1663 C1657 0.960 . S
H1664 C1660 0.960 . S
H1665 C1660 0.960 . S
H1666 C1660 0.959 . S
C1667 N1668 1.317 . S
C1667 N1669 1.348 . S
C1667 C1670 1.485 . S
N1668 C1667 1.317 . S
N1668 N1672 1.370 . S
N1669 C1667 1.348 . S
N1669 C1671 1.346 . S
C1670 C1667 1.485 . S
C1670 H1674 0.960 . S
C1670 H1675 0.961 . S
C1670 H1676 0.960 . S
C1671 N1669 1.346 . S
C1671 N1672 1.307 . S
C1671 C1673 1.486 . S
N1672 N1668 1.370 . S
N1672 C1671 1.307 . S
C1673 C1671 1.486 . S
C1673 H1677 0.960 . S
C1673 H1678 0.960 . S
C1673 H1679 0.959 . S
H1674 C1670 0.960 . S
H1675 C1670 0.961 . S
H1676 C1670 0.960 . S
H1677 C1673 0.960 . S
H1678 C1673 0.960 . S
H1679 C1673 0.959 . S
C1680 N1681 1.317 . S
C1680 N1682 1.348 . S
C1680 C1683 1.485 . S
N1681 C1680 1.317 . S
N1681 N1685 1.370 . S
N1682 C1680 1.348 . S
N1682 C1684 1.346 . S
C1683 C1680 1.485 . S
C1683 H1687 0.960 . S
C1683 H1688 0.961 . S
C1683 H1689 0.960 . S
C1684 N1682 1.346 . S
C1684 N1685 1.307 . S
C1684 C1686 1.486 . S
N1685 N1681 1.370 . S
N1685 C1684 1.307 . S
C1686 C1684 1.486 . S
C1686 H1690 0.960 . S
C1686 H1691 0.960 . S
C1686 H1692 0.959 . S
H1687 C1683 0.960 . S
H1688 C1683 0.961 . S
H1689 C1683 0.960 . S
H1690 C1686 0.960 . S
H1691 C1686 0.960 . S
H1692 C1686 0.959 . S
C1693 N1694 1.317 . S
C1693 N1695 1.348 . S
C1693 C1696 1.485 . S
N1694 C1693 1.317 . S
N1694 N1698 1.370 . S
N1695 C1693 1.348 . S
N1695 C1697 1.346 . S
C1696 C1693 1.485 . S
C1696 H1700 0.960 . S
C1696 H1701 0.961 . S
C1696 H1702 0.960 . S
C1697 N1695 1.346 . S
C1697 N1698 1.307 . S
C1697 C1699 1.486 . S
N1698 N1694 1.370 . S
N1698 C1697 1.307 . S
C1699 C1697 1.486 . S
C1699 H1703 0.960 . S
C1699 H1704 0.960 . S
C1699 H1705 0.959 . S
H1700 C1696 0.960 . S
H1701 C1696 0.961 . S
H1702 C1696 0.960 . S
H1703 C1699 0.960 . S
H1704 C1699 0.960 . S
H1705 C1699 0.959 . S
C1706 N1707 1.317 . S
C1706 N1708 1.348 . S
C1706 C1709 1.485 . S
N1707 C1706 1.317 . S
N1707 N1711 1.370 . S
N1708 C1706 1.348 . S
N1708 C1710 1.346 . S
C1709 C1706 1.485 . S
C1709 H1713 0.960 . S
C1709 H1714 0.961 . S
C1709 H1715 0.960 . S
C1710 N1708 1.346 . S
C1710 N1711 1.307 . S
C1710 C1712 1.486 . S
N1711 N1707 1.370 . S
N1711 C1710 1.307 . S
C1712 C1710 1.486 . S
C1712 H1716 0.960 . S
C1712 H1717 0.960 . S
C1712 H1718 0.959 . S
H1713 C1709 0.960 . S
H1714 C1709 0.961 . S
H1715 C1709 0.960 . S
H1716 C1712 0.960 . S
H1717 C1712 0.960 . S
H1718 C1712 0.959 . S
C1719 N1720 1.317 . S
C1719 N1721 1.348 . S
C1719 C1722 1.485 . S
N1720 C1719 1.317 . S
N1720 N1724 1.370 . S
N1721 C1719 1.348 . S
N1721 C1723 1.346 . S
C1722 C1719 1.485 . S
C1722 H1726 0.960 . S
C1722 H1727 0.961 . S
C1722 H1728 0.960 . S
C1723 N1721 1.346 . S
C1723 N1724 1.307 . S
C1723 C1725 1.486 . S
N1724 N1720 1.370 . S
N1724 C1723 1.307 . S
C1725 C1723 1.486 . S
C1725 H1729 0.960 . S
C1725 H1730 0.960 . S
C1725 H1731 0.959 . S
H1726 C1722 0.960 . S
H1727 C1722 0.961 . S
H1728 C1722 0.960 . S
H1729 C1725 0.960 . S
H1730 C1725 0.960 . S
H1731 C1725 0.959 . S
C1732 N1733 1.317 . S
C1732 N1734 1.348 . S
C1732 C1735 1.485 . S
N1733 C1732 1.317 . S
N1733 N1737 1.370 . S
N1734 C1732 1.348 . S
N1734 C1736 1.346 . S
C1735 C1732 1.485 . S
C1735 H1739 0.960 . S
C1735 H1740 0.961 . S
C1735 H1741 0.960 . S
C1736 N1734 1.346 . S
C1736 N1737 1.307 . S
C1736 C1738 1.486 . S
N1737 N1733 1.370 . S
N1737 C1736 1.307 . S
C1738 C1736 1.486 . S
C1738 H1742 0.960 . S
C1738 H1743 0.960 . S
C1738 H1744 0.959 . S
H1739 C1735 0.960 . S
H1740 C1735 0.961 . S
H1741 C1735 0.960 . S
H1742 C1738 0.960 . S
H1743 C1738 0.960 . S
H1744 C1738 0.959 . S
C1745 N1746 1.317 . S
C1745 N1747 1.348 . S
C1745 C1748 1.485 . S
N1746 C1745 1.317 . S
N1746 N1750 1.370 . S
N1747 C1745 1.348 . S
N1747 C1749 1.346 . S
C1748 C1745 1.485 . S
C1748 H1752 0.960 . S
C1748 H1753 0.961 . S
C1748 H1754 0.960 . S
C1749 N1747 1.346 . S
C1749 N1750 1.307 . S
C1749 C1751 1.486 . S
N1750 N1746 1.370 . S
N1750 C1749 1.307 . S
C1751 C1749 1.486 . S
C1751 H1755 0.960 . S
C1751 H1756 0.960 . S
C1751 H1757 0.959 . S
H1752 C1748 0.960 . S
H1753 C1748 0.961 . S
H1754 C1748 0.960 . S
H1755 C1751 0.960 . S
H1756 C1751 0.960 . S
H1757 C1751 0.959 . S
C1758 N1759 1.317 . S
C1758 N1760 1.348 . S
C1758 C1761 1.485 . S
N1759 C1758 1.317 . S
N1759 N1763 1.370 . S
N1760 C1758 1.348 . S
N1760 C1762 1.346 . S
C1761 C1758 1.485 . S
C1761 H1765 0.960 . S
C1761 H1766 0.961 . S
C1761 H1767 0.960 . S
C1762 N1760 1.346 . S
C1762 N1763 1.307 . S
C1762 C1764 1.486 . S
N1763 N1759 1.370 . S
N1763 C1762 1.307 . S
C1764 C1762 1.486 . S
C1764 H1768 0.960 . S
C1764 H1769 0.960 . S
C1764 H1770 0.959 . S
H1765 C1761 0.960 . S
H1766 C1761 0.961 . S
H1767 C1761 0.960 . S
H1768 C1764 0.960 . S
H1769 C1764 0.960 . S
H1770 C1764 0.959 . S
C1771 N1772 1.317 . S
C1771 N1773 1.348 . S
C1771 C1774 1.485 . S
N1772 C1771 1.317 . S
N1772 N1776 1.370 . S
N1773 C1771 1.348 . S
N1773 C1775 1.346 . S
C1774 C1771 1.485 . S
C1774 H1778 0.960 . S
C1774 H1779 0.961 . S
C1774 H1780 0.960 . S
C1775 N1773 1.346 . S
C1775 N1776 1.307 . S
C1775 C1777 1.486 . S
N1776 N1772 1.370 . S
N1776 C1775 1.307 . S
C1777 C1775 1.486 . S
C1777 H1781 0.960 . S
C1777 H1782 0.960 . S
C1777 H1783 0.959 . S
H1778 C1774 0.960 . S
H1779 C1774 0.961 . S
H1780 C1774 0.960 . S
H1781 C1777 0.960 . S
H1782 C1777 0.960 . S
H1783 C1777 0.959 . S
C1784 N1785 1.317 . S
C1784 N1786 1.348 . S
C1784 C1787 1.485 . S
N1785 C1784 1.317 . S
N1785 N1789 1.370 . S
N1786 C1784 1.348 . S
N1786 C1788 1.346 . S
C1787 C1784 1.485 . S
C1787 H1791 0.960 . S
C1787 H1792 0.961 . S
C1787 H1793 0.960 . S
C1788 N1786 1.346 . S
C1788 N1789 1.307 . S
C1788 C1790 1.486 . S
N1789 N1785 1.370 . S
N1789 C1788 1.307 . S
C1790 C1788 1.486 . S
C1790 H1794 0.960 . S
C1790 H1795 0.960 . S
C1790 H1796 0.959 . S
H1791 C1787 0.960 . S
H1792 C1787 0.961 . S
H1793 C1787 0.960 . S
H1794 C1790 0.960 . S
H1795 C1790 0.960 . S
H1796 C1790 0.959 . S
C1797 N1798 1.317 . S
C1797 N1799 1.348 . S
C1797 C1800 1.485 . S
N1798 C1797 1.317 . S
N1798 N1802 1.370 . S
N1799 C1797 1.348 . S
N1799 C1801 1.346 . S
C1800 C1797 1.485 . S
C1800 H1804 0.960 . S
C1800 H1805 0.961 . S
C1800 H1806 0.960 . S
C1801 N1799 1.346 . S
C1801 N1802 1.307 . S
C1801 C1803 1.486 . S
N1802 N1798 1.370 . S
N1802 C1801 1.307 . S
C1803 C1801 1.486 . S
C1803 H1807 0.960 . S
C1803 H1808 0.960 . S
C1803 H1809 0.959 . S
H1804 C1800 0.960 . S
H1805 C1800 0.961 . S
H1806 C1800 0.960 . S
H1807 C1803 0.960 . S
H1808 C1803 0.960 . S
H1809 C1803 0.959 . S
C1810 N1811 1.317 . S
C1810 N1812 1.348 . S
C1810 C1813 1.485 . S
N1811 C1810 1.317 . S
N1811 N1815 1.370 . S
N1812 C1810 1.348 . S
N1812 C1814 1.346 . S
C1813 C1810 1.485 . S
C1813 H1817 0.960 . S
C1813 H1818 0.961 . S
C1813 H1819 0.960 . S
C1814 N1812 1.346 . S
C1814 N1815 1.307 . S
C1814 C1816 1.486 . S
N1815 N1811 1.370 . S
N1815 C1814 1.307 . S
C1816 C1814 1.486 . S
C1816 H1820 0.960 . S
C1816 H1821 0.960 . S
C1816 H1822 0.959 . S
H1817 C1813 0.960 . S
H1818 C1813 0.961 . S
H1819 C1813 0.960 . S
H1820 C1816 0.960 . S
H1821 C1816 0.960 . S
H1822 C1816 0.959 . S
C1823 N1824 1.317 . S
C1823 N1825 1.348 . S
C1823 C1826 1.485 . S
N1824 C1823 1.317 . S
N1824 N1828 1.370 . S
N1825 C1823 1.348 . S
N1825 C1827 1.346 . S
C1826 C1823 1.485 . S
C1826 H1830 0.960 . S
C1826 H1831 0.961 . S
C1826 H1832 0.960 . S
C1827 N1825 1.346 . S
C1827 N1828 1.307 . S
C1827 C1829 1.486 . S
N1828 N1824 1.370 . S
N1828 C1827 1.307 . S
C1829 C1827 1.486 . S
C1829 H1833 0.960 . S
C1829 H1834 0.960 . S
C1829 H1835 0.959 . S
H1830 C1826 0.960 . S
H1831 C1826 0.961 . S
H1832 C1826 0.960 . S
H1833 C1829 0.960 . S
H1834 C1829 0.960 . S
H1835 C1829 0.959 . S
C1836 N1837 1.317 . S
C1836 N1838 1.348 . S
C1836 C1839 1.485 . S
N1837 C1836 1.317 . S
N1837 N1841 1.370 . S
N1838 C1836 1.348 . S
N1838 C1840 1.346 . S
C1839 C1836 1.485 . S
C1839 H1843 0.960 . S
C1839 H1844 0.961 . S
C1839 H1845 0.960 . S
C1840 N1838 1.346 . S
C1840 N1841 1.307 . S
C1840 C1842 1.486 . S
N1841 N1837 1.370 . S
N1841 C1840 1.307 . S
C1842 C1840 1.486 . S
C1842 H1846 0.960 . S
C1842 H1847 0.960 . S
C1842 H1848 0.959 . S
H1843 C1839 0.960 . S
H1844 C1839 0.961 . S
H1845 C1839 0.960 . S
H1846 C1842 0.960 . S
H1847 C1842 0.960 . S
H1848 C1842 0.959 . S
C1849 N1850 1.317 . S
C1849 N1851 1.348 . S
C1849 C1852 1.485 . S
N1850 C1849 1.317 . S
N1850 N1854 1.370 . S
N1851 C1849 1.348 . S
N1851 C1853 1.346 . S
C1852 C1849 1.485 . S
C1852 H1856 0.960 . S
C1852 H1857 0.961 . S
C1852 H1858 0.960 . S
C1853 N1851 1.346 . S
C1853 N1854 1.307 . S
C1853 C1855 1.486 . S
N1854 N1850 1.370 . S
N1854 C1853 1.307 . S
C1855 C1853 1.486 . S
C1855 H1859 0.960 . S
C1855 H1860 0.960 . S
C1855 H1861 0.959 . S
H1856 C1852 0.960 . S
H1857 C1852 0.961 . S
H1858 C1852 0.960 . S
H1859 C1855 0.960 . S
H1860 C1855 0.960 . S
H1861 C1855 0.959 . S
C1862 N1863 1.317 . S
C1862 N1864 1.348 . S
C1862 C1865 1.485 . S
N1863 C1862 1.317 . S
N1863 N1867 1.370 . S
N1864 C1862 1.348 . S
N1864 C1866 1.346 . S
C1865 C1862 1.485 . S
C1865 H1869 0.960 . S
C1865 H1870 0.961 . S
C1865 H1871 0.960 . S
C1866 N1864 1.346 . S
C1866 N1867 1.307 . S
C1866 C1868 1.486 . S
N1867 N1863 1.370 . S
N1867 C1866 1.307 . S
C1868 C1866 1.486 . S
C1868 H1872 0.960 . S
C1868 H1873 0.960 . S
C1868 H1874 0.959 . S
H1869 C1865 0.960 . S
H1870 C1865 0.961 . S
H1871 C1865 0.960 . S
H1872 C1868 0.960 . S
H1873 C1868 0.960 . S
H1874 C1868 0.959 . S
C1875 N1876 1.317 . S
C1875 N1877 1.348 . S
C1875 C1878 1.485 . S
N1876 C1875 1.317 . S
N1876 N1880 1.370 . S
N1877 C1875 1.348 . S
N1877 C1879 1.346 . S
C1878 C1875 1.485 . S
C1878 H1882 0.960 . S
C1878 H1883 0.961 . S
C1878 H1884 0.960 . S
C1879 N1877 1.346 . S
C1879 N1880 1.307 . S
C1879 C1881 1.486 . S
N1880 N1876 1.370 . S
N1880 C1879 1.307 . S
C1881 C1879 1.486 . S
C1881 H1885 0.960 . S
C1881 H1886 0.960 . S
C1881 H1887 0.959 . S
H1882 C1878 0.960 . S
H1883 C1878 0.961 . S
H1884 C1878 0.960 . S
H1885 C1881 0.960 . S
H1886 C1881 0.960 . S
H1887 C1881 0.959 . S
C1888 N1889 1.317 . S
C1888 N1890 1.348 . S
C1888 C1891 1.485 . S
N1889 C1888 1.317 . S
N1889 N1893 1.370 . S
N1890 C1888 1.348 . S
N1890 C1892 1.346 . S
C1891 C1888 1.485 . S
C1891 H1895 0.960 . S
C1891 H1896 0.961 . S
C1891 H1897 0.960 . S
C1892 N1890 1.346 . S
C1892 N1893 1.307 . S
C1892 C1894 1.486 . S
N1893 N1889 1.370 . S
N1893 C1892 1.307 . S
C1894 C1892 1.486 . S
C1894 H1898 0.960 . S
C1894 H1899 0.960 . S
C1894 H1900 0.959 . S
H1895 C1891 0.960 . S
H1896 C1891 0.961 . S
H1897 C1891 0.960 . S
H1898 C1894 0.960 . S
H1899 C1894 0.960 . S
H1900 C1894 0.959 . S
C1901 N1902 1.317 . S
C1901 N1903 1.348 . S
C1901 C1904 1.485 . S
N1902 C1901 1.317 . S
N1902 N1906 1.370 . S
N1903 C1901 1.348 . S
N1903 C1905 1.346 . S
C1904 C1901 1.485 . S
C1904 H1908 0.960 . S
C1904 H1909 0.961 . S
C1904 H1910 0.960 . S
C1905 N1903 1.346 . S
C1905 N1906 1.307 . S
C1905 C1907 1.486 . S
N1906 N1902 1.370 . S
N1906 C1905 1.307 . S
C1907 C1905 1.486 . S
C1907 H1911 0.960 . S
C1907 H1912 0.960 . S
C1907 H1913 0.959 . S
H1908 C1904 0.960 . S
H1909 C1904 0.961 . S
H1910 C1904 0.960 . S
H1911 C1907 0.960 . S
H1912 C1907 0.960 . S
H1913 C1907 0.959 . S
C1914 N1915 1.317 . S
C1914 N1916 1.348 . S
C1914 C1917 1.485 . S
N1915 C1914 1.317 . S
N1915 N1919 1.370 . S
N1916 C1914 1.348 . S
N1916 C1918 1.346 . S
C1917 C1914 1.485 . S
C1917 H1921 0.960 . S
C1917 H1922 0.961 . S
C1917 H1923 0.960 . S
C1918 N1916 1.346 . S
C1918 N1919 1.307 . S
C1918 C1920 1.486 . S
N1919 N1915 1.370 . S
N1919 C1918 1.307 . S
C1920 C1918 1.486 . S
C1920 H1924 0.960 . S
C1920 H1925 0.960 . S
C1920 H1926 0.959 . S
H1921 C1917 0.960 . S
H1922 C1917 0.961 . S
H1923 C1917 0.960 . S
H1924 C1920 0.960 . S
H1925 C1920 0.960 . S
H1926 C1920 0.959 . S
C1927 N1928 1.317 . S
C1927 N1929 1.348 . S
C1927 C1930 1.485 . S
N1928 C1927 1.317 . S
N1928 N1932 1.370 . S
N1929 C1927 1.348 . S
N1929 C1931 1.346 . S
C1930 C1927 1.485 . S
C1930 H1934 0.960 . S
C1930 H1935 0.961 . S
C1930 H1936 0.960 . S
C1931 N1929 1.346 . S
C1931 N1932 1.307 . S
C1931 C1933 1.486 . S
N1932 N1928 1.370 . S
N1932 C1931 1.307 . S
C1933 C1931 1.486 . S
C1933 H1937 0.960 . S
C1933 H1938 0.960 . S
C1933 H1939 0.959 . S
H1934 C1930 0.960 . S
H1935 C1930 0.961 . S
H1936 C1930 0.960 . S
H1937 C1933 0.960 . S
H1938 C1933 0.960 . S
H1939 C1933 0.959 . S
C1940 N1941 1.317 . S
C1940 N1942 1.348 . S
C1940 C1943 1.485 . S
N1941 C1940 1.317 . S
N1941 N1945 1.370 . S
N1942 C1940 1.348 . S
N1942 C1944 1.346 . S
C1943 C1940 1.485 . S
C1943 H1947 0.960 . S
C1943 H1948 0.961 . S
C1943 H1949 0.960 . S
C1944 N1942 1.346 . S
C1944 N1945 1.307 . S
C1944 C1946 1.486 . S
N1945 N1941 1.370 . S
N1945 C1944 1.307 . S
C1946 C1944 1.486 . S
C1946 H1950 0.960 . S
C1946 H1951 0.960 . S
C1946 H1952 0.959 . S
H1947 C1943 0.960 . S
H1948 C1943 0.961 . S
H1949 C1943 0.960 . S
H1950 C1946 0.960 . S
H1951 C1946 0.960 . S
H1952 C1946 0.959 . S
C1953 N1954 1.317 . S
C1953 N1955 1.348 . S
C1953 C1956 1.485 . S
N1954 C1953 1.317 . S
N1954 N1958 1.370 . S
N1955 C1953 1.348 . S
N1955 C1957 1.346 . S
C1956 C1953 1.485 . S
C1956 H1960 0.960 . S
C1956 H1961 0.961 . S
C1956 H1962 0.960 . S
C1957 N1955 1.346 . S
C1957 N1958 1.307 . S
C1957 C1959 1.486 . S
N1958 N1954 1.370 . S
N1958 C1957 1.307 . S
C1959 C1957 1.486 . S
C1959 H1963 0.960 . S
C1959 H1964 0.960 . S
C1959 H1965 0.959 . S
H1960 C1956 0.960 . S
H1961 C1956 0.961 . S
H1962 C1956 0.960 . S
H1963 C1959 0.960 . S
H1964 C1959 0.960 . S
H1965 C1959 0.959 . S
C1966 N1967 1.317 . S
C1966 N1968 1.348 . S
C1966 C1969 1.485 . S
N1967 C1966 1.317 . S
N1967 N1971 1.370 . S
N1968 C1966 1.348 . S
N1968 C1970 1.346 . S
C1969 C1966 1.485 . S
C1969 H1973 0.960 . S
C1969 H1974 0.961 . S
C1969 H1975 0.960 . S
C1970 N1968 1.346 . S
C1970 N1971 1.307 . S
C1970 C1972 1.486 . S
N1971 N1967 1.370 . S
N1971 C1970 1.307 . S
C1972 C1970 1.486 . S
C1972 H1976 0.960 . S
C1972 H1977 0.960 . S
C1972 H1978 0.959 . S
H1973 C1969 0.960 . S
H1974 C1969 0.961 . S
H1975 C1969 0.960 . S
H1976 C1972 0.960 . S
H1977 C1972 0.960 . S
H1978 C1972 0.959 . S
C1979 N1980 1.317 . S
C1979 N1981 1.348 . S
C1979 C1982 1.485 . S
N1980 C1979 1.317 . S
N1980 N1984 1.370 . S
N1981 C1979 1.348 . S
N1981 C1983 1.346 . S
C1982 C1979 1.485 . S
C1982 H1986 0.960 . S
C1982 H1987 0.961 . S
C1982 H1988 0.960 . S
C1983 N1981 1.346 . S
C1983 N1984 1.307 . S
C1983 C1985 1.486 . S
N1984 N1980 1.370 . S
N1984 C1983 1.307 . S
C1985 C1983 1.486 . S
C1985 H1989 0.960 . S
C1985 H1990 0.960 . S
C1985 H1991 0.959 . S
H1986 C1982 0.960 . S
H1987 C1982 0.961 . S
H1988 C1982 0.960 . S
H1989 C1985 0.960 . S
H1990 C1985 0.960 . S
H1991 C1985 0.959 . S
C1992 N1993 1.317 . S
C1992 N1994 1.348 . S
C1992 C1995 1.485 . S
N1993 C1992 1.317 . S
N1993 N1997 1.370 . S
N1994 C1992 1.348 . S
N1994 C1996 1.346 . S
C1995 C1992 1.485 . S
C1995 H1999 0.960 . S
C1995 H2000 0.961 . S
C1995 H2001 0.960 . S
C1996 N1994 1.346 . S
C1996 N1997 1.307 . S
C1996 C1998 1.486 . S
N1997 N1993 1.370 . S
N1997 C1996 1.307 . S
C1998 C1996 1.486 . S
C1998 H2002 0.960 . S
C1998 H2003 0.960 . S
C1998 H2004 0.959 . S
H1999 C1995 0.960 . S
H2000 C1995 0.961 . S
H2001 C1995 0.960 . S
H2002 C1998 0.960 . S
H2003 C1998 0.960 . S
H2004 C1998 0.959 . S
C2005 N2006 1.317 . S
C2005 N2007 1.348 . S
C2005 C2008 1.485 . S
N2006 C2005 1.317 . S
N2006 N2010 1.370 . S
N2007 C2005 1.348 . S
N2007 C2009 1.346 . S
C2008 C2005 1.485 . S
C2008 H2012 0.960 . S
C2008 H2013 0.961 . S
C2008 H2014 0.960 . S
C2009 N2007 1.346 . S
C2009 N2010 1.307 . S
C2009 C2011 1.486 . S
N2010 N2006 1.370 . S
N2010 C2009 1.307 . S
C2011 C2009 1.486 . S
C2011 H2015 0.960 . S
C2011 H2016 0.960 . S
C2011 H2017 0.959 . S
H2012 C2008 0.960 . S
H2013 C2008 0.961 . S
H2014 C2008 0.960 . S
H2015 C2011 0.960 . S
H2016 C2011 0.960 . S
H2017 C2011 0.959 . S
C2018 N2019 1.317 . S
C2018 N2020 1.348 . S
C2018 C2021 1.485 . S
N2019 C2018 1.317 . S
N2019 N2023 1.370 . S
N2020 C2018 1.348 . S
N2020 C2022 1.346 . S
C2021 C2018 1.485 . S
C2021 H2025 0.960 . S
C2021 H2026 0.961 . S
C2021 H2027 0.960 . S
C2022 N2020 1.346 . S
C2022 N2023 1.307 . S
C2022 C2024 1.486 . S
N2023 N2019 1.370 . S
N2023 C2022 1.307 . S
C2024 C2022 1.486 . S
C2024 H2028 0.960 . S
C2024 H2029 0.960 . S
C2024 H2030 0.959 . S
H2025 C2021 0.960 . S
H2026 C2021 0.961 . S
H2027 C2021 0.960 . S
H2028 C2024 0.960 . S
H2029 C2024 0.960 . S
H2030 C2024 0.959 . S
C2031 N2032 1.317 . S
C2031 N2033 1.348 . S
C2031 C2034 1.485 . S
N2032 C2031 1.317 . S
N2032 N2036 1.370 . S
N2033 C2031 1.348 . S
N2033 C2035 1.346 . S
C2034 C2031 1.485 . S
C2034 H2038 0.960 . S
C2034 H2039 0.961 . S
C2034 H2040 0.960 . S
C2035 N2033 1.346 . S
C2035 N2036 1.307 . S
C2035 C2037 1.486 . S
N2036 N2032 1.370 . S
N2036 C2035 1.307 . S
C2037 C2035 1.486 . S
C2037 H2041 0.960 . S
C2037 H2042 0.960 . S
C2037 H2043 0.959 . S
H2038 C2034 0.960 . S
H2039 C2034 0.961 . S
H2040 C2034 0.960 . S
H2041 C2037 0.960 . S
H2042 C2037 0.960 . S
H2043 C2037 0.959 . S
C2044 N2045 1.317 . S
C2044 N2046 1.348 . S
C2044 C2047 1.485 . S
N2045 C2044 1.317 . S
N2045 N2049 1.370 . S
N2046 C2044 1.348 . S
N2046 C2048 1.346 . S
C2047 C2044 1.485 . S
C2047 H2051 0.960 . S
C2047 H2052 0.961 . S
C2047 H2053 0.960 . S
C2048 N2046 1.346 . S
C2048 N2049 1.307 . S
C2048 C2050 1.486 . S
N2049 N2045 1.370 . S
N2049 C2048 1.307 . S
C2050 C2048 1.486 . S
C2050 H2054 0.960 . S
C2050 H2055 0.960 . S
C2050 H2056 0.959 . S
H2051 C2047 0.960 . S
H2052 C2047 0.961 . S
H2053 C2047 0.960 . S
H2054 C2050 0.960 . S
H2055 C2050 0.960 . S
H2056 C2050 0.959 . S
C2057 N2058 1.317 . S
C2057 N2059 1.348 . S
C2057 C2060 1.485 . S
N2058 C2057 1.317 . S
N2058 N2062 1.370 . S
N2059 C2057 1.348 . S
N2059 C2061 1.346 . S
C2060 C2057 1.485 . S
C2060 H2064 0.960 . S
C2060 H2065 0.961 . S
C2060 H2066 0.960 . S
C2061 N2059 1.346 . S
C2061 N2062 1.307 . S
C2061 C2063 1.486 . S
N2062 N2058 1.370 . S
N2062 C2061 1.307 . S
C2063 C2061 1.486 . S
C2063 H2067 0.960 . S
C2063 H2068 0.960 . S
C2063 H2069 0.959 . S
H2064 C2060 0.960 . S
H2065 C2060 0.961 . S
H2066 C2060 0.960 . S
H2067 C2063 0.960 . S
H2068 C2063 0.960 . S
H2069 C2063 0.959 . S
C2070 N2071 1.317 . S
C2070 N2072 1.348 . S
C2070 C2073 1.485 . S
N2071 C2070 1.317 . S
N2071 N2075 1.370 . S
N2072 C2070 1.348 . S
N2072 C2074 1.346 . S
C2073 C2070 1.485 . S
C2073 H2077 0.960 . S
C2073 H2078 0.961 . S
C2073 H2079 0.960 . S
C2074 N2072 1.346 . S
C2074 N2075 1.307 . S
C2074 C2076 1.486 . S
N2075 N2071 1.370 . S
N2075 C2074 1.307 . S
C2076 C2074 1.486 . S
C2076 H2080 0.960 . S
C2076 H2081 0.960 . S
C2076 H2082 0.959 . S
H2077 C2073 0.960 . S
H2078 C2073 0.961 . S
H2079 C2073 0.960 . S
H2080 C2076 0.960 . S
H2081 C2076 0.960 . S
H2082 C2076 0.959 . S
C2083 N2084 1.317 . S
C2083 N2085 1.348 . S
C2083 C2086 1.485 . S
N2084 C2083 1.317 . S
N2084 N2088 1.370 . S
N2085 C2083 1.348 . S
N2085 C2087 1.346 . S
C2086 C2083 1.485 . S
C2086 H2090 0.960 . S
C2086 H2091 0.961 . S
C2086 H2092 0.960 . S
C2087 N2085 1.346 . S
C2087 N2088 1.307 . S
C2087 C2089 1.486 . S
N2088 N2084 1.370 . S
N2088 C2087 1.307 . S
C2089 C2087 1.486 . S
C2089 H2093 0.960 . S
C2089 H2094 0.960 . S
C2089 H2095 0.959 . S
H2090 C2086 0.960 . S
H2091 C2086 0.961 . S
H2092 C2086 0.960 . S
H2093 C2089 0.960 . S
H2094 C2089 0.960 . S
H2095 C2089 0.959 . S
C2096 N2097 1.317 . S
C2096 N2098 1.348 . S
C2096 C2099 1.485 . S
N2097 C2096 1.317 . S
N2097 N2101 1.370 . S
N2098 C2096 1.348 . S
N2098 C2100 1.346 . S
C2099 C2096 1.485 . S
C2099 H2103 0.960 . S
C2099 H2104 0.961 . S
C2099 H2105 0.960 . S
C2100 N2098 1.346 . S
C2100 N2101 1.307 . S
C2100 C2102 1.486 . S
N2101 N2097 1.370 . S
N2101 C2100 1.307 . S
C2102 C2100 1.486 . S
C2102 H2106 0.960 . S
C2102 H2107 0.960 . S
C2102 H2108 0.959 . S
H2103 C2099 0.960 . S
H2104 C2099 0.961 . S
H2105 C2099 0.960 . S
H2106 C2102 0.960 . S
H2107 C2102 0.960 . S
H2108 C2102 0.959 . S
C2109 N2110 1.317 . S
C2109 N2111 1.348 . S
C2109 C2112 1.485 . S
N2110 C2109 1.317 . S
N2110 N2114 1.370 . S
N2111 C2109 1.348 . S
N2111 C2113 1.346 . S
C2112 C2109 1.485 . S
C2112 H2116 0.960 . S
C2112 H2117 0.961 . S
C2112 H2118 0.960 . S
C2113 N2111 1.346 . S
C2113 N2114 1.307 . S
C2113 C2115 1.486 . S
N2114 N2110 1.370 . S
N2114 C2113 1.307 . S
C2115 C2113 1.486 . S
C2115 H2119 0.960 . S
C2115 H2120 0.960 . S
C2115 H2121 0.959 . S
H2116 C2112 0.960 . S
H2117 C2112 0.961 . S
H2118 C2112 0.960 . S
H2119 C2115 0.960 . S
H2120 C2115 0.960 . S
H2121 C2115 0.959 . S
C2122 N2123 1.317 . S
C2122 N2124 1.348 . S
C2122 C2125 1.485 . S
N2123 C2122 1.317 . S
N2123 N2127 1.370 . S
N2124 C2122 1.348 . S
N2124 C2126 1.346 . S
C2125 C2122 1.485 . S
C2125 H2129 0.960 . S
C2125 H2130 0.961 . S
C2125 H2131 0.960 . S
C2126 N2124 1.346 . S
C2126 N2127 1.307 . S
C2126 C2128 1.486 . S
N2127 N2123 1.370 . S
N2127 C2126 1.307 . S
C2128 C2126 1.486 . S
C2128 H2132 0.960 . S
C2128 H2133 0.960 . S
C2128 H2134 0.959 . S
H2129 C2125 0.960 . S
H2130 C2125 0.961 . S
H2131 C2125 0.960 . S
H2132 C2128 0.960 . S
H2133 C2128 0.960 . S
H2134 C2128 0.959 . S
C2135 N2136 1.317 . S
C2135 N2137 1.348 . S
C2135 C2138 1.485 . S
N2136 C2135 1.317 . S
N2136 N2140 1.370 . S
N2137 C2135 1.348 . S
N2137 C2139 1.346 . S
C2138 C2135 1.485 . S
C2138 H2142 0.960 . S
C2138 H2143 0.961 . S
C2138 H2144 0.960 . S
C2139 N2137 1.346 . S
C2139 N2140 1.307 . S
C2139 C2141 1.486 . S
N2140 N2136 1.370 . S
N2140 C2139 1.307 . S
C2141 C2139 1.486 . S
C2141 H2145 0.960 . S
C2141 H2146 0.960 . S
C2141 H2147 0.959 . S
H2142 C2138 0.960 . S
H2143 C2138 0.961 . S
H2144 C2138 0.960 . S
H2145 C2141 0.960 . S
H2146 C2141 0.960 . S
H2147 C2141 0.959 . S
C2148 N2149 1.317 . S
C2148 N2150 1.348 . S
C2148 C2151 1.485 . S
N2149 C2148 1.317 . S
N2149 N2153 1.370 . S
N2150 C2148 1.348 . S
N2150 C2152 1.346 . S
C2151 C2148 1.485 . S
C2151 H2155 0.960 . S
C2151 H2156 0.961 . S
C2151 H2157 0.960 . S
C2152 N2150 1.346 . S
C2152 N2153 1.307 . S
C2152 C2154 1.486 . S
N2153 N2149 1.370 . S
N2153 C2152 1.307 . S
C2154 C2152 1.486 . S
C2154 H2158 0.960 . S
C2154 H2159 0.960 . S
C2154 H2160 0.959 . S
H2155 C2151 0.960 . S
H2156 C2151 0.961 . S
H2157 C2151 0.960 . S
H2158 C2154 0.960 . S
H2159 C2154 0.960 . S
H2160 C2154 0.959 . S
C2161 N2162 1.317 . S
C2161 N2163 1.348 . S
C2161 C2164 1.485 . S
N2162 C2161 1.317 . S
N2162 N2166 1.370 . S
N2163 C2161 1.348 . S
N2163 C2165 1.346 . S
C2164 C2161 1.485 . S
C2164 H2168 0.960 . S
C2164 H2169 0.961 . S
C2164 H2170 0.960 . S
C2165 N2163 1.346 . S
C2165 N2166 1.307 . S
C2165 C2167 1.486 . S
N2166 N2162 1.370 . S
N2166 C2165 1.307 . S
C2167 C2165 1.486 . S
C2167 H2171 0.960 . S
C2167 H2172 0.960 . S
C2167 H2173 0.959 . S
H2168 C2164 0.960 . S
H2169 C2164 0.961 . S
H2170 C2164 0.960 . S
H2171 C2167 0.960 . S
H2172 C2167 0.960 . S
H2173 C2167 0.959 . S
C2174 N2175 1.317 . S
C2174 N2176 1.348 . S
C2174 C2177 1.485 . S
N2175 C2174 1.317 . S
N2175 N2179 1.370 . S
N2176 C2174 1.348 . S
N2176 C2178 1.346 . S
C2177 C2174 1.485 . S
C2177 H2181 0.960 . S
C2177 H2182 0.961 . S
C2177 H2183 0.960 . S
C2178 N2176 1.346 . S
C2178 N2179 1.307 . S
C2178 C2180 1.486 . S
N2179 N2175 1.370 . S
N2179 C2178 1.307 . S
C2180 C2178 1.486 . S
C2180 H2184 0.960 . S
C2180 H2185 0.960 . S
C2180 H2186 0.959 . S
H2181 C2177 0.960 . S
H2182 C2177 0.961 . S
H2183 C2177 0.960 . S
H2184 C2180 0.960 . S
H2185 C2180 0.960 . S
H2186 C2180 0.959 . S
C2187 N2188 1.317 . S
C2187 N2189 1.348 . S
C2187 C2190 1.485 . S
N2188 C2187 1.317 . S
N2188 N2192 1.370 . S
N2189 C2187 1.348 . S
N2189 C2191 1.346 . S
C2190 C2187 1.485 . S
C2190 H2194 0.960 . S
C2190 H2195 0.961 . S
C2190 H2196 0.960 . S
C2191 N2189 1.346 . S
C2191 N2192 1.307 . S
C2191 C2193 1.486 . S
N2192 N2188 1.370 . S
N2192 C2191 1.307 . S
C2193 C2191 1.486 . S
C2193 H2197 0.960 . S
C2193 H2198 0.960 . S
C2193 H2199 0.959 . S
H2194 C2190 0.960 . S
H2195 C2190 0.961 . S
H2196 C2190 0.960 . S
H2197 C2193 0.960 . S
H2198 C2193 0.960 . S
H2199 C2193 0.959 . S
C2200 N2201 1.317 . S
C2200 N2202 1.348 . S
C2200 C2203 1.485 . S
N2201 C2200 1.317 . S
N2201 N2205 1.370 . S
N2202 C2200 1.348 . S
N2202 C2204 1.346 . S
C2203 C2200 1.485 . S
C2203 H2207 0.960 . S
C2203 H2208 0.961 . S
C2203 H2209 0.960 . S
C2204 N2202 1.346 . S
C2204 N2205 1.307 . S
C2204 C2206 1.486 . S
N2205 N2201 1.370 . S
N2205 C2204 1.307 . S
C2206 C2204 1.486 . S
C2206 H2210 0.960 . S
C2206 H2211 0.960 . S
C2206 H2212 0.959 . S
H2207 C2203 0.960 . S
H2208 C2203 0.961 . S
H2209 C2203 0.960 . S
H2210 C2206 0.960 . S
H2211 C2206 0.960 . S
H2212 C2206 0.959 . S
C2213 N2214 1.317 . S
C2213 N2215 1.348 . S
C2213 C2216 1.485 . S
N2214 C2213 1.317 . S
N2214 N2218 1.370 . S
N2215 C2213 1.348 . S
N2215 C2217 1.346 . S
C2216 C2213 1.485 . S
C2216 H2220 0.960 . S
C2216 H2221 0.961 . S
C2216 H2222 0.960 . S
C2217 N2215 1.346 . S
C2217 N2218 1.307 . S
C2217 C2219 1.486 . S
N2218 N2214 1.370 . S
N2218 C2217 1.307 . S
C2219 C2217 1.486 . S
C2219 H2223 0.960 . S
C2219 H2224 0.960 . S
C2219 H2225 0.959 . S
H2220 C2216 0.960 . S
H2221 C2216 0.961 . S
H2222 C2216 0.960 . S
H2223 C2219 0.960 . S
H2224 C2219 0.960 . S
H2225 C2219 0.959 . S
C2226 N2227 1.317 . S
C2226 N2228 1.348 . S
C2226 C2229 1.485 . S
N2227 C2226 1.317 . S
N2227 N2231 1.370 . S
N2228 C2226 1.348 . S
N2228 C2230 1.346 . S
C2229 C2226 1.485 . S
C2229 H2233 0.960 . S
C2229 H2234 0.961 . S
C2229 H2235 0.960 . S
C2230 N2228 1.346 . S
C2230 N2231 1.307 . S
C2230 C2232 1.486 . S
N2231 N2227 1.370 . S
N2231 C2230 1.307 . S
C2232 C2230 1.486 . S
C2232 H2236 0.960 . S
C2232 H2237 0.960 . S
C2232 H2238 0.959 . S
H2233 C2229 0.960 . S
H2234 C2229 0.961 . S
H2235 C2229 0.960 . S
H2236 C2232 0.960 . S
H2237 C2232 0.960 . S
H2238 C2232 0.959 . S
C2239 N2240 1.317 . S
C2239 N2241 1.348 . S
C2239 C2242 1.485 . S
N2240 C2239 1.317 . S
N2240 N2244 1.370 . S
N2241 C2239 1.348 . S
N2241 C2243 1.346 . S
C2242 C2239 1.485 . S
C2242 H2246 0.960 . S
C2242 H2247 0.961 . S
C2242 H2248 0.960 . S
C2243 N2241 1.346 . S
C2243 N2244 1.307 . S
C2243 C2245 1.486 . S
N2244 N2240 1.370 . S
N2244 C2243 1.307 . S
C2245 C2243 1.486 . S
C2245 H2249 0.960 . S
C2245 H2250 0.960 . S
C2245 H2251 0.959 . S
H2246 C2242 0.960 . S
H2247 C2242 0.961 . S
H2248 C2242 0.960 . S
H2249 C2245 0.960 . S
H2250 C2245 0.960 . S
H2251 C2245 0.959 . S
C2252 N2253 1.317 . S
C2252 N2254 1.348 . S
C2252 C2255 1.485 . S
N2253 C2252 1.317 . S
N2253 N2257 1.370 . S
N2254 C2252 1.348 . S
N2254 C2256 1.346 . S
C2255 C2252 1.485 . S
C2255 H2259 0.960 . S
C2255 H2260 0.961 . S
C2255 H2261 0.960 . S
C2256 N2254 1.346 . S
C2256 N2257 1.307 . S
C2256 C2258 1.486 . S
N2257 N2253 1.370 . S
N2257 C2256 1.307 . S
C2258 C2256 1.486 . S
C2258 H2262 0.960 . S
C2258 H2263 0.960 . S
C2258 H2264 0.959 . S
H2259 C2255 0.960 . S
H2260 C2255 0.961 . S
H2261 C2255 0.960 . S
H2262 C2258 0.960 . S
H2263 C2258 0.960 . S
H2264 C2258 0.959 . S
C2265 N2266 1.317 . S
C2265 N2267 1.348 . S
C2265 C2268 1.485 . S
N2266 C2265 1.317 . S
N2266 N2270 1.370 . S
N2267 C2265 1.348 . S
N2267 C2269 1.346 . S
C2268 C2265 1.485 . S
C2268 H2272 0.960 . S
C2268 H2273 0.961 . S
C2268 H2274 0.960 . S
C2269 N2267 1.346 . S
C2269 N2270 1.307 . S
C2269 C2271 1.486 . S
N2270 N2266 1.370 . S
N2270 C2269 1.307 . S
C2271 C2269 1.486 . S
C2271 H2275 0.960 . S
C2271 H2276 0.960 . S
C2271 H2277 0.959 . S
H2272 C2268 0.960 . S
H2273 C2268 0.961 . S
H2274 C2268 0.960 . S
H2275 C2271 0.960 . S
H2276 C2271 0.960 . S
H2277 C2271 0.959 . S
C2278 N2279 1.317 . S
C2278 N2280 1.348 . S
C2278 C2281 1.485 . S
N2279 C2278 1.317 . S
N2279 N2283 1.370 . S
N2280 C2278 1.348 . S
N2280 C2282 1.346 . S
C2281 C2278 1.485 . S
C2281 H2285 0.960 . S
C2281 H2286 0.961 . S
C2281 H2287 0.960 . S
C2282 N2280 1.346 . S
C2282 N2283 1.307 . S
C2282 C2284 1.486 . S
N2283 N2279 1.370 . S
N2283 C2282 1.307 . S
C2284 C2282 1.486 . S
C2284 H2288 0.960 . S
C2284 H2289 0.960 . S
C2284 H2290 0.959 . S
H2285 C2281 0.960 . S
H2286 C2281 0.961 . S
H2287 C2281 0.960 . S
H2288 C2284 0.960 . S
H2289 C2284 0.960 . S
H2290 C2284 0.959 . S
C2291 N2292 1.317 . S
C2291 N2293 1.348 . S
C2291 C2294 1.485 . S
N2292 C2291 1.317 . S
N2292 N2296 1.370 . S
N2293 C2291 1.348 . S
N2293 C2295 1.346 . S
C2294 C2291 1.485 . S
C2294 H2298 0.960 . S
C2294 H2299 0.961 . S
C2294 H2300 0.960 . S
C2295 N2293 1.346 . S
C2295 N2296 1.307 . S
C2295 C2297 1.486 . S
N2296 N2292 1.370 . S
N2296 C2295 1.307 . S
C2297 C2295 1.486 . S
C2297 H2301 0.960 . S
C2297 H2302 0.960 . S
C2297 H2303 0.959 . S
H2298 C2294 0.960 . S
H2299 C2294 0.961 . S
H2300 C2294 0.960 . S
H2301 C2297 0.960 . S
H2302 C2297 0.960 . S
H2303 C2297 0.959 . S
N1383 C8 1.499 1_655 S
N2020 C19 1.515 . S
N1409 C30 1.500 . S
N1994 C41 1.499 . S
N1461 C52 1.499 1_655 S
C63 N2046 1.499 . S
N1435 C74 1.500 . S
N2072 C85 1.515 . S
N2280 C96 1.516 1_565 S
C107 N2202 1.500 . S
N2293 C118 1.499 1_545 S
C129 N2267 1.499 . S
N2228 C140 1.516 1_545 S
N1617 C151 1.499 . S
N1630 C162 1.499 1_565 S
C173 N1591 1.500 . S
C184 N2163 1.500 1_554 S
N1513 C195 1.500 1_554 S
N2098 C206 1.499 . S
N1487 C217 1.500 . S
C228 N1500 1.500 . S
N2189 C239 1.500 . S
N2150 C250 1.499 . S
C261 N2176 1.500 . S
C272 N1071 1.549 1_655 S
C283 N1708 1.548 . S
N1097 C294 1.547 . S
C305 N1682 1.530 . S
N1149 C316 1.549 1_455 S
C327 N1734 1.530 . S
N1123 C338 1.547 . S
N1760 C349 1.548 . S
C360 N1968 1.534 1_565 S
N1890 C371 1.547 . S
C382 N1981 1.548 1_545 S
N1955 C393 1.550 . S
N1916 C404 1.534 1_565 S
C415 N1305 1.550 . S
C426 N1318 1.548 1_565 S
N1279 C437 1.547 . S
C448 N1851 1.532 1_556 S
N1201 C459 1.532 1_556 S
C470 N1786 1.548 . S
N1175 C481 1.548 . S
C492 N1188 1.548 . S
N1877 C503 1.548 . S
N1838 C514 1.548 . S
N1864 C525 1.548 . S
C536 N2007 1.499 . S
N1396 C547 1.515 . S
N2033 C558 1.500 1_455 S
N1370 C569 1.499 . S
C580 N2085 1.499 . S
N1422 C591 1.499 . S
N2059 C602 1.500 1_455 S
N1448 C613 1.515 . S
C624 N1656 1.516 . S
N1578 C635 1.500 . S
N1669 C646 1.499 . S
C657 N1643 1.499 . S
C668 N1604 1.516 . S
C679 N2241 1.499 . S
C690 N2254 1.499 . S
N2215 C701 1.500 . S
C712 N1539 1.500 . S
N2137 C723 1.500 . S
N1474 C734 1.499 . S
N2111 C745 1.500 1_554 S
C756 N2124 1.500 . S
C767 N1565 1.500 1_554 S
N1526 C778 1.499 . S
C789 N1552 1.500 . S
C800 N1695 1.549 . S
N1084 C811 1.548 . S
N1721 C822 1.547 1_655 S
C833 N1058 1.530 . S
N1773 C844 1.549 . S
N1110 C855 1.530 . S
C866 N1747 1.547 1_455 S
C877 N1136 1.548 . S
N1344 C888 1.534 . S
C899 N1266 1.547 . S
N1357 C910 1.548 . S
N1331 C921 1.550 . S
C932 N1292 1.534 . S
C943 N1929 1.550 . S
N1942 C954 1.548 . S
C965 N1903 1.547 . S
N1227 C976 1.532 . S
N1825 C987 1.532 . S
C998 N1162 1.548 . S
C1009 N1799 1.548 1_554 S
C1020 N1812 1.548 . S
C1031 N1253 1.548 1_556 S
C1042 N1214 1.548 . S
N1240 C1053 1.548 . S
N1174 C5 1.149 . S
N1187 C16 1.150 . S
C27 N1204 1.145 . S
C38 N1161 1.149 . S
C49 N1252 1.149 . S
N1213 C60 1.149 . S
N1230 C71 1.145 . S
C82 N1239 1.150 . S
C93 N1096 1.151 . S
C104 N1061 1.146 . S
C115 N1070 1.148 . S
N1083 C126 1.148 . S
C137 N1122 1.151 . S
C148 N1135 1.148 . S
C159 N1148 1.148 . S
C170 N1113 1.146 . S
N1295 C181 1.146 . S
C192 N1971 1.146 . S
N1265 C203 1.149 . S
N1980 C214 1.149 . S
C225 N1954 1.148 . S
C236 N1941 1.149 . S
N1902 C247 1.149 . S
N1928 C258 1.148 . S
N1486 C269 1.445 . S
N1499 C280 1.444 . S
N1512 C291 1.438 . S
C302 N1473 1.435 . S
C313 N1564 1.445 . S
N1525 C324 1.435 . S
C335 N1538 1.438 . S
N1551 C346 1.444 . S
C357 N1408 1.445 . S
N1369 C368 1.438 . S
C379 N1382 1.442 . S
N1399 C390 1.511 . S
N1434 C401 1.445 . S
C412 N1451 1.511 . S
N1460 C423 1.442 . S
N1421 C434 1.438 . S
N1607 C445 1.504 . S
N2283 C456 1.504 . S
N1577 C467 1.442 . S
C478 N2292 1.442 . S
C489 N2266 1.441 . S
N2253 C500 1.442 . S
N2214 C511 1.442 . S
N2240 C522 1.441 . S
C533 N1798 1.149 . S
N1811 C544 1.150 . S
C555 N1828 1.145 . S
N1785 C566 1.149 . S
C577 N1876 1.149 . S
C588 N1837 1.149 . S
C599 N1854 1.145 . S
C610 N1863 1.150 . S
C621 N1720 1.151 . S
N1685 C632 1.146 . S
N1694 C643 1.148 . S
C654 N1707 1.148 . S
C665 N1746 1.151 . S
C676 N1759 1.148 . S
C687 N1772 1.148 . S
C698 N1737 1.146 . S
N1919 C709 1.146 . S
N1347 C720 1.146 . S
N1889 C731 1.149 . S
N1356 C742 1.149 . S
N1330 C753 1.148 . S
N1317 C764 1.149 . S
C775 N1278 1.149 . S
N1304 C786 1.148 . S
C797 N2110 1.445 . S
C808 N2123 1.444 . S
N2136 C819 1.438 . S
C830 N2097 1.435 . S
N2188 C841 1.445 . S
C852 N2149 1.435 . S
C863 N2162 1.438 . S
N2175 C874 1.444 . S
N2032 C885 1.445 . S
N1993 C896 1.438 . S
N2006 C907 1.442 . S
N2023 C918 1.511 . S
C929 N2058 1.445 . S
N2075 C940 1.511 . S
C951 N2084 1.442 . S
C962 N2045 1.438 . S
C973 N2231 1.504 . S
C984 N1659 1.504 . S
C995 N2201 1.442 . S
N1668 C1006 1.442 . S
C1017 N1642 1.441 . S
C1028 N1629 1.442 . S
C1039 N1590 1.442 . S
N1616 C1050 1.441 . S
C7 N1057 1.438 . S
C18 N1074 1.457 . S
C29 N1087 1.460 . S
N1100 C40 1.458 . S
N1109 C51 1.438 . S
C62 N1126 1.458 . S
C73 N1139 1.460 . S
C84 N1152 1.457 . S
N1165 C95 1.457 . S
N1178 C106 1.459 . S
C117 N1191 1.458 . S
N1200 C128 1.438 . S
C139 N1217 1.457 . S
C150 N1226 1.438 . S
C161 N1243 1.458 . S
C172 N1256 1.459 . S
C183 N1269 1.459 . S
C194 N1282 1.459 . S
N1291 C205 1.438 . S
N1308 C216 1.458 . S
N1321 C227 1.458 . S
N1334 C238 1.458 . S
C249 N1343 1.438 . S
N1360 C260 1.458 . S
C271 N1373 1.582 . S
C282 N1386 1.582 . S
C293 N1395 1.618 . S
N1412 C304 1.577 . S
C315 N1425 1.582 . S
N1438 C326 1.577 . S
C337 N1447 1.618 . S
C348 N1464 1.582 . S
N1477 C359 1.583 . S
C370 N1490 1.578 . S
N1503 C381 1.581 . S
C392 N1516 1.584 . S
N1529 C403 1.583 . S
N1542 C414 1.584 . S
N1555 C425 1.581 . S
C436 N1568 1.578 . S
C447 N1581 1.580 . S
C458 N1594 1.580 . S
C469 N1603 1.621 . S
C480 N1620 1.581 . S
C491 N1633 1.580 . S
N1646 C502 1.581 . S
C513 N1655 1.621 . S
N1672 C524 1.580 . S
C535 N1681 1.438 . S
N1698 C546 1.457 . S
N1711 C557 1.460 . S
N1724 C568 1.458 . S
C579 N1733 1.438 . S
C590 N1750 1.458 . S
N1763 C601 1.460 . S
N1776 C612 1.457 . S
C623 N1789 1.457 . S
C634 N1802 1.459 . S
C645 N1815 1.458 . S
C656 N1824 1.438 . S
C667 N1841 1.457 . S
N1850 C678 1.438 . S
N1867 C689 1.458 . S
N1880 C700 1.459 . S
N1893 C711 1.459 . S
C722 N1906 1.459 . S
C733 N1915 1.438 . S
N1932 C744 1.458 . S
C755 N1945 1.458 . S
N1958 C766 1.458 . S
N1967 C777 1.438 . S
N1984 C788 1.458 . S
C799 N1997 1.582 . S
C810 N2010 1.582 . S
C821 N2019 1.618 . S
C832 N2036 1.577 . S
N2049 C843 1.582 . S
N2062 C854 1.577 . S
N2071 C865 1.618 . S
C876 N2088 1.582 . S
C887 N2101 1.583 . S
N2114 C898 1.578 . S
N2127 C909 1.581 . S
N2140 C920 1.584 . S
N2153 C931 1.583 . S
N2166 C942 1.584 . S
N2179 C953 1.581 . S
N2192 C964 1.578 . S
N2205 C975 1.580 . S
N2218 C986 1.580 . S
N2227 C997 1.621 . S
C1008 N2244 1.581 . S
N2257 C1019 1.580 . S
C1030 N2270 1.581 . S
N2279 C1041 1.621 . S
N2296 C1052 1.580 . S
