# Generated by pormake.
# Topology pyr, (3,6)-cn, num edge types: 1
# Building blocks:
#     Node 0, Type 0, BuildingBlock: CUQRIR_clean_linker_1, # of connection points: 3
#     Node 1, Type 0, BuildingBlock: CUQRIR_clean_linker_1, # of connection points: 3
#     Node 2, Type 0, BuildingBlock: CUQRIR_clean_linker_1, # of connection points: 3
#     Node 3, Type 0, BuildingBlock: CUQRIR_clean_linker_1, # of connection points: 3
#     Node 4, Type 0, BuildingBlock: CUQRIR_clean_linker_1, # of connection points: 3
#     Node 5, Type 0, BuildingBlock: CUQRIR_clean_linker_1, # of connection points: 3
#     Node 6, Type 0, BuildingBlock: CUQRIR_clean_linker_1, # of connection points: 3
#     Node 7, Type 0, BuildingBlock: CUQRIR_clean_linker_1, # of connection points: 3
#     Node 8, Type 1, BuildingBlock: VOLQOD_clean_sbu_1, # of connection points: 6
#     Node 9, Type 1, BuildingBlock: VOLQOD_clean_sbu_1, # of connection points: 6
#     Node 10, Type 1, BuildingBlock: VOLQOD_clean_sbu_1, # of connection points: 6
#     Node 11, Type 1, BuildingBlock: VOLQOD_clean_sbu_1, # of connection points: 6
#     Edge 12, Type (0, 1), BuildingBlock: KIFKEQ_clean_linker_1, # of connection points: 2
#     Edge 13, Type (0, 1), BuildingBlock: KIFKEQ_clean_linker_1, # of connection points: 2
#     Edge 14, Type (0, 1), BuildingBlock: KIFKEQ_clean_linker_1, # of connection points: 2
#     Edge 15, Type (0, 1), BuildingBlock: KIFKEQ_clean_linker_1, # of connection points: 2
#     Edge 16, Type (0, 1), BuildingBlock: KIFKEQ_clean_linker_1, # of connection points: 2
#     Edge 17, Type (0, 1), BuildingBlock: KIFKEQ_clean_linker_1, # of connection points: 2
#     Edge 18, Type (0, 1), BuildingBlock: KIFKEQ_clean_linker_1, # of connection points: 2
#     Edge 19, Type (0, 1), BuildingBlock: KIFKEQ_clean_linker_1, # of connection points: 2
#     Edge 20, Type (0, 1), BuildingBlock: KIFKEQ_clean_linker_1, # of connection points: 2
#     Edge 21, Type (0, 1), BuildingBlock: KIFKEQ_clean_linker_1, # of connection points: 2
#     Edge 22, Type (0, 1), BuildingBlock: KIFKEQ_clean_linker_1, # of connection points: 2
#     Edge 23, Type (0, 1), BuildingBlock: KIFKEQ_clean_linker_1, # of connection points: 2
#     Edge 24, Type (0, 1), BuildingBlock: KIFKEQ_clean_linker_1, # of connection points: 2
#     Edge 25, Type (0, 1), BuildingBlock: KIFKEQ_clean_linker_1, # of connection points: 2
#     Edge 26, Type (0, 1), BuildingBlock: KIFKEQ_clean_linker_1, # of connection points: 2
#     Edge 27, Type (0, 1), BuildingBlock: KIFKEQ_clean_linker_1, # of connection points: 2
#     Edge 28, Type (0, 1), BuildingBlock: KIFKEQ_clean_linker_1, # of connection points: 2
#     Edge 29, Type (0, 1), BuildingBlock: KIFKEQ_clean_linker_1, # of connection points: 2
#     Edge 30, Type (0, 1), BuildingBlock: KIFKEQ_clean_linker_1, # of connection points: 2
#     Edge 31, Type (0, 1), BuildingBlock: KIFKEQ_clean_linker_1, # of connection points: 2
#     Edge 32, Type (0, 1), BuildingBlock: KIFKEQ_clean_linker_1, # of connection points: 2
#     Edge 33, Type (0, 1), BuildingBlock: KIFKEQ_clean_linker_1, # of connection points: 2
#     Edge 34, Type (0, 1), BuildingBlock: KIFKEQ_clean_linker_1, # of connection points: 2
#     Edge 35, Type (0, 1), BuildingBlock: KIFKEQ_clean_linker_1, # of connection points: 2
# Relax obj value: 0.117
# Max RMSD: 0.211
# Mean RMSD: 0.164
data_MOF--net-pry--node1-VOLQOD_clean_sbu_1--node2-CUQRIR_clean_linker_1--edge1-KIFKEQ_clean_linker_1
_symmetry_space_group_name_H-M    P1
_symmetry_Int_Tables_number       1
_symmetry_cell_setting            triclinic
loop_
_symmetry_equiv_pos_as_xyz
'x, y, z'
_cell_length_a     35.200684
_cell_length_b     35.129822
_cell_length_c     34.720213
_cell_angle_alpha  88.204321
_cell_angle_beta   92.024759
_cell_angle_gamma 93.927091
loop_
_atom_site_label
_atom_site_type_symbol
_atom_site_fract_x
_atom_site_fract_y
_atom_site_fract_z
_atom_type_partial_charge
C0 C 0.13563 0.18155 0.15743 0.0
N1 N 0.16255 0.1563 0.16503 0.0
N2 N 0.14674 0.20675 0.12915 0.0
C3 C 0.09912 0.18249 0.17869 0.0
C4 C 0.18154 0.19633 0.12002 0.0
N5 N 0.19147 0.16588 0.14224 0.0
C6 C 0.20578 0.21618 0.08963 0.0
H7 H 0.0857 0.20994 0.17405 0.0
H8 H 0.10449 0.17733 0.21004 0.0
H9 H 0.07861 0.15944 0.16817 0.0
H10 H 0.22465 0.23892 0.10322 0.0
H11 H 0.18803 0.22977 0.06682 0.0
H12 H 0.22377 0.19583 0.07626 0.0
C13 C 0.36983 0.85464 0.66392 0.0
N14 N 0.36745 0.88494 0.68656 0.0
N15 N 0.40111 0.83585 0.67382 0.0
C16 C 0.34204 0.84389 0.63142 0.0
C17 C 0.41791 0.856 0.70317 0.0
N18 N 0.39752 0.88617 0.71083 0.0
C19 C 0.45243 0.84431 0.72622 0.0
H20 H 0.31874 0.82445 0.64303 0.0
H21 H 0.35611 0.82892 0.60874 0.0
H22 H 0.32916 0.86932 0.61823 0.0
H23 H 0.47816 0.86006 0.71467 0.0
H24 H 0.45577 0.81327 0.72419 0.0
H25 H 0.45042 0.85137 0.75698 0.0
C26 C 0.57507 0.39933 0.90431 0.0
N27 N 0.60068 0.38943 0.93219 0.0
N28 N 0.58336 0.43541 0.89093 0.0
C29 C 0.54436 0.37244 0.88707 0.0
C30 C 0.61447 0.44732 0.91255 0.0
N31 N 0.625 0.41947 0.93775 0.0
C32 C 0.63775 0.48423 0.90529 0.0
H33 H 0.55487 0.36058 0.86049 0.0
H34 H 0.51863 0.38777 0.87906 0.0
H35 H 0.53627 0.3486 0.90752 0.0
H36 H 0.62151 0.50452 0.8872 0.0
H37 H 0.66406 0.47829 0.8905 0.0
H38 H 0.64643 0.49755 0.93307 0.0
C39 C 0.86901 0.61182 0.36846 0.0
N40 N 0.90016 0.63435 0.3586 0.0
N41 N 0.85295 0.62535 0.39974 0.0
C42 C 0.85195 0.57909 0.34512 0.0
C43 C 0.87536 0.657 0.40836 0.0
N44 N 0.90383 0.66258 0.38327 0.0
C45 C 0.86971 0.68245 0.44145 0.0
H46 H 0.82052 0.57611 0.34729 0.0
H47 H 0.86374 0.55229 0.35639 0.0
H48 H 0.85899 0.58297 0.31429 0.0
H49 H 0.89758 0.69413 0.45347 0.0
H50 H 0.85369 0.66675 0.46462 0.0
H51 H 0.85345 0.70685 0.43082 0.0
C52 C 0.88183 0.9057 0.91417 0.0
N53 N 0.90379 0.89503 0.8857 0.0
N54 N 0.86566 0.93859 0.90418 0.0
C55 C 0.87185 0.88138 0.94933 0.0
C56 C 0.87846 0.94741 0.8685 0.0
N57 N 0.90145 0.92083 0.85712 0.0
C58 C 0.86777 0.98177 0.84465 0.0
H59 H 0.89196 0.8587 0.95475 0.0
H60 H 0.84261 0.86791 0.94512 0.0
H61 H 0.8721 0.89931 0.97506 0.0
H62 H 0.86041 0.00495 0.86349 0.0
H63 H 0.84249 0.97381 0.8259 0.0
H64 H 0.89149 0.99224 0.82602 0.0
C65 C 0.68856 0.16196 0.45278 0.0
N66 N 0.697 0.13283 0.43048 0.0
N67 N 0.65211 0.17099 0.446 0.0
C68 C 0.71531 0.18092 0.48219 0.0
C69 C 0.63858 0.14643 0.41874 0.0
N70 N 0.6656 0.12272 0.40979 0.0
C71 C 0.60095 0.1493 0.39697 0.0
H72 H 0.69918 0.19257 0.50552 0.0
H73 H 0.73215 0.20494 0.46805 0.0
H74 H 0.73528 0.16045 0.49484 0.0
H75 H 0.60346 0.14282 0.36614 0.0
H76 H 0.59027 0.17815 0.39851 0.0
H77 H 0.57963 0.1283 0.40971 0.0
C78 C 0.37738 0.60411 0.12325 0.0
N79 N 0.40747 0.62369 0.14039 0.0
N80 N 0.36928 0.6195 0.08796 0.0
C81 C 0.3534 0.57225 0.14238 0.0
C82 C 0.39615 0.6487 0.08396 0.0
N83 N 0.41953 0.65123 0.11577 0.0
C84 C 0.39643 0.67774 0.05107 0.0
H85 H 0.36948 0.55822 0.16626 0.0
H86 H 0.34362 0.55041 0.12124 0.0
H87 H 0.32783 0.58405 0.154 0.0
H88 H 0.39113 0.70614 0.06212 0.0
H89 H 0.37475 0.66989 0.02822 0.0
H90 H 0.42478 0.68005 0.03796 0.0
C91 C 0.07448 0.38675 0.62799 0.0
N92 N 0.10116 0.37665 0.60389 0.0
N93 N 0.08186 0.42307 0.6393 0.0
C94 C 0.04242 0.36038 0.64279 0.0
C95 C 0.11395 0.43487 0.62072 0.0
N96 N 0.12549 0.40681 0.59891 0.0
C97 C 0.13739 0.47127 0.62895 0.0
H98 H 0.01806 0.37688 0.65026 0.0
H99 H 0.05238 0.34501 0.66926 0.0
H100 H 0.03294 0.33901 0.62098 0.0
H101 H 0.15775 0.4659 0.65333 0.0
H102 H 0.11899 0.4939 0.63714 0.0
H103 H 0.15393 0.48121 0.60349 0.0
O104 O 0.0435 0.0848 0.54741 0.0
Zn105 Zn 0.01808 0.03316 0.53477 0.0
O106 O 0.05052 0.00338 0.50472 0.0
Zn107 Zn 0.02636 0.99404 0.45388 0.0
Zn108 Zn 0.09966 0.03229 0.49909 0.0
Zn109 Zn 0.05858 0.95453 0.5316 0.0
O110 O 0.01906 0.93777 0.44514 0.0
O111 O 0.0441 0.90956 0.49732 0.0
O112 O 0.97004 0.04349 0.5046 0.0
O113 O 0.97435 0.01666 0.44797 0.0
O114 O 0.06104 0.01499 0.41199 0.0
O115 O 0.11397 0.03658 0.44348 0.0
O116 O 0.14099 0.00864 0.53188 0.0
O117 O 0.00286 0.00474 0.58374 0.0
O118 O 0.11306 0.95308 0.55127 0.0
O119 O 0.02757 0.94856 0.57945 0.0
C120 C 0.07433 0.10236 0.53655 0.0
C121 C 0.02802 0.90775 0.46385 0.0
C122 C 0.09519 0.02967 0.41214 0.0
C123 C 0.95622 0.03563 0.47118 0.0
C124 C 0.14203 0.9769 0.55057 0.0
C125 C 0.00794 0.97121 0.59712 0.0
O126 O 0.09769 0.08605 0.51654 0.0
O127 O 0.52218 0.10374 0.01322 0.0
Zn128 Zn 0.49555 0.05202 0.02574 0.0
O129 O 0.52862 0.02057 0.05796 0.0
Zn130 Zn 0.53956 0.97585 0.02976 0.0
Zn131 Zn 0.57658 0.05002 0.0695 0.0
Zn132 Zn 0.50394 0.00424 0.10633 0.0
O133 O 0.52697 0.92773 0.06076 0.0
O134 O 0.49497 0.94675 0.11 0.0
O135 O 0.47853 0.0264 0.97558 0.0
O136 O 0.50983 0.97356 0.97915 0.0
O137 O 0.5946 0.97664 0.01713 0.0
O138 O 0.62096 0.02853 0.0446 0.0
O139 O 0.58809 0.0508 0.12617 0.0
O140 O 0.44902 0.06188 0.05492 0.0
O141 O 0.53853 0.01864 0.15261 0.0
O142 O 0.4534 0.02868 0.11036 0.0
C143 C 0.55278 0.12082 0.02651 0.0
C144 C 0.50808 0.92038 0.09101 0.0
C145 C 0.6236 0.99911 0.02467 0.0
C146 C 0.48712 0.99523 0.96127 0.0
C147 C 0.57095 0.03706 0.15566 0.0
C148 C 0.43579 0.05116 0.08751 0.0
O149 O 0.57517 0.10404 0.0499 0.0
O150 O 0.53487 0.51552 0.59473 0.0
Zn151 Zn 0.52786 0.53886 0.54198 0.0
O152 O 0.49334 0.50582 0.51049 0.0
Zn153 Zn 0.51962 0.49194 0.46506 0.0
Zn154 Zn 0.4774 0.45947 0.53992 0.0
Zn155 Zn 0.4488 0.53328 0.49491 0.0
O156 O 0.49484 0.51252 0.41619 0.0
O157 O 0.44974 0.54669 0.4381 0.0
O158 O 0.57934 0.54918 0.5188 0.0
O159 O 0.57343 0.51494 0.46607 0.0
O160 O 0.52458 0.43532 0.46385 0.0
O161 O 0.5015 0.41367 0.51969 0.0
O162 O 0.42006 0.44976 0.53718 0.0
O163 O 0.50571 0.58877 0.55094 0.0
O164 O 0.40022 0.50137 0.50613 0.0
O165 O 0.44793 0.58254 0.52331 0.0
C166 C 0.51831 0.48738 0.6128 0.0
C167 C 0.46871 0.53563 0.41041 0.0
C168 C 0.51826 0.40824 0.48856 0.0
C169 C 0.59321 0.53699 0.48852 0.0
C170 C 0.39322 0.46905 0.52309 0.0
C171 C 0.47319 0.60146 0.5434 0.0
O172 O 0.49412 0.46436 0.59588 0.0
O173 O 0.96821 0.53326 0.08805 0.0
Zn174 Zn 0.97001 0.50522 0.03809 0.0
O175 O 0.99521 0.53771 0.99818 0.0
Zn176 Zn 0.96067 0.54626 0.95341 0.0
Zn177 Zn 0.01345 0.58641 0.02044 0.0
Zn178 Zn 0.03843 0.51256 0.98043 0.0
O179 O 0.98061 0.52722 0.90364 0.0
O180 O 0.03587 0.50603 0.92389 0.0
O181 O 0.91583 0.49021 0.02054 0.0
O182 O 0.90947 0.51844 0.96255 0.0
O183 O 0.95492 0.60286 0.944 0.0
O184 O 0.99358 0.63002 0.98874 0.0
O185 O 0.07088 0.59316 0.02205 0.0
O186 O 0.99736 0.45658 0.04906 0.0
O187 O 0.08735 0.54226 0.99206 0.0
O188 O 0.0423 0.46114 0.00561 0.0
C189 C 0.97944 0.56685 0.09827 0.0
C190 C 0.01175 0.51263 0.89687 0.0
C191 C 0.97059 0.63256 0.95975 0.0
C192 C 0.89592 0.49738 0.9901 0.0
C193 C 0.0962 0.57334 0.0089 0.0
C194 C 0.02513 0.44289 0.03278 0.0
O195 O 0.99652 0.59038 0.075 0.0
H196 H 0.21431 0.14946 0.22361 0.0
H197 H 0.1087 0.09948 0.17574 0.0
H198 H 0.20591 0.11001 0.28232 0.0
H199 H 0.0979 0.06274 0.23514 0.0
H200 H 0.08298 0.99525 0.34306 0.0
H201 H 0.10816 0.01655 0.28098 0.0
H202 H 0.16986 0.11226 0.3358 0.0
H203 H 0.14689 0.08904 0.39786 0.0
C204 C 0.18963 0.12943 0.22555 0.0
C205 C 0.16177 0.12779 0.19571 0.0
C206 C 0.18434 0.1073 0.25939 0.0
C207 C 0.15064 0.08378 0.26428 0.0
C208 C 0.12433 0.08016 0.23286 0.0
C209 C 0.13015 0.10158 0.19884 0.0
C210 C 0.10241 0.02051 0.3417 0.0
C211 C 0.11273 0.04072 0.37511 0.0
C212 C 0.11673 0.03294 0.30608 0.0
C213 C 0.14075 0.0666 0.30286 0.0
C214 C 0.15206 0.08591 0.3368 0.0
C215 C 0.13858 0.07283 0.37252 0.0
H216 H 0.46215 0.92998 0.7227 0.0
H217 H 0.35175 0.90025 0.76884 0.0
H218 H 0.48232 0.96203 0.78237 0.0
H219 H 0.37142 0.93315 0.82848 0.0
H220 H 0.42307 0.01904 0.92225 0.0
H221 H 0.39811 0.99951 0.8583 0.0
H222 H 0.49188 0.92776 0.84904 0.0
H223 H 0.51634 0.94647 0.91259 0.0
C224 C 0.44192 0.93134 0.74531 0.0
C225 C 0.40558 0.91256 0.74147 0.0
C226 C 0.45342 0.94949 0.77941 0.0
C227 C 0.42857 0.94963 0.8102 0.0
C228 C 0.39108 0.93359 0.80513 0.0
C229 C 0.37973 0.91499 0.77102 0.0
C230 C 0.43832 0.99915 0.90646 0.0
C231 C 0.47165 0.98423 0.92256 0.0
C232 C 0.424 0.98797 0.86998 0.0
C233 C 0.44327 0.96242 0.84862 0.0
C234 C 0.4767 0.94788 0.86462 0.0
C235 C 0.49054 0.9584 0.90119 0.0
H236 H 0.63014 0.44282 0.83173 0.0
H237 H 0.51486 0.45652 0.8638 0.0
H238 H 0.61323 0.45871 0.76463 0.0
H239 H 0.49724 0.47159 0.79605 0.0
H240 H 0.47958 0.4406 0.66487 0.0
H241 H 0.49423 0.43253 0.7339 0.0
H242 H 0.5907 0.51456 0.72396 0.0
H243 H 0.5763 0.52275 0.6552 0.0
C244 C 0.60134 0.45012 0.82432 0.0
C245 C 0.57381 0.44898 0.85262 0.0
C246 C 0.5916 0.45899 0.78604 0.0
C247 C 0.55394 0.46633 0.77526 0.0
C248 C 0.52642 0.46578 0.80369 0.0
C249 C 0.5364 0.45739 0.84223 0.0
C250 C 0.5039 0.45691 0.67742 0.0
C251 C 0.52692 0.48212 0.65451 0.0
C252 C 0.51201 0.45256 0.71695 0.0
C253 C 0.54352 0.47301 0.73413 0.0
C254 C 0.56635 0.49835 0.71132 0.0
C255 C 0.55805 0.50301 0.67198 0.0
H256 H 0.90524 0.68251 0.29686 0.0
H257 H 0.9424 0.5762 0.34436 0.0
H258 H 0.92957 0.66803 0.23403 0.0
H259 H 0.96736 0.5615 0.282 0.0
H260 H 0.94716 0.52365 0.15701 0.0
H261 H 0.93488 0.54323 0.2217 0.0
H262 H 0.98435 0.65645 0.19485 0.0
H263 H 0.99623 0.63704 0.12967 0.0
C264 C 0.91998 0.65674 0.29404 0.0
C265 C 0.92228 0.63048 0.32512 0.0
C266 C 0.93374 0.64827 0.25814 0.0
C267 C 0.94988 0.61329 0.25283 0.0
C268 C 0.95442 0.58832 0.28488 0.0
C269 C 0.94065 0.59683 0.32062 0.0
C270 C 0.95556 0.5527 0.16482 0.0
C271 C 0.97261 0.57874 0.13799 0.0
C272 C 0.94882 0.56386 0.2021 0.0
C273 C 0.9589 0.60137 0.21359 0.0
C274 C 0.97608 0.62743 0.18686 0.0
C275 C 0.98296 0.61622 0.14953 0.0
H276 H 0.19996 0.09071 0.13415 0.0
H277 H 0.2624 0.19931 0.14929 0.0
H278 H 0.26008 0.06066 0.12536 0.0
H279 H 0.3222 0.16989 0.1394 0.0
H280 H 0.40353 0.1146 0.05851 0.0
H281 H 0.34475 0.14061 0.07706 0.0
H282 H 0.32686 0.04842 0.1609 0.0
H283 H 0.38649 0.02231 0.14269 0.0
C284 C 0.22664 0.10792 0.13612 0.0
C285 C 0.22673 0.14735 0.14158 0.0
C286 C 0.26091 0.09084 0.1311 0.0
C287 C 0.29566 0.11312 0.13116 0.0
C288 C 0.29575 0.1522 0.13859 0.0
C289 C 0.26165 0.16905 0.14408 0.0
C290 C 0.38719 0.09976 0.08092 0.0
C291 C 0.39974 0.06636 0.09913 0.0
C292 C 0.35362 0.11483 0.09169 0.0
C293 C 0.33141 0.09664 0.12054 0.0
C294 C 0.34351 0.06295 0.13854 0.0
C295 C 0.37763 0.04815 0.12821 0.0
H296 H 0.29868 0.87861 0.71724 0.0
H297 H 0.37072 0.94867 0.64232 0.0
H298 H 0.24259 0.90779 0.68928 0.0
H299 H 0.3149 0.97694 0.6126 0.0
H300 H 0.20422 0.02543 0.5686 0.0
H301 H 0.25889 0.01219 0.611 0.0
H302 H 0.21245 0.89603 0.62818 0.0
H303 H 0.15763 0.90952 0.58704 0.0
C304 C 0.30247 0.90169 0.69602 0.0
C305 C 0.33872 0.9119 0.68214 0.0
C306 C 0.27042 0.9178 0.6793 0.0
C307 C 0.27406 0.94387 0.64779 0.0
C308 C 0.31089 0.95703 0.63677 0.0
C309 C 0.34297 0.9412 0.65397 0.0
C310 C 0.20576 0.99705 0.58141 0.0
C311 C 0.17652 0.96851 0.57431 0.0
C312 C 0.23708 0.9895 0.60581 0.0
C313 C 0.23993 0.9532 0.62356 0.0
C314 C 0.21081 0.92466 0.61603 0.0
C315 C 0.1795 0.93224 0.59192 0.0
H316 H 0.65246 0.45567 0.00092 0.0
H317 H 0.68226 0.38314 0.9107 0.0
H318 H 0.72025 0.46889 0.01823 0.0
H319 H 0.75004 0.39616 0.92752 0.0
H320 H 0.85243 0.48827 0.92408 0.0
H321 H 0.78717 0.46084 0.91738 0.0
H322 H 0.78414 0.44057 0.04053 0.0
H323 H 0.84995 0.46779 0.0474 0.0
C324 C 0.67366 0.4414 0.98597 0.0
C325 C 0.66263 0.41824 0.95483 0.0
C326 C 0.7123 0.449 0.99565 0.0
C327 C 0.74033 0.43389 0.97387 0.0
C328 C 0.729 0.40842 0.94453 0.0
C329 C 0.69041 0.40058 0.9352 0.0
C330 C 0.83799 0.47787 0.94976 0.0
C331 C 0.85635 0.48033 0.98628 0.0
C332 C 0.80073 0.46181 0.94587 0.0
C333 C 0.78076 0.44828 0.97842 0.0
C334 C 0.79897 0.45072 0.01499 0.0
C335 C 0.83658 0.46625 0.01885 0.0
H336 H 0.7933 0.66745 0.4104 0.0
H337 H 0.83201 0.554 0.42524 0.0
H338 H 0.73157 0.64524 0.43601 0.0
H339 H 0.76971 0.5312 0.44991 0.0
H340 H 0.63754 0.50415 0.43774 0.0
H341 H 0.70216 0.52495 0.41964 0.0
H342 H 0.70344 0.61737 0.49884 0.0
H343 H 0.63871 0.59652 0.51727 0.0
C344 C 0.78866 0.63787 0.41976 0.0
C345 C 0.81727 0.6124 0.41623 0.0
C346 C 0.75342 0.62514 0.43429 0.0
C347 C 0.74597 0.58655 0.44498 0.0
C348 C 0.77471 0.56107 0.44165 0.0
C349 C 0.81017 0.57398 0.42759 0.0
C350 C 0.65162 0.52881 0.45146 0.0
C351 C 0.63294 0.54882 0.47881 0.0
C352 C 0.68871 0.54051 0.44127 0.0
C353 C 0.7077 0.57274 0.45786 0.0
C354 C 0.68927 0.59254 0.4855 0.0
C355 C 0.65233 0.58052 0.49611 0.0
H356 H 0.11313 0.21624 0.05919 0.0
H357 H 0.13746 0.27024 0.16767 0.0
H358 H 0.07994 0.27199 0.03514 0.0
H359 H 0.10423 0.32608 0.14419 0.0
H360 H 0.0106 0.40313 0.10063 0.0
H361 H 0.03808 0.34416 0.12397 0.0
H362 H 0.09892 0.34022 0.01848 0.0
H363 H 0.07161 0.39873 0.99515 0.0
C364 C 0.11129 0.24025 0.07768 0.0
C365 C 0.12769 0.23947 0.11501 0.0
C366 C 0.0924 0.27201 0.06412 0.0
C367 C 0.08938 0.30331 0.08788 0.0
C368 C 0.10564 0.30219 0.12544 0.0
C369 C 0.12481 0.27058 0.13878 0.0
C370 C 0.02952 0.38943 0.0823 0.0
C371 C 0.03904 0.40572 0.04613 0.0
C372 C 0.04543 0.35585 0.09575 0.0
C373 C 0.07072 0.33769 0.07307 0.0
C374 C 0.07928 0.35338 0.03647 0.0
C375 C 0.06377 0.38706 0.02323 0.0
H376 H 0.61278 0.32685 0.8932 0.0
H377 H 0.59647 0.3673 0.0068 0.0
H378 H 0.60458 0.26071 0.91755 0.0
H379 H 0.58876 0.30096 0.03179 0.0
H380 H 0.6044 0.17168 0.06116 0.0
H381 H 0.62256 0.23724 0.03991 0.0
H382 H 0.5432 0.22558 0.94268 0.0
H383 H 0.52471 0.16025 0.96392 0.0
C384 C 0.60821 0.32131 0.9236 0.0
C385 C 0.6045 0.35165 0.94819 0.0
C386 C 0.60334 0.2837 0.93747 0.0
C387 C 0.59529 0.27585 0.97634 0.0
C388 C 0.59483 0.30631 0.00166 0.0
C389 C 0.59934 0.34407 0.98757 0.0
C390 C 0.59081 0.18311 0.03524 0.0
C391 C 0.56312 0.16076 0.01416 0.0
C392 C 0.60117 0.22063 0.02321 0.0
C393 C 0.58453 0.23624 0.98953 0.0
C394 C 0.55684 0.21398 0.9685 0.0
C395 C 0.54605 0.17671 0.98082 0.0
H396 H 0.97603 0.66669 0.41133 0.0
H397 H 0.88981 0.732 0.35563 0.0
H398 H 0.01449 0.72589 0.42582 0.0
H399 H 0.92717 0.79117 0.37023 0.0
H400 H 0.00496 0.89376 0.38941 0.0
H401 H 0.98327 0.83291 0.36191 0.0
H402 H 0.00638 0.77568 0.47135 0.0
H403 H 0.02909 0.83654 0.49865 0.0
C404 C 0.96619 0.69382 0.40096 0.0
C405 C 0.93054 0.69524 0.38195 0.0
C406 C 0.98774 0.72765 0.40969 0.0
C407 C 0.97378 0.76336 0.39952 0.0
C408 C 0.93914 0.76431 0.37809 0.0
C409 C 0.91772 0.73056 0.36955 0.0
C410 C 0.00582 0.86817 0.40756 0.0
C411 C 0.01828 0.87014 0.44644 0.0
C412 C 0.99333 0.83325 0.39175 0.0
C413 C 0.99272 0.7994 0.41445 0.0
C414 C 0.00685 0.8011 0.45285 0.0
C415 C 0.0196 0.83607 0.46864 0.0
H416 H 0.36053 0.76868 0.66722 0.0
H417 H 0.46856 0.8275 0.64206 0.0
H418 H 0.37883 0.71252 0.63424 0.0
H419 H 0.48725 0.77153 0.60865 0.0
H420 H 0.51952 0.64855 0.58874 0.0
H421 H 0.50296 0.70543 0.62089 0.0
H422 H 0.38973 0.69385 0.56859 0.0
H423 H 0.40597 0.63648 0.53692 0.0
C424 C 0.38823 0.76935 0.65452 0.0
C425 C 0.41318 0.8021 0.65687 0.0
C426 C 0.39866 0.73746 0.63549 0.0
C427 C 0.43435 0.73771 0.61847 0.0
C428 C 0.45968 0.77033 0.62167 0.0
C429 C 0.44913 0.80227 0.64073 0.0
C430 C 0.49114 0.65822 0.58385 0.0
C431 C 0.464 0.63777 0.56036 0.0
C432 C 0.48172 0.69095 0.6022 0.0
C433 C 0.44496 0.704 0.59753 0.0
C434 C 0.41811 0.68413 0.5733 0.0
C435 C 0.42752 0.6514 0.55491 0.0
H436 H 0.9751 0.91846 0.8394 0.0
H437 H 0.86112 0.91787 0.79004 0.0
H438 H 0.00099 0.92529 0.7745 0.0
H439 H 0.88657 0.92548 0.72533 0.0
H440 H 0.95042 0.00221 0.63335 0.0
H441 H 0.9243 0.98318 0.69566 0.0
H442 H 0.00189 0.89328 0.70804 0.0
H443 H 0.02804 0.91208 0.64527 0.0
C444 C 0.95572 0.91891 0.8145 0.0
C445 C 0.91633 0.91824 0.81934 0.0
C446 C 0.97039 0.9229 0.77751 0.0
C447 C 0.94573 0.92651 0.74501 0.0
C448 C 0.9062 0.92344 0.74993 0.0
C449 C 0.89166 0.91909 0.78677 0.0
C450 C 0.96182 0.97826 0.6492 0.0
C451 C 0.99129 0.95867 0.63435 0.0
C452 C 0.94669 0.96722 0.68476 0.0
C453 C 0.96099 0.93666 0.70654 0.0
C454 C 0.99043 0.91698 0.69182 0.0
C455 C 0.00522 0.92766 0.65586 0.0
H456 H 0.71074 0.12393 0.34846 0.0
H457 H 0.61247 0.06527 0.39899 0.0
H458 H 0.69428 0.09394 0.28716 0.0
H459 H 0.59348 0.03798 0.33725 0.0
H460 H 0.56358 0.99164 0.22094 0.0
H461 H 0.59534 0.00172 0.2838 0.0
H462 H 0.65025 0.10739 0.23954 0.0
H463 H 0.62064 0.09573 0.17671 0.0
C464 C 0.6862 0.10367 0.34662 0.0
C465 C 0.66254 0.09714 0.37808 0.0
C466 C 0.67613 0.08712 0.31128 0.0
C467 C 0.64161 0.06462 0.3065 0.0
C468 C 0.62018 0.05508 0.33934 0.0
C469 C 0.63089 0.07081 0.37484 0.0
C470 C 0.58267 0.01685 0.22483 0.0
C471 C 0.58949 0.043 0.19404 0.0
C472 C 0.6009 0.02273 0.26088 0.0
C473 C 0.62565 0.0554 0.26716 0.0
C474 C 0.63243 0.08132 0.23598 0.0
C475 C 0.61496 0.07495 0.19988 0.0
H476 H 0.36549 0.62977 0.20255 0.0
H477 H 0.47751 0.6076 0.1669 0.0
H478 H 0.38248 0.61103 0.26872 0.0
H479 H 0.49584 0.59024 0.23378 0.0
H480 H 0.4933 0.51067 0.34222 0.0
H481 H 0.48181 0.53749 0.27763 0.0
H482 H 0.41865 0.62513 0.32539 0.0
H483 H 0.42885 0.59744 0.38965 0.0
C484 C 0.39409 0.6215 0.20936 0.0
C485 C 0.42008 0.61931 0.17999 0.0
C486 C 0.40402 0.61104 0.24722 0.0
C487 C 0.44045 0.59865 0.25662 0.0
C488 C 0.46728 0.59884 0.2274 0.0
C489 C 0.45712 0.60915 0.18933 0.0
C490 C 0.47689 0.53561 0.33889 0.0
C491 C 0.46161 0.55162 0.37105 0.0
C492 C 0.47065 0.55128 0.30188 0.0
C493 C 0.44932 0.58355 0.29621 0.0
C494 C 0.43467 0.59991 0.32854 0.0
C495 C 0.44053 0.58402 0.36545 0.0
H496 H 0.04118 0.48457 0.64829 0.0
H497 H 0.09633 0.39417 0.70972 0.0
H498 H 0.02241 0.50947 0.71002 0.0
H499 H 0.07724 0.41785 0.77091 0.0
H500 H 0.0798 0.49267 0.87229 0.0
H501 H 0.09544 0.47393 0.80859 0.0
H502 H 0.98076 0.4918 0.76702 0.0
H503 H 0.96494 0.51152 0.83141 0.0
C504 C 0.04898 0.47009 0.6751 0.0
C505 C 0.07001 0.43765 0.67478 0.0
C506 C 0.03816 0.48404 0.71022 0.0
C507 C 0.0486 0.46574 0.74528 0.0
C508 C 0.06928 0.43295 0.74448 0.0
C509 C 0.07997 0.41919 0.70963 0.0
C510 C 0.05775 0.49273 0.84972 0.0
C511 C 0.0209 0.50308 0.85715 0.0
C512 C 0.06678 0.48188 0.81315 0.0
C513 C 0.03918 0.4808 0.78296 0.0
C514 C 0.00262 0.49243 0.78979 0.0
C515 C 0.99353 0.5035 0.82664 0.0
H516 H 0.79554 0.93757 0.87184 0.0
H517 H 0.86153 0.96908 0.97412 0.0
H518 H 0.73757 0.9548 0.90166 0.0
H519 H 0.80323 0.98533 0.00504 0.0
H520 H 0.69152 0.04219 0.0308 0.0
H521 H 0.75153 0.03045 0.00138 0.0
H522 H 0.69942 0.92652 0.95389 0.0
H523 H 0.63959 0.93835 0.98252 0.0
C524 C 0.79747 0.94873 0.90061 0.0
C525 C 0.83262 0.9522 0.92084 0.0
C526 C 0.76439 0.95812 0.91789 0.0
C527 C 0.7658 0.97095 0.95588 0.0
C528 C 0.8013 0.97565 0.97568 0.0
C529 C 0.8345 0.96624 0.95824 0.0
C530 C 0.69293 0.01677 0.01418 0.0
C531 C 0.66066 0.99135 0.0088 0.0
C532 C 0.72733 0.01002 0.99746 0.0
C533 C 0.73003 0.97781 0.97499 0.0
C534 C 0.698 0.95202 0.97038 0.0
C535 C 0.66375 0.95871 0.98704 0.0
H536 H 0.76397 0.17207 0.41777 0.0
H537 H 0.71265 0.0585 0.43684 0.0
H538 H 0.82735 0.14749 0.42284 0.0
H539 H 0.77636 0.03335 0.44091 0.0
H540 H 0.90372 0.00639 0.4172 0.0
H541 H 0.83996 0.02841 0.40149 0.0
H542 H 0.86022 0.11789 0.48356 0.0
H543 H 0.92302 0.09585 0.49963 0.0
C544 C 0.76641 0.14176 0.42282 0.0
C545 C 0.73369 0.11725 0.42795 0.0
C546 C 0.80255 0.12767 0.42551 0.0
C547 C 0.80676 0.0886 0.43275 0.0
C548 C 0.7739 0.06359 0.43525 0.0
C549 C 0.73758 0.07788 0.43298 0.0
C550 C 0.89454 0.03088 0.43165 0.0
C551 C 0.91841 0.04936 0.45968 0.0
C552 C 0.85806 0.04331 0.42282 0.0
C553 C 0.84528 0.07495 0.44119 0.0
C554 C 0.86945 0.09367 0.46866 0.0
C555 C 0.90537 0.08089 0.478 0.0
H556 H 0.319 0.67342 0.08318 0.0
H557 H 0.33664 0.55874 0.05102 0.0
H558 H 0.25361 0.66685 0.05739 0.0
H559 H 0.27033 0.55061 0.02752 0.0
H560 H 0.15555 0.552 0.9682 0.0
H561 H 0.22322 0.56717 0.98106 0.0
H562 H 0.19626 0.63523 0.07687 0.0
H563 H 0.12866 0.62143 0.06278 0.0
C564 C 0.30874 0.64694 0.07005 0.0
C565 C 0.33246 0.61655 0.06882 0.0
C566 C 0.27124 0.64291 0.05581 0.0
C567 C 0.25646 0.60804 0.04081 0.0
C568 C 0.2808 0.57803 0.03844 0.0
C569 C 0.31859 0.5824 0.05215 0.0
C570 C 0.16416 0.57058 0.99173 0.0
C571 C 0.13688 0.58538 0.01467 0.0
C572 C 0.20294 0.57908 0.99924 0.0
C573 C 0.2153 0.60214 0.0302 0.0
C574 C 0.18786 0.61786 0.05239 0.0
C575 C 0.14905 0.6098 0.0445 0.0
H576 H 0.14468 0.43233 0.52821 0.0
H577 H 0.18875 0.38244 0.63376 0.0
H578 H 0.20945 0.44213 0.50416 0.0
H579 H 0.25376 0.39303 0.61096 0.0
H580 H 0.3666 0.39971 0.55362 0.0
H581 H 0.30086 0.37825 0.56672 0.0
H582 H 0.26327 0.48486 0.51882 0.0
H583 H 0.32863 0.50579 0.50473 0.0
C584 C 0.16844 0.42282 0.54578 0.0
C585 C 0.16229 0.40646 0.58247 0.0
C586 C 0.20546 0.42875 0.53238 0.0
C587 C 0.23699 0.41873 0.55575 0.0
C588 C 0.23029 0.40067 0.59192 0.0
C589 C 0.19323 0.39461 0.60511 0.0
C590 C 0.34426 0.41841 0.54549 0.0
C591 C 0.35302 0.45462 0.52833 0.0
C592 C 0.30654 0.40615 0.55318 0.0
C593 C 0.27666 0.42984 0.54403 0.0
C594 C 0.28537 0.46555 0.52578 0.0
C595 C 0.32301 0.47772 0.51793 0.0
H596 H 0.97485 0.87624 0.90389 0.0
H597 H 0.86404 0.83098 0.865 0.0
H598 H 0.99491 0.81132 0.91562 0.0
H599 H 0.88285 0.76596 0.87794 0.0
H600 H 0.93234 0.65061 0.89204 0.0
H601 H 0.92089 0.71411 0.86543 0.0
H602 H 0.97948 0.76461 0.96479 0.0
H603 H 0.99187 0.70157 0.99067 0.0
C604 C 0.95532 0.85213 0.89677 0.0
C605 C 0.91824 0.85806 0.88322 0.0
C606 C 0.96641 0.81506 0.90401 0.0
C607 C 0.94028 0.78335 0.89837 0.0
C608 C 0.90387 0.78954 0.88231 0.0
C609 C 0.89301 0.82662 0.8748 0.0
C610 C 0.94284 0.6753 0.90813 0.0
C611 C 0.96291 0.67094 0.94358 0.0
C612 C 0.93627 0.71172 0.89287 0.0
C613 C 0.94947 0.74457 0.91279 0.0
C614 C 0.96965 0.74008 0.94814 0.0
C615 C 0.9764 0.7038 0.96325 0.0
H616 H 0.40989 0.69995 0.1724 0.0
H617 H 0.48198 0.6783 0.07912 0.0
H618 H 0.43922 0.76467 0.17664 0.0
H619 H 0.50901 0.74376 0.08025 0.0
H620 H 0.55557 0.86311 0.08561 0.0
H621 H 0.54325 0.79597 0.10346 0.0
H622 H 0.43164 0.81998 0.14122 0.0
H623 H 0.44555 0.88739 0.12604 0.0
C624 C 0.43291 0.70885 0.15357 0.0
C625 C 0.44367 0.68452 0.12526 0.0
C626 C 0.44915 0.74622 0.15529 0.0
C627 C 0.47573 0.76023 0.12799 0.0
C628 C 0.48882 0.73444 0.10195 0.0
C629 C 0.47323 0.69687 0.101 0.0
C630 C 0.52862 0.85391 0.09822 0.0
C631 C 0.5013 0.88024 0.10408 0.0
C632 C 0.52142 0.81536 0.10831 0.0
C633 C 0.48619 0.80201 0.12341 0.0
C634 C 0.4594 0.82887 0.13039 0.0
C635 C 0.46711 0.86761 0.12129 0.0
H636 H 0.11341 0.31738 0.65214 0.0
H637 H 0.10174 0.35004 0.53198 0.0
H638 H 0.11102 0.25006 0.63553 0.0
H639 H 0.09989 0.2824 0.51481 0.0
H640 H 0.12586 0.15442 0.50372 0.0
H641 H 0.1385 0.22167 0.5193 0.0
H642 H 0.05468 0.20876 0.60739 0.0
H643 H 0.04174 0.14181 0.59179 0.0
C644 C 0.11087 0.3099 0.6221 0.0
C645 C 0.10698 0.33834 0.59326 0.0
C646 C 0.10943 0.27158 0.61259 0.0
C647 C 0.10459 0.26107 0.57396 0.0
C648 C 0.10358 0.28979 0.54483 0.0
C649 C 0.10469 0.32829 0.55449 0.0
C650 C 0.11026 0.1659 0.52655 0.0
C651 C 0.0828 0.14277 0.54659 0.0
C652 C 0.1174 0.2044 0.53527 0.0
C653 C 0.09772 0.22027 0.56463 0.0
C654 C 0.07059 0.19708 0.5849 0.0
C655 C 0.06303 0.15882 0.57582 0.0
H656 H 0.67866 0.24411 0.43688 0.0
H657 H 0.58492 0.17221 0.48056 0.0
H658 H 0.64481 0.30081 0.44901 0.0
H659 H 0.55016 0.22884 0.49199 0.0
H660 H 0.51708 0.34516 0.53746 0.0
H661 H 0.55018 0.287 0.53048 0.0
H662 H 0.58877 0.32885 0.41929 0.0
H663 H 0.55632 0.38698 0.42632 0.0
C664 C 0.65106 0.24066 0.44982 0.0
C665 C 0.63434 0.2041 0.45807 0.0
C666 C 0.6314 0.27295 0.45623 0.0
C667 C 0.59455 0.26929 0.47096 0.0
C668 C 0.57853 0.23263 0.48075 0.0
C669 C 0.59826 0.20031 0.47426 0.0
C670 C 0.53229 0.34179 0.51133 0.0
C671 C 0.5342 0.37093 0.48257 0.0
C672 C 0.55124 0.30843 0.50736 0.0
C673 C 0.5726 0.30359 0.47462 0.0
C674 C 0.57331 0.33209 0.44529 0.0
C675 C 0.55436 0.36531 0.44919 0.0
loop_
_geom_bond_atom_site_label_1
_geom_bond_atom_site_label_2
_geom_bond_distance
_geom_bond_site_symmetry_2
_ccdc_geom_bond_type
C0 N1 1.317 . S
C0 N2 1.348 . S
C0 C3 1.485 . S
N1 C0 1.317 . S
N1 N5 1.370 . S
N2 C0 1.348 . S
N2 C4 1.346 . S
C3 C0 1.485 . S
C3 H7 0.960 . S
C3 H8 0.961 . S
C3 H9 0.960 . S
C4 N2 1.346 . S
C4 N5 1.307 . S
C4 C6 1.486 . S
N5 N1 1.370 . S
N5 C4 1.307 . S
C6 C4 1.486 . S
C6 H10 0.960 . S
C6 H11 0.960 . S
C6 H12 0.959 . S
H7 C3 0.960 . S
H8 C3 0.961 . S
H9 C3 0.960 . S
H10 C6 0.960 . S
H11 C6 0.960 . S
H12 C6 0.959 . S
C13 N14 1.317 . S
C13 N15 1.348 . S
C13 C16 1.485 . S
N14 C13 1.317 . S
N14 N18 1.370 . S
N15 C13 1.348 . S
N15 C17 1.346 . S
C16 C13 1.485 . S
C16 H20 0.960 . S
C16 H21 0.961 . S
C16 H22 0.960 . S
C17 N15 1.346 . S
C17 N18 1.307 . S
C17 C19 1.486 . S
N18 N14 1.370 . S
N18 C17 1.307 . S
C19 C17 1.486 . S
C19 H23 0.960 . S
C19 H24 0.960 . S
C19 H25 0.959 . S
H20 C16 0.960 . S
H21 C16 0.961 . S
H22 C16 0.960 . S
H23 C19 0.960 . S
H24 C19 0.960 . S
H25 C19 0.959 . S
C26 N27 1.317 . S
C26 N28 1.348 . S
C26 C29 1.485 . S
N27 C26 1.317 . S
N27 N31 1.370 . S
N28 C26 1.348 . S
N28 C30 1.346 . S
C29 C26 1.485 . S
C29 H33 0.960 . S
C29 H34 0.961 . S
C29 H35 0.960 . S
C30 N28 1.346 . S
C30 N31 1.307 . S
C30 C32 1.486 . S
N31 N27 1.370 . S
N31 C30 1.307 . S
C32 C30 1.486 . S
C32 H36 0.960 . S
C32 H37 0.960 . S
C32 H38 0.959 . S
H33 C29 0.960 . S
H34 C29 0.961 . S
H35 C29 0.960 . S
H36 C32 0.960 . S
H37 C32 0.960 . S
H38 C32 0.959 . S
C39 N40 1.317 . S
C39 N41 1.348 . S
C39 C42 1.485 . S
N40 C39 1.317 . S
N40 N44 1.370 . S
N41 C39 1.348 . S
N41 C43 1.346 . S
C42 C39 1.485 . S
C42 H46 0.960 . S
C42 H47 0.961 . S
C42 H48 0.960 . S
C43 N41 1.346 . S
C43 N44 1.307 . S
C43 C45 1.486 . S
N44 N40 1.370 . S
N44 C43 1.307 . S
C45 C43 1.486 . S
C45 H49 0.960 . S
C45 H50 0.960 . S
C45 H51 0.959 . S
H46 C42 0.960 . S
H47 C42 0.961 . S
H48 C42 0.960 . S
H49 C45 0.960 . S
H50 C45 0.960 . S
H51 C45 0.959 . S
C52 N53 1.317 . S
C52 N54 1.348 . S
C52 C55 1.485 . S
N53 C52 1.317 . S
N53 N57 1.370 . S
N54 C52 1.348 . S
N54 C56 1.346 . S
C55 C52 1.485 . S
C55 H59 0.960 . S
C55 H60 0.961 1_556 S
C55 H61 0.960 1_556 S
C56 N54 1.346 . S
C56 N57 1.307 . S
C56 C58 1.486 1_565 S
N57 N53 1.370 . S
N57 C56 1.307 . S
C58 C56 1.486 1_545 S
C58 H62 0.960 . S
C58 H63 0.960 . S
C58 H64 0.959 . S
H59 C55 0.960 . S
H60 C55 0.961 1_554 S
H61 C55 0.960 1_554 S
H62 C58 0.960 . S
H63 C58 0.960 . S
H64 C58 0.959 . S
C65 N66 1.317 . S
C65 N67 1.348 . S
C65 C68 1.485 . S
N66 C65 1.317 . S
N66 N70 1.370 . S
N67 C65 1.348 . S
N67 C69 1.346 . S
C68 C65 1.485 . S
C68 H72 0.960 . S
C68 H73 0.961 . S
C68 H74 0.960 . S
C69 N67 1.346 . S
C69 N70 1.307 . S
C69 C71 1.486 . S
N70 N66 1.370 . S
N70 C69 1.307 . S
C71 C69 1.486 . S
C71 H75 0.960 . S
C71 H76 0.960 . S
C71 H77 0.959 . S
H72 C68 0.960 . S
H73 C68 0.961 . S
H74 C68 0.960 . S
H75 C71 0.960 . S
H76 C71 0.960 . S
H77 C71 0.959 . S
C78 N79 1.317 . S
C78 N80 1.348 . S
C78 C81 1.485 . S
N79 C78 1.317 . S
N79 N83 1.370 . S
N80 C78 1.348 . S
N80 C82 1.346 . S
C81 C78 1.485 . S
C81 H85 0.960 . S
C81 H86 0.961 . S
C81 H87 0.960 . S
C82 N80 1.346 . S
C82 N83 1.307 . S
C82 C84 1.486 . S
N83 N79 1.370 . S
N83 C82 1.307 . S
C84 C82 1.486 . S
C84 H88 0.960 . S
C84 H89 0.960 . S
C84 H90 0.959 . S
H85 C81 0.960 . S
H86 C81 0.961 . S
H87 C81 0.960 . S
H88 C84 0.960 . S
H89 C84 0.960 . S
H90 C84 0.959 . S
C91 N92 1.317 . S
C91 N93 1.348 . S
C91 C94 1.485 . S
N92 C91 1.317 . S
N92 N96 1.370 . S
N93 C91 1.348 . S
N93 C95 1.346 . S
C94 C91 1.485 . S
C94 H98 0.960 . S
C94 H99 0.961 . S
C94 H100 0.960 . S
C95 N93 1.346 . S
C95 N96 1.307 . S
C95 C97 1.486 . S
N96 N92 1.370 . S
N96 C95 1.307 . S
C97 C95 1.486 . S
C97 H101 0.960 . S
C97 H102 0.960 . S
C97 H103 0.959 . S
H98 C94 0.960 . S
H99 C94 0.961 . S
H100 C94 0.960 . S
H101 C97 0.960 . S
H102 C97 0.960 . S
H103 C97 0.959 . S
O104 Zn105 1.953 . S
O104 C120 1.225 . S
Zn105 O104 1.953 . S
Zn105 O106 1.949 . S
Zn105 O112 1.919 1_455 S
Zn105 O117 1.924 . S
O106 Zn105 1.949 . S
O106 Zn107 1.923 1_545 S
O106 Zn108 1.950 . S
O106 Zn109 1.945 1_545 S
Zn107 O106 1.923 1_565 S
Zn107 O110 1.933 . S
Zn107 O113 1.941 1_465 S
Zn107 O114 1.965 1_565 S
Zn108 O106 1.950 . S
Zn108 O115 1.938 . S
Zn108 O116 1.906 . S
Zn108 O126 1.953 . S
Zn109 O106 1.945 1_565 S
Zn109 O111 1.932 . S
Zn109 O118 1.977 . S
Zn109 O119 1.910 . S
O110 Zn107 1.933 . S
O110 C121 1.226 . S
O111 Zn109 1.932 . S
O111 C121 1.307 . S
O112 Zn105 1.919 1_655 S
O112 C123 1.253 . S
O113 Zn107 1.941 1_645 S
O113 C123 1.283 . S
O114 Zn107 1.965 1_545 S
O114 C122 1.303 . S
O115 Zn108 1.938 . S
O115 C122 1.247 . S
O116 Zn108 1.906 . S
O116 C124 1.304 1_545 S
O117 Zn105 1.924 . S
O117 C125 1.311 1_545 S
O118 Zn109 1.977 . S
O118 C124 1.272 . S
O119 Zn109 1.910 . S
O119 C125 1.231 . S
C120 O104 1.225 . S
C120 O126 1.298 . S
C121 O110 1.226 . S
C121 O111 1.307 . S
C122 O114 1.303 . S
C122 O115 1.247 . S
C123 O112 1.253 . S
C123 O113 1.283 . S
C124 O116 1.304 1_565 S
C124 O118 1.272 . S
C125 O117 1.311 1_565 S
C125 O119 1.231 . S
O126 Zn108 1.953 . S
O126 C120 1.298 . S
O127 Zn128 1.958 . S
O127 C143 1.238 . S
Zn128 O127 1.958 . S
Zn128 O129 1.949 . S
Zn128 O135 1.919 1_554 S
Zn128 O140 1.924 . S
O129 Zn128 1.949 . S
O129 Zn130 1.923 1_545 S
O129 Zn131 1.950 . S
O129 Zn132 1.945 . S
Zn130 O129 1.923 1_565 S
Zn130 O133 1.933 . S
Zn130 O136 1.941 1_554 S
Zn130 O137 1.965 . S
Zn131 O129 1.950 . S
Zn131 O138 1.938 . S
Zn131 O139 1.906 . S
Zn131 O149 1.953 . S
Zn132 O129 1.945 . S
Zn132 O134 1.932 1_545 S
Zn132 O141 1.977 . S
Zn132 O142 1.910 . S
O133 Zn130 1.933 . S
O133 C144 1.226 . S
O134 Zn132 1.932 1_565 S
O134 C144 1.307 . S
O135 Zn128 1.919 1_556 S
O135 C146 1.253 1_545 S
O136 Zn130 1.941 1_556 S
O136 C146 1.283 . S
O137 Zn130 1.965 . S
O137 C145 1.303 1_565 S
O138 Zn131 1.938 . S
O138 C145 1.247 . S
O139 Zn131 1.906 . S
O139 C147 1.304 . S
O140 Zn128 1.924 . S
O140 C148 1.311 . S
O141 Zn132 1.977 . S
O141 C147 1.272 . S
O142 Zn132 1.910 . S
O142 C148 1.231 . S
C143 O127 1.238 . S
C143 O149 1.298 . S
C144 O133 1.226 . S
C144 O134 1.307 . S
C145 O137 1.303 1_545 S
C145 O138 1.247 . S
C146 O135 1.253 1_565 S
C146 O136 1.283 . S
C147 O139 1.304 . S
C147 O141 1.272 . S
C148 O140 1.311 . S
C148 O142 1.231 . S
O149 Zn131 1.953 . S
O149 C143 1.298 . S
O150 Zn151 1.953 . S
O150 C166 1.225 . S
Zn151 O150 1.953 . S
Zn151 O152 1.949 . S
Zn151 O158 1.919 . S
Zn151 O163 1.924 . S
O152 Zn151 1.949 . S
O152 Zn153 1.923 . S
O152 Zn154 1.950 . S
O152 Zn155 1.945 . S
Zn153 O152 1.923 . S
Zn153 O156 1.933 . S
Zn153 O159 1.941 . S
Zn153 O160 1.965 . S
Zn154 O152 1.950 . S
Zn154 O161 1.938 . S
Zn154 O162 1.906 . S
Zn154 O172 1.953 . S
Zn155 O152 1.945 . S
Zn155 O157 1.932 . S
Zn155 O164 1.977 . S
Zn155 O165 1.910 . S
O156 Zn153 1.933 . S
O156 C167 1.226 . S
O157 Zn155 1.932 . S
O157 C167 1.307 . S
O158 Zn151 1.919 . S
O158 C169 1.253 . S
O159 Zn153 1.941 . S
O159 C169 1.283 . S
O160 Zn153 1.965 . S
O160 C168 1.303 . S
O161 Zn154 1.938 . S
O161 C168 1.247 . S
O162 Zn154 1.906 . S
O162 C170 1.304 . S
O163 Zn151 1.924 . S
O163 C171 1.311 . S
O164 Zn155 1.977 . S
O164 C170 1.272 . S
O165 Zn155 1.910 . S
O165 C171 1.231 . S
C166 O150 1.225 . S
C166 O172 1.298 . S
C167 O156 1.226 . S
C167 O157 1.307 . S
C168 O160 1.303 . S
C168 O161 1.247 . S
C169 O158 1.253 . S
C169 O159 1.283 . S
C170 O162 1.304 . S
C170 O164 1.272 . S
C171 O163 1.311 . S
C171 O165 1.231 . S
O172 Zn154 1.953 . S
O172 C166 1.298 . S
O173 Zn174 1.953 . S
O173 C189 1.225 . S
Zn174 O173 1.953 . S
Zn174 O175 1.949 1_655 S
Zn174 O181 1.934 . S
Zn174 O186 1.924 . S
O175 Zn174 1.949 1_455 S
O175 Zn176 1.923 1_454 S
O175 Zn177 1.950 . S
O175 Zn178 1.945 1_554 S
Zn176 O175 1.923 1_656 S
Zn176 O179 1.933 1_655 S
Zn176 O182 1.941 . S
Zn176 O183 1.965 . S
Zn177 O175 1.950 . S
Zn177 O184 1.938 . S
Zn177 O185 1.906 . S
Zn177 O195 1.953 . S
Zn178 O175 1.945 1_556 S
Zn178 O180 1.932 . S
Zn178 O187 1.977 1_556 S
Zn178 O188 1.910 1_556 S
O179 Zn176 1.933 1_455 S
O179 C190 1.226 . S
O180 Zn178 1.932 . S
O180 C190 1.307 . S
O181 Zn174 1.934 . S
O181 C192 1.226 1_554 S
O182 Zn176 1.941 . S
O182 C192 1.283 . S
O183 Zn176 1.965 . S
O183 C191 1.303 . S
O184 Zn177 1.938 . S
O184 C191 1.247 1_454 S
O185 Zn177 1.906 . S
O185 C193 1.304 . S
O186 Zn174 1.924 . S
O186 C194 1.311 1_655 S
O187 Zn178 1.977 1_554 S
O187 C193 1.272 . S
O188 Zn178 1.910 1_554 S
O188 C194 1.231 . S
C189 O173 1.225 . S
C189 O195 1.298 1_655 S
C190 O179 1.226 . S
C190 O180 1.307 . S
C191 O183 1.303 . S
C191 O184 1.247 1_656 S
C192 O181 1.226 1_556 S
C192 O182 1.283 . S
C193 O185 1.304 . S
C193 O187 1.272 . S
C194 O186 1.311 1_455 S
C194 O188 1.231 . S
O195 Zn177 1.953 . S
O195 C189 1.298 1_455 S
H196 C204 0.950 . S
H197 C209 0.950 . S
H198 C206 0.950 . S
H199 C208 0.950 . S
H200 C210 0.950 . S
H201 C212 0.950 . S
H202 C214 0.950 . S
H203 C215 0.950 . S
C204 H196 0.950 . S
C204 C205 1.386 . S
C204 C206 1.391 . S
C205 C204 1.386 . S
C205 C209 1.393 . S
C206 H198 0.950 . S
C206 C204 1.391 . S
C206 C207 1.400 . S
C207 C206 1.400 . S
C207 C208 1.398 . S
C207 C213 1.491 . S
C208 H199 0.950 . S
C208 C207 1.398 . S
C208 C209 1.391 . S
C209 H197 0.950 . S
C209 C205 1.393 . S
C209 C208 1.391 . S
C210 H200 0.950 . S
C210 C211 1.386 . S
C210 C212 1.391 . S
C211 C210 1.386 . S
C211 C215 1.393 . S
C212 H201 0.950 . S
C212 C210 1.391 . S
C212 C213 1.400 . S
C213 C207 1.491 . S
C213 C212 1.400 . S
C213 C214 1.398 . S
C214 H202 0.950 . S
C214 C213 1.398 . S
C214 C215 1.391 . S
C215 H203 0.950 . S
C215 C211 1.393 . S
C215 C214 1.391 . S
H216 C224 0.950 . S
H217 C229 0.950 . S
H218 C226 0.950 . S
H219 C228 0.950 . S
H220 C230 0.950 . S
H221 C232 0.950 . S
H222 C234 0.950 . S
H223 C235 0.950 . S
C224 H216 0.950 . S
C224 C225 1.386 . S
C224 C226 1.391 . S
C225 C224 1.386 . S
C225 C229 1.393 . S
C226 H218 0.950 . S
C226 C224 1.391 . S
C226 C227 1.400 . S
C227 C226 1.400 . S
C227 C228 1.398 . S
C227 C233 1.491 . S
C228 H219 0.950 . S
C228 C227 1.398 . S
C228 C229 1.391 . S
C229 H217 0.950 . S
C229 C225 1.393 . S
C229 C228 1.391 . S
C230 H220 0.950 . S
C230 C231 1.386 . S
C230 C232 1.391 . S
C231 C230 1.386 . S
C231 C235 1.393 . S
C232 H221 0.950 . S
C232 C230 1.391 . S
C232 C233 1.400 . S
C233 C227 1.491 . S
C233 C232 1.400 . S
C233 C234 1.398 . S
C234 H222 0.950 . S
C234 C233 1.398 . S
C234 C235 1.391 . S
C235 H223 0.950 . S
C235 C231 1.393 . S
C235 C234 1.391 . S
H236 C244 0.950 . S
H237 C249 0.950 . S
H238 C246 0.950 . S
H239 C248 0.950 . S
H240 C250 0.950 . S
H241 C252 0.950 . S
H242 C254 0.950 . S
H243 C255 0.950 . S
C244 H236 0.950 . S
C244 C245 1.386 . S
C244 C246 1.391 . S
C245 C244 1.386 . S
C245 C249 1.393 . S
C246 H238 0.950 . S
C246 C244 1.391 . S
C246 C247 1.400 . S
C247 C246 1.400 . S
C247 C248 1.398 . S
C247 C253 1.491 . S
C248 H239 0.950 . S
C248 C247 1.398 . S
C248 C249 1.391 . S
C249 H237 0.950 . S
C249 C245 1.393 . S
C249 C248 1.391 . S
C250 H240 0.950 . S
C250 C251 1.386 . S
C250 C252 1.391 . S
C251 C250 1.386 . S
C251 C255 1.393 . S
C252 H241 0.950 . S
C252 C250 1.391 . S
C252 C253 1.400 . S
C253 C247 1.491 . S
C253 C252 1.400 . S
C253 C254 1.398 . S
C254 H242 0.950 . S
C254 C253 1.398 . S
C254 C255 1.391 . S
C255 H243 0.950 . S
C255 C251 1.393 . S
C255 C254 1.391 . S
H256 C264 0.950 . S
H257 C269 0.950 . S
H258 C266 0.950 . S
H259 C268 0.950 . S
H260 C270 0.950 . S
H261 C272 0.950 . S
H262 C274 0.950 . S
H263 C275 0.950 . S
C264 H256 0.950 . S
C264 C265 1.386 . S
C264 C266 1.391 . S
C265 C264 1.386 . S
C265 C269 1.393 . S
C266 H258 0.950 . S
C266 C264 1.391 . S
C266 C267 1.400 . S
C267 C266 1.400 . S
C267 C268 1.398 . S
C267 C273 1.491 . S
C268 H259 0.950 . S
C268 C267 1.398 . S
C268 C269 1.391 . S
C269 H257 0.950 . S
C269 C265 1.393 . S
C269 C268 1.391 . S
C270 H260 0.950 . S
C270 C271 1.386 . S
C270 C272 1.391 . S
C271 C270 1.386 . S
C271 C275 1.393 . S
C272 H261 0.950 . S
C272 C270 1.391 . S
C272 C273 1.400 . S
C273 C267 1.491 . S
C273 C272 1.400 . S
C273 C274 1.398 . S
C274 H262 0.950 . S
C274 C273 1.398 . S
C274 C275 1.391 . S
C275 H263 0.950 . S
C275 C271 1.393 . S
C275 C274 1.391 . S
H276 C284 0.950 . S
H277 C289 0.950 . S
H278 C286 0.950 . S
H279 C288 0.950 . S
H280 C290 0.950 . S
H281 C292 0.950 . S
H282 C294 0.950 . S
H283 C295 0.950 . S
C284 H276 0.950 . S
C284 C285 1.386 . S
C284 C286 1.391 . S
C285 C284 1.386 . S
C285 C289 1.393 . S
C286 H278 0.950 . S
C286 C284 1.391 . S
C286 C287 1.400 . S
C287 C286 1.400 . S
C287 C288 1.398 . S
C287 C293 1.491 . S
C288 H279 0.950 . S
C288 C287 1.398 . S
C288 C289 1.391 . S
C289 H277 0.950 . S
C289 C285 1.393 . S
C289 C288 1.391 . S
C290 H280 0.950 . S
C290 C291 1.386 . S
C290 C292 1.391 . S
C291 C290 1.386 . S
C291 C295 1.393 . S
C292 H281 0.950 . S
C292 C290 1.391 . S
C292 C293 1.400 . S
C293 C287 1.491 . S
C293 C292 1.400 . S
C293 C294 1.398 . S
C294 H282 0.950 . S
C294 C293 1.398 . S
C294 C295 1.391 . S
C295 H283 0.950 . S
C295 C291 1.393 . S
C295 C294 1.391 . S
H296 C304 0.950 . S
H297 C309 0.950 . S
H298 C306 0.950 . S
H299 C308 0.950 . S
H300 C310 0.950 . S
H301 C312 0.950 . S
H302 C314 0.950 . S
H303 C315 0.950 . S
C304 H296 0.950 . S
C304 C305 1.386 . S
C304 C306 1.391 . S
C305 C304 1.386 . S
C305 C309 1.393 . S
C306 H298 0.950 . S
C306 C304 1.391 . S
C306 C307 1.400 . S
C307 C306 1.400 . S
C307 C308 1.398 . S
C307 C313 1.491 . S
C308 H299 0.950 . S
C308 C307 1.398 . S
C308 C309 1.391 . S
C309 H297 0.950 . S
C309 C305 1.393 . S
C309 C308 1.391 . S
C310 H300 0.950 . S
C310 C311 1.386 . S
C310 C312 1.391 . S
C311 C310 1.386 . S
C311 C315 1.393 . S
C312 H301 0.950 . S
C312 C310 1.391 . S
C312 C313 1.400 . S
C313 C307 1.491 . S
C313 C312 1.400 . S
C313 C314 1.398 . S
C314 H302 0.950 . S
C314 C313 1.398 . S
C314 C315 1.391 . S
C315 H303 0.950 . S
C315 C311 1.393 . S
C315 C314 1.391 . S
H316 C324 0.950 . S
H317 C329 0.950 . S
H318 C326 0.950 . S
H319 C328 0.950 . S
H320 C330 0.950 . S
H321 C332 0.950 . S
H322 C334 0.950 . S
H323 C335 0.950 1_554 S
C324 H316 0.950 . S
C324 C325 1.386 . S
C324 C326 1.391 . S
C325 C324 1.386 . S
C325 C329 1.393 . S
C326 H318 0.950 . S
C326 C324 1.391 . S
C326 C327 1.400 . S
C327 C326 1.400 . S
C327 C328 1.398 . S
C327 C333 1.491 . S
C328 H319 0.950 . S
C328 C327 1.398 . S
C328 C329 1.391 . S
C329 H317 0.950 . S
C329 C325 1.393 . S
C329 C328 1.391 . S
C330 H320 0.950 . S
C330 C331 1.386 . S
C330 C332 1.391 . S
C331 C330 1.386 . S
C331 C335 1.393 . S
C332 H321 0.950 . S
C332 C330 1.391 . S
C332 C333 1.400 . S
C333 C327 1.491 . S
C333 C332 1.400 . S
C333 C334 1.398 . S
C334 H322 0.950 . S
C334 C333 1.398 . S
C334 C335 1.391 . S
C335 H323 0.950 1_556 S
C335 C331 1.393 . S
C335 C334 1.391 . S
H336 C344 0.950 . S
H337 C349 0.950 . S
H338 C346 0.950 . S
H339 C348 0.950 . S
H340 C350 0.950 . S
H341 C352 0.950 . S
H342 C354 0.950 . S
H343 C355 0.950 . S
C344 H336 0.950 . S
C344 C345 1.386 . S
C344 C346 1.391 . S
C345 C344 1.386 . S
C345 C349 1.393 . S
C346 H338 0.950 . S
C346 C344 1.391 . S
C346 C347 1.400 . S
C347 C346 1.400 . S
C347 C348 1.398 . S
C347 C353 1.491 . S
C348 H339 0.950 . S
C348 C347 1.398 . S
C348 C349 1.391 . S
C349 H337 0.950 . S
C349 C345 1.393 . S
C349 C348 1.391 . S
C350 H340 0.950 . S
C350 C351 1.386 . S
C350 C352 1.391 . S
C351 C350 1.386 . S
C351 C355 1.393 . S
C352 H341 0.950 . S
C352 C350 1.391 . S
C352 C353 1.400 . S
C353 C347 1.491 . S
C353 C352 1.400 . S
C353 C354 1.398 . S
C354 H342 0.950 . S
C354 C353 1.398 . S
C354 C355 1.391 . S
C355 H343 0.950 . S
C355 C351 1.393 . S
C355 C354 1.391 . S
H356 C364 0.950 . S
H357 C369 0.950 . S
H358 C366 0.950 . S
H359 C368 0.950 . S
H360 C370 0.950 . S
H361 C372 0.950 . S
H362 C374 0.950 . S
H363 C375 0.950 . S
C364 H356 0.950 . S
C364 C365 1.386 . S
C364 C366 1.391 . S
C365 C364 1.386 . S
C365 C369 1.393 . S
C366 H358 0.950 . S
C366 C364 1.391 . S
C366 C367 1.400 . S
C367 C366 1.400 . S
C367 C368 1.398 . S
C367 C373 1.491 . S
C368 H359 0.950 . S
C368 C367 1.398 . S
C368 C369 1.391 . S
C369 H357 0.950 . S
C369 C365 1.393 . S
C369 C368 1.391 . S
C370 H360 0.950 . S
C370 C371 1.386 . S
C370 C372 1.391 . S
C371 C370 1.386 . S
C371 C375 1.393 . S
C372 H361 0.950 . S
C372 C370 1.391 . S
C372 C373 1.400 . S
C373 C367 1.491 . S
C373 C372 1.400 . S
C373 C374 1.398 . S
C374 H362 0.950 . S
C374 C373 1.398 . S
C374 C375 1.391 . S
C375 H363 0.950 . S
C375 C371 1.393 . S
C375 C374 1.391 . S
H376 C384 0.950 . S
H377 C389 0.950 . S
H378 C386 0.950 . S
H379 C388 0.950 1_554 S
H380 C390 0.950 . S
H381 C392 0.950 . S
H382 C394 0.950 . S
H383 C395 0.950 . S
C384 H376 0.950 . S
C384 C385 1.386 . S
C384 C386 1.391 . S
C385 C384 1.386 . S
C385 C389 1.393 . S
C386 H378 0.950 . S
C386 C384 1.391 . S
C386 C387 1.400 . S
C387 C386 1.400 . S
C387 C388 1.398 . S
C387 C393 1.491 . S
C388 H379 0.950 1_556 S
C388 C387 1.398 . S
C388 C389 1.391 . S
C389 H377 0.950 . S
C389 C385 1.393 . S
C389 C388 1.391 . S
C390 H380 0.950 . S
C390 C391 1.386 . S
C390 C392 1.391 . S
C391 C390 1.386 . S
C391 C395 1.393 1_554 S
C392 H381 0.950 . S
C392 C390 1.391 . S
C392 C393 1.400 1_554 S
C393 C387 1.491 . S
C393 C392 1.400 1_556 S
C393 C394 1.398 . S
C394 H382 0.950 . S
C394 C393 1.398 . S
C394 C395 1.391 . S
C395 H383 0.950 . S
C395 C391 1.393 1_556 S
C395 C394 1.391 . S
H396 C404 0.950 . S
H397 C409 0.950 . S
H398 C406 0.950 . S
H399 C408 0.950 . S
H400 C410 0.950 . S
H401 C412 0.951 1_455 S
H402 C414 0.950 . S
H403 C415 0.950 . S
C404 H396 0.950 . S
C404 C405 1.386 . S
C404 C406 1.391 . S
C405 C404 1.386 . S
C405 C409 1.393 . S
C406 H398 0.950 . S
C406 C404 1.391 . S
C406 C407 1.400 . S
C407 C406 1.400 . S
C407 C408 1.398 . S
C407 C413 1.491 . S
C408 H399 0.950 . S
C408 C407 1.398 . S
C408 C409 1.391 . S
C409 H397 0.950 . S
C409 C405 1.393 . S
C409 C408 1.391 . S
C410 H400 0.950 . S
C410 C411 1.375 1_455 S
C410 C412 1.392 1_455 S
C411 C410 1.375 1_655 S
C411 C415 1.412 . S
C412 H401 0.951 1_655 S
C412 C410 1.392 1_655 S
C412 C413 1.399 . S
C413 C407 1.491 . S
C413 C412 1.399 . S
C413 C414 1.398 . S
C414 H402 0.950 . S
C414 C413 1.398 . S
C414 C415 1.391 . S
C415 H403 0.950 . S
C415 C411 1.412 . S
C415 C414 1.391 . S
H416 C424 0.950 . S
H417 C429 0.950 . S
H418 C426 0.950 . S
H419 C428 0.950 . S
H420 C430 0.950 . S
H421 C432 0.950 . S
H422 C434 0.950 . S
H423 C435 0.950 . S
C424 H416 0.950 . S
C424 C425 1.386 . S
C424 C426 1.391 . S
C425 C424 1.386 . S
C425 C429 1.393 . S
C426 H418 0.950 . S
C426 C424 1.391 . S
C426 C427 1.400 . S
C427 C426 1.400 . S
C427 C428 1.398 . S
C427 C433 1.491 . S
C428 H419 0.950 . S
C428 C427 1.398 . S
C428 C429 1.391 . S
C429 H417 0.950 . S
C429 C425 1.393 . S
C429 C428 1.391 . S
C430 H420 0.950 . S
C430 C431 1.386 . S
C430 C432 1.391 . S
C431 C430 1.386 . S
C431 C435 1.393 . S
C432 H421 0.950 . S
C432 C430 1.391 . S
C432 C433 1.400 . S
C433 C427 1.491 . S
C433 C432 1.400 . S
C433 C434 1.398 . S
C434 H422 0.950 . S
C434 C433 1.398 . S
C434 C435 1.391 . S
C435 H423 0.950 . S
C435 C431 1.393 . S
C435 C434 1.391 . S
H436 C444 0.950 . S
H437 C449 0.950 1_545 S
H438 C446 0.950 1_455 S
H439 C448 0.950 1_545 S
H440 C450 0.950 . S
H441 C452 0.950 . S
H442 C454 0.950 . S
H443 C455 0.950 . S
C444 H436 0.950 . S
C444 C445 1.386 . S
C444 C446 1.391 . S
C445 C444 1.386 . S
C445 C449 1.393 . S
C446 H438 0.950 1_655 S
C446 C444 1.391 . S
C446 C447 1.400 . S
C447 C446 1.400 . S
C447 C448 1.398 . S
C447 C453 1.491 . S
C448 H439 0.950 1_565 S
C448 C447 1.398 . S
C448 C449 1.391 . S
C449 H437 0.950 1_565 S
C449 C445 1.393 . S
C449 C448 1.391 . S
C450 H440 0.950 . S
C450 C451 1.386 1_645 S
C450 C452 1.391 . S
C451 C450 1.386 1_465 S
C451 C455 1.393 . S
C452 H441 0.950 . S
C452 C450 1.391 . S
C452 C453 1.400 1_545 S
C453 C447 1.491 . S
C453 C452 1.400 1_565 S
C453 C454 1.398 1_655 S
C454 H442 0.950 . S
C454 C453 1.398 1_455 S
C454 C455 1.391 . S
C455 H443 0.950 . S
C455 C451 1.393 . S
C455 C454 1.391 . S
H456 C464 0.950 . S
H457 C469 0.950 . S
H458 C466 0.950 . S
H459 C468 0.950 . S
H460 C470 0.950 1_565 S
H461 C472 0.950 1_565 S
H462 C474 0.950 . S
H463 C475 0.950 . S
C464 H456 0.950 . S
C464 C465 1.386 . S
C464 C466 1.391 . S
C465 C464 1.386 . S
C465 C469 1.393 . S
C466 H458 0.950 . S
C466 C464 1.391 . S
C466 C467 1.400 . S
C467 C466 1.400 . S
C467 C468 1.398 . S
C467 C473 1.491 . S
C468 H459 0.950 . S
C468 C467 1.398 . S
C468 C469 1.391 . S
C469 H457 0.950 . S
C469 C465 1.393 . S
C469 C468 1.391 . S
C470 H460 0.950 1_545 S
C470 C471 1.386 . S
C470 C472 1.391 . S
C471 C470 1.386 . S
C471 C475 1.393 . S
C472 H461 0.950 1_545 S
C472 C470 1.391 . S
C472 C473 1.400 . S
C473 C467 1.491 . S
C473 C472 1.400 . S
C473 C474 1.398 . S
C474 H462 0.950 . S
C474 C473 1.398 . S
C474 C475 1.391 . S
C475 H463 0.950 . S
C475 C471 1.393 . S
C475 C474 1.391 . S
H476 C484 0.950 . S
H477 C489 0.950 . S
H478 C486 0.950 . S
H479 C488 0.950 . S
H480 C490 0.950 . S
H481 C492 0.950 . S
H482 C494 0.950 . S
H483 C495 0.950 . S
C484 H476 0.950 . S
C484 C485 1.386 . S
C484 C486 1.391 . S
C485 C484 1.386 . S
C485 C489 1.393 . S
C486 H478 0.950 . S
C486 C484 1.391 . S
C486 C487 1.400 . S
C487 C486 1.400 . S
C487 C488 1.398 . S
C487 C493 1.491 . S
C488 H479 0.950 . S
C488 C487 1.398 . S
C488 C489 1.391 . S
C489 H477 0.950 . S
C489 C485 1.393 . S
C489 C488 1.391 . S
C490 H480 0.950 . S
C490 C491 1.386 . S
C490 C492 1.391 . S
C491 C490 1.386 . S
C491 C495 1.393 . S
C492 H481 0.950 . S
C492 C490 1.391 . S
C492 C493 1.400 . S
C493 C487 1.491 . S
C493 C492 1.400 . S
C493 C494 1.398 . S
C494 H482 0.950 . S
C494 C493 1.398 . S
C494 C495 1.391 . S
C495 H483 0.950 . S
C495 C491 1.393 . S
C495 C494 1.391 . S
H496 C504 0.950 . S
H497 C509 0.950 . S
H498 C506 0.950 . S
H499 C508 0.950 . S
H500 C510 0.950 . S
H501 C512 0.950 . S
H502 C514 0.958 . S
H503 C515 0.950 1_655 S
C504 H496 0.950 . S
C504 C505 1.386 . S
C504 C506 1.391 . S
C505 C504 1.386 . S
C505 C509 1.393 . S
C506 H498 0.950 . S
C506 C504 1.391 . S
C506 C507 1.400 . S
C507 C506 1.400 . S
C507 C508 1.398 . S
C507 C513 1.491 . S
C508 H499 0.950 . S
C508 C507 1.398 . S
C508 C509 1.391 . S
C509 H497 0.950 . S
C509 C505 1.393 . S
C509 C508 1.391 . S
C510 H500 0.950 . S
C510 C511 1.386 . S
C510 C512 1.391 . S
C511 C510 1.386 . S
C511 C515 1.393 . S
C512 H501 0.950 . S
C512 C510 1.391 . S
C512 C513 1.400 . S
C513 C507 1.491 . S
C513 C512 1.400 . S
C513 C514 1.398 . S
C514 H502 0.958 . S
C514 C513 1.398 . S
C514 C515 1.391 . S
C515 H503 0.950 1_455 S
C515 C511 1.393 . S
C515 C514 1.391 . S
H516 C524 0.950 . S
H517 C529 0.950 1_554 S
H518 C526 0.950 . S
H519 C528 0.950 . S
H520 C530 0.950 . S
H521 C532 0.950 . S
H522 C534 0.950 . S
H523 C535 0.950 . S
C524 H516 0.950 . S
C524 C525 1.386 . S
C524 C526 1.391 . S
C525 C524 1.386 . S
C525 C529 1.393 1_565 S
C526 H518 0.950 . S
C526 C524 1.391 . S
C526 C527 1.400 . S
C527 C526 1.400 . S
C527 C528 1.398 1_566 S
C527 C533 1.491 . S
C528 H519 0.950 . S
C528 C527 1.398 1_544 S
C528 C529 1.391 1_554 S
C529 H517 0.950 1_556 S
C529 C525 1.393 1_545 S
C529 C528 1.391 1_556 S
C530 H520 0.950 . S
C530 C531 1.386 . S
C530 C532 1.391 . S
C531 C530 1.386 . S
C531 C535 1.393 1_544 S
C532 H521 0.950 . S
C532 C530 1.391 . S
C532 C533 1.400 1_544 S
C533 C527 1.491 . S
C533 C532 1.400 1_566 S
C533 C534 1.398 . S
C534 H522 0.950 . S
C534 C533 1.398 . S
C534 C535 1.391 . S
C535 H523 0.950 . S
C535 C531 1.393 1_566 S
C535 C534 1.391 . S
H536 C544 0.950 . S
H537 C549 0.950 . S
H538 C546 0.950 . S
H539 C548 0.950 . S
H540 C550 0.950 1_565 S
H541 C552 0.950 1_565 S
H542 C554 0.950 . S
H543 C555 0.950 . S
C544 H536 0.950 . S
C544 C545 1.386 . S
C544 C546 1.391 . S
C545 C544 1.386 . S
C545 C549 1.393 . S
C546 H538 0.950 . S
C546 C544 1.391 . S
C546 C547 1.400 . S
C547 C546 1.400 . S
C547 C548 1.398 . S
C547 C553 1.491 . S
C548 H539 0.950 . S
C548 C547 1.398 . S
C548 C549 1.391 . S
C549 H537 0.950 . S
C549 C545 1.393 . S
C549 C548 1.391 . S
C550 H540 0.950 1_545 S
C550 C551 1.386 . S
C550 C552 1.391 . S
C551 C550 1.386 . S
C551 C555 1.393 . S
C552 H541 0.950 1_545 S
C552 C550 1.391 . S
C552 C553 1.400 . S
C553 C547 1.491 . S
C553 C552 1.400 . S
C553 C554 1.398 . S
C554 H542 0.950 . S
C554 C553 1.398 . S
C554 C555 1.391 . S
C555 H543 0.950 . S
C555 C551 1.393 . S
C555 C554 1.391 . S
H556 C564 0.950 . S
H557 C569 0.950 . S
H558 C566 0.950 . S
H559 C568 0.950 . S
H560 C570 0.950 . S
H561 C572 0.950 1_556 S
H562 C574 0.950 . S
H563 C575 0.950 . S
C564 H556 0.950 . S
C564 C565 1.386 . S
C564 C566 1.391 . S
C565 C564 1.386 . S
C565 C569 1.393 . S
C566 H558 0.950 . S
C566 C564 1.391 . S
C566 C567 1.400 . S
C567 C566 1.400 . S
C567 C568 1.398 . S
C567 C573 1.491 . S
C568 H559 0.950 . S
C568 C567 1.398 . S
C568 C569 1.391 . S
C569 H557 0.950 . S
C569 C565 1.393 . S
C569 C568 1.391 . S
C570 H560 0.950 . S
C570 C571 1.386 1_556 S
C570 C572 1.391 1_556 S
C571 C570 1.386 1_554 S
C571 C575 1.393 . S
C572 H561 0.950 1_554 S
C572 C570 1.391 1_554 S
C572 C573 1.400 . S
C573 C567 1.491 . S
C573 C572 1.400 . S
C573 C574 1.398 . S
C574 H562 0.950 . S
C574 C573 1.398 . S
C574 C575 1.391 . S
C575 H563 0.950 . S
C575 C571 1.393 . S
C575 C574 1.391 . S
H576 C584 0.950 . S
H577 C589 0.950 . S
H578 C586 0.950 . S
H579 C588 0.950 . S
H580 C590 0.950 . S
H581 C592 0.950 . S
H582 C594 0.950 . S
H583 C595 0.950 . S
C584 H576 0.950 . S
C584 C585 1.386 . S
C584 C586 1.391 . S
C585 C584 1.386 . S
C585 C589 1.393 . S
C586 H578 0.950 . S
C586 C584 1.391 . S
C586 C587 1.400 . S
C587 C586 1.400 . S
C587 C588 1.398 . S
C587 C593 1.491 . S
C588 H579 0.950 . S
C588 C587 1.398 . S
C588 C589 1.391 . S
C589 H577 0.950 . S
C589 C585 1.393 . S
C589 C588 1.391 . S
C590 H580 0.950 . S
C590 C591 1.386 . S
C590 C592 1.391 . S
C591 C590 1.386 . S
C591 C595 1.393 . S
C592 H581 0.950 . S
C592 C590 1.391 . S
C592 C593 1.400 . S
C593 C587 1.491 . S
C593 C592 1.400 . S
C593 C594 1.398 . S
C594 H582 0.950 . S
C594 C593 1.398 . S
C594 C595 1.391 . S
C595 H583 0.950 . S
C595 C591 1.393 . S
C595 C594 1.391 . S
H596 C604 0.950 . S
H597 C609 0.950 . S
H598 C606 0.950 1_554 S
H599 C608 0.950 . S
H600 C610 0.950 . S
H601 C612 0.950 . S
H602 C614 0.965 . S
H603 C615 0.950 . S
C604 H596 0.950 . S
C604 C605 1.386 . S
C604 C606 1.391 . S
C605 C604 1.386 . S
C605 C609 1.393 . S
C606 H598 0.950 1_556 S
C606 C604 1.391 . S
C606 C607 1.400 . S
C607 C606 1.400 . S
C607 C608 1.398 . S
C607 C613 1.491 . S
C608 H599 0.950 . S
C608 C607 1.398 . S
C608 C609 1.391 . S
C609 H597 0.950 . S
C609 C605 1.393 . S
C609 C608 1.391 . S
C610 H600 0.950 . S
C610 C611 1.386 . S
C610 C612 1.391 . S
C611 C610 1.386 . S
C611 C615 1.393 1_556 S
C612 H601 0.950 . S
C612 C610 1.391 . S
C612 C613 1.400 . S
C613 C607 1.491 . S
C613 C612 1.400 . S
C613 C614 1.381 1_556 S
C614 H602 0.965 . S
C614 C613 1.381 1_554 S
C614 C615 1.394 . S
C615 H603 0.950 . S
C615 C611 1.393 1_554 S
C615 C614 1.394 . S
H616 C624 0.950 . S
H617 C629 0.950 . S
H618 C626 0.950 . S
H619 C628 0.950 . S
H620 C630 0.950 . S
H621 C632 0.950 . S
H622 C634 0.950 . S
H623 C635 0.950 . S
C624 H616 0.950 . S
C624 C625 1.386 . S
C624 C626 1.391 . S
C625 C624 1.386 . S
C625 C629 1.393 . S
C626 H618 0.950 . S
C626 C624 1.391 . S
C626 C627 1.400 . S
C627 C626 1.400 . S
C627 C628 1.398 . S
C627 C633 1.491 . S
C628 H619 0.950 . S
C628 C627 1.398 . S
C628 C629 1.391 . S
C629 H617 0.950 . S
C629 C625 1.393 . S
C629 C628 1.391 . S
C630 H620 0.950 . S
C630 C631 1.386 . S
C630 C632 1.391 . S
C631 C630 1.386 . S
C631 C635 1.393 . S
C632 H621 0.950 . S
C632 C630 1.391 . S
C632 C633 1.400 . S
C633 C627 1.491 . S
C633 C632 1.400 . S
C633 C634 1.398 . S
C634 H622 0.950 . S
C634 C633 1.398 . S
C634 C635 1.391 . S
C635 H623 0.950 . S
C635 C631 1.393 . S
C635 C634 1.391 . S
H636 C644 0.950 . S
H637 C649 0.950 . S
H638 C646 0.950 . S
H639 C648 0.950 . S
H640 C650 0.950 . S
H641 C652 0.950 . S
H642 C654 0.950 . S
H643 C655 0.950 . S
C644 H636 0.950 . S
C644 C645 1.386 . S
C644 C646 1.391 . S
C645 C644 1.386 . S
C645 C649 1.393 . S
C646 H638 0.950 . S
C646 C644 1.391 . S
C646 C647 1.400 . S
C647 C646 1.400 . S
C647 C648 1.398 . S
C647 C653 1.491 . S
C648 H639 0.950 . S
C648 C647 1.398 . S
C648 C649 1.391 . S
C649 H637 0.950 . S
C649 C645 1.393 . S
C649 C648 1.391 . S
C650 H640 0.950 . S
C650 C651 1.386 . S
C650 C652 1.391 . S
C651 C650 1.386 . S
C651 C655 1.393 . S
C652 H641 0.950 . S
C652 C650 1.391 . S
C652 C653 1.400 . S
C653 C647 1.491 . S
C653 C652 1.400 . S
C653 C654 1.398 . S
C654 H642 0.950 . S
C654 C653 1.398 . S
C654 C655 1.391 . S
C655 H643 0.950 . S
C655 C651 1.393 . S
C655 C654 1.391 . S
H656 C664 0.950 . S
H657 C669 0.950 . S
H658 C666 0.950 . S
H659 C668 0.950 . S
H660 C670 0.950 . S
H661 C672 0.950 . S
H662 C674 0.950 . S
H663 C675 0.950 . S
C664 H656 0.950 . S
C664 C665 1.386 . S
C664 C666 1.391 . S
C665 C664 1.386 . S
C665 C669 1.393 . S
C666 H658 0.950 . S
C666 C664 1.391 . S
C666 C667 1.400 . S
C667 C666 1.400 . S
C667 C668 1.398 . S
C667 C673 1.491 . S
C668 H659 0.950 . S
C668 C667 1.398 . S
C668 C669 1.391 . S
C669 H657 0.950 . S
C669 C665 1.393 . S
C669 C668 1.391 . S
C670 H660 0.950 . S
C670 C671 1.386 . S
C670 C672 1.391 . S
C671 C670 1.386 . S
C671 C675 1.393 . S
C672 H661 0.950 . S
C672 C670 1.391 . S
C672 C673 1.400 . S
C673 C667 1.491 . S
C673 C672 1.400 . S
C673 C674 1.398 . S
C674 H662 0.950 . S
C674 C673 1.398 . S
C674 C675 1.391 . S
C675 H663 0.950 . S
C675 C671 1.393 . S
C675 C674 1.391 . S
C205 N1 1.530 . S
C211 C122 1.537 . S
C225 N18 1.895 . S
C231 C146 1.881 . S
C251 C166 0.997 . S
C245 N28 0.991 . S
C265 N40 1.580 . S
C271 C189 1.604 . S
C291 C148 1.975 . S
C285 N5 1.975 . S
C311 C124 1.701 . S
C305 N14 1.710 . S
C331 C192 1.507 . S
C325 N31 1.512 . S
C351 C169 1.191 . S
C345 N41 1.236 . S
C365 N2 1.369 . S
C371 C194 1.325 . S
C391 C143 1.685 . S
C385 N27 1.668 . S
C405 N44 1.696 . S
C411 C121 1.716 1_655 S
C425 N15 1.265 . S
C431 C171 1.257 . S
C451 C125 1.860 . S
C445 N57 1.845 . S
C465 N70 1.347 . S
C471 C147 1.358 . S
C485 N79 1.548 . S
C491 C167 1.627 . S
C505 N93 1.498 . S
C511 C190 1.528 . S
C525 N54 1.423 . S
C531 C145 1.428 . S
C551 C123 1.948 . S
C545 N66 1.933 . S
C571 C193 0.980 . S
C565 N80 0.993 . S
C591 C170 1.487 . S
C585 N96 1.502 . S
C605 N53 1.739 . S
C611 C191 1.727 . S
C631 C144 1.483 . S
C625 N83 1.450 . S
C651 C120 1.675 . S
C645 N92 1.622 . S
C665 N67 1.615 . S
C671 C168 1.634 . S
