# Generated by pormake.
# Topology zzz, (3,6)-cn, num edge types: 1
# Building blocks:
#     Node 0, Type 0, BuildingBlock: MIDCAF_clean_linker_0, # of connection points: 3
#     Node 1, Type 0, BuildingBlock: MIDCAF_clean_linker_0, # of connection points: 3
#     Node 2, Type 0, BuildingBlock: MIDCAF_clean_linker_0, # of connection points: 3
#     Node 3, Type 0, BuildingBlock: MIDCAF_clean_linker_0, # of connection points: 3
#     Node 4, Type 0, BuildingBlock: MIDCAF_clean_linker_0, # of connection points: 3
#     Node 5, Type 0, BuildingBlock: MIDCAF_clean_linker_0, # of connection points: 3
#     Node 6, Type 0, BuildingBlock: MIDCAF_clean_linker_0, # of connection points: 3
#     Node 7, Type 0, BuildingBlock: MIDCAF_clean_linker_0, # of connection points: 3
#     Node 8, Type 1, BuildingBlock: LEVNOQ01_clean_sbu_1, # of connection points: 6
#     Node 9, Type 1, BuildingBlock: LEVNOQ01_clean_sbu_1, # of connection points: 6
#     Node 10, Type 1, BuildingBlock: LEVNOQ01_clean_sbu_1, # of connection points: 6
#     Node 11, Type 1, BuildingBlock: LEVNOQ01_clean_sbu_1, # of connection points: 6
#     Edge 12, Type (0, 1), BuildingBlock: AJUNOK_clean_linker_0, # of connection points: 2
#     Edge 13, Type (0, 1), BuildingBlock: AJUNOK_clean_linker_0, # of connection points: 2
#     Edge 14, Type (0, 1), BuildingBlock: AJUNOK_clean_linker_0, # of connection points: 2
#     Edge 15, Type (0, 1), BuildingBlock: AJUNOK_clean_linker_0, # of connection points: 2
#     Edge 16, Type (0, 1), BuildingBlock: AJUNOK_clean_linker_0, # of connection points: 2
#     Edge 17, Type (0, 1), BuildingBlock: AJUNOK_clean_linker_0, # of connection points: 2
#     Edge 18, Type (0, 1), BuildingBlock: AJUNOK_clean_linker_0, # of connection points: 2
#     Edge 19, Type (0, 1), BuildingBlock: AJUNOK_clean_linker_0, # of connection points: 2
#     Edge 20, Type (0, 1), BuildingBlock: AJUNOK_clean_linker_0, # of connection points: 2
#     Edge 21, Type (0, 1), BuildingBlock: AJUNOK_clean_linker_0, # of connection points: 2
#     Edge 22, Type (0, 1), BuildingBlock: AJUNOK_clean_linker_0, # of connection points: 2
#     Edge 23, Type (0, 1), BuildingBlock: AJUNOK_clean_linker_0, # of connection points: 2
#     Edge 24, Type (0, 1), BuildingBlock: AJUNOK_clean_linker_0, # of connection points: 2
#     Edge 25, Type (0, 1), BuildingBlock: AJUNOK_clean_linker_0, # of connection points: 2
#     Edge 26, Type (0, 1), BuildingBlock: AJUNOK_clean_linker_0, # of connection points: 2
#     Edge 27, Type (0, 1), BuildingBlock: AJUNOK_clean_linker_0, # of connection points: 2
#     Edge 28, Type (0, 1), BuildingBlock: AJUNOK_clean_linker_0, # of connection points: 2
#     Edge 29, Type (0, 1), BuildingBlock: AJUNOK_clean_linker_0, # of connection points: 2
#     Edge 30, Type (0, 1), BuildingBlock: AJUNOK_clean_linker_0, # of connection points: 2
#     Edge 31, Type (0, 1), BuildingBlock: AJUNOK_clean_linker_0, # of connection points: 2
#     Edge 32, Type (0, 1), BuildingBlock: AJUNOK_clean_linker_0, # of connection points: 2
#     Edge 33, Type (0, 1), BuildingBlock: AJUNOK_clean_linker_0, # of connection points: 2
#     Edge 34, Type (0, 1), BuildingBlock: AJUNOK_clean_linker_0, # of connection points: 2
#     Edge 35, Type (0, 1), BuildingBlock: AJUNOK_clean_linker_0, # of connection points: 2
# Relax obj value: 0.309
# Max RMSD: 0.220
# Mean RMSD: 0.207
data_MOF--net-zzz--node1-LEVNOQ01_clean_sbu_1--node2-MIDCAF_clean_linker_0--edge1-AJUNOK_clean_linker_0
_symmetry_space_group_name_H-M    P1
_symmetry_Int_Tables_number       1
_symmetry_cell_setting            triclinic
loop_
_symmetry_equiv_pos_as_xyz
'x, y, z'
_cell_length_a     42.510497
_cell_length_b     45.133005
_cell_length_c     16.415755
_cell_angle_alpha  89.67702
_cell_angle_beta   90.099494
_cell_angle_gamma 88.277654
loop_
_atom_site_label
_atom_site_type_symbol
_atom_site_fract_x
_atom_site_fract_y
_atom_site_fract_z
_atom_type_partial_charge
C0 C 0.8477 0.60708 0.37471 0.0
C1 C 0.84211 0.58129 0.41995 0.0
C2 C 0.8123 0.56846 0.41228 0.0
C3 C 0.78975 0.57979 0.35638 0.0
H4 H 0.67373 0.62135 0.17929 0.0
H5 H 0.62683 0.60718 0.10061 0.0
H6 H 0.68499 0.54701 0.95886 0.0
H7 H 0.73102 0.56053 0.0373 0.0
H8 H 0.77588 0.60294 0.94132 0.0
H9 H 0.82006 0.57802 0.87384 0.0
H10 H 0.88472 0.62484 0.02553 0.0
H11 H 0.84071 0.6498 0.09359 0.0
H12 H 0.83118 0.63779 0.28421 0.0
H13 H 0.87033 0.61739 0.37697 0.0
H14 H 0.80687 0.54883 0.44709 0.0
H15 H 0.7681 0.56813 0.34802 0.0
N16 N 0.74826 0.60185 0.21708 0.0
N17 N 0.7528 0.61708 0.08009 0.0
N18 N 0.79416 0.62392 0.16991 0.0
C19 C 0.7353 0.60559 0.14091 0.0
C20 C 0.78227 0.62623 0.09378 0.0
C21 C 0.77789 0.61187 0.23202 0.0
C22 C 0.70586 0.59159 0.11539 0.0
C23 C 0.67605 0.60417 0.13372 0.0
C24 C 0.64939 0.59639 0.08809 0.0
C25 C 0.65249 0.57635 0.02296 0.0
C26 C 0.68199 0.56268 0.00824 0.0
C27 C 0.70825 0.57013 0.05389 0.0
C28 C 0.80491 0.62708 0.02589 0.0
C29 C 0.79946 0.60923 0.95756 0.0
C30 C 0.8247 0.59457 0.91952 0.0
C31 C 0.85542 0.59865 0.9475 0.0
C32 C 0.86107 0.621 0.00418 0.0
C33 C 0.83584 0.63547 0.04263 0.0
C34 C 0.7964 0.60441 0.30731 0.0
C35 C 0.82509 0.61866 0.32039 0.0
C36 C 0.97078 0.83256 0.40934 0.0
C37 C 0.99575 0.82876 0.46497 0.0
C38 C 0.01408 0.80207 0.46071 0.0
C39 C 0.01 0.78174 0.39668 0.0
H40 H 0.04467 0.69628 0.16975 0.0
H41 H 0.05508 0.65427 0.07725 0.0
H42 H 0.96273 0.66743 0.97233 0.0
H43 H 0.95226 0.70886 0.06474 0.0
H44 H 0.97601 0.78825 0.95261 0.0
H45 H 0.98366 0.82971 0.85566 0.0
H46 H 0.03387 0.87636 0.0416 0.0
H47 H 0.02607 0.83626 0.13704 0.0
H48 H 0.94862 0.81734 0.30094 0.0
H49 H 0.95602 0.85254 0.41007 0.0
H50 H 0.03281 0.79764 0.50422 0.0
H51 H 0.0265 0.76315 0.39051 0.0
N52 N 0.9927 0.74496 0.23473 0.0
N53 N 0.99634 0.75757 0.09487 0.0
N54 N 0.9914 0.79477 0.19206 0.0
C55 C 0.99531 0.73656 0.15429 0.0
C56 C 0.99474 0.78659 0.1137 0.0
C57 C 0.99008 0.77465 0.25302 0.0
C58 C 0.99728 0.70536 0.12626 0.0
C59 C 0.02599 0.68906 0.13024 0.0
C60 C 0.0321 0.6653 0.07649 0.0
C61 C 0.00973 0.65775 0.01734 0.0
C62 C 0.98033 0.67273 0.01736 0.0
C63 C 0.9742 0.69619 0.0711 0.0
C64 C 1.00005 0.80948 0.05224 0.0
C65 C 0.98878 0.80741 0.97187 0.0
C66 C 0.99307 0.83084 0.91689 0.0
C67 C 0.00913 0.85581 0.94245 0.0
C68 C 0.02123 0.85719 0.02152 0.0
C69 C 0.01662 0.83436 0.07599 0.0
C70 C 0.98702 0.78733 0.33653 0.0
C71 C 0.96645 0.81216 0.34655 0.0
C72 C 0.65921 0.90056 0.38052 0.0
C73 C 0.66259 0.92966 0.40804 0.0
C74 C 0.68861 0.94558 0.38052 0.0
C75 C 0.7096 0.93334 0.32272 0.0
H76 H 0.81133 0.91952 0.20374 0.0
H77 H 0.8617 0.93525 0.14745 0.0
H78 H 0.83579 0.90046 0.91292 0.0
H79 H 0.7877 0.88327 0.96893 0.0
H80 H 0.72267 0.88438 0.91491 0.0
H81 H 0.68333 0.90511 0.82105 0.0
H82 H 0.61073 0.88801 0.99756 0.0
H83 H 0.64948 0.86685 0.08982 0.0
H84 H 0.67527 0.86675 0.29807 0.0
H85 H 0.6395 0.88773 0.40056 0.0
H86 H 0.69202 0.96797 0.40149 0.0
H87 H 0.72817 0.94683 0.29896 0.0
N88 N 0.751 0.90065 0.1949 0.0
N89 N 0.74251 0.88287 0.06253 0.0
N90 N 0.70118 0.88441 0.15512 0.0
C91 C 0.76246 0.89355 0.11905 0.0
C92 C 0.71199 0.87835 0.07939 0.0
C93 C 0.72019 0.89531 0.21345 0.0
C94 C 0.795 0.90035 0.0913 0.0
C95 C 0.81688 0.91456 0.14084 0.0
C96 C 0.84575 0.92362 0.10831 0.0
C97 C 0.85329 0.91893 0.02539 0.0
C98 C 0.83183 0.90366 0.9774 0.0
C99 C 0.80354 0.89424 0.00987 0.0
C100 C 0.68927 0.87572 0.01185 0.0
C101 C 0.69813 0.88372 0.93217 0.0
C102 C 0.67566 0.89581 0.8784 0.0
C103 C 0.64441 0.89986 0.90428 0.0
C104 C 0.63484 0.88594 0.97658 0.0
C105 C 0.65717 0.87386 0.03005 0.0
C106 C 0.70475 0.90506 0.29059 0.0
C107 C 0.67984 0.88853 0.32204 0.0
C108 C 0.49298 0.64866 0.0424 0.0
C109 C 0.47231 0.65193 0.97671 0.0
C110 C 0.46073 0.68019 0.95345 0.0
C111 C 0.46937 0.7051 0.99815 0.0
H112 H 0.55131 0.79064 0.03022 0.0
H113 H 0.54814 0.83398 0.94034 0.0
H114 H 0.47109 0.87008 0.08315 0.0
H115 H 0.47492 0.82679 0.17429 0.0
H116 H 0.48057 0.7467 0.39418 0.0
H117 H 0.479 0.70768 0.49815 0.0
H118 H 0.55857 0.66304 0.3841 0.0
H119 H 0.56146 0.70304 0.28601 0.0
H120 H 0.51763 0.66967 0.13703 0.0
H121 H 0.5027 0.627 0.05946 0.0
H122 H 0.44524 0.6829 0.9013 0.0
H123 H 0.45988 0.72682 0.98126 0.0
N124 N 0.50003 0.75415 0.09309 0.0
N125 N 0.51602 0.7687 0.22507 0.0
N126 N 0.50345 0.71946 0.19841 0.0
C127 C 0.50934 0.77567 0.14503 0.0
C128 C 0.51293 0.74005 0.25124 0.0
C129 C 0.497 0.72602 0.12006 0.0
C130 C 0.51366 0.80557 0.10986 0.0
C131 C 0.53463 0.80848 0.04443 0.0
C132 C 0.53257 0.83316 0.99244 0.0
C133 C 0.50919 0.85544 0.00389 0.0
C134 C 0.48967 0.85359 0.07306 0.0
C135 C 0.4919 0.82885 0.12559 0.0
C136 C 0.5216 0.72843 0.33292 0.0
C137 C 0.49915 0.72974 0.39547 0.0
C138 C 0.49778 0.7068 0.45369 0.0
C139 C 0.5184 0.68169 0.44956 0.0
C140 C 0.54271 0.68202 0.39157 0.0
C141 C 0.54455 0.70528 0.33511 0.0
C142 C 0.48946 0.7015 0.06584 0.0
C143 C 0.50154 0.67312 0.08634 0.0
C144 C 0.1567 0.39544 0.05941 0.0
C145 C 0.16522 0.42211 0.02234 0.0
C146 C 0.19571 0.43249 0.03787 0.0
C147 C 0.21571 0.41824 0.09533 0.0
H148 H 0.31253 0.40566 0.22936 0.0
H149 H 0.36177 0.42336 0.28767 0.0
H150 H 0.33065 0.39775 0.52749 0.0
H151 H 0.28332 0.37896 0.47034 0.0
H152 H 0.21511 0.38493 0.50285 0.0
H153 H 0.17115 0.41032 0.56575 0.0
H154 H 0.10722 0.367 0.40301 0.0
H155 H 0.15217 0.34326 0.33462 0.0
H156 H 0.16842 0.36127 0.14515 0.0
H157 H 0.13369 0.3865 0.04905 0.0
H158 H 0.20376 0.45225 0.00774 0.0
H159 H 0.2379 0.42805 0.11037 0.0
N160 N 0.25147 0.38894 0.23621 0.0
N161 N 0.24165 0.37072 0.36816 0.0
N162 N 0.20216 0.37031 0.27033 0.0
C163 C 0.26202 0.38223 0.31353 0.0
C164 C 0.21172 0.36477 0.34737 0.0
C165 C 0.22133 0.3823 0.21414 0.0
C166 C 0.2936 0.39089 0.34454 0.0
C167 C 0.3166 0.40323 0.29421 0.0
C168 C 0.34485 0.41338 0.32781 0.0
C169 C 0.35069 0.4116 0.41254 0.0
C170 C 0.32796 0.39856 0.46193 0.0
C171 C 0.30021 0.38814 0.42861 0.0
C172 C 0.1872 0.36355 0.41065 0.0
C173 C 0.1917 0.37971 0.48227 0.0
C174 C 0.1662 0.39451 0.51841 0.0
C175 C 0.13575 0.39231 0.48547 0.0
C176 C 0.13066 0.37077 0.42585 0.0
C177 C 0.15635 0.35657 0.38807 0.0
C178 C 0.20586 0.39294 0.13723 0.0
C179 C 0.17679 0.38097 0.11513 0.0
C180 C 0.98519 0.2 0.00925 0.0
C181 C 0.01118 0.18602 0.97049 0.0
C182 C 0.04131 0.19672 0.98719 0.0
C183 C 0.04551 0.21886 0.0459 0.0
H184 H 0.05141 0.3252 0.25058 0.0
H185 H 0.05034 0.37052 0.33533 0.0
H186 H 0.98325 0.33067 0.4957 0.0
H187 H 0.98383 0.28644 0.41231 0.0
H188 H 0.04355 0.20634 0.46407 0.0
H189 H 0.03154 0.16041 0.54017 0.0
H190 H 0.9729 0.13296 0.34126 0.0
H191 H 0.98456 0.17759 0.26639 0.0
H192 H 0.96914 0.23037 0.10106 0.0
H193 H 0.96169 0.19197 0.00073 0.0
H194 H 0.0619 0.18674 0.95841 0.0
H195 H 0.06924 0.22414 0.06369 0.0
N196 N 0.0225 0.26801 0.20409 0.0
N197 N 0.02167 0.24843 0.33808 0.0
N198 N 0.02444 0.2166 0.2272 0.0
C199 C 0.02193 0.27234 0.28704 0.0
C200 C 0.02293 0.22061 0.30823 0.0
C201 C 0.02431 0.2396 0.17464 0.0
C202 C 0.01791 0.3021 0.32511 0.0
C203 C 0.03593 0.32656 0.30283 0.0
C204 C 0.03554 0.35231 0.3516 0.0
C205 C 0.01725 0.35372 0.42311 0.0
C206 C 0.99804 0.32995 0.44199 0.0
C207 C 0.99832 0.30464 0.39383 0.0
C208 C 0.01548 0.195 0.35901 0.0
C209 C 0.02802 0.19042 0.43749 0.0
C210 C 0.02126 0.16441 0.48054 0.0
C211 C 1.00165 0.14351 0.44508 0.0
C212 C 0.98834 0.14882 0.3686 0.0
C213 C 0.99519 0.17425 0.32592 0.0
C214 C 0.0197 0.23125 0.08859 0.0
C215 C 0.9894 0.22249 0.06654 0.0
C216 C 0.34799 0.07376 0.11037 0.0
C217 C 0.34379 0.08221 0.02867 0.0
C218 C 0.31668 0.09939 0.00724 0.0
C219 C 0.29522 0.10927 0.06735 0.0
H220 H 0.19606 0.09033 0.23818 0.0
H221 H 0.1485 0.07103 0.30033 0.0
H222 H 0.17194 0.1129 0.52735 0.0
H223 H 0.21805 0.1334 0.46492 0.0
H224 H 0.29397 0.12194 0.50222 0.0
H225 H 0.34155 0.09917 0.5606 0.0
H226 H 0.39745 0.14126 0.37698 0.0
H227 H 0.35005 0.16503 0.31989 0.0
H228 H 0.33136 0.07735 0.23271 0.0
H229 H 0.36804 0.05988 0.12869 0.0
H230 H 0.31268 0.106 0.94446 0.0
H231 H 0.27566 0.12396 0.05038 0.0
N232 N 0.25392 0.11145 0.24028 0.0
N233 N 0.26337 0.1345 0.36623 0.0
N234 N 0.30292 0.13151 0.26852 0.0
C235 C 0.24311 0.12106 0.31471 0.0
C236 C 0.29325 0.14001 0.34321 0.0
C237 C 0.28402 0.11718 0.21692 0.0
C238 C 0.21157 0.11284 0.3467 0.0
C239 C 0.19077 0.09589 0.30086 0.0
C240 C 0.16355 0.08465 0.33681 0.0
C241 C 0.1568 0.08959 0.41988 0.0
C242 C 0.17626 0.10848 0.46349 0.0
C243 C 0.2031 0.12002 0.42747 0.0
C244 C 0.31824 0.14409 0.40411 0.0
C245 C 0.31649 0.12812 0.47761 0.0
C246 C 0.34372 0.11469 0.51042 0.0
C247 C 0.37264 0.11766 0.47057 0.0
C248 C 0.37514 0.13826 0.40718 0.0
C249 C 0.34802 0.15212 0.37539 0.0
C250 C 0.30032 0.10157 0.14936 0.0
C251 C 0.32659 0.08328 0.16969 0.0
C252 C 0.51236 0.35528 0.41955 0.0
C253 C 0.51206 0.34843 0.50281 0.0
C254 C 0.50979 0.31889 0.52837 0.0
C255 C 0.50698 0.29647 0.47009 0.0
H256 H 0.55219 0.20274 0.34859 0.0
H257 H 0.55114 0.15755 0.43107 0.0
H258 H 0.45455 0.14547 0.36207 0.0
H259 H 0.45577 0.1908 0.27735 0.0
H260 H 0.54028 0.2688 0.06334 0.0
H261 H 0.545 0.30717 0.95795 0.0
H262 H 0.45254 0.34213 0.01853 0.0
H263 H 0.44792 0.30382 0.12352 0.0
H264 H 0.51007 0.33972 0.29852 0.0
H265 H 0.515 0.37791 0.39865 0.0
H266 H 0.51005 0.31328 0.59262 0.0
H267 H 0.50491 0.27375 0.49045 0.0
N268 N 0.50501 0.25175 0.34019 0.0
N269 N 0.49816 0.2404 0.20088 0.0
N270 N 0.49867 0.28982 0.24466 0.0
C271 C 0.50234 0.23133 0.28023 0.0
C272 C 0.4962 0.27012 0.1836 0.0
C273 C 0.50316 0.28103 0.32268 0.0
C274 C 0.5043 0.19985 0.30515 0.0
C275 C 0.53122 0.18966 0.34771 0.0
C276 C 0.53054 0.16396 0.39539 0.0
C277 C 0.50274 0.14819 0.40283 0.0
C278 C 0.47623 0.1573 0.35683 0.0
C279 C 0.47708 0.18292 0.30775 0.0
C280 C 0.49344 0.28283 0.10048 0.0
C281 C 0.52026 0.28355 0.0508 0.0
C282 C 0.52315 0.30589 0.99147 0.0
C283 C 0.49927 0.32796 0.98072 0.0
C284 C 0.47123 0.32542 0.02489 0.0
C285 C 0.46846 0.30325 0.08449 0.0
C286 C 0.50665 0.30363 0.38632 0.0
C287 C 0.50965 0.33327 0.36215 0.0
O288 O 0.07776 0.97258 0.85182 0.0
Mg289 Mg 0.07331 0.97727 0.72526 0.0
O290 O 0.03048 0.99026 0.85816 0.0
Mg291 Mg 0.00945 0.00429 0.73525 0.0
O292 O 0.05807 0.01652 0.66925 0.0
O293 O 0.10802 -0.00182 0.66978 0.0
O294 O 0.99058 0.02384 0.61749 0.0
O295 O 0.00951 0.05326 0.79224 0.0
Mg296 Mg 0.94595 0.02868 0.73624 0.0
O297 O 0.96079 0.99093 0.79917 0.0
O298 O 0.93964 0.02938 0.6095 0.0
O299 O 0.95989 0.06894 0.78713 0.0
O300 O 0.9111 0.00994 0.79808 0.0
C301 C 0.02927 0.93536 0.65092 0.0
C302 C 0.04987 0.96941 0.87526 0.0
C303 C 0.0873 0.01753 0.64398 0.0
C304 C 0.9664 0.03249 0.57806 0.0
C305 C 0.98833 0.07364 0.80435 0.0
C306 C 0.93141 0.99012 0.82315 0.0
O307 O 0.05815 0.93995 0.66226 0.0
O308 O 0.0086 0.95487 0.67479 0.0
O309 O 0.41899 0.00634 0.75667 0.0
Mg310 Mg 0.43722 0.97436 0.67199 0.0
O311 O 0.46231 0.02839 0.80073 0.0
Mg312 Mg 0.50298 0.00728 0.71697 0.0
O313 O 0.47893 0.96338 0.72709 0.0
O314 O 0.44335 0.92956 0.71116 0.0
O315 O 0.5431 0.9862 0.63224 0.0
O316 O 0.53297 0.99103 0.82132 0.0
Mg317 Mg 0.57182 0.04386 0.74309 0.0
O318 O 0.52693 0.05034 0.70618 0.0
O319 O 0.58731 0.0108 0.65727 0.0
O320 O 0.56626 0.02479 0.86016 0.0
O321 O 0.55904 0.08681 0.69572 0.0
C322 C 0.45497 0.01923 0.55599 0.0
C323 C 0.43222 0.02526 0.80185 0.0
C324 C 0.46944 0.93714 0.74397 0.0
C325 C 0.57266 0.99038 0.62117 0.0
C326 C 0.55699 -0.00173 0.86187 0.0
C327 C 0.53229 0.07613 0.67709 0.0
O328 O 0.44168 0.99441 0.55335 0.0
O329 O 0.47472 0.02411 0.61156 0.0
O330 O 0.55476 0.44062 0.78776 0.0
Mg331 Mg 0.57343 0.47493 0.71784 0.0
O332 O 0.50482 0.4546 0.76711 0.0
Mg333 Mg 0.50519 0.50175 0.6958 0.0
O334 O 0.55363 0.51483 0.75679 0.0
O335 O 0.60468 0.50122 0.77162 0.0
O336 O 0.50684 0.54874 0.62838 0.0
O337 O 0.48483 0.52501 0.80805 0.0
Mg338 Mg 0.44236 0.52735 0.68148 0.0
O339 O 0.45695 0.48743 0.6312 0.0
O340 O 0.45778 0.56574 0.62217 0.0
O341 O 0.43385 0.53198 0.80608 0.0
O342 O 0.40791 0.50775 0.6212 0.0
C343 C 0.54765 0.46225 0.57108 0.0
C344 C 0.52566 0.43642 0.79765 0.0
C345 C 0.58161 0.51963 0.78645 0.0
C346 C 0.4867 0.56918 0.60805 0.0
C347 C 0.46003 0.53637 0.83934 0.0
C348 C 0.42792 0.48665 0.6042 0.0
O349 O 0.5755 0.46728 0.59237 0.0
O350 O 0.52744 0.48313 0.57966 0.0
O351 O 0.94072 0.48388 0.85658 0.0
Mg352 Mg 0.94243 0.46454 0.738 0.0
O353 O 0.97319 0.51869 0.81923 0.0
Mg354 Mg 0.00694 0.50514 0.71832 0.0
O355 O 0.98729 0.45998 0.70117 0.0
O356 O 0.95689 0.42172 0.69638 0.0
O357 O 0.03777 0.48964 0.61616 0.0
O358 O 0.04606 0.48469 0.80819 0.0
Mg359 Mg 0.07031 0.53794 0.68473 0.0
O360 O 0.0288 0.55139 0.73853 0.0
O361 O 0.07099 0.52017 0.5639 0.0
O362 O 0.08972 0.50837 0.77431 0.0
O363 O 0.06728 0.58261 0.71394 0.0
C364 C 0.93831 0.51767 0.61379 0.0
C365 C 0.95079 0.51002 0.86377 0.0
C366 C 0.98298 0.43344 0.67579 0.0
C367 C 0.05803 0.4953 0.56271 0.0
C368 C 0.07565 0.48917 0.81687 0.0
C369 C 0.04105 0.57719 0.74969 0.0
O370 O 0.92563 0.49571 0.64872 0.0
O371 O 0.96694 0.52482 0.6287 0.0
C372 C 0.11375 0.08525 0.52634 0.0
C373 C 0.13274 0.07211 0.46474 0.0
C374 C 0.09624 0.0679 0.58091 0.0
C375 C 0.09725 0.03682 0.5757 0.0
H376 H 0.11363 0.10903 0.53494 0.0
H377 H 0.08368 0.07868 0.63043 0.0
S378 S 0.14001 0.99151 0.42118 0.0
N379 N 0.14908 0.02593 0.39937 0.0
N380 N 0.11579 0.99385 0.49942 0.0
C381 C 0.11404 0.02369 0.51077 0.0
C382 C 0.13184 0.04115 0.45588 0.0
C383 C 0.51965 0.09874 0.45958 0.0
C384 C 0.50116 0.12492 0.46681 0.0
C385 C 0.52637 0.08074 0.52787 0.0
C386 C 0.51531 0.08864 0.6058 0.0
H387 H 0.53086 0.09332 0.40211 0.0
H388 H 0.54265 0.06199 0.52095 0.0
S389 S 0.46302 0.15299 0.65516 0.0
N390 N 0.46902 0.15601 0.55604 0.0
N391 N 0.48273 0.1227 0.68492 0.0
C392 C 0.49495 0.11347 0.6127 0.0
C393 C 0.48754 0.13147 0.54288 0.0
C394 C 0.38455 0.4559 0.42575 0.0
C395 C 0.37768 0.427 0.45142 0.0
C396 C 0.40378 0.474 0.47234 0.0
C397 C 0.41724 0.46403 0.54628 0.0
H398 H 0.37299 0.46562 0.37273 0.0
H399 H 0.40635 0.49682 0.45315 0.0
S400 S 0.41139 0.38878 0.63463 0.0
N401 N 0.39001 0.38783 0.55051 0.0
N402 N 0.42528 0.42254 0.63911 0.0
C403 C 0.41297 0.43449 0.56949 0.0
C404 C 0.39342 0.41584 0.52179 0.0
C405 C 0.02707 0.37308 0.5629 0.0
C406 C 0.01799 0.37888 0.48156 0.0
C407 C 0.01889 0.3928 0.626 0.0
C408 C 1.00181 0.4193 0.60992 0.0
H409 H 0.03829 0.35196 0.57878 0.0
H410 H 0.02378 0.38616 0.68837 0.0
S411 S 0.97511 0.44633 0.40681 0.0
N412 N 0.99312 0.41414 0.38786 0.0
N413 N 0.97831 0.45148 0.50603 0.0
C414 C 0.99508 0.42661 0.52807 0.0
C415 C 1.00311 0.40636 0.46387 0.0
C416 C 0.88636 0.96342 0.00442 0.0
C417 C 0.8805 0.93371 0.98537 0.0
C418 C 0.90577 0.98059 0.95532 0.0
C419 C 0.92038 0.96891 0.88523 0.0
H420 H 0.87389 0.97437 0.05378 0.0
H421 H 0.90757 0.00394 0.96916 0.0
S422 S 0.91739 0.89124 0.81491 0.0
N423 N 0.89509 0.89213 0.8973 0.0
N424 N 0.93041 0.92514 0.80323 0.0
C425 C 0.917 0.93872 0.86874 0.0
C426 C 0.89739 0.92097 0.91929 0.0
C427 C 0.49946 0.86822 0.85659 0.0
C428 C 0.50241 0.87782 0.93783 0.0
C429 C 0.49013 0.88784 0.79365 0.0
C430 C 0.48396 0.91805 0.80872 0.0
H431 H 0.50314 0.84501 0.84187 0.0
H432 H 0.48703 0.87914 0.73289 0.0
S433 S 0.48953 0.95509 0.00928 0.0
N434 N 0.49955 0.9201 0.02887 0.0
N435 N 0.48155 0.95685 0.91076 0.0
C436 C 0.4872 0.92816 0.88923 0.0
C437 C 0.49667 0.90814 0.95357 0.0
C438 C 0.63005 0.57689 0.8824 0.0
C439 C 0.62625 0.57034 0.96572 0.0
C440 C 0.6114 0.5637 0.82283 0.0
C441 C 0.58816 0.5436 0.84433 0.0
H442 H 0.6494 0.59027 0.86273 0.0
H443 H 0.61739 0.56689 0.75929 0.0
S444 S 0.56594 0.52226 0.05425 0.0
N445 N 0.59515 0.54516 0.06704 0.0
N446 N 0.55999 0.52042 0.9549 0.0
C447 C 0.58189 0.53939 0.92761 0.0
C448 C 0.60101 0.55273 0.98846 0.0
C449 C 0.02142 0.60634 0.96205 0.0
C450 C 0.01795 0.63714 0.94923 0.0
C451 C 0.02752 0.58686 0.89649 0.0
C452 C 0.0304 0.5975 0.81588 0.0
H453 H 0.01912 0.59727 0.02289 0.0
H454 H 0.03049 0.56335 0.9091 0.0
S455 S 0.02554 0.67631 0.75132 0.0
N456 N 0.01912 0.67734 0.85052 0.0
N457 N 0.03117 0.64095 0.72841 0.0
C458 C 0.02791 0.62827 0.80305 0.0
C459 C 0.02139 0.64799 0.86931 0.0
C460 C 0.96775 0.11346 0.5323 0.0
C461 C 0.99475 0.11532 0.48412 0.0
C462 C 0.95637 0.08589 0.5549 0.0
C463 C 0.97172 0.05931 0.52993 0.0
H464 H 0.95512 0.13344 0.55154 0.0
H465 H 0.93645 0.08548 0.59593 0.0
S466 S 0.04339 0.05301 0.40235 0.0
N467 N 0.03637 0.08906 0.41072 0.0
N468 N 0.01542 0.03692 0.45476 0.0
C469 C 0.99869 0.06113 0.48112 0.0
C470 C 0.01019 0.08921 0.45814 0.0
C471 C 0.41218 0.09331 0.56143 0.0
C472 C 0.39787 0.09528 0.48497 0.0
C473 C 0.43213 0.06926 0.58101 0.0
C474 C 0.43798 0.04594 0.52537 0.0
H475 H 0.40699 0.10989 0.60737 0.0
H476 H 0.44163 0.06823 0.6423 0.0
S477 S 0.40651 0.04142 0.3159 0.0
N478 N 0.39143 0.07293 0.35162 0.0
N479 N 0.42858 0.02693 0.3899 0.0
C480 C 0.42439 0.04802 0.44788 0.0
C481 C 0.40446 0.07295 0.42724 0.0
C482 C 0.49473 0.39737 0.55087 0.0
C483 C 0.516 0.37316 0.5591 0.0
C484 C 0.50481 0.42625 0.56024 0.0
C485 C 0.53631 0.43175 0.58002 0.0
H486 H 0.47154 0.39419 0.52548 0.0
H487 H 0.48849 0.44427 0.54467 0.0
S488 S 0.59766 0.3749 0.6364 0.0
N489 N 0.5672 0.35566 0.60744 0.0
N490 N 0.58634 0.41012 0.6282 0.0
C491 C 0.55627 0.40743 0.60165 0.0
C492 C 0.54589 0.37797 0.59139 0.0
C493 C 0.11027 0.42747 0.58326 0.0
C494 C 0.11162 0.41583 0.50417 0.0
C495 C 0.09351 0.45374 0.59943 0.0
C496 C 0.07673 0.46916 0.53788 0.0
H497 H 0.12309 0.41672 0.63287 0.0
H498 H 0.09368 0.46211 0.66112 0.0
S499 S 0.06819 0.44631 0.32356 0.0
N500 N 0.09233 0.42092 0.36419 0.0
N501 N 0.05903 0.46962 0.39767 0.0
C502 C 0.07584 0.45705 0.45992 0.0
C503 C 0.09357 0.43042 0.44246 0.0
C504 C 0.99456 0.90704 0.9101 0.0
C505 C 0.01322 0.8819 0.89122 0.0
C506 C 0.00629 0.93537 0.90084 0.0
C507 C 0.03717 0.93938 0.87304 0.0
H508 H 0.97231 0.90466 0.9412 0.0
H509 H 0.9919 0.95407 0.92141 0.0
S510 S 0.09259 0.88012 0.79964 0.0
N511 N 0.06142 0.86237 0.83109 0.0
N512 N 0.08433 0.91564 0.81482 0.0
C513 C 0.05482 0.91436 0.84613 0.0
C514 C 0.04244 0.88557 0.85421 0.0
C515 C 0.59153 0.92015 0.86733 0.0
C516 C 0.62401 0.92422 0.8716 0.0
C517 C 0.57045 0.94433 0.86763 0.0
C518 C 0.58069 0.9737 0.87061 0.0
H519 H 0.58226 0.89804 0.86912 0.0
H520 H 0.54581 0.93984 0.86554 0.0
S521 S 0.66389 -0.00369 0.85945 0.0
N522 N 0.666 0.95978 0.86457 0.0
N523 N 0.626 0.00537 0.86121 0.0
C524 C 0.61329 0.97814 0.86612 0.0
C525 C 0.63497 0.95337 0.86664 0.0
C526 C 0.4408 0.60741 0.95314 0.0
C527 C 0.46589 0.62523 0.9306 0.0
C528 C 0.43941 0.57806 0.92591 0.0
C529 C 0.46368 0.56554 0.87784 0.0
H530 H 0.42278 0.61591 0.99411 0.0
H531 H 0.41945 0.56503 0.943 0.0
S532 S 0.53353 0.60484 0.79915 0.0
N533 N 0.51423 0.62968 0.85464 0.0
N534 N 0.51281 0.5746 0.80501 0.0
C535 C 0.48867 0.58377 0.85402 0.0
C536 C 0.48942 0.61363 0.87989 0.0
C537 C 0.87643 0.54656 0.94693 0.0
C538 C 0.88057 0.57665 0.92864 0.0
C539 C 0.90042 0.5253 0.93251 0.0
C540 C 0.92937 0.53334 0.89847 0.0
H541 H 0.85441 0.53939 0.97241 0.0
H542 H 0.89566 0.50227 0.9449 0.0
S543 S 0.95062 0.60995 0.8384 0.0
N544 N 0.91487 0.61381 0.87596 0.0
N545 N 0.96012 0.57434 0.84684 0.0
C546 C 0.93377 0.56379 0.88186 0.0
C547 C 0.90931 0.58529 0.89715 0.0
C548 C 0.02778 0.13368 0.92946 0.0
C549 C 0.00706 0.15859 0.92006 0.0
C550 C 0.02247 0.10662 0.88967 0.0
C551 C 0.99601 0.10315 0.83936 0.0
H552 H 0.0477 0.13466 0.97044 0.0
H553 H 0.03855 0.08798 0.90098 0.0
S554 S 0.93688 0.16245 0.7848 0.0
N555 N 0.96091 0.17858 0.8487 0.0
N556 N 0.95049 0.128 0.77609 0.0
C557 C 0.97591 0.12825 0.82649 0.0
C558 C 0.98149 0.15579 0.86625 0.0
C559 C 0.35667 0.05663 0.8974 0.0
C560 C 0.36709 0.07169 0.96638 0.0
C561 C 0.37806 0.04276 0.84383 0.0
C562 C 0.41099 0.04334 0.85634 0.0
H563 H 0.33171 0.0544 0.88652 0.0
H564 H 0.36843 0.03082 0.79296 0.0
S565 S 0.45046 0.08391 0.02179 0.0
N566 N 0.41251 0.08933 0.04001 0.0
N567 N 0.45278 0.06322 0.93918 0.0
C568 C 0.42178 0.05997 0.92246 0.0
C569 C 0.39986 0.07404 0.97751 0.0
C570 C 0.48474 0.36662 0.87248 0.0
C571 C 0.50544 0.35576 0.93387 0.0
C572 C 0.49053 0.39322 0.82969 0.0
C573 C 0.5171 0.41001 0.84741 0.0
H574 H 0.46422 0.35421 0.85658 0.0
H575 H 0.47462 0.40024 0.78122 0.0
S576 S 0.57589 0.39341 0.01069 0.0
N577 N 0.55174 0.36551 0.01497 0.0
N578 N 0.56255 0.41502 0.93611 0.0
C579 C 0.53716 0.39986 0.91092 0.0
C580 C 0.53137 0.37293 0.9537 0.0
C581 C 0.12086 0.42499 0.91857 0.0
C582 C 0.14153 0.4395 0.97182 0.0
C583 C 0.09806 0.44089 0.87196 0.0
C584 C 0.0952 0.47193 0.87634 0.0
H585 H 0.12273 0.40117 0.91133 0.0
H586 H 0.08356 0.42895 0.82973 0.0
S587 S 0.14076 0.52055 0.01089 0.0
N588 N 0.15507 0.48686 0.03061 0.0
N589 N 0.11347 0.51651 0.9405 0.0
C590 C 0.11502 0.48663 0.93036 0.0
C591 C 0.13784 0.47053 0.97858 0.0
C592 C 0.98143 0.87239 0.558 0.0
C593 C 0.00459 0.85419 0.51935 0.0
C594 C 0.98927 0.89826 0.60121 0.0
C595 C 0.02067 0.90723 0.60775 0.0
H596 H 0.95689 0.86679 0.55415 0.0
H597 H 0.97052 0.91143 0.62902 0.0
S598 S 0.09035 0.86781 0.51648 0.0
N599 N 0.06031 0.84774 0.4898 0.0
N600 N 0.07516 0.89514 0.57134 0.0
C601 C 0.04407 0.88885 0.57047 0.0
C602 C 0.03605 0.86275 0.52643 0.0
C603 C 0.62858 0.93126 0.53466 0.0
C604 C 0.63771 0.94409 0.46006 0.0
C605 C 0.6059 0.9454 0.58514 0.0
C606 C 0.59108 0.97245 0.56175 0.0
H607 H 0.6398 0.9107 0.55534 0.0
H608 H 0.60079 0.93569 0.64401 0.0
S609 S 0.60421 0.01373 0.36991 0.0
N610 N 0.62834 0.98445 0.36365 0.0
N611 N 0.58597 0.01071 0.45817 0.0
C612 C 0.59913 0.98482 0.48637 0.0
C613 C 0.62229 0.9707 0.43553 0.0
C614 C 0.48024 0.64481 0.50347 0.0
C615 C 0.5116 0.65371 0.49599 0.0
C616 C 0.47278 0.61766 0.53946 0.0
C617 C 0.49625 0.59767 0.56938 0.0
H618 H 0.46108 0.65854 0.47913 0.0
H619 H 0.44817 0.61222 0.54268 0.0
S620 S 0.58206 0.61059 0.56996 0.0
N621 N 0.5664 0.64065 0.52637 0.0
N622 N 0.55233 0.58922 0.59171 0.0
C623 C 0.52773 0.60626 0.56344 0.0
C624 C 0.53539 0.63424 0.52738 0.0
C625 C 0.87215 0.53516 0.46465 0.0
C626 C 0.86817 0.56621 0.46819 0.0
C627 C 0.89611 0.52004 0.50831 0.0
C628 C 0.91765 0.53518 0.55691 0.0
H629 H 0.85656 0.52223 0.42774 0.0
H630 H 0.8974 0.49606 0.50518 0.0
S631 S 0.9182 0.61638 0.58828 0.0
N632 N 0.88829 0.61164 0.52572 0.0
N633 N 0.93378 0.58299 0.60593 0.0
C634 C 0.91478 0.56624 0.55953 0.0
C635 C 0.88999 0.58177 0.51574 0.0
loop_
_geom_bond_atom_site_label_1
_geom_bond_atom_site_label_2
_geom_bond_distance
_geom_bond_site_symmetry_2
_ccdc_geom_bond_type
C0 C1 1.384 . S
C0 H13 0.947 . S
C0 C35 1.382 . S
C1 C0 1.384 . S
C1 C2 1.378 . S
C2 C1 1.378 . S
C2 C3 1.378 . S
C2 H14 0.952 . S
C3 C2 1.378 . S
C3 H15 0.950 . S
C3 C34 1.383 . S
H4 C23 0.947 . S
H5 C24 0.946 . S
H6 C26 0.953 . S
H7 C27 0.945 . S
H8 C29 0.952 . S
H9 C30 0.949 . S
H10 C32 0.950 . S
H11 C33 0.948 1_554 S
H12 C35 0.951 . S
H13 C0 0.947 . S
H14 C2 0.952 . S
H15 C3 0.950 . S
N16 C19 1.382 . S
N16 C21 1.363 . S
N17 C19 1.371 . S
N17 C20 1.372 . S
N18 C20 1.361 . S
N18 C21 1.377 . S
C19 N16 1.382 . S
C19 N17 1.371 . S
C19 C22 1.480 . S
C20 N17 1.372 . S
C20 N18 1.361 . S
C20 C28 1.457 1_554 S
C21 N16 1.363 . S
C21 N18 1.377 . S
C21 C34 1.479 . S
C22 C19 1.480 . S
C22 C23 1.383 . S
C22 C27 1.385 1_554 S
C23 H4 0.947 . S
C23 C22 1.383 . S
C23 C24 1.388 . S
C24 H5 0.946 . S
C24 C23 1.388 . S
C24 C25 1.384 . S
C25 C24 1.384 . S
C25 C26 1.377 1_554 S
C26 H6 0.953 . S
C26 C25 1.377 1_556 S
C26 C27 1.369 . S
C27 H7 0.945 . S
C27 C22 1.385 1_556 S
C27 C26 1.369 . S
C28 C20 1.457 1_556 S
C28 C29 1.372 . S
C28 C33 1.364 . S
C29 H8 0.952 . S
C29 C28 1.372 . S
C29 C30 1.389 . S
C30 H9 0.949 . S
C30 C29 1.389 . S
C30 C31 1.387 . S
C31 C30 1.387 . S
C31 C32 1.372 . S
C32 H10 0.950 . S
C32 C31 1.372 . S
C32 C33 1.379 . S
C33 H11 0.948 1_556 S
C33 C28 1.364 . S
C33 C32 1.379 . S
C34 C3 1.383 . S
C34 C21 1.479 . S
C34 C35 1.398 . S
C35 C0 1.382 . S
C35 H12 0.951 . S
C35 C34 1.398 . S
C36 C37 1.384 1_655 S
C36 H49 0.948 . S
C36 C71 1.382 1_655 S
C37 C36 1.384 1_455 S
C37 C38 1.378 . S
C38 C37 1.378 . S
C38 C39 1.378 . S
C38 H50 0.952 . S
C39 C38 1.378 . S
C39 H51 0.950 . S
C39 C70 1.383 . S
H40 C59 0.947 . S
H41 C60 0.953 . S
H42 C62 0.953 . S
H43 C63 0.945 . S
H44 C65 0.948 1_655 S
H45 C66 0.949 . S
H46 C68 0.950 . S
H47 C69 0.948 . S
H48 C71 0.951 1_655 S
H49 C36 0.948 . S
H50 C38 0.952 . S
H51 C39 0.950 . S
N52 C55 1.382 . S
N52 C57 1.363 . S
N53 C55 1.371 . S
N53 C56 1.372 . S
N54 C56 1.361 . S
N54 C57 1.377 . S
C55 N52 1.382 . S
C55 N53 1.371 . S
C55 C58 1.480 . S
C56 N53 1.372 . S
C56 N54 1.361 . S
C56 C64 1.457 1_554 S
C57 N52 1.363 . S
C57 N54 1.377 . S
C57 C70 1.479 . S
C58 C55 1.480 . S
C58 C59 1.383 . S
C58 C63 1.385 1_554 S
C59 H40 0.947 . S
C59 C58 1.383 . S
C59 C60 1.385 1_455 S
C60 H41 0.953 . S
C60 C59 1.385 1_655 S
C60 C61 1.382 1_655 S
C61 C60 1.382 1_455 S
C61 C62 1.377 1_554 S
C62 H42 0.953 . S
C62 C61 1.377 1_556 S
C62 C63 1.369 . S
C63 H43 0.945 . S
C63 C58 1.385 1_556 S
C63 C62 1.369 . S
C64 C56 1.457 1_556 S
C64 C65 1.377 . S
C64 C69 1.364 1_556 S
C65 H44 0.948 1_455 S
C65 C64 1.377 . S
C65 C66 1.388 1_455 S
C66 H45 0.949 . S
C66 C65 1.388 1_655 S
C66 C67 1.387 1_655 S
C67 C66 1.387 1_455 S
C67 C68 1.372 . S
C68 H46 0.950 . S
C68 C67 1.372 . S
C68 C69 1.379 1_556 S
C69 H47 0.948 . S
C69 C64 1.364 1_554 S
C69 C68 1.379 1_554 S
C70 C39 1.383 . S
C70 C57 1.479 . S
C70 C71 1.398 . S
C71 C36 1.382 1_455 S
C71 H48 0.951 1_455 S
C71 C70 1.398 . S
C72 C73 1.384 . S
C72 H85 0.947 . S
C72 C107 1.382 . S
C73 C72 1.384 . S
C73 C74 1.378 . S
C74 C73 1.378 . S
C74 C75 1.378 . S
C74 H86 0.952 . S
C75 C74 1.378 . S
C75 H87 0.950 . S
C75 C106 1.383 . S
H76 C95 0.947 . S
H77 C96 0.946 . S
H78 C98 0.953 . S
H79 C99 0.945 . S
H80 C101 0.952 . S
H81 C102 0.949 . S
H82 C104 0.950 . S
H83 C105 0.948 1_554 S
H84 C107 0.951 . S
H85 C72 0.947 . S
H86 C74 0.952 . S
H87 C75 0.950 . S
N88 C91 1.382 . S
N88 C93 1.363 . S
N89 C91 1.371 . S
N89 C92 1.372 . S
N90 C92 1.361 . S
N90 C93 1.377 . S
C91 N88 1.382 . S
C91 N89 1.371 . S
C91 C94 1.480 . S
C92 N89 1.372 . S
C92 N90 1.361 . S
C92 C100 1.457 1_554 S
C93 N88 1.363 . S
C93 N90 1.377 . S
C93 C106 1.479 . S
C94 C91 1.480 . S
C94 C95 1.383 . S
C94 C99 1.385 1_554 S
C95 H76 0.947 . S
C95 C94 1.383 . S
C95 C96 1.388 . S
C96 H77 0.946 . S
C96 C95 1.388 . S
C96 C97 1.384 . S
C97 C96 1.384 . S
C97 C98 1.377 1_554 S
C98 H78 0.953 . S
C98 C97 1.377 1_556 S
C98 C99 1.369 . S
C99 H79 0.945 . S
C99 C94 1.385 1_556 S
C99 C98 1.369 . S
C100 C92 1.457 1_556 S
C100 C101 1.372 . S
C100 C105 1.364 . S
C101 H80 0.952 . S
C101 C100 1.372 . S
C101 C102 1.389 . S
C102 H81 0.949 . S
C102 C101 1.389 . S
C102 C103 1.387 . S
C103 C102 1.387 . S
C103 C104 1.372 . S
C104 H82 0.950 . S
C104 C103 1.372 . S
C104 C105 1.379 . S
C105 H83 0.948 1_556 S
C105 C100 1.364 . S
C105 C104 1.379 . S
C106 C75 1.383 . S
C106 C93 1.479 . S
C106 C107 1.398 . S
C107 C72 1.382 . S
C107 H84 0.951 . S
C107 C106 1.398 . S
C108 C109 1.384 . S
C108 H121 0.947 . S
C108 C143 1.382 1_556 S
C109 C108 1.384 . S
C109 C110 1.378 . S
C110 C109 1.378 . S
C110 C111 1.378 . S
C110 H122 0.952 . S
C111 C110 1.378 . S
C111 H123 0.950 . S
C111 C142 1.383 . S
H112 C131 0.947 1_556 S
H113 C132 0.946 . S
H114 C134 0.953 . S
H115 C135 0.945 . S
H116 C137 0.952 . S
H117 C138 0.949 . S
H118 C140 0.950 . S
H119 C141 0.948 . S
H120 C143 0.951 . S
H121 C108 0.947 . S
H122 C110 0.952 . S
H123 C111 0.950 . S
N124 C127 1.382 . S
N124 C129 1.363 . S
N125 C127 1.371 . S
N125 C128 1.372 . S
N126 C128 1.361 . S
N126 C129 1.377 . S
C127 N124 1.382 . S
C127 N125 1.371 . S
C127 C130 1.480 . S
C128 N125 1.372 . S
C128 N126 1.361 . S
C128 C136 1.457 . S
C129 N124 1.363 . S
C129 N126 1.377 . S
C129 C142 1.479 1_554 S
C130 C127 1.480 . S
C130 C131 1.383 . S
C130 C135 1.385 . S
C131 H112 0.947 1_554 S
C131 C130 1.383 . S
C131 C132 1.388 1_554 S
C132 H113 0.946 . S
C132 C131 1.388 1_556 S
C132 C133 1.384 1_556 S
C133 C132 1.384 1_554 S
C133 C134 1.377 . S
C134 H114 0.953 . S
C134 C133 1.377 . S
C134 C135 1.369 . S
C135 H115 0.945 . S
C135 C130 1.385 . S
C135 C134 1.369 . S
C136 C128 1.457 . S
C136 C137 1.372 . S
C136 C141 1.364 . S
C137 H116 0.952 . S
C137 C136 1.372 . S
C137 C138 1.389 . S
C138 H117 0.949 . S
C138 C137 1.389 . S
C138 C139 1.387 . S
C139 C138 1.387 . S
C139 C140 1.372 . S
C140 H118 0.950 . S
C140 C139 1.372 . S
C140 C141 1.379 . S
C141 H119 0.948 . S
C141 C136 1.364 . S
C141 C140 1.379 . S
C142 C111 1.383 . S
C142 C129 1.479 1_556 S
C142 C143 1.398 1_556 S
C143 C108 1.382 1_554 S
C143 H120 0.951 . S
C143 C142 1.398 1_554 S
C144 C145 1.384 . S
C144 H157 0.947 . S
C144 C179 1.382 . S
C145 C144 1.384 . S
C145 C146 1.378 . S
C146 C145 1.378 . S
C146 C147 1.378 . S
C146 H158 0.952 1_554 S
C147 C146 1.378 . S
C147 H159 0.950 . S
C147 C178 1.383 . S
H148 C167 0.947 . S
H149 C168 0.946 . S
H150 C170 0.953 . S
H151 C171 0.945 . S
H152 C173 0.952 . S
H153 C174 0.949 . S
H154 C176 0.950 . S
H155 C177 0.948 . S
H156 C179 0.951 . S
H157 C144 0.947 . S
H158 C146 0.952 1_556 S
H159 C147 0.950 . S
N160 C163 1.382 . S
N160 C165 1.363 . S
N161 C163 1.371 . S
N161 C164 1.372 . S
N162 C164 1.361 . S
N162 C165 1.377 . S
C163 N160 1.382 . S
C163 N161 1.371 . S
C163 C166 1.480 . S
C164 N161 1.372 . S
C164 N162 1.361 . S
C164 C172 1.457 . S
C165 N160 1.363 . S
C165 N162 1.377 . S
C165 C178 1.479 . S
C166 C163 1.480 . S
C166 C167 1.383 . S
C166 C171 1.385 . S
C167 H148 0.947 . S
C167 C166 1.383 . S
C167 C168 1.388 . S
C168 H149 0.946 . S
C168 C167 1.388 . S
C168 C169 1.384 . S
C169 C168 1.384 . S
C169 C170 1.377 . S
C170 H150 0.953 . S
C170 C169 1.377 . S
C170 C171 1.369 . S
C171 H151 0.945 . S
C171 C166 1.385 . S
C171 C170 1.369 . S
C172 C164 1.457 . S
C172 C173 1.372 . S
C172 C177 1.364 . S
C173 H152 0.952 . S
C173 C172 1.372 . S
C173 C174 1.389 . S
C174 H153 0.949 . S
C174 C173 1.389 . S
C174 C175 1.387 . S
C175 C174 1.387 . S
C175 C176 1.372 . S
C176 H154 0.950 . S
C176 C175 1.372 . S
C176 C177 1.379 . S
C177 H155 0.948 . S
C177 C172 1.364 . S
C177 C176 1.379 . S
C178 C147 1.383 . S
C178 C165 1.479 . S
C178 C179 1.398 . S
C179 C144 1.382 . S
C179 H156 0.951 . S
C179 C178 1.398 . S
C180 C181 1.384 1_654 S
C180 H193 0.947 . S
C180 C215 1.382 1_655 S
C181 C180 1.384 1_456 S
C181 C182 1.378 1_556 S
C182 C181 1.378 1_554 S
C182 C183 1.378 . S
C182 H194 0.952 1_554 S
C183 C182 1.378 . S
C183 H195 0.950 . S
C183 C214 1.383 . S
H184 C203 0.947 . S
H185 C204 0.950 . S
H186 C206 0.953 . S
H187 C207 0.945 . S
H188 C209 0.948 1_655 S
H189 C210 0.954 . S
H190 C212 0.950 . S
H191 C213 0.948 . S
H192 C215 0.950 1_655 S
H193 C180 0.947 . S
H194 C182 0.952 1_556 S
H195 C183 0.950 . S
N196 C199 1.382 . S
N196 C201 1.363 . S
N197 C199 1.371 . S
N197 C200 1.372 . S
N198 C200 1.361 . S
N198 C201 1.377 . S
C199 N196 1.382 . S
C199 N197 1.371 . S
C199 C202 1.480 . S
C200 N197 1.372 . S
C200 N198 1.361 . S
C200 C208 1.457 . S
C201 N196 1.363 . S
C201 N198 1.377 . S
C201 C214 1.479 . S
C202 C199 1.480 . S
C202 C203 1.383 . S
C202 C207 1.385 . S
C203 H184 0.947 . S
C203 C202 1.383 . S
C203 C204 1.387 1_455 S
C204 H185 0.950 . S
C204 C203 1.387 1_655 S
C204 C205 1.382 1_655 S
C205 C204 1.382 1_455 S
C205 C206 1.377 . S
C206 H186 0.953 . S
C206 C205 1.377 . S
C206 C207 1.369 . S
C207 H187 0.945 . S
C207 C202 1.385 . S
C207 C206 1.369 . S
C208 C200 1.457 . S
C208 C209 1.379 . S
C208 C213 1.364 . S
C209 H188 0.948 1_455 S
C209 C208 1.379 . S
C209 C210 1.385 1_455 S
C210 H189 0.954 . S
C210 C209 1.385 1_655 S
C210 C211 1.384 1_655 S
C211 C210 1.384 1_455 S
C211 C212 1.372 . S
C212 H190 0.950 . S
C212 C211 1.372 . S
C212 C213 1.379 . S
C213 H191 0.948 . S
C213 C208 1.364 . S
C213 C212 1.379 . S
C214 C183 1.383 . S
C214 C201 1.479 . S
C214 C215 1.400 . S
C215 C180 1.382 1_455 S
C215 H192 0.950 1_455 S
C215 C214 1.400 . S
C216 C217 1.377 1_554 S
C216 H229 0.947 . S
C216 C251 1.382 . S
C217 C216 1.377 1_556 S
C217 C218 1.376 1_556 S
C218 C217 1.376 1_554 S
C218 C219 1.378 . S
C218 H230 0.952 1_554 S
C219 C218 1.378 . S
C219 H231 0.950 . S
C219 C250 1.383 . S
H220 C239 0.947 . S
H221 C240 0.946 . S
H222 C242 0.953 . S
H223 C243 0.945 . S
H224 C245 0.952 . S
H225 C246 0.949 . S
H226 C248 0.950 . S
H227 C249 0.948 . S
H228 C251 0.951 . S
H229 C216 0.947 . S
H230 C218 0.952 1_556 S
H231 C219 0.950 . S
N232 C235 1.382 . S
N232 C237 1.363 . S
N233 C235 1.371 . S
N233 C236 1.372 . S
N234 C236 1.361 . S
N234 C237 1.377 . S
C235 N232 1.382 . S
C235 N233 1.371 . S
C235 C238 1.480 . S
C236 N233 1.372 . S
C236 N234 1.361 . S
C236 C244 1.457 . S
C237 N232 1.363 . S
C237 N234 1.377 . S
C237 C250 1.479 . S
C238 C235 1.480 . S
C238 C239 1.383 . S
C238 C243 1.385 . S
C239 H220 0.947 . S
C239 C238 1.383 . S
C239 C240 1.388 . S
C240 H221 0.946 . S
C240 C239 1.388 . S
C240 C241 1.384 . S
C241 C240 1.384 . S
C241 C242 1.377 . S
C242 H222 0.953 . S
C242 C241 1.377 . S
C242 C243 1.369 . S
C243 H223 0.945 . S
C243 C238 1.385 . S
C243 C242 1.369 . S
C244 C236 1.457 . S
C244 C245 1.372 . S
C244 C249 1.364 . S
C245 H224 0.952 . S
C245 C244 1.372 . S
C245 C246 1.389 . S
C246 H225 0.949 . S
C246 C245 1.389 . S
C246 C247 1.387 . S
C247 C246 1.387 . S
C247 C248 1.372 . S
C248 H226 0.950 . S
C248 C247 1.372 . S
C248 C249 1.379 . S
C249 H227 0.948 . S
C249 C244 1.364 . S
C249 C248 1.379 . S
C250 C219 1.383 . S
C250 C237 1.479 . S
C250 C251 1.398 . S
C251 C216 1.382 . S
C251 H228 0.951 . S
C251 C250 1.398 . S
C252 C253 1.384 . S
C252 H265 0.947 . S
C252 C287 1.382 . S
C253 C252 1.384 . S
C253 C254 1.378 . S
C254 C253 1.378 . S
C254 C255 1.378 . S
C254 H266 0.952 . S
C255 C254 1.378 . S
C255 H267 0.950 . S
C255 C286 1.383 . S
H256 C275 0.947 . S
H257 C276 0.946 . S
H258 C278 0.953 . S
H259 C279 0.945 . S
H260 C281 0.952 . S
H261 C282 0.949 1_556 S
H262 C284 0.950 . S
H263 C285 0.948 . S
H264 C287 0.951 . S
H265 C252 0.947 . S
H266 C254 0.952 . S
H267 C255 0.950 . S
N268 C271 1.382 . S
N268 C273 1.363 . S
N269 C271 1.371 . S
N269 C272 1.372 . S
N270 C272 1.361 . S
N270 C273 1.377 . S
C271 N268 1.382 . S
C271 N269 1.371 . S
C271 C274 1.480 . S
C272 N269 1.372 . S
C272 N270 1.361 . S
C272 C280 1.457 . S
C273 N268 1.363 . S
C273 N270 1.377 . S
C273 C286 1.479 . S
C274 C271 1.480 . S
C274 C275 1.383 . S
C274 C279 1.385 . S
C275 H256 0.947 . S
C275 C274 1.383 . S
C275 C276 1.388 . S
C276 H257 0.946 . S
C276 C275 1.388 . S
C276 C277 1.384 . S
C277 C276 1.384 . S
C277 C278 1.377 . S
C278 H258 0.953 . S
C278 C277 1.377 . S
C278 C279 1.369 . S
C279 H259 0.945 . S
C279 C274 1.385 . S
C279 C278 1.369 . S
C280 C272 1.457 . S
C280 C281 1.372 . S
C280 C285 1.364 . S
C281 H260 0.952 . S
C281 C280 1.372 . S
C281 C282 1.389 . S
C282 H261 0.949 1_554 S
C282 C281 1.389 . S
C282 C283 1.387 1_554 S
C283 C282 1.387 1_556 S
C283 C284 1.372 1_556 S
C284 H262 0.950 . S
C284 C283 1.372 1_554 S
C284 C285 1.379 . S
C285 H263 0.948 . S
C285 C280 1.364 . S
C285 C284 1.379 . S
C286 C255 1.383 . S
C286 C273 1.479 . S
C286 C287 1.398 . S
C287 C252 1.382 . S
C287 H264 0.951 . S
C287 C286 1.398 . S
O288 Mg289 1.990 . S
O288 C302 1.253 . S
Mg289 O288 1.990 . S
Mg289 O292 2.180 1_565 S
Mg289 O293 2.117 . S
Mg289 O307 2.030 . S
O290 Mg291 2.072 1_465 S
O290 C302 1.260 . S
Mg291 O290 2.072 1_645 S
Mg291 O292 2.099 1_655 S
Mg291 O294 2.079 . S
Mg291 O295 2.072 1_655 S
Mg291 O297 2.099 . S
Mg291 O308 2.079 1_545 S
O292 Mg289 2.180 1_545 S
O292 Mg291 2.099 1_455 S
O292 C303 1.279 . S
O293 Mg289 2.117 . S
O293 C303 1.250 1_565 S
O294 Mg291 2.079 . S
O294 C304 1.264 . S
O295 Mg291 2.072 1_455 S
O295 C305 1.260 . S
Mg296 O297 2.180 . S
Mg296 O298 2.030 . S
Mg296 O299 1.990 . S
Mg296 O300 2.117 . S
O297 Mg291 2.099 . S
O297 Mg296 2.180 . S
O297 C306 1.279 . S
O298 Mg296 2.030 . S
O298 C304 1.248 . S
O299 Mg296 1.990 . S
O299 C305 1.253 1_655 S
O300 Mg296 2.117 . S
O300 C306 1.250 . S
C301 O307 1.248 1_655 S
C301 O308 1.264 . S
C302 O288 1.253 . S
C302 O290 1.260 . S
C303 O292 1.279 . S
C303 O293 1.250 1_545 S
C304 O294 1.264 . S
C304 O298 1.248 . S
C305 O295 1.260 . S
C305 O299 1.253 1_455 S
C306 O297 1.279 . S
C306 O300 1.250 . S
O307 Mg289 2.030 . S
O307 C301 1.248 1_455 S
O308 Mg291 2.079 1_565 S
O308 C301 1.264 . S
O309 Mg310 1.990 1_545 S
O309 C323 1.253 . S
Mg310 O309 1.990 1_565 S
Mg310 O313 2.180 . S
Mg310 O314 2.117 . S
Mg310 O328 2.030 1_565 S
O311 Mg312 2.072 . S
O311 C323 1.260 . S
Mg312 O311 2.072 . S
Mg312 O313 2.099 1_545 S
Mg312 O315 2.079 1_545 S
Mg312 O316 2.072 1_545 S
Mg312 O318 2.099 . S
Mg312 O329 2.079 . S
O313 Mg310 2.180 . S
O313 Mg312 2.099 1_565 S
O313 C324 1.279 . S
O314 Mg310 2.117 . S
O314 C324 1.250 . S
O315 Mg312 2.079 1_565 S
O315 C325 1.264 . S
O316 Mg312 2.072 1_565 S
O316 C326 1.260 1_565 S
Mg317 O318 2.180 . S
Mg317 O319 2.030 1_545 S
Mg317 O320 1.990 . S
Mg317 O321 2.117 . S
O318 Mg312 2.099 . S
O318 Mg317 2.180 . S
O318 C327 1.279 . S
O319 Mg317 2.030 1_565 S
O319 C325 1.248 . S
O320 Mg317 1.990 . S
O320 C326 1.253 . S
O321 Mg317 2.117 . S
O321 C327 1.250 . S
C322 O328 1.248 . S
C322 O329 1.264 . S
C323 O309 1.253 . S
C323 O311 1.260 . S
C324 O313 1.279 . S
C324 O314 1.250 . S
C325 O315 1.264 . S
C325 O319 1.248 . S
C326 O316 1.260 1_545 S
C326 O320 1.253 . S
C327 O318 1.279 . S
C327 O321 1.250 . S
O328 Mg310 2.030 1_545 S
O328 C322 1.248 . S
O329 Mg312 2.079 . S
O329 C322 1.264 . S
O330 Mg331 1.990 . S
O330 C344 1.253 . S
Mg331 O330 1.990 . S
Mg331 O334 2.180 . S
Mg331 O335 2.117 . S
Mg331 O349 2.030 . S
O332 Mg333 2.072 . S
O332 C344 1.260 . S
Mg333 O332 2.072 . S
Mg333 O334 2.099 . S
Mg333 O336 2.079 . S
Mg333 O337 2.072 . S
Mg333 O339 2.099 . S
Mg333 O350 2.079 . S
O334 Mg331 2.180 . S
O334 Mg333 2.099 . S
O334 C345 1.279 . S
O335 Mg331 2.117 . S
O335 C345 1.250 . S
O336 Mg333 2.079 . S
O336 C346 1.264 . S
O337 Mg333 2.072 . S
O337 C347 1.260 . S
Mg338 O339 2.180 . S
Mg338 O340 2.030 . S
Mg338 O341 1.990 . S
Mg338 O342 2.117 . S
O339 Mg333 2.099 . S
O339 Mg338 2.180 . S
O339 C348 1.279 . S
O340 Mg338 2.030 . S
O340 C346 1.248 . S
O341 Mg338 1.990 . S
O341 C347 1.253 . S
O342 Mg338 2.117 . S
O342 C348 1.250 . S
C343 O349 1.248 . S
C343 O350 1.264 . S
C344 O330 1.253 . S
C344 O332 1.260 . S
C345 O334 1.279 . S
C345 O335 1.250 . S
C346 O336 1.264 . S
C346 O340 1.248 . S
C347 O337 1.260 . S
C347 O341 1.253 . S
C348 O339 1.279 . S
C348 O342 1.250 . S
O349 Mg331 2.030 . S
O349 C343 1.248 . S
O350 Mg333 2.079 . S
O350 C343 1.264 . S
O351 Mg352 1.990 . S
O351 C365 1.253 . S
Mg352 O351 1.990 . S
Mg352 O355 2.180 . S
Mg352 O356 2.117 . S
Mg352 O370 2.030 . S
O353 Mg354 2.072 1_655 S
O353 C365 1.260 . S
Mg354 O353 2.072 1_455 S
Mg354 O355 2.099 1_455 S
Mg354 O357 2.079 . S
Mg354 O358 2.072 . S
Mg354 O360 2.099 . S
Mg354 O371 2.079 1_455 S
O355 Mg352 2.180 . S
O355 Mg354 2.099 1_655 S
O355 C366 1.279 . S
O356 Mg352 2.117 . S
O356 C366 1.250 . S
O357 Mg354 2.079 . S
O357 C367 1.264 . S
O358 Mg354 2.072 . S
O358 C368 1.260 . S
Mg359 O360 2.180 . S
Mg359 O361 2.030 . S
Mg359 O362 1.990 . S
Mg359 O363 2.117 . S
O360 Mg354 2.099 . S
O360 Mg359 2.180 . S
O360 C369 1.279 . S
O361 Mg359 2.030 . S
O361 C367 1.248 . S
O362 Mg359 1.990 . S
O362 C368 1.253 . S
O363 Mg359 2.117 . S
O363 C369 1.250 . S
C364 O370 1.248 . S
C364 O371 1.264 . S
C365 O351 1.253 . S
C365 O353 1.260 . S
C366 O355 1.279 . S
C366 O356 1.250 . S
C367 O357 1.264 . S
C367 O361 1.248 . S
C368 O358 1.260 . S
C368 O362 1.253 . S
C369 O360 1.279 . S
C369 O363 1.250 . S
O370 Mg352 2.030 . S
O370 C364 1.248 . S
O371 Mg354 2.079 1_655 S
O371 C364 1.264 . S
C372 C373 1.369 . S
C372 C374 1.419 . S
C372 H376 0.930 . S
C373 C372 1.369 . S
C373 C382 1.429 . S
C374 C372 1.419 . S
C374 C375 1.363 . S
C374 H377 0.929 . S
C375 C374 1.363 . S
C375 C381 1.428 . S
H376 C372 0.930 . S
H377 C374 0.929 . S
S378 N379 1.613 . S
S378 N380 1.610 . S
N379 S378 1.613 . S
N379 C382 1.350 . S
N380 S378 1.610 . S
N380 C381 1.351 . S
C381 C375 1.428 . S
C381 N380 1.351 . S
C381 C382 1.434 . S
C382 C373 1.429 . S
C382 N379 1.350 . S
C382 C381 1.434 . S
C383 C384 1.369 . S
C383 C385 1.419 . S
C383 H387 0.930 . S
C384 C383 1.369 . S
C384 C393 1.429 . S
C385 C383 1.419 . S
C385 C386 1.363 . S
C385 H388 0.929 . S
C386 C385 1.363 . S
C386 C392 1.428 . S
H387 C383 0.930 . S
H388 C385 0.929 . S
S389 N390 1.613 . S
S389 N391 1.610 . S
N390 S389 1.613 . S
N390 C393 1.350 . S
N391 S389 1.610 . S
N391 C392 1.351 . S
C392 C386 1.428 . S
C392 N391 1.351 . S
C392 C393 1.434 . S
C393 C384 1.429 . S
C393 N390 1.350 . S
C393 C392 1.434 . S
C394 C395 1.369 . S
C394 C396 1.419 . S
C394 H398 0.930 . S
C395 C394 1.369 . S
C395 C404 1.429 . S
C396 C394 1.419 . S
C396 C397 1.363 . S
C396 H399 0.929 . S
C397 C396 1.363 . S
C397 C403 1.428 . S
H398 C394 0.930 . S
H399 C396 0.929 . S
S400 N401 1.613 . S
S400 N402 1.610 . S
N401 S400 1.613 . S
N401 C404 1.350 . S
N402 S400 1.610 . S
N402 C403 1.351 . S
C403 C397 1.428 . S
C403 N402 1.351 . S
C403 C404 1.434 . S
C404 C395 1.429 . S
C404 N401 1.350 . S
C404 C403 1.434 . S
C405 C406 1.369 1_455 S
C405 C407 1.419 . S
C405 H409 0.930 . S
C406 C405 1.369 1_655 S
C406 C415 1.429 . S
C407 C405 1.419 . S
C407 C408 1.363 1_455 S
C407 H410 0.929 . S
C408 C407 1.363 1_655 S
C408 C414 1.428 . S
H409 C405 0.930 . S
H410 C407 0.929 . S
S411 N412 1.613 . S
S411 N413 1.610 . S
N412 S411 1.613 . S
N412 C415 1.350 . S
N413 S411 1.610 . S
N413 C414 1.351 . S
C414 C408 1.428 . S
C414 N413 1.351 . S
C414 C415 1.434 . S
C415 C406 1.429 . S
C415 N412 1.350 . S
C415 C414 1.434 . S
C416 C417 1.369 . S
C416 C418 1.419 . S
C416 H420 0.930 . S
C417 C416 1.369 . S
C417 C426 1.429 . S
C418 C416 1.419 . S
C418 C419 1.363 . S
C418 H421 0.929 . S
C419 C418 1.363 . S
C419 C425 1.428 . S
H420 C416 0.930 . S
H421 C418 0.929 . S
S422 N423 1.613 . S
S422 N424 1.610 . S
N423 S422 1.613 . S
N423 C426 1.350 . S
N424 S422 1.610 . S
N424 C425 1.351 . S
C425 C419 1.428 . S
C425 N424 1.351 . S
C425 C426 1.434 . S
C426 C417 1.429 . S
C426 N423 1.350 . S
C426 C425 1.434 . S
C427 C428 1.369 . S
C427 C429 1.419 . S
C427 H431 0.930 . S
C428 C427 1.369 . S
C428 C437 1.429 . S
C429 C427 1.419 . S
C429 C430 1.363 . S
C429 H432 0.929 . S
C430 C429 1.363 . S
C430 C436 1.428 . S
H431 C427 0.930 . S
H432 C429 0.929 . S
S433 N434 1.613 . S
S433 N435 1.610 1_554 S
N434 S433 1.613 . S
N434 C437 1.350 1_554 S
N435 S433 1.610 1_556 S
N435 C436 1.351 . S
C436 C430 1.428 . S
C436 N435 1.351 . S
C436 C437 1.434 . S
C437 C428 1.429 . S
C437 N434 1.350 1_556 S
C437 C436 1.434 . S
C438 C439 1.369 . S
C438 C440 1.419 . S
C438 H442 0.930 . S
C439 C438 1.369 . S
C439 C448 1.429 . S
C440 C438 1.419 . S
C440 C441 1.363 . S
C440 H443 0.929 . S
C441 C440 1.363 . S
C441 C447 1.428 . S
H442 C438 0.930 . S
H443 C440 0.929 . S
S444 N445 1.613 . S
S444 N446 1.610 1_554 S
N445 S444 1.613 . S
N445 C448 1.350 1_554 S
N446 S444 1.610 1_556 S
N446 C447 1.351 . S
C447 C441 1.428 . S
C447 N446 1.351 . S
C447 C448 1.434 . S
C448 C439 1.429 . S
C448 N445 1.350 1_556 S
C448 C447 1.434 . S
C449 C450 1.369 1_655 S
C449 C451 1.419 . S
C449 H453 0.930 1_556 S
C450 C449 1.369 1_455 S
C450 C459 1.429 . S
C451 C449 1.419 . S
C451 C452 1.363 1_655 S
C451 H454 0.929 . S
C452 C451 1.363 1_455 S
C452 C458 1.428 . S
H453 C449 0.930 1_554 S
H454 C451 0.929 . S
S455 N456 1.613 . S
S455 N457 1.610 . S
N456 S455 1.613 . S
N456 C459 1.350 . S
N457 S455 1.610 . S
N457 C458 1.351 . S
C458 C452 1.428 . S
C458 N457 1.351 . S
C458 C459 1.434 . S
C459 C450 1.429 . S
C459 N456 1.350 . S
C459 C458 1.434 . S
C460 C461 1.365 1_655 S
C460 C462 1.419 . S
C460 H464 0.930 . S
C461 C460 1.365 1_455 S
C461 C470 1.431 . S
C462 C460 1.419 . S
C462 C463 1.363 . S
C462 H465 0.929 . S
C463 C462 1.363 . S
C463 C469 1.428 1_655 S
H464 C460 0.930 . S
H465 C462 0.929 . S
S466 N467 1.613 . S
S466 N468 1.610 . S
N467 S466 1.613 . S
N467 C470 1.350 . S
N468 S466 1.610 . S
N468 C469 1.351 . S
C469 C463 1.428 1_455 S
C469 N468 1.351 . S
C469 C470 1.434 . S
C470 C461 1.431 . S
C470 N467 1.350 . S
C470 C469 1.434 . S
C471 C472 1.369 . S
C471 C473 1.419 . S
C471 H475 0.930 . S
C472 C471 1.369 . S
C472 C481 1.429 . S
C473 C471 1.419 . S
C473 C474 1.363 . S
C473 H476 0.929 . S
C474 C473 1.363 . S
C474 C480 1.428 . S
H475 C471 0.930 . S
H476 C473 0.929 . S
S477 N478 1.613 . S
S477 N479 1.610 . S
N478 S477 1.613 . S
N478 C481 1.350 . S
N479 S477 1.610 . S
N479 C480 1.351 . S
C480 C474 1.428 . S
C480 N479 1.351 . S
C480 C481 1.434 . S
C481 C472 1.429 . S
C481 N478 1.350 . S
C481 C480 1.434 . S
C482 C483 1.369 . S
C482 C484 1.419 . S
C482 H486 0.930 . S
C483 C482 1.369 . S
C483 C492 1.429 . S
C484 C482 1.419 . S
C484 C485 1.363 . S
C484 H487 0.929 . S
C485 C484 1.363 . S
C485 C491 1.428 . S
H486 C482 0.930 . S
H487 C484 0.929 . S
S488 N489 1.613 . S
S488 N490 1.610 . S
N489 S488 1.613 . S
N489 C492 1.350 . S
N490 S488 1.610 . S
N490 C491 1.351 . S
C491 C485 1.428 . S
C491 N490 1.351 . S
C491 C492 1.434 . S
C492 C483 1.429 . S
C492 N489 1.350 . S
C492 C491 1.434 . S
C493 C494 1.369 . S
C493 C495 1.419 . S
C493 H497 0.930 . S
C494 C493 1.369 . S
C494 C503 1.429 . S
C495 C493 1.419 . S
C495 C496 1.363 . S
C495 H498 0.929 . S
C496 C495 1.363 . S
C496 C502 1.428 . S
H497 C493 0.930 . S
H498 C495 0.929 . S
S499 N500 1.613 . S
S499 N501 1.610 . S
N500 S499 1.613 . S
N500 C503 1.350 . S
N501 S499 1.610 . S
N501 C502 1.351 . S
C502 C496 1.428 . S
C502 N501 1.351 . S
C502 C503 1.434 . S
C503 C494 1.429 . S
C503 N500 1.350 . S
C503 C502 1.434 . S
C504 C505 1.367 1_655 S
C504 C506 1.419 1_655 S
C504 H508 0.930 . S
C505 C504 1.367 1_455 S
C505 C514 1.434 . S
C506 C504 1.419 1_455 S
C506 C507 1.363 . S
C506 H509 0.927 1_455 S
C507 C506 1.363 . S
C507 C513 1.428 . S
H508 C504 0.930 . S
H509 C506 0.927 1_655 S
S510 N511 1.613 . S
S510 N512 1.610 . S
N511 S510 1.613 . S
N511 C514 1.350 . S
N512 S510 1.610 . S
N512 C513 1.351 . S
C513 C507 1.428 . S
C513 N512 1.351 . S
C513 C514 1.434 . S
C514 C505 1.434 . S
C514 N511 1.350 . S
C514 C513 1.434 . S
C515 C516 1.369 . S
C515 C517 1.419 . S
C515 H519 0.930 . S
C516 C515 1.369 . S
C516 C525 1.429 . S
C517 C515 1.419 . S
C517 C518 1.363 . S
C517 H520 0.929 . S
C518 C517 1.363 . S
C518 C524 1.428 . S
H519 C515 0.930 . S
H520 C517 0.929 . S
S521 N522 1.613 . S
S521 N523 1.610 . S
N522 S521 1.613 . S
N522 C525 1.350 . S
N523 S521 1.610 . S
N523 C524 1.351 . S
C524 C518 1.428 . S
C524 N523 1.351 . S
C524 C525 1.434 . S
C525 C516 1.429 . S
C525 N522 1.350 . S
C525 C524 1.434 . S
C526 C527 1.369 . S
C526 C528 1.419 . S
C526 H530 0.930 . S
C527 C526 1.369 . S
C527 C536 1.429 . S
C528 C526 1.419 . S
C528 C529 1.363 . S
C528 H531 0.929 . S
C529 C528 1.363 . S
C529 C535 1.428 . S
H530 C526 0.930 . S
H531 C528 0.929 . S
S532 N533 1.613 . S
S532 N534 1.610 . S
N533 S532 1.613 . S
N533 C536 1.350 . S
N534 S532 1.610 . S
N534 C535 1.351 . S
C535 C529 1.428 . S
C535 N534 1.351 . S
C535 C536 1.434 . S
C536 C527 1.429 . S
C536 N533 1.350 . S
C536 C535 1.434 . S
C537 C538 1.369 . S
C537 C539 1.419 . S
C537 H541 0.930 . S
C538 C537 1.369 . S
C538 C547 1.429 . S
C539 C537 1.419 . S
C539 C540 1.363 . S
C539 H542 0.929 . S
C540 C539 1.363 . S
C540 C546 1.428 . S
H541 C537 0.930 . S
H542 C539 0.929 . S
S543 N544 1.613 . S
S543 N545 1.610 . S
N544 S543 1.613 . S
N544 C547 1.350 . S
N545 S543 1.610 . S
N545 C546 1.351 . S
C546 C540 1.428 . S
C546 N545 1.351 . S
C546 C547 1.434 . S
C547 C538 1.429 . S
C547 N544 1.350 . S
C547 C546 1.434 . S
C548 C549 1.369 . S
C548 C550 1.419 . S
C548 H552 0.930 . S
C549 C548 1.369 . S
C549 C558 1.429 1_455 S
C550 C548 1.419 . S
C550 C551 1.363 . S
C550 H553 0.929 . S
C551 C550 1.363 . S
C551 C557 1.428 1_455 S
H552 C548 0.930 . S
H553 C550 0.929 . S
S554 N555 1.613 . S
S554 N556 1.610 . S
N555 S554 1.613 . S
N555 C558 1.350 . S
N556 S554 1.610 . S
N556 C557 1.351 . S
C557 C551 1.428 1_655 S
C557 N556 1.351 . S
C557 C558 1.434 . S
C558 C549 1.429 1_655 S
C558 N555 1.350 . S
C558 C557 1.434 . S
C559 C560 1.369 . S
C559 C561 1.419 . S
C559 H563 0.930 . S
C560 C559 1.369 . S
C560 C569 1.429 . S
C561 C559 1.419 . S
C561 C562 1.363 . S
C561 H564 0.929 . S
C562 C561 1.363 . S
C562 C568 1.428 . S
H563 C559 0.930 . S
H564 C561 0.929 . S
S565 N566 1.613 . S
S565 N567 1.610 . S
N566 S565 1.613 . S
N566 C569 1.350 1_554 S
N567 S565 1.610 . S
N567 C568 1.351 1_554 S
C568 C562 1.428 . S
C568 N567 1.351 1_556 S
C568 C569 1.434 . S
C569 C560 1.429 . S
C569 N566 1.350 1_556 S
C569 C568 1.434 . S
C570 C571 1.369 . S
C570 C572 1.419 . S
C570 H574 0.930 . S
C571 C570 1.369 . S
C571 C580 1.429 . S
C572 C570 1.419 . S
C572 C573 1.363 . S
C572 H575 0.929 . S
C573 C572 1.363 . S
C573 C579 1.428 . S
H574 C570 0.930 . S
H575 C572 0.929 . S
S576 N577 1.613 . S
S576 N578 1.610 1_554 S
N577 S576 1.613 . S
N577 C580 1.350 1_554 S
N578 S576 1.610 1_556 S
N578 C579 1.351 . S
C579 C573 1.428 . S
C579 N578 1.351 . S
C579 C580 1.434 . S
C580 C571 1.429 . S
C580 N577 1.350 1_556 S
C580 C579 1.434 . S
C581 C582 1.369 . S
C581 C583 1.419 . S
C581 H585 0.930 . S
C582 C581 1.369 . S
C582 C591 1.429 . S
C583 C581 1.419 . S
C583 C584 1.363 . S
C583 H586 0.929 . S
C584 C583 1.363 . S
C584 C590 1.428 . S
H585 C581 0.930 . S
H586 C583 0.929 . S
S587 N588 1.613 . S
S587 N589 1.610 1_554 S
N588 S587 1.613 . S
N588 C591 1.350 1_554 S
N589 S587 1.610 1_556 S
N589 C590 1.351 . S
C590 C584 1.428 . S
C590 N589 1.351 . S
C590 C591 1.434 . S
C591 C582 1.429 . S
C591 N588 1.350 1_556 S
C591 C590 1.434 . S
C592 C593 1.369 . S
C592 C594 1.419 . S
C592 H596 0.930 . S
C593 C592 1.369 . S
C593 C602 1.429 1_655 S
C594 C592 1.419 . S
C594 C595 1.363 . S
C594 H597 0.929 . S
C595 C594 1.363 . S
C595 C601 1.428 1_655 S
H596 C592 0.930 . S
H597 C594 0.929 . S
S598 N599 1.613 . S
S598 N600 1.610 . S
N599 S598 1.613 . S
N599 C602 1.350 . S
N600 S598 1.610 . S
N600 C601 1.351 . S
C601 C595 1.428 1_455 S
C601 N600 1.351 . S
C601 C602 1.434 . S
C602 C593 1.429 1_455 S
C602 N599 1.350 . S
C602 C601 1.434 . S
C603 C604 1.369 . S
C603 C605 1.419 . S
C603 H607 0.930 . S
C604 C603 1.369 . S
C604 C613 1.429 . S
C605 C603 1.419 . S
C605 C606 1.363 . S
C605 H608 0.929 . S
C606 C605 1.363 . S
C606 C612 1.428 . S
H607 C603 0.930 . S
H608 C605 0.929 . S
S609 N610 1.613 . S
S609 N611 1.610 . S
N610 S609 1.613 . S
N610 C613 1.350 . S
N611 S609 1.610 . S
N611 C612 1.351 . S
C612 C606 1.428 . S
C612 N611 1.351 . S
C612 C613 1.434 . S
C613 C604 1.429 . S
C613 N610 1.350 . S
C613 C612 1.434 . S
C614 C615 1.369 . S
C614 C616 1.419 . S
C614 H618 0.930 . S
C615 C614 1.369 . S
C615 C624 1.429 . S
C616 C614 1.419 . S
C616 C617 1.363 . S
C616 H619 0.929 . S
C617 C616 1.363 . S
C617 C623 1.428 . S
H618 C614 0.930 . S
H619 C616 0.929 . S
S620 N621 1.613 . S
S620 N622 1.610 . S
N621 S620 1.613 . S
N621 C624 1.350 . S
N622 S620 1.610 . S
N622 C623 1.351 . S
C623 C617 1.428 . S
C623 N622 1.351 . S
C623 C624 1.434 . S
C624 C615 1.429 . S
C624 N621 1.350 . S
C624 C623 1.434 . S
C625 C626 1.369 . S
C625 C627 1.419 . S
C625 H629 0.930 . S
C626 C625 1.369 . S
C626 C635 1.429 . S
C627 C625 1.419 . S
C627 C628 1.363 . S
C627 H630 0.929 . S
C628 C627 1.363 . S
C628 C634 1.428 . S
H629 C625 0.930 . S
H630 C627 0.929 . S
S631 N632 1.613 . S
S631 N633 1.610 . S
N632 S631 1.613 . S
N632 C635 1.350 . S
N633 S631 1.610 . S
N633 C634 1.351 . S
C634 C628 1.428 . S
C634 N633 1.351 . S
C634 C635 1.434 . S
C635 C626 1.429 . S
C635 N632 1.350 . S
C635 C634 1.434 . S
C373 C241 2.086 . S
C375 C303 2.132 . S
C386 C327 1.549 . S
C384 C277 1.757 . S
C397 C348 2.095 . S
C395 C169 2.054 . S
C408 C366 1.582 . S
C406 C205 1.732 1_655 S
C419 C306 1.997 1_565 S
C417 C97 1.865 1_556 S
C428 C133 1.600 1_556 S
C430 C324 1.384 . S
C439 C25 1.834 1_556 S
C441 C345 1.953 . S
C450 C61 1.553 1_556 S
C452 C369 1.432 . S
C463 C304 0.755 . S
C461 C211 0.733 . S
C474 C322 1.239 . S
C472 C247 1.165 . S
C485 C343 0.715 . S
C483 C253 0.734 . S
C494 C175 1.179 . S
C496 C367 1.244 . S
C505 C67 0.780 . S
C507 C302 0.772 . S
C518 C326 1.316 1_565 S
C516 C103 1.097 . S
C529 C347 0.758 . S
C527 C109 0.776 . S
C538 C31 1.104 . S
C540 C365 1.331 . S
C549 C181 2.020 . S
C551 C305 2.060 . S
C560 C217 2.220 . S
C562 C323 2.285 . S
C573 C344 2.042 . S
C571 C283 1.963 . S
C584 C368 2.297 . S
C582 C145 2.224 1_556 S
C593 C37 1.926 1_655 S
C595 C301 1.922 . S
C606 C325 2.143 . S
C604 C73 2.052 . S
C617 C346 1.907 . S
C615 C139 1.831 . S
C626 C1 2.069 . S
C628 C364 2.165 . S
