# Generated by pormake.
# Topology nom, (4,4)-cn, num edge types: 1
# Building blocks:
#     Node 0, Type 0, BuildingBlock: AZAVOO_clean_linker_0, # of connection points: 4
#     Node 1, Type 0, BuildingBlock: AZAVOO_clean_linker_0, # of connection points: 4
#     Node 2, Type 0, BuildingBlock: AZAVOO_clean_linker_0, # of connection points: 4
#     Node 3, Type 0, BuildingBlock: AZAVOO_clean_linker_0, # of connection points: 4
#     Node 4, Type 0, BuildingBlock: AZAVOO_clean_linker_0, # of connection points: 4
#     Node 5, Type 0, BuildingBlock: AZAVOO_clean_linker_0, # of connection points: 4
#     Node 6, Type 1, BuildingBlock: TATPOV_clean_sbu_0, # of connection points: 4
#     Node 7, Type 1, BuildingBlock: TATPOV_clean_sbu_0, # of connection points: 4
#     Node 8, Type 1, BuildingBlock: TATPOV_clean_sbu_0, # of connection points: 4
#     Node 9, Type 1, BuildingBlock: TATPOV_clean_sbu_0, # of connection points: 4
#     Node 10, Type 1, BuildingBlock: TATPOV_clean_sbu_0, # of connection points: 4
#     Node 11, Type 1, BuildingBlock: TATPOV_clean_sbu_0, # of connection points: 4
#     Edge 12, Type (0, 1), BuildingBlock: XUDNAN_clean_linker_2, # of connection points: 2
#     Edge 13, Type (0, 1), BuildingBlock: XUDNAN_clean_linker_2, # of connection points: 2
#     Edge 14, Type (0, 1), BuildingBlock: XUDNAN_clean_linker_2, # of connection points: 2
#     Edge 15, Type (0, 1), BuildingBlock: XUDNAN_clean_linker_2, # of connection points: 2
#     Edge 16, Type (0, 1), BuildingBlock: XUDNAN_clean_linker_2, # of connection points: 2
#     Edge 17, Type (0, 1), BuildingBlock: XUDNAN_clean_linker_2, # of connection points: 2
#     Edge 18, Type (0, 1), BuildingBlock: XUDNAN_clean_linker_2, # of connection points: 2
#     Edge 19, Type (0, 1), BuildingBlock: XUDNAN_clean_linker_2, # of connection points: 2
#     Edge 20, Type (0, 1), BuildingBlock: XUDNAN_clean_linker_2, # of connection points: 2
#     Edge 21, Type (0, 1), BuildingBlock: XUDNAN_clean_linker_2, # of connection points: 2
#     Edge 22, Type (0, 1), BuildingBlock: XUDNAN_clean_linker_2, # of connection points: 2
#     Edge 23, Type (0, 1), BuildingBlock: XUDNAN_clean_linker_2, # of connection points: 2
#     Edge 24, Type (0, 1), BuildingBlock: XUDNAN_clean_linker_2, # of connection points: 2
#     Edge 25, Type (0, 1), BuildingBlock: XUDNAN_clean_linker_2, # of connection points: 2
#     Edge 26, Type (0, 1), BuildingBlock: XUDNAN_clean_linker_2, # of connection points: 2
#     Edge 27, Type (0, 1), BuildingBlock: XUDNAN_clean_linker_2, # of connection points: 2
#     Edge 28, Type (0, 1), BuildingBlock: XUDNAN_clean_linker_2, # of connection points: 2
#     Edge 29, Type (0, 1), BuildingBlock: XUDNAN_clean_linker_2, # of connection points: 2
#     Edge 30, Type (0, 1), BuildingBlock: XUDNAN_clean_linker_2, # of connection points: 2
#     Edge 31, Type (0, 1), BuildingBlock: XUDNAN_clean_linker_2, # of connection points: 2
#     Edge 32, Type (0, 1), BuildingBlock: XUDNAN_clean_linker_2, # of connection points: 2
#     Edge 33, Type (0, 1), BuildingBlock: XUDNAN_clean_linker_2, # of connection points: 2
#     Edge 34, Type (0, 1), BuildingBlock: XUDNAN_clean_linker_2, # of connection points: 2
#     Edge 35, Type (0, 1), BuildingBlock: XUDNAN_clean_linker_2, # of connection points: 2
# Relax obj value: 0.159
# Max RMSD: 0.227
# Mean RMSD: 0.171
data_MOF--net-nom--node1-TATPOV_clean_sbu_0--node2-AZAVOO_clean_linker_0--edge1-XUDNAN_clean_linker_2
_symmetry_space_group_name_H-M    P1
_symmetry_Int_Tables_number       1
_symmetry_cell_setting            triclinic
loop_
_symmetry_equiv_pos_as_xyz
'x, y, z'
_cell_length_a     47.451165
_cell_length_b     49.412965
_cell_length_c     59.334059
_cell_angle_alpha  90.595222
_cell_angle_beta   90.262924
_cell_angle_gamma 121.07236
loop_
_atom_site_label
_atom_site_type_symbol
_atom_site_fract_x
_atom_site_fract_y
_atom_site_fract_z
_atom_type_partial_charge
H0 H 0.07661 0.44363 0.16443 0.0
H1 H 0.22588 0.58259 0.40066 0.0
H2 H 0.99063 0.41292 0.26685 0.0
H3 H 0.95643 0.40899 0.23452 0.0
H4 H 0.95845 0.49309 0.25807 0.0
H5 H 0.9952 0.49864 0.28861 0.0
H6 H 0.06701 0.4322 0.26254 0.0
H7 H 0.07285 0.42976 0.22171 0.0
H8 H 0.05607 0.50726 0.21364 0.0
H9 H 0.05076 0.50971 0.25448 0.0
H10 H 0.12869 0.46664 0.29489 0.0
H11 H 0.18423 0.49874 0.27913 0.0
H12 H 0.16545 0.57454 0.26804 0.0
H13 H 0.11049 0.54213 0.28266 0.0
H14 H 0.10148 0.45621 0.34915 0.0
H15 H 0.14752 0.47877 0.37616 0.0
H16 H 0.17136 0.57274 0.35792 0.0
H17 H 0.12525 0.54984 0.33103 0.0
H18 H 0.04224 0.44903 0.37232 0.0
H19 H 0.05398 0.47221 0.41072 0.0
H20 H 0.07276 0.56068 0.38365 0.0
H21 H 0.06291 0.53819 0.34563 0.0
H22 H 0.9642 0.41249 0.32526 0.0
H23 H 0.91177 0.40471 0.33881 0.0
H24 H 0.95766 0.50586 0.34826 0.0
H25 H 0.00812 0.51323 0.3327 0.0
O26 O 0.07433 0.44508 0.18053 0.0
O27 O 0.06529 0.48478 0.17729 0.0
O28 O 0.19602 0.52434 0.39756 0.0
O29 O 0.20829 0.57308 0.38954 0.0
C30 C 0.02366 0.46389 0.29565 0.0
C31 C 0.05443 0.47209 0.28621 0.0
C32 C 0.08279 0.48452 0.30007 0.0
C33 C 0.08035 0.48753 0.32348 0.0
C34 C 0.05009 0.48054 0.3329 0.0
C35 C 0.02161 0.46855 0.31907 0.0
C36 C 0.99551 0.45606 0.28022 0.0
C37 C 0.98303 0.43006 0.26526 0.0
C38 C 0.96334 0.42778 0.24682 0.0
C39 C 0.9553 0.45116 0.24336 0.0
C40 C 0.96497 0.47519 0.25979 0.0
C41 C 0.98539 0.47798 0.2777 0.0
C42 C 0.058 0.4708 0.2614 0.0
C43 C 0.0646 0.4486 0.2519 0.0
C44 C 0.0679 0.44726 0.22858 0.0
C45 C 0.06477 0.46822 0.21439 0.0
C46 C 0.05849 0.49068 0.22406 0.0
C47 C 0.05532 0.49206 0.24737 0.0
C48 C 0.11563 0.50205 0.28962 0.0
C49 C 0.13665 0.48999 0.28862 0.0
C50 C 0.16831 0.5084 0.27974 0.0
C51 C 0.17924 0.53909 0.27194 0.0
C52 C 0.15773 0.55071 0.27306 0.0
C53 C 0.1263 0.53233 0.28164 0.0
C54 C 0.11028 0.5014 0.33805 0.0
C55 C 0.11699 0.48165 0.35081 0.0
C56 C 0.14319 0.49461 0.36628 0.0
C57 C 0.16306 0.52758 0.36926 0.0
C58 C 0.15656 0.54728 0.35607 0.0
C59 C 0.13038 0.53428 0.3406 0.0
C60 C 0.05049 0.49159 0.35629 0.0
C61 C 0.04798 0.4731 0.37483 0.0
C62 C 0.05489 0.48637 0.39661 0.0
C63 C 0.06374 0.51801 0.40001 0.0
C64 C 0.06524 0.53604 0.38148 0.0
C65 C 0.05926 0.52312 0.35981 0.0
C66 C 0.99038 0.4634 0.32867 0.0
C67 C 0.96276 0.43285 0.33036 0.0
C68 C 0.9329 0.42848 0.33823 0.0
C69 C 0.9303 0.45464 0.34464 0.0
C70 C 0.95832 0.48511 0.34315 0.0
C71 C 0.98771 0.48941 0.33486 0.0
C72 C 0.06813 0.46663 0.18963 0.0
C73 C 0.19012 0.54144 0.38628 0.0
H74 H 0.53199 0.0744 0.33767 0.0
H75 H 0.54675 0.23738 0.56898 0.0
H76 H 0.5205 0.01018 0.47296 0.0
H77 H 0.51534 0.9682 0.44811 0.0
H78 H 0.43218 0.9645 0.41466 0.0
H79 H 0.43626 0.00503 0.44071 0.0
H80 H 0.53949 0.06249 0.43516 0.0
H81 H 0.54399 0.06591 0.39411 0.0
H82 H 0.46245 0.08164 0.39111 0.0
H83 H 0.45798 0.07779 0.43218 0.0
H84 H 0.56269 0.12914 0.45248 0.0
H85 H 0.58323 0.17919 0.43279 0.0
H86 H 0.49671 0.18099 0.45242 0.0
H87 H 0.47562 0.1302 0.47133 0.0
H88 H 0.56689 0.13033 0.51356 0.0
H89 H 0.58989 0.17844 0.5369 0.0
H90 H 0.49478 0.17059 0.53712 0.0
H91 H 0.47215 0.12245 0.5139 0.0
H92 H 0.53658 0.05527 0.53178 0.0
H93 H 0.54957 0.06288 0.57171 0.0
H94 H 0.47475 0.08713 0.58141 0.0
H95 H 0.45877 0.07459 0.54183 0.0
H96 H 0.5097 0.0054 0.51515 0.0
H97 H 0.4815 0.9529 0.53146 0.0
H98 H 0.38774 0.94287 0.51453 0.0
H99 H 0.41642 0.99642 0.49973 0.0
O100 O 0.52969 0.07301 0.35388 0.0
O101 O 0.48775 0.08112 0.35327 0.0
O102 O 0.58673 0.22144 0.55908 0.0
O103 O 0.53837 0.21852 0.55967 0.0
C104 C 0.48458 0.03845 0.47227 0.0
C105 C 0.49563 0.06766 0.46154 0.0
C106 C 0.50482 0.09514 0.47458 0.0
C107 C 0.50411 0.09358 0.49833 0.0
C108 C 0.49279 0.06432 0.50907 0.0
C109 C 0.48188 0.03656 0.49598 0.0
C110 C 0.47859 0.01047 0.45877 0.0
C111 C 0.50053 0.99956 0.46073 0.0
C112 C 0.49786 0.97592 0.44624 0.0
C113 C 0.47356 0.96311 0.42918 0.0
C114 C 0.45093 0.97344 0.42776 0.0
C115 C 0.45331 0.99676 0.44253 0.0
C116 C 0.49829 0.06971 0.43661 0.0
C117 C 0.52251 0.06648 0.42559 0.0
C118 C 0.52508 0.06854 0.40214 0.0
C119 C 0.50356 0.07403 0.38932 0.0
C120 C 0.47939 0.07737 0.40047 0.0
C121 C 0.4768 0.07522 0.42392 0.0
C122 C 0.5177 0.12607 0.46338 0.0
C123 C 0.54811 0.14027 0.45245 0.0
C124 C 0.55977 0.16876 0.44123 0.0
C125 C 0.5415 0.18384 0.44113 0.0
C126 C 0.51133 0.1699 0.45242 0.0
C127 C 0.49935 0.14104 0.46325 0.0
C128 C 0.51797 0.12312 0.51199 0.0
C129 C 0.55116 0.13917 0.51862 0.0
C130 C 0.56418 0.16658 0.53196 0.0
C131 C 0.54416 0.17839 0.53886 0.0
C132 C 0.51089 0.16219 0.53208 0.0
C133 C 0.49791 0.13476 0.51877 0.0
C134 C 0.49639 0.06386 0.53389 0.0
C135 C 0.52174 0.06043 0.54275 0.0
C136 C 0.52981 0.06582 0.56561 0.0
C137 C 0.51404 0.0767 0.57995 0.0
C138 C 0.48745 0.0786 0.57117 0.0
C139 C 0.47839 0.07174 0.54841 0.0
C140 C 0.46515 0.00509 0.50675 0.0
C141 C 0.48311 0.99227 0.51559 0.0
C142 C 0.46684 0.9619 0.52454 0.0
C143 C 0.4322 0.9434 0.52435 0.0
C144 C 0.41435 0.9565 0.51546 0.0
C145 C 0.43069 0.98706 0.50683 0.0
C146 C 0.50641 0.07629 0.36441 0.0
C147 C 0.55782 0.20741 0.55313 0.0
H148 H 0.52491 0.53471 0.79904 0.0
H149 H 0.59149 0.4176 0.57193 0.0
H150 H 0.54325 0.60173 0.67002 0.0
H151 H 0.53278 0.63226 0.69787 0.0
H152 H 0.433 0.55431 0.70454 0.0
H153 H 0.44371 0.52373 0.67659 0.0
H154 H 0.55473 0.5655 0.70381 0.0
H155 H 0.54943 0.56252 0.74489 0.0
H156 H 0.45834 0.47269 0.73773 0.0
H157 H 0.464 0.47601 0.69668 0.0
H158 H 0.58033 0.52744 0.68899 0.0
H159 H 0.59908 0.49623 0.70885 0.0
H160 H 0.51452 0.41046 0.68276 0.0
H161 H 0.4955 0.44188 0.66375 0.0
H162 H 0.59734 0.53294 0.63525 0.0
H163 H 0.62594 0.5109 0.61488 0.0
H164 H 0.5321 0.42898 0.59612 0.0
H165 H 0.50388 0.45139 0.6165 0.0
H166 H 0.57675 0.57916 0.61381 0.0
H167 H 0.60889 0.58652 0.58039 0.0
H168 H 0.5286 0.4995 0.55182 0.0
H169 H 0.49727 0.49164 0.58634 0.0
H170 H 0.52307 0.60217 0.62875 0.0
H171 H 0.48981 0.6195 0.60878 0.0
H172 H 0.41881 0.52235 0.59093 0.0
H173 H 0.45154 0.5053 0.61145 0.0
O174 O 0.52618 0.53576 0.78277 0.0
O175 O 0.47567 0.49412 0.77813 0.0
O176 O 0.6284 0.46969 0.58991 0.0
O177 O 0.58085 0.4266 0.58043 0.0
C178 C 0.5038 0.54018 0.65958 0.0
C179 C 0.51343 0.52237 0.67253 0.0
C180 C 0.52641 0.50564 0.6618 0.0
C181 C 0.53146 0.50816 0.63837 0.0
C182 C 0.52202 0.52613 0.62552 0.0
C183 C 0.5066 0.54074 0.63592 0.0
C184 C 0.49418 0.56064 0.67131 0.0
C185 C 0.51872 0.59176 0.67677 0.0
C186 C 0.51277 0.60911 0.69266 0.0
C187 C 0.48213 0.59556 0.70325 0.0
C188 C 0.45666 0.56538 0.69632 0.0
C189 C 0.46273 0.54789 0.68048 0.0
C190 C 0.50973 0.52097 0.69736 0.0
C191 C 0.53359 0.5453 0.71118 0.0
C192 C 0.53055 0.54347 0.73461 0.0
C193 C 0.50353 0.51729 0.74459 0.0
C194 C 0.47944 0.49317 0.73059 0.0
C195 C 0.48261 0.49497 0.70717 0.0
C196 C 0.5365 0.48682 0.6751 0.0
C197 C 0.56564 0.50189 0.68795 0.0
C198 C 0.57643 0.48405 0.69907 0.0
C199 C 0.55832 0.45086 0.69737 0.0
C200 C 0.52879 0.43593 0.68474 0.0
C201 C 0.51796 0.45379 0.67375 0.0
C202 C 0.54863 0.49366 0.62736 0.0
C203 C 0.58308 0.51011 0.62688 0.0
C204 C 0.5993 0.49753 0.61518 0.0
C205 C 0.58129 0.46819 0.60382 0.0
C206 C 0.54672 0.45161 0.60466 0.0
C207 C 0.53053 0.46427 0.61633 0.0
C208 C 0.53482 0.53488 0.60245 0.0
C209 C 0.56562 0.56232 0.59996 0.0
C210 C 0.58402 0.56641 0.58074 0.0
C211 C 0.57167 0.54332 0.56342 0.0
C212 C 0.53927 0.51734 0.56506 0.0
C213 C 0.52103 0.51305 0.58455 0.0
C214 C 0.48937 0.55245 0.62187 0.0
C215 C 0.50036 0.58472 0.62049 0.0
C216 C 0.4815 0.59456 0.6089 0.0
C217 C 0.45147 0.57222 0.59851 0.0
C218 C 0.44147 0.54007 0.59911 0.0
C219 C 0.46025 0.53031 0.61068 0.0
C220 C 0.50079 0.51497 0.76948 0.0
C221 C 0.59838 0.45498 0.59102 0.0
H222 H 0.03676 0.43742 0.96556 0.0
H223 H 0.25008 0.51324 0.75559 0.0
H224 H 0.00241 0.46582 0.8401 0.0
H225 H 0.96829 0.45908 0.87257 0.0
H226 H 0.93985 0.36104 0.876 0.0
H227 H 0.97343 0.36767 0.84274 0.0
H228 H 0.06117 0.47637 0.87152 0.0
H229 H 0.05567 0.46968 0.91238 0.0
H230 H 0.02508 0.3712 0.90364 0.0
H231 H 0.03143 0.37847 0.8628 0.0
H232 H 0.12343 0.50055 0.84847 0.0
H233 H 0.1701 0.51232 0.87315 0.0
H234 H 0.1467 0.41578 0.86571 0.0
H235 H 0.09976 0.40414 0.84118 0.0
H236 H 0.11653 0.51204 0.79193 0.0
H237 H 0.17082 0.54015 0.77458 0.0
H238 H 0.17786 0.45665 0.78044 0.0
H239 H 0.12331 0.42868 0.79745 0.0
H240 H 0.04126 0.48442 0.77156 0.0
H241 H 0.05963 0.50699 0.73428 0.0
H242 H 0.09883 0.44588 0.72346 0.0
H243 H 0.07764 0.42172 0.75965 0.0
H244 H 0.97842 0.44917 0.80128 0.0
H245 H 0.92376 0.42059 0.78407 0.0
H246 H 0.94694 0.35452 0.75362 0.0
H247 H 0.00036 0.38165 0.77273 0.0
O248 O 0.03995 0.4398 0.94945 0.0
O249 O 0.02617 0.38978 0.94424 0.0
O250 O 0.22356 0.54486 0.75958 0.0
O251 O 0.2286 0.5027 0.76245 0.0
C252 C 0.02072 0.42523 0.82662 0.0
C253 C 0.04878 0.43189 0.83948 0.0
C254 C 0.07947 0.44423 0.82909 0.0
C255 C 0.08271 0.45126 0.80598 0.0
C256 C 0.05445 0.44346 0.79275 0.0
C257 C 0.02323 0.42976 0.80303 0.0
C258 C 0.99033 0.41723 0.83897 0.0
C259 C 0.98718 0.44236 0.84686 0.0
C260 C 0.96796 0.43857 0.86558 0.0
C261 C 0.95196 0.40969 0.87691 0.0
C262 C 0.95182 0.38346 0.86743 0.0
C263 C 0.9709 0.38721 0.84842 0.0
C264 C 0.04649 0.42785 0.86429 0.0
C265 C 0.05352 0.45345 0.87851 0.0
C266 C 0.0503 0.44953 0.90182 0.0
C267 C 0.03964 0.41983 0.91127 0.0
C268 C 0.03318 0.39434 0.89691 0.0
C269 C 0.03676 0.3984 0.87361 0.0
C270 C 0.10857 0.45163 0.843 0.0
C271 C 0.12851 0.48204 0.85215 0.0
C272 C 0.15484 0.48858 0.86636 0.0
C273 C 0.16173 0.46483 0.87143 0.0
C274 C 0.14186 0.43444 0.86202 0.0
C275 C 0.11524 0.42781 0.84803 0.0
C276 C 0.11604 0.46836 0.79596 0.0
C277 C 0.12986 0.49989 0.78945 0.0
C278 C 0.16086 0.51588 0.77955 0.0
C279 C 0.1787 0.50064 0.77613 0.0
C280 C 0.16482 0.46909 0.78285 0.0
C281 C 0.13374 0.45309 0.79266 0.0
C282 C 0.05849 0.4517 0.76846 0.0
C283 C 0.0527 0.47513 0.76071 0.0
C284 C 0.06388 0.48846 0.73953 0.0
C285 C 0.08161 0.479 0.72587 0.0
C286 C 0.08515 0.45384 0.73317 0.0
C287 C 0.07321 0.44002 0.75404 0.0
C288 C 0.99291 0.41681 0.78899 0.0
C289 C 0.97157 0.42839 0.79104 0.0
C290 C 0.94046 0.41227 0.78078 0.0
C291 C 0.93047 0.38471 0.76776 0.0
C292 C 0.95325 0.37498 0.76411 0.0
C293 C 0.98401 0.3907 0.7748 0.0
C294 C 0.03488 0.41545 0.93595 0.0
C295 C 0.21161 0.5175 0.76555 0.0
H296 H 0.47019 0.99479 0.84632 0.0
H297 H 0.40902 0.80287 0.05543 0.0
H298 H 0.48548 0.04722 0.9598 0.0
H299 H 0.51002 0.09077 0.93391 0.0
H300 H 0.60692 0.11633 0.95863 0.0
H301 H 0.58181 0.06993 0.9824 0.0
H302 H 0.44726 0.97764 0.94327 0.0
H303 H 0.4469 0.98074 0.90216 0.0
H304 H 0.55225 0.02062 0.90199 0.0
H305 H 0.5522 0.017 0.94308 0.0
H306 H 0.41894 0.92093 0.97637 0.0
H307 H 0.39672 0.86826 0.95927 0.0
H308 H 0.4952 0.89303 0.94082 0.0
H309 H 0.51688 0.94537 0.95761 0.0
H310 H 0.42788 0.94251 0.0299 0.0
H311 H 0.39689 0.89162 0.04872 0.0
H312 H 0.46691 0.86683 0.02512 0.0
H313 H 0.49797 0.91801 0.00674 0.0
H314 H 0.47634 0.01633 0.04904 0.0
H315 H 0.46569 0.00307 0.08877 0.0
H316 H 0.51345 0.94865 0.08317 0.0
H317 H 0.52685 0.96488 0.04428 0.0
H318 H 0.50668 0.07007 0.01788 0.0
H319 H 0.54346 0.11991 0.03816 0.0
H320 H 0.6138 0.09036 0.04801 0.0
H321 H 0.57678 0.04048 0.02805 0.0
O322 O 0.47086 0.9935 0.86256 0.0
O323 O 0.52504 0.01399 0.86339 0.0
O324 O 0.3859 0.83732 0.06028 0.0
O325 O 0.42087 0.8232 0.04822 0.0
C326 C 0.5165 0.02415 0.98429 0.0
C327 C 0.49993 0.99591 0.9712 0.0
C328 C 0.4839 0.96641 0.98189 0.0
C329 C 0.48385 0.96497 0.00564 0.0
C330 C 0.50166 0.99307 0.0187 0.0
C331 C 0.51832 0.02264 0.00801 0.0
C332 C 0.53178 0.05506 0.97277 0.0
C333 C 0.51202 0.06243 0.95973 0.0
C334 C 0.52629 0.08781 0.94506 0.0
C335 C 0.56078 0.10726 0.94372 0.0
C336 C 0.58038 0.10144 0.9585 0.0
C337 C 0.56605 0.07523 0.97254 0.0
C338 C 0.49975 0.99714 0.94616 0.0
C339 C 0.47019 0.98683 0.93431 0.0
C340 C 0.47008 0.98874 0.91083 0.0
C341 C 0.49956 0.001 0.89878 0.0
C342 C 0.52912 0.0111 0.91074 0.0
C343 C 0.52918 0.0091 0.93421 0.0
C344 C 0.4695 0.93679 0.9683 0.0
C345 C 0.4355 0.91509 0.96816 0.0
C346 C 0.42292 0.88504 0.95851 0.0
C347 C 0.44421 0.87639 0.9488 0.0
C348 C 0.47804 0.899 0.94783 0.0
C349 C 0.49054 0.92892 0.95749 0.0
C350 C 0.46505 0.93387 0.01688 0.0
C351 C 0.43648 0.92606 0.02886 0.0
C352 C 0.41883 0.89697 0.03956 0.0
C353 C 0.42939 0.87511 0.03838 0.0
C354 C 0.45806 0.88307 0.02633 0.0
C355 C 0.47578 0.91224 0.01575 0.0
C356 C 0.50182 0.99108 0.04366 0.0
C357 C 0.48563 0.00262 0.0567 0.0
C358 C 0.47904 0.99447 0.07934 0.0
C359 C 0.48767 0.97384 0.08916 0.0
C360 C 0.50639 0.9646 0.07645 0.0
C361 C 0.51385 0.97361 0.05404 0.0
C362 C 0.53917 0.0518 0.02151 0.0
C363 C 0.52987 0.07428 0.02467 0.0
C364 C 0.55077 0.10257 0.03627 0.0
C365 C 0.58142 0.10888 0.04456 0.0
C366 C 0.59038 0.08607 0.04167 0.0
C367 C 0.56927 0.05762 0.03039 0.0
C368 C 0.49939 0.00326 0.87386 0.0
C369 C 0.41067 0.84413 0.04965 0.0
H370 H 0.57862 0.55695 0.0002 0.0
H371 H 0.62442 0.44183 0.24413 0.0
H372 H 0.5284 0.58088 0.11986 0.0
H373 H 0.52901 0.60813 0.08559 0.0
H374 H 0.63528 0.65742 0.08558 0.0
H375 H 0.63429 0.62963 0.1197 0.0
H376 H 0.53709 0.53472 0.0942 0.0
H377 H 0.54448 0.53871 0.05333 0.0
H378 H 0.64906 0.57849 0.06309 0.0
H379 H 0.64135 0.57489 0.10395 0.0
H380 H 0.54743 0.47913 0.11487 0.0
H381 H 0.56534 0.4468 0.09472 0.0
H382 H 0.66328 0.50592 0.12243 0.0
H383 H 0.64528 0.53775 0.14251 0.0
H384 H 0.54005 0.46978 0.16693 0.0
H385 H 0.54501 0.43262 0.19119 0.0
H386 H 0.63759 0.50924 0.21744 0.0
H387 H 0.6325 0.54603 0.19292 0.0
H388 H 0.52974 0.51296 0.2013 0.0
H389 H 0.53388 0.50969 0.2423 0.0
H390 H 0.62508 0.59983 0.24284 0.0
H391 H 0.6212 0.60256 0.20203 0.0
H392 H 0.52178 0.57326 0.1797 0.0
H393 H 0.51433 0.61514 0.19539 0.0
H394 H 0.61537 0.6842 0.17985 0.0
H395 H 0.62231 0.64216 0.16387 0.0
O396 O 0.57611 0.55461 0.01636 0.0
O397 O 0.62929 0.57262 0.02215 0.0
O398 O 0.5729 0.41787 0.22166 0.0
O399 O 0.62192 0.45594 0.23425 0.0
C400 C 0.58041 0.5787 0.13674 0.0
C401 C 0.58444 0.55483 0.12677 0.0
C402 C 0.5859 0.53241 0.14037 0.0
C403 C 0.58236 0.5332 0.16391 0.0
C404 C 0.57709 0.55643 0.17384 0.0
C405 C 0.57654 0.57949 0.16023 0.0
C406 C 0.58125 0.60311 0.12204 0.0
C407 C 0.55181 0.59871 0.11307 0.0
C408 C 0.55227 0.6143 0.09345 0.0
C409 C 0.58223 0.63447 0.08268 0.0
C410 C 0.61185 0.64165 0.09334 0.0
C411 C 0.61135 0.62606 0.11292 0.0
C412 C 0.58866 0.55442 0.10198 0.0
C413 C 0.56152 0.54403 0.08744 0.0
C414 C 0.56583 0.54642 0.06412 0.0
C415 C 0.59737 0.55899 0.05494 0.0
C416 C 0.62443 0.56869 0.0696 0.0
C417 C 0.6201 0.56648 0.09293 0.0
C418 C 0.59511 0.51065 0.13013 0.0
C419 C 0.57258 0.48469 0.11679 0.0
C420 C 0.58278 0.46634 0.10535 0.0
C421 C 0.61571 0.47419 0.10689 0.0
C422 C 0.63786 0.49967 0.12078 0.0
C423 C 0.6276 0.51768 0.13236 0.0
C424 C 0.58583 0.51058 0.17826 0.0
C425 C 0.56144 0.47843 0.17786 0.0
C426 C 0.5643 0.4573 0.19178 0.0
C427 C 0.59169 0.46798 0.20629 0.0
C428 C 0.61619 0.50022 0.20648 0.0
C429 C 0.61333 0.5213 0.19253 0.0
C430 C 0.57522 0.55796 0.19871 0.0
C431 C 0.55012 0.53236 0.21041 0.0
C432 C 0.55257 0.53045 0.23374 0.0
C433 C 0.57985 0.55443 0.24568 0.0
C434 C 0.60357 0.58119 0.23411 0.0
C435 C 0.60136 0.58285 0.21079 0.0
C436 C 0.57247 0.60474 0.1705 0.0
C437 C 0.54229 0.59743 0.17979 0.0
C438 C 0.53819 0.62138 0.18886 0.0
C439 C 0.56427 0.65307 0.18885 0.0
C440 C 0.59466 0.66014 0.17982 0.0
C441 C 0.5987 0.63619 0.17074 0.0
C442 C 0.60201 0.56245 0.03019 0.0
C443 C 0.5948 0.44567 0.22116 0.0
Zn444 Zn 0.73017 0.52626 0.40428 0.0
Zn445 Zn 0.67998 0.4671 0.40676 0.0
O446 O 0.7208 0.46412 0.3995 0.0
O447 O 0.76153 0.51274 0.39426 0.0
O448 O 0.64565 0.4208 0.40928 0.0
O449 O 0.72441 0.53385 0.4368 0.0
O450 O 0.67937 0.48678 0.43735 0.0
C451 C 0.75062 0.48337 0.39437 0.0
C452 C 0.67556 0.51223 0.37464 0.0
O453 O 0.66334 0.48402 0.38154 0.0
O454 O 0.70333 0.53405 0.38191 0.0
C455 C 0.64223 0.40313 0.39247 0.0
O456 O 0.65895 0.41625 0.37412 0.0
C457 C 0.69878 0.51344 0.44683 0.0
Zn458 Zn 0.2091 0.67709 0.57654 0.0
Zn459 Zn 0.24623 0.65252 0.56228 0.0
O460 O 0.27648 0.7005 0.56343 0.0
O461 O 0.2487 0.72222 0.57511 0.0
O462 O 0.27918 0.63952 0.55535 0.0
O463 O 0.19719 0.65044 0.60507 0.0
O464 O 0.2241 0.62895 0.59102 0.0
C465 C 0.27537 0.72506 0.56834 0.0
C466 C 0.18812 0.63956 0.53369 0.0
O467 O 0.21296 0.63652 0.53655 0.0
O468 O 0.18205 0.65539 0.54779 0.0
C469 C 0.2763 0.61371 0.56161 0.0
O470 O 0.24915 0.59264 0.57152 0.0
C471 C 0.2058 0.63009 0.60615 0.0
Zn472 Zn 0.55581 0.21503 0.7619 0.0
Zn473 Zn 0.62292 0.24286 0.7559 0.0
O474 O 0.61593 0.27969 0.75083 0.0
O475 O 0.56247 0.25832 0.75509 0.0
O476 O 0.67123 0.25974 0.7518 0.0
O477 O 0.56273 0.2051 0.7941 0.0
O478 O 0.61577 0.22672 0.78789 0.0
C479 C 0.59051 0.28215 0.75094 0.0
C480 C 0.57342 0.18739 0.72557 0.0
O481 O 0.60229 0.20861 0.73181 0.0
O482 O 0.54858 0.18455 0.7357 0.0
C483 C 0.69337 0.28776 0.74691 0.0
O484 O 0.68538 0.30927 0.7439 0.0
C485 C 0.59127 0.2126 0.80091 0.0
Zn486 Zn 0.45193 0.5776 0.89881 0.0
Zn487 Zn 0.44161 0.62621 0.90908 0.0
O488 O 0.39826 0.58701 0.91599 0.0
O489 O 0.40327 0.54673 0.9057 0.0
O490 O 0.43209 0.66031 0.91697 0.0
O491 O 0.48704 0.59491 0.92339 0.0
O492 O 0.47872 0.63409 0.93077 0.0
C493 C 0.38605 0.55744 0.91353 0.0
C494 C 0.46109 0.61802 0.86139 0.0
O495 O 0.45166 0.63143 0.8753 0.0
O496 O 0.46453 0.5954 0.8675 0.0
C497 C 0.44234 0.68549 0.90588 0.0
O498 O 0.46122 0.69073 0.88835 0.0
C499 C 0.49398 0.61964 0.93455 0.0
Zn500 Zn 0.83463 0.44262 0.05119 0.0
Zn501 Zn 0.80457 0.38151 0.05926 0.0
O502 O 0.76807 0.39212 0.05577 0.0
O503 O 0.79244 0.44205 0.04648 0.0
O504 O 0.77668 0.33471 0.06433 0.0
O505 O 0.85859 0.43704 0.02569 0.0
O506 O 0.83193 0.38556 0.03088 0.0
C507 C 0.76639 0.4162 0.05062 0.0
C508 C 0.85066 0.42878 0.09496 0.0
O509 O 0.83235 0.40005 0.08854 0.0
O510 O 0.85468 0.45087 0.0822 0.0
C511 C 0.75527 0.32572 0.07974 0.0
O512 O 0.75465 0.34717 0.09265 0.0
C513 C 0.85283 0.40986 0.0201 0.0
Zn514 Zn 0.37969 0.80207 0.26033 0.0
Zn515 Zn 0.43549 0.80251 0.25223 0.0
O516 O 0.39854 0.7556 0.25109 0.0
O517 O 0.3522 0.75534 0.2541 0.0
O518 O 0.47442 0.79861 0.24406 0.0
O519 O 0.38968 0.83223 0.23499 0.0
O520 O 0.43461 0.8313 0.2276 0.0
C521 C 0.36726 0.74065 0.25132 0.0
C522 C 0.42723 0.82718 0.29733 0.0
O523 O 0.44541 0.82294 0.28376 0.0
O524 O 0.39813 0.81914 0.29157 0.0
C525 C 0.47774 0.77755 0.25373 0.0
O526 O 0.4578 0.76154 0.27019 0.0
C527 C 0.41509 0.84113 0.22321 0.0
H528 H 0.19961 0.58213 0.23813 0.0
H529 H 0.23647 0.54526 0.28891 0.0
H530 H 0.29303 0.5888 0.28175 0.0
H531 H 0.27537 0.62256 0.20122 0.0
H532 H 0.26973 0.65563 0.19747 0.0
H533 H 0.23447 0.61642 0.20063 0.0
H534 H 0.21479 0.63652 0.23403 0.0
H535 H 0.24991 0.6755 0.23113 0.0
H536 H 0.24208 0.65579 0.25778 0.0
H537 H 0.34363 0.64167 0.2748 0.0
H538 H 0.38149 0.69939 0.27109 0.0
H539 H 0.30953 0.70424 0.22895 0.0
C540 C 0.21964 0.58268 0.24735 0.0
C541 C 0.2135 0.56028 0.26413 0.0
C542 C 0.24047 0.56177 0.27569 0.0
C543 C 0.27277 0.58654 0.27176 0.0
C544 C 0.27765 0.60957 0.25623 0.0
C545 C 0.25168 0.60772 0.24416 0.0
C546 C 0.26187 0.63809 0.23195 0.0
C547 C 0.26027 0.63285 0.20629 0.0
C548 C 0.24094 0.65229 0.23918 0.0
C549 C 0.29703 0.65809 0.24019 0.0
C550 C 0.30622 0.64091 0.25337 0.0
C551 C 0.33688 0.65516 0.26419 0.0
C552 C 0.35821 0.68789 0.26201 0.0
C553 C 0.34817 0.70595 0.24977 0.0
C554 C 0.31768 0.69074 0.23828 0.0
H555 H 0.5492 0.23937 0.45748 0.0
H556 H 0.56218 0.19597 0.39767 0.0
H557 H 0.58486 0.24656 0.37762 0.0
H558 H 0.5279 0.29214 0.42868 0.0
H559 H 0.55075 0.32417 0.44855 0.0
H560 H 0.53266 0.28386 0.45751 0.0
H561 H 0.58967 0.29577 0.47186 0.0
H562 H 0.60789 0.33607 0.463 0.0
H563 H 0.62391 0.3122 0.45282 0.0
H564 H 0.60832 0.30206 0.36472 0.0
H565 H 0.6344 0.35961 0.36042 0.0
H566 H 0.60787 0.36775 0.42905 0.0
C567 C 0.55632 0.24049 0.44004 0.0
C568 C 0.55381 0.21385 0.42899 0.0
C569 C 0.56401 0.21622 0.40636 0.0
C570 C 0.57671 0.24475 0.39483 0.0
C571 C 0.57916 0.27069 0.40624 0.0
C572 C 0.56944 0.26892 0.42837 0.0
C573 C 0.57698 0.3009 0.43722 0.0
C574 C 0.54517 0.30021 0.44334 0.0
C575 C 0.60105 0.31187 0.45741 0.0
C576 C 0.59294 0.32102 0.41673 0.0
C577 C 0.5935 0.30301 0.39895 0.0
C578 C 0.60787 0.31639 0.37847 0.0
C579 C 0.62262 0.34915 0.3762 0.0
C580 C 0.62321 0.36826 0.39438 0.0
C581 C 0.60766 0.35381 0.41478 0.0
H582 H 0.3849 0.54381 0.60296 0.0
H583 H 0.46866 0.62308 0.57128 0.0
H584 H 0.43186 0.63997 0.55548 0.0
H585 H 0.32486 0.52709 0.55781 0.0
H586 H 0.29207 0.51727 0.57735 0.0
H587 H 0.3247 0.51036 0.5847 0.0
H588 H 0.33682 0.54419 0.62114 0.0
H589 H 0.30425 0.55115 0.61394 0.0
H590 H 0.34529 0.58409 0.61913 0.0
H591 H 0.38614 0.64961 0.54499 0.0
H592 H 0.33593 0.65264 0.54196 0.0
H593 H 0.28232 0.56643 0.58028 0.0
C594 C 0.39545 0.56435 0.59229 0.0
C595 C 0.42961 0.58199 0.58817 0.0
C596 C 0.44257 0.60928 0.5747 0.0
C597 C 0.42183 0.61889 0.56553 0.0
C598 C 0.38825 0.60092 0.56998 0.0
C599 C 0.37518 0.57423 0.58307 0.0
C600 C 0.33865 0.56007 0.5865 0.0
C601 C 0.31891 0.52672 0.57596 0.0
C602 C 0.33081 0.55989 0.61167 0.0
C603 C 0.33322 0.58327 0.57362 0.0
C604 C 0.36203 0.6065 0.56403 0.0
C605 C 0.36338 0.63138 0.55224 0.0
C606 C 0.33471 0.63287 0.55061 0.0
C607 C 0.30512 0.6097 0.56081 0.0
C608 C 0.30439 0.58431 0.57206 0.0
H609 H 0.88762 0.40352 0.75348 0.0
H610 H 0.89365 0.31999 0.76543 0.0
H611 H 0.8348 0.28632 0.75657 0.0
H612 H 0.8138 0.37616 0.78137 0.0
H613 H 0.7975 0.39337 0.76263 0.0
H614 H 0.84129 0.41117 0.76591 0.0
H615 H 0.84686 0.40683 0.72279 0.0
H616 H 0.803 0.38908 0.71935 0.0
H617 H 0.82299 0.36897 0.70873 0.0
H618 H 0.77465 0.26166 0.75104 0.0
H619 H 0.71681 0.24768 0.74942 0.0
H620 H 0.74854 0.34686 0.74273 0.0
C621 C 0.87675 0.37816 0.75397 0.0
C622 C 0.89568 0.36459 0.75992 0.0
C623 C 0.8802 0.33118 0.76031 0.0
C624 C 0.8466 0.31173 0.75544 0.0
C625 C 0.82862 0.32591 0.75023 0.0
C626 C 0.84309 0.35834 0.74939 0.0
C627 C 0.81756 0.36756 0.74546 0.0
C628 C 0.81754 0.38828 0.76501 0.0
C629 C 0.82293 0.38409 0.72272 0.0
C630 C 0.78642 0.33527 0.74502 0.0
C631 C 0.79346 0.31159 0.74744 0.0
C632 C 0.7688 0.27993 0.74883 0.0
C633 C 0.73599 0.27226 0.74799 0.0
C634 C 0.72811 0.29616 0.74593 0.0
C635 C 0.75375 0.32802 0.74409 0.0
H636 H 0.46244 0.85507 0.912 0.0
H637 H 0.40017 0.82286 0.97091 0.0
H638 H 0.38742 0.76854 0.96334 0.0
H639 H 0.41411 0.78099 0.87702 0.0
H640 H 0.45111 0.78457 0.86582 0.0
H641 H 0.45012 0.81953 0.87325 0.0
H642 H 0.50098 0.83808 0.89934 0.0
H643 H 0.50193 0.80311 0.89224 0.0
H644 H 0.49944 0.81246 0.92134 0.0
H645 H 0.38831 0.71997 0.95306 0.0
H646 H 0.40098 0.67998 0.93987 0.0
H647 H 0.46386 0.74397 0.88816 0.0
C648 C 0.44551 0.83645 0.923 0.0
C649 C 0.43211 0.84319 0.94194 0.0
C650 C 0.41016 0.8182 0.95601 0.0
C651 C 0.40291 0.78726 0.95192 0.0
C652 C 0.4176 0.78168 0.93362 0.0
C653 C 0.43814 0.8055 0.91922 0.0
C654 C 0.45332 0.79395 0.90211 0.0
C655 C 0.44144 0.79481 0.87813 0.0
C656 C 0.49115 0.81303 0.90389 0.0
C657 C 0.4393 0.76034 0.90981 0.0
C658 C 0.41835 0.75358 0.92778 0.0
C659 C 0.40419 0.72476 0.93875 0.0
C660 C 0.4117 0.70227 0.9312 0.0
C661 C 0.43338 0.70882 0.91295 0.0
C662 C 0.44698 0.73813 0.90201 0.0
H663 H 0.66836 0.49956 0.07937 0.0
H664 H 0.59091 0.4103 0.10511 0.0
H665 H 0.61676 0.38302 0.08709 0.0
H666 H 0.68172 0.46728 0.02519 0.0
H667 H 0.72545 0.49485 0.02689 0.0
H668 H 0.69729 0.50577 0.03795 0.0
H669 H 0.72719 0.51873 0.07676 0.0
H670 H 0.75527 0.50786 0.06588 0.0
H671 H 0.7317 0.48886 0.09064 0.0
H672 H 0.65655 0.36777 0.07224 0.0
H673 H 0.70581 0.3658 0.06181 0.0
H674 H 0.75621 0.46521 0.04504 0.0
C675 C 0.65643 0.47413 0.08068 0.0
C676 C 0.62779 0.45691 0.09355 0.0
C677 C 0.61276 0.42374 0.09509 0.0
C678 C 0.62725 0.40813 0.0849 0.0
C679 C 0.65629 0.42605 0.07291 0.0
C680 C 0.6704 0.45831 0.07051 0.0
C681 C 0.70327 0.47285 0.05895 0.0
C682 C 0.70183 0.48595 0.03587 0.0
C683 C 0.73097 0.49856 0.07396 0.0
C684 C 0.70647 0.44411 0.05637 0.0
C685 C 0.67892 0.41718 0.0641 0.0
C686 C 0.67789 0.38853 0.06562 0.0
C687 C 0.70603 0.38765 0.05968 0.0
C688 C 0.73484 0.41533 0.05249 0.0
C689 C 0.73445 0.44352 0.05013 0.0
H690 H 0.37266 0.91078 0.54636 0.0
H691 H 0.45173 0.90005 0.52001 0.0
H692 H 0.42244 0.84468 0.53198 0.0
H693 H 0.35179 0.85806 0.59428 0.0
H694 H 0.30818 0.84201 0.59096 0.0
H695 H 0.33688 0.88193 0.58256 0.0
H696 H 0.31106 0.86906 0.54242 0.0
H697 H 0.28224 0.82918 0.55071 0.0
H698 H 0.30824 0.83629 0.52673 0.0
H699 H 0.38347 0.78979 0.54453 0.0
H700 H 0.33625 0.73829 0.55519 0.0
H701 H 0.28085 0.78339 0.57185 0.0
C702 C 0.38394 0.8969 0.54311 0.0
C703 C 0.41485 0.91017 0.53243 0.0
C704 C 0.4286 0.89095 0.52867 0.0
C705 C 0.41203 0.85931 0.5353 0.0
C706 C 0.3816 0.84703 0.5456 0.0
C707 C 0.36758 0.86514 0.54942 0.0
C708 C 0.33358 0.84554 0.55943 0.0
C709 C 0.33256 0.85761 0.58322 0.0
C710 C 0.30723 0.84499 0.54389 0.0
C711 C 0.33044 0.81343 0.5602 0.0
C712 C 0.35863 0.81498 0.55242 0.0
C713 C 0.36133 0.78829 0.55079 0.0
C714 C 0.33429 0.75911 0.55689 0.0
C715 C 0.30475 0.75669 0.56439 0.0
C716 C 0.30312 0.78441 0.56637 0.0
H717 H 0.52273 0.39424 0.71892 0.0
H718 H 0.62194 0.46393 0.6988 0.0
H719 H 0.64194 0.43022 0.71349 0.0
H720 H 0.54509 0.3679 0.77003 0.0
H721 H 0.51323 0.32723 0.76537 0.0
H722 H 0.50748 0.35851 0.75566 0.0
H723 H 0.49608 0.33467 0.71517 0.0
H724 H 0.50186 0.30342 0.72472 0.0
H725 H 0.52606 0.32799 0.70181 0.0
H726 H 0.65026 0.38697 0.72739 0.0
H727 H 0.64626 0.33743 0.73933 0.0
H728 H 0.54127 0.2956 0.74936 0.0
C729 C 0.54871 0.40256 0.71775 0.0
C730 C 0.57078 0.43181 0.70781 0.0
C731 C 0.60464 0.44188 0.70672 0.0
C732 C 0.61622 0.42284 0.71492 0.0
C733 C 0.59366 0.39387 0.72423 0.0
C734 C 0.56064 0.38383 0.72576 0.0
C735 C 0.54113 0.35088 0.73519 0.0
C736 C 0.52584 0.35116 0.75791 0.0
C737 C 0.51474 0.3279 0.71821 0.0
C738 C 0.56821 0.34362 0.73818 0.0
C739 C 0.59839 0.36883 0.73202 0.0
C740 C 0.62682 0.36718 0.73249 0.0
C741 C 0.62427 0.33891 0.73926 0.0
C742 C 0.59346 0.3126 0.74532 0.0
C743 C 0.56522 0.31528 0.74497 0.0
H744 H 0.21006 0.45213 0.86255 0.0
H745 H 0.1785 0.49572 0.91213 0.0
H746 H 0.23032 0.51489 0.93352 0.0
H747 H 0.25976 0.43243 0.90278 0.0
H748 H 0.29076 0.44219 0.88175 0.0
H749 H 0.24832 0.42556 0.87334 0.0
H750 H 0.26513 0.47318 0.84725 0.0
H751 H 0.30739 0.48985 0.85554 0.0
H752 H 0.28789 0.51271 0.85898 0.0
H753 H 0.28829 0.53795 0.94491 0.0
H754 H 0.34881 0.56446 0.94498 0.0
H755 H 0.34344 0.50528 0.88874 0.0
C756 C 0.2136 0.46461 0.87841 0.0
C757 C 0.19036 0.47229 0.88587 0.0
C758 C 0.19612 0.48963 0.90622 0.0
C759 C 0.2253 0.50032 0.91855 0.0
C760 C 0.24831 0.49326 0.91038 0.0
C761 C 0.24272 0.4756 0.89083 0.0
C762 C 0.27322 0.47529 0.88388 0.0
C763 C 0.26767 0.44187 0.88555 0.0
C764 C 0.28403 0.48857 0.86002 0.0
C765 C 0.29741 0.49715 0.90174 0.0
C766 C 0.2823 0.5066 0.91719 0.0
C767 C 0.30026 0.53003 0.93339 0.0
C768 C 0.3346 0.545 0.93328 0.0
C769 C 0.35055 0.53645 0.91711 0.0
C770 C 0.33168 0.5114 0.90176 0.0
H771 H 0.64574 0.14882 0.03397 0.0
H772 H 0.56904 0.13878 0.07872 0.0
H773 H 0.6075 0.19161 0.09541 0.0
H774 H 0.71576 0.19307 0.0731 0.0
H775 H 0.74252 0.218 0.05121 0.0
H776 H 0.71008 0.17819 0.04454 0.0
H777 H 0.6871 0.19934 0.0142 0.0
H778 H 0.71945 0.23913 0.02073 0.0
H779 H 0.67706 0.2287 0.02205 0.0
H780 H 0.65334 0.24638 0.10571 0.0
H781 H 0.70154 0.30057 0.10707 0.0
H782 H 0.74782 0.27533 0.05465 0.0
C783 C 0.63732 0.15754 0.04761 0.0
C784 C 0.60465 0.13975 0.0553 0.0
C785 C 0.59407 0.15215 0.07269 0.0
C786 C 0.61576 0.18197 0.08233 0.0
C787 C 0.64782 0.19904 0.07426 0.0
C788 C 0.65851 0.18735 0.0572 0.0
C789 C 0.69324 0.21142 0.05027 0.0
C790 C 0.71679 0.19945 0.05507 0.0
C791 C 0.69425 0.22016 0.02534 0.0
C792 C 0.70024 0.23873 0.06582 0.0
C793 C 0.67394 0.23093 0.07976 0.0
C794 C 0.67417 0.25269 0.09499 0.0
C795 C 0.70172 0.28343 0.09564 0.0
C796 C 0.7285 0.29223 0.08097 0.0
C797 C 0.72787 0.26932 0.06619 0.0
H798 H 0.53027 0.65228 0.22646 0.0
H799 H 0.5867 0.71151 0.17078 0.0
H800 H 0.57596 0.75283 0.18404 0.0
H801 H 0.46744 0.6694 0.22378 0.0
H802 H 0.46179 0.66903 0.25382 0.0
H803 H 0.47725 0.64588 0.24149 0.0
H804 H 0.52848 0.67378 0.26788 0.0
H805 H 0.51319 0.69714 0.28025 0.0
H806 H 0.55368 0.7163 0.26819 0.0
H807 H 0.55452 0.78541 0.20114 0.0
H808 H 0.52343 0.80624 0.22044 0.0
H809 H 0.48092 0.72557 0.26479 0.0
C810 C 0.54058 0.67403 0.21713 0.0
C811 C 0.55947 0.67868 0.19762 0.0
C812 C 0.57264 0.70758 0.18598 0.0
C813 C 0.5666 0.73118 0.19335 0.0
C814 C 0.54751 0.72562 0.21246 0.0
C815 C 0.53479 0.69779 0.22423 0.0
C816 C 0.51328 0.69677 0.24336 0.0
C817 C 0.47785 0.66861 0.24042 0.0
C818 C 0.52805 0.69596 0.26628 0.0
C819 C 0.51507 0.72795 0.24009 0.0
C820 C 0.53523 0.74443 0.22235 0.0
C821 C 0.53903 0.77294 0.21527 0.0
C822 C 0.52126 0.78457 0.22633 0.0
C823 C 0.49987 0.76765 0.24421 0.0
C824 C 0.4974 0.73933 0.25141 0.0
H825 H 0.90626 0.49372 0.3368 0.0
H826 H 0.88245 0.40684 0.37041 0.0
H827 H 0.83155 0.40256 0.38487 0.0
H828 H 0.88308 0.52485 0.38196 0.0
H829 H 0.86764 0.54368 0.36406 0.0
H830 H 0.89987 0.53769 0.35426 0.0
H831 H 0.86455 0.50736 0.31907 0.0
H832 H 0.83217 0.51329 0.32875 0.0
H833 H 0.82361 0.4739 0.32271 0.0
H834 H 0.78379 0.40918 0.39672 0.0
H835 H 0.74559 0.42759 0.40647 0.0
H836 H 0.80476 0.51246 0.36788 0.0
C837 C 0.8906 0.4738 0.34731 0.0
C838 C 0.89861 0.45068 0.35248 0.0
C839 C 0.87675 0.42467 0.36588 0.0
C840 C 0.84783 0.42211 0.37429 0.0
C841 C 0.84124 0.44583 0.36925 0.0
C842 C 0.86217 0.47123 0.35615 0.0
C843 C 0.85094 0.49471 0.35431 0.0
C844 C 0.87693 0.52714 0.36425 0.0
C845 C 0.8423 0.49746 0.32975 0.0
C846 C 0.82057 0.47882 0.36869 0.0
C847 C 0.81495 0.45037 0.37688 0.0
C848 C 0.78802 0.43144 0.39044 0.0
C849 C 0.76649 0.44205 0.39587 0.0
C850 C 0.77247 0.47156 0.38809 0.0
C851 C 0.79979 0.48997 0.37428 0.0
H852 H 0.11349 0.52352 0.42655 0.0
H853 H 0.03898 0.54916 0.42272 0.0
H854 H 0.06186 0.582 0.45736 0.0
H855 H 0.11831 0.52177 0.48865 0.0
H856 H 0.16228 0.53881 0.48867 0.0
H857 H 0.13771 0.51471 0.46512 0.0
H858 H 0.17368 0.56042 0.43809 0.0
H859 H 0.19805 0.58487 0.46154 0.0
H860 H 0.17821 0.59858 0.44277 0.0
H861 H 0.09485 0.61454 0.49066 0.0
H862 H 0.13478 0.64364 0.52136 0.0
H863 H 0.1891 0.59809 0.50286 0.0
C864 C 0.10148 0.53532 0.43347 0.0
C865 C 0.0742 0.53352 0.42236 0.0
C866 C 0.05968 0.55009 0.43128 0.0
C867 C 0.07254 0.56878 0.45085 0.0
C868 C 0.10002 0.57076 0.46113 0.0
C869 C 0.11425 0.55437 0.45284 0.0
C870 C 0.14484 0.56217 0.46625 0.0
C871 C 0.14051 0.5326 0.47787 0.0
C872 C 0.1755 0.57742 0.45127 0.0
C873 C 0.14573 0.58571 0.48324 0.0
C874 C 0.11957 0.59019 0.48004 0.0
C875 C 0.11534 0.61109 0.49344 0.0
C876 C 0.13823 0.62759 0.5108 0.0
C877 C 0.16513 0.62321 0.51454 0.0
C878 C 0.1689 0.60207 0.50043 0.0
H879 H 0.48106 0.07819 0.61818 0.0
H880 H 0.57862 0.10563 0.594 0.0
H881 H 0.60222 0.12979 0.63066 0.0
H882 H 0.50693 0.15061 0.64506 0.0
H883 H 0.47922 0.13456 0.66846 0.0
H884 H 0.46837 0.11377 0.6418 0.0
H885 H 0.46072 0.06378 0.66133 0.0
H886 H 0.47155 0.08445 0.68811 0.0
H887 H 0.49392 0.06643 0.67802 0.0
H888 H 0.61686 0.15586 0.66789 0.0
H889 H 0.6219 0.1848 0.70304 0.0
H890 H 0.51607 0.14496 0.70289 0.0
C891 C 0.50734 0.08895 0.62056 0.0
C892 C 0.52762 0.0891 0.60302 0.0
C893 C 0.562 0.10374 0.60714 0.0
C894 C 0.57588 0.11792 0.62798 0.0
C895 C 0.5553 0.11777 0.64462 0.0
C896 C 0.52181 0.10388 0.64118 0.0
C897 C 0.50593 0.11028 0.66104 0.0
C898 C 0.48914 0.12839 0.65364 0.0
C899 C 0.48159 0.07939 0.67282 0.0
C900 C 0.53596 0.13072 0.67578 0.0
C901 C 0.56402 0.13415 0.6661 0.0
C902 C 0.59505 0.15315 0.67579 0.0
C903 C 0.59764 0.16959 0.69575 0.0
C904 C 0.56939 0.16721 0.70575 0.0
C905 C 0.53807 0.14704 0.69579 0.0
H906 H 0.52084 0.61031 0.74001 0.0
H907 H 0.43497 0.60981 0.71447 0.0
H908 H 0.42641 0.62615 0.75231 0.0
H909 H 0.48588 0.57274 0.78781 0.0
H910 H 0.522 0.59322 0.80565 0.0
H911 H 0.52636 0.59008 0.77587 0.0
H912 H 0.5629 0.65075 0.7732 0.0
H913 H 0.55902 0.65441 0.80314 0.0
H914 H 0.54797 0.67536 0.78375 0.0
H915 H 0.42387 0.63631 0.79392 0.0
H916 H 0.42316 0.63261 0.83556 0.0
H917 H 0.50782 0.6214 0.83348 0.0
C918 C 0.5011 0.61504 0.74219 0.0
C919 C 0.47907 0.60979 0.72436 0.0
C920 C 0.45242 0.61441 0.72795 0.0
C921 C 0.44755 0.62382 0.7493 0.0
C922 C 0.46941 0.62815 0.76677 0.0
C923 C 0.4956 0.62373 0.76337 0.0
C924 C 0.51225 0.62445 0.78532 0.0
C925 C 0.51152 0.59326 0.78888 0.0
C926 C 0.54764 0.65295 0.78641 0.0
C927 C 0.49044 0.62842 0.80178 0.0
C928 C 0.46663 0.63174 0.7908 0.0
C929 C 0.44266 0.63413 0.80266 0.0
C930 C 0.44247 0.63209 0.82625 0.0
C931 C 0.46547 0.62675 0.83751 0.0
C932 C 0.49014 0.62567 0.82516 0.0
H933 H 0.89144 0.37129 0.89696 0.0
H934 H 0.9913 0.44806 0.91016 0.0
H935 H 0.97779 0.45041 0.94973 0.0
H936 H 0.85361 0.40343 0.92929 0.0
H937 H 0.82112 0.36651 0.94015 0.0
H938 H 0.83943 0.36719 0.9135 0.0
H939 H 0.85331 0.32612 0.92803 0.0
H940 H 0.8351 0.32539 0.9548 0.0
H941 H 0.87697 0.33421 0.95372 0.0
H942 H 0.95349 0.44936 0.98579 0.0
H943 H 0.91839 0.44605 0.01731 0.0
H944 H 0.83286 0.37022 0.98263 0.0
C945 C 0.91041 0.38814 0.90839 0.0
C946 C 0.94248 0.40943 0.90064 0.0
C947 C 0.96667 0.43155 0.91584 0.0
C948 C 0.95927 0.43295 0.93837 0.0
C949 C 0.92743 0.41214 0.9455 0.0
C950 C 0.90323 0.39019 0.93109 0.0
C951 C 0.87026 0.37285 0.94291 0.0
C952 C 0.8446 0.37781 0.93074 0.0
C953 C 0.8582 0.33754 0.94499 0.0
C954 C 0.87968 0.38938 0.96584 0.0
C955 C 0.91297 0.41157 0.9669 0.0
C956 C 0.92749 0.43173 0.9854 0.0
C957 C 0.90739 0.42974 0.00316 0.0
C958 C 0.87317 0.40769 0.00239 0.0
C959 C 0.85914 0.38672 0.98375 0.0
H960 H 0.51546 0.95428 0.12155 0.0
H961 H 0.4277 0.95805 0.10668 0.0
H962 H 0.40209 0.92845 0.14095 0.0
H963 H 0.47221 0.87494 0.13788 0.0
H964 H 0.50088 0.87952 0.15978 0.0
H965 H 0.51497 0.90546 0.13601 0.0
H966 H 0.53852 0.95416 0.16289 0.0
H967 H 0.52472 0.92838 0.1868 0.0
H968 H 0.51201 0.95676 0.18336 0.0
H969 H 0.38376 0.89486 0.17473 0.0
H970 H 0.37371 0.85889 0.20608 0.0
H971 H 0.4713 0.8729 0.19782 0.0
C972 C 0.49098 0.94919 0.12551 0.0
C973 C 0.47398 0.95911 0.11134 0.0
C974 C 0.44193 0.95183 0.11742 0.0
C975 C 0.4269 0.93466 0.13682 0.0
C976 C 0.444 0.92458 0.14995 0.0
C977 C 0.47531 0.93152 0.14461 0.0
C978 C 0.48711 0.91557 0.16059 0.0
C979 C 0.4942 0.8925 0.1478 0.0
C980 C 0.51738 0.94019 0.17422 0.0
C981 C 0.45723 0.89812 0.17545 0.0
C982 C 0.43287 0.90403 0.16915 0.0
C983 C 0.40271 0.89018 0.17995 0.0
C984 C 0.39724 0.86973 0.19773 0.0
C985 C 0.4217 0.86302 0.20443 0.0
C986 C 0.45211 0.87751 0.1931 0.0
H987 H 0.57604 0.50226 0.26396 0.0
H988 H 0.59971 0.59754 0.28032 0.0
H989 H 0.62064 0.59391 0.31764 0.0
H990 H 0.55382 0.47037 0.32335 0.0
H991 H 0.5722 0.4466 0.3193 0.0
H992 H 0.5533 0.45438 0.2958 0.0
H993 H 0.60743 0.47668 0.27367 0.0
H994 H 0.62679 0.46951 0.29706 0.0
H995 H 0.64508 0.50868 0.2857 0.0
H996 H 0.64763 0.58401 0.34934 0.0
H997 H 0.67594 0.56707 0.37537 0.0
H998 H 0.63358 0.47712 0.33968 0.0
C999 C 0.58426 0.52179 0.27582 0.0
C1000 C 0.58601 0.55009 0.26943 0.0
C1001 C 0.59812 0.57567 0.28499 0.0
C1002 C 0.60991 0.57375 0.30621 0.0
C1003 C 0.60909 0.54598 0.31166 0.0
C1004 C 0.5961 0.52022 0.2971 0.0
C1005 C 0.60128 0.49448 0.30614 0.0
C1006 C 0.56817 0.46469 0.31147 0.0
C1007 C 0.62136 0.48693 0.28967 0.0
C1008 C 0.62066 0.51045 0.3275 0.0
C1009 C 0.62451 0.54001 0.33041 0.0
C1010 C 0.64413 0.56064 0.34758 0.0
C1011 C 0.66033 0.55091 0.36213 0.0
C1012 C 0.65673 0.52076 0.35954 0.0
C1013 C 0.63618 0.50004 0.34224 0.0
H1014 H 0.41966 0.9122 0.40894 0.0
H1015 H 0.52652 0.96382 0.40999 0.0
H1016 H 0.52595 0.92932 0.37954 0.0
H1017 H 0.40641 0.83365 0.39372 0.0
H1018 H 0.37214 0.8245 0.37537 0.0
H1019 H 0.38077 0.84985 0.39971 0.0
H1020 H 0.38378 0.89349 0.37413 0.0
H1021 H 0.37512 0.86831 0.34979 0.0
H1022 H 0.4116 0.90714 0.35068 0.0
H1023 H 0.51402 0.89288 0.34628 0.0
H1024 H 0.4916 0.85929 0.312 0.0
H1025 H 0.39288 0.83336 0.33179 0.0
C1026 C 0.44298 0.9161 0.40297 0.0
C1027 C 0.4731 0.94061 0.41211 0.0
C1028 C 0.50304 0.94476 0.40374 0.0
C1029 C 0.50301 0.92534 0.38634 0.0
C1030 C 0.47288 0.90182 0.37745 0.0
C1031 C 0.44341 0.89715 0.38549 0.0
C1032 C 0.41454 0.87234 0.37167 0.0
C1033 C 0.39215 0.84337 0.38598 0.0
C1034 C 0.39514 0.88616 0.36093 0.0
C1035 C 0.43245 0.86461 0.35411 0.0
C1036 C 0.46603 0.88137 0.35796 0.0
C1037 C 0.48772 0.87934 0.34324 0.0
C1038 C 0.47477 0.86018 0.32382 0.0
C1039 C 0.4405 0.84371 0.3192 0.0
C1040 C 0.41917 0.84553 0.33486 0.0
H1041 H 0.57292 0.49379 0.54255 0.0
H1042 H 0.62113 0.59628 0.54292 0.0
H1043 H 0.66266 0.5991 0.51683 0.0
H1044 H 0.64389 0.48736 0.53809 0.0
H1045 H 0.62565 0.45453 0.51837 0.0
H1046 H 0.6001 0.45987 0.53809 0.0
H1047 H 0.56394 0.46043 0.50559 0.0
H1048 H 0.5886 0.4541 0.48572 0.0
H1049 H 0.58313 0.48737 0.48266 0.0
H1050 H 0.69997 0.59123 0.49202 0.0
H1051 H 0.7244 0.57329 0.46352 0.0
H1052 H 0.64875 0.47576 0.47582 0.0
C1053 C 0.59174 0.51688 0.53688 0.0
C1054 C 0.59389 0.54486 0.54521 0.0
C1055 C 0.61934 0.5745 0.53739 0.0
C1056 C 0.64309 0.57639 0.52252 0.0
C1057 C 0.64072 0.54842 0.51524 0.0
C1058 C 0.61521 0.51921 0.52161 0.0
C1059 C 0.61708 0.49275 0.50995 0.0
C1060 C 0.62199 0.47244 0.52716 0.0
C1061 C 0.58637 0.47248 0.49509 0.0
C1062 C 0.64756 0.51176 0.49589 0.0
C1063 C 0.66121 0.5438 0.49969 0.0
C1064 C 0.68942 0.56622 0.48875 0.0
C1065 C 0.70324 0.55571 0.47269 0.0
C1066 C 0.6884 0.52308 0.46733 0.0
C1067 C 0.66069 0.50082 0.47957 0.0
H1068 H 0.10809 0.54259 0.71733 0.0
H1069 H 0.09369 0.4558 0.68688 0.0
H1070 H 0.12705 0.48601 0.65464 0.0
H1071 H 0.09941 0.57453 0.6644 0.0
H1072 H 0.12918 0.61471 0.67252 0.0
H1073 H 0.10515 0.58636 0.69371 0.0
H1074 H 0.15885 0.59885 0.7144 0.0
H1075 H 0.18308 0.62685 0.69308 0.0
H1076 H 0.18946 0.59479 0.69941 0.0
H1077 H 0.16447 0.52576 0.62679 0.0
H1078 H 0.19575 0.57094 0.60178 0.0
H1079 H 0.18074 0.63108 0.64788 0.0
C1080 C 0.11122 0.52961 0.70377 0.0
C1081 C 0.09848 0.49664 0.70507 0.0
C1082 C 0.10386 0.48108 0.68684 0.0
C1083 C 0.12268 0.49802 0.66831 0.0
C1084 C 0.13542 0.53047 0.66792 0.0
C1085 C 0.12927 0.54601 0.68486 0.0
C1086 C 0.1446 0.58083 0.67975 0.0
C1087 C 0.118 0.58961 0.67745 0.0
C1088 C 0.17053 0.60154 0.69773 0.0
C1089 C 0.16045 0.58242 0.6573 0.0
C1090 C 0.15534 0.55317 0.65105 0.0
C1091 C 0.16837 0.54871 0.63138 0.0
C1092 C 0.18636 0.57463 0.61738 0.0
C1093 C 0.19068 0.60455 0.62286 0.0
C1094 C 0.17776 0.60849 0.64323 0.0
H1095 H 0.5361 0.14085 0.92286 0.0
H1096 H 0.61924 0.12658 0.92185 0.0
H1097 H 0.64012 0.15941 0.88836 0.0
H1098 H 0.52054 0.12689 0.86595 0.0
H1099 H 0.50724 0.15472 0.86182 0.0
H1100 H 0.50272 0.137 0.8889 0.0
H1101 H 0.53615 0.1925 0.90774 0.0
H1102 H 0.54061 0.21048 0.88067 0.0
H1103 H 0.57655 0.22051 0.89748 0.0
H1104 H 0.64878 0.18793 0.85241 0.0
H1105 H 0.64273 0.20733 0.81566 0.0
H1106 H 0.55052 0.19721 0.8373 0.0
C1107 C 0.55888 0.14474 0.91588 0.0
C1108 C 0.57594 0.13103 0.92545 0.0
C1109 C 0.60593 0.13735 0.91558 0.0
C1110 C 0.61801 0.15589 0.89631 0.0
C1111 C 0.59975 0.16774 0.88684 0.0
C1112 C 0.57075 0.16232 0.89623 0.0
C1113 C 0.55339 0.17379 0.88106 0.0
C1114 C 0.51895 0.14647 0.87401 0.0
C1115 C 0.55158 0.20094 0.89242 0.0
C1116 C 0.57659 0.18542 0.8613 0.0
C1117 C 0.60364 0.18254 0.86527 0.0
C1118 C 0.62789 0.19062 0.84918 0.0
C1119 C 0.6242 0.20157 0.82835 0.0
C1120 C 0.5961 0.20367 0.82363 0.0
C1121 C 0.57224 0.19582 0.84045 0.0
H1122 H 0.54448 0.65518 0.06268 0.0
H1123 H 0.61777 0.62997 0.04858 0.0
H1124 H 0.60931 0.63229 0.00792 0.0
H1125 H 0.48953 0.60791 0.02305 0.0
H1126 H 0.47552 0.63401 0.01464 0.0
H1127 H 0.49231 0.63756 0.04244 0.0
H1128 H 0.53555 0.69648 0.0357 0.0
H1129 H 0.51864 0.69324 0.00783 0.0
H1130 H 0.56181 0.70726 0.01147 0.0
H1131 H 0.5848 0.62569 0.96995 0.0
H1132 H 0.5485 0.61469 0.93683 0.0
H1133 H 0.4925 0.6463 0.9746 0.0
C1134 C 0.55956 0.65131 0.05099 0.0
C1135 C 0.58206 0.64281 0.05879 0.0
C1136 C 0.60098 0.63731 0.04303 0.0
C1137 C 0.59625 0.63844 0.01985 0.0
C1138 C 0.57295 0.64566 0.01268 0.0
C1139 C 0.55532 0.65261 0.02775 0.0
C1140 C 0.52923 0.65619 0.01572 0.0
C1141 C 0.49462 0.6325 0.02448 0.0
C1142 C 0.53677 0.69033 0.0178 0.0
C1143 C 0.53366 0.64832 0.99176 0.0
C1144 C 0.55927 0.64267 0.99034 0.0
C1145 C 0.56539 0.63104 0.97063 0.0
C1146 C 0.54458 0.62469 0.95197 0.0
C1147 C 0.51818 0.6302 0.95314 0.0
C1148 C 0.51319 0.64286 0.9731 0.0
H1149 H 0.90773 0.40229 0.21641 0.0
H1150 H 0.97124 0.50453 0.22023 0.0
H1151 H 0.94938 0.50905 0.18394 0.0
H1152 H 0.91857 0.39604 0.15711 0.0
H1153 H 0.87683 0.36448 0.15182 0.0
H1154 H 0.89554 0.36872 0.17913 0.0
H1155 H 0.84771 0.37116 0.1979 0.0
H1156 H 0.82882 0.36689 0.17064 0.0
H1157 H 0.83796 0.40008 0.18868 0.0
H1158 H 0.92276 0.5035 0.1474 0.0
H1159 H 0.89303 0.48799 0.11125 0.0
H1160 H 0.84755 0.38897 0.12886 0.0
C1161 C 0.91693 0.42561 0.20966 0.0
C1162 C 0.9407 0.45308 0.22161 0.0
C1163 C 0.95222 0.48314 0.21198 0.0
C1164 C 0.9402 0.48601 0.19119 0.0
C1165 C 0.91686 0.45862 0.17996 0.0
C1166 C 0.90535 0.42897 0.18868 0.0
C1167 C 0.88107 0.40345 0.17245 0.0
C1168 C 0.89377 0.3819 0.16467 0.0
C1169 C 0.84686 0.38427 0.18306 0.0
C1170 C 0.88102 0.42357 0.15328 0.0
C1171 C 0.90179 0.4553 0.15818 0.0
C1172 C 0.90635 0.47873 0.14332 0.0
C1173 C 0.88928 0.46959 0.12278 0.0
C1174 C 0.86788 0.43721 0.11711 0.0
C1175 C 0.8637 0.41389 0.13266 0.0
loop_
_geom_bond_atom_site_label_1
_geom_bond_atom_site_label_2
_geom_bond_distance
_geom_bond_site_symmetry_2
_ccdc_geom_bond_type
H0 O26 0.856 . S
H1 O29 0.854 . S
H2 C37 0.941 . S
H3 C38 0.930 . S
H4 C40 0.930 . S
H5 C41 0.930 . S
H6 C43 0.931 . S
H7 C44 0.930 . S
H8 C46 0.930 . S
H9 C47 0.929 . S
H10 C49 0.930 . S
H11 C50 0.931 . S
H12 C52 0.930 . S
H13 C53 0.929 . S
H14 C55 0.931 . S
H15 C56 0.930 . S
H16 C58 0.930 . S
H17 C59 0.932 . S
H18 C61 0.930 . S
H19 C62 0.929 . S
H20 C64 0.931 . S
H21 C65 0.930 . S
H22 C67 0.929 . S
H23 C68 0.931 . S
H24 C70 0.930 . S
H25 C71 0.929 1_455 S
O26 H0 0.856 . S
O26 C72 1.300 . S
O27 C72 1.209 . S
O28 C73 1.199 . S
O29 H1 0.854 . S
O29 C73 1.297 . S
C30 C31 1.404 . S
C30 C35 1.397 . S
C30 C36 1.492 . S
C31 C30 1.404 . S
C31 C32 1.396 . S
C31 C42 1.492 . S
C32 C31 1.396 . S
C32 C33 1.397 . S
C32 C48 1.509 . S
C33 C32 1.397 . S
C33 C34 1.412 . S
C33 C54 1.485 . S
C34 C33 1.412 . S
C34 C35 1.388 . S
C34 C60 1.490 . S
C35 C30 1.397 . S
C35 C34 1.388 . S
C35 C66 1.519 1_455 S
C36 C30 1.492 . S
C36 C37 1.359 . S
C36 C41 1.390 1_455 S
C37 H2 0.941 . S
C37 C36 1.359 . S
C37 C38 1.365 1_455 S
C38 H3 0.930 . S
C38 C37 1.365 1_655 S
C38 C39 1.383 . S
C39 C38 1.383 . S
C39 C40 1.395 . S
C40 H4 0.930 . S
C40 C39 1.395 . S
C40 C41 1.362 . S
C41 H5 0.930 . S
C41 C36 1.390 1_655 S
C41 C40 1.362 . S
C42 C31 1.492 . S
C42 C43 1.377 . S
C42 C47 1.397 . S
C43 H6 0.931 . S
C43 C42 1.377 . S
C43 C44 1.376 . S
C44 H7 0.930 . S
C44 C43 1.376 . S
C44 C45 1.376 . S
C45 C44 1.376 . S
C45 C46 1.378 . S
C45 C72 1.486 . S
C46 H8 0.930 . S
C46 C45 1.378 . S
C46 C47 1.376 . S
C47 H9 0.929 . S
C47 C42 1.397 . S
C47 C46 1.376 . S
C48 C32 1.509 . S
C48 C49 1.391 . S
C48 C53 1.386 . S
C49 H10 0.930 . S
C49 C48 1.391 . S
C49 C50 1.375 . S
C50 H11 0.931 . S
C50 C49 1.375 . S
C50 C51 1.375 . S
C51 C50 1.375 . S
C51 C52 1.361 . S
C52 H12 0.930 . S
C52 C51 1.361 . S
C52 C53 1.399 . S
C53 H13 0.929 . S
C53 C48 1.386 . S
C53 C52 1.399 . S
C54 C33 1.485 . S
C54 C55 1.394 . S
C54 C59 1.360 . S
C55 H14 0.931 . S
C55 C54 1.394 . S
C55 C56 1.372 . S
C56 H15 0.930 . S
C56 C55 1.372 . S
C56 C57 1.397 . S
C57 C56 1.397 . S
C57 C58 1.390 . S
C57 C73 1.476 . S
C58 H16 0.930 . S
C58 C57 1.390 . S
C58 C59 1.366 . S
C59 H17 0.932 . S
C59 C54 1.360 . S
C59 C58 1.366 . S
C60 C34 1.490 . S
C60 C61 1.380 . S
C60 C65 1.386 . S
C61 H18 0.930 . S
C61 C60 1.380 . S
C61 C62 1.381 . S
C62 H19 0.929 . S
C62 C61 1.381 . S
C62 C63 1.371 . S
C63 C62 1.371 . S
C63 C64 1.380 . S
C64 H20 0.931 . S
C64 C63 1.380 . S
C64 C65 1.387 . S
C65 H21 0.930 . S
C65 C60 1.386 . S
C65 C64 1.387 . S
C66 C35 1.519 1_655 S
C66 C67 1.377 . S
C66 C71 1.361 . S
C67 H22 0.929 . S
C67 C66 1.377 . S
C67 C68 1.386 . S
C68 H23 0.931 . S
C68 C67 1.386 . S
C68 C69 1.363 . S
C69 C68 1.363 . S
C69 C70 1.385 . S
C70 H24 0.930 . S
C70 C69 1.385 . S
C70 C71 1.396 . S
C71 H25 0.929 1_655 S
C71 C66 1.361 . S
C71 C70 1.396 . S
C72 O26 1.300 . S
C72 O27 1.209 . S
C72 C45 1.486 . S
C73 O28 1.199 . S
C73 O29 1.297 . S
C73 C57 1.476 . S
H74 O100 0.856 . S
H75 O103 0.854 . S
H76 C111 0.930 . S
H77 C112 0.930 . S
H78 C114 0.930 . S
H79 C115 0.930 . S
H80 C117 0.931 . S
H81 C118 0.930 . S
H82 C120 0.930 . S
H83 C121 0.929 . S
H84 C123 0.930 . S
H85 C124 0.931 . S
H86 C126 0.930 . S
H87 C127 0.929 . S
H88 C129 0.931 . S
H89 C130 0.930 . S
H90 C132 0.930 . S
H91 C133 0.932 . S
H92 C135 0.930 . S
H93 C136 0.929 . S
H94 C138 0.931 . S
H95 C139 0.930 . S
H96 C141 0.929 . S
H97 C142 0.931 . S
H98 C144 0.930 . S
H99 C145 0.929 . S
O100 H74 0.856 . S
O100 C146 1.300 . S
O101 C146 1.209 . S
O102 C147 1.199 . S
O103 H75 0.854 . S
O103 C147 1.297 . S
C104 C105 1.404 . S
C104 C109 1.397 . S
C104 C110 1.492 . S
C105 C104 1.404 . S
C105 C106 1.396 . S
C105 C116 1.492 . S
C106 C105 1.396 . S
C106 C107 1.397 . S
C106 C122 1.509 . S
C107 C106 1.397 . S
C107 C108 1.412 . S
C107 C128 1.485 . S
C108 C107 1.412 . S
C108 C109 1.388 . S
C108 C134 1.490 . S
C109 C104 1.397 . S
C109 C108 1.388 . S
C109 C140 1.519 1_545 S
C110 C104 1.492 . S
C110 C111 1.363 . S
C110 C115 1.390 1_545 S
C111 H76 0.930 . S
C111 C110 1.363 . S
C111 C112 1.372 1_545 S
C112 H77 0.930 . S
C112 C111 1.372 1_565 S
C112 C113 1.383 . S
C113 C112 1.383 . S
C113 C114 1.395 . S
C114 H78 0.930 . S
C114 C113 1.395 . S
C114 C115 1.362 . S
C115 H79 0.930 . S
C115 C110 1.390 1_565 S
C115 C114 1.362 . S
C116 C105 1.492 . S
C116 C117 1.377 . S
C116 C121 1.397 . S
C117 H80 0.931 . S
C117 C116 1.377 . S
C117 C118 1.376 . S
C118 H81 0.930 . S
C118 C117 1.376 . S
C118 C119 1.376 . S
C119 C118 1.376 . S
C119 C120 1.378 . S
C119 C146 1.486 . S
C120 H82 0.930 . S
C120 C119 1.378 . S
C120 C121 1.376 . S
C121 H83 0.929 . S
C121 C116 1.397 . S
C121 C120 1.376 . S
C122 C106 1.509 . S
C122 C123 1.391 . S
C122 C127 1.386 . S
C123 H84 0.930 . S
C123 C122 1.391 . S
C123 C124 1.375 . S
C124 H85 0.931 . S
C124 C123 1.375 . S
C124 C125 1.375 . S
C125 C124 1.375 . S
C125 C126 1.361 . S
C126 H86 0.930 . S
C126 C125 1.361 . S
C126 C127 1.399 . S
C127 H87 0.929 . S
C127 C122 1.386 . S
C127 C126 1.399 . S
C128 C107 1.485 . S
C128 C129 1.394 . S
C128 C133 1.360 . S
C129 H88 0.931 . S
C129 C128 1.394 . S
C129 C130 1.372 . S
C130 H89 0.930 . S
C130 C129 1.372 . S
C130 C131 1.397 . S
C131 C130 1.397 . S
C131 C132 1.390 . S
C131 C147 1.476 . S
C132 H90 0.930 . S
C132 C131 1.390 . S
C132 C133 1.366 . S
C133 H91 0.932 . S
C133 C128 1.360 . S
C133 C132 1.366 . S
C134 C108 1.490 . S
C134 C135 1.380 . S
C134 C139 1.386 . S
C135 H92 0.930 . S
C135 C134 1.380 . S
C135 C136 1.381 . S
C136 H93 0.929 . S
C136 C135 1.381 . S
C136 C137 1.371 . S
C137 C136 1.371 . S
C137 C138 1.380 . S
C138 H94 0.931 . S
C138 C137 1.380 . S
C138 C139 1.387 . S
C139 H95 0.930 . S
C139 C134 1.386 . S
C139 C138 1.387 . S
C140 C109 1.519 1_565 S
C140 C141 1.377 . S
C140 C145 1.361 . S
C141 H96 0.929 . S
C141 C140 1.377 . S
C141 C142 1.386 . S
C142 H97 0.931 . S
C142 C141 1.386 . S
C142 C143 1.363 . S
C143 C142 1.363 . S
C143 C144 1.385 . S
C144 H98 0.930 . S
C144 C143 1.385 . S
C144 C145 1.396 . S
C145 H99 0.929 . S
C145 C140 1.361 . S
C145 C144 1.396 . S
C146 O100 1.300 . S
C146 O101 1.209 . S
C146 C119 1.486 . S
C147 O102 1.199 . S
C147 O103 1.297 . S
C147 C131 1.476 . S
H148 O174 0.856 . S
H149 O177 0.854 . S
H150 C185 0.930 . S
H151 C186 0.930 . S
H152 C188 0.930 . S
H153 C189 0.930 . S
H154 C191 0.931 . S
H155 C192 0.930 . S
H156 C194 0.930 . S
H157 C195 0.929 . S
H158 C197 0.930 . S
H159 C198 0.931 . S
H160 C200 0.930 . S
H161 C201 0.929 . S
H162 C203 0.931 . S
H163 C204 0.930 . S
H164 C206 0.930 . S
H165 C207 0.932 . S
H166 C209 0.930 . S
H167 C210 0.929 . S
H168 C212 0.931 . S
H169 C213 0.930 . S
H170 C215 0.929 . S
H171 C216 0.931 . S
H172 C218 0.930 . S
H173 C219 0.929 . S
O174 H148 0.856 . S
O174 C220 1.300 . S
O175 C220 1.209 . S
O176 C221 1.199 . S
O177 H149 0.854 . S
O177 C221 1.297 . S
C178 C179 1.404 . S
C178 C183 1.397 . S
C178 C184 1.492 . S
C179 C178 1.404 . S
C179 C180 1.396 . S
C179 C190 1.492 . S
C180 C179 1.396 . S
C180 C181 1.397 . S
C180 C196 1.509 . S
C181 C180 1.397 . S
C181 C182 1.412 . S
C181 C202 1.485 . S
C182 C181 1.412 . S
C182 C183 1.388 . S
C182 C208 1.490 . S
C183 C178 1.397 . S
C183 C182 1.388 . S
C183 C214 1.519 . S
C184 C178 1.492 . S
C184 C185 1.363 . S
C184 C189 1.390 . S
C185 H150 0.930 . S
C185 C184 1.363 . S
C185 C186 1.372 . S
C186 H151 0.930 . S
C186 C185 1.372 . S
C186 C187 1.383 . S
C187 C186 1.383 . S
C187 C188 1.395 . S
C188 H152 0.930 . S
C188 C187 1.395 . S
C188 C189 1.362 . S
C189 H153 0.930 . S
C189 C184 1.390 . S
C189 C188 1.362 . S
C190 C179 1.492 . S
C190 C191 1.377 . S
C190 C195 1.397 . S
C191 H154 0.931 . S
C191 C190 1.377 . S
C191 C192 1.376 . S
C192 H155 0.930 . S
C192 C191 1.376 . S
C192 C193 1.376 . S
C193 C192 1.376 . S
C193 C194 1.378 . S
C193 C220 1.486 . S
C194 H156 0.930 . S
C194 C193 1.378 . S
C194 C195 1.376 . S
C195 H157 0.929 . S
C195 C190 1.397 . S
C195 C194 1.376 . S
C196 C180 1.509 . S
C196 C197 1.391 . S
C196 C201 1.386 . S
C197 H158 0.930 . S
C197 C196 1.391 . S
C197 C198 1.375 . S
C198 H159 0.931 . S
C198 C197 1.375 . S
C198 C199 1.375 . S
C199 C198 1.375 . S
C199 C200 1.361 . S
C200 H160 0.930 . S
C200 C199 1.361 . S
C200 C201 1.399 . S
C201 H161 0.929 . S
C201 C196 1.386 . S
C201 C200 1.399 . S
C202 C181 1.485 . S
C202 C203 1.394 . S
C202 C207 1.360 . S
C203 H162 0.931 . S
C203 C202 1.394 . S
C203 C204 1.372 . S
C204 H163 0.930 . S
C204 C203 1.372 . S
C204 C205 1.397 . S
C205 C204 1.397 . S
C205 C206 1.390 . S
C205 C221 1.476 . S
C206 H164 0.930 . S
C206 C205 1.390 . S
C206 C207 1.366 . S
C207 H165 0.932 . S
C207 C202 1.360 . S
C207 C206 1.366 . S
C208 C182 1.490 . S
C208 C209 1.380 . S
C208 C213 1.386 . S
C209 H166 0.930 . S
C209 C208 1.380 . S
C209 C210 1.381 . S
C210 H167 0.929 . S
C210 C209 1.381 . S
C210 C211 1.371 . S
C211 C210 1.371 . S
C211 C212 1.380 . S
C212 H168 0.931 . S
C212 C211 1.380 . S
C212 C213 1.387 . S
C213 H169 0.930 . S
C213 C208 1.386 . S
C213 C212 1.387 . S
C214 C183 1.519 . S
C214 C215 1.377 . S
C214 C219 1.361 . S
C215 H170 0.929 . S
C215 C214 1.377 . S
C215 C216 1.386 . S
C216 H171 0.931 . S
C216 C215 1.386 . S
C216 C217 1.363 . S
C217 C216 1.363 . S
C217 C218 1.385 . S
C218 H172 0.930 . S
C218 C217 1.385 . S
C218 C219 1.396 . S
C219 H173 0.929 . S
C219 C214 1.361 . S
C219 C218 1.396 . S
C220 O174 1.300 . S
C220 O175 1.209 . S
C220 C193 1.486 . S
C221 O176 1.199 . S
C221 O177 1.297 . S
C221 C205 1.476 . S
H222 O248 0.856 . S
H223 O251 0.854 . S
H224 C259 0.930 1_455 S
H225 C260 0.930 . S
H226 C262 0.930 . S
H227 C263 0.930 . S
H228 C265 0.931 . S
H229 C266 0.930 . S
H230 C268 0.930 . S
H231 C269 0.929 . S
H232 C271 0.930 . S
H233 C272 0.931 . S
H234 C274 0.930 . S
H235 C275 0.929 . S
H236 C277 0.931 . S
H237 C278 0.930 . S
H238 C280 0.930 . S
H239 C281 0.932 . S
H240 C283 0.930 . S
H241 C284 0.929 . S
H242 C286 0.931 . S
H243 C287 0.930 . S
H244 C289 0.929 . S
H245 C290 0.931 . S
H246 C292 0.930 . S
H247 C293 0.944 . S
O248 H222 0.856 . S
O248 C294 1.300 . S
O249 C294 1.209 . S
O250 C295 1.199 . S
O251 H223 0.854 . S
O251 C295 1.297 . S
C252 C253 1.404 . S
C252 C257 1.397 . S
C252 C258 1.492 . S
C253 C252 1.404 . S
C253 C254 1.396 . S
C253 C264 1.492 . S
C254 C253 1.396 . S
C254 C255 1.397 . S
C254 C270 1.509 . S
C255 C254 1.397 . S
C255 C256 1.412 . S
C255 C276 1.485 . S
C256 C255 1.412 . S
C256 C257 1.388 . S
C256 C282 1.490 . S
C257 C252 1.397 . S
C257 C256 1.388 . S
C257 C288 1.519 1_455 S
C258 C252 1.492 . S
C258 C259 1.363 1_455 S
C258 C263 1.390 1_455 S
C259 H224 0.930 1_655 S
C259 C258 1.363 1_655 S
C259 C260 1.372 . S
C260 H225 0.930 . S
C260 C259 1.372 . S
C260 C261 1.383 . S
C261 C260 1.383 . S
C261 C262 1.395 . S
C262 H226 0.930 . S
C262 C261 1.395 . S
C262 C263 1.362 . S
C263 H227 0.930 . S
C263 C258 1.390 1_655 S
C263 C262 1.362 . S
C264 C253 1.492 . S
C264 C265 1.377 . S
C264 C269 1.397 . S
C265 H228 0.931 . S
C265 C264 1.377 . S
C265 C266 1.376 . S
C266 H229 0.930 . S
C266 C265 1.376 . S
C266 C267 1.376 . S
C267 C266 1.376 . S
C267 C268 1.378 . S
C267 C294 1.486 . S
C268 H230 0.930 . S
C268 C267 1.378 . S
C268 C269 1.376 . S
C269 H231 0.929 . S
C269 C264 1.397 . S
C269 C268 1.376 . S
C270 C254 1.509 . S
C270 C271 1.391 . S
C270 C275 1.386 . S
C271 H232 0.930 . S
C271 C270 1.391 . S
C271 C272 1.375 . S
C272 H233 0.931 . S
C272 C271 1.375 . S
C272 C273 1.375 . S
C273 C272 1.375 . S
C273 C274 1.361 . S
C274 H234 0.930 . S
C274 C273 1.361 . S
C274 C275 1.399 . S
C275 H235 0.929 . S
C275 C270 1.386 . S
C275 C274 1.399 . S
C276 C255 1.485 . S
C276 C277 1.394 . S
C276 C281 1.360 . S
C277 H236 0.931 . S
C277 C276 1.394 . S
C277 C278 1.372 . S
C278 H237 0.930 . S
C278 C277 1.372 . S
C278 C279 1.397 . S
C279 C278 1.397 . S
C279 C280 1.390 . S
C279 C295 1.476 . S
C280 H238 0.930 . S
C280 C279 1.390 . S
C280 C281 1.366 . S
C281 H239 0.932 . S
C281 C276 1.360 . S
C281 C280 1.366 . S
C282 C256 1.490 . S
C282 C283 1.380 . S
C282 C287 1.386 . S
C283 H240 0.930 . S
C283 C282 1.380 . S
C283 C284 1.381 . S
C284 H241 0.929 . S
C284 C283 1.381 . S
C284 C285 1.371 . S
C285 C284 1.371 . S
C285 C286 1.380 . S
C286 H242 0.931 . S
C286 C285 1.380 . S
C286 C287 1.387 . S
C287 H243 0.930 . S
C287 C282 1.386 . S
C287 C286 1.387 . S
C288 C257 1.519 1_655 S
C288 C289 1.377 . S
C288 C293 1.361 . S
C289 H244 0.929 . S
C289 C288 1.377 . S
C289 C290 1.386 . S
C290 H245 0.931 . S
C290 C289 1.386 . S
C290 C291 1.363 . S
C291 C290 1.363 . S
C291 C292 1.385 . S
C292 H246 0.930 . S
C292 C291 1.385 . S
C292 C293 1.396 . S
C293 H247 0.944 . S
C293 C288 1.361 . S
C293 C292 1.396 . S
C294 O248 1.300 . S
C294 O249 1.209 . S
C294 C267 1.486 . S
C295 O250 1.199 . S
C295 O251 1.297 . S
C295 C279 1.476 . S
H296 O322 0.856 . S
H297 O325 0.854 . S
H298 C333 0.930 . S
H299 C334 0.930 . S
H300 C336 0.930 . S
H301 C337 0.930 . S
H302 C339 0.931 . S
H303 C340 0.930 . S
H304 C342 0.930 . S
H305 C343 0.929 . S
H306 C345 0.930 . S
H307 C346 0.931 . S
H308 C348 0.930 . S
H309 C349 0.929 . S
H310 C351 0.931 . S
H311 C352 0.930 . S
H312 C354 0.930 . S
H313 C355 0.932 . S
H314 C357 0.930 . S
H315 C358 0.929 1_545 S
H316 C360 0.931 . S
H317 C361 0.930 . S
H318 C363 0.929 1_556 S
H319 C364 0.931 . S
H320 C366 0.930 . S
H321 C367 0.929 . S
O322 H296 0.856 . S
O322 C368 1.300 . S
O323 C368 1.209 . S
O324 C369 1.199 . S
O325 H297 0.854 . S
O325 C369 1.297 . S
C326 C327 1.404 . S
C326 C331 1.397 1_565 S
C326 C332 1.492 1_565 S
C327 C326 1.404 . S
C327 C328 1.396 . S
C327 C338 1.492 . S
C328 C327 1.396 . S
C328 C329 1.397 . S
C328 C344 1.509 . S
C329 C328 1.397 . S
C329 C330 1.412 1_556 S
C329 C350 1.485 1_556 S
C330 C329 1.412 1_554 S
C330 C331 1.388 1_564 S
C330 C356 1.490 . S
C331 C326 1.397 1_545 S
C331 C330 1.388 1_546 S
C331 C362 1.519 1_556 S
C332 C326 1.492 1_545 S
C332 C333 1.363 . S
C332 C337 1.390 . S
C333 H298 0.930 . S
C333 C332 1.363 . S
C333 C334 1.372 . S
C334 H299 0.930 . S
C334 C333 1.372 . S
C334 C335 1.383 . S
C335 C334 1.383 . S
C335 C336 1.395 . S
C336 H300 0.930 . S
C336 C335 1.395 . S
C336 C337 1.362 . S
C337 H301 0.930 . S
C337 C332 1.390 . S
C337 C336 1.362 . S
C338 C327 1.492 . S
C338 C339 1.377 . S
C338 C343 1.397 . S
C339 H302 0.931 . S
C339 C338 1.377 . S
C339 C340 1.376 . S
C340 H303 0.930 . S
C340 C339 1.376 . S
C340 C341 1.376 . S
C341 C340 1.376 . S
C341 C342 1.378 . S
C341 C368 1.486 . S
C342 H304 0.930 . S
C342 C341 1.378 . S
C342 C343 1.376 . S
C343 H305 0.929 . S
C343 C338 1.397 . S
C343 C342 1.376 . S
C344 C328 1.509 . S
C344 C345 1.391 . S
C344 C349 1.386 . S
C345 H306 0.930 . S
C345 C344 1.391 . S
C345 C346 1.375 . S
C346 H307 0.931 . S
C346 C345 1.375 . S
C346 C347 1.375 . S
C347 C346 1.375 . S
C347 C348 1.361 . S
C348 H308 0.930 . S
C348 C347 1.361 . S
C348 C349 1.399 . S
C349 H309 0.929 . S
C349 C344 1.386 . S
C349 C348 1.399 . S
C350 C329 1.485 1_554 S
C350 C351 1.394 . S
C350 C355 1.360 . S
C351 H310 0.931 . S
C351 C350 1.394 . S
C351 C352 1.372 . S
C352 H311 0.930 . S
C352 C351 1.372 . S
C352 C353 1.397 . S
C353 C352 1.397 . S
C353 C354 1.390 . S
C353 C369 1.476 . S
C354 H312 0.930 . S
C354 C353 1.390 . S
C354 C355 1.366 . S
C355 H313 0.932 . S
C355 C350 1.360 . S
C355 C354 1.366 . S
C356 C330 1.490 . S
C356 C357 1.380 . S
C356 C361 1.386 . S
C357 H314 0.930 . S
C357 C356 1.380 . S
C357 C358 1.381 . S
C358 H315 0.929 1_565 S
C358 C357 1.381 . S
C358 C359 1.371 . S
C359 C358 1.371 . S
C359 C360 1.380 . S
C360 H316 0.931 . S
C360 C359 1.380 . S
C360 C361 1.387 . S
C361 H317 0.930 . S
C361 C356 1.386 . S
C361 C360 1.387 . S
C362 C331 1.519 1_554 S
C362 C363 1.377 . S
C362 C367 1.361 . S
C363 H318 0.929 1_554 S
C363 C362 1.377 . S
C363 C364 1.386 . S
C364 H319 0.931 . S
C364 C363 1.386 . S
C364 C365 1.363 . S
C365 C364 1.363 . S
C365 C366 1.385 . S
C366 H320 0.930 . S
C366 C365 1.385 . S
C366 C367 1.396 . S
C367 H321 0.929 . S
C367 C362 1.361 . S
C367 C366 1.396 . S
C368 O322 1.300 . S
C368 O323 1.209 . S
C368 C341 1.486 . S
C369 O324 1.199 . S
C369 O325 1.297 . S
C369 C353 1.476 . S
H370 O396 0.856 . S
H371 O399 0.854 . S
H372 C407 0.930 . S
H373 C408 0.930 . S
H374 C410 0.930 . S
H375 C411 0.930 . S
H376 C413 0.931 . S
H377 C414 0.930 . S
H378 C416 0.930 . S
H379 C417 0.929 . S
H380 C419 0.930 . S
H381 C420 0.931 . S
H382 C422 0.930 . S
H383 C423 0.929 . S
H384 C425 0.931 . S
H385 C426 0.930 . S
H386 C428 0.930 . S
H387 C429 0.932 . S
H388 C431 0.930 . S
H389 C432 0.929 . S
H390 C434 0.931 . S
H391 C435 0.930 . S
H392 C437 0.929 . S
H393 C438 0.931 . S
H394 C440 0.930 . S
H395 C441 0.929 . S
O396 H370 0.856 . S
O396 C442 1.300 . S
O397 C442 1.209 . S
O398 C443 1.199 . S
O399 H371 0.854 . S
O399 C443 1.297 . S
C400 C401 1.404 . S
C400 C405 1.397 . S
C400 C406 1.492 . S
C401 C400 1.404 . S
C401 C402 1.396 . S
C401 C412 1.492 . S
C402 C401 1.396 . S
C402 C403 1.397 . S
C402 C418 1.509 . S
C403 C402 1.397 . S
C403 C404 1.412 . S
C403 C424 1.485 . S
C404 C403 1.412 . S
C404 C405 1.388 . S
C404 C430 1.490 . S
C405 C400 1.397 . S
C405 C404 1.388 . S
C405 C436 1.519 . S
C406 C400 1.492 . S
C406 C407 1.363 . S
C406 C411 1.390 . S
C407 H372 0.930 . S
C407 C406 1.363 . S
C407 C408 1.372 . S
C408 H373 0.930 . S
C408 C407 1.372 . S
C408 C409 1.383 . S
C409 C408 1.383 . S
C409 C410 1.395 . S
C410 H374 0.930 . S
C410 C409 1.395 . S
C410 C411 1.362 . S
C411 H375 0.930 . S
C411 C406 1.390 . S
C411 C410 1.362 . S
C412 C401 1.492 . S
C412 C413 1.377 . S
C412 C417 1.397 . S
C413 H376 0.931 . S
C413 C412 1.377 . S
C413 C414 1.376 . S
C414 H377 0.930 . S
C414 C413 1.376 . S
C414 C415 1.376 . S
C415 C414 1.376 . S
C415 C416 1.378 . S
C415 C442 1.486 . S
C416 H378 0.930 . S
C416 C415 1.378 . S
C416 C417 1.376 . S
C417 H379 0.929 . S
C417 C412 1.397 . S
C417 C416 1.376 . S
C418 C402 1.509 . S
C418 C419 1.391 . S
C418 C423 1.386 . S
C419 H380 0.930 . S
C419 C418 1.391 . S
C419 C420 1.375 . S
C420 H381 0.931 . S
C420 C419 1.375 . S
C420 C421 1.375 . S
C421 C420 1.375 . S
C421 C422 1.361 . S
C422 H382 0.930 . S
C422 C421 1.361 . S
C422 C423 1.399 . S
C423 H383 0.929 . S
C423 C418 1.386 . S
C423 C422 1.399 . S
C424 C403 1.485 . S
C424 C425 1.394 . S
C424 C429 1.360 . S
C425 H384 0.931 . S
C425 C424 1.394 . S
C425 C426 1.372 . S
C426 H385 0.930 . S
C426 C425 1.372 . S
C426 C427 1.397 . S
C427 C426 1.397 . S
C427 C428 1.390 . S
C427 C443 1.476 . S
C428 H386 0.930 . S
C428 C427 1.390 . S
C428 C429 1.366 . S
C429 H387 0.932 . S
C429 C424 1.360 . S
C429 C428 1.366 . S
C430 C404 1.490 . S
C430 C431 1.380 . S
C430 C435 1.386 . S
C431 H388 0.930 . S
C431 C430 1.380 . S
C431 C432 1.381 . S
C432 H389 0.929 . S
C432 C431 1.381 . S
C432 C433 1.371 . S
C433 C432 1.371 . S
C433 C434 1.380 . S
C434 H390 0.931 . S
C434 C433 1.380 . S
C434 C435 1.387 . S
C435 H391 0.930 . S
C435 C430 1.386 . S
C435 C434 1.387 . S
C436 C405 1.519 . S
C436 C437 1.377 . S
C436 C441 1.361 . S
C437 H392 0.929 . S
C437 C436 1.377 . S
C437 C438 1.386 . S
C438 H393 0.931 . S
C438 C437 1.386 . S
C438 C439 1.363 . S
C439 C438 1.363 . S
C439 C440 1.385 . S
C440 H394 0.930 . S
C440 C439 1.385 . S
C440 C441 1.396 . S
C441 H395 0.929 . S
C441 C436 1.361 . S
C441 C440 1.396 . S
C442 O396 1.300 . S
C442 O397 1.209 . S
C442 C415 1.486 . S
C443 O398 1.199 . S
C443 O399 1.297 . S
C443 C427 1.476 . S
Zn444 O447 2.031 . S
Zn444 O449 2.049 . S
Zn444 O454 2.067 . S
Zn445 O446 1.962 . S
Zn445 O448 1.986 . S
Zn445 O450 1.996 . S
Zn445 O453 1.943 . S
O446 Zn445 1.962 . S
O446 C451 1.254 . S
O447 Zn444 2.031 . S
O447 C451 1.269 . S
O448 Zn445 1.986 . S
O448 C455 1.262 . S
O449 Zn444 2.049 . S
O449 C457 1.260 . S
O450 Zn445 1.996 . S
O450 C457 1.257 . S
C451 O446 1.254 . S
C451 O447 1.269 . S
C452 O453 1.249 . S
C452 O454 1.270 . S
O453 Zn445 1.943 . S
O453 C452 1.249 . S
O454 Zn444 2.067 . S
O454 C452 1.270 . S
C455 O448 1.262 . S
C455 O456 1.232 . S
O456 C455 1.232 . S
C457 O449 1.260 . S
C457 O450 1.257 . S
Zn458 O461 2.031 . S
Zn458 O463 2.049 . S
Zn458 O468 2.067 . S
Zn459 O460 1.962 . S
Zn459 O462 1.986 . S
Zn459 O464 1.996 . S
Zn459 O467 1.943 . S
O460 Zn459 1.962 . S
O460 C465 1.254 . S
O461 Zn458 2.031 . S
O461 C465 1.269 . S
O462 Zn459 1.986 . S
O462 C469 1.262 . S
O463 Zn458 2.049 . S
O463 C471 1.260 . S
O464 Zn459 1.996 . S
O464 C471 1.257 . S
C465 O460 1.254 . S
C465 O461 1.269 . S
C466 O467 1.249 . S
C466 O468 1.270 . S
O467 Zn459 1.943 . S
O467 C466 1.249 . S
O468 Zn458 2.067 . S
O468 C466 1.270 . S
C469 O462 1.262 . S
C469 O470 1.232 . S
O470 C469 1.232 . S
C471 O463 1.260 . S
C471 O464 1.257 . S
Zn472 O475 2.031 . S
Zn472 O477 2.049 . S
Zn472 O482 2.067 . S
Zn473 O474 1.962 . S
Zn473 O476 1.986 . S
Zn473 O478 1.996 . S
Zn473 O481 1.943 . S
O474 Zn473 1.962 . S
O474 C479 1.254 . S
O475 Zn472 2.031 . S
O475 C479 1.269 . S
O476 Zn473 1.986 . S
O476 C483 1.262 . S
O477 Zn472 2.049 . S
O477 C485 1.260 . S
O478 Zn473 1.996 . S
O478 C485 1.257 . S
C479 O474 1.254 . S
C479 O475 1.269 . S
C480 O481 1.249 . S
C480 O482 1.270 . S
O481 Zn473 1.943 . S
O481 C480 1.249 . S
O482 Zn472 2.067 . S
O482 C480 1.270 . S
C483 O476 1.262 . S
C483 O484 1.232 . S
O484 C483 1.232 . S
C485 O477 1.260 . S
C485 O478 1.257 . S
Zn486 O489 2.031 . S
Zn486 O491 2.049 . S
Zn486 O496 2.067 . S
Zn487 O488 1.962 . S
Zn487 O490 1.986 . S
Zn487 O492 1.996 . S
Zn487 O495 1.943 . S
O488 Zn487 1.962 . S
O488 C493 1.254 . S
O489 Zn486 2.031 . S
O489 C493 1.269 . S
O490 Zn487 1.986 . S
O490 C497 1.262 . S
O491 Zn486 2.049 . S
O491 C499 1.260 . S
O492 Zn487 1.996 . S
O492 C499 1.257 . S
C493 O488 1.254 . S
C493 O489 1.269 . S
C494 O495 1.249 . S
C494 O496 1.270 . S
O495 Zn487 1.943 . S
O495 C494 1.249 . S
O496 Zn486 2.067 . S
O496 C494 1.270 . S
C497 O490 1.262 . S
C497 O498 1.232 . S
O498 C497 1.232 . S
C499 O491 1.260 . S
C499 O492 1.257 . S
Zn500 O503 2.031 . S
Zn500 O505 2.049 . S
Zn500 O510 2.067 . S
Zn501 O502 1.962 . S
Zn501 O504 1.986 . S
Zn501 O506 1.996 . S
Zn501 O509 1.943 . S
O502 Zn501 1.962 . S
O502 C507 1.254 . S
O503 Zn500 2.031 . S
O503 C507 1.269 . S
O504 Zn501 1.986 . S
O504 C511 1.262 . S
O505 Zn500 2.049 . S
O505 C513 1.260 . S
O506 Zn501 1.996 . S
O506 C513 1.257 . S
C507 O502 1.254 . S
C507 O503 1.269 . S
C508 O509 1.249 . S
C508 O510 1.270 . S
O509 Zn501 1.943 . S
O509 C508 1.249 . S
O510 Zn500 2.067 . S
O510 C508 1.270 . S
C511 O504 1.262 . S
C511 O512 1.232 . S
O512 C511 1.232 . S
C513 O505 1.260 . S
C513 O506 1.257 . S
Zn514 O517 2.031 . S
Zn514 O519 2.049 . S
Zn514 O524 2.067 . S
Zn515 O516 1.962 . S
Zn515 O518 1.986 . S
Zn515 O520 1.996 . S
Zn515 O523 1.943 . S
O516 Zn515 1.962 . S
O516 C521 1.254 . S
O517 Zn514 2.031 . S
O517 C521 1.269 . S
O518 Zn515 1.986 . S
O518 C525 1.262 . S
O519 Zn514 2.049 . S
O519 C527 1.260 . S
O520 Zn515 1.996 . S
O520 C527 1.257 . S
C521 O516 1.254 . S
C521 O517 1.269 . S
C522 O523 1.249 . S
C522 O524 1.270 . S
O523 Zn515 1.943 . S
O523 C522 1.249 . S
O524 Zn514 2.067 . S
O524 C522 1.270 . S
C525 O518 1.262 . S
C525 O526 1.232 . S
O526 C525 1.232 . S
C527 O519 1.260 . S
C527 O520 1.257 . S
H528 C540 0.930 . S
H529 C542 0.930 . S
H530 C543 0.930 . S
H531 C547 0.959 . S
H532 C547 0.959 . S
H533 C547 0.961 . S
H534 C548 0.960 . S
H535 C548 0.961 . S
H536 C548 0.959 . S
H537 C551 0.929 . S
H538 C552 0.931 . S
H539 C554 0.930 . S
C540 H528 0.930 . S
C540 C541 1.399 . S
C540 C545 1.399 . S
C541 C540 1.399 . S
C541 C542 1.376 . S
C542 H529 0.930 . S
C542 C541 1.376 . S
C542 C543 1.388 . S
C543 H530 0.930 . S
C543 C542 1.388 . S
C543 C544 1.390 . S
C544 C543 1.390 . S
C544 C545 1.394 . S
C544 C550 1.465 . S
C545 C540 1.399 . S
C545 C544 1.394 . S
C545 C546 1.516 . S
C546 C545 1.516 . S
C546 C547 1.502 . S
C546 C548 1.561 . S
C546 C549 1.526 . S
C547 H531 0.959 . S
C547 H532 0.959 . S
C547 H533 0.961 . S
C547 C546 1.502 . S
C548 H534 0.960 . S
C548 H535 0.961 . S
C548 H536 0.959 . S
C548 C546 1.561 . S
C549 C546 1.526 . S
C549 C550 1.396 . S
C549 C554 1.390 . S
C550 C544 1.465 . S
C550 C549 1.396 . S
C550 C551 1.399 . S
C551 H537 0.929 . S
C551 C550 1.399 . S
C551 C552 1.385 . S
C552 H538 0.931 . S
C552 C551 1.385 . S
C552 C553 1.389 . S
C553 C552 1.389 . S
C553 C554 1.387 . S
C554 H539 0.930 . S
C554 C549 1.390 . S
C554 C553 1.387 . S
H555 C567 0.930 . S
H556 C569 0.930 . S
H557 C570 0.930 . S
H558 C574 0.959 . S
H559 C574 0.959 . S
H560 C574 0.961 . S
H561 C575 0.960 . S
H562 C575 0.961 . S
H563 C575 0.959 . S
H564 C578 0.929 . S
H565 C579 0.931 . S
H566 C581 0.930 . S
C567 H555 0.930 . S
C567 C568 1.399 . S
C567 C572 1.399 . S
C568 C567 1.399 . S
C568 C569 1.376 . S
C569 H556 0.930 . S
C569 C568 1.376 . S
C569 C570 1.388 . S
C570 H557 0.930 . S
C570 C569 1.388 . S
C570 C571 1.390 . S
C571 C570 1.390 . S
C571 C572 1.394 . S
C571 C577 1.465 . S
C572 C567 1.399 . S
C572 C571 1.394 . S
C572 C573 1.516 . S
C573 C572 1.516 . S
C573 C574 1.502 . S
C573 C575 1.561 . S
C573 C576 1.526 . S
C574 H558 0.959 . S
C574 H559 0.959 . S
C574 H560 0.961 . S
C574 C573 1.502 . S
C575 H561 0.960 . S
C575 H562 0.961 . S
C575 H563 0.959 . S
C575 C573 1.561 . S
C576 C573 1.526 . S
C576 C577 1.396 . S
C576 C581 1.390 . S
C577 C571 1.465 . S
C577 C576 1.396 . S
C577 C578 1.399 . S
C578 H564 0.929 . S
C578 C577 1.399 . S
C578 C579 1.385 . S
C579 H565 0.931 . S
C579 C578 1.385 . S
C579 C580 1.389 . S
C580 C579 1.389 . S
C580 C581 1.387 . S
C581 H566 0.930 . S
C581 C576 1.390 . S
C581 C580 1.387 . S
H582 C594 0.930 . S
H583 C596 0.930 . S
H584 C597 0.930 . S
H585 C601 0.959 . S
H586 C601 0.959 . S
H587 C601 0.961 . S
H588 C602 0.960 . S
H589 C602 0.961 . S
H590 C602 0.959 . S
H591 C605 0.929 . S
H592 C606 0.931 . S
H593 C608 0.930 . S
C594 H582 0.930 . S
C594 C595 1.399 . S
C594 C599 1.399 . S
C595 C594 1.399 . S
C595 C596 1.376 . S
C596 H583 0.930 . S
C596 C595 1.376 . S
C596 C597 1.388 . S
C597 H584 0.930 . S
C597 C596 1.388 . S
C597 C598 1.390 . S
C598 C597 1.390 . S
C598 C599 1.394 . S
C598 C604 1.465 . S
C599 C594 1.399 . S
C599 C598 1.394 . S
C599 C600 1.516 . S
C600 C599 1.516 . S
C600 C601 1.502 . S
C600 C602 1.561 . S
C600 C603 1.526 . S
C601 H585 0.959 . S
C601 H586 0.959 . S
C601 H587 0.961 . S
C601 C600 1.502 . S
C602 H588 0.960 . S
C602 H589 0.961 . S
C602 H590 0.959 . S
C602 C600 1.561 . S
C603 C600 1.526 . S
C603 C604 1.396 . S
C603 C608 1.390 . S
C604 C598 1.465 . S
C604 C603 1.396 . S
C604 C605 1.399 . S
C605 H591 0.929 . S
C605 C604 1.399 . S
C605 C606 1.385 . S
C606 H592 0.931 . S
C606 C605 1.385 . S
C606 C607 1.389 . S
C607 C606 1.389 . S
C607 C608 1.387 . S
C608 H593 0.930 . S
C608 C603 1.390 . S
C608 C607 1.387 . S
H609 C621 0.930 . S
H610 C623 0.930 . S
H611 C624 0.930 . S
H612 C628 0.959 . S
H613 C628 0.959 . S
H614 C628 0.961 . S
H615 C629 0.960 . S
H616 C629 0.961 . S
H617 C629 0.959 . S
H618 C632 0.929 . S
H619 C633 0.931 . S
H620 C635 0.930 . S
C621 H609 0.930 . S
C621 C622 1.399 . S
C621 C626 1.399 . S
C622 C621 1.399 . S
C622 C623 1.376 . S
C623 H610 0.930 . S
C623 C622 1.376 . S
C623 C624 1.388 . S
C624 H611 0.930 . S
C624 C623 1.388 . S
C624 C625 1.390 . S
C625 C624 1.390 . S
C625 C626 1.394 . S
C625 C631 1.465 . S
C626 C621 1.399 . S
C626 C625 1.394 . S
C626 C627 1.516 . S
C627 C626 1.516 . S
C627 C628 1.502 . S
C627 C629 1.561 . S
C627 C630 1.526 . S
C628 H612 0.959 . S
C628 H613 0.959 . S
C628 H614 0.961 . S
C628 C627 1.502 . S
C629 H615 0.960 . S
C629 H616 0.961 . S
C629 H617 0.959 . S
C629 C627 1.561 . S
C630 C627 1.526 . S
C630 C631 1.396 . S
C630 C635 1.390 . S
C631 C625 1.465 . S
C631 C630 1.396 . S
C631 C632 1.399 . S
C632 H618 0.929 . S
C632 C631 1.399 . S
C632 C633 1.385 . S
C633 H619 0.931 . S
C633 C632 1.385 . S
C633 C634 1.389 . S
C634 C633 1.389 . S
C634 C635 1.387 . S
C635 H620 0.930 . S
C635 C630 1.390 . S
C635 C634 1.387 . S
H636 C648 0.930 . S
H637 C650 0.930 . S
H638 C651 0.930 . S
H639 C655 0.959 . S
H640 C655 0.959 . S
H641 C655 0.961 . S
H642 C656 0.960 . S
H643 C656 0.961 . S
H644 C656 0.959 . S
H645 C659 0.929 . S
H646 C660 0.931 . S
H647 C662 0.930 . S
C648 H636 0.930 . S
C648 C649 1.399 . S
C648 C653 1.399 . S
C649 C648 1.399 . S
C649 C650 1.376 . S
C650 H637 0.930 . S
C650 C649 1.376 . S
C650 C651 1.388 . S
C651 H638 0.930 . S
C651 C650 1.388 . S
C651 C652 1.390 . S
C652 C651 1.390 . S
C652 C653 1.394 . S
C652 C658 1.465 . S
C653 C648 1.399 . S
C653 C652 1.394 . S
C653 C654 1.516 . S
C654 C653 1.516 . S
C654 C655 1.502 . S
C654 C656 1.561 . S
C654 C657 1.526 . S
C655 H639 0.959 . S
C655 H640 0.959 . S
C655 H641 0.961 . S
C655 C654 1.502 . S
C656 H642 0.960 . S
C656 H643 0.961 . S
C656 H644 0.959 . S
C656 C654 1.561 . S
C657 C654 1.526 . S
C657 C658 1.396 . S
C657 C662 1.390 . S
C658 C652 1.465 . S
C658 C657 1.396 . S
C658 C659 1.399 . S
C659 H645 0.929 . S
C659 C658 1.399 . S
C659 C660 1.385 . S
C660 H646 0.931 . S
C660 C659 1.385 . S
C660 C661 1.389 . S
C661 C660 1.389 . S
C661 C662 1.387 . S
C662 H647 0.930 . S
C662 C657 1.390 . S
C662 C661 1.387 . S
H663 C675 0.930 . S
H664 C677 0.930 . S
H665 C678 0.930 . S
H666 C682 0.959 . S
H667 C682 0.959 . S
H668 C682 0.961 . S
H669 C683 0.960 . S
H670 C683 0.961 . S
H671 C683 0.959 . S
H672 C686 0.929 . S
H673 C687 0.931 . S
H674 C689 0.930 . S
C675 H663 0.930 . S
C675 C676 1.399 . S
C675 C680 1.399 . S
C676 C675 1.399 . S
C676 C677 1.376 . S
C677 H664 0.930 . S
C677 C676 1.376 . S
C677 C678 1.388 . S
C678 H665 0.930 . S
C678 C677 1.388 . S
C678 C679 1.390 . S
C679 C678 1.390 . S
C679 C680 1.394 . S
C679 C685 1.465 . S
C680 C675 1.399 . S
C680 C679 1.394 . S
C680 C681 1.516 . S
C681 C680 1.516 . S
C681 C682 1.502 . S
C681 C683 1.561 . S
C681 C684 1.526 . S
C682 H666 0.959 . S
C682 H667 0.959 . S
C682 H668 0.961 . S
C682 C681 1.502 . S
C683 H669 0.960 . S
C683 H670 0.961 . S
C683 H671 0.959 . S
C683 C681 1.561 . S
C684 C681 1.526 . S
C684 C685 1.396 . S
C684 C689 1.390 . S
C685 C679 1.465 . S
C685 C684 1.396 . S
C685 C686 1.399 . S
C686 H672 0.929 . S
C686 C685 1.399 . S
C686 C687 1.385 . S
C687 H673 0.931 . S
C687 C686 1.385 . S
C687 C688 1.389 . S
C688 C687 1.389 . S
C688 C689 1.387 . S
C689 H674 0.930 . S
C689 C684 1.390 . S
C689 C688 1.387 . S
H690 C702 0.930 . S
H691 C704 0.930 . S
H692 C705 0.930 . S
H693 C709 0.959 . S
H694 C709 0.959 . S
H695 C709 0.961 . S
H696 C710 0.960 . S
H697 C710 0.961 . S
H698 C710 0.959 . S
H699 C713 0.929 . S
H700 C714 0.931 . S
H701 C716 0.930 . S
C702 H690 0.930 . S
C702 C703 1.399 . S
C702 C707 1.399 . S
C703 C702 1.399 . S
C703 C704 1.376 . S
C704 H691 0.930 . S
C704 C703 1.376 . S
C704 C705 1.388 . S
C705 H692 0.930 . S
C705 C704 1.388 . S
C705 C706 1.390 . S
C706 C705 1.390 . S
C706 C707 1.394 . S
C706 C712 1.465 . S
C707 C702 1.399 . S
C707 C706 1.394 . S
C707 C708 1.516 . S
C708 C707 1.516 . S
C708 C709 1.502 . S
C708 C710 1.561 . S
C708 C711 1.526 . S
C709 H693 0.959 . S
C709 H694 0.959 . S
C709 H695 0.961 . S
C709 C708 1.502 . S
C710 H696 0.960 . S
C710 H697 0.961 . S
C710 H698 0.959 . S
C710 C708 1.561 . S
C711 C708 1.526 . S
C711 C712 1.396 . S
C711 C716 1.390 . S
C712 C706 1.465 . S
C712 C711 1.396 . S
C712 C713 1.399 . S
C713 H699 0.929 . S
C713 C712 1.399 . S
C713 C714 1.385 . S
C714 H700 0.931 . S
C714 C713 1.385 . S
C714 C715 1.389 . S
C715 C714 1.389 . S
C715 C716 1.387 . S
C716 H701 0.930 . S
C716 C711 1.390 . S
C716 C715 1.387 . S
H717 C729 0.930 . S
H718 C731 0.930 . S
H719 C732 0.930 . S
H720 C736 0.959 . S
H721 C736 0.959 . S
H722 C736 0.961 . S
H723 C737 0.960 . S
H724 C737 0.961 . S
H725 C737 0.959 . S
H726 C740 0.929 . S
H727 C741 0.931 . S
H728 C743 0.930 . S
C729 H717 0.930 . S
C729 C730 1.399 . S
C729 C734 1.399 . S
C730 C729 1.399 . S
C730 C731 1.376 . S
C731 H718 0.930 . S
C731 C730 1.376 . S
C731 C732 1.388 . S
C732 H719 0.930 . S
C732 C731 1.388 . S
C732 C733 1.390 . S
C733 C732 1.390 . S
C733 C734 1.394 . S
C733 C739 1.465 . S
C734 C729 1.399 . S
C734 C733 1.394 . S
C734 C735 1.516 . S
C735 C734 1.516 . S
C735 C736 1.502 . S
C735 C737 1.561 . S
C735 C738 1.526 . S
C736 H720 0.959 . S
C736 H721 0.959 . S
C736 H722 0.961 . S
C736 C735 1.502 . S
C737 H723 0.960 . S
C737 H724 0.961 . S
C737 H725 0.959 . S
C737 C735 1.561 . S
C738 C735 1.526 . S
C738 C739 1.396 . S
C738 C743 1.390 . S
C739 C733 1.465 . S
C739 C738 1.396 . S
C739 C740 1.399 . S
C740 H726 0.929 . S
C740 C739 1.399 . S
C740 C741 1.385 . S
C741 H727 0.931 . S
C741 C740 1.385 . S
C741 C742 1.389 . S
C742 C741 1.389 . S
C742 C743 1.387 . S
C743 H728 0.930 . S
C743 C738 1.390 . S
C743 C742 1.387 . S
H744 C756 0.930 . S
H745 C758 0.930 . S
H746 C759 0.930 . S
H747 C763 0.959 . S
H748 C763 0.959 . S
H749 C763 0.961 . S
H750 C764 0.960 . S
H751 C764 0.961 . S
H752 C764 0.959 . S
H753 C767 0.929 . S
H754 C768 0.931 . S
H755 C770 0.930 . S
C756 H744 0.930 . S
C756 C757 1.399 . S
C756 C761 1.399 . S
C757 C756 1.399 . S
C757 C758 1.376 . S
C758 H745 0.930 . S
C758 C757 1.376 . S
C758 C759 1.388 . S
C759 H746 0.930 . S
C759 C758 1.388 . S
C759 C760 1.390 . S
C760 C759 1.390 . S
C760 C761 1.394 . S
C760 C766 1.465 . S
C761 C756 1.399 . S
C761 C760 1.394 . S
C761 C762 1.516 . S
C762 C761 1.516 . S
C762 C763 1.502 . S
C762 C764 1.561 . S
C762 C765 1.526 . S
C763 H747 0.959 . S
C763 H748 0.959 . S
C763 H749 0.961 . S
C763 C762 1.502 . S
C764 H750 0.960 . S
C764 H751 0.961 . S
C764 H752 0.959 . S
C764 C762 1.561 . S
C765 C762 1.526 . S
C765 C766 1.396 . S
C765 C770 1.390 . S
C766 C760 1.465 . S
C766 C765 1.396 . S
C766 C767 1.399 . S
C767 H753 0.929 . S
C767 C766 1.399 . S
C767 C768 1.385 . S
C768 H754 0.931 . S
C768 C767 1.385 . S
C768 C769 1.389 . S
C769 C768 1.389 . S
C769 C770 1.387 . S
C770 H755 0.930 . S
C770 C765 1.390 . S
C770 C769 1.387 . S
H771 C783 0.930 . S
H772 C785 0.930 . S
H773 C786 0.930 . S
H774 C790 0.959 . S
H775 C790 0.959 . S
H776 C790 0.946 1_556 S
H777 C791 0.982 . S
H778 C791 0.973 . S
H779 C791 0.949 1_554 S
H780 C794 0.929 . S
H781 C795 0.931 . S
H782 C797 0.930 . S
C783 H771 0.930 . S
C783 C784 1.399 . S
C783 C788 1.399 . S
C784 C783 1.399 . S
C784 C785 1.376 . S
C785 H772 0.930 . S
C785 C784 1.376 . S
C785 C786 1.388 . S
C786 H773 0.930 . S
C786 C785 1.388 . S
C786 C787 1.390 . S
C787 C786 1.390 . S
C787 C788 1.394 . S
C787 C793 1.465 . S
C788 C783 1.399 . S
C788 C787 1.394 . S
C788 C789 1.516 . S
C789 C788 1.516 . S
C789 C790 1.502 . S
C789 C791 1.539 1_554 S
C789 C792 1.526 . S
C790 H774 0.959 . S
C790 H775 0.959 . S
C790 H776 0.946 1_554 S
C790 C789 1.502 . S
C791 H777 0.982 . S
C791 H778 0.973 . S
C791 H779 0.949 1_556 S
C791 C789 1.539 1_556 S
C792 C789 1.526 . S
C792 C793 1.396 . S
C792 C797 1.390 . S
C793 C787 1.465 . S
C793 C792 1.396 . S
C793 C794 1.399 . S
C794 H780 0.929 . S
C794 C793 1.399 . S
C794 C795 1.385 . S
C795 H781 0.931 . S
C795 C794 1.385 . S
C795 C796 1.389 . S
C796 C795 1.389 . S
C796 C797 1.387 . S
C797 H782 0.930 . S
C797 C792 1.390 . S
C797 C796 1.387 . S
H798 C810 0.930 . S
H799 C812 0.930 . S
H800 C813 0.930 . S
H801 C817 0.959 . S
H802 C817 0.959 . S
H803 C817 0.961 . S
H804 C818 0.960 . S
H805 C818 0.961 . S
H806 C818 0.959 . S
H807 C821 0.929 . S
H808 C822 0.931 . S
H809 C824 0.930 . S
C810 H798 0.930 . S
C810 C811 1.399 . S
C810 C815 1.399 . S
C811 C810 1.399 . S
C811 C812 1.376 . S
C812 H799 0.930 . S
C812 C811 1.376 . S
C812 C813 1.388 . S
C813 H800 0.930 . S
C813 C812 1.388 . S
C813 C814 1.390 . S
C814 C813 1.390 . S
C814 C815 1.394 . S
C814 C820 1.465 . S
C815 C810 1.399 . S
C815 C814 1.394 . S
C815 C816 1.516 . S
C816 C815 1.516 . S
C816 C817 1.502 . S
C816 C818 1.561 . S
C816 C819 1.526 . S
C817 H801 0.959 . S
C817 H802 0.959 . S
C817 H803 0.961 . S
C817 C816 1.502 . S
C818 H804 0.960 . S
C818 H805 0.961 . S
C818 H806 0.959 . S
C818 C816 1.561 . S
C819 C816 1.526 . S
C819 C820 1.396 . S
C819 C824 1.390 . S
C820 C814 1.465 . S
C820 C819 1.396 . S
C820 C821 1.399 . S
C821 H807 0.929 . S
C821 C820 1.399 . S
C821 C822 1.385 . S
C822 H808 0.931 . S
C822 C821 1.385 . S
C822 C823 1.389 . S
C823 C822 1.389 . S
C823 C824 1.387 . S
C824 H809 0.930 . S
C824 C819 1.390 . S
C824 C823 1.387 . S
H825 C837 0.930 . S
H826 C839 0.930 . S
H827 C840 0.930 . S
H828 C844 0.959 . S
H829 C844 0.959 . S
H830 C844 0.961 . S
H831 C845 0.960 . S
H832 C845 0.961 . S
H833 C845 0.959 . S
H834 C848 0.929 . S
H835 C849 0.931 . S
H836 C851 0.930 . S
C837 H825 0.930 . S
C837 C838 1.399 . S
C837 C842 1.399 . S
C838 C837 1.399 . S
C838 C839 1.376 . S
C839 H826 0.930 . S
C839 C838 1.376 . S
C839 C840 1.388 . S
C840 H827 0.930 . S
C840 C839 1.388 . S
C840 C841 1.390 . S
C841 C840 1.390 . S
C841 C842 1.394 . S
C841 C847 1.465 . S
C842 C837 1.399 . S
C842 C841 1.394 . S
C842 C843 1.516 . S
C843 C842 1.516 . S
C843 C844 1.502 . S
C843 C845 1.561 . S
C843 C846 1.526 . S
C844 H828 0.959 . S
C844 H829 0.959 . S
C844 H830 0.961 . S
C844 C843 1.502 . S
C845 H831 0.960 . S
C845 H832 0.961 . S
C845 H833 0.959 . S
C845 C843 1.561 . S
C846 C843 1.526 . S
C846 C847 1.396 . S
C846 C851 1.390 . S
C847 C841 1.465 . S
C847 C846 1.396 . S
C847 C848 1.399 . S
C848 H834 0.929 . S
C848 C847 1.399 . S
C848 C849 1.385 . S
C849 H835 0.931 . S
C849 C848 1.385 . S
C849 C850 1.389 . S
C850 C849 1.389 . S
C850 C851 1.387 . S
C851 H836 0.930 . S
C851 C846 1.390 . S
C851 C850 1.387 . S
H852 C864 0.930 . S
H853 C866 0.930 . S
H854 C867 0.930 . S
H855 C871 0.959 . S
H856 C871 0.959 . S
H857 C871 0.961 . S
H858 C872 0.960 . S
H859 C872 0.961 . S
H860 C872 0.959 . S
H861 C875 0.929 . S
H862 C876 0.931 . S
H863 C878 0.930 . S
C864 H852 0.930 . S
C864 C865 1.399 . S
C864 C869 1.399 . S
C865 C864 1.399 . S
C865 C866 1.376 . S
C866 H853 0.930 . S
C866 C865 1.376 . S
C866 C867 1.388 . S
C867 H854 0.930 . S
C867 C866 1.388 . S
C867 C868 1.390 . S
C868 C867 1.390 . S
C868 C869 1.394 . S
C868 C874 1.465 . S
C869 C864 1.399 . S
C869 C868 1.394 . S
C869 C870 1.516 . S
C870 C869 1.516 . S
C870 C871 1.502 . S
C870 C872 1.561 . S
C870 C873 1.526 . S
C871 H855 0.959 . S
C871 H856 0.959 . S
C871 H857 0.961 . S
C871 C870 1.502 . S
C872 H858 0.960 . S
C872 H859 0.961 . S
C872 H860 0.959 . S
C872 C870 1.561 . S
C873 C870 1.526 . S
C873 C874 1.396 . S
C873 C878 1.390 . S
C874 C868 1.465 . S
C874 C873 1.396 . S
C874 C875 1.399 . S
C875 H861 0.929 . S
C875 C874 1.399 . S
C875 C876 1.385 . S
C876 H862 0.931 . S
C876 C875 1.385 . S
C876 C877 1.389 . S
C877 C876 1.389 . S
C877 C878 1.387 . S
C878 H863 0.930 . S
C878 C873 1.390 . S
C878 C877 1.387 . S
H879 C891 0.930 . S
H880 C893 0.930 . S
H881 C894 0.930 . S
H882 C898 0.959 . S
H883 C898 0.959 . S
H884 C898 0.961 . S
H885 C899 0.960 . S
H886 C899 0.961 . S
H887 C899 0.959 . S
H888 C902 0.929 . S
H889 C903 0.931 . S
H890 C905 0.930 . S
C891 H879 0.930 . S
C891 C892 1.399 . S
C891 C896 1.399 . S
C892 C891 1.399 . S
C892 C893 1.376 . S
C893 H880 0.930 . S
C893 C892 1.376 . S
C893 C894 1.388 . S
C894 H881 0.930 . S
C894 C893 1.388 . S
C894 C895 1.390 . S
C895 C894 1.390 . S
C895 C896 1.394 . S
C895 C901 1.465 . S
C896 C891 1.399 . S
C896 C895 1.394 . S
C896 C897 1.516 . S
C897 C896 1.516 . S
C897 C898 1.502 . S
C897 C899 1.561 . S
C897 C900 1.526 . S
C898 H882 0.959 . S
C898 H883 0.959 . S
C898 H884 0.961 . S
C898 C897 1.502 . S
C899 H885 0.960 . S
C899 H886 0.961 . S
C899 H887 0.959 . S
C899 C897 1.561 . S
C900 C897 1.526 . S
C900 C901 1.396 . S
C900 C905 1.390 . S
C901 C895 1.465 . S
C901 C900 1.396 . S
C901 C902 1.399 . S
C902 H888 0.929 . S
C902 C901 1.399 . S
C902 C903 1.385 . S
C903 H889 0.931 . S
C903 C902 1.385 . S
C903 C904 1.389 . S
C904 C903 1.389 . S
C904 C905 1.387 . S
C905 H890 0.930 . S
C905 C900 1.390 . S
C905 C904 1.387 . S
H906 C918 0.930 . S
H907 C920 0.930 . S
H908 C921 0.930 . S
H909 C925 0.959 . S
H910 C925 0.959 . S
H911 C925 0.961 . S
H912 C926 0.960 . S
H913 C926 0.961 . S
H914 C926 0.959 . S
H915 C929 0.929 . S
H916 C930 0.931 . S
H917 C932 0.930 . S
C918 H906 0.930 . S
C918 C919 1.399 . S
C918 C923 1.399 . S
C919 C918 1.399 . S
C919 C920 1.376 . S
C920 H907 0.930 . S
C920 C919 1.376 . S
C920 C921 1.388 . S
C921 H908 0.930 . S
C921 C920 1.388 . S
C921 C922 1.390 . S
C922 C921 1.390 . S
C922 C923 1.394 . S
C922 C928 1.465 . S
C923 C918 1.399 . S
C923 C922 1.394 . S
C923 C924 1.516 . S
C924 C923 1.516 . S
C924 C925 1.502 . S
C924 C926 1.561 . S
C924 C927 1.526 . S
C925 H909 0.959 . S
C925 H910 0.959 . S
C925 H911 0.961 . S
C925 C924 1.502 . S
C926 H912 0.960 . S
C926 H913 0.961 . S
C926 H914 0.959 . S
C926 C924 1.561 . S
C927 C924 1.526 . S
C927 C928 1.396 . S
C927 C932 1.390 . S
C928 C922 1.465 . S
C928 C927 1.396 . S
C928 C929 1.399 . S
C929 H915 0.929 . S
C929 C928 1.399 . S
C929 C930 1.385 . S
C930 H916 0.931 . S
C930 C929 1.385 . S
C930 C931 1.389 . S
C931 C930 1.389 . S
C931 C932 1.387 . S
C932 H917 0.930 . S
C932 C927 1.390 . S
C932 C931 1.387 . S
H933 C945 0.930 . S
H934 C947 0.930 . S
H935 C948 0.930 . S
H936 C952 0.959 . S
H937 C952 0.959 . S
H938 C952 0.961 . S
H939 C953 0.960 . S
H940 C953 0.961 . S
H941 C953 0.959 . S
H942 C956 0.929 . S
H943 C957 0.931 . S
H944 C959 0.930 . S
C945 H933 0.930 . S
C945 C946 1.399 . S
C945 C950 1.399 . S
C946 C945 1.399 . S
C946 C947 1.376 . S
C947 H934 0.930 . S
C947 C946 1.376 . S
C947 C948 1.388 . S
C948 H935 0.930 . S
C948 C947 1.388 . S
C948 C949 1.390 . S
C949 C948 1.390 . S
C949 C950 1.394 . S
C949 C955 1.465 . S
C950 C945 1.399 . S
C950 C949 1.394 . S
C950 C951 1.516 . S
C951 C950 1.516 . S
C951 C952 1.502 . S
C951 C953 1.561 . S
C951 C954 1.526 . S
C952 H936 0.959 . S
C952 H937 0.959 . S
C952 H938 0.961 . S
C952 C951 1.502 . S
C953 H939 0.960 . S
C953 H940 0.961 . S
C953 H941 0.959 . S
C953 C951 1.561 . S
C954 C951 1.526 . S
C954 C955 1.396 . S
C954 C959 1.390 . S
C955 C949 1.465 . S
C955 C954 1.396 . S
C955 C956 1.399 . S
C956 H942 0.929 . S
C956 C955 1.399 . S
C956 C957 1.385 1_556 S
C957 H943 0.931 . S
C957 C956 1.385 1_554 S
C957 C958 1.389 . S
C958 C957 1.389 . S
C958 C959 1.387 1_554 S
C959 H944 0.930 . S
C959 C954 1.390 . S
C959 C958 1.387 1_556 S
H960 C972 0.930 . S
H961 C974 0.930 . S
H962 C975 0.930 . S
H963 C979 0.959 . S
H964 C979 0.959 . S
H965 C979 0.961 . S
H966 C980 0.960 . S
H967 C980 0.961 . S
H968 C980 0.959 . S
H969 C983 0.929 . S
H970 C984 0.931 . S
H971 C986 0.930 . S
C972 H960 0.930 . S
C972 C973 1.399 . S
C972 C977 1.399 . S
C973 C972 1.399 . S
C973 C974 1.376 . S
C974 H961 0.930 . S
C974 C973 1.376 . S
C974 C975 1.388 . S
C975 H962 0.930 . S
C975 C974 1.388 . S
C975 C976 1.390 . S
C976 C975 1.390 . S
C976 C977 1.394 . S
C976 C982 1.465 . S
C977 C972 1.399 . S
C977 C976 1.394 . S
C977 C978 1.516 . S
C978 C977 1.516 . S
C978 C979 1.502 . S
C978 C980 1.561 . S
C978 C981 1.526 . S
C979 H963 0.959 . S
C979 H964 0.959 . S
C979 H965 0.961 . S
C979 C978 1.502 . S
C980 H966 0.960 . S
C980 H967 0.961 . S
C980 H968 0.959 . S
C980 C978 1.561 . S
C981 C978 1.526 . S
C981 C982 1.396 . S
C981 C986 1.390 . S
C982 C976 1.465 . S
C982 C981 1.396 . S
C982 C983 1.399 . S
C983 H969 0.929 . S
C983 C982 1.399 . S
C983 C984 1.385 . S
C984 H970 0.931 . S
C984 C983 1.385 . S
C984 C985 1.389 . S
C985 C984 1.389 . S
C985 C986 1.387 . S
C986 H971 0.930 . S
C986 C981 1.390 . S
C986 C985 1.387 . S
H987 C999 0.930 . S
H988 C1001 0.930 . S
H989 C1002 0.930 . S
H990 C1006 0.959 . S
H991 C1006 0.959 . S
H992 C1006 0.961 . S
H993 C1007 0.960 . S
H994 C1007 0.961 . S
H995 C1007 0.959 . S
H996 C1010 0.929 . S
H997 C1011 0.931 . S
H998 C1013 0.930 . S
C999 H987 0.930 . S
C999 C1000 1.399 . S
C999 C1004 1.399 . S
C1000 C999 1.399 . S
C1000 C1001 1.376 . S
C1001 H988 0.930 . S
C1001 C1000 1.376 . S
C1001 C1002 1.388 . S
C1002 H989 0.930 . S
C1002 C1001 1.388 . S
C1002 C1003 1.390 . S
C1003 C1002 1.390 . S
C1003 C1004 1.394 . S
C1003 C1009 1.465 . S
C1004 C999 1.399 . S
C1004 C1003 1.394 . S
C1004 C1005 1.516 . S
C1005 C1004 1.516 . S
C1005 C1006 1.502 . S
C1005 C1007 1.561 . S
C1005 C1008 1.526 . S
C1006 H990 0.959 . S
C1006 H991 0.959 . S
C1006 H992 0.961 . S
C1006 C1005 1.502 . S
C1007 H993 0.960 . S
C1007 H994 0.961 . S
C1007 H995 0.959 . S
C1007 C1005 1.561 . S
C1008 C1005 1.526 . S
C1008 C1009 1.396 . S
C1008 C1013 1.390 . S
C1009 C1003 1.465 . S
C1009 C1008 1.396 . S
C1009 C1010 1.399 . S
C1010 H996 0.929 . S
C1010 C1009 1.399 . S
C1010 C1011 1.385 . S
C1011 H997 0.931 . S
C1011 C1010 1.385 . S
C1011 C1012 1.389 . S
C1012 C1011 1.389 . S
C1012 C1013 1.387 . S
C1013 H998 0.930 . S
C1013 C1008 1.390 . S
C1013 C1012 1.387 . S
H1014 C1026 0.930 . S
H1015 C1028 0.930 . S
H1016 C1029 0.930 . S
H1017 C1033 0.959 . S
H1018 C1033 0.959 . S
H1019 C1033 0.961 . S
H1020 C1034 0.960 . S
H1021 C1034 0.961 . S
H1022 C1034 0.959 . S
H1023 C1037 0.929 . S
H1024 C1038 0.931 . S
H1025 C1040 0.930 . S
C1026 H1014 0.930 . S
C1026 C1027 1.399 . S
C1026 C1031 1.399 . S
C1027 C1026 1.399 . S
C1027 C1028 1.376 . S
C1028 H1015 0.930 . S
C1028 C1027 1.376 . S
C1028 C1029 1.388 . S
C1029 H1016 0.930 . S
C1029 C1028 1.388 . S
C1029 C1030 1.390 . S
C1030 C1029 1.390 . S
C1030 C1031 1.394 . S
C1030 C1036 1.465 . S
C1031 C1026 1.399 . S
C1031 C1030 1.394 . S
C1031 C1032 1.516 . S
C1032 C1031 1.516 . S
C1032 C1033 1.502 . S
C1032 C1034 1.561 . S
C1032 C1035 1.526 . S
C1033 H1017 0.959 . S
C1033 H1018 0.959 . S
C1033 H1019 0.961 . S
C1033 C1032 1.502 . S
C1034 H1020 0.960 . S
C1034 H1021 0.961 . S
C1034 H1022 0.959 . S
C1034 C1032 1.561 . S
C1035 C1032 1.526 . S
C1035 C1036 1.396 . S
C1035 C1040 1.390 . S
C1036 C1030 1.465 . S
C1036 C1035 1.396 . S
C1036 C1037 1.399 . S
C1037 H1023 0.929 . S
C1037 C1036 1.399 . S
C1037 C1038 1.385 . S
C1038 H1024 0.931 . S
C1038 C1037 1.385 . S
C1038 C1039 1.389 . S
C1039 C1038 1.389 . S
C1039 C1040 1.387 . S
C1040 H1025 0.930 . S
C1040 C1035 1.390 . S
C1040 C1039 1.387 . S
H1041 C1053 0.930 . S
H1042 C1055 0.930 . S
H1043 C1056 0.930 . S
H1044 C1060 0.959 . S
H1045 C1060 0.959 . S
H1046 C1060 0.961 . S
H1047 C1061 0.960 . S
H1048 C1061 0.961 . S
H1049 C1061 0.959 . S
H1050 C1064 0.929 . S
H1051 C1065 0.931 . S
H1052 C1067 0.930 . S
C1053 H1041 0.930 . S
C1053 C1054 1.399 . S
C1053 C1058 1.399 . S
C1054 C1053 1.399 . S
C1054 C1055 1.376 . S
C1055 H1042 0.930 . S
C1055 C1054 1.376 . S
C1055 C1056 1.388 . S
C1056 H1043 0.930 . S
C1056 C1055 1.388 . S
C1056 C1057 1.390 . S
C1057 C1056 1.390 . S
C1057 C1058 1.394 . S
C1057 C1063 1.465 . S
C1058 C1053 1.399 . S
C1058 C1057 1.394 . S
C1058 C1059 1.516 . S
C1059 C1058 1.516 . S
C1059 C1060 1.502 . S
C1059 C1061 1.561 . S
C1059 C1062 1.526 . S
C1060 H1044 0.959 . S
C1060 H1045 0.959 . S
C1060 H1046 0.961 . S
C1060 C1059 1.502 . S
C1061 H1047 0.960 . S
C1061 H1048 0.961 . S
C1061 H1049 0.959 . S
C1061 C1059 1.561 . S
C1062 C1059 1.526 . S
C1062 C1063 1.396 . S
C1062 C1067 1.390 . S
C1063 C1057 1.465 . S
C1063 C1062 1.396 . S
C1063 C1064 1.399 . S
C1064 H1050 0.929 . S
C1064 C1063 1.399 . S
C1064 C1065 1.385 . S
C1065 H1051 0.931 . S
C1065 C1064 1.385 . S
C1065 C1066 1.389 . S
C1066 C1065 1.389 . S
C1066 C1067 1.387 . S
C1067 H1052 0.930 . S
C1067 C1062 1.390 . S
C1067 C1066 1.387 . S
H1068 C1080 0.930 . S
H1069 C1082 0.930 . S
H1070 C1083 0.930 . S
H1071 C1087 0.959 . S
H1072 C1087 0.959 . S
H1073 C1087 0.961 . S
H1074 C1088 0.960 . S
H1075 C1088 0.961 . S
H1076 C1088 0.959 . S
H1077 C1091 0.929 . S
H1078 C1092 0.931 . S
H1079 C1094 0.930 . S
C1080 H1068 0.930 . S
C1080 C1081 1.399 . S
C1080 C1085 1.399 . S
C1081 C1080 1.399 . S
C1081 C1082 1.376 . S
C1082 H1069 0.930 . S
C1082 C1081 1.376 . S
C1082 C1083 1.388 . S
C1083 H1070 0.930 . S
C1083 C1082 1.388 . S
C1083 C1084 1.390 . S
C1084 C1083 1.390 . S
C1084 C1085 1.394 . S
C1084 C1090 1.465 . S
C1085 C1080 1.399 . S
C1085 C1084 1.394 . S
C1085 C1086 1.516 . S
C1086 C1085 1.516 . S
C1086 C1087 1.502 . S
C1086 C1088 1.561 . S
C1086 C1089 1.526 . S
C1087 H1071 0.959 . S
C1087 H1072 0.959 . S
C1087 H1073 0.961 . S
C1087 C1086 1.502 . S
C1088 H1074 0.960 . S
C1088 H1075 0.961 . S
C1088 H1076 0.959 . S
C1088 C1086 1.561 . S
C1089 C1086 1.526 . S
C1089 C1090 1.396 . S
C1089 C1094 1.390 . S
C1090 C1084 1.465 . S
C1090 C1089 1.396 . S
C1090 C1091 1.399 . S
C1091 H1077 0.929 . S
C1091 C1090 1.399 . S
C1091 C1092 1.385 . S
C1092 H1078 0.931 . S
C1092 C1091 1.385 . S
C1092 C1093 1.389 . S
C1093 C1092 1.389 . S
C1093 C1094 1.387 . S
C1094 H1079 0.930 . S
C1094 C1089 1.390 . S
C1094 C1093 1.387 . S
H1095 C1107 0.930 . S
H1096 C1109 0.930 . S
H1097 C1110 0.930 . S
H1098 C1114 0.959 . S
H1099 C1114 0.959 . S
H1100 C1114 0.961 . S
H1101 C1115 0.960 . S
H1102 C1115 0.961 . S
H1103 C1115 0.959 . S
H1104 C1118 0.929 . S
H1105 C1119 0.931 . S
H1106 C1121 0.930 . S
C1107 H1095 0.930 . S
C1107 C1108 1.399 . S
C1107 C1112 1.399 . S
C1108 C1107 1.399 . S
C1108 C1109 1.376 . S
C1109 H1096 0.930 . S
C1109 C1108 1.376 . S
C1109 C1110 1.388 . S
C1110 H1097 0.930 . S
C1110 C1109 1.388 . S
C1110 C1111 1.390 . S
C1111 C1110 1.390 . S
C1111 C1112 1.394 . S
C1111 C1117 1.465 . S
C1112 C1107 1.399 . S
C1112 C1111 1.394 . S
C1112 C1113 1.516 . S
C1113 C1112 1.516 . S
C1113 C1114 1.502 . S
C1113 C1115 1.561 . S
C1113 C1116 1.526 . S
C1114 H1098 0.959 . S
C1114 H1099 0.959 . S
C1114 H1100 0.961 . S
C1114 C1113 1.502 . S
C1115 H1101 0.960 . S
C1115 H1102 0.961 . S
C1115 H1103 0.959 . S
C1115 C1113 1.561 . S
C1116 C1113 1.526 . S
C1116 C1117 1.396 . S
C1116 C1121 1.390 . S
C1117 C1111 1.465 . S
C1117 C1116 1.396 . S
C1117 C1118 1.399 . S
C1118 H1104 0.929 . S
C1118 C1117 1.399 . S
C1118 C1119 1.385 . S
C1119 H1105 0.931 . S
C1119 C1118 1.385 . S
C1119 C1120 1.389 . S
C1120 C1119 1.389 . S
C1120 C1121 1.387 . S
C1121 H1106 0.930 . S
C1121 C1116 1.390 . S
C1121 C1120 1.387 . S
H1122 C1134 0.930 . S
H1123 C1136 0.930 . S
H1124 C1137 0.930 . S
H1125 C1141 0.959 . S
H1126 C1141 0.959 . S
H1127 C1141 0.961 . S
H1128 C1142 0.960 . S
H1129 C1142 0.961 . S
H1130 C1142 0.959 . S
H1131 C1145 0.929 . S
H1132 C1146 0.931 . S
H1133 C1148 0.930 . S
C1134 H1122 0.930 . S
C1134 C1135 1.399 . S
C1134 C1139 1.399 . S
C1135 C1134 1.399 . S
C1135 C1136 1.376 . S
C1136 H1123 0.930 . S
C1136 C1135 1.376 . S
C1136 C1137 1.388 . S
C1137 H1124 0.930 . S
C1137 C1136 1.388 . S
C1137 C1138 1.390 . S
C1138 C1137 1.390 . S
C1138 C1139 1.394 . S
C1138 C1144 1.465 . S
C1139 C1134 1.399 . S
C1139 C1138 1.394 . S
C1139 C1140 1.516 . S
C1140 C1139 1.516 . S
C1140 C1141 1.502 . S
C1140 C1142 1.561 . S
C1140 C1143 1.517 1_554 S
C1141 H1125 0.959 . S
C1141 H1126 0.959 . S
C1141 H1127 0.961 . S
C1141 C1140 1.502 . S
C1142 H1128 0.960 . S
C1142 H1129 0.961 . S
C1142 H1130 0.959 . S
C1142 C1140 1.561 . S
C1143 C1140 1.517 1_556 S
C1143 C1144 1.394 1_556 S
C1143 C1148 1.400 . S
C1144 C1138 1.465 . S
C1144 C1143 1.394 1_554 S
C1144 C1145 1.399 1_554 S
C1145 H1131 0.929 . S
C1145 C1144 1.399 1_556 S
C1145 C1146 1.385 . S
C1146 H1132 0.931 . S
C1146 C1145 1.385 . S
C1146 C1147 1.389 . S
C1147 C1146 1.389 . S
C1147 C1148 1.387 . S
C1148 H1133 0.930 . S
C1148 C1143 1.400 . S
C1148 C1147 1.387 . S
H1149 C1161 0.930 . S
H1150 C1163 0.930 . S
H1151 C1164 0.930 . S
H1152 C1168 0.959 . S
H1153 C1168 0.959 . S
H1154 C1168 0.961 . S
H1155 C1169 0.960 . S
H1156 C1169 0.961 . S
H1157 C1169 0.959 . S
H1158 C1172 0.929 . S
H1159 C1173 0.931 . S
H1160 C1175 0.930 . S
C1161 H1149 0.930 . S
C1161 C1162 1.399 . S
C1161 C1166 1.399 . S
C1162 C1161 1.399 . S
C1162 C1163 1.376 . S
C1163 H1150 0.930 . S
C1163 C1162 1.376 . S
C1163 C1164 1.388 . S
C1164 H1151 0.930 . S
C1164 C1163 1.388 . S
C1164 C1165 1.390 . S
C1165 C1164 1.390 . S
C1165 C1166 1.394 . S
C1165 C1171 1.465 . S
C1166 C1161 1.399 . S
C1166 C1165 1.394 . S
C1166 C1167 1.516 . S
C1167 C1166 1.516 . S
C1167 C1168 1.502 . S
C1167 C1169 1.561 . S
C1167 C1170 1.526 . S
C1168 H1152 0.959 . S
C1168 H1153 0.959 . S
C1168 H1154 0.961 . S
C1168 C1167 1.502 . S
C1169 H1155 0.960 . S
C1169 H1156 0.961 . S
C1169 H1157 0.959 . S
C1169 C1167 1.561 . S
C1170 C1167 1.526 . S
C1170 C1171 1.396 . S
C1170 C1175 1.390 . S
C1171 C1165 1.465 . S
C1171 C1170 1.396 . S
C1171 C1172 1.399 . S
C1172 H1158 0.929 . S
C1172 C1171 1.399 . S
C1172 C1173 1.385 . S
C1173 H1159 0.931 . S
C1173 C1172 1.385 . S
C1173 C1174 1.389 . S
C1174 C1173 1.389 . S
C1174 C1175 1.387 . S
C1175 H1160 0.930 . S
C1175 C1170 1.390 . S
C1175 C1174 1.387 . S
C553 C521 1.337 . S
C541 C51 1.256 . S
C568 C125 1.394 . S
C580 C455 1.334 . S
C595 C217 2.425 . S
C607 C469 2.391 . S
C622 C291 1.419 . S
C634 C483 1.426 . S
C661 C497 0.936 . S
C649 C347 0.834 . S
C676 C421 0.761 . S
C688 C507 0.799 . S
C703 C143 2.297 . S
C715 C465 2.317 . S
C730 C199 1.557 . S
C742 C479 1.619 . S
C757 C273 0.522 . S
C769 C493 0.449 . S
C796 C511 1.575 . S
C784 C365 1.627 . S
C823 C525 1.779 . S
C811 C439 1.825 . S
C850 C451 2.395 . S
C838 C69 2.380 . S
C865 C63 1.405 . S
C877 C466 1.423 . S
C892 C137 1.615 . S
C904 C480 1.711 . S
C931 C494 1.389 . S
C919 C187 1.353 . S
C946 C261 1.406 . S
C958 C513 1.413 . S
C985 C527 1.303 . S
C973 C359 1.431 . S
C1012 C452 0.997 . S
C1000 C433 1.052 . S
C1039 C522 1.581 . S
C1027 C113 1.604 . S
C1054 C211 1.246 . S
C1066 C457 1.175 . S
C1093 C471 1.468 . S
C1081 C285 1.404 . S
C1108 C335 1.264 . S
C1120 C485 1.344 . S
C1135 C409 1.249 . S
C1147 C499 1.290 . S
C1162 C39 1.628 . S
C1174 C508 1.607 . S
