# Generated by pormake.
# Topology ptr, (4,4)-cn, num edge types: 1
# Building blocks:
#     Node 0, Type 0, BuildingBlock: QUQFOY_clean_sbu_3, # of connection points: 4
#     Node 1, Type 0, BuildingBlock: QUQFOY_clean_sbu_3, # of connection points: 4
#     Node 2, Type 0, BuildingBlock: QUQFOY_clean_sbu_3, # of connection points: 4
#     Node 3, Type 0, BuildingBlock: QUQFOY_clean_sbu_3, # of connection points: 4
#     Node 4, Type 0, BuildingBlock: QUQFOY_clean_sbu_3, # of connection points: 4
#     Node 5, Type 0, BuildingBlock: QUQFOY_clean_sbu_3, # of connection points: 4
#     Node 6, Type 0, BuildingBlock: QUQFOY_clean_sbu_3, # of connection points: 4
#     Node 7, Type 0, BuildingBlock: QUQFOY_clean_sbu_3, # of connection points: 4
#     Node 8, Type 0, BuildingBlock: QUQFOY_clean_sbu_3, # of connection points: 4
#     Node 9, Type 0, BuildingBlock: QUQFOY_clean_sbu_3, # of connection points: 4
#     Node 10, Type 0, BuildingBlock: QUQFOY_clean_sbu_3, # of connection points: 4
#     Node 11, Type 0, BuildingBlock: QUQFOY_clean_sbu_3, # of connection points: 4
#     Node 12, Type 0, BuildingBlock: QUQFOY_clean_sbu_3, # of connection points: 4
#     Node 13, Type 0, BuildingBlock: QUQFOY_clean_sbu_3, # of connection points: 4
#     Node 14, Type 0, BuildingBlock: QUQFOY_clean_sbu_3, # of connection points: 4
#     Node 15, Type 0, BuildingBlock: QUQFOY_clean_sbu_3, # of connection points: 4
#     Node 16, Type 0, BuildingBlock: QUQFOY_clean_sbu_3, # of connection points: 4
#     Node 17, Type 0, BuildingBlock: QUQFOY_clean_sbu_3, # of connection points: 4
#     Node 18, Type 1, BuildingBlock: MUDLON_clean_linker_0, # of connection points: 4
#     Node 19, Type 1, BuildingBlock: MUDLON_clean_linker_0, # of connection points: 4
#     Node 20, Type 1, BuildingBlock: MUDLON_clean_linker_0, # of connection points: 4
#     Node 21, Type 1, BuildingBlock: MUDLON_clean_linker_0, # of connection points: 4
#     Node 22, Type 1, BuildingBlock: MUDLON_clean_linker_0, # of connection points: 4
#     Node 23, Type 1, BuildingBlock: MUDLON_clean_linker_0, # of connection points: 4
#     Node 24, Type 1, BuildingBlock: MUDLON_clean_linker_0, # of connection points: 4
#     Node 25, Type 1, BuildingBlock: MUDLON_clean_linker_0, # of connection points: 4
#     Node 26, Type 1, BuildingBlock: MUDLON_clean_linker_0, # of connection points: 4
#     Node 27, Type 1, BuildingBlock: MUDLON_clean_linker_0, # of connection points: 4
#     Node 28, Type 1, BuildingBlock: MUDLON_clean_linker_0, # of connection points: 4
#     Node 29, Type 1, BuildingBlock: MUDLON_clean_linker_0, # of connection points: 4
#     Node 30, Type 1, BuildingBlock: MUDLON_clean_linker_0, # of connection points: 4
#     Node 31, Type 1, BuildingBlock: MUDLON_clean_linker_0, # of connection points: 4
#     Node 32, Type 1, BuildingBlock: MUDLON_clean_linker_0, # of connection points: 4
#     Node 33, Type 1, BuildingBlock: MUDLON_clean_linker_0, # of connection points: 4
#     Node 34, Type 1, BuildingBlock: MUDLON_clean_linker_0, # of connection points: 4
#     Node 35, Type 1, BuildingBlock: MUDLON_clean_linker_0, # of connection points: 4
#     Edge 36, Type (0, 1), BuildingBlock: ZUJKAS_clean_linker_0, # of connection points: 2
#     Edge 37, Type (0, 1), BuildingBlock: ZUJKAS_clean_linker_0, # of connection points: 2
#     Edge 38, Type (0, 1), BuildingBlock: ZUJKAS_clean_linker_0, # of connection points: 2
#     Edge 39, Type (0, 1), BuildingBlock: ZUJKAS_clean_linker_0, # of connection points: 2
#     Edge 40, Type (0, 1), BuildingBlock: ZUJKAS_clean_linker_0, # of connection points: 2
#     Edge 41, Type (0, 1), BuildingBlock: ZUJKAS_clean_linker_0, # of connection points: 2
#     Edge 42, Type (0, 1), BuildingBlock: ZUJKAS_clean_linker_0, # of connection points: 2
#     Edge 43, Type (0, 1), BuildingBlock: ZUJKAS_clean_linker_0, # of connection points: 2
#     Edge 44, Type (0, 1), BuildingBlock: ZUJKAS_clean_linker_0, # of connection points: 2
#     Edge 45, Type (0, 1), BuildingBlock: ZUJKAS_clean_linker_0, # of connection points: 2
#     Edge 46, Type (0, 1), BuildingBlock: ZUJKAS_clean_linker_0, # of connection points: 2
#     Edge 47, Type (0, 1), BuildingBlock: ZUJKAS_clean_linker_0, # of connection points: 2
#     Edge 48, Type (0, 1), BuildingBlock: ZUJKAS_clean_linker_0, # of connection points: 2
#     Edge 49, Type (0, 1), BuildingBlock: ZUJKAS_clean_linker_0, # of connection points: 2
#     Edge 50, Type (0, 1), BuildingBlock: ZUJKAS_clean_linker_0, # of connection points: 2
#     Edge 51, Type (0, 1), BuildingBlock: ZUJKAS_clean_linker_0, # of connection points: 2
#     Edge 52, Type (0, 1), BuildingBlock: ZUJKAS_clean_linker_0, # of connection points: 2
#     Edge 53, Type (0, 1), BuildingBlock: ZUJKAS_clean_linker_0, # of connection points: 2
#     Edge 54, Type (0, 1), BuildingBlock: ZUJKAS_clean_linker_0, # of connection points: 2
#     Edge 55, Type (0, 1), BuildingBlock: ZUJKAS_clean_linker_0, # of connection points: 2
#     Edge 56, Type (0, 1), BuildingBlock: ZUJKAS_clean_linker_0, # of connection points: 2
#     Edge 57, Type (0, 1), BuildingBlock: ZUJKAS_clean_linker_0, # of connection points: 2
#     Edge 58, Type (0, 1), BuildingBlock: ZUJKAS_clean_linker_0, # of connection points: 2
#     Edge 59, Type (0, 1), BuildingBlock: ZUJKAS_clean_linker_0, # of connection points: 2
#     Edge 60, Type (0, 1), BuildingBlock: ZUJKAS_clean_linker_0, # of connection points: 2
#     Edge 61, Type (0, 1), BuildingBlock: ZUJKAS_clean_linker_0, # of connection points: 2
#     Edge 62, Type (0, 1), BuildingBlock: ZUJKAS_clean_linker_0, # of connection points: 2
#     Edge 63, Type (0, 1), BuildingBlock: ZUJKAS_clean_linker_0, # of connection points: 2
#     Edge 64, Type (0, 1), BuildingBlock: ZUJKAS_clean_linker_0, # of connection points: 2
#     Edge 65, Type (0, 1), BuildingBlock: ZUJKAS_clean_linker_0, # of connection points: 2
#     Edge 66, Type (0, 1), BuildingBlock: ZUJKAS_clean_linker_0, # of connection points: 2
#     Edge 67, Type (0, 1), BuildingBlock: ZUJKAS_clean_linker_0, # of connection points: 2
#     Edge 68, Type (0, 1), BuildingBlock: ZUJKAS_clean_linker_0, # of connection points: 2
#     Edge 69, Type (0, 1), BuildingBlock: ZUJKAS_clean_linker_0, # of connection points: 2
#     Edge 70, Type (0, 1), BuildingBlock: ZUJKAS_clean_linker_0, # of connection points: 2
#     Edge 71, Type (0, 1), BuildingBlock: ZUJKAS_clean_linker_0, # of connection points: 2
#     Edge 72, Type (0, 1), BuildingBlock: ZUJKAS_clean_linker_0, # of connection points: 2
#     Edge 73, Type (0, 1), BuildingBlock: ZUJKAS_clean_linker_0, # of connection points: 2
#     Edge 74, Type (0, 1), BuildingBlock: ZUJKAS_clean_linker_0, # of connection points: 2
#     Edge 75, Type (0, 1), BuildingBlock: ZUJKAS_clean_linker_0, # of connection points: 2
#     Edge 76, Type (0, 1), BuildingBlock: ZUJKAS_clean_linker_0, # of connection points: 2
#     Edge 77, Type (0, 1), BuildingBlock: ZUJKAS_clean_linker_0, # of connection points: 2
#     Edge 78, Type (0, 1), BuildingBlock: ZUJKAS_clean_linker_0, # of connection points: 2
#     Edge 79, Type (0, 1), BuildingBlock: ZUJKAS_clean_linker_0, # of connection points: 2
#     Edge 80, Type (0, 1), BuildingBlock: ZUJKAS_clean_linker_0, # of connection points: 2
#     Edge 81, Type (0, 1), BuildingBlock: ZUJKAS_clean_linker_0, # of connection points: 2
#     Edge 82, Type (0, 1), BuildingBlock: ZUJKAS_clean_linker_0, # of connection points: 2
#     Edge 83, Type (0, 1), BuildingBlock: ZUJKAS_clean_linker_0, # of connection points: 2
#     Edge 84, Type (0, 1), BuildingBlock: ZUJKAS_clean_linker_0, # of connection points: 2
#     Edge 85, Type (0, 1), BuildingBlock: ZUJKAS_clean_linker_0, # of connection points: 2
#     Edge 86, Type (0, 1), BuildingBlock: ZUJKAS_clean_linker_0, # of connection points: 2
#     Edge 87, Type (0, 1), BuildingBlock: ZUJKAS_clean_linker_0, # of connection points: 2
#     Edge 88, Type (0, 1), BuildingBlock: ZUJKAS_clean_linker_0, # of connection points: 2
#     Edge 89, Type (0, 1), BuildingBlock: ZUJKAS_clean_linker_0, # of connection points: 2
#     Edge 90, Type (0, 1), BuildingBlock: ZUJKAS_clean_linker_0, # of connection points: 2
#     Edge 91, Type (0, 1), BuildingBlock: ZUJKAS_clean_linker_0, # of connection points: 2
#     Edge 92, Type (0, 1), BuildingBlock: ZUJKAS_clean_linker_0, # of connection points: 2
#     Edge 93, Type (0, 1), BuildingBlock: ZUJKAS_clean_linker_0, # of connection points: 2
#     Edge 94, Type (0, 1), BuildingBlock: ZUJKAS_clean_linker_0, # of connection points: 2
#     Edge 95, Type (0, 1), BuildingBlock: ZUJKAS_clean_linker_0, # of connection points: 2
#     Edge 96, Type (0, 1), BuildingBlock: ZUJKAS_clean_linker_0, # of connection points: 2
#     Edge 97, Type (0, 1), BuildingBlock: ZUJKAS_clean_linker_0, # of connection points: 2
#     Edge 98, Type (0, 1), BuildingBlock: ZUJKAS_clean_linker_0, # of connection points: 2
#     Edge 99, Type (0, 1), BuildingBlock: ZUJKAS_clean_linker_0, # of connection points: 2
#     Edge 100, Type (0, 1), BuildingBlock: ZUJKAS_clean_linker_0, # of connection points: 2
#     Edge 101, Type (0, 1), BuildingBlock: ZUJKAS_clean_linker_0, # of connection points: 2
#     Edge 102, Type (0, 1), BuildingBlock: ZUJKAS_clean_linker_0, # of connection points: 2
#     Edge 103, Type (0, 1), BuildingBlock: ZUJKAS_clean_linker_0, # of connection points: 2
#     Edge 104, Type (0, 1), BuildingBlock: ZUJKAS_clean_linker_0, # of connection points: 2
#     Edge 105, Type (0, 1), BuildingBlock: ZUJKAS_clean_linker_0, # of connection points: 2
#     Edge 106, Type (0, 1), BuildingBlock: ZUJKAS_clean_linker_0, # of connection points: 2
#     Edge 107, Type (0, 1), BuildingBlock: ZUJKAS_clean_linker_0, # of connection points: 2
# Relax obj value: 0.031
# Max RMSD: 0.095
# Mean RMSD: 0.059
data_MOF--net-ptr--node1-QUQFOY_clean_sbu_3--node2-MUDLON_clean_linker_0--edge1-ZUJKAS_clean_linker_0
_symmetry_space_group_name_H-M    P1
_symmetry_Int_Tables_number       1
_symmetry_cell_setting            triclinic
loop_
_symmetry_equiv_pos_as_xyz
'x, y, z'
_cell_length_a     128.81871
_cell_length_b     129.4189
_cell_length_c     78.810109
_cell_angle_alpha  90.18216
_cell_angle_beta   89.671486
_cell_angle_gamma 120.45338
loop_
_atom_site_label
_atom_site_type_symbol
_atom_site_fract_x
_atom_site_fract_y
_atom_site_fract_z
_atom_type_partial_charge
C0 C 0.97122 0.33449 0.01155 0.0
O1 O 0.96633 0.34016 0.0174 0.0
Cd2 Cd 0.97753 0.36048 0.02742 0.0
O3 O 0.98266 0.33939 0.01119 0.0
Cd4 Cd 0.00086 0.35848 0.01972 0.0
C5 C 0.99486 0.37476 0.99208 0.0
O6 O 0.99286 0.36207 0.04603 0.0
O7 O 0.00992 0.37657 0.03714 0.0
O8 O 0.00858 0.34604 0.03033 0.0
C9 C 0.00176 0.37252 0.04844 0.0
O10 O 0.98652 0.37307 0.00246 0.0
C11 C 0.01868 0.35159 0.02276 0.0
O12 O 0.00114 0.36982 0.99448 0.0
O13 O 0.02053 0.36038 0.01346 0.0
C14 C 0.63471 0.66672 0.0203 0.0
O15 O 0.62366 0.66117 0.01621 0.0
Cd16 Cd 0.6132 0.64098 0.00578 0.0
O17 O 0.64098 0.66169 0.01869 0.0
Cd18 Cd 0.63847 0.64236 0.00836 0.0
C19 C 0.61756 0.62593 0.0383 0.0
O20 O 0.62558 0.63966 0.98414 0.0
O21 O 0.6272 0.62438 0.99076 0.0
O22 O 0.65793 0.65348 0.99423 0.0
C23 C 0.62318 0.62911 0.98064 0.0
O24 O 0.61034 0.6278 0.02967 0.0
C25 C 0.66272 0.64821 0.00151 0.0
O26 O 0.62863 0.63081 0.03409 0.0
O27 O 0.65624 0.64015 0.01224 0.0
C28 C 0.33457 0.97227 0.01514 0.0
O29 O 0.34032 0.96749 0.00917 0.0
Cd30 Cd 0.36075 0.9788 -0.00057 0.0
O31 O 0.3394 0.98364 0.01557 0.0
Cd32 Cd 0.35837 0.00203 0.00685 0.0
C33 C 0.37438 0.996 0.03504 0.0
O34 O 0.36171 0.99384 0.98091 0.0
O35 O 0.37643 0.011 0.98875 0.0
O36 O 0.34551 0.00924 0.99623 0.0
C37 C 0.37213 0.00264 0.97785 0.0
O38 O 0.37279 0.98763 0.02491 0.0
C39 C 0.35089 0.01933 0.00364 0.0
O40 O 0.36964 0.00239 0.0321 0.0
O41 O 0.35982 0.02145 0.01286 0.0
C42 C 0.96699 0.63584 0.00784 0.0
O43 O 0.96209 0.62527 0.01379 0.0
Cd44 Cd 0.97319 0.61612 0.02345 0.0
O45 O 0.97843 0.64241 0.00726 0.0
Cd46 Cd 0.99668 0.64165 0.0153 0.0
C47 C 0.98966 0.61923 0.98716 0.0
O48 O 0.98874 0.63023 0.04152 0.0
O49 O 0.00558 0.63242 0.03254 0.0
O50 O 0.00461 0.66193 0.02585 0.0
C51 C 0.99749 0.62855 0.04394 0.0
O52 O 0.98165 0.61249 -0.0021 0.0
C53 C 0.01482 0.66638 0.01864 0.0
O54 O 0.99604 0.63051 0.98958 0.0
O55 O 0.0166 0.65936 0.00937 0.0
C56 C 0.3351 0.36423 0.01701 0.0
O57 O 0.34138 0.37549 0.01475 0.0
Cd58 Cd 0.36185 0.38565 0.00462 0.0
O59 O 0.33965 0.3576 0.01465 0.0
Cd60 Cd 0.35936 0.35995 0.00658 0.0
C61 C 0.37592 0.38034 0.03715 0.0
O62 O 0.36315 0.37345 0.98265 0.0
O63 O 0.3774 0.36997 0.98877 0.0
O64 O 0.34829 0.34039 0.99289 0.0
C65 C 0.37343 0.37495 0.97905 0.0
O66 O 0.37466 0.38795 0.02857 0.0
C67 C 0.35332 0.33568 0.00103 0.0
O68 O 0.37061 0.36936 0.03271 0.0
O69 O 0.36117 0.34225 0.01189 0.0
C70 C 0.66534 0.0262 0.01034 0.0
O71 O 0.65957 0.03092 0.01646 0.0
Cd72 Cd 0.63891 0.01988 0.02527 0.0
O73 O 0.66043 0.01483 0.00938 0.0
Cd74 Cd 0.64108 0.99664 0.01776 0.0
C75 C 0.62545 0.00298 0.98934 0.0
O76 O 0.63681 0.00436 0.04362 0.0
O77 O 0.62226 0.98769 0.03399 0.0
O78 O 0.65247 0.98846 0.03058 0.0
C79 C 0.62615 0.99563 0.04549 0.0
O80 O 0.62703 0.01128 -0.00039 0.0
C81 C 0.64758 0.97869 0.02233 0.0
O82 O 0.63017 0.99655 0.99217 0.0
O83 O 0.63971 0.97726 0.01145 0.0
C84 C 0.63584 0.66755 0.33917 0.0
O85 O 0.63064 0.67323 0.3437 0.0
Cd86 Cd 0.6412 0.6935 0.35393 0.0
O87 O 0.64725 0.67247 0.34023 0.0
Cd88 Cd 0.66474 0.69174 0.35002 0.0
C89 C 0.66047 0.70836 0.3207 0.0
O90 O 0.65523 0.69493 0.37492 0.0
O91 O 0.67244 0.70986 0.36738 0.0
O92 O 0.67285 0.68055 0.36379 0.0
C93 C 0.66383 0.70543 0.37799 0.0
O94 O 0.6515 0.70657 0.32977 0.0
C95 C 0.68288 0.6856 0.35603 0.0
O96 O 0.66653 0.70337 0.32443 0.0
O97 O 0.68453 0.69352 0.34514 0.0
C98 C 0.2985 -0.00048 0.35601 0.0
O99 O 0.28757 0.99388 0.35141 0.0
Cd100 Cd 0.27749 0.97371 0.34101 0.0
O101 O 0.30491 0.9946 0.35489 0.0
Cd102 Cd 0.30263 0.97527 0.34478 0.0
C103 C 0.28151 0.95906 0.37442 0.0
O104 O 0.29019 0.97241 0.31985 0.0
O105 O 0.29142 0.95711 0.32757 0.0
O106 O 0.32267 0.98681 0.33221 0.0
C107 C 0.28776 0.96179 0.31682 0.0
O108 O 0.27434 0.96069 0.36527 0.0
C109 C 0.32682 0.98066 0.33862 0.0
O110 O 0.29265 0.96408 0.37063 0.0
O111 O 0.31977 0.97206 0.34826 0.0
C112 C 0.00306 0.30842 0.34927 0.0
O113 O 0.00854 0.30317 0.34401 0.0
Cd114 Cd 0.02898 0.31323 0.3342 0.0
O115 O 0.00833 0.31983 0.34929 0.0
Cd116 Cd 0.02824 0.3371 0.34065 0.0
C117 C 0.04348 0.33036 0.3692 0.0
O118 O 0.03097 0.32828 0.31483 0.0
O119 O 0.04656 0.34462 0.32322 0.0
O120 O 0.01776 0.34665 0.32889 0.0
C121 C 0.04173 0.33651 0.31202 0.0
O122 O 0.0417 0.32189 0.35915 0.0
C123 C 0.02369 0.35643 0.33696 0.0
O124 O 0.03889 0.33687 0.36621 0.0
O125 O 0.03169 0.35721 0.34709 0.0
C126 C 0.63541 0.96391 0.33814 0.0
O127 O 0.63096 0.95303 0.34248 0.0
Cd128 Cd 0.64234 0.94438 0.35269 0.0
O129 O 0.64672 0.97123 0.33922 0.0
Cd130 Cd 0.66503 0.97092 0.34877 0.0
C131 C 0.66192 0.95025 0.31937 0.0
O132 O 0.65572 0.95807 0.37331 0.0
O133 O 0.67351 0.96158 0.36702 0.0
O134 O 0.67277 0.99033 0.36248 0.0
C135 C 0.66455 0.95679 0.37705 0.0
O136 O 0.6532 0.94258 0.32844 0.0
C137 C 0.68245 0.9957 0.35389 0.0
O138 O 0.66737 0.96134 0.32321 0.0
O139 O 0.68405 0.98957 0.34265 0.0
C140 C 0.00305 0.70164 0.35462 0.0
O141 O 0.00891 0.71259 0.35027 0.0
Cd142 Cd 0.02901 0.72212 0.33892 0.0
O143 O 0.00769 0.69503 0.35284 0.0
Cd144 Cd 0.02659 0.69661 0.34189 0.0
C145 C 0.04404 0.71741 0.37107 0.0
O146 O 0.02919 0.70919 0.31724 0.0
O147 O 0.04411 0.70666 0.32293 0.0
O148 O 0.01385 0.67659 0.33022 0.0
C149 C 0.03946 0.71089 0.31304 0.0
O150 O 0.04256 0.72481 0.36228 0.0
C151 C 0.01989 0.67215 0.33613 0.0
O152 O 0.03856 0.70631 0.36726 0.0
O153 O 0.02903 0.67906 0.345 0.0
C154 C 0.332 0.36041 0.33827 0.0
O155 O 0.32645 0.36552 0.34382 0.0
Cd156 Cd 0.30667 0.35501 0.35604 0.0
O157 O 0.32722 0.34906 0.33934 0.0
Cd158 Cd 0.30855 0.33138 0.35068 0.0
C159 C 0.29086 0.33559 0.32332 0.0
O160 O 0.30669 0.34125 0.37595 0.0
O161 O 0.29138 0.3239 0.37056 0.0
O162 O 0.32196 0.32477 0.36107 0.0
C163 C 0.29635 0.3329 0.38037 0.0
O164 O 0.29286 0.34436 0.33287 0.0
C165 C 0.31586 0.31407 0.35576 0.0
O166 O 0.29611 0.32962 0.32594 0.0
O167 O 0.3063 0.31132 0.34764 0.0
C168 C 0.30534 0.00224 0.67116 0.0
O169 O 0.29991 0.00789 0.67456 0.0
Cd170 Cd 0.30956 0.02819 0.6844 0.0
O171 O 0.31672 0.00726 0.6731 0.0
Cd172 Cd 0.33369 0.0269 0.68319 0.0
C173 C 0.32994 0.0431 0.65235 0.0
O174 O 0.32277 0.02957 0.70662 0.0
O175 O 0.34036 0.04469 0.70119 0.0
O176 O 0.34237 0.01659 0.69812 0.0
C177 C 0.33107 0.04001 0.71061 0.0
O178 O 0.32044 0.04104 0.6603 0.0
C179 C 0.35247 0.02189 0.69053 0.0
O180 O 0.33614 0.03854 0.65738 0.0
O181 O 0.35384 0.02946 0.67923 0.0
C182 C 0.9657 0.33032 0.679 0.0
O183 O 0.95513 0.3238 0.67322 0.0
Cd184 Cd 0.94694 0.30354 0.6637 0.0
O185 O 0.97298 0.32639 0.67958 0.0
Cd186 Cd 0.97335 0.308 0.67127 0.0
C187 C 0.95117 0.29068 0.69924 0.0
O188 O 0.96166 0.30356 0.64521 0.0
O189 O 0.96495 0.28973 0.65397 0.0
O190 O 0.99374 0.32076 0.66037 0.0
C191 C 0.96058 0.29339 0.64271 0.0
O192 O 0.94395 0.29133 0.6889 0.0
C193 C -0.00157 0.31578 0.6687 0.0
O194 O 0.9625 0.29653 0.69655 0.0
O195 O 0.99147 0.30726 0.67853 0.0
C196 C 0.66935 0.63798 0.68473 0.0
O197 O 0.67499 0.63281 0.67982 0.0
Cd198 Cd 0.69538 0.64338 0.66961 0.0
O199 O 0.67433 0.64936 0.68398 0.0
Cd200 Cd 0.69357 0.66691 0.67415 0.0
C201 C 0.71007 0.66217 0.7032 0.0
O202 O 0.69629 0.65739 0.64907 0.0
O203 O 0.71136 0.67469 0.65558 0.0
O204 O 0.68158 0.67491 0.66249 0.0
C205 C 0.70671 0.66594 0.64534 0.0
O206 O 0.70837 0.65335 0.694 0.0
C207 C 0.68734 0.68505 0.66974 0.0
O208 O 0.7051 0.66824 0.69951 0.0
O209 O 0.69601 0.68677 0.67924 0.0
C210 C 0.30106 0.30026 0.67083 0.0
O211 O 0.29553 0.28935 0.67535 0.0
Cd212 Cd 0.30576 0.27922 0.68465 0.0
O213 O 0.31252 0.30645 0.67156 0.0
Cd214 Cd 0.32956 0.30397 0.68074 0.0
C215 C 0.32419 0.28331 0.65051 0.0
O216 O 0.32008 0.29139 0.70591 0.0
O217 O 0.33667 0.29284 0.69723 0.0
O218 O 0.33804 0.32403 0.69281 0.0
C219 C 0.32842 0.28908 0.70836 0.0
O220 O 0.31534 0.27612 0.6598 0.0
C221 C 0.3485 0.32813 0.68656 0.0
O222 O 0.33052 0.29436 0.65442 0.0
O223 O 0.35018 0.32103 0.67735 0.0
C224 C 0.668 0.03099 0.68381 0.0
O225 O 0.67344 0.04189 0.6792 0.0
Cd226 Cd 0.69338 0.05212 0.66752 0.0
O227 O 0.67302 0.02471 0.68207 0.0
Cd228 Cd 0.69209 0.02689 0.67065 0.0
C229 C 0.70923 0.04814 0.69946 0.0
O230 O 0.69385 0.0392 0.6462 0.0
O231 O 0.70945 0.03775 0.65152 0.0
O232 O 0.67984 0.00691 0.6587 0.0
C233 C 0.70432 0.04159 0.64185 0.0
O234 O 0.70714 0.05515 0.69073 0.0
C235 C 0.686 0.00262 0.66465 0.0
O236 O 0.70423 0.03704 0.69574 0.0
O237 O 0.69505 0.00961 0.67364 0.0
C238 C 0.99551 0.69561 0.66708 0.0
O239 O 0.98971 0.70076 0.67132 0.0
Cd240 Cd 0.96971 0.69063 0.683 0.0
O241 O 0.99082 0.68432 0.66902 0.0
Cd242 Cd 0.97187 0.66692 0.68017 0.0
C243 C 0.95423 0.67022 0.65131 0.0
O244 O 0.96973 0.67758 0.70431 0.0
O245 O 0.95485 0.65972 0.70011 0.0
O246 O 0.98446 0.65955 0.6917 0.0
C247 C 0.95956 0.66912 0.70915 0.0
O248 O 0.95603 0.67932 0.65993 0.0
C249 C 0.97828 0.649 0.68582 0.0
O250 O 0.95954 0.66449 0.65513 0.0
O251 O 0.96915 0.64678 0.67699 0.0
H252 H 0.22361 0.34821 0.1493 0.0
N253 N 0.20349 0.33155 0.13495 0.0
H254 H 0.23359 0.34613 0.17429 0.0
H255 H 0.19415 0.31207 0.1562 0.0
H256 H 0.20408 0.3099 0.18127 0.0
H257 H 0.20519 0.31162 0.1287 0.0
H258 H 0.2175 0.30977 0.10648 0.0
H259 H 0.21316 0.34572 0.10814 0.0
H260 H 0.22515 0.34369 0.08548 0.0
H261 H 0.19447 0.3454 0.14235 0.0
H262 H 0.18429 0.30966 0.12629 0.0
H263 H 0.1735 0.34041 0.14064 0.0
H264 H 0.16332 0.30466 0.12386 0.0
H265 H 0.12826 0.33194 0.14822 0.0
H266 H 0.11956 0.3356 0.17344 0.0
H267 H 0.08921 0.29943 0.17054 0.0
H268 H 0.09779 0.29605 0.14481 0.0
H269 H 0.10413 0.29742 0.10351 0.0
H270 H 0.09394 0.30208 0.08115 0.0
H271 H 0.11089 0.33861 0.09913 0.0
H272 H 0.12091 0.33394 0.12123 0.0
H273 H 0.13814 0.33262 0.11859 0.0
H274 H 0.15868 0.33673 0.11991 0.0
H275 H 0.14596 0.30122 0.13996 0.0
N276 N 0.11767 0.3117 0.12845 0.0
H277 H 0.12521 0.29698 0.13797 0.0
C278 C 0.20815 0.33038 0.15096 0.0
C279 C 0.21922 0.3399 0.15641 0.0
C280 C 0.22494 0.33864 0.17055 0.0
C281 C 0.21967 0.3278 0.1796 0.0
C282 C 0.20833 0.31837 0.17456 0.0
C283 C 0.20263 0.31962 0.16026 0.0
C284 C 0.20848 0.32898 0.12023 0.0
C285 C 0.20934 0.31857 0.11919 0.0
C286 C 0.21634 0.31749 0.10648 0.0
C287 C 0.2223 0.32662 0.09439 0.0
C288 C 0.22058 0.3365 0.09461 0.0
C289 C 0.21378 0.33769 0.10751 0.0
C290 C 0.19094 0.32798 0.13434 0.0
C291 C 0.18767 0.33648 0.13841 0.0
C292 C 0.1757 0.33363 0.13725 0.0
C293 C 0.16671 0.32217 0.13188 0.0
C294 C 0.16998 0.31355 0.12813 0.0
C295 C 0.18199 0.3164 0.12941 0.0
C296 C 0.11359 0.3137 0.14454 0.0
C297 C 0.11978 0.32477 0.15305 0.0
C298 C 0.11482 0.32682 0.16759 0.0
C299 C 0.10362 0.31785 0.17397 0.0
C300 C 0.09772 0.30663 0.1658 0.0
C301 C 0.10265 0.30463 0.1512 0.0
C302 C 0.11336 0.31527 0.114 0.0
C303 C 0.10584 0.30648 0.10234 0.0
C304 C 0.09997 0.30914 0.08968 0.0
C305 C 0.10161 0.32071 0.0884 0.0
C306 C 0.10958 0.32966 0.09961 0.0
C307 C 0.11533 0.32697 0.11233 0.0
C308 C 0.13 0.31437 0.12807 0.0
C309 C 0.13964 0.32561 0.12307 0.0
C310 C 0.15149 0.32802 0.12401 0.0
C311 C 0.15402 0.31934 0.13016 0.0
C312 C 0.14436 0.30807 0.13496 0.0
C313 C 0.1325 0.30564 0.1339 0.0
H314 H 0.71262 0.8041 0.15083 0.0
N315 N 0.69809 0.81013 0.13576 0.0
H316 H 0.70884 0.79259 0.17701 0.0
H317 H 0.6794 0.80403 0.15789 0.0
H318 H 0.67555 0.79259 0.18419 0.0
H319 H 0.67464 0.79222 0.13168 0.0
H320 H 0.66724 0.77586 0.11136 0.0
H321 H 0.71025 0.80789 0.10999 0.0
H322 H 0.70283 0.7915 0.08924 0.0
H323 H 0.71404 0.83198 0.14627 0.0
H324 H 0.6791 0.81196 0.1229 0.0
H325 H 0.71277 0.85012 0.14497 0.0
H326 H 0.67811 0.8301 0.12049 0.0
H327 H 0.71088 0.90622 0.143 0.0
H328 H 0.70964 0.91571 0.16929 0.0
H329 H 0.67429 0.88514 0.17902 0.0
H330 H 0.67581 0.87566 0.15329 0.0
H331 H 0.67007 0.87745 0.12576 0.0
H332 H 0.66136 0.88479 0.10502 0.0
H333 H 0.69649 0.90686 0.08237 0.0
H334 H 0.70515 0.89942 0.10324 0.0
H335 H 0.71321 0.8831 0.12603 0.0
H336 H 0.71401 0.86466 0.12666 0.0
H337 H 0.67545 0.8443 0.13478 0.0
N338 N 0.69415 0.88554 0.12981 0.0
H339 H 0.67472 0.86267 0.13281 0.0
C340 C 0.69633 0.8049 0.15242 0.0
C341 C 0.70464 0.8018 0.15826 0.0
C342 C 0.70246 0.79525 0.17323 0.0
C343 C 0.69186 0.79161 0.18264 0.0
C344 C 0.68373 0.79512 0.1771 0.0
C345 C 0.68595 0.80173 0.16214 0.0
C346 C 0.69306 0.80134 0.12235 0.0
C347 C 0.68084 0.79229 0.12231 0.0
C348 C 0.67659 0.78294 0.11058 0.0
C349 C 0.68446 0.78235 0.0987 0.0
C350 C 0.69657 0.79164 0.09835 0.0
C351 C 0.7008 0.80104 0.11007 0.0
C352 C 0.69681 0.82058 0.13457 0.0
C353 C 0.70616 0.83153 0.14069 0.0
C354 C 0.70544 0.84193 0.13976 0.0
C355 C 0.69539 0.84169 0.13241 0.0
C356 C 0.68594 0.83067 0.12641 0.0
C357 C 0.68657 0.82021 0.12763 0.0
C358 C 0.6935 0.89026 0.14612 0.0
C359 C 0.70297 0.90153 0.151 0.0
C360 C 0.70219 0.90697 0.16593 0.0
C361 C 0.69183 0.90123 0.17626 0.0
C362 C 0.68247 0.88977 0.17154 0.0
C363 C 0.6833 0.88433 0.15666 0.0
C364 C 0.68834 0.88797 0.11611 0.0
C365 C 0.67588 0.88366 0.11616 0.0
C366 C 0.6709 0.88792 0.10432 0.0
C367 C 0.67825 0.89649 0.09215 0.0
C368 C 0.69056 0.90019 0.09148 0.0
C369 C 0.69554 0.89598 0.1034 0.0
C370 C 0.694 0.87434 0.12961 0.0
C371 C 0.70494 0.87462 0.1278 0.0
C372 C 0.70537 0.86405 0.12836 0.0
C373 C 0.69481 0.85291 0.13105 0.0
C374 C 0.68377 0.85265 0.13256 0.0
C375 C 0.68335 0.86323 0.13167 0.0
H376 H 0.11955 0.79058 0.1378 0.0
N377 N 0.11419 0.80696 0.12503 0.0
H378 H 0.11163 0.77915 0.164 0.0
H379 H 0.10119 0.80992 0.14866 0.0
H380 H 0.09349 0.7988 0.17525 0.0
H381 H 0.09304 0.79871 0.11027 0.0
H382 H 0.08376 0.78283 0.08906 0.0
H383 H 0.12561 0.79709 0.10743 0.0
H384 H 0.11659 0.78154 0.08586 0.0
H385 H 0.13661 0.80973 0.12915 0.0
H386 H 0.11773 0.82867 0.11977 0.0
H387 H 0.15576 0.82854 0.12842 0.0
H388 H 0.13671 0.84768 0.12041 0.0
H389 H 0.20849 0.88154 0.14249 0.0
H390 H 0.21977 0.88924 0.16876 0.0
H391 H 0.19815 0.90491 0.18201 0.0
H392 H 0.18698 0.89735 0.15535 0.0
H393 H 0.20095 0.90748 0.11632 0.0
H394 H 0.21749 0.91635 0.09574 0.0
H395 H 0.21692 0.88272 0.09256 0.0
H396 H 0.20047 0.87399 0.11334 0.0
H397 H 0.18627 0.86484 0.14612 0.0
H398 H 0.16786 0.84563 0.14384 0.0
H399 H 0.15445 0.86054 0.10674 0.0
N400 N 0.19116 0.88596 0.13043 0.0
H401 H 0.1726 0.88007 0.1102 0.0
C402 C 0.11084 0.80104 0.14125 0.0
C403 C 0.11398 0.79251 0.14597 0.0
C404 C 0.10948 0.78602 0.16104 0.0
C405 C 0.10182 0.78797 0.17167 0.0
C406 C 0.09916 0.79689 0.1672 0.0
C407 C 0.10362 0.80333 0.15212 0.0
C408 C 0.10999 0.79914 0.11048 0.0
C409 C 0.0983 0.79516 0.10469 0.0
C410 C 0.09304 0.78611 0.09251 0.0
C411 C 0.0994 0.78084 0.08577 0.0
C412 C 0.11137 0.78527 0.09096 0.0
C413 C 0.1166 0.79429 0.10325 0.0
C414 C 0.12574 0.8178 0.1241 0.0
C415 C 0.13659 0.81793 0.12674 0.0
C416 C 0.14756 0.82878 0.12663 0.0
C417 C 0.1479 0.83975 0.12434 0.0
C418 C 0.13696 0.83949 0.12178 0.0
C419 C 0.12605 0.82863 0.12153 0.0
C420 C 0.19696 0.88904 0.14681 0.0
C421 C 0.20612 0.8866 0.15099 0.0
C422 C 0.21257 0.89099 0.16603 0.0
C423 C 0.2099 0.89776 0.17731 0.0
C424 C 0.20036 0.89968 0.17355 0.0
C425 C 0.19399 0.8954 0.15837 0.0
C426 C 0.19951 0.89015 0.11637 0.0
C427 C 0.20424 0.90198 0.11087 0.0
C428 C 0.21365 0.907 0.09908 0.0
C429 C 0.21856 0.90025 0.09258 0.0
C430 C 0.21342 0.88819 0.0975 0.0
C431 C 0.20397 0.88316 0.10928 0.0
C432 C 0.18075 0.87409 0.12858 0.0
C433 C 0.17938 0.86408 0.13759 0.0
C434 C 0.16881 0.85295 0.13608 0.0
C435 C 0.1595 0.85144 0.12521 0.0
C436 C 0.1612 0.86135 0.11563 0.0
C437 C 0.17163 0.87253 0.11745 0.0
H438 H 0.35392 0.22505 0.87787 0.0
N439 N 0.33751 0.20541 0.89365 0.0
H440 H 0.3511 0.23464 0.853 0.0
H441 H 0.31702 0.19635 0.87455 0.0
H442 H 0.31415 0.20585 0.84944 0.0
H443 H 0.31705 0.20518 0.90373 0.0
H444 H 0.31568 0.2177 0.92586 0.0
H445 H 0.35425 0.21866 0.91627 0.0
H446 H 0.35313 0.23152 0.9381 0.0
H447 H 0.34592 0.19407 0.87517 0.0
H448 H 0.31908 0.18774 0.9132 0.0
H449 H 0.33946 0.17282 0.87528 0.0
H450 H 0.31317 0.16678 0.91423 0.0
H451 H 0.33217 0.11845 0.88498 0.0
H452 H 0.33434 0.10952 0.85901 0.0
H453 H 0.29771 0.09852 0.84542 0.0
H454 H 0.29556 0.1074 0.87178 0.0
H455 H 0.29539 0.09843 0.91207 0.0
H456 H 0.29879 0.08735 0.93436 0.0
H457 H 0.33642 0.11479 0.93552 0.0
H458 H 0.3329 0.12589 0.91384 0.0
H459 H 0.33451 0.13729 0.89078 0.0
H460 H 0.34036 0.15827 0.89098 0.0
H461 H 0.30332 0.14834 0.90044 0.0
N462 N 0.31175 0.11805 0.89617 0.0
H463 H 0.29773 0.12726 0.90148 0.0
C464 C 0.33575 0.21 0.87796 0.0
C465 C 0.34527 0.22075 0.87159 0.0
C466 C 0.34361 0.22624 0.85751 0.0
C467 C 0.33239 0.22101 0.8494 0.0
C468 C 0.32291 0.21002 0.85544 0.0
C469 C 0.32453 0.2046 0.86973 0.0
C470 C 0.33579 0.211 0.90841 0.0
C471 C 0.32487 0.21069 0.91147 0.0
C472 C 0.32413 0.21792 0.92405 0.0
C473 C 0.33433 0.22573 0.93366 0.0
C474 C 0.34505 0.22553 0.93112 0.0
C475 C 0.34574 0.21822 0.91863 0.0
C476 C 0.33311 0.19266 0.89411 0.0
C477 C 0.33869 0.18812 0.88361 0.0
C478 C 0.33505 0.17596 0.88386 0.0
C479 C 0.32585 0.16801 0.89492 0.0
C480 C 0.32017 0.17254 0.90537 0.0
C481 C 0.32366 0.18469 0.90487 0.0
C482 C 0.31364 0.11359 0.88036 0.0
C483 C 0.32463 0.11426 0.8764 0.0
C484 C 0.32588 0.10917 0.86145 0.0
C485 C 0.31619 0.10328 0.85014 0.0
C486 C 0.3053 0.10285 0.85396 0.0
C487 C 0.30407 0.10798 0.86893 0.0
C488 C 0.31382 0.11296 0.91115 0.0
C489 C 0.3043 0.10217 0.91746 0.0
C490 C 0.30629 0.09581 0.93008 0.0
C491 C 0.31792 0.1001 0.93659 0.0
C492 C 0.32733 0.11126 0.93092 0.0
C493 C 0.32531 0.11763 0.91835 0.0
C494 C 0.31566 0.13064 0.89647 0.0
C495 C 0.32766 0.13957 0.89327 0.0
C496 C 0.33098 0.15165 0.89309 0.0
C497 C 0.32233 0.15511 0.89564 0.0
C498 C 0.3103 0.14612 0.89873 0.0
C499 C 0.30705 0.13404 0.89924 0.0
H500 H 0.78151 0.12899 0.86698 0.0
N501 N 0.79796 0.12869 0.88657 0.0
H502 H 0.77283 0.1176 0.84092 0.0
H503 H 0.8051 0.11457 0.87044 0.0
H504 H 0.79652 0.10314 0.84425 0.0
H505 H 0.79761 0.10882 0.89917 0.0
H506 H 0.78439 0.09575 0.92163 0.0
H507 H 0.78389 0.1327 0.90675 0.0
H508 H 0.77033 0.11953 0.92887 0.0
H509 H 0.80721 0.15157 0.8789 0.0
H510 H 0.81688 0.12617 0.8968 0.0
H511 H 0.82829 0.16752 0.88005 0.0
H512 H 0.83794 0.14213 0.89874 0.0
H513 H 0.87375 0.20239 0.86765 0.0
H514 H 0.8826 0.2135 0.84154 0.0
H515 H 0.9134 0.20906 0.84837 0.0
H516 H 0.90461 0.19831 0.87492 0.0
H517 H 0.89726 0.19486 0.91661 0.0
H518 H 0.90689 0.21073 0.93807 0.0
H519 H 0.89141 0.22987 0.91448 0.0
H520 H 0.88193 0.21419 0.89332 0.0
H521 H 0.8644 0.19579 0.89908 0.0
H522 H 0.84371 0.17953 0.89932 0.0
H523 H 0.85514 0.15513 0.88191 0.0
N524 N 0.88443 0.1944 0.88994 0.0
H525 H 0.87611 0.17152 0.88247 0.0
C526 C 0.79389 0.12262 0.87058 0.0
C527 C 0.78491 0.12347 0.86193 0.0
C528 C 0.78001 0.11699 0.84704 0.0
C529 C 0.784 0.10947 0.8405 0.0
C530 C 0.79318 0.10877 0.84907 0.0
C531 C 0.79813 0.11532 0.86398 0.0
C532 C 0.79175 0.12179 0.90136 0.0
C533 C 0.79194 0.11139 0.9059 0.0
C534 C 0.78426 0.10385 0.91865 0.0
C535 C 0.77621 0.10652 0.92701 0.0
C536 C 0.7765 0.11724 0.92292 0.0
C537 C 0.78421 0.12478 0.91025 0.0
C538 C 0.81046 0.13776 0.88791 0.0
C539 C 0.81391 0.1495 0.88327 0.0
C540 C 0.82595 0.15861 0.88407 0.0
C541 C 0.83485 0.15617 0.88966 0.0
C542 C 0.83136 0.14433 0.89424 0.0
C543 C 0.81928 0.13518 0.89329 0.0
C544 C 0.88858 0.19955 0.87331 0.0
C545 C 0.88233 0.20368 0.86346 0.0
C546 C 0.8874 0.21 0.84844 0.0
C547 C 0.89878 0.21227 0.84288 0.0
C548 C 0.90474 0.20768 0.85242 0.0
C549 C 0.8997 0.20143 0.86749 0.0
C550 C 0.8888 0.20321 0.90341 0.0
C551 C 0.8958 0.20239 0.9163 0.0
C552 C 0.90134 0.21148 0.92845 0.0
C553 C 0.89988 0.22154 0.92797 0.0
C554 C 0.89256 0.22216 0.91536 0.0
C555 C 0.88714 0.21316 0.90316 0.0
C556 C 0.87197 0.18491 0.89088 0.0
C557 C 0.86261 0.18699 0.89552 0.0
C558 C 0.85065 0.17762 0.89547 0.0
C559 C 0.84769 0.16598 0.89054 0.0
C560 C 0.85706 0.16391 0.88602 0.0
C561 C 0.86905 0.17328 0.88624 0.0
H562 H 0.7988 0.70907 0.88072 0.0
N563 N 0.80553 0.69477 0.89477 0.0
H564 H 0.78778 0.7059 0.85419 0.0
H565 H 0.79983 0.67672 0.87193 0.0
H566 H 0.78889 0.67351 0.8453 0.0
H567 H 0.78834 0.67106 0.89851 0.0
H568 H 0.77163 0.66287 0.9187 0.0
H569 H 0.80278 0.70601 0.92119 0.0
H570 H 0.78598 0.69787 0.94148 0.0
H571 H 0.82658 0.71046 0.88126 0.0
H572 H 0.80893 0.67707 0.90888 0.0
H573 H 0.84506 0.70969 0.88037 0.0
H574 H 0.82753 0.67668 0.90914 0.0
H575 H 0.90385 0.7079 0.87811 0.0
H576 H 0.91247 0.70494 0.85214 0.0
H577 H 0.87883 0.67233 0.84218 0.0
H578 H 0.87049 0.67515 0.86835 0.0
H579 H 0.876 0.66953 0.8959 0.0
H580 H 0.88484 0.66185 0.91588 0.0
H581 H 0.90531 0.69707 0.93837 0.0
H582 H 0.89661 0.70474 0.91791 0.0
H583 H 0.87984 0.71193 0.89436 0.0
H584 H 0.86112 0.71227 0.89628 0.0
H585 H 0.84094 0.67353 0.8934 0.0
N586 N 0.88257 0.69307 0.89184 0.0
H587 H 0.85976 0.67336 0.8929 0.0
C588 C 0.80011 0.69317 0.87829 0.0
C589 C 0.79679 0.70139 0.8729 0.0
C590 C 0.79054 0.69957 0.85773 0.0
C591 C 0.78743 0.68943 0.84767 0.0
C592 C 0.79103 0.68133 0.85288 0.0
C593 C 0.79733 0.68318 0.86804 0.0
C594 C 0.79681 0.68922 0.90829 0.0
C595 C 0.78804 0.67695 0.90801 0.0
C596 C 0.77845 0.67227 0.91954 0.0
C597 C 0.77741 0.67975 0.93156 0.0
C598 C 0.78657 0.69186 0.93246 0.0
C599 C 0.79616 0.69653 0.92089 0.0
C600 C 0.81631 0.69394 0.89515 0.0
C601 C 0.82674 0.70304 0.88733 0.0
C602 C 0.83735 0.70263 0.887 0.0
C603 C 0.83793 0.69317 0.89485 0.0
C604 C 0.82745 0.68402 0.90274 0.0
C605 C 0.81674 0.68432 0.90275 0.0
C606 C 0.88654 0.69185 0.87521 0.0
C607 C 0.8983 0.70024 0.87013 0.0
C608 C 0.90318 0.69854 0.85525 0.0
C609 C 0.89637 0.68835 0.84508 0.0
C610 C 0.8844 0.68017 0.84985 0.0
C611 C 0.87955 0.68186 0.8648 0.0
C612 C 0.88573 0.68776 0.90538 0.0
C613 C 0.88216 0.67554 0.90536 0.0
C614 C 0.88723 0.67115 0.91686 0.0
C615 C 0.89591 0.67888 0.9286 0.0
C616 C 0.89883 0.69093 0.92928 0.0
C617 C 0.89379 0.6953 0.91775 0.0
C618 C 0.87123 0.69269 0.89317 0.0
C619 C 0.87135 0.70354 0.89424 0.0
C620 C 0.8606 0.70368 0.89516 0.0
C621 C 0.8494 0.69293 0.89471 0.0
C622 C 0.84933 0.682 0.89392 0.0
C623 C 0.86013 0.68188 0.89336 0.0
H624 H 0.75875 0.62665 0.47534 0.0
N625 N 0.77959 0.64044 0.45967 0.0
H626 H 0.75162 0.63084 0.50191 0.0
H627 H 0.79284 0.65936 0.48095 0.0
H628 H 0.78576 0.66368 0.50749 0.0
H629 H 0.78721 0.6642 0.45432 0.0
H630 H 0.77864 0.67203 0.43417 0.0
H631 H 0.76476 0.62861 0.43428 0.0
H632 H 0.75603 0.6364 0.41404 0.0
H633 H 0.78296 0.623 0.4702 0.0
H634 H 0.80181 0.65833 0.44809 0.0
H635 H 0.8017 0.62269 0.47119 0.0
H636 H 0.82042 0.65782 0.44798 0.0
H637 H 0.85804 0.62072 0.47901 0.0
H638 H 0.86787 0.62149 0.50589 0.0
H639 H 0.87474 0.65744 0.5143 0.0
H640 H 0.86461 0.65641 0.488 0.0
H641 H 0.87353 0.6619 0.46097 0.0
H642 H 0.89078 0.66992 0.44192 0.0
H643 H 0.87699 0.63479 0.41971 0.0
H644 H 0.85983 0.62674 0.43934 0.0
H645 H 0.83431 0.62024 0.45799 0.0
H646 H 0.81577 0.62084 0.45517 0.0
H647 H 0.83569 0.659 0.465 0.0
N648 N 0.85621 0.63821 0.46452 0.0
H649 H 0.8542 0.65838 0.46647 0.0
C650 C 0.77625 0.64268 0.47616 0.0
C651 C 0.76473 0.63465 0.48246 0.0
C652 C 0.7607 0.63705 0.49763 0.0
C653 C 0.76813 0.64761 0.50674 0.0
C654 C 0.77981 0.65553 0.50064 0.0
C655 C 0.78387 0.65306 0.48552 0.0
C656 C 0.77657 0.64574 0.44586 0.0
C657 C 0.78063 0.65808 0.44535 0.0
C658 C 0.77566 0.66256 0.43386 0.0
C659 C 0.76655 0.65482 0.42265 0.0
C660 C 0.76309 0.64262 0.42243 0.0
C661 C 0.76805 0.63814 0.43397 0.0
C662 C 0.79085 0.64056 0.45894 0.0
C663 C 0.79112 0.6306 0.46528 0.0
C664 C 0.80186 0.63043 0.46569 0.0
C665 C 0.81265 0.64019 0.45952 0.0
C666 C 0.81236 0.65019 0.45305 0.0
C667 C 0.80162 0.65043 0.45293 0.0
C668 C 0.86055 0.63845 0.48141 0.0
C669 C 0.86145 0.62864 0.48689 0.0
C670 C 0.86718 0.62916 0.50215 0.0
C671 C 0.87221 0.63957 0.51223 0.0
C672 C 0.87086 0.64922 0.50702 0.0
C673 C 0.86508 0.64866 0.49181 0.0
C674 C 0.86538 0.64365 0.45163 0.0
C675 C 0.87404 0.65594 0.45184 0.0
C676 C 0.88394 0.66055 0.44083 0.0
C677 C 0.88535 0.65299 0.42937 0.0
C678 C 0.8763 0.64083 0.42858 0.0
C679 C 0.86644 0.63623 0.43964 0.0
C680 C 0.8456 0.63915 0.46275 0.0
C681 C 0.83463 0.62872 0.45943 0.0
C682 C 0.82403 0.62909 0.45799 0.0
C683 C 0.82412 0.63995 0.46011 0.0
C684 C 0.83522 0.65048 0.46315 0.0
C685 C 0.84587 0.65011 0.46428 0.0
H686 H 0.38089 0.13925 0.48033 0.0
N687 N 0.36473 0.14426 0.46847 0.0
H688 H 0.37952 0.12819 0.50623 0.0
H689 H 0.34772 0.13787 0.49372 0.0
H690 H 0.34621 0.12676 0.51936 0.0
H691 H 0.34095 0.12681 0.46663 0.0
H692 H 0.33225 0.10999 0.44693 0.0
H693 H 0.37526 0.14144 0.44126 0.0
H694 H 0.36656 0.1247 0.42113 0.0
H695 H 0.38316 0.16619 0.46389 0.0
H696 H 0.34461 0.1465 0.47015 0.0
H697 H 0.38288 0.18485 0.46175 0.0
H698 H 0.34425 0.16512 0.46928 0.0
H699 H 0.37774 0.24236 0.47921 0.0
H700 H 0.373 0.24991 0.50485 0.0
H701 H 0.33964 0.21617 0.51023 0.0
H702 H 0.34445 0.20877 0.48446 0.0
H703 H 0.34074 0.21481 0.4567 0.0
H704 H 0.33427 0.2239 0.43537 0.0
H705 H 0.37089 0.24478 0.41702 0.0
H706 H 0.37735 0.23579 0.43881 0.0
H707 H 0.38083 0.2175 0.47628 0.0
H708 H 0.38065 0.19861 0.47778 0.0
H709 H 0.34619 0.18079 0.45242 0.0
N710 N 0.36411 0.22145 0.46395 0.0
H711 H 0.34613 0.19956 0.45202 0.0
C712 C 0.36449 0.13946 0.48504 0.0
C713 C 0.37345 0.13677 0.48902 0.0
C714 C 0.37259 0.13036 0.50371 0.0
C715 C 0.3627 0.12652 0.51478 0.0
C716 C 0.354 0.12969 0.51119 0.0
C717 C 0.35485 0.13606 0.49644 0.0
C718 C 0.35881 0.1354 0.45541 0.0
C719 C 0.34654 0.1266 0.45653 0.0
C720 C 0.34156 0.11696 0.4452 0.0
C721 C 0.34874 0.11593 0.43253 0.0
C722 C 0.36083 0.12511 0.4309 0.0
C723 C 0.3658 0.13473 0.44226 0.0
C724 C 0.364 0.15499 0.46746 0.0
C725 C 0.37465 0.16594 0.46504 0.0
C726 C 0.37445 0.17661 0.46397 0.0
C727 C 0.36355 0.1766 0.46557 0.0
C728 C 0.35282 0.16553 0.46783 0.0
C729 C 0.35302 0.15483 0.4686 0.0
C730 C 0.36149 0.22506 0.47997 0.0
C731 C 0.36949 0.23657 0.48609 0.0
C732 C 0.36678 0.24083 0.50075 0.0
C733 C 0.35592 0.23365 0.50956 0.0
C734 C 0.348 0.22198 0.50361 0.0
C735 C 0.35076 0.2177 0.48895 0.0
C736 C 0.3596 0.22469 0.44941 0.0
C737 C 0.34735 0.22112 0.44787 0.0
C738 C 0.34364 0.22631 0.43557 0.0
C739 C 0.35208 0.23518 0.42459 0.0
C740 C 0.36419 0.23812 0.42545 0.0
C741 C 0.36789 0.23293 0.43777 0.0
C742 C 0.36364 0.21007 0.46388 0.0
C743 C 0.37325 0.2095 0.47104 0.0
C744 C 0.37316 0.19868 0.47175 0.0
C745 C 0.36346 0.1881 0.46504 0.0
C746 C 0.35376 0.18867 0.45789 0.0
C747 C 0.35378 0.1995 0.45746 0.0
H748 H 0.77859 0.1172 0.46473 0.0
N749 N 0.7806 0.13846 0.45435 0.0
H750 H 0.76866 0.10598 0.49017 0.0
H751 H 0.77079 0.14476 0.4793 0.0
H752 H 0.76092 0.13347 0.50532 0.0
H753 H 0.76095 0.1327 0.43654 0.0
H754 H 0.75156 0.11701 0.41491 0.0
H755 H 0.7912 0.12712 0.43859 0.0
H756 H 0.78183 0.11141 0.41715 0.0
H757 H 0.7984 0.13637 0.47054 0.0
H758 H 0.79183 0.1599 0.43965 0.0
H759 H 0.81948 0.15147 0.47231 0.0
H760 H 0.8133 0.17492 0.44033 0.0
H761 H 0.88509 0.19757 0.48054 0.0
H762 H 0.89506 0.20817 0.50661 0.0
H763 H 0.87154 0.22288 0.50919 0.0
H764 H 0.86191 0.21253 0.48297 0.0
H765 H 0.87028 0.22072 0.45492 0.0
H766 H 0.88485 0.23559 0.43518 0.0
H767 H 0.89622 0.21066 0.42033 0.0
H768 H 0.88184 0.19598 0.44052 0.0
H769 H 0.85869 0.17587 0.46101 0.0
H770 H 0.83745 0.16088 0.45754 0.0
H771 H 0.82878 0.18911 0.45735 0.0
N772 N 0.86858 0.19938 0.4631 0.0
H773 H 0.85014 0.20399 0.45947 0.0
C774 C 0.77527 0.13182 0.46984 0.0
C775 C 0.77469 0.12086 0.47329 0.0
C776 C 0.76901 0.11441 0.48792 0.0
C777 C 0.76391 0.11879 0.49959 0.0
C778 C 0.76479 0.1299 0.4965 0.0
C779 C 0.77038 0.13632 0.48168 0.0
C780 C 0.7767 0.13106 0.4393 0.0
C781 C 0.76571 0.12834 0.43196 0.0
C782 C 0.76038 0.1194 0.41961 0.0
C783 C 0.76593 0.11293 0.41449 0.0
C784 C 0.77733 0.1162 0.42099 0.0
C785 C 0.78272 0.12524 0.4332 0.0
C786 C 0.79337 0.14706 0.45516 0.0
C787 C 0.80145 0.14476 0.46404 0.0
C788 C 0.81365 0.15343 0.46485 0.0
C789 C 0.81821 0.16449 0.45646 0.0
C790 C 0.81015 0.16664 0.44726 0.0
C791 C 0.79788 0.15803 0.44672 0.0
C792 C 0.87276 0.20419 0.4798 0.0
C793 C 0.88195 0.20289 0.48697 0.0
C794 C 0.8876 0.20894 0.50188 0.0
C795 C 0.88414 0.21644 0.50995 0.0
C796 C 0.87454 0.21732 0.50315 0.0
C797 C 0.86892 0.21128 0.48819 0.0
C798 C 0.8751 0.20728 0.44927 0.0
C799 C 0.87571 0.21836 0.44716 0.0
C800 C 0.88403 0.22685 0.43581 0.0
C801 C 0.89184 0.22437 0.4264 0.0
C802 C 0.89052 0.21293 0.42766 0.0
C803 C 0.88225 0.2045 0.43903 0.0
C804 C 0.85597 0.19098 0.46084 0.0
C805 C 0.85216 0.17877 0.46013 0.0
C806 C 0.83999 0.17022 0.45831 0.0
C807 C 0.83127 0.17371 0.45744 0.0
C808 C 0.83517 0.18604 0.45785 0.0
C809 C 0.84742 0.1946 0.45935 0.0
H810 H 0.00989 0.55526 0.21573 0.0
N811 N 0.98984 0.53491 0.22723 0.0
H812 H 0.01145 0.56624 0.18989 0.0
H813 H 0.97345 0.52853 0.20301 0.0
H814 H 0.97497 0.53946 0.17688 0.0
H815 H 0.97398 0.53951 0.24156 0.0
H816 H 0.97787 0.55498 0.26253 0.0
H817 H 0.01076 0.54771 0.24574 0.0
H818 H 0.0146 0.56286 0.26699 0.0
H819 H 0.01261 0.53891 0.22092 0.0
H820 H 0.97634 0.51171 0.23391 0.0
H821 H 0.01883 0.52408 0.22128 0.0
H822 H 0.98228 0.49652 0.23322 0.0
H823 H 0.0328 0.47208 0.20725 0.0
H824 H 0.02942 0.45942 0.18241 0.0
H825 H 0.99172 0.44869 0.18316 0.0
H826 H 0.99521 0.46134 0.20818 0.0
H827 H 0.99596 0.45441 0.23662 0.0
H828 H 0.99464 0.44087 0.25904 0.0
H829 H 0.03272 0.46371 0.26861 0.0
H830 H 0.0338 0.47745 0.24649 0.0
H831 H 0.02413 0.49347 0.20577 0.0
H832 H 0.01756 0.50811 0.20594 0.0
H833 H 0.993 0.48895 0.24716 0.0
N834 N 0.01651 0.47421 0.22518 0.0
H835 H -0.00097 0.47407 0.24627 0.0
C836 C 0.9915 0.54102 0.2113 0.0
C837 C 0.00229 0.55161 0.20723 0.0
C838 C 0.00318 0.55789 0.19239 0.0
C839 C 0.99332 0.55375 0.18136 0.0
C840 C 0.98267 0.54297 0.18523 0.0
C841 C 0.9818 0.53667 0.20005 0.0
C842 C 0.992 0.54239 0.24196 0.0
C843 C 0.98278 0.54439 0.24739 0.0
C844 C 0.98503 0.55322 0.25942 0.0
C845 C 0.9966 0.56026 0.26635 0.0
C846 C 0.00565 0.55775 0.26168 0.0
C847 C 0.0034 0.54895 0.24956 0.0
C848 C 0.99398 0.52645 0.22767 0.0
C849 C 0.00596 0.52974 0.2239 0.0
C850 C 0.00948 0.52115 0.22387 0.0
C851 C 0.00107 0.50902 0.2272 0.0
C852 C 0.98908 0.50578 0.23089 0.0
C853 C 0.98563 0.51442 0.2312 0.0
C854 C 0.01431 0.46765 0.20952 0.0
C855 C 0.02386 0.46713 0.20186 0.0
C856 C 0.0219 0.45992 0.18765 0.0
C857 C 0.01029 0.45303 0.1808 0.0
C858 C 0.00074 0.45378 0.18825 0.0
C859 C 0.00272 0.46104 0.20248 0.0
C860 C 0.01502 0.467 0.23993 0.0
C861 C 0.00397 0.45663 0.24376 0.0
C862 C 0.00325 0.44884 0.25653 0.0
C863 C 0.0136 0.45111 0.26554 0.0
C864 C 0.02453 0.46174 0.26212 0.0
C865 C 0.0252 0.46959 0.24945 0.0
C866 C 0.01214 0.48255 0.22585 0.0
C867 C 0.01725 0.49238 0.21474 0.0
C868 C 0.01356 0.50083 0.215 0.0
C869 C 0.00478 0.49981 0.22666 0.0
C870 C -0.00036 0.48996 0.23781 0.0
C871 C 0.00319 0.48139 0.23736 0.0
H872 H 0.57572 0.53152 0.20921 0.0
N873 N 0.55464 0.52414 0.22427 0.0
H874 H 0.58335 0.54332 0.18316 0.0
H875 H 0.54171 0.52983 0.2027 0.0
H876 H 0.54922 0.54158 0.17654 0.0
H877 H 0.54763 0.54067 0.22963 0.0
H878 H 0.55628 0.557 0.25007 0.0
H879 H 0.56932 0.52692 0.24969 0.0
H880 H 0.57788 0.54318 0.27063 0.0
H881 H 0.54984 0.50333 0.21116 0.0
H882 H 0.5331 0.52011 0.23833 0.0
H883 H 0.5307 0.48451 0.21073 0.0
H884 H 0.5142 0.50119 0.239 0.0
H885 H 0.4716 0.42527 0.20858 0.0
H886 H 0.46005 0.41622 0.1827 0.0
H887 H 0.45792 0.44803 0.17397 0.0
H888 H 0.46924 0.45688 0.19981 0.0
H889 H 0.45916 0.45204 0.22724 0.0
H890 H 0.4422 0.44266 0.24686 0.0
H891 H 0.45682 0.4221 0.26853 0.0
H892 H 0.47366 0.43137 0.24839 0.0
H893 H 0.49842 0.4494 0.22563 0.0
H894 H 0.51736 0.46845 0.22716 0.0
H895 H 0.49771 0.48731 0.22343 0.0
N896 N 0.4764 0.44582 0.22282 0.0
H897 H 0.47886 0.46822 0.22329 0.0
C898 C 0.55822 0.52983 0.20788 0.0
C899 C 0.56985 0.53354 0.20196 0.0
C900 C 0.57417 0.54024 0.18707 0.0
C901 C 0.5669 0.54343 0.17783 0.0
C902 C 0.55508 0.53939 0.18351 0.0
C903 C 0.55075 0.53263 0.19839 0.0
C904 C 0.55786 0.53254 0.23811 0.0
C905 C 0.55405 0.54099 0.23871 0.0
C906 C 0.55898 0.55032 0.25051 0.0
C907 C 0.56785 0.55146 0.26192 0.0
C908 C 0.57119 0.54266 0.26185 0.0
C909 C 0.56624 0.53331 0.25004 0.0
C910 C 0.54307 0.51317 0.22484 0.0
C911 C 0.54206 0.50291 0.21723 0.0
C912 C 0.5311 0.4921 0.21715 0.0
C913 C 0.52083 0.49119 0.225 0.0
C914 C 0.52183 0.50152 0.23263 0.0
C915 C 0.53277 0.51242 0.23241 0.0
C916 C 0.47133 0.44173 0.20619 0.0
C917 C 0.46884 0.43036 0.20085 0.0
C918 C 0.46225 0.42522 0.18608 0.0
C919 C 0.45797 0.43137 0.17637 0.0
C920 C 0.46092 0.44299 0.18133 0.0
C921 C 0.46753 0.44812 0.19609 0.0
C922 C 0.46768 0.44235 0.23631 0.0
C923 C 0.45891 0.44575 0.23644 0.0
C924 C 0.44918 0.44036 0.24774 0.0
C925 C 0.44806 0.4315 0.25914 0.0
C926 C 0.45729 0.42872 0.25969 0.0
C927 C 0.46698 0.43408 0.24835 0.0
C928 C 0.48726 0.45733 0.22405 0.0
C929 C 0.49825 0.45768 0.22526 0.0
C930 C 0.50908 0.46861 0.22595 0.0
C931 C 0.50918 0.47953 0.22514 0.0
C932 C 0.49806 0.47915 0.22422 0.0
C933 C 0.48721 0.46817 0.22388 0.0
H934 H 0.52538 0.96614 0.20211 0.0
N935 N 0.52384 0.98233 0.22093 0.0
H936 H 0.53796 0.96965 0.177 0.0
H937 H 0.53697 0.00372 0.20436 0.0
H938 H 0.5495 0.00736 0.17903 0.0
H939 H 0.54427 0.00221 0.23235 0.0
H940 H 0.55857 0.00227 0.25262 0.0
H941 H 0.52022 0.96453 0.24137 0.0
H942 H 0.53438 0.96455 0.26201 0.0
H943 H 0.50476 0.97596 0.20156 0.0
H944 H 0.52433 -0.00087 0.24351 0.0
H945 H 0.49046 0.98295 0.2028 0.0
H946 H 0.50966 0.00555 0.24552 0.0
H947 H 0.44373 0.99099 0.2141 0.0
H948 H 0.43363 0.99049 0.18779 0.0
H949 H 0.46086 0.0273 0.17787 0.0
H950 H 0.47099 0.02772 0.20436 0.0
H951 H 0.45877 0.02529 0.24258 0.0
H952 H 0.443 0.0205 0.26363 0.0
H953 H 0.43567 0.98402 0.26565 0.0
H954 H 0.45103 0.98875 0.24424 0.0
H955 H 0.45982 0.98784 0.21879 0.0
H956 H 0.47445 0.98135 0.21836 0.0
H957 H 0.50229 0.01695 0.23316 0.0
N958 N 0.46401 0.01029 0.22713 0.0
H959 H 0.48724 0.02314 0.23469 0.0
C960 C 0.53025 0.98462 0.20505 0.0
C961 C 0.53049 0.97512 0.19694 0.0
C962 C 0.53765 0.97715 0.18257 0.0
C963 C 0.54475 0.9888 0.17601 0.0
C964 C 0.54424 0.99831 0.18389 0.0
C965 C 0.53704 0.99625 0.19829 0.0
C966 C 0.53117 0.9833 0.23531 0.0
C967 C 0.54193 0.99401 0.23902 0.0
C968 C 0.55008 0.99405 0.25069 0.0
C969 C 0.54767 0.98338 0.25876 0.0
C970 C 0.53657 0.97287 0.25579 0.0
C971 C 0.52842 0.97286 0.24416 0.0
C972 C 0.51572 0.98696 0.22227 0.0
C973 C 0.50595 0.98251 0.21109 0.0
C974 C 0.49768 0.98644 0.21197 0.0
C975 C 0.49877 0.99477 0.22439 0.0
C976 C 0.50858 -0.00073 0.23562 0.0
C977 C 0.51701 0.99549 0.23453 0.0
C978 C 0.45822 0.00942 0.21115 0.0
C979 C 0.44767 -0.0011 0.20617 0.0
C980 C 0.44188 -0.00138 0.1911 0.0
C981 C 0.44645 0.00886 0.18076 0.0
C982 C 0.45707 0.01931 0.18565 0.0
C983 C 0.4629 0.01955 0.20068 0.0
C984 C 0.45617 0.00748 0.24171 0.0
C985 C 0.45392 0.01633 0.24785 0.0
C986 C 0.44491 0.01357 0.25995 0.0
C987 C 0.43796 0.00183 0.26628 0.0
C988 C 0.44068 0.9931 0.26083 0.0
C989 C 0.44963 0.99586 0.2486 0.0
C990 C 0.47239 0.006 0.22704 0.0
C991 C 0.469 0.99423 0.22223 0.0
C992 C 0.47749 0.99056 0.22174 0.0
C993 C 0.48966 -0.00138 0.2256 0.0
C994 C 0.49301 0.0104 0.23037 0.0
C995 C 0.48444 0.014 0.23116 0.0
H996 H 0.43363 0.96813 0.81276 0.0
N997 N 0.45349 0.98398 0.79659 0.0
H998 H 0.42493 0.97134 0.83856 0.0
H999 H 0.46406 0.004 0.8168 0.0
H1000 H 0.45559 0.00721 0.84257 0.0
H1001 H 0.46255 0.00751 0.78795 0.0
H1002 H 0.45381 0.01491 0.76722 0.0
H1003 H 0.43729 0.97117 0.7732 0.0
H1004 H 0.42857 0.97848 0.75226 0.0
H1005 H 0.45463 0.96426 0.79312 0.0
H1006 H 0.47689 0.00252 0.79854 0.0
H1007 H 0.47247 0.96228 0.79393 0.0
H1008 H 0.49471 0.00065 0.80077 0.0
H1009 H 0.53077 0.95944 0.81914 0.0
H1010 H 0.5421 0.96259 0.84532 0.0
H1011 H 0.54476 0.99702 0.85175 0.0
H1012 H 0.5335 0.99381 0.82542 0.0
H1013 H 0.5454 0.99745 0.79917 0.0
H1014 H 0.56157 0.00344 0.77859 0.0
H1015 H 0.54299 0.96784 0.75693 0.0
H1016 H 0.52685 0.96182 0.77803 0.0
H1017 H 0.50384 0.9602 0.81455 0.0
H1018 H 0.48644 0.96283 0.81272 0.0
H1019 H 0.50844 0.99677 0.78727 0.0
N1020 N 0.5261 0.97481 0.80372 0.0
H1021 H 0.52587 0.99444 0.79025 0.0
C1022 C 0.44946 0.98576 0.81283 0.0
C1023 C 0.43853 0.9766 0.8194 0.0
C1024 C 0.43361 0.97845 0.83414 0.0
C1025 C 0.43955 0.98956 0.84256 0.0
C1026 C 0.45072 -0.00139 0.83624 0.0
C1027 C 0.45563 0.99674 0.82152 0.0
C1028 C 0.45047 0.98874 0.78221 0.0
C1029 C 0.45533 0.00112 0.77999 0.0
C1030 C 0.45029 0.00535 0.76816 0.0
C1031 C 0.44043 0.99727 0.75823 0.0
C1032 C 0.43621 0.98494 0.75962 0.0
C1033 C 0.44117 0.98073 0.77156 0.0
C1034 C 0.46437 0.98345 0.79605 0.0
C1035 C 0.4634 0.97222 0.7946 0.0
C1036 C 0.47362 0.97113 0.79529 0.0
C1037 C 0.48511 0.98128 0.79778 0.0
C1038 C 0.48608 0.99262 0.79877 0.0
C1039 C 0.47583 0.99371 0.79773 0.0
C1040 C 0.5313 0.97635 0.82035 0.0
C1041 C 0.53361 0.96755 0.8264 0.0
C1042 C 0.54007 0.96937 0.84137 0.0
C1043 C 0.54439 0.98009 0.85058 0.0
C1044 C 0.54169 0.98874 0.84482 0.0
C1045 C 0.53518 0.98689 0.82985 0.0
C1046 C 0.53489 0.97912 0.79017 0.0
C1047 C 0.54468 0.99096 0.78988 0.0
C1048 C 0.55392 0.9944 0.77799 0.0
C1049 C 0.55361 0.9861 0.76615 0.0
C1050 C 0.54357 0.97441 0.76602 0.0
C1051 C 0.5343 0.97097 0.77794 0.0
C1052 C 0.51616 0.97696 0.8024 0.0
C1053 C 0.50489 0.96822 0.80865 0.0
C1054 C 0.49492 0.96971 0.80741 0.0
C1055 C 0.49591 0.97995 0.79958 0.0
C1056 C 0.50729 0.98881 0.79351 0.0
C1057 C 0.51733 0.98741 0.79507 0.0
H1058 H 0.98264 0.53557 0.8134 0.0
N1059 N 0.00373 0.54114 0.79728 0.0
H1060 H 0.98058 0.54576 0.83832 0.0
H1061 H 0.02127 0.55749 0.81641 0.0
H1062 H 0.01928 0.56743 0.84177 0.0
H1063 H 0.02073 0.55615 0.77608 0.0
H1064 H 0.01863 0.56787 0.75342 0.0
H1065 H 0.98235 0.53752 0.78441 0.0
H1066 H 0.9802 0.54927 0.76223 0.0
H1067 H 0.98187 0.52054 0.79313 0.0
H1068 H 0.0195 0.53419 0.80267 0.0
H1069 H 0.97795 0.50009 0.795 0.0
H1070 H 0.01564 0.51374 0.80544 0.0
H1071 H 0.97163 0.43992 0.8297 0.0
H1072 H 0.97671 0.43248 0.85495 0.0
H1073 H 0.01427 0.45906 0.84781 0.0
H1074 H 0.00905 0.46648 0.82255 0.0
H1075 H 0.00664 0.45749 0.79508 0.0
H1076 H 0.00694 0.44491 0.77224 0.0
H1077 H 0.96844 0.4289 0.76659 0.0
H1078 H 0.96833 0.44185 0.78915 0.0
H1079 H 0.97273 0.46547 0.81797 0.0
H1080 H 0.97672 0.48595 0.81491 0.0
H1081 H 0.01079 0.49605 0.79073 0.0
N1082 N 0.98661 0.45681 0.80851 0.0
H1083 H 0.00697 0.47576 0.79468 0.0
C1084 C 0.00215 0.54594 0.81293 0.0
C1085 C 0.99068 0.54253 0.81944 0.0
C1086 C 0.9895 0.54833 0.8337 0.0
C1087 C -0.00023 0.55741 0.84187 0.0
C1088 C 0.01123 0.56043 0.83574 0.0
C1089 C 0.01238 0.55479 0.82132 0.0
C1090 C 0.00177 0.54598 0.78199 0.0
C1091 C 0.01183 0.55438 0.77273 0.0
C1092 C 0.01061 0.56113 0.75992 0.0
C1093 C -0.00074 0.55962 0.75615 0.0
C1094 C 0.98907 0.5506 0.76467 0.0
C1095 C 0.9903 0.54385 0.77748 0.0
C1096 C 0.00106 0.52892 0.79751 0.0
C1097 C 0.98932 0.51917 0.79553 0.0
C1098 C 0.98707 0.50742 0.79682 0.0
C1099 C 0.99647 0.50519 0.8004 0.0
C1100 C 0.0082 0.51503 0.80235 0.0
C1101 C 0.01044 0.52674 0.80086 0.0
C1102 C 0.98992 0.4537 0.82428 0.0
C1103 C 0.98092 0.44425 0.83378 0.0
C1104 C 0.98385 0.44005 0.8482 0.0
C1105 C 0.9959 0.44518 0.85336 0.0
C1106 C 0.00492 0.45486 0.84404 0.0
C1107 C 0.00195 0.45914 0.82965 0.0
C1108 C 0.98741 0.45063 0.79378 0.0
C1109 C -0.0017 0.45149 0.7887 0.0
C1110 C -0.00155 0.44419 0.7757 0.0
C1111 C 0.98771 0.43583 0.76762 0.0
C1112 C 0.97691 0.43534 0.77233 0.0
C1113 C 0.9768 0.44269 0.78526 0.0
C1114 C 0.98945 0.46903 0.80648 0.0
C1115 C 0.98107 0.47215 0.81207 0.0
C1116 C 0.98333 0.48384 0.81014 0.0
C1117 C 0.99405 0.4927 0.80242 0.0
C1118 C 0.0025 0.48954 0.7969 0.0
C1119 C 0.00028 0.47785 0.79902 0.0
H1120 H 0.47234 0.45316 0.82078 0.0
N1121 N 0.46617 0.46157 0.79437 0.0
H1122 H 0.46063 0.4442 0.84674 0.0
H1123 H 0.44521 0.46079 0.80358 0.0
H1124 H 0.43363 0.4521 0.8294 0.0
H1125 H 0.44925 0.46262 0.77473 0.0
H1126 H 0.43588 0.44724 0.75469 0.0
H1127 H 0.46919 0.44445 0.78116 0.0
H1128 H 0.45651 0.42951 0.76013 0.0
H1129 H 0.48956 0.4722 0.78817 0.0
H1130 H 0.46071 0.4795 0.79537 0.0
H1131 H 0.50406 0.49369 0.7868 0.0
H1132 H 0.47513 0.50096 0.79498 0.0
H1133 H 0.54602 0.55067 0.80619 0.0
H1134 H 0.55731 0.56002 0.8318 0.0
H1135 H 0.52999 0.56795 0.8478 0.0
H1136 H 0.51861 0.55859 0.82173 0.0
H1137 H 0.53041 0.57017 0.78088 0.0
H1138 H 0.54614 0.58128 0.75968 0.0
H1139 H 0.55369 0.55233 0.75778 0.0
H1140 H 0.53771 0.54117 0.77824 0.0
H1141 H 0.52778 0.5311 0.80764 0.0
H1142 H 0.51311 0.50992 0.80581 0.0
H1143 H 0.48892 0.51798 0.77886 0.0
N1144 N 0.52516 0.54972 0.7959 0.0
H1145 H 0.50358 0.53942 0.78153 0.0
C1146 C 0.4597 0.45762 0.81021 0.0
C1147 C 0.46398 0.45309 0.82275 0.0
C1148 C 0.4573 0.44803 0.83757 0.0
C1149 C 0.44616 0.44737 0.84005 0.0
C1150 C 0.44209 0.45232 0.82773 0.0
C1151 C 0.44878 0.45738 0.81296 0.0
C1152 C 0.46 0.45444 0.77977 0.0
C1153 C 0.45091 0.45545 0.77154 0.0
C1154 C 0.44334 0.44669 0.7599 0.0
C1155 C 0.4449 0.43691 0.75605 0.0
C1156 C 0.45476 0.43665 0.76318 0.0
C1157 C 0.46213 0.44525 0.77503 0.0
C1158 C 0.47412 0.47424 0.79209 0.0
C1159 C 0.48638 0.47847 0.78941 0.0
C1160 C 0.49465 0.49076 0.78882 0.0
C1161 C 0.49083 0.49911 0.7911 0.0
C1162 C 0.47842 0.49482 0.7931 0.0
C1163 C 0.47013 0.48249 0.79347 0.0
C1164 C 0.53145 0.55405 0.81184 0.0
C1165 C 0.54235 0.55435 0.8151 0.0
C1166 C 0.54885 0.55973 0.82979 0.0
C1167 C 0.54459 0.56483 0.84166 0.0
C1168 C 0.53346 0.56406 0.83884 0.0
C1169 C 0.52698 0.55875 0.824 0.0
C1170 C 0.53289 0.5549 0.78126 0.0
C1171 C 0.53526 0.56612 0.77549 0.0
C1172 C 0.54434 0.5725 0.76353 0.0
C1173 C 0.55135 0.5678 0.7572 0.0
C1174 C 0.54844 0.55621 0.76221 0.0
C1175 C 0.53928 0.5498 0.77404 0.0
C1176 C 0.51673 0.53697 0.79492 0.0
C1177 C 0.51933 0.52843 0.80147 0.0
C1178 C 0.51092 0.51621 0.8002 0.0
C1179 C 0.4998 0.51218 0.79213 0.0
C1180 C 0.4973 0.52073 0.78539 0.0
C1181 C 0.50568 0.53299 0.78681 0.0
H1182 H 0.6664 0.88034 0.55097 0.0
N1183 N 0.64574 0.86053 0.56243 0.0
H1184 H 0.66895 0.89095 0.52448 0.0
H1185 H 0.62983 0.85441 0.53744 0.0
H1186 H 0.63239 0.86499 0.51055 0.0
H1187 H 0.63195 0.8681 0.57619 0.0
H1188 H 0.63789 0.88439 0.59654 0.0
H1189 H 0.66692 0.87154 0.58051 0.0
H1190 H 0.67278 0.8875 0.60128 0.0
H1191 H 0.66677 0.86197 0.55133 0.0
H1192 H 0.63275 0.83885 0.57603 0.0
H1193 H 0.67168 0.84624 0.55237 0.0
H1194 H 0.63788 0.82306 0.57789 0.0
H1195 H 0.68446 0.80198 0.53823 0.0
H1196 H 0.68216 0.79046 0.51244 0.0
H1197 H 0.64474 0.76637 0.52525 0.0
H1198 H 0.64732 0.7776 0.55124 0.0
H1199 H 0.64857 0.78097 0.58095 0.0
H1200 H 0.64847 0.76782 0.60339 0.0
H1201 H 0.68721 0.78508 0.59959 0.0
H1202 H 0.68718 0.79805 0.57715 0.0
H1203 H 0.68259 0.82002 0.56918 0.0
H1204 H 0.67725 0.83563 0.57087 0.0
H1205 H 0.6401 0.80909 0.56074 0.0
N1206 N 0.66825 0.79699 0.5625 0.0
H1207 H 0.64546 0.79355 0.55995 0.0
C1208 C 0.64785 0.86652 0.54624 0.0
C1209 C 0.65894 0.87681 0.54222 0.0
C1210 C 0.66042 0.88286 0.52696 0.0
C1211 C 0.65088 0.87881 0.5154 0.0
C1212 C 0.63988 0.86839 0.51928 0.0
C1213 C 0.63842 0.86231 0.53455 0.0
C1214 C 0.6489 0.86855 0.57676 0.0
C1215 C 0.64077 0.87213 0.58194 0.0
C1216 C 0.64419 0.88142 0.59363 0.0
C1217 C 0.65587 0.88734 0.60048 0.0
C1218 C 0.66379 0.88327 0.59604 0.0
C1219 C 0.66038 0.87402 0.58425 0.0
C1220 C 0.64924 0.85156 0.56342 0.0
C1221 C 0.66033 0.85353 0.55706 0.0
C1222 C 0.66321 0.84451 0.55786 0.0
C1223 C 0.65519 0.83334 0.56524 0.0
C1224 C 0.6442 0.83147 0.57188 0.0
C1225 C 0.64128 0.84049 0.57094 0.0
C1226 C 0.6661 0.79075 0.54659 0.0
C1227 C 0.67574 0.7943 0.53529 0.0
C1228 C 0.67437 0.78772 0.52054 0.0
C1229 C 0.66325 0.77744 0.51674 0.0
C1230 C 0.65347 0.77412 0.52787 0.0
C1231 C 0.6549 0.78065 0.5427 0.0
C1232 C 0.66792 0.7904 0.57733 0.0
C1233 C 0.65703 0.782 0.58511 0.0
C1234 C 0.65699 0.77449 0.59791 0.0
C1235 C 0.66783 0.77539 0.60323 0.0
C1236 C 0.67872 0.78425 0.59596 0.0
C1237 C 0.67874 0.79164 0.58311 0.0
C1238 C 0.66451 0.80569 0.56422 0.0
C1239 C 0.67328 0.81761 0.56748 0.0
C1240 C 0.67022 0.82651 0.56829 0.0
C1241 C 0.65826 0.82368 0.56569 0.0
C1242 C 0.64938 0.81162 0.56292 0.0
C1243 C 0.65246 0.80269 0.56229 0.0
H1244 H 0.24245 0.86486 0.54424 0.0
N1245 N 0.22182 0.85729 0.56074 0.0
H1246 H 0.2491 0.87655 0.51798 0.0
H1247 H 0.20801 0.86263 0.54038 0.0
H1248 H 0.21452 0.87421 0.51402 0.0
H1249 H 0.21521 0.87405 0.56692 0.0
H1250 H 0.2246 0.89051 0.58704 0.0
H1251 H 0.23712 0.86006 0.58525 0.0
H1252 H 0.24645 0.87647 0.60589 0.0
H1253 H 0.21679 0.83616 0.54869 0.0
H1254 H 0.20053 0.85372 0.57504 0.0
H1255 H 0.19749 0.81748 0.54867 0.0
H1256 H 0.18145 0.83497 0.57607 0.0
H1257 H 0.13911 0.76001 0.54377 0.0
H1258 H 0.12866 0.75168 0.51691 0.0
H1259 H 0.12471 0.78266 0.51038 0.0
H1260 H 0.13545 0.79102 0.53666 0.0
H1261 H 0.12611 0.78681 0.5637 0.0
H1262 H 0.10891 0.77755 0.58284 0.0
H1263 H 0.12207 0.75554 0.60381 0.0
H1264 H 0.13915 0.76464 0.58406 0.0
H1265 H 0.16455 0.78285 0.5632 0.0
H1266 H 0.18373 0.80164 0.56522 0.0
H1267 H 0.165 0.82133 0.56008 0.0
N1268 N 0.14284 0.77987 0.55915 0.0
H1269 H 0.1459 0.80252 0.5594 0.0
C1270 C 0.22479 0.86289 0.54425 0.0
C1271 C 0.23626 0.86672 0.53752 0.0
C1272 C 0.24002 0.87336 0.52251 0.0
C1273 C 0.23234 0.87635 0.51396 0.0
C1274 C 0.22068 0.87218 0.52044 0.0
C1275 C 0.21693 0.8655 0.53544 0.0
C1276 C 0.22549 0.86578 0.57455 0.0
C1277 C 0.22183 0.87433 0.57558 0.0
C1278 C 0.22719 0.88375 0.58719 0.0
C1279 C 0.23635 0.88487 0.59802 0.0
C1280 C 0.23954 0.87596 0.59757 0.0
C1281 C 0.23415 0.86652 0.58593 0.0
C1282 C 0.21026 0.84637 0.56195 0.0
C1283 C 0.20909 0.83593 0.55472 0.0
C1284 C 0.19804 0.82522 0.55486 0.0
C1285 C 0.18784 0.8246 0.56251 0.0
C1286 C 0.18902 0.83508 0.56986 0.0
C1287 C 0.20007 0.84587 0.56944 0.0
C1288 C 0.13809 0.77611 0.5423 0.0
C1289 C 0.13619 0.76508 0.53631 0.0
C1290 C 0.13011 0.76029 0.52106 0.0
C1291 C 0.12573 0.76644 0.51153 0.0
C1292 C 0.12806 0.77773 0.51725 0.0
C1293 C 0.13419 0.78253 0.53244 0.0
C1294 C 0.13391 0.77634 0.57237 0.0
C1295 C 0.12548 0.78019 0.5726 0.0
C1296 C 0.11561 0.77488 0.58367 0.0
C1297 C 0.114 0.76568 0.59476 0.0
C1298 C 0.12289 0.76242 0.59521 0.0
C1299 C 0.13272 0.76769 0.58408 0.0
C1300 C 0.15382 0.79123 0.56086 0.0
C1301 C 0.16463 0.79125 0.56265 0.0
C1302 C 0.1756 0.80203 0.56363 0.0
C1303 C 0.17603 0.8131 0.56254 0.0
C1304 C 0.16509 0.81304 0.5611 0.0
C1305 C 0.1541 0.80222 0.56045 0.0
H1306 H 0.21459 0.33684 0.54622 0.0
N1307 N 0.21619 0.35766 0.55781 0.0
H1308 H 0.22343 0.33437 0.52041 0.0
H1309 H 0.22745 0.37378 0.53334 0.0
H1310 H 0.2363 0.37129 0.50706 0.0
H1311 H 0.23733 0.37111 0.5727 0.0
H1312 H 0.24713 0.36461 0.59307 0.0
H1313 H 0.20525 0.3362 0.57507 0.0
H1314 H 0.21487 0.32974 0.59558 0.0
H1315 H 0.1963 0.33703 0.5461 0.0
H1316 H 0.20764 0.37069 0.57137 0.0
H1317 H 0.17557 0.33229 0.54732 0.0
H1318 H 0.18661 0.36573 0.57329 0.0
H1319 H 0.11864 0.31933 0.53507 0.0
H1320 H 0.10955 0.32146 0.50912 0.0
H1321 H 0.122 0.3584 0.52211 0.0
H1322 H 0.13068 0.35604 0.54818 0.0
H1323 H 0.13368 0.35519 0.57765 0.0
H1324 H 0.12094 0.35545 0.60069 0.0
H1325 H 0.09888 0.31688 0.59769 0.0
H1326 H 0.11158 0.31675 0.57461 0.0
H1327 H 0.13831 0.3213 0.56576 0.0
H1328 H 0.15943 0.32666 0.5667 0.0
H1329 H 0.17024 0.36356 0.55615 0.0
N1330 N 0.12958 0.33547 0.55933 0.0
H1331 H 0.14912 0.35814 0.55598 0.0
C1332 C 0.22033 0.35556 0.54177 0.0
C1333 C 0.21914 0.3444 0.53772 0.0
C1334 C 0.22418 0.34296 0.52284 0.0
C1335 C 0.23056 0.35263 0.51166 0.0
C1336 C 0.23152 0.3637 0.5155 0.0
C1337 C 0.22642 0.36512 0.53041 0.0
C1338 C 0.2206 0.35421 0.57227 0.0
C1339 C 0.23229 0.36217 0.57801 0.0
C1340 C 0.23785 0.35844 0.58966 0.0
C1341 C 0.23181 0.34661 0.5958 0.0
C1342 C 0.21982 0.33885 0.59087 0.0
C1343 C 0.21426 0.34259 0.57922 0.0
C1344 C 0.20367 0.35437 0.55851 0.0
C1345 C 0.1944 0.34344 0.55195 0.0
C1346 C 0.18242 0.34065 0.55284 0.0
C1347 C 0.17937 0.3486 0.56046 0.0
C1348 C 0.18863 0.35946 0.56713 0.0
C1349 C 0.20064 0.36229 0.56614 0.0
C1350 C 0.12536 0.33748 0.54351 0.0
C1351 C 0.1195 0.32791 0.53216 0.0
C1352 C 0.11437 0.32918 0.51732 0.0
C1353 C 0.11503 0.34011 0.51352 0.0
C1354 C 0.12119 0.34981 0.52475 0.0
C1355 C 0.12628 0.34851 0.53962 0.0
C1356 C 0.12345 0.33591 0.57436 0.0
C1357 C 0.12618 0.3468 0.58209 0.0
C1358 C 0.1189 0.34694 0.59524 0.0
C1359 C 0.10889 0.33619 0.60098 0.0
C1360 C 0.1066 0.32529 0.59373 0.0
C1361 C 0.11379 0.32519 0.58052 0.0
C1362 C 0.14214 0.33924 0.56063 0.0
C1363 C 0.14527 0.33055 0.56381 0.0
C1364 C 0.15734 0.33363 0.56419 0.0
C1365 C 0.16656 0.34553 0.56126 0.0
C1366 C 0.16339 0.35433 0.55856 0.0
C1367 C 0.15128 0.35123 0.55832 0.0
H1368 H 0.98496 0.3668 0.07362 0.0
H1369 H 0.9853 0.3798 0.09656 0.0
H1370 H 0.01941 0.40845 0.07818 0.0
H1371 H 0.01924 0.39551 0.05543 0.0
H1372 H 0.01882 0.40514 0.11308 0.0
H1373 H 0.97918 0.4078 0.09177 0.0
H1374 H 0.97651 0.39288 0.09468 0.0
H1375 H 0.98665 0.40224 0.07829 0.0
C1376 C 0.99253 0.37587 0.07449 0.0
C1377 C 0.00205 0.38014 0.06268 0.0
C1378 C 0.99267 0.38331 0.08752 0.0
C1379 C 0.00228 0.39515 0.08889 0.0
C1380 C 0.01188 0.39936 0.07729 0.0
H1381 H 0.02431 0.45715 0.15253 0.0
H1382 H 0.02186 0.4428 0.1304 0.0
C1383 C 0.01176 0.39194 0.0643 0.0
C1384 C 0.00253 0.40317 0.10255 0.0
H1385 H 0.98806 0.41731 0.11777 0.0
C1386 C 0.0121 0.4078 0.11411 0.0
C1387 C 0.99372 0.40659 0.10387 0.0
C1388 C 0.98348 0.40222 0.09143 0.0
C1389 C 0.0131 0.41576 0.12697 0.0
C1390 C 0.00441 0.41933 0.12813 0.0
C1391 C 0.99472 0.41456 0.11678 0.0
C1392 C 0.0054 0.4282 0.14091 0.0
C1393 C 0.02341 0.42022 0.13932 0.0
C1394 C 0.99672 0.42485 0.15379 0.0
C1395 C -0.0019 0.43302 0.16648 0.0
C1396 C 0.00817 0.44471 0.16645 0.0
C1397 C 0.01658 0.44815 0.15311 0.0
C1398 C 0.01519 0.43998 0.14045 0.0
H1399 H 0.02748 0.41443 0.13935 0.0
H1400 H 0.03052 0.4294 0.13564 0.0
H1401 H 0.02038 0.42061 0.15241 0.0
H1402 H 0.98907 0.4158 0.15429 0.0
H1403 H 0.99152 0.43005 0.17665 0.0
H1404 H 0.63014 0.62002 0.06042 0.0
H1405 H 0.62202 0.60569 0.08396 0.0
H1406 H 0.58632 0.59885 0.07303 0.0
H1407 H 0.59428 0.61305 0.04952 0.0
H1408 H 0.60835 0.60574 0.11299 0.0
H1409 H 0.58292 0.56519 0.0729 0.0
H1410 H 0.59475 0.5793 0.06455 0.0
H1411 H 0.58 0.57709 0.06842 0.0
C1412 C 0.62057 0.61548 0.06303 0.0
C1413 C 0.61286 0.61765 0.05301 0.0
C1414 C 0.61595 0.6073 0.07648 0.0
C1415 C 0.60355 0.60109 0.08003 0.0
C1416 C 0.59588 0.6034 0.07028 0.0
H1417 H 0.56436 0.56254 0.16969 0.0
H1418 H 0.57349 0.5764 0.14586 0.0
C1419 C 0.60048 0.61158 0.0569 0.0
C1420 C 0.59859 0.59227 0.09404 0.0
H1421 H 0.57892 0.56274 0.10257 0.0
C1422 C 0.60197 0.59632 0.11074 0.0
C1423 C 0.59038 0.57998 0.091 0.0
C1424 C 0.58686 0.57507 0.07325 0.0
C1425 C 0.59708 0.58844 0.12456 0.0
C1426 C 0.58851 0.57624 0.12155 0.0
C1427 C 0.5854 0.57213 0.10483 0.0
C1428 C 0.58266 0.56761 0.13563 0.0
C1429 C 0.60116 0.59321 0.14225 0.0
C1430 C 0.5845 0.55788 0.13745 0.0
C1431 C 0.57921 0.54988 0.15098 0.0
C1432 C 0.5719 0.55143 0.16284 0.0
C1433 C 0.56984 0.56103 0.1607 0.0
C1434 C 0.57517 0.56904 0.14721 0.0
H1435 H 0.60977 0.60192 0.14213 0.0
H1436 H 0.59422 0.59461 0.14848 0.0
H1437 H 0.60233 0.58673 0.15002 0.0
H1438 H 0.59017 0.55657 0.12854 0.0
H1439 H 0.58085 0.5425 0.15217 0.0
H1440 H 0.38374 0.9826 0.04672 0.0
H1441 H 0.39636 0.98631 0.07153 0.0
H1442 H 0.39511 0.01832 0.08259 0.0
H1443 H 0.38221 0.01455 0.05787 0.0
H1444 H 0.41865 0.0056 0.07822 0.0
H1445 H 0.38582 0.00099 0.128 0.0
H1446 H 0.38143 0.99625 0.10636 0.0
H1447 H 0.38858 0.01186 0.11185 0.0
C1448 C 0.38607 0.99041 0.05445 0.0
C1449 C 0.38191 0.99826 0.05032 0.0
C1450 C 0.39332 0.99252 0.06863 0.0
C1451 C 0.39657 0.00251 0.07903 0.0
C1452 C 0.39251 0.01042 0.07494 0.0
H1453 H 0.44145 0.02593 0.16997 0.0
H1454 H 0.43003 0.02529 0.14481 0.0
C1455 C 0.38518 0.00828 0.06076 0.0
C1456 C 0.40445 0.00468 0.09387 0.0
H1457 H 0.40546 0.00666 0.13713 0.0
C1458 C 0.41577 0.00585 0.0911 0.0
C1459 C 0.40068 0.00504 0.11066 0.0
C1460 C 0.38843 0.00337 0.11449 0.0
C1461 C 0.4234 0.00728 0.10465 0.0
C1462 C 0.41955 0.00743 0.12142 0.0
C1463 C 0.40836 0.00655 0.12422 0.0
C1464 C 0.42681 0.00802 0.13628 0.0
C1465 C 0.43553 0.00863 0.10095 0.0
C1466 C 0.42871 0.99849 0.1398 0.0
C1467 C 0.43521 -0.00118 0.15413 0.0
C1468 C 0.43993 0.0087 0.16519 0.0
C1469 C 0.43806 0.01827 0.16156 0.0
C1470 C 0.43149 0.01789 0.14727 0.0
H1471 H 0.43832 0.01121 0.08754 0.0
H1472 H 0.44255 0.01546 0.10938 0.0
H1473 H 0.43506 -5e-05 0.10332 0.0
H1474 H 0.42503 0.99071 0.13156 0.0
H1475 H 0.43655 0.99134 0.15655 0.0
H1476 H 0.39559 0.01905 0.97026 0.0
H1477 H 0.40785 0.01816 0.94705 0.0
H1478 H 0.37751 0.98492 0.92988 0.0
H1479 H 0.36518 0.98574 0.95295 0.0
H1480 H 0.4129 -0.00058 0.94097 0.0
H1481 H 0.3895 0.00591 0.88669 0.0
H1482 H 0.38783 0.00963 0.90826 0.0
H1483 H 0.37971 0.99432 0.90122 0.0
C1484 C 0.3915 0.0116 0.96146 0.0
C1485 C 0.37941 0.00247 0.96341 0.0
C1486 C 0.39852 0.0111 0.94824 0.0
C1487 C 0.39354 0.00154 0.93668 0.0
C1488 C 0.38146 0.99247 0.93852 0.0
H1489 H 0.42753 0.97466 0.86928 0.0
H1490 H 0.41702 0.97818 0.89255 0.0
C1491 C 0.37445 0.99294 0.95175 0.0
C1492 C 0.40108 0.00078 0.92306 0.0
H1493 H 0.40342 -0.00049 0.88005 0.0
C1494 C 0.41089 -0.00048 0.92764 0.0
C1495 C 0.39849 0.00104 0.90572 0.0
C1496 C 0.38838 0.00291 0.90011 0.0
C1497 C 0.41802 0.99819 0.91528 0.0
C1498 C 0.41514 0.99798 0.89795 0.0
C1499 C 0.40553 -0.00043 0.89337 0.0
C1500 C 0.42192 0.99604 0.88432 0.0
C1501 C 0.42859 0.99707 0.92085 0.0
C1502 C 0.42802 0.00484 0.8719 0.0
C1503 C 0.43394 0.00282 0.85855 0.0
C1504 C 0.43381 0.99191 0.8573 0.0
C1505 C 0.42774 0.98313 0.86984 0.0
C1506 C 0.42184 0.98517 0.88323 0.0
H1507 H 0.4314 0.00043 0.93399 0.0
H1508 H 0.42603 0.98749 0.92054 0.0
H1509 H 0.43641 0.0021 0.91219 0.0
H1510 H 0.4281 0.01325 0.87247 0.0
H1511 H 0.43836 0.00969 0.84894 0.0
H1512 H 0.01167 0.38068 0.96656 0.0
H1513 H 0.01572 0.39443 0.94272 0.0
H1514 H 0.9876 0.40061 0.96043 0.0
H1515 H 0.98354 0.38708 0.98416 0.0
H1516 H -0.0004 0.39301 0.91712 0.0
H1517 H 0.01657 0.43462 0.95473 0.0
H1518 H 0.01555 0.42118 0.96319 0.0
H1519 H 0.00243 0.42271 0.96253 0.0
C1520 C 0.00637 0.385 0.96539 0.0
C1521 C 0.99731 0.38281 0.97734 0.0
C1522 C 0.00871 0.39285 0.95179 0.0
C1523 C 0.00212 0.39872 0.95003 0.0
C1524 C 0.99298 0.3964 0.96178 0.0
H1525 H 0.98444 0.43838 0.88405 0.0
H1526 H 0.98807 0.42796 0.90701 0.0
C1527 C 0.99062 0.38858 0.97529 0.0
C1528 C 0.00432 0.40693 0.93563 0.0
H1529 H 0.0095 0.43496 0.92663 0.0
C1530 C 0.00201 0.40226 0.91911 0.0
C1531 C 0.00752 0.41901 0.93829 0.0
C1532 C 0.01078 0.42472 0.95563 0.0
C1533 C 0.00203 0.40911 0.9053 0.0
C1534 C 0.00458 0.42097 0.90813 0.0
C1535 C 0.00749 0.42584 0.92452 0.0
C1536 C 0.00314 0.42806 0.89458 0.0
C1537 C -0.00133 0.4034 0.88795 0.0
C1538 C 0.01061 0.43182 0.88017 0.0
C1539 C 0.00854 0.43778 0.86698 0.0
C1540 C -0.00105 0.44003 0.86802 0.0
C1541 C 0.99179 0.43662 0.88277 0.0
C1542 C 0.99389 0.43073 0.89594 0.0
H1543 H 0.99515 0.3936 0.88842 0.0
H1544 H 0.99175 0.40496 0.88211 0.0
H1545 H 0.00674 0.40755 0.8796 0.0
H1546 H 0.01789 0.42997 0.87899 0.0
H1547 H 0.01417 0.44023 0.85574 0.0
H1548 H 0.61244 0.60506 0.97445 0.0
H1549 H 0.59853 0.59372 0.95154 0.0
H1550 H 0.60188 0.62634 0.93183 0.0
H1551 H 0.61548 0.63768 0.95504 0.0
H1552 H 0.57884 0.60863 0.93241 0.0
H1553 H 0.60682 0.59208 0.90276 0.0
H1554 H 0.60351 0.588 0.92469 0.0
H1555 H 0.61257 0.60355 0.91888 0.0
C1556 C 0.61027 0.60983 0.96518 0.0
C1557 C 0.6151 0.62227 0.96649 0.0
C1558 C 0.60236 0.60334 0.95204 0.0
C1559 C 0.59933 0.60921 0.93979 0.0
C1560 C 0.60413 0.62163 0.94111 0.0
H1561 H 0.56839 0.58169 0.84159 0.0
H1562 H 0.58109 0.59236 0.86584 0.0
C1563 C 0.61192 0.6281 0.95435 0.0
C1564 C 0.59099 0.60241 0.92574 0.0
H1565 H 0.58689 0.5838 0.89246 0.0
C1566 C 0.58061 0.60322 0.92364 0.0
C1567 C 0.59338 0.59546 0.91421 0.0
C1568 C 0.60473 0.59479 0.91511 0.0
C1569 C 0.57254 0.59728 0.91031 0.0
C1570 C 0.57476 0.59006 0.89905 0.0
C1571 C 0.58514 0.58924 0.90119 0.0
C1572 C 0.56679 0.58373 0.88446 0.0
C1573 C 0.56194 0.59909 0.90813 0.0
C1574 C 0.55451 0.57532 0.88684 0.0
C1575 C 0.54719 0.56929 0.87292 0.0
C1576 C 0.55211 0.57141 0.85647 0.0
C1577 C 0.5644 0.57979 0.85416 0.0
C1578 C 0.57165 0.5859 0.86799 0.0
H1579 H 0.56337 0.60731 0.91473 0.0
H1580 H 0.56021 0.59977 0.89451 0.0
H1581 H 0.55378 0.59133 0.91367 0.0
H1582 H 0.55062 0.57328 0.89946 0.0
H1583 H 0.53777 0.56278 0.87505 0.0
H1584 H 0.00177 0.63043 0.95787 0.0
H1585 H 0.00347 0.62093 0.93184 0.0
H1586 H 0.98343 0.58623 0.95568 0.0
H1587 H 0.98139 0.59555 0.98139 0.0
H1588 H 0.0135 0.60754 0.92532 0.0
H1589 H 0.96467 0.58049 0.91269 0.0
H1590 H 0.97087 0.59234 0.92828 0.0
H1591 H 0.96818 0.57763 0.9335 0.0
C1592 C -0.00229 0.62078 0.95753 0.0
C1593 C 0.99132 0.61374 0.97163 0.0
C1594 C -0.00132 0.61536 0.94266 0.0
C1595 C 0.99331 0.60284 0.94166 0.0
C1596 C 0.9873 0.59587 0.95594 0.0
H1597 H 0.01069 0.56167 0.87271 0.0
H1598 H 0.0092 0.57318 0.89636 0.0
C1599 C 0.98622 0.60123 0.97069 0.0
C1600 C 0.99413 0.59699 0.92589 0.0
H1601 H 0.97714 0.57451 0.89799 0.0
C1602 C 0.00555 0.6004 0.91922 0.0
C1603 C 0.98374 0.58786 0.9177 0.0
C1604 C 0.97118 0.58446 0.9233 0.0
C1605 C 0.00688 0.59461 0.90499 0.0
C1606 C 0.99653 0.5849 0.89755 0.0
C1607 C 0.9851 0.58181 0.90384 0.0
C1608 C 0.99732 0.57776 0.88332 0.0
C1609 C 0.01938 0.59909 0.89798 0.0
C1610 C 0.99069 0.57601 0.86841 0.0
C1611 C 0.99129 0.56918 0.85508 0.0
C1612 C -0.00139 0.56406 0.85637 0.0
C1613 C 0.0051 0.56566 0.87135 0.0
C1614 C 0.00434 0.57232 0.88479 0.0
H1615 H 0.02553 0.60867 0.90123 0.0
H1616 H 0.02314 0.59386 0.90365 0.0
H1617 H 0.01927 0.59811 0.88397 0.0
H1618 H 0.98515 0.58004 0.86701 0.0
H1619 H 0.98626 0.56813 0.8436 0.0
H1620 H 0.36822 0.38857 0.95825 0.0
H1621 H 0.38041 0.40136 0.9347 0.0
H1622 H 0.40726 0.39158 0.94413 0.0
H1623 H 0.39515 0.37876 0.96765 0.0
H1624 H 0.40531 0.42113 0.93588 0.0
H1625 H 0.39857 0.38412 0.89285 0.0
H1626 H 0.38887 0.3818 0.91083 0.0
H1627 H 0.40345 0.38349 0.91395 0.0
C1628 C 0.3767 0.38911 0.95528 0.0
C1629 C 0.3807 0.38262 0.96475 0.0
C1630 C 0.38366 0.39644 0.94186 0.0
C1631 C 0.39465 0.3973 0.93762 0.0
C1632 C 0.39871 0.3909 0.9471 0.0
H1633 H 0.45302 0.44831 0.87318 0.0
H1634 H 0.44036 0.43661 0.89718 0.0
C1635 C 0.3918 0.38361 0.96056 0.0
C1636 C 0.40193 0.40493 0.9233 0.0
H1637 H 0.41282 0.40387 0.88417 0.0
C1638 C 0.40695 0.41739 0.92454 0.0
C1639 C 0.40392 0.39997 0.9085 0.0
C1640 C 0.39835 0.3866 0.9063 0.0
C1641 C 0.4141 0.42505 0.91142 0.0
C1642 C 0.41633 0.4201 0.89681 0.0
C1643 C 0.41115 0.40763 0.89547 0.0
C1644 C 0.42391 0.42765 0.88261 0.0
C1645 C 0.4191 0.43836 0.91318 0.0
C1646 C 0.41885 0.42639 0.86649 0.0
C1647 C 0.42605 0.43299 0.85278 0.0
C1648 C 0.43847 0.44093 0.85491 0.0
C1649 C 0.4435 0.44224 0.87113 0.0
C1650 C 0.43627 0.43565 0.88487 0.0
H1651 H 0.41442 0.44045 0.92332 0.0
H1652 H 0.42879 0.44279 0.91647 0.0
H1653 H 0.41833 0.44225 0.90104 0.0
H1654 H 0.40935 0.42019 0.86448 0.0
H1655 H 0.42194 0.43163 0.8404 0.0
H1656 H 0.61866 0.98532 0.96522 0.0
H1657 H 0.60494 0.98108 0.94136 0.0
H1658 H 0.60093 0.01106 0.95566 0.0
H1659 H 0.61447 0.0153 0.97951 0.0
H1660 H 0.57904 0.98987 0.94996 0.0
H1661 H 0.61134 3e-05 0.89676 0.0
H1662 H 0.61074 0.98955 0.91221 0.0
H1663 H 0.61617 0.00484 0.91827 0.0
C1664 C 0.61494 0.99107 0.96321 0.0
C1665 C 0.61769 0.00065 0.9743 0.0
C1666 C 0.60714 0.98866 0.94953 0.0
C1667 C 0.602 0.99582 0.94667 0.0
C1668 C 0.6048 0.00543 0.95763 0.0
H1669 H 0.56499 0.00091 0.85877 0.0
H1670 H 0.57856 0.00449 0.88252 0.0
C1671 C 0.61258 0.00785 0.97126 0.0
C1672 C 0.59338 0.99315 0.93265 0.0
H1673 H 0.59087 0.99207 0.88949 0.0
C1674 C 0.58161 0.99032 0.93673 0.0
C1675 C 0.59681 0.99388 0.91542 0.0
C1676 C 0.60947 0.99734 0.91032 0.0
C1677 C 0.57314 0.98818 0.92404 0.0
C1678 C 0.57652 0.98873 0.90682 0.0
C1679 C 0.5883 0.99159 0.90272 0.0
C1680 C 0.56801 0.9866 0.89284 0.0
C1681 C 0.56075 0.98561 0.92915 0.0
C1682 C 0.55757 0.97536 0.89081 0.0
C1683 C 0.54975 0.9733 0.87732 0.0
C1684 C 0.55225 0.98245 0.86557 0.0
C1685 C 0.56269 0.99373 0.86774 0.0
C1686 C 0.57051 0.99576 0.88121 0.0
H1687 H 0.5605 0.98827 0.9425 0.0
H1688 H 0.55767 0.99039 0.92074 0.0
H1689 H 0.55428 0.97585 0.92798 0.0
H1690 H 0.55556 0.96811 0.89952 0.0
H1691 H 0.54176 0.96454 0.87606 0.0
H1692 H 0.60248 0.97896 0.05084 0.0
H1693 H 0.58905 0.97914 0.07273 0.0
H1694 H 0.61818 0.01212 0.09281 0.0
H1695 H 0.63174 0.01199 0.07099 0.0
H1696 H 0.60453 0.99427 0.11759 0.0
H1697 H 0.57529 0.00184 0.07408 0.0
H1698 H 0.57723 0.98948 0.06829 0.0
H1699 H 0.58996 0.00448 0.06785 0.0
C1700 C 0.60605 0.98625 0.05991 0.0
C1701 C 0.61816 0.99549 0.05914 0.0
C1702 C 0.59834 0.98638 0.07234 0.0
C1703 C 0.60258 0.99576 0.08417 0.0
C1704 C 0.61473 0.00486 0.08368 0.0
H1705 H 0.56796 0.00729 0.17214 0.0
H1706 H 0.58222 0.00996 0.14956 0.0
C1707 C 0.62245 0.00476 0.07123 0.0
C1708 C 0.59438 0.9959 0.09726 0.0
H1709 H 0.56842 0.99662 0.10256 0.0
C1710 C 0.59669 0.9949 0.11436 0.0
C1711 C 0.58417 0.99671 0.09294 0.0
C1712 C 0.58153 0.9983 0.07481 0.0
C1713 C 0.58884 0.99427 0.12726 0.0
C1714 C 0.57854 0.99493 0.12292 0.0
C1715 C 0.57633 0.99612 0.10583 0.0
C1716 C 0.5697 0.99392 0.13589 0.0
C1717 C 0.59141 0.9925 0.14534 0.0
C1718 C 0.5578 0.98431 0.13527 0.0
C1719 C 0.54959 0.98285 0.14801 0.0
C1720 C 0.55311 0.991 0.1616 0.0
C1721 C 0.56493 0.00089 0.16181 0.0
C1722 C 0.57314 0.00235 0.14903 0.0
H1723 H 0.59798 0.98936 0.14602 0.0
H1724 H 0.59527 0.00116 0.15223 0.0
H1725 H 0.58301 0.98591 0.15199 0.0
H1726 H 0.55495 0.97776 0.12514 0.0
H1727 H 0.5405 0.97525 0.14733 0.0
H1728 H 0.01502 0.62346 0.05211 0.0
H1729 H 0.01464 0.61056 0.07508 0.0
H1730 H 0.97984 0.60427 0.09111 0.0
H1731 H 0.9801 0.61708 0.06816 0.0
H1732 H 0.01199 0.61268 0.111 0.0
H1733 H 0.97489 0.57027 0.08424 0.0
H1734 H 0.98326 0.58372 0.07174 0.0
H1735 H 0.97169 0.58222 0.0861 0.0
C1736 C 0.00729 0.61934 0.06054 0.0
C1737 C 0.99755 0.62123 0.05827 0.0
C1738 C 0.0071 0.61199 0.07365 0.0
C1739 C 0.99713 0.60633 0.08459 0.0
C1740 C 0.98752 0.6084 0.08259 0.0
H1741 H 0.97613 0.55853 0.17027 0.0
H1742 H 0.97748 0.57124 0.14649 0.0
C1743 C 0.98772 0.61577 0.06953 0.0
C1744 C 0.9968 0.59831 0.09817 0.0
H1745 H 0.98118 0.56937 0.11214 0.0
C1746 C 0.00531 0.60319 0.11123 0.0
C1747 C 0.98807 0.58595 0.09837 0.0
C1748 C 0.97901 0.58017 0.0843 0.0
C1749 C 0.00512 0.59609 0.12479 0.0
C1750 C 0.99633 0.58373 0.12506 0.0
C1751 C 0.9879 0.57884 0.11189 0.0
C1752 C 0.99552 0.57578 0.13912 0.0
C1753 C 0.01409 0.60194 0.13896 0.0
C1754 C 0.00512 0.57393 0.14264 0.0
C1755 C 0.00437 0.56665 0.15621 0.0
C1756 C 0.99394 0.56098 0.16639 0.0
C1757 C 0.98423 0.56264 0.16255 0.0
C1758 C 0.98501 0.56995 0.14903 0.0
H1759 H 0.01817 0.61184 0.13896 0.0
H1760 H 0.00979 0.59841 0.1515 0.0
H1761 H 0.02146 0.59995 0.13732 0.0
H1762 H 0.0132 0.57813 0.1349 0.0
H1763 H 0.01192 0.5654 0.1587 0.0
H1764 H 0.38909 0.40318 0.04938 0.0
H1765 H 0.40323 0.4103 0.07295 0.0
H1766 H 0.39555 0.37428 0.08221 0.0
H1767 H 0.38126 0.36698 0.05859 0.0
H1768 H 0.39582 0.38719 0.11189 0.0
H1769 H 0.4367 0.41319 0.07217 0.0
H1770 H 0.42502 0.41655 0.06811 0.0
H1771 H 0.42247 0.40183 0.06351 0.0
C1772 C 0.39036 0.39673 0.0564 0.0
C1773 C 0.38407 0.3845 0.05201 0.0
C1774 C 0.39851 0.40084 0.06982 0.0
C1775 C 0.40059 0.39285 0.07909 0.0
C1776 C 0.39413 0.3806 0.07508 0.0
H1777 H 0.45993 0.41755 0.1515 0.0
H1778 H 0.44592 0.40712 0.12815 0.0
C1779 C 0.38597 0.37645 0.0616 0.0
C1780 C 0.40941 0.39736 0.09311 0.0
H1781 H 0.43894 0.41714 0.10195 0.0
C1782 C 0.40527 0.39364 0.10973 0.0
C1783 C 0.42176 0.40564 0.0902 0.0
C1784 C 0.4268 0.40947 0.07252 0.0
C1785 C 0.41309 0.3984 0.12362 0.0
C1786 C 0.4253 0.40718 0.12077 0.0
C1787 C 0.42954 0.41051 0.1041 0.0
C1788 C 0.43372 0.41335 0.13495 0.0
C1789 C 0.4082 0.39403 0.14123 0.0
C1790 C 0.43158 0.42044 0.1463 0.0
C1791 C 0.43953 0.42638 0.1596 0.0
C1792 C 0.44983 0.4254 0.16177 0.0
C1793 C 0.45202 0.41839 0.15025 0.0
C1794 C 0.44406 0.41247 0.13689 0.0
H1795 H 0.39979 0.38514 0.14092 0.0
H1796 H 0.41492 0.39335 0.14919 0.0
H1797 H 0.4061 0.40049 0.14735 0.0
H1798 H 0.42375 0.42141 0.14484 0.0
H1799 H 0.4375 0.43159 0.16836 0.0
H1800 H 0.6792 0.72916 0.38461 0.0
H1801 H 0.67813 0.74102 0.40811 0.0
H1802 H 0.64641 0.70976 0.42736 0.0
H1803 H 0.64732 0.69781 0.40382 0.0
H1804 H 0.65502 0.74219 0.41744 0.0
H1805 H 0.67315 0.7252 0.46725 0.0
H1806 H 0.67663 0.72518 0.44501 0.0
H1807 H 0.66195 0.71456 0.45292 0.0
C1808 C 0.67201 0.72479 0.39386 0.0
C1809 C 0.66335 0.71254 0.39238 0.0
C1810 C 0.67141 0.73159 0.40723 0.0
C1811 C 0.66223 0.72622 0.41942 0.0
C1812 C 0.65359 0.71401 0.41806 0.0
H1813 H 0.65061 0.75292 0.51447 0.0
H1814 H 0.64938 0.74051 0.49033 0.0
C1815 C 0.65412 0.70722 0.40462 0.0
C1816 C 0.66166 0.73345 0.43355 0.0
H1817 H 0.66739 0.73902 0.4758 0.0
C1818 C 0.6577 0.74153 0.43023 0.0
C1819 C 0.66509 0.73244 0.45015 0.0
C1820 C 0.66951 0.72393 0.45418 0.0
C1821 C 0.65701 0.74863 0.4432 0.0
C1822 C 0.6607 0.74782 0.4598 0.0
C1823 C 0.66457 0.73964 0.46308 0.0
C1824 C 0.66079 0.75546 0.47394 0.0
C1825 C 0.65211 0.75672 0.43905 0.0
C1826 C 0.66757 0.768 0.47275 0.0
C1827 C 0.66813 0.77515 0.48645 0.0
C1828 C 0.66205 0.76989 0.50174 0.0
C1829 C 0.65522 0.75731 0.50283 0.0
C1830 C 0.65459 0.75018 0.48908 0.0
H1831 H 0.64633 0.75359 0.42758 0.0
H1832 H 0.64677 0.75722 0.44979 0.0
H1833 H 0.65972 0.76588 0.43643 0.0
H1834 H 0.67265 0.77229 0.46134 0.0
H1835 H 0.67339 0.7848 0.48509 0.0
H1836 H 0.25813 0.94632 0.38531 0.0
H1837 H 0.24999 0.93239 0.40914 0.0
H1838 H 0.28558 0.93923 0.42088 0.0
H1839 H 0.29388 0.95328 0.39708 0.0
H1840 H 0.25146 0.91148 0.41397 0.0
H1841 H 0.27274 0.9442 0.46661 0.0
H1842 H 0.27171 0.94869 0.44531 0.0
H1843 H 0.28289 0.94482 0.45035 0.0
C1844 C 0.26427 0.94495 0.393 0.0
C1845 C 0.27668 0.95096 0.38929 0.0
C1846 C 0.25958 0.93696 0.4066 0.0
C1847 C 0.26719 0.93487 0.41684 0.0
C1848 C 0.27958 0.94086 0.41326 0.0
H1849 H 0.24576 0.8757 0.4873 0.0
H1850 H 0.25411 0.8897 0.46345 0.0
C1851 C 0.2843 0.94886 0.39962 0.0
C1852 C 0.26205 0.92615 0.43096 0.0
H1853 H 0.26202 0.92364 0.47406 0.0
C1854 C 0.25376 0.91412 0.42711 0.0
C1855 C 0.26499 0.92967 0.44807 0.0
C1856 C 0.27349 0.94256 0.45293 0.0
C1857 C 0.24839 0.90548 0.43996 0.0
C1858 C 0.2515 0.90896 0.45706 0.0
C1859 C 0.25972 0.921 0.46091 0.0
C1860 C 0.2462 0.90027 0.47119 0.0
C1861 C 0.23927 0.89275 0.43518 0.0
C1862 C 0.2391 0.90166 0.48351 0.0
C1863 C 0.23438 0.89372 0.49718 0.0
C1864 C 0.23675 0.8843 0.49885 0.0
C1865 C 0.24383 0.8829 0.48641 0.0
C1866 C 0.24852 0.89083 0.47272 0.0
H1867 H 0.23586 0.89213 0.42208 0.0
H1868 H 0.24356 0.88717 0.43584 0.0
H1869 H 0.23152 0.88892 0.44413 0.0
H1870 H 0.23727 0.90894 0.48259 0.0
H1871 H 0.22913 0.89516 0.50668 0.0
H1872 H 0.05651 0.3198 0.3775 0.0
H1873 H 0.06925 0.32367 0.40229 0.0
H1874 H 0.0607 0.35004 0.42001 0.0
H1875 H 0.04788 0.34626 0.39516 0.0
H1876 H 0.08974 0.34722 0.4128 0.0
H1877 H 0.0527 0.32588 0.46054 0.0
H1878 H 0.05017 0.32258 0.43815 0.0
H1879 H 0.05252 0.33658 0.44619 0.0
C1880 C 0.05729 0.32641 0.38666 0.0
C1881 C 0.05112 0.33269 0.38436 0.0
C1882 C 0.06461 0.32862 0.40079 0.0
C1883 C 0.06584 0.33707 0.41298 0.0
C1884 C 0.05976 0.3434 0.41078 0.0
H1885 H 0.10226 0.3517 0.51079 0.0
H1886 H 0.09132 0.35259 0.48613 0.0
C1887 C 0.05246 0.34124 0.39656 0.0
C1888 C 0.07355 0.3392 0.42794 0.0
H1889 H 0.0725 0.33394 0.47047 0.0
C1890 C 0.086 0.3444 0.42545 0.0
C1891 C 0.06863 0.33557 0.44438 0.0
C1892 C 0.05527 0.32977 0.4476 0.0
C1893 C 0.09369 0.34595 0.439 0.0
C1894 C 0.08872 0.34191 0.45537 0.0
C1895 C 0.07629 0.33701 0.45791 0.0
C1896 C 0.09612 0.34215 0.46988 0.0
C1897 C 0.10705 0.35197 0.43566 0.0
C1898 C 0.10248 0.33599 0.46893 0.0
C1899 C 0.10886 0.33559 0.48293 0.0
C1900 C 0.1089 0.3412 0.49826 0.0
C1901 C 0.10259 0.34745 0.49912 0.0
C1902 C 0.09625 0.34789 0.48507 0.0
H1903 H 0.10971 0.35787 0.42432 0.0
H1904 H 0.11231 0.3574 0.44671 0.0
H1905 H 0.10949 0.34502 0.43318 0.0
H1906 H 0.10229 0.33127 0.45747 0.0
H1907 H 0.1137 0.33079 0.48177 0.0
H1908 H 0.03329 0.32089 0.28541 0.0
H1909 H 0.04494 0.31911 0.26211 0.0
H1910 H 0.07751 0.34856 0.28265 0.0
H1911 H 0.06593 0.35049 0.30598 0.0
H1912 H 0.06264 0.33982 0.23846 0.0
H1913 H 0.08214 0.31789 0.27724 0.0
H1914 H 0.06823 0.31723 0.28309 0.0
H1915 H 0.0823 0.33092 0.28573 0.0
C1916 C 0.04292 0.32702 0.28494 0.0
C1917 C 0.0487 0.3358 0.29756 0.0
C1918 C 0.04955 0.326 0.27163 0.0
C1919 C 0.06206 0.33365 0.27081 0.0
C1920 C 0.06786 0.34253 0.2832 0.0
H1921 H 0.11435 0.33093 0.20275 0.0
H1922 H 0.10481 0.3357 0.226 0.0
C1923 C 0.06122 0.34363 0.29646 0.0
C1924 C 0.06902 0.33221 0.257 0.0
H1925 H 0.08744 0.32104 0.24832 0.0
C1926 C 0.06811 0.33577 0.24057 0.0
C1927 C 0.07619 0.32701 0.25993 0.0
C1928 C 0.0773 0.32297 0.27741 0.0
C1929 C 0.07419 0.3342 0.22687 0.0
C1930 C 0.08105 0.32861 0.22966 0.0
C1931 C 0.08214 0.32528 0.2462 0.0
C1932 C 0.08686 0.32579 0.21552 0.0
C1933 C 0.0733 0.33868 0.20959 0.0
C1934 C 0.07991 0.31848 0.20206 0.0
C1935 C 0.08534 0.31586 0.18867 0.0
C1936 C 0.09784 0.32035 0.18857 0.0
C1937 C 0.10474 0.32747 0.20228 0.0
C1938 C 0.0993 0.33015 0.21563 0.0
H1939 H 0.07108 0.34592 0.21059 0.0
H1940 H 0.08184 0.34214 0.20234 0.0
H1941 H 0.06599 0.3312 0.20232 0.0
H1942 H 0.07025 0.31477 0.20191 0.0
H1943 H 0.07975 0.31047 0.17826 0.0
H1944 H 0.67903 0.71452 0.29806 0.0
H1945 H 0.68535 0.72902 0.27477 0.0
H1946 H 0.65646 0.73549 0.28692 0.0
H1947 H 0.6501 0.72113 0.31017 0.0
H1948 H 0.67175 0.72919 0.24621 0.0
H1949 H 0.68697 0.76926 0.28713 0.0
H1950 H 0.68454 0.75514 0.29514 0.0
H1951 H 0.67196 0.75726 0.29165 0.0
C1952 C 0.67401 0.71901 0.29577 0.0
C1953 C 0.66409 0.71669 0.30607 0.0
C1954 C 0.67764 0.72729 0.28246 0.0
C1955 C 0.67149 0.73346 0.27933 0.0
C1956 C 0.66146 0.73099 0.28934 0.0
H1957 H 0.67022 0.77193 0.19091 0.0
H1958 H 0.66577 0.75801 0.21445 0.0
C1959 C 0.65781 0.72271 0.30258 0.0
C1960 C 0.67542 0.74241 0.26549 0.0
H1961 H 0.68517 0.77189 0.25761 0.0
C1962 C 0.67477 0.73854 0.24868 0.0
C1963 C 0.67949 0.75463 0.26879 0.0
C1964 C 0.6809 0.75938 0.28666 0.0
C1965 C 0.67772 0.74651 0.23502 0.0
C1966 C 0.68128 0.75862 0.2383 0.0
C1967 C 0.6823 0.76257 0.25514 0.0
C1968 C 0.6839 0.7673 0.22441 0.0
C1969 C 0.67705 0.74193 0.2172 0.0
C1970 C 0.69546 0.77736 0.22256 0.0
C1971 C 0.69801 0.78541 0.2092 0.0
C1972 C 0.689 0.78358 0.19754 0.0
C1973 C 0.67733 0.77366 0.19974 0.0
C1974 C 0.67481 0.76561 0.21306 0.0
H1975 H 0.67718 0.73341 0.21705 0.0
H1976 H 0.66853 0.74022 0.21127 0.0
H1977 H 0.68466 0.74865 0.20933 0.0
H1978 H 0.70256 0.77888 0.23129 0.0
H1979 H 0.70704 0.79304 0.20796 0.0
H1980 H 0.28157 0.97013 0.28921 0.0
H1981 H 0.26794 0.95838 0.26624 0.0
H1982 H 0.26195 0.92578 0.28996 0.0
H1983 H 0.27595 0.93752 0.31257 0.0
H1984 H 0.26474 0.92477 0.25718 0.0
H1985 H 0.23201 0.93986 0.26786 0.0
H1986 H 0.24686 0.95224 0.26393 0.0
H1987 H 0.24395 0.94313 0.28259 0.0
C1988 C 0.27734 0.96046 0.28951 0.0
C1989 C 0.27977 0.95474 0.30272 0.0
C1990 C 0.26947 0.95374 0.27646 0.0
C1991 C 0.26367 0.94117 0.27659 0.0
C1992 C 0.26625 0.93546 0.28964 0.0
H1993 H 0.2026 0.89744 0.21007 0.0
H1994 H 0.21538 0.90702 0.23488 0.0
C1995 C 0.27426 0.94218 0.30255 0.0
C1996 C 0.25513 0.93398 0.26293 0.0
H1997 H 0.23024 0.92971 0.24166 0.0
C1998 C 0.25713 0.92578 0.25388 0.0
C1999 C 0.24504 0.93508 0.25885 0.0
C2000 C 0.24175 0.94296 0.26895 0.0
C2001 C 0.24955 0.91892 0.24058 0.0
C2002 C 0.23992 0.9206 0.23579 0.0
C2003 C 0.23771 0.92854 0.24516 0.0
C2004 C 0.23219 0.91441 0.22093 0.0
C2005 C 0.25185 0.90982 0.23199 0.0
C2006 C 0.23736 0.91547 0.20483 0.0
C2007 C 0.2301 0.90988 0.19077 0.0
C2008 C 0.2175 0.90333 0.19244 0.0
C2009 C 0.21229 0.90244 0.20847 0.0
C2010 C 0.21958 0.90789 0.22261 0.0
H2011 H 0.25657 0.90677 0.24059 0.0
H2012 H 0.24333 0.90186 0.22775 0.0
H2013 H 0.25772 0.914 0.22074 0.0
H2014 H 0.24702 0.92079 0.20307 0.0
H2015 H 0.23433 0.91091 0.17848 0.0
H2016 H 0.67853 0.96388 0.2949 0.0
H2017 H 0.6845 0.95675 0.26992 0.0
H2018 H 0.66028 0.92018 0.28515 0.0
H2019 H 0.65409 0.92716 0.30982 0.0
H2020 H 0.69487 0.94269 0.26747 0.0
H2021 H 0.65018 0.92004 0.23657 0.0
H2022 H 0.65375 0.93034 0.25403 0.0
H2023 H 0.64953 0.915 0.25794 0.0
C2024 C 0.67443 0.95432 0.29289 0.0
C2025 C 0.66574 0.9461 0.30429 0.0
C2026 C 0.67787 0.95027 0.27862 0.0
C2027 C 0.67265 0.93794 0.2755 0.0
C2028 C 0.66418 0.92973 0.28705 0.0
H2029 H 0.68168 0.89131 0.20705 0.0
H2030 H 0.67785 0.90103 0.23098 0.0
C2031 C 0.6607 0.93376 0.30122 0.0
C2032 C 0.67616 0.93355 0.26036 0.0
H2033 H 0.66455 0.91503 0.22604 0.0
C2034 C 0.68827 0.93676 0.25829 0.0
C2035 C 0.66755 0.92586 0.24835 0.0
C2036 C 0.65455 0.9227 0.24921 0.0
C2037 C 0.6919 0.93211 0.24487 0.0
C2038 C 0.6832 0.92409 0.23329 0.0
C2039 C 0.67116 0.9211 0.2351 0.0
C2040 C 0.68632 0.91854 0.21927 0.0
C2041 C 0.70492 0.93551 0.24334 0.0
C2042 C 0.6924 0.92522 0.20484 0.0
C2043 C 0.69446 0.91967 0.19104 0.0
C2044 C 0.6905 0.90734 0.19145 0.0
C2045 C 0.68468 0.90077 0.20618 0.0
C2046 C 0.68256 0.90631 0.21991 0.0
H2047 H 0.71033 0.94081 0.2544 0.0
H2048 H 0.70562 0.92732 0.24215 0.0
H2049 H 0.70887 0.94091 0.23168 0.0
H2050 H 0.69524 0.93465 0.20408 0.0
H2051 H 0.69879 0.92497 0.17983 0.0
H2052 H 0.03162 0.72098 0.28977 0.0
H2053 H 0.04284 0.73372 0.26568 0.0
H2054 H 0.07351 0.73043 0.27866 0.0
H2055 H 0.06238 0.7177 0.30286 0.0
H2056 H 0.07877 0.75444 0.27245 0.0
H2057 H 0.05167 0.72311 0.2209 0.0
H2058 H 0.04303 0.72553 0.23674 0.0
H2059 H 0.05123 0.71824 0.24248 0.0
C2060 C 0.04073 0.7229 0.28745 0.0
C2061 C 0.0461 0.71831 0.29818 0.0
C2062 C 0.0471 0.73014 0.27364 0.0
C2063 C 0.05894 0.73289 0.2703 0.0
C2064 C 0.06436 0.72835 0.28101 0.0
H2065 H 0.11192 0.77973 0.19466 0.0
H2066 H 0.10201 0.76633 0.21876 0.0
C2067 C 0.05797 0.72107 0.29479 0.0
C2068 C 0.06578 0.74079 0.25591 0.0
H2069 H 0.06569 0.74314 0.21281 0.0
C2070 C 0.07599 0.75196 0.25938 0.0
C2071 C 0.0621 0.73749 0.23893 0.0
C2072 C 0.05147 0.7254 0.23446 0.0
C2073 C 0.08242 0.76011 0.24631 0.0
C2074 C 0.07865 0.75687 0.22932 0.0
C2075 C 0.06854 0.74561 0.22586 0.0
C2076 C 0.08481 0.76514 0.21494 0.0
C2077 C 0.09294 0.77226 0.25084 0.0
C2078 C 0.07837 0.76872 0.2046 0.0
C2079 C 0.08395 0.77623 0.19072 0.0
C2080 C 0.0961 0.78032 0.18685 0.0
C2081 C 0.10254 0.77671 0.19724 0.0
C2082 C 0.09693 0.76916 0.21113 0.0
H2083 H 0.09281 0.77441 0.26447 0.0
H2084 H 0.10145 0.77233 0.24828 0.0
H2085 H 0.09296 0.77941 0.24307 0.0
H2086 H 0.06898 0.76565 0.20725 0.0
H2087 H 0.07864 0.77862 0.18281 0.0
H2088 H 0.27519 0.34351 0.31809 0.0
H2089 H 0.26217 0.33977 0.29379 0.0
H2090 H 0.27452 0.31745 0.2713 0.0
H2091 H 0.28749 0.32096 0.29592 0.0
H2092 H 0.26987 0.3462 0.26151 0.0
H2093 H 0.23809 0.2971 0.26513 0.0
H2094 H 0.24761 0.30562 0.28263 0.0
H2095 H 0.25375 0.30147 0.26512 0.0
C2096 C 0.27509 0.3377 0.30808 0.0
C2097 C 0.28245 0.33258 0.30892 0.0
C2098 C 0.26761 0.33556 0.29419 0.0
C2099 C 0.2673 0.32827 0.28078 0.0
C2100 C 0.27444 0.32293 0.28166 0.0
H2101 H 0.24321 0.33384 0.18028 0.0
H2102 H 0.2546 0.33296 0.20439 0.0
C2103 C 0.28191 0.325 0.29568 0.0
C2104 C 0.26015 0.3271 0.26544 0.0
H2105 H 0.23689 0.30709 0.24062 0.0
C2106 C 0.26266 0.33764 0.25695 0.0
C2107 C 0.25068 0.31594 0.25961 0.0
C2108 C 0.24726 0.30438 0.26865 0.0
C2109 C 0.25595 0.33736 0.24285 0.0
C2110 C 0.24665 0.32619 0.23676 0.0
C2111 C 0.24409 0.31562 0.24524 0.0
C2112 C 0.23943 0.32544 0.22173 0.0
C2113 C 0.2587 0.34908 0.23485 0.0
C2114 C 0.22701 0.32101 0.22329 0.0
C2115 C 0.22045 0.32144 0.20947 0.0
C2116 C 0.22625 0.32635 0.19392 0.0
C2117 C 0.23857 0.33027 0.19223 0.0
C2118 C 0.24508 0.32975 0.20597 0.0
H2119 H 0.2638 0.35677 0.24359 0.0
H2120 H 0.2643 0.35068 0.22332 0.0
H2121 H 0.25031 0.34886 0.23106 0.0
H2122 H 0.22248 0.31761 0.23535 0.0
H2123 H 0.21097 0.31835 0.21112 0.0
H2124 H 0.30425 0.35209 0.40166 0.0
H2125 H 0.29278 0.35524 0.42384 0.0
H2126 H 0.26184 0.32065 0.41291 0.0
H2127 H 0.27328 0.31735 0.39083 0.0
H2128 H 0.27142 0.35569 0.41947 0.0
H2129 H 0.26491 0.31998 0.46457 0.0
H2130 H 0.27595 0.32515 0.44768 0.0
H2131 H 0.26033 0.31491 0.44321 0.0
C2132 C 0.29504 0.34509 0.4041 0.0
C2133 C 0.28967 0.33445 0.39452 0.0
C2134 C 0.2885 0.34693 0.41674 0.0
C2135 C 0.27651 0.33814 0.42012 0.0
C2136 C 0.27115 0.32746 0.4107 0.0
H2137 H 0.22189 0.33369 0.48961 0.0
H2138 H 0.23281 0.33053 0.46658 0.0
C2139 C 0.27769 0.32561 0.39805 0.0
C2140 C 0.26947 0.34037 0.43301 0.0
H2141 H 0.25407 0.32992 0.47032 0.0
C2142 C 0.26766 0.35009 0.43063 0.0
C2143 C 0.26455 0.33302 0.4475 0.0
C2144 C 0.2666 0.32274 0.45103 0.0
C2145 C 0.26091 0.35257 0.44227 0.0
C2146 C 0.25603 0.34524 0.45678 0.0
C2147 C 0.25781 0.3355 0.45913 0.0
C2148 C 0.24919 0.3476 0.46988 0.0
C2149 C 0.25889 0.36288 0.43877 0.0
C2150 C 0.25478 0.35828 0.47928 0.0
C2151 C 0.24858 0.3601 0.49247 0.0
C2152 C 0.23671 0.35122 0.49658 0.0
C2153 C 0.23107 0.34064 0.48687 0.0
C2154 C 0.23727 0.33883 0.47369 0.0
H2155 H 0.26044 0.36555 0.4252 0.0
H2156 H 0.2496 0.36054 0.44233 0.0
H2157 H 0.26528 0.37074 0.44645 0.0
H2158 H 0.26406 0.36505 0.47677 0.0
H2159 H 0.25325 0.36825 0.49988 0.0
H2160 H 0.6815 0.95126 0.38706 0.0
H2161 H 0.67958 0.93733 0.40959 0.0
H2162 H 0.64391 0.93056 0.42125 0.0
H2163 H 0.64568 0.94432 0.39877 0.0
H2164 H 0.67493 0.93806 0.4447 0.0
H2165 H 0.6389 0.89681 0.41411 0.0
H2166 H 0.6479 0.91063 0.40262 0.0
H2167 H 0.6356 0.90869 0.41579 0.0
C2168 C 0.67326 0.9468 0.39444 0.0
C2169 C 0.66372 0.94883 0.39107 0.0
C2170 C 0.67216 0.93886 0.40727 0.0
C2171 C 0.66151 0.93277 0.41685 0.0
C2172 C 0.6521 0.93497 0.41376 0.0
H2173 H 0.63476 0.88428 0.50176 0.0
H2174 H 0.63772 0.89707 0.47726 0.0
C2175 C 0.65318 0.94291 0.40097 0.0
C2176 C 0.66027 0.92426 0.43033 0.0
H2177 H 0.64305 0.89513 0.44304 0.0
C2178 C 0.66805 0.92865 0.44429 0.0
C2179 C 0.65126 0.912 0.42973 0.0
C2180 C 0.643 0.9067 0.41469 0.0
C2181 C 0.6668 0.92117 0.45796 0.0
C2182 C 0.65768 0.90894 0.45746 0.0
C2183 C 0.65002 0.90452 0.44338 0.0
C2184 C 0.65572 0.90067 0.47167 0.0
C2185 C 0.67499 0.92652 0.47306 0.0
C2186 C 0.66475 0.89822 0.47635 0.0
C2187 C 0.66307 0.89088 0.4903 0.0
C2188 C 0.65229 0.8858 0.49976 0.0
C2189 C 0.64311 0.88796 0.49465 0.0
C2190 C 0.64481 0.89531 0.48072 0.0
H2191 H 0.67953 0.93646 0.4732 0.0
H2192 H 0.66989 0.92301 0.48512 0.0
H2193 H 0.68206 0.92403 0.47256 0.0
H2194 H 0.67312 0.90205 0.46928 0.0
H2195 H 0.67022 0.88922 0.49374 0.0
H2196 H 0.05948 0.7407 0.37996 0.0
H2197 H 0.07365 0.74818 0.40351 0.0
H2198 H 0.06163 0.71189 0.41906 0.0
H2199 H 0.04761 0.70429 0.39521 0.0
H2200 H 0.06939 0.74521 0.4372 0.0
H2201 H 0.09775 0.72616 0.4177 0.0
H2202 H 0.08693 0.72655 0.40368 0.0
H2203 H 0.08205 0.7152 0.41981 0.0
C2204 C 0.05985 0.73428 0.38833 0.0
C2205 C 0.05244 0.72188 0.38563 0.0
C2206 C 0.06797 0.73858 0.4018 0.0
C2207 C 0.06885 0.7306 0.41288 0.0
C2208 C 0.06133 0.71821 0.41042 0.0
H2209 H 0.10844 0.74287 0.50686 0.0
H2210 H 0.09497 0.73397 0.48264 0.0
C2211 C 0.05325 0.71389 0.39684 0.0
C2212 C 0.07742 0.73534 0.42725 0.0
H2213 H 0.10165 0.7354 0.44485 0.0
C2214 C 0.07647 0.74309 0.43883 0.0
C2215 C 0.08666 0.73256 0.42935 0.0
C2216 C 0.08851 0.72476 0.4169 0.0
C2217 C 0.08444 0.74809 0.45248 0.0
C2218 C 0.09364 0.74531 0.45456 0.0
C2219 C 0.09456 0.73748 0.44315 0.0
C2220 C 0.1024 0.75054 0.46856 0.0
C2221 C 0.08295 0.75624 0.46471 0.0
C2222 C 0.1112 0.76275 0.46841 0.0
C2223 C 0.11902 0.76785 0.48211 0.0
C2224 C 0.11815 0.76084 0.49627 0.0
C2225 C 0.1095 0.74852 0.49611 0.0
C2226 C 0.10173 0.74341 0.48233 0.0
H2227 H 0.07423 0.75591 0.46298 0.0
H2228 H 0.08352 0.75378 0.47801 0.0
H2229 H 0.09034 0.76561 0.46267 0.0
H2230 H 0.11191 0.76835 0.45775 0.0
H2231 H 0.1257 0.77731 0.48167 0.0
H2232 H 0.31165 0.03245 0.73168 0.0
H2233 H 0.30904 0.04367 0.75471 0.0
H2234 H 0.34447 0.07379 0.74469 0.0
H2235 H 0.34712 0.0627 0.72149 0.0
H2236 H 0.32307 0.05328 0.78379 0.0
H2237 H 0.32311 0.08888 0.74456 0.0
H2238 H 0.32115 0.07515 0.73556 0.0
H2239 H 0.33591 0.08706 0.74128 0.0
C2240 C 0.31888 0.04148 0.73434 0.0
C2241 C 0.32958 0.04671 0.72472 0.0
C2242 C 0.31737 0.04786 0.7475 0.0
C2243 C 0.32648 0.05961 0.75121 0.0
C2244 C 0.33723 0.06482 0.74178 0.0
H2245 H 0.33533 0.11147 0.8282 0.0
H2246 H 0.33768 0.10078 0.80415 0.0
C2247 C 0.33876 0.05844 0.72861 0.0
C2248 C 0.32484 0.06628 0.76528 0.0
H2249 H 0.32352 0.0914 0.77444 0.0
C2250 C 0.32311 0.06158 0.78175 0.0
C2251 C 0.32492 0.07712 0.76255 0.0
C2252 C 0.32626 0.08232 0.74502 0.0
C2253 C 0.32166 0.06755 0.79565 0.0
C2254 C 0.32173 0.07838 0.79292 0.0
C2255 C 0.32347 0.08309 0.77646 0.0
C2256 C 0.32007 0.08497 0.80706 0.0
C2257 C 0.32032 0.06233 0.81318 0.0
C2258 C 0.30929 0.07971 0.8164 0.0
C2259 C 0.30794 0.08575 0.83018 0.0
C2260 C 0.31733 0.09721 0.83482 0.0
C2261 C 0.328 0.10259 0.82511 0.0
C2262 C 0.32933 0.09653 0.81131 0.0
H2263 H 0.3234 0.05572 0.81361 0.0
H2264 H 0.32551 0.0695 0.82262 0.0
H2265 H 0.31069 0.05767 0.81697 0.0
H2266 H 0.30196 0.07087 0.81313 0.0
H2267 H 0.29965 0.08132 0.83747 0.0
H2268 H 0.96359 0.28837 0.72574 0.0
H2269 H 0.95524 0.27483 0.75014 0.0
H2270 H 0.91934 0.26155 0.73115 0.0
H2271 H 0.92753 0.275 0.7068 0.0
H2272 H 0.93691 0.2734 0.77456 0.0
H2273 H 0.92248 0.23113 0.73895 0.0
H2274 H 0.93367 0.24565 0.73086 0.0
H2275 H 0.91799 0.24105 0.73009 0.0
C2276 C 0.95392 0.28257 0.72674 0.0
C2277 C 0.94623 0.28275 0.71427 0.0
C2278 C 0.94917 0.27486 0.74069 0.0
C2279 C 0.9367 0.26711 0.74228 0.0
C2280 C 0.92901 0.26735 0.72999 0.0
H2281 H 0.8883 0.21269 0.81283 0.0
H2282 H 0.89783 0.22621 0.78876 0.0
C2283 C 0.93372 0.27509 0.71613 0.0
C2284 C 0.93165 0.25888 0.75693 0.0
H2285 H 0.9161 0.22923 0.76759 0.0
C2286 C 0.93243 0.26374 0.77311 0.0
C2287 C 0.92576 0.2463 0.75489 0.0
C2288 C 0.92497 0.24067 0.7378 0.0
C2289 C 0.9272 0.25633 0.78732 0.0
C2290 C 0.9213 0.24373 0.7853 0.0
C2291 C 0.92062 0.23888 0.7691 0.0
C2292 C 0.91563 0.23541 0.79981 0.0
C2293 C 0.9277 0.26207 0.80423 0.0
C2294 C 0.92252 0.23593 0.81386 0.0
C2295 C 0.91708 0.22833 0.82772 0.0
C2296 C 0.90465 0.21992 0.82772 0.0
C2297 C 0.89785 0.21919 0.81338 0.0
C2298 C 0.90329 0.22685 0.79956 0.0
H2299 H 0.92949 0.27137 0.80272 0.0
H2300 H 0.91914 0.25678 0.8114 0.0
H2301 H 0.9351 0.26248 0.81189 0.0
H2302 H 0.93211 0.24229 0.81416 0.0
H2303 H 0.92259 0.22924 0.83858 0.0
H2304 H 0.71529 0.67989 0.7266 0.0
H2305 H 0.72896 0.68556 0.75082 0.0
H2306 H 0.73663 0.65771 0.73787 0.0
H2307 H 0.72309 0.65201 0.71364 0.0
H2308 H 0.72788 0.67104 0.77861 0.0
H2309 H 0.77025 0.68818 0.7416 0.0
H2310 H 0.75645 0.68591 0.73236 0.0
H2311 H 0.75859 0.67338 0.73567 0.0
C2312 C 0.71989 0.67498 0.72888 0.0
C2313 C 0.71812 0.66552 0.71812 0.0
C2314 C 0.72769 0.67824 0.74272 0.0
C2315 C 0.73393 0.67217 0.74595 0.0
C2316 C 0.73207 0.66265 0.73539 0.0
H2317 H 0.76832 0.6681 0.83727 0.0
H2318 H 0.75552 0.66438 0.81251 0.0
C2319 C 0.72426 0.65936 0.7216 0.0
C2320 C 0.74219 0.67559 0.7606 0.0
H2321 H 0.77139 0.68536 0.77124 0.0
C2322 C 0.73741 0.67424 0.77702 0.0
C2323 C 0.75463 0.6799 0.75845 0.0
C2324 C 0.76034 0.68205 0.74107 0.0
C2325 C 0.74469 0.67676 0.79139 0.0
C2326 C 0.75704 0.68059 0.78925 0.0
C2327 C 0.76189 0.68229 0.77282 0.0
C2328 C 0.76503 0.6828 0.80392 0.0
C2329 C 0.73915 0.67536 0.80876 0.0
C2330 C 0.77483 0.69431 0.80698 0.0
C2331 C 0.78223 0.69645 0.82105 0.0
C2332 C 0.78 0.68708 0.83221 0.0
C2333 C 0.77034 0.67549 0.82884 0.0
C2334 C 0.76293 0.67337 0.81482 0.0
H2335 H 0.73049 0.67529 0.80818 0.0
H2336 H 0.73731 0.66674 0.81436 0.0
H2337 H 0.74537 0.68271 0.81735 0.0
H2338 H 0.77666 0.70168 0.79862 0.0
H2339 H 0.78969 0.70544 0.82318 0.0
H2340 H 0.73011 0.68167 0.63647 0.0
H2341 H 0.74156 0.67988 0.61285 0.0
H2342 H 0.71031 0.64663 0.59781 0.0
H2343 H 0.6988 0.64833 0.62133 0.0
H2344 H 0.7456 0.66013 0.60688 0.0
H2345 H 0.72168 0.66718 0.55376 0.0
H2346 H 0.72093 0.67153 0.57534 0.0
H2347 H 0.71209 0.6561 0.56904 0.0
C2348 C 0.72565 0.67402 0.62806 0.0
C2349 C 0.71354 0.66515 0.63073 0.0
C2350 C 0.73221 0.67301 0.61462 0.0
C2351 C 0.72673 0.66319 0.60353 0.0
C2352 C 0.71464 0.65436 0.6061 0.0
H2353 H 0.7554 0.63285 0.53314 0.0
H2354 H 0.74625 0.6374 0.55722 0.0
C2355 C 0.70809 0.65533 0.61958 0.0
C2356 C 0.73375 0.66195 0.58956 0.0
H2357 H 0.73509 0.66031 0.54644 0.0
C2358 C 0.74337 0.66024 0.59366 0.0
C2359 C 0.73086 0.66221 0.57235 0.0
C2360 C 0.7209 0.66445 0.56728 0.0
C2361 C 0.74997 0.65844 0.58094 0.0
C2362 C 0.74682 0.65831 0.56377 0.0
C2363 C 0.73742 0.66035 0.55966 0.0
C2364 C 0.75299 0.65582 0.54985 0.0
C2365 C 0.76027 0.65671 0.58593 0.0
C2366 C 0.75977 0.66468 0.53777 0.0
C2367 C 0.76501 0.66212 0.52404 0.0
C2368 C 0.76342 0.6506 0.52205 0.0
C2369 C 0.75673 0.64178 0.53431 0.0
C2370 C 0.75157 0.64439 0.54811 0.0
H2371 H 0.76318 0.65959 0.5992 0.0
H2372 H 0.75738 0.64706 0.58485 0.0
H2373 H 0.7681 0.66179 0.57732 0.0
H2374 H 0.76088 0.67353 0.53887 0.0
H2375 H 0.76998 0.66903 0.51468 0.0
H2376 H 0.31761 0.05215 0.63601 0.0
H2377 H 0.32443 0.06608 0.61214 0.0
H2378 H 0.35809 0.06647 0.61097 0.0
H2379 H 0.35136 0.05248 0.63495 0.0
H2380 H 0.35981 0.0899 0.61057 0.0
H2381 H 0.32869 0.05859 0.56184 0.0
H2382 H 0.32164 0.05881 0.58148 0.0
H2383 H 0.33209 0.05348 0.5812 0.0
C2384 C 0.32645 0.05512 0.63065 0.0
C2385 C 0.33393 0.05116 0.63739 0.0
C2386 C 0.3303 0.06305 0.61696 0.0
C2387 C 0.34171 0.0672 0.60972 0.0
C2388 C 0.34923 0.06331 0.61637 0.0
H2389 H 0.36605 0.1073 0.51515 0.0
H2390 H 0.36209 0.09334 0.53847 0.0
C2391 C 0.34535 0.05529 0.63002 0.0
C2392 C 0.34586 0.07588 0.59553 0.0
H2393 H 0.33941 0.07929 0.5547 0.0
C2394 C 0.35543 0.08758 0.59831 0.0
C2395 C 0.34017 0.07277 0.57953 0.0
C2396 C 0.33014 0.06021 0.5757 0.0
C2397 C 0.35924 0.09638 0.5856 0.0
C2398 C 0.35325 0.09337 0.56981 0.0
C2399 C 0.34391 0.08158 0.56688 0.0
C2400 C 0.35643 0.10235 0.55616 0.0
C2401 C 0.36965 0.10879 0.58914 0.0
C2402 C 0.35458 0.11206 0.55841 0.0
C2403 C 0.35685 0.12008 0.54511 0.0
C2404 C 0.36103 0.11853 0.52933 0.0
C2405 C 0.36303 0.10887 0.52722 0.0
C2406 C 0.3607 0.10083 0.54049 0.0
H2407 H 0.37505 0.10888 0.60014 0.0
H2408 H 0.37565 0.11244 0.57788 0.0
H2409 H 0.36612 0.11484 0.59209 0.0
H2410 H 0.35111 0.11328 0.57034 0.0
H2411 H 0.35527 0.12745 0.54714 0.0
H2412 H 0.94953 0.29865 0.61749 0.0
H2413 H 0.93631 0.28521 0.59531 0.0
H2414 H 0.94156 0.25694 0.6141 0.0
H2415 H 0.95475 0.27028 0.63637 0.0
H2416 H 0.94153 0.27253 0.56987 0.0
H2417 H 0.90444 0.24191 0.61322 0.0
H2418 H 0.91618 0.25666 0.61962 0.0
H2419 H 0.91914 0.24452 0.61854 0.0
C2420 C 0.9479 0.28958 0.61688 0.0
C2421 C 0.95313 0.2855 0.62874 0.0
C2422 C 0.94035 0.28193 0.60422 0.0
C2423 C 0.93782 0.27005 0.60327 0.0
C2424 C 0.94323 0.26602 0.61483 0.0
H2425 H 0.89331 0.21017 0.53679 0.0
H2426 H 0.90636 0.22323 0.55941 0.0
C2427 C 0.95082 0.27367 0.62748 0.0
C2428 C 0.92959 0.26191 0.59006 0.0
H2429 H 0.90249 0.23631 0.58428 0.0
C2430 C 0.93298 0.26463 0.57299 0.0
C2431 C 0.91847 0.25161 0.59423 0.0
C2432 C 0.91425 0.2485 0.61238 0.0
C2433 C 0.92559 0.2572 0.55991 0.0
C2434 C 0.91441 0.24694 0.56406 0.0
C2435 C 0.91105 0.2442 0.58115 0.0
C2436 C 0.90609 0.23894 0.5508 0.0
C2437 C 0.92995 0.26028 0.5418 0.0
C2438 C 0.90137 0.24338 0.53874 0.0
C2439 C 0.89401 0.23599 0.52573 0.0
C2440 C 0.89111 0.22396 0.52463 0.0
C2441 C 0.89551 0.21943 0.53713 0.0
C2442 C 0.90291 0.22685 0.55011 0.0
H2443 H 0.93986 0.26639 0.5411 0.0
H2444 H 0.92754 0.25207 0.53435 0.0
H2445 H 0.92563 0.26488 0.53578 0.0
H2446 H 0.90352 0.25262 0.53925 0.0
H2447 H 0.89089 0.23982 0.51626 0.0
H2448 H 0.31317 0.26014 0.63924 0.0
H2449 H 0.31902 0.25218 0.61526 0.0
H2450 H 0.34829 0.28766 0.6036 0.0
H2451 H 0.34249 0.29579 0.62757 0.0
H2452 H 0.33443 0.27424 0.57494 0.0
H2453 H 0.34914 0.24855 0.6144 0.0
H2454 H 0.33422 0.24563 0.61907 0.0
H2455 H 0.34696 0.26028 0.62298 0.0
C2456 C 0.32084 0.26629 0.63158 0.0
C2457 C 0.3274 0.27861 0.63542 0.0
C2458 C 0.3242 0.2617 0.61793 0.0
C2459 C 0.3342 0.2693 0.60786 0.0
C2460 C 0.34059 0.28164 0.61132 0.0
H2461 H 0.37053 0.24713 0.53564 0.0
H2462 H 0.36547 0.25614 0.55928 0.0
C2463 C 0.33726 0.28626 0.62502 0.0
C2464 C 0.33793 0.26434 0.59369 0.0
H2465 H 0.34768 0.24481 0.58471 0.0
C2466 C 0.33737 0.26784 0.57705 0.0
C2467 C 0.34191 0.25612 0.59654 0.0
C2468 C 0.34322 0.25248 0.61421 0.0
C2469 C 0.34043 0.2631 0.56311 0.0
C2470 C 0.34398 0.25455 0.56593 0.0
C2471 C 0.34482 0.25128 0.5826 0.0
C2472 C 0.34694 0.24894 0.55174 0.0
C2473 C 0.33993 0.26737 0.54551 0.0
C2474 C 0.33812 0.24172 0.53987 0.0
C2475 C 0.34098 0.23658 0.52635 0.0
C2476 C 0.35271 0.23854 0.52447 0.0
C2477 C 0.36145 0.24558 0.53661 0.0
C2478 C 0.35857 0.25069 0.55015 0.0
H2479 H 0.33995 0.27596 0.5458 0.0
H2480 H 0.34768 0.26859 0.53769 0.0
H2481 H 0.33152 0.26056 0.53922 0.0
H2482 H 0.32903 0.24009 0.54104 0.0
H2483 H 0.33407 0.23129 0.51715 0.0
H2484 H 0.7283 0.05249 0.63415 0.0
H2485 H 0.73903 0.06672 0.6112 0.0
H2486 H 0.70557 0.06302 0.59398 0.0
H2487 H 0.69486 0.04912 0.61723 0.0
H2488 H 0.73716 0.06411 0.57788 0.0
H2489 H 0.72627 0.09884 0.59636 0.0
H2490 H 0.72342 0.08657 0.61016 0.0
H2491 H 0.71298 0.08446 0.59355 0.0
C2492 C 0.72324 0.05474 0.6255 0.0
C2493 C 0.71075 0.04976 0.62755 0.0
C2494 C 0.72938 0.06288 0.61241 0.0
C2495 C 0.72316 0.06615 0.60109 0.0
C2496 C 0.71063 0.06093 0.60287 0.0
H2497 H 0.74688 0.09513 0.50075 0.0
H2498 H 0.73729 0.08283 0.52585 0.0
C2499 C 0.70451 0.0529 0.61606 0.0
C2500 C 0.72969 0.07467 0.58707 0.0
H2501 H 0.73415 0.10037 0.56827 0.0
C2502 C 0.73658 0.07209 0.57587 0.0
C2503 C 0.72913 0.08522 0.58463 0.0
C2504 C 0.72266 0.08901 0.59693 0.0
C2505 C 0.74262 0.07954 0.56201 0.0
C2506 C 0.74144 0.08968 0.55897 0.0
C2507 C 0.73488 0.09249 0.57047 0.0
C2508 C 0.7468 0.09733 0.54376 0.0
C2509 C 0.75032 0.07654 0.55091 0.0
C2510 C 0.75488 0.1097 0.54544 0.0
C2511 C 0.76022 0.1168 0.53105 0.0
C2512 C 0.7576 0.11161 0.51481 0.0
C2513 C 0.74922 0.09931 0.51316 0.0
C2514 C 0.74379 0.09227 0.52748 0.0
H2515 H 0.75334 0.07108 0.55785 0.0
H2516 H 0.74496 0.07122 0.53985 0.0
H2517 H 0.75839 0.08478 0.54613 0.0
H2518 H 0.75724 0.11381 0.55788 0.0
H2519 H 0.76667 0.12626 0.53266 0.0
H2520 H 0.94993 0.653 0.62741 0.0
H2521 H 0.93596 0.64679 0.60344 0.0
H2522 H 0.92509 0.6719 0.61902 0.0
H2523 H 0.93914 0.67834 0.64263 0.0
H2524 H 0.9114 0.63696 0.60269 0.0
H2525 H 0.93378 0.68079 0.56975 0.0
H2526 H 0.94085 0.67741 0.58683 0.0
H2527 H 0.93004 0.68197 0.59134 0.0
C2528 C 0.9446 0.65724 0.62567 0.0
C2529 C 0.94575 0.66626 0.63685 0.0
C2530 C 0.93662 0.65366 0.61199 0.0
C2531 C 0.92966 0.65905 0.60925 0.0
C2532 C 0.9306 0.66785 0.62061 0.0
H2533 H 0.87309 0.65043 0.54261 0.0
H2534 H 0.88678 0.65425 0.5663 0.0
C2535 C 0.93862 0.67148 0.63417 0.0
C2536 C 0.92127 0.65542 0.5947 0.0
H2537 H 0.91388 0.66656 0.56058 0.0
C2538 C 0.91201 0.64339 0.59337 0.0
C2539 C 0.92212 0.66383 0.5825 0.0
C2540 C 0.93231 0.67669 0.58255 0.0
C2541 C 0.90334 0.63966 0.58048 0.0
C2542 C 0.90399 0.64816 0.56869 0.0
C2543 C 0.91336 0.66011 0.56981 0.0
C2544 C 0.89504 0.6449 0.55502 0.0
C2545 C 0.89336 0.62674 0.57974 0.0
C2546 C 0.89515 0.63832 0.54094 0.0
C2547 C 0.88746 0.63626 0.52727 0.0
C2548 C 0.87951 0.64073 0.52747 0.0
C2549 C 0.8792 0.64701 0.5419 0.0
C2550 C 0.88696 0.64914 0.5555 0.0
H2551 H 0.8932 0.62161 0.59111 0.0
H2552 H 0.8845 0.62618 0.57859 0.0
H2553 H 0.89461 0.62243 0.56832 0.0
H2554 H 0.90145 0.63513 0.54027 0.0
H2555 H 0.8881 0.63157 0.51627 0.0
H2556 H 0.93801 0.65231 0.72296 0.0
H2557 H 0.92677 0.65518 0.74592 0.0
H2558 H 0.9548 0.69218 0.75039 0.0
H2559 H 0.96616 0.68942 0.72755 0.0
H2560 H 0.93966 0.66871 0.78245 0.0
H2561 H 0.91803 0.68729 0.74114 0.0
H2562 H 0.92183 0.67648 0.73325 0.0
H2563 H 0.93354 0.69155 0.73744 0.0
C2564 C 0.94181 0.66104 0.72887 0.0
C2565 C 0.95296 0.67065 0.72343 0.0
C2566 C 0.93538 0.66265 0.74196 0.0
C2567 C 0.93997 0.67389 0.7497 0.0
C2568 C 0.95114 0.68345 0.74447 0.0
H2569 H 0.91216 0.70445 0.82176 0.0
H2570 H 0.92259 0.70062 0.79875 0.0
C2571 C 0.9576 0.68185 0.73146 0.0
C2572 C 0.93308 0.67568 0.76323 0.0
H2573 H 0.91408 0.68636 0.77048 0.0
C2574 C 0.93401 0.67252 0.77989 0.0
C2575 C 0.92586 0.68074 0.75975 0.0
C2576 C 0.92465 0.68422 0.74194 0.0
C2577 C 0.92797 0.67443 0.79332 0.0
C2578 C 0.9206 0.67938 0.78984 0.0
C2579 C 0.91969 0.68253 0.77311 0.0
C2580 C 0.91393 0.68156 0.80344 0.0
C2581 C 0.92982 0.67145 0.81114 0.0
C2582 C 0.90541 0.67207 0.81347 0.0
C2583 C 0.89954 0.67424 0.82676 0.0
C2584 C 0.90197 0.68595 0.83017 0.0
C2585 C 0.91022 0.69537 0.81969 0.0
C2586 C 0.91613 0.69319 0.80646 0.0
H2587 H 0.93812 0.6709 0.81215 0.0
H2588 H 0.93041 0.67825 0.82033 0.0
H2589 H 0.92207 0.66261 0.81481 0.0
H2590 H 0.90337 0.66298 0.81113 0.0
H2591 H 0.89334 0.66678 0.83464 0.0
H2592 H 0.34193 0.27851 0.71229 0.0
H2593 H 0.34127 0.26586 0.73567 0.0
H2594 H 0.31381 0.27029 0.76043 0.0
H2595 H 0.3141 0.2826 0.73669 0.0
H2596 H 0.34654 0.27118 0.76772 0.0
H2597 H 0.29896 0.23465 0.76356 0.0
H2598 H 0.30616 0.24579 0.74715 0.0
H2599 H 0.30041 0.2491 0.76598 0.0
C2600 C 0.33569 0.27673 0.72266 0.0
C2601 C 0.32803 0.28151 0.72263 0.0
C2602 C 0.33531 0.26948 0.73601 0.0
C2603 C 0.32734 0.26694 0.74969 0.0
C2604 C 0.31978 0.27183 0.7498 0.0
H2605 H 0.33809 0.24429 0.84817 0.0
H2606 H 0.33629 0.2551 0.82404 0.0
C2607 C 0.32003 0.27895 0.7363 0.0
C2608 C 0.32744 0.25966 0.76416 0.0
H2609 H 0.30958 0.23507 0.78854 0.0
C2610 C 0.33846 0.26325 0.77219 0.0
C2611 C 0.31694 0.24919 0.76986 0.0
C2612 C 0.30498 0.24437 0.76108 0.0
C2613 C 0.33925 0.25679 0.78586 0.0
C2614 C 0.32866 0.24666 0.79209 0.0
C2615 C 0.31766 0.24293 0.7839 0.0
C2616 C 0.32887 0.23985 0.80707 0.0
C2617 C 0.35151 0.26076 0.79324 0.0
C2618 C 0.32471 0.22752 0.80582 0.0
C2619 C 0.32554 0.22127 0.81972 0.0
C2620 C 0.33061 0.22728 0.83501 0.0
C2621 C 0.33437 0.23951 0.8364 0.0
C2622 C 0.33339 0.2457 0.82262 0.0
H2623 H 0.35882 0.26609 0.78396 0.0
H2624 H 0.35296 0.26653 0.80446 0.0
H2625 H 0.35228 0.25297 0.79731 0.0
H2626 H 0.3211 0.22281 0.79398 0.0
H2627 H 0.32257 0.21184 0.81835 0.0
H2628 H 0.72239 0.07152 0.70941 0.0
H2629 H 0.73654 0.07987 0.73285 0.0
H2630 H 0.72969 0.04458 0.74569 0.0
H2631 H 0.71536 0.03604 0.72217 0.0
H2632 H 0.72891 0.05822 0.77362 0.0
H2633 H 0.77047 0.08423 0.7354 0.0
H2634 H 0.7586 0.08691 0.72942 0.0
H2635 H 0.75667 0.07224 0.72657 0.0
C2636 C 0.72388 0.06549 0.71714 0.0
C2637 C 0.71775 0.0531 0.71385 0.0
C2638 C 0.73206 0.07031 0.73048 0.0
C2639 C 0.73433 0.06287 0.74078 0.0
C2640 C 0.72814 0.05048 0.73774 0.0
H2641 H 0.77698 0.08589 0.83496 0.0
H2642 H 0.76586 0.07345 0.81056 0.0
C2643 C 0.71996 0.04563 0.72432 0.0
C2644 C 0.74282 0.06813 0.75513 0.0
H2645 H 0.77154 0.08992 0.76465 0.0
C2646 C 0.7383 0.06499 0.77172 0.0
C2647 C 0.75505 0.07693 0.75255 0.0
C2648 C 0.76053 0.08021 0.73502 0.0
C2649 C 0.74552 0.07096 0.78581 0.0
C2650 C 0.7576 0.08015 0.78318 0.0
C2651 C 0.76226 0.0829 0.76661 0.0
C2652 C 0.76522 0.08773 0.7973 0.0
C2653 C 0.73997 0.06784 0.80332 0.0
C2654 C 0.76893 0.09996 0.79758 0.0
C2655 C 0.77536 0.10709 0.81137 0.0
C2656 C 0.77824 0.10214 0.82514 0.0
C2657 C 0.77494 0.08998 0.82451 0.0
C2658 C 0.76848 0.08284 0.81068 0.0
H2659 H 0.73001 0.06211 0.80289 0.0
H2660 H 0.74357 0.0629 0.81029 0.0
H2661 H 0.74232 0.0761 0.81061 0.0
H2662 H 0.76657 0.10392 0.78732 0.0
H2663 H 0.77794 0.11647 0.81135 0.0
H2664 H 0.01617 0.33208 0.0396 0.0
H2665 H 0.03177 0.32718 0.04569 0.0
H2666 H 0.05773 0.35843 0.01795 0.0
H2667 H 0.04214 0.36344 0.01174 0.0
H2668 H 0.04803 0.32394 0.02218 0.0
H2669 H 0.07145 0.36209 0.06735 0.0
H2670 H 0.05609 0.35647 0.06084 0.0
H2671 H 0.06826 0.36536 0.0465 0.0
C2672 C 0.02517 0.33788 0.03467 0.0
C2673 C 0.02795 0.3482 0.02529 0.0
C2674 C 0.03406 0.33504 0.03812 0.0
C2675 C 0.0459 0.3425 0.03239 0.0
C2676 C 0.04865 0.35262 0.0226 0.0
H2677 H 0.109 0.34042 0.06811 0.0
H2678 H 0.09629 0.34568 0.05154 0.0
C2679 C 0.03973 0.35544 0.01904 0.0
C2680 C 0.0554 0.33991 0.03745 0.0
H2681 H 0.07912 0.34918 0.06441 0.0
C2682 C 0.05492 0.3295 0.03129 0.0
C2683 C 0.06438 0.34723 0.04926 0.0
C2684 C 0.06511 0.35839 0.05651 0.0
C2685 C 0.06311 0.3261 0.03684 0.0
C2686 C 0.07178 0.33315 0.04921 0.0
C2687 C 0.07248 0.34378 0.05493 0.0
C2688 C 0.07965 0.32931 0.05734 0.0
C2689 C 0.06236 0.31499 0.02939 0.0
C2690 C 0.07455 0.31831 0.06597 0.0
C2691 C 0.08178 0.31528 0.07536 0.0
C2692 C 0.09426 0.32326 0.07653 0.0
C2693 C 0.0994 0.33412 0.06752 0.0
C2694 C 0.09216 0.33712 0.05802 0.0
H2695 H 0.05844 0.31315 0.01645 0.0
H2696 H 0.07137 0.31582 0.02871 0.0
H2697 H 0.05642 0.30717 0.03749 0.0
H2698 H 0.06489 0.31229 0.06607 0.0
H2699 H 0.07751 0.30695 0.08242 0.0
H2700 H 0.62418 0.68036 0.02451 0.0
H2701 H 0.63334 0.70075 0.03564 0.0
H2702 H 0.66693 0.70156 0.04253 0.0
H2703 H 0.65791 0.68121 0.03117 0.0
H2704 H 0.6432 0.70857 0.06749 0.0
H2705 H 0.6774 0.73292 0.01725 0.0
H2706 H 0.66499 0.71781 0.01442 0.0
H2707 H 0.67798 0.72052 0.02637 0.0
C2708 C 0.63354 0.68488 0.02828 0.0
C2709 C 0.64031 0.67914 0.02691 0.0
C2710 C 0.63876 0.69654 0.03464 0.0
C2711 C 0.65086 0.70273 0.03967 0.0
C2712 C 0.65765 0.69705 0.03836 0.0
H2713 H 0.69601 0.77007 0.09113 0.0
H2714 H 0.68797 0.75111 0.07573 0.0
C2715 C 0.65245 0.68537 0.03198 0.0
C2716 C 0.65614 0.7149 0.04707 0.0
H2717 H 0.67863 0.74401 0.04204 0.0
C2718 C 0.65089 0.71634 0.06187 0.0
C2719 C 0.66621 0.72499 0.03973 0.0
C2720 C 0.67193 0.72405 0.02348 0.0
C2721 C 0.65556 0.72756 0.0697 0.0
C2722 C 0.66562 0.73766 0.06236 0.0
C2723 C 0.67089 0.73624 0.04758 0.0
C2724 C 0.67088 0.7497 0.07012 0.0
C2725 C 0.64985 0.72847 0.086 0.0
C2726 C 0.66407 0.75537 0.07156 0.0
C2727 C 0.66865 0.76622 0.08029 0.0
C2728 C 0.68016 0.77163 0.08766 0.0
C2729 C 0.68717 0.7662 0.08548 0.0
C2730 C 0.68257 0.75534 0.07676 0.0
H2731 H 0.64412 0.71956 0.09199 0.0
H2732 H 0.65684 0.73443 0.09523 0.0
H2733 H 0.64408 0.73234 0.08325 0.0
H2734 H 0.65512 0.75126 0.06622 0.0
H2735 H 0.66312 0.77028 0.08151 0.0
H2736 H 0.31994 0.97926 0.03039 0.0
H2737 H 0.29969 0.96641 0.04194 0.0
H2738 H 0.30085 0.93503 0.02647 0.0
H2739 H 0.32107 0.94776 0.0148 0.0
H2740 H 0.27875 0.9346 0.01865 0.0
H2741 H 0.29269 0.94621 0.08593 0.0
H2742 H 0.29713 0.95876 0.07199 0.0
H2743 H 0.30335 0.9492 0.06899 0.0
C2744 C 0.3159 0.96963 0.02941 0.0
C2745 C 0.32218 0.96454 0.02176 0.0
C2746 C 0.30434 0.96231 0.03606 0.0
C2747 C 0.29886 0.94979 0.03521 0.0
C2748 C 0.30496 0.94468 0.02728 0.0
H2749 H 0.23835 0.89782 0.09487 0.0
H2750 H 0.25743 0.90908 0.07954 0.0
C2751 C 0.31653 0.95198 0.02067 0.0
C2752 C 0.28683 0.942 0.04284 0.0
H2753 H 0.27181 0.93417 0.0807 0.0
C2754 C 0.27721 0.93448 0.03221 0.0
C2755 C 0.28493 0.94179 0.06055 0.0
C2756 C 0.29507 0.94933 0.07259 0.0
C2757 C 0.26563 0.92684 0.03884 0.0
C2758 C 0.26368 0.92683 0.05651 0.0
C2759 C 0.27335 0.93425 0.06714 0.0
C2760 C 0.25169 0.91917 0.06437 0.0
C2761 C 0.25564 0.91873 0.02695 0.0
C2762 C 0.2421 0.92102 0.06074 0.0
C2763 C 0.23115 0.91454 0.06942 0.0
C2764 C 0.22962 0.90613 0.08192 0.0
C2765 C 0.23915 0.90408 0.08515 0.0
C2766 C 0.2501 0.91057 0.0765 0.0
H2767 H 0.25919 0.91774 0.01454 0.0
H2768 H 0.24996 0.9097 0.03263 0.0
H2769 H 0.24981 0.92259 0.02457 0.0
H2770 H 0.24321 0.92774 0.0516 0.0
H2771 H 0.22395 0.91627 0.06658 0.0
H2772 H 0.36146 0.04232 0.01592 0.0
H2773 H 0.35558 0.05728 0.01012 0.0
H2774 H 0.32608 0.0315 0.9795 0.0
H2775 H 0.33176 0.01655 0.98536 0.0
H2776 H 0.35464 0.06599 0.97858 0.0
H2777 H 0.30974 0.04493 0.0091 0.0
H2778 H 0.32053 0.04032 0.01364 0.0
H2779 H 0.31121 0.03481 0.99505 0.0
C2780 C 0.35362 0.03981 0.00815 0.0
C2781 C 0.34706 0.02825 0.00112 0.0
C2782 C 0.35028 0.04836 0.00484 0.0
C2783 C 0.34027 0.04544 0.99462 0.0
C2784 C 0.33365 0.03387 0.98777 0.0
H2785 H 0.30873 0.07592 0.93469 0.0
H2786 H 0.31428 0.0637 0.95151 0.0
C2787 C 0.33698 0.02535 0.99103 0.0
C2788 C 0.33721 0.05467 0.98989 0.0
H2789 H 0.31368 0.05971 0.98758 0.0
C2790 C 0.34577 0.06477 0.98085 0.0
C2791 C 0.32564 0.05305 0.99289 0.0
C2792 C 0.3163 0.04275 0.00336 0.0
C2793 C 0.34283 0.07291 0.97381 0.0
C2794 C 0.33107 0.07096 0.9761 0.0
C2795 C 0.32268 0.06116 0.9858 0.0
C2796 C 0.32701 0.07835 0.96723 0.0
C2797 C 0.35211 0.08316 0.96318 0.0
C2798 C 0.33209 0.0906 0.97081 0.0
C2799 C 0.32886 0.09764 0.96127 0.0
C2800 C 0.32046 0.09252 0.94802 0.0
C2801 C 0.31508 0.08014 0.94494 0.0
C2802 C 0.3183 0.07314 0.95448 0.0
H2803 H 0.36007 0.08225 0.96034 0.0
H2804 H 0.34813 0.08373 0.95101 0.0
H2805 H 0.35525 0.09171 0.97011 0.0
H2806 H 0.3387 0.09475 0.9808 0.0
H2807 H 0.33305 0.1071 0.96414 0.0
H2808 H 0.94666 0.32167 0.00882 0.0
H2809 H 0.93415 0.30153 0.99718 0.0
H2810 H 0.96589 0.29922 0.98747 0.0
H2811 H 0.97849 0.31933 -0.0008 0.0
H2812 H 0.93582 0.29434 0.96394 0.0
H2813 H 0.94315 0.26749 0.01215 0.0
H2814 H 0.94657 0.28266 0.01606 0.0
H2815 H 0.95666 0.27993 0.00361 0.0
C2816 C 0.95099 0.31686 0.00434 0.0
C2817 C 0.96359 0.32213 0.00495 0.0
C2818 C 0.94382 0.30534 -0.0023 0.0
C2819 C 0.94908 0.29883 0.99168 0.0
C2820 C 0.96163 0.30401 0.99236 0.0
H2821 H 0.92352 0.23215 0.93727 0.0
H2822 H 0.93508 0.25053 0.95385 0.0
C2823 C 0.96883 0.31554 -0.00104 0.0
C2824 C 0.94149 0.28692 0.98377 0.0
H2825 H 0.93292 0.25732 0.98701 0.0
C2826 C 0.9351 0.28622 0.96904 0.0
C2827 C 0.94065 0.27638 0.99042 0.0
C2828 C 0.94703 0.27658 0.00651 0.0
C2829 C 0.92808 0.27531 0.96056 0.0
C2830 C 0.92721 0.26475 0.96722 0.0
C2831 C 0.93357 0.26543 0.98198 0.0
C2832 C 0.91993 0.25298 0.95874 0.0
C2833 C 0.92195 0.27525 0.94426 0.0
C2834 C 0.90749 0.24805 0.95652 0.0
C2835 C 0.90087 0.23757 0.94705 0.0
C2836 C 0.90655 0.23176 0.93978 0.0
C2837 C 0.91887 0.23637 0.94281 0.0
C2838 C 0.9255 0.2469 0.95221 0.0
H2839 H 0.92596 0.28437 0.93869 0.0
H2840 H 0.92251 0.26922 0.93472 0.0
H2841 H 0.91229 0.27196 0.94688 0.0
H2842 H 0.90296 0.25246 0.96181 0.0
H2843 H 0.89135 0.23412 0.94517 0.0
H2844 H 0.67739 0.66338 0.97689 0.0
H2845 H 0.6976 0.66788 0.96909 0.0
H2846 H 0.69666 0.64469 0.00901 0.0
H2847 H 0.6762 0.63987 0.01665 0.0
H2848 H 0.7184 0.67809 0.98705 0.0
H2849 H 0.70555 0.63172 0.96797 0.0
H2850 H 0.69454 0.63614 0.97194 0.0
H2851 H 0.70167 0.63328 0.98937 0.0
C2852 C 0.68146 0.65922 0.98403 0.0
C2853 C 0.67515 0.6512 0.99732 0.0
C2854 C 0.69303 0.66183 0.97957 0.0
C2855 C 0.69859 0.6565 0.9883 0.0
C2856 C 0.69245 0.6487 0.00186 0.0
H2857 H 0.7754 0.68366 0.96541 0.0
H2858 H 0.75681 0.67747 0.98158 0.0
C2859 C 0.68079 0.64601 0.00627 0.0
C2860 C 0.71077 0.65916 0.98294 0.0
H2861 H 0.72604 0.64647 0.9656 0.0
C2862 C 0.72012 0.67118 0.98249 0.0
C2863 C 0.71295 0.65012 0.9769 0.0
C2864 C 0.70314 0.6371 0.9764 0.0
C2865 C 0.73147 0.67445 0.97567 0.0
C2866 C 0.73362 0.66542 0.9695 0.0
C2867 C 0.72439 0.65337 0.97045 0.0
C2868 C 0.74493 0.66836 0.96046 0.0
C2869 C 0.74082 0.6876 0.97433 0.0
C2870 C 0.74441 0.66489 0.94346 0.0
C2871 C 0.75496 0.66828 0.93431 0.0
C2872 C 0.76629 0.67525 0.94195 0.0
C2873 C 0.7668 0.67842 0.95914 0.0
C2874 C 0.7562 0.67492 0.96836 0.0
H2875 H 0.73685 0.6934 0.97618 0.0
H2876 H 0.74774 0.68993 0.98425 0.0
H2877 H 0.74538 0.68968 0.96176 0.0
H2878 H 0.73582 0.65984 0.9371 0.0
H2879 H 0.75424 0.66583 0.92103 0.0
H2880 H 0.97432 0.65792 0.99412 0.0
H2881 H 0.96169 0.66526 0.98246 0.0
H2882 H 0.92986 0.63157 0.99456 0.0
H2883 H 0.94237 0.62418 0.00644 0.0
H2884 H 0.94557 0.65521 0.95554 0.0
H2885 H 0.92203 0.65621 0.01424 0.0
H2886 H 0.9355 0.65518 0.01465 0.0
H2887 H 0.92117 0.64213 0.01012 0.0
C2888 C 0.96463 0.65209 0.99445 0.0
C2889 C 0.95936 0.64046 0.00126 0.0
C2890 C 0.95743 0.65631 0.98777 0.0
C2891 C 0.94484 0.64902 0.98786 0.0
C2892 C 0.93954 0.63743 0.99469 0.0
H2893 H 0.88726 0.65731 0.94503 0.0
H2894 H 0.899 0.64995 0.95971 0.0
C2895 C 0.94673 0.6332 0.00138 0.0
C2896 C 0.93731 0.65333 0.98002 0.0
H2897 H 0.91498 0.65958 0.98824 0.0
C2898 C 0.93893 0.65622 0.9627 0.0
C2899 C 0.92858 0.65455 0.98939 0.0
C2900 C 0.92675 0.65196 0.00816 0.0
C2901 C 0.93198 0.6602 0.95443 0.0
C2902 C 0.92333 0.66152 0.96381 0.0
C2903 C 0.92163 0.65855 0.98111 0.0
C2904 C 0.91614 0.66619 0.95587 0.0
C2905 C 0.93382 0.66277 0.93564 0.0
C2906 C 0.92188 0.67785 0.94925 0.0
C2907 C 0.91524 0.68205 0.94082 0.0
C2908 C 0.9027 0.6747 0.93893 0.0
C2909 C 0.89692 0.66314 0.9461 0.0
C2910 C 0.90359 0.65895 0.95455 0.0
H2911 H 0.93845 0.65843 0.92957 0.0
H2912 H 0.92509 0.65963 0.92915 0.0
H2913 H 0.9395 0.67259 0.93366 0.0
H2914 H 0.93154 0.68364 0.95036 0.0
H2915 H 0.92002 0.69093 0.93529 0.0
H2916 H 0.36194 0.32289 0.01728 0.0
H2917 H 0.35761 0.30258 0.01069 0.0
H2918 H 0.33388 0.30013 0.97049 0.0
H2919 H 0.33796 0.32029 0.97718 0.0
H2920 H 0.32449 0.27935 0.99011 0.0
H2921 H 0.37144 0.29465 0.96923 0.0
H2922 H 0.36989 0.29888 0.9904 0.0
H2923 H 0.36603 0.30491 0.97261 0.0
C2924 C 0.35576 0.318 0.00708 0.0
C2925 C 0.35037 0.32323 0.99765 0.0
C2926 C 0.35334 0.30642 0.0033 0.0
C2927 C 0.34557 0.29993 0.98993 0.0
C2928 C 0.33993 0.305 0.98083 0.0
H2929 H 0.32341 0.2388 0.92796 0.0
H2930 H 0.32517 0.2555 0.94458 0.0
C2931 C 0.3423 0.31654 0.98464 0.0
C2932 C 0.34353 0.28798 0.985 0.0
H2933 H 0.35755 0.27397 0.96787 0.0
C2934 C 0.33173 0.27814 0.98537 0.0
C2935 C 0.353 0.28644 0.97887 0.0
C2936 C 0.36579 0.29677 0.97759 0.0
C2937 C 0.32911 0.26683 0.97946 0.0
C2938 C 0.33852 0.26539 0.97283 0.0
C2939 C 0.35037 0.27511 0.97303 0.0
C2940 C 0.33618 0.25424 0.96417 0.0
C2941 C 0.31628 0.25655 0.9802 0.0
C2942 C 0.34177 0.24796 0.96968 0.0
C2943 C 0.34073 0.23832 0.96022 0.0
C2944 C 0.33418 0.23488 0.94498 0.0
C2945 C 0.32831 0.241 0.9398 0.0
C2946 C 0.32931 0.25059 0.94929 0.0
H2947 H 0.31098 0.25804 0.99007 0.0
H2948 H 0.31192 0.25572 0.96777 0.0
H2949 H 0.31592 0.24795 0.98289 0.0
H2950 H 0.34717 0.2507 0.9811 0.0
H2951 H 0.34526 0.23372 0.96466 0.0
H2952 H 0.68002 0.05019 0.01588 0.0
H2953 H 0.70007 0.06338 0.00415 0.0
H2954 H 0.69886 0.03334 0.97837 0.0
H2955 H 0.67887 0.01997 0.99047 0.0
H2956 H 0.72109 0.04843 0.99234 0.0
H2957 H 0.70564 0.07447 0.95534 0.0
H2958 H 0.70265 0.07422 0.97763 0.0
H2959 H 0.6953 0.06051 0.9656 0.0
C2960 C 0.68401 0.04636 0.00775 0.0
C2961 C 0.67778 0.03404 0.00394 0.0
C2962 C 0.69547 0.05393 0.001 0.0
C2963 C 0.70084 0.04939 0.99006 0.0
C2964 C 0.69484 0.03704 0.98669 0.0
H2965 H 0.76311 0.08207 0.92392 0.0
H2966 H 0.74581 0.06794 0.94097 0.0
C2967 C 0.68341 0.02942 0.9936 0.0
C2968 C 0.71257 0.05761 0.98181 0.0
H2969 H 0.72674 0.08228 0.9563 0.0
C2970 C 0.72232 0.05581 0.98441 0.0
C2971 C 0.71414 0.06719 0.97137 0.0
C2972 C 0.70385 0.06916 0.96716 0.0
C2973 C 0.73366 0.06348 0.97708 0.0
C2974 C 0.73524 0.07315 0.96693 0.0
C2975 C 0.7255 0.07493 0.96429 0.0
C2976 C 0.74677 0.08136 0.95834 0.0
C2977 C 0.74393 0.06132 0.98039 0.0
C2978 C 0.75313 0.09355 0.96263 0.0
C2979 C 0.76311 0.10166 0.95302 0.0
C2980 C 0.76681 0.09773 0.93877 0.0
C2981 C 0.76066 0.0854 0.93494 0.0
C2982 C 0.75074 0.0773 0.94464 0.0
H2983 H 0.7419 0.05494 0.991 0.0
H2984 H 0.74568 0.05754 0.9688 0.0
H2985 H 0.75228 0.06989 0.98338 0.0
H2986 H 0.75017 0.09685 0.97315 0.0
H2987 H 0.76773 0.11105 0.95649 0.0
H2988 H 0.63936 0.95707 0.00618 0.0
H2989 H 0.64389 0.94133 0.01333 0.0
H2990 H 0.66691 0.96329 0.05391 0.0
H2991 H 0.6627 0.97909 0.04662 0.0
H2992 H 0.67707 0.95282 0.03583 0.0
H2993 H 0.63005 0.919 0.05383 0.0
H2994 H 0.63204 0.92467 0.03257 0.0
H2995 H 0.63479 0.93453 0.05023 0.0
C2996 C 0.64543 0.95855 0.01657 0.0
C2997 C 0.65063 0.96931 0.02589 0.0
C2998 C 0.64795 0.94952 0.02071 0.0
C2999 C 0.65558 0.95105 0.03434 0.0
C3000 C 0.66097 0.96189 0.04337 0.0
H3001 H 0.66358 0.90489 0.10199 0.0
H3002 H 0.65755 0.91689 0.08549 0.0
C3003 C 0.65854 0.97092 0.03919 0.0
C3004 C 0.65797 0.94143 0.03955 0.0
H3005 H 0.64466 0.91334 0.0567 0.0
C3006 C 0.66998 0.94413 0.04024 0.0
C3007 C 0.6487 0.93014 0.04541 0.0
C3008 C 0.63567 0.9269 0.04564 0.0
C3009 C 0.67303 0.93604 0.04718 0.0
C3010 C 0.66377 0.92479 0.0532 0.0
C3011 C 0.65172 0.92193 0.05197 0.0
C3012 C 0.66647 0.91643 0.06238 0.0
C3013 C 0.68618 0.93992 0.04884 0.0
C3014 C 0.6732 0.91186 0.05475 0.0
C3015 C 0.67673 0.90503 0.06422 0.0
C3016 C 0.67342 0.90249 0.08141 0.0
C3017 C 0.66616 0.90657 0.08873 0.0
C3018 C 0.66275 0.91347 0.07932 0.0
H3019 H 0.69212 0.94974 0.04711 0.0
H3020 H 0.68804 0.93743 0.06146 0.0
H3021 H 0.6886 0.93536 0.03897 0.0
H3022 H 0.67593 0.91378 0.04157 0.0
H3023 H 0.68219 0.90188 0.05818 0.0
H3024 H 0.03849 0.67775 0.00849 0.0
H3025 H 0.05459 0.69785 0.01675 0.0
H3026 H 0.02879 0.70342 0.0442 0.0
H3027 H 0.01273 0.6834 0.03623 0.0
H3028 H 0.05769 0.72144 0.01288 0.0
H3029 H 0.05379 0.70755 0.08023 0.0
H3030 H 0.0471 0.6969 0.06312 0.0
H3031 H 0.03982 0.70466 0.07115 0.0
C3032 C 0.03624 0.68331 0.01613 0.0
C3033 C 0.02436 0.67894 0.02187 0.0
C3034 C 0.04544 0.69478 0.02082 0.0
C3035 C 0.0429 0.70201 0.03133 0.0
C3036 C 0.03096 0.69789 0.03635 0.0
H3037 H 0.08294 0.77627 0.06056 0.0
H3038 H 0.0705 0.75733 0.04571 0.0
C3039 C 0.0218 0.68645 0.03173 0.0
C3040 C 0.05272 0.71362 0.03781 0.0
H3041 H 0.0656 0.72842 0.07461 0.0
C3042 C 0.05951 0.72297 0.02635 0.0
C3043 C 0.05521 0.71551 0.05536 0.0
C3044 C 0.04869 0.7056 0.06819 0.0
C3045 C 0.06847 0.73433 0.03209 0.0
C3046 C 0.07052 0.73638 0.04973 0.0
C3047 C 0.06398 0.72688 0.06109 0.0
C3048 C 0.07909 0.74834 0.05692 0.0
C3049 C 0.07567 0.74399 0.01922 0.0
C3050 C 0.08806 0.74961 0.0682 0.0
C3051 C 0.09503 0.76035 0.07697 0.0
C3052 C 0.09317 0.77007 0.07466 0.0
C3053 C 0.08453 0.76894 0.06279 0.0
C3054 C 0.07751 0.75815 0.05409 0.0
H3055 H 0.07572 0.74011 0.00664 0.0
H3056 H 0.07152 0.74964 0.01759 0.0
H3057 H 0.08511 0.74984 0.02343 0.0
H3058 H 0.08939 0.74212 0.07067 0.0
H3059 H 0.10145 0.76079 0.08618 0.0
H3060 H 0.31672 0.34146 0.01092 0.0
H3061 H 0.29555 0.33262 0.01917 0.0
H3062 H 0.30385 0.36562 0.04427 0.0
H3063 H 0.32481 0.37468 0.03518 0.0
H3064 H 0.2848 0.32736 0.04761 0.0
H3065 H 0.27547 0.36041 0.01862 0.0
H3066 H 0.28915 0.3603 0.01418 0.0
H3067 H 0.28803 0.36803 0.03259 0.0
C3068 C 0.31398 0.34684 0.01808 0.0
C3069 C 0.32237 0.35878 0.02229 0.0
C3070 C 0.30188 0.34179 0.02277 0.0
C3071 C 0.29799 0.34854 0.03198 0.0
C3072 C 0.30648 0.36037 0.03659 0.0
H3073 H 0.24149 0.32491 0.10383 0.0
H3074 H 0.2586 0.32831 0.08638 0.0
C3075 C 0.3185 0.36551 0.03154 0.0
C3076 C 0.28523 0.34307 0.03759 0.0
H3077 H 0.26251 0.34912 0.04223 0.0
C3078 C 0.27985 0.33203 0.04615 0.0
C3079 C 0.27852 0.34887 0.03523 0.0
C3080 C 0.28307 0.35998 0.02446 0.0
C3081 C 0.2683 0.32705 0.05333 0.0
C3082 C 0.26218 0.33356 0.05264 0.0
C3083 C 0.26724 0.3442 0.04313 0.0
C3084 C 0.25111 0.33011 0.06276 0.0
C3085 C 0.26284 0.31488 0.06158 0.0
C3086 C 0.24124 0.33025 0.05548 0.0
C3087 C 0.23158 0.32868 0.06561 0.0
C3088 C 0.23155 0.32672 0.08312 0.0
C3089 C 0.24119 0.32613 0.09028 0.0
C3090 C 0.25094 0.32799 0.08026 0.0
H3091 H 0.26587 0.30924 0.05505 0.0
H3092 H 0.26592 0.31596 0.07493 0.0
H3093 H 0.25285 0.31007 0.06142 0.0
H3094 H 0.24116 0.33195 0.04204 0.0
H3095 H 0.22426 0.32924 0.05986 0.0
H3096 H 0.68239 0.67088 0.38103 0.0
H3097 H 0.69804 0.66639 0.38841 0.0
H3098 H 0.72009 0.68855 0.34705 0.0
H3099 H 0.70452 0.69337 0.33984 0.0
H3100 H 0.70795 0.65562 0.37062 0.0
H3101 H 0.74301 0.70233 0.38671 0.0
H3102 H 0.72748 0.69797 0.38339 0.0
H3103 H 0.73718 0.70031 0.36555 0.0
C3104 C 0.69056 0.67481 0.37348 0.0
C3105 C 0.69225 0.68255 0.35991 0.0
C3106 C 0.6995 0.67222 0.3777 0.0
C3107 C 0.71032 0.67726 0.36845 0.0
C3108 C 0.71193 0.68476 0.35461 0.0
H3109 H 0.75939 0.64992 0.38937 0.0
H3110 H 0.74675 0.65584 0.37387 0.0
C3111 C 0.703 0.68745 0.35044 0.0
C3112 C 0.71983 0.67463 0.37353 0.0
H3113 H 0.74845 0.68755 0.38902 0.0
C3114 C 0.71684 0.6626 0.37452 0.0
C3115 C 0.73139 0.68376 0.37875 0.0
C3116 C 0.73497 0.69682 0.37871 0.0
C3117 C 0.72495 0.65941 0.38103 0.0
C3118 C 0.73651 0.66853 0.38629 0.0
C3119 C 0.73962 0.68058 0.38485 0.0
C3120 C 0.74504 0.66574 0.39485 0.0
C3121 C 0.72083 0.64628 0.383 0.0
C3122 C 0.7487 0.66975 0.4115 0.0
C3123 C 0.75601 0.66651 0.42026 0.0
C3124 C 0.75983 0.65918 0.41256 0.0
C3125 C 0.75648 0.65547 0.39568 0.0
C3126 C 0.74923 0.65881 0.38685 0.0
H3127 H 0.71089 0.64053 0.382 0.0
H3128 H 0.72495 0.64356 0.37282 0.0
H3129 H 0.72367 0.64453 0.39543 0.0
H3130 H 0.74558 0.67509 0.41794 0.0
H3131 H 0.75829 0.66939 0.43331 0.0
H3132 H 0.3215 0.01436 0.36744 0.0
H3133 H 0.32996 0.03462 0.37901 0.0
H3134 H 0.29608 0.03301 0.37112 0.0
H3135 H 0.28749 0.01275 0.35974 0.0
H3136 H 0.33204 0.05543 0.36371 0.0
H3137 H 0.30319 0.04201 0.42147 0.0
H3138 H 0.30478 0.03137 0.40851 0.0
H3139 H 0.29508 0.03681 0.40188 0.0
C3140 C 0.31583 0.0183 0.36819 0.0
C3141 C 0.30378 0.01188 0.36276 0.0
C3142 C 0.32069 0.02988 0.37477 0.0
C3143 C 0.31359 0.03523 0.37614 0.0
C3144 C 0.30164 0.02895 0.37047 0.0
H3145 H 0.32638 0.10305 0.41799 0.0
H3146 H 0.31796 0.08388 0.40294 0.0
C3147 C 0.29677 0.01738 0.3639 0.0
C3148 C 0.31867 0.0474 0.38346 0.0
H3149 H 0.31545 0.06282 0.41631 0.0
C3150 C 0.32844 0.05706 0.37523 0.0
C3151 C 0.31392 0.04948 0.39846 0.0
C3152 C 0.30373 0.03937 0.40821 0.0
C3153 C 0.33352 0.0688 0.38151 0.0
C3154 C 0.32881 0.07087 0.39656 0.0
C3155 C 0.31899 0.06121 0.40472 0.0
C3156 C 0.3342 0.08289 0.40447 0.0
C3157 C 0.34377 0.0789 0.37185 0.0
C3158 C 0.3461 0.08867 0.4103 0.0
C3159 C 0.35091 0.09957 0.41894 0.0
C3160 C 0.34388 0.10489 0.42203 0.0
C3161 C 0.332 0.09915 0.41594 0.0
C3162 C 0.32719 0.08824 0.40729 0.0
H3163 H 0.34404 0.07641 0.35842 0.0
H3164 H 0.34304 0.08709 0.37212 0.0
H3165 H 0.35242 0.08107 0.37783 0.0
H3166 H 0.35157 0.08456 0.40865 0.0
H3167 H 0.36 0.1036 0.42377 0.0
H3168 H 0.98867 0.31633 0.36299 0.0
H3169 H 0.96821 0.3041 0.37438 0.0
H3170 H 0.96868 0.27197 0.36131 0.0
H3171 H 0.98899 0.28402 0.34981 0.0
H3172 H 0.94682 0.27153 0.35284 0.0
H3173 H 0.96118 0.28537 0.41966 0.0
H3174 H 0.96515 0.29714 0.40443 0.0
H3175 H 0.97181 0.2879 0.40289 0.0
C3176 C 0.9844 0.30666 0.36247 0.0
C3177 C 0.99052 0.30116 0.3556 0.0
C3178 C 0.97272 0.2997 0.36901 0.0
C3179 C 0.967 0.28715 0.36881 0.0
C3180 C 0.97295 0.28165 0.36158 0.0
H3181 H 0.91498 0.22918 0.42574 0.0
H3182 H 0.93218 0.24532 0.4109 0.0
C3183 C 0.9846 0.28857 0.35507 0.0
C3184 C 0.95501 0.2796 0.3767 0.0
H3185 H 0.94096 0.27072 0.41519 0.0
C3186 C 0.94545 0.27146 0.36644 0.0
C3187 C 0.95333 0.27952 0.39445 0.0
C3188 C 0.9634 0.28787 0.40609 0.0
C3189 C 0.93434 0.26294 0.37355 0.0
C3190 C 0.9328 0.26262 0.39134 0.0
C3191 C 0.9422 0.27106 0.40153 0.0
C3192 C 0.92208 0.25278 0.39982 0.0
C3193 C 0.92455 0.25392 0.36214 0.0
C3194 C 0.91068 0.25162 0.39844 0.0
C3195 C 0.90074 0.2423 0.40686 0.0
C3196 C 0.90209 0.23399 0.41671 0.0
C3197 C 0.91356 0.23524 0.41797 0.0
C3198 C 0.92343 0.24453 0.40964 0.0
H3199 H 0.92769 0.25453 0.34882 0.0
H3200 H 0.92123 0.24468 0.36687 0.0
H3201 H 0.91685 0.25549 0.36225 0.0
H3202 H 0.9095 0.25798 0.39102 0.0
H3203 H 0.89203 0.24157 0.40566 0.0
H3204 H 0.00818 0.35744 0.31457 0.0
H3205 H 0.00608 0.37467 0.30783 0.0
H3206 H 0.03236 0.39559 0.34597 0.0
H3207 H 0.03473 0.3784 0.35258 0.0
H3208 H -0.00042 0.3885 0.32724 0.0
H3209 H 0.04663 0.41564 0.30316 0.0
H3210 H 0.03969 0.39981 0.30747 0.0
H3211 H 0.04505 0.41042 0.32464 0.0
C3212 C 0.01348 0.36567 0.32161 0.0
C3213 C 0.02172 0.36659 0.33399 0.0
C3214 C 0.01224 0.37551 0.31776 0.0
C3215 C 0.0192 0.38646 0.32621 0.0
C3216 C 0.02708 0.38728 0.33906 0.0
H3217 H 0.02549 0.45474 0.29587 0.0
H3218 H 0.02641 0.43964 0.31347 0.0
C3219 C 0.02838 0.37744 0.34288 0.0
C3220 C 0.01844 0.39704 0.32094 0.0
H3221 H 0.03442 0.42423 0.30134 0.0
C3222 C 0.00723 0.39637 0.32174 0.0
C3223 C 0.02844 0.40732 0.3138 0.0
C3224 C 0.04062 0.40837 0.31205 0.0
C3225 C 0.00566 0.40556 0.31517 0.0
C3226 C 0.01554 0.41559 0.30745 0.0
C3227 C 0.02688 0.41652 0.30732 0.0
C3228 C 0.0141 0.42462 0.29793 0.0
C3229 C 0.99341 0.40436 0.3163 0.0
C3230 C 0.00688 0.42115 0.28338 0.0
C3231 C 0.00645 0.42973 0.27321 0.0
C3232 C 0.01324 0.44198 0.27736 0.0
C3233 C 0.02025 0.4454 0.2922 0.0
C3234 C 0.02073 0.43679 0.30234 0.0
H3235 H 0.98794 0.39826 0.32677 0.0
H3236 H 0.99418 0.41322 0.31829 0.0
H3237 H 0.98852 0.40054 0.30425 0.0
H3238 H 0.00194 0.41184 0.27952 0.0
H3239 H 0.00117 0.42676 0.2617 0.0
H3240 H 0.61133 0.65407 0.33611 0.0
H3241 H 0.59937 0.63362 0.32528 0.0
H3242 H 0.63183 0.63247 0.31638 0.0
H3243 H 0.64388 0.65286 0.32743 0.0
H3244 H 0.60036 0.62535 0.29337 0.0
H3245 H 0.61088 0.60142 0.34244 0.0
H3246 H 0.61405 0.6166 0.34527 0.0
H3247 H 0.62395 0.61366 0.33268 0.0
C3248 C 0.61594 0.64946 0.33195 0.0
C3249 C 0.62858 0.65511 0.33269 0.0
C3250 C 0.60908 0.63777 0.32577 0.0
C3251 C 0.61469 0.63146 0.32028 0.0
C3252 C 0.62729 0.63707 0.32091 0.0
H3253 H 0.59198 0.56459 0.26856 0.0
H3254 H 0.60283 0.58359 0.28387 0.0
C3255 C 0.63417 0.64877 0.32712 0.0
C3256 C 0.60739 0.61922 0.31316 0.0
H3257 H 0.60069 0.59024 0.3178 0.0
C3258 C 0.60034 0.61765 0.29879 0.0
C3259 C 0.60741 0.6092 0.32025 0.0
C3260 C 0.61439 0.61024 0.33611 0.0
C3261 C 0.59355 0.60639 0.29106 0.0
C3262 C 0.59365 0.59639 0.29807 0.0
C3263 C 0.60062 0.59792 0.3125 0.0
C3264 C 0.58687 0.58436 0.2902 0.0
C3265 C 0.5866 0.60535 0.27517 0.0
C3266 C 0.57427 0.57832 0.28914 0.0
C3267 C 0.56802 0.56741 0.28048 0.0
C3268 C 0.57426 0.56232 0.27278 0.0
C3269 C 0.58686 0.56817 0.2745 0.0
C3270 C 0.59309 0.57907 0.28316 0.0
H3271 H 0.58958 0.61424 0.26936 0.0
H3272 H 0.5876 0.59958 0.26563 0.0
H3273 H 0.57689 0.60118 0.27837 0.0
H3274 H 0.56929 0.58215 0.29479 0.0
H3275 H 0.55831 0.56304 0.27962 0.0
H3276 H 0.34414 -0.00059 0.32034 0.0
H3277 H 0.36361 0.00246 0.31096 0.0
H3278 H 0.35659 0.97037 0.33726 0.0
H3279 H 0.33712 0.96733 0.34699 0.0
H3280 H 0.38056 0.98947 0.34058 0.0
H3281 H 0.36584 0.9817 0.27342 0.0
H3282 H 0.36438 0.99337 0.28347 0.0
H3283 H 0.35545 0.97818 0.29087 0.0
C3284 C 0.34677 0.99304 0.32426 0.0
C3285 C 0.33903 0.98305 0.33426 0.0
C3286 C 0.35788 0.99478 0.31883 0.0
C3287 C 0.36142 0.98651 0.32313 0.0
C3288 C 0.35397 0.97681 0.33372 0.0
H3289 H 0.41596 0.98122 0.26528 0.0
H3290 H 0.39779 0.97661 0.28104 0.0
C3291 C 0.34286 0.97509 0.33925 0.0
C3292 C 0.37266 0.98775 0.31596 0.0
H3293 H 0.3866 0.98915 0.2784 0.0
C3294 C 0.38188 0.98934 0.32699 0.0
C3295 C 0.37427 0.98735 0.29825 0.0
C3296 C 0.36442 0.98494 0.2858 0.0
C3297 C 0.39282 0.99088 0.32072 0.0
C3298 C 0.39461 0.99101 0.30297 0.0
C3299 C 0.38526 0.98913 0.292 0.0
C3300 C 0.4061 0.99319 0.2953 0.0
C3301 C 0.40228 0.9922 0.33315 0.0
C3302 C 0.41691 0.00396 0.29828 0.0
C3303 C 0.42741 0.00656 0.28944 0.0
C3304 C 0.42728 -0.0015 0.27728 0.0
C3305 C 0.4165 0.98756 0.27472 0.0
C3306 C 0.40605 0.98494 0.28363 0.0
H3307 H 0.39828 0.98838 0.34574 0.0
H3308 H 0.40716 0.98773 0.3284 0.0
H3309 H 0.40892 0.00187 0.33494 0.0
H3310 H 0.41713 0.01057 0.30697 0.0
H3311 H 0.43556 0.01502 0.29186 0.0
H3312 H 0.6416 0.98588 0.32471 0.0
H3313 H 0.62803 0.99227 0.31347 0.0
H3314 H 0.59745 0.95769 0.32571 0.0
H3315 H 0.61084 0.95125 0.33699 0.0
H3316 H 0.6117 0.98139 0.28665 0.0
H3317 H 0.58802 0.98122 0.34562 0.0
H3318 H 0.60216 0.98144 0.34573 0.0
H3319 H 0.58825 0.96759 0.34251 0.0
C3320 C 0.63198 0.97967 0.32515 0.0
C3321 C 0.62731 0.96804 0.33176 0.0
C3322 C 0.62425 0.98334 0.31874 0.0
C3323 C 0.61174 0.97552 0.31903 0.0
C3324 C 0.60706 0.96396 0.32571 0.0
H3325 H 0.55406 0.9663 0.25764 0.0
H3326 H 0.57035 0.96599 0.27282 0.0
C3327 C 0.61476 0.96026 0.33203 0.0
C3328 C 0.60352 0.97902 0.31132 0.0
H3329 H 0.57822 0.9805 0.31937 0.0
C3330 C 0.6045 0.98139 0.29385 0.0
C3331 C 0.59422 0.97917 0.32077 0.0
C3332 C 0.59315 0.97734 0.33973 0.0
C3333 C 0.59601 0.98323 0.2854 0.0
C3334 C 0.58625 0.98254 0.29466 0.0
C3335 C 0.58565 0.98087 0.31229 0.0
C3336 C 0.57616 0.98271 0.28603 0.0
C3337 C 0.5974 0.98562 0.26656 0.0
C3338 C 0.57382 0.99205 0.28884 0.0
C3339 C 0.56442 0.99222 0.28023 0.0
C3340 C 0.55714 0.98295 0.26888 0.0
C3341 C 0.55937 0.97348 0.26647 0.0
C3342 C 0.56878 0.97336 0.27497 0.0
H3343 H 0.60682 0.98904 0.26227 0.0
H3344 H 0.5915 0.97715 0.25967 0.0
H3345 H 0.59469 0.99222 0.26303 0.0
H3346 H 0.57938 -0.00071 0.29745 0.0
H3347 H 0.56287 -0.00041 0.28243 0.0
H3348 H -3e-05 0.65514 0.31952 0.0
H3349 H 0.99539 0.6351 0.31099 0.0
H3350 H 0.02809 0.64106 0.33465 0.0
H3351 H 0.03263 0.66106 0.34354 0.0
H3352 H 0.00902 0.63035 0.2898 0.0
H3353 H 0.00375 0.60761 0.35144 0.0
H3354 H 0.00361 0.62144 0.34962 0.0
H3355 H 0.01765 0.62161 0.34946 0.0
C3356 C 0.00611 0.65213 0.32312 0.0
C3357 C 0.01668 0.65969 0.33218 0.0
C3358 C 0.00347 0.64067 0.31825 0.0
C3359 C 0.01132 0.63653 0.32234 0.0
C3360 C 0.02177 0.64396 0.33168 0.0
H3361 H 0.01697 0.58239 0.26543 0.0
H3362 H 0.02076 0.6005 0.28037 0.0
C3363 C 0.02439 0.65542 0.33665 0.0
C3364 C 0.00907 0.62486 0.31555 0.0
H3365 H 0.00531 0.59768 0.32679 0.0
C3366 C 0.00815 0.62319 0.29791 0.0
C3367 C 0.00782 0.61549 0.32615 0.0
C3368 C 0.00814 0.61655 0.34523 0.0
C3369 C 0.00619 0.61249 0.29053 0.0
C3370 C 0.0054 0.60328 0.30107 0.0
C3371 C 0.00608 0.60483 0.31875 0.0
C3372 C 0.00373 0.59197 0.29381 0.0
C3373 C 0.00484 0.61107 0.27151 0.0
C3374 C 0.99315 0.58105 0.29707 0.0
C3375 C 0.99101 0.5706 0.28872 0.0
C3376 C -0.00055 0.57089 0.277 0.0
C3377 C 0.01032 0.58177 0.27447 0.0
C3378 C 0.01245 0.59218 0.28285 0.0
H3379 H 0.00259 0.61753 0.26583 0.0
H3380 H 0.01346 0.61276 0.26583 0.0
H3381 H -0.00228 0.60185 0.26803 0.0
H3382 H 0.98635 0.5807 0.3056 0.0
H3383 H 0.98264 0.56234 0.29117 0.0
H3384 H 0.34656 0.35271 0.32471 0.0
H3385 H 0.36673 0.36498 0.31254 0.0
H3386 H 0.36511 0.39692 0.32233 0.0
H3387 H 0.34502 0.3848 0.33465 0.0
H3388 H 0.37357 0.38091 0.28473 0.0
H3389 H 0.39732 0.40455 0.34362 0.0
H3390 H 0.38265 0.39112 0.34388 0.0
H3391 H 0.38412 0.40535 0.33895 0.0
C3392 C 0.3505 0.36235 0.32434 0.0
C3393 C 0.34417 0.36776 0.33073 0.0
C3394 C 0.36202 0.36934 0.31738 0.0
C3395 C 0.36747 0.38186 0.31679 0.0
C3396 C 0.36116 0.38729 0.32299 0.0
H3397 H 0.43468 0.43957 0.27573 0.0
H3398 H 0.41516 0.42747 0.28989 0.0
C3399 C 0.34964 0.38032 0.32993 0.0
C3400 C 0.3796 0.38923 0.30917 0.0
H3401 H 0.40831 0.41155 0.31781 0.0
C3402 C 0.38119 0.38756 0.29197 0.0
C3403 C 0.38949 0.39794 0.31866 0.0
C3404 C 0.38839 0.39981 0.33734 0.0
C3405 C 0.39237 0.39451 0.28389 0.0
C3406 C 0.40228 0.4032 0.29338 0.0
C3407 C 0.40069 0.40488 0.31059 0.0
C3408 C 0.41436 0.41057 0.28562 0.0
C3409 C 0.39341 0.39268 0.26517 0.0
C3410 C 0.4205 0.40509 0.27893 0.0
C3411 C 0.43159 0.41195 0.27076 0.0
C3412 C 0.43682 0.42445 0.26924 0.0
C3413 C 0.43083 0.42996 0.2765 0.0
C3414 C 0.41971 0.42307 0.28466 0.0
H3415 H 0.38446 0.38803 0.25893 0.0
H3416 H 0.39918 0.40137 0.25866 0.0
H3417 H 0.39758 0.38706 0.26344 0.0
H3418 H 0.41662 0.39547 0.2798 0.0
H3419 H 0.43585 0.40737 0.26516 0.0
H3420 H 0.30325 0.28976 0.35015 0.0
H3421 H 0.30875 0.27504 0.35931 0.0
H3422 H 0.34224 0.30361 0.37911 0.0
H3423 H 0.33679 0.31829 0.37028 0.0
H3424 H 0.32919 0.27247 0.35236 0.0
H3425 H 0.3261 0.28181 0.42033 0.0
H3426 H 0.32003 0.2867 0.40366 0.0
H3427 H 0.33587 0.29501 0.40828 0.0
C3428 C 0.31183 0.2929 0.35633 0.0
C3429 C 0.31952 0.30518 0.35967 0.0
C3430 C 0.31495 0.28449 0.36154 0.0
C3431 C 0.32579 0.28823 0.37017 0.0
C3432 C 0.33372 0.30052 0.37279 0.0
H3433 H 0.3644 0.25935 0.41941 0.0
H3434 H 0.35764 0.27132 0.40439 0.0
C3435 C 0.3306 0.3089 0.36767 0.0
C3436 C 0.32873 0.27938 0.37707 0.0
H3437 H 0.3355 0.27045 0.41403 0.0
C3438 C 0.33046 0.27192 0.36584 0.0
C3439 C 0.33027 0.27861 0.39469 0.0
C3440 C 0.32786 0.28587 0.40747 0.0
C3441 C 0.3342 0.26408 0.37177 0.0
C3442 C 0.33616 0.26367 0.38932 0.0
C3443 C 0.3341 0.27087 0.40055 0.0
C3444 C 0.34071 0.25614 0.39644 0.0
C3445 C 0.33642 0.25658 0.35923 0.0
C3446 C 0.33348 0.2436 0.39673 0.0
C3447 C 0.33734 0.23669 0.40528 0.0
C3448 C 0.34851 0.24222 0.41368 0.0
C3449 C 0.35586 0.25476 0.41284 0.0
C3450 C 0.35198 0.26164 0.40436 0.0
H3451 H 0.33637 0.25934 0.34591 0.0
H3452 H 0.3452 0.25722 0.36177 0.0
H3453 H 0.32927 0.24704 0.36064 0.0
H3454 H 0.32467 0.2392 0.39087 0.0
H3455 H 0.3315 0.22704 0.40562 0.0
H3456 H 0.70157 0.01102 0.33387 0.0
H3457 H 0.71661 0.03199 0.3398 0.0
H3458 H 0.69906 0.02976 0.38759 0.0
H3459 H 0.68378 0.00905 0.38141 0.0
H3460 H 0.705 0.05004 0.37222 0.0
H3461 H 0.74455 0.04375 0.37139 0.0
H3462 H 0.7363 0.03974 0.35188 0.0
H3463 H 0.7293 0.03131 0.37086 0.0
C3464 C 0.70094 0.01503 0.34562 0.0
C3465 C 0.69153 0.00839 0.3572 0.0
C3466 C 0.70958 0.02698 0.34906 0.0
C3467 C 0.70911 0.0324 0.3643 0.0
C3468 C 0.69963 0.02578 0.37575 0.0
H3469 H 0.76287 0.09097 0.42099 0.0
H3470 H 0.74966 0.07216 0.40642 0.0
C3471 C 0.69091 0.01393 0.37222 0.0
C3472 C 0.71838 0.04496 0.36849 0.0
H3473 H 0.74845 0.06345 0.37562 0.0
C3474 C 0.71452 0.05299 0.3729 0.0
C3475 C 0.73079 0.04878 0.36947 0.0
C3476 C 0.7355 0.04043 0.36581 0.0
C3477 C 0.72261 0.06459 0.37879 0.0
C3478 C 0.73503 0.06844 0.3797 0.0
C3479 C 0.73895 0.06053 0.37478 0.0
C3480 C 0.7439 0.08015 0.3873 0.0
C3481 C 0.71765 0.07233 0.38482 0.0
C3482 C 0.74537 0.09099 0.38113 0.0
C3483 C 0.75283 0.10178 0.38962 0.0
C3484 C 0.75917 0.10192 0.40415 0.0
C3485 C 0.7582 0.09116 0.40972 0.0
C3486 C 0.75062 0.08039 0.40141 0.0
H3487 H 0.70779 0.06698 0.38723 0.0
H3488 H 0.72214 0.07716 0.39667 0.0
H3489 H 0.71925 0.07906 0.37493 0.0
H3490 H 0.74055 0.09109 0.36997 0.0
H3491 H 0.75351 0.10997 0.38498 0.0
H3492 H 0.99006 0.71287 0.35929 0.0
H3493 H 0.96971 0.70433 0.37099 0.0
H3494 H 0.96764 0.67026 0.37729 0.0
H3495 H 0.988 0.6787 0.36574 0.0
H3496 H 0.94787 0.68416 0.35918 0.0
H3497 H 0.95918 0.67762 0.42471 0.0
H3498 H 0.97051 0.68715 0.40946 0.0
H3499 H 0.96384 0.67116 0.40829 0.0
C3500 C 0.9853 0.70356 0.36321 0.0
C3501 C 0.99071 0.69649 0.36167 0.0
C3502 C 0.97367 0.6987 0.36985 0.0
C3503 C 0.96725 0.68672 0.37519 0.0
C3504 C 0.97253 0.67959 0.3735 0.0
H3505 H 0.89805 0.64169 0.42307 0.0
H3506 H 0.91739 0.64968 0.40851 0.0
C3507 C 0.98416 0.68442 0.36684 0.0
C3508 C 0.95499 0.68166 0.38245 0.0
H3509 H 0.93852 0.66949 0.41853 0.0
C3510 C 0.9458 0.68098 0.37217 0.0
C3511 C 0.95236 0.67753 0.39939 0.0
C3512 C 0.96199 0.67847 0.41119 0.0
C3513 C 0.93396 0.67605 0.3783 0.0
C3514 C 0.93134 0.67191 0.39525 0.0
C3515 C 0.94055 0.67264 0.40552 0.0
C3516 C 0.91911 0.6668 0.4027 0.0
C3517 C 0.92433 0.67507 0.36648 0.0
C3518 C 0.9136 0.67376 0.40415 0.0
C3519 C 0.90246 0.66916 0.41231 0.0
C3520 C 0.89665 0.65755 0.41931 0.0
C3521 C 0.90214 0.65057 0.41757 0.0
C3522 C 0.91325 0.65516 0.40938 0.0
H3523 H 0.92705 0.67561 0.35296 0.0
H3524 H 0.91573 0.66653 0.3685 0.0
H3525 H 0.92271 0.68258 0.36902 0.0
H3526 H 0.91807 0.68285 0.39935 0.0
H3527 H 0.89846 0.67475 0.41334 0.0
H3528 H 0.35303 0.00882 0.71719 0.0
H3529 H 0.36938 0.00556 0.72543 0.0
H3530 H 0.3902 0.02598 0.68208 0.0
H3531 H 0.37397 0.02962 0.67405 0.0
H3532 H 0.37944 0.99454 0.7095 0.0
H3533 H 0.41401 0.04232 0.71987 0.0
H3534 H 0.39832 0.03741 0.7168 0.0
H3535 H 0.40777 0.03906 0.69891 0.0
C3536 C 0.36108 0.01264 0.7094 0.0
C3537 C 0.36223 0.01955 0.69502 0.0
C3538 C 0.37043 0.01076 0.71412 0.0
C3539 C 0.38111 0.01569 0.70454 0.0
C3540 C 0.38217 0.02234 0.68992 0.0
H3541 H 0.43188 0.99075 0.72581 0.0
H3542 H 0.4185 0.99582 0.7106 0.0
C3543 C 0.37286 0.02434 0.68527 0.0
C3544 C 0.391 0.01372 0.70996 0.0
H3545 H 0.42032 0.02818 0.72294 0.0
C3546 C 0.3884 0.0019 0.71236 0.0
C3547 C 0.40266 0.02333 0.71385 0.0
C3548 C 0.40587 0.03625 0.71239 0.0
C3549 C 0.39701 -0.0006 0.71888 0.0
C3550 C 0.40871 0.009 0.72261 0.0
C3551 C 0.41139 0.02083 0.7199 0.0
C3552 C 0.41794 0.00699 0.73068 0.0
C3553 C 0.3933 0.98651 0.72242 0.0
C3554 C 0.42261 0.01211 0.74659 0.0
C3555 C 0.4304 0.0094 0.75513 0.0
C3556 C 0.43365 0.00147 0.74797 0.0
C3557 C 0.42941 0.99678 0.7317 0.0
C3558 C 0.42172 -0.00038 0.72306 0.0
H3559 H 0.38335 0.98062 0.72283 0.0
H3560 H 0.3968 0.98319 0.71218 0.0
H3561 H 0.39702 0.98568 0.73467 0.0
H3562 H 0.41985 0.01785 0.75271 0.0
H3563 H 0.4334 0.01305 0.76772 0.0
H3564 H 0.95384 0.34271 0.67557 0.0
H3565 H 0.95937 0.36226 0.68745 0.0
H3566 H 0.99123 0.36488 0.70935 0.0
H3567 H 0.98593 0.34543 0.69713 0.0
H3568 H 0.96129 0.36767 0.7206 0.0
H3569 H 0.00485 0.39784 0.6887 0.0
H3570 H 0.99473 0.38276 0.68144 0.0
H3571 H 0.0045 0.38538 0.69916 0.0
C3572 C 0.96211 0.34749 0.68274 0.0
C3573 C 0.96943 0.34249 0.68543 0.0
C3574 C 0.96526 0.35868 0.68951 0.0
C3575 C 0.97579 0.36511 0.69911 0.0
C3576 C 0.98322 0.36023 0.70164 0.0
H3577 H 0.00026 0.42399 0.76932 0.0
H3578 H -0.00185 0.40773 0.75108 0.0
C3579 C 0.98012 0.34905 0.69475 0.0
C3580 C 0.9784 0.37642 0.70761 0.0
H3581 H -0.00029 0.40601 0.71239 0.0
C3582 C 0.96964 0.37607 0.71866 0.0
C3583 C 0.98933 0.38737 0.70512 0.0
C3584 C -0.00115 0.38842 0.69284 0.0
C3585 C 0.97158 0.38631 0.7275 0.0
C3586 C 0.98254 0.3972 0.72514 0.0
C3587 C 0.99131 0.39761 0.7141 0.0
C3588 C 0.98504 0.40812 0.73453 0.0
C3589 C 0.96202 0.38536 0.73961 0.0
C3590 C 0.97862 0.41392 0.73089 0.0
C3591 C 0.97986 0.42329 0.74119 0.0
C3592 C 0.98754 0.42699 0.75535 0.0
C3593 C 0.99438 0.42149 0.75843 0.0
C3594 C 0.99316 0.41216 0.74807 0.0
H3595 H 0.95494 0.3759 0.74205 0.0
H3596 H 0.9661 0.38971 0.7519 0.0
H3597 H 0.95765 0.3901 0.73414 0.0
H3598 H 0.97237 0.41096 0.72037 0.0
H3599 H 0.97462 0.42747 0.73828 0.0
H3600 H 0.65582 0.64584 0.70108 0.0
H3601 H 0.63523 0.63374 0.7119 0.0
H3602 H 0.63383 0.60173 0.69309 0.0
H3603 H 0.6545 0.61369 0.68269 0.0
H3604 H 0.61425 0.61925 0.69576 0.0
H3605 H 0.62362 0.59265 0.74171 0.0
H3606 H 0.63546 0.60578 0.73132 0.0
H3607 H 0.62799 0.5916 0.72042 0.0
C3608 C 0.65115 0.63622 0.69931 0.0
C3609 C 0.65685 0.63072 0.69116 0.0
C3610 C 0.63938 0.62932 0.70548 0.0
C3611 C 0.63307 0.61681 0.70358 0.0
C3612 C 0.63864 0.61133 0.69511 0.0
H3613 H 0.56036 0.56086 0.73056 0.0
H3614 H 0.57981 0.57285 0.71621 0.0
C3615 C 0.65044 0.6182 0.6891 0.0
C3616 C 0.62063 0.60952 0.71031 0.0
H3617 H 0.60303 0.58631 0.73701 0.0
C3618 C 0.61181 0.61207 0.70482 0.0
C3619 C 0.61747 0.60018 0.72219 0.0
C3620 C 0.62665 0.59745 0.7294 0.0
C3621 C 0.59989 0.60546 0.71076 0.0
C3622 C 0.59675 0.59607 0.72243 0.0
C3623 C 0.60551 0.59346 0.72789 0.0
C3624 C 0.58453 0.58917 0.72983 0.0
C3625 C 0.59069 0.60846 0.70451 0.0
C3626 C 0.58079 0.59444 0.74212 0.0
C3627 C 0.5698 0.5876 0.75054 0.0
C3628 C 0.56232 0.57534 0.74677 0.0
C3629 C 0.56595 0.57022 0.73396 0.0
C3630 C 0.57701 0.57705 0.72567 0.0
H3631 H 0.59407 0.61467 0.69349 0.0
H3632 H 0.58228 0.60017 0.70082 0.0
H3633 H 0.58841 0.61279 0.7149 0.0
H3634 H 0.58658 0.60375 0.74565 0.0
H3635 H 0.56746 0.59182 0.76053 0.0
H3636 H 0.66941 0.68367 0.64982 0.0
H3637 H 0.6653 0.69969 0.64319 0.0
H3638 H 0.6941 0.72373 0.67625 0.0
H3639 H 0.69839 0.70778 0.68283 0.0
H3640 H 0.65962 0.71417 0.66432 0.0
H3641 H 0.70312 0.74083 0.62987 0.0
H3642 H 0.69718 0.72532 0.63552 0.0
H3643 H 0.70421 0.73684 0.65133 0.0
C3644 C 0.67484 0.69235 0.65577 0.0
C3645 C 0.68431 0.6945 0.66672 0.0
C3646 C 0.67244 0.70147 0.652 0.0
C3647 C 0.67949 0.71292 0.65906 0.0
C3648 C 0.68867 0.715 0.67048 0.0
H3649 H 0.68305 0.77957 0.62983 0.0
H3650 H 0.68509 0.76466 0.64622 0.0
C3651 C 0.69109 0.70587 0.67425 0.0
C3652 C 0.67754 0.72278 0.65379 0.0
H3653 H 0.69052 0.749 0.63153 0.0
C3654 C 0.66639 0.72184 0.65724 0.0
C3655 C 0.6864 0.73276 0.64456 0.0
C3656 C 0.69837 0.73401 0.63995 0.0
C3657 C 0.66383 0.73061 0.65163 0.0
C3658 C 0.67259 0.74043 0.64206 0.0
C3659 C 0.68383 0.74149 0.63895 0.0
C3660 C 0.67013 0.74936 0.63414 0.0
C3661 C 0.6518 0.72928 0.65603 0.0
C3662 C 0.6609 0.7457 0.62214 0.0
C3663 C 0.65971 0.7542 0.61279 0.0
C3664 C 0.66783 0.76651 0.61512 0.0
C3665 C 0.67673 0.77015 0.62766 0.0
C3666 C 0.67789 0.76165 0.63706 0.0
H3667 H 0.64784 0.72371 0.66758 0.0
H3668 H 0.6526 0.73814 0.65811 0.0
H3669 H 0.64547 0.72474 0.64539 0.0
H3670 H 0.655 0.73628 0.61937 0.0
H3671 H 0.65289 0.75111 0.60304 0.0
H3672 H 0.28092 0.9884 0.66776 0.0
H3673 H 0.26931 0.96781 0.65751 0.0
H3674 H 0.3021 0.96706 0.64999 0.0
H3675 H 0.31383 0.98764 0.66055 0.0
H3676 H 0.2705 0.95924 0.62627 0.0
H3677 H 0.28137 0.93622 0.67639 0.0
H3678 H 0.28444 0.9514 0.67871 0.0
H3679 H 0.29434 0.94835 0.66629 0.0
C3680 C 0.2857 0.98386 0.66403 0.0
C3681 C 0.29833 0.98969 0.66502 0.0
C3682 C 0.27902 0.97207 0.65818 0.0
C3683 C 0.28482 0.96583 0.65323 0.0
C3684 C 0.29742 0.97161 0.65412 0.0
H3685 H 0.26067 0.89777 0.60336 0.0
H3686 H 0.27218 0.91702 0.61791 0.0
C3687 C 0.30412 0.98341 0.66004 0.0
C3688 C 0.27765 0.95348 0.64639 0.0
H3689 H 0.27084 0.92456 0.65229 0.0
C3690 C 0.27052 0.95165 0.63203 0.0
C3691 C 0.27771 0.94359 0.6539 0.0
C3692 C 0.28478 0.94493 0.66977 0.0
C3693 C 0.26359 0.94023 0.62481 0.0
C3694 C 0.26366 0.93036 0.63229 0.0
C3695 C 0.2708 0.93216 0.64663 0.0
C3696 C 0.25655 0.91814 0.6251 0.0
C3697 C 0.25644 0.93887 0.60899 0.0
C3698 C 0.24393 0.91223 0.62482 0.0
C3699 C 0.23731 0.90118 0.61662 0.0
C3700 C 0.2432 0.89583 0.60858 0.0
C3701 C 0.25583 0.90155 0.60957 0.0
C3702 C 0.26244 0.91259 0.6178 0.0
H3703 H 0.25938 0.94763 0.60279 0.0
H3704 H 0.25729 0.93287 0.59971 0.0
H3705 H 0.24678 0.93479 0.61241 0.0
H3706 H 0.23922 0.91628 0.63066 0.0
H3707 H 0.22759 0.89692 0.61633 0.0
H3708 H 0.01513 0.33358 0.64841 0.0
H3709 H 0.03564 0.33813 0.64224 0.0
H3710 H 0.03126 0.31069 0.67735 0.0
H3711 H 0.01064 0.30598 0.6835 0.0
H3712 H 0.05622 0.34463 0.66364 0.0
H3713 H 0.03913 0.30066 0.6313 0.0
H3714 H 0.02951 0.30662 0.6364 0.0
H3715 H 0.03403 0.3001 0.65273 0.0
C3716 C 0.01855 0.32858 0.65495 0.0
C3717 C 0.01122 0.31933 0.66631 0.0
C3718 C 0.03029 0.33122 0.65145 0.0
C3719 C 0.03489 0.32464 0.65917 0.0
C3720 C 0.0278 0.31576 0.67108 0.0
H3721 H 0.09824 0.32131 0.62817 0.0
H3722 H 0.08146 0.31937 0.6454 0.0
C3723 C 0.01604 0.31311 0.67461 0.0
C3724 C 0.04681 0.3266 0.65389 0.0
H3725 H 0.06006 0.31355 0.63192 0.0
C3726 C 0.05711 0.33782 0.65683 0.0
C3727 C 0.0479 0.31769 0.64502 0.0
C3728 C 0.03708 0.30561 0.64102 0.0
C3729 C 0.0685 0.3404 0.65097 0.0
C3730 C 0.06954 0.33159 0.64165 0.0
C3731 C 0.05927 0.32028 0.63913 0.0
C3732 C 0.08092 0.33407 0.63329 0.0
C3733 C 0.0793 0.3525 0.65482 0.0
C3734 C 0.08635 0.34313 0.62099 0.0
C3735 C 0.09594 0.34428 0.61117 0.0
C3736 C 0.10019 0.33628 0.61332 0.0
C3737 C 0.09509 0.32755 0.62614 0.0
C3738 C 0.08554 0.32645 0.63602 0.0
H3739 H 0.07781 0.35649 0.66641 0.0
H3740 H 0.08753 0.3519 0.65657 0.0
H3741 H 0.08088 0.35866 0.64408 0.0
H3742 H 0.08275 0.34892 0.61834 0.0
H3743 H 0.09955 0.35097 0.60122 0.0
H3744 H 0.30993 0.32305 0.65871 0.0
H3745 H 0.29849 0.33207 0.64818 0.0
H3746 H 0.26527 0.29917 0.6583 0.0
H3747 H 0.27658 0.29008 0.66895 0.0
H3748 H 0.2823 0.32383 0.62093 0.0
H3749 H 0.25991 0.32493 0.6807 0.0
H3750 H 0.27284 0.32298 0.68035 0.0
H3751 H 0.25809 0.31053 0.67584 0.0
C3752 C 0.30018 0.31775 0.65881 0.0
C3753 C 0.29418 0.30584 0.6647 0.0
C3754 C 0.29367 0.32293 0.6528 0.0
C3755 C 0.28104 0.31635 0.6527 0.0
C3756 C 0.27501 0.30448 0.65859 0.0
H3757 H 0.23104 0.32528 0.59209 0.0
H3758 H 0.24312 0.31845 0.60678 0.0
C3759 C 0.28151 0.29928 0.66455 0.0
C3760 C 0.27417 0.32165 0.64559 0.0
H3761 H 0.25242 0.32849 0.65506 0.0
C3762 C 0.27584 0.32494 0.62842 0.0
C3763 C 0.26584 0.3232 0.65545 0.0
C3764 C 0.26411 0.32034 0.67416 0.0
C3765 C 0.26911 0.32938 0.62068 0.0
C3766 C 0.26041 0.33044 0.63035 0.0
C3767 C 0.25902 0.32754 0.64767 0.0
C3768 C 0.2525 0.33426 0.6225 0.0
C3769 C 0.27133 0.33289 0.6022 0.0
C3770 C 0.25352 0.34524 0.62691 0.0
C3771 C 0.24655 0.34916 0.61861 0.0
C3772 C 0.23838 0.34208 0.60588 0.0
C3773 C 0.23712 0.33088 0.60197 0.0
C3774 C 0.24411 0.32702 0.61021 0.0
H3775 H 0.28013 0.33425 0.59772 0.0
H3776 H 0.26413 0.32566 0.59446 0.0
H3777 H 0.27112 0.34125 0.59995 0.0
H3778 H 0.25991 0.35091 0.63645 0.0
H3779 H 0.24764 0.35777 0.622 0.0
H3780 H 0.69836 0.99139 0.67366 0.0
H3781 H 0.69394 0.97129 0.66526 0.0
H3782 H 0.66235 0.96572 0.63865 0.0
H3783 H 0.66675 0.98577 0.64677 0.0
H3784 H 0.67309 0.94807 0.6702 0.0
H3785 H 0.68228 0.9605 0.60215 0.0
H3786 H 0.68673 0.97152 0.61883 0.0
H3787 H 0.6714 0.96357 0.61158 0.0
C3788 C 0.69044 0.98585 0.66609 0.0
C3789 C 0.68297 0.99021 0.66072 0.0
C3790 C 0.68792 0.97438 0.66135 0.0
C3791 C 0.67793 0.96712 0.65112 0.0
C3792 C 0.67023 0.97128 0.64629 0.0
H3793 H 0.64334 0.89199 0.62476 0.0
H3794 H 0.64942 0.91119 0.63849 0.0
C3795 C 0.67274 0.98273 0.65099 0.0
C3796 C 0.67573 0.95535 0.64497 0.0
H3797 H 0.67324 0.93982 0.60871 0.0
C3798 C 0.67319 0.94626 0.65677 0.0
C3799 C 0.67606 0.95309 0.62747 0.0
C3800 C 0.67937 0.96271 0.61426 0.0
C3801 C 0.67062 0.93482 0.65146 0.0
C3802 C 0.67046 0.93242 0.6339 0.0
C3803 C 0.6733 0.94163 0.62217 0.0
C3804 C 0.66723 0.92044 0.62722 0.0
C3805 C 0.66822 0.92545 0.66468 0.0
C3806 C 0.67519 0.91924 0.61627 0.0
C3807 C 0.67167 0.90835 0.60817 0.0
C3808 C 0.66008 0.8984 0.61083 0.0
C3809 C 0.65228 0.8995 0.6223 0.0
C3810 C 0.6558 0.91043 0.63035 0.0
H3811 H 0.67208 0.92958 0.67717 0.0
H3812 H 0.65835 0.91955 0.66634 0.0
H3813 H 0.67203 0.9198 0.66075 0.0
H3814 H 0.68402 0.92687 0.61359 0.0
H3815 H 0.67785 0.90793 0.59922 0.0
H3816 H 0.00867 0.71994 0.6627 0.0
H3817 H 0.02911 0.73185 0.65136 0.0
H3818 H 0.03092 0.69973 0.64457 0.0
H3819 H 0.01044 0.68769 0.65579 0.0
H3820 H 0.05072 0.73331 0.66365 0.0
H3821 H 0.04009 0.71618 0.59752 0.0
H3822 H 0.02863 0.7143 0.61255 0.0
H3823 H 0.03507 0.70484 0.61366 0.0
C3824 C 0.01338 0.71537 0.65874 0.0
C3825 C 0.00787 0.70283 0.66008 0.0
C3826 C 0.02508 0.72222 0.65231 0.0
C3827 C 0.03146 0.71666 0.64697 0.0
C3828 C 0.02606 0.70417 0.64839 0.0
H3829 H 0.10102 0.74149 0.60017 0.0
H3830 H 0.08154 0.72993 0.61429 0.0
C3831 C 0.01437 0.69731 0.65486 0.0
C3832 C 0.04382 0.72395 0.64004 0.0
H3833 H 0.06067 0.72876 0.60422 0.0
C3834 C 0.05292 0.73236 0.65065 0.0
C3835 C 0.04662 0.72267 0.62308 0.0
C3836 C 0.03709 0.71409 0.61095 0.0
C3837 C 0.06484 0.73938 0.64482 0.0
C3838 C 0.06764 0.7381 0.62785 0.0
C3839 C 0.05851 0.7297 0.61725 0.0
C3840 C 0.07996 0.74534 0.62072 0.0
C3841 C 0.07436 0.74791 0.65699 0.0
C3842 C 0.08561 0.75788 0.61977 0.0
C3843 C 0.09686 0.76456 0.61187 0.0
C3844 C 0.10262 0.75881 0.60464 0.0
C3845 C 0.09699 0.74625 0.60588 0.0
C3846 C 0.08578 0.7396 0.61381 0.0
H3847 H 0.07148 0.7455 0.67042 0.0
H3848 H 0.08296 0.74802 0.65501 0.0
H3849 H 0.07605 0.7571 0.6548 0.0
H3850 H 0.08119 0.76248 0.62474 0.0
H3851 H 0.10097 0.77421 0.61123 0.0
H3852 H 0.96552 0.62512 0.67768 0.0
H3853 H 0.96961 0.60944 0.68681 0.0
H3854 H 0.00188 0.63603 0.71192 0.0
H3855 H -0.0022 0.65171 0.7031 0.0
H3856 H 0.98986 0.60619 0.6824 0.0
H3857 H 0.98196 0.61246 0.74998 0.0
H3858 H 0.97764 0.61865 0.73276 0.0
H3859 H 0.99305 0.62596 0.73964 0.0
C3860 C 0.97354 0.62764 0.68503 0.0
C3861 C 0.98126 0.63964 0.68985 0.0
C3862 C 0.97587 0.61867 0.69021 0.0
C3863 C 0.98593 0.62156 0.70029 0.0
C3864 C 0.99394 0.63359 0.70442 0.0
H3865 H 0.01409 0.58389 0.75498 0.0
H3866 H 0.01112 0.59844 0.73943 0.0
C3867 C 0.99161 0.64254 0.69932 0.0
C3868 C 0.98779 0.61198 0.70718 0.0
H3869 H 0.99 0.59988 0.74444 0.0
C3870 C 0.98984 0.60475 0.69595 0.0
C3871 C 0.98765 0.61007 0.72487 0.0
C3872 C 0.98485 0.61711 0.73753 0.0
C3873 C 0.99213 0.59588 0.702 0.0
C3874 C 0.99224 0.59418 0.71969 0.0
C3875 C 0.99001 0.60129 0.73087 0.0
C3876 C 0.99478 0.58518 0.72708 0.0
C3877 C 0.9947 0.5886 0.6895 0.0
C3878 C 0.98665 0.57286 0.72508 0.0
C3879 C 0.98835 0.56447 0.73393 0.0
C3880 C -0.0018 0.56827 0.74494 0.0
C3881 C 0.00653 0.58061 0.7464 0.0
C3882 C 0.00481 0.58897 0.73761 0.0
H3883 H 0.99665 0.5926 0.67659 0.0
H3884 H 0.00246 0.5878 0.69376 0.0
H3885 H 0.98673 0.57943 0.68871 0.0
H3886 H 0.97876 0.56976 0.7172 0.0
H3887 H 0.98181 0.55503 0.73246 0.0
H3888 H 0.37266 0.33766 0.68124 0.0
H3889 H 0.389 0.35724 0.69064 0.0
H3890 H 0.36295 0.366 0.70976 0.0
H3891 H 0.3466 0.34631 0.70092 0.0
H3892 H 0.39573 0.38053 0.68405 0.0
H3893 H 0.38241 0.36973 0.75166 0.0
H3894 H 0.376 0.35862 0.7351 0.0
H3895 H 0.37068 0.36892 0.73855 0.0
C3896 C 0.37042 0.34379 0.68735 0.0
C3897 C 0.35836 0.34039 0.69057 0.0
C3898 C 0.37977 0.35498 0.69268 0.0
C3899 C 0.3772 0.36297 0.70124 0.0
C3900 C 0.36515 0.35985 0.7036 0.0
H3901 H 0.43164 0.43689 0.72857 0.0
H3902 H 0.41525 0.41944 0.71433 0.0
C3903 C 0.35581 0.34862 0.69847 0.0
C3904 C 0.38713 0.3743 0.70839 0.0
H3905 H 0.39806 0.38942 0.74563 0.0
C3906 C 0.39626 0.3825 0.69751 0.0
C3907 C 0.38788 0.37677 0.72599 0.0
C3908 C 0.37879 0.36801 0.73854 0.0
C3909 C 0.40614 0.3931 0.70378 0.0
C3910 C 0.40674 0.39566 0.72134 0.0
C3911 C 0.39755 0.38749 0.73216 0.0
C3912 C 0.41709 0.40638 0.72909 0.0
C3913 C 0.416 0.40126 0.69164 0.0
C3914 C 0.42346 0.40487 0.74228 0.0
C3915 C 0.43261 0.41477 0.75069 0.0
C3916 C 0.43572 0.4265 0.74604 0.0
C3917 C 0.42947 0.42801 0.73257 0.0
C3918 C 0.42019 0.41804 0.72425 0.0
H3919 H 0.41572 0.39656 0.67967 0.0
H3920 H 0.41484 0.40894 0.68836 0.0
H3921 H 0.42501 0.40484 0.69748 0.0
H3922 H 0.42119 0.39597 0.74632 0.0
H3923 H 0.43695 0.41317 0.76124 0.0
H3924 H 0.6537 0.00806 0.6956 0.0
H3925 H 0.63335 -0.00085 0.70747 0.0
H3926 H 0.63416 0.03258 0.70047 0.0
H3927 H 0.65442 0.04155 0.68848 0.0
H3928 H 0.62614 0.007 0.73616 0.0
H3929 H 0.60219 0.00792 0.67842 0.0
H3930 H 0.617 0.00964 0.67766 0.0
H3931 H 0.61521 0.02208 0.68358 0.0
C3932 C 0.64953 0.01351 0.6965 0.0
C3933 C 0.65569 0.02552 0.69104 0.0
C3934 C 0.6379 0.00839 0.70327 0.0
C3935 C 0.63219 0.01515 0.70457 0.0
C3936 C 0.63831 0.02714 0.69923 0.0
H3937 H 0.56735 0.00719 0.74895 0.0
H3938 H 0.5861 0.01348 0.73333 0.0
C3939 C 0.64994 0.03227 0.69249 0.0
C3940 C 0.62003 0.00986 0.71223 0.0
H3941 H 0.5914 0.00376 0.70456 0.0
C3942 C 0.6185 0.00616 0.72923 0.0
C3943 C 0.61012 0.00883 0.70313 0.0
C3944 C 0.61114 0.01223 0.68464 0.0
C3945 C 0.6074 0.00181 0.73755 0.0
C3946 C 0.59752 0.00092 0.72851 0.0
C3947 C 0.599 0.00446 0.71144 0.0
C3948 C 0.58569 0.9967 0.73678 0.0
C3949 C 0.60646 -0.00141 0.75611 0.0
C3950 C 0.5791 0.98507 0.74344 0.0
C3951 C 0.56844 0.98148 0.75247 0.0
C3952 C 0.56415 0.98945 0.75491 0.0
C3953 C 0.57051 0.00091 0.74753 0.0
C3954 C 0.58118 0.00449 0.73852 0.0
H3955 H 0.61546 0.0024 0.76209 0.0
H3956 H 0.60119 0.00184 0.76319 0.0
H3957 H 0.60176 0.9887 0.75742 0.0
H3958 H 0.58233 0.97885 0.74197 0.0
H3959 H 0.56382 0.97262 0.75809 0.0
loop_
_geom_bond_atom_site_label_1
_geom_bond_atom_site_label_2
_geom_bond_distance
_geom_bond_site_symmetry_2
_ccdc_geom_bond_type
C0 O1 1.306 . S
C0 O3 1.164 . S
O1 C0 1.306 . S
O1 Cd2 2.228 . S
Cd2 O1 2.228 . S
Cd2 O6 2.273 . S
Cd2 O10 2.277 1_554 S
O3 C0 1.164 . S
O3 Cd4 2.223 1_655 S
Cd4 O3 2.223 1_455 S
Cd4 O6 2.411 1_455 S
Cd4 O7 2.333 . S
Cd4 O8 2.352 . S
Cd4 O12 2.277 1_554 S
Cd4 O13 2.356 . S
C5 O10 1.209 1_455 S
C5 O12 1.226 . S
O6 Cd2 2.273 . S
O6 Cd4 2.411 1_655 S
O6 C9 1.320 1_655 S
O7 Cd4 2.333 . S
O7 C9 1.214 . S
O8 Cd4 2.352 . S
O8 C11 1.258 . S
C9 O6 1.320 1_455 S
C9 O7 1.214 . S
O10 Cd2 2.277 1_556 S
O10 C5 1.209 1_655 S
C11 O8 1.258 . S
C11 O13 1.282 . S
O12 Cd4 2.277 1_556 S
O12 C5 1.226 . S
O13 Cd4 2.356 . S
O13 C11 1.282 . S
C14 O15 1.306 . S
C14 O17 1.160 . S
O15 C14 1.306 . S
O15 Cd16 2.228 . S
Cd16 O15 2.228 . S
Cd16 O20 2.273 1_554 S
Cd16 O24 2.277 . S
O17 C14 1.160 . S
O17 Cd18 2.203 . S
Cd18 O17 2.203 . S
Cd18 O20 2.411 1_554 S
Cd18 O21 2.333 1_554 S
Cd18 O22 2.352 1_554 S
Cd18 O26 2.277 . S
Cd18 O27 2.356 . S
C19 O24 1.209 . S
C19 O26 1.226 . S
O20 Cd16 2.273 1_556 S
O20 Cd18 2.411 1_556 S
O20 C23 1.320 . S
O21 Cd18 2.333 1_556 S
O21 C23 1.214 . S
O22 Cd18 2.352 1_556 S
O22 C25 1.250 1_556 S
C23 O20 1.320 . S
C23 O21 1.214 . S
O24 Cd16 2.277 . S
O24 C19 1.209 . S
C25 O22 1.250 1_554 S
C25 O27 1.301 . S
O26 Cd18 2.277 . S
O26 C19 1.226 . S
O27 Cd18 2.356 . S
O27 C25 1.301 . S
C28 O29 1.306 . S
C28 O31 1.160 . S
O29 C28 1.306 . S
O29 Cd30 2.228 . S
Cd30 O29 2.228 . S
Cd30 O34 2.273 1_554 S
Cd30 O38 2.277 . S
O31 C28 1.160 . S
O31 Cd32 2.203 1_565 S
Cd32 O31 2.203 1_545 S
Cd32 O34 2.411 1_544 S
Cd32 O35 2.333 1_554 S
Cd32 O36 2.352 1_554 S
Cd32 O40 2.277 . S
Cd32 O41 2.356 . S
C33 O38 1.209 1_545 S
C33 O40 1.226 . S
O34 Cd30 2.273 1_556 S
O34 Cd32 2.411 1_566 S
O34 C37 1.320 1_565 S
O35 Cd32 2.333 1_556 S
O35 C37 1.214 . S
O36 Cd32 2.352 1_556 S
O36 C39 1.258 1_556 S
C37 O34 1.320 1_545 S
C37 O35 1.214 . S
O38 Cd30 2.277 . S
O38 C33 1.209 1_565 S
C39 O36 1.258 1_554 S
C39 O41 1.282 . S
O40 Cd32 2.277 . S
O40 C33 1.226 . S
O41 Cd32 2.356 . S
O41 C39 1.282 . S
C42 O43 1.304 . S
C42 O45 1.160 1_554 S
O43 C42 1.304 . S
O43 Cd44 2.228 . S
Cd44 O43 2.228 . S
Cd44 O48 2.273 . S
Cd44 O52 2.277 1_554 S
O45 C42 1.160 1_556 S
O45 Cd46 2.203 1_656 S
Cd46 O45 2.203 1_454 S
Cd46 O48 2.411 1_455 S
Cd46 O49 2.333 . S
Cd46 O50 2.352 . S
Cd46 O54 2.277 1_554 S
Cd46 O55 2.356 . S
C47 O52 1.209 1_455 S
C47 O54 1.226 . S
O48 Cd44 2.273 . S
O48 Cd46 2.411 1_655 S
O48 C51 1.320 1_655 S
O49 Cd46 2.333 . S
O49 C51 1.214 . S
O50 Cd46 2.352 . S
O50 C53 1.258 . S
C51 O48 1.320 1_455 S
C51 O49 1.214 . S
O52 Cd44 2.277 1_556 S
O52 C47 1.209 1_655 S
C53 O50 1.258 . S
C53 O55 1.282 . S
O54 Cd46 2.277 1_556 S
O54 C47 1.226 . S
O55 Cd46 2.356 . S
O55 C53 1.282 . S
C56 O57 1.306 . S
C56 O59 1.160 . S
O57 C56 1.306 . S
O57 Cd58 2.228 . S
Cd58 O57 2.228 . S
Cd58 O62 2.273 1_554 S
Cd58 O66 2.277 . S
O59 C56 1.160 . S
O59 Cd60 2.203 . S
Cd60 O59 2.203 . S
Cd60 O62 2.411 1_554 S
Cd60 O63 2.333 1_554 S
Cd60 O64 2.352 1_554 S
Cd60 O68 2.277 . S
Cd60 O69 2.356 . S
C61 O66 1.209 . S
C61 O68 1.226 . S
O62 Cd58 2.273 1_556 S
O62 Cd60 2.411 1_556 S
O62 C65 1.320 . S
O63 Cd60 2.333 1_556 S
O63 C65 1.214 . S
O64 Cd60 2.352 1_556 S
O64 C67 1.258 . S
C65 O62 1.320 . S
C65 O63 1.214 . S
O66 Cd58 2.277 . S
O66 C61 1.209 . S
C67 O64 1.258 . S
C67 O69 1.282 1_556 S
O68 Cd60 2.277 . S
O68 C61 1.226 . S
O69 Cd60 2.356 . S
O69 C67 1.282 1_554 S
C70 O71 1.306 . S
C70 O73 1.159 1_554 S
O71 C70 1.306 . S
O71 Cd72 2.228 . S
Cd72 O71 2.228 . S
Cd72 O76 2.273 . S
Cd72 O80 2.277 1_554 S
O73 C70 1.159 1_556 S
O73 Cd74 2.202 1_546 S
Cd74 O73 2.202 1_564 S
Cd74 O76 2.411 1_565 S
Cd74 O77 2.333 . S
Cd74 O78 2.352 . S
Cd74 O82 2.277 1_554 S
Cd74 O83 2.356 . S
C75 O80 1.199 1_565 S
C75 O82 1.240 . S
O76 Cd72 2.273 . S
O76 Cd74 2.411 1_545 S
O76 C79 1.333 . S
O77 Cd74 2.333 . S
O77 C79 1.186 1_565 S
O78 Cd74 2.352 . S
O78 C81 1.258 . S
C79 O76 1.333 . S
C79 O77 1.186 1_545 S
O80 Cd72 2.277 1_556 S
O80 C75 1.199 1_545 S
C81 O78 1.258 . S
C81 O83 1.282 . S
O82 Cd74 2.277 1_556 S
O82 C75 1.240 . S
O83 Cd74 2.356 . S
O83 C81 1.282 . S
C84 O85 1.306 . S
C84 O87 1.160 . S
O85 C84 1.306 . S
O85 Cd86 2.228 . S
Cd86 O85 2.228 . S
Cd86 O90 2.273 . S
Cd86 O94 2.277 . S
O87 C84 1.160 . S
O87 Cd88 2.203 . S
Cd88 O87 2.203 . S
Cd88 O90 2.411 . S
Cd88 O91 2.333 . S
Cd88 O92 2.352 . S
Cd88 O96 2.277 . S
Cd88 O97 2.356 . S
C89 O94 1.209 . S
C89 O96 1.226 . S
O90 Cd86 2.273 . S
O90 Cd88 2.411 . S
O90 C93 1.320 . S
O91 Cd88 2.333 . S
O91 C93 1.214 . S
O92 Cd88 2.352 . S
O92 C95 1.258 . S
C93 O90 1.320 . S
C93 O91 1.214 . S
O94 Cd86 2.277 . S
O94 C89 1.209 . S
C95 O92 1.258 . S
C95 O97 1.282 . S
O96 Cd88 2.277 . S
O96 C89 1.226 . S
O97 Cd88 2.356 . S
O97 C95 1.282 . S
C98 O99 1.306 . S
C98 O101 1.160 . S
O99 C98 1.306 . S
O99 Cd100 2.228 . S
Cd100 O99 2.228 . S
Cd100 O104 2.273 . S
Cd100 O108 2.277 . S
O101 C98 1.160 . S
O101 Cd102 2.203 . S
Cd102 O101 2.203 . S
Cd102 O104 2.411 . S
Cd102 O105 2.333 . S
Cd102 O106 2.352 . S
Cd102 O110 2.277 . S
Cd102 O111 2.356 . S
C103 O108 1.209 . S
C103 O110 1.226 . S
O104 Cd100 2.273 . S
O104 Cd102 2.411 . S
O104 C107 1.320 . S
O105 Cd102 2.333 . S
O105 C107 1.214 . S
O106 Cd102 2.352 . S
O106 C109 1.258 . S
C107 O104 1.320 . S
C107 O105 1.214 . S
O108 Cd100 2.277 . S
O108 C103 1.209 . S
C109 O106 1.258 . S
C109 O111 1.282 . S
O110 Cd102 2.277 . S
O110 C103 1.226 . S
O111 Cd102 2.356 . S
O111 C109 1.282 . S
C112 O113 1.306 . S
C112 O115 1.160 . S
O113 C112 1.306 . S
O113 Cd114 2.228 . S
Cd114 O113 2.228 . S
Cd114 O118 2.273 . S
Cd114 O122 2.277 . S
O115 C112 1.160 . S
O115 Cd116 2.203 . S
Cd116 O115 2.203 . S
Cd116 O118 2.411 . S
Cd116 O119 2.333 . S
Cd116 O120 2.352 . S
Cd116 O124 2.277 . S
Cd116 O125 2.356 . S
C117 O122 1.209 . S
C117 O124 1.226 . S
O118 Cd114 2.273 . S
O118 Cd116 2.411 . S
O118 C121 1.320 . S
O119 Cd116 2.333 . S
O119 C121 1.214 . S
O120 Cd116 2.352 . S
O120 C123 1.258 . S
C121 O118 1.320 . S
C121 O119 1.214 . S
O122 Cd114 2.277 . S
O122 C117 1.209 . S
C123 O120 1.258 . S
C123 O125 1.282 . S
O124 Cd116 2.277 . S
O124 C117 1.226 . S
O125 Cd116 2.356 . S
O125 C123 1.282 . S
C126 O127 1.306 . S
C126 O129 1.160 . S
O127 C126 1.306 . S
O127 Cd128 2.228 . S
Cd128 O127 2.228 . S
Cd128 O132 2.273 . S
Cd128 O136 2.277 . S
O129 C126 1.160 . S
O129 Cd130 2.203 . S
Cd130 O129 2.203 . S
Cd130 O132 2.411 . S
Cd130 O133 2.333 . S
Cd130 O134 2.352 . S
Cd130 O138 2.277 . S
Cd130 O139 2.356 . S
C131 O136 1.209 . S
C131 O138 1.226 . S
O132 Cd128 2.273 . S
O132 Cd130 2.411 . S
O132 C135 1.320 . S
O133 Cd130 2.333 . S
O133 C135 1.214 . S
O134 Cd130 2.352 . S
O134 C137 1.258 1_565 S
C135 O132 1.320 . S
C135 O133 1.214 . S
O136 Cd128 2.277 . S
O136 C131 1.209 . S
C137 O134 1.258 1_545 S
C137 O139 1.259 1_545 S
O138 Cd130 2.277 . S
O138 C131 1.226 . S
O139 Cd130 2.356 . S
O139 C137 1.259 1_565 S
C140 O141 1.306 . S
C140 O143 1.160 . S
O141 C140 1.306 . S
O141 Cd142 2.228 . S
Cd142 O141 2.228 . S
Cd142 O146 2.273 . S
Cd142 O150 2.277 . S
O143 C140 1.160 . S
O143 Cd144 2.203 . S
Cd144 O143 2.203 . S
Cd144 O146 2.411 . S
Cd144 O147 2.333 . S
Cd144 O148 2.352 . S
Cd144 O152 2.277 . S
Cd144 O153 2.356 . S
C145 O150 1.209 . S
C145 O152 1.226 . S
O146 Cd142 2.273 . S
O146 Cd144 2.411 . S
O146 C149 1.320 . S
O147 Cd144 2.333 . S
O147 C149 1.214 . S
O148 Cd144 2.352 . S
O148 C151 1.258 . S
C149 O146 1.320 . S
C149 O147 1.214 . S
O150 Cd142 2.277 . S
O150 C145 1.209 . S
C151 O148 1.258 . S
C151 O153 1.282 . S
O152 Cd144 2.277 . S
O152 C145 1.226 . S
O153 Cd144 2.356 . S
O153 C151 1.282 . S
C154 O155 1.306 . S
C154 O157 1.160 . S
O155 C154 1.306 . S
O155 Cd156 2.228 . S
Cd156 O155 2.228 . S
Cd156 O160 2.273 . S
Cd156 O164 2.277 . S
O157 C154 1.160 . S
O157 Cd158 2.203 . S
Cd158 O157 2.203 . S
Cd158 O160 2.411 . S
Cd158 O161 2.333 . S
Cd158 O162 2.352 . S
Cd158 O166 2.277 . S
Cd158 O167 2.356 . S
C159 O164 1.209 . S
C159 O166 1.226 . S
O160 Cd156 2.273 . S
O160 Cd158 2.411 . S
O160 C163 1.320 . S
O161 Cd158 2.333 . S
O161 C163 1.214 . S
O162 Cd158 2.352 . S
O162 C165 1.258 . S
C163 O160 1.320 . S
C163 O161 1.214 . S
O164 Cd156 2.277 . S
O164 C159 1.209 . S
C165 O162 1.258 . S
C165 O167 1.282 . S
O166 Cd158 2.277 . S
O166 C159 1.226 . S
O167 Cd158 2.356 . S
O167 C165 1.282 . S
C168 O169 1.306 . S
C168 O171 1.160 . S
O169 C168 1.306 . S
O169 Cd170 2.228 . S
Cd170 O169 2.228 . S
Cd170 O174 2.273 . S
Cd170 O178 2.277 . S
O171 C168 1.160 . S
O171 Cd172 2.203 . S
Cd172 O171 2.203 . S
Cd172 O174 2.411 . S
Cd172 O175 2.333 . S
Cd172 O176 2.352 . S
Cd172 O180 2.277 . S
Cd172 O181 2.356 . S
C173 O178 1.209 . S
C173 O180 1.226 . S
O174 Cd170 2.273 . S
O174 Cd172 2.411 . S
O174 C177 1.320 . S
O175 Cd172 2.333 . S
O175 C177 1.214 . S
O176 Cd172 2.352 . S
O176 C179 1.258 . S
C177 O174 1.320 . S
C177 O175 1.214 . S
O178 Cd170 2.277 . S
O178 C173 1.209 . S
C179 O176 1.258 . S
C179 O181 1.282 . S
O180 Cd172 2.277 . S
O180 C173 1.226 . S
O181 Cd172 2.356 . S
O181 C179 1.282 . S
C182 O183 1.306 . S
C182 O185 1.160 . S
O183 C182 1.306 . S
O183 Cd184 2.228 . S
Cd184 O183 2.228 . S
Cd184 O188 2.273 . S
Cd184 O192 2.277 . S
O185 C182 1.160 . S
O185 Cd186 2.203 . S
Cd186 O185 2.203 . S
Cd186 O188 2.411 . S
Cd186 O189 2.333 . S
Cd186 O190 2.352 . S
Cd186 O194 2.277 . S
Cd186 O195 2.356 . S
C187 O192 1.209 . S
C187 O194 1.226 . S
O188 Cd184 2.273 . S
O188 Cd186 2.411 . S
O188 C191 1.320 . S
O189 Cd186 2.333 . S
O189 C191 1.214 . S
O190 Cd186 2.352 . S
O190 C193 1.258 1_655 S
C191 O188 1.320 . S
C191 O189 1.214 . S
O192 Cd184 2.277 . S
O192 C187 1.209 . S
C193 O190 1.258 1_455 S
C193 O195 1.282 1_455 S
O194 Cd186 2.277 . S
O194 C187 1.226 . S
O195 Cd186 2.356 . S
O195 C193 1.282 1_655 S
C196 O197 1.306 . S
C196 O199 1.160 . S
O197 C196 1.306 . S
O197 Cd198 2.228 . S
Cd198 O197 2.228 . S
Cd198 O202 2.273 . S
Cd198 O206 2.277 . S
O199 C196 1.160 . S
O199 Cd200 2.203 . S
Cd200 O199 2.203 . S
Cd200 O202 2.411 . S
Cd200 O203 2.333 . S
Cd200 O204 2.352 . S
Cd200 O208 2.277 . S
Cd200 O209 2.356 . S
C201 O206 1.209 . S
C201 O208 1.226 . S
O202 Cd198 2.273 . S
O202 Cd200 2.411 . S
O202 C205 1.320 . S
O203 Cd200 2.333 . S
O203 C205 1.214 . S
O204 Cd200 2.352 . S
O204 C207 1.258 . S
C205 O202 1.320 . S
C205 O203 1.214 . S
O206 Cd198 2.277 . S
O206 C201 1.209 . S
C207 O204 1.258 . S
C207 O209 1.282 . S
O208 Cd200 2.277 . S
O208 C201 1.226 . S
O209 Cd200 2.356 . S
O209 C207 1.282 . S
C210 O211 1.306 . S
C210 O213 1.160 . S
O211 C210 1.306 . S
O211 Cd212 2.228 . S
Cd212 O211 2.228 . S
Cd212 O216 2.273 . S
Cd212 O220 2.277 . S
O213 C210 1.160 . S
O213 Cd214 2.203 . S
Cd214 O213 2.203 . S
Cd214 O216 2.411 . S
Cd214 O217 2.333 . S
Cd214 O218 2.352 . S
Cd214 O222 2.277 . S
Cd214 O223 2.356 . S
C215 O220 1.209 . S
C215 O222 1.226 . S
O216 Cd212 2.273 . S
O216 Cd214 2.411 . S
O216 C219 1.320 . S
O217 Cd214 2.333 . S
O217 C219 1.214 . S
O218 Cd214 2.352 . S
O218 C221 1.258 . S
C219 O216 1.320 . S
C219 O217 1.214 . S
O220 Cd212 2.277 . S
O220 C215 1.209 . S
C221 O218 1.258 . S
C221 O223 1.282 . S
O222 Cd214 2.277 . S
O222 C215 1.226 . S
O223 Cd214 2.356 . S
O223 C221 1.282 . S
C224 O225 1.306 . S
C224 O227 1.160 . S
O225 C224 1.306 . S
O225 Cd226 2.228 . S
Cd226 O225 2.228 . S
Cd226 O230 2.273 . S
Cd226 O234 2.277 . S
O227 C224 1.160 . S
O227 Cd228 2.203 . S
Cd228 O227 2.203 . S
Cd228 O230 2.411 . S
Cd228 O231 2.333 . S
Cd228 O232 2.352 . S
Cd228 O236 2.277 . S
Cd228 O237 2.356 . S
C229 O234 1.209 . S
C229 O236 1.226 . S
O230 Cd226 2.273 . S
O230 Cd228 2.411 . S
O230 C233 1.320 . S
O231 Cd228 2.333 . S
O231 C233 1.214 . S
O232 Cd228 2.352 . S
O232 C235 1.258 . S
C233 O230 1.320 . S
C233 O231 1.214 . S
O234 Cd226 2.277 . S
O234 C229 1.209 . S
C235 O232 1.258 . S
C235 O237 1.282 . S
O236 Cd228 2.277 . S
O236 C229 1.226 . S
O237 Cd228 2.356 . S
O237 C235 1.282 . S
C238 O239 1.306 . S
C238 O241 1.160 . S
O239 C238 1.306 . S
O239 Cd240 2.228 . S
Cd240 O239 2.228 . S
Cd240 O244 2.273 . S
Cd240 O248 2.277 . S
O241 C238 1.160 . S
O241 Cd242 2.203 . S
Cd242 O241 2.203 . S
Cd242 O244 2.411 . S
Cd242 O245 2.333 . S
Cd242 O246 2.352 . S
Cd242 O250 2.277 . S
Cd242 O251 2.356 . S
C243 O248 1.209 . S
C243 O250 1.226 . S
O244 Cd240 2.273 . S
O244 Cd242 2.411 . S
O244 C247 1.320 . S
O245 Cd242 2.333 . S
O245 C247 1.214 . S
O246 Cd242 2.352 . S
O246 C249 1.258 . S
C247 O244 1.320 . S
C247 O245 1.214 . S
O248 Cd240 2.277 . S
O248 C243 1.209 . S
C249 O246 1.258 . S
C249 O251 1.282 . S
O250 Cd242 2.277 . S
O250 C243 1.226 . S
O251 Cd242 2.356 . S
O251 C249 1.282 . S
H252 C279 0.929 . S
N253 C278 1.433 . S
N253 C284 1.435 . S
N253 C290 1.423 . S
H254 C280 0.930 . S
H255 C283 0.931 . S
H256 C282 0.929 . S
H257 C285 0.930 . S
H258 C286 0.932 . S
H259 C289 0.929 . S
H260 C288 0.931 . S
H261 C291 0.929 . S
H262 C295 0.932 . S
H263 C292 0.931 . S
H264 C294 0.929 . S
H265 C297 0.929 . S
H266 C298 0.930 . S
H267 C300 0.929 . S
H268 C301 0.931 . S
H269 C303 0.930 . S
H270 C304 0.932 . S
H271 C306 0.931 . S
H272 C307 0.929 . S
H273 C309 0.929 . S
H274 C310 0.931 . S
H275 C312 0.929 . S
N276 C296 1.433 . S
N276 C302 1.435 . S
N276 C308 1.423 . S
H277 C313 0.932 . S
C278 N253 1.433 . S
C278 C279 1.363 . S
C278 C283 1.370 . S
C279 H252 0.929 . S
C279 C278 1.363 . S
C279 C280 1.385 . S
C280 H254 0.930 . S
C280 C279 1.385 . S
C280 C281 1.357 . S
C281 C280 1.357 . S
C281 C282 1.406 . S
C282 H256 0.929 . S
C282 C281 1.406 . S
C282 C283 1.391 . S
C283 H255 0.931 . S
C283 C278 1.370 . S
C283 C282 1.391 . S
C284 N253 1.435 . S
C284 C285 1.358 . S
C284 C289 1.371 . S
C285 H257 0.930 . S
C285 C284 1.358 . S
C285 C286 1.405 . S
C286 H258 0.932 . S
C286 C285 1.405 . S
C286 C287 1.383 . S
C287 C286 1.383 . S
C287 C288 1.393 . S
C288 H260 0.931 . S
C288 C287 1.393 . S
C288 C289 1.382 . S
C289 H259 0.929 . S
C289 C284 1.371 . S
C289 C288 1.382 . S
C290 N253 1.423 . S
C290 C291 1.362 . S
C290 C295 1.388 . S
C291 H261 0.929 . S
C291 C290 1.362 . S
C291 C292 1.376 . S
C292 H263 0.931 . S
C292 C291 1.376 . S
C292 C293 1.396 . S
C293 C292 1.396 . S
C293 C294 1.348 . S
C293 C311 1.472 . S
C294 H264 0.929 . S
C294 C293 1.348 . S
C294 C295 1.443 . S
C295 H262 0.932 . S
C295 C290 1.388 . S
C295 C294 1.443 . S
C296 N276 1.433 . S
C296 C297 1.363 . S
C296 C301 1.370 . S
C297 H265 0.929 . S
C297 C296 1.363 . S
C297 C298 1.385 . S
C298 H266 0.930 . S
C298 C297 1.385 . S
C298 C299 1.357 . S
C299 C298 1.357 . S
C299 C300 1.406 . S
C300 H267 0.929 . S
C300 C299 1.406 . S
C300 C301 1.391 . S
C301 H268 0.931 . S
C301 C296 1.370 . S
C301 C300 1.391 . S
C302 N276 1.435 . S
C302 C303 1.358 . S
C302 C307 1.371 . S
C303 H269 0.930 . S
C303 C302 1.358 . S
C303 C304 1.405 . S
C304 H270 0.932 . S
C304 C303 1.405 . S
C304 C305 1.383 . S
C305 C304 1.383 . S
C305 C306 1.393 . S
C306 H271 0.931 . S
C306 C305 1.393 . S
C306 C307 1.382 . S
C307 H272 0.929 . S
C307 C302 1.371 . S
C307 C306 1.382 . S
C308 N276 1.423 . S
C308 C309 1.362 . S
C308 C313 1.388 . S
C309 H273 0.929 . S
C309 C308 1.362 . S
C309 C310 1.376 . S
C310 H274 0.931 . S
C310 C309 1.376 . S
C310 C311 1.396 . S
C311 C293 1.472 . S
C311 C310 1.396 . S
C311 C312 1.348 . S
C312 H275 0.929 . S
C312 C311 1.348 . S
C312 C313 1.443 . S
C313 H277 0.932 . S
C313 C308 1.388 . S
C313 C312 1.443 . S
H314 C341 0.929 . S
N315 C340 1.433 . S
N315 C346 1.435 . S
N315 C352 1.423 . S
H316 C342 0.930 . S
H317 C345 0.931 . S
H318 C344 0.929 . S
H319 C347 0.930 . S
H320 C348 0.932 . S
H321 C351 0.929 . S
H322 C350 0.931 . S
H323 C353 0.929 . S
H324 C357 0.932 . S
H325 C354 0.931 . S
H326 C356 0.929 . S
H327 C359 0.929 . S
H328 C360 0.930 . S
H329 C362 0.929 . S
H330 C363 0.931 . S
H331 C365 0.930 . S
H332 C366 0.932 . S
H333 C368 0.931 . S
H334 C369 0.929 . S
H335 C371 0.929 . S
H336 C372 0.931 . S
H337 C374 0.929 . S
N338 C358 1.433 . S
N338 C364 1.435 . S
N338 C370 1.423 . S
H339 C375 0.932 . S
C340 N315 1.433 . S
C340 C341 1.363 . S
C340 C345 1.370 . S
C341 H314 0.929 . S
C341 C340 1.363 . S
C341 C342 1.385 . S
C342 H316 0.930 . S
C342 C341 1.385 . S
C342 C343 1.357 . S
C343 C342 1.357 . S
C343 C344 1.406 . S
C344 H318 0.929 . S
C344 C343 1.406 . S
C344 C345 1.391 . S
C345 H317 0.931 . S
C345 C340 1.370 . S
C345 C344 1.391 . S
C346 N315 1.435 . S
C346 C347 1.358 . S
C346 C351 1.371 . S
C347 H319 0.930 . S
C347 C346 1.358 . S
C347 C348 1.405 . S
C348 H320 0.932 . S
C348 C347 1.405 . S
C348 C349 1.383 . S
C349 C348 1.383 . S
C349 C350 1.393 . S
C350 H322 0.931 . S
C350 C349 1.393 . S
C350 C351 1.382 . S
C351 H321 0.929 . S
C351 C346 1.371 . S
C351 C350 1.382 . S
C352 N315 1.423 . S
C352 C353 1.362 . S
C352 C357 1.388 . S
C353 H323 0.929 . S
C353 C352 1.362 . S
C353 C354 1.376 . S
C354 H325 0.931 . S
C354 C353 1.376 . S
C354 C355 1.396 . S
C355 C354 1.396 . S
C355 C356 1.348 . S
C355 C373 1.472 . S
C356 H326 0.929 . S
C356 C355 1.348 . S
C356 C357 1.443 . S
C357 H324 0.932 . S
C357 C352 1.388 . S
C357 C356 1.443 . S
C358 N338 1.433 . S
C358 C359 1.363 . S
C358 C363 1.370 . S
C359 H327 0.929 . S
C359 C358 1.363 . S
C359 C360 1.385 . S
C360 H328 0.930 . S
C360 C359 1.385 . S
C360 C361 1.357 . S
C361 C360 1.357 . S
C361 C362 1.406 . S
C362 H329 0.929 . S
C362 C361 1.406 . S
C362 C363 1.391 . S
C363 H330 0.931 . S
C363 C358 1.370 . S
C363 C362 1.391 . S
C364 N338 1.435 . S
C364 C365 1.358 . S
C364 C369 1.371 . S
C365 H331 0.930 . S
C365 C364 1.358 . S
C365 C366 1.405 . S
C366 H332 0.932 . S
C366 C365 1.405 . S
C366 C367 1.383 . S
C367 C366 1.383 . S
C367 C368 1.393 . S
C368 H333 0.931 . S
C368 C367 1.393 . S
C368 C369 1.382 . S
C369 H334 0.929 . S
C369 C364 1.371 . S
C369 C368 1.382 . S
C370 N338 1.423 . S
C370 C371 1.362 . S
C370 C375 1.388 . S
C371 H335 0.929 . S
C371 C370 1.362 . S
C371 C372 1.376 . S
C372 H336 0.931 . S
C372 C371 1.376 . S
C372 C373 1.396 . S
C373 C355 1.472 . S
C373 C372 1.396 . S
C373 C374 1.348 . S
C374 H337 0.929 . S
C374 C373 1.348 . S
C374 C375 1.443 . S
C375 H339 0.932 . S
C375 C370 1.388 . S
C375 C374 1.443 . S
H376 C403 0.929 . S
N377 C402 1.433 . S
N377 C408 1.435 . S
N377 C414 1.423 . S
H378 C404 0.930 . S
H379 C407 0.931 . S
H380 C406 0.929 . S
H381 C409 0.930 . S
H382 C410 0.932 . S
H383 C413 0.929 . S
H384 C412 0.931 . S
H385 C415 0.929 . S
H386 C419 0.932 . S
H387 C416 0.931 . S
H388 C418 0.929 . S
H389 C421 0.929 . S
H390 C422 0.930 . S
H391 C424 0.929 . S
H392 C425 0.931 . S
H393 C427 0.930 . S
H394 C428 0.932 . S
H395 C430 0.931 . S
H396 C431 0.929 . S
H397 C433 0.929 . S
H398 C434 0.931 . S
H399 C436 0.929 . S
N400 C420 1.433 . S
N400 C426 1.435 . S
N400 C432 1.423 . S
H401 C437 0.932 . S
C402 N377 1.433 . S
C402 C403 1.363 . S
C402 C407 1.370 . S
C403 H376 0.929 . S
C403 C402 1.363 . S
C403 C404 1.385 . S
C404 H378 0.930 . S
C404 C403 1.385 . S
C404 C405 1.357 . S
C405 C404 1.357 . S
C405 C406 1.406 . S
C406 H380 0.929 . S
C406 C405 1.406 . S
C406 C407 1.391 . S
C407 H379 0.931 . S
C407 C402 1.370 . S
C407 C406 1.391 . S
C408 N377 1.435 . S
C408 C409 1.358 . S
C408 C413 1.371 . S
C409 H381 0.930 . S
C409 C408 1.358 . S
C409 C410 1.405 . S
C410 H382 0.932 . S
C410 C409 1.405 . S
C410 C411 1.383 . S
C411 C410 1.383 . S
C411 C412 1.393 . S
C412 H384 0.931 . S
C412 C411 1.393 . S
C412 C413 1.382 . S
C413 H383 0.929 . S
C413 C408 1.371 . S
C413 C412 1.382 . S
C414 N377 1.423 . S
C414 C415 1.362 . S
C414 C419 1.388 . S
C415 H385 0.929 . S
C415 C414 1.362 . S
C415 C416 1.376 . S
C416 H387 0.931 . S
C416 C415 1.376 . S
C416 C417 1.396 . S
C417 C416 1.396 . S
C417 C418 1.348 . S
C417 C435 1.472 . S
C418 H388 0.929 . S
C418 C417 1.348 . S
C418 C419 1.443 . S
C419 H386 0.932 . S
C419 C414 1.388 . S
C419 C418 1.443 . S
C420 N400 1.433 . S
C420 C421 1.363 . S
C420 C425 1.370 . S
C421 H389 0.929 . S
C421 C420 1.363 . S
C421 C422 1.385 . S
C422 H390 0.930 . S
C422 C421 1.385 . S
C422 C423 1.357 . S
C423 C422 1.357 . S
C423 C424 1.406 . S
C424 H391 0.929 . S
C424 C423 1.406 . S
C424 C425 1.391 . S
C425 H392 0.931 . S
C425 C420 1.370 . S
C425 C424 1.391 . S
C426 N400 1.435 . S
C426 C427 1.358 . S
C426 C431 1.371 . S
C427 H393 0.930 . S
C427 C426 1.358 . S
C427 C428 1.405 . S
C428 H394 0.932 . S
C428 C427 1.405 . S
C428 C429 1.383 . S
C429 C428 1.383 . S
C429 C430 1.393 . S
C430 H395 0.931 . S
C430 C429 1.393 . S
C430 C431 1.382 . S
C431 H396 0.929 . S
C431 C426 1.371 . S
C431 C430 1.382 . S
C432 N400 1.423 . S
C432 C433 1.362 . S
C432 C437 1.388 . S
C433 H397 0.929 . S
C433 C432 1.362 . S
C433 C434 1.376 . S
C434 H398 0.931 . S
C434 C433 1.376 . S
C434 C435 1.396 . S
C435 C417 1.472 . S
C435 C434 1.396 . S
C435 C436 1.348 . S
C436 H399 0.929 . S
C436 C435 1.348 . S
C436 C437 1.443 . S
C437 H401 0.932 . S
C437 C432 1.388 . S
C437 C436 1.443 . S
H438 C465 0.929 . S
N439 C464 1.433 . S
N439 C470 1.435 . S
N439 C476 1.423 . S
H440 C466 0.930 . S
H441 C469 0.931 . S
H442 C468 0.929 . S
H443 C471 0.930 . S
H444 C472 0.932 . S
H445 C475 0.929 . S
H446 C474 0.931 . S
H447 C477 0.929 . S
H448 C481 0.932 . S
H449 C478 0.931 . S
H450 C480 0.929 . S
H451 C483 0.929 . S
H452 C484 0.930 . S
H453 C486 0.929 . S
H454 C487 0.931 . S
H455 C489 0.930 . S
H456 C490 0.932 . S
H457 C492 0.931 . S
H458 C493 0.929 . S
H459 C495 0.929 . S
H460 C496 0.931 . S
H461 C498 0.929 . S
N462 C482 1.433 . S
N462 C488 1.435 . S
N462 C494 1.423 . S
H463 C499 0.932 . S
C464 N439 1.433 . S
C464 C465 1.363 . S
C464 C469 1.370 . S
C465 H438 0.929 . S
C465 C464 1.363 . S
C465 C466 1.385 . S
C466 H440 0.930 . S
C466 C465 1.385 . S
C466 C467 1.357 . S
C467 C466 1.357 . S
C467 C468 1.406 . S
C468 H442 0.929 . S
C468 C467 1.406 . S
C468 C469 1.391 . S
C469 H441 0.931 . S
C469 C464 1.370 . S
C469 C468 1.391 . S
C470 N439 1.435 . S
C470 C471 1.358 . S
C470 C475 1.371 . S
C471 H443 0.930 . S
C471 C470 1.358 . S
C471 C472 1.405 . S
C472 H444 0.932 . S
C472 C471 1.405 . S
C472 C473 1.383 . S
C473 C472 1.383 . S
C473 C474 1.393 . S
C474 H446 0.931 . S
C474 C473 1.393 . S
C474 C475 1.382 . S
C475 H445 0.929 . S
C475 C470 1.371 . S
C475 C474 1.382 . S
C476 N439 1.423 . S
C476 C477 1.362 . S
C476 C481 1.388 . S
C477 H447 0.929 . S
C477 C476 1.362 . S
C477 C478 1.376 . S
C478 H449 0.931 . S
C478 C477 1.376 . S
C478 C479 1.396 . S
C479 C478 1.396 . S
C479 C480 1.348 . S
C479 C497 1.472 . S
C480 H450 0.929 . S
C480 C479 1.348 . S
C480 C481 1.443 . S
C481 H448 0.932 . S
C481 C476 1.388 . S
C481 C480 1.443 . S
C482 N462 1.433 . S
C482 C483 1.363 . S
C482 C487 1.370 . S
C483 H451 0.929 . S
C483 C482 1.363 . S
C483 C484 1.385 . S
C484 H452 0.930 . S
C484 C483 1.385 . S
C484 C485 1.357 . S
C485 C484 1.357 . S
C485 C486 1.406 . S
C486 H453 0.929 . S
C486 C485 1.406 . S
C486 C487 1.391 . S
C487 H454 0.931 . S
C487 C482 1.370 . S
C487 C486 1.391 . S
C488 N462 1.435 . S
C488 C489 1.358 . S
C488 C493 1.371 . S
C489 H455 0.930 . S
C489 C488 1.358 . S
C489 C490 1.405 . S
C490 H456 0.932 . S
C490 C489 1.405 . S
C490 C491 1.383 . S
C491 C490 1.383 . S
C491 C492 1.393 . S
C492 H457 0.931 . S
C492 C491 1.393 . S
C492 C493 1.382 . S
C493 H458 0.929 . S
C493 C488 1.371 . S
C493 C492 1.382 . S
C494 N462 1.423 . S
C494 C495 1.362 . S
C494 C499 1.388 . S
C495 H459 0.929 . S
C495 C494 1.362 . S
C495 C496 1.376 . S
C496 H460 0.931 . S
C496 C495 1.376 . S
C496 C497 1.396 . S
C497 C479 1.472 . S
C497 C496 1.396 . S
C497 C498 1.348 . S
C498 H461 0.929 . S
C498 C497 1.348 . S
C498 C499 1.443 . S
C499 H463 0.932 . S
C499 C494 1.388 . S
C499 C498 1.443 . S
H500 C527 0.929 . S
N501 C526 1.433 . S
N501 C532 1.435 . S
N501 C538 1.423 . S
H502 C528 0.930 . S
H503 C531 0.931 . S
H504 C530 0.929 . S
H505 C533 0.930 . S
H506 C534 0.932 . S
H507 C537 0.929 . S
H508 C536 0.931 . S
H509 C539 0.929 . S
H510 C543 0.932 . S
H511 C540 0.931 . S
H512 C542 0.929 . S
H513 C545 0.929 . S
H514 C546 0.930 . S
H515 C548 0.929 . S
H516 C549 0.931 . S
H517 C551 0.930 . S
H518 C552 0.932 . S
H519 C554 0.931 . S
H520 C555 0.929 . S
H521 C557 0.929 . S
H522 C558 0.931 . S
H523 C560 0.929 . S
N524 C544 1.433 . S
N524 C550 1.435 . S
N524 C556 1.423 . S
H525 C561 0.932 . S
C526 N501 1.433 . S
C526 C527 1.363 . S
C526 C531 1.370 . S
C527 H500 0.929 . S
C527 C526 1.363 . S
C527 C528 1.385 . S
C528 H502 0.930 . S
C528 C527 1.385 . S
C528 C529 1.357 . S
C529 C528 1.357 . S
C529 C530 1.406 . S
C530 H504 0.929 . S
C530 C529 1.406 . S
C530 C531 1.391 . S
C531 H503 0.931 . S
C531 C526 1.370 . S
C531 C530 1.391 . S
C532 N501 1.435 . S
C532 C533 1.358 . S
C532 C537 1.371 . S
C533 H505 0.930 . S
C533 C532 1.358 . S
C533 C534 1.405 . S
C534 H506 0.932 . S
C534 C533 1.405 . S
C534 C535 1.383 . S
C535 C534 1.383 . S
C535 C536 1.393 . S
C536 H508 0.931 . S
C536 C535 1.393 . S
C536 C537 1.382 . S
C537 H507 0.929 . S
C537 C532 1.371 . S
C537 C536 1.382 . S
C538 N501 1.423 . S
C538 C539 1.362 . S
C538 C543 1.388 . S
C539 H509 0.929 . S
C539 C538 1.362 . S
C539 C540 1.376 . S
C540 H511 0.931 . S
C540 C539 1.376 . S
C540 C541 1.396 . S
C541 C540 1.396 . S
C541 C542 1.348 . S
C541 C559 1.472 . S
C542 H512 0.929 . S
C542 C541 1.348 . S
C542 C543 1.443 . S
C543 H510 0.932 . S
C543 C538 1.388 . S
C543 C542 1.443 . S
C544 N524 1.433 . S
C544 C545 1.363 . S
C544 C549 1.370 . S
C545 H513 0.929 . S
C545 C544 1.363 . S
C545 C546 1.385 . S
C546 H514 0.930 . S
C546 C545 1.385 . S
C546 C547 1.357 . S
C547 C546 1.357 . S
C547 C548 1.406 . S
C548 H515 0.929 . S
C548 C547 1.406 . S
C548 C549 1.391 . S
C549 H516 0.931 . S
C549 C544 1.370 . S
C549 C548 1.391 . S
C550 N524 1.435 . S
C550 C551 1.358 . S
C550 C555 1.371 . S
C551 H517 0.930 . S
C551 C550 1.358 . S
C551 C552 1.405 . S
C552 H518 0.932 . S
C552 C551 1.405 . S
C552 C553 1.383 . S
C553 C552 1.383 . S
C553 C554 1.393 . S
C554 H519 0.931 . S
C554 C553 1.393 . S
C554 C555 1.382 . S
C555 H520 0.929 . S
C555 C550 1.371 . S
C555 C554 1.382 . S
C556 N524 1.423 . S
C556 C557 1.362 . S
C556 C561 1.388 . S
C557 H521 0.929 . S
C557 C556 1.362 . S
C557 C558 1.376 . S
C558 H522 0.931 . S
C558 C557 1.376 . S
C558 C559 1.396 . S
C559 C541 1.472 . S
C559 C558 1.396 . S
C559 C560 1.348 . S
C560 H523 0.929 . S
C560 C559 1.348 . S
C560 C561 1.443 . S
C561 H525 0.932 . S
C561 C556 1.388 . S
C561 C560 1.443 . S
H562 C589 0.929 . S
N563 C588 1.433 . S
N563 C594 1.435 . S
N563 C600 1.423 . S
H564 C590 0.930 . S
H565 C593 0.931 . S
H566 C592 0.929 . S
H567 C595 0.930 . S
H568 C596 0.932 . S
H569 C599 0.929 . S
H570 C598 0.931 . S
H571 C601 0.929 . S
H572 C605 0.932 . S
H573 C602 0.931 . S
H574 C604 0.929 . S
H575 C607 0.929 . S
H576 C608 0.930 . S
H577 C610 0.929 . S
H578 C611 0.931 . S
H579 C613 0.930 . S
H580 C614 0.932 . S
H581 C616 0.931 . S
H582 C617 0.929 . S
H583 C619 0.929 . S
H584 C620 0.931 . S
H585 C622 0.929 . S
N586 C606 1.433 . S
N586 C612 1.435 . S
N586 C618 1.423 . S
H587 C623 0.932 . S
C588 N563 1.433 . S
C588 C589 1.363 . S
C588 C593 1.370 . S
C589 H562 0.929 . S
C589 C588 1.363 . S
C589 C590 1.385 . S
C590 H564 0.930 . S
C590 C589 1.385 . S
C590 C591 1.357 . S
C591 C590 1.357 . S
C591 C592 1.406 . S
C592 H566 0.929 . S
C592 C591 1.406 . S
C592 C593 1.391 . S
C593 H565 0.931 . S
C593 C588 1.370 . S
C593 C592 1.391 . S
C594 N563 1.435 . S
C594 C595 1.358 . S
C594 C599 1.371 . S
C595 H567 0.930 . S
C595 C594 1.358 . S
C595 C596 1.405 . S
C596 H568 0.932 . S
C596 C595 1.405 . S
C596 C597 1.383 . S
C597 C596 1.383 . S
C597 C598 1.393 . S
C598 H570 0.931 . S
C598 C597 1.393 . S
C598 C599 1.382 . S
C599 H569 0.929 . S
C599 C594 1.371 . S
C599 C598 1.382 . S
C600 N563 1.423 . S
C600 C601 1.362 . S
C600 C605 1.388 . S
C601 H571 0.929 . S
C601 C600 1.362 . S
C601 C602 1.376 . S
C602 H573 0.931 . S
C602 C601 1.376 . S
C602 C603 1.396 . S
C603 C602 1.396 . S
C603 C604 1.348 . S
C603 C621 1.472 . S
C604 H574 0.929 . S
C604 C603 1.348 . S
C604 C605 1.443 . S
C605 H572 0.932 . S
C605 C600 1.388 . S
C605 C604 1.443 . S
C606 N586 1.433 . S
C606 C607 1.363 . S
C606 C611 1.370 . S
C607 H575 0.929 . S
C607 C606 1.363 . S
C607 C608 1.385 . S
C608 H576 0.930 . S
C608 C607 1.385 . S
C608 C609 1.357 . S
C609 C608 1.357 . S
C609 C610 1.406 . S
C610 H577 0.929 . S
C610 C609 1.406 . S
C610 C611 1.391 . S
C611 H578 0.931 . S
C611 C606 1.370 . S
C611 C610 1.391 . S
C612 N586 1.435 . S
C612 C613 1.358 . S
C612 C617 1.371 . S
C613 H579 0.930 . S
C613 C612 1.358 . S
C613 C614 1.405 . S
C614 H580 0.932 . S
C614 C613 1.405 . S
C614 C615 1.383 . S
C615 C614 1.383 . S
C615 C616 1.393 . S
C616 H581 0.931 . S
C616 C615 1.393 . S
C616 C617 1.382 . S
C617 H582 0.929 . S
C617 C612 1.371 . S
C617 C616 1.382 . S
C618 N586 1.423 . S
C618 C619 1.362 . S
C618 C623 1.388 . S
C619 H583 0.929 . S
C619 C618 1.362 . S
C619 C620 1.376 . S
C620 H584 0.931 . S
C620 C619 1.376 . S
C620 C621 1.396 . S
C621 C603 1.472 . S
C621 C620 1.396 . S
C621 C622 1.348 . S
C622 H585 0.929 . S
C622 C621 1.348 . S
C622 C623 1.443 . S
C623 H587 0.932 . S
C623 C618 1.388 . S
C623 C622 1.443 . S
H624 C651 0.929 . S
N625 C650 1.433 . S
N625 C656 1.435 . S
N625 C662 1.423 . S
H626 C652 0.930 . S
H627 C655 0.931 . S
H628 C654 0.929 . S
H629 C657 0.930 . S
H630 C658 0.932 . S
H631 C661 0.929 . S
H632 C660 0.931 . S
H633 C663 0.929 . S
H634 C667 0.932 . S
H635 C664 0.931 . S
H636 C666 0.929 . S
H637 C669 0.929 . S
H638 C670 0.930 . S
H639 C672 0.929 . S
H640 C673 0.931 . S
H641 C675 0.930 . S
H642 C676 0.932 . S
H643 C678 0.931 . S
H644 C679 0.929 . S
H645 C681 0.929 . S
H646 C682 0.931 . S
H647 C684 0.929 . S
N648 C668 1.433 . S
N648 C674 1.435 . S
N648 C680 1.423 . S
H649 C685 0.932 . S
C650 N625 1.433 . S
C650 C651 1.363 . S
C650 C655 1.370 . S
C651 H624 0.929 . S
C651 C650 1.363 . S
C651 C652 1.385 . S
C652 H626 0.930 . S
C652 C651 1.385 . S
C652 C653 1.357 . S
C653 C652 1.357 . S
C653 C654 1.406 . S
C654 H628 0.929 . S
C654 C653 1.406 . S
C654 C655 1.391 . S
C655 H627 0.931 . S
C655 C650 1.370 . S
C655 C654 1.391 . S
C656 N625 1.435 . S
C656 C657 1.358 . S
C656 C661 1.371 . S
C657 H629 0.930 . S
C657 C656 1.358 . S
C657 C658 1.405 . S
C658 H630 0.932 . S
C658 C657 1.405 . S
C658 C659 1.383 . S
C659 C658 1.383 . S
C659 C660 1.393 . S
C660 H632 0.931 . S
C660 C659 1.393 . S
C660 C661 1.382 . S
C661 H631 0.929 . S
C661 C656 1.371 . S
C661 C660 1.382 . S
C662 N625 1.423 . S
C662 C663 1.362 . S
C662 C667 1.388 . S
C663 H633 0.929 . S
C663 C662 1.362 . S
C663 C664 1.376 . S
C664 H635 0.931 . S
C664 C663 1.376 . S
C664 C665 1.396 . S
C665 C664 1.396 . S
C665 C666 1.348 . S
C665 C683 1.472 . S
C666 H636 0.929 . S
C666 C665 1.348 . S
C666 C667 1.443 . S
C667 H634 0.932 . S
C667 C662 1.388 . S
C667 C666 1.443 . S
C668 N648 1.433 . S
C668 C669 1.363 . S
C668 C673 1.370 . S
C669 H637 0.929 . S
C669 C668 1.363 . S
C669 C670 1.385 . S
C670 H638 0.930 . S
C670 C669 1.385 . S
C670 C671 1.357 . S
C671 C670 1.357 . S
C671 C672 1.406 . S
C672 H639 0.929 . S
C672 C671 1.406 . S
C672 C673 1.391 . S
C673 H640 0.931 . S
C673 C668 1.370 . S
C673 C672 1.391 . S
C674 N648 1.435 . S
C674 C675 1.358 . S
C674 C679 1.371 . S
C675 H641 0.930 . S
C675 C674 1.358 . S
C675 C676 1.405 . S
C676 H642 0.932 . S
C676 C675 1.405 . S
C676 C677 1.383 . S
C677 C676 1.383 . S
C677 C678 1.393 . S
C678 H643 0.931 . S
C678 C677 1.393 . S
C678 C679 1.382 . S
C679 H644 0.929 . S
C679 C674 1.371 . S
C679 C678 1.382 . S
C680 N648 1.423 . S
C680 C681 1.362 . S
C680 C685 1.388 . S
C681 H645 0.929 . S
C681 C680 1.362 . S
C681 C682 1.376 . S
C682 H646 0.931 . S
C682 C681 1.376 . S
C682 C683 1.396 . S
C683 C665 1.472 . S
C683 C682 1.396 . S
C683 C684 1.348 . S
C684 H647 0.929 . S
C684 C683 1.348 . S
C684 C685 1.443 . S
C685 H649 0.932 . S
C685 C680 1.388 . S
C685 C684 1.443 . S
H686 C713 0.929 . S
N687 C712 1.433 . S
N687 C718 1.435 . S
N687 C724 1.423 . S
H688 C714 0.930 . S
H689 C717 0.931 . S
H690 C716 0.929 . S
H691 C719 0.930 . S
H692 C720 0.932 . S
H693 C723 0.929 . S
H694 C722 0.931 . S
H695 C725 0.929 . S
H696 C729 0.932 . S
H697 C726 0.931 . S
H698 C728 0.929 . S
H699 C731 0.929 . S
H700 C732 0.930 . S
H701 C734 0.929 . S
H702 C735 0.931 . S
H703 C737 0.930 . S
H704 C738 0.932 . S
H705 C740 0.931 . S
H706 C741 0.929 . S
H707 C743 0.929 . S
H708 C744 0.931 . S
H709 C746 0.929 . S
N710 C730 1.433 . S
N710 C736 1.435 . S
N710 C742 1.423 . S
H711 C747 0.932 . S
C712 N687 1.433 . S
C712 C713 1.363 . S
C712 C717 1.370 . S
C713 H686 0.929 . S
C713 C712 1.363 . S
C713 C714 1.385 . S
C714 H688 0.930 . S
C714 C713 1.385 . S
C714 C715 1.357 . S
C715 C714 1.357 . S
C715 C716 1.406 . S
C716 H690 0.929 . S
C716 C715 1.406 . S
C716 C717 1.391 . S
C717 H689 0.931 . S
C717 C712 1.370 . S
C717 C716 1.391 . S
C718 N687 1.435 . S
C718 C719 1.358 . S
C718 C723 1.371 . S
C719 H691 0.930 . S
C719 C718 1.358 . S
C719 C720 1.405 . S
C720 H692 0.932 . S
C720 C719 1.405 . S
C720 C721 1.383 . S
C721 C720 1.383 . S
C721 C722 1.393 . S
C722 H694 0.931 . S
C722 C721 1.393 . S
C722 C723 1.382 . S
C723 H693 0.929 . S
C723 C718 1.371 . S
C723 C722 1.382 . S
C724 N687 1.423 . S
C724 C725 1.362 . S
C724 C729 1.388 . S
C725 H695 0.929 . S
C725 C724 1.362 . S
C725 C726 1.376 . S
C726 H697 0.931 . S
C726 C725 1.376 . S
C726 C727 1.396 . S
C727 C726 1.396 . S
C727 C728 1.348 . S
C727 C745 1.472 . S
C728 H698 0.929 . S
C728 C727 1.348 . S
C728 C729 1.443 . S
C729 H696 0.932 . S
C729 C724 1.388 . S
C729 C728 1.443 . S
C730 N710 1.433 . S
C730 C731 1.363 . S
C730 C735 1.370 . S
C731 H699 0.929 . S
C731 C730 1.363 . S
C731 C732 1.385 . S
C732 H700 0.930 . S
C732 C731 1.385 . S
C732 C733 1.357 . S
C733 C732 1.357 . S
C733 C734 1.406 . S
C734 H701 0.929 . S
C734 C733 1.406 . S
C734 C735 1.391 . S
C735 H702 0.931 . S
C735 C730 1.370 . S
C735 C734 1.391 . S
C736 N710 1.435 . S
C736 C737 1.358 . S
C736 C741 1.371 . S
C737 H703 0.930 . S
C737 C736 1.358 . S
C737 C738 1.405 . S
C738 H704 0.932 . S
C738 C737 1.405 . S
C738 C739 1.383 . S
C739 C738 1.383 . S
C739 C740 1.393 . S
C740 H705 0.931 . S
C740 C739 1.393 . S
C740 C741 1.382 . S
C741 H706 0.929 . S
C741 C736 1.371 . S
C741 C740 1.382 . S
C742 N710 1.423 . S
C742 C743 1.362 . S
C742 C747 1.388 . S
C743 H707 0.929 . S
C743 C742 1.362 . S
C743 C744 1.376 . S
C744 H708 0.931 . S
C744 C743 1.376 . S
C744 C745 1.396 . S
C745 C727 1.472 . S
C745 C744 1.396 . S
C745 C746 1.348 . S
C746 H709 0.929 . S
C746 C745 1.348 . S
C746 C747 1.443 . S
C747 H711 0.932 . S
C747 C742 1.388 . S
C747 C746 1.443 . S
H748 C775 0.929 . S
N749 C774 1.433 . S
N749 C780 1.435 . S
N749 C786 1.423 . S
H750 C776 0.930 . S
H751 C779 0.931 . S
H752 C778 0.929 . S
H753 C781 0.930 . S
H754 C782 0.932 . S
H755 C785 0.929 . S
H756 C784 0.931 . S
H757 C787 0.929 . S
H758 C791 0.932 . S
H759 C788 0.931 . S
H760 C790 0.929 . S
H761 C793 0.929 . S
H762 C794 0.930 . S
H763 C796 0.929 . S
H764 C797 0.931 . S
H765 C799 0.930 . S
H766 C800 0.932 . S
H767 C802 0.931 . S
H768 C803 0.929 . S
H769 C805 0.929 . S
H770 C806 0.931 . S
H771 C808 0.929 . S
N772 C792 1.433 . S
N772 C798 1.435 . S
N772 C804 1.423 . S
H773 C809 0.932 . S
C774 N749 1.433 . S
C774 C775 1.363 . S
C774 C779 1.370 . S
C775 H748 0.929 . S
C775 C774 1.363 . S
C775 C776 1.385 . S
C776 H750 0.930 . S
C776 C775 1.385 . S
C776 C777 1.357 . S
C777 C776 1.357 . S
C777 C778 1.406 . S
C778 H752 0.929 . S
C778 C777 1.406 . S
C778 C779 1.391 . S
C779 H751 0.931 . S
C779 C774 1.370 . S
C779 C778 1.391 . S
C780 N749 1.435 . S
C780 C781 1.358 . S
C780 C785 1.371 . S
C781 H753 0.930 . S
C781 C780 1.358 . S
C781 C782 1.405 . S
C782 H754 0.932 . S
C782 C781 1.405 . S
C782 C783 1.383 . S
C783 C782 1.383 . S
C783 C784 1.393 . S
C784 H756 0.931 . S
C784 C783 1.393 . S
C784 C785 1.382 . S
C785 H755 0.929 . S
C785 C780 1.371 . S
C785 C784 1.382 . S
C786 N749 1.423 . S
C786 C787 1.362 . S
C786 C791 1.388 . S
C787 H757 0.929 . S
C787 C786 1.362 . S
C787 C788 1.376 . S
C788 H759 0.931 . S
C788 C787 1.376 . S
C788 C789 1.396 . S
C789 C788 1.396 . S
C789 C790 1.348 . S
C789 C807 1.472 . S
C790 H760 0.929 . S
C790 C789 1.348 . S
C790 C791 1.443 . S
C791 H758 0.932 . S
C791 C786 1.388 . S
C791 C790 1.443 . S
C792 N772 1.433 . S
C792 C793 1.363 . S
C792 C797 1.370 . S
C793 H761 0.929 . S
C793 C792 1.363 . S
C793 C794 1.385 . S
C794 H762 0.930 . S
C794 C793 1.385 . S
C794 C795 1.357 . S
C795 C794 1.357 . S
C795 C796 1.406 . S
C796 H763 0.929 . S
C796 C795 1.406 . S
C796 C797 1.391 . S
C797 H764 0.931 . S
C797 C792 1.370 . S
C797 C796 1.391 . S
C798 N772 1.435 . S
C798 C799 1.358 . S
C798 C803 1.371 . S
C799 H765 0.930 . S
C799 C798 1.358 . S
C799 C800 1.405 . S
C800 H766 0.932 . S
C800 C799 1.405 . S
C800 C801 1.383 . S
C801 C800 1.383 . S
C801 C802 1.393 . S
C802 H767 0.931 . S
C802 C801 1.393 . S
C802 C803 1.382 . S
C803 H768 0.929 . S
C803 C798 1.371 . S
C803 C802 1.382 . S
C804 N772 1.423 . S
C804 C805 1.362 . S
C804 C809 1.388 . S
C805 H769 0.929 . S
C805 C804 1.362 . S
C805 C806 1.376 . S
C806 H770 0.931 . S
C806 C805 1.376 . S
C806 C807 1.396 . S
C807 C789 1.472 . S
C807 C806 1.396 . S
C807 C808 1.348 . S
C808 H771 0.929 . S
C808 C807 1.348 . S
C808 C809 1.443 . S
C809 H773 0.932 . S
C809 C804 1.388 . S
C809 C808 1.443 . S
H810 C837 0.929 . S
N811 C836 1.433 . S
N811 C842 1.435 . S
N811 C848 1.423 . S
H812 C838 0.930 . S
H813 C841 0.931 . S
H814 C840 0.929 . S
H815 C843 0.930 . S
H816 C844 0.932 . S
H817 C847 0.929 . S
H818 C846 0.931 . S
H819 C849 0.929 . S
H820 C853 0.932 1_655 S
H821 C850 0.931 . S
H822 C852 0.936 . S
H823 C855 0.929 . S
H824 C856 0.930 . S
H825 C858 0.929 . S
H826 C859 0.931 . S
H827 C861 0.930 . S
H828 C862 0.932 . S
H829 C864 0.931 . S
H830 C865 0.929 . S
H831 C867 0.929 . S
H832 C868 0.931 . S
H833 C870 0.971 . S
N834 C854 1.433 . S
N834 C860 1.435 . S
N834 C866 1.423 . S
H835 C871 0.932 1_655 S
C836 N811 1.433 . S
C836 C837 1.363 . S
C836 C841 1.370 1_455 S
C837 H810 0.929 . S
C837 C836 1.363 . S
C837 C838 1.385 . S
C838 H812 0.930 . S
C838 C837 1.385 . S
C838 C839 1.357 1_455 S
C839 C838 1.357 1_655 S
C839 C840 1.406 . S
C840 H814 0.929 . S
C840 C839 1.406 . S
C840 C841 1.391 . S
C841 H813 0.931 . S
C841 C836 1.370 1_655 S
C841 C840 1.391 . S
C842 N811 1.435 . S
C842 C843 1.358 1_455 S
C842 C847 1.371 . S
C843 H815 0.930 . S
C843 C842 1.358 1_655 S
C843 C844 1.405 . S
C844 H816 0.932 . S
C844 C843 1.405 . S
C844 C845 1.383 1_655 S
C845 C844 1.383 1_455 S
C845 C846 1.393 . S
C846 H818 0.931 . S
C846 C845 1.393 . S
C846 C847 1.382 . S
C847 H817 0.929 . S
C847 C842 1.371 . S
C847 C846 1.382 . S
C848 N811 1.423 . S
C848 C849 1.362 . S
C848 C853 1.388 . S
C849 H819 0.929 . S
C849 C848 1.362 . S
C849 C850 1.376 . S
C850 H821 0.931 . S
C850 C849 1.376 . S
C850 C851 1.396 . S
C851 C850 1.396 . S
C851 C852 1.348 . S
C851 C869 1.472 . S
C852 H822 0.936 . S
C852 C851 1.348 . S
C852 C853 1.443 . S
C853 H820 0.932 1_455 S
C853 C848 1.388 . S
C853 C852 1.443 . S
C854 N834 1.433 . S
C854 C855 1.363 . S
C854 C859 1.370 1_455 S
C855 H823 0.929 . S
C855 C854 1.363 . S
C855 C856 1.385 . S
C856 H824 0.930 . S
C856 C855 1.385 . S
C856 C857 1.357 1_455 S
C857 C856 1.357 1_655 S
C857 C858 1.406 . S
C858 H825 0.929 . S
C858 C857 1.406 . S
C858 C859 1.391 . S
C859 H826 0.931 . S
C859 C854 1.370 1_655 S
C859 C858 1.391 . S
C860 N834 1.435 . S
C860 C861 1.358 1_455 S
C860 C865 1.371 . S
C861 H827 0.930 . S
C861 C860 1.358 1_655 S
C861 C862 1.405 . S
C862 H828 0.932 . S
C862 C861 1.405 . S
C862 C863 1.383 1_655 S
C863 C862 1.383 1_455 S
C863 C864 1.393 . S
C864 H829 0.931 . S
C864 C863 1.393 . S
C864 C865 1.382 . S
C865 H830 0.929 . S
C865 C860 1.371 . S
C865 C864 1.382 . S
C866 N834 1.423 . S
C866 C867 1.362 . S
C866 C871 1.388 . S
C867 H831 0.929 . S
C867 C866 1.362 . S
C867 C868 1.376 . S
C868 H832 0.931 . S
C868 C867 1.376 . S
C868 C869 1.396 . S
C869 C851 1.472 . S
C869 C868 1.396 . S
C869 C870 1.348 . S
C870 H833 0.971 . S
C870 C869 1.348 . S
C870 C871 1.443 . S
C871 H835 0.932 1_455 S
C871 C866 1.388 . S
C871 C870 1.443 . S
H872 C899 0.929 . S
N873 C898 1.433 . S
N873 C904 1.435 . S
N873 C910 1.423 . S
H874 C900 0.930 . S
H875 C903 0.931 . S
H876 C902 0.929 . S
H877 C905 0.930 . S
H878 C906 0.932 . S
H879 C909 0.929 . S
H880 C908 0.931 . S
H881 C911 0.929 . S
H882 C915 0.932 . S
H883 C912 0.931 . S
H884 C914 0.929 . S
H885 C917 0.929 . S
H886 C918 0.930 . S
H887 C920 0.929 . S
H888 C921 0.931 . S
H889 C923 0.930 . S
H890 C924 0.932 . S
H891 C926 0.931 . S
H892 C927 0.929 . S
H893 C929 0.929 . S
H894 C930 0.931 . S
H895 C932 0.929 . S
N896 C916 1.433 . S
N896 C922 1.435 . S
N896 C928 1.423 . S
H897 C933 0.932 . S
C898 N873 1.433 . S
C898 C899 1.363 . S
C898 C903 1.370 . S
C899 H872 0.929 . S
C899 C898 1.363 . S
C899 C900 1.385 . S
C900 H874 0.930 . S
C900 C899 1.385 . S
C900 C901 1.357 . S
C901 C900 1.357 . S
C901 C902 1.406 . S
C902 H876 0.929 . S
C902 C901 1.406 . S
C902 C903 1.391 . S
C903 H875 0.931 . S
C903 C898 1.370 . S
C903 C902 1.391 . S
C904 N873 1.435 . S
C904 C905 1.358 . S
C904 C909 1.371 . S
C905 H877 0.930 . S
C905 C904 1.358 . S
C905 C906 1.405 . S
C906 H878 0.932 . S
C906 C905 1.405 . S
C906 C907 1.383 . S
C907 C906 1.383 . S
C907 C908 1.393 . S
C908 H880 0.931 . S
C908 C907 1.393 . S
C908 C909 1.382 . S
C909 H879 0.929 . S
C909 C904 1.371 . S
C909 C908 1.382 . S
C910 N873 1.423 . S
C910 C911 1.362 . S
C910 C915 1.388 . S
C911 H881 0.929 . S
C911 C910 1.362 . S
C911 C912 1.376 . S
C912 H883 0.931 . S
C912 C911 1.376 . S
C912 C913 1.396 . S
C913 C912 1.396 . S
C913 C914 1.348 . S
C913 C931 1.472 . S
C914 H884 0.929 . S
C914 C913 1.348 . S
C914 C915 1.443 . S
C915 H882 0.932 . S
C915 C910 1.388 . S
C915 C914 1.443 . S
C916 N896 1.433 . S
C916 C917 1.363 . S
C916 C921 1.370 . S
C917 H885 0.929 . S
C917 C916 1.363 . S
C917 C918 1.385 . S
C918 H886 0.930 . S
C918 C917 1.385 . S
C918 C919 1.357 . S
C919 C918 1.357 . S
C919 C920 1.406 . S
C920 H887 0.929 . S
C920 C919 1.406 . S
C920 C921 1.391 . S
C921 H888 0.931 . S
C921 C916 1.370 . S
C921 C920 1.391 . S
C922 N896 1.435 . S
C922 C923 1.358 . S
C922 C927 1.371 . S
C923 H889 0.930 . S
C923 C922 1.358 . S
C923 C924 1.405 . S
C924 H890 0.932 . S
C924 C923 1.405 . S
C924 C925 1.383 . S
C925 C924 1.383 . S
C925 C926 1.393 . S
C926 H891 0.931 . S
C926 C925 1.393 . S
C926 C927 1.382 . S
C927 H892 0.929 . S
C927 C922 1.371 . S
C927 C926 1.382 . S
C928 N896 1.423 . S
C928 C929 1.362 . S
C928 C933 1.388 . S
C929 H893 0.929 . S
C929 C928 1.362 . S
C929 C930 1.376 . S
C930 H894 0.931 . S
C930 C929 1.376 . S
C930 C931 1.396 . S
C931 C913 1.472 . S
C931 C930 1.396 . S
C931 C932 1.348 . S
C932 H895 0.929 . S
C932 C931 1.348 . S
C932 C933 1.443 . S
C933 H897 0.932 . S
C933 C928 1.388 . S
C933 C932 1.443 . S
H934 C961 0.929 . S
N935 C960 1.433 . S
N935 C966 1.435 . S
N935 C972 1.423 . S
H936 C962 0.930 . S
H937 C965 0.931 . S
H938 C964 0.929 . S
H939 C967 0.930 . S
H940 C968 0.932 . S
H941 C971 0.929 . S
H942 C970 0.931 . S
H943 C973 0.929 . S
H944 C977 0.932 1_545 S
H945 C974 0.931 . S
H946 C976 0.975 . S
H947 C979 0.929 . S
H948 C980 0.930 . S
H949 C982 0.929 . S
H950 C983 0.931 . S
H951 C985 0.930 . S
H952 C986 0.932 . S
H953 C988 0.931 . S
H954 C989 0.929 . S
H955 C991 0.929 . S
H956 C992 0.931 . S
H957 C994 0.936 . S
N958 C978 1.433 . S
N958 C984 1.435 . S
N958 C990 1.423 . S
H959 C995 0.932 1_545 S
C960 N935 1.433 . S
C960 C961 1.363 . S
C960 C965 1.370 1_565 S
C961 H934 0.929 . S
C961 C960 1.363 . S
C961 C962 1.385 . S
C962 H936 0.930 . S
C962 C961 1.385 . S
C962 C963 1.357 1_565 S
C963 C962 1.357 1_545 S
C963 C964 1.406 . S
C964 H938 0.929 . S
C964 C963 1.406 . S
C964 C965 1.391 . S
C965 H937 0.931 . S
C965 C960 1.370 1_545 S
C965 C964 1.391 . S
C966 N935 1.435 . S
C966 C967 1.358 1_565 S
C966 C971 1.371 . S
C967 H939 0.930 . S
C967 C966 1.358 1_545 S
C967 C968 1.405 . S
C968 H940 0.932 . S
C968 C967 1.405 . S
C968 C969 1.383 1_545 S
C969 C968 1.383 1_565 S
C969 C970 1.393 . S
C970 H942 0.931 . S
C970 C969 1.393 . S
C970 C971 1.382 . S
C971 H941 0.929 . S
C971 C966 1.371 . S
C971 C970 1.382 . S
C972 N935 1.423 . S
C972 C973 1.362 . S
C972 C977 1.388 . S
C973 H943 0.929 . S
C973 C972 1.362 . S
C973 C974 1.376 . S
C974 H945 0.931 . S
C974 C973 1.376 . S
C974 C975 1.396 . S
C975 C974 1.396 . S
C975 C976 1.348 . S
C975 C993 1.472 . S
C976 H946 0.975 . S
C976 C975 1.348 . S
C976 C977 1.443 . S
C977 H944 0.932 1_565 S
C977 C972 1.388 . S
C977 C976 1.443 . S
C978 N958 1.433 . S
C978 C979 1.363 . S
C978 C983 1.370 1_565 S
C979 H947 0.929 . S
C979 C978 1.363 . S
C979 C980 1.385 . S
C980 H948 0.930 . S
C980 C979 1.385 . S
C980 C981 1.357 1_565 S
C981 C980 1.357 1_545 S
C981 C982 1.406 . S
C982 H949 0.929 . S
C982 C981 1.406 . S
C982 C983 1.391 . S
C983 H950 0.931 . S
C983 C978 1.370 1_545 S
C983 C982 1.391 . S
C984 N958 1.435 . S
C984 C985 1.358 1_565 S
C984 C989 1.371 . S
C985 H951 0.930 . S
C985 C984 1.358 1_545 S
C985 C986 1.405 . S
C986 H952 0.932 . S
C986 C985 1.405 . S
C986 C987 1.383 1_545 S
C987 C986 1.383 1_565 S
C987 C988 1.393 . S
C988 H953 0.931 . S
C988 C987 1.393 . S
C988 C989 1.382 . S
C989 H954 0.929 . S
C989 C984 1.371 . S
C989 C988 1.382 . S
C990 N958 1.423 . S
C990 C991 1.362 . S
C990 C995 1.388 . S
C991 H955 0.929 . S
C991 C990 1.362 . S
C991 C992 1.376 . S
C992 H956 0.931 . S
C992 C991 1.376 . S
C992 C993 1.396 . S
C993 C975 1.472 . S
C993 C992 1.396 . S
C993 C994 1.348 . S
C994 H957 0.936 . S
C994 C993 1.348 . S
C994 C995 1.443 . S
C995 H959 0.932 1_565 S
C995 C990 1.388 . S
C995 C994 1.443 . S
H996 C1023 0.929 . S
N997 C1022 1.433 . S
N997 C1028 1.435 . S
N997 C1034 1.423 . S
H998 C1024 0.930 . S
H999 C1027 0.931 . S
H1000 C1026 0.929 . S
H1001 C1029 0.930 . S
H1002 C1030 0.932 . S
H1003 C1033 0.929 . S
H1004 C1032 0.931 . S
H1005 C1035 0.929 . S
H1006 C1039 1.007 . S
H1007 C1036 0.931 . S
H1008 C1038 0.917 1_545 S
H1009 C1041 0.929 . S
H1010 C1042 0.930 . S
H1011 C1044 0.929 . S
H1012 C1045 0.999 . S
H1013 C1047 0.930 . S
H1014 C1048 0.932 . S
H1015 C1050 0.931 . S
H1016 C1051 0.929 . S
H1017 C1053 0.929 . S
H1018 C1054 0.931 . S
H1019 C1056 0.874 1_545 S
N1020 C1040 1.433 . S
N1020 C1046 1.435 . S
N1020 C1052 1.423 . S
H1021 C1057 0.953 . S
C1022 N997 1.433 . S
C1022 C1023 1.363 . S
C1022 C1027 1.370 1_565 S
C1023 H996 0.929 . S
C1023 C1022 1.363 . S
C1023 C1024 1.385 . S
C1024 H998 0.930 . S
C1024 C1023 1.385 . S
C1024 C1025 1.357 . S
C1025 C1024 1.357 . S
C1025 C1026 1.406 1_565 S
C1026 H1000 0.929 . S
C1026 C1025 1.406 1_545 S
C1026 C1027 1.391 . S
C1027 H999 0.931 . S
C1027 C1022 1.370 1_545 S
C1027 C1026 1.391 . S
C1028 N997 1.435 . S
C1028 C1029 1.358 1_565 S
C1028 C1033 1.371 . S
C1029 H1001 0.930 . S
C1029 C1028 1.358 1_545 S
C1029 C1030 1.405 . S
C1030 H1002 0.932 . S
C1030 C1029 1.405 . S
C1030 C1031 1.383 . S
C1031 C1030 1.383 . S
C1031 C1032 1.393 1_545 S
C1032 H1004 0.931 . S
C1032 C1031 1.393 1_565 S
C1032 C1033 1.382 . S
C1033 H1003 0.929 . S
C1033 C1028 1.371 . S
C1033 C1032 1.382 . S
C1034 N997 1.423 . S
C1034 C1035 1.362 . S
C1034 C1039 1.368 1_565 S
C1035 H1005 0.929 . S
C1035 C1034 1.362 . S
C1035 C1036 1.376 . S
C1036 H1007 0.931 . S
C1036 C1035 1.376 . S
C1036 C1037 1.396 . S
C1037 C1036 1.396 . S
C1037 C1038 1.400 . S
C1037 C1055 1.472 . S
C1038 H1008 0.917 1_565 S
C1038 C1037 1.400 . S
C1038 C1039 1.357 1_565 S
C1039 H1006 1.007 . S
C1039 C1034 1.368 1_545 S
C1039 C1038 1.357 1_545 S
C1040 N1020 1.433 . S
C1040 C1041 1.363 . S
C1040 C1045 1.317 1_565 S
C1041 H1009 0.929 . S
C1041 C1040 1.363 . S
C1041 C1042 1.385 . S
C1042 H1010 0.930 . S
C1042 C1041 1.385 . S
C1042 C1043 1.357 . S
C1043 C1042 1.357 . S
C1043 C1044 1.406 1_565 S
C1044 H1011 0.929 . S
C1044 C1043 1.406 1_545 S
C1044 C1045 1.381 . S
C1045 H1012 0.999 . S
C1045 C1040 1.317 1_545 S
C1045 C1044 1.381 . S
C1046 N1020 1.435 . S
C1046 C1047 1.358 1_565 S
C1046 C1051 1.371 . S
C1047 H1013 0.930 . S
C1047 C1046 1.358 1_545 S
C1047 C1048 1.405 . S
C1048 H1014 0.932 . S
C1048 C1047 1.405 . S
C1048 C1049 1.383 . S
C1049 C1048 1.383 . S
C1049 C1050 1.393 1_545 S
C1050 H1015 0.931 . S
C1050 C1049 1.393 1_565 S
C1050 C1051 1.382 . S
C1051 H1016 0.929 . S
C1051 C1046 1.371 . S
C1051 C1050 1.382 . S
C1052 N1020 1.423 . S
C1052 C1053 1.362 . S
C1052 C1057 1.344 1_565 S
C1053 H1017 0.929 . S
C1053 C1052 1.362 . S
C1053 C1054 1.376 . S
C1054 H1018 0.931 . S
C1054 C1053 1.376 . S
C1054 C1055 1.396 . S
C1055 C1037 1.472 . S
C1055 C1054 1.396 . S
C1055 C1056 1.371 . S
C1056 H1019 0.874 1_565 S
C1056 C1055 1.371 . S
C1056 C1057 1.506 1_565 S
C1057 H1021 0.953 . S
C1057 C1052 1.344 1_545 S
C1057 C1056 1.506 1_545 S
H1058 C1085 0.929 . S
N1059 C1084 1.433 . S
N1059 C1090 1.435 . S
N1059 C1096 1.423 . S
H1060 C1086 0.930 . S
H1061 C1089 0.931 . S
H1062 C1088 0.929 . S
H1063 C1091 0.930 . S
H1064 C1092 0.932 . S
H1065 C1095 0.929 . S
H1066 C1094 0.931 . S
H1067 C1097 0.929 . S
H1068 C1101 0.932 1_455 S
H1069 C1098 0.931 . S
H1070 C1100 0.970 . S
H1071 C1103 0.929 . S
H1072 C1104 0.930 . S
H1073 C1106 0.929 . S
H1074 C1107 0.931 . S
H1075 C1109 0.930 . S
H1076 C1110 0.932 . S
H1077 C1112 0.931 . S
H1078 C1113 0.929 . S
H1079 C1115 0.929 . S
H1080 C1116 0.931 . S
H1081 C1118 0.937 . S
N1082 C1102 1.433 . S
N1082 C1108 1.435 . S
N1082 C1114 1.423 . S
H1083 C1119 0.932 1_455 S
C1084 N1059 1.433 . S
C1084 C1085 1.363 . S
C1084 C1089 1.370 1_655 S
C1085 H1058 0.929 . S
C1085 C1084 1.363 . S
C1085 C1086 1.385 . S
C1086 H1060 0.930 . S
C1086 C1085 1.385 . S
C1086 C1087 1.357 1_655 S
C1087 C1086 1.357 1_455 S
C1087 C1088 1.406 . S
C1088 H1062 0.929 . S
C1088 C1087 1.406 . S
C1088 C1089 1.391 . S
C1089 H1061 0.931 . S
C1089 C1084 1.370 1_455 S
C1089 C1088 1.391 . S
C1090 N1059 1.435 . S
C1090 C1091 1.358 1_655 S
C1090 C1095 1.371 . S
C1091 H1063 0.930 . S
C1091 C1090 1.358 1_455 S
C1091 C1092 1.405 . S
C1092 H1064 0.932 . S
C1092 C1091 1.405 . S
C1092 C1093 1.383 1_455 S
C1093 C1092 1.383 1_655 S
C1093 C1094 1.393 . S
C1094 H1066 0.931 . S
C1094 C1093 1.393 . S
C1094 C1095 1.382 . S
C1095 H1065 0.929 . S
C1095 C1090 1.371 . S
C1095 C1094 1.382 . S
C1096 N1059 1.423 . S
C1096 C1097 1.362 . S
C1096 C1101 1.388 . S
C1097 H1067 0.929 . S
C1097 C1096 1.362 . S
C1097 C1098 1.376 . S
C1098 H1069 0.931 . S
C1098 C1097 1.376 . S
C1098 C1099 1.396 . S
C1099 C1098 1.396 . S
C1099 C1100 1.348 . S
C1099 C1117 1.472 . S
C1100 H1070 0.970 . S
C1100 C1099 1.348 . S
C1100 C1101 1.443 . S
C1101 H1068 0.932 1_655 S
C1101 C1096 1.388 . S
C1101 C1100 1.443 . S
C1102 N1082 1.433 . S
C1102 C1103 1.363 . S
C1102 C1107 1.370 1_655 S
C1103 H1071 0.929 . S
C1103 C1102 1.363 . S
C1103 C1104 1.385 . S
C1104 H1072 0.930 . S
C1104 C1103 1.385 . S
C1104 C1105 1.357 1_655 S
C1105 C1104 1.357 1_455 S
C1105 C1106 1.406 . S
C1106 H1073 0.929 . S
C1106 C1105 1.406 . S
C1106 C1107 1.391 . S
C1107 H1074 0.931 . S
C1107 C1102 1.370 1_455 S
C1107 C1106 1.391 . S
C1108 N1082 1.435 . S
C1108 C1109 1.358 1_655 S
C1108 C1113 1.371 . S
C1109 H1075 0.930 . S
C1109 C1108 1.358 1_455 S
C1109 C1110 1.405 . S
C1110 H1076 0.932 . S
C1110 C1109 1.405 . S
C1110 C1111 1.383 1_455 S
C1111 C1110 1.383 1_655 S
C1111 C1112 1.393 . S
C1112 H1077 0.931 . S
C1112 C1111 1.393 . S
C1112 C1113 1.382 . S
C1113 H1078 0.929 . S
C1113 C1108 1.371 . S
C1113 C1112 1.382 . S
C1114 N1082 1.423 . S
C1114 C1115 1.362 . S
C1114 C1119 1.388 . S
C1115 H1079 0.929 . S
C1115 C1114 1.362 . S
C1115 C1116 1.376 . S
C1116 H1080 0.931 . S
C1116 C1115 1.376 . S
C1116 C1117 1.396 . S
C1117 C1099 1.472 . S
C1117 C1116 1.396 . S
C1117 C1118 1.348 . S
C1118 H1081 0.937 . S
C1118 C1117 1.348 . S
C1118 C1119 1.443 . S
C1119 H1083 0.932 1_655 S
C1119 C1114 1.388 . S
C1119 C1118 1.443 . S
H1120 C1147 0.929 . S
N1121 C1146 1.433 . S
N1121 C1152 1.435 . S
N1121 C1158 1.423 . S
H1122 C1148 0.930 . S
H1123 C1151 0.931 . S
H1124 C1150 0.929 . S
H1125 C1153 0.930 . S
H1126 C1154 0.932 . S
H1127 C1157 0.929 . S
H1128 C1156 0.931 . S
H1129 C1159 0.929 . S
H1130 C1163 0.932 . S
H1131 C1160 0.931 . S
H1132 C1162 0.929 . S
H1133 C1165 0.929 . S
H1134 C1166 0.930 . S
H1135 C1168 0.929 . S
H1136 C1169 0.931 . S
H1137 C1171 0.930 . S
H1138 C1172 0.932 . S
H1139 C1174 0.931 . S
H1140 C1175 0.929 . S
H1141 C1177 0.929 . S
H1142 C1178 0.931 . S
H1143 C1180 0.929 . S
N1144 C1164 1.433 . S
N1144 C1170 1.435 . S
N1144 C1176 1.423 . S
H1145 C1181 0.932 . S
C1146 N1121 1.433 . S
C1146 C1147 1.363 . S
C1146 C1151 1.370 . S
C1147 H1120 0.929 . S
C1147 C1146 1.363 . S
C1147 C1148 1.385 . S
C1148 H1122 0.930 . S
C1148 C1147 1.385 . S
C1148 C1149 1.357 . S
C1149 C1148 1.357 . S
C1149 C1150 1.406 . S
C1150 H1124 0.929 . S
C1150 C1149 1.406 . S
C1150 C1151 1.391 . S
C1151 H1123 0.931 . S
C1151 C1146 1.370 . S
C1151 C1150 1.391 . S
C1152 N1121 1.435 . S
C1152 C1153 1.358 . S
C1152 C1157 1.371 . S
C1153 H1125 0.930 . S
C1153 C1152 1.358 . S
C1153 C1154 1.405 . S
C1154 H1126 0.932 . S
C1154 C1153 1.405 . S
C1154 C1155 1.383 . S
C1155 C1154 1.383 . S
C1155 C1156 1.393 . S
C1156 H1128 0.931 . S
C1156 C1155 1.393 . S
C1156 C1157 1.382 . S
C1157 H1127 0.929 . S
C1157 C1152 1.371 . S
C1157 C1156 1.382 . S
C1158 N1121 1.423 . S
C1158 C1159 1.362 . S
C1158 C1163 1.388 . S
C1159 H1129 0.929 . S
C1159 C1158 1.362 . S
C1159 C1160 1.376 . S
C1160 H1131 0.931 . S
C1160 C1159 1.376 . S
C1160 C1161 1.396 . S
C1161 C1160 1.396 . S
C1161 C1162 1.348 . S
C1161 C1179 1.472 . S
C1162 H1132 0.929 . S
C1162 C1161 1.348 . S
C1162 C1163 1.443 . S
C1163 H1130 0.932 . S
C1163 C1158 1.388 . S
C1163 C1162 1.443 . S
C1164 N1144 1.433 . S
C1164 C1165 1.363 . S
C1164 C1169 1.370 . S
C1165 H1133 0.929 . S
C1165 C1164 1.363 . S
C1165 C1166 1.385 . S
C1166 H1134 0.930 . S
C1166 C1165 1.385 . S
C1166 C1167 1.357 . S
C1167 C1166 1.357 . S
C1167 C1168 1.406 . S
C1168 H1135 0.929 . S
C1168 C1167 1.406 . S
C1168 C1169 1.391 . S
C1169 H1136 0.931 . S
C1169 C1164 1.370 . S
C1169 C1168 1.391 . S
C1170 N1144 1.435 . S
C1170 C1171 1.358 . S
C1170 C1175 1.371 . S
C1171 H1137 0.930 . S
C1171 C1170 1.358 . S
C1171 C1172 1.405 . S
C1172 H1138 0.932 . S
C1172 C1171 1.405 . S
C1172 C1173 1.383 . S
C1173 C1172 1.383 . S
C1173 C1174 1.393 . S
C1174 H1139 0.931 . S
C1174 C1173 1.393 . S
C1174 C1175 1.382 . S
C1175 H1140 0.929 . S
C1175 C1170 1.371 . S
C1175 C1174 1.382 . S
C1176 N1144 1.423 . S
C1176 C1177 1.362 . S
C1176 C1181 1.388 . S
C1177 H1141 0.929 . S
C1177 C1176 1.362 . S
C1177 C1178 1.376 . S
C1178 H1142 0.931 . S
C1178 C1177 1.376 . S
C1178 C1179 1.396 . S
C1179 C1161 1.472 . S
C1179 C1178 1.396 . S
C1179 C1180 1.348 . S
C1180 H1143 0.929 . S
C1180 C1179 1.348 . S
C1180 C1181 1.443 . S
C1181 H1145 0.932 . S
C1181 C1176 1.388 . S
C1181 C1180 1.443 . S
H1182 C1209 0.929 . S
N1183 C1208 1.433 . S
N1183 C1214 1.435 . S
N1183 C1220 1.423 . S
H1184 C1210 0.930 . S
H1185 C1213 0.931 . S
H1186 C1212 0.929 . S
H1187 C1215 0.930 . S
H1188 C1216 0.932 . S
H1189 C1219 0.929 . S
H1190 C1218 0.931 . S
H1191 C1221 0.929 . S
H1192 C1225 0.932 . S
H1193 C1222 0.931 . S
H1194 C1224 0.929 . S
H1195 C1227 0.929 . S
H1196 C1228 0.930 . S
H1197 C1230 0.929 . S
H1198 C1231 0.931 . S
H1199 C1233 0.930 . S
H1200 C1234 0.932 . S
H1201 C1236 0.931 . S
H1202 C1237 0.929 . S
H1203 C1239 0.929 . S
H1204 C1240 0.931 . S
H1205 C1242 0.929 . S
N1206 C1226 1.433 . S
N1206 C1232 1.435 . S
N1206 C1238 1.423 . S
H1207 C1243 0.932 . S
C1208 N1183 1.433 . S
C1208 C1209 1.363 . S
C1208 C1213 1.370 . S
C1209 H1182 0.929 . S
C1209 C1208 1.363 . S
C1209 C1210 1.385 . S
C1210 H1184 0.930 . S
C1210 C1209 1.385 . S
C1210 C1211 1.357 . S
C1211 C1210 1.357 . S
C1211 C1212 1.406 . S
C1212 H1186 0.929 . S
C1212 C1211 1.406 . S
C1212 C1213 1.391 . S
C1213 H1185 0.931 . S
C1213 C1208 1.370 . S
C1213 C1212 1.391 . S
C1214 N1183 1.435 . S
C1214 C1215 1.358 . S
C1214 C1219 1.371 . S
C1215 H1187 0.930 . S
C1215 C1214 1.358 . S
C1215 C1216 1.405 . S
C1216 H1188 0.932 . S
C1216 C1215 1.405 . S
C1216 C1217 1.383 . S
C1217 C1216 1.383 . S
C1217 C1218 1.393 . S
C1218 H1190 0.931 . S
C1218 C1217 1.393 . S
C1218 C1219 1.382 . S
C1219 H1189 0.929 . S
C1219 C1214 1.371 . S
C1219 C1218 1.382 . S
C1220 N1183 1.423 . S
C1220 C1221 1.362 . S
C1220 C1225 1.388 . S
C1221 H1191 0.929 . S
C1221 C1220 1.362 . S
C1221 C1222 1.376 . S
C1222 H1193 0.931 . S
C1222 C1221 1.376 . S
C1222 C1223 1.396 . S
C1223 C1222 1.396 . S
C1223 C1224 1.348 . S
C1223 C1241 1.472 . S
C1224 H1194 0.929 . S
C1224 C1223 1.348 . S
C1224 C1225 1.443 . S
C1225 H1192 0.932 . S
C1225 C1220 1.388 . S
C1225 C1224 1.443 . S
C1226 N1206 1.433 . S
C1226 C1227 1.363 . S
C1226 C1231 1.370 . S
C1227 H1195 0.929 . S
C1227 C1226 1.363 . S
C1227 C1228 1.385 . S
C1228 H1196 0.930 . S
C1228 C1227 1.385 . S
C1228 C1229 1.357 . S
C1229 C1228 1.357 . S
C1229 C1230 1.406 . S
C1230 H1197 0.929 . S
C1230 C1229 1.406 . S
C1230 C1231 1.391 . S
C1231 H1198 0.931 . S
C1231 C1226 1.370 . S
C1231 C1230 1.391 . S
C1232 N1206 1.435 . S
C1232 C1233 1.358 . S
C1232 C1237 1.371 . S
C1233 H1199 0.930 . S
C1233 C1232 1.358 . S
C1233 C1234 1.405 . S
C1234 H1200 0.932 . S
C1234 C1233 1.405 . S
C1234 C1235 1.383 . S
C1235 C1234 1.383 . S
C1235 C1236 1.393 . S
C1236 H1201 0.931 . S
C1236 C1235 1.393 . S
C1236 C1237 1.382 . S
C1237 H1202 0.929 . S
C1237 C1232 1.371 . S
C1237 C1236 1.382 . S
C1238 N1206 1.423 . S
C1238 C1239 1.362 . S
C1238 C1243 1.388 . S
C1239 H1203 0.929 . S
C1239 C1238 1.362 . S
C1239 C1240 1.376 . S
C1240 H1204 0.931 . S
C1240 C1239 1.376 . S
C1240 C1241 1.396 . S
C1241 C1223 1.472 . S
C1241 C1240 1.396 . S
C1241 C1242 1.348 . S
C1242 H1205 0.929 . S
C1242 C1241 1.348 . S
C1242 C1243 1.443 . S
C1243 H1207 0.932 . S
C1243 C1238 1.388 . S
C1243 C1242 1.443 . S
H1244 C1271 0.929 . S
N1245 C1270 1.433 . S
N1245 C1276 1.435 . S
N1245 C1282 1.423 . S
H1246 C1272 0.930 . S
H1247 C1275 0.931 . S
H1248 C1274 0.929 . S
H1249 C1277 0.930 . S
H1250 C1278 0.932 . S
H1251 C1281 0.929 . S
H1252 C1280 0.931 . S
H1253 C1283 0.929 . S
H1254 C1287 0.932 . S
H1255 C1284 0.931 . S
H1256 C1286 0.929 . S
H1257 C1289 0.929 . S
H1258 C1290 0.930 . S
H1259 C1292 0.929 . S
H1260 C1293 0.931 . S
H1261 C1295 0.930 . S
H1262 C1296 0.932 . S
H1263 C1298 0.931 . S
H1264 C1299 0.929 . S
H1265 C1301 0.929 . S
H1266 C1302 0.931 . S
H1267 C1304 0.929 . S
N1268 C1288 1.433 . S
N1268 C1294 1.435 . S
N1268 C1300 1.423 . S
H1269 C1305 0.932 . S
C1270 N1245 1.433 . S
C1270 C1271 1.363 . S
C1270 C1275 1.370 . S
C1271 H1244 0.929 . S
C1271 C1270 1.363 . S
C1271 C1272 1.385 . S
C1272 H1246 0.930 . S
C1272 C1271 1.385 . S
C1272 C1273 1.357 . S
C1273 C1272 1.357 . S
C1273 C1274 1.406 . S
C1274 H1248 0.929 . S
C1274 C1273 1.406 . S
C1274 C1275 1.391 . S
C1275 H1247 0.931 . S
C1275 C1270 1.370 . S
C1275 C1274 1.391 . S
C1276 N1245 1.435 . S
C1276 C1277 1.358 . S
C1276 C1281 1.371 . S
C1277 H1249 0.930 . S
C1277 C1276 1.358 . S
C1277 C1278 1.405 . S
C1278 H1250 0.932 . S
C1278 C1277 1.405 . S
C1278 C1279 1.383 . S
C1279 C1278 1.383 . S
C1279 C1280 1.393 . S
C1280 H1252 0.931 . S
C1280 C1279 1.393 . S
C1280 C1281 1.382 . S
C1281 H1251 0.929 . S
C1281 C1276 1.371 . S
C1281 C1280 1.382 . S
C1282 N1245 1.423 . S
C1282 C1283 1.362 . S
C1282 C1287 1.388 . S
C1283 H1253 0.929 . S
C1283 C1282 1.362 . S
C1283 C1284 1.376 . S
C1284 H1255 0.931 . S
C1284 C1283 1.376 . S
C1284 C1285 1.396 . S
C1285 C1284 1.396 . S
C1285 C1286 1.348 . S
C1285 C1303 1.472 . S
C1286 H1256 0.929 . S
C1286 C1285 1.348 . S
C1286 C1287 1.443 . S
C1287 H1254 0.932 . S
C1287 C1282 1.388 . S
C1287 C1286 1.443 . S
C1288 N1268 1.433 . S
C1288 C1289 1.363 . S
C1288 C1293 1.370 . S
C1289 H1257 0.929 . S
C1289 C1288 1.363 . S
C1289 C1290 1.385 . S
C1290 H1258 0.930 . S
C1290 C1289 1.385 . S
C1290 C1291 1.357 . S
C1291 C1290 1.357 . S
C1291 C1292 1.406 . S
C1292 H1259 0.929 . S
C1292 C1291 1.406 . S
C1292 C1293 1.391 . S
C1293 H1260 0.931 . S
C1293 C1288 1.370 . S
C1293 C1292 1.391 . S
C1294 N1268 1.435 . S
C1294 C1295 1.358 . S
C1294 C1299 1.371 . S
C1295 H1261 0.930 . S
C1295 C1294 1.358 . S
C1295 C1296 1.405 . S
C1296 H1262 0.932 . S
C1296 C1295 1.405 . S
C1296 C1297 1.383 . S
C1297 C1296 1.383 . S
C1297 C1298 1.393 . S
C1298 H1263 0.931 . S
C1298 C1297 1.393 . S
C1298 C1299 1.382 . S
C1299 H1264 0.929 . S
C1299 C1294 1.371 . S
C1299 C1298 1.382 . S
C1300 N1268 1.423 . S
C1300 C1301 1.362 . S
C1300 C1305 1.388 . S
C1301 H1265 0.929 . S
C1301 C1300 1.362 . S
C1301 C1302 1.376 . S
C1302 H1266 0.931 . S
C1302 C1301 1.376 . S
C1302 C1303 1.396 . S
C1303 C1285 1.472 . S
C1303 C1302 1.396 . S
C1303 C1304 1.348 . S
C1304 H1267 0.929 . S
C1304 C1303 1.348 . S
C1304 C1305 1.443 . S
C1305 H1269 0.932 . S
C1305 C1300 1.388 . S
C1305 C1304 1.443 . S
H1306 C1333 0.929 . S
N1307 C1332 1.433 . S
N1307 C1338 1.435 . S
N1307 C1344 1.423 . S
H1308 C1334 0.930 . S
H1309 C1337 0.931 . S
H1310 C1336 0.929 . S
H1311 C1339 0.930 . S
H1312 C1340 0.932 . S
H1313 C1343 0.929 . S
H1314 C1342 0.931 . S
H1315 C1345 0.929 . S
H1316 C1349 0.932 . S
H1317 C1346 0.931 . S
H1318 C1348 0.929 . S
H1319 C1351 0.929 . S
H1320 C1352 0.930 . S
H1321 C1354 0.929 . S
H1322 C1355 0.931 . S
H1323 C1357 0.930 . S
H1324 C1358 0.932 . S
H1325 C1360 0.931 . S
H1326 C1361 0.929 . S
H1327 C1363 0.929 . S
H1328 C1364 0.931 . S
H1329 C1366 0.929 . S
N1330 C1350 1.433 . S
N1330 C1356 1.435 . S
N1330 C1362 1.423 . S
H1331 C1367 0.932 . S
C1332 N1307 1.433 . S
C1332 C1333 1.363 . S
C1332 C1337 1.370 . S
C1333 H1306 0.929 . S
C1333 C1332 1.363 . S
C1333 C1334 1.385 . S
C1334 H1308 0.930 . S
C1334 C1333 1.385 . S
C1334 C1335 1.357 . S
C1335 C1334 1.357 . S
C1335 C1336 1.406 . S
C1336 H1310 0.929 . S
C1336 C1335 1.406 . S
C1336 C1337 1.391 . S
C1337 H1309 0.931 . S
C1337 C1332 1.370 . S
C1337 C1336 1.391 . S
C1338 N1307 1.435 . S
C1338 C1339 1.358 . S
C1338 C1343 1.371 . S
C1339 H1311 0.930 . S
C1339 C1338 1.358 . S
C1339 C1340 1.405 . S
C1340 H1312 0.932 . S
C1340 C1339 1.405 . S
C1340 C1341 1.383 . S
C1341 C1340 1.383 . S
C1341 C1342 1.393 . S
C1342 H1314 0.931 . S
C1342 C1341 1.393 . S
C1342 C1343 1.382 . S
C1343 H1313 0.929 . S
C1343 C1338 1.371 . S
C1343 C1342 1.382 . S
C1344 N1307 1.423 . S
C1344 C1345 1.362 . S
C1344 C1349 1.388 . S
C1345 H1315 0.929 . S
C1345 C1344 1.362 . S
C1345 C1346 1.376 . S
C1346 H1317 0.931 . S
C1346 C1345 1.376 . S
C1346 C1347 1.396 . S
C1347 C1346 1.396 . S
C1347 C1348 1.348 . S
C1347 C1365 1.472 . S
C1348 H1318 0.929 . S
C1348 C1347 1.348 . S
C1348 C1349 1.443 . S
C1349 H1316 0.932 . S
C1349 C1344 1.388 . S
C1349 C1348 1.443 . S
C1350 N1330 1.433 . S
C1350 C1351 1.363 . S
C1350 C1355 1.370 . S
C1351 H1319 0.929 . S
C1351 C1350 1.363 . S
C1351 C1352 1.385 . S
C1352 H1320 0.930 . S
C1352 C1351 1.385 . S
C1352 C1353 1.357 . S
C1353 C1352 1.357 . S
C1353 C1354 1.406 . S
C1354 H1321 0.929 . S
C1354 C1353 1.406 . S
C1354 C1355 1.391 . S
C1355 H1322 0.931 . S
C1355 C1350 1.370 . S
C1355 C1354 1.391 . S
C1356 N1330 1.435 . S
C1356 C1357 1.358 . S
C1356 C1361 1.371 . S
C1357 H1323 0.930 . S
C1357 C1356 1.358 . S
C1357 C1358 1.405 . S
C1358 H1324 0.932 . S
C1358 C1357 1.405 . S
C1358 C1359 1.383 . S
C1359 C1358 1.383 . S
C1359 C1360 1.393 . S
C1360 H1325 0.931 . S
C1360 C1359 1.393 . S
C1360 C1361 1.382 . S
C1361 H1326 0.929 . S
C1361 C1356 1.371 . S
C1361 C1360 1.382 . S
C1362 N1330 1.423 . S
C1362 C1363 1.362 . S
C1362 C1367 1.388 . S
C1363 H1327 0.929 . S
C1363 C1362 1.362 . S
C1363 C1364 1.376 . S
C1364 H1328 0.931 . S
C1364 C1363 1.376 . S
C1364 C1365 1.396 . S
C1365 C1347 1.472 . S
C1365 C1364 1.396 . S
C1365 C1366 1.348 . S
C1366 H1329 0.929 . S
C1366 C1365 1.348 . S
C1366 C1367 1.443 . S
C1367 H1331 0.932 . S
C1367 C1362 1.388 . S
C1367 C1366 1.443 . S
H1368 C1376 0.929 . S
H1369 C1378 0.930 . S
H1370 C1380 0.909 . S
H1371 C1383 0.929 . S
H1372 C1386 0.930 . S
H1373 C1388 0.960 . S
H1374 C1388 0.960 . S
H1375 C1388 0.960 . S
C1376 H1368 0.929 . S
C1376 C1377 1.377 . S
C1376 C1378 1.384 . S
C1377 C1376 1.377 . S
C1377 C1383 1.387 1_655 S
C1378 H1369 0.930 . S
C1378 C1376 1.384 . S
C1378 C1379 1.372 . S
C1379 C1378 1.372 . S
C1379 C1380 1.401 1_655 S
C1379 C1384 1.490 . S
C1380 H1370 0.909 . S
C1380 C1379 1.401 1_455 S
C1380 C1383 1.408 . S
H1381 C1397 0.922 . S
H1382 C1398 0.931 . S
C1383 H1371 0.929 . S
C1383 C1377 1.387 1_455 S
C1383 C1380 1.408 . S
C1384 C1379 1.490 . S
C1384 C1386 1.395 1_655 S
C1384 C1387 1.403 . S
H1385 C1391 0.930 . S
C1386 H1372 0.930 . S
C1386 C1384 1.395 1_455 S
C1386 C1389 1.403 . S
C1387 C1384 1.403 . S
C1387 C1388 1.524 . S
C1387 C1391 1.400 . S
C1388 H1373 0.960 . S
C1388 H1374 0.960 . S
C1388 H1375 0.960 . S
C1388 C1387 1.524 . S
C1389 C1386 1.403 . S
C1389 C1390 1.347 1_455 S
C1389 C1393 1.495 . S
C1390 C1389 1.347 1_655 S
C1390 C1391 1.414 . S
C1390 C1392 1.466 . S
C1391 H1385 0.930 . S
C1391 C1387 1.400 . S
C1391 C1390 1.414 . S
C1392 C1390 1.466 . S
C1392 C1394 1.393 . S
C1392 C1398 1.411 1_655 S
C1393 C1389 1.495 . S
C1393 H1399 0.959 . S
C1393 H1400 0.961 . S
C1393 H1401 0.960 . S
C1394 C1392 1.393 . S
C1394 C1395 1.394 . S
C1394 H1402 0.930 . S
C1395 C1394 1.394 . S
C1395 C1396 1.383 . S
C1395 H1403 0.929 . S
C1396 C1395 1.383 . S
C1396 C1397 1.374 1_655 S
C1397 H1381 0.922 . S
C1397 C1396 1.374 1_455 S
C1397 C1398 1.391 . S
C1398 H1382 0.931 . S
C1398 C1392 1.411 1_455 S
C1398 C1397 1.391 . S
H1399 C1393 0.959 . S
H1400 C1393 0.961 . S
H1401 C1393 0.960 . S
H1402 C1394 0.930 . S
H1403 C1395 0.929 . S
H1404 C1412 0.929 . S
H1405 C1414 0.930 . S
H1406 C1416 0.930 . S
H1407 C1419 0.929 . S
H1408 C1422 0.930 . S
H1409 C1424 0.960 . S
H1410 C1424 0.960 . S
H1411 C1424 0.960 . S
C1412 H1404 0.929 . S
C1412 C1413 1.377 . S
C1412 C1414 1.384 . S
C1413 C1412 1.377 . S
C1413 C1419 1.390 . S
C1414 H1405 0.930 . S
C1414 C1412 1.384 . S
C1414 C1415 1.372 . S
C1415 C1414 1.372 . S
C1415 C1416 1.400 . S
C1415 C1420 1.490 . S
C1416 H1406 0.930 . S
C1416 C1415 1.400 . S
C1416 C1419 1.386 . S
H1417 C1433 0.930 . S
H1418 C1434 0.931 . S
C1419 H1407 0.929 . S
C1419 C1413 1.390 . S
C1419 C1416 1.386 . S
C1420 C1415 1.490 . S
C1420 C1422 1.395 . S
C1420 C1423 1.403 . S
H1421 C1427 0.930 . S
C1422 H1408 0.930 . S
C1422 C1420 1.395 . S
C1422 C1425 1.403 . S
C1423 C1420 1.403 . S
C1423 C1424 1.524 . S
C1423 C1427 1.400 . S
C1424 H1409 0.960 . S
C1424 H1410 0.960 . S
C1424 H1411 0.960 . S
C1424 C1423 1.524 . S
C1425 C1422 1.403 . S
C1425 C1426 1.392 . S
C1425 C1429 1.495 . S
C1426 C1425 1.392 . S
C1426 C1427 1.385 . S
C1426 C1428 1.478 . S
C1427 H1421 0.930 . S
C1427 C1423 1.400 . S
C1427 C1426 1.385 . S
C1428 C1426 1.478 . S
C1428 C1430 1.381 . S
C1428 C1434 1.383 . S
C1429 C1425 1.495 . S
C1429 H1435 0.959 . S
C1429 H1436 0.961 . S
C1429 H1437 0.960 . S
C1430 C1428 1.381 . S
C1430 C1431 1.394 . S
C1430 H1438 0.930 . S
C1431 C1430 1.394 . S
C1431 C1432 1.383 . S
C1431 H1439 0.929 . S
C1432 C1431 1.383 . S
C1432 C1433 1.377 . S
C1433 H1417 0.930 . S
C1433 C1432 1.377 . S
C1433 C1434 1.379 . S
C1434 H1418 0.931 . S
C1434 C1428 1.383 . S
C1434 C1433 1.379 . S
H1435 C1429 0.959 . S
H1436 C1429 0.961 . S
H1437 C1429 0.960 . S
H1438 C1430 0.930 . S
H1439 C1431 0.929 . S
H1440 C1448 0.929 . S
H1441 C1450 0.930 . S
H1442 C1452 0.930 . S
H1443 C1455 0.929 . S
H1444 C1458 0.930 . S
H1445 C1460 0.960 . S
H1446 C1460 0.960 . S
H1447 C1460 0.960 1_545 S
C1448 H1440 0.929 . S
C1448 C1449 1.377 1_565 S
C1448 C1450 1.384 . S
C1449 C1448 1.377 1_545 S
C1449 C1455 1.390 . S
C1450 H1441 0.930 . S
C1450 C1448 1.384 . S
C1450 C1451 1.372 1_565 S
C1451 C1450 1.372 1_545 S
C1451 C1452 1.400 . S
C1451 C1456 1.490 . S
C1452 H1442 0.930 . S
C1452 C1451 1.400 . S
C1452 C1455 1.386 . S
H1453 C1469 0.930 . S
H1454 C1470 0.931 . S
C1455 H1443 0.929 . S
C1455 C1449 1.390 . S
C1455 C1452 1.386 . S
C1456 C1451 1.490 . S
C1456 C1458 1.395 . S
C1456 C1459 1.403 . S
H1457 C1463 0.931 . S
C1458 H1444 0.930 . S
C1458 C1456 1.395 . S
C1458 C1461 1.403 . S
C1459 C1456 1.403 . S
C1459 C1460 1.524 1_545 S
C1459 C1463 1.400 . S
C1460 H1445 0.960 . S
C1460 H1446 0.960 . S
C1460 H1447 0.960 1_565 S
C1460 C1459 1.524 1_565 S
C1461 C1458 1.403 . S
C1461 C1462 1.392 . S
C1461 C1465 1.495 . S
C1462 C1461 1.392 . S
C1462 C1463 1.385 . S
C1462 C1464 1.478 . S
C1463 H1457 0.931 . S
C1463 C1459 1.400 . S
C1463 C1462 1.385 . S
C1464 C1462 1.478 . S
C1464 C1466 1.381 1_545 S
C1464 C1470 1.383 . S
C1465 C1461 1.495 . S
C1465 H1471 0.959 . S
C1465 H1472 0.961 . S
C1465 H1473 0.960 . S
C1466 C1464 1.381 1_565 S
C1466 C1467 1.394 . S
C1466 H1474 0.930 . S
C1467 C1466 1.394 . S
C1467 C1468 1.383 1_565 S
C1467 H1475 0.929 . S
C1468 C1467 1.383 1_545 S
C1468 C1469 1.377 . S
C1469 H1453 0.930 . S
C1469 C1468 1.377 . S
C1469 C1470 1.379 . S
C1470 H1454 0.931 . S
C1470 C1464 1.383 . S
C1470 C1469 1.379 . S
H1471 C1465 0.959 . S
H1472 C1465 0.961 . S
H1473 C1465 0.960 . S
H1474 C1466 0.930 . S
H1475 C1467 0.929 . S
H1476 C1484 0.929 . S
H1477 C1486 0.930 . S
H1478 C1488 0.930 . S
H1479 C1491 0.929 . S
H1480 C1494 0.931 1_545 S
H1481 C1496 0.958 . S
H1482 C1496 1.039 . S
H1483 C1496 0.933 1_565 S
C1484 H1476 0.929 . S
C1484 C1485 1.377 . S
C1484 C1486 1.384 . S
C1485 C1484 1.377 . S
C1485 C1491 1.390 1_545 S
C1486 H1477 0.930 . S
C1486 C1484 1.384 . S
C1486 C1487 1.425 . S
C1487 C1486 1.425 . S
C1487 C1488 1.381 1_545 S
C1487 C1492 1.460 . S
C1488 H1478 0.930 . S
C1488 C1487 1.381 1_565 S
C1488 C1491 1.386 . S
H1489 C1505 0.930 . S
H1490 C1506 0.931 . S
C1491 H1479 0.929 . S
C1491 C1485 1.390 1_565 S
C1491 C1488 1.386 . S
C1492 C1487 1.460 . S
C1492 C1494 1.393 1_545 S
C1492 C1495 1.403 1_545 S
H1493 C1499 0.932 . S
C1494 H1480 0.931 1_565 S
C1494 C1492 1.393 1_565 S
C1494 C1497 1.365 . S
C1495 C1492 1.403 1_565 S
C1495 C1496 1.480 1_565 S
C1495 C1499 1.355 . S
C1496 H1481 0.958 . S
C1496 H1482 1.039 . S
C1496 H1483 0.933 1_545 S
C1496 C1495 1.480 1_545 S
C1497 C1494 1.365 . S
C1497 C1498 1.390 . S
C1497 C1501 1.545 . S
C1498 C1497 1.390 . S
C1498 C1499 1.444 . S
C1498 C1500 1.478 . S
C1499 H1493 0.932 . S
C1499 C1495 1.355 . S
C1499 C1498 1.444 . S
C1500 C1498 1.478 . S
C1500 C1502 1.381 1_565 S
C1500 C1506 1.383 . S
C1501 C1497 1.545 . S
C1501 H1507 0.970 . S
C1501 H1508 0.961 . S
C1501 H1509 0.960 1_565 S
C1502 C1500 1.381 1_545 S
C1502 C1503 1.394 . S
C1502 H1510 0.930 . S
C1503 C1502 1.394 . S
C1503 C1504 1.383 1_545 S
C1503 H1511 0.929 . S
C1504 C1503 1.383 1_565 S
C1504 C1505 1.377 . S
C1505 H1489 0.930 . S
C1505 C1504 1.377 . S
C1505 C1506 1.379 . S
C1506 H1490 0.931 . S
C1506 C1500 1.383 . S
C1506 C1505 1.379 . S
H1507 C1501 0.970 . S
H1508 C1501 0.961 . S
H1509 C1501 0.960 1_545 S
H1510 C1502 0.930 . S
H1511 C1503 0.929 . S
H1512 C1520 0.929 . S
H1513 C1522 0.930 . S
H1514 C1524 0.930 . S
H1515 C1527 0.929 . S
H1516 C1530 0.930 . S
H1517 C1532 0.960 . S
H1518 C1532 0.960 1_455 S
H1519 C1532 0.960 . S
C1520 H1512 0.929 . S
C1520 C1521 1.377 . S
C1520 C1522 1.384 . S
C1521 C1520 1.377 . S
C1521 C1527 1.390 1_455 S
C1522 H1513 0.930 . S
C1522 C1520 1.384 . S
C1522 C1523 1.372 . S
C1523 C1522 1.372 . S
C1523 C1524 1.400 1_455 S
C1523 C1528 1.490 . S
C1524 H1514 0.930 . S
C1524 C1523 1.400 1_655 S
C1524 C1527 1.386 . S
H1525 C1541 0.930 . S
H1526 C1542 0.931 . S
C1527 H1515 0.929 . S
C1527 C1521 1.390 1_655 S
C1527 C1524 1.386 . S
C1528 C1523 1.490 . S
C1528 C1530 1.395 . S
C1528 C1531 1.403 . S
H1529 C1535 0.907 1_655 S
C1530 H1516 0.930 . S
C1530 C1528 1.395 . S
C1530 C1533 1.403 . S
C1531 C1528 1.403 . S
C1531 C1532 1.524 1_455 S
C1531 C1535 1.400 . S
C1532 H1517 0.960 . S
C1532 H1518 0.960 1_655 S
C1532 H1519 0.960 . S
C1532 C1531 1.524 1_655 S
C1533 C1530 1.403 . S
C1533 C1534 1.392 . S
C1533 C1537 1.495 . S
C1534 C1533 1.392 . S
C1534 C1535 1.385 . S
C1534 C1536 1.478 . S
C1535 H1529 0.907 1_455 S
C1535 C1531 1.400 . S
C1535 C1534 1.385 . S
C1536 C1534 1.478 . S
C1536 C1538 1.381 . S
C1536 C1542 1.383 1_455 S
C1537 C1533 1.495 . S
C1537 H1543 0.959 . S
C1537 H1544 0.961 . S
C1537 H1545 0.960 . S
C1538 C1536 1.381 . S
C1538 C1539 1.394 . S
C1538 H1546 0.930 . S
C1539 C1538 1.394 . S
C1539 C1540 1.383 . S
C1539 H1547 0.929 . S
C1540 C1539 1.383 . S
C1540 C1541 1.377 1_455 S
C1541 H1525 0.930 . S
C1541 C1540 1.377 1_655 S
C1541 C1542 1.379 . S
C1542 H1526 0.931 . S
C1542 C1536 1.383 1_655 S
C1542 C1541 1.379 . S
H1543 C1537 0.959 . S
H1544 C1537 0.961 . S
H1545 C1537 0.960 . S
H1546 C1538 0.930 . S
H1547 C1539 0.929 . S
H1548 C1556 0.929 . S
H1549 C1558 0.930 . S
H1550 C1560 0.930 . S
H1551 C1563 0.929 . S
H1552 C1566 0.930 . S
H1553 C1568 0.960 . S
H1554 C1568 0.960 . S
H1555 C1568 0.960 . S
C1556 H1548 0.929 . S
C1556 C1557 1.377 . S
C1556 C1558 1.384 . S
C1557 C1556 1.377 . S
C1557 C1563 1.390 . S
C1558 H1549 0.930 . S
C1558 C1556 1.384 . S
C1558 C1559 1.372 . S
C1559 C1558 1.372 . S
C1559 C1560 1.400 . S
C1559 C1564 1.490 . S
C1560 H1550 0.930 . S
C1560 C1559 1.400 . S
C1560 C1563 1.386 . S
H1561 C1577 0.930 . S
H1562 C1578 0.931 . S
C1563 H1551 0.929 . S
C1563 C1557 1.390 . S
C1563 C1560 1.386 . S
C1564 C1559 1.490 . S
C1564 C1566 1.395 . S
C1564 C1567 1.403 . S
H1565 C1571 0.930 . S
C1566 H1552 0.930 . S
C1566 C1564 1.395 . S
C1566 C1569 1.403 . S
C1567 C1564 1.403 . S
C1567 C1568 1.524 . S
C1567 C1571 1.400 . S
C1568 H1553 0.960 . S
C1568 H1554 0.960 . S
C1568 H1555 0.960 . S
C1568 C1567 1.524 . S
C1569 C1566 1.403 . S
C1569 C1570 1.392 . S
C1569 C1573 1.495 . S
C1570 C1569 1.392 . S
C1570 C1571 1.385 . S
C1570 C1572 1.478 . S
C1571 H1565 0.930 . S
C1571 C1567 1.400 . S
C1571 C1570 1.385 . S
C1572 C1570 1.478 . S
C1572 C1574 1.381 . S
C1572 C1578 1.383 . S
C1573 C1569 1.495 . S
C1573 H1579 0.959 . S
C1573 H1580 0.961 . S
C1573 H1581 0.960 . S
C1574 C1572 1.381 . S
C1574 C1575 1.394 . S
C1574 H1582 0.930 . S
C1575 C1574 1.394 . S
C1575 C1576 1.383 . S
C1575 H1583 0.929 . S
C1576 C1575 1.383 . S
C1576 C1577 1.377 . S
C1577 H1561 0.930 . S
C1577 C1576 1.377 . S
C1577 C1578 1.379 . S
C1578 H1562 0.931 . S
C1578 C1572 1.383 . S
C1578 C1577 1.379 . S
H1579 C1573 0.959 . S
H1580 C1573 0.961 . S
H1581 C1573 0.960 . S
H1582 C1574 0.930 . S
H1583 C1575 0.929 . S
H1584 C1592 0.929 . S
H1585 C1594 0.930 . S
H1586 C1596 0.944 1_655 S
H1587 C1599 0.927 1_655 S
H1588 C1602 0.930 . S
H1589 C1604 0.960 . S
H1590 C1604 0.960 . S
H1591 C1604 0.960 . S
C1592 H1584 0.929 . S
C1592 C1593 1.377 . S
C1592 C1594 1.384 . S
C1593 C1592 1.377 . S
C1593 C1599 1.379 . S
C1594 H1585 0.930 . S
C1594 C1592 1.384 . S
C1594 C1595 1.372 . S
C1595 C1594 1.372 . S
C1595 C1596 1.405 . S
C1595 C1600 1.490 . S
C1596 H1586 0.944 1_455 S
C1596 C1595 1.405 . S
C1596 C1599 1.382 . S
H1597 C1613 0.930 . S
H1598 C1614 0.931 . S
C1599 H1587 0.927 1_455 S
C1599 C1593 1.379 . S
C1599 C1596 1.382 . S
C1600 C1595 1.490 . S
C1600 C1602 1.395 . S
C1600 C1603 1.403 1_455 S
H1601 C1607 0.930 . S
C1602 H1588 0.930 . S
C1602 C1600 1.395 . S
C1602 C1605 1.403 . S
C1603 C1600 1.403 1_655 S
C1603 C1604 1.524 . S
C1603 C1607 1.400 . S
C1604 H1589 0.960 . S
C1604 H1590 0.960 . S
C1604 H1591 0.960 . S
C1604 C1603 1.524 . S
C1605 C1602 1.403 . S
C1605 C1606 1.392 . S
C1605 C1609 1.495 . S
C1606 C1605 1.392 . S
C1606 C1607 1.385 1_455 S
C1606 C1608 1.478 . S
C1607 H1601 0.930 . S
C1607 C1603 1.400 . S
C1607 C1606 1.385 1_655 S
C1608 C1606 1.478 . S
C1608 C1610 1.381 . S
C1608 C1614 1.383 . S
C1609 C1605 1.495 . S
C1609 H1615 0.959 . S
C1609 H1616 0.961 . S
C1609 H1617 0.960 . S
C1610 C1608 1.381 . S
C1610 C1611 1.394 . S
C1610 H1618 0.930 . S
C1611 C1610 1.394 . S
C1611 C1612 1.383 . S
C1611 H1619 0.929 . S
C1612 C1611 1.383 . S
C1612 C1613 1.377 . S
C1613 H1597 0.930 . S
C1613 C1612 1.377 . S
C1613 C1614 1.379 . S
C1614 H1598 0.931 . S
C1614 C1608 1.383 . S
C1614 C1613 1.379 . S
H1615 C1609 0.959 . S
H1616 C1609 0.961 . S
H1617 C1609 0.960 . S
H1618 C1610 0.930 . S
H1619 C1611 0.929 . S
H1620 C1628 0.929 . S
H1621 C1630 0.930 . S
H1622 C1632 0.930 . S
H1623 C1635 0.929 . S
H1624 C1638 0.930 . S
H1625 C1640 0.960 . S
H1626 C1640 0.960 . S
H1627 C1640 0.960 . S
C1628 H1620 0.929 . S
C1628 C1629 1.377 . S
C1628 C1630 1.384 . S
C1629 C1628 1.377 . S
C1629 C1635 1.390 . S
C1630 H1621 0.930 . S
C1630 C1628 1.384 . S
C1630 C1631 1.372 . S
C1631 C1630 1.372 . S
C1631 C1632 1.400 . S
C1631 C1636 1.490 . S
C1632 H1622 0.930 . S
C1632 C1631 1.400 . S
C1632 C1635 1.386 . S
H1633 C1649 0.930 . S
H1634 C1650 0.931 . S
C1635 H1623 0.929 . S
C1635 C1629 1.390 . S
C1635 C1632 1.386 . S
C1636 C1631 1.490 . S
C1636 C1638 1.395 . S
C1636 C1639 1.403 . S
H1637 C1643 0.930 . S
C1638 H1624 0.930 . S
C1638 C1636 1.395 . S
C1638 C1641 1.403 . S
C1639 C1636 1.403 . S
C1639 C1640 1.524 . S
C1639 C1643 1.400 . S
C1640 H1625 0.960 . S
C1640 H1626 0.960 . S
C1640 H1627 0.960 . S
C1640 C1639 1.524 . S
C1641 C1638 1.403 . S
C1641 C1642 1.392 . S
C1641 C1645 1.495 . S
C1642 C1641 1.392 . S
C1642 C1643 1.385 . S
C1642 C1644 1.478 . S
C1643 H1637 0.930 . S
C1643 C1639 1.400 . S
C1643 C1642 1.385 . S
C1644 C1642 1.478 . S
C1644 C1646 1.381 . S
C1644 C1650 1.383 . S
C1645 C1641 1.495 . S
C1645 H1651 0.959 . S
C1645 H1652 0.961 . S
C1645 H1653 0.960 . S
C1646 C1644 1.381 . S
C1646 C1647 1.394 . S
C1646 H1654 0.930 . S
C1647 C1646 1.394 . S
C1647 C1648 1.383 . S
C1647 H1655 0.929 . S
C1648 C1647 1.383 . S
C1648 C1649 1.377 . S
C1649 H1633 0.930 . S
C1649 C1648 1.377 . S
C1649 C1650 1.379 . S
C1650 H1634 0.931 . S
C1650 C1644 1.383 . S
C1650 C1649 1.379 . S
H1651 C1645 0.959 . S
H1652 C1645 0.961 . S
H1653 C1645 0.960 . S
H1654 C1646 0.930 . S
H1655 C1647 0.929 . S
H1656 C1664 0.929 . S
H1657 C1666 0.930 . S
H1658 C1668 0.930 . S
H1659 C1671 0.929 . S
H1660 C1674 0.930 . S
H1661 C1676 0.960 . S
H1662 C1676 0.960 . S
H1663 C1676 0.960 . S
C1664 H1656 0.929 . S
C1664 C1665 1.433 . S
C1664 C1666 1.384 . S
C1665 C1664 1.433 . S
C1665 C1671 1.304 1_565 S
C1666 H1657 0.930 . S
C1666 C1664 1.384 . S
C1666 C1667 1.372 . S
C1667 C1666 1.372 . S
C1667 C1668 1.400 1_565 S
C1667 C1672 1.490 . S
C1668 H1658 0.930 . S
C1668 C1667 1.400 1_545 S
C1668 C1671 1.386 . S
H1669 C1685 0.930 . S
H1670 C1686 0.931 . S
C1671 H1659 0.929 . S
C1671 C1665 1.304 1_545 S
C1671 C1668 1.386 . S
C1672 C1667 1.490 . S
C1672 C1674 1.395 . S
C1672 C1675 1.403 1_565 S
H1673 C1679 0.930 . S
C1674 H1660 0.930 . S
C1674 C1672 1.395 . S
C1674 C1677 1.403 . S
C1675 C1672 1.403 1_545 S
C1675 C1676 1.524 . S
C1675 C1679 1.400 . S
C1676 H1661 0.960 . S
C1676 H1662 0.960 . S
C1676 H1663 0.960 . S
C1676 C1675 1.524 . S
C1677 C1674 1.403 . S
C1677 C1678 1.392 . S
C1677 C1681 1.495 . S
C1678 C1677 1.392 . S
C1678 C1679 1.385 1_565 S
C1678 C1680 1.478 . S
C1679 H1673 0.930 . S
C1679 C1675 1.400 . S
C1679 C1678 1.385 1_545 S
C1680 C1678 1.478 . S
C1680 C1682 1.381 . S
C1680 C1686 1.383 1_565 S
C1681 C1677 1.495 . S
C1681 H1687 0.959 . S
C1681 H1688 0.961 . S
C1681 H1689 0.960 . S
C1682 C1680 1.381 . S
C1682 C1683 1.394 . S
C1682 H1690 0.930 . S
C1683 C1682 1.394 . S
C1683 C1684 1.383 . S
C1683 H1691 0.929 . S
C1684 C1683 1.383 . S
C1684 C1685 1.377 1_565 S
C1685 H1669 0.930 . S
C1685 C1684 1.377 1_545 S
C1685 C1686 1.379 . S
C1686 H1670 0.931 . S
C1686 C1680 1.383 1_545 S
C1686 C1685 1.379 . S
H1687 C1681 0.959 . S
H1688 C1681 0.961 . S
H1689 C1681 0.960 . S
H1690 C1682 0.930 . S
H1691 C1683 0.929 . S
H1692 C1700 0.929 . S
H1693 C1702 0.930 . S
H1694 C1704 0.930 . S
H1695 C1707 0.929 . S
H1696 C1710 0.930 . S
H1697 C1712 0.960 . S
H1698 C1712 0.960 1_565 S
H1699 C1712 0.960 . S
C1700 H1692 0.929 . S
C1700 C1701 1.377 1_565 S
C1700 C1702 1.384 . S
C1701 C1700 1.377 1_545 S
C1701 C1707 1.390 . S
C1702 H1693 0.930 . S
C1702 C1700 1.384 . S
C1702 C1703 1.372 1_565 S
C1703 C1702 1.372 1_545 S
C1703 C1704 1.400 . S
C1703 C1708 1.490 . S
C1704 H1694 0.930 . S
C1704 C1703 1.400 . S
C1704 C1707 1.386 . S
H1705 C1721 0.930 . S
H1706 C1722 0.931 . S
C1707 H1695 0.929 . S
C1707 C1701 1.390 . S
C1707 C1704 1.386 . S
C1708 C1703 1.490 . S
C1708 C1710 1.395 . S
C1708 C1711 1.403 . S
H1709 C1715 0.930 . S
C1710 H1696 0.930 . S
C1710 C1708 1.395 . S
C1710 C1713 1.403 . S
C1711 C1708 1.403 . S
C1711 C1712 1.524 . S
C1711 C1715 1.400 . S
C1712 H1697 0.960 . S
C1712 H1698 0.960 1_545 S
C1712 H1699 0.960 . S
C1712 C1711 1.524 . S
C1713 C1710 1.403 . S
C1713 C1714 1.392 . S
C1713 C1717 1.495 . S
C1714 C1713 1.392 . S
C1714 C1715 1.385 . S
C1714 C1716 1.478 . S
C1715 H1709 0.930 . S
C1715 C1711 1.400 . S
C1715 C1714 1.385 . S
C1716 C1714 1.478 . S
C1716 C1718 1.381 1_545 S
C1716 C1722 1.383 . S
C1717 C1713 1.495 . S
C1717 H1723 0.959 . S
C1717 H1724 0.961 . S
C1717 H1725 0.960 1_545 S
C1718 C1716 1.381 1_565 S
C1718 C1719 1.394 . S
C1718 H1726 0.930 . S
C1719 C1718 1.394 . S
C1719 C1720 1.383 1_565 S
C1719 H1727 0.929 . S
C1720 C1719 1.383 1_545 S
C1720 C1721 1.377 . S
C1721 H1705 0.930 . S
C1721 C1720 1.377 . S
C1721 C1722 1.379 . S
C1722 H1706 0.931 . S
C1722 C1716 1.383 . S
C1722 C1721 1.379 . S
H1723 C1717 0.959 . S
H1724 C1717 0.961 . S
H1725 C1717 0.960 1_565 S
H1726 C1718 0.930 . S
H1727 C1719 0.929 . S
H1728 C1736 0.929 . S
H1729 C1738 0.930 . S
H1730 C1740 0.930 . S
H1731 C1743 0.929 . S
H1732 C1746 0.930 . S
H1733 C1748 0.960 . S
H1734 C1748 0.960 . S
H1735 C1748 0.960 . S
C1736 H1728 0.929 . S
C1736 C1737 1.380 . S
C1736 C1738 1.384 . S
C1737 C1736 1.380 . S
C1737 C1743 1.388 1_455 S
C1738 H1729 0.930 . S
C1738 C1736 1.384 . S
C1738 C1739 1.358 1_455 S
C1739 C1738 1.358 1_655 S
C1739 C1740 1.422 . S
C1739 C1744 1.500 . S
C1740 H1730 0.930 . S
C1740 C1739 1.422 . S
C1740 C1743 1.386 . S
H1741 C1757 0.930 . S
H1742 C1758 0.931 . S
C1743 H1731 0.929 . S
C1743 C1737 1.388 1_655 S
C1743 C1740 1.386 . S
C1744 C1739 1.500 . S
C1744 C1746 1.374 1_655 S
C1744 C1747 1.406 . S
H1745 C1751 0.930 . S
C1746 H1732 0.930 . S
C1746 C1744 1.374 1_455 S
C1746 C1749 1.403 . S
C1747 C1744 1.406 . S
C1747 C1748 1.524 . S
C1747 C1751 1.400 . S
C1748 H1733 0.960 . S
C1748 H1734 0.960 . S
C1748 H1735 0.960 . S
C1748 C1747 1.524 . S
C1749 C1746 1.403 . S
C1749 C1750 1.390 1_455 S
C1749 C1753 1.495 . S
C1750 C1749 1.390 1_655 S
C1750 C1751 1.410 . S
C1750 C1752 1.460 . S
C1751 H1745 0.930 . S
C1751 C1747 1.400 . S
C1751 C1750 1.410 . S
C1752 C1750 1.460 . S
C1752 C1754 1.381 1_655 S
C1752 C1758 1.383 . S
C1753 C1749 1.495 . S
C1753 H1759 0.959 . S
C1753 H1760 0.961 . S
C1753 H1761 0.960 . S
C1754 C1752 1.381 1_455 S
C1754 C1755 1.394 . S
C1754 H1762 0.930 . S
C1755 C1754 1.394 . S
C1755 C1756 1.383 1_455 S
C1755 H1763 0.929 . S
C1756 C1755 1.383 1_655 S
C1756 C1757 1.377 . S
C1757 H1741 0.930 . S
C1757 C1756 1.377 . S
C1757 C1758 1.379 . S
C1758 H1742 0.931 . S
C1758 C1752 1.383 . S
C1758 C1757 1.379 . S
H1759 C1753 0.959 . S
H1760 C1753 0.961 . S
H1761 C1753 0.960 . S
H1762 C1754 0.930 . S
H1763 C1755 0.929 . S
H1764 C1772 0.929 . S
H1765 C1774 0.930 . S
H1766 C1776 0.930 . S
H1767 C1779 0.929 . S
H1768 C1782 0.930 . S
H1769 C1784 0.960 . S
H1770 C1784 0.960 . S
H1771 C1784 0.960 . S
C1772 H1764 0.929 . S
C1772 C1773 1.377 . S
C1772 C1774 1.384 . S
C1773 C1772 1.377 . S
C1773 C1779 1.390 . S
C1774 H1765 0.930 . S
C1774 C1772 1.384 . S
C1774 C1775 1.372 . S
C1775 C1774 1.372 . S
C1775 C1776 1.400 . S
C1775 C1780 1.490 . S
C1776 H1766 0.930 . S
C1776 C1775 1.400 . S
C1776 C1779 1.386 . S
H1777 C1793 0.930 . S
H1778 C1794 0.931 . S
C1779 H1767 0.929 . S
C1779 C1773 1.390 . S
C1779 C1776 1.386 . S
C1780 C1775 1.490 . S
C1780 C1782 1.395 . S
C1780 C1783 1.403 . S
H1781 C1787 0.930 . S
C1782 H1768 0.930 . S
C1782 C1780 1.395 . S
C1782 C1785 1.403 . S
C1783 C1780 1.403 . S
C1783 C1784 1.524 . S
C1783 C1787 1.400 . S
C1784 H1769 0.960 . S
C1784 H1770 0.960 . S
C1784 H1771 0.960 . S
C1784 C1783 1.524 . S
C1785 C1782 1.403 . S
C1785 C1786 1.392 . S
C1785 C1789 1.495 . S
C1786 C1785 1.392 . S
C1786 C1787 1.385 . S
C1786 C1788 1.478 . S
C1787 H1781 0.930 . S
C1787 C1783 1.400 . S
C1787 C1786 1.385 . S
C1788 C1786 1.478 . S
C1788 C1790 1.381 . S
C1788 C1794 1.383 . S
C1789 C1785 1.495 . S
C1789 H1795 0.959 . S
C1789 H1796 0.961 . S
C1789 H1797 0.960 . S
C1790 C1788 1.381 . S
C1790 C1791 1.394 . S
C1790 H1798 0.930 . S
C1791 C1790 1.394 . S
C1791 C1792 1.383 . S
C1791 H1799 0.929 . S
C1792 C1791 1.383 . S
C1792 C1793 1.377 . S
C1793 H1777 0.930 . S
C1793 C1792 1.377 . S
C1793 C1794 1.379 . S
C1794 H1778 0.931 . S
C1794 C1788 1.383 . S
C1794 C1793 1.379 . S
H1795 C1789 0.959 . S
H1796 C1789 0.961 . S
H1797 C1789 0.960 . S
H1798 C1790 0.930 . S
H1799 C1791 0.929 . S
H1800 C1808 0.929 . S
H1801 C1810 0.930 . S
H1802 C1812 0.930 . S
H1803 C1815 0.929 . S
H1804 C1818 0.930 . S
H1805 C1820 0.960 . S
H1806 C1820 0.960 . S
H1807 C1820 0.960 . S
C1808 H1800 0.929 . S
C1808 C1809 1.377 . S
C1808 C1810 1.384 . S
C1809 C1808 1.377 . S
C1809 C1815 1.390 . S
C1810 H1801 0.930 . S
C1810 C1808 1.384 . S
C1810 C1811 1.372 . S
C1811 C1810 1.372 . S
C1811 C1812 1.400 . S
C1811 C1816 1.490 . S
C1812 H1802 0.930 . S
C1812 C1811 1.400 . S
C1812 C1815 1.386 . S
H1813 C1829 0.930 . S
H1814 C1830 0.931 . S
C1815 H1803 0.929 . S
C1815 C1809 1.390 . S
C1815 C1812 1.386 . S
C1816 C1811 1.490 . S
C1816 C1818 1.395 . S
C1816 C1819 1.403 . S
H1817 C1823 0.930 . S
C1818 H1804 0.930 . S
C1818 C1816 1.395 . S
C1818 C1821 1.403 . S
C1819 C1816 1.403 . S
C1819 C1820 1.524 . S
C1819 C1823 1.400 . S
C1820 H1805 0.960 . S
C1820 H1806 0.960 . S
C1820 H1807 0.960 . S
C1820 C1819 1.524 . S
C1821 C1818 1.403 . S
C1821 C1822 1.392 . S
C1821 C1825 1.495 . S
C1822 C1821 1.392 . S
C1822 C1823 1.385 . S
C1822 C1824 1.478 . S
C1823 H1817 0.930 . S
C1823 C1819 1.400 . S
C1823 C1822 1.385 . S
C1824 C1822 1.478 . S
C1824 C1826 1.381 . S
C1824 C1830 1.383 . S
C1825 C1821 1.495 . S
C1825 H1831 0.959 . S
C1825 H1832 0.961 . S
C1825 H1833 0.960 . S
C1826 C1824 1.381 . S
C1826 C1827 1.394 . S
C1826 H1834 0.930 . S
C1827 C1826 1.394 . S
C1827 C1828 1.383 . S
C1827 H1835 0.929 . S
C1828 C1827 1.383 . S
C1828 C1829 1.377 . S
C1829 H1813 0.930 . S
C1829 C1828 1.377 . S
C1829 C1830 1.379 . S
C1830 H1814 0.931 . S
C1830 C1824 1.383 . S
C1830 C1829 1.379 . S
H1831 C1825 0.959 . S
H1832 C1825 0.961 . S
H1833 C1825 0.960 . S
H1834 C1826 0.930 . S
H1835 C1827 0.929 . S
H1836 C1844 0.929 . S
H1837 C1846 0.930 . S
H1838 C1848 0.930 . S
H1839 C1851 0.929 . S
H1840 C1854 0.930 . S
H1841 C1856 0.960 . S
H1842 C1856 0.960 . S
H1843 C1856 0.960 . S
C1844 H1836 0.929 . S
C1844 C1845 1.377 . S
C1844 C1846 1.384 . S
C1845 C1844 1.377 . S
C1845 C1851 1.390 . S
C1846 H1837 0.930 . S
C1846 C1844 1.384 . S
C1846 C1847 1.372 . S
C1847 C1846 1.372 . S
C1847 C1848 1.400 . S
C1847 C1852 1.490 . S
C1848 H1838 0.930 . S
C1848 C1847 1.400 . S
C1848 C1851 1.386 . S
H1849 C1865 0.930 . S
H1850 C1866 0.931 . S
C1851 H1839 0.929 . S
C1851 C1845 1.390 . S
C1851 C1848 1.386 . S
C1852 C1847 1.490 . S
C1852 C1854 1.395 . S
C1852 C1855 1.403 . S
H1853 C1859 0.930 . S
C1854 H1840 0.930 . S
C1854 C1852 1.395 . S
C1854 C1857 1.403 . S
C1855 C1852 1.403 . S
C1855 C1856 1.524 . S
C1855 C1859 1.400 . S
C1856 H1841 0.960 . S
C1856 H1842 0.960 . S
C1856 H1843 0.960 . S
C1856 C1855 1.524 . S
C1857 C1854 1.403 . S
C1857 C1858 1.392 . S
C1857 C1861 1.495 . S
C1858 C1857 1.392 . S
C1858 C1859 1.385 . S
C1858 C1860 1.478 . S
C1859 H1853 0.930 . S
C1859 C1855 1.400 . S
C1859 C1858 1.385 . S
C1860 C1858 1.478 . S
C1860 C1862 1.381 . S
C1860 C1866 1.383 . S
C1861 C1857 1.495 . S
C1861 H1867 0.959 . S
C1861 H1868 0.961 . S
C1861 H1869 0.960 . S
C1862 C1860 1.381 . S
C1862 C1863 1.394 . S
C1862 H1870 0.930 . S
C1863 C1862 1.394 . S
C1863 C1864 1.383 . S
C1863 H1871 0.929 . S
C1864 C1863 1.383 . S
C1864 C1865 1.377 . S
C1865 H1849 0.930 . S
C1865 C1864 1.377 . S
C1865 C1866 1.379 . S
C1866 H1850 0.931 . S
C1866 C1860 1.383 . S
C1866 C1865 1.379 . S
H1867 C1861 0.959 . S
H1868 C1861 0.961 . S
H1869 C1861 0.960 . S
H1870 C1862 0.930 . S
H1871 C1863 0.929 . S
H1872 C1880 0.929 . S
H1873 C1882 0.930 . S
H1874 C1884 0.930 . S
H1875 C1887 0.929 . S
H1876 C1890 0.930 . S
H1877 C1892 0.960 . S
H1878 C1892 0.960 . S
H1879 C1892 0.960 . S
C1880 H1872 0.929 . S
C1880 C1881 1.377 . S
C1880 C1882 1.384 . S
C1881 C1880 1.377 . S
C1881 C1887 1.390 . S
C1882 H1873 0.930 . S
C1882 C1880 1.384 . S
C1882 C1883 1.372 . S
C1883 C1882 1.372 . S
C1883 C1884 1.400 . S
C1883 C1888 1.490 . S
C1884 H1874 0.930 . S
C1884 C1883 1.400 . S
C1884 C1887 1.386 . S
H1885 C1901 0.930 . S
H1886 C1902 0.931 . S
C1887 H1875 0.929 . S
C1887 C1881 1.390 . S
C1887 C1884 1.386 . S
C1888 C1883 1.490 . S
C1888 C1890 1.395 . S
C1888 C1891 1.403 . S
H1889 C1895 0.930 . S
C1890 H1876 0.930 . S
C1890 C1888 1.395 . S
C1890 C1893 1.403 . S
C1891 C1888 1.403 . S
C1891 C1892 1.524 . S
C1891 C1895 1.400 . S
C1892 H1877 0.960 . S
C1892 H1878 0.960 . S
C1892 H1879 0.960 . S
C1892 C1891 1.524 . S
C1893 C1890 1.403 . S
C1893 C1894 1.392 . S
C1893 C1897 1.495 . S
C1894 C1893 1.392 . S
C1894 C1895 1.385 . S
C1894 C1896 1.478 . S
C1895 H1889 0.930 . S
C1895 C1891 1.400 . S
C1895 C1894 1.385 . S
C1896 C1894 1.478 . S
C1896 C1898 1.381 . S
C1896 C1902 1.383 . S
C1897 C1893 1.495 . S
C1897 H1903 0.959 . S
C1897 H1904 0.961 . S
C1897 H1905 0.960 . S
C1898 C1896 1.381 . S
C1898 C1899 1.394 . S
C1898 H1906 0.930 . S
C1899 C1898 1.394 . S
C1899 C1900 1.383 . S
C1899 H1907 0.929 . S
C1900 C1899 1.383 . S
C1900 C1901 1.377 . S
C1901 H1885 0.930 . S
C1901 C1900 1.377 . S
C1901 C1902 1.379 . S
C1902 H1886 0.931 . S
C1902 C1896 1.383 . S
C1902 C1901 1.379 . S
H1903 C1897 0.959 . S
H1904 C1897 0.961 . S
H1905 C1897 0.960 . S
H1906 C1898 0.930 . S
H1907 C1899 0.929 . S
H1908 C1916 0.929 . S
H1909 C1918 0.930 . S
H1910 C1920 0.930 . S
H1911 C1923 0.929 . S
H1912 C1926 0.930 . S
H1913 C1928 0.960 . S
H1914 C1928 0.960 . S
H1915 C1928 0.960 . S
C1916 H1908 0.929 . S
C1916 C1917 1.377 . S
C1916 C1918 1.384 . S
C1917 C1916 1.377 . S
C1917 C1923 1.390 . S
C1918 H1909 0.930 . S
C1918 C1916 1.384 . S
C1918 C1919 1.372 . S
C1919 C1918 1.372 . S
C1919 C1920 1.400 . S
C1919 C1924 1.490 . S
C1920 H1910 0.930 . S
C1920 C1919 1.400 . S
C1920 C1923 1.386 . S
H1921 C1937 0.930 . S
H1922 C1938 0.931 . S
C1923 H1911 0.929 . S
C1923 C1917 1.390 . S
C1923 C1920 1.386 . S
C1924 C1919 1.490 . S
C1924 C1926 1.395 . S
C1924 C1927 1.403 . S
H1925 C1931 0.930 . S
C1926 H1912 0.930 . S
C1926 C1924 1.395 . S
C1926 C1929 1.403 . S
C1927 C1924 1.403 . S
C1927 C1928 1.524 . S
C1927 C1931 1.400 . S
C1928 H1913 0.960 . S
C1928 H1914 0.960 . S
C1928 H1915 0.960 . S
C1928 C1927 1.524 . S
C1929 C1926 1.403 . S
C1929 C1930 1.392 . S
C1929 C1933 1.495 . S
C1930 C1929 1.392 . S
C1930 C1931 1.385 . S
C1930 C1932 1.478 . S
C1931 H1925 0.930 . S
C1931 C1927 1.400 . S
C1931 C1930 1.385 . S
C1932 C1930 1.478 . S
C1932 C1934 1.381 . S
C1932 C1938 1.383 . S
C1933 C1929 1.495 . S
C1933 H1939 0.959 . S
C1933 H1940 0.961 . S
C1933 H1941 0.960 . S
C1934 C1932 1.381 . S
C1934 C1935 1.394 . S
C1934 H1942 0.930 . S
C1935 C1934 1.394 . S
C1935 C1936 1.383 . S
C1935 H1943 0.929 . S
C1936 C1935 1.383 . S
C1936 C1937 1.377 . S
C1937 H1921 0.930 . S
C1937 C1936 1.377 . S
C1937 C1938 1.379 . S
C1938 H1922 0.931 . S
C1938 C1932 1.383 . S
C1938 C1937 1.379 . S
H1939 C1933 0.959 . S
H1940 C1933 0.961 . S
H1941 C1933 0.960 . S
H1942 C1934 0.930 . S
H1943 C1935 0.929 . S
H1944 C1952 0.929 . S
H1945 C1954 0.930 . S
H1946 C1956 0.930 . S
H1947 C1959 0.929 . S
H1948 C1962 0.930 . S
H1949 C1964 0.960 . S
H1950 C1964 0.960 . S
H1951 C1964 0.960 . S
C1952 H1944 0.929 . S
C1952 C1953 1.377 . S
C1952 C1954 1.384 . S
C1953 C1952 1.377 . S
C1953 C1959 1.390 . S
C1954 H1945 0.930 . S
C1954 C1952 1.384 . S
C1954 C1955 1.372 . S
C1955 C1954 1.372 . S
C1955 C1956 1.400 . S
C1955 C1960 1.490 . S
C1956 H1946 0.930 . S
C1956 C1955 1.400 . S
C1956 C1959 1.386 . S
H1957 C1973 0.930 . S
H1958 C1974 0.931 . S
C1959 H1947 0.929 . S
C1959 C1953 1.390 . S
C1959 C1956 1.386 . S
C1960 C1955 1.490 . S
C1960 C1962 1.395 . S
C1960 C1963 1.403 . S
H1961 C1967 0.930 . S
C1962 H1948 0.930 . S
C1962 C1960 1.395 . S
C1962 C1965 1.403 . S
C1963 C1960 1.403 . S
C1963 C1964 1.524 . S
C1963 C1967 1.400 . S
C1964 H1949 0.960 . S
C1964 H1950 0.960 . S
C1964 H1951 0.960 . S
C1964 C1963 1.524 . S
C1965 C1962 1.403 . S
C1965 C1966 1.392 . S
C1965 C1969 1.495 . S
C1966 C1965 1.392 . S
C1966 C1967 1.385 . S
C1966 C1968 1.478 . S
C1967 H1961 0.930 . S
C1967 C1963 1.400 . S
C1967 C1966 1.385 . S
C1968 C1966 1.478 . S
C1968 C1970 1.381 . S
C1968 C1974 1.383 . S
C1969 C1965 1.495 . S
C1969 H1975 0.959 . S
C1969 H1976 0.961 . S
C1969 H1977 0.960 . S
C1970 C1968 1.381 . S
C1970 C1971 1.394 . S
C1970 H1978 0.930 . S
C1971 C1970 1.394 . S
C1971 C1972 1.383 . S
C1971 H1979 0.929 . S
C1972 C1971 1.383 . S
C1972 C1973 1.377 . S
C1973 H1957 0.930 . S
C1973 C1972 1.377 . S
C1973 C1974 1.379 . S
C1974 H1958 0.931 . S
C1974 C1968 1.383 . S
C1974 C1973 1.379 . S
H1975 C1969 0.959 . S
H1976 C1969 0.961 . S
H1977 C1969 0.960 . S
H1978 C1970 0.930 . S
H1979 C1971 0.929 . S
H1980 C1988 0.929 . S
H1981 C1990 0.930 . S
H1982 C1992 0.930 . S
H1983 C1995 0.929 . S
H1984 C1998 0.930 . S
H1985 C2000 0.960 . S
H1986 C2000 0.960 . S
H1987 C2000 0.960 . S
C1988 H1980 0.929 . S
C1988 C1989 1.377 . S
C1988 C1990 1.384 . S
C1989 C1988 1.377 . S
C1989 C1995 1.390 . S
C1990 H1981 0.930 . S
C1990 C1988 1.384 . S
C1990 C1991 1.372 . S
C1991 C1990 1.372 . S
C1991 C1992 1.400 . S
C1991 C1996 1.490 . S
C1992 H1982 0.930 . S
C1992 C1991 1.400 . S
C1992 C1995 1.386 . S
H1993 C2009 0.930 . S
H1994 C2010 0.931 . S
C1995 H1983 0.929 . S
C1995 C1989 1.390 . S
C1995 C1992 1.386 . S
C1996 C1991 1.490 . S
C1996 C1998 1.395 . S
C1996 C1999 1.403 . S
H1997 C2003 0.930 . S
C1998 H1984 0.930 . S
C1998 C1996 1.395 . S
C1998 C2001 1.403 . S
C1999 C1996 1.403 . S
C1999 C2000 1.524 . S
C1999 C2003 1.400 . S
C2000 H1985 0.960 . S
C2000 H1986 0.960 . S
C2000 H1987 0.960 . S
C2000 C1999 1.524 . S
C2001 C1998 1.403 . S
C2001 C2002 1.392 . S
C2001 C2005 1.495 . S
C2002 C2001 1.392 . S
C2002 C2003 1.385 . S
C2002 C2004 1.478 . S
C2003 H1997 0.930 . S
C2003 C1999 1.400 . S
C2003 C2002 1.385 . S
C2004 C2002 1.478 . S
C2004 C2006 1.381 . S
C2004 C2010 1.383 . S
C2005 C2001 1.495 . S
C2005 H2011 0.959 . S
C2005 H2012 0.961 . S
C2005 H2013 0.960 . S
C2006 C2004 1.381 . S
C2006 C2007 1.394 . S
C2006 H2014 0.930 . S
C2007 C2006 1.394 . S
C2007 C2008 1.383 . S
C2007 H2015 0.929 . S
C2008 C2007 1.383 . S
C2008 C2009 1.377 . S
C2009 H1993 0.930 . S
C2009 C2008 1.377 . S
C2009 C2010 1.379 . S
C2010 H1994 0.931 . S
C2010 C2004 1.383 . S
C2010 C2009 1.379 . S
H2011 C2005 0.959 . S
H2012 C2005 0.961 . S
H2013 C2005 0.960 . S
H2014 C2006 0.930 . S
H2015 C2007 0.929 . S
H2016 C2024 0.929 . S
H2017 C2026 0.930 . S
H2018 C2028 0.930 . S
H2019 C2031 0.929 . S
H2020 C2034 0.930 . S
H2021 C2036 0.960 . S
H2022 C2036 0.960 . S
H2023 C2036 0.960 . S
C2024 H2016 0.929 . S
C2024 C2025 1.377 . S
C2024 C2026 1.384 . S
C2025 C2024 1.377 . S
C2025 C2031 1.390 . S
C2026 H2017 0.930 . S
C2026 C2024 1.384 . S
C2026 C2027 1.372 . S
C2027 C2026 1.372 . S
C2027 C2028 1.400 . S
C2027 C2032 1.490 . S
C2028 H2018 0.930 . S
C2028 C2027 1.400 . S
C2028 C2031 1.386 . S
H2029 C2045 0.930 . S
H2030 C2046 0.931 . S
C2031 H2019 0.929 . S
C2031 C2025 1.390 . S
C2031 C2028 1.386 . S
C2032 C2027 1.490 . S
C2032 C2034 1.395 . S
C2032 C2035 1.403 . S
H2033 C2039 0.930 . S
C2034 H2020 0.930 . S
C2034 C2032 1.395 . S
C2034 C2037 1.403 . S
C2035 C2032 1.403 . S
C2035 C2036 1.524 . S
C2035 C2039 1.400 . S
C2036 H2021 0.960 . S
C2036 H2022 0.960 . S
C2036 H2023 0.960 . S
C2036 C2035 1.524 . S
C2037 C2034 1.403 . S
C2037 C2038 1.392 . S
C2037 C2041 1.495 . S
C2038 C2037 1.392 . S
C2038 C2039 1.385 . S
C2038 C2040 1.478 . S
C2039 H2033 0.930 . S
C2039 C2035 1.400 . S
C2039 C2038 1.385 . S
C2040 C2038 1.478 . S
C2040 C2042 1.381 . S
C2040 C2046 1.383 . S
C2041 C2037 1.495 . S
C2041 H2047 0.959 . S
C2041 H2048 0.961 . S
C2041 H2049 0.960 . S
C2042 C2040 1.381 . S
C2042 C2043 1.394 . S
C2042 H2050 0.930 . S
C2043 C2042 1.394 . S
C2043 C2044 1.383 . S
C2043 H2051 0.929 . S
C2044 C2043 1.383 . S
C2044 C2045 1.377 . S
C2045 H2029 0.930 . S
C2045 C2044 1.377 . S
C2045 C2046 1.379 . S
C2046 H2030 0.931 . S
C2046 C2040 1.383 . S
C2046 C2045 1.379 . S
H2047 C2041 0.959 . S
H2048 C2041 0.961 . S
H2049 C2041 0.960 . S
H2050 C2042 0.930 . S
H2051 C2043 0.929 . S
H2052 C2060 0.929 . S
H2053 C2062 0.930 . S
H2054 C2064 0.930 . S
H2055 C2067 0.929 . S
H2056 C2070 0.930 . S
H2057 C2072 0.960 . S
H2058 C2072 0.960 . S
H2059 C2072 0.960 . S
C2060 H2052 0.929 . S
C2060 C2061 1.377 . S
C2060 C2062 1.384 . S
C2061 C2060 1.377 . S
C2061 C2067 1.390 . S
C2062 H2053 0.930 . S
C2062 C2060 1.384 . S
C2062 C2063 1.372 . S
C2063 C2062 1.372 . S
C2063 C2064 1.400 . S
C2063 C2068 1.490 . S
C2064 H2054 0.930 . S
C2064 C2063 1.400 . S
C2064 C2067 1.386 . S
H2065 C2081 0.930 . S
H2066 C2082 0.931 . S
C2067 H2055 0.929 . S
C2067 C2061 1.390 . S
C2067 C2064 1.386 . S
C2068 C2063 1.490 . S
C2068 C2070 1.395 . S
C2068 C2071 1.403 . S
H2069 C2075 0.930 . S
C2070 H2056 0.930 . S
C2070 C2068 1.395 . S
C2070 C2073 1.403 . S
C2071 C2068 1.403 . S
C2071 C2072 1.524 . S
C2071 C2075 1.400 . S
C2072 H2057 0.960 . S
C2072 H2058 0.960 . S
C2072 H2059 0.960 . S
C2072 C2071 1.524 . S
C2073 C2070 1.403 . S
C2073 C2074 1.392 . S
C2073 C2077 1.495 . S
C2074 C2073 1.392 . S
C2074 C2075 1.385 . S
C2074 C2076 1.478 . S
C2075 H2069 0.930 . S
C2075 C2071 1.400 . S
C2075 C2074 1.385 . S
C2076 C2074 1.478 . S
C2076 C2078 1.381 . S
C2076 C2082 1.383 . S
C2077 C2073 1.495 . S
C2077 H2083 0.959 . S
C2077 H2084 0.961 . S
C2077 H2085 0.960 . S
C2078 C2076 1.381 . S
C2078 C2079 1.394 . S
C2078 H2086 0.930 . S
C2079 C2078 1.394 . S
C2079 C2080 1.383 . S
C2079 H2087 0.929 . S
C2080 C2079 1.383 . S
C2080 C2081 1.377 . S
C2081 H2065 0.930 . S
C2081 C2080 1.377 . S
C2081 C2082 1.379 . S
C2082 H2066 0.931 . S
C2082 C2076 1.383 . S
C2082 C2081 1.379 . S
H2083 C2077 0.959 . S
H2084 C2077 0.961 . S
H2085 C2077 0.960 . S
H2086 C2078 0.930 . S
H2087 C2079 0.929 . S
H2088 C2096 0.929 . S
H2089 C2098 0.930 . S
H2090 C2100 0.930 . S
H2091 C2103 0.929 . S
H2092 C2106 0.930 . S
H2093 C2108 0.960 . S
H2094 C2108 0.960 . S
H2095 C2108 0.960 . S
C2096 H2088 0.929 . S
C2096 C2097 1.377 . S
C2096 C2098 1.384 . S
C2097 C2096 1.377 . S
C2097 C2103 1.390 . S
C2098 H2089 0.930 . S
C2098 C2096 1.384 . S
C2098 C2099 1.372 . S
C2099 C2098 1.372 . S
C2099 C2100 1.400 . S
C2099 C2104 1.490 . S
C2100 H2090 0.930 . S
C2100 C2099 1.400 . S
C2100 C2103 1.386 . S
H2101 C2117 0.930 . S
H2102 C2118 0.931 . S
C2103 H2091 0.929 . S
C2103 C2097 1.390 . S
C2103 C2100 1.386 . S
C2104 C2099 1.490 . S
C2104 C2106 1.395 . S
C2104 C2107 1.403 . S
H2105 C2111 0.930 . S
C2106 H2092 0.930 . S
C2106 C2104 1.395 . S
C2106 C2109 1.403 . S
C2107 C2104 1.403 . S
C2107 C2108 1.524 . S
C2107 C2111 1.400 . S
C2108 H2093 0.960 . S
C2108 H2094 0.960 . S
C2108 H2095 0.960 . S
C2108 C2107 1.524 . S
C2109 C2106 1.403 . S
C2109 C2110 1.392 . S
C2109 C2113 1.495 . S
C2110 C2109 1.392 . S
C2110 C2111 1.385 . S
C2110 C2112 1.478 . S
C2111 H2105 0.930 . S
C2111 C2107 1.400 . S
C2111 C2110 1.385 . S
C2112 C2110 1.478 . S
C2112 C2114 1.381 . S
C2112 C2118 1.383 . S
C2113 C2109 1.495 . S
C2113 H2119 0.959 . S
C2113 H2120 0.961 . S
C2113 H2121 0.960 . S
C2114 C2112 1.381 . S
C2114 C2115 1.394 . S
C2114 H2122 0.930 . S
C2115 C2114 1.394 . S
C2115 C2116 1.383 . S
C2115 H2123 0.929 . S
C2116 C2115 1.383 . S
C2116 C2117 1.377 . S
C2117 H2101 0.930 . S
C2117 C2116 1.377 . S
C2117 C2118 1.379 . S
C2118 H2102 0.931 . S
C2118 C2112 1.383 . S
C2118 C2117 1.379 . S
H2119 C2113 0.959 . S
H2120 C2113 0.961 . S
H2121 C2113 0.960 . S
H2122 C2114 0.930 . S
H2123 C2115 0.929 . S
H2124 C2132 0.929 . S
H2125 C2134 0.930 . S
H2126 C2136 0.930 . S
H2127 C2139 0.929 . S
H2128 C2142 0.930 . S
H2129 C2144 0.960 . S
H2130 C2144 0.960 . S
H2131 C2144 0.960 . S
C2132 H2124 0.929 . S
C2132 C2133 1.377 . S
C2132 C2134 1.384 . S
C2133 C2132 1.377 . S
C2133 C2139 1.390 . S
C2134 H2125 0.930 . S
C2134 C2132 1.384 . S
C2134 C2135 1.372 . S
C2135 C2134 1.372 . S
C2135 C2136 1.400 . S
C2135 C2140 1.490 . S
C2136 H2126 0.930 . S
C2136 C2135 1.400 . S
C2136 C2139 1.386 . S
H2137 C2153 0.930 . S
H2138 C2154 0.931 . S
C2139 H2127 0.929 . S
C2139 C2133 1.390 . S
C2139 C2136 1.386 . S
C2140 C2135 1.490 . S
C2140 C2142 1.395 . S
C2140 C2143 1.403 . S
H2141 C2147 0.930 . S
C2142 H2128 0.930 . S
C2142 C2140 1.395 . S
C2142 C2145 1.403 . S
C2143 C2140 1.403 . S
C2143 C2144 1.524 . S
C2143 C2147 1.400 . S
C2144 H2129 0.960 . S
C2144 H2130 0.960 . S
C2144 H2131 0.960 . S
C2144 C2143 1.524 . S
C2145 C2142 1.403 . S
C2145 C2146 1.392 . S
C2145 C2149 1.495 . S
C2146 C2145 1.392 . S
C2146 C2147 1.385 . S
C2146 C2148 1.478 . S
C2147 H2141 0.930 . S
C2147 C2143 1.400 . S
C2147 C2146 1.385 . S
C2148 C2146 1.478 . S
C2148 C2150 1.381 . S
C2148 C2154 1.383 . S
C2149 C2145 1.495 . S
C2149 H2155 0.959 . S
C2149 H2156 0.961 . S
C2149 H2157 0.960 . S
C2150 C2148 1.381 . S
C2150 C2151 1.394 . S
C2150 H2158 0.930 . S
C2151 C2150 1.394 . S
C2151 C2152 1.383 . S
C2151 H2159 0.929 . S
C2152 C2151 1.383 . S
C2152 C2153 1.377 . S
C2153 H2137 0.930 . S
C2153 C2152 1.377 . S
C2153 C2154 1.379 . S
C2154 H2138 0.931 . S
C2154 C2148 1.383 . S
C2154 C2153 1.379 . S
H2155 C2149 0.959 . S
H2156 C2149 0.961 . S
H2157 C2149 0.960 . S
H2158 C2150 0.930 . S
H2159 C2151 0.929 . S
H2160 C2168 0.929 . S
H2161 C2170 0.930 . S
H2162 C2172 0.930 . S
H2163 C2175 0.929 . S
H2164 C2178 0.930 . S
H2165 C2180 0.960 . S
H2166 C2180 0.960 . S
H2167 C2180 0.960 . S
C2168 H2160 0.929 . S
C2168 C2169 1.377 . S
C2168 C2170 1.384 . S
C2169 C2168 1.377 . S
C2169 C2175 1.390 . S
C2170 H2161 0.930 . S
C2170 C2168 1.384 . S
C2170 C2171 1.372 . S
C2171 C2170 1.372 . S
C2171 C2172 1.400 . S
C2171 C2176 1.490 . S
C2172 H2162 0.930 . S
C2172 C2171 1.400 . S
C2172 C2175 1.386 . S
H2173 C2189 0.930 . S
H2174 C2190 0.931 . S
C2175 H2163 0.929 . S
C2175 C2169 1.390 . S
C2175 C2172 1.386 . S
C2176 C2171 1.490 . S
C2176 C2178 1.395 . S
C2176 C2179 1.403 . S
H2177 C2183 0.930 . S
C2178 H2164 0.930 . S
C2178 C2176 1.395 . S
C2178 C2181 1.403 . S
C2179 C2176 1.403 . S
C2179 C2180 1.524 . S
C2179 C2183 1.400 . S
C2180 H2165 0.960 . S
C2180 H2166 0.960 . S
C2180 H2167 0.960 . S
C2180 C2179 1.524 . S
C2181 C2178 1.403 . S
C2181 C2182 1.392 . S
C2181 C2185 1.495 . S
C2182 C2181 1.392 . S
C2182 C2183 1.385 . S
C2182 C2184 1.478 . S
C2183 H2177 0.930 . S
C2183 C2179 1.400 . S
C2183 C2182 1.385 . S
C2184 C2182 1.478 . S
C2184 C2186 1.381 . S
C2184 C2190 1.383 . S
C2185 C2181 1.495 . S
C2185 H2191 0.959 . S
C2185 H2192 0.961 . S
C2185 H2193 0.960 . S
C2186 C2184 1.381 . S
C2186 C2187 1.394 . S
C2186 H2194 0.930 . S
C2187 C2186 1.394 . S
C2187 C2188 1.383 . S
C2187 H2195 0.929 . S
C2188 C2187 1.383 . S
C2188 C2189 1.377 . S
C2189 H2173 0.930 . S
C2189 C2188 1.377 . S
C2189 C2190 1.379 . S
C2190 H2174 0.931 . S
C2190 C2184 1.383 . S
C2190 C2189 1.379 . S
H2191 C2185 0.959 . S
H2192 C2185 0.961 . S
H2193 C2185 0.960 . S
H2194 C2186 0.930 . S
H2195 C2187 0.929 . S
H2196 C2204 0.929 . S
H2197 C2206 0.930 . S
H2198 C2208 0.930 . S
H2199 C2211 0.929 . S
H2200 C2214 0.930 . S
H2201 C2216 0.960 . S
H2202 C2216 0.960 . S
H2203 C2216 0.960 . S
C2204 H2196 0.929 . S
C2204 C2205 1.377 . S
C2204 C2206 1.384 . S
C2205 C2204 1.377 . S
C2205 C2211 1.390 . S
C2206 H2197 0.930 . S
C2206 C2204 1.384 . S
C2206 C2207 1.372 . S
C2207 C2206 1.372 . S
C2207 C2208 1.400 . S
C2207 C2212 1.490 . S
C2208 H2198 0.930 . S
C2208 C2207 1.400 . S
C2208 C2211 1.386 . S
H2209 C2225 0.930 . S
H2210 C2226 0.931 . S
C2211 H2199 0.929 . S
C2211 C2205 1.390 . S
C2211 C2208 1.386 . S
C2212 C2207 1.490 . S
C2212 C2214 1.395 . S
C2212 C2215 1.403 . S
H2213 C2219 0.930 . S
C2214 H2200 0.930 . S
C2214 C2212 1.395 . S
C2214 C2217 1.403 . S
C2215 C2212 1.403 . S
C2215 C2216 1.524 . S
C2215 C2219 1.400 . S
C2216 H2201 0.960 . S
C2216 H2202 0.960 . S
C2216 H2203 0.960 . S
C2216 C2215 1.524 . S
C2217 C2214 1.403 . S
C2217 C2218 1.392 . S
C2217 C2221 1.495 . S
C2218 C2217 1.392 . S
C2218 C2219 1.385 . S
C2218 C2220 1.478 . S
C2219 H2213 0.930 . S
C2219 C2215 1.400 . S
C2219 C2218 1.385 . S
C2220 C2218 1.478 . S
C2220 C2222 1.381 . S
C2220 C2226 1.383 . S
C2221 C2217 1.495 . S
C2221 H2227 0.959 . S
C2221 H2228 0.961 . S
C2221 H2229 0.960 . S
C2222 C2220 1.381 . S
C2222 C2223 1.394 . S
C2222 H2230 0.930 . S
C2223 C2222 1.394 . S
C2223 C2224 1.383 . S
C2223 H2231 0.929 . S
C2224 C2223 1.383 . S
C2224 C2225 1.377 . S
C2225 H2209 0.930 . S
C2225 C2224 1.377 . S
C2225 C2226 1.379 . S
C2226 H2210 0.931 . S
C2226 C2220 1.383 . S
C2226 C2225 1.379 . S
H2227 C2221 0.959 . S
H2228 C2221 0.961 . S
H2229 C2221 0.960 . S
H2230 C2222 0.930 . S
H2231 C2223 0.929 . S
H2232 C2240 0.929 . S
H2233 C2242 0.930 . S
H2234 C2244 0.930 . S
H2235 C2247 0.929 . S
H2236 C2250 0.930 . S
H2237 C2252 0.960 . S
H2238 C2252 0.960 . S
H2239 C2252 0.960 . S
C2240 H2232 0.929 . S
C2240 C2241 1.377 . S
C2240 C2242 1.384 . S
C2241 C2240 1.377 . S
C2241 C2247 1.390 . S
C2242 H2233 0.930 . S
C2242 C2240 1.384 . S
C2242 C2243 1.372 . S
C2243 C2242 1.372 . S
C2243 C2244 1.400 . S
C2243 C2248 1.490 . S
C2244 H2234 0.930 . S
C2244 C2243 1.400 . S
C2244 C2247 1.386 . S
H2245 C2261 0.930 . S
H2246 C2262 0.931 . S
C2247 H2235 0.929 . S
C2247 C2241 1.390 . S
C2247 C2244 1.386 . S
C2248 C2243 1.490 . S
C2248 C2250 1.395 . S
C2248 C2251 1.403 . S
H2249 C2255 0.930 . S
C2250 H2236 0.930 . S
C2250 C2248 1.395 . S
C2250 C2253 1.403 . S
C2251 C2248 1.403 . S
C2251 C2252 1.524 . S
C2251 C2255 1.400 . S
C2252 H2237 0.960 . S
C2252 H2238 0.960 . S
C2252 H2239 0.960 . S
C2252 C2251 1.524 . S
C2253 C2250 1.403 . S
C2253 C2254 1.392 . S
C2253 C2257 1.495 . S
C2254 C2253 1.392 . S
C2254 C2255 1.385 . S
C2254 C2256 1.478 . S
C2255 H2249 0.930 . S
C2255 C2251 1.400 . S
C2255 C2254 1.385 . S
C2256 C2254 1.478 . S
C2256 C2258 1.381 . S
C2256 C2262 1.383 . S
C2257 C2253 1.495 . S
C2257 H2263 0.959 . S
C2257 H2264 0.961 . S
C2257 H2265 0.960 . S
C2258 C2256 1.381 . S
C2258 C2259 1.394 . S
C2258 H2266 0.930 . S
C2259 C2258 1.394 . S
C2259 C2260 1.383 . S
C2259 H2267 0.929 . S
C2260 C2259 1.383 . S
C2260 C2261 1.377 . S
C2261 H2245 0.930 . S
C2261 C2260 1.377 . S
C2261 C2262 1.379 . S
C2262 H2246 0.931 . S
C2262 C2256 1.383 . S
C2262 C2261 1.379 . S
H2263 C2257 0.959 . S
H2264 C2257 0.961 . S
H2265 C2257 0.960 . S
H2266 C2258 0.930 . S
H2267 C2259 0.929 . S
H2268 C2276 0.929 . S
H2269 C2278 0.930 . S
H2270 C2280 0.930 . S
H2271 C2283 0.929 . S
H2272 C2286 0.930 . S
H2273 C2288 0.960 . S
H2274 C2288 0.960 . S
H2275 C2288 0.960 . S
C2276 H2268 0.929 . S
C2276 C2277 1.377 . S
C2276 C2278 1.384 . S
C2277 C2276 1.377 . S
C2277 C2283 1.390 . S
C2278 H2269 0.930 . S
C2278 C2276 1.384 . S
C2278 C2279 1.372 . S
C2279 C2278 1.372 . S
C2279 C2280 1.400 . S
C2279 C2284 1.490 . S
C2280 H2270 0.930 . S
C2280 C2279 1.400 . S
C2280 C2283 1.386 . S
H2281 C2297 0.930 . S
H2282 C2298 0.931 . S
C2283 H2271 0.929 . S
C2283 C2277 1.390 . S
C2283 C2280 1.386 . S
C2284 C2279 1.490 . S
C2284 C2286 1.395 . S
C2284 C2287 1.403 . S
H2285 C2291 0.930 . S
C2286 H2272 0.930 . S
C2286 C2284 1.395 . S
C2286 C2289 1.403 . S
C2287 C2284 1.403 . S
C2287 C2288 1.524 . S
C2287 C2291 1.400 . S
C2288 H2273 0.960 . S
C2288 H2274 0.960 . S
C2288 H2275 0.960 . S
C2288 C2287 1.524 . S
C2289 C2286 1.403 . S
C2289 C2290 1.392 . S
C2289 C2293 1.495 . S
C2290 C2289 1.392 . S
C2290 C2291 1.385 . S
C2290 C2292 1.478 . S
C2291 H2285 0.930 . S
C2291 C2287 1.400 . S
C2291 C2290 1.385 . S
C2292 C2290 1.478 . S
C2292 C2294 1.381 . S
C2292 C2298 1.383 . S
C2293 C2289 1.495 . S
C2293 H2299 0.959 . S
C2293 H2300 0.961 . S
C2293 H2301 0.960 . S
C2294 C2292 1.381 . S
C2294 C2295 1.394 . S
C2294 H2302 0.930 . S
C2295 C2294 1.394 . S
C2295 C2296 1.383 . S
C2295 H2303 0.929 . S
C2296 C2295 1.383 . S
C2296 C2297 1.377 . S
C2297 H2281 0.930 . S
C2297 C2296 1.377 . S
C2297 C2298 1.379 . S
C2298 H2282 0.931 . S
C2298 C2292 1.383 . S
C2298 C2297 1.379 . S
H2299 C2293 0.959 . S
H2300 C2293 0.961 . S
H2301 C2293 0.960 . S
H2302 C2294 0.930 . S
H2303 C2295 0.929 . S
H2304 C2312 0.929 . S
H2305 C2314 0.930 . S
H2306 C2316 0.930 . S
H2307 C2319 0.929 . S
H2308 C2322 0.930 . S
H2309 C2324 0.960 . S
H2310 C2324 0.960 . S
H2311 C2324 0.960 . S
C2312 H2304 0.929 . S
C2312 C2313 1.377 . S
C2312 C2314 1.384 . S
C2313 C2312 1.377 . S
C2313 C2319 1.390 . S
C2314 H2305 0.930 . S
C2314 C2312 1.384 . S
C2314 C2315 1.372 . S
C2315 C2314 1.372 . S
C2315 C2316 1.400 . S
C2315 C2320 1.490 . S
C2316 H2306 0.930 . S
C2316 C2315 1.400 . S
C2316 C2319 1.386 . S
H2317 C2333 0.930 . S
H2318 C2334 0.931 . S
C2319 H2307 0.929 . S
C2319 C2313 1.390 . S
C2319 C2316 1.386 . S
C2320 C2315 1.490 . S
C2320 C2322 1.395 . S
C2320 C2323 1.403 . S
H2321 C2327 0.930 . S
C2322 H2308 0.930 . S
C2322 C2320 1.395 . S
C2322 C2325 1.403 . S
C2323 C2320 1.403 . S
C2323 C2324 1.524 . S
C2323 C2327 1.400 . S
C2324 H2309 0.960 . S
C2324 H2310 0.960 . S
C2324 H2311 0.960 . S
C2324 C2323 1.524 . S
C2325 C2322 1.403 . S
C2325 C2326 1.392 . S
C2325 C2329 1.495 . S
C2326 C2325 1.392 . S
C2326 C2327 1.385 . S
C2326 C2328 1.478 . S
C2327 H2321 0.930 . S
C2327 C2323 1.400 . S
C2327 C2326 1.385 . S
C2328 C2326 1.478 . S
C2328 C2330 1.381 . S
C2328 C2334 1.383 . S
C2329 C2325 1.495 . S
C2329 H2335 0.959 . S
C2329 H2336 0.961 . S
C2329 H2337 0.960 . S
C2330 C2328 1.381 . S
C2330 C2331 1.394 . S
C2330 H2338 0.930 . S
C2331 C2330 1.394 . S
C2331 C2332 1.383 . S
C2331 H2339 0.929 . S
C2332 C2331 1.383 . S
C2332 C2333 1.377 . S
C2333 H2317 0.930 . S
C2333 C2332 1.377 . S
C2333 C2334 1.379 . S
C2334 H2318 0.931 . S
C2334 C2328 1.383 . S
C2334 C2333 1.379 . S
H2335 C2329 0.959 . S
H2336 C2329 0.961 . S
H2337 C2329 0.960 . S
H2338 C2330 0.930 . S
H2339 C2331 0.929 . S
H2340 C2348 0.929 . S
H2341 C2350 0.930 . S
H2342 C2352 0.930 . S
H2343 C2355 0.929 . S
H2344 C2358 0.930 . S
H2345 C2360 0.960 . S
H2346 C2360 0.960 . S
H2347 C2360 0.960 . S
C2348 H2340 0.929 . S
C2348 C2349 1.377 . S
C2348 C2350 1.384 . S
C2349 C2348 1.377 . S
C2349 C2355 1.390 . S
C2350 H2341 0.930 . S
C2350 C2348 1.384 . S
C2350 C2351 1.372 . S
C2351 C2350 1.372 . S
C2351 C2352 1.400 . S
C2351 C2356 1.490 . S
C2352 H2342 0.930 . S
C2352 C2351 1.400 . S
C2352 C2355 1.386 . S
H2353 C2369 0.930 . S
H2354 C2370 0.931 . S
C2355 H2343 0.929 . S
C2355 C2349 1.390 . S
C2355 C2352 1.386 . S
C2356 C2351 1.490 . S
C2356 C2358 1.395 . S
C2356 C2359 1.403 . S
H2357 C2363 0.930 . S
C2358 H2344 0.930 . S
C2358 C2356 1.395 . S
C2358 C2361 1.403 . S
C2359 C2356 1.403 . S
C2359 C2360 1.524 . S
C2359 C2363 1.400 . S
C2360 H2345 0.960 . S
C2360 H2346 0.960 . S
C2360 H2347 0.960 . S
C2360 C2359 1.524 . S
C2361 C2358 1.403 . S
C2361 C2362 1.392 . S
C2361 C2365 1.495 . S
C2362 C2361 1.392 . S
C2362 C2363 1.385 . S
C2362 C2364 1.478 . S
C2363 H2357 0.930 . S
C2363 C2359 1.400 . S
C2363 C2362 1.385 . S
C2364 C2362 1.478 . S
C2364 C2366 1.381 . S
C2364 C2370 1.383 . S
C2365 C2361 1.495 . S
C2365 H2371 0.959 . S
C2365 H2372 0.961 . S
C2365 H2373 0.960 . S
C2366 C2364 1.381 . S
C2366 C2367 1.394 . S
C2366 H2374 0.930 . S
C2367 C2366 1.394 . S
C2367 C2368 1.383 . S
C2367 H2375 0.929 . S
C2368 C2367 1.383 . S
C2368 C2369 1.377 . S
C2369 H2353 0.930 . S
C2369 C2368 1.377 . S
C2369 C2370 1.379 . S
C2370 H2354 0.931 . S
C2370 C2364 1.383 . S
C2370 C2369 1.379 . S
H2371 C2365 0.959 . S
H2372 C2365 0.961 . S
H2373 C2365 0.960 . S
H2374 C2366 0.930 . S
H2375 C2367 0.929 . S
H2376 C2384 0.929 . S
H2377 C2386 0.930 . S
H2378 C2388 0.930 . S
H2379 C2391 0.929 . S
H2380 C2394 0.930 . S
H2381 C2396 0.960 . S
H2382 C2396 0.960 . S
H2383 C2396 0.960 . S
C2384 H2376 0.929 . S
C2384 C2385 1.377 . S
C2384 C2386 1.384 . S
C2385 C2384 1.377 . S
C2385 C2391 1.390 . S
C2386 H2377 0.930 . S
C2386 C2384 1.384 . S
C2386 C2387 1.372 . S
C2387 C2386 1.372 . S
C2387 C2388 1.400 . S
C2387 C2392 1.490 . S
C2388 H2378 0.930 . S
C2388 C2387 1.400 . S
C2388 C2391 1.386 . S
H2389 C2405 0.930 . S
H2390 C2406 0.931 . S
C2391 H2379 0.929 . S
C2391 C2385 1.390 . S
C2391 C2388 1.386 . S
C2392 C2387 1.490 . S
C2392 C2394 1.395 . S
C2392 C2395 1.403 . S
H2393 C2399 0.930 . S
C2394 H2380 0.930 . S
C2394 C2392 1.395 . S
C2394 C2397 1.403 . S
C2395 C2392 1.403 . S
C2395 C2396 1.524 . S
C2395 C2399 1.400 . S
C2396 H2381 0.960 . S
C2396 H2382 0.960 . S
C2396 H2383 0.960 . S
C2396 C2395 1.524 . S
C2397 C2394 1.403 . S
C2397 C2398 1.392 . S
C2397 C2401 1.495 . S
C2398 C2397 1.392 . S
C2398 C2399 1.385 . S
C2398 C2400 1.478 . S
C2399 H2393 0.930 . S
C2399 C2395 1.400 . S
C2399 C2398 1.385 . S
C2400 C2398 1.478 . S
C2400 C2402 1.381 . S
C2400 C2406 1.383 . S
C2401 C2397 1.495 . S
C2401 H2407 0.959 . S
C2401 H2408 0.961 . S
C2401 H2409 0.960 . S
C2402 C2400 1.381 . S
C2402 C2403 1.394 . S
C2402 H2410 0.930 . S
C2403 C2402 1.394 . S
C2403 C2404 1.383 . S
C2403 H2411 0.929 . S
C2404 C2403 1.383 . S
C2404 C2405 1.377 . S
C2405 H2389 0.930 . S
C2405 C2404 1.377 . S
C2405 C2406 1.379 . S
C2406 H2390 0.931 . S
C2406 C2400 1.383 . S
C2406 C2405 1.379 . S
H2407 C2401 0.959 . S
H2408 C2401 0.961 . S
H2409 C2401 0.960 . S
H2410 C2402 0.930 . S
H2411 C2403 0.929 . S
H2412 C2420 0.929 . S
H2413 C2422 0.930 . S
H2414 C2424 0.930 . S
H2415 C2427 0.929 . S
H2416 C2430 0.930 . S
H2417 C2432 0.960 . S
H2418 C2432 0.960 . S
H2419 C2432 0.960 . S
C2420 H2412 0.929 . S
C2420 C2421 1.377 . S
C2420 C2422 1.384 . S
C2421 C2420 1.377 . S
C2421 C2427 1.390 . S
C2422 H2413 0.930 . S
C2422 C2420 1.384 . S
C2422 C2423 1.372 . S
C2423 C2422 1.372 . S
C2423 C2424 1.400 . S
C2423 C2428 1.490 . S
C2424 H2414 0.930 . S
C2424 C2423 1.400 . S
C2424 C2427 1.386 . S
H2425 C2441 0.930 . S
H2426 C2442 0.931 . S
C2427 H2415 0.929 . S
C2427 C2421 1.390 . S
C2427 C2424 1.386 . S
C2428 C2423 1.490 . S
C2428 C2430 1.395 . S
C2428 C2431 1.403 . S
H2429 C2435 0.930 . S
C2430 H2416 0.930 . S
C2430 C2428 1.395 . S
C2430 C2433 1.403 . S
C2431 C2428 1.403 . S
C2431 C2432 1.524 . S
C2431 C2435 1.400 . S
C2432 H2417 0.960 . S
C2432 H2418 0.960 . S
C2432 H2419 0.960 . S
C2432 C2431 1.524 . S
C2433 C2430 1.403 . S
C2433 C2434 1.392 . S
C2433 C2437 1.495 . S
C2434 C2433 1.392 . S
C2434 C2435 1.385 . S
C2434 C2436 1.478 . S
C2435 H2429 0.930 . S
C2435 C2431 1.400 . S
C2435 C2434 1.385 . S
C2436 C2434 1.478 . S
C2436 C2438 1.381 . S
C2436 C2442 1.383 . S
C2437 C2433 1.495 . S
C2437 H2443 0.959 . S
C2437 H2444 0.961 . S
C2437 H2445 0.960 . S
C2438 C2436 1.381 . S
C2438 C2439 1.394 . S
C2438 H2446 0.930 . S
C2439 C2438 1.394 . S
C2439 C2440 1.383 . S
C2439 H2447 0.929 . S
C2440 C2439 1.383 . S
C2440 C2441 1.377 . S
C2441 H2425 0.930 . S
C2441 C2440 1.377 . S
C2441 C2442 1.379 . S
C2442 H2426 0.931 . S
C2442 C2436 1.383 . S
C2442 C2441 1.379 . S
H2443 C2437 0.959 . S
H2444 C2437 0.961 . S
H2445 C2437 0.960 . S
H2446 C2438 0.930 . S
H2447 C2439 0.929 . S
H2448 C2456 0.929 . S
H2449 C2458 0.930 . S
H2450 C2460 0.930 . S
H2451 C2463 0.929 . S
H2452 C2466 0.930 . S
H2453 C2468 0.960 . S
H2454 C2468 0.960 . S
H2455 C2468 0.960 . S
C2456 H2448 0.929 . S
C2456 C2457 1.377 . S
C2456 C2458 1.384 . S
C2457 C2456 1.377 . S
C2457 C2463 1.390 . S
C2458 H2449 0.930 . S
C2458 C2456 1.384 . S
C2458 C2459 1.372 . S
C2459 C2458 1.372 . S
C2459 C2460 1.400 . S
C2459 C2464 1.490 . S
C2460 H2450 0.930 . S
C2460 C2459 1.400 . S
C2460 C2463 1.386 . S
H2461 C2477 0.930 . S
H2462 C2478 0.931 . S
C2463 H2451 0.929 . S
C2463 C2457 1.390 . S
C2463 C2460 1.386 . S
C2464 C2459 1.490 . S
C2464 C2466 1.395 . S
C2464 C2467 1.403 . S
H2465 C2471 0.930 . S
C2466 H2452 0.930 . S
C2466 C2464 1.395 . S
C2466 C2469 1.403 . S
C2467 C2464 1.403 . S
C2467 C2468 1.524 . S
C2467 C2471 1.400 . S
C2468 H2453 0.960 . S
C2468 H2454 0.960 . S
C2468 H2455 0.960 . S
C2468 C2467 1.524 . S
C2469 C2466 1.403 . S
C2469 C2470 1.392 . S
C2469 C2473 1.495 . S
C2470 C2469 1.392 . S
C2470 C2471 1.385 . S
C2470 C2472 1.478 . S
C2471 H2465 0.930 . S
C2471 C2467 1.400 . S
C2471 C2470 1.385 . S
C2472 C2470 1.478 . S
C2472 C2474 1.381 . S
C2472 C2478 1.383 . S
C2473 C2469 1.495 . S
C2473 H2479 0.959 . S
C2473 H2480 0.961 . S
C2473 H2481 0.960 . S
C2474 C2472 1.381 . S
C2474 C2475 1.394 . S
C2474 H2482 0.930 . S
C2475 C2474 1.394 . S
C2475 C2476 1.383 . S
C2475 H2483 0.929 . S
C2476 C2475 1.383 . S
C2476 C2477 1.377 . S
C2477 H2461 0.930 . S
C2477 C2476 1.377 . S
C2477 C2478 1.379 . S
C2478 H2462 0.931 . S
C2478 C2472 1.383 . S
C2478 C2477 1.379 . S
H2479 C2473 0.959 . S
H2480 C2473 0.961 . S
H2481 C2473 0.960 . S
H2482 C2474 0.930 . S
H2483 C2475 0.929 . S
H2484 C2492 0.929 . S
H2485 C2494 0.930 . S
H2486 C2496 0.930 . S
H2487 C2499 0.929 . S
H2488 C2502 0.930 . S
H2489 C2504 0.960 . S
H2490 C2504 0.960 . S
H2491 C2504 0.960 . S
C2492 H2484 0.929 . S
C2492 C2493 1.377 . S
C2492 C2494 1.384 . S
C2493 C2492 1.377 . S
C2493 C2499 1.390 . S
C2494 H2485 0.930 . S
C2494 C2492 1.384 . S
C2494 C2495 1.372 . S
C2495 C2494 1.372 . S
C2495 C2496 1.400 . S
C2495 C2500 1.490 . S
C2496 H2486 0.930 . S
C2496 C2495 1.400 . S
C2496 C2499 1.386 . S
H2497 C2513 0.930 . S
H2498 C2514 0.931 . S
C2499 H2487 0.929 . S
C2499 C2493 1.390 . S
C2499 C2496 1.386 . S
C2500 C2495 1.490 . S
C2500 C2502 1.395 . S
C2500 C2503 1.403 . S
H2501 C2507 0.930 . S
C2502 H2488 0.930 . S
C2502 C2500 1.395 . S
C2502 C2505 1.403 . S
C2503 C2500 1.403 . S
C2503 C2504 1.524 . S
C2503 C2507 1.400 . S
C2504 H2489 0.960 . S
C2504 H2490 0.960 . S
C2504 H2491 0.960 . S
C2504 C2503 1.524 . S
C2505 C2502 1.403 . S
C2505 C2506 1.392 . S
C2505 C2509 1.495 . S
C2506 C2505 1.392 . S
C2506 C2507 1.385 . S
C2506 C2508 1.478 . S
C2507 H2501 0.930 . S
C2507 C2503 1.400 . S
C2507 C2506 1.385 . S
C2508 C2506 1.478 . S
C2508 C2510 1.381 . S
C2508 C2514 1.383 . S
C2509 C2505 1.495 . S
C2509 H2515 0.959 . S
C2509 H2516 0.961 . S
C2509 H2517 0.960 . S
C2510 C2508 1.381 . S
C2510 C2511 1.394 . S
C2510 H2518 0.930 . S
C2511 C2510 1.394 . S
C2511 C2512 1.383 . S
C2511 H2519 0.929 . S
C2512 C2511 1.383 . S
C2512 C2513 1.377 . S
C2513 H2497 0.930 . S
C2513 C2512 1.377 . S
C2513 C2514 1.379 . S
C2514 H2498 0.931 . S
C2514 C2508 1.383 . S
C2514 C2513 1.379 . S
H2515 C2509 0.959 . S
H2516 C2509 0.961 . S
H2517 C2509 0.960 . S
H2518 C2510 0.930 . S
H2519 C2511 0.929 . S
H2520 C2528 0.929 . S
H2521 C2530 0.930 . S
H2522 C2532 0.930 . S
H2523 C2535 0.929 . S
H2524 C2538 0.930 . S
H2525 C2540 0.960 . S
H2526 C2540 0.960 . S
H2527 C2540 0.960 . S
C2528 H2520 0.929 . S
C2528 C2529 1.377 . S
C2528 C2530 1.384 . S
C2529 C2528 1.377 . S
C2529 C2535 1.390 . S
C2530 H2521 0.930 . S
C2530 C2528 1.384 . S
C2530 C2531 1.372 . S
C2531 C2530 1.372 . S
C2531 C2532 1.400 . S
C2531 C2536 1.490 . S
C2532 H2522 0.930 . S
C2532 C2531 1.400 . S
C2532 C2535 1.386 . S
H2533 C2549 0.930 . S
H2534 C2550 0.931 . S
C2535 H2523 0.929 . S
C2535 C2529 1.390 . S
C2535 C2532 1.386 . S
C2536 C2531 1.490 . S
C2536 C2538 1.395 . S
C2536 C2539 1.403 . S
H2537 C2543 0.930 . S
C2538 H2524 0.930 . S
C2538 C2536 1.395 . S
C2538 C2541 1.403 . S
C2539 C2536 1.403 . S
C2539 C2540 1.524 . S
C2539 C2543 1.400 . S
C2540 H2525 0.960 . S
C2540 H2526 0.960 . S
C2540 H2527 0.960 . S
C2540 C2539 1.524 . S
C2541 C2538 1.403 . S
C2541 C2542 1.392 . S
C2541 C2545 1.495 . S
C2542 C2541 1.392 . S
C2542 C2543 1.385 . S
C2542 C2544 1.478 . S
C2543 H2537 0.930 . S
C2543 C2539 1.400 . S
C2543 C2542 1.385 . S
C2544 C2542 1.478 . S
C2544 C2546 1.381 . S
C2544 C2550 1.383 . S
C2545 C2541 1.495 . S
C2545 H2551 0.959 . S
C2545 H2552 0.961 . S
C2545 H2553 0.960 . S
C2546 C2544 1.381 . S
C2546 C2547 1.394 . S
C2546 H2554 0.930 . S
C2547 C2546 1.394 . S
C2547 C2548 1.383 . S
C2547 H2555 0.929 . S
C2548 C2547 1.383 . S
C2548 C2549 1.377 . S
C2549 H2533 0.930 . S
C2549 C2548 1.377 . S
C2549 C2550 1.379 . S
C2550 H2534 0.931 . S
C2550 C2544 1.383 . S
C2550 C2549 1.379 . S
H2551 C2545 0.959 . S
H2552 C2545 0.961 . S
H2553 C2545 0.960 . S
H2554 C2546 0.930 . S
H2555 C2547 0.929 . S
H2556 C2564 0.929 . S
H2557 C2566 0.930 . S
H2558 C2568 0.930 . S
H2559 C2571 0.929 . S
H2560 C2574 0.930 . S
H2561 C2576 0.960 . S
H2562 C2576 0.960 . S
H2563 C2576 0.960 . S
C2564 H2556 0.929 . S
C2564 C2565 1.377 . S
C2564 C2566 1.384 . S
C2565 C2564 1.377 . S
C2565 C2571 1.390 . S
C2566 H2557 0.930 . S
C2566 C2564 1.384 . S
C2566 C2567 1.372 . S
C2567 C2566 1.372 . S
C2567 C2568 1.400 . S
C2567 C2572 1.490 . S
C2568 H2558 0.930 . S
C2568 C2567 1.400 . S
C2568 C2571 1.386 . S
H2569 C2585 0.930 . S
H2570 C2586 0.931 . S
C2571 H2559 0.929 . S
C2571 C2565 1.390 . S
C2571 C2568 1.386 . S
C2572 C2567 1.490 . S
C2572 C2574 1.395 . S
C2572 C2575 1.403 . S
H2573 C2579 0.930 . S
C2574 H2560 0.930 . S
C2574 C2572 1.395 . S
C2574 C2577 1.403 . S
C2575 C2572 1.403 . S
C2575 C2576 1.524 . S
C2575 C2579 1.400 . S
C2576 H2561 0.960 . S
C2576 H2562 0.960 . S
C2576 H2563 0.960 . S
C2576 C2575 1.524 . S
C2577 C2574 1.403 . S
C2577 C2578 1.392 . S
C2577 C2581 1.495 . S
C2578 C2577 1.392 . S
C2578 C2579 1.385 . S
C2578 C2580 1.478 . S
C2579 H2573 0.930 . S
C2579 C2575 1.400 . S
C2579 C2578 1.385 . S
C2580 C2578 1.478 . S
C2580 C2582 1.381 . S
C2580 C2586 1.383 . S
C2581 C2577 1.495 . S
C2581 H2587 0.959 . S
C2581 H2588 0.961 . S
C2581 H2589 0.960 . S
C2582 C2580 1.381 . S
C2582 C2583 1.394 . S
C2582 H2590 0.930 . S
C2583 C2582 1.394 . S
C2583 C2584 1.383 . S
C2583 H2591 0.929 . S
C2584 C2583 1.383 . S
C2584 C2585 1.377 . S
C2585 H2569 0.930 . S
C2585 C2584 1.377 . S
C2585 C2586 1.379 . S
C2586 H2570 0.931 . S
C2586 C2580 1.383 . S
C2586 C2585 1.379 . S
H2587 C2581 0.959 . S
H2588 C2581 0.961 . S
H2589 C2581 0.960 . S
H2590 C2582 0.930 . S
H2591 C2583 0.929 . S
H2592 C2600 0.929 . S
H2593 C2602 0.930 . S
H2594 C2604 0.930 . S
H2595 C2607 0.929 . S
H2596 C2610 0.930 . S
H2597 C2612 0.960 . S
H2598 C2612 0.960 . S
H2599 C2612 0.960 . S
C2600 H2592 0.929 . S
C2600 C2601 1.377 . S
C2600 C2602 1.384 . S
C2601 C2600 1.377 . S
C2601 C2607 1.390 . S
C2602 H2593 0.930 . S
C2602 C2600 1.384 . S
C2602 C2603 1.372 . S
C2603 C2602 1.372 . S
C2603 C2604 1.400 . S
C2603 C2608 1.490 . S
C2604 H2594 0.930 . S
C2604 C2603 1.400 . S
C2604 C2607 1.386 . S
H2605 C2621 0.930 . S
H2606 C2622 0.931 . S
C2607 H2595 0.929 . S
C2607 C2601 1.390 . S
C2607 C2604 1.386 . S
C2608 C2603 1.490 . S
C2608 C2610 1.395 . S
C2608 C2611 1.403 . S
H2609 C2615 0.930 . S
C2610 H2596 0.930 . S
C2610 C2608 1.395 . S
C2610 C2613 1.403 . S
C2611 C2608 1.403 . S
C2611 C2612 1.524 . S
C2611 C2615 1.400 . S
C2612 H2597 0.960 . S
C2612 H2598 0.960 . S
C2612 H2599 0.960 . S
C2612 C2611 1.524 . S
C2613 C2610 1.403 . S
C2613 C2614 1.392 . S
C2613 C2617 1.495 . S
C2614 C2613 1.392 . S
C2614 C2615 1.385 . S
C2614 C2616 1.478 . S
C2615 H2609 0.930 . S
C2615 C2611 1.400 . S
C2615 C2614 1.385 . S
C2616 C2614 1.478 . S
C2616 C2618 1.381 . S
C2616 C2622 1.383 . S
C2617 C2613 1.495 . S
C2617 H2623 0.959 . S
C2617 H2624 0.961 . S
C2617 H2625 0.960 . S
C2618 C2616 1.381 . S
C2618 C2619 1.394 . S
C2618 H2626 0.930 . S
C2619 C2618 1.394 . S
C2619 C2620 1.383 . S
C2619 H2627 0.929 . S
C2620 C2619 1.383 . S
C2620 C2621 1.377 . S
C2621 H2605 0.930 . S
C2621 C2620 1.377 . S
C2621 C2622 1.379 . S
C2622 H2606 0.931 . S
C2622 C2616 1.383 . S
C2622 C2621 1.379 . S
H2623 C2617 0.959 . S
H2624 C2617 0.961 . S
H2625 C2617 0.960 . S
H2626 C2618 0.930 . S
H2627 C2619 0.929 . S
H2628 C2636 0.929 . S
H2629 C2638 0.930 . S
H2630 C2640 0.930 . S
H2631 C2643 0.929 . S
H2632 C2646 0.930 . S
H2633 C2648 0.960 . S
H2634 C2648 0.960 . S
H2635 C2648 0.960 . S
C2636 H2628 0.929 . S
C2636 C2637 1.377 . S
C2636 C2638 1.384 . S
C2637 C2636 1.377 . S
C2637 C2643 1.390 . S
C2638 H2629 0.930 . S
C2638 C2636 1.384 . S
C2638 C2639 1.372 . S
C2639 C2638 1.372 . S
C2639 C2640 1.400 . S
C2639 C2644 1.490 . S
C2640 H2630 0.930 . S
C2640 C2639 1.400 . S
C2640 C2643 1.386 . S
H2641 C2657 0.930 . S
H2642 C2658 0.931 . S
C2643 H2631 0.929 . S
C2643 C2637 1.390 . S
C2643 C2640 1.386 . S
C2644 C2639 1.490 . S
C2644 C2646 1.395 . S
C2644 C2647 1.403 . S
H2645 C2651 0.930 . S
C2646 H2632 0.930 . S
C2646 C2644 1.395 . S
C2646 C2649 1.403 . S
C2647 C2644 1.403 . S
C2647 C2648 1.524 . S
C2647 C2651 1.400 . S
C2648 H2633 0.960 . S
C2648 H2634 0.960 . S
C2648 H2635 0.960 . S
C2648 C2647 1.524 . S
C2649 C2646 1.403 . S
C2649 C2650 1.392 . S
C2649 C2653 1.495 . S
C2650 C2649 1.392 . S
C2650 C2651 1.385 . S
C2650 C2652 1.478 . S
C2651 H2645 0.930 . S
C2651 C2647 1.400 . S
C2651 C2650 1.385 . S
C2652 C2650 1.478 . S
C2652 C2654 1.381 . S
C2652 C2658 1.383 . S
C2653 C2649 1.495 . S
C2653 H2659 0.959 . S
C2653 H2660 0.961 . S
C2653 H2661 0.960 . S
C2654 C2652 1.381 . S
C2654 C2655 1.394 . S
C2654 H2662 0.930 . S
C2655 C2654 1.394 . S
C2655 C2656 1.383 . S
C2655 H2663 0.929 . S
C2656 C2655 1.383 . S
C2656 C2657 1.377 . S
C2657 H2641 0.930 . S
C2657 C2656 1.377 . S
C2657 C2658 1.379 . S
C2658 H2642 0.931 . S
C2658 C2652 1.383 . S
C2658 C2657 1.379 . S
H2659 C2653 0.959 . S
H2660 C2653 0.961 . S
H2661 C2653 0.960 . S
H2662 C2654 0.930 . S
H2663 C2655 0.929 . S
H2664 C2672 0.929 . S
H2665 C2674 0.930 . S
H2666 C2676 0.930 . S
H2667 C2679 0.929 . S
H2668 C2682 0.930 . S
H2669 C2684 0.960 . S
H2670 C2684 0.960 . S
H2671 C2684 0.960 . S
C2672 H2664 0.929 . S
C2672 C2673 1.377 . S
C2672 C2674 1.384 . S
C2673 C2672 1.377 . S
C2673 C2679 1.390 . S
C2674 H2665 0.930 . S
C2674 C2672 1.384 . S
C2674 C2675 1.372 . S
C2675 C2674 1.372 . S
C2675 C2676 1.400 . S
C2675 C2680 1.490 . S
C2676 H2666 0.930 . S
C2676 C2675 1.400 . S
C2676 C2679 1.386 . S
H2677 C2693 0.930 . S
H2678 C2694 0.931 . S
C2679 H2667 0.929 . S
C2679 C2673 1.390 . S
C2679 C2676 1.386 . S
C2680 C2675 1.490 . S
C2680 C2682 1.395 . S
C2680 C2683 1.403 . S
H2681 C2687 0.930 . S
C2682 H2668 0.930 . S
C2682 C2680 1.395 . S
C2682 C2685 1.403 . S
C2683 C2680 1.403 . S
C2683 C2684 1.524 . S
C2683 C2687 1.400 . S
C2684 H2669 0.960 . S
C2684 H2670 0.960 . S
C2684 H2671 0.960 . S
C2684 C2683 1.524 . S
C2685 C2682 1.403 . S
C2685 C2686 1.392 . S
C2685 C2689 1.495 . S
C2686 C2685 1.392 . S
C2686 C2687 1.385 . S
C2686 C2688 1.478 . S
C2687 H2681 0.930 . S
C2687 C2683 1.400 . S
C2687 C2686 1.385 . S
C2688 C2686 1.478 . S
C2688 C2690 1.381 . S
C2688 C2694 1.383 . S
C2689 C2685 1.495 . S
C2689 H2695 0.959 . S
C2689 H2696 0.961 . S
C2689 H2697 0.960 . S
C2690 C2688 1.381 . S
C2690 C2691 1.394 . S
C2690 H2698 0.930 . S
C2691 C2690 1.394 . S
C2691 C2692 1.383 . S
C2691 H2699 0.929 . S
C2692 C2691 1.383 . S
C2692 C2693 1.377 . S
C2693 H2677 0.930 . S
C2693 C2692 1.377 . S
C2693 C2694 1.379 . S
C2694 H2678 0.931 . S
C2694 C2688 1.383 . S
C2694 C2693 1.379 . S
H2695 C2689 0.959 . S
H2696 C2689 0.961 . S
H2697 C2689 0.960 . S
H2698 C2690 0.930 . S
H2699 C2691 0.929 . S
H2700 C2708 0.929 . S
H2701 C2710 0.930 . S
H2702 C2712 0.930 . S
H2703 C2715 0.929 . S
H2704 C2718 0.930 . S
H2705 C2720 0.960 . S
H2706 C2720 0.960 . S
H2707 C2720 0.960 . S
C2708 H2700 0.929 . S
C2708 C2709 1.377 . S
C2708 C2710 1.384 . S
C2709 C2708 1.377 . S
C2709 C2715 1.390 . S
C2710 H2701 0.930 . S
C2710 C2708 1.384 . S
C2710 C2711 1.372 . S
C2711 C2710 1.372 . S
C2711 C2712 1.400 . S
C2711 C2716 1.490 . S
C2712 H2702 0.930 . S
C2712 C2711 1.400 . S
C2712 C2715 1.386 . S
H2713 C2729 0.930 . S
H2714 C2730 0.931 . S
C2715 H2703 0.929 . S
C2715 C2709 1.390 . S
C2715 C2712 1.386 . S
C2716 C2711 1.490 . S
C2716 C2718 1.395 . S
C2716 C2719 1.403 . S
H2717 C2723 0.930 . S
C2718 H2704 0.930 . S
C2718 C2716 1.395 . S
C2718 C2721 1.403 . S
C2719 C2716 1.403 . S
C2719 C2720 1.524 . S
C2719 C2723 1.400 . S
C2720 H2705 0.960 . S
C2720 H2706 0.960 . S
C2720 H2707 0.960 . S
C2720 C2719 1.524 . S
C2721 C2718 1.403 . S
C2721 C2722 1.392 . S
C2721 C2725 1.495 . S
C2722 C2721 1.392 . S
C2722 C2723 1.385 . S
C2722 C2724 1.478 . S
C2723 H2717 0.930 . S
C2723 C2719 1.400 . S
C2723 C2722 1.385 . S
C2724 C2722 1.478 . S
C2724 C2726 1.381 . S
C2724 C2730 1.383 . S
C2725 C2721 1.495 . S
C2725 H2731 0.959 . S
C2725 H2732 0.961 . S
C2725 H2733 0.960 . S
C2726 C2724 1.381 . S
C2726 C2727 1.394 . S
C2726 H2734 0.930 . S
C2727 C2726 1.394 . S
C2727 C2728 1.383 . S
C2727 H2735 0.929 . S
C2728 C2727 1.383 . S
C2728 C2729 1.377 . S
C2729 H2713 0.930 . S
C2729 C2728 1.377 . S
C2729 C2730 1.379 . S
C2730 H2714 0.931 . S
C2730 C2724 1.383 . S
C2730 C2729 1.379 . S
H2731 C2725 0.959 . S
H2732 C2725 0.961 . S
H2733 C2725 0.960 . S
H2734 C2726 0.930 . S
H2735 C2727 0.929 . S
H2736 C2744 0.929 . S
H2737 C2746 0.930 . S
H2738 C2748 0.930 . S
H2739 C2751 0.929 . S
H2740 C2754 0.930 . S
H2741 C2756 0.960 . S
H2742 C2756 0.960 . S
H2743 C2756 0.960 . S
C2744 H2736 0.929 . S
C2744 C2745 1.377 . S
C2744 C2746 1.384 . S
C2745 C2744 1.377 . S
C2745 C2751 1.390 . S
C2746 H2737 0.930 . S
C2746 C2744 1.384 . S
C2746 C2747 1.372 . S
C2747 C2746 1.372 . S
C2747 C2748 1.400 . S
C2747 C2752 1.490 . S
C2748 H2738 0.930 . S
C2748 C2747 1.400 . S
C2748 C2751 1.386 . S
H2749 C2765 0.930 . S
H2750 C2766 0.931 . S
C2751 H2739 0.929 . S
C2751 C2745 1.390 . S
C2751 C2748 1.386 . S
C2752 C2747 1.490 . S
C2752 C2754 1.395 . S
C2752 C2755 1.403 . S
H2753 C2759 0.930 . S
C2754 H2740 0.930 . S
C2754 C2752 1.395 . S
C2754 C2757 1.403 . S
C2755 C2752 1.403 . S
C2755 C2756 1.524 . S
C2755 C2759 1.400 . S
C2756 H2741 0.960 . S
C2756 H2742 0.960 . S
C2756 H2743 0.960 . S
C2756 C2755 1.524 . S
C2757 C2754 1.403 . S
C2757 C2758 1.392 . S
C2757 C2761 1.495 . S
C2758 C2757 1.392 . S
C2758 C2759 1.385 . S
C2758 C2760 1.478 . S
C2759 H2753 0.930 . S
C2759 C2755 1.400 . S
C2759 C2758 1.385 . S
C2760 C2758 1.478 . S
C2760 C2762 1.381 . S
C2760 C2766 1.383 . S
C2761 C2757 1.495 . S
C2761 H2767 0.959 . S
C2761 H2768 0.961 . S
C2761 H2769 0.960 . S
C2762 C2760 1.381 . S
C2762 C2763 1.394 . S
C2762 H2770 0.930 . S
C2763 C2762 1.394 . S
C2763 C2764 1.383 . S
C2763 H2771 0.929 . S
C2764 C2763 1.383 . S
C2764 C2765 1.377 . S
C2765 H2749 0.930 . S
C2765 C2764 1.377 . S
C2765 C2766 1.379 . S
C2766 H2750 0.931 . S
C2766 C2760 1.383 . S
C2766 C2765 1.379 . S
H2767 C2761 0.959 . S
H2768 C2761 0.961 . S
H2769 C2761 0.960 . S
H2770 C2762 0.930 . S
H2771 C2763 0.929 . S
H2772 C2780 0.929 . S
H2773 C2782 0.930 1_554 S
H2774 C2784 0.930 . S
H2775 C2787 0.929 . S
H2776 C2790 0.930 . S
H2777 C2792 0.960 . S
H2778 C2792 0.960 . S
H2779 C2792 0.960 . S
C2780 H2772 0.929 . S
C2780 C2781 1.377 1_554 S
C2780 C2782 1.384 1_554 S
C2781 C2780 1.377 1_556 S
C2781 C2787 1.390 . S
C2782 H2773 0.930 1_556 S
C2782 C2780 1.384 1_556 S
C2782 C2783 1.372 . S
C2783 C2782 1.372 . S
C2783 C2784 1.400 . S
C2783 C2788 1.490 . S
C2784 H2774 0.930 . S
C2784 C2783 1.400 . S
C2784 C2787 1.386 . S
H2785 C2801 0.930 . S
H2786 C2802 0.931 . S
C2787 H2775 0.929 . S
C2787 C2781 1.390 . S
C2787 C2784 1.386 . S
C2788 C2783 1.490 . S
C2788 C2790 1.395 . S
C2788 C2791 1.403 . S
H2789 C2795 0.930 . S
C2790 H2776 0.930 . S
C2790 C2788 1.395 . S
C2790 C2793 1.403 . S
C2791 C2788 1.403 . S
C2791 C2792 1.524 . S
C2791 C2795 1.400 . S
C2792 H2777 0.960 . S
C2792 H2778 0.960 . S
C2792 H2779 0.960 . S
C2792 C2791 1.524 . S
C2793 C2790 1.403 . S
C2793 C2794 1.392 . S
C2793 C2797 1.495 . S
C2794 C2793 1.392 . S
C2794 C2795 1.385 . S
C2794 C2796 1.478 . S
C2795 H2789 0.930 . S
C2795 C2791 1.400 . S
C2795 C2794 1.385 . S
C2796 C2794 1.478 . S
C2796 C2798 1.381 . S
C2796 C2802 1.383 . S
C2797 C2793 1.495 . S
C2797 H2803 0.959 . S
C2797 H2804 0.961 . S
C2797 H2805 0.960 . S
C2798 C2796 1.381 . S
C2798 C2799 1.394 . S
C2798 H2806 0.930 . S
C2799 C2798 1.394 . S
C2799 C2800 1.383 . S
C2799 H2807 0.929 . S
C2800 C2799 1.383 . S
C2800 C2801 1.377 . S
C2801 H2785 0.930 . S
C2801 C2800 1.377 . S
C2801 C2802 1.379 . S
C2802 H2786 0.931 . S
C2802 C2796 1.383 . S
C2802 C2801 1.379 . S
H2803 C2797 0.959 . S
H2804 C2797 0.961 . S
H2805 C2797 0.960 . S
H2806 C2798 0.930 . S
H2807 C2799 0.929 . S
H2808 C2816 0.929 1_554 S
H2809 C2818 0.930 . S
H2810 C2820 0.930 . S
H2811 C2823 0.929 . S
H2812 C2826 0.930 . S
H2813 C2828 0.960 . S
H2814 C2828 0.960 1_554 S
H2815 C2828 0.960 . S
C2816 H2808 0.929 1_556 S
C2816 C2817 1.377 . S
C2816 C2818 1.384 . S
C2817 C2816 1.377 . S
C2817 C2823 1.390 . S
C2818 H2809 0.930 . S
C2818 C2816 1.384 . S
C2818 C2819 1.372 . S
C2819 C2818 1.372 . S
C2819 C2820 1.400 . S
C2819 C2824 1.490 . S
C2820 H2810 0.930 . S
C2820 C2819 1.400 . S
C2820 C2823 1.386 . S
H2821 C2837 0.930 . S
H2822 C2838 0.931 . S
C2823 H2811 0.929 . S
C2823 C2817 1.390 . S
C2823 C2820 1.386 . S
C2824 C2819 1.490 . S
C2824 C2826 1.395 . S
C2824 C2827 1.403 . S
H2825 C2831 0.930 . S
C2826 H2812 0.930 . S
C2826 C2824 1.395 . S
C2826 C2829 1.403 . S
C2827 C2824 1.403 . S
C2827 C2828 1.524 . S
C2827 C2831 1.400 . S
C2828 H2813 0.960 . S
C2828 H2814 0.960 1_556 S
C2828 H2815 0.960 . S
C2828 C2827 1.524 . S
C2829 C2826 1.403 . S
C2829 C2830 1.392 . S
C2829 C2833 1.495 . S
C2830 C2829 1.392 . S
C2830 C2831 1.385 . S
C2830 C2832 1.478 . S
C2831 H2825 0.930 . S
C2831 C2827 1.400 . S
C2831 C2830 1.385 . S
C2832 C2830 1.478 . S
C2832 C2834 1.381 . S
C2832 C2838 1.383 . S
C2833 C2829 1.495 . S
C2833 H2839 0.959 . S
C2833 H2840 0.961 . S
C2833 H2841 0.960 . S
C2834 C2832 1.381 . S
C2834 C2835 1.394 . S
C2834 H2842 0.930 . S
C2835 C2834 1.394 . S
C2835 C2836 1.383 . S
C2835 H2843 0.929 . S
C2836 C2835 1.383 . S
C2836 C2837 1.377 . S
C2837 H2821 0.930 . S
C2837 C2836 1.377 . S
C2837 C2838 1.379 . S
C2838 H2822 0.931 . S
C2838 C2832 1.383 . S
C2838 C2837 1.379 . S
H2839 C2833 0.959 . S
H2840 C2833 0.961 . S
H2841 C2833 0.960 . S
H2842 C2834 0.930 . S
H2843 C2835 0.929 . S
H2844 C2852 0.929 . S
H2845 C2854 0.930 . S
H2846 C2856 0.920 1_554 S
H2847 C2859 0.929 . S
H2848 C2862 0.930 . S
H2849 C2864 0.960 . S
H2850 C2864 0.960 . S
H2851 C2864 0.960 . S
C2852 H2844 0.929 . S
C2852 C2853 1.377 . S
C2852 C2854 1.384 . S
C2853 C2852 1.377 . S
C2853 C2859 1.390 1_556 S
C2854 H2845 0.930 . S
C2854 C2852 1.384 . S
C2854 C2855 1.372 . S
C2855 C2854 1.372 . S
C2855 C2856 1.400 . S
C2855 C2860 1.490 . S
C2856 H2846 0.920 1_556 S
C2856 C2855 1.400 . S
C2856 C2859 1.386 1_556 S
H2857 C2873 0.930 . S
H2858 C2874 0.931 . S
C2859 H2847 0.929 . S
C2859 C2853 1.390 1_554 S
C2859 C2856 1.386 1_554 S
C2860 C2855 1.490 . S
C2860 C2862 1.395 . S
C2860 C2863 1.403 . S
H2861 C2867 0.930 . S
C2862 H2848 0.930 . S
C2862 C2860 1.395 . S
C2862 C2865 1.403 . S
C2863 C2860 1.403 . S
C2863 C2864 1.524 . S
C2863 C2867 1.400 . S
C2864 H2849 0.960 . S
C2864 H2850 0.960 . S
C2864 H2851 0.960 . S
C2864 C2863 1.524 . S
C2865 C2862 1.403 . S
C2865 C2866 1.392 . S
C2865 C2869 1.495 . S
C2866 C2865 1.392 . S
C2866 C2867 1.385 . S
C2866 C2868 1.478 . S
C2867 H2861 0.930 . S
C2867 C2863 1.400 . S
C2867 C2866 1.385 . S
C2868 C2866 1.478 . S
C2868 C2870 1.381 . S
C2868 C2874 1.383 . S
C2869 C2865 1.495 . S
C2869 H2875 0.959 . S
C2869 H2876 0.961 . S
C2869 H2877 0.960 . S
C2870 C2868 1.381 . S
C2870 C2871 1.394 . S
C2870 H2878 0.930 . S
C2871 C2870 1.394 . S
C2871 C2872 1.383 . S
C2871 H2879 0.929 . S
C2872 C2871 1.383 . S
C2872 C2873 1.377 . S
C2873 H2857 0.930 . S
C2873 C2872 1.377 . S
C2873 C2874 1.379 . S
C2874 H2858 0.931 . S
C2874 C2868 1.383 . S
C2874 C2873 1.379 . S
H2875 C2869 0.959 . S
H2876 C2869 0.961 . S
H2877 C2869 0.960 . S
H2878 C2870 0.930 . S
H2879 C2871 0.929 . S
H2880 C2888 0.929 . S
H2881 C2890 0.930 . S
H2882 C2892 0.930 . S
H2883 C2895 0.929 . S
H2884 C2898 0.930 . S
H2885 C2900 0.959 . S
H2886 C2900 0.957 . S
H2887 C2900 0.959 . S
C2888 H2880 0.929 . S
C2888 C2889 1.377 . S
C2888 C2890 1.384 . S
C2889 C2888 1.377 . S
C2889 C2895 1.390 . S
C2890 H2881 0.930 . S
C2890 C2888 1.384 . S
C2890 C2891 1.372 . S
C2891 C2890 1.372 . S
C2891 C2892 1.400 . S
C2891 C2896 1.490 . S
C2892 H2882 0.930 . S
C2892 C2891 1.400 . S
C2892 C2895 1.386 . S
H2893 C2909 0.930 . S
H2894 C2910 0.931 . S
C2895 H2883 0.929 . S
C2895 C2889 1.390 . S
C2895 C2892 1.386 . S
C2896 C2891 1.490 . S
C2896 C2898 1.395 . S
C2896 C2899 1.403 . S
H2897 C2903 0.930 . S
C2898 H2884 0.930 . S
C2898 C2896 1.395 . S
C2898 C2901 1.403 . S
C2899 C2896 1.403 . S
C2899 C2900 1.528 1_556 S
C2899 C2903 1.400 . S
C2900 H2885 0.959 . S
C2900 H2886 0.957 . S
C2900 H2887 0.959 . S
C2900 C2899 1.528 1_554 S
C2901 C2898 1.403 . S
C2901 C2902 1.392 . S
C2901 C2905 1.495 . S
C2902 C2901 1.392 . S
C2902 C2903 1.385 . S
C2902 C2904 1.478 . S
C2903 H2897 0.930 . S
C2903 C2899 1.400 . S
C2903 C2902 1.385 . S
C2904 C2902 1.478 . S
C2904 C2906 1.381 . S
C2904 C2910 1.383 . S
C2905 C2901 1.495 . S
C2905 H2911 0.959 . S
C2905 H2912 0.961 . S
C2905 H2913 0.960 . S
C2906 C2904 1.381 . S
C2906 C2907 1.394 . S
C2906 H2914 0.930 . S
C2907 C2906 1.394 . S
C2907 C2908 1.383 . S
C2907 H2915 0.929 . S
C2908 C2907 1.383 . S
C2908 C2909 1.377 . S
C2909 H2893 0.930 . S
C2909 C2908 1.377 . S
C2909 C2910 1.379 . S
C2910 H2894 0.931 . S
C2910 C2904 1.383 . S
C2910 C2909 1.379 . S
H2911 C2905 0.959 . S
H2912 C2905 0.961 . S
H2913 C2905 0.960 . S
H2914 C2906 0.930 . S
H2915 C2907 0.929 . S
H2916 C2924 0.929 . S
H2917 C2926 0.930 1_554 S
H2918 C2928 0.930 . S
H2919 C2931 0.929 . S
H2920 C2934 0.930 . S
H2921 C2936 0.960 . S
H2922 C2936 0.960 . S
H2923 C2936 0.960 . S
C2924 H2916 0.929 . S
C2924 C2925 1.377 1_554 S
C2924 C2926 1.384 1_554 S
C2925 C2924 1.377 1_556 S
C2925 C2931 1.390 . S
C2926 H2917 0.930 1_556 S
C2926 C2924 1.384 1_556 S
C2926 C2927 1.372 . S
C2927 C2926 1.372 . S
C2927 C2928 1.400 . S
C2927 C2932 1.490 . S
C2928 H2918 0.930 . S
C2928 C2927 1.400 . S
C2928 C2931 1.386 . S
H2929 C2945 0.930 . S
H2930 C2946 0.931 . S
C2931 H2919 0.929 . S
C2931 C2925 1.390 . S
C2931 C2928 1.386 . S
C2932 C2927 1.490 . S
C2932 C2934 1.395 . S
C2932 C2935 1.403 . S
H2933 C2939 0.930 . S
C2934 H2920 0.930 . S
C2934 C2932 1.395 . S
C2934 C2937 1.403 . S
C2935 C2932 1.403 . S
C2935 C2936 1.524 . S
C2935 C2939 1.400 . S
C2936 H2921 0.960 . S
C2936 H2922 0.960 . S
C2936 H2923 0.960 . S
C2936 C2935 1.524 . S
C2937 C2934 1.403 . S
C2937 C2938 1.392 . S
C2937 C2941 1.495 . S
C2938 C2937 1.392 . S
C2938 C2939 1.385 . S
C2938 C2940 1.478 . S
C2939 H2933 0.930 . S
C2939 C2935 1.400 . S
C2939 C2938 1.385 . S
C2940 C2938 1.478 . S
C2940 C2942 1.381 . S
C2940 C2946 1.383 . S
C2941 C2937 1.495 . S
C2941 H2947 0.959 . S
C2941 H2948 0.961 . S
C2941 H2949 0.960 . S
C2942 C2940 1.381 . S
C2942 C2943 1.394 . S
C2942 H2950 0.930 . S
C2943 C2942 1.394 . S
C2943 C2944 1.383 . S
C2943 H2951 0.929 . S
C2944 C2943 1.383 . S
C2944 C2945 1.377 . S
C2945 H2929 0.930 . S
C2945 C2944 1.377 . S
C2945 C2946 1.379 . S
C2946 H2930 0.931 . S
C2946 C2940 1.383 . S
C2946 C2945 1.379 . S
H2947 C2941 0.959 . S
H2948 C2941 0.961 . S
H2949 C2941 0.960 . S
H2950 C2942 0.930 . S
H2951 C2943 0.929 . S
H2952 C2960 0.929 . S
H2953 C2962 0.929 . S
H2954 C2964 0.930 . S
H2955 C2967 0.929 . S
H2956 C2970 0.930 . S
H2957 C2972 0.960 . S
H2958 C2972 0.960 . S
H2959 C2972 0.960 . S
C2960 H2952 0.929 . S
C2960 C2961 1.377 1_554 S
C2960 C2962 1.383 . S
C2961 C2960 1.377 1_556 S
C2961 C2967 1.390 . S
C2962 H2953 0.929 . S
C2962 C2960 1.383 . S
C2962 C2963 1.374 1_554 S
C2963 C2962 1.374 1_556 S
C2963 C2964 1.400 . S
C2963 C2968 1.490 . S
C2964 H2954 0.930 . S
C2964 C2963 1.400 . S
C2964 C2967 1.386 . S
H2965 C2981 0.930 . S
H2966 C2982 0.931 . S
C2967 H2955 0.929 . S
C2967 C2961 1.390 . S
C2967 C2964 1.386 . S
C2968 C2963 1.490 . S
C2968 C2970 1.395 . S
C2968 C2971 1.403 . S
H2969 C2975 0.930 . S
C2970 H2956 0.930 . S
C2970 C2968 1.395 . S
C2970 C2973 1.403 . S
C2971 C2968 1.403 . S
C2971 C2972 1.524 . S
C2971 C2975 1.400 . S
C2972 H2957 0.960 . S
C2972 H2958 0.960 . S
C2972 H2959 0.960 . S
C2972 C2971 1.524 . S
C2973 C2970 1.403 . S
C2973 C2974 1.392 . S
C2973 C2977 1.495 . S
C2974 C2973 1.392 . S
C2974 C2975 1.385 . S
C2974 C2976 1.478 . S
C2975 H2969 0.930 . S
C2975 C2971 1.400 . S
C2975 C2974 1.385 . S
C2976 C2974 1.478 . S
C2976 C2978 1.381 . S
C2976 C2982 1.383 . S
C2977 C2973 1.495 . S
C2977 H2983 0.959 . S
C2977 H2984 0.961 . S
C2977 H2985 0.960 . S
C2978 C2976 1.381 . S
C2978 C2979 1.394 . S
C2978 H2986 0.930 . S
C2979 C2978 1.394 . S
C2979 C2980 1.383 . S
C2979 H2987 0.929 . S
C2980 C2979 1.383 . S
C2980 C2981 1.377 . S
C2981 H2965 0.930 . S
C2981 C2980 1.377 . S
C2981 C2982 1.379 . S
C2982 H2966 0.931 . S
C2982 C2976 1.383 . S
C2982 C2981 1.379 . S
H2983 C2977 0.959 . S
H2984 C2977 0.961 . S
H2985 C2977 0.960 . S
H2986 C2978 0.930 . S
H2987 C2979 0.929 . S
H2988 C2996 0.929 . S
H2989 C2998 0.930 . S
H2990 C3000 0.930 . S
H2991 C3003 0.929 . S
H2992 C3006 0.930 . S
H2993 C3008 0.960 . S
H2994 C3008 0.960 . S
H2995 C3008 0.960 . S
C2996 H2988 0.929 . S
C2996 C2997 1.377 . S
C2996 C2998 1.384 . S
C2997 C2996 1.377 . S
C2997 C3003 1.390 . S
C2998 H2989 0.930 . S
C2998 C2996 1.384 . S
C2998 C2999 1.372 . S
C2999 C2998 1.372 . S
C2999 C3000 1.400 . S
C2999 C3004 1.490 . S
C3000 H2990 0.930 . S
C3000 C2999 1.400 . S
C3000 C3003 1.386 . S
H3001 C3017 0.930 . S
H3002 C3018 0.931 . S
C3003 H2991 0.929 . S
C3003 C2997 1.390 . S
C3003 C3000 1.386 . S
C3004 C2999 1.490 . S
C3004 C3006 1.395 . S
C3004 C3007 1.403 . S
H3005 C3011 0.930 . S
C3006 H2992 0.930 . S
C3006 C3004 1.395 . S
C3006 C3009 1.403 . S
C3007 C3004 1.403 . S
C3007 C3008 1.524 . S
C3007 C3011 1.400 . S
C3008 H2993 0.960 . S
C3008 H2994 0.960 . S
C3008 H2995 0.960 . S
C3008 C3007 1.524 . S
C3009 C3006 1.403 . S
C3009 C3010 1.392 . S
C3009 C3013 1.495 . S
C3010 C3009 1.392 . S
C3010 C3011 1.385 . S
C3010 C3012 1.478 . S
C3011 H3005 0.930 . S
C3011 C3007 1.400 . S
C3011 C3010 1.385 . S
C3012 C3010 1.478 . S
C3012 C3014 1.381 . S
C3012 C3018 1.383 . S
C3013 C3009 1.495 . S
C3013 H3019 0.959 . S
C3013 H3020 0.961 . S
C3013 H3021 0.960 . S
C3014 C3012 1.381 . S
C3014 C3015 1.394 . S
C3014 H3022 0.930 . S
C3015 C3014 1.394 . S
C3015 C3016 1.383 . S
C3015 H3023 0.929 . S
C3016 C3015 1.383 . S
C3016 C3017 1.377 . S
C3017 H3001 0.930 . S
C3017 C3016 1.377 . S
C3017 C3018 1.379 . S
C3018 H3002 0.931 . S
C3018 C3012 1.383 . S
C3018 C3017 1.379 . S
H3019 C3013 0.959 . S
H3020 C3013 0.961 . S
H3021 C3013 0.960 . S
H3022 C3014 0.930 . S
H3023 C3015 0.929 . S
H3024 C3032 0.929 . S
H3025 C3034 0.930 . S
H3026 C3036 0.930 . S
H3027 C3039 0.929 . S
H3028 C3042 0.930 . S
H3029 C3044 0.960 . S
H3030 C3044 0.960 . S
H3031 C3044 0.960 . S
C3032 H3024 0.929 . S
C3032 C3033 1.377 . S
C3032 C3034 1.384 . S
C3033 C3032 1.377 . S
C3033 C3039 1.390 . S
C3034 H3025 0.930 . S
C3034 C3032 1.384 . S
C3034 C3035 1.372 . S
C3035 C3034 1.372 . S
C3035 C3036 1.400 . S
C3035 C3040 1.490 . S
C3036 H3026 0.930 . S
C3036 C3035 1.400 . S
C3036 C3039 1.386 . S
H3037 C3053 0.930 . S
H3038 C3054 0.931 . S
C3039 H3027 0.929 . S
C3039 C3033 1.390 . S
C3039 C3036 1.386 . S
C3040 C3035 1.490 . S
C3040 C3042 1.395 . S
C3040 C3043 1.403 . S
H3041 C3047 0.930 . S
C3042 H3028 0.930 . S
C3042 C3040 1.395 . S
C3042 C3045 1.403 . S
C3043 C3040 1.403 . S
C3043 C3044 1.524 . S
C3043 C3047 1.400 . S
C3044 H3029 0.960 . S
C3044 H3030 0.960 . S
C3044 H3031 0.960 . S
C3044 C3043 1.524 . S
C3045 C3042 1.403 . S
C3045 C3046 1.392 . S
C3045 C3049 1.495 . S
C3046 C3045 1.392 . S
C3046 C3047 1.385 . S
C3046 C3048 1.478 . S
C3047 H3041 0.930 . S
C3047 C3043 1.400 . S
C3047 C3046 1.385 . S
C3048 C3046 1.478 . S
C3048 C3050 1.381 . S
C3048 C3054 1.383 . S
C3049 C3045 1.495 . S
C3049 H3055 0.959 . S
C3049 H3056 0.961 . S
C3049 H3057 0.960 . S
C3050 C3048 1.381 . S
C3050 C3051 1.394 . S
C3050 H3058 0.930 . S
C3051 C3050 1.394 . S
C3051 C3052 1.383 . S
C3051 H3059 0.929 . S
C3052 C3051 1.383 . S
C3052 C3053 1.377 . S
C3053 H3037 0.930 . S
C3053 C3052 1.377 . S
C3053 C3054 1.379 . S
C3054 H3038 0.931 . S
C3054 C3048 1.383 . S
C3054 C3053 1.379 . S
H3055 C3049 0.959 . S
H3056 C3049 0.961 . S
H3057 C3049 0.960 . S
H3058 C3050 0.930 . S
H3059 C3051 0.929 . S
H3060 C3068 0.929 . S
H3061 C3070 0.930 . S
H3062 C3072 0.930 . S
H3063 C3075 0.929 . S
H3064 C3078 0.930 . S
H3065 C3080 0.960 . S
H3066 C3080 0.960 . S
H3067 C3080 0.960 . S
C3068 H3060 0.929 . S
C3068 C3069 1.377 . S
C3068 C3070 1.384 . S
C3069 C3068 1.377 . S
C3069 C3075 1.390 . S
C3070 H3061 0.930 . S
C3070 C3068 1.384 . S
C3070 C3071 1.372 . S
C3071 C3070 1.372 . S
C3071 C3072 1.400 . S
C3071 C3076 1.490 . S
C3072 H3062 0.930 . S
C3072 C3071 1.400 . S
C3072 C3075 1.386 . S
H3073 C3089 0.930 . S
H3074 C3090 0.931 . S
C3075 H3063 0.929 . S
C3075 C3069 1.390 . S
C3075 C3072 1.386 . S
C3076 C3071 1.490 . S
C3076 C3078 1.395 . S
C3076 C3079 1.403 . S
H3077 C3083 0.930 . S
C3078 H3064 0.930 . S
C3078 C3076 1.395 . S
C3078 C3081 1.403 . S
C3079 C3076 1.403 . S
C3079 C3080 1.524 . S
C3079 C3083 1.400 . S
C3080 H3065 0.960 . S
C3080 H3066 0.960 . S
C3080 H3067 0.960 . S
C3080 C3079 1.524 . S
C3081 C3078 1.403 . S
C3081 C3082 1.392 . S
C3081 C3085 1.495 . S
C3082 C3081 1.392 . S
C3082 C3083 1.385 . S
C3082 C3084 1.478 . S
C3083 H3077 0.930 . S
C3083 C3079 1.400 . S
C3083 C3082 1.385 . S
C3084 C3082 1.478 . S
C3084 C3086 1.381 . S
C3084 C3090 1.383 . S
C3085 C3081 1.495 . S
C3085 H3091 0.959 . S
C3085 H3092 0.961 . S
C3085 H3093 0.960 . S
C3086 C3084 1.381 . S
C3086 C3087 1.394 . S
C3086 H3094 0.930 . S
C3087 C3086 1.394 . S
C3087 C3088 1.383 . S
C3087 H3095 0.929 . S
C3088 C3087 1.383 . S
C3088 C3089 1.377 . S
C3089 H3073 0.930 . S
C3089 C3088 1.377 . S
C3089 C3090 1.379 . S
C3090 H3074 0.931 . S
C3090 C3084 1.383 . S
C3090 C3089 1.379 . S
H3091 C3085 0.959 . S
H3092 C3085 0.961 . S
H3093 C3085 0.960 . S
H3094 C3086 0.930 . S
H3095 C3087 0.929 . S
H3096 C3104 0.929 . S
H3097 C3106 0.930 . S
H3098 C3108 0.930 . S
H3099 C3111 0.929 . S
H3100 C3114 0.930 . S
H3101 C3116 0.960 . S
H3102 C3116 0.960 . S
H3103 C3116 0.960 . S
C3104 H3096 0.929 . S
C3104 C3105 1.377 . S
C3104 C3106 1.384 . S
C3105 C3104 1.377 . S
C3105 C3111 1.390 . S
C3106 H3097 0.930 . S
C3106 C3104 1.384 . S
C3106 C3107 1.372 . S
C3107 C3106 1.372 . S
C3107 C3108 1.400 . S
C3107 C3112 1.490 . S
C3108 H3098 0.930 . S
C3108 C3107 1.400 . S
C3108 C3111 1.386 . S
H3109 C3125 0.930 . S
H3110 C3126 0.931 . S
C3111 H3099 0.929 . S
C3111 C3105 1.390 . S
C3111 C3108 1.386 . S
C3112 C3107 1.490 . S
C3112 C3114 1.395 . S
C3112 C3115 1.403 . S
H3113 C3119 0.930 . S
C3114 H3100 0.930 . S
C3114 C3112 1.395 . S
C3114 C3117 1.403 . S
C3115 C3112 1.403 . S
C3115 C3116 1.524 . S
C3115 C3119 1.400 . S
C3116 H3101 0.960 . S
C3116 H3102 0.960 . S
C3116 H3103 0.960 . S
C3116 C3115 1.524 . S
C3117 C3114 1.403 . S
C3117 C3118 1.392 . S
C3117 C3121 1.495 . S
C3118 C3117 1.392 . S
C3118 C3119 1.385 . S
C3118 C3120 1.478 . S
C3119 H3113 0.930 . S
C3119 C3115 1.400 . S
C3119 C3118 1.385 . S
C3120 C3118 1.478 . S
C3120 C3122 1.381 . S
C3120 C3126 1.383 . S
C3121 C3117 1.495 . S
C3121 H3127 0.959 . S
C3121 H3128 0.961 . S
C3121 H3129 0.960 . S
C3122 C3120 1.381 . S
C3122 C3123 1.394 . S
C3122 H3130 0.930 . S
C3123 C3122 1.394 . S
C3123 C3124 1.383 . S
C3123 H3131 0.929 . S
C3124 C3123 1.383 . S
C3124 C3125 1.377 . S
C3125 H3109 0.930 . S
C3125 C3124 1.377 . S
C3125 C3126 1.379 . S
C3126 H3110 0.931 . S
C3126 C3120 1.383 . S
C3126 C3125 1.379 . S
H3127 C3121 0.959 . S
H3128 C3121 0.961 . S
H3129 C3121 0.960 . S
H3130 C3122 0.930 . S
H3131 C3123 0.929 . S
H3132 C3140 0.929 . S
H3133 C3142 0.930 . S
H3134 C3144 0.930 . S
H3135 C3147 0.929 . S
H3136 C3150 0.930 . S
H3137 C3152 0.960 . S
H3138 C3152 0.960 . S
H3139 C3152 0.960 . S
C3140 H3132 0.929 . S
C3140 C3141 1.377 . S
C3140 C3142 1.384 . S
C3141 C3140 1.377 . S
C3141 C3147 1.390 . S
C3142 H3133 0.930 . S
C3142 C3140 1.384 . S
C3142 C3143 1.372 . S
C3143 C3142 1.372 . S
C3143 C3144 1.400 . S
C3143 C3148 1.490 . S
C3144 H3134 0.930 . S
C3144 C3143 1.400 . S
C3144 C3147 1.386 . S
H3145 C3161 0.930 . S
H3146 C3162 0.931 . S
C3147 H3135 0.929 . S
C3147 C3141 1.390 . S
C3147 C3144 1.386 . S
C3148 C3143 1.490 . S
C3148 C3150 1.395 . S
C3148 C3151 1.403 . S
H3149 C3155 0.930 . S
C3150 H3136 0.930 . S
C3150 C3148 1.395 . S
C3150 C3153 1.403 . S
C3151 C3148 1.403 . S
C3151 C3152 1.524 . S
C3151 C3155 1.400 . S
C3152 H3137 0.960 . S
C3152 H3138 0.960 . S
C3152 H3139 0.960 . S
C3152 C3151 1.524 . S
C3153 C3150 1.403 . S
C3153 C3154 1.392 . S
C3153 C3157 1.495 . S
C3154 C3153 1.392 . S
C3154 C3155 1.385 . S
C3154 C3156 1.478 . S
C3155 H3149 0.930 . S
C3155 C3151 1.400 . S
C3155 C3154 1.385 . S
C3156 C3154 1.478 . S
C3156 C3158 1.381 . S
C3156 C3162 1.383 . S
C3157 C3153 1.495 . S
C3157 H3163 0.959 . S
C3157 H3164 0.961 . S
C3157 H3165 0.960 . S
C3158 C3156 1.381 . S
C3158 C3159 1.394 . S
C3158 H3166 0.930 . S
C3159 C3158 1.394 . S
C3159 C3160 1.383 . S
C3159 H3167 0.929 . S
C3160 C3159 1.383 . S
C3160 C3161 1.377 . S
C3161 H3145 0.930 . S
C3161 C3160 1.377 . S
C3161 C3162 1.379 . S
C3162 H3146 0.931 . S
C3162 C3156 1.383 . S
C3162 C3161 1.379 . S
H3163 C3157 0.959 . S
H3164 C3157 0.961 . S
H3165 C3157 0.960 . S
H3166 C3158 0.930 . S
H3167 C3159 0.929 . S
H3168 C3176 0.929 . S
H3169 C3178 0.930 . S
H3170 C3180 0.930 . S
H3171 C3183 0.929 . S
H3172 C3186 0.930 . S
H3173 C3188 0.960 . S
H3174 C3188 0.960 . S
H3175 C3188 0.960 . S
C3176 H3168 0.929 . S
C3176 C3177 1.377 . S
C3176 C3178 1.384 . S
C3177 C3176 1.377 . S
C3177 C3183 1.390 . S
C3178 H3169 0.930 . S
C3178 C3176 1.384 . S
C3178 C3179 1.372 . S
C3179 C3178 1.372 . S
C3179 C3180 1.400 . S
C3179 C3184 1.490 . S
C3180 H3170 0.930 . S
C3180 C3179 1.400 . S
C3180 C3183 1.386 . S
H3181 C3197 0.930 . S
H3182 C3198 0.931 . S
C3183 H3171 0.929 . S
C3183 C3177 1.390 . S
C3183 C3180 1.386 . S
C3184 C3179 1.490 . S
C3184 C3186 1.395 . S
C3184 C3187 1.403 . S
H3185 C3191 0.930 . S
C3186 H3172 0.930 . S
C3186 C3184 1.395 . S
C3186 C3189 1.403 . S
C3187 C3184 1.403 . S
C3187 C3188 1.524 . S
C3187 C3191 1.400 . S
C3188 H3173 0.960 . S
C3188 H3174 0.960 . S
C3188 H3175 0.960 . S
C3188 C3187 1.524 . S
C3189 C3186 1.403 . S
C3189 C3190 1.392 . S
C3189 C3193 1.495 . S
C3190 C3189 1.392 . S
C3190 C3191 1.385 . S
C3190 C3192 1.478 . S
C3191 H3185 0.930 . S
C3191 C3187 1.400 . S
C3191 C3190 1.385 . S
C3192 C3190 1.478 . S
C3192 C3194 1.381 . S
C3192 C3198 1.383 . S
C3193 C3189 1.495 . S
C3193 H3199 0.959 . S
C3193 H3200 0.961 . S
C3193 H3201 0.960 . S
C3194 C3192 1.381 . S
C3194 C3195 1.394 . S
C3194 H3202 0.930 . S
C3195 C3194 1.394 . S
C3195 C3196 1.383 . S
C3195 H3203 0.929 . S
C3196 C3195 1.383 . S
C3196 C3197 1.377 . S
C3197 H3181 0.930 . S
C3197 C3196 1.377 . S
C3197 C3198 1.379 . S
C3198 H3182 0.931 . S
C3198 C3192 1.383 . S
C3198 C3197 1.379 . S
H3199 C3193 0.959 . S
H3200 C3193 0.961 . S
H3201 C3193 0.960 . S
H3202 C3194 0.930 . S
H3203 C3195 0.929 . S
H3204 C3212 0.929 . S
H3205 C3214 0.930 . S
H3206 C3216 0.930 . S
H3207 C3219 0.929 . S
H3208 C3222 0.930 1_655 S
H3209 C3224 0.960 . S
H3210 C3224 0.960 . S
H3211 C3224 0.960 . S
C3212 H3204 0.929 . S
C3212 C3213 1.377 . S
C3212 C3214 1.384 . S
C3213 C3212 1.377 . S
C3213 C3219 1.390 . S
C3214 H3205 0.930 . S
C3214 C3212 1.384 . S
C3214 C3215 1.372 . S
C3215 C3214 1.372 . S
C3215 C3216 1.400 . S
C3215 C3220 1.490 . S
C3216 H3206 0.930 . S
C3216 C3215 1.400 . S
C3216 C3219 1.386 . S
H3217 C3233 0.930 . S
H3218 C3234 0.931 . S
C3219 H3207 0.929 . S
C3219 C3213 1.390 . S
C3219 C3216 1.386 . S
C3220 C3215 1.490 . S
C3220 C3222 1.395 . S
C3220 C3223 1.403 . S
H3221 C3227 0.930 . S
C3222 H3208 0.930 1_455 S
C3222 C3220 1.395 . S
C3222 C3225 1.371 1_455 S
C3223 C3220 1.403 . S
C3223 C3224 1.524 . S
C3223 C3227 1.400 . S
C3224 H3209 0.960 . S
C3224 H3210 0.960 . S
C3224 H3211 0.960 . S
C3224 C3223 1.524 . S
C3225 C3222 1.371 1_655 S
C3225 C3226 1.376 1_655 S
C3225 C3229 1.544 . S
C3226 C3225 1.376 1_455 S
C3226 C3227 1.385 . S
C3226 C3228 1.478 . S
C3227 H3221 0.930 . S
C3227 C3223 1.400 . S
C3227 C3226 1.385 . S
C3228 C3226 1.478 . S
C3228 C3230 1.381 . S
C3228 C3234 1.383 . S
C3229 C3225 1.544 . S
C3229 H3235 0.959 . S
C3229 H3236 0.961 . S
C3229 H3237 0.960 . S
C3230 C3228 1.381 . S
C3230 C3231 1.395 1_455 S
C3230 H3238 0.930 1_455 S
C3231 C3230 1.395 1_655 S
C3231 C3232 1.383 1_655 S
C3231 H3239 0.929 . S
C3232 C3231 1.383 1_455 S
C3232 C3233 1.377 . S
C3233 H3217 0.930 . S
C3233 C3232 1.377 . S
C3233 C3234 1.379 . S
C3234 H3218 0.931 . S
C3234 C3228 1.383 . S
C3234 C3233 1.379 . S
H3235 C3229 0.959 . S
H3236 C3229 0.961 . S
H3237 C3229 0.960 . S
H3238 C3230 0.930 1_655 S
H3239 C3231 0.929 . S
H3240 C3248 0.929 . S
H3241 C3250 0.930 . S
H3242 C3252 0.930 . S
H3243 C3255 0.929 . S
H3244 C3258 0.930 . S
H3245 C3260 0.960 . S
H3246 C3260 0.960 . S
H3247 C3260 0.960 . S
C3248 H3240 0.929 . S
C3248 C3249 1.377 . S
C3248 C3250 1.384 . S
C3249 C3248 1.377 . S
C3249 C3255 1.390 . S
C3250 H3241 0.930 . S
C3250 C3248 1.384 . S
C3250 C3251 1.372 . S
C3251 C3250 1.372 . S
C3251 C3252 1.400 . S
C3251 C3256 1.490 . S
C3252 H3242 0.930 . S
C3252 C3251 1.400 . S
C3252 C3255 1.386 . S
H3253 C3269 0.930 . S
H3254 C3270 0.931 . S
C3255 H3243 0.929 . S
C3255 C3249 1.390 . S
C3255 C3252 1.386 . S
C3256 C3251 1.490 . S
C3256 C3258 1.395 . S
C3256 C3259 1.403 . S
H3257 C3263 0.930 . S
C3258 H3244 0.930 . S
C3258 C3256 1.395 . S
C3258 C3261 1.403 . S
C3259 C3256 1.403 . S
C3259 C3260 1.524 . S
C3259 C3263 1.400 . S
C3260 H3245 0.960 . S
C3260 H3246 0.960 . S
C3260 H3247 0.960 . S
C3260 C3259 1.524 . S
C3261 C3258 1.403 . S
C3261 C3262 1.392 . S
C3261 C3265 1.495 . S
C3262 C3261 1.392 . S
C3262 C3263 1.385 . S
C3262 C3264 1.478 . S
C3263 H3257 0.930 . S
C3263 C3259 1.400 . S
C3263 C3262 1.385 . S
C3264 C3262 1.478 . S
C3264 C3266 1.381 . S
C3264 C3270 1.383 . S
C3265 C3261 1.495 . S
C3265 H3271 0.959 . S
C3265 H3272 0.961 . S
C3265 H3273 0.960 . S
C3266 C3264 1.381 . S
C3266 C3267 1.394 . S
C3266 H3274 0.930 . S
C3267 C3266 1.394 . S
C3267 C3268 1.383 . S
C3267 H3275 0.929 . S
C3268 C3267 1.383 . S
C3268 C3269 1.377 . S
C3269 H3253 0.930 . S
C3269 C3268 1.377 . S
C3269 C3270 1.379 . S
C3270 H3254 0.931 . S
C3270 C3264 1.383 . S
C3270 C3269 1.379 . S
H3271 C3265 0.959 . S
H3272 C3265 0.961 . S
H3273 C3265 0.960 . S
H3274 C3266 0.930 . S
H3275 C3267 0.929 . S
H3276 C3284 1.001 . S
H3277 C3286 0.930 1_545 S
H3278 C3288 0.930 . S
H3279 C3291 0.929 . S
H3280 C3294 0.930 . S
H3281 C3296 0.960 . S
H3282 C3296 0.960 . S
H3283 C3296 0.960 . S
C3284 H3276 1.001 . S
C3284 C3285 1.377 . S
C3284 C3286 1.384 . S
C3285 C3284 1.377 . S
C3285 C3291 1.390 . S
C3286 H3277 0.930 1_565 S
C3286 C3284 1.384 . S
C3286 C3287 1.372 . S
C3287 C3286 1.372 . S
C3287 C3288 1.400 . S
C3287 C3292 1.490 . S
C3288 H3278 0.930 . S
C3288 C3287 1.400 . S
C3288 C3291 1.386 . S
H3289 C3305 0.930 . S
H3290 C3306 0.931 . S
C3291 H3279 0.929 . S
C3291 C3285 1.390 . S
C3291 C3288 1.386 . S
C3292 C3287 1.490 . S
C3292 C3294 1.395 . S
C3292 C3295 1.403 . S
H3293 C3299 0.930 . S
C3294 H3280 0.930 . S
C3294 C3292 1.395 . S
C3294 C3297 1.403 . S
C3295 C3292 1.403 . S
C3295 C3296 1.524 . S
C3295 C3299 1.400 . S
C3296 H3281 0.960 . S
C3296 H3282 0.960 . S
C3296 H3283 0.960 . S
C3296 C3295 1.524 . S
C3297 C3294 1.403 . S
C3297 C3298 1.392 . S
C3297 C3301 1.495 . S
C3298 C3297 1.392 . S
C3298 C3299 1.385 . S
C3298 C3300 1.478 . S
C3299 H3293 0.930 . S
C3299 C3295 1.400 . S
C3299 C3298 1.385 . S
C3300 C3298 1.478 . S
C3300 C3302 1.381 1_565 S
C3300 C3306 1.383 . S
C3301 C3297 1.495 . S
C3301 H3307 0.959 . S
C3301 H3308 0.961 . S
C3301 H3309 0.960 . S
C3302 C3300 1.381 1_545 S
C3302 C3303 1.394 . S
C3302 H3310 0.930 . S
C3303 C3302 1.394 . S
C3303 C3304 1.383 1_545 S
C3303 H3311 0.929 . S
C3304 C3303 1.383 1_565 S
C3304 C3305 1.377 . S
C3305 H3289 0.930 . S
C3305 C3304 1.377 . S
C3305 C3306 1.379 . S
C3306 H3290 0.931 . S
C3306 C3300 1.383 . S
C3306 C3305 1.379 . S
H3307 C3301 0.959 . S
H3308 C3301 0.961 . S
H3309 C3301 0.960 . S
H3310 C3302 0.930 . S
H3311 C3303 0.929 . S
H3312 C3320 0.919 1_545 S
H3313 C3322 0.930 1_545 S
H3314 C3324 0.930 . S
H3315 C3327 0.929 . S
H3316 C3330 0.930 . S
H3317 C3332 0.960 . S
H3318 C3332 0.960 . S
H3319 C3332 0.960 . S
C3320 H3312 0.919 1_565 S
C3320 C3321 1.377 . S
C3320 C3322 1.384 . S
C3321 C3320 1.377 . S
C3321 C3327 1.390 . S
C3322 H3313 0.930 1_565 S
C3322 C3320 1.384 . S
C3322 C3323 1.372 . S
C3323 C3322 1.372 . S
C3323 C3324 1.400 . S
C3323 C3328 1.490 . S
C3324 H3314 0.930 . S
C3324 C3323 1.400 . S
C3324 C3327 1.386 . S
H3325 C3341 0.930 . S
H3326 C3342 0.931 . S
C3327 H3315 0.929 . S
C3327 C3321 1.390 . S
C3327 C3324 1.386 . S
C3328 C3323 1.490 . S
C3328 C3330 1.395 . S
C3328 C3331 1.403 . S
H3329 C3335 0.930 . S
C3330 H3316 0.930 . S
C3330 C3328 1.395 . S
C3330 C3333 1.403 . S
C3331 C3328 1.403 . S
C3331 C3332 1.524 . S
C3331 C3335 1.400 . S
C3332 H3317 0.960 . S
C3332 H3318 0.960 . S
C3332 H3319 0.960 . S
C3332 C3331 1.524 . S
C3333 C3330 1.403 . S
C3333 C3334 1.392 . S
C3333 C3337 1.495 1_565 S
C3334 C3333 1.392 . S
C3334 C3335 1.385 . S
C3334 C3336 1.478 . S
C3335 H3329 0.930 . S
C3335 C3331 1.400 . S
C3335 C3334 1.385 . S
C3336 C3334 1.478 . S
C3336 C3338 1.381 1_565 S
C3336 C3342 1.383 . S
C3337 C3333 1.495 1_545 S
C3337 H3343 0.959 . S
C3337 H3344 0.961 1_545 S
C3337 H3345 0.960 . S
C3338 C3336 1.381 1_545 S
C3338 C3339 1.394 . S
C3338 H3346 0.930 . S
C3339 C3338 1.394 . S
C3339 C3340 1.383 1_545 S
C3339 H3347 0.929 . S
C3340 C3339 1.383 1_565 S
C3340 C3341 1.377 . S
C3341 H3325 0.930 . S
C3341 C3340 1.377 . S
C3341 C3342 1.379 . S
C3342 H3326 0.931 . S
C3342 C3336 1.383 . S
C3342 C3341 1.379 . S
H3343 C3337 0.959 . S
H3344 C3337 0.961 1_565 S
H3345 C3337 0.960 . S
H3346 C3338 0.930 . S
H3347 C3339 0.929 . S
H3348 C3356 0.929 . S
H3349 C3358 0.978 . S
H3350 C3360 0.930 . S
H3351 C3363 0.929 . S
H3352 C3366 0.930 . S
H3353 C3368 0.960 . S
H3354 C3368 0.960 . S
H3355 C3368 0.960 . S
C3356 H3348 0.929 . S
C3356 C3357 1.377 . S
C3356 C3358 1.384 . S
C3357 C3356 1.377 . S
C3357 C3363 1.390 . S
C3358 H3349 0.978 . S
C3358 C3356 1.384 . S
C3358 C3359 1.372 . S
C3359 C3358 1.372 . S
C3359 C3360 1.400 . S
C3359 C3364 1.490 . S
C3360 H3350 0.930 . S
C3360 C3359 1.400 . S
C3360 C3363 1.386 . S
H3361 C3377 0.930 . S
H3362 C3378 0.931 . S
C3363 H3351 0.929 . S
C3363 C3357 1.390 . S
C3363 C3360 1.386 . S
C3364 C3359 1.490 . S
C3364 C3366 1.395 . S
C3364 C3367 1.403 . S
H3365 C3371 0.930 . S
C3366 H3352 0.930 . S
C3366 C3364 1.395 . S
C3366 C3369 1.403 . S
C3367 C3364 1.403 . S
C3367 C3368 1.524 . S
C3367 C3371 1.400 . S
C3368 H3353 0.960 . S
C3368 H3354 0.960 . S
C3368 H3355 0.960 . S
C3368 C3367 1.524 . S
C3369 C3366 1.403 . S
C3369 C3370 1.392 . S
C3369 C3373 1.495 . S
C3370 C3369 1.392 . S
C3370 C3371 1.385 . S
C3370 C3372 1.478 . S
C3371 H3365 0.930 . S
C3371 C3367 1.400 . S
C3371 C3370 1.385 . S
C3372 C3370 1.478 . S
C3372 C3374 1.381 1_455 S
C3372 C3378 1.383 . S
C3373 C3369 1.495 . S
C3373 H3379 0.959 . S
C3373 H3380 0.961 . S
C3373 H3381 0.960 . S
C3374 C3372 1.381 1_655 S
C3374 C3375 1.394 . S
C3374 H3382 0.930 . S
C3375 C3374 1.394 . S
C3375 C3376 1.383 1_655 S
C3375 H3383 0.929 . S
C3376 C3375 1.383 1_455 S
C3376 C3377 1.377 . S
C3377 H3361 0.930 . S
C3377 C3376 1.377 . S
C3377 C3378 1.379 . S
C3378 H3362 0.931 . S
C3378 C3372 1.383 . S
C3378 C3377 1.379 . S
H3379 C3373 0.959 . S
H3380 C3373 0.961 . S
H3381 C3373 0.960 . S
H3382 C3374 0.930 . S
H3383 C3375 0.929 . S
H3384 C3392 0.929 . S
H3385 C3394 0.930 . S
H3386 C3396 0.930 . S
H3387 C3399 0.929 . S
H3388 C3402 0.930 . S
H3389 C3404 0.960 . S
H3390 C3404 0.960 . S
H3391 C3404 0.960 . S
C3392 H3384 0.929 . S
C3392 C3393 1.377 . S
C3392 C3394 1.384 . S
C3393 C3392 1.377 . S
C3393 C3399 1.390 . S
C3394 H3385 0.930 . S
C3394 C3392 1.384 . S
C3394 C3395 1.372 . S
C3395 C3394 1.372 . S
C3395 C3396 1.400 . S
C3395 C3400 1.490 . S
C3396 H3386 0.930 . S
C3396 C3395 1.400 . S
C3396 C3399 1.386 . S
H3397 C3413 0.930 . S
H3398 C3414 0.931 . S
C3399 H3387 0.929 . S
C3399 C3393 1.390 . S
C3399 C3396 1.386 . S
C3400 C3395 1.490 . S
C3400 C3402 1.395 . S
C3400 C3403 1.403 . S
H3401 C3407 0.930 . S
C3402 H3388 0.930 . S
C3402 C3400 1.395 . S
C3402 C3405 1.403 . S
C3403 C3400 1.403 . S
C3403 C3404 1.524 . S
C3403 C3407 1.400 . S
C3404 H3389 0.960 . S
C3404 H3390 0.960 . S
C3404 H3391 0.960 . S
C3404 C3403 1.524 . S
C3405 C3402 1.403 . S
C3405 C3406 1.392 . S
C3405 C3409 1.495 . S
C3406 C3405 1.392 . S
C3406 C3407 1.385 . S
C3406 C3408 1.478 . S
C3407 H3401 0.930 . S
C3407 C3403 1.400 . S
C3407 C3406 1.385 . S
C3408 C3406 1.478 . S
C3408 C3410 1.381 . S
C3408 C3414 1.383 . S
C3409 C3405 1.495 . S
C3409 H3415 0.959 . S
C3409 H3416 0.961 . S
C3409 H3417 0.960 . S
C3410 C3408 1.381 . S
C3410 C3411 1.394 . S
C3410 H3418 0.930 . S
C3411 C3410 1.394 . S
C3411 C3412 1.383 . S
C3411 H3419 0.929 . S
C3412 C3411 1.383 . S
C3412 C3413 1.377 . S
C3413 H3397 0.930 . S
C3413 C3412 1.377 . S
C3413 C3414 1.379 . S
C3414 H3398 0.931 . S
C3414 C3408 1.383 . S
C3414 C3413 1.379 . S
H3415 C3409 0.959 . S
H3416 C3409 0.961 . S
H3417 C3409 0.960 . S
H3418 C3410 0.930 . S
H3419 C3411 0.929 . S
H3420 C3428 0.929 . S
H3421 C3430 0.930 . S
H3422 C3432 0.930 . S
H3423 C3435 0.929 . S
H3424 C3438 0.930 . S
H3425 C3440 0.960 . S
H3426 C3440 0.960 . S
H3427 C3440 0.960 . S
C3428 H3420 0.929 . S
C3428 C3429 1.377 . S
C3428 C3430 1.384 . S
C3429 C3428 1.377 . S
C3429 C3435 1.390 . S
C3430 H3421 0.930 . S
C3430 C3428 1.384 . S
C3430 C3431 1.372 . S
C3431 C3430 1.372 . S
C3431 C3432 1.400 . S
C3431 C3436 1.490 . S
C3432 H3422 0.930 . S
C3432 C3431 1.400 . S
C3432 C3435 1.386 . S
H3433 C3449 0.930 . S
H3434 C3450 0.931 . S
C3435 H3423 0.929 . S
C3435 C3429 1.390 . S
C3435 C3432 1.386 . S
C3436 C3431 1.490 . S
C3436 C3438 1.395 . S
C3436 C3439 1.403 . S
H3437 C3443 0.930 . S
C3438 H3424 0.930 . S
C3438 C3436 1.395 . S
C3438 C3441 1.403 . S
C3439 C3436 1.403 . S
C3439 C3440 1.524 . S
C3439 C3443 1.400 . S
C3440 H3425 0.960 . S
C3440 H3426 0.960 . S
C3440 H3427 0.960 . S
C3440 C3439 1.524 . S
C3441 C3438 1.403 . S
C3441 C3442 1.392 . S
C3441 C3445 1.495 . S
C3442 C3441 1.392 . S
C3442 C3443 1.385 . S
C3442 C3444 1.478 . S
C3443 H3437 0.930 . S
C3443 C3439 1.400 . S
C3443 C3442 1.385 . S
C3444 C3442 1.478 . S
C3444 C3446 1.381 . S
C3444 C3450 1.383 . S
C3445 C3441 1.495 . S
C3445 H3451 0.959 . S
C3445 H3452 0.961 . S
C3445 H3453 0.960 . S
C3446 C3444 1.381 . S
C3446 C3447 1.394 . S
C3446 H3454 0.930 . S
C3447 C3446 1.394 . S
C3447 C3448 1.383 . S
C3447 H3455 0.929 . S
C3448 C3447 1.383 . S
C3448 C3449 1.377 . S
C3449 H3433 0.930 . S
C3449 C3448 1.377 . S
C3449 C3450 1.379 . S
C3450 H3434 0.931 . S
C3450 C3444 1.383 . S
C3450 C3449 1.379 . S
H3451 C3445 0.959 . S
H3452 C3445 0.961 . S
H3453 C3445 0.960 . S
H3454 C3446 0.930 . S
H3455 C3447 0.929 . S
H3456 C3464 0.929 . S
H3457 C3466 0.930 . S
H3458 C3468 0.930 . S
H3459 C3471 0.929 . S
H3460 C3474 0.930 . S
H3461 C3476 0.960 . S
H3462 C3476 0.960 . S
H3463 C3476 0.960 . S
C3464 H3456 0.929 . S
C3464 C3465 1.377 . S
C3464 C3466 1.384 . S
C3465 C3464 1.377 . S
C3465 C3471 1.390 . S
C3466 H3457 0.930 . S
C3466 C3464 1.384 . S
C3466 C3467 1.372 . S
C3467 C3466 1.372 . S
C3467 C3468 1.400 . S
C3467 C3472 1.490 . S
C3468 H3458 0.930 . S
C3468 C3467 1.400 . S
C3468 C3471 1.386 . S
H3469 C3485 0.930 . S
H3470 C3486 0.931 . S
C3471 H3459 0.929 . S
C3471 C3465 1.390 . S
C3471 C3468 1.386 . S
C3472 C3467 1.490 . S
C3472 C3474 1.395 . S
C3472 C3475 1.403 . S
H3473 C3479 0.930 . S
C3474 H3460 0.930 . S
C3474 C3472 1.395 . S
C3474 C3477 1.403 . S
C3475 C3472 1.403 . S
C3475 C3476 1.524 . S
C3475 C3479 1.400 . S
C3476 H3461 0.960 . S
C3476 H3462 0.960 . S
C3476 H3463 0.960 . S
C3476 C3475 1.524 . S
C3477 C3474 1.403 . S
C3477 C3478 1.392 . S
C3477 C3481 1.495 . S
C3478 C3477 1.392 . S
C3478 C3479 1.385 . S
C3478 C3480 1.478 . S
C3479 H3473 0.930 . S
C3479 C3475 1.400 . S
C3479 C3478 1.385 . S
C3480 C3478 1.478 . S
C3480 C3482 1.381 . S
C3480 C3486 1.383 . S
C3481 C3477 1.495 . S
C3481 H3487 0.959 . S
C3481 H3488 0.961 . S
C3481 H3489 0.960 . S
C3482 C3480 1.381 . S
C3482 C3483 1.394 . S
C3482 H3490 0.930 . S
C3483 C3482 1.394 . S
C3483 C3484 1.383 . S
C3483 H3491 0.929 . S
C3484 C3483 1.383 . S
C3484 C3485 1.377 . S
C3485 H3469 0.930 . S
C3485 C3484 1.377 . S
C3485 C3486 1.379 . S
C3486 H3470 0.931 . S
C3486 C3480 1.383 . S
C3486 C3485 1.379 . S
H3487 C3481 0.959 . S
H3488 C3481 0.961 . S
H3489 C3481 0.960 . S
H3490 C3482 0.930 . S
H3491 C3483 0.929 . S
H3492 C3500 0.929 . S
H3493 C3502 0.930 . S
H3494 C3504 0.930 . S
H3495 C3507 0.929 . S
H3496 C3510 0.930 . S
H3497 C3512 0.960 . S
H3498 C3512 0.960 . S
H3499 C3512 0.960 . S
C3500 H3492 0.929 . S
C3500 C3501 1.377 . S
C3500 C3502 1.384 . S
C3501 C3500 1.377 . S
C3501 C3507 1.390 . S
C3502 H3493 0.930 . S
C3502 C3500 1.384 . S
C3502 C3503 1.372 . S
C3503 C3502 1.372 . S
C3503 C3504 1.400 . S
C3503 C3508 1.490 . S
C3504 H3494 0.930 . S
C3504 C3503 1.400 . S
C3504 C3507 1.386 . S
H3505 C3521 0.930 . S
H3506 C3522 0.931 . S
C3507 H3495 0.929 . S
C3507 C3501 1.390 . S
C3507 C3504 1.386 . S
C3508 C3503 1.490 . S
C3508 C3510 1.395 . S
C3508 C3511 1.403 . S
H3509 C3515 0.930 . S
C3510 H3496 0.930 . S
C3510 C3508 1.395 . S
C3510 C3513 1.403 . S
C3511 C3508 1.403 . S
C3511 C3512 1.524 . S
C3511 C3515 1.400 . S
C3512 H3497 0.960 . S
C3512 H3498 0.960 . S
C3512 H3499 0.960 . S
C3512 C3511 1.524 . S
C3513 C3510 1.403 . S
C3513 C3514 1.392 . S
C3513 C3517 1.495 . S
C3514 C3513 1.392 . S
C3514 C3515 1.385 . S
C3514 C3516 1.478 . S
C3515 H3509 0.930 . S
C3515 C3511 1.400 . S
C3515 C3514 1.385 . S
C3516 C3514 1.478 . S
C3516 C3518 1.381 . S
C3516 C3522 1.383 . S
C3517 C3513 1.495 . S
C3517 H3523 0.959 . S
C3517 H3524 0.961 . S
C3517 H3525 0.960 . S
C3518 C3516 1.381 . S
C3518 C3519 1.394 . S
C3518 H3526 0.930 . S
C3519 C3518 1.394 . S
C3519 C3520 1.383 . S
C3519 H3527 0.929 . S
C3520 C3519 1.383 . S
C3520 C3521 1.377 . S
C3521 H3505 0.930 . S
C3521 C3520 1.377 . S
C3521 C3522 1.379 . S
C3522 H3506 0.931 . S
C3522 C3516 1.383 . S
C3522 C3521 1.379 . S
H3523 C3517 0.959 . S
H3524 C3517 0.961 . S
H3525 C3517 0.960 . S
H3526 C3518 0.930 . S
H3527 C3519 0.929 . S
H3528 C3536 0.929 . S
H3529 C3538 0.930 . S
H3530 C3540 0.930 . S
H3531 C3543 0.929 . S
H3532 C3546 0.930 . S
H3533 C3548 0.960 . S
H3534 C3548 0.960 . S
H3535 C3548 0.960 . S
C3536 H3528 0.929 . S
C3536 C3537 1.377 . S
C3536 C3538 1.384 . S
C3537 C3536 1.377 . S
C3537 C3543 1.390 . S
C3538 H3529 0.930 . S
C3538 C3536 1.384 . S
C3538 C3539 1.372 . S
C3539 C3538 1.372 . S
C3539 C3540 1.400 . S
C3539 C3544 1.490 . S
C3540 H3530 0.930 . S
C3540 C3539 1.400 . S
C3540 C3543 1.386 . S
H3541 C3557 0.930 . S
H3542 C3558 0.929 . S
C3543 H3531 0.929 . S
C3543 C3537 1.390 . S
C3543 C3540 1.386 . S
C3544 C3539 1.490 . S
C3544 C3546 1.395 . S
C3544 C3547 1.403 . S
H3545 C3551 0.930 . S
C3546 H3532 0.930 . S
C3546 C3544 1.395 . S
C3546 C3549 1.403 . S
C3547 C3544 1.403 . S
C3547 C3548 1.524 . S
C3547 C3551 1.400 . S
C3548 H3533 0.960 . S
C3548 H3534 0.960 . S
C3548 H3535 0.960 . S
C3548 C3547 1.524 . S
C3549 C3546 1.403 . S
C3549 C3550 1.392 . S
C3549 C3553 1.456 1_545 S
C3550 C3549 1.392 . S
C3550 C3551 1.385 . S
C3550 C3552 1.478 . S
C3551 H3545 0.930 . S
C3551 C3547 1.400 . S
C3551 C3550 1.385 . S
C3552 C3550 1.478 . S
C3552 C3554 1.381 . S
C3552 C3558 1.390 1_545 S
C3553 C3549 1.456 1_565 S
C3553 H3559 0.935 . S
C3553 H3560 1.057 . S
C3553 H3561 0.938 1_565 S
C3554 C3552 1.381 . S
C3554 C3555 1.394 . S
C3554 H3562 0.930 . S
C3555 C3554 1.394 . S
C3555 C3556 1.383 . S
C3555 H3563 0.929 . S
C3556 C3555 1.383 . S
C3556 C3557 1.377 1_545 S
C3557 H3541 0.930 . S
C3557 C3556 1.377 1_565 S
C3557 C3558 1.375 . S
C3558 H3542 0.929 . S
C3558 C3552 1.390 1_565 S
C3558 C3557 1.375 . S
H3559 C3553 0.935 . S
H3560 C3553 1.057 . S
H3561 C3553 0.938 1_545 S
H3562 C3554 0.930 . S
H3563 C3555 0.929 . S
H3564 C3572 0.929 . S
H3565 C3574 0.930 . S
H3566 C3576 0.930 . S
H3567 C3579 0.929 . S
H3568 C3582 0.930 . S
H3569 C3584 0.960 . S
H3570 C3584 0.960 . S
H3571 C3584 0.960 . S
C3572 H3564 0.929 . S
C3572 C3573 1.377 . S
C3572 C3574 1.384 . S
C3573 C3572 1.377 . S
C3573 C3579 1.390 . S
C3574 H3565 0.930 . S
C3574 C3572 1.384 . S
C3574 C3575 1.372 . S
C3575 C3574 1.372 . S
C3575 C3576 1.400 . S
C3575 C3580 1.490 . S
C3576 H3566 0.930 . S
C3576 C3575 1.400 . S
C3576 C3579 1.386 . S
H3577 C3593 0.930 . S
H3578 C3594 0.931 . S
C3579 H3567 0.929 . S
C3579 C3573 1.390 . S
C3579 C3576 1.386 . S
C3580 C3575 1.490 . S
C3580 C3582 1.395 . S
C3580 C3583 1.403 . S
H3581 C3587 0.930 1_455 S
C3582 H3568 0.930 . S
C3582 C3580 1.395 . S
C3582 C3585 1.403 . S
C3583 C3580 1.403 . S
C3583 C3584 1.524 1_655 S
C3583 C3587 1.400 . S
C3584 H3569 0.960 . S
C3584 H3570 0.960 . S
C3584 H3571 0.960 . S
C3584 C3583 1.524 1_455 S
C3585 C3582 1.403 . S
C3585 C3586 1.392 . S
C3585 C3589 1.495 . S
C3586 C3585 1.392 . S
C3586 C3587 1.385 . S
C3586 C3588 1.478 . S
C3587 H3581 0.930 1_655 S
C3587 C3583 1.400 . S
C3587 C3586 1.385 . S
C3588 C3586 1.478 . S
C3588 C3590 1.381 . S
C3588 C3594 1.383 . S
C3589 C3585 1.495 . S
C3589 H3595 0.959 . S
C3589 H3596 0.961 . S
C3589 H3597 0.960 . S
C3590 C3588 1.381 . S
C3590 C3591 1.394 . S
C3590 H3598 0.930 . S
C3591 C3590 1.394 . S
C3591 C3592 1.383 . S
C3591 H3599 0.929 . S
C3592 C3591 1.383 . S
C3592 C3593 1.377 . S
C3593 H3577 0.930 . S
C3593 C3592 1.377 . S
C3593 C3594 1.379 . S
C3594 H3578 0.931 . S
C3594 C3588 1.383 . S
C3594 C3593 1.379 . S
H3595 C3589 0.959 . S
H3596 C3589 0.961 . S
H3597 C3589 0.960 . S
H3598 C3590 0.930 . S
H3599 C3591 0.929 . S
H3600 C3608 0.929 . S
H3601 C3610 0.930 . S
H3602 C3612 0.930 . S
H3603 C3615 0.929 . S
H3604 C3618 0.930 . S
H3605 C3620 0.960 . S
H3606 C3620 0.960 . S
H3607 C3620 0.960 . S
C3608 H3600 0.929 . S
C3608 C3609 1.377 . S
C3608 C3610 1.384 . S
C3609 C3608 1.377 . S
C3609 C3615 1.390 . S
C3610 H3601 0.930 . S
C3610 C3608 1.384 . S
C3610 C3611 1.372 . S
C3611 C3610 1.372 . S
C3611 C3612 1.400 . S
C3611 C3616 1.490 . S
C3612 H3602 0.930 . S
C3612 C3611 1.400 . S
C3612 C3615 1.386 . S
H3613 C3629 0.930 . S
H3614 C3630 0.931 . S
C3615 H3603 0.929 . S
C3615 C3609 1.390 . S
C3615 C3612 1.386 . S
C3616 C3611 1.490 . S
C3616 C3618 1.395 . S
C3616 C3619 1.403 . S
H3617 C3623 0.930 . S
C3618 H3604 0.930 . S
C3618 C3616 1.395 . S
C3618 C3621 1.403 . S
C3619 C3616 1.403 . S
C3619 C3620 1.524 . S
C3619 C3623 1.400 . S
C3620 H3605 0.960 . S
C3620 H3606 0.960 . S
C3620 H3607 0.960 . S
C3620 C3619 1.524 . S
C3621 C3618 1.403 . S
C3621 C3622 1.392 . S
C3621 C3625 1.495 . S
C3622 C3621 1.392 . S
C3622 C3623 1.385 . S
C3622 C3624 1.478 . S
C3623 H3617 0.930 . S
C3623 C3619 1.400 . S
C3623 C3622 1.385 . S
C3624 C3622 1.478 . S
C3624 C3626 1.381 . S
C3624 C3630 1.383 . S
C3625 C3621 1.495 . S
C3625 H3631 0.959 . S
C3625 H3632 0.961 . S
C3625 H3633 0.960 . S
C3626 C3624 1.381 . S
C3626 C3627 1.394 . S
C3626 H3634 0.930 . S
C3627 C3626 1.394 . S
C3627 C3628 1.383 . S
C3627 H3635 0.929 . S
C3628 C3627 1.383 . S
C3628 C3629 1.377 . S
C3629 H3613 0.930 . S
C3629 C3628 1.377 . S
C3629 C3630 1.379 . S
C3630 H3614 0.931 . S
C3630 C3624 1.383 . S
C3630 C3629 1.379 . S
H3631 C3625 0.959 . S
H3632 C3625 0.961 . S
H3633 C3625 0.960 . S
H3634 C3626 0.930 . S
H3635 C3627 0.929 . S
H3636 C3644 0.929 . S
H3637 C3646 0.930 . S
H3638 C3648 0.930 . S
H3639 C3651 0.929 . S
H3640 C3654 0.930 . S
H3641 C3656 0.960 . S
H3642 C3656 0.960 . S
H3643 C3656 0.960 . S
C3644 H3636 0.929 . S
C3644 C3645 1.377 . S
C3644 C3646 1.384 . S
C3645 C3644 1.377 . S
C3645 C3651 1.390 . S
C3646 H3637 0.930 . S
C3646 C3644 1.384 . S
C3646 C3647 1.372 . S
C3647 C3646 1.372 . S
C3647 C3648 1.400 . S
C3647 C3652 1.490 . S
C3648 H3638 0.930 . S
C3648 C3647 1.400 . S
C3648 C3651 1.386 . S
H3649 C3665 0.930 . S
H3650 C3666 0.931 . S
C3651 H3639 0.929 . S
C3651 C3645 1.390 . S
C3651 C3648 1.386 . S
C3652 C3647 1.490 . S
C3652 C3654 1.395 . S
C3652 C3655 1.403 . S
H3653 C3659 0.930 . S
C3654 H3640 0.930 . S
C3654 C3652 1.395 . S
C3654 C3657 1.403 . S
C3655 C3652 1.403 . S
C3655 C3656 1.524 . S
C3655 C3659 1.400 . S
C3656 H3641 0.960 . S
C3656 H3642 0.960 . S
C3656 H3643 0.960 . S
C3656 C3655 1.524 . S
C3657 C3654 1.403 . S
C3657 C3658 1.392 . S
C3657 C3661 1.495 . S
C3658 C3657 1.392 . S
C3658 C3659 1.385 . S
C3658 C3660 1.478 . S
C3659 H3653 0.930 . S
C3659 C3655 1.400 . S
C3659 C3658 1.385 . S
C3660 C3658 1.478 . S
C3660 C3662 1.381 . S
C3660 C3666 1.383 . S
C3661 C3657 1.495 . S
C3661 H3667 0.959 . S
C3661 H3668 0.961 . S
C3661 H3669 0.960 . S
C3662 C3660 1.381 . S
C3662 C3663 1.394 . S
C3662 H3670 0.930 . S
C3663 C3662 1.394 . S
C3663 C3664 1.383 . S
C3663 H3671 0.929 . S
C3664 C3663 1.383 . S
C3664 C3665 1.377 . S
C3665 H3649 0.930 . S
C3665 C3664 1.377 . S
C3665 C3666 1.379 . S
C3666 H3650 0.931 . S
C3666 C3660 1.383 . S
C3666 C3665 1.379 . S
H3667 C3661 0.959 . S
H3668 C3661 0.961 . S
H3669 C3661 0.960 . S
H3670 C3662 0.930 . S
H3671 C3663 0.929 . S
H3672 C3680 0.929 . S
H3673 C3682 0.930 . S
H3674 C3684 0.930 . S
H3675 C3687 0.929 . S
H3676 C3690 0.930 . S
H3677 C3692 0.960 . S
H3678 C3692 0.960 . S
H3679 C3692 0.960 . S
C3680 H3672 0.929 . S
C3680 C3681 1.377 . S
C3680 C3682 1.384 . S
C3681 C3680 1.377 . S
C3681 C3687 1.390 . S
C3682 H3673 0.930 . S
C3682 C3680 1.384 . S
C3682 C3683 1.372 . S
C3683 C3682 1.372 . S
C3683 C3684 1.400 . S
C3683 C3688 1.490 . S
C3684 H3674 0.930 . S
C3684 C3683 1.400 . S
C3684 C3687 1.386 . S
H3685 C3701 0.930 . S
H3686 C3702 0.931 . S
C3687 H3675 0.929 . S
C3687 C3681 1.390 . S
C3687 C3684 1.386 . S
C3688 C3683 1.490 . S
C3688 C3690 1.395 . S
C3688 C3691 1.403 . S
H3689 C3695 0.930 . S
C3690 H3676 0.930 . S
C3690 C3688 1.395 . S
C3690 C3693 1.403 . S
C3691 C3688 1.403 . S
C3691 C3692 1.524 . S
C3691 C3695 1.400 . S
C3692 H3677 0.960 . S
C3692 H3678 0.960 . S
C3692 H3679 0.960 . S
C3692 C3691 1.524 . S
C3693 C3690 1.403 . S
C3693 C3694 1.392 . S
C3693 C3697 1.495 . S
C3694 C3693 1.392 . S
C3694 C3695 1.385 . S
C3694 C3696 1.478 . S
C3695 H3689 0.930 . S
C3695 C3691 1.400 . S
C3695 C3694 1.385 . S
C3696 C3694 1.478 . S
C3696 C3698 1.381 . S
C3696 C3702 1.383 . S
C3697 C3693 1.495 . S
C3697 H3703 0.959 . S
C3697 H3704 0.961 . S
C3697 H3705 0.960 . S
C3698 C3696 1.381 . S
C3698 C3699 1.394 . S
C3698 H3706 0.930 . S
C3699 C3698 1.394 . S
C3699 C3700 1.383 . S
C3699 H3707 0.929 . S
C3700 C3699 1.383 . S
C3700 C3701 1.377 . S
C3701 H3685 0.930 . S
C3701 C3700 1.377 . S
C3701 C3702 1.379 . S
C3702 H3686 0.931 . S
C3702 C3696 1.383 . S
C3702 C3701 1.379 . S
H3703 C3697 0.959 . S
H3704 C3697 0.961 . S
H3705 C3697 0.960 . S
H3706 C3698 0.930 . S
H3707 C3699 0.929 . S
H3708 C3716 0.929 . S
H3709 C3718 0.930 . S
H3710 C3720 0.930 . S
H3711 C3723 0.929 . S
H3712 C3726 0.930 . S
H3713 C3728 0.960 . S
H3714 C3728 0.960 . S
H3715 C3728 0.960 . S
C3716 H3708 0.929 . S
C3716 C3717 1.377 . S
C3716 C3718 1.384 . S
C3717 C3716 1.377 . S
C3717 C3723 1.390 . S
C3718 H3709 0.930 . S
C3718 C3716 1.384 . S
C3718 C3719 1.372 . S
C3719 C3718 1.372 . S
C3719 C3720 1.400 . S
C3719 C3724 1.490 . S
C3720 H3710 0.930 . S
C3720 C3719 1.400 . S
C3720 C3723 1.386 . S
H3721 C3737 0.930 . S
H3722 C3738 0.931 . S
C3723 H3711 0.929 . S
C3723 C3717 1.390 . S
C3723 C3720 1.386 . S
C3724 C3719 1.490 . S
C3724 C3726 1.395 . S
C3724 C3727 1.403 . S
H3725 C3731 0.930 . S
C3726 H3712 0.930 . S
C3726 C3724 1.395 . S
C3726 C3729 1.403 . S
C3727 C3724 1.403 . S
C3727 C3728 1.524 . S
C3727 C3731 1.400 . S
C3728 H3713 0.960 . S
C3728 H3714 0.960 . S
C3728 H3715 0.960 . S
C3728 C3727 1.524 . S
C3729 C3726 1.403 . S
C3729 C3730 1.392 . S
C3729 C3733 1.495 . S
C3730 C3729 1.392 . S
C3730 C3731 1.385 . S
C3730 C3732 1.478 . S
C3731 H3725 0.930 . S
C3731 C3727 1.400 . S
C3731 C3730 1.385 . S
C3732 C3730 1.478 . S
C3732 C3734 1.381 . S
C3732 C3738 1.383 . S
C3733 C3729 1.495 . S
C3733 H3739 0.959 . S
C3733 H3740 0.961 . S
C3733 H3741 0.960 . S
C3734 C3732 1.381 . S
C3734 C3735 1.394 . S
C3734 H3742 0.930 . S
C3735 C3734 1.394 . S
C3735 C3736 1.383 . S
C3735 H3743 0.929 . S
C3736 C3735 1.383 . S
C3736 C3737 1.377 . S
C3737 H3721 0.930 . S
C3737 C3736 1.377 . S
C3737 C3738 1.379 . S
C3738 H3722 0.931 . S
C3738 C3732 1.383 . S
C3738 C3737 1.379 . S
H3739 C3733 0.959 . S
H3740 C3733 0.961 . S
H3741 C3733 0.960 . S
H3742 C3734 0.930 . S
H3743 C3735 0.929 . S
H3744 C3752 0.929 . S
H3745 C3754 0.930 . S
H3746 C3756 0.930 . S
H3747 C3759 0.929 . S
H3748 C3762 0.930 . S
H3749 C3764 0.960 . S
H3750 C3764 0.960 . S
H3751 C3764 0.960 . S
C3752 H3744 0.929 . S
C3752 C3753 1.377 . S
C3752 C3754 1.384 . S
C3753 C3752 1.377 . S
C3753 C3759 1.390 . S
C3754 H3745 0.930 . S
C3754 C3752 1.384 . S
C3754 C3755 1.372 . S
C3755 C3754 1.372 . S
C3755 C3756 1.400 . S
C3755 C3760 1.490 . S
C3756 H3746 0.930 . S
C3756 C3755 1.400 . S
C3756 C3759 1.386 . S
H3757 C3773 0.930 . S
H3758 C3774 0.931 . S
C3759 H3747 0.929 . S
C3759 C3753 1.390 . S
C3759 C3756 1.386 . S
C3760 C3755 1.490 . S
C3760 C3762 1.395 . S
C3760 C3763 1.403 . S
H3761 C3767 0.930 . S
C3762 H3748 0.930 . S
C3762 C3760 1.395 . S
C3762 C3765 1.403 . S
C3763 C3760 1.403 . S
C3763 C3764 1.524 . S
C3763 C3767 1.400 . S
C3764 H3749 0.960 . S
C3764 H3750 0.960 . S
C3764 H3751 0.960 . S
C3764 C3763 1.524 . S
C3765 C3762 1.403 . S
C3765 C3766 1.392 . S
C3765 C3769 1.495 . S
C3766 C3765 1.392 . S
C3766 C3767 1.385 . S
C3766 C3768 1.478 . S
C3767 H3761 0.930 . S
C3767 C3763 1.400 . S
C3767 C3766 1.385 . S
C3768 C3766 1.478 . S
C3768 C3770 1.381 . S
C3768 C3774 1.383 . S
C3769 C3765 1.495 . S
C3769 H3775 0.959 . S
C3769 H3776 0.961 . S
C3769 H3777 0.960 . S
C3770 C3768 1.381 . S
C3770 C3771 1.394 . S
C3770 H3778 0.930 . S
C3771 C3770 1.394 . S
C3771 C3772 1.383 . S
C3771 H3779 0.929 . S
C3772 C3771 1.383 . S
C3772 C3773 1.377 . S
C3773 H3757 0.930 . S
C3773 C3772 1.377 . S
C3773 C3774 1.379 . S
C3774 H3758 0.931 . S
C3774 C3768 1.383 . S
C3774 C3773 1.379 . S
H3775 C3769 0.959 . S
H3776 C3769 0.961 . S
H3777 C3769 0.960 . S
H3778 C3770 0.930 . S
H3779 C3771 0.929 . S
H3780 C3788 0.929 . S
H3781 C3790 0.930 . S
H3782 C3792 0.930 . S
H3783 C3795 0.929 . S
H3784 C3798 0.930 . S
H3785 C3800 0.960 . S
H3786 C3800 0.960 . S
H3787 C3800 0.960 . S
C3788 H3780 0.929 . S
C3788 C3789 1.377 . S
C3788 C3790 1.384 . S
C3789 C3788 1.377 . S
C3789 C3795 1.390 . S
C3790 H3781 0.930 . S
C3790 C3788 1.384 . S
C3790 C3791 1.372 . S
C3791 C3790 1.372 . S
C3791 C3792 1.400 . S
C3791 C3796 1.490 . S
C3792 H3782 0.930 . S
C3792 C3791 1.400 . S
C3792 C3795 1.386 . S
H3793 C3809 0.930 . S
H3794 C3810 0.931 . S
C3795 H3783 0.929 . S
C3795 C3789 1.390 . S
C3795 C3792 1.386 . S
C3796 C3791 1.490 . S
C3796 C3798 1.395 . S
C3796 C3799 1.403 . S
H3797 C3803 0.930 . S
C3798 H3784 0.930 . S
C3798 C3796 1.395 . S
C3798 C3801 1.403 . S
C3799 C3796 1.403 . S
C3799 C3800 1.524 . S
C3799 C3803 1.400 . S
C3800 H3785 0.960 . S
C3800 H3786 0.960 . S
C3800 H3787 0.960 . S
C3800 C3799 1.524 . S
C3801 C3798 1.403 . S
C3801 C3802 1.392 . S
C3801 C3805 1.495 . S
C3802 C3801 1.392 . S
C3802 C3803 1.385 . S
C3802 C3804 1.478 . S
C3803 H3797 0.930 . S
C3803 C3799 1.400 . S
C3803 C3802 1.385 . S
C3804 C3802 1.478 . S
C3804 C3806 1.381 . S
C3804 C3810 1.383 . S
C3805 C3801 1.495 . S
C3805 H3811 0.959 . S
C3805 H3812 0.961 . S
C3805 H3813 0.960 . S
C3806 C3804 1.381 . S
C3806 C3807 1.394 . S
C3806 H3814 0.930 . S
C3807 C3806 1.394 . S
C3807 C3808 1.383 . S
C3807 H3815 0.929 . S
C3808 C3807 1.383 . S
C3808 C3809 1.377 . S
C3809 H3793 0.930 . S
C3809 C3808 1.377 . S
C3809 C3810 1.379 . S
C3810 H3794 0.931 . S
C3810 C3804 1.383 . S
C3810 C3809 1.379 . S
H3811 C3805 0.959 . S
H3812 C3805 0.961 . S
H3813 C3805 0.960 . S
H3814 C3806 0.930 . S
H3815 C3807 0.929 . S
H3816 C3824 0.929 . S
H3817 C3826 0.930 . S
H3818 C3828 0.930 . S
H3819 C3831 0.929 . S
H3820 C3834 0.930 . S
H3821 C3836 0.960 . S
H3822 C3836 0.960 . S
H3823 C3836 0.960 . S
C3824 H3816 0.929 . S
C3824 C3825 1.377 . S
C3824 C3826 1.384 . S
C3825 C3824 1.377 . S
C3825 C3831 1.390 . S
C3826 H3817 0.930 . S
C3826 C3824 1.384 . S
C3826 C3827 1.372 . S
C3827 C3826 1.372 . S
C3827 C3828 1.400 . S
C3827 C3832 1.490 . S
C3828 H3818 0.930 . S
C3828 C3827 1.400 . S
C3828 C3831 1.386 . S
H3829 C3845 0.930 . S
H3830 C3846 0.931 . S
C3831 H3819 0.929 . S
C3831 C3825 1.390 . S
C3831 C3828 1.386 . S
C3832 C3827 1.490 . S
C3832 C3834 1.395 . S
C3832 C3835 1.403 . S
H3833 C3839 0.930 . S
C3834 H3820 0.930 . S
C3834 C3832 1.395 . S
C3834 C3837 1.403 . S
C3835 C3832 1.403 . S
C3835 C3836 1.524 . S
C3835 C3839 1.400 . S
C3836 H3821 0.960 . S
C3836 H3822 0.960 . S
C3836 H3823 0.960 . S
C3836 C3835 1.524 . S
C3837 C3834 1.403 . S
C3837 C3838 1.392 . S
C3837 C3841 1.495 . S
C3838 C3837 1.392 . S
C3838 C3839 1.385 . S
C3838 C3840 1.478 . S
C3839 H3833 0.930 . S
C3839 C3835 1.400 . S
C3839 C3838 1.385 . S
C3840 C3838 1.478 . S
C3840 C3842 1.381 . S
C3840 C3846 1.383 . S
C3841 C3837 1.495 . S
C3841 H3847 0.959 . S
C3841 H3848 0.961 . S
C3841 H3849 0.960 . S
C3842 C3840 1.381 . S
C3842 C3843 1.394 . S
C3842 H3850 0.930 . S
C3843 C3842 1.394 . S
C3843 C3844 1.383 . S
C3843 H3851 0.929 . S
C3844 C3843 1.383 . S
C3844 C3845 1.377 . S
C3845 H3829 0.930 . S
C3845 C3844 1.377 . S
C3845 C3846 1.379 . S
C3846 H3830 0.931 . S
C3846 C3840 1.383 . S
C3846 C3845 1.379 . S
H3847 C3841 0.959 . S
H3848 C3841 0.961 . S
H3849 C3841 0.960 . S
H3850 C3842 0.930 . S
H3851 C3843 0.929 . S
H3852 C3860 0.929 . S
H3853 C3862 0.930 . S
H3854 C3864 0.930 . S
H3855 C3867 0.929 . S
H3856 C3870 0.930 . S
H3857 C3872 0.960 . S
H3858 C3872 0.960 . S
H3859 C3872 0.960 . S
C3860 H3852 0.929 . S
C3860 C3861 1.377 . S
C3860 C3862 1.384 . S
C3861 C3860 1.377 . S
C3861 C3867 1.390 . S
C3862 H3853 0.930 . S
C3862 C3860 1.384 . S
C3862 C3863 1.372 . S
C3863 C3862 1.372 . S
C3863 C3864 1.400 . S
C3863 C3868 1.490 . S
C3864 H3854 0.930 . S
C3864 C3863 1.400 . S
C3864 C3867 1.386 . S
H3865 C3881 0.930 . S
H3866 C3882 0.933 . S
C3867 H3855 0.929 . S
C3867 C3861 1.390 . S
C3867 C3864 1.386 . S
C3868 C3863 1.490 . S
C3868 C3870 1.395 . S
C3868 C3871 1.403 . S
H3869 C3875 0.930 . S
C3870 H3856 0.930 . S
C3870 C3868 1.395 . S
C3870 C3873 1.403 . S
C3871 C3868 1.403 . S
C3871 C3872 1.524 . S
C3871 C3875 1.400 . S
C3872 H3857 0.960 . S
C3872 H3858 0.960 . S
C3872 H3859 0.960 . S
C3872 C3871 1.524 . S
C3873 C3870 1.403 . S
C3873 C3874 1.392 . S
C3873 C3877 1.495 1_655 S
C3874 C3873 1.392 . S
C3874 C3875 1.385 . S
C3874 C3876 1.478 . S
C3875 H3869 0.930 . S
C3875 C3871 1.400 . S
C3875 C3874 1.385 . S
C3876 C3874 1.478 . S
C3876 C3878 1.381 . S
C3876 C3882 1.360 1_655 S
C3877 C3873 1.495 1_455 S
C3877 H3883 0.959 . S
C3877 H3884 0.961 . S
C3877 H3885 0.960 1_455 S
C3878 C3876 1.381 . S
C3878 C3879 1.394 . S
C3878 H3886 0.930 . S
C3879 C3878 1.394 . S
C3879 C3880 1.383 . S
C3879 H3887 0.929 . S
C3880 C3879 1.383 . S
C3880 C3881 1.377 1_655 S
C3881 H3865 0.930 . S
C3881 C3880 1.377 1_455 S
C3881 C3882 1.402 . S
C3882 H3866 0.933 . S
C3882 C3876 1.360 1_455 S
C3882 C3881 1.402 . S
H3883 C3877 0.959 . S
H3884 C3877 0.961 . S
H3885 C3877 0.960 1_655 S
H3886 C3878 0.930 . S
H3887 C3879 0.929 . S
H3888 C3896 0.929 . S
H3889 C3898 0.930 . S
H3890 C3900 0.930 . S
H3891 C3903 0.929 . S
H3892 C3906 0.930 . S
H3893 C3908 0.960 . S
H3894 C3908 0.960 . S
H3895 C3908 0.960 . S
C3896 H3888 0.929 . S
C3896 C3897 1.377 . S
C3896 C3898 1.384 . S
C3897 C3896 1.377 . S
C3897 C3903 1.390 . S
C3898 H3889 0.930 . S
C3898 C3896 1.384 . S
C3898 C3899 1.372 . S
C3899 C3898 1.372 . S
C3899 C3900 1.400 . S
C3899 C3904 1.490 . S
C3900 H3890 0.930 . S
C3900 C3899 1.400 . S
C3900 C3903 1.386 . S
H3901 C3917 0.930 . S
H3902 C3918 0.931 . S
C3903 H3891 0.929 . S
C3903 C3897 1.390 . S
C3903 C3900 1.386 . S
C3904 C3899 1.490 . S
C3904 C3906 1.395 . S
C3904 C3907 1.403 . S
H3905 C3911 0.930 . S
C3906 H3892 0.930 . S
C3906 C3904 1.395 . S
C3906 C3909 1.403 . S
C3907 C3904 1.403 . S
C3907 C3908 1.524 . S
C3907 C3911 1.400 . S
C3908 H3893 0.960 . S
C3908 H3894 0.960 . S
C3908 H3895 0.960 . S
C3908 C3907 1.524 . S
C3909 C3906 1.403 . S
C3909 C3910 1.392 . S
C3909 C3913 1.495 . S
C3910 C3909 1.392 . S
C3910 C3911 1.385 . S
C3910 C3912 1.478 . S
C3911 H3905 0.930 . S
C3911 C3907 1.400 . S
C3911 C3910 1.385 . S
C3912 C3910 1.478 . S
C3912 C3914 1.381 . S
C3912 C3918 1.383 . S
C3913 C3909 1.495 . S
C3913 H3919 0.959 . S
C3913 H3920 0.961 . S
C3913 H3921 0.960 . S
C3914 C3912 1.381 . S
C3914 C3915 1.394 . S
C3914 H3922 0.930 . S
C3915 C3914 1.394 . S
C3915 C3916 1.383 . S
C3915 H3923 0.929 . S
C3916 C3915 1.383 . S
C3916 C3917 1.377 . S
C3917 H3901 0.930 . S
C3917 C3916 1.377 . S
C3917 C3918 1.379 . S
C3918 H3902 0.931 . S
C3918 C3912 1.383 . S
C3918 C3917 1.379 . S
H3919 C3913 0.959 . S
H3920 C3913 0.961 . S
H3921 C3913 0.960 . S
H3922 C3914 0.930 . S
H3923 C3915 0.929 . S
H3924 C3932 0.929 . S
H3925 C3934 0.930 . S
H3926 C3936 0.930 . S
H3927 C3939 0.929 . S
H3928 C3942 0.930 . S
H3929 C3944 0.960 . S
H3930 C3944 0.960 . S
H3931 C3944 0.960 . S
C3932 H3924 0.929 . S
C3932 C3933 1.377 . S
C3932 C3934 1.384 . S
C3933 C3932 1.377 . S
C3933 C3939 1.390 . S
C3934 H3925 0.930 . S
C3934 C3932 1.384 . S
C3934 C3935 1.372 . S
C3935 C3934 1.372 . S
C3935 C3936 1.400 . S
C3935 C3940 1.490 . S
C3936 H3926 0.930 . S
C3936 C3935 1.400 . S
C3936 C3939 1.386 . S
H3937 C3953 0.930 . S
H3938 C3954 0.931 . S
C3939 H3927 0.929 . S
C3939 C3933 1.390 . S
C3939 C3936 1.386 . S
C3940 C3935 1.490 . S
C3940 C3942 1.395 . S
C3940 C3943 1.403 . S
H3941 C3947 0.930 . S
C3942 H3928 0.930 . S
C3942 C3940 1.395 . S
C3942 C3945 1.403 . S
C3943 C3940 1.403 . S
C3943 C3944 1.524 . S
C3943 C3947 1.400 . S
C3944 H3929 0.960 . S
C3944 H3930 0.960 . S
C3944 H3931 0.960 . S
C3944 C3943 1.524 . S
C3945 C3942 1.403 . S
C3945 C3946 1.392 . S
C3945 C3949 1.495 . S
C3946 C3945 1.392 . S
C3946 C3947 1.385 . S
C3946 C3948 1.478 . S
C3947 H3941 0.930 . S
C3947 C3943 1.400 . S
C3947 C3946 1.385 . S
C3948 C3946 1.478 . S
C3948 C3950 1.381 1_545 S
C3948 C3954 1.383 . S
C3949 C3945 1.495 . S
C3949 H3955 0.959 . S
C3949 H3956 0.961 . S
C3949 H3957 0.960 . S
C3950 C3948 1.381 1_565 S
C3950 C3951 1.394 . S
C3950 H3958 0.930 . S
C3951 C3950 1.394 . S
C3951 C3952 1.383 1_565 S
C3951 H3959 0.929 . S
C3952 C3951 1.383 1_545 S
C3952 C3953 1.377 . S
C3953 H3937 0.930 . S
C3953 C3952 1.377 . S
C3953 C3954 1.379 . S
C3954 H3938 0.931 . S
C3954 C3948 1.383 . S
C3954 C3953 1.379 . S
H3955 C3949 0.959 . S
H3956 C3949 0.961 . S
H3957 C3949 0.960 . S
H3958 C3950 0.930 . S
H3959 C3951 0.929 . S
C1377 C9 1.581 1_655 S
C1396 C857 1.480 . S
C1413 C19 1.604 . S
C1432 C901 1.530 . S
C1468 C981 1.574 . S
C1449 C33 1.618 . S
C1485 C37 1.591 . S
C1504 C1025 1.562 . S
C1521 C5 1.569 . S
C1540 C1105 1.490 . S
C1557 C23 1.629 . S
C1576 C1167 1.566 . S
C1593 C47 1.593 . S
C1612 C1087 1.535 . S
C1648 C1149 1.596 . S
C1629 C65 1.651 . S
C1684 C1043 1.538 . S
C1665 C75 1.613 . S
C1701 C79 1.536 . S
C1720 C963 1.437 . S
C1756 C839 1.509 . S
C1737 C51 1.606 . S
C1773 C61 1.627 . S
C1792 C919 1.556 . S
C1809 C93 1.701 . S
C1828 C1229 1.642 . S
C1845 C103 1.649 . S
C1864 C1273 1.620 . S
C1900 C1353 1.628 . S
C1881 C117 1.689 . S
C1917 C121 1.663 . S
C1936 C299 1.554 . S
C1953 C89 1.665 . S
C1972 C343 1.591 . S
C1989 C107 1.666 . S
C2008 C423 1.556 . S
C2025 C131 1.654 . S
C2044 C361 1.584 . S
C2061 C149 1.679 . S
C2080 C405 1.611 . S
C2116 C281 1.554 . S
C2097 C159 1.649 . S
C2152 C1335 1.609 . S
C2133 C163 1.667 . S
C2188 C1211 1.587 . S
C2169 C135 1.703 . S
C2224 C1291 1.636 . S
C2205 C145 1.672 . S
C2241 C177 1.657 . S
C2260 C485 1.560 . S
C2277 C187 1.628 . S
C2296 C547 1.526 . S
C2313 C201 1.691 . S
C2332 C591 1.614 . S
C2349 C205 1.710 . S
C2368 C653 1.661 . S
C2404 C715 1.620 . S
C2385 C173 1.662 . S
C2440 C795 1.578 . S
C2421 C191 1.686 . S
C2476 C733 1.637 . S
C2457 C215 1.706 . S
C2512 C777 1.620 . S
C2493 C233 1.705 . S
C2529 C243 1.643 . S
C2548 C671 1.582 . S
C2584 C609 1.542 . S
C2565 C247 1.610 . S
C2601 C219 1.708 . S
C2620 C467 1.607 . S
C2656 C529 1.577 . S
C2637 C229 1.666 . S
C2692 C305 1.456 . S
C2673 C11 1.535 . S
C2709 C14 1.512 . S
C2728 C349 1.430 . S
C2764 C429 1.558 . S
C2745 C28 1.604 . S
C2800 C491 1.510 . S
C2781 C39 1.597 1_556 S
C2836 C553 1.453 . S
C2817 C0 1.549 1_556 S
C2872 C597 1.418 . S
C2853 C25 1.461 1_556 S
C2889 C42 1.604 1_556 S
C2908 C615 1.518 . S
C2925 C67 1.524 . S
C2944 C473 1.474 . S
C2961 C70 1.492 1_556 S
C2980 C535 1.439 . S
C2997 C81 1.532 . S
C3016 C367 1.494 . S
C3052 C411 1.512 . S
C3033 C53 1.574 . S
C3069 C56 1.543 . S
C3088 C287 1.485 . S
C3124 C659 1.459 . S
C3105 C95 1.527 . S
C3141 C98 1.588 1_545 S
C3160 C721 1.554 . S
C3177 C112 1.662 1_655 S
C3196 C801 1.611 . S
C3232 C863 1.433 . S
C3213 C123 1.471 . S
C3249 C84 1.541 . S
C3268 C907 1.471 . S
C3285 C109 1.409 . S
C3304 C987 1.386 . S
C3321 C126 1.503 . S
C3340 C969 1.419 . S
C3357 C151 1.453 . S
C3376 C845 1.372 . S
C3412 C925 1.448 . S
C3393 C154 1.515 . S
C3429 C165 1.511 . S
C3448 C739 1.479 . S
C3465 C137 1.640 . S
C3484 C783 1.549 . S
C3520 C677 1.577 . S
C3501 C140 1.620 1_655 S
C3556 C1031 1.376 . S
C3537 C179 1.442 . S
C3573 C182 1.448 . S
C3592 C1111 1.407 . S
C3609 C196 1.595 . S
C3628 C1173 1.523 . S
C3664 C1235 1.534 . S
C3645 C207 1.587 . S
C3700 C1279 1.519 . S
C3681 C168 1.593 1_565 S
C3717 C193 1.555 . S
C3736 C1359 1.498 . S
C3753 C210 1.601 . S
C3772 C1341 1.514 . S
C3789 C235 1.601 1_565 S
C3808 C1217 1.546 . S
C3844 C1297 1.532 . S
C3825 C238 1.562 1_455 S
C3880 C1093 1.380 . S
C3861 C249 1.397 . S
C3916 C1155 1.487 . S
C3897 C221 1.561 . S
C3933 C224 1.486 . S
C3952 C1049 1.412 . S
