# Generated by pormake.
# Topology pyr, (3,6)-cn, num edge types: 1
# Building blocks:
#     Node 0, Type 0, BuildingBlock: VETTIZ_charged_linker_0, # of connection points: 3
#     Node 1, Type 0, BuildingBlock: VETTIZ_charged_linker_0, # of connection points: 3
#     Node 2, Type 0, BuildingBlock: VETTIZ_charged_linker_0, # of connection points: 3
#     Node 3, Type 0, BuildingBlock: VETTIZ_charged_linker_0, # of connection points: 3
#     Node 4, Type 0, BuildingBlock: VETTIZ_charged_linker_0, # of connection points: 3
#     Node 5, Type 0, BuildingBlock: VETTIZ_charged_linker_0, # of connection points: 3
#     Node 6, Type 0, BuildingBlock: VETTIZ_charged_linker_0, # of connection points: 3
#     Node 7, Type 0, BuildingBlock: VETTIZ_charged_linker_0, # of connection points: 3
#     Node 8, Type 1, BuildingBlock: MIDCAF_clean_sbu_0, # of connection points: 6
#     Node 9, Type 1, BuildingBlock: MIDCAF_clean_sbu_0, # of connection points: 6
#     Node 10, Type 1, BuildingBlock: MIDCAF_clean_sbu_0, # of connection points: 6
#     Node 11, Type 1, BuildingBlock: MIDCAF_clean_sbu_0, # of connection points: 6
#     Edge 12, Type (0, 1), BuildingBlock: KIFKEQ_clean_linker_1, # of connection points: 2
#     Edge 13, Type (0, 1), BuildingBlock: KIFKEQ_clean_linker_1, # of connection points: 2
#     Edge 14, Type (0, 1), BuildingBlock: KIFKEQ_clean_linker_1, # of connection points: 2
#     Edge 15, Type (0, 1), BuildingBlock: KIFKEQ_clean_linker_1, # of connection points: 2
#     Edge 16, Type (0, 1), BuildingBlock: KIFKEQ_clean_linker_1, # of connection points: 2
#     Edge 17, Type (0, 1), BuildingBlock: KIFKEQ_clean_linker_1, # of connection points: 2
#     Edge 18, Type (0, 1), BuildingBlock: KIFKEQ_clean_linker_1, # of connection points: 2
#     Edge 19, Type (0, 1), BuildingBlock: KIFKEQ_clean_linker_1, # of connection points: 2
#     Edge 20, Type (0, 1), BuildingBlock: KIFKEQ_clean_linker_1, # of connection points: 2
#     Edge 21, Type (0, 1), BuildingBlock: KIFKEQ_clean_linker_1, # of connection points: 2
#     Edge 22, Type (0, 1), BuildingBlock: KIFKEQ_clean_linker_1, # of connection points: 2
#     Edge 23, Type (0, 1), BuildingBlock: KIFKEQ_clean_linker_1, # of connection points: 2
#     Edge 24, Type (0, 1), BuildingBlock: KIFKEQ_clean_linker_1, # of connection points: 2
#     Edge 25, Type (0, 1), BuildingBlock: KIFKEQ_clean_linker_1, # of connection points: 2
#     Edge 26, Type (0, 1), BuildingBlock: KIFKEQ_clean_linker_1, # of connection points: 2
#     Edge 27, Type (0, 1), BuildingBlock: KIFKEQ_clean_linker_1, # of connection points: 2
#     Edge 28, Type (0, 1), BuildingBlock: KIFKEQ_clean_linker_1, # of connection points: 2
#     Edge 29, Type (0, 1), BuildingBlock: KIFKEQ_clean_linker_1, # of connection points: 2
#     Edge 30, Type (0, 1), BuildingBlock: KIFKEQ_clean_linker_1, # of connection points: 2
#     Edge 31, Type (0, 1), BuildingBlock: KIFKEQ_clean_linker_1, # of connection points: 2
#     Edge 32, Type (0, 1), BuildingBlock: KIFKEQ_clean_linker_1, # of connection points: 2
#     Edge 33, Type (0, 1), BuildingBlock: KIFKEQ_clean_linker_1, # of connection points: 2
#     Edge 34, Type (0, 1), BuildingBlock: KIFKEQ_clean_linker_1, # of connection points: 2
#     Edge 35, Type (0, 1), BuildingBlock: KIFKEQ_clean_linker_1, # of connection points: 2
# Relax obj value: 0.019
# Max RMSD: 0.063
# Mean RMSD: 0.021
data_MOF--net-pyr--node1-MIDCAF_clean_sbu_0--node2-VETTIZ_charged_linker_0--edge1-KIFKEQ_clean_linker_1
_symmetry_space_group_name_H-M    P1
_symmetry_Int_Tables_number       1
_symmetry_cell_setting            triclinic
loop_
_symmetry_equiv_pos_as_xyz
'x, y, z'
_cell_length_a     44.222615
_cell_length_b     44.238196
_cell_length_c     44.229892
_cell_angle_alpha  89.921628
_cell_angle_beta   90.016047
_cell_angle_gamma 90.084131
loop_
_atom_site_label
_atom_site_type_symbol
_atom_site_fract_x
_atom_site_fract_y
_atom_site_fract_z
_atom_type_partial_charge
C0 C 0.19644 0.17823 0.31653 0.0
C1 C 0.1695 0.18826 0.33014 0.0
C2 C 0.15668 0.21573 0.32024 0.0
C3 C 0.19622 0.22135 0.28253 0.0
C4 C 0.20922 0.19489 0.29285 0.0
C5 C 0.23679 0.18621 0.275 0.0
H6 H 0.32915 0.21198 0.15596 0.0
C7 C 0.21434 0.23225 0.25654 0.0
C8 C 0.23821 0.21175 0.25215 0.0
H9 H 0.33197 0.1374 0.21925 0.0
H10 H 0.29103 0.15956 0.24764 0.0
H11 H 0.31758 0.26487 0.20558 0.0
H12 H 0.25932 0.21197 0.14853 0.0
H13 H 0.24439 0.24864 0.1488 0.0
H14 H 0.28192 0.24246 0.13414 0.0
H15 H 0.31479 0.27097 0.16556 0.0
H16 H 0.28958 0.28941 0.19178 0.0
C17 C 0.26439 0.1865 0.29657 0.0
C18 C 0.23055 0.15526 0.25978 0.0
C19 C 0.18083 0.32502 0.19705 0.0
C20 C 0.192 0.33891 0.17065 0.0
C21 C 0.21887 0.32794 0.15758 0.0
C22 C 0.23403 0.30315 0.17014 0.0
C23 C 0.22209 0.28887 0.19592 0.0
C24 C 0.19612 0.30002 0.20917 0.0
C25 C 0.18647 0.28148 0.2361 0.0
C26 C 0.21089 0.25734 0.23671 0.0
C27 C 0.23159 0.26178 0.21304 0.0
C28 C 0.1877 0.30191 0.26446 0.0
C29 C 0.15483 0.268 0.22933 0.0
C30 C 0.32095 0.20033 0.1759 0.0
C31 C 0.33374 0.17271 0.18515 0.0
C32 C 0.32273 0.15876 0.21166 0.0
C33 C 0.29872 0.17154 0.22798 0.0
C34 C 0.28538 0.1985 0.21763 0.0
C35 C 0.29685 0.21261 0.19223 0.0
C36 C 0.27959 0.24069 0.18405 0.0
C37 C 0.25567 0.24106 0.20862 0.0
C38 C 0.25909 0.21629 0.22818 0.0
C39 C 0.30137 0.26804 0.18659 0.0
C40 C 0.26565 0.23605 0.15218 0.0
H41 H 0.15881 0.25279 0.28978 0.0
H42 H 0.20725 0.15752 0.32386 0.0
H43 H 0.20639 0.15323 0.25302 0.0
H44 H 0.24331 0.15204 0.2386 0.0
H45 H 0.23567 0.13628 0.27543 0.0
H46 H 0.26251 0.20521 0.31326 0.0
H47 H 0.26604 0.16498 0.30943 0.0
H48 H 0.28597 0.19065 0.2847 0.0
H49 H 0.16005 0.33273 0.20742 0.0
H50 H 0.22808 0.33847 0.13746 0.0
H51 H 0.25422 0.29578 0.15894 0.0
H52 H 0.20734 0.31763 0.26331 0.0
H53 H 0.1669 0.31582 0.26644 0.0
H54 H 0.19096 0.28902 0.2856 0.0
H55 H 0.15286 0.26155 0.2051 0.0
H56 H 0.1502 0.24697 0.24195 0.0
H57 H 0.13668 0.28461 0.23427 0.0
H58 H 0.13585 0.22394 0.33013 0.0
C59 C 0.16992 0.23234 0.2966 0.0
C60 C 0.20354 0.83927 0.68047 0.0
C61 C 0.18927 0.86546 0.69149 0.0
C62 C 0.19916 0.87793 0.71909 0.0
C63 C 0.23791 0.8394 0.72336 0.0
C64 C 0.2278 0.82676 0.69663 0.0
C65 C 0.24662 0.80003 0.68721 0.0
H66 H 0.3708 0.71331 0.7094 0.0
C67 C 0.26453 0.82198 0.73368 0.0
C68 C 0.26971 0.79878 0.71264 0.0
H69 H 0.30621 0.70801 0.63617 0.0
H70 H 0.27591 0.74679 0.65972 0.0
H71 H 0.37371 0.78393 0.7115 0.0
H72 H 0.32115 0.72055 0.76352 0.0
H73 H 0.33365 0.74876 0.78853 0.0
H74 H 0.36103 0.72557 0.76917 0.0
H75 H 0.39012 0.76047 0.74026 0.0
H76 H 0.37384 0.79673 0.74902 0.0
C77 C 0.26146 0.80755 0.65636 0.0
C78 C 0.22605 0.77168 0.68689 0.0
C79 C 0.32348 0.85723 0.82584 0.0
C80 C 0.3509 0.84782 0.83904 0.0
C81 C 0.36478 0.82129 0.82811 0.0
C82 C 0.35235 0.8053 0.8037 0.0
C83 C 0.32586 0.81601 0.78974 0.0
C84 C 0.31158 0.84124 0.80123 0.0
C85 C 0.2841 0.84986 0.78311 0.0
C86 C 0.28437 0.82578 0.75868 0.0
C87 C 0.30894 0.80609 0.76261 0.0
C88 C 0.28936 0.88199 0.76998 0.0
C89 C 0.25602 0.84699 0.80384 0.0
C90 C 0.35012 0.72047 0.6984 0.0
C91 C 0.3411 0.70771 0.67069 0.0
C92 C 0.31366 0.71731 0.65756 0.0
C93 C 0.29623 0.74006 0.67114 0.0
C94 C 0.30634 0.75354 0.69812 0.0
C95 C 0.33259 0.74324 0.71156 0.0
C96 C 0.34015 0.76027 0.73998 0.0
C97 C 0.31429 0.78273 0.74127 0.0
C98 C 0.29463 0.77887 0.71659 0.0
C99 C 0.37112 0.7761 0.73529 0.0
C100 C 0.33922 0.73777 0.76683 0.0
H101 H 0.22979 0.87571 0.75585 0.0
H102 H 0.19671 0.82934 0.65916 0.0
H103 H 0.20923 0.77257 0.70558 0.0
H104 H 0.23869 0.7505 0.69067 0.0
H105 H 0.21335 0.76998 0.66529 0.0
H106 H 0.26829 0.83175 0.65536 0.0
H107 H 0.24551 0.80334 0.63742 0.0
H108 H 0.28248 0.79484 0.65222 0.0
H109 H 0.31188 0.8772 0.83388 0.0
H110 H 0.38601 0.81356 0.83753 0.0
H111 H 0.3644 0.78572 0.79604 0.0
H112 H 0.31363 0.88562 0.76441 0.0
H113 H 0.28264 0.89969 0.78644 0.0
H114 H 0.27735 0.8859 0.74846 0.0
H115 H 0.25833 0.82736 0.81943 0.0
H116 H 0.23495 0.84265 0.79114 0.0
H117 H 0.25307 0.86756 0.81791 0.0
H118 H 0.18833 0.89789 0.7282 0.0
C119 C 0.22322 0.86497 0.73513 0.0
C120 C 0.70508 0.21285 0.86228 0.0
C121 C 0.67873 0.19821 0.85192 0.0
C122 C 0.66606 0.20738 0.82407 0.0
C123 C 0.70352 0.24699 0.81916 0.0
C124 C 0.7171 0.23701 0.84549 0.0
C125 C 0.74466 0.25545 0.85333 0.0
H126 H 0.83276 0.37783 0.82581 0.0
C127 C 0.72033 0.27367 0.80811 0.0
C128 C 0.74481 0.27849 0.82776 0.0
H129 H 0.84263 0.31113 0.89671 0.0
H130 H 0.80064 0.28284 0.87647 0.0
H131 H 0.76111 0.38183 0.83017 0.0
H132 H 0.82003 0.33099 0.77206 0.0
H133 H 0.78955 0.34294 0.7496 0.0
H134 H 0.81387 0.37076 0.76701 0.0
H135 H 0.7829 0.39901 0.80053 0.0
H136 H 0.74579 0.38365 0.79364 0.0
C137 C 0.73917 0.27048 0.88446 0.0
C138 C 0.77265 0.23445 0.8522 0.0
C139 C 0.67727 0.3368 0.72196 0.0
C140 C 0.68639 0.36435 0.70886 0.0
C141 C 0.71431 0.37709 0.71756 0.0
C142 C 0.73217 0.36346 0.73986 0.0
C143 C 0.722 0.33685 0.75392 0.0
C144 C 0.69533 0.32355 0.74445 0.0
C145 C 0.68822 0.29523 0.76201 0.0
C146 C 0.71463 0.29422 0.78404 0.0
C147 C 0.73417 0.3188 0.77929 0.0
C148 C 0.65765 0.30004 0.7784 0.0
C149 C 0.68856 0.26809 0.73985 0.0
C150 C 0.82588 0.35714 0.83699 0.0
C151 C 0.84107 0.3468 0.86295 0.0
C152 C 0.8316 0.31948 0.8765 0.0
C153 C 0.80701 0.30317 0.86486 0.0
C154 C 0.79153 0.31428 0.83943 0.0
C155 C 0.80133 0.34061 0.82569 0.0
C156 C 0.78211 0.3491 0.79897 0.0
C157 C 0.7592 0.32351 0.79888 0.0
C158 C 0.76464 0.30333 0.82281 0.0
C159 C 0.76724 0.38008 0.80583 0.0
C160 C 0.80228 0.34871 0.77032 0.0
H161 H 0.6672 0.23771 0.78704 0.0
H162 H 0.71557 0.20635 0.88342 0.0
H163 H 0.7696 0.21621 0.83516 0.0
H164 H 0.79341 0.24642 0.84501 0.0
H165 H 0.77669 0.22347 0.87443 0.0
H166 H 0.71557 0.27902 0.88609 0.0
H167 H 0.74267 0.25405 0.90315 0.0
H168 H 0.75367 0.29037 0.88846 0.0
H169 H 0.65592 0.32647 0.71581 0.0
H170 H 0.72214 0.39798 0.7074 0.0
H171 H 0.7529 0.3746 0.74576 0.0
H172 H 0.65672 0.32296 0.78868 0.0
H173 H 0.63843 0.29803 0.76234 0.0
H174 H 0.65386 0.28415 0.79722 0.0
H175 H 0.70359 0.27252 0.72015 0.0
H176 H 0.69781 0.24733 0.75032 0.0
H177 H 0.66558 0.26331 0.7309 0.0
H178 H 0.6464 0.19596 0.81495 0.0
C179 C 0.67825 0.2316 0.80773 0.0
C180 C 0.85094 0.82725 0.33572 0.0
C181 C 0.83748 0.84247 0.36033 0.0
C182 C 0.80906 0.83209 0.37075 0.0
C183 C 0.81009 0.79057 0.33505 0.0
C184 C 0.83667 0.80186 0.32321 0.0
C185 C 0.84729 0.78395 0.29629 0.0
H186 H 0.83784 0.65688 0.21248 0.0
C187 C 0.80234 0.76262 0.31846 0.0
C188 C 0.82373 0.7589 0.29532 0.0
H189 H 0.8951 0.73509 0.19729 0.0
H190 H 0.87235 0.76002 0.23972 0.0
H191 H 0.839 0.65733 0.28578 0.0
H192 H 0.77786 0.69635 0.22068 0.0
H193 H 0.75594 0.68277 0.25089 0.0
H194 H 0.77804 0.65659 0.22876 0.0
H195 H 0.81469 0.63495 0.26218 0.0
H196 H 0.80171 0.65008 0.29763 0.0
C197 C 0.87924 0.77152 0.30323 0.0
C198 C 0.84582 0.80457 0.2679 0.0
C199 C 0.71999 0.69382 0.35953 0.0
C200 C 0.70982 0.66476 0.35156 0.0
C201 C 0.72205 0.65082 0.32565 0.0
C202 C 0.74474 0.66517 0.30862 0.0
C203 C 0.75539 0.69378 0.31756 0.0
C204 C 0.74269 0.70777 0.34241 0.0
C205 C 0.75679 0.73803 0.34883 0.0
C206 C 0.78032 0.73984 0.3239 0.0
C207 C 0.77953 0.71382 0.30572 0.0
C208 C 0.77139 0.73649 0.38064 0.0
C209 C 0.73218 0.76274 0.34539 0.0
C210 C 0.84536 0.67954 0.21776 0.0
C211 C 0.86893 0.69354 0.20132 0.0
C212 C 0.87781 0.72306 0.20976 0.0
C213 C 0.86427 0.73782 0.2343 0.0
C214 C 0.84117 0.72331 0.25054 0.0
C215 C 0.83158 0.69495 0.24176 0.0
C216 C 0.80532 0.68388 0.26046 0.0
C217 C 0.80083 0.7103 0.28191 0.0
C218 C 0.82239 0.73301 0.2764 0.0
C219 C 0.81541 0.65492 0.27736 0.0
C220 C 0.77778 0.67938 0.23927 0.0
H221 H 0.77421 0.79929 0.36776 0.0
H222 H 0.87253 0.83427 0.32665 0.0
H223 H 0.83042 0.82415 0.2713 0.0
H224 H 0.83646 0.7926 0.24798 0.0
H225 H 0.86846 0.81381 0.26208 0.0
H226 H 0.87978 0.76091 0.32605 0.0
H227 H 0.89633 0.78995 0.30284 0.0
H228 H 0.88653 0.75391 0.2872 0.0
H229 H 0.71071 0.70538 0.37899 0.0
H230 H 0.71475 0.62838 0.31909 0.0
H231 H 0.75351 0.65317 0.28948 0.0
H232 H 0.78421 0.71505 0.38345 0.0
H233 H 0.75384 0.73731 0.39859 0.0
H234 H 0.78783 0.7547 0.38493 0.0
H235 H 0.71399 0.75551 0.32956 0.0
H236 H 0.74119 0.78387 0.33541 0.0
H237 H 0.72136 0.76792 0.36744 0.0
H238 H 0.79717 0.84378 0.3886 0.0
C239 C 0.79548 0.80625 0.35841 0.0
C240 C 0.92242 0.81808 0.96559 0.0
C241 C 0.94875 0.80161 0.95935 0.0
C242 C 0.9683 0.81145 0.93623 0.0
C243 C 0.93435 0.85281 0.92462 0.0
C244 C 0.91589 0.84379 0.94824 0.0
C245 C 0.88934 0.86455 0.95241 0.0
H246 H 0.80377 0.9802 0.9005 0.0
C247 C 0.92035 0.87943 0.91008 0.0
C248 C 0.89413 0.88661 0.92649 0.0
H249 H 0.79251 0.92928 0.98307 0.0
H250 H 0.83776 0.90064 0.97222 0.0
H251 H 0.8249 0.92482 0.85822 0.0
H252 H 0.87394 0.991 0.90972 0.0
H253 H 0.89495 0.98518 0.87663 0.0
H254 H 0.85694 0.99982 0.87396 0.0
H255 H 0.8276 0.96378 0.84718 0.0
H256 H 0.85562 0.93645 0.83589 0.0
C257 C 0.86003 0.8458 0.94837 0.0
C258 C 0.89232 0.88013 0.9837 0.0
C259 C 0.96514 0.92345 0.81326 0.0
C260 C 0.95582 0.94715 0.79412 0.0
C261 C 0.92904 0.96295 0.80112 0.0
C262 C 0.91207 0.95571 0.82677 0.0
C263 C 0.92172 0.93223 0.84578 0.0
C264 C 0.94778 0.91644 0.83893 0.0
C265 C 0.9542 0.89203 0.86183 0.0
C266 C 0.92781 0.89602 0.88353 0.0
C267 C 0.9089 0.9196 0.87387 0.0
C268 C 0.953 0.86122 0.8453 0.0
C269 C 0.98493 0.89903 0.87716 0.0
C270 C 0.8112 0.96282 0.9161 0.0
C271 C 0.79478 0.95666 0.94252 0.0
C272 C 0.80507 0.93425 0.96262 0.0
C273 C 0.83125 0.91768 0.95626 0.0
C274 C 0.84744 0.92381 0.92962 0.0
C275 C 0.83766 0.94642 0.91034 0.0
C276 C 0.85873 0.95089 0.88404 0.0
C277 C 0.88259 0.92709 0.89062 0.0
C278 C 0.87555 0.91098 0.91703 0.0
C279 C 0.84096 0.94388 0.85465 0.0
C280 C 0.87178 0.98341 0.88583 0.0
H281 H 0.97675 0.8431 0.90118 0.0
H282 H 0.90733 0.81109 0.98359 0.0
H283 H 0.91618 0.88052 0.9917 0.0
H284 H 0.88558 0.90422 0.983 0.0
H285 H 0.87873 0.86822 1.00116 0.0
H286 H 0.86186 0.83082 0.92827 0.0
H287 H 0.85584 0.83126 0.96845 0.0
H288 H 0.83983 0.85985 0.94448 0.0
H289 H 0.98562 0.91091 0.80859 0.0
H290 H 0.9209 0.98082 0.78647 0.0
H291 H 0.89198 0.96866 0.83068 0.0
H292 H 0.93375 0.86059 0.82911 0.0
H293 H 0.97409 0.85725 0.83226 0.0
H294 H 0.94927 0.84192 0.86064 0.0
H295 H 0.98873 0.92384 0.87888 0.0
H296 H 0.98607 0.89076 0.90072 0.0
H297 H 0.00403 0.88935 0.86407 0.0
H298 H 0.98874 0.79893 0.93124 0.0
C299 C 0.96121 0.83692 0.91875 0.0
C300 C 0.7243 0.09847 0.43494 0.0
C301 C 0.73856 0.07607 0.41761 0.0
C302 C 0.72682 0.06865 0.38899 0.0
C303 C 0.68695 0.10579 0.39535 0.0
C304 C 0.69887 0.11327 0.42326 0.0
C305 C 0.68262 0.13943 0.43762 0.0
H306 H 0.57879 0.25096 0.42543 0.0
C307 C 0.6609 0.12596 0.38957 0.0
C308 C 0.65841 0.14588 0.41415 0.0
H309 H 0.6428 0.23637 0.49773 0.0
H310 H 0.65938 0.18988 0.47412 0.0
H311 H 0.55615 0.18351 0.42324 0.0
H312 H 0.62168 0.23098 0.3692 0.0
H313 H 0.5967 0.21098 0.34528 0.0
H314 H 0.58196 0.23949 0.37001 0.0
H315 H 0.54499 0.2054 0.391 0.0
H316 H 0.55543 0.16606 0.38761 0.0
C317 C 0.66878 0.12852 0.46787 0.0
C318 C 0.7054 0.16594 0.44077 0.0
C319 C 0.5988 0.11367 0.29356 0.0
C320 C 0.57227 0.12763 0.28306 0.0
C321 C 0.55871 0.15043 0.30057 0.0
C322 C 0.57178 0.15965 0.32796 0.0
C323 C 0.59848 0.14565 0.33811 0.0
C324 C 0.61123 0.1227 0.32124 0.0
C325 C 0.63852 0.10918 0.33642 0.0
C326 C 0.64006 0.12783 0.36518 0.0
C327 C 0.6169 0.14951 0.36575 0.0
C328 C 0.63169 0.07547 0.34307 0.0
C329 C 0.66635 0.11461 0.31581 0.0
C330 C 0.59646 0.23773 0.43604 0.0
C331 C 0.60997 0.24747 0.4631 0.0
C332 C 0.63223 0.22931 0.47679 0.0
C333 C 0.64193 0.20249 0.46293 0.0
C334 C 0.62912 0.1937 0.43515 0.0
C335 C 0.60621 0.21083 0.42261 0.0
C336 C 0.59429 0.1974 0.39372 0.0
C337 C 0.61509 0.17039 0.39003 0.0
C338 C 0.63552 0.16839 0.41427 0.0
C339 C 0.56095 0.18771 0.39889 0.0
C340 C 0.59866 0.22086 0.36807 0.0
H341 H 0.69302 0.07659 0.35592 0.0
H342 H 0.73341 0.10505 0.45671 0.0
H343 H 0.72192 0.16601 0.4218 0.0
H344 H 0.69457 0.18836 0.43964 0.0
H345 H 0.71844 0.16419 0.46217 0.0
H346 H 0.65968 0.10516 0.46562 0.0
H347 H 0.68603 0.12828 0.48613 0.0
H348 H 0.64936 0.14236 0.4752 0.0
H349 H 0.60933 0.09569 0.28074 0.0
H350 H 0.5382 0.16134 0.29282 0.0
H351 H 0.56066 0.17738 0.34014 0.0
H352 H 0.60787 0.07251 0.35064 0.0
H353 H 0.63495 0.06142 0.32253 0.0
H354 H 0.64557 0.06611 0.36157 0.0
H355 H 0.66428 0.13636 0.30332 0.0
H356 H 0.68768 0.11671 0.32865 0.0
H357 H 0.66871 0.09631 0.29881 0.0
H358 H 0.73775 0.05158 0.37528 0.0
C359 C 0.70093 0.08321 0.37786 0.0
C360 C 0.46098 0.62497 0.22927 0.0
C361 C 0.4498 0.60433 0.25073 0.0
C362 C 0.42377 0.58728 0.24395 0.0
C363 C 0.41999 0.61169 0.19512 0.0
C364 C 0.44553 0.62849 0.20176 0.0
C365 C 0.45289 0.65082 0.1771 0.0
H366 H 0.41257 0.71822 0.04546 0.0
C367 C 0.40896 0.62101 0.16503 0.0
C368 C 0.42806 0.64399 0.15429 0.0
H369 H 0.48646 0.74142 0.10518 0.0
H370 H 0.47519 0.69832 0.13655 0.0
H371 H 0.36372 0.70146 0.09794 0.0
H372 H 0.42521 0.64789 0.04512 0.0
H373 H 0.39419 0.62435 0.05304 0.0
H374 H 0.38872 0.65826 0.03085 0.0
H375 H 0.36135 0.69687 0.05764 0.0
H376 H 0.34424 0.67006 0.08283 0.0
C377 C 0.45009 0.6831 0.19046 0.0
C378 C 0.4846 0.64317 0.16443 0.0
C379 C 0.31452 0.572 0.12147 0.0
C380 C 0.29988 0.57488 0.0935 0.0
C381 C 0.31195 0.59433 0.07136 0.0
C382 C 0.33791 0.61148 0.07733 0.0
C383 C 0.35202 0.60901 0.10569 0.0
C384 C 0.34078 0.5889 0.12688 0.0
C385 C 0.35991 0.58786 0.15495 0.0
C386 C 0.38411 0.61105 0.14732 0.0
C387 C 0.37898 0.6238 0.11871 0.0
C388 C 0.34009 0.598 0.182 0.0
C389 C 0.37315 0.55554 0.15792 0.0
C390 C 0.42627 0.71398 0.06532 0.0
C391 C 0.45028 0.73342 0.07292 0.0
C392 C 0.46797 0.72673 0.09863 0.0
C393 C 0.46119 0.70185 0.11705 0.0
C394 C 0.43634 0.68342 0.10989 0.0
C395 C 0.41976 0.6892 0.08402 0.0
C396 C 0.39442 0.66686 0.07977 0.0
C397 C 0.3977 0.64768 0.10812 0.0
C398 C 0.42224 0.65756 0.12572 0.0
C399 C 0.36423 0.68455 0.07935 0.0
C400 C 0.40067 0.64842 0.05064 0.0
H401 H 0.3892 0.57708 0.21255 0.0
H402 H 0.48076 0.63859 0.23414 0.0
H403 H 0.48766 0.61827 0.16274 0.0
H404 H 0.48818 0.65182 0.14128 0.0
H405 H 0.50271 0.6521 0.17938 0.0
H406 H 0.43237 0.68398 0.2083 0.0
H407 H 0.47171 0.69054 0.20087 0.0
H408 H 0.44286 0.70006 0.17363 0.0
H409 H 0.30574 0.55689 0.13867 0.0
H410 H 0.30082 0.59673 0.04966 0.0
H411 H 0.34579 0.62628 0.05979 0.0
H412 H 0.32408 0.61611 0.17504 0.0
H413 H 0.32649 0.57887 0.19098 0.0
H414 H 0.35335 0.60803 0.20062 0.0
H415 H 0.37748 0.54546 0.13529 0.0
H416 H 0.39536 0.55512 0.16934 0.0
H417 H 0.35731 0.5403 0.1701 0.0
H418 H 0.41495 0.57113 0.26016 0.0
C419 C 0.40892 0.59072 0.21626 0.0
C420 C 0.10708 0.29796 0.59911 0.0
C421 C 0.12093 0.28911 0.57195 0.0
C422 C 0.14318 0.30777 0.55893 0.0
C423 C 0.13881 0.34272 0.60098 0.0
C424 C 0.1161 0.32491 0.61302 0.0
C425 C 0.10306 0.3381 0.64152 0.0
H426 H 0.11119 0.44228 0.75314 0.0
C427 C 0.14365 0.36852 0.62167 0.0
C428 C 0.12257 0.36613 0.64529 0.0
H429 H 0.04428 0.37204 0.74168 0.0
H430 H 0.06783 0.35689 0.69461 0.0
H431 H 0.10807 0.4648 0.68496 0.0
H432 H 0.16979 0.40402 0.72948 0.0
H433 H 0.19097 0.4289 0.70673 0.0
H434 H 0.16858 0.44384 0.73724 0.0
H435 H 0.13733 0.47825 0.70965 0.0
H436 H 0.14414 0.47179 0.66994 0.0
C437 C 0.06944 0.34616 0.63563 0.0
C438 C 0.108 0.31513 0.66748 0.0
C439 C 0.23106 0.44064 0.6028 0.0
C440 C 0.24263 0.46567 0.61869 0.0
C441 C 0.2279 0.47495 0.64541 0.0
C442 C 0.20235 0.45942 0.65618 0.0
C443 C 0.19135 0.43425 0.64015 0.0
C444 C 0.20558 0.42544 0.61381 0.0
C445 C 0.19092 0.39821 0.59969 0.0
C446 C 0.16552 0.39206 0.62191 0.0
C447 C 0.16593 0.41312 0.64565 0.0
C448 C 0.17875 0.40735 0.56809 0.0
C449 C 0.21447 0.37231 0.59924 0.0
C450 C 0.10183 0.4235 0.7405 0.0
C451 C 0.07621 0.40796 0.75111 0.0
C452 C 0.06411 0.38415 0.73384 0.0
C453 C 0.07782 0.37543 0.70661 0.0
C454 C 0.10369 0.39095 0.69639 0.0
C455 C 0.11493 0.41491 0.713 0.0
C456 C 0.14143 0.42993 0.69778 0.0
C457 C 0.14451 0.4108 0.66948 0.0
C458 C 0.12267 0.3877 0.66905 0.0
C459 C 0.1326 0.463 0.69028 0.0
C460 C 0.16925 0.42681 0.71881 0.0
H461 H 0.16969 0.34757 0.56262 0.0
H462 H 0.08941 0.28425 0.60916 0.0
H463 H 0.13142 0.30601 0.66681 0.0
H464 H 0.10533 0.32516 0.69013 0.0
H465 H 0.09211 0.29577 0.66547 0.0
H466 H 0.0651 0.35048 0.61122 0.0
H467 H 0.05417 0.32754 0.64284 0.0
H468 H 0.06256 0.36731 0.64704 0.0
H469 H 0.24201 0.43249 0.58249 0.0
H470 H 0.23607 0.49431 0.65795 0.0
H471 H 0.19226 0.46753 0.67667 0.0
H472 H 0.17195 0.43156 0.56761 0.0
H473 H 0.19619 0.40408 0.55033 0.0
H474 H 0.15804 0.39484 0.56174 0.0
H475 H 0.22778 0.37202 0.6206 0.0
H476 H 0.20419 0.34965 0.59771 0.0
H477 H 0.23062 0.37519 0.58022 0.0
H478 H 0.15393 0.30133 0.5379 0.0
C479 C 0.15231 0.33449 0.57338 0.0
Zn480 Zn 0.97877 0.06344 0.55336 0.0
Zn481 Zn 0.04164 0.9871 0.48323 0.0
Zn482 Zn 0.00972 0.02547 0.51894 0.0
C483 C 0.06262 0.04619 0.47219 0.0
C484 C 0.98032 0.98164 0.46786 0.0
O485 O 0.01484 0.01065 0.56649 0.0
O486 O 0.99109 0.04599 0.59277 0.0
C487 C 0.02087 0.09827 0.52294 0.0
O488 O 0.04228 0.05254 0.49207 0.0
O489 O 0.06738 0.01907 0.46465 0.0
O490 O 0.00597 0.97155 0.46052 0.0
O491 O 0.97762 0.00168 0.48882 0.0
O492 O 0.99829 0.10141 0.54007 0.0
O493 O 0.02842 0.07183 0.51327 0.0
O494 O 0.9612 0.02369 0.50511 0.0
O495 O 0.9381 0.05395 0.53748 0.0
C496 C 0.93686 0.03621 0.51519 0.0
O497 O 0.03406 0.99271 0.54842 0.0
O498 O 0.05848 0.96245 0.51696 0.0
C499 C 0.00625 0.02186 0.59196 0.0
C500 C 0.05195 0.97018 0.54366 0.0
Zn501 Zn 0.48875 0.04871 0.98408 0.0
Zn502 Zn 0.54812 0.97785 0.05973 0.0
Zn503 Zn 0.51932 0.01279 0.02036 0.0
C504 C 0.59138 0.00286 0.02005 0.0
C505 C 0.50891 0.94039 0.02825 0.0
O506 O 0.4936 0.0458 0.04801 0.0
O507 O 0.46848 0.07384 0.01508 0.0
C508 C 0.54921 0.05574 0.96861 0.0
O509 O 0.56771 0.01482 0.00797 0.0
O510 O 0.58894 0.9864 0.04329 0.0
O511 O 0.52868 0.93929 0.04876 0.0
O512 O 0.50225 0.96565 0.01527 0.0
O513 O 0.52334 0.06571 0.96195 0.0
O514 O 0.55234 0.03569 0.98959 0.0
O515 O 0.48731 0.98391 0.99411 0.0
O516 O 0.46587 0.01672 0.96297 0.0
C517 C 0.46919 0.98986 0.97203 0.0
O518 O 0.51401 0.03063 0.06722 0.0
O519 O 0.53637 0.99791 0.09781 0.0
C520 C 0.47487 0.06734 0.04213 0.0
C521 C 0.52199 0.02223 0.09403 0.0
Zn522 Zn 0.54663 0.55169 0.55447 0.0
Zn523 Zn 0.48018 0.48344 0.48794 0.0
Zn524 Zn 0.51521 0.51883 0.52208 0.0
C525 C 0.52284 0.44598 0.51533 0.0
C526 C 0.50741 0.52597 0.44962 0.0
O527 O 0.48486 0.5459 0.55186 0.0
O528 O 0.51597 0.58306 0.56375 0.0
C529 C 0.55676 0.49457 0.57547 0.0
O530 O 0.53175 0.47151 0.52629 0.0
O531 O 0.49988 0.44464 0.49844 0.0
O532 O 0.49036 0.50308 0.44886 0.0
O533 O 0.51898 0.53506 0.47479 0.0
O534 O 0.55609 0.52107 0.58598 0.0
O535 O 0.54551 0.48921 0.54912 0.0
O536 O 0.54254 0.54844 0.49172 0.0
O537 O 0.57835 0.56106 0.52406 0.0
C538 C 0.56866 0.56022 0.49724 0.0
O539 O 0.46775 0.52285 0.53822 0.0
O540 O 0.44113 0.49358 0.50742 0.0
C541 C 0.48956 0.57223 0.56347 0.0
C542 C 0.44234 0.51129 0.52972 0.0
Zn543 Zn 0.05701 0.55341 0.97345 0.0
Zn544 Zn 0.98884 0.49353 0.05186 0.0
Zn545 Zn 0.02466 0.52409 0.01296 0.0
C546 C 0.0494 0.48253 0.06816 0.0
C547 C 0.97757 0.47071 0.99397 0.0
O548 O 0.01191 0.57291 0.01527 0.0
O549 O 0.04313 0.5945 0.98267 0.0
C550 C 0.09748 0.52763 0.0144 0.0
O551 O 0.05442 0.49981 0.04518 0.0
O552 O 0.02263 0.47702 0.0765 0.0
O553 O 0.96999 0.46669 0.02121 0.0
O554 O 0.99736 0.49099 0.98697 0.0
O555 O 0.09697 0.54178 0.98961 0.0
O556 O 0.07255 0.5191 0.02693 0.0
O557 O 0.01804 0.50455 0.96682 0.0
O558 O 0.04332 0.53441 0.93559 0.0
C559 C 0.02675 0.51159 0.93985 0.0
O560 O 0.9951 0.55683 0.03695 0.0
O561 O 0.96604 0.52908 0.06704 0.0
C562 C 0.02226 0.59676 0.00196 0.0
C563 C 0.97395 0.55457 0.05692 0.0
H564 H 0.14051 0.20643 0.38221 0.0
H565 H 0.16328 0.12694 0.33034 0.0
H566 H 0.11561 0.17437 0.42001 0.0
H567 H 0.13894 0.09525 0.36796 0.0
H568 H 0.1203 0.04298 0.45191 0.0
H569 H 0.14711 0.07939 0.42039 0.0
H570 H 0.07059 0.1398 0.42493 0.0
H571 H 0.04366 0.10307 0.45651 0.0
C572 C 0.14016 0.1822 0.37882 0.0
C573 C 0.15423 0.16925 0.35339 0.0
C574 C 0.12595 0.16387 0.40048 0.0
C575 C 0.12567 0.13226 0.39719 0.0
C576 C 0.13942 0.11946 0.3716 0.0
C577 C 0.15343 0.13768 0.35 0.0
C578 C 0.10936 0.06421 0.44652 0.0
C579 C 0.07997 0.07027 0.45679 0.0
C580 C 0.12465 0.08502 0.42837 0.0
C581 C 0.11082 0.1123 0.41983 0.0
C582 C 0.08194 0.11906 0.43129 0.0
C583 C 0.06657 0.09812 0.4495 0.0
H584 H 0.3836 0.83006 0.88925 0.0
H585 H 0.35378 0.9094 0.84053 0.0
H586 H 0.41314 0.86231 0.92329 0.0
H587 H 0.38183 0.94125 0.8751 0.0
H588 H 0.46404 0.9866 0.91169 0.0
H589 H 0.43535 0.95056 0.88186 0.0
H590 H 0.40997 0.9029 0.96337 0.0
H591 H 0.43912 0.93961 0.99341 0.0
C592 C 0.38309 0.85431 0.88594 0.0
C593 C 0.36637 0.86706 0.86198 0.0
C594 C 0.39977 0.87277 0.90563 0.0
C595 C 0.40017 0.90429 0.90164 0.0
C596 C 0.3825 0.917 0.87846 0.0
C597 C 0.36598 0.89868 0.85886 0.0
C598 C 0.45251 0.96831 0.92326 0.0
C599 C 0.45388 0.96572 0.95484 0.0
C600 C 0.43593 0.94773 0.90619 0.0
C601 C 0.41991 0.92416 0.92026 0.0
C602 C 0.42216 0.92078 0.95187 0.0
C603 C 0.43899 0.94154 0.96906 0.0
H604 H 0.67327 0.4243 0.70987 0.0
H605 H 0.6532 0.34218 0.66107 0.0
H606 H 0.63959 0.45234 0.67675 0.0
H607 H 0.61874 0.37045 0.62792 0.0
H608 H 0.59195 0.44746 0.55635 0.0
H609 H 0.62116 0.41249 0.58799 0.0
H610 H 0.58443 0.45476 0.66789 0.0
H611 H 0.55517 0.48908 0.63629 0.0
C612 C 0.66179 0.41226 0.6919 0.0
C613 C 0.66605 0.38105 0.68799 0.0
C614 C 0.64218 0.42827 0.67315 0.0
C615 C 0.62629 0.41354 0.64991 0.0
C616 C 0.63072 0.38237 0.64564 0.0
C617 C 0.65027 0.3662 0.66469 0.0
C618 C 0.58928 0.44833 0.58058 0.0
C619 C 0.57109 0.47065 0.59383 0.0
C620 C 0.6062 0.42859 0.59874 0.0
C621 C 0.60535 0.43115 0.63043 0.0
C622 C 0.58597 0.45257 0.64355 0.0
C623 C 0.56914 0.47215 0.62546 0.0
H624 H 0.92802 0.69933 0.18176 0.0
H625 H 0.84523 0.65087 0.16239 0.0
H626 H 0.95311 0.67263 0.14137 0.0
H627 H 0.87134 0.62144 0.12477 0.0
H628 H 0.91742 0.57692 0.04852 0.0
H629 H 0.89239 0.61569 0.07862 0.0
H630 H 0.97494 0.62801 0.12998 0.0
H631 H 1.00012 0.59133 0.09784 0.0
C632 C 0.91497 0.68308 0.16897 0.0
C633 C 0.88438 0.67738 0.17586 0.0
C634 C 0.9297 0.66716 0.14598 0.0
C635 C 0.91464 0.64433 0.12967 0.0
C636 C 0.8839 0.63902 0.13623 0.0
C637 C 0.86894 0.65555 0.15859 0.0
C638 C 0.93025 0.58879 0.06568 0.0
C639 C 0.96063 0.58156 0.07083 0.0
C640 C 0.91586 0.61068 0.08336 0.0
C641 C 0.93122 0.62484 0.10748 0.0
C642 C 0.96218 0.61823 0.11156 0.0
C643 C 0.97674 0.59705 0.09321 0.0
H644 H 0.38453 0.14155 0.20345 0.0
H645 H 0.33544 0.16946 0.12367 0.0
H646 H 0.42229 0.11686 0.17132 0.0
H647 H 0.37305 0.14538 0.09195 0.0
H648 H 0.4574 0.12595 0.04106 0.0
H649 H 0.42634 0.15244 0.07795 0.0
H650 H 0.42588 0.07304 0.1349 0.0
H651 H 0.45699 0.04642 0.09769 0.0
C652 C 0.38176 0.1424 0.17914 0.0
C653 C 0.35712 0.15781 0.16614 0.0
C654 C 0.40339 0.12832 0.16078 0.0
C655 C 0.40085 0.12953 0.12912 0.0
C656 C 0.37609 0.14469 0.11625 0.0
C657 C 0.35451 0.15856 0.13448 0.0
C658 C 0.451 0.11428 0.06165 0.0
C659 C 0.45968 0.08418 0.06659 0.0
C660 C 0.43315 0.1294 0.08272 0.0
C661 C 0.42334 0.11469 0.10914 0.0
C662 C 0.43326 0.08503 0.11485 0.0
C663 C 0.45117 0.06983 0.09364 0.0
H664 H 0.18386 0.92561 0.67899 0.0
H665 H 0.14063 0.83955 0.6632 0.0
H666 H 0.14697 0.95028 0.64649 0.0
H667 H 0.10297 0.86427 0.6313 0.0
H668 H 0.07033 0.91165 0.54447 0.0
H669 H 0.10038 0.88624 0.58282 0.0
H670 H 0.0966 0.96625 0.63874 0.0
H671 H 0.06842 0.9923 0.5991 0.0
C672 C 0.16605 0.91206 0.66903 0.0
C673 C 0.16524 0.88062 0.67353 0.0
C674 C 0.14475 0.92622 0.65046 0.0
C675 C 0.1219 0.90934 0.63609 0.0
C676 C 0.12054 0.87797 0.64148 0.0
C677 C 0.14207 0.86376 0.65981 0.0
C678 C 0.07565 0.92369 0.56512 0.0
C679 C 0.0665 0.95383 0.56901 0.0
C680 C 0.09268 0.90901 0.58731 0.0
C681 C 0.101 0.92408 0.61405 0.0
C682 C 0.09092 0.95397 0.61835 0.0
C683 C 0.07413 0.96875 0.59594 0.0
H684 H 0.89458 0.32706 0.88721 0.0
H685 H 0.84282 0.40813 0.8705 0.0
H686 H 0.93217 0.35676 0.91464 0.0
H687 H 0.88032 0.43775 0.89787 0.0
H688 H 0.96081 0.48715 0.93664 0.0
H689 H 0.9325 0.4567 0.90003 0.0
H690 H 0.93137 0.38222 0.96336 0.0
H691 H 0.9604 0.41222 0.99918 0.0
C692 C 0.8913 0.35123 0.88926 0.0
C693 C 0.86556 0.36517 0.8769 0.0
C694 C 0.91286 0.36825 0.90492 0.0
C695 C 0.90915 0.3996 0.90861 0.0
C696 C 0.88409 0.41373 0.89511 0.0
C697 C 0.86254 0.39671 0.87945 0.0
C698 C 0.95525 0.46397 0.94224 0.0
C699 C 0.96307 0.45189 0.97054 0.0
C700 C 0.93872 0.44667 0.92149 0.0
C701 C 0.92965 0.41702 0.92878 0.0
C702 C 0.93834 0.40477 0.95679 0.0
C703 C 0.95475 0.42205 0.97745 0.0
H704 H 0.66051 0.6306 0.33483 0.0
H705 H 0.70987 0.66198 0.41303 0.0
H706 H 0.62548 0.6032 0.36808 0.0
H707 H 0.67476 0.63542 0.44597 0.0
H708 H 0.62974 0.55907 0.49527 0.0
H709 H 0.66305 0.58269 0.45835 0.0
H710 H 0.58537 0.61336 0.40771 0.0
H711 H 0.55202 0.58989 0.44533 0.0
C712 C 0.66386 0.63165 0.35906 0.0
C713 C 0.68793 0.64851 0.3713 0.0
C714 C 0.6437 0.61618 0.37807 0.0
C715 C 0.64747 0.61699 0.40963 0.0
C716 C 0.67145 0.63398 0.42175 0.0
C717 C 0.69139 0.64952 0.40286 0.0
C718 C 0.61974 0.57065 0.47613 0.0
C719 C 0.58819 0.57235 0.47292 0.0
C720 C 0.63883 0.58426 0.45502 0.0
C721 C 0.62687 0.60012 0.43021 0.0
C722 C 0.59529 0.60101 0.42639 0.0
C723 C 0.57613 0.58735 0.4477 0.0
H724 H 0.16695 0.38893 0.19696 0.0
H725 H 0.17828 0.34456 0.11087 0.0
H726 H 0.13665 0.42818 0.17267 0.0
H727 H 0.14732 0.38302 0.08668 0.0
H728 H 0.10369 0.46386 0.04511 0.0
H729 H 0.14229 0.43371 0.07055 0.0
H730 H 0.08789 0.43314 0.15179 0.0
H731 H 0.05057 0.46483 0.12691 0.0
C732 C 0.16291 0.3876 0.17284 0.0
C733 C 0.17491 0.36368 0.15582 0.0
C734 C 0.14551 0.41003 0.15889 0.0
C735 C 0.13937 0.40881 0.12766 0.0
C736 C 0.15198 0.38513 0.11062 0.0
C737 C 0.16963 0.36294 0.12451 0.0
C738 C 0.10059 0.45816 0.0687 0.0
C739 C 0.0744 0.46714 0.08416 0.0
C740 C 0.12243 0.44042 0.08318 0.0
C741 C 0.11821 0.43075 0.11325 0.0
C742 C 0.09228 0.44047 0.12884 0.0
C743 C 0.07069 0.45845 0.11448 0.0
H744 H 0.70435 0.15269 0.88643 0.0
H745 H 0.61821 0.19057 0.86006 0.0
H746 H 0.67781 0.11329 0.91542 0.0
H747 H 0.59222 0.15118 0.88799 0.0
H748 H 0.55254 0.06282 0.90846 0.0
H749 H 0.58825 0.09407 0.8805 0.0
H750 H 0.6393 0.10934 0.96228 0.0
H751 H 0.60328 0.07743 0.99048 0.0
C752 C 0.67987 0.15271 0.88684 0.0
C753 C 0.66342 0.1745 0.87038 0.0
C754 C 0.66476 0.13014 0.90337 0.0
C755 C 0.63301 0.12887 0.90343 0.0
C756 C 0.61673 0.15112 0.8877 0.0
C757 C 0.63167 0.17365 0.87155 0.0
C758 C 0.57186 0.07216 0.92031 0.0
C759 C 0.57511 0.06798 0.95158 0.0
C760 C 0.5922 0.09014 0.90436 0.0
C761 C 0.61612 0.10463 0.91937 0.0
C762 C 0.62099 0.09844 0.95022 0.0
C763 C 0.60048 0.0802 0.9663 0.0
H764 H 0.87828 0.88347 0.33625 0.0
H765 H 0.83333 0.86028 0.42005 0.0
H766 H 0.9091 0.91963 0.36283 0.0
H767 H 0.86106 0.89949 0.44568 0.0
H768 H 0.94407 0.93923 0.49231 0.0
H769 H 0.90635 0.90886 0.46644 0.0
H770 H 0.91784 0.96391 0.3861 0.0
H771 H 0.95782 0.99207 0.41167 0.0
C772 C 0.87459 0.88615 0.36027 0.0
C773 C 0.85348 0.86805 0.37582 0.0
C774 C 0.89195 0.90771 0.37556 0.0
C775 C 0.8881 0.91267 0.40679 0.0
C776 C 0.8656 0.89595 0.42192 0.0
C777 C 0.84898 0.87368 0.40685 0.0
C778 C 0.93805 0.94494 0.46924 0.0
C779 C 0.95355 0.96787 0.4539 0.0
C780 C 0.9162 0.92768 0.4543 0.0
C781 C 0.90884 0.93346 0.42377 0.0
C782 C 0.92332 0.9579 0.40917 0.0
C783 C 0.94594 0.97443 0.42387 0.0
H784 H 0.40234 0.71096 0.66507 0.0
H785 H 0.32568 0.6559 0.6397 0.0
H786 H 0.43587 0.67689 0.63825 0.0
H787 H 0.35948 0.62204 0.61179 0.0
H788 H 0.43988 0.5531 0.59533 0.0
H789 H 0.40157 0.58471 0.61995 0.0
H790 H 0.44646 0.66457 0.58581 0.0
H791 H 0.48415 0.63301 0.56124 0.0
C792 C 0.39263 0.69143 0.65393 0.0
C793 C 0.3613 0.68613 0.65467 0.0
C794 C 0.41185 0.67209 0.63818 0.0
C795 C 0.40032 0.64691 0.62259 0.0
C796 C 0.36904 0.64122 0.62363 0.0
C797 C 0.34969 0.66073 0.6394 0.0
C798 C 0.44083 0.57731 0.59236 0.0
C799 C 0.46469 0.59055 0.57613 0.0
C800 C 0.41913 0.59546 0.60665 0.0
C801 C 0.42119 0.62719 0.60513 0.0
C802 C 0.44455 0.64024 0.58796 0.0
C803 C 0.46608 0.62217 0.57378 0.0
H804 H 0.96843 0.00381 0.77371 0.0
H805 H 0.98278 0.90969 0.75246 0.0
H806 H 0.98937 0.01826 0.72541 0.0
H807 H 0.00581 0.92424 0.7043 0.0
H808 H 0.99267 0.96357 0.60609 0.0
H809 H 0.98888 0.94251 0.65703 0.0
H810 H 0.03004 0.02361 0.6931 0.0
H811 H 0.03154 0.04519 0.64241 0.0
C812 C 0.97656 0.98617 0.75883 0.0
C813 C 0.97332 0.95559 0.76668 0.0
C814 C 0.98915 0.99448 0.73118 0.0
C815 C 0.99934 0.97245 0.71065 0.0
C816 C 0.99781 0.94183 0.71929 0.0
C817 C 0.98491 0.93347 0.74704 0.0
C818 C 0.00151 0.97644 0.62496 0.0
C819 C 0.01188 0.00609 0.62065 0.0
C820 C 0.99951 0.96438 0.65419 0.0
C821 C 0.00834 0.98169 0.67945 0.0
C822 C 0.02193 0.01006 0.6744 0.0
C823 C 0.02312 0.02236 0.64537 0.0
H824 H 0.51501 0.10685 0.27316 0.0
H825 H 0.59925 0.12637 0.22795 0.0
H826 H 0.49455 0.08578 0.22598 0.0
H827 H 0.57869 0.10605 0.18078 0.0
H828 H 0.5277 0.08352 0.09574 0.0
H829 H 0.53393 0.11459 0.14122 0.0
H830 H 0.51432 0.03687 0.19698 0.0
H831 H 0.50879 0.00576 0.15168 0.0
C832 C 0.52884 0.10718 0.25295 0.0
C833 C 0.5587 0.118 0.25406 0.0
C834 C 0.51719 0.09518 0.22608 0.0
C835 C 0.535 0.09452 0.19978 0.0
C836 C 0.56435 0.10668 0.20063 0.0
C837 C 0.5762 0.11805 0.2276 0.0
C838 C 0.52379 0.07338 0.1177 0.0
C839 C 0.51794 0.04227 0.12032 0.0
C840 C 0.5275 0.09107 0.14365 0.0
C841 C 0.52479 0.07801 0.17252 0.0
C842 C 0.51635 0.04751 0.17499 0.0
C843 C 0.51328 0.02972 0.14912 0.0
H844 H 0.42373 0.6095 0.30586 0.0
H845 H 0.5088 0.59009 0.26236 0.0
H846 H 0.44559 0.59661 0.3548 0.0
H847 H 0.5309 0.57687 0.31163 0.0
H848 H 0.52638 0.50648 0.39474 0.0
H849 H 0.5188 0.53218 0.34632 0.0
H850 H 0.48503 0.61065 0.3934 0.0
H851 H 0.4926 0.58474 0.44178 0.0
C852 C 0.4473 0.60294 0.30695 0.0
C853 C 0.46457 0.60055 0.28047 0.0
C854 C 0.45991 0.59581 0.33496 0.0
C855 C 0.48997 0.58576 0.33703 0.0
C856 C 0.50766 0.58452 0.31063 0.0
C857 C 0.49511 0.59215 0.28256 0.0
C858 C 0.5184 0.52963 0.39465 0.0
C859 C 0.51044 0.54388 0.4218 0.0
C860 C 0.51413 0.54437 0.36701 0.0
C861 C 0.50119 0.57337 0.36611 0.0
C862 C 0.49493 0.58827 0.39346 0.0
C863 C 0.49945 0.57359 0.42109 0.0
H864 H 0.0185 0.42734 0.76083 0.0
H865 H 0.10277 0.40898 0.80637 0.0
H866 H 0.99743 0.44755 0.80811 0.0
H867 H 0.0816 0.42836 0.85363 0.0
H868 H 0.0312 0.45024 0.93856 0.0
H869 H 0.03679 0.41905 0.89306 0.0
H870 H 0.01668 0.49664 0.83737 0.0
H871 H 0.01188 0.52784 0.88266 0.0
C872 C 0.03219 0.42704 0.78114 0.0
C873 C 0.06223 0.41684 0.78011 0.0
C874 C 0.02019 0.43853 0.80807 0.0
C875 C 0.03783 0.43925 0.8345 0.0
C876 C 0.06737 0.42763 0.8337 0.0
C877 C 0.07956 0.41681 0.80668 0.0
C878 C 0.02693 0.46028 0.91661 0.0
C879 C 0.02125 0.49139 0.91397 0.0
C880 C 0.03029 0.44253 0.89065 0.0
C881 C 0.02738 0.45555 0.86178 0.0
C882 C 0.01885 0.48601 0.85934 0.0
C883 C 0.01616 0.50386 0.88521 0.0
H884 H 0.78481 0.99714 0.98734 0.0
H885 H 0.74141 0.95188 0.91281 0.0
H886 H 0.73629 0.01839 0.00288 0.0
H887 H 0.69244 0.97139 0.9291 0.0
H888 H 0.60621 0.01172 0.96039 0.0
H889 H 0.65682 0.0101 0.93818 0.0
H890 H 0.6949 0.99714 0.02738 0.0
H891 H 0.64498 1.0008 0.04928 0.0
C892 C 0.76478 0.99209 0.97416 0.0
C893 C 0.76651 0.97285 0.94911 0.0
C894 C 0.73697 0.00401 0.98309 0.0
C895 C 0.71023 0.99619 0.96762 0.0
C896 C 0.71245 0.97823 0.94143 0.0
C897 C 0.74042 0.96683 0.93217 0.0
C898 C 0.62559 0.00977 0.97522 0.0
C899 C 0.62169 0.00659 0.00656 0.0
C900 C 0.65456 0.00833 0.96249 0.0
C901 C 0.68009 0.00324 0.98089 0.0
C902 C 0.67606 0.00158 0.01239 0.0
C903 C 0.64729 0.00333 0.02502 0.0
H904 H 0.74554 0.04209 0.46835 0.0
H905 H 0.79446 0.07864 0.39238 0.0
H906 H 0.79271 0.02327 0.48995 0.0
H907 H 0.84201 0.06187 0.41463 0.0
H908 H 0.92569 0.02517 0.4553 0.0
H909 H 0.8768 0.0256 0.42969 0.0
H910 H 0.83306 0.04393 0.51524 0.0
H911 H 0.88135 0.04052 0.54065 0.0
C912 C 0.76652 0.0459 0.45627 0.0
C913 C 0.76658 0.06184 0.42887 0.0
C914 C 0.79362 0.03539 0.46869 0.0
C915 C 0.82149 0.0414 0.45441 0.0
C916 C 0.82117 0.05633 0.42623 0.0
C917 C 0.79395 0.0662 0.41349 0.0
C918 C 0.9054 0.0276 0.46868 0.0
C919 C 0.90733 0.03211 0.50001 0.0
C920 C 0.87736 0.02869 0.45395 0.0
C921 C 0.8507 0.0351 0.47021 0.0
C922 C 0.85273 0.0384 0.5018 0.0
C923 C 0.8806 0.03677 0.51646 0.0
H924 H 0.28991 0.52986 0.05303 0.0
H925 H 0.24577 0.58456 0.12033 0.0
H926 H 0.24119 0.50828 0.03836 0.0
H927 H 0.19674 0.5648 0.10462 0.0
H928 H 0.10991 0.52516 0.07517 0.0
H929 H 0.15985 0.52723 0.09883 0.0
H930 H 0.20124 0.52649 0.01018 0.0
H931 H 0.15187 0.52231 0.98715 0.0
C932 C 0.26965 0.53697 0.06481 0.0
C933 C 0.27128 0.55887 0.08757 0.0
C934 C 0.24172 0.52485 0.05634 0.0
C935 C 0.21478 0.53514 0.06986 0.0
C936 C 0.21685 0.55596 0.09386 0.0
C937 C 0.24489 0.56753 0.10276 0.0
C938 C 0.12983 0.52427 0.06094 0.0
C939 C 0.12704 0.52346 0.02934 0.0
C940 C 0.15845 0.52592 0.07443 0.0
C941 C 0.18477 0.52741 0.0565 0.0
C942 C 0.18177 0.52494 0.02494 0.0
C943 C 0.15333 0.52287 0.01159 0.0
H944 H 0.29 0.48767 0.65236 0.0
H945 H 0.25854 0.47866 0.56032 0.0
H946 H 0.33788 0.50799 0.63397 0.0
H947 H 0.3068 0.49711 0.54194 0.0
H948 H 0.39116 0.53957 0.51144 0.0
H949 H 0.34159 0.53698 0.53584 0.0
H950 H 0.38126 0.48731 0.61022 0.0
H951 H 0.43076 0.49128 0.58621 0.0
C952 C 0.2931 0.49038 0.62823 0.0
C953 C 0.27052 0.48114 0.60782 0.0
C954 C 0.32073 0.50173 0.61766 0.0
C955 C 0.32646 0.50397 0.58644 0.0
C956 C 0.30325 0.49608 0.56614 0.0
C957 C 0.27564 0.48498 0.57669 0.0
C958 C 0.38924 0.52906 0.5335 0.0
C959 C 0.41457 0.51593 0.54724 0.0
C960 C 0.36088 0.52723 0.54735 0.0
C961 C 0.35722 0.51151 0.57483 0.0
C962 C 0.38312 0.4999 0.58929 0.0
C963 C 0.41151 0.50207 0.57557 0.0
H964 H 0.91715 0.74916 0.95723 0.0
H965 H 0.99542 0.79071 0.99777 0.0
H966 H 0.93272 0.70004 0.97688 0.0
H967 H 0.01026 0.74208 0.01935 0.0
H968 H 0.05292 0.64938 1.00042 0.0
H969 H 0.0324 0.69986 0.99834 0.0
H970 H 0.94275 0.66405 0.01474 0.0
H971 H 0.9636 0.61281 0.0146 0.0
C972 C 0.93723 0.74777 0.97121 0.0
C973 C 0.95537 0.77336 0.97576 0.0
C974 C 0.94609 0.71969 0.98273 0.0
C975 C 0.97307 0.71682 0.99943 0.0
C976 C 0.98982 0.74317 0.00592 0.0
C977 C 0.9813 0.77107 0.99379 0.0
C978 C 0.02888 0.65231 0.00415 0.0
C979 C 0.00985 0.62716 0.00774 0.0
C980 C 0.01705 0.68143 0.0033 0.0
C981 C 0.98576 0.68631 0.00622 0.0
C982 C 0.9669 0.66119 0.01197 0.0
C983 C 0.97885 0.63184 0.01252 0.0
H984 H 0.50455 0.75733 0.05528 0.0
H985 H 0.40836 0.7737 0.05182 0.0
H986 H 0.51392 0.80745 0.03456 0.0
H987 H 0.41769 0.82365 0.03014 0.0
H988 H 0.45589 0.92156 0.05164 0.0
H989 H 0.43797 0.86941 0.05343 0.0
H990 H 0.50977 0.84299 0.99271 0.0
H991 H 0.52779 0.89537 0.99149 0.0
C992 C 0.48538 0.77145 0.04956 0.0
C993 C 0.45575 0.7617 0.05559 0.0
C994 C 0.49071 0.80007 0.03729 0.0
C995 C 0.46653 0.81967 0.0308 0.0
C996 C 0.4368 0.80921 0.03514 0.0
C997 C 0.43147 0.7805 0.04735 0.0
C998 C 0.46694 0.90476 0.03768 0.0
C999 C 0.49286 0.9123 0.02111 0.0
C1000 C 0.45675 0.87486 0.03868 0.0
C1001 C 0.47267 0.85193 0.02348 0.0
C1002 C 0.49725 0.86007 0.00496 0.0
C1003 C 0.50738 0.89002 0.00395 0.0
H1004 H 0.12356 0.23316 0.59676 0.0
H1005 H 0.0985 0.28034 0.51512 0.0
H1006 H 0.10476 0.18579 0.57533 0.0
H1007 H 0.07893 0.23287 0.49378 0.0
H1008 H 0.00223 0.15519 0.51034 0.0
H1009 H 0.03229 0.20136 0.51449 0.0
H1010 H 0.11248 0.1479 0.52956 0.0
H1011 H 0.08236 0.10152 0.5247 0.0
C1012 C 0.11436 0.2332 0.57405 0.0
C1013 C 0.11225 0.26024 0.55759 0.0
C1014 C 0.10389 0.20613 0.56168 0.0
C1015 C 0.09058 0.20571 0.53284 0.0
C1016 C 0.08926 0.23263 0.51599 0.0
C1017 C 0.10037 0.25967 0.52815 0.0
C1018 C 0.02647 0.15334 0.51343 0.0
C1019 C 0.04003 0.12494 0.51735 0.0
C1020 C 0.04367 0.17972 0.5157 0.0
C1021 C 0.07461 0.17812 0.52261 0.0
C1022 C 0.08862 0.14966 0.52432 0.0
C1023 C 0.07146 0.1232 0.5214 0.0
H1024 H 0.59261 0.26028 0.52117 0.0
H1025 H 0.60869 0.30147 0.43413 0.0
H1026 H 0.57604 0.30937 0.54119 0.0
H1027 H 0.59252 0.35024 0.45401 0.0
H1028 H 0.58158 0.43839 0.50023 0.0
H1029 H 0.60756 0.3901 0.49291 0.0
H1030 H 0.52966 0.34286 0.52819 0.0
H1031 H 0.5038 0.39122 0.53541 0.0
C1032 C 0.59294 0.27991 0.50651 0.0
C1033 C 0.60165 0.27715 0.47608 0.0
C1034 C 0.58346 0.30789 0.5179 0.0
C1035 C 0.58321 0.33362 0.4992 0.0
C1036 C 0.59289 0.33092 0.46907 0.0
C1037 C 0.60182 0.30297 0.4576 0.0
C1038 C 0.57059 0.41773 0.50753 0.0
C1039 C 0.54098 0.41839 0.51883 0.0
C1040 C 0.58528 0.39013 0.50308 0.0
C1041 C 0.57054 0.36275 0.50983 0.0
C1042 C 0.54168 0.3636 0.52309 0.0
C1043 C 0.52689 0.3912 0.52722 0.0
loop_
_geom_bond_atom_site_label_1
_geom_bond_atom_site_label_2
_geom_bond_distance
_geom_bond_site_symmetry_2
_ccdc_geom_bond_type
C0 C1 1.391 . S
C0 C4 1.391 . S
C0 H42 0.948 . S
C1 C0 1.391 . S
C1 C2 1.391 . S
C2 C1 1.391 . S
C2 H58 0.947 . S
C2 C59 1.392 . S
C3 C4 1.391 . S
C3 C7 1.397 . S
C3 C59 1.419 . S
C4 C0 1.391 . S
C4 C3 1.391 . S
C4 C5 1.399 . S
C5 C4 1.399 . S
C5 C8 1.396 . S
C5 C17 1.453 . S
C5 C18 1.684 . S
H6 C30 0.948 . S
C7 C3 1.397 . S
C7 C8 1.394 . S
C7 C26 1.723 . S
C8 C5 1.396 . S
C8 C7 1.394 . S
C8 C38 1.723 . S
H9 C32 0.947 . S
H10 C33 0.948 . S
H11 C39 0.982 . S
H12 C40 0.979 . S
H13 C40 0.980 . S
H14 C40 0.983 . S
H15 C39 0.979 . S
H16 C39 0.977 . S
C17 C5 1.453 . S
C17 H46 0.982 . S
C17 H47 0.979 . S
C17 H48 0.977 . S
C18 C5 1.684 . S
C18 H43 0.979 . S
C18 H44 0.980 . S
C18 H45 0.983 . S
C19 C20 1.391 . S
C19 C24 1.391 . S
C19 H49 0.948 . S
C20 C19 1.391 . S
C20 C21 1.391 . S
C21 C20 1.391 . S
C21 C22 1.392 . S
C21 H50 0.947 . S
C22 C21 1.392 . S
C22 C23 1.419 . S
C22 H51 0.948 . S
C23 C22 1.419 . S
C23 C24 1.391 . S
C23 C27 1.397 . S
C24 C19 1.391 . S
C24 C23 1.391 . S
C24 C25 1.399 . S
C25 C24 1.399 . S
C25 C26 1.396 . S
C25 C28 1.453 . S
C25 C29 1.684 . S
C26 C7 1.723 . S
C26 C25 1.396 . S
C26 C27 1.394 . S
C27 C23 1.397 . S
C27 C26 1.394 . S
C27 C37 1.723 . S
C28 C25 1.453 . S
C28 H52 0.982 . S
C28 H53 0.979 . S
C28 H54 0.977 . S
C29 C25 1.684 . S
C29 H55 0.979 . S
C29 H56 0.980 . S
C29 H57 0.983 . S
C30 H6 0.948 . S
C30 C31 1.391 . S
C30 C35 1.391 . S
C31 C30 1.391 . S
C31 C32 1.391 . S
C32 H9 0.947 . S
C32 C31 1.391 . S
C32 C33 1.392 . S
C33 H10 0.948 . S
C33 C32 1.392 . S
C33 C34 1.419 . S
C34 C33 1.419 . S
C34 C35 1.391 . S
C34 C38 1.397 . S
C35 C30 1.391 . S
C35 C34 1.391 . S
C35 C36 1.399 . S
C36 C35 1.399 . S
C36 C37 1.396 . S
C36 C39 1.453 . S
C36 C40 1.684 . S
C37 C27 1.723 . S
C37 C36 1.396 . S
C37 C38 1.394 . S
C38 C8 1.723 . S
C38 C34 1.397 . S
C38 C37 1.394 . S
C39 H11 0.982 . S
C39 H15 0.979 . S
C39 H16 0.977 . S
C39 C36 1.453 . S
C40 H12 0.979 . S
C40 H13 0.980 . S
C40 H14 0.983 . S
C40 C36 1.684 . S
H41 C59 0.948 . S
H42 C0 0.948 . S
H43 C18 0.979 . S
H44 C18 0.980 . S
H45 C18 0.983 . S
H46 C17 0.982 . S
H47 C17 0.979 . S
H48 C17 0.977 . S
H49 C19 0.948 . S
H50 C21 0.947 . S
H51 C22 0.948 . S
H52 C28 0.982 . S
H53 C28 0.979 . S
H54 C28 0.977 . S
H55 C29 0.979 . S
H56 C29 0.980 . S
H57 C29 0.983 . S
H58 C2 0.947 . S
C59 C2 1.392 . S
C59 C3 1.419 . S
C59 H41 0.948 . S
C60 C61 1.391 . S
C60 C64 1.391 . S
C60 H102 0.948 . S
C61 C60 1.391 . S
C61 C62 1.391 . S
C62 C61 1.391 . S
C62 H118 0.947 . S
C62 C119 1.392 . S
C63 C64 1.391 . S
C63 C67 1.397 . S
C63 C119 1.419 . S
C64 C60 1.391 . S
C64 C63 1.391 . S
C64 C65 1.399 . S
C65 C64 1.399 . S
C65 C68 1.396 . S
C65 C77 1.453 . S
C65 C78 1.684 . S
H66 C90 0.948 . S
C67 C63 1.397 . S
C67 C68 1.394 . S
C67 C86 1.723 . S
C68 C65 1.396 . S
C68 C67 1.394 . S
C68 C98 1.723 . S
H69 C92 0.947 . S
H70 C93 0.948 . S
H71 C99 0.982 . S
H72 C100 0.979 . S
H73 C100 0.980 . S
H74 C100 0.983 . S
H75 C99 0.979 . S
H76 C99 0.977 . S
C77 C65 1.453 . S
C77 H106 0.982 . S
C77 H107 0.979 . S
C77 H108 0.977 . S
C78 C65 1.684 . S
C78 H103 0.979 . S
C78 H104 0.980 . S
C78 H105 0.983 . S
C79 C80 1.391 . S
C79 C84 1.391 . S
C79 H109 0.948 . S
C80 C79 1.391 . S
C80 C81 1.391 . S
C81 C80 1.391 . S
C81 C82 1.392 . S
C81 H110 0.947 . S
C82 C81 1.392 . S
C82 C83 1.419 . S
C82 H111 0.948 . S
C83 C82 1.419 . S
C83 C84 1.391 . S
C83 C87 1.397 . S
C84 C79 1.391 . S
C84 C83 1.391 . S
C84 C85 1.399 . S
C85 C84 1.399 . S
C85 C86 1.396 . S
C85 C88 1.453 . S
C85 C89 1.684 . S
C86 C67 1.723 . S
C86 C85 1.396 . S
C86 C87 1.394 . S
C87 C83 1.397 . S
C87 C86 1.394 . S
C87 C97 1.723 . S
C88 C85 1.453 . S
C88 H112 0.982 . S
C88 H113 0.979 . S
C88 H114 0.977 . S
C89 C85 1.684 . S
C89 H115 0.979 . S
C89 H116 0.980 . S
C89 H117 0.983 . S
C90 H66 0.948 . S
C90 C91 1.391 . S
C90 C95 1.391 . S
C91 C90 1.391 . S
C91 C92 1.391 . S
C92 H69 0.947 . S
C92 C91 1.391 . S
C92 C93 1.392 . S
C93 H70 0.948 . S
C93 C92 1.392 . S
C93 C94 1.419 . S
C94 C93 1.419 . S
C94 C95 1.391 . S
C94 C98 1.397 . S
C95 C90 1.391 . S
C95 C94 1.391 . S
C95 C96 1.399 . S
C96 C95 1.399 . S
C96 C97 1.396 . S
C96 C99 1.453 . S
C96 C100 1.684 . S
C97 C87 1.723 . S
C97 C96 1.396 . S
C97 C98 1.394 . S
C98 C68 1.723 . S
C98 C94 1.397 . S
C98 C97 1.394 . S
C99 H71 0.982 . S
C99 H75 0.979 . S
C99 H76 0.977 . S
C99 C96 1.453 . S
C100 H72 0.979 . S
C100 H73 0.980 . S
C100 H74 0.983 . S
C100 C96 1.684 . S
H101 C119 0.948 . S
H102 C60 0.948 . S
H103 C78 0.979 . S
H104 C78 0.980 . S
H105 C78 0.983 . S
H106 C77 0.982 . S
H107 C77 0.979 . S
H108 C77 0.977 . S
H109 C79 0.948 . S
H110 C81 0.947 . S
H111 C82 0.948 . S
H112 C88 0.982 . S
H113 C88 0.979 . S
H114 C88 0.977 . S
H115 C89 0.979 . S
H116 C89 0.980 . S
H117 C89 0.983 . S
H118 C62 0.947 . S
C119 C62 1.392 . S
C119 C63 1.419 . S
C119 H101 0.948 . S
C120 C121 1.391 . S
C120 C124 1.391 . S
C120 H162 0.948 . S
C121 C120 1.391 . S
C121 C122 1.391 . S
C122 C121 1.391 . S
C122 H178 0.947 . S
C122 C179 1.392 . S
C123 C124 1.391 . S
C123 C127 1.397 . S
C123 C179 1.419 . S
C124 C120 1.391 . S
C124 C123 1.391 . S
C124 C125 1.399 . S
C125 C124 1.399 . S
C125 C128 1.396 . S
C125 C137 1.453 . S
C125 C138 1.684 . S
H126 C150 0.948 . S
C127 C123 1.397 . S
C127 C128 1.394 . S
C127 C146 1.723 . S
C128 C125 1.396 . S
C128 C127 1.394 . S
C128 C158 1.723 . S
H129 C152 0.947 . S
H130 C153 0.948 . S
H131 C159 0.982 . S
H132 C160 0.979 . S
H133 C160 0.980 . S
H134 C160 0.983 . S
H135 C159 0.979 . S
H136 C159 0.977 . S
C137 C125 1.453 . S
C137 H166 0.982 . S
C137 H167 0.979 . S
C137 H168 0.977 . S
C138 C125 1.684 . S
C138 H163 0.979 . S
C138 H164 0.980 . S
C138 H165 0.983 . S
C139 C140 1.391 . S
C139 C144 1.391 . S
C139 H169 0.948 . S
C140 C139 1.391 . S
C140 C141 1.391 . S
C141 C140 1.391 . S
C141 C142 1.392 . S
C141 H170 0.947 . S
C142 C141 1.392 . S
C142 C143 1.419 . S
C142 H171 0.948 . S
C143 C142 1.419 . S
C143 C144 1.391 . S
C143 C147 1.397 . S
C144 C139 1.391 . S
C144 C143 1.391 . S
C144 C145 1.399 . S
C145 C144 1.399 . S
C145 C146 1.396 . S
C145 C148 1.453 . S
C145 C149 1.684 . S
C146 C127 1.723 . S
C146 C145 1.396 . S
C146 C147 1.394 . S
C147 C143 1.397 . S
C147 C146 1.394 . S
C147 C157 1.723 . S
C148 C145 1.453 . S
C148 H172 0.982 . S
C148 H173 0.979 . S
C148 H174 0.977 . S
C149 C145 1.684 . S
C149 H175 0.979 . S
C149 H176 0.980 . S
C149 H177 0.983 . S
C150 H126 0.948 . S
C150 C151 1.391 . S
C150 C155 1.391 . S
C151 C150 1.391 . S
C151 C152 1.391 . S
C152 H129 0.947 . S
C152 C151 1.391 . S
C152 C153 1.392 . S
C153 H130 0.948 . S
C153 C152 1.392 . S
C153 C154 1.419 . S
C154 C153 1.419 . S
C154 C155 1.391 . S
C154 C158 1.397 . S
C155 C150 1.391 . S
C155 C154 1.391 . S
C155 C156 1.399 . S
C156 C155 1.399 . S
C156 C157 1.396 . S
C156 C159 1.453 . S
C156 C160 1.684 . S
C157 C147 1.723 . S
C157 C156 1.396 . S
C157 C158 1.394 . S
C158 C128 1.723 . S
C158 C154 1.397 . S
C158 C157 1.394 . S
C159 H131 0.982 . S
C159 H135 0.979 . S
C159 H136 0.977 . S
C159 C156 1.453 . S
C160 H132 0.979 . S
C160 H133 0.980 . S
C160 H134 0.983 . S
C160 C156 1.684 . S
H161 C179 0.948 . S
H162 C120 0.948 . S
H163 C138 0.979 . S
H164 C138 0.980 . S
H165 C138 0.983 . S
H166 C137 0.982 . S
H167 C137 0.979 . S
H168 C137 0.977 . S
H169 C139 0.948 . S
H170 C141 0.947 . S
H171 C142 0.948 . S
H172 C148 0.982 . S
H173 C148 0.979 . S
H174 C148 0.977 . S
H175 C149 0.979 . S
H176 C149 0.980 . S
H177 C149 0.983 . S
H178 C122 0.947 . S
C179 C122 1.392 . S
C179 C123 1.419 . S
C179 H161 0.948 . S
C180 C181 1.391 . S
C180 C184 1.391 . S
C180 H222 0.948 . S
C181 C180 1.391 . S
C181 C182 1.391 . S
C182 C181 1.391 . S
C182 H238 0.947 . S
C182 C239 1.392 . S
C183 C184 1.391 . S
C183 C187 1.397 . S
C183 C239 1.419 . S
C184 C180 1.391 . S
C184 C183 1.391 . S
C184 C185 1.399 . S
C185 C184 1.399 . S
C185 C188 1.396 . S
C185 C197 1.453 . S
C185 C198 1.684 . S
H186 C210 0.948 . S
C187 C183 1.397 . S
C187 C188 1.394 . S
C187 C206 1.723 . S
C188 C185 1.396 . S
C188 C187 1.394 . S
C188 C218 1.723 . S
H189 C212 0.947 . S
H190 C213 0.948 . S
H191 C219 0.982 . S
H192 C220 0.979 . S
H193 C220 0.980 . S
H194 C220 0.983 . S
H195 C219 0.979 . S
H196 C219 0.977 . S
C197 C185 1.453 . S
C197 H226 0.982 . S
C197 H227 0.979 . S
C197 H228 0.977 . S
C198 C185 1.684 . S
C198 H223 0.979 . S
C198 H224 0.980 . S
C198 H225 0.983 . S
C199 C200 1.391 . S
C199 C204 1.391 . S
C199 H229 0.948 . S
C200 C199 1.391 . S
C200 C201 1.391 . S
C201 C200 1.391 . S
C201 C202 1.392 . S
C201 H230 0.947 . S
C202 C201 1.392 . S
C202 C203 1.419 . S
C202 H231 0.948 . S
C203 C202 1.419 . S
C203 C204 1.391 . S
C203 C207 1.397 . S
C204 C199 1.391 . S
C204 C203 1.391 . S
C204 C205 1.399 . S
C205 C204 1.399 . S
C205 C206 1.396 . S
C205 C208 1.453 . S
C205 C209 1.684 . S
C206 C187 1.723 . S
C206 C205 1.396 . S
C206 C207 1.394 . S
C207 C203 1.397 . S
C207 C206 1.394 . S
C207 C217 1.723 . S
C208 C205 1.453 . S
C208 H232 0.982 . S
C208 H233 0.979 . S
C208 H234 0.977 . S
C209 C205 1.684 . S
C209 H235 0.979 . S
C209 H236 0.980 . S
C209 H237 0.983 . S
C210 H186 0.948 . S
C210 C211 1.391 . S
C210 C215 1.391 . S
C211 C210 1.391 . S
C211 C212 1.391 . S
C212 H189 0.947 . S
C212 C211 1.391 . S
C212 C213 1.392 . S
C213 H190 0.948 . S
C213 C212 1.392 . S
C213 C214 1.419 . S
C214 C213 1.419 . S
C214 C215 1.391 . S
C214 C218 1.397 . S
C215 C210 1.391 . S
C215 C214 1.391 . S
C215 C216 1.399 . S
C216 C215 1.399 . S
C216 C217 1.396 . S
C216 C219 1.453 . S
C216 C220 1.684 . S
C217 C207 1.723 . S
C217 C216 1.396 . S
C217 C218 1.394 . S
C218 C188 1.723 . S
C218 C214 1.397 . S
C218 C217 1.394 . S
C219 H191 0.982 . S
C219 H195 0.979 . S
C219 H196 0.977 . S
C219 C216 1.453 . S
C220 H192 0.979 . S
C220 H193 0.980 . S
C220 H194 0.983 . S
C220 C216 1.684 . S
H221 C239 0.948 . S
H222 C180 0.948 . S
H223 C198 0.979 . S
H224 C198 0.980 . S
H225 C198 0.983 . S
H226 C197 0.982 . S
H227 C197 0.979 . S
H228 C197 0.977 . S
H229 C199 0.948 . S
H230 C201 0.947 . S
H231 C202 0.948 . S
H232 C208 0.982 . S
H233 C208 0.979 . S
H234 C208 0.977 . S
H235 C209 0.979 . S
H236 C209 0.980 . S
H237 C209 0.983 . S
H238 C182 0.947 . S
C239 C182 1.392 . S
C239 C183 1.419 . S
C239 H221 0.948 . S
C240 C241 1.391 . S
C240 C244 1.391 . S
C240 H282 0.948 1_556 S
C241 C240 1.391 . S
C241 C242 1.391 1_655 S
C242 C241 1.391 1_455 S
C242 H298 0.947 . S
C242 C299 1.392 1_455 S
C243 C244 1.391 . S
C243 C247 1.397 . S
C243 C299 1.419 . S
C244 C240 1.391 . S
C244 C243 1.391 . S
C244 C245 1.399 . S
C245 C244 1.399 . S
C245 C248 1.396 . S
C245 C257 1.453 . S
C245 C258 1.684 1_556 S
H246 C270 0.948 1_545 S
C247 C243 1.397 . S
C247 C248 1.394 . S
C247 C266 1.723 . S
C248 C245 1.396 . S
C248 C247 1.394 . S
C248 C278 1.723 . S
H249 C272 0.947 . S
H250 C273 0.948 1_554 S
H251 C279 0.982 . S
H252 C280 0.979 . S
H253 C280 0.980 . S
H254 C280 0.983 . S
H255 C279 0.960 1_545 S
H256 C279 0.977 . S
C257 C245 1.453 . S
C257 H286 0.982 . S
C257 H287 0.979 1_556 S
C257 H288 0.977 . S
C258 C245 1.684 1_554 S
C258 H283 0.979 . S
C258 H284 0.980 . S
C258 H285 0.983 . S
C259 C260 1.391 . S
C259 C264 1.391 . S
C259 H289 0.948 1_655 S
C260 C259 1.391 . S
C260 C261 1.391 1_565 S
C261 C260 1.391 1_545 S
C261 C262 1.392 1_545 S
C261 H290 0.947 . S
C262 C261 1.392 1_565 S
C262 C263 1.419 . S
C262 H291 0.948 1_565 S
C263 C262 1.419 . S
C263 C264 1.391 . S
C263 C267 1.397 . S
C264 C259 1.391 . S
C264 C263 1.391 . S
C264 C265 1.399 . S
C265 C264 1.399 . S
C265 C266 1.396 . S
C265 C268 1.453 . S
C265 C269 1.684 1_655 S
C266 C247 1.723 . S
C266 C265 1.396 . S
C266 C267 1.394 . S
C267 C263 1.397 . S
C267 C266 1.394 . S
C267 C277 1.723 . S
C268 C265 1.453 . S
C268 H292 0.982 . S
C268 H293 0.979 . S
C268 H294 0.977 . S
C269 C265 1.684 1_455 S
C269 H295 0.979 . S
C269 H296 0.980 . S
C269 H297 0.983 . S
C270 H246 0.948 1_565 S
C270 C271 1.391 . S
C270 C275 1.391 . S
C271 C270 1.391 . S
C271 C272 1.391 1_556 S
C272 H249 0.947 . S
C272 C271 1.391 1_554 S
C272 C273 1.392 1_554 S
C273 H250 0.948 1_556 S
C273 C272 1.392 1_556 S
C273 C274 1.419 . S
C274 C273 1.419 . S
C274 C275 1.391 . S
C274 C278 1.397 . S
C275 C270 1.391 . S
C275 C274 1.391 . S
C275 C276 1.399 . S
C276 C275 1.399 . S
C276 C277 1.396 . S
C276 C279 1.453 . S
C276 C280 1.684 1_565 S
C277 C267 1.723 . S
C277 C276 1.396 . S
C277 C278 1.394 . S
C278 C248 1.723 . S
C278 C274 1.397 . S
C278 C277 1.394 . S
C279 H251 0.982 . S
C279 H255 0.960 1_565 S
C279 H256 0.977 . S
C279 C276 1.453 . S
C280 H252 0.979 . S
C280 H253 0.980 . S
C280 H254 0.983 . S
C280 C276 1.684 1_545 S
H281 C299 0.948 1_455 S
H282 C240 0.948 1_554 S
H283 C258 0.979 . S
H284 C258 0.980 . S
H285 C258 0.983 . S
H286 C257 0.982 . S
H287 C257 0.979 1_554 S
H288 C257 0.977 . S
H289 C259 0.948 1_455 S
H290 C261 0.947 . S
H291 C262 0.948 1_545 S
H292 C268 0.982 . S
H293 C268 0.979 . S
H294 C268 0.977 . S
H295 C269 0.979 . S
H296 C269 0.980 . S
H297 C269 0.983 . S
H298 C242 0.947 . S
C299 C242 1.392 1_655 S
C299 C243 1.419 . S
C299 H281 0.948 1_655 S
C300 C301 1.391 . S
C300 C304 1.391 . S
C300 H342 0.948 . S
C301 C300 1.391 . S
C301 C302 1.391 . S
C302 C301 1.391 . S
C302 H358 0.947 . S
C302 C359 1.392 . S
C303 C304 1.391 . S
C303 C307 1.397 . S
C303 C359 1.419 . S
C304 C300 1.391 . S
C304 C303 1.391 . S
C304 C305 1.399 . S
C305 C304 1.399 . S
C305 C308 1.396 . S
C305 C317 1.453 . S
C305 C318 1.684 . S
H306 C330 0.948 . S
C307 C303 1.397 . S
C307 C308 1.394 . S
C307 C326 1.723 . S
C308 C305 1.396 . S
C308 C307 1.394 . S
C308 C338 1.723 . S
H309 C332 0.947 . S
H310 C333 0.948 . S
H311 C339 0.982 . S
H312 C340 0.979 . S
H313 C340 0.980 . S
H314 C340 0.983 . S
H315 C339 0.979 . S
H316 C339 0.977 . S
C317 C305 1.453 . S
C317 H346 0.982 . S
C317 H347 0.979 . S
C317 H348 0.977 . S
C318 C305 1.684 . S
C318 H343 0.979 . S
C318 H344 0.980 . S
C318 H345 0.983 . S
C319 C320 1.391 . S
C319 C324 1.391 . S
C319 H349 0.948 . S
C320 C319 1.391 . S
C320 C321 1.391 . S
C321 C320 1.391 . S
C321 C322 1.392 . S
C321 H350 0.947 . S
C322 C321 1.392 . S
C322 C323 1.419 . S
C322 H351 0.948 . S
C323 C322 1.419 . S
C323 C324 1.391 . S
C323 C327 1.397 . S
C324 C319 1.391 . S
C324 C323 1.391 . S
C324 C325 1.399 . S
C325 C324 1.399 . S
C325 C326 1.396 . S
C325 C328 1.453 . S
C325 C329 1.684 . S
C326 C307 1.723 . S
C326 C325 1.396 . S
C326 C327 1.394 . S
C327 C323 1.397 . S
C327 C326 1.394 . S
C327 C337 1.723 . S
C328 C325 1.453 . S
C328 H352 0.982 . S
C328 H353 0.979 . S
C328 H354 0.977 . S
C329 C325 1.684 . S
C329 H355 0.979 . S
C329 H356 0.980 . S
C329 H357 0.983 . S
C330 H306 0.948 . S
C330 C331 1.391 . S
C330 C335 1.391 . S
C331 C330 1.391 . S
C331 C332 1.391 . S
C332 H309 0.947 . S
C332 C331 1.391 . S
C332 C333 1.392 . S
C333 H310 0.948 . S
C333 C332 1.392 . S
C333 C334 1.419 . S
C334 C333 1.419 . S
C334 C335 1.391 . S
C334 C338 1.397 . S
C335 C330 1.391 . S
C335 C334 1.391 . S
C335 C336 1.399 . S
C336 C335 1.399 . S
C336 C337 1.396 . S
C336 C339 1.453 . S
C336 C340 1.684 . S
C337 C327 1.723 . S
C337 C336 1.396 . S
C337 C338 1.394 . S
C338 C308 1.723 . S
C338 C334 1.397 . S
C338 C337 1.394 . S
C339 H311 0.982 . S
C339 H315 0.979 . S
C339 H316 0.977 . S
C339 C336 1.453 . S
C340 H312 0.979 . S
C340 H313 0.980 . S
C340 H314 0.983 . S
C340 C336 1.684 . S
H341 C359 0.948 . S
H342 C300 0.948 . S
H343 C318 0.979 . S
H344 C318 0.980 . S
H345 C318 0.983 . S
H346 C317 0.982 . S
H347 C317 0.979 . S
H348 C317 0.977 . S
H349 C319 0.948 . S
H350 C321 0.947 . S
H351 C322 0.948 . S
H352 C328 0.982 . S
H353 C328 0.979 . S
H354 C328 0.977 . S
H355 C329 0.979 . S
H356 C329 0.980 . S
H357 C329 0.983 . S
H358 C302 0.947 . S
C359 C302 1.392 . S
C359 C303 1.419 . S
C359 H341 0.948 . S
C360 C361 1.391 . S
C360 C364 1.391 . S
C360 H402 0.948 . S
C361 C360 1.391 . S
C361 C362 1.391 . S
C362 C361 1.391 . S
C362 H418 0.947 . S
C362 C419 1.392 . S
C363 C364 1.391 . S
C363 C367 1.397 . S
C363 C419 1.419 . S
C364 C360 1.391 . S
C364 C363 1.391 . S
C364 C365 1.399 . S
C365 C364 1.399 . S
C365 C368 1.396 . S
C365 C377 1.453 . S
C365 C378 1.684 . S
H366 C390 0.948 . S
C367 C363 1.397 . S
C367 C368 1.394 . S
C367 C386 1.723 . S
C368 C365 1.396 . S
C368 C367 1.394 . S
C368 C398 1.723 . S
H369 C392 0.947 . S
H370 C393 0.948 . S
H371 C399 0.982 . S
H372 C400 0.979 . S
H373 C400 0.980 . S
H374 C400 0.983 . S
H375 C399 0.979 . S
H376 C399 0.977 . S
C377 C365 1.453 . S
C377 H406 0.982 . S
C377 H407 0.979 . S
C377 H408 0.977 . S
C378 C365 1.684 . S
C378 H403 0.979 . S
C378 H404 0.980 . S
C378 H405 0.983 . S
C379 C380 1.391 . S
C379 C384 1.391 . S
C379 H409 0.948 . S
C380 C379 1.391 . S
C380 C381 1.391 . S
C381 C380 1.391 . S
C381 C382 1.392 . S
C381 H410 0.947 . S
C382 C381 1.392 . S
C382 C383 1.419 . S
C382 H411 0.948 . S
C383 C382 1.419 . S
C383 C384 1.391 . S
C383 C387 1.397 . S
C384 C379 1.391 . S
C384 C383 1.391 . S
C384 C385 1.399 . S
C385 C384 1.399 . S
C385 C386 1.396 . S
C385 C388 1.453 . S
C385 C389 1.684 . S
C386 C367 1.723 . S
C386 C385 1.396 . S
C386 C387 1.394 . S
C387 C383 1.397 . S
C387 C386 1.394 . S
C387 C397 1.723 . S
C388 C385 1.453 . S
C388 H412 0.982 . S
C388 H413 0.979 . S
C388 H414 0.977 . S
C389 C385 1.684 . S
C389 H415 0.979 . S
C389 H416 0.980 . S
C389 H417 0.983 . S
C390 H366 0.948 . S
C390 C391 1.391 . S
C390 C395 1.391 . S
C391 C390 1.391 . S
C391 C392 1.391 . S
C392 H369 0.947 . S
C392 C391 1.391 . S
C392 C393 1.392 . S
C393 H370 0.948 . S
C393 C392 1.392 . S
C393 C394 1.419 . S
C394 C393 1.419 . S
C394 C395 1.391 . S
C394 C398 1.397 . S
C395 C390 1.391 . S
C395 C394 1.391 . S
C395 C396 1.399 . S
C396 C395 1.399 . S
C396 C397 1.396 . S
C396 C399 1.453 . S
C396 C400 1.684 . S
C397 C387 1.723 . S
C397 C396 1.396 . S
C397 C398 1.394 . S
C398 C368 1.723 . S
C398 C394 1.397 . S
C398 C397 1.394 . S
C399 H371 0.982 . S
C399 H375 0.979 . S
C399 H376 0.977 . S
C399 C396 1.453 . S
C400 H372 0.979 . S
C400 H373 0.980 . S
C400 H374 0.983 . S
C400 C396 1.684 . S
H401 C419 0.948 . S
H402 C360 0.948 . S
H403 C378 0.979 . S
H404 C378 0.980 . S
H405 C378 0.983 . S
H406 C377 0.982 . S
H407 C377 0.979 . S
H408 C377 0.977 . S
H409 C379 0.948 . S
H410 C381 0.947 . S
H411 C382 0.948 . S
H412 C388 0.982 . S
H413 C388 0.979 . S
H414 C388 0.977 . S
H415 C389 0.979 . S
H416 C389 0.980 . S
H417 C389 0.983 . S
H418 C362 0.947 . S
C419 C362 1.392 . S
C419 C363 1.419 . S
C419 H401 0.948 . S
C420 C421 1.391 . S
C420 C424 1.391 . S
C420 H462 0.948 . S
C421 C420 1.391 . S
C421 C422 1.391 . S
C422 C421 1.391 . S
C422 H478 0.947 . S
C422 C479 1.392 . S
C423 C424 1.391 . S
C423 C427 1.397 . S
C423 C479 1.419 . S
C424 C420 1.391 . S
C424 C423 1.391 . S
C424 C425 1.399 . S
C425 C424 1.399 . S
C425 C428 1.396 . S
C425 C437 1.453 . S
C425 C438 1.684 . S
H426 C450 0.948 . S
C427 C423 1.397 . S
C427 C428 1.394 . S
C427 C446 1.723 . S
C428 C425 1.396 . S
C428 C427 1.394 . S
C428 C458 1.723 . S
H429 C452 0.947 . S
H430 C453 0.948 . S
H431 C459 0.982 . S
H432 C460 0.979 . S
H433 C460 0.980 . S
H434 C460 0.983 . S
H435 C459 0.979 . S
H436 C459 0.977 . S
C437 C425 1.453 . S
C437 H466 0.982 . S
C437 H467 0.979 . S
C437 H468 0.977 . S
C438 C425 1.684 . S
C438 H463 0.979 . S
C438 H464 0.980 . S
C438 H465 0.983 . S
C439 C440 1.391 . S
C439 C444 1.391 . S
C439 H469 0.948 . S
C440 C439 1.391 . S
C440 C441 1.391 . S
C441 C440 1.391 . S
C441 C442 1.392 . S
C441 H470 0.947 . S
C442 C441 1.392 . S
C442 C443 1.419 . S
C442 H471 0.948 . S
C443 C442 1.419 . S
C443 C444 1.391 . S
C443 C447 1.397 . S
C444 C439 1.391 . S
C444 C443 1.391 . S
C444 C445 1.399 . S
C445 C444 1.399 . S
C445 C446 1.396 . S
C445 C448 1.453 . S
C445 C449 1.684 . S
C446 C427 1.723 . S
C446 C445 1.396 . S
C446 C447 1.394 . S
C447 C443 1.397 . S
C447 C446 1.394 . S
C447 C457 1.723 . S
C448 C445 1.453 . S
C448 H472 0.982 . S
C448 H473 0.979 . S
C448 H474 0.977 . S
C449 C445 1.684 . S
C449 H475 0.979 . S
C449 H476 0.980 . S
C449 H477 0.983 . S
C450 H426 0.948 . S
C450 C451 1.391 . S
C450 C455 1.391 . S
C451 C450 1.391 . S
C451 C452 1.391 . S
C452 H429 0.947 . S
C452 C451 1.391 . S
C452 C453 1.392 . S
C453 H430 0.948 . S
C453 C452 1.392 . S
C453 C454 1.419 . S
C454 C453 1.419 . S
C454 C455 1.391 . S
C454 C458 1.397 . S
C455 C450 1.391 . S
C455 C454 1.391 . S
C455 C456 1.399 . S
C456 C455 1.399 . S
C456 C457 1.396 . S
C456 C459 1.453 . S
C456 C460 1.684 . S
C457 C447 1.723 . S
C457 C456 1.396 . S
C457 C458 1.394 . S
C458 C428 1.723 . S
C458 C454 1.397 . S
C458 C457 1.394 . S
C459 H431 0.982 . S
C459 H435 0.979 . S
C459 H436 0.977 . S
C459 C456 1.453 . S
C460 H432 0.979 . S
C460 H433 0.980 . S
C460 H434 0.983 . S
C460 C456 1.684 . S
H461 C479 0.948 . S
H462 C420 0.948 . S
H463 C438 0.979 . S
H464 C438 0.980 . S
H465 C438 0.983 . S
H466 C437 0.982 . S
H467 C437 0.979 . S
H468 C437 0.977 . S
H469 C439 0.948 . S
H470 C441 0.947 . S
H471 C442 0.948 . S
H472 C448 0.982 . S
H473 C448 0.979 . S
H474 C448 0.977 . S
H475 C449 0.979 . S
H476 C449 0.980 . S
H477 C449 0.983 . S
H478 C422 0.947 . S
C479 C422 1.392 . S
C479 C423 1.419 . S
C479 H461 0.948 . S
Zn480 O486 1.920 . S
Zn480 O492 1.898 . S
Zn480 O495 1.905 . S
Zn481 O489 1.905 1_565 S
Zn481 O490 1.898 . S
Zn481 O498 1.920 . S
Zn482 O485 2.080 1_455 S
Zn482 O488 2.114 . S
Zn482 O491 2.120 1_445 S
Zn482 O493 2.120 . S
Zn482 O494 2.114 1_455 S
Zn482 O497 2.080 . S
C483 O488 1.166 . S
C483 O489 1.182 . S
C484 O490 1.167 1_655 S
C484 O491 1.299 . S
O485 Zn482 2.080 1_655 S
O485 C499 1.305 . S
O486 Zn480 1.920 . S
O486 C499 1.234 . S
C487 O492 1.167 1_455 S
C487 O493 1.299 . S
O488 Zn482 2.114 . S
O488 C483 1.166 . S
O489 Zn481 1.905 1_545 S
O489 C483 1.182 . S
O490 Zn481 1.898 . S
O490 C484 1.167 1_455 S
O491 Zn482 2.120 1_665 S
O491 C484 1.299 . S
O492 Zn480 1.898 . S
O492 C487 1.167 1_655 S
O493 Zn482 2.120 . S
O493 C487 1.299 . S
O494 Zn482 2.114 1_655 S
O494 C496 1.166 . S
O495 Zn480 1.905 . S
O495 C496 1.182 . S
C496 O494 1.166 . S
C496 O495 1.182 . S
O497 Zn482 2.080 . S
O497 C500 1.305 1_545 S
O498 Zn481 1.920 . S
O498 C500 1.234 . S
C499 O485 1.305 . S
C499 O486 1.234 . S
C500 O497 1.305 1_565 S
C500 O498 1.234 . S
Zn501 O507 1.920 1_556 S
Zn501 O513 1.898 . S
Zn501 O516 1.905 . S
Zn502 O510 1.905 . S
Zn502 O511 1.898 . S
Zn502 O519 1.920 . S
Zn503 O506 2.080 . S
Zn503 O509 2.114 1_545 S
Zn503 O512 2.120 1_545 S
Zn503 O514 2.120 . S
Zn503 O515 2.114 1_544 S
Zn503 O518 2.080 . S
C504 O509 1.166 . S
C504 O510 1.182 . S
C505 O511 1.167 . S
C505 O512 1.299 . S
O506 Zn503 2.080 . S
O506 C520 1.305 . S
O507 Zn501 1.920 1_554 S
O507 C520 1.234 . S
C508 O513 1.167 . S
C508 O514 1.299 1_556 S
O509 Zn503 2.114 1_565 S
O509 C504 1.166 . S
O510 Zn502 1.905 . S
O510 C504 1.182 . S
O511 Zn502 1.898 . S
O511 C505 1.167 . S
O512 Zn503 2.120 1_565 S
O512 C505 1.299 . S
O513 Zn501 1.898 . S
O513 C508 1.167 . S
O514 Zn503 2.120 . S
O514 C508 1.299 1_554 S
O515 Zn503 2.114 1_566 S
O515 C517 1.166 . S
O516 Zn501 1.905 . S
O516 C517 1.182 1_545 S
C517 O515 1.166 . S
C517 O516 1.182 1_565 S
O518 Zn503 2.080 . S
O518 C521 1.305 . S
O519 Zn502 1.920 . S
O519 C521 1.234 1_565 S
C520 O506 1.305 . S
C520 O507 1.234 . S
C521 O518 1.305 . S
C521 O519 1.234 1_545 S
Zn522 O528 1.920 . S
Zn522 O534 1.898 . S
Zn522 O537 1.905 . S
Zn523 O531 1.905 . S
Zn523 O532 1.898 . S
Zn523 O540 1.920 . S
Zn524 O527 2.080 . S
Zn524 O530 2.114 . S
Zn524 O533 2.120 . S
Zn524 O535 2.120 . S
Zn524 O536 2.114 . S
Zn524 O539 2.080 . S
C525 O530 1.166 . S
C525 O531 1.182 . S
C526 O532 1.167 . S
C526 O533 1.299 . S
O527 Zn524 2.080 . S
O527 C541 1.305 . S
O528 Zn522 1.920 . S
O528 C541 1.234 . S
C529 O534 1.167 . S
C529 O535 1.299 . S
O530 Zn524 2.114 . S
O530 C525 1.166 . S
O531 Zn523 1.905 . S
O531 C525 1.182 . S
O532 Zn523 1.898 . S
O532 C526 1.167 . S
O533 Zn524 2.120 . S
O533 C526 1.299 . S
O534 Zn522 1.898 . S
O534 C529 1.167 . S
O535 Zn524 2.120 . S
O535 C529 1.299 . S
O536 Zn524 2.114 . S
O536 C538 1.166 . S
O537 Zn522 1.905 . S
O537 C538 1.182 . S
C538 O536 1.166 . S
C538 O537 1.182 . S
O539 Zn524 2.080 . S
O539 C542 1.305 . S
O540 Zn523 1.920 . S
O540 C542 1.234 . S
C541 O527 1.305 . S
C541 O528 1.234 . S
C542 O539 1.305 . S
C542 O540 1.234 . S
Zn543 O549 1.920 . S
Zn543 O555 1.898 . S
Zn543 O558 1.905 . S
Zn544 O552 1.905 1_655 S
Zn544 O553 1.898 . S
Zn544 O561 1.920 . S
Zn545 O548 2.080 1_554 S
Zn545 O551 2.114 . S
Zn545 O554 2.120 1_454 S
Zn545 O556 2.120 . S
Zn545 O557 2.114 1_554 S
Zn545 O560 2.080 . S
C546 O551 1.166 . S
C546 O552 1.182 . S
C547 O553 1.167 1_556 S
C547 O554 1.299 . S
O548 Zn545 2.080 1_556 S
O548 C562 1.305 . S
O549 Zn543 1.920 . S
O549 C562 1.234 . S
C550 O555 1.167 1_554 S
C550 O556 1.299 . S
O551 Zn545 2.114 . S
O551 C546 1.166 . S
O552 Zn544 1.905 1_455 S
O552 C546 1.182 . S
O553 Zn544 1.898 . S
O553 C547 1.167 1_554 S
O554 Zn545 2.120 1_656 S
O554 C547 1.299 . S
O555 Zn543 1.898 . S
O555 C550 1.167 1_556 S
O556 Zn545 2.120 . S
O556 C550 1.299 . S
O557 Zn545 2.114 1_556 S
O557 C559 1.166 . S
O558 Zn543 1.905 . S
O558 C559 1.182 . S
C559 O557 1.166 . S
C559 O558 1.182 . S
O560 Zn545 2.080 . S
O560 C563 1.305 1_455 S
O561 Zn544 1.920 . S
O561 C563 1.234 . S
C562 O548 1.305 . S
C562 O549 1.234 . S
C563 O560 1.305 1_655 S
C563 O561 1.234 . S
H564 C572 0.950 . S
H565 C577 0.950 . S
H566 C574 0.950 . S
H567 C576 0.950 . S
H568 C578 0.950 . S
H569 C580 0.950 . S
H570 C582 0.950 . S
H571 C583 0.950 . S
C572 H564 0.950 . S
C572 C573 1.386 . S
C572 C574 1.391 . S
C573 C572 1.386 . S
C573 C577 1.393 . S
C574 H566 0.950 . S
C574 C572 1.391 . S
C574 C575 1.400 . S
C575 C574 1.400 . S
C575 C576 1.398 . S
C575 C581 1.491 . S
C576 H567 0.950 . S
C576 C575 1.398 . S
C576 C577 1.391 . S
C577 H565 0.950 . S
C577 C573 1.393 . S
C577 C576 1.391 . S
C578 H568 0.950 . S
C578 C579 1.386 . S
C578 C580 1.391 . S
C579 C578 1.386 . S
C579 C583 1.393 . S
C580 H569 0.950 . S
C580 C578 1.391 . S
C580 C581 1.400 . S
C581 C575 1.491 . S
C581 C580 1.400 . S
C581 C582 1.398 . S
C582 H570 0.950 . S
C582 C581 1.398 . S
C582 C583 1.391 . S
C583 H571 0.950 . S
C583 C579 1.393 . S
C583 C582 1.391 . S
H584 C592 0.950 . S
H585 C597 0.950 . S
H586 C594 0.950 . S
H587 C596 0.950 . S
H588 C598 0.950 1_545 S
H589 C600 0.950 . S
H590 C602 0.950 . S
H591 C603 0.950 . S
C592 H584 0.950 . S
C592 C593 1.386 . S
C592 C594 1.391 . S
C593 C592 1.386 . S
C593 C597 1.393 . S
C594 H586 0.950 . S
C594 C592 1.391 . S
C594 C595 1.400 . S
C595 C594 1.400 . S
C595 C596 1.398 . S
C595 C601 1.491 . S
C596 H587 0.950 . S
C596 C595 1.398 . S
C596 C597 1.391 . S
C597 H585 0.950 . S
C597 C593 1.393 . S
C597 C596 1.391 . S
C598 H588 0.950 1_565 S
C598 C599 1.386 . S
C598 C600 1.391 . S
C599 C598 1.386 . S
C599 C603 1.393 . S
C600 H589 0.950 . S
C600 C598 1.391 . S
C600 C601 1.400 . S
C601 C595 1.491 . S
C601 C600 1.400 . S
C601 C602 1.398 . S
C602 H590 0.950 . S
C602 C601 1.398 . S
C602 C603 1.391 . S
C603 H591 0.950 . S
C603 C599 1.393 . S
C603 C602 1.391 . S
H604 C612 0.950 . S
H605 C617 0.950 . S
H606 C614 0.950 . S
H607 C616 0.950 . S
H608 C618 0.950 . S
H609 C620 0.950 . S
H610 C622 0.950 . S
H611 C623 0.950 . S
C612 H604 0.950 . S
C612 C613 1.386 . S
C612 C614 1.391 . S
C613 C612 1.386 . S
C613 C617 1.393 . S
C614 H606 0.950 . S
C614 C612 1.391 . S
C614 C615 1.400 . S
C615 C614 1.400 . S
C615 C616 1.398 . S
C615 C621 1.491 . S
C616 H607 0.950 . S
C616 C615 1.398 . S
C616 C617 1.391 . S
C617 H605 0.950 . S
C617 C613 1.393 . S
C617 C616 1.391 . S
C618 H608 0.950 . S
C618 C619 1.386 . S
C618 C620 1.391 . S
C619 C618 1.386 . S
C619 C623 1.393 . S
C620 H609 0.950 . S
C620 C618 1.391 . S
C620 C621 1.400 . S
C621 C615 1.491 . S
C621 C620 1.400 . S
C621 C622 1.398 . S
C622 H610 0.950 . S
C622 C621 1.398 . S
C622 C623 1.391 . S
C623 H611 0.950 . S
C623 C619 1.393 . S
C623 C622 1.391 . S
H624 C632 0.950 . S
H625 C637 0.950 . S
H626 C634 0.950 . S
H627 C636 0.950 . S
H628 C638 0.950 . S
H629 C640 0.950 . S
H630 C642 0.950 . S
H631 C643 0.950 1_455 S
C632 H624 0.950 . S
C632 C633 1.386 . S
C632 C634 1.391 . S
C633 C632 1.386 . S
C633 C637 1.393 . S
C634 H626 0.950 . S
C634 C632 1.391 . S
C634 C635 1.400 . S
C635 C634 1.400 . S
C635 C636 1.398 . S
C635 C641 1.491 . S
C636 H627 0.950 . S
C636 C635 1.398 . S
C636 C637 1.391 . S
C637 H625 0.950 . S
C637 C633 1.393 . S
C637 C636 1.391 . S
C638 H628 0.950 . S
C638 C639 1.386 . S
C638 C640 1.391 . S
C639 C638 1.386 . S
C639 C643 1.393 . S
C640 H629 0.950 . S
C640 C638 1.391 . S
C640 C641 1.400 . S
C641 C635 1.491 . S
C641 C640 1.400 . S
C641 C642 1.398 . S
C642 H630 0.950 . S
C642 C641 1.398 . S
C642 C643 1.391 . S
C643 H631 0.950 1_655 S
C643 C639 1.393 . S
C643 C642 1.391 . S
H644 C652 0.950 . S
H645 C657 0.950 . S
H646 C654 0.950 . S
H647 C656 0.950 . S
H648 C658 0.950 . S
H649 C660 0.950 . S
H650 C662 0.950 . S
H651 C663 0.950 . S
C652 H644 0.950 . S
C652 C653 1.386 . S
C652 C654 1.391 . S
C653 C652 1.386 . S
C653 C657 1.393 . S
C654 H646 0.950 . S
C654 C652 1.391 . S
C654 C655 1.400 . S
C655 C654 1.400 . S
C655 C656 1.398 . S
C655 C661 1.491 . S
C656 H647 0.950 . S
C656 C655 1.398 . S
C656 C657 1.391 . S
C657 H645 0.950 . S
C657 C653 1.393 . S
C657 C656 1.391 . S
C658 H648 0.950 . S
C658 C659 1.386 . S
C658 C660 1.391 . S
C659 C658 1.386 . S
C659 C663 1.393 . S
C660 H649 0.950 . S
C660 C658 1.391 . S
C660 C661 1.400 . S
C661 C655 1.491 . S
C661 C660 1.400 . S
C661 C662 1.398 . S
C662 H650 0.950 . S
C662 C661 1.398 . S
C662 C663 1.391 . S
C663 H651 0.950 . S
C663 C659 1.393 . S
C663 C662 1.391 . S
H664 C672 0.950 . S
H665 C677 0.950 . S
H666 C674 0.950 . S
H667 C676 0.950 . S
H668 C678 0.950 . S
H669 C680 0.950 . S
H670 C682 0.950 . S
H671 C683 0.950 1_545 S
C672 H664 0.950 . S
C672 C673 1.386 . S
C672 C674 1.391 . S
C673 C672 1.386 . S
C673 C677 1.393 . S
C674 H666 0.950 . S
C674 C672 1.391 . S
C674 C675 1.400 . S
C675 C674 1.400 . S
C675 C676 1.398 . S
C675 C681 1.491 . S
C676 H667 0.950 . S
C676 C675 1.398 . S
C676 C677 1.391 . S
C677 H665 0.950 . S
C677 C673 1.393 . S
C677 C676 1.391 . S
C678 H668 0.950 . S
C678 C679 1.386 . S
C678 C680 1.391 . S
C679 C678 1.386 . S
C679 C683 1.393 . S
C680 H669 0.950 . S
C680 C678 1.391 . S
C680 C681 1.400 . S
C681 C675 1.491 . S
C681 C680 1.400 . S
C681 C682 1.398 . S
C682 H670 0.950 . S
C682 C681 1.398 . S
C682 C683 1.391 . S
C683 H671 0.950 1_565 S
C683 C679 1.393 . S
C683 C682 1.391 . S
H684 C692 0.950 . S
H685 C697 0.950 . S
H686 C694 0.950 . S
H687 C696 0.950 . S
H688 C698 0.950 . S
H689 C700 0.950 . S
H690 C702 0.950 . S
H691 C703 0.950 . S
C692 H684 0.950 . S
C692 C693 1.386 . S
C692 C694 1.391 . S
C693 C692 1.386 . S
C693 C697 1.393 . S
C694 H686 0.950 . S
C694 C692 1.391 . S
C694 C695 1.400 . S
C695 C694 1.400 . S
C695 C696 1.398 . S
C695 C701 1.491 . S
C696 H687 0.950 . S
C696 C695 1.398 . S
C696 C697 1.391 . S
C697 H685 0.950 . S
C697 C693 1.393 . S
C697 C696 1.391 . S
C698 H688 0.950 . S
C698 C699 1.386 . S
C698 C700 1.391 . S
C699 C698 1.386 . S
C699 C703 1.393 . S
C700 H689 0.950 . S
C700 C698 1.391 . S
C700 C701 1.400 . S
C701 C695 1.491 . S
C701 C700 1.400 . S
C701 C702 1.398 . S
C702 H690 0.950 . S
C702 C701 1.398 . S
C702 C703 1.391 . S
C703 H691 0.950 . S
C703 C699 1.393 . S
C703 C702 1.391 . S
H704 C712 0.950 . S
H705 C717 0.950 . S
H706 C714 0.950 . S
H707 C716 0.950 . S
H708 C718 0.950 . S
H709 C720 0.950 . S
H710 C722 0.950 . S
H711 C723 0.950 . S
C712 H704 0.950 . S
C712 C713 1.386 . S
C712 C714 1.391 . S
C713 C712 1.386 . S
C713 C717 1.393 . S
C714 H706 0.950 . S
C714 C712 1.391 . S
C714 C715 1.400 . S
C715 C714 1.400 . S
C715 C716 1.398 . S
C715 C721 1.491 . S
C716 H707 0.950 . S
C716 C715 1.398 . S
C716 C717 1.391 . S
C717 H705 0.950 . S
C717 C713 1.393 . S
C717 C716 1.391 . S
C718 H708 0.950 . S
C718 C719 1.386 . S
C718 C720 1.391 . S
C719 C718 1.386 . S
C719 C723 1.393 . S
C720 H709 0.950 . S
C720 C718 1.391 . S
C720 C721 1.400 . S
C721 C715 1.491 . S
C721 C720 1.400 . S
C721 C722 1.398 . S
C722 H710 0.950 . S
C722 C721 1.398 . S
C722 C723 1.391 . S
C723 H711 0.950 . S
C723 C719 1.393 . S
C723 C722 1.391 . S
H724 C732 0.950 . S
H725 C737 0.950 . S
H726 C734 0.950 . S
H727 C736 0.950 . S
H728 C738 0.950 . S
H729 C740 0.950 . S
H730 C742 0.950 . S
H731 C743 0.950 . S
C732 H724 0.950 . S
C732 C733 1.386 . S
C732 C734 1.391 . S
C733 C732 1.386 . S
C733 C737 1.393 . S
C734 H726 0.950 . S
C734 C732 1.391 . S
C734 C735 1.400 . S
C735 C734 1.400 . S
C735 C736 1.398 . S
C735 C741 1.491 . S
C736 H727 0.950 . S
C736 C735 1.398 . S
C736 C737 1.391 . S
C737 H725 0.950 . S
C737 C733 1.393 . S
C737 C736 1.391 . S
C738 H728 0.950 . S
C738 C739 1.386 . S
C738 C740 1.391 . S
C739 C738 1.386 . S
C739 C743 1.393 . S
C740 H729 0.950 . S
C740 C738 1.391 . S
C740 C741 1.400 . S
C741 C735 1.491 . S
C741 C740 1.400 . S
C741 C742 1.398 . S
C742 H730 0.950 . S
C742 C741 1.398 . S
C742 C743 1.391 . S
C743 H731 0.950 . S
C743 C739 1.393 . S
C743 C742 1.391 . S
H744 C752 0.950 . S
H745 C757 0.950 . S
H746 C754 0.950 . S
H747 C756 0.950 . S
H748 C758 0.950 . S
H749 C760 0.950 . S
H750 C762 0.950 . S
H751 C763 0.950 1_554 S
C752 H744 0.950 . S
C752 C753 1.386 . S
C752 C754 1.391 . S
C753 C752 1.386 . S
C753 C757 1.393 . S
C754 H746 0.950 . S
C754 C752 1.391 . S
C754 C755 1.400 . S
C755 C754 1.400 . S
C755 C756 1.398 . S
C755 C761 1.491 . S
C756 H747 0.950 . S
C756 C755 1.398 . S
C756 C757 1.391 . S
C757 H745 0.950 . S
C757 C753 1.393 . S
C757 C756 1.391 . S
C758 H748 0.950 . S
C758 C759 1.386 . S
C758 C760 1.391 . S
C759 C758 1.386 . S
C759 C763 1.393 . S
C760 H749 0.950 . S
C760 C758 1.391 . S
C760 C761 1.400 . S
C761 C755 1.491 . S
C761 C760 1.400 . S
C761 C762 1.398 . S
C762 H750 0.950 . S
C762 C761 1.398 . S
C762 C763 1.391 . S
C763 H751 0.950 1_556 S
C763 C759 1.393 . S
C763 C762 1.391 . S
H764 C772 0.950 . S
H765 C777 0.950 . S
H766 C774 0.950 . S
H767 C776 0.950 . S
H768 C778 0.950 . S
H769 C780 0.950 . S
H770 C782 0.950 . S
H771 C783 0.950 . S
C772 H764 0.950 . S
C772 C773 1.386 . S
C772 C774 1.391 . S
C773 C772 1.386 . S
C773 C777 1.393 . S
C774 H766 0.950 . S
C774 C772 1.391 . S
C774 C775 1.400 . S
C775 C774 1.400 . S
C775 C776 1.398 . S
C775 C781 1.491 . S
C776 H767 0.950 . S
C776 C775 1.398 . S
C776 C777 1.391 . S
C777 H765 0.950 . S
C777 C773 1.393 . S
C777 C776 1.391 . S
C778 H768 0.950 . S
C778 C779 1.386 . S
C778 C780 1.391 . S
C779 C778 1.386 . S
C779 C783 1.393 . S
C780 H769 0.950 . S
C780 C778 1.391 . S
C780 C781 1.400 . S
C781 C775 1.491 . S
C781 C780 1.400 . S
C781 C782 1.398 . S
C782 H770 0.950 . S
C782 C781 1.398 . S
C782 C783 1.391 . S
C783 H771 0.950 . S
C783 C779 1.393 . S
C783 C782 1.391 . S
H784 C792 0.950 . S
H785 C797 0.950 . S
H786 C794 0.950 . S
H787 C796 0.950 . S
H788 C798 0.950 . S
H789 C800 0.950 . S
H790 C802 0.950 . S
H791 C803 0.950 . S
C792 H784 0.950 . S
C792 C793 1.386 . S
C792 C794 1.391 . S
C793 C792 1.386 . S
C793 C797 1.393 . S
C794 H786 0.950 . S
C794 C792 1.391 . S
C794 C795 1.400 . S
C795 C794 1.400 . S
C795 C796 1.398 . S
C795 C801 1.491 . S
C796 H787 0.950 . S
C796 C795 1.398 . S
C796 C797 1.391 . S
C797 H785 0.950 . S
C797 C793 1.393 . S
C797 C796 1.391 . S
C798 H788 0.950 . S
C798 C799 1.386 . S
C798 C800 1.391 . S
C799 C798 1.386 . S
C799 C803 1.393 . S
C800 H789 0.950 . S
C800 C798 1.391 . S
C800 C801 1.400 . S
C801 C795 1.491 . S
C801 C800 1.400 . S
C801 C802 1.398 . S
C802 H790 0.950 . S
C802 C801 1.398 . S
C802 C803 1.391 . S
C803 H791 0.950 . S
C803 C799 1.393 . S
C803 C802 1.391 . S
H804 C812 0.950 . S
H805 C817 0.950 . S
H806 C814 0.950 . S
H807 C816 0.950 . S
H808 C818 0.950 . S
H809 C820 0.950 . S
H810 C822 0.950 . S
H811 C823 0.950 . S
C812 H804 0.950 . S
C812 C813 1.386 1_545 S
C812 C814 1.391 . S
C813 C812 1.386 1_565 S
C813 C817 1.393 . S
C814 H806 0.950 . S
C814 C812 1.391 . S
C814 C815 1.400 . S
C815 C814 1.400 . S
C815 C816 1.398 1_545 S
C815 C821 1.491 . S
C816 H807 0.950 . S
C816 C815 1.398 1_565 S
C816 C817 1.391 . S
C817 H805 0.950 . S
C817 C813 1.393 . S
C817 C816 1.391 . S
C818 H808 0.950 . S
C818 C819 1.386 1_565 S
C818 C820 1.391 . S
C819 C818 1.386 1_545 S
C819 C823 1.393 . S
C820 H809 0.950 . S
C820 C818 1.391 . S
C820 C821 1.400 1_565 S
C821 C815 1.491 . S
C821 C820 1.400 1_545 S
C821 C822 1.398 . S
C822 H810 0.950 . S
C822 C821 1.398 . S
C822 C823 1.391 . S
C823 H811 0.950 . S
C823 C819 1.393 . S
C823 C822 1.391 . S
H824 C832 0.950 . S
H825 C837 0.950 . S
H826 C834 0.950 . S
H827 C836 0.950 . S
H828 C838 0.950 1_565 S
H829 C840 0.950 . S
H830 C842 0.950 . S
H831 C843 0.950 . S
C832 H824 0.950 . S
C832 C833 1.386 . S
C832 C834 1.391 . S
C833 C832 1.386 . S
C833 C837 1.393 . S
C834 H826 0.950 . S
C834 C832 1.391 . S
C834 C835 1.400 . S
C835 C834 1.400 . S
C835 C836 1.398 . S
C835 C841 1.491 . S
C836 H827 0.950 . S
C836 C835 1.398 . S
C836 C837 1.391 . S
C837 H825 0.950 . S
C837 C833 1.393 . S
C837 C836 1.391 . S
C838 H828 0.950 1_545 S
C838 C839 1.386 . S
C838 C840 1.391 . S
C839 C838 1.386 . S
C839 C843 1.393 . S
C840 H829 0.950 . S
C840 C838 1.391 . S
C840 C841 1.400 . S
C841 C835 1.491 . S
C841 C840 1.400 . S
C841 C842 1.398 . S
C842 H830 0.950 . S
C842 C841 1.398 . S
C842 C843 1.391 . S
C843 H831 0.950 . S
C843 C839 1.393 . S
C843 C842 1.391 . S
H844 C852 0.950 . S
H845 C857 0.950 . S
H846 C854 0.950 . S
H847 C856 0.950 . S
H848 C858 0.950 . S
H849 C860 0.950 . S
H850 C862 0.950 . S
H851 C863 0.950 . S
C852 H844 0.950 . S
C852 C853 1.386 . S
C852 C854 1.391 . S
C853 C852 1.386 . S
C853 C857 1.393 . S
C854 H846 0.950 . S
C854 C852 1.391 . S
C854 C855 1.400 . S
C855 C854 1.400 . S
C855 C856 1.398 . S
C855 C861 1.491 . S
C856 H847 0.950 . S
C856 C855 1.398 . S
C856 C857 1.391 . S
C857 H845 0.950 . S
C857 C853 1.393 . S
C857 C856 1.391 . S
C858 H848 0.950 . S
C858 C859 1.386 . S
C858 C860 1.391 . S
C859 C858 1.386 . S
C859 C863 1.393 . S
C860 H849 0.950 . S
C860 C858 1.391 . S
C860 C861 1.400 . S
C861 C855 1.491 . S
C861 C860 1.400 . S
C861 C862 1.398 . S
C862 H850 0.950 . S
C862 C861 1.398 . S
C862 C863 1.391 . S
C863 H851 0.950 . S
C863 C859 1.393 . S
C863 C862 1.391 . S
H864 C872 0.950 . S
H865 C877 0.950 . S
H866 C874 0.950 . S
H867 C876 0.950 . S
H868 C878 0.950 . S
H869 C880 0.950 . S
H870 C882 0.950 . S
H871 C883 0.950 . S
C872 H864 0.950 . S
C872 C873 1.386 . S
C872 C874 1.391 . S
C873 C872 1.386 . S
C873 C877 1.393 . S
C874 H866 0.950 . S
C874 C872 1.391 . S
C874 C875 1.400 . S
C875 C874 1.400 . S
C875 C876 1.398 . S
C875 C881 1.491 . S
C876 H867 0.950 . S
C876 C875 1.398 . S
C876 C877 1.391 . S
C877 H865 0.950 . S
C877 C873 1.393 . S
C877 C876 1.391 . S
C878 H868 0.950 . S
C878 C879 1.386 . S
C878 C880 1.391 . S
C879 C878 1.386 . S
C879 C883 1.393 . S
C880 H869 0.950 . S
C880 C878 1.391 . S
C880 C881 1.400 . S
C881 C875 1.491 . S
C881 C880 1.400 . S
C881 C882 1.398 . S
C882 H870 0.950 . S
C882 C881 1.398 . S
C882 C883 1.391 . S
C883 H871 0.950 . S
C883 C879 1.393 . S
C883 C882 1.391 . S
H884 C892 0.950 . S
H885 C897 0.950 1_545 S
H886 C894 0.950 . S
H887 C896 0.950 1_545 S
H888 C898 0.950 1_545 S
H889 C900 0.950 1_545 S
H890 C902 0.950 . S
H891 C903 0.950 . S
C892 H884 0.950 . S
C892 C893 1.386 1_554 S
C892 C894 1.391 . S
C893 C892 1.386 1_556 S
C893 C897 1.393 . S
C894 H886 0.950 . S
C894 C892 1.391 . S
C894 C895 1.400 . S
C895 C894 1.400 . S
C895 C896 1.398 1_554 S
C895 C901 1.491 . S
C896 H887 0.950 1_565 S
C896 C895 1.398 1_556 S
C896 C897 1.391 . S
C897 H885 0.950 1_565 S
C897 C893 1.393 . S
C897 C896 1.391 . S
C898 H888 0.950 1_565 S
C898 C899 1.386 1_556 S
C898 C900 1.391 . S
C899 C898 1.386 1_554 S
C899 C903 1.393 . S
C900 H889 0.950 1_565 S
C900 C898 1.391 . S
C900 C901 1.400 1_556 S
C901 C895 1.491 . S
C901 C900 1.400 1_554 S
C901 C902 1.398 . S
C902 H890 0.950 . S
C902 C901 1.398 . S
C902 C903 1.391 . S
C903 H891 0.950 . S
C903 C899 1.393 . S
C903 C902 1.391 . S
H904 C912 0.950 . S
H905 C917 0.950 . S
H906 C914 0.950 . S
H907 C916 0.950 . S
H908 C918 0.950 . S
H909 C920 0.950 . S
H910 C922 0.950 . S
H911 C923 0.950 . S
C912 H904 0.950 . S
C912 C913 1.386 . S
C912 C914 1.391 . S
C913 C912 1.386 . S
C913 C917 1.393 . S
C914 H906 0.950 . S
C914 C912 1.391 . S
C914 C915 1.400 . S
C915 C914 1.400 . S
C915 C916 1.398 . S
C915 C921 1.491 . S
C916 H907 0.950 . S
C916 C915 1.398 . S
C916 C917 1.391 . S
C917 H905 0.950 . S
C917 C913 1.393 . S
C917 C916 1.391 . S
C918 H908 0.950 . S
C918 C919 1.386 . S
C918 C920 1.391 . S
C919 C918 1.386 . S
C919 C923 1.393 . S
C920 H909 0.950 . S
C920 C918 1.391 . S
C920 C921 1.400 . S
C921 C915 1.491 . S
C921 C920 1.400 . S
C921 C922 1.398 . S
C922 H910 0.950 . S
C922 C921 1.398 . S
C922 C923 1.391 . S
C923 H911 0.950 . S
C923 C919 1.393 . S
C923 C922 1.391 . S
H924 C932 0.950 . S
H925 C937 0.950 . S
H926 C934 0.950 . S
H927 C936 0.950 . S
H928 C938 0.950 . S
H929 C940 0.950 . S
H930 C942 0.950 . S
H931 C943 0.950 . S
C932 H924 0.950 . S
C932 C933 1.386 . S
C932 C934 1.391 . S
C933 C932 1.386 . S
C933 C937 1.393 . S
C934 H926 0.950 . S
C934 C932 1.391 . S
C934 C935 1.400 . S
C935 C934 1.400 . S
C935 C936 1.398 . S
C935 C941 1.491 . S
C936 H927 0.950 . S
C936 C935 1.398 . S
C936 C937 1.391 . S
C937 H925 0.950 . S
C937 C933 1.393 . S
C937 C936 1.391 . S
C938 H928 0.950 . S
C938 C939 1.386 . S
C938 C940 1.391 . S
C939 C938 1.386 . S
C939 C943 1.393 . S
C940 H929 0.950 . S
C940 C938 1.391 . S
C940 C941 1.400 . S
C941 C935 1.491 . S
C941 C940 1.400 . S
C941 C942 1.398 . S
C942 H930 0.950 . S
C942 C941 1.398 . S
C942 C943 1.391 . S
C943 H931 0.950 . S
C943 C939 1.393 . S
C943 C942 1.391 . S
H944 C952 0.950 . S
H945 C957 0.950 . S
H946 C954 0.950 . S
H947 C956 0.950 . S
H948 C958 0.950 . S
H949 C960 0.950 . S
H950 C962 0.950 . S
H951 C963 0.950 . S
C952 H944 0.950 . S
C952 C953 1.386 . S
C952 C954 1.391 . S
C953 C952 1.386 . S
C953 C957 1.393 . S
C954 H946 0.950 . S
C954 C952 1.391 . S
C954 C955 1.400 . S
C955 C954 1.400 . S
C955 C956 1.398 . S
C955 C961 1.491 . S
C956 H947 0.950 . S
C956 C955 1.398 . S
C956 C957 1.391 . S
C957 H945 0.950 . S
C957 C953 1.393 . S
C957 C956 1.391 . S
C958 H948 0.950 . S
C958 C959 1.386 . S
C958 C960 1.391 . S
C959 C958 1.386 . S
C959 C963 1.393 . S
C960 H949 0.950 . S
C960 C958 1.391 . S
C960 C961 1.400 . S
C961 C955 1.491 . S
C961 C960 1.400 . S
C961 C962 1.398 . S
C962 H950 0.950 . S
C962 C961 1.398 . S
C962 C963 1.391 . S
C963 H951 0.950 . S
C963 C959 1.393 . S
C963 C962 1.391 . S
H964 C972 0.950 . S
H965 C977 0.950 . S
H966 C974 0.950 . S
H967 C976 0.950 . S
H968 C978 0.950 . S
H969 C980 0.950 . S
H970 C982 0.950 . S
H971 C983 0.950 . S
C972 H964 0.950 . S
C972 C973 1.386 1_554 S
C972 C974 1.391 . S
C973 C972 1.386 1_556 S
C973 C977 1.393 1_655 S
C974 H966 0.950 . S
C974 C972 1.391 . S
C974 C975 1.381 1_654 S
C975 C974 1.381 1_456 S
C975 C976 1.414 . S
C975 C981 1.495 . S
C976 H967 0.950 . S
C976 C975 1.414 . S
C976 C977 1.391 . S
C977 H965 0.950 . S
C977 C973 1.393 1_455 S
C977 C976 1.391 . S
C978 H968 0.950 . S
C978 C979 1.386 . S
C978 C980 1.391 . S
C979 C978 1.386 . S
C979 C983 1.393 1_456 S
C980 H969 0.950 . S
C980 C978 1.391 . S
C980 C981 1.400 . S
C981 C975 1.495 . S
C981 C980 1.400 . S
C981 C982 1.398 1_456 S
C982 H970 0.950 . S
C982 C981 1.398 1_654 S
C982 C983 1.391 . S
C983 H971 0.950 . S
C983 C979 1.393 1_654 S
C983 C982 1.391 . S
H984 C992 0.950 . S
H985 C997 0.950 . S
H986 C994 0.950 . S
H987 C996 0.950 . S
H988 C998 0.950 . S
H989 C1000 0.950 . S
H990 C1002 0.950 . S
H991 C1003 0.950 . S
C992 H984 0.950 . S
C992 C993 1.386 . S
C992 C994 1.391 . S
C993 C992 1.386 . S
C993 C997 1.393 . S
C994 H986 0.950 . S
C994 C992 1.391 . S
C994 C995 1.400 . S
C995 C994 1.400 . S
C995 C996 1.398 . S
C995 C1001 1.491 . S
C996 H987 0.950 . S
C996 C995 1.398 . S
C996 C997 1.391 . S
C997 H985 0.950 . S
C997 C993 1.393 . S
C997 C996 1.391 . S
C998 H988 0.950 . S
C998 C999 1.386 . S
C998 C1000 1.391 . S
C999 C998 1.386 . S
C999 C1003 1.393 . S
C1000 H989 0.950 . S
C1000 C998 1.391 . S
C1000 C1001 1.400 . S
C1001 C995 1.491 . S
C1001 C1000 1.400 . S
C1001 C1002 1.398 . S
C1002 H990 0.950 . S
C1002 C1001 1.398 . S
C1002 C1003 1.391 . S
C1003 H991 0.950 . S
C1003 C999 1.393 . S
C1003 C1002 1.391 . S
H1004 C1012 0.950 . S
H1005 C1017 0.950 . S
H1006 C1014 0.950 . S
H1007 C1016 0.950 . S
H1008 C1018 0.950 . S
H1009 C1020 0.950 . S
H1010 C1022 0.950 . S
H1011 C1023 0.950 . S
C1012 H1004 0.950 . S
C1012 C1013 1.386 . S
C1012 C1014 1.391 . S
C1013 C1012 1.386 . S
C1013 C1017 1.393 . S
C1014 H1006 0.950 . S
C1014 C1012 1.391 . S
C1014 C1015 1.400 . S
C1015 C1014 1.400 . S
C1015 C1016 1.398 . S
C1015 C1021 1.491 . S
C1016 H1007 0.950 . S
C1016 C1015 1.398 . S
C1016 C1017 1.391 . S
C1017 H1005 0.950 . S
C1017 C1013 1.393 . S
C1017 C1016 1.391 . S
C1018 H1008 0.950 . S
C1018 C1019 1.386 . S
C1018 C1020 1.391 . S
C1019 C1018 1.386 . S
C1019 C1023 1.393 . S
C1020 H1009 0.950 . S
C1020 C1018 1.391 . S
C1020 C1021 1.400 . S
C1021 C1015 1.491 . S
C1021 C1020 1.400 . S
C1021 C1022 1.398 . S
C1022 H1010 0.950 . S
C1022 C1021 1.398 . S
C1022 C1023 1.391 . S
C1023 H1011 0.950 . S
C1023 C1019 1.393 . S
C1023 C1022 1.391 . S
H1024 C1032 0.950 . S
H1025 C1037 0.950 . S
H1026 C1034 0.950 . S
H1027 C1036 0.950 . S
H1028 C1038 0.950 . S
H1029 C1040 0.950 . S
H1030 C1042 0.950 . S
H1031 C1043 0.950 . S
C1032 H1024 0.950 . S
C1032 C1033 1.386 . S
C1032 C1034 1.391 . S
C1033 C1032 1.386 . S
C1033 C1037 1.393 . S
C1034 H1026 0.950 . S
C1034 C1032 1.391 . S
C1034 C1035 1.400 . S
C1035 C1034 1.400 . S
C1035 C1036 1.398 . S
C1035 C1041 1.491 . S
C1036 H1027 0.950 . S
C1036 C1035 1.398 . S
C1036 C1037 1.391 . S
C1037 H1025 0.950 . S
C1037 C1033 1.393 . S
C1037 C1036 1.391 . S
C1038 H1028 0.950 . S
C1038 C1039 1.386 . S
C1038 C1040 1.391 . S
C1039 C1038 1.386 . S
C1039 C1043 1.393 . S
C1040 H1029 0.950 . S
C1040 C1038 1.391 . S
C1040 C1041 1.400 . S
C1041 C1035 1.491 . S
C1041 C1040 1.400 . S
C1041 C1042 1.398 . S
C1042 H1030 0.950 . S
C1042 C1041 1.398 . S
C1042 C1043 1.391 . S
C1043 H1031 0.950 . S
C1043 C1039 1.393 . S
C1043 C1042 1.391 . S
C573 C1 1.507 . S
C579 C483 1.433 . S
C593 C80 1.489 . S
C599 C517 1.402 . S
C619 C529 1.410 . S
C613 C140 1.470 . S
C633 C211 1.502 . S
C639 C563 1.426 . S
C659 C520 1.425 . S
C653 C31 1.501 . S
C679 C500 1.415 . S
C673 C61 1.496 . S
C699 C547 1.372 . S
C693 C151 1.473 . S
C719 C538 1.409 . S
C713 C200 1.495 . S
C733 C20 1.508 . S
C739 C546 1.407 . S
C759 C508 1.411 . S
C753 C121 1.484 . S
C773 C181 1.484 . S
C779 C484 1.381 . S
C793 C91 1.499 . S
C799 C541 1.417 . S
C819 C499 1.610 . S
C813 C260 1.730 . S
C833 C320 1.626 . S
C839 C521 1.610 . S
C853 C361 1.749 . S
C859 C526 1.646 . S
C873 C451 1.656 . S
C879 C559 1.638 . S
C893 C271 1.742 . S
C899 C504 1.631 . S
C919 C496 1.628 . S
C913 C301 1.653 . S
C939 C550 1.631 . S
C933 C380 1.743 . S
C959 C542 1.639 . S
C953 C440 1.652 . S
C973 C241 1.701 . S
C979 C562 1.607 . S
C999 C505 1.624 . S
C993 C391 1.752 . S
C1019 C487 1.631 . S
C1013 C421 1.657 . S
C1033 C331 1.640 . S
C1039 C525 1.616 . S
