# Generated by pormake.
# Topology pyr, (3,6)-cn, num edge types: 1
# Building blocks:
#     Node 0, Type 0, BuildingBlock: MIDCAF_clean_linker_0, # of connection points: 3
#     Node 1, Type 0, BuildingBlock: MIDCAF_clean_linker_0, # of connection points: 3
#     Node 2, Type 0, BuildingBlock: MIDCAF_clean_linker_0, # of connection points: 3
#     Node 3, Type 0, BuildingBlock: MIDCAF_clean_linker_0, # of connection points: 3
#     Node 4, Type 0, BuildingBlock: MIDCAF_clean_linker_0, # of connection points: 3
#     Node 5, Type 0, BuildingBlock: MIDCAF_clean_linker_0, # of connection points: 3
#     Node 6, Type 0, BuildingBlock: MIDCAF_clean_linker_0, # of connection points: 3
#     Node 7, Type 0, BuildingBlock: MIDCAF_clean_linker_0, # of connection points: 3
#     Node 8, Type 1, BuildingBlock: JUFBIX_clean_sbu_0, # of connection points: 6
#     Node 9, Type 1, BuildingBlock: JUFBIX_clean_sbu_0, # of connection points: 6
#     Node 10, Type 1, BuildingBlock: JUFBIX_clean_sbu_0, # of connection points: 6
#     Node 11, Type 1, BuildingBlock: JUFBIX_clean_sbu_0, # of connection points: 6
#     Edge 12, Type (0, 1), BuildingBlock: TEMPAE_clean_linker_10, # of connection points: 2
#     Edge 13, Type (0, 1), BuildingBlock: TEMPAE_clean_linker_10, # of connection points: 2
#     Edge 14, Type (0, 1), BuildingBlock: TEMPAE_clean_linker_10, # of connection points: 2
#     Edge 15, Type (0, 1), BuildingBlock: TEMPAE_clean_linker_10, # of connection points: 2
#     Edge 16, Type (0, 1), BuildingBlock: TEMPAE_clean_linker_10, # of connection points: 2
#     Edge 17, Type (0, 1), BuildingBlock: TEMPAE_clean_linker_10, # of connection points: 2
#     Edge 18, Type (0, 1), BuildingBlock: TEMPAE_clean_linker_10, # of connection points: 2
#     Edge 19, Type (0, 1), BuildingBlock: TEMPAE_clean_linker_10, # of connection points: 2
#     Edge 20, Type (0, 1), BuildingBlock: TEMPAE_clean_linker_10, # of connection points: 2
#     Edge 21, Type (0, 1), BuildingBlock: TEMPAE_clean_linker_10, # of connection points: 2
#     Edge 22, Type (0, 1), BuildingBlock: TEMPAE_clean_linker_10, # of connection points: 2
#     Edge 23, Type (0, 1), BuildingBlock: TEMPAE_clean_linker_10, # of connection points: 2
#     Edge 24, Type (0, 1), BuildingBlock: TEMPAE_clean_linker_10, # of connection points: 2
#     Edge 25, Type (0, 1), BuildingBlock: TEMPAE_clean_linker_10, # of connection points: 2
#     Edge 26, Type (0, 1), BuildingBlock: TEMPAE_clean_linker_10, # of connection points: 2
#     Edge 27, Type (0, 1), BuildingBlock: TEMPAE_clean_linker_10, # of connection points: 2
#     Edge 28, Type (0, 1), BuildingBlock: TEMPAE_clean_linker_10, # of connection points: 2
#     Edge 29, Type (0, 1), BuildingBlock: TEMPAE_clean_linker_10, # of connection points: 2
#     Edge 30, Type (0, 1), BuildingBlock: TEMPAE_clean_linker_10, # of connection points: 2
#     Edge 31, Type (0, 1), BuildingBlock: TEMPAE_clean_linker_10, # of connection points: 2
#     Edge 32, Type (0, 1), BuildingBlock: TEMPAE_clean_linker_10, # of connection points: 2
#     Edge 33, Type (0, 1), BuildingBlock: TEMPAE_clean_linker_10, # of connection points: 2
#     Edge 34, Type (0, 1), BuildingBlock: TEMPAE_clean_linker_10, # of connection points: 2
#     Edge 35, Type (0, 1), BuildingBlock: TEMPAE_clean_linker_10, # of connection points: 2
# Relax obj value: 0.046
# Max RMSD: 0.092
# Mean RMSD: 0.031
data_MOF--net-pyr--node1-JUFBIX_clean_sbu_0--node2-MIDCAF_clean_linker_0--edge1-TEMPAE_clean_linker_10
_symmetry_space_group_name_H-M    P1
_symmetry_Int_Tables_number       1
_symmetry_cell_setting            triclinic
loop_
_symmetry_equiv_pos_as_xyz
'x, y, z'
_cell_length_a     46.204095
_cell_length_b     44.067325
_cell_length_c     46.236206
_cell_angle_alpha  85.424858
_cell_angle_beta   89.832881
_cell_angle_gamma 91.645634
loop_
_atom_site_label
_atom_site_type_symbol
_atom_site_fract_x
_atom_site_fract_y
_atom_site_fract_z
_atom_type_partial_charge
C0 C 0.11936 0.11991 0.25228 0.0
C1 C 0.13651 0.10786 0.27517 0.0
C2 C 0.16672 0.10804 0.27147 0.0
C3 C 0.17955 0.12001 0.24526 0.0
H4 H 0.2472 0.10488 0.18313 0.0
H5 H 0.29091 0.08525 0.16265 0.0
H6 H 0.28432 0.15019 0.0881 0.0
H7 H 0.2411 0.17033 0.10882 0.0
H8 H 0.19654 0.22728 0.11397 0.0
H9 H 0.1727 0.27166 0.0907 0.0
H10 H 0.09529 0.2477 0.14082 0.0
H11 H 0.1189 0.20351 0.16406 0.0
H12 H 0.11834 0.14212 0.20936 0.0
H13 H 0.09603 0.12007 0.25465 0.0
H14 H 0.18038 0.09883 0.28885 0.0
H15 H 0.20289 0.11999 0.24305 0.0
N16 N 0.20119 0.13752 0.18494 0.0
N17 N 0.19965 0.17498 0.14581 0.0
N18 N 0.16254 0.17102 0.18073 0.0
C19 C 0.21318 0.15102 0.15994 0.0
C20 C 0.17435 0.18517 0.1561 0.0
C21 C 0.1758 0.14737 0.19539 0.0
C22 C 0.24039 0.1393 0.14775 0.0
C23 C 0.25506 0.11511 0.16241 0.0
C24 C 0.28013 0.10365 0.15052 0.0
C25 C 0.29132 0.11599 0.12359 0.0
C26 C 0.27673 0.1403 0.10904 0.0
C27 C 0.25172 0.15179 0.12093 0.0
C28 C 0.15974 0.21171 0.14099 0.0
C29 C 0.17439 0.23136 0.11995 0.0
C30 C 0.16079 0.25693 0.10672 0.0
C31 C 0.13207 0.26326 0.11389 0.0
C32 C 0.11731 0.24337 0.13458 0.0
C33 C 0.13098 0.21807 0.14804 0.0
C34 C 0.16243 0.1328 0.22257 0.0
C35 C 0.13218 0.13257 0.22642 0.0
C36 C 0.32497 0.92107 0.61321 0.0
C37 C 0.31045 0.90985 0.58951 0.0
C38 C 0.32565 0.89299 0.57026 0.0
C39 C 0.35476 0.88663 0.5752 0.0
H40 H 0.42665 0.82993 0.5524 0.0
H41 H 0.43898 0.77971 0.53855 0.0
H42 H 0.47854 0.76002 0.62243 0.0
H43 H 0.46779 0.81092 0.63535 0.0
H44 H 0.4856 0.87138 0.6686 0.0
H45 H 0.50458 0.89193 0.71244 0.0
H46 H 0.44894 0.96879 0.69884 0.0
H47 H 0.43018 0.94865 0.65499 0.0
H48 H 0.36451 0.92376 0.63668 0.0
H49 H 0.31374 0.93452 0.62809 0.0
H50 H 0.31484 0.88423 0.55176 0.0
H51 H 0.36584 0.87299 0.56038 0.0
N52 N 0.41023 0.86374 0.59526 0.0
N53 N 0.45139 0.86798 0.62447 0.0
N54 N 0.41466 0.90339 0.6259 0.0
C55 C 0.4363 0.8533 0.60433 0.0
C56 C 0.44088 0.89341 0.63499 0.0
C57 C 0.39921 0.88871 0.60608 0.0
C58 C 0.44628 0.82424 0.5949 0.0
C59 C 0.43836 0.81494 0.56764 0.0
C60 C 0.44517 0.78604 0.55987 0.0
C61 C 0.45941 0.76552 0.57951 0.0
C62 C 0.46794 0.77525 0.60655 0.0
C63 C 0.46172 0.80443 0.61403 0.0
C64 C 0.45599 0.90811 0.65856 0.0
C65 C 0.47787 0.89301 0.67458 0.0
C66 C 0.4887 0.90469 0.69973 0.0
C67 C 0.47804 0.93179 0.70915 0.0
C68 C 0.45773 0.94797 0.692 0.0
C69 C 0.44678 0.93623 0.667 0.0
C70 C 0.36924 0.8975 0.5992 0.0
C71 C 0.35411 0.91515 0.6179 0.0
C72 C 0.65898 0.2532 0.90071 0.0
C73 C 0.63039 0.2455 0.89326 0.0
C74 C 0.61632 0.26404 0.87188 0.0
C75 C 0.63054 0.28973 0.85821 0.0
H76 H 0.62932 0.34609 0.78377 0.0
H77 H 0.60881 0.37022 0.73973 0.0
H78 H 0.67043 0.44544 0.74233 0.0
H79 H 0.69114 0.42137 0.78677 0.0
H80 H 0.73164 0.42063 0.85182 0.0
H81 H 0.77568 0.43908 0.8743 0.0
H82 H 0.8006 0.346 0.89533 0.0
H83 H 0.75555 0.32792 0.87477 0.0
H84 H 0.69512 0.28438 0.89362 0.0
H85 H 0.67028 0.23944 0.91729 0.0
H86 H 0.59438 0.25849 0.86549 0.0
H87 H 0.61899 0.30349 0.84184 0.0
N88 N 0.66197 0.34054 0.82818 0.0
N89 N 0.70021 0.37685 0.82638 0.0
N90 N 0.69939 0.33582 0.86213 0.0
C91 C 0.67497 0.36622 0.81529 0.0
C92 C 0.71257 0.36162 0.84973 0.0
C93 C 0.67392 0.32527 0.85164 0.0
C94 C 0.66202 0.3817 0.7889 0.0
C95 C 0.63856 0.36782 0.77515 0.0
C96 C 0.62686 0.38154 0.74973 0.0
C97 C 0.63815 0.40959 0.73745 0.0
C98 C 0.66123 0.42385 0.75138 0.0
C99 C 0.67315 0.40997 0.77677 0.0
C100 C 0.74011 0.37288 0.86172 0.0
C101 C 0.74663 0.40421 0.86126 0.0
C102 C 0.77205 0.41474 0.87401 0.0
C103 C 0.79196 0.39414 0.88687 0.0
C104 C 0.78563 0.3627 0.88646 0.0
C105 C 0.75986 0.35225 0.87442 0.0
C106 C 0.65909 0.29763 0.86579 0.0
C107 C 0.67314 0.27904 0.88723 0.0
C108 C 0.84085 0.60677 0.47978 0.0
C109 C 0.8252 0.58403 0.46621 0.0
C110 C 0.83757 0.57189 0.442 0.0
C111 C 0.86421 0.58306 0.43086 0.0
H112 H 0.9207 0.57331 0.36481 0.0
H113 H 0.93045 0.55865 0.31622 0.0
H114 H 0.97869 0.6431 0.29621 0.0
H115 H 0.96887 0.65807 0.34505 0.0
H116 H 0.97638 0.70317 0.39517 0.0
H117 H 0.99795 0.74901 0.4127 0.0
H118 H 0.96478 0.72221 0.49879 0.0
H119 H 0.94203 0.67683 0.48084 0.0
H120 H 0.87858 0.6363 0.47891 0.0
H121 H 0.83214 0.61633 0.49872 0.0
H122 H 0.82606 0.55472 0.43066 0.0
H123 H 0.87244 0.57366 0.41163 0.0
N124 N 0.9139 0.61216 0.40292 0.0
N125 N 0.95027 0.65034 0.39895 0.0
N126 N 0.91984 0.64505 0.43998 0.0
C127 C 0.93624 0.62645 0.38782 0.0
C128 C 0.94239 0.65961 0.42514 0.0
C129 C 0.90545 0.62124 0.42892 0.0
C130 C 0.94394 0.61692 0.35884 0.0
C131 C 0.93353 0.58876 0.35019 0.0
C132 C 0.93926 0.58023 0.32239 0.0
C133 C 0.95535 0.59972 0.30247 0.0
C134 C 0.96609 0.62774 0.31112 0.0
C135 C 0.96061 0.63618 0.33912 0.0
C136 C 0.95726 0.68639 0.43654 0.0
C137 C 0.97384 0.70687 0.41791 0.0
C138 C 0.98645 0.73314 0.42806 0.0
C139 C 0.98318 0.73945 0.45722 0.0
C140 C 0.96736 0.71842 0.47608 0.0
C141 C 0.95439 0.69231 0.46582 0.0
C142 C 0.87919 0.6069 0.44343 0.0
C143 C 0.86756 0.61811 0.4685 0.0
C144 C 0.75026 0.91031 0.87511 0.0
C145 C 0.73892 0.89739 0.90177 0.0
C146 C 0.75339 0.87273 0.91587 0.0
C147 C 0.77813 0.86112 0.90357 0.0
H148 H 0.8488 0.80023 0.92026 0.0
H149 H 0.8724 0.75508 0.94255 0.0
H150 H 0.90295 0.73413 0.85838 0.0
H151 H 0.87993 0.77939 0.83612 0.0
H152 H 0.87276 0.83204 0.78072 0.0
H153 H 0.89581 0.85444 0.7365 0.0
H154 H 0.88011 0.94444 0.76326 0.0
H155 H 0.85508 0.92158 0.80653 0.0
H156 H 0.78283 0.90916 0.84213 0.0
H157 H 0.73963 0.92906 0.86334 0.0
H158 H 0.74573 0.86244 0.93664 0.0
H159 H 0.78844 0.84205 0.91515 0.0
N160 N 0.82684 0.83473 0.87561 0.0
N161 N 0.86013 0.83473 0.8372 0.0
N162 N 0.8266 0.87375 0.8378 0.0
C163 C 0.84937 0.82164 0.86274 0.0
C164 C 0.84913 0.86086 0.82469 0.0
C165 C 0.81507 0.86063 0.86317 0.0
C166 C 0.86248 0.79352 0.87638 0.0
C167 C 0.86044 0.78594 0.90648 0.0
C168 C 0.87408 0.76019 0.91929 0.0
C169 C 0.88953 0.74108 0.90221 0.0
C170 C 0.89108 0.74832 0.87208 0.0
C171 C 0.87798 0.77435 0.85937 0.0
C172 C 0.86208 0.87501 0.79717 0.0
C173 C 0.87406 0.85663 0.77701 0.0
C174 C 0.88763 0.86962 0.75168 0.0
C175 C 0.89046 0.9015 0.74604 0.0
C176 C 0.87816 0.91987 0.76626 0.0
C177 C 0.86386 0.90678 0.79128 0.0
C178 C 0.78931 0.87384 0.87677 0.0
C179 C 0.77508 0.89875 0.86282 0.0
C180 C 0.55798 0.04712 0.34279 0.0
C181 C 0.54569 0.06457 0.31941 0.0
C182 C 0.54117 0.09568 0.32219 0.0
C183 C 0.5509 0.10946 0.34669 0.0
H184 H 0.5412 0.18202 0.40236 0.0
H185 H 0.52915 0.23309 0.41437 0.0
H186 H 0.60813 0.23892 0.46366 0.0
H187 H 0.61988 0.18791 0.45244 0.0
H188 H 0.66054 0.12977 0.46072 0.0
H189 H 0.71108 0.11737 0.46862 0.0
H190 H 0.7089 0.06455 0.39371 0.0
H191 H 0.65815 0.0758 0.38665 0.0
H192 H 0.5793 0.04738 0.38381 0.0
H193 H 0.56103 0.02295 0.34179 0.0
H194 H 0.53203 0.10998 0.3046 0.0
H195 H 0.54878 0.13382 0.34736 0.0
N196 N 0.57329 0.13496 0.39962 0.0
N197 N 0.61616 0.13966 0.42611 0.0
N198 N 0.60841 0.09757 0.39905 0.0
C199 C 0.59009 0.15067 0.41775 0.0
C200 C 0.6255 0.11323 0.41682 0.0
C201 C 0.5822 0.10814 0.39058 0.0
C202 C 0.58154 0.1808 0.42635 0.0
C203 C 0.55587 0.19407 0.41597 0.0
C204 C 0.54906 0.22341 0.42266 0.0
C205 C 0.56776 0.24004 0.43986 0.0
C206 C 0.59311 0.22656 0.45064 0.0
C207 C 0.59989 0.19729 0.44404 0.0
C208 C 0.65533 0.10369 0.42313 0.0
C209 C 0.67081 0.11525 0.44614 0.0
C210 C 0.69986 0.1084 0.45048 0.0
C211 C 0.71417 0.09019 0.43165 0.0
C212 C 0.6985 0.07829 0.40888 0.0
C213 C 0.66936 0.08477 0.40481 0.0
C214 C 0.5658 0.09252 0.36858 0.0
C215 C 0.56827 0.06104 0.36696 0.0
C216 C 0.24288 0.60021 0.15346 0.0
C217 C 0.23277 0.61415 0.12713 0.0
C218 C 0.24907 0.63862 0.11335 0.0
C219 C 0.27496 0.64871 0.12544 0.0
H220 H 0.33516 0.71998 0.11941 0.0
H221 H 0.36079 0.76554 0.09813 0.0
H222 H 0.43518 0.74368 0.15125 0.0
H223 H 0.40977 0.69797 0.1725 0.0
H224 H 0.40733 0.63287 0.21334 0.0
H225 H 0.42731 0.60729 0.25741 0.0
H226 H 0.34101 0.5814 0.28765 0.0
H227 H 0.32085 0.60636 0.24318 0.0
H228 H 0.27596 0.59885 0.18577 0.0
H229 H 0.23066 0.58159 0.16486 0.0
H230 H 0.24214 0.64962 0.09286 0.0
H231 H 0.28703 0.66741 0.11398 0.0
N232 N 0.3284 0.66904 0.15094 0.0
N233 N 0.36535 0.66233 0.18525 0.0
N234 N 0.32442 0.62944 0.1879 0.0
C235 C 0.35439 0.67808 0.16151 0.0
C236 C 0.35048 0.63809 0.19862 0.0
C237 C 0.31331 0.64467 0.16389 0.0
C238 C 0.37032 0.70526 0.14777 0.0
C239 C 0.35702 0.72473 0.12651 0.0
C240 C 0.37163 0.75097 0.11442 0.0
C241 C 0.39994 0.75824 0.12311 0.0
C242 C 0.41345 0.73855 0.14397 0.0
C243 C 0.39878 0.71243 0.15625 0.0
C244 C 0.36252 0.62165 0.22482 0.0
C245 C 0.3926 0.62157 0.22929 0.0
C246 C 0.40406 0.60683 0.25439 0.0
C247 C 0.38565 0.59244 0.27579 0.0
C248 C 0.35559 0.59241 0.2714 0.0
C249 C 0.34413 0.60657 0.24596 0.0
C250 C 0.28529 0.63454 0.1516 0.0
C251 C 0.26883 0.61025 0.16553 0.0
C252 C 0.05444 0.30455 0.54138 0.0
C253 C 0.03954 0.28398 0.56148 0.0
C254 C 0.03476 0.29278 0.58967 0.0
C255 C 0.045 0.32103 0.59767 0.0
H256 H 0.03763 0.38031 0.66143 0.0
H257 H 0.02561 0.39785 0.70865 0.0
H258 H 0.07737 0.47995 0.68835 0.0
H259 H 0.0893 0.46272 0.64116 0.0
H260 H 0.13831 0.46177 0.59423 0.0
H261 H 0.18736 0.47822 0.58006 0.0
H262 H 0.19448 0.40021 0.52987 0.0
H263 H 0.14515 0.3838 0.54366 0.0
H264 H 0.07694 0.34766 0.53372 0.0
H265 H 0.05804 0.29894 0.51931 0.0
H266 H 0.02394 0.27747 0.60598 0.0
H267 H 0.04141 0.32671 0.61974 0.0
N268 N 0.06265 0.38219 0.61088 0.0
N269 N 0.09864 0.42079 0.60649 0.0
N270 N 0.09723 0.38313 0.57346 0.0
C271 C 0.07498 0.40783 0.6205 0.0
C272 C 0.10996 0.40866 0.58302 0.0
C273 C 0.07343 0.3699 0.58719 0.0
C274 C 0.06469 0.41995 0.64758 0.0
C275 C 0.04609 0.40233 0.6668 0.0
C276 C 0.0393 0.41227 0.69391 0.0
C277 C 0.0507 0.44016 0.70223 0.0
C278 C 0.06809 0.45846 0.68246 0.0
C279 C 0.07508 0.44844 0.65548 0.0
C280 C 0.13785 0.42114 0.57048 0.0
C281 C 0.15009 0.44828 0.57982 0.0
C282 C 0.17827 0.45771 0.57179 0.0
C283 C 0.19495 0.44027 0.55423 0.0
C284 C 0.18213 0.41422 0.54334 0.0
C285 C 0.15386 0.40476 0.55135 0.0
C286 C 0.06074 0.34103 0.57788 0.0
C287 C 0.06515 0.3326 0.54957 0.0
Co288 Co 0.99445 0.01062 0.50222 0.0
C289 C 0.02284 0.95525 0.49998 0.0
Co290 Co 0.03694 0.00845 0.5236 0.0
C291 C 0.94021 0.03033 0.47617 0.0
C292 C 0.94091 0.98239 0.48821 0.0
N293 N 0.95771 0.00808 0.48669 0.0
N294 N 0.91327 0.01936 0.47141 0.0
C295 C 0.91358 0.98931 0.47896 0.0
H296 H 0.94639 0.05429 0.47403 0.0
H297 H 0.9475 0.9603 0.49732 0.0
C298 C 1.00852 0.06388 0.52566 0.0
N299 N 0.07367 0.01065 0.53915 0.0
C300 C 0.09017 0.98821 0.55108 0.0
C301 C 0.09103 0.03587 0.53778 0.0
N302 N 0.11717 0.99847 0.55703 0.0
C303 C 0.11764 0.0285 0.54878 0.0
C304 C 0.03771 0.02953 0.4639 0.0
O305 O 0.98825 0.05098 0.5123 0.0
O306 O 0.03114 0.04926 0.53224 0.0
O307 O 0.05293 0.02245 0.48621 0.0
O308 O 1.01026 0.02669 0.46582 0.0
O309 O 0.04225 0.96731 0.5151 0.0
H310 H 0.08523 0.05799 0.52805 0.0
H311 H 0.08278 0.96467 0.55448 0.0
O312 O 1.00112 0.97063 0.49192 0.0
O313 O 0.97871 0.99441 0.53897 0.0
O314 O 0.02087 0.99445 0.56059 0.0
C315 C 0.99365 0.9892 0.56181 0.0
H316 H 0.89489 0.97387 0.47933 0.0
H317 H 0.13639 0.04378 0.54898 0.0
Co318 Co 0.50185 1.00117 0.99274 0.0
C319 C 0.49586 0.953 0.03525 0.0
Co320 Co 0.52626 0.00801 0.03246 0.0
C321 C 0.49203 0.99622 0.93231 0.0
C322 C 0.45383 0.98448 0.95753 0.0
N323 N 0.48152 0.99449 0.95961 0.0
N324 N 0.47216 0.98728 0.91319 0.0
C325 C 0.448 0.98001 0.929 0.0
H326 H 0.51408 1.00336 0.92673 0.0
H327 H 0.43919 0.9797 0.97573 0.0
C328 C 0.53231 0.05605 0.98976 0.0
N329 N 0.54666 0.01473 0.06555 0.0
C330 C 0.53654 0.01244 0.09303 0.0
C331 C 0.57416 0.02549 0.06731 0.0
N332 N 0.55649 0.02176 0.11185 0.0
C333 C 0.58024 0.02994 0.09579 0.0
C334 C 0.55845 0.97993 0.99157 0.0
O335 O 0.51528 0.0396 0.9757 0.0
O336 O 0.53963 0.04659 0.01529 0.0
O337 O 0.55936 0.98935 0.01686 0.0
O338 O 0.53506 0.98258 0.97729 0.0
O339 O 0.51276 0.96943 0.04951 0.0
H340 H 0.58853 0.03064 0.04895 0.0
H341 H 0.51452 0.00541 0.09892 0.0
O342 O 0.48856 0.96265 0.00977 0.0
O343 O 0.46874 0.01984 1.00838 0.0
O344 O 0.49312 0.02666 0.04791 0.0
C345 C 0.46973 0.02937 0.03364 0.0
H346 H 0.42796 0.97076 0.92084 0.0
H347 H 0.60038 0.03896 0.10398 0.0
Co348 Co 0.53198 0.51291 0.49746 0.0
C349 C 0.48484 0.51614 0.46007 0.0
Co350 Co 0.49119 0.49341 0.51716 0.0
C351 C 0.59334 0.52483 0.48733 0.0
C352 C 0.56699 0.55532 0.46127 0.0
N353 N 0.56549 0.53112 0.48108 0.0
N354 N 0.61207 0.54413 0.47218 0.0
C355 C 0.59555 0.56325 0.45566 0.0
H356 H 0.59978 0.50665 0.5029 0.0
H357 H 0.54851 0.56706 0.45208 0.0
C358 C 0.53839 0.49038 0.55462 0.0
N359 N 0.4578 0.47501 0.53356 0.0
C360 C 0.42986 0.48158 0.52813 0.0
C361 C 0.45662 0.44991 0.55226 0.0
N362 N 0.4113 0.46138 0.54251 0.0
C363 C 0.42817 0.44156 0.55786 0.0
C364 C 0.52463 0.45223 0.48996 0.0
O365 O 0.55183 0.50346 0.53289 0.0
O366 O 0.51153 0.48404 0.55239 0.0
O367 O 0.50138 0.45576 0.50387 0.0
O368 O 0.54206 0.47483 0.48458 0.0
O369 O 0.47124 0.50301 0.48171 0.0
H370 H 0.47527 0.43795 0.56076 0.0
H371 H 0.4233 0.50017 0.51309 0.0
O372 O 0.51174 0.52223 0.4623 0.0
O373 O 0.52159 0.5507 0.51029 0.0
O374 O 0.48125 0.53136 0.53033 0.0
C375 C 0.49839 0.55409 0.52432 0.0
H376 H 0.60354 0.58234 0.44137 0.0
H377 H 0.42057 0.42224 0.57205 0.0
Co378 Co 0.02437 0.50247 0.98857 0.0
C379 C 0.96924 0.47567 0.98649 0.0
Co380 Co 0.99924 0.50407 0.029 0.0
C381 C 0.035 0.50102 0.92731 0.0
C382 C 0.07367 0.49517 0.95225 0.0
N383 N 0.04523 0.50053 0.95464 0.0
N384 N 0.05583 0.49575 0.90792 0.0
C385 C 0.08025 0.49223 0.92361 0.0
H386 H 0.0125 0.50443 0.92193 0.0
H387 H 0.08841 0.49228 0.97033 0.0
C388 C 0.05435 0.53105 0.03101 0.0
N389 N 0.97856 0.50552 0.06317 0.0
C390 C 0.9809 0.52672 0.08261 0.0
C391 C 0.95932 0.48449 0.07503 0.0
N392 N 0.96407 0.51967 0.10622 0.0
C393 C 0.9503 0.49318 0.10145 0.0
C394 C 0.03284 0.45253 0.02839 0.0
O395 O 0.0559 0.52378 1.00502 0.0
O396 O 0.03126 0.52458 0.04541 0.0
O397 O 0.01472 0.46591 0.04338 0.0
O398 O 0.03995 0.46457 1.00337 0.0
O399 O 0.96741 0.48371 0.01218 0.0
H400 H 0.95295 0.46368 0.06553 0.0
H401 H 0.99504 0.54675 0.07972 0.0
O402 O 0.99268 0.48108 0.97237 0.0
O403 O 1.00855 0.54047 0.97401 0.0
O404 O 0.9839 0.54205 0.01448 0.0
C405 C 0.99065 0.55391 0.98927 0.0
H406 H 0.10111 0.48637 0.9153 0.0
H407 H 0.93578 0.4803 0.11655 0.0
C408 C 0.12766 0.11028 0.32842 0.0
C409 C 0.12275 0.09569 0.30298 0.0
C410 C 0.11361 0.09994 0.3546 0.0
C411 C 0.0948 0.07385 0.35555 0.0
C412 C 0.09028 0.05872 0.32992 0.0
C413 C 0.10395 0.0701 0.30386 0.0
C414 C 0.11853 0.11724 0.38114 0.0
C415 C 0.0711 0.0304 0.33006 0.0
C416 C 0.08013 0.03177 0.4298 0.0
C417 C 0.05203 0.0407 0.43607 0.0
C418 C 0.09405 0.04193 0.40354 0.0
C419 C 0.07996 0.06235 0.38334 0.0
C420 C 0.05171 0.07177 0.38976 0.0
C421 C 0.03792 0.06046 0.4158 0.0
C422 C 0.12378 0.03059 0.39731 0.0
C423 C 0.03619 0.09414 0.36928 0.0
H424 H 0.14199 0.13025 0.32764 0.0
H425 H 0.10021 0.05882 0.28416 0.0
H426 H 0.09753 0.12477 0.38933 0.0
H427 H 0.12811 0.10218 0.39871 0.0
H428 H 0.13313 0.13755 0.37663 0.0
H429 H 0.07068 0.02065 0.30862 0.0
H430 H 0.07876 0.01286 0.34661 0.0
H431 H 0.04864 0.03567 0.33606 0.0
H432 H 0.09108 0.01632 0.44528 0.0
H433 H 0.01631 0.06765 0.42062 0.0
H434 H 0.13965 0.04999 0.39489 0.0
H435 H 0.12358 0.01964 0.37651 0.0
H436 H 0.13135 0.0139 0.41474 0.0
H437 H 0.04954 0.11543 0.36539 0.0
H438 H 0.0147 0.09992 0.37781 0.0
H439 H 0.03306 0.0846 0.348 0.0
C440 C 0.4903 0.97194 0.74292 0.0
C441 C 0.48497 0.94119 0.73843 0.0
C442 C 0.49197 0.98157 0.77108 0.0
C443 C 0.48788 0.95993 0.79515 0.0
C444 C 0.48412 0.92866 0.79073 0.0
C445 C 0.4828 0.91966 0.76239 0.0
C446 C 0.49655 0.01503 0.77503 0.0
C447 C 0.47956 0.9049 0.81586 0.0
C448 C 0.5044 0.97747 0.87242 0.0
C449 C 0.47666 0.9831 0.88293 0.0
C450 C 0.50867 0.97113 0.84349 0.0
C451 C 0.48458 0.97006 0.82478 0.0
C452 C 0.45671 0.97664 0.83497 0.0
C453 C 0.45313 0.98322 0.86388 0.0
C454 C 0.53874 0.96443 0.83333 0.0
C455 C 0.43046 0.97568 0.81562 0.0
H456 H 0.49226 0.98857 0.72438 0.0
H457 H 0.4783 0.89592 0.75903 0.0
H458 H 0.47622 0.02432 0.78304 0.0
H459 H 0.51347 0.01845 0.79152 0.0
H460 H 0.50296 0.02829 0.75445 0.0
H461 H 0.47944 0.88136 0.80886 0.0
H462 H 0.49676 0.90711 0.8323 0.0
H463 H 0.45854 0.90844 0.8266 0.0
H464 H 0.5227 0.97694 0.88698 0.0
H465 H 0.43178 0.9881 0.87168 0.0
H466 H 0.54383 0.97761 0.81239 0.0
H467 H 0.53989 0.93993 0.82962 0.0
H468 H 0.55556 0.9699 0.84938 0.0
H469 H 0.43409 0.99092 0.79559 0.0
H470 H 0.41053 0.98262 0.82654 0.0
H471 H 0.42681 0.95225 0.80893 0.0
C472 C 0.61895 0.4545 0.70737 0.0
C473 C 0.62581 0.42361 0.71008 0.0
C474 C 0.60571 0.46742 0.68214 0.0
C475 C 0.59943 0.44904 0.65905 0.0
C476 C 0.60706 0.41805 0.66139 0.0
C477 C 0.62006 0.40572 0.68689 0.0
C478 C 0.59772 0.50048 0.68052 0.0
C479 C 0.60101 0.39776 0.63714 0.0
C480 C 0.53865 0.46899 0.60641 0.0
C481 C 0.55395 0.48161 0.58187 0.0
C482 C 0.55316 0.4591 0.63191 0.0
C483 C 0.58376 0.46169 0.63289 0.0
C484 C 0.59931 0.47497 0.60841 0.0
C485 C 0.58422 0.48486 0.58322 0.0
C486 C 0.53577 0.44525 0.65761 0.0
C487 C 0.63195 0.47798 0.60854 0.0
H488 H 0.62317 0.46836 0.72532 0.0
H489 H 0.62573 0.38194 0.68873 0.0
H490 H 0.60718 0.51281 0.6607 0.0
H491 H 0.57386 0.50224 0.679 0.0
H492 H 0.60529 0.51203 0.69974 0.0
H493 H 0.60948 0.37455 0.64185 0.0
H494 H 0.57733 0.39571 0.63356 0.0
H495 H 0.61093 0.40796 0.61661 0.0
H496 H 0.51526 0.46651 0.60562 0.0
H497 H 0.59623 0.49457 0.56436 0.0
H498 H 0.5412 0.45715 0.67724 0.0
H499 H 0.54133 0.42102 0.6622 0.0
H500 H 0.51206 0.4464 0.65391 0.0
H501 H 0.6393 0.49031 0.62732 0.0
H502 H 0.6407 0.49025 0.58832 0.0
H503 H 0.64134 0.45503 0.61099 0.0
C504 C 0.96832 0.56141 0.26794 0.0
C505 C 0.95997 0.59097 0.27254 0.0
C506 C 0.97033 0.55183 0.23984 0.0
C507 C 0.96363 0.57227 0.21576 0.0
C508 C 0.95604 0.60246 0.2202 0.0
C509 C 0.95439 0.6115 0.24859 0.0
C510 C 0.97881 0.51955 0.23598 0.0
C511 C 0.94864 0.62483 0.19505 0.0
C512 C 0.98823 0.55026 0.14205 0.0
C513 C 0.96332 0.53521 0.13243 0.0
C514 C 0.98844 0.5633 0.16878 0.0
C515 C 0.9631 0.56135 0.18616 0.0
C516 C 0.93759 0.54717 0.17605 0.0
C517 C 0.93806 0.53417 0.14935 0.0
C518 C 0.01611 0.57807 0.17889 0.0
C519 C 0.91002 0.54494 0.19382 0.0
H520 H 0.97299 0.54563 0.28642 0.0
H521 H 0.94768 0.63429 0.25211 0.0
H522 H 0.96047 0.50694 0.22654 0.0
H523 H 0.99729 0.51951 0.22061 0.0
H524 H 0.98496 0.5071 0.25679 0.0
H525 H 0.94507 0.64799 0.202 0.0
H526 H 0.96624 0.62629 0.17858 0.0
H527 H 0.9287 0.6168 0.18434 0.0
H528 H 1.00792 0.55082 0.12922 0.0
H529 H 0.91869 0.52294 0.14176 0.0
H530 H 0.02452 0.56435 0.19804 0.0
H531 H 0.01193 0.6011 0.18576 0.0
H532 H 0.03312 0.5801 0.16176 0.0
H533 H 0.91341 0.53054 0.21426 0.0
H534 H 0.89159 0.53498 0.18203 0.0
H535 H 0.90409 0.56783 0.19988 0.0
C536 C 0.32258 0.07196 0.11289 0.0
C537 C 0.31787 0.10344 0.1106 0.0
C538 C 0.34724 0.05986 0.10056 0.0
C539 C 0.36787 0.0796 0.08536 0.0
C540 C 0.36332 0.11137 0.08298 0.0
C541 C 0.33852 0.12287 0.09561 0.0
C542 C 0.35113 0.02586 0.10366 0.0
C543 C 0.38471 0.1333 0.06707 0.0
C544 C 0.44453 0.0515 0.07519 0.0
C545 C 0.44382 0.04275 0.04662 0.0
C546 C 0.42009 0.0635 0.088 0.0
C547 C 0.39415 0.06701 0.07193 0.0
C548 C 0.39333 0.05837 0.04304 0.0
C549 C 0.41807 0.04634 0.03078 0.0
C550 C 0.42201 0.07228 0.11885 0.0
C551 C 0.36623 0.06174 0.02505 0.0
H552 H 0.30669 0.0566 0.12398 0.0
H553 H 0.3355 0.14723 0.094 0.0
H554 H 0.35194 0.01696 0.08191 0.0
H555 H 0.37202 0.02063 0.11446 0.0
H556 H 0.33339 0.0136 0.11644 0.0
H557 H 0.37802 0.15732 0.06696 0.0
H558 H 0.40633 0.13133 0.07732 0.0
H559 H 0.38709 0.12747 0.04429 0.0
H560 H 0.46422 0.04879 0.08772 0.0
H561 H 0.41718 0.03966 0.00874 0.0
H562 H 0.40558 0.05901 0.13254 0.0
H563 H 0.41717 0.09671 0.11965 0.0
H564 H 0.44373 0.06825 0.12842 0.0
H565 H 0.34812 0.04816 0.0359 0.0
H566 H 0.3691 0.05423 1.00288 0.0
H567 H 0.3598 0.08589 0.02319 0.0
C568 C 0.2705 0.93012 0.55823 0.0
C569 C 0.2796 0.91637 0.58484 0.0
C570 C 0.24203 0.93986 0.55465 0.0
C571 C 0.22224 0.93524 0.57816 0.0
C572 C 0.23089 0.91964 0.6045 0.0
C573 C 0.25963 0.91064 0.60763 0.0
C574 C 0.23366 0.95669 0.52631 0.0
C575 C 0.2102 0.91371 0.62979 0.0
C576 C 0.16529 0.99493 0.57937 0.0
C577 C 0.14185 0.98091 0.56598 0.0
C578 C 0.19126 0.97987 0.58432 0.0
C579 C 0.19371 0.94979 0.57614 0.0
C580 C 0.16956 0.93472 0.56435 0.0
C581 C 0.14391 0.95054 0.55923 0.0
C582 C 0.21653 0.99673 0.59703 0.0
C583 C 0.17124 0.90242 0.55591 0.0
H584 H 0.28604 0.93461 0.54068 0.0
H585 H 0.26669 0.89961 0.6281 0.0
H586 H 0.21344 0.94656 0.51788 0.0
H587 H 0.22939 0.98076 0.52993 0.0
H588 H 0.25087 0.95636 0.50952 0.0
H589 H 0.21908 0.89776 0.64714 0.0
H590 H 0.20569 0.93548 0.6392 0.0
H591 H 0.18925 0.90413 0.62247 0.0
H592 H 0.16359 0.0181 0.58527 0.0
H593 H 0.12598 0.93954 0.54876 0.0
H594 H 0.23447 0.99961 0.58093 0.0
H595 H 0.22484 0.98342 0.61646 0.0
H596 H 0.21067 0.01959 0.60329 0.0
H597 H 0.18535 0.90194 0.53651 0.0
H598 H 0.1496 0.89264 0.55079 0.0
H599 H 0.18103 0.88767 0.57361 0.0
C600 C 0.8303 0.38881 0.92553 0.0
C601 C 0.81889 0.40528 0.90107 0.0
C602 C 0.8555 0.39896 0.93914 0.0
C603 C 0.86923 0.42683 0.92875 0.0
C604 C 0.85784 0.44375 0.90429 0.0
C605 C 0.83314 0.43256 0.8905 0.0
C606 C 0.86732 0.37993 0.96481 0.0
C607 C 0.8715 0.47392 0.89291 0.0
C608 C 0.91582 0.46754 0.98207 0.0
C609 C 0.94384 0.46197 0.9725 0.0
C610 C 0.89137 0.45649 0.96784 0.0
C611 C 0.89504 0.43869 0.94397 0.0
C612 C 0.92333 0.43241 0.93463 0.0
C613 C 0.94741 0.4445 0.94876 0.0
C614 C 0.86162 0.46442 0.97796 0.0
C615 C 0.92815 0.41289 0.90976 0.0
H616 H 0.81934 0.36809 0.93446 0.0
H617 H 0.82509 0.44528 0.87133 0.0
H618 H 0.8905 0.37541 0.96114 0.0
H619 H 0.86605 0.39254 0.98458 0.0
H620 H 0.85531 0.3578 0.96895 0.0
H621 H 0.85963 0.48463 0.87408 0.0
H622 H 0.87206 0.48985 0.91034 0.0
H623 H 0.89422 0.47078 0.88622 0.0
H624 H 0.91297 0.48136 1.0002 0.0
H625 H 0.96906 0.44011 0.94134 0.0
H626 H 0.84882 0.44335 0.98468 0.0
H627 H 0.84985 0.47657 0.95984 0.0
H628 H 0.86251 0.47901 0.99648 0.0
H629 H 0.91689 0.39041 0.91423 0.0
H630 H 0.95149 0.40919 0.9059 0.0
H631 H 0.91881 0.42376 0.88957 0.0
C632 C 0.78479 0.54472 0.47361 0.0
C633 C 0.795 0.57487 0.47518 0.0
C634 C 0.7552 0.53698 0.47665 0.0
C635 C 0.73537 0.55985 0.4818 0.0
C636 C 0.74578 0.58976 0.48574 0.0
C637 C 0.77543 0.59696 0.48221 0.0
C638 C 0.74498 0.5048 0.47235 0.0
C639 C 0.72538 0.61471 0.4917 0.0
C640 C 0.66001 0.5553 0.45003 0.0
C641 C 0.64312 0.54576 0.47445 0.0
C642 C 0.69011 0.55914 0.45209 0.0
C643 C 0.70369 0.55361 0.47935 0.0
C644 C 0.68686 0.54329 0.50402 0.0
C645 C 0.65672 0.53932 0.50124 0.0
C646 C 0.70732 0.56971 0.42513 0.0
C647 C 0.7005 0.53744 0.53349 0.0
H648 H 0.79983 0.52732 0.46886 0.0
H649 H 0.78295 0.62036 0.48329 0.0
H650 H 0.72947 0.49629 0.48968 0.0
H651 H 0.73344 0.50447 0.45136 0.0
H652 H 0.76323 0.48894 0.47216 0.0
H653 H 0.7371 0.63548 0.49811 0.0
H654 H 0.71266 0.62095 0.4719 0.0
H655 H 0.70981 0.60674 0.50917 0.0
H656 H 0.64955 0.55987 0.42926 0.0
H657 H 0.64366 0.53223 0.52022 0.0
H658 H 0.72483 0.55363 0.42172 0.0
H659 H 0.71774 0.5923 0.4278 0.0
H660 H 0.69363 0.5716 0.40539 0.0
H661 H 0.71896 0.52205 0.53225 0.0
H662 H 0.6848 0.52719 0.54998 0.0
H663 H 0.70922 0.55921 0.54091 0.0
C664 C 0.08898 0.28846 0.0902 0.0
C665 C 0.11757 0.29066 0.10022 0.0
C666 C 0.07478 0.31421 0.07793 0.0
C667 C 0.08932 0.34306 0.07589 0.0
C668 C 0.11821 0.34542 0.0859 0.0
C669 C 0.13202 0.31922 0.09775 0.0
C670 C 0.04416 0.31053 0.06717 0.0
C671 C 0.13443 0.37574 0.08449 0.0
C672 C 0.06281 0.40667 0.02237 0.0
C673 C 0.0464 0.42394 0.04032 0.0
C674 C 0.07655 0.38017 0.03355 0.0
C675 C 0.07424 0.3708 0.06353 0.0
C676 C 0.05766 0.3881 0.08175 0.0
C677 C 0.04381 0.41427 0.06992 0.0
C678 C 0.09364 0.36222 0.01326 0.0
C679 C 0.05488 0.37919 0.11387 0.0
H680 H 0.07776 0.26645 0.09173 0.0
H681 H 0.15398 0.3212 0.10572 0.0
H682 H 0.02948 0.32453 0.07927 0.0
H683 H 0.04298 0.31884 0.04392 0.0
H684 H 0.03609 0.28646 0.06968 0.0
H685 H 0.15677 0.37378 0.09312 0.0
H686 H 0.13567 0.38576 0.06172 0.0
H687 H 0.12261 0.39187 0.09713 0.0
H688 H 0.06492 0.41387 0.99947 0.0
H689 H 0.03136 0.42751 0.08403 0.0
H690 H 0.08526 0.33831 0.01435 0.0
H691 H 0.11665 0.36166 0.02004 0.0
H692 H 0.09268 0.372 0.99039 0.0
H693 H 0.04522 0.35586 0.11751 0.0
H694 H 0.04127 0.39504 0.12511 0.0
H695 H 0.07664 0.37888 0.12396 0.0
C696 C 0.62926 0.19036 0.91132 0.0
C697 C 0.61525 0.2182 0.90773 0.0
C698 C 0.61512 0.1643 0.92471 0.0
C699 C 0.58638 0.1662 0.93499 0.0
C700 C 0.57218 0.19429 0.93157 0.0
C701 C 0.58675 0.21993 0.91786 0.0
C702 C 0.63089 0.13467 0.9277 0.0
C703 C 0.54165 0.19729 0.94252 0.0
C704 C 0.54144 0.0926 0.94622 0.0
C705 C 0.54466 0.08512 0.97608 0.0
C706 C 0.55464 0.11909 0.93261 0.0
C707 C 0.57122 0.13873 0.94931 0.0
C708 C 0.57397 0.1317 0.97958 0.0
C709 C 0.56079 0.1049 0.99257 0.0
C710 C 0.55138 0.12571 0.90025 0.0
C711 C 0.59122 0.15225 0.99816 0.0
H712 H 0.65117 0.18885 0.90323 0.0
H713 H 0.57596 0.24151 0.9154 0.0
H714 H 0.63239 0.12639 0.95093 0.0
H715 H 0.61861 0.11701 0.91659 0.0
H716 H 0.65311 0.13697 0.91839 0.0
H717 H 0.53374 0.2208 0.93833 0.0
H718 H 0.52676 0.18143 0.93194 0.0
H719 H 0.5406 0.19089 0.96621 0.0
H720 H 0.52912 0.07737 0.93329 0.0
H721 H 0.56331 0.09933 0.01568 0.0
H722 H 0.57296 0.1261 0.8896 0.0
H723 H 0.54218 0.14852 0.89542 0.0
H724 H 0.53721 0.10851 0.89049 0.0
H725 H 0.61423 0.1534 0.99113 0.0
H726 H 0.5902 0.14423 0.02155 0.0
H727 H 0.58307 0.17573 0.99544 0.0
C728 C 0.97831 0.78472 0.48641 0.0
C729 C 0.99462 0.7688 0.46724 0.0
C730 C 0.98706 0.81395 0.49347 0.0
C731 C 0.01249 0.82791 0.48071 0.0
C732 C 0.02982 0.81149 0.46249 0.0
C733 C 0.0208 0.78205 0.45615 0.0
C734 C 0.96813 0.83057 0.51331 0.0
C735 C 0.05702 0.82563 0.44838 0.0
C736 C 1.00803 0.9136 0.46953 0.0
C737 C 0.02402 0.92319 0.49301 0.0
C738 C 1.00544 0.88274 0.46448 0.0
C739 C 0.01878 0.86081 0.48369 0.0
C740 C 0.03603 0.87042 0.50674 0.0
C741 C 0.03864 0.90164 0.51102 0.0
C742 C 0.9873 0.87355 0.4393 0.0
C743 C 0.05037 0.84771 0.52781 0.0
H744 H 0.95792 0.77499 0.49491 0.0
H745 H 0.03393 0.76972 0.44186 0.0
H746 H 0.9814 0.84077 0.5302 0.0
H747 H 0.95741 0.84945 0.50057 0.0
H748 H 0.9511 0.81535 0.52416 0.0
H749 H 0.06983 0.80875 0.4376 0.0
H750 H 0.05114 0.84403 0.43184 0.0
H751 H 0.07087 0.83614 0.46464 0.0
H752 H 0.99691 0.93024 0.45539 0.0
H753 H 0.05091 0.909 0.52928 0.0
H754 H 0.96755 0.86077 0.44761 0.0
H755 H 0.99952 0.85824 0.42612 0.0
H756 H 0.98055 0.89351 0.42497 0.0
H757 H 0.03357 0.83511 0.54157 0.0
H758 H 0.06592 0.85888 0.54218 0.0
H759 H 0.06198 0.83071 0.51605 0.0
C760 C 0.44393 0.71829 0.55608 0.0
C761 C 0.46449 0.73384 0.57218 0.0
C762 C 0.44852 0.6886 0.54865 0.0
C763 C 0.47388 0.67375 0.55823 0.0
C764 C 0.49436 0.68889 0.57511 0.0
C765 C 0.48962 0.7189 0.58153 0.0
C766 C 0.42645 0.67332 0.53015 0.0
C767 C 0.52145 0.67351 0.58609 0.0
C768 C 0.47466 0.58771 0.55769 0.0
C769 C 0.49144 0.58445 0.53292 0.0
C770 C 0.46896 0.61673 0.56643 0.0
C771 C 0.47964 0.64287 0.54948 0.0
C772 C 0.49603 0.6396 0.52408 0.0
C773 C 0.50206 0.61039 0.51632 0.0
C774 C 0.45197 0.61942 0.59401 0.0
C775 C 0.50712 0.66695 0.50504 0.0
H776 H 0.4241 0.72925 0.54934 0.0
H777 H 0.50586 0.73076 0.59361 0.0
H778 H 0.43683 0.66728 0.50979 0.0
H779 H 0.41807 0.65182 0.54169 0.0
H780 H 0.40787 0.68805 0.52445 0.0
H781 H 0.53411 0.68758 0.60074 0.0
H782 H 0.51575 0.65125 0.59796 0.0
H783 H 0.53547 0.6689 0.56751 0.0
H784 H 0.46662 0.56759 0.57059 0.0
H785 H 0.5148 0.60783 0.49698 0.0
H786 H 0.4322 0.63258 0.58925 0.0
H787 H 0.46516 0.63208 0.60935 0.0
H788 H 0.44545 0.59684 0.60484 0.0
H789 H 0.48883 0.68153 0.49801 0.0
H790 H 0.51862 0.66041 0.48544 0.0
H791 H 0.52219 0.68095 0.51748 0.0
C792 C 0.89862 0.94355 0.70574 0.0
C793 C 0.90636 0.91529 0.71944 0.0
C794 C 0.9134 0.95654 0.68084 0.0
C795 C 0.93601 0.94062 0.66858 0.0
C796 C 0.94391 0.91212 0.6821 0.0
C797 C 0.92942 0.90012 0.70749 0.0
C798 C 0.90464 0.9873 0.66752 0.0
C799 C 0.96747 0.894 0.66951 0.0
C800 C 0.95328 0.95955 0.58826 0.0
C801 C 0.97923 0.97678 0.58922 0.0
C802 C 0.93924 0.94741 0.61383 0.0
C803 C 0.95091 0.95334 0.6412 0.0
C804 C 0.97693 0.97111 0.6423 0.0
C805 C 0.991 0.98221 0.61633 0.0
C806 C 0.91208 0.92789 0.61153 0.0
C807 C 0.98972 0.9787 0.67094 0.0
H808 H 0.88068 0.95551 0.71415 0.0
H809 H 0.93641 0.87876 0.718 0.0
H810 H 0.92385 1.003 0.66503 0.0
H811 H 0.89572 0.98501 0.64553 0.0
H812 H 0.88809 0.99776 0.68076 0.0
H813 H 0.97059 0.87184 0.68216 0.0
H814 H 0.96209 0.88957 0.64682 0.0
H815 H 0.98827 0.90724 0.66889 0.0
H816 H 0.94416 0.95506 0.56739 0.0
H817 H 0.01092 0.9957 0.61723 0.0
H818 H 0.89369 0.93838 0.62208 0.0
H819 H 0.91505 0.90515 0.6231 0.0
H820 H 0.90622 0.92474 0.58865 0.0
H821 H 0.97351 0.9903 0.68359 0.0
H822 H 1.00948 0.99362 0.66812 0.0
H823 H 0.99536 0.95749 0.68398 0.0
C824 C 0.56215 0.03214 0.28087 0.0
C825 C 0.5415 0.05166 0.2909 0.0
C826 C 0.56169 0.02384 0.25228 0.0
C827 C 0.54038 0.03576 0.23302 0.0
C828 C 0.51839 0.05387 0.24336 0.0
C829 C 0.51909 0.06144 0.27228 0.0
C830 C 0.58532 1.00411 0.24216 0.0
C831 C 0.49531 0.06701 0.22341 0.0
C832 C 0.56536 0.04973 0.15498 0.0
C833 C 0.5522 0.02516 0.14219 0.0
C834 C 0.56106 0.05376 0.18439 0.0
C835 C 0.54344 0.03244 0.2015 0.0
C836 C 0.52996 0.00761 0.1887 0.0
C837 C 0.53437 1.00437 0.15906 0.0
C838 C 0.57555 0.08077 0.19718 0.0
C839 C 0.51138 0.98422 0.20639 0.0
H840 H 0.57985 0.02473 0.29478 0.0
H841 H 0.5027 0.07601 0.27996 0.0
H842 H 0.57609 0.98602 0.22927 0.0
H843 H 0.60065 0.01824 0.2279 0.0
H844 H 0.59766 0.99323 0.26058 0.0
H845 H 0.47778 0.07734 0.2355 0.0
H846 H 0.50523 0.08488 0.2079 0.0
H847 H 0.48561 0.04919 0.21049 0.0
H848 H 0.57869 0.06612 0.14182 0.0
H849 H 0.52433 0.98526 0.14916 0.0
H850 H 0.59096 0.07277 0.2143 0.0
H851 H 0.55915 0.09433 0.20755 0.0
H852 H 0.58757 0.0959 0.18062 0.0
H853 H 0.52468 0.97235 0.22348 0.0
H854 H 0.50149 0.96696 0.19289 0.0
H855 H 0.49385 0.99552 0.21751 0.0
C856 C 0.41902 0.55636 0.30223 0.0
C857 C 0.39791 0.57847 0.30304 0.0
C858 C 0.432 0.54418 0.32784 0.0
C859 C 0.42421 0.55501 0.35475 0.0
C860 C 0.40262 0.57711 0.35566 0.0
C861 C 0.38947 0.58832 0.32978 0.0
C862 C 0.45445 0.52016 0.32604 0.0
C863 C 0.39419 0.58976 0.38379 0.0
C864 C 0.44348 0.5107 0.4258 0.0
C865 C 0.46947 0.52544 0.43295 0.0
C866 C 0.42871 0.5197 0.40014 0.0
C867 C 0.43983 0.54455 0.38168 0.0
C868 C 0.46592 0.55968 0.38901 0.0
C869 C 0.48061 0.54968 0.41435 0.0
C870 C 0.40133 0.50256 0.3927 0.0
C871 C 0.47815 0.58672 0.3703 0.0
H872 H 0.42538 0.54867 0.2815 0.0
H873 H 0.3733 0.60563 0.33029 0.0
H874 H 0.4759 0.52933 0.33241 0.0
H875 H 0.44896 0.50017 0.34141 0.0
H876 H 0.4563 0.51239 0.30385 0.0
H877 H 0.37641 0.60615 0.38092 0.0
H878 H 0.38723 0.57102 0.39998 0.0
H879 H 0.41324 0.60152 0.39293 0.0
H880 H 0.43488 0.49186 0.4401 0.0
H881 H 0.50054 0.56135 0.41995 0.0
H882 H 0.40361 0.4937 0.37103 0.0
H883 H 0.38286 0.51814 0.39149 0.0
H884 H 0.39604 0.48318 0.40888 0.0
H885 H 0.48301 0.57997 0.34824 0.0
H886 H 0.49827 0.59642 0.37945 0.0
H887 H 0.46191 0.60481 0.36792 0.0
C888 C 0.0512 0.42792 0.75588 0.0
C889 C 0.04656 0.44908 0.73219 0.0
C890 C 0.05048 0.43662 0.78438 0.0
C891 C 0.04476 0.46717 0.78931 0.0
C892 C 0.03891 0.48837 0.76556 0.0
C893 C 0.04006 0.47911 0.73722 0.0
C894 C 0.05707 0.41339 0.80911 0.0
C895 C 0.03231 0.52103 0.77002 0.0
C896 C 0.02544 0.48146 0.86686 0.0
C897 C 0.0523 0.49115 0.87755 0.0
C898 C 0.02236 0.4746 0.83787 0.0
C899 C 0.04677 0.47721 0.8192 0.0
C900 C 0.07371 0.48781 0.82958 0.0
C901 C 0.07608 0.49481 0.85855 0.0
C902 C 0.99322 0.4636 0.82751 0.0
C903 C 0.10029 0.49084 0.81035 0.0
H904 H 0.05662 0.40479 0.75207 0.0
H905 H 0.03621 0.49544 0.71894 0.0
H906 H 0.07741 0.42022 0.81988 0.0
H907 H 0.03957 0.41241 0.82565 0.0
H908 H 0.05957 0.39022 0.80174 0.0
H909 H 0.02593 0.53398 0.74954 0.0
H910 H 0.01461 0.52192 0.78617 0.0
H911 H 0.05167 0.53254 0.7788 0.0
H912 H 1.00696 0.47819 0.88133 0.0
H913 H 0.09675 0.50282 0.86642 0.0
H914 H 0.99442 0.43949 0.82241 0.0
H915 H 0.98708 0.47704 0.80726 0.0
H916 H 0.97589 0.46525 0.84398 0.0
H917 H 0.10584 0.46816 0.80347 0.0
H918 H 0.11934 0.50048 0.82143 0.0
H919 H 0.09592 0.50567 0.79041 0.0
C920 C 0.70699 0.94076 0.91293 0.0
C921 C 0.71207 0.90936 0.91472 0.0
C922 C 0.68192 0.95225 0.92507 0.0
C923 C 0.66126 0.93196 0.93956 0.0
C924 C 0.66618 0.90027 0.9414 0.0
C925 C 0.69137 0.8894 0.92896 0.0
C926 C 0.67763 0.98619 0.92256 0.0
C927 C 0.64478 0.87778 0.95655 0.0
C928 C 0.61016 0.96326 0.99449 0.0
C929 C 0.58452 0.96696 0.97851 0.0
C930 C 0.63514 0.95181 0.98216 0.0
C931 C 0.63468 0.9439 0.95303 0.0
C932 C 0.60883 0.94749 0.9368 0.0
C933 C 0.58414 0.95889 0.94971 0.0
C934 C 0.66211 0.94829 1.00033 0.0
C935 C 0.6073 0.9395 0.90568 0.0
H936 H 0.72287 0.95653 0.90238 0.0
H937 H 0.69465 0.86509 0.93013 0.0
H938 H 0.6568 0.99137 0.91164 0.0
H939 H 0.67648 0.9946 0.9445 0.0
H940 H 0.69537 0.99891 0.91017 0.0
H941 H 0.65172 0.85388 0.95619 0.0
H942 H 0.64202 0.88297 0.97946 0.0
H943 H 0.62329 0.87979 0.94605 0.0
H944 H 0.61079 0.96942 0.01672 0.0
H945 H 0.56455 0.96172 0.93706 0.0
H946 H 0.68017 0.96233 0.98994 0.0
H947 H 0.66879 0.92424 1.0017 0.0
H948 H 0.65893 0.95519 0.02268 0.0
H949 H 0.6235 0.95351 0.89236 0.0
H950 H 0.58553 0.94324 0.89611 0.0
H951 H 0.61271 0.9153 0.90431 0.0
C952 C 0.75539 0.05458 0.43126 0.0
C953 C 0.74528 0.08355 0.43575 0.0
C954 C 0.78451 0.04769 0.43563 0.0
C955 C 0.80393 0.07012 0.44527 0.0
C956 C 0.79409 0.09955 0.44941 0.0
C957 C 0.76489 0.106 0.44439 0.0
C958 C 0.79428 0.01604 0.43079 0.0
C959 C 0.81418 0.1239 0.45996 0.0
C960 C 0.86606 0.03505 0.48727 0.0
C961 C 0.88778 0.03643 0.46608 0.0
C962 C 0.83917 0.04781 0.4813 0.0
C963 C 0.83385 0.06168 0.45323 0.0
C964 C 0.85632 0.06443 0.43216 0.0
C965 C 0.88327 0.05185 0.43898 0.0
C966 C 0.81597 0.04488 0.50453 0.0
C967 C 0.85132 0.07884 0.40194 0.0
H968 H 0.74038 0.03696 0.42498 0.0
H969 H 0.75741 0.12863 0.44736 0.0
H970 H 0.8136 0.01732 0.41639 0.0
H971 H 0.8006 1.00418 0.4518 0.0
H972 H 0.77708 1.0021 0.42097 0.0
H973 H 0.80361 0.14621 0.46025 0.0
H974 H 0.82152 0.11685 0.48225 0.0
H975 H 0.83376 0.12685 0.44597 0.0
H976 H 0.86998 0.0231 0.50824 0.0
H977 H 0.9003 0.05258 0.42274 0.0
H978 H 0.79866 0.02864 0.49842 0.0
H979 H 0.80585 0.06714 0.50656 0.0
H980 H 0.82462 0.03656 0.52602 0.0
H981 H 0.8366 0.06381 0.39016 0.0
H982 H 0.87183 0.08253 0.38938 0.0
H983 H 0.84067 0.10098 0.40278 0.0
C984 C 0.18605 0.62341 0.10055 0.0
C985 C 0.20562 0.60288 0.11376 0.0
C986 C 0.1608 0.61302 0.08715 0.0
C987 C 0.1549 0.58133 0.08701 0.0
C988 C 0.17437 0.56049 0.10057 0.0
C989 C 0.19949 0.5715 0.11372 0.0
C990 C 0.14054 0.63595 0.07295 0.0
C991 C 0.16884 0.52652 0.10089 0.0
C992 C 0.07815 0.55219 0.07399 0.0
C993 C 0.07955 0.54553 0.04484 0.0
C994 C 0.10236 0.56426 0.08788 0.0
C995 C 0.12862 0.56988 0.07225 0.0
C996 C 0.13001 0.56379 0.04267 0.0
C997 C 0.10549 0.55167 0.02933 0.0
C998 C 0.09999 0.57045 0.11945 0.0
C999 C 0.15759 0.56958 0.02523 0.0
H1000 H 0.19039 0.64768 0.10084 0.0
H1001 H 0.21467 0.55546 0.12348 0.0
H1002 H 0.13852 0.63253 0.04952 0.0
H1003 H 0.1186 0.63256 0.08268 0.0
H1004 H 0.14809 0.6598 0.07522 0.0
H1005 H 0.18572 0.51337 0.11299 0.0
H1006 H 0.14745 0.52022 0.11096 0.0
H1007 H 0.16817 0.51963 0.07833 0.0
H1008 H 0.0582 0.54755 0.08616 0.0
H1009 H 0.10678 0.54661 1.0068 0.0
H1010 H 0.10598 0.5946 0.12221 0.0
H1011 H 0.11539 0.55622 0.1325 0.0
H1012 H 0.07782 0.56557 0.1283 0.0
H1013 H 0.16502 0.59368 0.02587 0.0
H1014 H 0.15483 0.56459 1.0022 0.0
H1015 H 0.17495 0.5552 0.03489 0.0
C1016 C 0.24353 0.45495 0.57315 0.0
C1017 C 0.22629 0.44763 0.54962 0.0
C1018 C 0.27358 0.45939 0.57013 0.0
C1019 C 0.28679 0.45649 0.54287 0.0
C1020 C 0.26944 0.45014 0.51875 0.0
C1021 C 0.23937 0.44563 0.52245 0.0
C1022 C 0.29132 0.46586 0.59645 0.0
C1023 C 0.28275 0.44717 0.48929 0.0
C1024 C 0.36455 0.48673 0.53448 0.0
C1025 C 0.3801 0.46017 0.54095 0.0
C1026 C 0.33412 0.48582 0.53408 0.0
C1027 C 0.31892 0.4577 0.54041 0.0
C1028 C 0.3345 0.43073 0.54619 0.0
C1029 C 0.36483 0.43229 0.5463 0.0
C1030 C 0.31823 0.51504 0.52771 0.0
C1031 C 0.31912 0.40026 0.553 0.0
H1032 H 0.23366 0.45606 0.59432 0.0
H1033 H 0.22611 0.44025 0.50414 0.0
H1034 H 0.3056 0.4465 0.60221 0.0
H1035 H 0.30547 0.48641 0.59164 0.0
H1036 H 0.27757 0.4694 0.61558 0.0
H1037 H 0.2661 0.44486 0.47225 0.0
H1038 H 0.297 0.4673 0.48292 0.0
H1039 H 0.29644 0.42685 0.49019 0.0
H1040 H 0.37613 0.50838 0.53048 0.0
H1041 H 0.37661 0.41155 0.55062 0.0
H1042 H 0.30623 0.52053 0.54735 0.0
H1043 H 0.30206 0.51234 0.51034 0.0
H1044 H 0.33314 0.53455 0.5209 0.0
H1045 H 0.30616 0.40075 0.57319 0.0
H1046 H 0.33442 0.38127 0.5559 0.0
H1047 H 0.30388 0.39548 0.53533 0.0
C1048 C 0.92307 0.71643 0.9392 0.0
C1049 C 0.90429 0.71384 0.91568 0.0
C1050 C 0.9379 0.69108 0.95146 0.0
C1051 C 0.93338 0.66224 0.94039 0.0
C1052 C 0.91409 0.65945 0.9169 0.0
C1053 C 0.90006 0.68531 0.90464 0.0
C1054 C 0.95868 0.69525 0.97606 0.0
C1055 C 0.9081 0.62907 0.90481 0.0
C1056 C 0.98887 0.60003 0.95361 0.0
C1057 C 0.97671 0.58226 0.97737 0.0
C1058 C 0.97535 0.62643 0.94176 0.0
C1059 C 0.94864 0.63493 0.95347 0.0
C1060 C 0.93626 0.617 0.97742 0.0
C1061 C 0.95057 0.59115 0.98925 0.0
C1062 C 0.98963 0.64519 0.91665 0.0
C1063 C 0.90756 0.62478 0.99022 0.0
H1064 H 0.92664 0.7385 0.9476 0.0
H1065 H 0.88541 0.68316 0.8866 0.0
H1066 H 0.95165 0.68063 0.99559 0.0
H1067 H 0.98056 0.68802 0.97004 0.0
H1068 H 0.96028 0.71925 0.98177 0.0
H1069 H 0.89201 0.63056 0.88698 0.0
H1070 H 0.92844 0.62017 0.89644 0.0
H1071 H 0.89986 0.61229 0.92229 0.0
H1072 H 1.0091 0.59341 0.94436 0.0
H1073 H 0.94087 0.57743 1.00744 0.0
H1074 H 0.99273 0.66915 0.92206 0.0
H1075 H 0.97546 0.64537 0.89731 0.0
H1076 H 0.01098 0.63633 0.91088 0.0
H1077 H 0.90887 0.64801 0.99785 0.0
H1078 H 0.90075 0.60847 1.00871 0.0
H1079 H 0.89056 0.62479 0.97331 0.0
C1080 C 0.44406 0.7859 0.10147 0.0
C1081 C 0.41517 0.7865 0.11073 0.0
C1082 C 0.45855 0.81244 0.08947 0.0
C1083 C 0.44385 0.84028 0.08691 0.0
C1084 C 0.41478 0.84107 0.09655 0.0
C1085 C 0.40076 0.81416 0.10823 0.0
C1086 C 0.48945 0.81063 0.07917 0.0
C1087 C 0.39843 0.87035 0.09443 0.0
C1088 C 0.48696 0.91532 0.0781 0.0
C1089 C 0.48396 0.92346 0.04832 0.0
C1090 C 0.47432 0.88812 0.09093 0.0
C1091 C 0.45855 0.86848 0.07351 0.0
C1092 C 0.45602 0.87625 0.04334 0.0
C1093 C 0.46863 0.9037 0.03115 0.0
C1094 C 0.4773 0.88071 0.12321 0.0
C1095 C 0.43961 0.8558 0.02399 0.0
H1096 H 0.4552 0.76451 0.10313 0.0
H1097 H 0.37856 0.81481 0.11574 0.0
H1098 H 0.49086 0.81748 0.05558 0.0
H1099 H 0.5036 0.82673 0.09033 0.0
H1100 H 0.49797 0.78736 0.08316 0.0
H1101 H 0.37619 0.86726 0.10359 0.0
H1102 H 0.41028 0.88784 0.10614 0.0
H1103 H 0.39689 0.87933 0.07139 0.0
H1104 H 0.49869 0.93051 0.09153 0.0
H1105 H 0.4663 0.90974 1.0081 0.0
H1106 H 0.48701 0.85809 0.1276 0.0
H1107 H 0.45558 0.87945 0.13362 0.0
H1108 H 0.4909 0.89796 0.13357 0.0
H1109 H 0.4484 0.83256 0.02622 0.0
H1110 H 0.44073 0.86448 1.00078 0.0
H1111 H 0.41653 0.85376 0.03074 0.0
C1112 C 1.00506 0.23842 0.56554 0.0
C1113 C 0.03042 0.25289 0.55371 0.0
C1114 C 0.99791 0.20803 0.56077 0.0
C1115 C 0.01619 0.19187 0.54324 0.0
C1116 C 0.04097 0.20675 0.53001 0.0
C1117 C 0.04795 0.23689 0.53566 0.0
C1118 C 0.97147 0.19284 0.57551 0.0
C1119 C 0.06083 0.19043 0.51081 0.0
C1120 C 0.02327 0.10639 0.5552 0.0
C1121 C 1.00709 0.09605 0.53217 0.0
C1122 C 0.02513 0.1374 0.55988 0.0
C1123 C 0.01102 0.15871 0.54063 0.0
C1124 C 0.99383 0.14831 0.51787 0.0
C1125 C 0.9918 0.11696 0.5141 0.0
C1126 C 0.04312 0.14745 0.58481 0.0
C1127 C 0.97888 0.17035 0.49661 0.0
H1128 H 0.99096 0.25068 0.57898 0.0
H1129 H 0.06781 0.24748 0.5267 0.0
H1130 H 0.95761 0.18196 0.5595 0.0
H1131 H 0.97828 0.17454 0.59175 0.0
H1132 H 0.95834 0.20912 0.58672 0.0
H1133 H 0.07741 0.20608 0.49977 0.0
H1134 H 0.07211 0.17231 0.52404 0.0
H1135 H 0.04814 0.17926 0.49408 0.0
H1136 H 0.03494 0.0902 0.56933 0.0
H1137 H 0.97946 0.10901 0.49614 0.0
H1138 H 0.03056 0.16262 0.59784 0.0
H1139 H 0.06254 0.16064 0.57626 0.0
H1140 H 0.0504 0.12787 0.59934 0.0
H1141 H 0.96619 0.18659 0.50825 0.0
H1142 H 0.9642 0.15854 0.48188 0.0
H1143 H 0.99539 0.18391 0.48326 0.0
C1144 C 0.56594 0.28112 0.47408 0.0
C1145 C 0.56125 0.27157 0.44621 0.0
C1146 C 0.56067 0.31107 0.48026 0.0
C1147 C 0.55027 0.33189 0.45809 0.0
C1148 C 0.54544 0.32244 0.42993 0.0
C1149 C 0.55104 0.29235 0.4243 0.0
C1150 C 0.56601 0.32036 0.51059 0.0
C1151 C 0.53426 0.34406 0.40581 0.0
C1152 C 0.50981 0.39851 0.48316 0.0
C1153 C 0.5311 0.42192 0.48055 0.0
C1154 C 0.51562 0.36927 0.4753 0.0
C1155 C 0.54346 0.36324 0.46478 0.0
C1156 C 0.56496 0.38684 0.46167 0.0
C1157 C 0.55848 0.41601 0.46952 0.0
C1158 C 0.49208 0.34471 0.47871 0.0
C1159 C 0.59494 0.3811 0.45065 0.0
H1160 H 0.57348 0.26504 0.49117 0.0
H1161 H 0.5478 0.28521 0.40262 0.0
H1162 H 0.58126 0.34032 0.5099 0.0
H1163 H 0.54544 0.32731 0.52021 0.0
H1164 H 0.57507 0.30169 0.52507 0.0
H1165 H 0.53203 0.33322 0.38501 0.0
H1166 H 0.51282 0.35236 0.41193 0.0
H1167 H 0.54911 0.36426 0.40236 0.0
H1168 H 0.48852 0.40296 0.49149 0.0
H1169 H 0.57502 0.43401 0.46749 0.0
H1170 H 0.49886 0.32617 0.49468 0.0
H1171 H 0.48845 0.33455 0.45778 0.0
H1172 H 0.47124 0.35347 0.48613 0.0
H1173 H 0.60554 0.36402 0.46573 0.0
H1174 H 0.60885 0.40215 0.4485 0.0
H1175 H 0.59361 0.37152 0.4292 0.0
loop_
_geom_bond_atom_site_label_1
_geom_bond_atom_site_label_2
_geom_bond_distance
_geom_bond_site_symmetry_2
_ccdc_geom_bond_type
C0 C1 1.384 . S
C0 H13 0.947 . S
C0 C35 1.382 . S
C1 C0 1.384 . S
C1 C2 1.378 . S
C2 C1 1.378 . S
C2 C3 1.378 . S
C2 H14 0.952 . S
C3 C2 1.378 . S
C3 H15 0.950 . S
C3 C34 1.383 . S
H4 C23 0.947 . S
H5 C24 0.946 . S
H6 C26 0.953 . S
H7 C27 0.945 . S
H8 C29 0.952 . S
H9 C30 0.949 . S
H10 C32 0.950 . S
H11 C33 0.948 . S
H12 C35 0.951 . S
H13 C0 0.947 . S
H14 C2 0.952 . S
H15 C3 0.950 . S
N16 C19 1.382 . S
N16 C21 1.363 . S
N17 C19 1.371 . S
N17 C20 1.372 . S
N18 C20 1.361 . S
N18 C21 1.377 . S
C19 N16 1.382 . S
C19 N17 1.371 . S
C19 C22 1.480 . S
C20 N17 1.372 . S
C20 N18 1.361 . S
C20 C28 1.457 . S
C21 N16 1.363 . S
C21 N18 1.377 . S
C21 C34 1.479 . S
C22 C19 1.480 . S
C22 C23 1.383 . S
C22 C27 1.385 . S
C23 H4 0.947 . S
C23 C22 1.383 . S
C23 C24 1.388 . S
C24 H5 0.946 . S
C24 C23 1.388 . S
C24 C25 1.384 . S
C25 C24 1.384 . S
C25 C26 1.377 . S
C26 H6 0.953 . S
C26 C25 1.377 . S
C26 C27 1.369 . S
C27 H7 0.945 . S
C27 C22 1.385 . S
C27 C26 1.369 . S
C28 C20 1.457 . S
C28 C29 1.372 . S
C28 C33 1.364 . S
C29 H8 0.952 . S
C29 C28 1.372 . S
C29 C30 1.389 . S
C30 H9 0.949 . S
C30 C29 1.389 . S
C30 C31 1.387 . S
C31 C30 1.387 . S
C31 C32 1.372 . S
C32 H10 0.950 . S
C32 C31 1.372 . S
C32 C33 1.379 . S
C33 H11 0.948 . S
C33 C28 1.364 . S
C33 C32 1.379 . S
C34 C3 1.383 . S
C34 C21 1.479 . S
C34 C35 1.398 . S
C35 C0 1.382 . S
C35 H12 0.951 . S
C35 C34 1.398 . S
C36 C37 1.384 . S
C36 H49 0.947 . S
C36 C71 1.382 . S
C37 C36 1.384 . S
C37 C38 1.378 . S
C38 C37 1.378 . S
C38 C39 1.378 . S
C38 H50 0.952 . S
C39 C38 1.378 . S
C39 H51 0.950 . S
C39 C70 1.383 . S
H40 C59 0.947 . S
H41 C60 0.946 . S
H42 C62 0.953 . S
H43 C63 0.945 . S
H44 C65 0.952 . S
H45 C66 0.949 . S
H46 C68 0.950 . S
H47 C69 0.948 . S
H48 C71 0.951 . S
H49 C36 0.947 . S
H50 C38 0.952 . S
H51 C39 0.950 . S
N52 C55 1.382 . S
N52 C57 1.363 . S
N53 C55 1.371 . S
N53 C56 1.372 . S
N54 C56 1.361 . S
N54 C57 1.377 . S
C55 N52 1.382 . S
C55 N53 1.371 . S
C55 C58 1.480 . S
C56 N53 1.372 . S
C56 N54 1.361 . S
C56 C64 1.457 . S
C57 N52 1.363 . S
C57 N54 1.377 . S
C57 C70 1.479 . S
C58 C55 1.480 . S
C58 C59 1.383 . S
C58 C63 1.385 . S
C59 H40 0.947 . S
C59 C58 1.383 . S
C59 C60 1.388 . S
C60 H41 0.946 . S
C60 C59 1.388 . S
C60 C61 1.384 . S
C61 C60 1.384 . S
C61 C62 1.377 . S
C62 H42 0.953 . S
C62 C61 1.377 . S
C62 C63 1.369 . S
C63 H43 0.945 . S
C63 C58 1.385 . S
C63 C62 1.369 . S
C64 C56 1.457 . S
C64 C65 1.372 . S
C64 C69 1.364 . S
C65 H44 0.952 . S
C65 C64 1.372 . S
C65 C66 1.389 . S
C66 H45 0.949 . S
C66 C65 1.389 . S
C66 C67 1.387 . S
C67 C66 1.387 . S
C67 C68 1.372 . S
C68 H46 0.950 . S
C68 C67 1.372 . S
C68 C69 1.379 . S
C69 H47 0.948 . S
C69 C64 1.364 . S
C69 C68 1.379 . S
C70 C39 1.383 . S
C70 C57 1.479 . S
C70 C71 1.398 . S
C71 C36 1.382 . S
C71 H48 0.951 . S
C71 C70 1.398 . S
C72 C73 1.384 . S
C72 H85 0.947 . S
C72 C107 1.382 . S
C73 C72 1.384 . S
C73 C74 1.378 . S
C74 C73 1.378 . S
C74 C75 1.378 . S
C74 H86 0.952 . S
C75 C74 1.378 . S
C75 H87 0.950 . S
C75 C106 1.383 . S
H76 C95 0.947 . S
H77 C96 0.946 . S
H78 C98 0.953 . S
H79 C99 0.945 . S
H80 C101 0.952 . S
H81 C102 0.949 . S
H82 C104 0.950 . S
H83 C105 0.948 . S
H84 C107 0.951 . S
H85 C72 0.947 . S
H86 C74 0.952 . S
H87 C75 0.950 . S
N88 C91 1.382 . S
N88 C93 1.363 . S
N89 C91 1.371 . S
N89 C92 1.372 . S
N90 C92 1.361 . S
N90 C93 1.377 . S
C91 N88 1.382 . S
C91 N89 1.371 . S
C91 C94 1.480 . S
C92 N89 1.372 . S
C92 N90 1.361 . S
C92 C100 1.457 . S
C93 N88 1.363 . S
C93 N90 1.377 . S
C93 C106 1.479 . S
C94 C91 1.480 . S
C94 C95 1.383 . S
C94 C99 1.385 . S
C95 H76 0.947 . S
C95 C94 1.383 . S
C95 C96 1.388 . S
C96 H77 0.946 . S
C96 C95 1.388 . S
C96 C97 1.384 . S
C97 C96 1.384 . S
C97 C98 1.377 . S
C98 H78 0.953 . S
C98 C97 1.377 . S
C98 C99 1.369 . S
C99 H79 0.945 . S
C99 C94 1.385 . S
C99 C98 1.369 . S
C100 C92 1.457 . S
C100 C101 1.372 . S
C100 C105 1.364 . S
C101 H80 0.952 . S
C101 C100 1.372 . S
C101 C102 1.389 . S
C102 H81 0.949 . S
C102 C101 1.389 . S
C102 C103 1.387 . S
C103 C102 1.387 . S
C103 C104 1.372 . S
C104 H82 0.950 . S
C104 C103 1.372 . S
C104 C105 1.379 . S
C105 H83 0.948 . S
C105 C100 1.364 . S
C105 C104 1.379 . S
C106 C75 1.383 . S
C106 C93 1.479 . S
C106 C107 1.398 . S
C107 C72 1.382 . S
C107 H84 0.951 . S
C107 C106 1.398 . S
C108 C109 1.384 . S
C108 H121 0.947 . S
C108 C143 1.382 . S
C109 C108 1.384 . S
C109 C110 1.378 . S
C110 C109 1.378 . S
C110 C111 1.378 . S
C110 H122 0.952 . S
C111 C110 1.378 . S
C111 H123 0.950 . S
C111 C142 1.383 . S
H112 C131 0.947 . S
H113 C132 0.946 . S
H114 C134 0.953 . S
H115 C135 0.945 . S
H116 C137 0.952 . S
H117 C138 0.949 . S
H118 C140 0.950 . S
H119 C141 0.948 . S
H120 C143 0.951 . S
H121 C108 0.947 . S
H122 C110 0.952 . S
H123 C111 0.950 . S
N124 C127 1.382 . S
N124 C129 1.363 . S
N125 C127 1.371 . S
N125 C128 1.372 . S
N126 C128 1.361 . S
N126 C129 1.377 . S
C127 N124 1.382 . S
C127 N125 1.371 . S
C127 C130 1.480 . S
C128 N125 1.372 . S
C128 N126 1.361 . S
C128 C136 1.457 . S
C129 N124 1.363 . S
C129 N126 1.377 . S
C129 C142 1.479 . S
C130 C127 1.480 . S
C130 C131 1.383 . S
C130 C135 1.385 . S
C131 H112 0.947 . S
C131 C130 1.383 . S
C131 C132 1.388 . S
C132 H113 0.946 . S
C132 C131 1.388 . S
C132 C133 1.384 . S
C133 C132 1.384 . S
C133 C134 1.377 . S
C134 H114 0.953 . S
C134 C133 1.377 . S
C134 C135 1.369 . S
C135 H115 0.945 . S
C135 C130 1.385 . S
C135 C134 1.369 . S
C136 C128 1.457 . S
C136 C137 1.372 . S
C136 C141 1.364 . S
C137 H116 0.952 . S
C137 C136 1.372 . S
C137 C138 1.389 . S
C138 H117 0.949 . S
C138 C137 1.389 . S
C138 C139 1.387 . S
C139 C138 1.387 . S
C139 C140 1.372 . S
C140 H118 0.950 . S
C140 C139 1.372 . S
C140 C141 1.379 . S
C141 H119 0.948 . S
C141 C136 1.364 . S
C141 C140 1.379 . S
C142 C111 1.383 . S
C142 C129 1.479 . S
C142 C143 1.398 . S
C143 C108 1.382 . S
C143 H120 0.951 . S
C143 C142 1.398 . S
C144 C145 1.384 . S
C144 H157 0.947 . S
C144 C179 1.382 . S
C145 C144 1.384 . S
C145 C146 1.378 . S
C146 C145 1.378 . S
C146 C147 1.378 . S
C146 H158 0.952 . S
C147 C146 1.378 . S
C147 H159 0.950 . S
C147 C178 1.383 . S
H148 C167 0.947 . S
H149 C168 0.946 . S
H150 C170 0.953 . S
H151 C171 0.945 . S
H152 C173 0.952 . S
H153 C174 0.949 . S
H154 C176 0.950 . S
H155 C177 0.948 . S
H156 C179 0.951 . S
H157 C144 0.947 . S
H158 C146 0.952 . S
H159 C147 0.950 . S
N160 C163 1.382 . S
N160 C165 1.363 . S
N161 C163 1.371 . S
N161 C164 1.372 . S
N162 C164 1.361 . S
N162 C165 1.377 . S
C163 N160 1.382 . S
C163 N161 1.371 . S
C163 C166 1.480 . S
C164 N161 1.372 . S
C164 N162 1.361 . S
C164 C172 1.457 . S
C165 N160 1.363 . S
C165 N162 1.377 . S
C165 C178 1.479 . S
C166 C163 1.480 . S
C166 C167 1.383 . S
C166 C171 1.385 . S
C167 H148 0.947 . S
C167 C166 1.383 . S
C167 C168 1.388 . S
C168 H149 0.946 . S
C168 C167 1.388 . S
C168 C169 1.384 . S
C169 C168 1.384 . S
C169 C170 1.377 . S
C170 H150 0.953 . S
C170 C169 1.377 . S
C170 C171 1.369 . S
C171 H151 0.945 . S
C171 C166 1.385 . S
C171 C170 1.369 . S
C172 C164 1.457 . S
C172 C173 1.372 . S
C172 C177 1.364 . S
C173 H152 0.952 . S
C173 C172 1.372 . S
C173 C174 1.389 . S
C174 H153 0.949 . S
C174 C173 1.389 . S
C174 C175 1.387 . S
C175 C174 1.387 . S
C175 C176 1.372 . S
C176 H154 0.950 . S
C176 C175 1.372 . S
C176 C177 1.379 . S
C177 H155 0.948 . S
C177 C172 1.364 . S
C177 C176 1.379 . S
C178 C147 1.383 . S
C178 C165 1.479 . S
C178 C179 1.398 . S
C179 C144 1.382 . S
C179 H156 0.951 . S
C179 C178 1.398 . S
C180 C181 1.384 . S
C180 H193 0.947 . S
C180 C215 1.382 . S
C181 C180 1.384 . S
C181 C182 1.378 . S
C182 C181 1.378 . S
C182 C183 1.378 . S
C182 H194 0.952 . S
C183 C182 1.378 . S
C183 H195 0.950 . S
C183 C214 1.383 . S
H184 C203 0.947 . S
H185 C204 0.946 . S
H186 C206 0.953 . S
H187 C207 0.945 . S
H188 C209 0.952 . S
H189 C210 0.949 . S
H190 C212 0.950 . S
H191 C213 0.948 . S
H192 C215 0.951 . S
H193 C180 0.947 . S
H194 C182 0.952 . S
H195 C183 0.950 . S
N196 C199 1.382 . S
N196 C201 1.363 . S
N197 C199 1.371 . S
N197 C200 1.372 . S
N198 C200 1.361 . S
N198 C201 1.377 . S
C199 N196 1.382 . S
C199 N197 1.371 . S
C199 C202 1.480 . S
C200 N197 1.372 . S
C200 N198 1.361 . S
C200 C208 1.457 . S
C201 N196 1.363 . S
C201 N198 1.377 . S
C201 C214 1.479 . S
C202 C199 1.480 . S
C202 C203 1.383 . S
C202 C207 1.385 . S
C203 H184 0.947 . S
C203 C202 1.383 . S
C203 C204 1.388 . S
C204 H185 0.946 . S
C204 C203 1.388 . S
C204 C205 1.384 . S
C205 C204 1.384 . S
C205 C206 1.377 . S
C206 H186 0.953 . S
C206 C205 1.377 . S
C206 C207 1.369 . S
C207 H187 0.945 . S
C207 C202 1.385 . S
C207 C206 1.369 . S
C208 C200 1.457 . S
C208 C209 1.372 . S
C208 C213 1.364 . S
C209 H188 0.952 . S
C209 C208 1.372 . S
C209 C210 1.389 . S
C210 H189 0.949 . S
C210 C209 1.389 . S
C210 C211 1.387 . S
C211 C210 1.387 . S
C211 C212 1.372 . S
C212 H190 0.950 . S
C212 C211 1.372 . S
C212 C213 1.379 . S
C213 H191 0.948 . S
C213 C208 1.364 . S
C213 C212 1.379 . S
C214 C183 1.383 . S
C214 C201 1.479 . S
C214 C215 1.398 . S
C215 C180 1.382 . S
C215 H192 0.951 . S
C215 C214 1.398 . S
C216 C217 1.384 . S
C216 H229 0.947 . S
C216 C251 1.382 . S
C217 C216 1.384 . S
C217 C218 1.378 . S
C218 C217 1.378 . S
C218 C219 1.378 . S
C218 H230 0.952 . S
C219 C218 1.378 . S
C219 H231 0.950 . S
C219 C250 1.383 . S
H220 C239 0.947 . S
H221 C240 0.946 . S
H222 C242 0.953 . S
H223 C243 0.945 . S
H224 C245 0.952 . S
H225 C246 0.949 . S
H226 C248 0.950 . S
H227 C249 0.948 . S
H228 C251 0.951 . S
H229 C216 0.947 . S
H230 C218 0.952 . S
H231 C219 0.950 . S
N232 C235 1.382 . S
N232 C237 1.363 . S
N233 C235 1.371 . S
N233 C236 1.372 . S
N234 C236 1.361 . S
N234 C237 1.377 . S
C235 N232 1.382 . S
C235 N233 1.371 . S
C235 C238 1.480 . S
C236 N233 1.372 . S
C236 N234 1.361 . S
C236 C244 1.457 . S
C237 N232 1.363 . S
C237 N234 1.377 . S
C237 C250 1.479 . S
C238 C235 1.480 . S
C238 C239 1.383 . S
C238 C243 1.385 . S
C239 H220 0.947 . S
C239 C238 1.383 . S
C239 C240 1.388 . S
C240 H221 0.946 . S
C240 C239 1.388 . S
C240 C241 1.384 . S
C241 C240 1.384 . S
C241 C242 1.377 . S
C242 H222 0.953 . S
C242 C241 1.377 . S
C242 C243 1.369 . S
C243 H223 0.945 . S
C243 C238 1.385 . S
C243 C242 1.369 . S
C244 C236 1.457 . S
C244 C245 1.372 . S
C244 C249 1.364 . S
C245 H224 0.952 . S
C245 C244 1.372 . S
C245 C246 1.389 . S
C246 H225 0.949 . S
C246 C245 1.389 . S
C246 C247 1.387 . S
C247 C246 1.387 . S
C247 C248 1.372 . S
C248 H226 0.950 . S
C248 C247 1.372 . S
C248 C249 1.379 . S
C249 H227 0.948 . S
C249 C244 1.364 . S
C249 C248 1.379 . S
C250 C219 1.383 . S
C250 C237 1.479 . S
C250 C251 1.398 . S
C251 C216 1.382 . S
C251 H228 0.951 . S
C251 C250 1.398 . S
C252 C253 1.384 . S
C252 H265 0.947 . S
C252 C287 1.382 . S
C253 C252 1.384 . S
C253 C254 1.378 . S
C254 C253 1.378 . S
C254 C255 1.378 . S
C254 H266 0.952 . S
C255 C254 1.378 . S
C255 H267 0.950 . S
C255 C286 1.383 . S
H256 C275 0.947 . S
H257 C276 0.946 . S
H258 C278 0.953 . S
H259 C279 0.945 . S
H260 C281 0.952 . S
H261 C282 0.949 . S
H262 C284 0.950 . S
H263 C285 0.948 . S
H264 C287 0.951 . S
H265 C252 0.947 . S
H266 C254 0.952 . S
H267 C255 0.950 . S
N268 C271 1.382 . S
N268 C273 1.363 . S
N269 C271 1.371 . S
N269 C272 1.372 . S
N270 C272 1.361 . S
N270 C273 1.377 . S
C271 N268 1.382 . S
C271 N269 1.371 . S
C271 C274 1.480 . S
C272 N269 1.372 . S
C272 N270 1.361 . S
C272 C280 1.457 . S
C273 N268 1.363 . S
C273 N270 1.377 . S
C273 C286 1.479 . S
C274 C271 1.480 . S
C274 C275 1.383 . S
C274 C279 1.385 . S
C275 H256 0.947 . S
C275 C274 1.383 . S
C275 C276 1.388 . S
C276 H257 0.946 . S
C276 C275 1.388 . S
C276 C277 1.384 . S
C277 C276 1.384 . S
C277 C278 1.377 . S
C278 H258 0.953 . S
C278 C277 1.377 . S
C278 C279 1.369 . S
C279 H259 0.945 . S
C279 C274 1.385 . S
C279 C278 1.369 . S
C280 C272 1.457 . S
C280 C281 1.372 . S
C280 C285 1.364 . S
C281 H260 0.952 . S
C281 C280 1.372 . S
C281 C282 1.389 . S
C282 H261 0.949 . S
C282 C281 1.389 . S
C282 C283 1.387 . S
C283 C282 1.387 . S
C283 C284 1.372 . S
C284 H262 0.950 . S
C284 C283 1.372 . S
C284 C285 1.379 . S
C285 H263 0.948 . S
C285 C280 1.364 . S
C285 C284 1.379 . S
C286 C255 1.383 . S
C286 C273 1.479 . S
C286 C287 1.398 . S
C287 C252 1.382 . S
C287 H264 0.951 . S
C287 C286 1.398 . S
Co288 N293 2.057 . S
Co288 O305 2.021 . S
Co288 O308 2.062 . S
Co288 O312 2.117 1_545 S
Co288 O313 2.020 1_545 S
C289 O309 1.259 1_655 S
C289 O312 1.258 . S
Co290 N299 2.057 . S
Co290 O306 2.117 1_565 S
Co290 O307 2.020 1_565 S
Co290 O309 2.021 . S
Co290 O314 2.062 . S
C291 N293 1.316 . S
C291 N294 1.347 . S
C291 H296 0.931 . S
C292 N293 1.375 1_565 S
C292 C295 1.350 1_565 S
C292 H297 0.930 . S
N293 Co288 2.057 . S
N293 C291 1.316 . S
N293 C292 1.375 1_545 S
N294 C291 1.347 . S
N294 C295 1.373 . S
C295 C292 1.350 1_545 S
C295 N294 1.373 . S
C295 H316 0.931 1_545 S
H296 C291 0.931 . S
H297 C292 0.930 . S
C298 O305 1.259 1_455 S
C298 O306 1.258 . S
N299 Co290 2.057 . S
N299 C300 1.316 . S
N299 C301 1.375 1_565 S
C300 N299 1.316 . S
C300 N302 1.347 . S
C300 H311 0.931 . S
C301 N299 1.375 1_545 S
C301 C303 1.350 1_545 S
C301 H310 0.930 . S
N302 C300 1.347 . S
N302 C303 1.373 . S
C303 C301 1.350 1_565 S
C303 N302 1.373 . S
C303 H317 0.931 1_565 S
C304 O307 1.256 . S
C304 O308 1.255 1_455 S
O305 Co288 2.021 . S
O305 C298 1.259 1_655 S
O306 Co290 2.117 1_545 S
O306 C298 1.258 . S
O307 Co290 2.020 1_545 S
O307 C304 1.256 . S
O308 Co288 2.062 . S
O308 C304 1.255 1_655 S
O309 C289 1.259 1_455 S
O309 Co290 2.021 . S
H310 C301 0.930 . S
H311 C300 0.931 . S
O312 Co288 2.117 1_565 S
O312 C289 1.258 . S
O313 Co288 2.020 1_565 S
O313 C315 1.256 . S
O314 Co290 2.062 . S
O314 C315 1.255 1_455 S
C315 O313 1.256 . S
C315 O314 1.255 1_655 S
H316 C295 0.931 1_565 S
H317 C303 0.931 1_545 S
Co318 N323 2.057 . S
Co318 O335 2.021 1_565 S
Co318 O338 2.062 . S
Co318 O342 2.117 . S
Co318 O343 2.020 1_565 S
C319 O339 1.259 . S
C319 O342 1.258 1_554 S
Co320 N329 2.057 . S
Co320 O336 2.117 . S
Co320 O337 2.020 1_545 S
Co320 O339 2.021 1_545 S
Co320 O344 2.062 . S
C321 N323 1.316 . S
C321 N324 1.347 . S
C321 H326 0.931 1_565 S
C322 N323 1.375 . S
C322 C325 1.350 . S
C322 H327 0.930 . S
N323 Co318 2.057 . S
N323 C321 1.316 . S
N323 C322 1.375 . S
N324 C321 1.347 . S
N324 C325 1.373 . S
C325 C322 1.350 . S
C325 N324 1.373 . S
C325 H346 0.931 . S
H326 C321 0.931 1_545 S
H327 C322 0.930 . S
C328 O335 1.259 . S
C328 O336 1.258 1_556 S
N329 Co320 2.057 . S
N329 C330 1.316 . S
N329 C331 1.375 . S
C330 N329 1.316 . S
C330 N332 1.347 . S
C330 H341 0.931 1_545 S
C331 N329 1.375 . S
C331 C333 1.350 . S
C331 H340 0.930 . S
N332 C330 1.347 . S
N332 C333 1.373 . S
C333 C331 1.350 . S
C333 N332 1.373 . S
C333 H347 0.931 . S
C334 O337 1.256 1_556 S
C334 O338 1.255 . S
O335 Co318 2.021 1_545 S
O335 C328 1.259 . S
O336 Co320 2.117 . S
O336 C328 1.258 1_554 S
O337 Co320 2.020 1_565 S
O337 C334 1.256 1_554 S
O338 Co318 2.062 . S
O338 C334 1.255 . S
O339 C319 1.259 . S
O339 Co320 2.021 1_565 S
H340 C331 0.930 . S
H341 C330 0.931 1_565 S
O342 Co318 2.117 . S
O342 C319 1.258 1_556 S
O343 Co318 2.020 1_545 S
O343 C345 1.256 1_556 S
O344 Co320 2.062 . S
O344 C345 1.255 . S
C345 O343 1.256 1_554 S
C345 O344 1.255 . S
H346 C325 0.931 . S
H347 C333 0.931 . S
Co348 N353 2.057 . S
Co348 O365 2.021 . S
Co348 O368 2.062 . S
Co348 O372 2.117 . S
Co348 O373 2.020 . S
C349 O369 1.259 . S
C349 O372 1.258 . S
Co350 N359 2.057 . S
Co350 O366 2.117 . S
Co350 O367 2.020 . S
Co350 O369 2.021 . S
Co350 O374 2.062 . S
C351 N353 1.316 . S
C351 N354 1.347 . S
C351 H356 0.931 . S
C352 N353 1.375 . S
C352 C355 1.350 . S
C352 H357 0.930 . S
N353 Co348 2.057 . S
N353 C351 1.316 . S
N353 C352 1.375 . S
N354 C351 1.347 . S
N354 C355 1.373 . S
C355 C352 1.350 . S
C355 N354 1.373 . S
C355 H376 0.931 . S
H356 C351 0.931 . S
H357 C352 0.930 . S
C358 O365 1.259 . S
C358 O366 1.258 . S
N359 Co350 2.057 . S
N359 C360 1.316 . S
N359 C361 1.375 . S
C360 N359 1.316 . S
C360 N362 1.347 . S
C360 H371 0.931 . S
C361 N359 1.375 . S
C361 C363 1.350 . S
C361 H370 0.930 . S
N362 C360 1.347 . S
N362 C363 1.373 . S
C363 C361 1.350 . S
C363 N362 1.373 . S
C363 H377 0.931 . S
C364 O367 1.256 . S
C364 O368 1.255 . S
O365 Co348 2.021 . S
O365 C358 1.259 . S
O366 Co350 2.117 . S
O366 C358 1.258 . S
O367 Co350 2.020 . S
O367 C364 1.256 . S
O368 Co348 2.062 . S
O368 C364 1.255 . S
O369 C349 1.259 . S
O369 Co350 2.021 . S
H370 C361 0.930 . S
H371 C360 0.931 . S
O372 Co348 2.117 . S
O372 C349 1.258 . S
O373 Co348 2.020 . S
O373 C375 1.256 . S
O374 Co350 2.062 . S
O374 C375 1.255 . S
C375 O373 1.256 . S
C375 O374 1.255 . S
H376 C355 0.931 . S
H377 C363 0.931 . S
Co378 N383 2.057 . S
Co378 O395 2.021 . S
Co378 O398 2.062 . S
Co378 O402 2.117 1_455 S
Co378 O403 2.020 1_455 S
C379 O399 1.259 1_556 S
C379 O402 1.258 . S
Co380 N389 2.057 . S
Co380 O396 2.117 1_655 S
Co380 O397 2.020 1_655 S
Co380 O399 2.021 . S
Co380 O404 2.062 . S
C381 N383 1.316 . S
C381 N384 1.347 . S
C381 H386 0.931 . S
C382 N383 1.375 1_655 S
C382 C385 1.350 1_655 S
C382 H387 0.930 . S
N383 Co378 2.057 . S
N383 C381 1.316 . S
N383 C382 1.375 1_455 S
N384 C381 1.347 . S
N384 C385 1.373 . S
C385 C382 1.350 1_455 S
C385 N384 1.373 . S
C385 H406 0.931 1_455 S
H386 C381 0.931 . S
H387 C382 0.930 . S
C388 O395 1.259 1_554 S
C388 O396 1.258 . S
N389 Co380 2.057 . S
N389 C390 1.316 . S
N389 C391 1.375 1_655 S
C390 N389 1.316 . S
C390 N392 1.347 . S
C390 H401 0.931 . S
C391 N389 1.375 1_455 S
C391 C393 1.350 1_455 S
C391 H400 0.930 . S
N392 C390 1.347 . S
N392 C393 1.373 . S
C393 C391 1.350 1_655 S
C393 N392 1.373 . S
C393 H407 0.931 1_655 S
C394 O397 1.256 . S
C394 O398 1.255 1_554 S
O395 Co378 2.021 . S
O395 C388 1.259 1_556 S
O396 Co380 2.117 1_455 S
O396 C388 1.258 . S
O397 Co380 2.020 1_455 S
O397 C394 1.256 . S
O398 Co378 2.062 . S
O398 C394 1.255 1_556 S
O399 C379 1.259 1_554 S
O399 Co380 2.021 . S
H400 C391 0.930 . S
H401 C390 0.931 . S
O402 Co378 2.117 1_655 S
O402 C379 1.258 . S
O403 Co378 2.020 1_655 S
O403 C405 1.256 . S
O404 Co380 2.062 . S
O404 C405 1.255 1_554 S
C405 O403 1.256 . S
C405 O404 1.255 1_556 S
H406 C385 0.931 1_655 S
H407 C393 0.931 1_455 S
C408 C409 1.391 . S
C408 C410 1.394 . S
C408 H424 0.931 . S
C409 C408 1.391 . S
C409 C413 1.376 . S
C410 C408 1.394 . S
C410 C411 1.369 . S
C410 C414 1.531 . S
C411 C410 1.369 . S
C411 C412 1.410 . S
C411 C419 1.503 . S
C412 C411 1.410 . S
C412 C413 1.392 . S
C412 C415 1.532 . S
C413 C409 1.376 . S
C413 C412 1.392 . S
C413 H425 0.929 . S
C414 C410 1.531 . S
C414 H426 0.960 . S
C414 H427 0.962 . S
C414 H428 0.960 . S
C415 C412 1.532 . S
C415 H429 0.956 1_455 S
C415 H430 0.962 . S
C415 H431 0.944 1_455 S
C416 C417 1.370 . S
C416 C418 1.363 . S
C416 H432 0.931 1_545 S
C417 C416 1.370 . S
C417 C421 1.408 . S
C418 C416 1.363 . S
C418 C419 1.370 . S
C418 C422 1.524 1_545 S
C419 C411 1.503 . S
C419 C418 1.370 . S
C419 C420 1.403 . S
C420 C419 1.403 . S
C420 C421 1.404 . S
C420 C423 1.539 . S
C421 C417 1.408 . S
C421 C420 1.404 . S
C421 H433 0.930 . S
C422 C418 1.524 1_565 S
C422 H434 0.956 1_565 S
C422 H435 0.961 . S
C422 H436 0.961 . S
C423 C420 1.539 . S
C423 H437 0.958 . S
C423 H438 0.961 1_455 S
C423 H439 0.960 . S
H424 C408 0.931 . S
H425 C413 0.929 . S
H426 C414 0.960 . S
H427 C414 0.962 . S
H428 C414 0.960 . S
H429 C415 0.956 1_655 S
H430 C415 0.962 . S
H431 C415 0.944 1_655 S
H432 C416 0.931 1_565 S
H433 C421 0.930 . S
H434 C422 0.956 1_545 S
H435 C422 0.961 . S
H436 C422 0.961 . S
H437 C423 0.958 . S
H438 C423 0.961 1_655 S
H439 C423 0.960 . S
C440 C441 1.391 . S
C440 C442 1.394 . S
C440 H456 0.931 . S
C441 C440 1.391 . S
C441 C445 1.376 . S
C442 C440 1.394 . S
C442 C443 1.369 . S
C442 C446 1.531 . S
C443 C442 1.369 . S
C443 C444 1.410 . S
C443 C451 1.503 . S
C444 C443 1.410 . S
C444 C445 1.392 . S
C444 C447 1.511 . S
C445 C441 1.376 . S
C445 C444 1.392 . S
C445 H457 0.929 . S
C446 C442 1.531 . S
C446 H458 0.960 . S
C446 H459 0.962 . S
C446 H460 0.960 . S
C447 C444 1.511 . S
C447 H461 0.961 . S
C447 H462 0.961 . S
C447 H463 0.961 . S
C448 C449 1.370 . S
C448 C450 1.363 . S
C448 H464 0.931 . S
C449 C448 1.370 . S
C449 C453 1.408 . S
C450 C448 1.363 . S
C450 C451 1.370 . S
C450 C454 1.524 . S
C451 C443 1.503 . S
C451 C450 1.370 . S
C451 C452 1.403 . S
C452 C451 1.403 . S
C452 C453 1.404 . S
C452 C455 1.539 . S
C453 C449 1.408 . S
C453 C452 1.404 . S
C453 H465 0.930 . S
C454 C450 1.524 . S
C454 H466 0.956 . S
C454 H467 0.961 . S
C454 H468 0.961 . S
C455 C452 1.539 . S
C455 H469 0.958 1_565 S
C455 H470 0.961 . S
C455 H471 0.960 . S
H456 C440 0.931 . S
H457 C445 0.929 . S
H458 C446 0.960 . S
H459 C446 0.962 . S
H460 C446 0.960 . S
H461 C447 0.961 . S
H462 C447 0.961 . S
H463 C447 0.961 . S
H464 C448 0.931 . S
H465 C453 0.930 . S
H466 C454 0.956 . S
H467 C454 0.961 . S
H468 C454 0.961 . S
H469 C455 0.958 1_545 S
H470 C455 0.961 . S
H471 C455 0.960 . S
C472 C473 1.391 . S
C472 C474 1.394 . S
C472 H488 0.931 . S
C473 C472 1.391 . S
C473 C477 1.376 . S
C474 C472 1.394 . S
C474 C475 1.369 . S
C474 C478 1.531 . S
C475 C474 1.369 . S
C475 C476 1.410 . S
C475 C483 1.503 . S
C476 C475 1.410 . S
C476 C477 1.392 . S
C476 C479 1.511 . S
C477 C473 1.376 . S
C477 C476 1.392 . S
C477 H489 0.929 . S
C478 C474 1.531 . S
C478 H490 0.960 . S
C478 H491 0.962 . S
C478 H492 0.960 . S
C479 C476 1.511 . S
C479 H493 0.961 . S
C479 H494 0.961 . S
C479 H495 0.961 . S
C480 C481 1.370 . S
C480 C482 1.363 . S
C480 H496 0.931 . S
C481 C480 1.370 . S
C481 C485 1.408 . S
C482 C480 1.363 . S
C482 C483 1.370 . S
C482 C486 1.524 . S
C483 C475 1.503 . S
C483 C482 1.370 . S
C483 C484 1.403 . S
C484 C483 1.403 . S
C484 C485 1.404 . S
C484 C487 1.539 . S
C485 C481 1.408 . S
C485 C484 1.404 . S
C485 H497 0.930 . S
C486 C482 1.524 . S
C486 H498 0.956 . S
C486 H499 0.961 . S
C486 H500 0.961 . S
C487 C484 1.539 . S
C487 H501 0.958 . S
C487 H502 0.961 . S
C487 H503 0.960 . S
H488 C472 0.931 . S
H489 C477 0.929 . S
H490 C478 0.960 . S
H491 C478 0.962 . S
H492 C478 0.960 . S
H493 C479 0.961 . S
H494 C479 0.961 . S
H495 C479 0.961 . S
H496 C480 0.931 . S
H497 C485 0.930 . S
H498 C486 0.956 . S
H499 C486 0.961 . S
H500 C486 0.961 . S
H501 C487 0.958 . S
H502 C487 0.961 . S
H503 C487 0.960 . S
C504 C505 1.391 . S
C504 C506 1.394 . S
C504 H520 0.931 . S
C505 C504 1.391 . S
C505 C509 1.376 . S
C506 C504 1.394 . S
C506 C507 1.369 . S
C506 C510 1.531 . S
C507 C506 1.369 . S
C507 C508 1.410 . S
C507 C515 1.503 . S
C508 C507 1.410 . S
C508 C509 1.392 . S
C508 C511 1.511 . S
C509 C505 1.376 . S
C509 C508 1.392 . S
C509 H521 0.929 . S
C510 C506 1.531 . S
C510 H522 0.960 . S
C510 H523 0.962 . S
C510 H524 0.960 . S
C511 C508 1.511 . S
C511 H525 0.961 . S
C511 H526 0.961 . S
C511 H527 0.961 . S
C512 C513 1.370 . S
C512 C514 1.363 . S
C512 H528 0.931 . S
C513 C512 1.370 . S
C513 C517 1.408 . S
C514 C512 1.363 . S
C514 C515 1.370 . S
C514 C518 1.524 1_655 S
C515 C507 1.503 . S
C515 C514 1.370 . S
C515 C516 1.403 . S
C516 C515 1.403 . S
C516 C517 1.404 . S
C516 C519 1.539 . S
C517 C513 1.408 . S
C517 C516 1.404 . S
C517 H529 0.930 . S
C518 C514 1.524 1_455 S
C518 H530 0.956 . S
C518 H531 0.961 1_455 S
C518 H532 0.961 . S
C519 C516 1.539 . S
C519 H533 0.958 . S
C519 H534 0.961 . S
C519 H535 0.960 . S
H520 C504 0.931 . S
H521 C509 0.929 . S
H522 C510 0.960 . S
H523 C510 0.962 . S
H524 C510 0.960 . S
H525 C511 0.961 . S
H526 C511 0.961 . S
H527 C511 0.961 . S
H528 C512 0.931 . S
H529 C517 0.930 . S
H530 C518 0.956 . S
H531 C518 0.961 1_655 S
H532 C518 0.961 . S
H533 C519 0.958 . S
H534 C519 0.961 . S
H535 C519 0.960 . S
C536 C537 1.391 . S
C536 C538 1.394 . S
C536 H552 0.931 . S
C537 C536 1.391 . S
C537 C541 1.376 . S
C538 C536 1.394 . S
C538 C539 1.369 . S
C538 C542 1.531 1_545 S
C539 C538 1.369 . S
C539 C540 1.410 . S
C539 C547 1.503 . S
C540 C539 1.410 . S
C540 C541 1.392 . S
C540 C543 1.511 . S
C541 C537 1.376 . S
C541 C540 1.392 . S
C541 H553 0.929 . S
C542 C538 1.531 1_565 S
C542 H554 0.960 . S
C542 H555 0.962 . S
C542 H556 0.960 . S
C543 C540 1.511 . S
C543 H557 0.961 . S
C543 H558 0.961 . S
C543 H559 0.927 1_554 S
C544 C545 1.370 . S
C544 C546 1.363 . S
C544 H560 0.931 . S
C545 C544 1.370 . S
C545 C549 1.408 . S
C546 C544 1.363 . S
C546 C547 1.370 . S
C546 C550 1.524 . S
C547 C539 1.503 . S
C547 C546 1.370 . S
C547 C548 1.403 . S
C548 C547 1.403 . S
C548 C549 1.404 . S
C548 C551 1.539 1_554 S
C549 C545 1.408 . S
C549 C548 1.404 . S
C549 H561 0.930 1_554 S
C550 C546 1.524 . S
C550 H562 0.956 . S
C550 H563 0.961 . S
C550 H564 0.961 . S
C551 C548 1.539 1_556 S
C551 H565 0.958 . S
C551 H566 0.961 . S
C551 H567 0.960 . S
H552 C536 0.931 . S
H553 C541 0.929 . S
H554 C542 0.960 . S
H555 C542 0.962 . S
H556 C542 0.960 . S
H557 C543 0.961 . S
H558 C543 0.961 . S
H559 C543 0.927 1_556 S
H560 C544 0.931 . S
H561 C549 0.930 1_556 S
H562 C550 0.956 . S
H563 C550 0.961 . S
H564 C550 0.961 . S
H565 C551 0.958 . S
H566 C551 0.961 . S
H567 C551 0.960 . S
C568 C569 1.391 . S
C568 C570 1.394 . S
C568 H584 0.931 . S
C569 C568 1.391 . S
C569 C573 1.376 . S
C570 C568 1.394 . S
C570 C571 1.369 . S
C570 C574 1.531 . S
C571 C570 1.369 . S
C571 C572 1.410 . S
C571 C579 1.503 . S
C572 C571 1.410 . S
C572 C573 1.392 . S
C572 C575 1.511 . S
C573 C569 1.376 . S
C573 C572 1.392 . S
C573 H585 0.929 . S
C574 C570 1.531 . S
C574 H586 0.960 . S
C574 H587 0.962 . S
C574 H588 0.960 . S
C575 C572 1.511 . S
C575 H589 0.961 . S
C575 H590 0.961 . S
C575 H591 0.961 . S
C576 C577 1.370 . S
C576 C578 1.363 . S
C576 H592 0.931 . S
C577 C576 1.370 . S
C577 C581 1.408 . S
C578 C576 1.363 . S
C578 C579 1.370 . S
C578 C582 1.524 . S
C579 C571 1.503 . S
C579 C578 1.370 . S
C579 C580 1.403 . S
C580 C579 1.403 . S
C580 C581 1.404 . S
C580 C583 1.539 . S
C581 C577 1.408 . S
C581 C580 1.404 . S
C581 H593 0.930 . S
C582 C578 1.524 . S
C582 H594 0.956 . S
C582 H595 0.961 . S
C582 H596 0.961 . S
C583 C580 1.539 . S
C583 H597 0.958 . S
C583 H598 0.961 . S
C583 H599 0.960 . S
H584 C568 0.931 . S
H585 C573 0.929 . S
H586 C574 0.960 . S
H587 C574 0.962 . S
H588 C574 0.960 . S
H589 C575 0.961 . S
H590 C575 0.961 . S
H591 C575 0.961 . S
H592 C576 0.931 . S
H593 C581 0.930 . S
H594 C582 0.956 . S
H595 C582 0.961 . S
H596 C582 0.961 . S
H597 C583 0.958 . S
H598 C583 0.961 . S
H599 C583 0.960 . S
C600 C601 1.391 . S
C600 C602 1.394 . S
C600 H616 0.931 . S
C601 C600 1.391 . S
C601 C605 1.376 . S
C602 C600 1.394 . S
C602 C603 1.369 . S
C602 C606 1.531 . S
C603 C602 1.369 . S
C603 C604 1.410 . S
C603 C611 1.503 . S
C604 C603 1.410 . S
C604 C605 1.392 . S
C604 C607 1.511 . S
C605 C601 1.376 . S
C605 C604 1.392 . S
C605 H617 0.929 . S
C606 C602 1.531 . S
C606 H618 0.960 . S
C606 H619 0.962 1_556 S
C606 H620 0.956 1_556 S
C607 C604 1.511 . S
C607 H621 0.961 . S
C607 H622 0.961 . S
C607 H623 0.961 . S
C608 C609 1.370 . S
C608 C610 1.363 . S
C608 H624 0.931 . S
C609 C608 1.370 . S
C609 C613 1.408 . S
C610 C608 1.363 . S
C610 C611 1.370 . S
C610 C614 1.524 . S
C611 C603 1.503 . S
C611 C610 1.370 . S
C611 C612 1.403 . S
C612 C611 1.403 . S
C612 C613 1.404 . S
C612 C615 1.539 . S
C613 C609 1.408 . S
C613 C612 1.404 . S
C613 H625 0.930 . S
C614 C610 1.524 . S
C614 H626 0.956 . S
C614 H627 0.961 . S
C614 H628 0.961 . S
C615 C612 1.539 . S
C615 H629 0.958 . S
C615 H630 0.961 . S
C615 H631 0.960 . S
H616 C600 0.931 . S
H617 C605 0.929 . S
H618 C606 0.960 . S
H619 C606 0.962 1_554 S
H620 C606 0.956 1_554 S
H621 C607 0.961 . S
H622 C607 0.961 . S
H623 C607 0.961 . S
H624 C608 0.931 . S
H625 C613 0.930 . S
H626 C614 0.956 . S
H627 C614 0.961 . S
H628 C614 0.961 . S
H629 C615 0.958 . S
H630 C615 0.961 . S
H631 C615 0.960 . S
C632 C633 1.391 . S
C632 C634 1.394 . S
C632 H648 0.931 . S
C633 C632 1.391 . S
C633 C637 1.376 . S
C634 C632 1.394 . S
C634 C635 1.369 . S
C634 C638 1.531 . S
C635 C634 1.369 . S
C635 C636 1.410 . S
C635 C643 1.503 . S
C636 C635 1.410 . S
C636 C637 1.392 . S
C636 C639 1.511 . S
C637 C633 1.376 . S
C637 C636 1.392 . S
C637 H649 0.929 . S
C638 C634 1.531 . S
C638 H650 0.960 . S
C638 H651 0.962 . S
C638 H652 0.960 . S
C639 C636 1.511 . S
C639 H653 0.961 . S
C639 H654 0.961 . S
C639 H655 0.961 . S
C640 C641 1.370 . S
C640 C642 1.363 . S
C640 H656 0.931 . S
C641 C640 1.370 . S
C641 C645 1.408 . S
C642 C640 1.363 . S
C642 C643 1.370 . S
C642 C646 1.524 . S
C643 C635 1.503 . S
C643 C642 1.370 . S
C643 C644 1.403 . S
C644 C643 1.403 . S
C644 C645 1.404 . S
C644 C647 1.539 . S
C645 C641 1.408 . S
C645 C644 1.404 . S
C645 H657 0.930 . S
C646 C642 1.524 . S
C646 H658 0.956 . S
C646 H659 0.961 . S
C646 H660 0.961 . S
C647 C644 1.539 . S
C647 H661 0.958 . S
C647 H662 0.961 . S
C647 H663 0.960 . S
H648 C632 0.931 . S
H649 C637 0.929 . S
H650 C638 0.960 . S
H651 C638 0.962 . S
H652 C638 0.960 . S
H653 C639 0.961 . S
H654 C639 0.961 . S
H655 C639 0.961 . S
H656 C640 0.931 . S
H657 C645 0.930 . S
H658 C646 0.956 . S
H659 C646 0.961 . S
H660 C646 0.961 . S
H661 C647 0.958 . S
H662 C647 0.961 . S
H663 C647 0.960 . S
C664 C665 1.391 . S
C664 C666 1.394 . S
C664 H680 0.931 . S
C665 C664 1.391 . S
C665 C669 1.376 . S
C666 C664 1.394 . S
C666 C667 1.369 . S
C666 C670 1.531 . S
C667 C666 1.369 . S
C667 C668 1.410 . S
C667 C675 1.503 . S
C668 C667 1.410 . S
C668 C669 1.392 . S
C668 C671 1.511 . S
C669 C665 1.376 . S
C669 C668 1.392 . S
C669 H681 0.929 . S
C670 C666 1.531 . S
C670 H682 0.960 . S
C670 H683 0.962 1_455 S
C670 H684 0.960 . S
C671 C668 1.511 . S
C671 H685 0.961 . S
C671 H686 0.961 . S
C671 H687 0.961 . S
C672 C673 1.370 . S
C672 C674 1.363 . S
C672 H688 0.931 1_554 S
C673 C672 1.370 . S
C673 C677 1.408 . S
C674 C672 1.363 . S
C674 C675 1.370 . S
C674 C678 1.524 . S
C675 C667 1.503 . S
C675 C674 1.370 . S
C675 C676 1.403 . S
C676 C675 1.403 . S
C676 C677 1.404 . S
C676 C679 1.539 . S
C677 C673 1.408 . S
C677 C676 1.404 . S
C677 H689 0.930 . S
C678 C674 1.524 . S
C678 H690 0.956 . S
C678 H691 0.961 1_554 S
C678 H692 0.961 1_554 S
C679 C676 1.539 . S
C679 H693 0.958 . S
C679 H694 0.961 . S
C679 H695 0.960 . S
H680 C664 0.931 . S
H681 C669 0.929 . S
H682 C670 0.960 . S
H683 C670 0.962 1_655 S
H684 C670 0.960 . S
H685 C671 0.961 . S
H686 C671 0.961 . S
H687 C671 0.961 . S
H688 C672 0.931 1_556 S
H689 C677 0.930 . S
H690 C678 0.956 . S
H691 C678 0.961 1_556 S
H692 C678 0.961 1_556 S
H693 C679 0.958 . S
H694 C679 0.961 . S
H695 C679 0.960 . S
C696 C697 1.391 . S
C696 C698 1.394 . S
C696 H712 0.931 . S
C697 C696 1.391 . S
C697 C701 1.376 . S
C698 C696 1.394 . S
C698 C699 1.369 . S
C698 C702 1.531 . S
C699 C698 1.369 . S
C699 C700 1.410 . S
C699 C707 1.503 . S
C700 C699 1.410 . S
C700 C701 1.392 . S
C700 C703 1.511 . S
C701 C697 1.376 . S
C701 C700 1.392 . S
C701 H713 0.929 . S
C702 C698 1.531 . S
C702 H714 0.960 . S
C702 H715 0.962 . S
C702 H716 0.961 . S
C703 C700 1.511 . S
C703 H717 0.961 . S
C703 H718 0.961 . S
C703 H719 0.961 . S
C704 C705 1.370 . S
C704 C706 1.363 . S
C704 H720 0.931 . S
C705 C704 1.370 . S
C705 C709 1.408 . S
C706 C704 1.363 . S
C706 C707 1.370 . S
C706 C710 1.524 . S
C707 C699 1.503 . S
C707 C706 1.370 . S
C707 C708 1.403 . S
C708 C707 1.403 . S
C708 C709 1.404 . S
C708 C711 1.539 1_556 S
C709 C705 1.408 . S
C709 C708 1.404 . S
C709 H721 0.930 1_556 S
C710 C706 1.524 . S
C710 H722 0.956 . S
C710 H723 0.961 . S
C710 H724 0.961 . S
C711 C708 1.539 1_554 S
C711 H725 0.958 . S
C711 H726 0.961 . S
C711 H727 0.960 1_554 S
H712 C696 0.931 . S
H713 C701 0.929 . S
H714 C702 0.960 . S
H715 C702 0.962 . S
H716 C702 0.961 . S
H717 C703 0.961 . S
H718 C703 0.961 . S
H719 C703 0.961 . S
H720 C704 0.931 . S
H721 C709 0.930 1_554 S
H722 C710 0.956 . S
H723 C710 0.961 . S
H724 C710 0.961 . S
H725 C711 0.958 . S
H726 C711 0.961 . S
H727 C711 0.960 1_556 S
C728 C729 1.391 . S
C728 C730 1.394 . S
C728 H744 0.931 . S
C729 C728 1.391 . S
C729 C733 1.376 . S
C730 C728 1.394 . S
C730 C731 1.369 . S
C730 C734 1.531 . S
C731 C730 1.369 . S
C731 C732 1.410 . S
C731 C739 1.503 . S
C732 C731 1.410 . S
C732 C733 1.392 . S
C732 C735 1.511 1_655 S
C733 C729 1.376 . S
C733 C732 1.392 . S
C733 H745 0.929 . S
C734 C730 1.531 . S
C734 H746 0.960 . S
C734 H747 0.962 . S
C734 H748 0.960 . S
C735 C732 1.511 1_455 S
C735 H749 0.961 . S
C735 H750 0.961 . S
C735 H751 0.961 . S
C736 C737 1.370 . S
C736 C738 1.363 . S
C736 H752 0.931 . S
C737 C736 1.370 . S
C737 C741 1.408 . S
C738 C736 1.363 . S
C738 C739 1.370 . S
C738 C742 1.524 . S
C739 C731 1.503 . S
C739 C738 1.370 . S
C739 C740 1.403 . S
C740 C739 1.403 . S
C740 C741 1.404 . S
C740 C743 1.539 1_655 S
C741 C737 1.408 . S
C741 C740 1.404 . S
C741 H753 0.930 1_655 S
C742 C738 1.524 . S
C742 H754 0.956 . S
C742 H755 0.961 . S
C742 H756 0.961 . S
C743 C740 1.539 1_455 S
C743 H757 0.958 . S
C743 H758 0.961 . S
C743 H759 0.960 . S
H744 C728 0.931 . S
H745 C733 0.929 . S
H746 C734 0.960 . S
H747 C734 0.962 . S
H748 C734 0.960 . S
H749 C735 0.961 . S
H750 C735 0.961 . S
H751 C735 0.961 . S
H752 C736 0.931 . S
H753 C741 0.930 1_455 S
H754 C742 0.956 . S
H755 C742 0.961 . S
H756 C742 0.961 . S
H757 C743 0.958 . S
H758 C743 0.961 . S
H759 C743 0.960 . S
C760 C761 1.391 . S
C760 C762 1.394 . S
C760 H776 0.931 . S
C761 C760 1.391 . S
C761 C765 1.376 . S
C762 C760 1.394 . S
C762 C763 1.369 . S
C762 C766 1.531 . S
C763 C762 1.369 . S
C763 C764 1.410 . S
C763 C771 1.503 . S
C764 C763 1.410 . S
C764 C765 1.392 . S
C764 C767 1.511 . S
C765 C761 1.376 . S
C765 C764 1.392 . S
C765 H777 0.929 . S
C766 C762 1.531 . S
C766 H778 0.960 . S
C766 H779 0.962 . S
C766 H780 0.960 . S
C767 C764 1.511 . S
C767 H781 0.961 . S
C767 H782 0.961 . S
C767 H783 0.961 . S
C768 C769 1.370 . S
C768 C770 1.363 . S
C768 H784 0.931 . S
C769 C768 1.370 . S
C769 C773 1.408 . S
C770 C768 1.363 . S
C770 C771 1.370 . S
C770 C774 1.524 . S
C771 C763 1.503 . S
C771 C770 1.370 . S
C771 C772 1.403 . S
C772 C771 1.403 . S
C772 C773 1.404 . S
C772 C775 1.539 . S
C773 C769 1.408 . S
C773 C772 1.404 . S
C773 H785 0.930 . S
C774 C770 1.524 . S
C774 H786 0.956 . S
C774 H787 0.961 . S
C774 H788 0.961 . S
C775 C772 1.539 . S
C775 H789 0.958 . S
C775 H790 0.961 . S
C775 H791 0.960 . S
H776 C760 0.931 . S
H777 C765 0.929 . S
H778 C766 0.960 . S
H779 C766 0.962 . S
H780 C766 0.960 . S
H781 C767 0.961 . S
H782 C767 0.961 . S
H783 C767 0.961 . S
H784 C768 0.931 . S
H785 C773 0.930 . S
H786 C774 0.956 . S
H787 C774 0.961 . S
H788 C774 0.961 . S
H789 C775 0.958 . S
H790 C775 0.961 . S
H791 C775 0.960 . S
C792 C793 1.391 . S
C792 C794 1.394 . S
C792 H808 0.931 . S
C793 C792 1.391 . S
C793 C797 1.376 . S
C794 C792 1.394 . S
C794 C795 1.369 . S
C794 C798 1.531 . S
C795 C794 1.369 . S
C795 C796 1.410 . S
C795 C803 1.503 . S
C796 C795 1.410 . S
C796 C797 1.392 . S
C796 C799 1.535 . S
C797 C793 1.376 . S
C797 C796 1.392 . S
C797 H809 0.929 . S
C798 C794 1.531 . S
C798 H810 0.960 1_565 S
C798 H811 0.962 . S
C798 H812 0.960 1_565 S
C799 C796 1.535 . S
C799 H813 0.955 1_655 S
C799 H814 0.963 . S
C799 H815 0.941 1_655 S
C800 C801 1.370 . S
C800 C802 1.363 . S
C800 H816 0.931 . S
C801 C800 1.370 . S
C801 C805 1.408 . S
C802 C800 1.363 . S
C802 C803 1.370 . S
C802 C806 1.524 . S
C803 C795 1.503 . S
C803 C802 1.370 . S
C803 C804 1.403 . S
C804 C803 1.403 . S
C804 C805 1.404 . S
C804 C807 1.539 1_565 S
C805 C801 1.408 . S
C805 C804 1.404 . S
C805 H817 0.930 1_565 S
C806 C802 1.524 . S
C806 H818 0.956 . S
C806 H819 0.961 . S
C806 H820 0.961 . S
C807 C804 1.539 1_545 S
C807 H821 0.958 . S
C807 H822 0.961 1_655 S
C807 H823 0.960 . S
H808 C792 0.931 . S
H809 C797 0.929 . S
H810 C798 0.960 1_545 S
H811 C798 0.962 . S
H812 C798 0.960 1_545 S
H813 C799 0.955 1_455 S
H814 C799 0.963 . S
H815 C799 0.941 1_455 S
H816 C800 0.931 . S
H817 C805 0.930 1_545 S
H818 C806 0.956 . S
H819 C806 0.961 . S
H820 C806 0.961 . S
H821 C807 0.958 . S
H822 C807 0.961 1_455 S
H823 C807 0.960 . S
C824 C825 1.391 . S
C824 C826 1.394 . S
C824 H840 0.931 . S
C825 C824 1.391 . S
C825 C829 1.376 . S
C826 C824 1.394 . S
C826 C827 1.369 . S
C826 C830 1.531 . S
C827 C826 1.369 . S
C827 C828 1.410 . S
C827 C835 1.503 . S
C828 C827 1.410 . S
C828 C829 1.392 . S
C828 C831 1.511 . S
C829 C825 1.376 . S
C829 C828 1.392 . S
C829 H841 0.929 . S
C830 C826 1.531 . S
C830 H842 0.960 . S
C830 H843 0.962 . S
C830 H844 0.960 . S
C831 C828 1.511 . S
C831 H845 0.961 . S
C831 H846 0.961 . S
C831 H847 0.961 . S
C832 C833 1.370 . S
C832 C834 1.363 . S
C832 H848 0.931 . S
C833 C832 1.370 . S
C833 C837 1.408 . S
C834 C832 1.363 . S
C834 C835 1.370 . S
C834 C838 1.524 . S
C835 C827 1.503 . S
C835 C834 1.370 . S
C835 C836 1.403 . S
C836 C835 1.403 . S
C836 C837 1.404 . S
C836 C839 1.539 . S
C837 C833 1.408 . S
C837 C836 1.404 . S
C837 H849 0.930 . S
C838 C834 1.524 . S
C838 H850 0.956 . S
C838 H851 0.961 . S
C838 H852 0.961 . S
C839 C836 1.539 . S
C839 H853 0.958 1_545 S
C839 H854 0.961 . S
C839 H855 0.960 . S
H840 C824 0.931 . S
H841 C829 0.929 . S
H842 C830 0.960 . S
H843 C830 0.962 . S
H844 C830 0.960 . S
H845 C831 0.961 . S
H846 C831 0.961 . S
H847 C831 0.961 . S
H848 C832 0.931 . S
H849 C837 0.930 . S
H850 C838 0.956 . S
H851 C838 0.961 . S
H852 C838 0.961 . S
H853 C839 0.958 1_565 S
H854 C839 0.961 . S
H855 C839 0.960 . S
C856 C857 1.391 . S
C856 C858 1.394 . S
C856 H872 0.931 . S
C857 C856 1.391 . S
C857 C861 1.376 . S
C858 C856 1.394 . S
C858 C859 1.369 . S
C858 C862 1.531 . S
C859 C858 1.369 . S
C859 C860 1.410 . S
C859 C867 1.503 . S
C860 C859 1.410 . S
C860 C861 1.392 . S
C860 C863 1.511 . S
C861 C857 1.376 . S
C861 C860 1.392 . S
C861 H873 0.929 . S
C862 C858 1.531 . S
C862 H874 0.960 . S
C862 H875 0.962 . S
C862 H876 0.960 . S
C863 C860 1.511 . S
C863 H877 0.961 . S
C863 H878 0.961 . S
C863 H879 0.961 . S
C864 C865 1.370 . S
C864 C866 1.363 . S
C864 H880 0.931 . S
C865 C864 1.370 . S
C865 C869 1.408 . S
C866 C864 1.363 . S
C866 C867 1.370 . S
C866 C870 1.524 . S
C867 C859 1.503 . S
C867 C866 1.370 . S
C867 C868 1.403 . S
C868 C867 1.403 . S
C868 C869 1.404 . S
C868 C871 1.539 . S
C869 C865 1.408 . S
C869 C868 1.404 . S
C869 H881 0.930 . S
C870 C866 1.524 . S
C870 H882 0.956 . S
C870 H883 0.961 . S
C870 H884 0.961 . S
C871 C868 1.539 . S
C871 H885 0.958 . S
C871 H886 0.961 . S
C871 H887 0.960 . S
H872 C856 0.931 . S
H873 C861 0.929 . S
H874 C862 0.960 . S
H875 C862 0.962 . S
H876 C862 0.960 . S
H877 C863 0.961 . S
H878 C863 0.961 . S
H879 C863 0.961 . S
H880 C864 0.931 . S
H881 C869 0.930 . S
H882 C870 0.956 . S
H883 C870 0.961 . S
H884 C870 0.961 . S
H885 C871 0.958 . S
H886 C871 0.961 . S
H887 C871 0.960 . S
C888 C889 1.391 . S
C888 C890 1.394 . S
C888 H904 0.931 . S
C889 C888 1.391 . S
C889 C893 1.376 . S
C890 C888 1.394 . S
C890 C891 1.369 . S
C890 C894 1.531 . S
C891 C890 1.369 . S
C891 C892 1.410 . S
C891 C899 1.503 . S
C892 C891 1.410 . S
C892 C893 1.392 . S
C892 C895 1.511 . S
C893 C889 1.376 . S
C893 C892 1.392 . S
C893 H905 0.929 . S
C894 C890 1.531 . S
C894 H906 0.960 . S
C894 H907 0.962 . S
C894 H908 0.960 . S
C895 C892 1.511 . S
C895 H909 0.961 . S
C895 H910 0.961 . S
C895 H911 0.961 . S
C896 C897 1.370 . S
C896 C898 1.363 . S
C896 H912 0.931 . S
C897 C896 1.370 . S
C897 C901 1.408 . S
C898 C896 1.363 . S
C898 C899 1.370 . S
C898 C902 1.524 . S
C899 C891 1.503 . S
C899 C898 1.370 . S
C899 C900 1.403 . S
C900 C899 1.403 . S
C900 C901 1.404 . S
C900 C903 1.539 . S
C901 C897 1.408 . S
C901 C900 1.404 . S
C901 H913 0.930 . S
C902 C898 1.524 . S
C902 H914 0.948 1_455 S
C902 H915 0.961 . S
C902 H916 0.958 . S
C903 C900 1.539 . S
C903 H917 0.958 . S
C903 H918 0.961 . S
C903 H919 0.960 . S
H904 C888 0.931 . S
H905 C893 0.929 . S
H906 C894 0.960 . S
H907 C894 0.962 . S
H908 C894 0.960 . S
H909 C895 0.961 . S
H910 C895 0.961 . S
H911 C895 0.961 . S
H912 C896 0.931 . S
H913 C901 0.930 . S
H914 C902 0.948 1_655 S
H915 C902 0.961 . S
H916 C902 0.958 . S
H917 C903 0.958 . S
H918 C903 0.961 . S
H919 C903 0.960 . S
C920 C921 1.391 . S
C920 C922 1.394 . S
C920 H936 0.931 . S
C921 C920 1.391 . S
C921 C925 1.376 . S
C922 C920 1.394 . S
C922 C923 1.369 . S
C922 C926 1.531 1_565 S
C923 C922 1.369 . S
C923 C924 1.410 . S
C923 C931 1.503 . S
C924 C923 1.410 . S
C924 C925 1.392 . S
C924 C927 1.511 . S
C925 C921 1.376 . S
C925 C924 1.392 . S
C925 H937 0.929 . S
C926 C922 1.531 1_545 S
C926 H938 0.960 . S
C926 H939 0.962 . S
C926 H940 0.960 . S
C927 C924 1.511 . S
C927 H941 0.961 . S
C927 H942 0.961 . S
C927 H943 0.961 . S
C928 C929 1.370 . S
C928 C930 1.363 . S
C928 H944 0.931 1_556 S
C929 C928 1.370 . S
C929 C933 1.408 . S
C930 C928 1.363 . S
C930 C931 1.370 . S
C930 C934 1.524 1_556 S
C931 C923 1.503 . S
C931 C930 1.370 . S
C931 C932 1.403 . S
C932 C931 1.403 . S
C932 C933 1.404 . S
C932 C935 1.539 . S
C933 C929 1.408 . S
C933 C932 1.404 . S
C933 H945 0.930 . S
C934 C930 1.524 1_554 S
C934 H946 0.956 . S
C934 H947 0.961 . S
C934 H948 0.961 . S
C935 C932 1.539 . S
C935 H949 0.958 . S
C935 H950 0.961 . S
C935 H951 0.960 . S
H936 C920 0.931 . S
H937 C925 0.929 . S
H938 C926 0.960 . S
H939 C926 0.962 . S
H940 C926 0.960 . S
H941 C927 0.961 . S
H942 C927 0.961 . S
H943 C927 0.961 . S
H944 C928 0.931 1_554 S
H945 C933 0.930 . S
H946 C934 0.956 . S
H947 C934 0.961 . S
H948 C934 0.961 . S
H949 C935 0.958 . S
H950 C935 0.961 . S
H951 C935 0.960 . S
C952 C953 1.391 . S
C952 C954 1.394 . S
C952 H968 0.931 . S
C953 C952 1.391 . S
C953 C957 1.376 . S
C954 C952 1.394 . S
C954 C955 1.369 . S
C954 C958 1.531 . S
C955 C954 1.369 . S
C955 C956 1.410 . S
C955 C963 1.503 . S
C956 C955 1.410 . S
C956 C957 1.392 . S
C956 C959 1.511 . S
C957 C953 1.376 . S
C957 C956 1.392 . S
C957 H969 0.929 . S
C958 C954 1.531 . S
C958 H970 0.960 . S
C958 H971 0.962 . S
C958 H972 0.960 . S
C959 C956 1.511 . S
C959 H973 0.961 . S
C959 H974 0.961 . S
C959 H975 0.961 . S
C960 C961 1.370 . S
C960 C962 1.363 . S
C960 H976 0.931 . S
C961 C960 1.370 . S
C961 C965 1.408 . S
C962 C960 1.363 . S
C962 C963 1.370 . S
C962 C966 1.524 . S
C963 C955 1.503 . S
C963 C962 1.370 . S
C963 C964 1.403 . S
C964 C963 1.403 . S
C964 C965 1.404 . S
C964 C967 1.539 . S
C965 C961 1.408 . S
C965 C964 1.404 . S
C965 H977 0.930 . S
C966 C962 1.524 . S
C966 H978 0.956 . S
C966 H979 0.961 . S
C966 H980 0.961 . S
C967 C964 1.539 . S
C967 H981 0.958 . S
C967 H982 0.961 . S
C967 H983 0.960 . S
H968 C952 0.931 . S
H969 C957 0.929 . S
H970 C958 0.960 . S
H971 C958 0.962 . S
H972 C958 0.960 . S
H973 C959 0.961 . S
H974 C959 0.961 . S
H975 C959 0.961 . S
H976 C960 0.931 . S
H977 C965 0.930 . S
H978 C966 0.956 . S
H979 C966 0.961 . S
H980 C966 0.961 . S
H981 C967 0.958 . S
H982 C967 0.961 . S
H983 C967 0.960 . S
C984 C985 1.391 . S
C984 C986 1.394 . S
C984 H1000 0.931 . S
C985 C984 1.391 . S
C985 C989 1.376 . S
C986 C984 1.394 . S
C986 C987 1.369 . S
C986 C990 1.531 . S
C987 C986 1.369 . S
C987 C988 1.410 . S
C987 C995 1.503 . S
C988 C987 1.410 . S
C988 C989 1.392 . S
C988 C991 1.511 . S
C989 C985 1.376 . S
C989 C988 1.392 . S
C989 H1001 0.929 . S
C990 C986 1.531 . S
C990 H1002 0.960 . S
C990 H1003 0.962 . S
C990 H1004 0.960 . S
C991 C988 1.511 . S
C991 H1005 0.961 . S
C991 H1006 0.961 . S
C991 H1007 0.961 . S
C992 C993 1.370 . S
C992 C994 1.363 . S
C992 H1008 0.931 . S
C993 C992 1.370 . S
C993 C997 1.408 . S
C994 C992 1.363 . S
C994 C995 1.370 . S
C994 C998 1.524 . S
C995 C987 1.503 . S
C995 C994 1.370 . S
C995 C996 1.403 . S
C996 C995 1.403 . S
C996 C997 1.404 . S
C996 C999 1.539 1_554 S
C997 C993 1.408 . S
C997 C996 1.404 . S
C997 H1009 0.930 1_554 S
C998 C994 1.524 . S
C998 H1010 0.956 . S
C998 H1011 0.961 . S
C998 H1012 0.961 . S
C999 C996 1.539 1_556 S
C999 H1013 0.958 . S
C999 H1014 0.961 . S
C999 H1015 0.960 . S
H1000 C984 0.931 . S
H1001 C989 0.929 . S
H1002 C990 0.960 . S
H1003 C990 0.962 . S
H1004 C990 0.960 . S
H1005 C991 0.961 . S
H1006 C991 0.961 . S
H1007 C991 0.961 . S
H1008 C992 0.931 . S
H1009 C997 0.930 1_556 S
H1010 C998 0.956 . S
H1011 C998 0.961 . S
H1012 C998 0.961 . S
H1013 C999 0.958 . S
H1014 C999 0.961 . S
H1015 C999 0.960 . S
C1016 C1017 1.391 . S
C1016 C1018 1.394 . S
C1016 H1032 0.931 . S
C1017 C1016 1.391 . S
C1017 C1021 1.376 . S
C1018 C1016 1.394 . S
C1018 C1019 1.369 . S
C1018 C1022 1.531 . S
C1019 C1018 1.369 . S
C1019 C1020 1.410 . S
C1019 C1027 1.503 . S
C1020 C1019 1.410 . S
C1020 C1021 1.392 . S
C1020 C1023 1.511 . S
C1021 C1017 1.376 . S
C1021 C1020 1.392 . S
C1021 H1033 0.929 . S
C1022 C1018 1.531 . S
C1022 H1034 0.960 . S
C1022 H1035 0.962 . S
C1022 H1036 0.960 . S
C1023 C1020 1.511 . S
C1023 H1037 0.961 . S
C1023 H1038 0.961 . S
C1023 H1039 0.961 . S
C1024 C1025 1.370 . S
C1024 C1026 1.363 . S
C1024 H1040 0.931 . S
C1025 C1024 1.370 . S
C1025 C1029 1.408 . S
C1026 C1024 1.363 . S
C1026 C1027 1.370 . S
C1026 C1030 1.524 . S
C1027 C1019 1.503 . S
C1027 C1026 1.370 . S
C1027 C1028 1.403 . S
C1028 C1027 1.403 . S
C1028 C1029 1.404 . S
C1028 C1031 1.539 . S
C1029 C1025 1.408 . S
C1029 C1028 1.404 . S
C1029 H1041 0.930 . S
C1030 C1026 1.524 . S
C1030 H1042 0.956 . S
C1030 H1043 0.961 . S
C1030 H1044 0.961 . S
C1031 C1028 1.539 . S
C1031 H1045 0.958 . S
C1031 H1046 0.961 . S
C1031 H1047 0.960 . S
H1032 C1016 0.931 . S
H1033 C1021 0.929 . S
H1034 C1022 0.960 . S
H1035 C1022 0.962 . S
H1036 C1022 0.960 . S
H1037 C1023 0.961 . S
H1038 C1023 0.961 . S
H1039 C1023 0.961 . S
H1040 C1024 0.931 . S
H1041 C1029 0.930 . S
H1042 C1030 0.956 . S
H1043 C1030 0.961 . S
H1044 C1030 0.961 . S
H1045 C1031 0.958 . S
H1046 C1031 0.961 . S
H1047 C1031 0.960 . S
C1048 C1049 1.391 . S
C1048 C1050 1.394 . S
C1048 H1064 0.931 . S
C1049 C1048 1.391 . S
C1049 C1053 1.376 . S
C1050 C1048 1.394 . S
C1050 C1051 1.369 . S
C1050 C1054 1.531 1_556 S
C1051 C1050 1.369 . S
C1051 C1052 1.410 . S
C1051 C1059 1.503 . S
C1052 C1051 1.410 . S
C1052 C1053 1.392 . S
C1052 C1055 1.511 . S
C1053 C1049 1.376 . S
C1053 C1052 1.392 . S
C1053 H1065 0.929 . S
C1054 C1050 1.531 1_554 S
C1054 H1066 0.960 . S
C1054 H1067 0.962 . S
C1054 H1068 0.960 . S
C1055 C1052 1.511 . S
C1055 H1069 0.961 . S
C1055 H1070 0.961 . S
C1055 H1071 0.961 . S
C1056 C1057 1.370 . S
C1056 C1058 1.363 . S
C1056 H1072 0.931 1_655 S
C1057 C1056 1.370 . S
C1057 C1061 1.408 . S
C1058 C1056 1.363 . S
C1058 C1059 1.370 . S
C1058 C1062 1.524 1_655 S
C1059 C1051 1.503 . S
C1059 C1058 1.370 . S
C1059 C1060 1.403 . S
C1060 C1059 1.403 . S
C1060 C1061 1.404 . S
C1060 C1063 1.539 . S
C1061 C1057 1.408 . S
C1061 C1060 1.404 . S
C1061 H1073 0.930 . S
C1062 C1058 1.524 1_455 S
C1062 H1074 0.956 . S
C1062 H1075 0.961 1_455 S
C1062 H1076 0.961 . S
C1063 C1060 1.539 . S
C1063 H1077 0.958 1_556 S
C1063 H1078 0.961 . S
C1063 H1079 0.960 . S
H1064 C1048 0.931 . S
H1065 C1053 0.929 . S
H1066 C1054 0.960 . S
H1067 C1054 0.962 . S
H1068 C1054 0.960 . S
H1069 C1055 0.961 . S
H1070 C1055 0.961 . S
H1071 C1055 0.961 . S
H1072 C1056 0.931 1_455 S
H1073 C1061 0.930 . S
H1074 C1062 0.956 . S
H1075 C1062 0.961 1_655 S
H1076 C1062 0.961 . S
H1077 C1063 0.958 1_554 S
H1078 C1063 0.961 . S
H1079 C1063 0.960 . S
C1080 C1081 1.391 . S
C1080 C1082 1.394 . S
C1080 H1096 0.931 . S
C1081 C1080 1.391 . S
C1081 C1085 1.376 . S
C1082 C1080 1.394 . S
C1082 C1083 1.369 . S
C1082 C1086 1.531 . S
C1083 C1082 1.369 . S
C1083 C1084 1.410 . S
C1083 C1091 1.503 . S
C1084 C1083 1.410 . S
C1084 C1085 1.392 . S
C1084 C1087 1.511 . S
C1085 C1081 1.376 . S
C1085 C1084 1.392 . S
C1085 H1097 0.929 . S
C1086 C1082 1.531 . S
C1086 H1098 0.960 . S
C1086 H1099 0.962 . S
C1086 H1100 0.960 . S
C1087 C1084 1.511 . S
C1087 H1101 0.961 . S
C1087 H1102 0.961 . S
C1087 H1103 0.961 . S
C1088 C1089 1.370 . S
C1088 C1090 1.363 . S
C1088 H1104 0.931 . S
C1089 C1088 1.370 . S
C1089 C1093 1.408 . S
C1090 C1088 1.363 . S
C1090 C1091 1.370 . S
C1090 C1094 1.524 . S
C1091 C1083 1.503 . S
C1091 C1090 1.370 . S
C1091 C1092 1.403 . S
C1092 C1091 1.403 . S
C1092 C1093 1.404 . S
C1092 C1095 1.539 1_554 S
C1093 C1089 1.408 . S
C1093 C1092 1.404 . S
C1093 H1105 0.930 1_554 S
C1094 C1090 1.524 . S
C1094 H1106 0.956 . S
C1094 H1107 0.961 . S
C1094 H1108 0.961 . S
C1095 C1092 1.539 1_556 S
C1095 H1109 0.958 . S
C1095 H1110 0.961 . S
C1095 H1111 0.960 . S
H1096 C1080 0.931 . S
H1097 C1085 0.929 . S
H1098 C1086 0.960 . S
H1099 C1086 0.962 . S
H1100 C1086 0.960 . S
H1101 C1087 0.961 . S
H1102 C1087 0.961 . S
H1103 C1087 0.961 . S
H1104 C1088 0.931 . S
H1105 C1093 0.930 1_556 S
H1106 C1094 0.956 . S
H1107 C1094 0.961 . S
H1108 C1094 0.961 . S
H1109 C1095 0.958 . S
H1110 C1095 0.961 . S
H1111 C1095 0.960 . S
C1112 C1113 1.391 . S
C1112 C1114 1.394 . S
C1112 H1128 0.931 . S
C1113 C1112 1.391 . S
C1113 C1117 1.376 . S
C1114 C1112 1.394 . S
C1114 C1115 1.369 . S
C1114 C1118 1.531 1_455 S
C1115 C1114 1.369 . S
C1115 C1116 1.410 . S
C1115 C1123 1.503 . S
C1116 C1115 1.410 . S
C1116 C1117 1.392 . S
C1116 C1119 1.511 . S
C1117 C1113 1.376 . S
C1117 C1116 1.392 . S
C1117 H1129 0.929 . S
C1118 C1114 1.531 1_655 S
C1118 H1130 0.960 . S
C1118 H1131 0.962 . S
C1118 H1132 0.960 . S
C1119 C1116 1.511 . S
C1119 H1133 0.961 . S
C1119 H1134 0.961 . S
C1119 H1135 0.961 . S
C1120 C1121 1.370 . S
C1120 C1122 1.363 . S
C1120 H1136 0.931 . S
C1121 C1120 1.370 . S
C1121 C1125 1.408 . S
C1122 C1120 1.363 . S
C1122 C1123 1.370 . S
C1122 C1126 1.524 . S
C1123 C1115 1.503 . S
C1123 C1122 1.370 . S
C1123 C1124 1.403 . S
C1124 C1123 1.403 . S
C1124 C1125 1.404 . S
C1124 C1127 1.539 . S
C1125 C1121 1.408 . S
C1125 C1124 1.404 . S
C1125 H1137 0.930 . S
C1126 C1122 1.524 . S
C1126 H1138 0.956 . S
C1126 H1139 0.961 . S
C1126 H1140 0.961 . S
C1127 C1124 1.539 . S
C1127 H1141 0.958 . S
C1127 H1142 0.961 . S
C1127 H1143 0.960 . S
H1128 C1112 0.931 . S
H1129 C1117 0.929 . S
H1130 C1118 0.960 . S
H1131 C1118 0.962 . S
H1132 C1118 0.960 . S
H1133 C1119 0.961 . S
H1134 C1119 0.961 . S
H1135 C1119 0.961 . S
H1136 C1120 0.931 . S
H1137 C1125 0.930 . S
H1138 C1126 0.956 . S
H1139 C1126 0.961 . S
H1140 C1126 0.961 . S
H1141 C1127 0.958 . S
H1142 C1127 0.961 . S
H1143 C1127 0.960 . S
C1144 C1145 1.391 . S
C1144 C1146 1.394 . S
C1144 H1160 0.931 . S
C1145 C1144 1.391 . S
C1145 C1149 1.376 . S
C1146 C1144 1.394 . S
C1146 C1147 1.369 . S
C1146 C1150 1.531 . S
C1147 C1146 1.369 . S
C1147 C1148 1.410 . S
C1147 C1155 1.503 . S
C1148 C1147 1.410 . S
C1148 C1149 1.392 . S
C1148 C1151 1.511 . S
C1149 C1145 1.376 . S
C1149 C1148 1.392 . S
C1149 H1161 0.929 . S
C1150 C1146 1.531 . S
C1150 H1162 0.960 . S
C1150 H1163 0.962 . S
C1150 H1164 0.960 . S
C1151 C1148 1.511 . S
C1151 H1165 0.961 . S
C1151 H1166 0.961 . S
C1151 H1167 0.961 . S
C1152 C1153 1.370 . S
C1152 C1154 1.363 . S
C1152 H1168 0.931 . S
C1153 C1152 1.370 . S
C1153 C1157 1.408 . S
C1154 C1152 1.363 . S
C1154 C1155 1.370 . S
C1154 C1158 1.524 . S
C1155 C1147 1.503 . S
C1155 C1154 1.370 . S
C1155 C1156 1.403 . S
C1156 C1155 1.403 . S
C1156 C1157 1.404 . S
C1156 C1159 1.539 . S
C1157 C1153 1.408 . S
C1157 C1156 1.404 . S
C1157 H1169 0.930 . S
C1158 C1154 1.524 . S
C1158 H1170 0.956 . S
C1158 H1171 0.961 . S
C1158 H1172 0.961 . S
C1159 C1156 1.539 . S
C1159 H1173 0.958 . S
C1159 H1174 0.961 . S
C1159 H1175 0.960 . S
H1160 C1144 0.931 . S
H1161 C1149 0.929 . S
H1162 C1150 0.960 . S
H1163 C1150 0.962 . S
H1164 C1150 0.960 . S
H1165 C1151 0.961 . S
H1166 C1151 0.961 . S
H1167 C1151 0.961 . S
H1168 C1152 0.931 . S
H1169 C1157 0.930 . S
H1170 C1158 0.956 . S
H1171 C1158 0.961 . S
H1172 C1158 0.961 . S
H1173 C1159 0.958 . S
H1174 C1159 0.961 . S
H1175 C1159 0.960 . S
C409 C1 2.129 . S
C417 C304 2.174 . S
C441 C67 1.102 . S
C449 N324 1.120 . S
C481 C358 1.987 . S
C473 C97 1.944 . S
C505 C133 1.351 . S
C513 N392 1.302 . S
C545 C345 2.346 . S
C537 C25 2.313 . S
C577 N302 1.181 . S
C569 C37 1.197 . S
C609 C379 2.010 . S
C601 C103 1.948 . S
C641 N354 1.056 . S
C633 C109 1.070 . S
C665 C31 1.786 . S
C673 C394 1.856 . S
C705 C328 1.716 . S
C697 C73 1.701 . S
C729 C139 1.517 . S
C737 C289 1.501 . S
C761 C61 1.446 . S
C769 C375 1.463 . S
C801 C315 2.182 . S
C793 C175 2.182 . S
C825 C181 1.138 . S
C833 N332 1.121 . S
C857 C247 2.001 . S
C865 C349 2.012 . S
C889 C277 1.330 . S
C897 N384 1.297 . S
C921 C145 2.331 . S
C929 C334 2.343 . S
C961 N294 1.196 . S
C953 C211 1.159 . S
C993 C388 1.991 . S
C985 C217 1.980 . S
C1025 N362 1.061 . S
C1017 C283 1.059 . S
C1049 C169 1.838 . S
C1057 C405 1.848 . S
C1089 C319 1.719 . S
C1081 C241 1.721 . S
C1121 C298 1.493 . S
C1113 C253 1.498 . S
C1145 C205 1.430 . S
C1153 C364 1.475 . S
