# Generated by pormake.
# Topology zzz, (3,6)-cn, num edge types: 1
# Building blocks:
#     Node 0, Type 0, BuildingBlock: ESEHIV_clean_linker_0, # of connection points: 3
#     Node 1, Type 0, BuildingBlock: ESEHIV_clean_linker_0, # of connection points: 3
#     Node 2, Type 0, BuildingBlock: ESEHIV_clean_linker_0, # of connection points: 3
#     Node 3, Type 0, BuildingBlock: ESEHIV_clean_linker_0, # of connection points: 3
#     Node 4, Type 0, BuildingBlock: ESEHIV_clean_linker_0, # of connection points: 3
#     Node 5, Type 0, BuildingBlock: ESEHIV_clean_linker_0, # of connection points: 3
#     Node 6, Type 0, BuildingBlock: ESEHIV_clean_linker_0, # of connection points: 3
#     Node 7, Type 0, BuildingBlock: ESEHIV_clean_linker_0, # of connection points: 3
#     Node 8, Type 1, BuildingBlock: HISSIN_clean_sbu_0, # of connection points: 6
#     Node 9, Type 1, BuildingBlock: HISSIN_clean_sbu_0, # of connection points: 6
#     Node 10, Type 1, BuildingBlock: HISSIN_clean_sbu_0, # of connection points: 6
#     Node 11, Type 1, BuildingBlock: HISSIN_clean_sbu_0, # of connection points: 6
#     Edge 12, Type (0, 1), BuildingBlock: OJICUG_clean_linker_0, # of connection points: 2
#     Edge 13, Type (0, 1), BuildingBlock: OJICUG_clean_linker_0, # of connection points: 2
#     Edge 14, Type (0, 1), BuildingBlock: OJICUG_clean_linker_0, # of connection points: 2
#     Edge 15, Type (0, 1), BuildingBlock: OJICUG_clean_linker_0, # of connection points: 2
#     Edge 16, Type (0, 1), BuildingBlock: OJICUG_clean_linker_0, # of connection points: 2
#     Edge 17, Type (0, 1), BuildingBlock: OJICUG_clean_linker_0, # of connection points: 2
#     Edge 18, Type (0, 1), BuildingBlock: OJICUG_clean_linker_0, # of connection points: 2
#     Edge 19, Type (0, 1), BuildingBlock: OJICUG_clean_linker_0, # of connection points: 2
#     Edge 20, Type (0, 1), BuildingBlock: OJICUG_clean_linker_0, # of connection points: 2
#     Edge 21, Type (0, 1), BuildingBlock: OJICUG_clean_linker_0, # of connection points: 2
#     Edge 22, Type (0, 1), BuildingBlock: OJICUG_clean_linker_0, # of connection points: 2
#     Edge 23, Type (0, 1), BuildingBlock: OJICUG_clean_linker_0, # of connection points: 2
#     Edge 24, Type (0, 1), BuildingBlock: OJICUG_clean_linker_0, # of connection points: 2
#     Edge 25, Type (0, 1), BuildingBlock: OJICUG_clean_linker_0, # of connection points: 2
#     Edge 26, Type (0, 1), BuildingBlock: OJICUG_clean_linker_0, # of connection points: 2
#     Edge 27, Type (0, 1), BuildingBlock: OJICUG_clean_linker_0, # of connection points: 2
#     Edge 28, Type (0, 1), BuildingBlock: OJICUG_clean_linker_0, # of connection points: 2
#     Edge 29, Type (0, 1), BuildingBlock: OJICUG_clean_linker_0, # of connection points: 2
#     Edge 30, Type (0, 1), BuildingBlock: OJICUG_clean_linker_0, # of connection points: 2
#     Edge 31, Type (0, 1), BuildingBlock: OJICUG_clean_linker_0, # of connection points: 2
#     Edge 32, Type (0, 1), BuildingBlock: OJICUG_clean_linker_0, # of connection points: 2
#     Edge 33, Type (0, 1), BuildingBlock: OJICUG_clean_linker_0, # of connection points: 2
#     Edge 34, Type (0, 1), BuildingBlock: OJICUG_clean_linker_0, # of connection points: 2
#     Edge 35, Type (0, 1), BuildingBlock: OJICUG_clean_linker_0, # of connection points: 2
# Relax obj value: 0.585
# Max RMSD: 0.269
# Mean RMSD: 0.200
data_MOF--net-zzz--node1-HISSIN_clean_sbu_0--node2-ESEHIV_clean_linker_0--edge1-OJICUG_clean_linker_0
_symmetry_space_group_name_H-M    P1
_symmetry_Int_Tables_number       1
_symmetry_cell_setting            triclinic
loop_
_symmetry_equiv_pos_as_xyz
'x, y, z'
_cell_length_a     30.75341
_cell_length_b     30.615382
_cell_length_c     11.831506
_cell_angle_alpha  90.092235
_cell_angle_beta   91.000586
_cell_angle_gamma 90.995388
loop_
_atom_site_label
_atom_site_type_symbol
_atom_site_fract_x
_atom_site_fract_y
_atom_site_fract_z
_atom_type_partial_charge
H0 H 0.82237 0.43621 0.33111 0.0
H1 H 0.70558 0.44868 0.13279 0.0
H2 H 0.74945 0.55509 0.3483 0.0
C3 C 0.79381 0.4548 0.30835 0.0
C4 C 0.78826 0.49616 0.35692 0.0
C5 C 0.76448 0.43798 0.22688 0.0
C6 C 0.72816 0.46198 0.19604 0.0
C7 C 0.72259 0.50441 0.23651 0.0
C8 C 0.75323 0.5222 0.31663 0.0
H9 H 0.09497 0.81044 0.41123 0.0
H10 H 0.09129 0.70458 0.17378 0.0
H11 H 0.97308 0.74602 0.33071 0.0
C12 C 0.07719 0.78399 0.36912 0.0
C13 C 0.03244 0.78037 0.38565 0.0
C14 C 0.09851 0.75748 0.2922 0.0
C15 C 0.07478 0.72526 0.23335 0.0
C16 C 0.02977 0.72028 0.24643 0.0
C17 C 1.00801 0.74856 0.32207 0.0
H18 H 0.72604 0.10861 0.3401 0.0
H19 H 0.83714 0.092 0.13238 0.0
H20 H 0.79206 0.98528 0.34027 0.0
C21 C 0.75266 0.08857 0.31286 0.0
C22 C 0.75648 0.0461 0.35639 0.0
C23 C 0.78093 0.1047 0.23049 0.0
C24 C 0.81463 0.07884 0.19382 0.0
C25 C 0.81891 0.03571 0.22999 0.0
C26 C 0.78937 0.01872 0.31174 0.0
H27 H 0.44761 0.72236 0.33035 0.0
H28 H 0.56653 0.79737 0.34014 0.0
H29 H 0.45584 0.84456 0.15222 0.0
C30 C 0.46493 0.75211 0.30828 0.0
C31 C 0.44599 0.78246 0.23358 0.0
C32 C 0.50711 0.75809 0.35316 0.0
C33 C 0.53286 0.79365 0.31312 0.0
C34 C 0.51392 0.82464 0.23837 0.0
C35 C 0.47013 0.81982 0.20584 0.0
H36 H 0.2373 0.60112 0.13285 0.0
H37 H 0.35332 0.5897 0.33503 0.0
H38 H 0.30592 0.47982 0.13609 0.0
C39 C 0.26541 0.58244 0.15874 0.0
C40 C 0.26945 0.53991 0.1171 0.0
C41 C 0.29511 0.60028 0.23783 0.0
C42 C 0.3304 0.57574 0.27358 0.0
C43 C 0.33442 0.53214 0.24018 0.0
C44 C 0.30345 0.51361 0.16188 0.0
H45 H 0.95226 0.22139 0.19067 0.0
H46 H 0.97151 0.33711 0.38942 0.0
H47 H 0.07186 0.29651 0.16341 0.0
C48 C 0.97199 0.25003 0.21222 0.0
C49 C 1.01254 0.25619 0.16104 0.0
C50 C 0.95799 0.2784 0.2965 0.0
C51 C 0.98322 0.31485 0.32563 0.0
C52 C 0.02437 0.32184 0.28043 0.0
C53 C 0.03975 0.29198 0.19798 0.0
H54 H 0.32578 0.94176 0.18224 0.0
H55 H 0.21233 0.95193 0.38528 0.0
H56 H 0.25388 0.0613 0.18306 0.0
C57 C 0.29776 0.95986 0.20879 0.0
C58 C 0.29177 1.00199 0.16506 0.0
C59 C 0.27017 0.94197 0.29038 0.0
C60 C 0.23484 0.96614 0.32559 0.0
C61 C 0.22891 1.00932 0.29158 0.0
C62 C 0.25773 0.02782 0.21019 0.0
H63 H 0.60333 0.32364 0.16718 0.0
H64 H 0.48388 0.24933 0.16368 0.0
H65 H 0.59083 0.20904 0.37494 0.0
C66 C 0.58549 0.29497 0.19474 0.0
C67 C 0.60321 0.26742 0.27803 0.0
C68 C 0.54357 0.2881 0.1488 0.0
C69 C 0.51715 0.25388 0.19338 0.0
C70 C 0.53465 0.2257 0.27732 0.0
C71 C 0.57773 0.23208 0.31473 0.0
Eu72 Eu 0.98715 0.03681 0.67718 0.0
Eu73 Eu 0.05917 1.00076 0.85052 0.0
C74 C 0.02985 0.10211 0.87601 0.0
C75 C 0.88755 0.09466 0.56943 0.0
C76 C 0.88761 0.12299 0.66259 0.0
C77 C 0.83929 0.14211 0.46894 0.0
C78 C 0.8667 0.16303 0.65303 0.0
C79 C 0.85953 0.10207 0.47855 0.0
C80 C 0.8495 0.17584 0.5469 0.0
C81 C 0.92278 0.0643 0.5536 0.0
O82 O 1.00057 1.00919 0.96312 0.0
O83 O 0.94909 1.00731 0.82249 0.0
C84 C 0.95958 1.00606 0.93053 0.0
O85 O 0.99937 0.97106 0.60127 0.0
O86 O 0.12614 1.00099 0.9152 0.0
O87 O 0.07816 0.95243 0.97641 0.0
O88 O 0.03457 0.94014 0.75191 0.0
C89 C 1.01518 0.93671 0.65173 0.0
O90 O 0.04784 0.04141 0.56849 0.0
O91 O 0.09915 0.01987 0.6988 0.0
O92 O 0.05594 0.07099 0.90994 0.0
O93 O 0.96166 0.08218 0.55336 0.0
O94 O 0.92091 0.02826 0.61157 0.0
O95 O 1.0018 0.09579 0.79149 0.0
C96 C 0.15141 0.9487 0.05284 0.0
C97 C 0.1399 0.93664 0.16204 0.0
C98 C 0.21124 0.89835 0.05942 0.0
C99 C 0.16207 0.90355 0.21676 0.0
C100 C 0.18923 0.93219 1.00519 0.0
C101 C 0.19552 0.88151 0.16159 0.0
C102 C 0.11814 0.96748 0.97979 0.0
C103 C 0.08859 0.03362 0.597 0.0
H104 H 0.90773 0.11656 0.73662 0.0
H105 H 0.82319 0.14854 0.38989 0.0
H106 H 0.87077 0.18617 0.72171 0.0
H107 H 0.85811 0.07958 0.40818 0.0
H108 H 0.11076 0.94922 0.19975 0.0
H109 H 0.2368 0.88185 1.01527 0.0
H110 H 0.14893 0.8915 0.29538 0.0
H111 H 0.19835 0.9413 0.92026 0.0
Eu112 Eu 0.54039 0.06385 0.84268 0.0
Eu113 Eu 0.50666 0.98607 0.67594 0.0
C114 C 0.54143 0.96335 0.92866 0.0
C115 C 0.59843 0.16248 0.98669 0.0
C116 C 0.6091 0.17546 0.09609 0.0
C117 C 0.66174 0.20163 0.91792 0.0
C118 C 0.64742 0.19828 0.11811 0.0
C119 C 0.62323 0.17766 0.89605 0.0
C120 C 0.67645 0.20834 1.03053 0.0
C121 C 0.56708 0.12666 0.97572 0.0
O122 O 0.44815 0.99758 0.79078 0.0
O123 O 0.47125 0.05547 0.90101 0.0
C124 C 0.44129 0.02641 0.87177 0.0
O125 O 0.5152 0.10061 0.6914 0.0
O126 O 0.51428 0.91905 0.6174 0.0
O127 O 0.46192 0.95848 0.55006 0.0
O128 O 0.50354 0.04585 0.56128 0.0
C129 C 0.50583 0.08762 0.58807 0.0
O130 O 0.60058 0.04898 0.73647 0.0
O131 O 0.57332 0.99948 0.60611 0.0
O132 O 0.53925 0.9513 0.82234 0.0
O133 O 0.5352 0.13082 0.90295 0.0
O134 O 0.58335 0.08755 0.97717 0.0
O135 O 0.53673 1.00442 0.95696 0.0
C136 C 0.44762 0.88393 0.5749 0.0
C137 C 0.41532 0.88814 0.65575 0.0
C138 C 0.40754 0.82329 0.49163 0.0
C139 C 0.377 0.86346 0.64462 0.0
C140 C 0.44572 0.84851 0.5006 0.0
C141 C 0.37012 0.83667 0.54814 0.0
C142 C 0.47873 0.91962 0.55626 0.0
C143 C 0.60536 0.02426 0.64561 0.0
H144 H 0.59069 0.16311 0.16659 0.0
H145 H 0.68242 0.20986 0.84769 0.0
H146 H 0.65666 0.20141 0.20621 0.0
H147 H 0.61503 0.16782 0.81019 0.0
H148 H 0.41756 0.91369 0.71916 0.0
H149 H 0.40525 0.79822 0.42796 0.0
H150 H 0.35103 0.8714 0.70094 0.0
H151 H 0.47191 0.84308 0.443 0.0
Eu152 Eu 0.48672 0.53559 0.82079 0.0
Eu153 Eu 0.5669 0.50708 0.66991 0.0
C154 C 0.58439 0.53921 0.92474 0.0
C155 C 0.39278 0.60218 0.91003 0.0
C156 C 0.41002 0.63927 0.85707 0.0
C157 C 0.33194 0.64408 0.97137 0.0
C158 C 0.3908 0.67952 0.87263 0.0
C159 C 0.35182 0.60381 0.95827 0.0
C160 C 0.35464 0.68277 0.94343 0.0
C161 C 0.41987 0.56416 0.92756 0.0
O162 O 0.55051 0.44605 0.77599 0.0
O163 O 0.49321 0.46709 0.88413 0.0
C164 C 0.52134 0.43777 0.85453 0.0
O165 O 0.45495 0.50243 0.66909 0.0
O166 O 0.63661 0.51186 0.63952 0.0
O167 O 0.59554 0.46802 0.53846 0.0
O168 O 0.51016 0.50811 0.54364 0.0
C169 C 0.46872 0.50178 0.56495 0.0
O170 O 0.50508 0.59749 0.72083 0.0
O171 O 0.55649 0.57396 0.59764 0.0
O172 O 0.59692 0.543 0.81995 0.0
O173 O 0.41685 0.53426 0.84948 0.0
O174 O 0.46007 0.57295 0.95843 0.0
O175 O 0.5435 0.52992 0.946 0.0
C176 C 0.66547 0.4449 0.58485 0.0
C177 C 0.65247 0.40845 0.64765 0.0
C178 C 0.72538 0.4043 0.51197 0.0
C179 C 0.67281 0.36876 0.6314 0.0
C180 C 0.70428 0.44391 0.52575 0.0
C181 C 0.70553 0.3654 0.54975 0.0
C182 C 0.63525 0.48039 0.56547 0.0
C183 C 0.53108 0.60457 0.63462 0.0
H184 H 0.44093 0.63805 0.81527 0.0
H185 H 0.30235 0.64538 1.01832 0.0
H186 H 0.40865 0.70819 0.84468 0.0
H187 H 0.33728 0.57476 0.99422 0.0
H188 H 0.62349 0.4093 0.69811 0.0
H189 H 0.7528 0.40299 0.45651 0.0
H190 H 0.65766 0.34016 0.66846 0.0
H191 H 0.71565 0.47261 0.48172 0.0
Eu192 Eu 0.03854 0.564 0.67346 0.0
Eu193 Eu 1.0113 0.48341 0.83539 0.0
C194 C 0.11139 0.51949 0.84748 0.0
C195 C 0.09936 0.6569 0.52374 0.0
C196 C 0.11002 0.65197 0.41017 0.0
C197 C 0.16755 0.69639 0.558 0.0
C198 C 0.14959 0.66758 0.37168 0.0
C199 C 0.12759 0.68077 0.59664 0.0
C200 C 0.17942 0.68868 0.44598 0.0
C201 C 0.05992 0.63526 0.56565 0.0
O202 O 1.01734 0.5431 0.94988 0.0
O203 O 0.99837 0.59143 0.81463 0.0
C204 C 1.00473 0.58233 0.92158 0.0
O205 O 0.97024 0.55094 0.6108 0.0
O206 O 0.97196 0.45743 0.97088 0.0
O207 O 0.01966 0.41631 0.89137 0.0
O208 O 0.94886 0.49659 0.73265 0.0
C209 C 0.94073 0.52329 0.64733 0.0
O210 O 0.05195 0.50566 0.55915 0.0
O211 O 0.03277 0.44923 0.6777 0.0
O212 O 0.08181 0.49195 0.8842 0.0
O213 O 0.0478 0.59894 0.51545 0.0
O214 O 0.05616 0.63301 0.67498 0.0
O215 O 0.10228 0.54848 0.76807 0.0
C216 C 0.95606 0.38281 0.95923 0.0
C217 C 0.94894 0.35981 0.05845 0.0
C218 C 0.88758 0.35515 0.88269 0.0
C219 C 0.90939 0.33844 0.07457 0.0
C220 C 0.92706 0.37755 0.86747 0.0
C221 C 0.87587 0.34109 0.99193 0.0
C222 C 0.98807 0.41835 0.96287 0.0
C223 C 0.04694 0.46356 0.5803 0.0
H224 H 0.0888 0.63408 0.35194 0.0
H225 H 0.19022 0.71201 0.61704 0.0
H226 H 0.15792 0.66016 0.28523 0.0
H227 H 0.11988 0.68553 0.68472 0.0
H228 H 0.97149 0.36325 0.12879 0.0
H229 H 0.86421 0.3546 0.81328 0.0
H230 H 0.90347 0.32677 0.15882 0.0
H231 H 0.93287 0.39429 0.78836 0.0
C232 C 0.15124 0.03288 0.31778 0.0
C233 C 0.19486 0.03287 0.3566 0.0
H234 H 0.08343 0.03327 0.3618 0.0
C235 C 0.2026 0.03905 0.47336 0.0
H236 H 0.14386 0.02711 0.22919 0.0
C237 C 0.16818 0.04135 0.5496 0.0
C238 C 0.12447 0.03831 0.51212 0.0
H239 H 0.23552 0.03765 0.50723 0.0
H240 H 0.17602 0.04331 0.63911 0.0
C241 C 0.1165 0.03588 0.39436 0.0
C242 C 0.49972 0.19994 0.45238 0.0
C243 C 0.50977 0.19125 0.33917 0.0
H244 H 0.49093 0.17457 0.61888 0.0
C245 C 0.51163 0.14726 0.30467 0.0
H246 H 0.49948 0.23338 0.48263 0.0
C247 C 0.50718 0.11305 0.38362 0.0
C248 C 0.50119 0.12215 0.49908 0.0
H249 H 0.52019 0.13937 0.21877 0.0
H250 H 0.51167 0.07977 0.3556 0.0
C251 C 0.4957 0.16603 0.53113 0.0
C252 C 0.35928 0.49105 0.40957 0.0
C253 C 0.36893 0.50775 0.30205 0.0
H254 H 0.38281 0.47622 0.57654 0.0
C255 C 0.41285 0.51639 0.27703 0.0
H256 H 0.32571 0.48576 0.43317 0.0
C257 C 0.44586 0.51128 0.35972 0.0
C258 C 0.43569 0.49811 0.47034 0.0
H259 H 0.42118 0.53099 0.19673 0.0
H260 H 0.47884 0.52092 0.33928 0.0
C261 C 0.39211 0.48642 0.49261 0.0
C262 C 0.06492 0.35276 0.44497 0.0
C263 C 0.04937 0.35898 0.3337 0.0
H264 H 0.07557 0.38047 0.60983 0.0
C265 C 0.04051 0.40209 0.29926 0.0
H266 H 0.0704 0.31997 0.47588 0.0
C267 C 0.04343 0.4372 0.37668 0.0
C268 C 0.05455 0.42988 0.49093 0.0
H269 H 0.02708 0.40805 0.21565 0.0
H270 H 0.03315 0.46923 0.34945 0.0
C271 C 0.06696 0.38749 0.52262 0.0
C272 C 0.84585 0.99962 0.057 0.0
C273 C 0.85359 1.01113 0.17097 0.0
H274 H 0.87235 0.98972 0.89271 0.0
C275 C 0.89725 1.01576 0.20813 0.0
H276 H 0.81277 0.99773 1.02403 0.0
C277 C 0.93187 1.01153 0.1321 0.0
C278 C 0.92381 1.00331 1.01612 0.0
H279 H 0.90452 0.02642 0.29383 0.0
H280 H 0.96478 0.01759 0.16295 0.0
C281 C 0.88024 0.99598 0.98087 0.0
C282 C 0.53146 0.90386 0.21088 0.0
C283 C 0.53799 0.86017 0.17912 0.0
H284 H 0.52782 0.97077 0.15764 0.0
C285 C 0.55164 0.85179 0.06848 0.0
H286 H 0.51921 0.91121 0.29398 0.0
C287 C 0.55517 0.88562 0.98902 0.0
C288 C 0.54558 0.92899 1.01825 0.0
H289 H 0.55519 0.81839 1.04004 0.0
H290 H 0.56293 0.87728 0.90278 0.0
C291 C 0.53562 0.93792 0.13176 0.0
C292 C 0.6947 0.54912 0.07651 0.0
C293 C 0.68655 0.52873 0.18061 0.0
H294 H 0.66928 0.5683 0.91446 0.0
C295 C 0.64319 0.51732 0.20559 0.0
H296 H 0.72786 0.5566 0.05264 0.0
C297 C 0.60936 0.52367 0.12583 0.0
C298 C 0.61811 0.54091 1.01807 0.0
H299 H 0.63606 0.49988 0.28288 0.0
H300 H 0.57693 0.51201 0.14565 0.0
C301 C 0.66105 0.55502 0.99631 0.0
C302 C 1.00805 0.6425 0.20585 0.0
C303 C 1.00816 0.68657 0.17224 0.0
H304 H 1.00727 0.57513 0.15418 0.0
C305 C 1.0022 0.69578 0.05657 0.0
H306 H 1.01365 0.63429 0.29379 0.0
C307 C 0.99854 0.66195 0.97619 0.0
C308 C 1.00141 0.61779 1.0089 0.0
H309 H 1.00386 0.72928 1.0273 0.0
H310 H 0.99622 0.67062 0.8876 0.0
C311 C 1.00491 0.60857 0.12537 0.0
C312 C 0.92552 0.26678 0.4849 0.0
C313 C 0.92055 0.26657 0.3668 0.0
H314 H 0.90446 0.24072 0.63993 0.0
C315 C 0.88194 0.25005 0.31842 0.0
H316 H 0.95473 0.28017 0.5252 0.0
C317 C 0.85115 0.2297 0.38633 0.0
C318 C 0.86131 0.22005 0.50031 0.0
H319 H 0.87692 0.2501 0.22762 0.0
H320 H 0.82267 0.21629 0.34501 0.0
C321 C 0.89599 0.24402 0.55143 0.0
C322 C 0.30604 0.86869 0.29703 0.0
C323 C 0.28176 0.90096 0.35025 0.0
H324 H 0.35158 0.81848 0.31835 0.0
C325 C 0.27312 0.89593 0.46615 0.0
H326 H 0.31051 0.869 0.20643 0.0
C327 C 0.29406 0.86401 0.52939 0.0
C328 C 0.32828 0.84084 0.48157 0.0
H329 H 0.25307 0.91851 0.51126 0.0
H330 H 0.28813 0.86299 0.61912 0.0
C331 C 0.329 0.83864 0.36216 0.0
C332 C 0.67434 0.30957 0.28679 0.0
C333 C 0.646 0.27851 0.33478 0.0
H334 H 0.71639 0.36319 0.31922 0.0
C335 C 0.65593 0.26411 0.44559 0.0
H336 H 0.67202 0.3184 0.19846 0.0
C337 C 0.68627 0.28707 0.51279 0.0
C338 C 0.70392 0.32664 0.47335 0.0
H339 H 0.63747 0.23862 0.48668 0.0
H340 H 0.68953 0.27825 0.60113 0.0
C341 C 0.70235 0.33412 0.35594 0.0
C342 C 0.28396 0.64031 0.41751 0.0
C343 C 0.28379 0.64052 0.2987 0.0
H344 H 0.24975 0.65965 0.56358 0.0
C345 C 0.2621 0.674 0.24125 0.0
H346 H 0.30106 0.61554 0.46502 0.0
C347 C 0.2341 0.70055 0.29895 0.0
C348 C 0.22524 0.6915 0.41242 0.0
H349 H 0.26199 0.67606 0.15013 0.0
H350 H 0.21298 0.72067 0.24877 0.0
C351 C 0.25474 0.66621 0.47475 0.0
C352 C 0.1714 0.7902 0.33847 0.0
C353 C 0.14309 0.7701 0.25886 0.0
H354 H 0.21392 0.84396 0.36772 0.0
C355 C 0.15258 0.774 0.14347 0.0
H356 H 0.16647 0.78599 0.42827 0.0
C357 C 0.18264 0.80559 0.10885 0.0
C358 C 0.20058 0.83489 0.18919 0.0
H359 H 0.13252 0.75791 0.07929 0.0
H360 H 0.18378 0.813 1.0194 0.0
C361 C 0.20022 0.82269 0.30347 0.0
C362 C 0.77316 0.14855 0.05421 0.0
C363 C 0.77217 0.14654 0.17286 0.0
H364 H 0.74509 0.17645 0.90692 0.0
C365 C 0.75613 0.18234 0.23222 0.0
H366 H 0.78658 0.12231 1.00504 0.0
C367 C 0.73611 0.21609 0.17336 0.0
C368 C 0.72393 0.20907 0.05942 0.0
H369 H 0.75573 0.18258 0.32374 0.0
H370 H 0.72063 0.24097 0.22225 0.0
C371 C 0.74975 0.18052 0.99718 0.0
C372 C 0.37662 0.73868 0.21383 0.0
C373 C 0.40425 0.77163 0.17224 0.0
H374 H 0.34276 0.68085 0.16978 0.0
C375 C 0.39687 0.78603 0.06021 0.0
H376 H 0.37785 0.729 0.30175 0.0
C377 C 0.37027 0.76145 0.98641 0.0
C378 C 0.35381 0.72076 1.02162 0.0
H379 H 0.41546 0.81258 1.02383 0.0
H380 H 0.36937 0.77027 0.89776 0.0
C381 C 0.35352 0.71205 0.13827 0.0
C382 C 0.77757 0.40447 1.04024 0.0
C383 C 0.77661 0.4 0.15811 0.0
H384 H 0.80833 0.38673 0.88948 0.0
C385 C 0.79507 0.36306 0.20797 0.0
H386 H 0.76278 0.43216 0.99869 0.0
C387 C 0.81957 0.33496 0.14289 0.0
C388 C 0.83018 0.34649 1.03119 0.0
H389 H 0.79378 0.35795 0.29843 0.0
H390 H 0.83543 0.30848 0.18551 0.0
C391 C 0.80396 0.37773 0.97685 0.0
C392 C 0.99642 0.21504 0.98063 0.0
C393 C 0.02457 0.22268 0.07423 0.0
H394 H 0.97583 0.17206 0.84591 0.0
C395 C 0.05695 0.19176 0.09666 0.0
H396 H 0.97045 0.23758 0.96234 0.0
C397 C 0.05977 0.15348 1.03028 0.0
C398 C 0.03029 0.145 0.93941 0.0
H399 H 0.07837 0.19583 0.16972 0.0
H400 H 0.0841 0.12975 0.05302 0.0
C401 C 0.99929 0.17706 0.91426 0.0
C402 C 0.35562 0.04905 0.09875 0.0
C403 C 0.32377 0.01645 0.07645 0.0
H404 H 0.41717 0.07783 0.05303 0.0
C405 C 0.32939 0.98972 0.98048 0.0
H406 H 0.35328 0.0694 0.1733 0.0
C407 C 0.36638 0.99387 0.91238 0.0
C408 C 0.39935 0.02504 0.93726 0.0
H409 H 0.3061 0.96362 0.96181 0.0
H410 H 0.36983 0.97137 0.84252 0.0
C411 C 0.39273 0.05335 1.03013 0.0
C412 C 0.49719 0.35029 0.07842 0.0
C413 C 0.52954 0.31952 0.05846 0.0
H414 H 0.46914 0.4114 1.03051 0.0
C415 C 0.55617 0.32583 0.96369 0.0
H416 H 0.47691 0.34715 0.15201 0.0
C417 C 0.55237 0.36299 0.89479 0.0
C418 C 0.52173 0.39519 0.9182 0.0
H419 H 0.58197 0.30315 0.94702 0.0
H420 H 0.57481 0.36728 0.82607 0.0
C421 C 0.49327 0.38754 1.00916 0.0
C422 C 0.22801 0.55173 0.9353 0.0
C423 C 0.23552 0.52546 1.0315 0.0
H424 H 0.18368 0.57097 0.80294 0.0
C425 C 0.20374 0.49388 0.05858 0.0
H426 H 0.25146 0.57697 0.91312 0.0
C427 C 0.16448 0.49059 0.99546 0.0
C428 C 0.15571 0.519 0.9038 0.0
H429 H 0.20782 0.4739 0.13338 0.0
H430 H 0.14007 0.46712 1.02243 0.0
C431 C 0.18879 0.54865 0.87264 0.0
C432 C 0.03118 0.81642 0.57553 0.0
C433 C 1.01437 0.81384 0.46384 0.0
H434 H 0.04539 0.85653 0.72115 0.0
C435 C 0.99376 0.85082 0.41943 0.0
H436 H 0.0486 0.78905 0.61104 0.0
C437 C 0.99235 0.88994 0.48231 0.0
C438 C 1.01191 0.89339 0.59118 0.0
H439 H 0.98188 0.85066 0.33269 0.0
H440 H 0.9778 0.91818 0.44286 0.0
C441 C 0.03006 0.85551 0.63808 0.0
C442 C 0.69119 1.00087 0.42024 0.0
C443 C 0.72362 0.03271 0.44388 0.0
H444 H 0.62895 0.97328 0.4638 0.0
C445 C 0.71837 0.0592 0.54048 0.0
H446 H 0.69335 0.98064 0.34544 0.0
C447 C 0.68119 0.05546 0.60815 0.0
C448 C 0.64757 0.02519 0.58141 0.0
H449 H 0.74223 0.08465 0.56034 0.0
H450 H 0.67802 0.07766 0.67875 0.0
C451 C 0.6538 0.99719 0.48778 0.0
C452 C 0.49705 0.71844 0.53657 0.0
C453 C 0.52183 0.72498 0.43861 0.0
H454 H 0.4804 0.67637 0.67445 0.0
C455 C 0.55261 0.69337 0.41174 0.0
H456 H 0.47239 0.74169 0.55851 0.0
C457 C 0.55686 0.65528 0.47791 0.0
C458 C 0.53036 0.64763 0.57273 0.0
H459 H 0.57139 0.69671 0.33554 0.0
H460 H 0.57975 0.63094 0.45162 0.0
C461 C 0.50131 0.68055 0.60263 0.0
C462 C 0.84998 0.54532 0.42858 0.0
C463 C 0.82107 0.51005 0.44606 0.0
H464 H 0.91015 0.5772 0.47753 0.0
C465 C 0.82972 0.48191 0.5379 0.0
H466 H 0.8449 0.56708 0.35765 0.0
C467 C 0.86727 0.48729 0.60626 0.0
C468 C 0.89766 0.52095 0.58488 0.0
H469 H 0.80848 0.45407 0.55316 0.0
H470 H 0.87343 0.46371 0.67256 0.0
C471 C 0.88777 0.55067 0.49689 0.0
loop_
_geom_bond_atom_site_label_1
_geom_bond_atom_site_label_2
_geom_bond_distance
_geom_bond_site_symmetry_2
_ccdc_geom_bond_type
H0 C3 0.931 . S
H1 C6 0.928 . S
H2 C8 0.930 . S
C3 H0 0.931 . S
C3 C4 1.413 . S
C3 C5 1.360 . S
C4 C3 1.413 . S
C4 C8 1.429 . S
C5 C3 1.360 . S
C5 C6 1.372 . S
C6 H1 0.928 . S
C6 C5 1.372 . S
C6 C7 1.404 . S
C7 C6 1.404 . S
C7 C8 1.391 . S
C8 H2 0.930 . S
C8 C4 1.429 . S
C8 C7 1.391 . S
H9 C12 0.931 . S
H10 C15 0.928 . S
H11 C17 0.930 . S
C12 H9 0.931 . S
C12 C13 1.413 . S
C12 C14 1.360 . S
C13 C12 1.413 . S
C13 C17 1.429 . S
C14 C12 1.360 . S
C14 C15 1.372 . S
C15 H10 0.928 . S
C15 C14 1.372 . S
C15 C16 1.404 . S
C16 C15 1.404 . S
C16 C17 1.391 . S
C17 H11 0.930 . S
C17 C13 1.429 . S
C17 C16 1.391 . S
H18 C21 0.931 . S
H19 C24 0.928 . S
H20 C26 0.930 . S
C21 H18 0.931 . S
C21 C22 1.413 . S
C21 C23 1.360 . S
C22 C21 1.413 . S
C22 C26 1.429 . S
C23 C21 1.360 . S
C23 C24 1.372 . S
C24 H19 0.928 . S
C24 C23 1.372 . S
C24 C25 1.404 . S
C25 C24 1.404 . S
C25 C26 1.391 . S
C26 H20 0.930 . S
C26 C22 1.429 . S
C26 C25 1.391 . S
H27 C30 0.931 . S
H28 C33 0.928 . S
H29 C35 0.930 . S
C30 H27 0.931 . S
C30 C31 1.413 . S
C30 C32 1.360 . S
C31 C30 1.413 . S
C31 C35 1.429 . S
C32 C30 1.360 . S
C32 C33 1.372 . S
C33 H28 0.928 . S
C33 C32 1.372 . S
C33 C34 1.404 . S
C34 C33 1.404 . S
C34 C35 1.391 . S
C35 H29 0.930 . S
C35 C31 1.429 . S
C35 C34 1.391 . S
H36 C39 0.931 . S
H37 C42 0.928 . S
H38 C44 0.930 . S
C39 H36 0.931 . S
C39 C40 1.413 1_554 S
C39 C41 1.360 . S
C40 C39 1.413 1_556 S
C40 C44 1.429 . S
C41 C39 1.360 . S
C41 C42 1.372 . S
C42 H37 0.928 . S
C42 C41 1.372 . S
C42 C43 1.404 . S
C43 C42 1.404 . S
C43 C44 1.391 1_554 S
C44 H38 0.930 . S
C44 C40 1.429 . S
C44 C43 1.391 1_556 S
H45 C48 0.929 1_556 S
H46 C51 0.928 . S
H47 C53 0.930 . S
C48 H45 0.929 1_554 S
C48 C49 1.409 1_554 S
C48 C50 1.366 . S
C49 C48 1.409 1_556 S
C49 C53 1.429 . S
C50 C48 1.366 . S
C50 C51 1.372 . S
C51 H46 0.928 . S
C51 C50 1.372 . S
C51 C52 1.404 . S
C52 C51 1.404 . S
C52 C53 1.391 1_554 S
C53 H47 0.930 . S
C53 C49 1.429 . S
C53 C52 1.391 1_556 S
H54 C57 0.931 . S
H55 C60 0.928 . S
H56 C62 0.930 . S
C57 H54 0.931 . S
C57 C58 1.413 . S
C57 C59 1.360 1_556 S
C58 C57 1.413 . S
C58 C62 1.429 . S
C59 C57 1.360 1_554 S
C59 C60 1.372 . S
C60 H55 0.928 . S
C60 C59 1.372 . S
C60 C61 1.404 . S
C61 C60 1.404 . S
C61 C62 1.391 1_554 S
C62 H56 0.930 . S
C62 C58 1.429 . S
C62 C61 1.391 1_556 S
H63 C66 0.931 . S
H64 C69 0.928 . S
H65 C71 0.930 . S
C66 H63 0.931 . S
C66 C67 1.413 . S
C66 C68 1.360 1_554 S
C67 C66 1.413 . S
C67 C71 1.429 . S
C68 C66 1.360 1_556 S
C68 C69 1.372 . S
C69 H64 0.928 . S
C69 C68 1.372 . S
C69 C70 1.404 1_556 S
C70 C69 1.404 1_554 S
C70 C71 1.391 . S
C71 H65 0.930 . S
C71 C67 1.429 . S
C71 C70 1.391 . S
Eu72 C81 2.828 . S
Eu72 O83 2.392 . S
Eu72 O85 2.418 1_545 S
Eu72 O90 2.373 1_655 S
Eu72 O93 2.488 . S
Eu72 O94 2.471 . S
Eu72 O95 2.349 1_655 S
Eu73 O82 2.373 1_455 S
Eu73 O86 2.488 . S
Eu73 O87 2.471 . S
Eu73 O88 2.350 . S
Eu73 O91 2.392 1_565 S
Eu73 O92 2.418 1_565 S
Eu73 C102 2.828 . S
C74 O92 1.244 . S
C74 O95 1.265 . S
C75 C76 1.379 . S
C75 C79 1.373 . S
C75 C81 1.505 . S
C76 C75 1.379 . S
C76 C78 1.369 . S
C76 H104 0.930 1_655 S
C77 C79 1.383 . S
C77 C80 1.382 . S
C77 H105 0.930 . S
C78 C76 1.369 . S
C78 C80 1.392 . S
C78 H106 0.930 1_655 S
C79 C75 1.373 . S
C79 C77 1.383 . S
C79 H107 0.931 . S
C80 C77 1.382 . S
C80 C78 1.392 . S
C81 Eu72 2.828 . S
C81 C75 1.505 . S
C81 O93 1.249 . S
C81 O94 1.244 . S
O82 Eu73 2.373 1_655 S
O82 C84 1.258 . S
O83 Eu72 2.392 . S
O83 C84 1.242 1_545 S
C84 O82 1.258 . S
C84 O83 1.242 1_565 S
O85 Eu72 2.418 1_565 S
O85 C89 1.244 . S
O86 Eu73 2.488 . S
O86 C102 1.249 . S
O87 Eu73 2.471 . S
O87 C102 1.244 . S
O88 Eu73 2.350 . S
O88 C89 1.264 1_455 S
C89 O85 1.244 . S
C89 O88 1.264 1_655 S
O90 Eu72 2.373 1_455 S
O90 C103 1.258 . S
O91 Eu73 2.392 1_545 S
O91 C103 1.242 . S
O92 Eu73 2.418 1_545 S
O92 C74 1.244 . S
O93 Eu72 2.488 . S
O93 C81 1.249 . S
O94 Eu72 2.471 . S
O94 C81 1.244 . S
O95 Eu72 2.349 1_455 S
O95 C74 1.265 . S
C96 C97 1.379 . S
C96 C100 1.373 . S
C96 C102 1.505 1_554 S
C97 C96 1.379 . S
C97 C99 1.369 . S
C97 H108 0.930 . S
C98 C100 1.383 . S
C98 C101 1.382 . S
C98 H109 0.930 . S
C99 C97 1.369 . S
C99 C101 1.392 . S
C99 H110 0.930 . S
C100 C96 1.373 . S
C100 C98 1.383 . S
C100 H111 0.931 . S
C101 C98 1.382 . S
C101 C99 1.392 . S
C102 Eu73 2.828 . S
C102 O86 1.249 . S
C102 O87 1.244 . S
C102 C96 1.505 1_556 S
C103 O90 1.258 . S
C103 O91 1.242 . S
H104 C76 0.930 1_455 S
H105 C77 0.930 . S
H106 C78 0.930 1_455 S
H107 C79 0.931 . S
H108 C97 0.930 . S
H109 C98 0.930 . S
H110 C99 0.930 . S
H111 C100 0.931 . S
Eu112 C121 2.828 . S
Eu112 O123 2.392 . S
Eu112 O125 2.418 . S
Eu112 O130 2.373 . S
Eu112 O133 2.488 . S
Eu112 O134 2.471 . S
Eu112 O135 2.349 1_545 S
Eu113 O122 2.362 1_565 S
Eu113 O126 2.488 . S
Eu113 O127 2.471 . S
Eu113 O128 2.349 1_565 S
Eu113 O131 2.392 . S
Eu113 O132 2.418 . S
Eu113 C142 2.828 . S
C114 O132 1.244 . S
C114 O135 1.265 . S
C115 C116 1.379 1_556 S
C115 C119 1.373 . S
C115 C121 1.505 . S
C116 C115 1.379 1_554 S
C116 C118 1.369 . S
C116 H144 0.930 1_545 S
C117 C119 1.379 1_554 S
C117 C120 1.382 . S
C117 H145 0.930 . S
C118 C116 1.369 . S
C118 C120 1.392 . S
C118 H146 0.930 1_545 S
C119 C115 1.373 . S
C119 C117 1.379 1_556 S
C119 H147 0.935 . S
C120 C117 1.382 . S
C120 C118 1.392 . S
C121 Eu112 2.828 . S
C121 C115 1.505 . S
C121 O133 1.249 . S
C121 O134 1.244 . S
O122 Eu113 2.362 1_545 S
O122 C124 1.277 . S
O123 Eu112 2.392 . S
O123 C124 1.242 . S
C124 O122 1.277 . S
C124 O123 1.242 . S
O125 Eu112 2.418 . S
O125 C129 1.244 . S
O126 Eu113 2.488 . S
O126 C142 1.249 . S
O127 Eu113 2.471 . S
O127 C142 1.244 . S
O128 Eu113 2.349 1_545 S
O128 C129 1.265 . S
C129 O125 1.244 . S
C129 O128 1.265 . S
O130 Eu112 2.373 . S
O130 C143 1.258 1_545 S
O131 Eu113 2.392 . S
O131 C143 1.242 . S
O132 Eu113 2.418 . S
O132 C114 1.244 . S
O133 Eu112 2.488 . S
O133 C121 1.249 . S
O134 Eu112 2.471 . S
O134 C121 1.244 . S
O135 Eu112 2.349 1_565 S
O135 C114 1.265 . S
C136 C137 1.379 . S
C136 C140 1.373 . S
C136 C142 1.505 . S
C137 C136 1.379 . S
C137 C139 1.369 . S
C137 H148 0.930 1_565 S
C138 C140 1.383 . S
C138 C141 1.382 . S
C138 H149 0.930 . S
C139 C137 1.369 . S
C139 C141 1.392 . S
C139 H150 0.930 1_565 S
C140 C136 1.373 . S
C140 C138 1.383 . S
C140 H151 0.931 . S
C141 C138 1.382 . S
C141 C139 1.392 . S
C142 Eu113 2.828 . S
C142 O126 1.249 . S
C142 O127 1.244 . S
C142 C136 1.505 . S
C143 O130 1.258 1_565 S
C143 O131 1.242 . S
H144 C116 0.930 1_565 S
H145 C117 0.930 . S
H146 C118 0.930 1_565 S
H147 C119 0.935 . S
H148 C137 0.930 1_545 S
H149 C138 0.930 . S
H150 C139 0.930 1_545 S
H151 C140 0.931 . S
Eu152 C161 2.828 . S
Eu152 O163 2.392 . S
Eu152 O165 2.418 . S
Eu152 O170 2.373 . S
Eu152 O173 2.488 . S
Eu152 O174 2.471 . S
Eu152 O175 2.349 . S
Eu153 O162 2.373 . S
Eu153 O166 2.488 . S
Eu153 O167 2.471 . S
Eu153 O168 2.349 . S
Eu153 O171 2.392 . S
Eu153 O172 2.418 . S
Eu153 C182 2.828 . S
C154 O172 1.244 . S
C154 O175 1.265 . S
C155 C156 1.379 1_556 S
C155 C159 1.373 . S
C155 C161 1.505 . S
C156 C155 1.379 1_554 S
C156 C158 1.369 . S
C156 H184 0.930 . S
C157 C159 1.383 1_554 S
C157 C160 1.382 . S
C157 H185 0.930 . S
C158 C156 1.369 . S
C158 C160 1.392 . S
C158 H186 0.930 . S
C159 C155 1.373 . S
C159 C157 1.383 1_556 S
C159 H187 0.931 . S
C160 C157 1.382 . S
C160 C158 1.392 . S
C161 Eu152 2.828 . S
C161 C155 1.505 . S
C161 O173 1.249 . S
C161 O174 1.244 . S
O162 Eu153 2.373 . S
O162 C164 1.258 . S
O163 Eu152 2.392 . S
O163 C164 1.242 . S
C164 O162 1.258 . S
C164 O163 1.242 . S
O165 Eu152 2.418 . S
O165 C169 1.244 . S
O166 Eu153 2.488 . S
O166 C182 1.249 . S
O167 Eu153 2.471 . S
O167 C182 1.244 . S
O168 Eu153 2.349 . S
O168 C169 1.265 . S
C169 O165 1.244 . S
C169 O168 1.265 . S
O170 Eu152 2.373 . S
O170 C183 1.258 . S
O171 Eu153 2.392 . S
O171 C183 1.242 . S
O172 Eu153 2.418 . S
O172 C154 1.244 . S
O173 Eu152 2.488 . S
O173 C161 1.249 . S
O174 Eu152 2.471 . S
O174 C161 1.244 . S
O175 Eu152 2.349 . S
O175 C154 1.265 . S
C176 C177 1.379 . S
C176 C180 1.373 . S
C176 C182 1.505 . S
C177 C176 1.379 . S
C177 C179 1.369 . S
C177 H188 0.930 . S
C178 C180 1.383 . S
C178 C181 1.382 . S
C178 H189 0.930 . S
C179 C177 1.369 . S
C179 C181 1.392 . S
C179 H190 0.930 . S
C180 C176 1.373 . S
C180 C178 1.383 . S
C180 H191 0.931 . S
C181 C178 1.382 . S
C181 C179 1.392 . S
C182 Eu153 2.828 . S
C182 O166 1.249 . S
C182 O167 1.244 . S
C182 C176 1.505 . S
C183 O170 1.258 . S
C183 O171 1.242 . S
H184 C156 0.930 . S
H185 C157 0.930 . S
H186 C158 0.930 . S
H187 C159 0.931 . S
H188 C177 0.930 . S
H189 C178 0.930 . S
H190 C179 0.930 . S
H191 C180 0.931 . S
Eu192 C201 2.828 . S
Eu192 O203 2.392 . S
Eu192 O205 2.418 1_455 S
Eu192 O210 2.373 . S
Eu192 O213 2.488 . S
Eu192 O214 2.471 . S
Eu192 O215 2.349 . S
Eu193 O202 2.373 . S
Eu193 O206 2.488 . S
Eu193 O207 2.471 . S
Eu193 O208 2.349 . S
Eu193 O211 2.392 1_655 S
Eu193 O212 2.418 1_655 S
Eu193 C222 2.828 . S
C194 O212 1.244 . S
C194 O215 1.265 . S
C195 C196 1.379 . S
C195 C199 1.373 . S
C195 C201 1.505 . S
C196 C195 1.379 . S
C196 C198 1.369 . S
C196 H224 0.930 . S
C197 C199 1.383 . S
C197 C200 1.382 . S
C197 H225 0.930 . S
C198 C196 1.369 . S
C198 C200 1.392 . S
C198 H226 0.930 . S
C199 C195 1.373 . S
C199 C197 1.383 . S
C199 H227 0.931 . S
C200 C197 1.382 . S
C200 C198 1.392 . S
C201 Eu192 2.828 . S
C201 C195 1.505 . S
C201 O213 1.249 . S
C201 O214 1.244 . S
O202 Eu193 2.373 . S
O202 C204 1.258 . S
O203 Eu192 2.392 . S
O203 C204 1.242 1_455 S
C204 O202 1.258 . S
C204 O203 1.242 1_655 S
O205 Eu192 2.418 1_655 S
O205 C209 1.244 . S
O206 Eu193 2.488 . S
O206 C222 1.249 . S
O207 Eu193 2.471 . S
O207 C222 1.244 . S
O208 Eu193 2.349 . S
O208 C209 1.265 . S
C209 O205 1.244 . S
C209 O208 1.265 . S
O210 Eu192 2.373 . S
O210 C223 1.258 . S
O211 Eu193 2.392 1_455 S
O211 C223 1.242 . S
O212 Eu193 2.418 1_455 S
O212 C194 1.244 . S
O213 Eu192 2.488 . S
O213 C201 1.249 . S
O214 Eu192 2.471 . S
O214 C201 1.244 . S
O215 Eu192 2.349 . S
O215 C194 1.265 . S
C216 C217 1.379 . S
C216 C220 1.373 . S
C216 C222 1.505 1_554 S
C217 C216 1.379 . S
C217 C219 1.369 . S
C217 H228 0.930 1_554 S
C218 C220 1.383 . S
C218 C221 1.382 . S
C218 H229 0.930 . S
C219 C217 1.369 . S
C219 C221 1.392 . S
C219 H230 0.930 . S
C220 C216 1.373 . S
C220 C218 1.383 . S
C220 H231 0.931 . S
C221 C218 1.382 . S
C221 C219 1.392 . S
C222 Eu193 2.828 . S
C222 O206 1.249 . S
C222 O207 1.244 . S
C222 C216 1.505 1_556 S
C223 O210 1.258 . S
C223 O211 1.242 . S
H224 C196 0.930 . S
H225 C197 0.930 . S
H226 C198 0.930 . S
H227 C199 0.931 . S
H228 C217 0.930 1_556 S
H229 C218 0.930 . S
H230 C219 0.930 . S
H231 C220 0.931 . S
C232 C233 1.387 1_565 S
C232 H236 0.950 . S
C232 C241 1.390 . S
C233 C232 1.387 1_545 S
C233 C235 1.387 . S
H234 C241 0.950 . S
C235 C233 1.387 . S
C235 C237 1.390 . S
C235 H239 0.950 . S
H236 C232 0.950 . S
C237 C235 1.390 . S
C237 C238 1.387 . S
C237 H240 0.950 . S
C238 C237 1.387 . S
C238 C241 1.387 1_545 S
H239 C235 0.950 . S
H240 C237 0.950 . S
C241 C232 1.390 . S
C241 H234 0.950 . S
C241 C238 1.387 1_565 S
C242 C243 1.387 . S
C242 H246 0.950 . S
C242 C251 1.390 . S
C243 C242 1.387 . S
C243 C245 1.387 . S
H244 C251 0.950 . S
C245 C243 1.387 . S
C245 C247 1.390 . S
C245 H249 0.950 . S
H246 C242 0.950 . S
C247 C245 1.390 . S
C247 C248 1.387 . S
C247 H250 0.950 . S
C248 C247 1.387 . S
C248 C251 1.387 . S
H249 C245 0.950 . S
H250 C247 0.950 . S
C251 C242 1.390 . S
C251 H244 0.950 . S
C251 C248 1.387 . S
C252 C253 1.387 . S
C252 H256 0.950 . S
C252 C261 1.390 . S
C253 C252 1.387 . S
C253 C255 1.387 . S
H254 C261 0.950 . S
C255 C253 1.387 . S
C255 C257 1.390 . S
C255 H259 0.950 . S
H256 C252 0.950 . S
C257 C255 1.390 . S
C257 C258 1.387 . S
C257 H260 0.950 . S
C258 C257 1.387 . S
C258 C261 1.387 . S
H259 C255 0.950 . S
H260 C257 0.950 . S
C261 C252 1.390 . S
C261 H254 0.950 . S
C261 C258 1.387 . S
C262 C263 1.387 . S
C262 H266 0.950 . S
C262 C271 1.390 . S
C263 C262 1.387 . S
C263 C265 1.387 . S
H264 C271 0.950 . S
C265 C263 1.387 . S
C265 C267 1.390 . S
C265 H269 0.950 . S
H266 C262 0.950 . S
C267 C265 1.390 . S
C267 C268 1.387 . S
C267 H270 0.950 . S
C268 C267 1.387 . S
C268 C271 1.387 . S
H269 C265 0.950 . S
H270 C267 0.950 . S
C271 C262 1.390 . S
C271 H264 0.950 . S
C271 C268 1.387 . S
C272 C273 1.387 . S
C272 H276 0.950 . S
C272 C281 1.390 . S
C273 C272 1.387 . S
C273 C275 1.387 1_565 S
H274 C281 0.950 . S
C275 C273 1.387 1_545 S
C275 C277 1.390 . S
C275 H279 0.950 . S
H276 C272 0.950 . S
C277 C275 1.390 . S
C277 C278 1.387 1_545 S
C277 H280 0.950 . S
C278 C277 1.387 1_565 S
C278 C281 1.387 . S
H279 C275 0.950 . S
H280 C277 0.950 . S
C281 C272 1.390 . S
C281 H274 0.950 . S
C281 C278 1.387 . S
C282 C283 1.387 . S
C282 H286 0.950 . S
C282 C291 1.390 . S
C283 C282 1.387 . S
C283 C285 1.387 . S
H284 C291 0.950 1_556 S
C285 C283 1.387 . S
C285 C287 1.390 . S
C285 H289 0.950 . S
H286 C282 0.950 . S
C287 C285 1.390 . S
C287 C288 1.387 . S
C287 H290 0.950 . S
C288 C287 1.387 . S
C288 C291 1.387 . S
H289 C285 0.950 . S
H290 C287 0.950 . S
C291 C282 1.390 . S
C291 H284 0.950 1_554 S
C291 C288 1.387 . S
C292 C293 1.387 . S
C292 H296 0.950 . S
C292 C301 1.390 . S
C293 C292 1.387 . S
C293 C295 1.387 . S
H294 C301 0.950 . S
C295 C293 1.387 . S
C295 C297 1.390 . S
C295 H299 0.950 . S
H296 C292 0.950 . S
C297 C295 1.390 . S
C297 C298 1.387 . S
C297 H300 0.950 . S
C298 C297 1.387 . S
C298 C301 1.387 . S
H299 C295 0.950 . S
H300 C297 0.950 . S
C301 C292 1.390 . S
C301 H294 0.950 . S
C301 C298 1.387 . S
C302 C303 1.387 . S
C302 H306 0.950 . S
C302 C311 1.390 . S
C303 C302 1.387 . S
C303 C305 1.387 . S
H304 C311 0.950 . S
C305 C303 1.387 . S
C305 C307 1.390 . S
C305 H309 0.950 . S
H306 C302 0.950 . S
C307 C305 1.390 . S
C307 C308 1.387 . S
C307 H310 0.950 1_554 S
C308 C307 1.387 . S
C308 C311 1.387 . S
H309 C305 0.950 . S
H310 C307 0.950 1_556 S
C311 C302 1.390 . S
C311 H304 0.950 . S
C311 C308 1.387 . S
C312 C313 1.387 . S
C312 H316 0.950 1_554 S
C312 C321 1.390 1_455 S
C313 C312 1.387 . S
C313 C315 1.387 . S
H314 C321 0.950 1_556 S
C315 C313 1.387 . S
C315 C317 1.390 1_455 S
C315 H319 0.950 . S
H316 C312 0.950 1_556 S
C317 C315 1.390 1_655 S
C317 C318 1.387 . S
C317 H320 0.950 . S
C318 C317 1.387 . S
C318 C321 1.387 . S
H319 C315 0.950 . S
H320 C317 0.950 . S
C321 C312 1.390 1_655 S
C321 H314 0.950 1_554 S
C321 C318 1.387 . S
C322 C323 1.387 . S
C322 H326 0.950 . S
C322 C331 1.390 1_545 S
C323 C322 1.387 . S
C323 C325 1.387 . S
H324 C331 0.950 . S
C325 C323 1.387 . S
C325 C327 1.390 1_545 S
C325 H329 0.950 . S
H326 C322 0.950 . S
C327 C325 1.390 1_565 S
C327 C328 1.387 . S
C327 H330 0.950 . S
C328 C327 1.387 . S
C328 C331 1.387 . S
H329 C325 0.950 . S
H330 C327 0.950 . S
C331 C322 1.390 1_565 S
C331 H324 0.950 . S
C331 C328 1.387 . S
C332 C333 1.387 . S
C332 H336 0.950 . S
C332 C341 1.390 . S
C333 C332 1.387 . S
C333 C335 1.387 . S
H334 C341 0.950 . S
C335 C333 1.387 . S
C335 C337 1.390 . S
C335 H339 0.950 . S
H336 C332 0.950 . S
C337 C335 1.390 . S
C337 C338 1.387 . S
C337 H340 0.950 . S
C338 C337 1.387 . S
C338 C341 1.387 . S
H339 C335 0.950 . S
H340 C337 0.950 . S
C341 C332 1.390 . S
C341 H334 0.950 . S
C341 C338 1.387 . S
C342 C343 1.387 . S
C342 H346 0.950 . S
C342 C351 1.390 . S
C343 C342 1.387 . S
C343 C345 1.387 . S
H344 C351 0.950 . S
C345 C343 1.387 . S
C345 C347 1.390 . S
C345 H349 0.950 . S
H346 C342 0.950 . S
C347 C345 1.390 . S
C347 C348 1.387 . S
C347 H350 0.950 . S
C348 C347 1.387 . S
C348 C351 1.387 . S
H349 C345 0.950 . S
H350 C347 0.950 . S
C351 C342 1.390 . S
C351 H344 0.950 . S
C351 C348 1.387 . S
C352 C353 1.387 . S
C352 H356 0.950 . S
C352 C361 1.390 1_655 S
C353 C352 1.387 . S
C353 C355 1.387 . S
H354 C361 0.950 . S
C355 C353 1.387 . S
C355 C357 1.390 1_655 S
C355 H359 0.950 . S
H356 C352 0.950 . S
C357 C355 1.390 1_455 S
C357 C358 1.387 . S
C357 H360 0.950 . S
C358 C357 1.387 . S
C358 C361 1.387 . S
H359 C355 0.950 . S
H360 C357 0.950 . S
C361 C352 1.390 1_455 S
C361 H354 0.950 . S
C361 C358 1.387 . S
C362 C363 1.387 . S
C362 H366 0.950 . S
C362 C371 1.390 1_565 S
C363 C362 1.387 . S
C363 C365 1.387 1_565 S
H364 C371 0.950 . S
C365 C363 1.387 1_545 S
C365 C367 1.390 . S
C365 H369 0.950 . S
H366 C362 0.950 . S
C367 C365 1.390 . S
C367 C368 1.387 . S
C367 H370 0.950 . S
C368 C367 1.387 . S
C368 C371 1.387 . S
H369 C365 0.950 . S
H370 C367 0.950 . S
C371 C362 1.390 1_545 S
C371 H364 0.950 . S
C371 C368 1.387 . S
C372 C373 1.387 . S
C372 H376 0.950 . S
C372 C381 1.390 . S
C373 C372 1.387 . S
C373 C375 1.387 . S
H374 C381 0.950 . S
C375 C373 1.387 . S
C375 C377 1.390 . S
C375 H379 0.950 . S
H376 C372 0.950 . S
C377 C375 1.390 . S
C377 C378 1.387 . S
C377 H380 0.950 . S
C378 C377 1.387 . S
C378 C381 1.387 . S
H379 C375 0.950 . S
H380 C377 0.950 . S
C381 C372 1.390 . S
C381 H374 0.950 . S
C381 C378 1.387 . S
C382 C383 1.387 . S
C382 H386 0.950 . S
C382 C391 1.390 . S
C383 C382 1.387 . S
C383 C385 1.387 . S
H384 C391 0.950 . S
C385 C383 1.387 . S
C385 C387 1.390 . S
C385 H389 0.950 . S
H386 C382 0.950 . S
C387 C385 1.390 . S
C387 C388 1.387 . S
C387 H390 0.950 . S
C388 C387 1.387 . S
C388 C391 1.387 . S
H389 C385 0.950 . S
H390 C387 0.950 . S
C391 C382 1.390 . S
C391 H384 0.950 . S
C391 C388 1.387 . S
C392 C393 1.387 . S
C392 H396 0.950 . S
C392 C401 1.390 . S
C393 C392 1.387 . S
C393 C395 1.387 . S
H394 C401 0.950 . S
C395 C393 1.387 . S
C395 C397 1.390 . S
C395 H399 0.950 . S
H396 C392 0.950 . S
C397 C395 1.390 . S
C397 C398 1.387 . S
C397 H400 0.950 . S
C398 C397 1.387 . S
C398 C401 1.387 . S
H399 C395 0.950 . S
H400 C397 0.950 . S
C401 C392 1.390 . S
C401 H394 0.950 . S
C401 C398 1.387 . S
C402 C403 1.387 . S
C402 H406 0.950 . S
C402 C411 1.390 . S
C403 C402 1.387 . S
C403 C405 1.387 1_545 S
H404 C411 0.950 . S
C405 C403 1.387 1_565 S
C405 C407 1.390 . S
C405 H409 0.950 . S
H406 C402 0.950 . S
C407 C405 1.390 . S
C407 C408 1.376 1_565 S
C407 H410 0.961 . S
C408 C407 1.376 1_545 S
C408 C411 1.387 . S
H409 C405 0.950 . S
H410 C407 0.961 . S
C411 C402 1.390 . S
C411 H404 0.950 . S
C411 C408 1.387 . S
C412 C413 1.387 . S
C412 H416 0.950 1_556 S
C412 C421 1.390 . S
C413 C412 1.387 . S
C413 C415 1.387 . S
H414 C421 0.950 . S
C415 C413 1.387 . S
C415 C417 1.390 . S
C415 H419 0.950 . S
H416 C412 0.950 1_554 S
C417 C415 1.390 . S
C417 C418 1.387 . S
C417 H420 0.950 . S
C418 C417 1.387 . S
C418 C421 1.387 . S
H419 C415 0.950 . S
H420 C417 0.950 . S
C421 C412 1.390 . S
C421 H414 0.950 . S
C421 C418 1.387 . S
C422 C423 1.387 . S
C422 H426 0.950 . S
C422 C431 1.390 . S
C423 C422 1.387 . S
C423 C425 1.387 . S
H424 C431 0.950 . S
C425 C423 1.387 . S
C425 C427 1.390 . S
C425 H429 0.950 . S
H426 C422 0.950 . S
C427 C425 1.390 . S
C427 C428 1.387 . S
C427 H430 0.950 . S
C428 C427 1.387 . S
C428 C431 1.387 . S
H429 C425 0.950 . S
H430 C427 0.950 . S
C431 C422 1.390 . S
C431 H424 0.950 . S
C431 C428 1.387 . S
C432 C433 1.387 1_455 S
C432 H436 0.950 . S
C432 C441 1.390 . S
C433 C432 1.387 1_655 S
C433 C435 1.387 . S
H434 C441 0.950 . S
C435 C433 1.387 . S
C435 C437 1.390 . S
C435 H439 0.950 . S
H436 C432 0.950 . S
C437 C435 1.390 . S
C437 C438 1.387 . S
C437 H440 0.950 . S
C438 C437 1.387 . S
C438 C441 1.387 1_655 S
H439 C435 0.950 . S
H440 C437 0.950 . S
C441 C432 1.390 . S
C441 H434 0.950 . S
C441 C438 1.387 1_455 S
C442 C443 1.387 . S
C442 H446 0.950 . S
C442 C451 1.390 . S
C443 C442 1.387 . S
C443 C445 1.387 1_565 S
H444 C451 0.950 . S
C445 C443 1.387 1_545 S
C445 C447 1.390 . S
C445 H449 0.950 . S
H446 C442 0.950 . S
C447 C445 1.390 . S
C447 C448 1.387 1_545 S
C447 H450 0.950 . S
C448 C447 1.387 1_565 S
C448 C451 1.387 . S
H449 C445 0.950 . S
H450 C447 0.950 . S
C451 C442 1.390 . S
C451 H444 0.950 . S
C451 C448 1.387 . S
C452 C453 1.387 . S
C452 H456 0.950 . S
C452 C461 1.390 . S
C453 C452 1.387 . S
C453 C455 1.387 . S
H454 C461 0.950 . S
C455 C453 1.387 . S
C455 C457 1.390 . S
C455 H459 0.950 . S
H456 C452 0.950 . S
C457 C455 1.390 . S
C457 C458 1.387 . S
C457 H460 0.950 . S
C458 C457 1.387 . S
C458 C461 1.387 . S
H459 C455 0.950 . S
H460 C457 0.950 . S
C461 C452 1.390 . S
C461 H454 0.950 . S
C461 C458 1.387 . S
C462 C463 1.387 . S
C462 H466 0.950 . S
C462 C471 1.390 . S
C463 C462 1.387 . S
C463 C465 1.387 . S
H464 C471 0.950 . S
C465 C463 1.387 . S
C465 C467 1.390 . S
C465 H469 0.950 . S
H466 C462 0.950 . S
C467 C465 1.390 . S
C467 C468 1.387 . S
C467 H470 0.950 . S
C468 C467 1.387 . S
C468 C471 1.387 . S
H469 C465 0.950 . S
H470 C467 0.950 . S
C471 C462 1.390 . S
C471 H464 0.950 . S
C471 C468 1.387 . S
C233 C61 2.269 . S
C238 C103 2.520 . S
C248 C129 2.282 . S
C243 C70 1.994 . S
C258 C169 2.269 . S
C253 C43 2.007 . S
C268 C223 2.506 . S
C263 C52 2.280 . S
C278 C84 2.521 1_554 S
C273 C25 2.271 . S
C283 C34 1.997 . S
C288 C114 2.281 1_554 S
C293 C7 2.011 . S
C298 C154 2.270 1_554 S
C303 C16 2.282 . S
C308 C204 2.506 1_554 S
C318 C80 0.878 . S
C313 C50 0.876 . S
C328 C141 0.984 . S
C323 C59 1.013 . S
C338 C181 0.843 . S
C333 C67 0.867 . S
C343 C41 0.782 . S
C348 C200 0.781 . S
C353 C14 0.888 . S
C358 C101 0.882 . S
C368 C120 0.983 . S
C363 C23 1.024 . S
C378 C160 0.848 . S
C373 C31 0.871 . S
C383 C5 0.779 . S
C388 C221 0.777 . S
C393 C49 2.056 . S
C398 C74 2.408 . S
C403 C58 2.474 . S
C408 C124 2.752 . S
C418 C164 2.622 . S
C413 C68 2.350 . S
C428 C194 2.255 . S
C423 C40 1.926 . S
C433 C13 2.060 . S
C438 C89 2.408 . S
C448 C143 2.752 . S
C443 C22 2.470 . S
C458 C183 2.621 . S
C453 C32 2.356 . S
C463 C4 1.925 . S
C468 C209 2.255 . S
