# Generated by pormake.
# Topology anh, (6,3)-cn, num edge types: 1
# Building blocks:
#     Node 0, Type 0, BuildingBlock: MIFKUJ_clean_sbu_0, # of connection points: 6
#     Node 1, Type 0, BuildingBlock: MIFKUJ_clean_sbu_0, # of connection points: 6
#     Node 2, Type 0, BuildingBlock: MIFKUJ_clean_sbu_0, # of connection points: 6
#     Node 3, Type 1, BuildingBlock: PAMTOO_clean_linker_0, # of connection points: 3
#     Node 4, Type 1, BuildingBlock: PAMTOO_clean_linker_0, # of connection points: 3
#     Node 5, Type 1, BuildingBlock: PAMTOO_clean_linker_0, # of connection points: 3
#     Node 6, Type 1, BuildingBlock: PAMTOO_clean_linker_0, # of connection points: 3
#     Node 7, Type 1, BuildingBlock: PAMTOO_clean_linker_0, # of connection points: 3
#     Node 8, Type 1, BuildingBlock: PAMTOO_clean_linker_0, # of connection points: 3
#     Edge 9, Type (0, 1), BuildingBlock: CIFDUS_clean_linker_0, # of connection points: 2
#     Edge 10, Type (0, 1), BuildingBlock: CIFDUS_clean_linker_0, # of connection points: 2
#     Edge 11, Type (0, 1), BuildingBlock: CIFDUS_clean_linker_0, # of connection points: 2
#     Edge 12, Type (0, 1), BuildingBlock: CIFDUS_clean_linker_0, # of connection points: 2
#     Edge 13, Type (0, 1), BuildingBlock: CIFDUS_clean_linker_0, # of connection points: 2
#     Edge 14, Type (0, 1), BuildingBlock: CIFDUS_clean_linker_0, # of connection points: 2
#     Edge 15, Type (0, 1), BuildingBlock: CIFDUS_clean_linker_0, # of connection points: 2
#     Edge 16, Type (0, 1), BuildingBlock: CIFDUS_clean_linker_0, # of connection points: 2
#     Edge 17, Type (0, 1), BuildingBlock: CIFDUS_clean_linker_0, # of connection points: 2
#     Edge 18, Type (0, 1), BuildingBlock: CIFDUS_clean_linker_0, # of connection points: 2
#     Edge 19, Type (0, 1), BuildingBlock: CIFDUS_clean_linker_0, # of connection points: 2
#     Edge 20, Type (0, 1), BuildingBlock: CIFDUS_clean_linker_0, # of connection points: 2
#     Edge 21, Type (0, 1), BuildingBlock: CIFDUS_clean_linker_0, # of connection points: 2
#     Edge 22, Type (0, 1), BuildingBlock: CIFDUS_clean_linker_0, # of connection points: 2
#     Edge 23, Type (0, 1), BuildingBlock: CIFDUS_clean_linker_0, # of connection points: 2
#     Edge 24, Type (0, 1), BuildingBlock: CIFDUS_clean_linker_0, # of connection points: 2
#     Edge 25, Type (0, 1), BuildingBlock: CIFDUS_clean_linker_0, # of connection points: 2
#     Edge 26, Type (0, 1), BuildingBlock: CIFDUS_clean_linker_0, # of connection points: 2
# Relax obj value: 0.082
# Max RMSD: 0.147
# Mean RMSD: 0.110
data_MOF--net-anh--node1-MIFKUJ_clean_sbu_0--node2-PAMTOO_clean_linker_0--edge1-CIFDUS_clean_linker_0
_symmetry_space_group_name_H-M    P1
_symmetry_Int_Tables_number       1
_symmetry_cell_setting            triclinic
loop_
_symmetry_equiv_pos_as_xyz
'x, y, z'
_cell_length_a     28.230831
_cell_length_b     28.187109
_cell_length_c     40.044412
_cell_angle_alpha  88.490902
_cell_angle_beta   93.698484
_cell_angle_gamma 119.8967
loop_
_atom_site_label
_atom_site_type_symbol
_atom_site_fract_x
_atom_site_fract_y
_atom_site_fract_z
_atom_type_partial_charge
Zn0 Zn 0.14255 0.59591 0.1619 0.0
Zn1 Zn 0.97037 0.48285 0.15956 0.0
C2 C 0.23101 0.57585 0.17667 0.0
O3 O 0.23402 0.60121 0.20447 0.0
C4 C 0.87223 0.47403 0.13863 0.0
O5 O 0.87776 0.43985 0.11975 0.0
O6 O 0.17873 0.67653 0.1535 0.0
O7 O 0.07314 0.5509 0.13645 0.0
O8 O 0.99522 0.49628 0.11165 0.0
C9 C 0.20883 0.69764 0.12898 0.0
O10 O 0.21204 0.6654 0.10724 0.0
O11 O 0.1944 0.56866 0.15402 0.0
C12 C 0.89421 0.38568 0.18932 0.0
O13 O 0.88883 0.42219 0.20582 0.0
O14 O 0.93121 0.40167 0.16848 0.0
O15 O 0.03316 0.52332 0.1959 0.0
O16 O 0.12076 0.58084 0.20935 0.0
O17 O 0.9112 0.50352 0.15973 0.0
C18 C 0.04502 0.53189 0.10942 0.0
C19 C 0.07225 0.54854 0.21808 0.0
Zn20 Zn 0.62901 0.1047 0.49848 0.0
Zn21 Zn 0.54922 0.93082 0.49971 0.0
C22 C 0.7488 0.16481 0.51516 0.0
O23 O 0.73806 0.14531 0.54559 0.0
C24 C 0.45629 0.8237 0.49046 0.0
O25 O 0.49149 0.81914 0.47283 0.0
O26 O 0.60778 0.16368 0.49673 0.0
O27 O 0.5926 0.05615 0.45769 0.0
O28 O 0.55046 0.96502 0.45516 0.0
C29 C 0.62293 0.19481 0.47134 0.0
O30 O 0.64633 0.1837 0.44778 0.0
O31 O 0.71012 0.14934 0.49261 0.0
C32 C 0.63719 0.90376 0.5161 0.0
O33 O 0.65875 0.94553 0.53696 0.0
O34 O 0.5941 0.89318 0.49832 0.0
O35 O 0.57342 0.97989 0.54033 0.0
O36 O 0.61518 0.07052 0.5443 0.0
O37 O 0.47094 0.86927 0.50466 0.0
C38 C 0.56649 0.01126 0.44149 0.0
C39 C 0.59416 0.02352 0.55777 0.0
Zn40 Zn 0.61668 0.49395 0.83033 0.0
Zn41 Zn 0.54194 0.59033 0.82976 0.0
C42 C 0.59486 0.38707 0.84598 0.0
O43 O 0.61885 0.41229 0.87445 0.0
C44 C 0.62605 0.70523 0.82487 0.0
O45 O 0.65299 0.68613 0.80963 0.0
O46 O 0.69617 0.52203 0.84265 0.0
O47 O 0.60686 0.52583 0.78698 0.0
O48 O 0.56517 0.57511 0.78652 0.0
C49 C 0.73716 0.54527 0.82468 0.0
O50 O 0.73055 0.55744 0.79347 0.0
O51 O 0.58678 0.41375 0.82241 0.0
C52 C 0.44125 0.571 0.85079 0.0
O53 O 0.47285 0.58972 0.87834 0.0
O54 O 0.46183 0.56699 0.8244 0.0
O55 O 0.54944 0.55593 0.87276 0.0
O56 O 0.58553 0.50193 0.87182 0.0
O57 O 0.57998 0.67188 0.83616 0.0
C58 C 0.58825 0.55356 0.77153 0.0
C59 C 0.56319 0.52369 0.88721 0.0
H60 H 0.65457 0.10843 0.24973 0.0
H61 H 0.49117 0.97338 0.23123 0.0
H62 H 0.56994 0.08938 0.15339 0.0
H63 H 0.44156 0.03182 0.14234 0.0
C64 C 0.4379 0.00709 0.16511 0.0
O65 O 0.48206 0.99858 0.16852 0.0
H66 H 0.43681 0.03033 0.18688 0.0
C67 C 0.61915 0.0851 0.23271 0.0
C68 C 0.61809 0.1042 0.20016 0.0
C69 C 0.57343 0.03846 0.2443 0.0
C70 C 0.52678 0.00963 0.22264 0.0
C71 C 0.52603 0.02764 0.18974 0.0
C72 C 0.57132 0.07516 0.17864 0.0
H73 H 0.65678 0.65631 0.5805 0.0
H74 H 0.64139 0.49833 0.56611 0.0
H75 H 0.6569 0.60059 0.48145 0.0
H76 H 0.59163 0.47416 0.46165 0.0
C77 C 0.59791 0.46452 0.4881 0.0
O78 O 0.64701 0.50659 0.50139 0.0
H79 H 0.56269 0.46024 0.50163 0.0
C80 C 0.65534 0.6256 0.56409 0.0
C81 C 0.65818 0.63499 0.52947 0.0
C82 C 0.64868 0.57639 0.57772 0.0
C83 C 0.64691 0.53683 0.55628 0.0
C84 C 0.64994 0.54565 0.5217 0.0
C85 C 0.65526 0.59449 0.50827 0.0
H86 H 0.01997 0.5844 0.92218 0.0
H87 H 0.15415 0.56031 0.90265 0.0
H88 H 0.06124 0.58143 0.82054 0.0
H89 H 0.11573 0.51404 0.7994 0.0
C90 C 0.13712 0.5211 0.82461 0.0
O91 O 0.14555 0.56988 0.83745 0.0
H92 H 0.11084 0.4859 0.84066 0.0
C93 C 0.0456 0.58131 0.90433 0.0
C94 C 0.03443 0.58382 0.86975 0.0
C95 C 0.08782 0.57174 0.91628 0.0
C96 C 0.12153 0.56788 0.89364 0.0
C97 C 0.11247 0.57275 0.85922 0.0
C98 C 0.0689 0.58021 0.84731 0.0
H99 H 0.99393 0.42679 0.40493 0.0
H100 H 0.14695 0.56891 0.43578 0.0
H101 H 0.04295 0.46092 0.50955 0.0
H102 H 0.13471 0.58627 0.5405 0.0
C103 C 0.14282 0.59412 0.51357 0.0
O104 O 0.13789 0.54751 0.49938 0.0
H105 H 0.11201 0.60406 0.50172 0.0
C106 C 0.02265 0.45316 0.42452 0.0
C107 C 0.0114 0.43872 0.45815 0.0
C108 C 0.07087 0.50036 0.41583 0.0
C109 C 0.10935 0.53225 0.44154 0.0
C110 C 0.0994 0.51762 0.47512 0.0
C111 C 0.05046 0.47119 0.48344 0.0
H112 H 0.64568 0.97359 0.75443 0.0
H113 H 0.62699 0.11415 0.76882 0.0
H114 H 0.63453 0.02148 0.85355 0.0
H115 H 0.56111 0.06706 0.86479 0.0
C116 C 0.57269 0.0935 0.84225 0.0
O117 O 0.62391 0.10491 0.83376 0.0
H118 H 0.54116 0.07077 0.82173 0.0
C119 C 0.6424 0.00155 0.77095 0.0
C120 C 0.64132 0.9923 0.80561 0.0
C121 C 0.63706 0.04518 0.75723 0.0
C122 C 0.6321 0.08076 0.7788 0.0
C123 C 0.6311 0.07193 0.81338 0.0
C124 C 0.63592 0.02806 0.82676 0.0
H125 H 0.63011 0.52213 0.07793 0.0
H126 H 0.4916 0.53798 0.10019 0.0
H127 H 0.59535 0.5281 0.18023 0.0
H128 H 0.47683 0.48038 0.20124 0.0
C129 C 0.46421 0.4934 0.17747 0.0
O130 O 0.50917 0.53837 0.16517 0.0
H131 H 0.44701 0.45812 0.15967 0.0
C132 C 0.60429 0.52431 0.09605 0.0
C133 C 0.61776 0.52341 0.13029 0.0
C134 C 0.55871 0.52891 0.08476 0.0
C135 C 0.52705 0.53441 0.10832 0.0
C136 C 0.54036 0.534 0.14266 0.0
C137 C 0.5858 0.52887 0.15365 0.0
H138 H 0.30999 0.58065 0.22123 0.0
H139 H 0.23907 0.5265 0.12113 0.0
H140 H 0.30393 0.49501 0.1129 0.0
H141 H 0.3823 0.48457 0.13379 0.0
H142 H 0.45298 0.53876 0.23364 0.0
H143 H 0.3868 0.56874 0.24238 0.0
C144 C 0.30862 0.56192 0.19761 0.0
C145 C 0.26982 0.55612 0.17183 0.0
C146 C 0.34595 0.54384 0.19305 0.0
C147 C 0.26857 0.53156 0.14141 0.0
C148 C 0.30564 0.51353 0.13666 0.0
C149 C 0.38257 0.50238 0.15754 0.0
C150 C 0.42144 0.50858 0.18332 0.0
C151 C 0.34461 0.51961 0.16226 0.0
C152 C 0.4226 0.53282 0.21375 0.0
C153 C 0.385 0.55008 0.21866 0.0
H154 H 0.77104 0.2414 0.46765 0.0
H155 H 0.84807 0.19474 0.54825 0.0
H156 H 0.93665 0.27589 0.53817 0.0
H157 H 0.99188 0.36043 0.50608 0.0
H158 H 0.91093 0.40819 0.42832 0.0
H159 H 0.82423 0.32621 0.43774 0.0
C160 C 0.80727 0.24854 0.48283 0.0
C161 C 0.80318 0.21171 0.50835 0.0
C162 C 0.85734 0.2957 0.4775 0.0
C163 C 0.8503 0.22234 0.52828 0.0
C164 C 0.90085 0.26878 0.52259 0.0
C165 C 0.95516 0.35315 0.49146 0.0
C166 C 0.95828 0.39016 0.46615 0.0
C167 C 0.90482 0.30596 0.49732 0.0
C168 C 0.91016 0.37988 0.44739 0.0
C169 C 0.8604 0.33308 0.45284 0.0
H170 H 0.58126 0.75708 0.85551 0.0
H171 H 0.71206 0.78654 0.79288 0.0
H172 H 0.73273 0.88096 0.78459 0.0
H173 H 0.70656 0.95154 0.78983 0.0
H174 H 0.57352 0.9204 0.85077 0.0
H175 H 0.56159 0.83069 0.86556 0.0
C176 C 0.61479 0.78431 0.84039 0.0
C177 C 0.64444 0.76445 0.82438 0.0
C178 C 0.62591 0.83825 0.83532 0.0
C179 C 0.68825 0.80056 0.80528 0.0
C180 C 0.69999 0.85455 0.80042 0.0
C181 C 0.67534 0.92526 0.80661 0.0
C182 C 0.64059 0.94231 0.81888 0.0
C183 C 0.66794 0.87325 0.81445 0.0
C184 C 0.60098 0.90837 0.84111 0.0
C185 C 0.59382 0.85685 0.84935 0.0
H186 H 0.84465 0.53925 0.17276 0.0
H187 H 0.78187 0.40921 0.09916 0.0
H188 H 0.69597 0.40947 0.09311 0.0
H189 H 0.64013 0.4491 0.10607 0.0
H190 H 0.70136 0.58138 0.17751 0.0
H191 H 0.78558 0.5766 0.18788 0.0
C192 C 0.8121 0.51099 0.15547 0.0
C193 C 0.82012 0.47481 0.13614 0.0
C194 C 0.76234 0.51139 0.15189 0.0
C195 C 0.77728 0.43801 0.11409 0.0
C196 C 0.72789 0.43788 0.11065 0.0
C197 C 0.67189 0.47684 0.12399 0.0
C198 C 0.66504 0.51603 0.14063 0.0
C199 C 0.7203 0.47481 0.12904 0.0
C200 C 0.7058 0.55081 0.1644 0.0
C201 C 0.75408 0.54841 0.17007 0.0
H202 H 0.3647 0.82198 0.51078 0.0
H203 H 0.42377 0.71729 0.47776 0.0
H204 H 0.33327 0.63741 0.48223 0.0
H205 H 0.23734 0.59699 0.49501 0.0
H206 H 0.17613 0.70063 0.52642 0.0
H207 H 0.26742 0.78108 0.52317 0.0
C208 C 0.35772 0.78166 0.50466 0.0
C209 C 0.401 0.77574 0.4939 0.0
C210 C 0.30513 0.73566 0.50685 0.0
C211 C 0.39119 0.72318 0.4859 0.0
C212 C 0.3394 0.67735 0.48849 0.0
C213 C 0.24362 0.6371 0.50093 0.0
C214 C 0.19961 0.6429 0.51049 0.0
C215 C 0.296 0.68309 0.49876 0.0
C216 C 0.20922 0.69529 0.5186 0.0
C217 C 0.26138 0.74122 0.51681 0.0
H218 H 0.60436 0.3191 0.89172 0.0
H219 H 0.55861 0.32774 0.7877 0.0
H220 H 0.54602 0.23696 0.77767 0.0
H221 H 0.55235 0.15684 0.79793 0.0
H222 H 0.59876 0.14877 0.90164 0.0
H223 H 0.60703 0.23782 0.91239 0.0
C224 C 0.59124 0.30102 0.86689 0.0
C225 C 0.58266 0.33029 0.84049 0.0
C226 C 0.5844 0.249 0.86126 0.0
C227 C 0.56548 0.30611 0.8085 0.0
C228 C 0.55844 0.25426 0.8027 0.0
C229 C 0.56355 0.17447 0.82292 0.0
C230 C 0.57407 0.14628 0.84913 0.0
C231 C 0.56838 0.22562 0.8288 0.0
C232 C 0.58972 0.16967 0.88129 0.0
C233 C 0.59457 0.22049 0.88737 0.0
H234 H 0.59868 0.8118 0.47797 0.0
H235 H 0.72096 0.90639 0.55596 0.0
H236 H 0.74418 0.83397 0.56334 0.0
H237 H 0.72163 0.73936 0.55263 0.0
H238 H 0.59598 0.64301 0.47686 0.0
H239 H 0.58335 0.72112 0.46296 0.0
C240 C 0.63099 0.81703 0.49628 0.0
C241 C 0.65738 0.86418 0.51679 0.0
C242 C 0.64347 0.77479 0.50082 0.0
C243 C 0.69957 0.87039 0.54006 0.0
C244 C 0.71282 0.8289 0.54436 0.0
C245 C 0.69198 0.73573 0.53276 0.0
C246 C 0.65923 0.68522 0.51613 0.0
C247 C 0.68376 0.78023 0.52565 0.0
C248 C 0.62182 0.68142 0.48998 0.0
C249 C 0.61417 0.72592 0.48227 0.0
H250 H 0.83722 0.60179 0.79753 0.0
H251 H 0.75611 0.50306 0.88235 0.0
H252 H 0.84049 0.50687 0.90342 0.0
H253 H 0.93509 0.53334 0.89658 0.0
H254 H 0.02027 0.63706 0.81445 0.0
H255 H 0.93602 0.63484 0.79312 0.0
C256 C 0.8382 0.58148 0.82073 0.0
C257 C 0.79023 0.55201 0.83818 0.0
C258 C 0.88731 0.58407 0.83302 0.0
C259 C 0.79228 0.52613 0.86833 0.0
C260 C 0.84054 0.52806 0.88042 0.0
C261 C 0.93604 0.5568 0.87448 0.0
C262 C 0.98438 0.58555 0.85734 0.0
C263 C 0.88805 0.55642 0.86283 0.0
C264 C 0.98364 0.61397 0.82804 0.0
C265 C 0.93551 0.61304 0.81592 0.0
H266 H 0.23292 0.77135 0.17864 0.0
H267 H 0.27022 0.75791 0.07764 0.0
H268 H 0.3414 0.85431 0.07902 0.0
H269 H 0.39849 0.94009 0.1108 0.0
H270 H 0.36459 0.95135 0.21275 0.0
H271 H 0.28647 0.8581 0.20921 0.0
C272 C 0.25599 0.78966 0.15671 0.0
C273 C 0.24647 0.75741 0.12813 0.0
C274 C 0.29772 0.84463 0.15799 0.0
C275 C 0.27695 0.78177 0.10002 0.0
C276 C 0.31774 0.83684 0.10081 0.0
C277 C 0.37324 0.92221 0.13195 0.0
C278 C 0.38646 0.95244 0.16179 0.0
C279 C 0.3293 0.86827 0.12992 0.0
C280 C 0.35448 0.92889 0.18939 0.0
C281 C 0.31006 0.87561 0.1874 0.0
H282 H 0.58983 0.2385 0.51876 0.0
H283 H 0.64756 0.2652 0.41898 0.0
H284 H 0.64538 0.35049 0.4155 0.0
H285 H 0.62804 0.41852 0.44082 0.0
H286 H 0.57148 0.39333 0.54054 0.0
H287 H 0.57257 0.30688 0.54418 0.0
C288 C 0.60154 0.26277 0.49618 0.0
C289 C 0.61857 0.24516 0.46914 0.0
C290 C 0.6006 0.31227 0.49437 0.0
C291 C 0.63409 0.2775 0.44017 0.0
C292 C 0.633 0.32646 0.43814 0.0
C293 C 0.61573 0.39382 0.46323 0.0
C294 C 0.59878 0.4115 0.49015 0.0
C295 C 0.61649 0.34435 0.46508 0.0
C296 C 0.5839 0.37991 0.51936 0.0
C297 C 0.58456 0.3306 0.52142 0.0
H298 H 0.37094 0.55643 0.79694 0.0
H299 H 0.38143 0.55283 0.90494 0.0
H300 H 0.28713 0.53314 0.90603 0.0
H301 H 0.203 0.52111 0.87657 0.0
H302 H 0.19327 0.52984 0.76901 0.0
H303 H 0.2856 0.54268 0.76732 0.0
C304 C 0.35237 0.55087 0.82066 0.0
C305 C 0.38318 0.55624 0.85079 0.0
C306 C 0.29828 0.54047 0.82117 0.0
C307 C 0.35873 0.54927 0.88138 0.0
C308 C 0.30476 0.53792 0.88206 0.0
C309 C 0.22112 0.52544 0.85282 0.0
C310 C 0.19164 0.52427 0.823 0.0
C311 C 0.27442 0.53409 0.85217 0.0
C312 C 0.2153 0.53023 0.79227 0.0
C313 C 0.26805 0.53776 0.79133 0.0
H314 H 0.78787 0.35116 0.17696 0.0
H315 H 0.90175 0.29351 0.19958 0.0
H316 H 0.82539 0.199 0.20235 0.0
H317 H 0.72575 0.1345 0.20243 0.0
H318 H 0.61291 0.19276 0.17703 0.0
H319 H 0.68941 0.28559 0.17046 0.0
C320 C 0.79574 0.31769 0.18239 0.0
C321 C 0.84972 0.32867 0.18881 0.0
C322 C 0.75199 0.26394 0.18319 0.0
C323 C 0.86016 0.28547 0.19494 0.0
C324 C 0.81664 0.23172 0.1965 0.0
C325 C 0.71821 0.16753 0.19492 0.0
C326 C 0.6641 0.15727 0.19035 0.0
C327 C 0.76235 0.22065 0.19123 0.0
C328 C 0.65436 0.19991 0.18042 0.0
C329 C 0.69798 0.25294 0.17698 0.0
H330 H 0.04078 0.46825 0.05888 0.0
H331 H 0.09908 0.63576 0.08671 0.0
H332 H 0.1234 0.66497 0.02911 0.0
H333 H 0.1173 0.64047 0.96945 0.0
H334 H 0.06316 0.47347 0.94241 0.0
H335 H 0.04865 0.44613 0.00108 0.0
C336 C 0.05986 0.51121 0.05231 0.0
C337 C 0.06816 0.54996 0.07662 0.0
C338 C 0.07413 0.52756 0.01933 0.0
C339 C 0.09293 0.60552 0.06822 0.0
C340 C 0.10641 0.62209 0.03531 0.0
C341 C 0.10373 0.59847 0.97671 0.0
C342 C 0.09117 0.55887 0.95198 0.0
C343 C 0.09578 0.58323 0.01047 0.0
C344 C 0.07339 0.50449 0.96129 0.0
C345 C 0.06469 0.48884 0.99471 0.0
H346 H 0.62655 0.0038 0.39494 0.0
H347 H 0.48617 0.02204 0.4076 0.0
H348 H 0.47179 0.02566 0.34665 0.0
H349 H 0.50292 0.029 0.29002 0.0
H350 H 0.64707 0.01683 0.27794 0.0
H351 H 0.65629 0.00484 0.33833 0.0
C352 C 0.59281 0.00838 0.38413 0.0
C353 C 0.55749 0.01289 0.40519 0.0
C354 C 0.58554 0.01127 0.34931 0.0
C355 C 0.51384 0.01885 0.39146 0.0
C356 C 0.50563 0.02076 0.35676 0.0
C357 C 0.53558 0.02257 0.30068 0.0
C358 C 0.57401 0.02323 0.27981 0.0
C359 C 0.54157 0.01756 0.33546 0.0
C360 C 0.61695 0.01609 0.29372 0.0
C361 C 0.62235 0.00954 0.32817 0.0
H362 H 0.64459 0.52378 0.73225 0.0
H363 H 0.54425 0.60009 0.7284 0.0
H364 H 0.5529 0.61206 0.66816 0.0
H365 H 0.58843 0.60075 0.61676 0.0
H366 H 0.69198 0.52822 0.62046 0.0
H367 H 0.68133 0.51361 0.68063 0.0
C368 C 0.62449 0.54296 0.71828 0.0
C369 C 0.59372 0.56093 0.73494 0.0
C370 C 0.62987 0.55006 0.68363 0.0
C371 C 0.56823 0.58591 0.71634 0.0
C372 C 0.57307 0.59272 0.68185 0.0
C373 C 0.60932 0.58238 0.63074 0.0
C374 C 0.64137 0.56605 0.61412 0.0
C375 C 0.60386 0.57506 0.6653 0.0
C376 C 0.66677 0.54084 0.63255 0.0
C377 C 0.661 0.53281 0.66698 0.0
H378 H 0.64837 0.10619 0.60371 0.0
H379 H 0.54227 0.93107 0.5951 0.0
H380 H 0.5455 0.92296 0.6558 0.0
H381 H 0.57886 0.96492 0.71119 0.0
H382 H 0.68678 0.13933 0.72054 0.0
H383 H 0.68168 0.14844 0.65962 0.0
C384 C 0.62573 0.06626 0.61508 0.0
C385 C 0.59515 0.01932 0.59476 0.0
C386 C 0.62803 0.06173 0.65011 0.0
C387 C 0.56629 0.96791 0.61002 0.0
C388 C 0.56806 0.96317 0.64478 0.0
C389 C 0.60177 0.0049 0.69991 0.0
C390 C 0.63356 0.05131 0.72035 0.0
C391 C 0.59904 0.0097 0.66501 0.0
C392 C 0.66182 0.10299 0.70536 0.0
C393 C 0.65911 0.10817 0.67055 0.0
H394 H 0.53873 0.57853 0.93203 0.0
H395 H 0.56869 0.44334 0.92358 0.0
H396 H 0.56266 0.42895 0.98372 0.0
H397 H 0.5567 0.45924 0.03899 0.0
H398 H 0.53218 0.59738 0.04869 0.0
H399 H 0.52629 0.60495 0.98761 0.0
C400 C 0.5433 0.54551 0.94327 0.0
C401 C 0.55483 0.5125 0.9233 0.0
C402 C 0.54058 0.5379 0.97806 0.0
C403 C 0.56057 0.46986 0.93834 0.0
C404 C 0.55697 0.46146 0.97274 0.0
C405 C 0.54978 0.49086 0.02771 0.0
C406 C 0.54577 0.52825 0.04824 0.0
C407 C 0.54827 0.49599 0.99287 0.0
C408 C 0.53539 0.56811 0.03337 0.0
C409 C 0.53255 0.57274 0.9985 0.0
H410 H 0.1481 0.56874 0.26888 0.0
H411 H 0.97484 0.50473 0.24812 0.0
H412 H 0.95966 0.48676 0.30774 0.0
H413 H 0.99571 0.48887 0.36542 0.0
H414 H 0.1682 0.5461 0.38514 0.0
H415 H 0.1837 0.56871 0.32624 0.0
C416 C 0.10699 0.55112 0.27737 0.0
C417 C 0.06264 0.53822 0.2541 0.0
C418 C 0.09851 0.54009 0.3115 0.0
C419 C 0.00961 0.51484 0.26551 0.0
C420 C 0.00096 0.5047 0.29958 0.0
C421 C 0.03667 0.50559 0.35689 0.0
C422 C 0.08065 0.51554 0.37995 0.0
C423 C 0.04511 0.51689 0.32275 0.0
C424 C 0.1336 0.53867 0.36829 0.0
C425 C 0.14248 0.55118 0.33448 0.0
loop_
_geom_bond_atom_site_label_1
_geom_bond_atom_site_label_2
_geom_bond_distance
_geom_bond_site_symmetry_2
_ccdc_geom_bond_type
Zn0 O6 1.969 . S
Zn0 O7 1.965 . S
Zn0 O11 2.024 . S
Zn0 O16 1.969 . S
Zn1 O8 1.969 . S
Zn1 O14 1.969 . S
Zn1 O15 1.965 . S
Zn1 O17 2.024 . S
C2 O3 1.229 . S
C2 O11 1.058 . S
O3 C2 1.229 . S
C4 O5 1.229 . S
C4 O17 1.058 . S
O5 C4 1.229 . S
O6 Zn0 1.969 . S
O6 C9 1.267 . S
O7 Zn0 1.965 . S
O7 C18 1.260 . S
O8 Zn1 1.969 . S
O8 C18 1.258 1_655 S
C9 O6 1.267 . S
C9 O10 1.228 . S
O10 C9 1.228 . S
O11 Zn0 2.024 . S
O11 C2 1.058 . S
C12 O13 1.228 . S
C12 O14 1.267 . S
O13 C12 1.228 . S
O14 Zn1 1.969 . S
O14 C12 1.267 . S
O15 Zn1 1.965 . S
O15 C19 1.260 1_655 S
O16 Zn0 1.969 . S
O16 C19 1.258 . S
O17 Zn1 2.024 . S
O17 C4 1.058 . S
C18 O7 1.260 . S
C18 O8 1.258 1_455 S
C19 O15 1.260 1_455 S
C19 O16 1.258 . S
Zn20 O26 1.969 . S
Zn20 O27 1.965 . S
Zn20 O31 2.024 . S
Zn20 O36 1.969 . S
Zn21 O28 1.969 . S
Zn21 O34 1.969 . S
Zn21 O35 1.965 1_565 S
Zn21 O37 2.024 . S
C22 O23 1.229 . S
C22 O31 1.058 . S
O23 C22 1.229 . S
C24 O25 1.229 . S
C24 O37 1.058 . S
O25 C24 1.229 . S
O26 Zn20 1.969 . S
O26 C29 1.267 . S
O27 Zn20 1.965 . S
O27 C38 1.260 . S
O28 Zn21 1.969 . S
O28 C38 1.258 1_565 S
C29 O26 1.267 . S
C29 O30 1.228 . S
O30 C29 1.228 . S
O31 Zn20 2.024 . S
O31 C22 1.058 . S
C32 O33 1.228 . S
C32 O34 1.267 . S
O33 C32 1.228 . S
O34 Zn21 1.969 . S
O34 C32 1.267 . S
O35 Zn21 1.965 1_545 S
O35 C39 1.260 . S
O36 Zn20 1.969 . S
O36 C39 1.258 . S
O37 Zn21 2.024 . S
O37 C24 1.058 . S
C38 O27 1.260 . S
C38 O28 1.258 1_545 S
C39 O35 1.260 . S
C39 O36 1.258 . S
Zn40 O46 1.969 . S
Zn40 O47 1.965 . S
Zn40 O51 2.024 . S
Zn40 O56 1.969 . S
Zn41 O48 1.969 . S
Zn41 O54 1.969 . S
Zn41 O55 1.965 . S
Zn41 O57 2.024 . S
C42 O43 1.229 . S
C42 O51 1.058 . S
O43 C42 1.229 . S
C44 O45 1.229 . S
C44 O57 1.058 . S
O45 C44 1.229 . S
O46 Zn40 1.969 . S
O46 C49 1.267 . S
O47 Zn40 1.965 . S
O47 C58 1.260 . S
O48 Zn41 1.969 . S
O48 C58 1.258 . S
C49 O46 1.267 . S
C49 O50 1.228 . S
O50 C49 1.228 . S
O51 Zn40 2.024 . S
O51 C42 1.058 . S
C52 O53 1.228 . S
C52 O54 1.267 . S
O53 C52 1.228 . S
O54 Zn41 1.969 . S
O54 C52 1.267 . S
O55 Zn41 1.965 . S
O55 C59 1.260 . S
O56 Zn40 1.969 . S
O56 C59 1.258 . S
O57 Zn41 2.024 . S
O57 C44 1.058 . S
C58 O47 1.260 . S
C58 O48 1.258 . S
C59 O55 1.260 . S
C59 O56 1.258 . S
H60 C67 0.929 . S
H61 C70 0.930 1_565 S
H62 C72 0.929 . S
H63 C64 0.969 . S
C64 H63 0.969 . S
C64 O65 1.550 . S
C64 H66 0.973 . S
O65 C64 1.550 . S
O65 C71 1.412 1_565 S
H66 C64 0.973 . S
C67 H60 0.929 . S
C67 C68 1.400 . S
C67 C69 1.364 . S
C68 C67 1.400 . S
C68 C72 1.377 . S
C69 C67 1.364 . S
C69 C70 1.374 . S
C70 H61 0.930 1_545 S
C70 C69 1.374 . S
C70 C71 1.383 . S
C71 O65 1.412 1_545 S
C71 C70 1.383 . S
C71 C72 1.394 . S
C72 H62 0.929 . S
C72 C68 1.377 . S
C72 C71 1.394 . S
H73 C80 0.929 . S
H74 C83 0.930 . S
H75 C85 0.929 . S
H76 C77 0.969 . S
C77 H76 0.969 . S
C77 O78 1.550 . S
C77 H79 0.973 . S
O78 C77 1.550 . S
O78 C84 1.412 . S
H79 C77 0.973 . S
C80 H73 0.929 . S
C80 C81 1.400 . S
C80 C82 1.364 . S
C81 C80 1.400 . S
C81 C85 1.377 . S
C82 C80 1.364 . S
C82 C83 1.374 . S
C83 H74 0.930 . S
C83 C82 1.374 . S
C83 C84 1.383 . S
C84 O78 1.412 . S
C84 C83 1.383 . S
C84 C85 1.394 . S
C85 H75 0.929 . S
C85 C81 1.377 . S
C85 C84 1.394 . S
H86 C93 0.915 1_655 S
H87 C96 0.930 . S
H88 C98 0.929 . S
H89 C90 0.969 . S
C90 H89 0.969 . S
C90 O91 1.550 . S
C90 H92 0.973 . S
O91 C90 1.550 . S
O91 C97 1.412 . S
H92 C90 0.973 . S
C93 H86 0.915 1_455 S
C93 C94 1.400 . S
C93 C95 1.364 . S
C94 C93 1.400 . S
C94 C98 1.377 . S
C95 C93 1.364 . S
C95 C96 1.374 . S
C96 H87 0.930 . S
C96 C95 1.374 . S
C96 C97 1.383 . S
C97 O91 1.412 . S
C97 C96 1.383 . S
C97 C98 1.394 . S
C98 H88 0.929 . S
C98 C94 1.377 . S
C98 C97 1.394 . S
H99 C106 0.929 1_655 S
H100 C109 0.930 . S
H101 C111 0.929 . S
H102 C103 0.969 . S
C103 H102 0.969 . S
C103 O104 1.550 . S
C103 H105 0.973 . S
O104 C103 1.550 . S
O104 C110 1.412 . S
H105 C103 0.973 . S
C106 H99 0.929 1_455 S
C106 C107 1.400 . S
C106 C108 1.364 . S
C107 C106 1.400 . S
C107 C111 1.377 . S
C108 C106 1.364 . S
C108 C109 1.374 . S
C109 H100 0.930 . S
C109 C108 1.374 . S
C109 C110 1.383 . S
C110 O104 1.412 . S
C110 C109 1.383 . S
C110 C111 1.394 . S
C111 H101 0.929 . S
C111 C107 1.377 . S
C111 C110 1.394 . S
H112 C119 0.929 . S
H113 C122 0.930 . S
H114 C124 0.929 . S
H115 C116 0.969 . S
C116 H115 0.969 . S
C116 O117 1.550 . S
C116 H118 0.973 . S
O117 C116 1.550 . S
O117 C123 1.412 . S
H118 C116 0.973 . S
C119 H112 0.929 . S
C119 C120 1.400 . S
C119 C121 1.364 1_565 S
C120 C119 1.400 . S
C120 C124 1.377 1_565 S
C121 C119 1.364 1_545 S
C121 C122 1.374 . S
C122 H113 0.930 . S
C122 C121 1.374 . S
C122 C123 1.383 . S
C123 O117 1.412 . S
C123 C122 1.383 . S
C123 C124 1.394 . S
C124 H114 0.929 . S
C124 C120 1.377 1_545 S
C124 C123 1.394 . S
H125 C132 0.929 . S
H126 C135 0.930 . S
H127 C137 0.929 . S
H128 C129 0.969 . S
C129 H128 0.969 . S
C129 O130 1.550 . S
C129 H131 0.973 . S
O130 C129 1.550 . S
O130 C136 1.412 . S
H131 C129 0.973 . S
C132 H125 0.929 . S
C132 C133 1.400 . S
C132 C134 1.364 . S
C133 C132 1.400 . S
C133 C137 1.377 . S
C134 C132 1.364 . S
C134 C135 1.374 . S
C135 H126 0.930 . S
C135 C134 1.374 . S
C135 C136 1.383 . S
C136 O130 1.412 . S
C136 C135 1.383 . S
C136 C137 1.394 . S
C137 H127 0.929 . S
C137 C133 1.377 . S
C137 C136 1.394 . S
H138 C144 0.930 . S
H139 C147 0.930 . S
H140 C148 0.930 . S
H141 C149 0.930 . S
H142 C152 0.930 . S
H143 C153 0.930 . S
C144 H138 0.930 . S
C144 C145 1.355 . S
C144 C146 1.415 . S
C145 C144 1.355 . S
C145 C147 1.419 . S
C146 C144 1.415 . S
C146 C151 1.425 . S
C146 C153 1.409 . S
C147 H139 0.930 . S
C147 C145 1.419 . S
C147 C148 1.362 . S
C148 H140 0.930 . S
C148 C147 1.362 . S
C148 C151 1.409 . S
C149 H141 0.930 . S
C149 C150 1.355 . S
C149 C151 1.415 . S
C150 C149 1.355 . S
C150 C152 1.419 . S
C151 C146 1.425 . S
C151 C148 1.409 . S
C151 C149 1.415 . S
C152 H142 0.930 . S
C152 C150 1.419 . S
C152 C153 1.362 . S
C153 H143 0.930 . S
C153 C146 1.409 . S
C153 C152 1.362 . S
H154 C160 0.930 . S
H155 C163 0.930 . S
H156 C164 0.930 . S
H157 C165 0.930 . S
H158 C168 0.930 . S
H159 C169 0.930 . S
C160 H154 0.930 . S
C160 C161 1.355 . S
C160 C162 1.415 . S
C161 C160 1.355 . S
C161 C163 1.419 . S
C162 C160 1.415 . S
C162 C167 1.425 . S
C162 C169 1.409 . S
C163 H155 0.930 . S
C163 C161 1.419 . S
C163 C164 1.362 . S
C164 H156 0.930 . S
C164 C163 1.362 . S
C164 C167 1.409 . S
C165 H157 0.930 . S
C165 C166 1.355 . S
C165 C167 1.415 . S
C166 C165 1.355 . S
C166 C168 1.419 . S
C167 C162 1.425 . S
C167 C164 1.409 . S
C167 C165 1.415 . S
C168 H158 0.930 . S
C168 C166 1.419 . S
C168 C169 1.362 . S
C169 H159 0.930 . S
C169 C162 1.409 . S
C169 C168 1.362 . S
H170 C176 0.930 . S
H171 C179 0.930 . S
H172 C180 0.930 . S
H173 C181 0.930 . S
H174 C184 0.930 . S
H175 C185 0.930 . S
C176 H170 0.930 . S
C176 C177 1.355 . S
C176 C178 1.415 . S
C177 C176 1.355 . S
C177 C179 1.419 . S
C178 C176 1.415 . S
C178 C183 1.425 . S
C178 C185 1.409 . S
C179 H171 0.930 . S
C179 C177 1.419 . S
C179 C180 1.362 . S
C180 H172 0.930 . S
C180 C179 1.362 . S
C180 C183 1.409 . S
C181 H173 0.930 . S
C181 C182 1.355 . S
C181 C183 1.415 . S
C182 C181 1.355 . S
C182 C184 1.419 . S
C183 C178 1.425 . S
C183 C180 1.409 . S
C183 C181 1.415 . S
C184 H174 0.930 . S
C184 C182 1.419 . S
C184 C185 1.362 . S
C185 H175 0.930 . S
C185 C178 1.409 . S
C185 C184 1.362 . S
H186 C192 0.930 . S
H187 C195 0.930 . S
H188 C196 0.930 . S
H189 C197 0.930 . S
H190 C200 0.930 . S
H191 C201 0.930 . S
C192 H186 0.930 . S
C192 C193 1.355 . S
C192 C194 1.415 . S
C193 C192 1.355 . S
C193 C195 1.419 . S
C194 C192 1.415 . S
C194 C199 1.425 . S
C194 C201 1.409 . S
C195 H187 0.930 . S
C195 C193 1.419 . S
C195 C196 1.362 . S
C196 H188 0.930 . S
C196 C195 1.362 . S
C196 C199 1.409 . S
C197 H189 0.930 . S
C197 C198 1.355 . S
C197 C199 1.415 . S
C198 C197 1.355 . S
C198 C200 1.419 . S
C199 C194 1.425 . S
C199 C196 1.409 . S
C199 C197 1.415 . S
C200 H190 0.930 . S
C200 C198 1.419 . S
C200 C201 1.362 . S
C201 H191 0.930 . S
C201 C194 1.409 . S
C201 C200 1.362 . S
H202 C208 0.930 . S
H203 C211 0.930 . S
H204 C212 0.930 . S
H205 C213 0.930 . S
H206 C216 0.930 . S
H207 C217 0.930 . S
C208 H202 0.930 . S
C208 C209 1.355 . S
C208 C210 1.415 . S
C209 C208 1.355 . S
C209 C211 1.419 . S
C210 C208 1.415 . S
C210 C215 1.425 . S
C210 C217 1.409 . S
C211 H203 0.930 . S
C211 C209 1.419 . S
C211 C212 1.362 . S
C212 H204 0.930 . S
C212 C211 1.362 . S
C212 C215 1.409 . S
C213 H205 0.930 . S
C213 C214 1.355 . S
C213 C215 1.415 . S
C214 C213 1.355 . S
C214 C216 1.419 . S
C215 C210 1.425 . S
C215 C212 1.409 . S
C215 C213 1.415 . S
C216 H206 0.930 . S
C216 C214 1.419 . S
C216 C217 1.362 . S
C217 H207 0.930 . S
C217 C210 1.409 . S
C217 C216 1.362 . S
H218 C224 0.930 . S
H219 C227 0.930 . S
H220 C228 0.930 . S
H221 C229 0.930 . S
H222 C232 0.930 . S
H223 C233 0.930 . S
C224 H218 0.930 . S
C224 C225 1.355 . S
C224 C226 1.415 . S
C225 C224 1.355 . S
C225 C227 1.419 . S
C226 C224 1.415 . S
C226 C231 1.425 . S
C226 C233 1.409 . S
C227 H219 0.930 . S
C227 C225 1.419 . S
C227 C228 1.362 . S
C228 H220 0.930 . S
C228 C227 1.362 . S
C228 C231 1.409 . S
C229 H221 0.930 . S
C229 C230 1.355 . S
C229 C231 1.415 . S
C230 C229 1.355 . S
C230 C232 1.419 . S
C231 C226 1.425 . S
C231 C228 1.409 . S
C231 C229 1.415 . S
C232 H222 0.930 . S
C232 C230 1.419 . S
C232 C233 1.362 . S
C233 H223 0.930 . S
C233 C226 1.409 . S
C233 C232 1.362 . S
H234 C240 0.930 . S
H235 C243 0.930 . S
H236 C244 0.930 . S
H237 C245 0.930 . S
H238 C248 0.930 . S
H239 C249 0.930 . S
C240 H234 0.930 . S
C240 C241 1.355 . S
C240 C242 1.415 . S
C241 C240 1.355 . S
C241 C243 1.419 . S
C242 C240 1.415 . S
C242 C247 1.425 . S
C242 C249 1.409 . S
C243 H235 0.930 . S
C243 C241 1.419 . S
C243 C244 1.362 . S
C244 H236 0.930 . S
C244 C243 1.362 . S
C244 C247 1.409 . S
C245 H237 0.930 . S
C245 C246 1.355 . S
C245 C247 1.415 . S
C246 C245 1.355 . S
C246 C248 1.419 . S
C247 C242 1.425 . S
C247 C244 1.409 . S
C247 C245 1.415 . S
C248 H238 0.930 . S
C248 C246 1.419 . S
C248 C249 1.362 . S
C249 H239 0.930 . S
C249 C242 1.409 . S
C249 C248 1.362 . S
H250 C256 0.930 . S
H251 C259 0.930 . S
H252 C260 0.930 . S
H253 C261 0.930 . S
H254 C264 0.930 1_455 S
H255 C265 0.930 . S
C256 H250 0.930 . S
C256 C257 1.355 . S
C256 C258 1.415 . S
C257 C256 1.355 . S
C257 C259 1.419 . S
C258 C256 1.415 . S
C258 C263 1.425 . S
C258 C265 1.409 . S
C259 H251 0.930 . S
C259 C257 1.419 . S
C259 C260 1.362 . S
C260 H252 0.930 . S
C260 C259 1.362 . S
C260 C263 1.409 . S
C261 H253 0.930 . S
C261 C262 1.355 . S
C261 C263 1.415 . S
C262 C261 1.355 . S
C262 C264 1.419 . S
C263 C258 1.425 . S
C263 C260 1.409 . S
C263 C261 1.415 . S
C264 H254 0.930 1_655 S
C264 C262 1.419 . S
C264 C265 1.362 . S
C265 H255 0.930 . S
C265 C258 1.409 . S
C265 C264 1.362 . S
H266 C272 0.930 . S
H267 C275 0.930 . S
H268 C276 0.930 . S
H269 C277 0.930 . S
H270 C280 0.930 . S
H271 C281 0.930 . S
C272 H266 0.930 . S
C272 C273 1.355 . S
C272 C274 1.415 . S
C273 C272 1.355 . S
C273 C275 1.419 . S
C274 C272 1.415 . S
C274 C279 1.425 . S
C274 C281 1.409 . S
C275 H267 0.930 . S
C275 C273 1.419 . S
C275 C276 1.362 . S
C276 H268 0.930 . S
C276 C275 1.362 . S
C276 C279 1.409 . S
C277 H269 0.930 . S
C277 C278 1.355 . S
C277 C279 1.415 . S
C278 C277 1.355 . S
C278 C280 1.419 . S
C279 C274 1.425 . S
C279 C276 1.409 . S
C279 C277 1.415 . S
C280 H270 0.930 . S
C280 C278 1.419 . S
C280 C281 1.362 . S
C281 H271 0.930 . S
C281 C274 1.409 . S
C281 C280 1.362 . S
H282 C288 0.930 . S
H283 C291 0.930 . S
H284 C292 0.930 . S
H285 C293 0.930 . S
H286 C296 0.930 . S
H287 C297 0.930 . S
C288 H282 0.930 . S
C288 C289 1.355 . S
C288 C290 1.415 . S
C289 C288 1.355 . S
C289 C291 1.419 . S
C290 C288 1.415 . S
C290 C295 1.425 . S
C290 C297 1.409 . S
C291 H283 0.930 . S
C291 C289 1.419 . S
C291 C292 1.362 . S
C292 H284 0.930 . S
C292 C291 1.362 . S
C292 C295 1.409 . S
C293 H285 0.930 . S
C293 C294 1.355 . S
C293 C295 1.415 . S
C294 C293 1.355 . S
C294 C296 1.419 . S
C295 C290 1.425 . S
C295 C292 1.409 . S
C295 C293 1.415 . S
C296 H286 0.930 . S
C296 C294 1.419 . S
C296 C297 1.362 . S
C297 H287 0.930 . S
C297 C290 1.409 . S
C297 C296 1.362 . S
H298 C304 0.930 . S
H299 C307 0.930 . S
H300 C308 0.930 . S
H301 C309 0.930 . S
H302 C312 0.930 . S
H303 C313 0.930 . S
C304 H298 0.930 . S
C304 C305 1.355 . S
C304 C306 1.415 . S
C305 C304 1.355 . S
C305 C307 1.419 . S
C306 C304 1.415 . S
C306 C311 1.425 . S
C306 C313 1.409 . S
C307 H299 0.930 . S
C307 C305 1.419 . S
C307 C308 1.362 . S
C308 H300 0.930 . S
C308 C307 1.362 . S
C308 C311 1.409 . S
C309 H301 0.930 . S
C309 C310 1.355 . S
C309 C311 1.415 . S
C310 C309 1.355 . S
C310 C312 1.419 . S
C311 C306 1.425 . S
C311 C308 1.409 . S
C311 C309 1.415 . S
C312 H302 0.930 . S
C312 C310 1.419 . S
C312 C313 1.362 . S
C313 H303 0.930 . S
C313 C306 1.409 . S
C313 C312 1.362 . S
H314 C320 0.930 . S
H315 C323 0.930 . S
H316 C324 0.930 . S
H317 C325 0.930 . S
H318 C328 0.930 . S
H319 C329 0.930 . S
C320 H314 0.930 . S
C320 C321 1.355 . S
C320 C322 1.415 . S
C321 C320 1.355 . S
C321 C323 1.419 . S
C322 C320 1.415 . S
C322 C327 1.425 . S
C322 C329 1.409 . S
C323 H315 0.930 . S
C323 C321 1.419 . S
C323 C324 1.362 . S
C324 H316 0.930 . S
C324 C323 1.362 . S
C324 C327 1.409 . S
C325 H317 0.930 . S
C325 C326 1.355 . S
C325 C327 1.415 . S
C326 C325 1.355 . S
C326 C328 1.419 . S
C327 C322 1.425 . S
C327 C324 1.409 . S
C327 C325 1.415 . S
C328 H318 0.930 . S
C328 C326 1.419 . S
C328 C329 1.362 . S
C329 H319 0.930 . S
C329 C322 1.409 . S
C329 C328 1.362 . S
H330 C336 0.930 . S
H331 C339 0.930 . S
H332 C340 0.930 . S
H333 C341 0.930 . S
H334 C344 0.930 . S
H335 C345 0.930 . S
C336 H330 0.930 . S
C336 C337 1.355 . S
C336 C338 1.415 . S
C337 C336 1.355 . S
C337 C339 1.419 1_455 S
C338 C336 1.415 . S
C338 C343 1.425 . S
C338 C345 1.409 . S
C339 H331 0.930 . S
C339 C337 1.419 1_655 S
C339 C340 1.362 . S
C340 H332 0.930 . S
C340 C339 1.362 . S
C340 C343 1.409 1_655 S
C341 H333 0.930 . S
C341 C342 1.355 . S
C341 C343 1.415 1_556 S
C342 C341 1.355 . S
C342 C344 1.419 . S
C343 C338 1.425 . S
C343 C340 1.409 1_455 S
C343 C341 1.415 1_554 S
C344 H334 0.930 . S
C344 C342 1.419 . S
C344 C345 1.362 1_556 S
C345 H335 0.930 . S
C345 C338 1.409 . S
C345 C344 1.362 1_554 S
H346 C352 0.930 . S
H347 C355 0.930 . S
H348 C356 0.930 . S
H349 C357 0.930 . S
H350 C360 0.930 . S
H351 C361 0.930 . S
C352 H346 0.930 . S
C352 C353 1.355 . S
C352 C354 1.415 . S
C353 C352 1.355 . S
C353 C355 1.419 . S
C354 C352 1.415 . S
C354 C359 1.425 . S
C354 C361 1.409 . S
C355 H347 0.930 . S
C355 C353 1.419 . S
C355 C356 1.362 . S
C356 H348 0.930 . S
C356 C355 1.362 . S
C356 C359 1.409 . S
C357 H349 0.930 . S
C357 C358 1.355 . S
C357 C359 1.415 . S
C358 C357 1.355 . S
C358 C360 1.419 . S
C359 C354 1.425 . S
C359 C356 1.409 . S
C359 C357 1.415 . S
C360 H350 0.930 . S
C360 C358 1.419 . S
C360 C361 1.362 . S
C361 H351 0.930 . S
C361 C354 1.409 . S
C361 C360 1.362 . S
H362 C368 0.930 . S
H363 C371 0.930 . S
H364 C372 0.930 . S
H365 C373 0.930 . S
H366 C376 0.930 . S
H367 C377 0.930 . S
C368 H362 0.930 . S
C368 C369 1.355 . S
C368 C370 1.415 . S
C369 C368 1.355 . S
C369 C371 1.419 . S
C370 C368 1.415 . S
C370 C375 1.425 . S
C370 C377 1.409 . S
C371 H363 0.930 . S
C371 C369 1.419 . S
C371 C372 1.362 . S
C372 H364 0.930 . S
C372 C371 1.362 . S
C372 C375 1.409 . S
C373 H365 0.930 . S
C373 C374 1.355 . S
C373 C375 1.415 . S
C374 C373 1.355 . S
C374 C376 1.419 . S
C375 C370 1.425 . S
C375 C372 1.409 . S
C375 C373 1.415 . S
C376 H366 0.930 . S
C376 C374 1.419 . S
C376 C377 1.362 . S
C377 H367 0.930 . S
C377 C370 1.409 . S
C377 C376 1.362 . S
H378 C384 0.930 . S
H379 C387 0.930 . S
H380 C388 0.930 . S
H381 C389 0.930 . S
H382 C392 0.930 . S
H383 C393 0.930 . S
C384 H378 0.930 . S
C384 C385 1.355 . S
C384 C386 1.415 . S
C385 C384 1.355 . S
C385 C387 1.419 . S
C386 C384 1.415 . S
C386 C391 1.425 . S
C386 C393 1.409 . S
C387 H379 0.930 . S
C387 C385 1.419 . S
C387 C388 1.362 . S
C388 H380 0.930 . S
C388 C387 1.362 . S
C388 C391 1.409 . S
C389 H381 0.930 . S
C389 C390 1.355 . S
C389 C391 1.415 . S
C390 C389 1.355 . S
C390 C392 1.419 . S
C391 C386 1.425 . S
C391 C388 1.409 . S
C391 C389 1.415 . S
C392 H382 0.930 . S
C392 C390 1.419 . S
C392 C393 1.362 . S
C393 H383 0.930 . S
C393 C386 1.409 . S
C393 C392 1.362 . S
H394 C400 0.930 . S
H395 C403 0.930 . S
H396 C404 0.930 . S
H397 C405 0.930 . S
H398 C408 0.930 . S
H399 C409 0.930 1_556 S
C400 H394 0.930 . S
C400 C401 1.355 . S
C400 C402 1.415 . S
C401 C400 1.355 . S
C401 C403 1.419 . S
C402 C400 1.415 . S
C402 C407 1.425 . S
C402 C409 1.409 1_556 S
C403 H395 0.930 . S
C403 C401 1.419 . S
C403 C404 1.362 . S
C404 H396 0.930 . S
C404 C403 1.362 . S
C404 C407 1.409 . S
C405 H397 0.930 . S
C405 C406 1.355 . S
C405 C407 1.415 1_554 S
C406 C405 1.355 . S
C406 C408 1.419 . S
C407 C402 1.425 . S
C407 C404 1.409 . S
C407 C405 1.415 1_556 S
C408 H398 0.930 . S
C408 C406 1.419 . S
C408 C409 1.362 . S
C409 H399 0.930 1_554 S
C409 C402 1.409 1_554 S
C409 C408 1.362 . S
H410 C416 0.930 . S
H411 C419 0.930 . S
H412 C420 0.930 . S
H413 C421 0.930 1_655 S
H414 C424 0.930 . S
H415 C425 0.930 . S
C416 H410 0.930 . S
C416 C417 1.355 . S
C416 C418 1.415 . S
C417 C416 1.355 . S
C417 C419 1.419 1_455 S
C418 C416 1.415 . S
C418 C423 1.425 . S
C418 C425 1.409 . S
C419 H411 0.930 . S
C419 C417 1.419 1_655 S
C419 C420 1.362 . S
C420 H412 0.930 . S
C420 C419 1.362 . S
C420 C423 1.409 1_655 S
C421 H413 0.930 1_455 S
C421 C422 1.355 . S
C421 C423 1.415 . S
C422 C421 1.355 . S
C422 C424 1.419 . S
C423 C418 1.425 . S
C423 C420 1.409 1_455 S
C423 C421 1.415 . S
C424 H414 0.930 . S
C424 C422 1.419 . S
C424 C425 1.362 . S
C425 H415 0.930 . S
C425 C418 1.409 . S
C425 C424 1.362 . S
C145 C2 1.449 . S
C150 C129 1.472 . S
C161 C22 1.369 . S
C166 C107 1.422 1_655 S
C177 C44 1.310 . S
C182 C120 1.456 . S
C193 C4 1.418 . S
C198 C133 1.550 . S
C214 C103 1.489 . S
C209 C24 1.587 . S
C230 C116 1.489 . S
C225 C42 1.511 . S
C241 C32 1.251 . S
C246 C81 1.276 . S
C257 C49 1.140 . S
C262 C94 1.216 1_655 S
C273 C9 1.302 . S
C278 C64 1.203 . S
C294 C77 1.178 . S
C289 C29 1.262 . S
C310 C90 1.303 . S
C305 C52 1.299 . S
C321 C12 1.237 . S
C326 C68 1.271 . S
C342 C95 1.508 . S
C337 C18 1.490 . S
C353 C38 1.476 . S
C358 C69 1.523 . S
C369 C58 1.478 . S
C374 C82 1.513 . S
C390 C121 1.577 . S
C385 C39 1.566 . S
C406 C134 1.536 . S
C401 C59 1.479 . S
C417 C19 1.546 . S
C422 C108 1.574 . S
