# Generated by pormake.
# Topology pyr, (3,6)-cn, num edge types: 1
# Building blocks:
#     Node 0, Type 0, BuildingBlock: PAMTOO_clean_linker_0, # of connection points: 3
#     Node 1, Type 0, BuildingBlock: PAMTOO_clean_linker_0, # of connection points: 3
#     Node 2, Type 0, BuildingBlock: PAMTOO_clean_linker_0, # of connection points: 3
#     Node 3, Type 0, BuildingBlock: PAMTOO_clean_linker_0, # of connection points: 3
#     Node 4, Type 0, BuildingBlock: PAMTOO_clean_linker_0, # of connection points: 3
#     Node 5, Type 0, BuildingBlock: PAMTOO_clean_linker_0, # of connection points: 3
#     Node 6, Type 0, BuildingBlock: PAMTOO_clean_linker_0, # of connection points: 3
#     Node 7, Type 0, BuildingBlock: PAMTOO_clean_linker_0, # of connection points: 3
#     Node 8, Type 1, BuildingBlock: MIDCAF_clean_sbu_0, # of connection points: 6
#     Node 9, Type 1, BuildingBlock: MIDCAF_clean_sbu_0, # of connection points: 6
#     Node 10, Type 1, BuildingBlock: MIDCAF_clean_sbu_0, # of connection points: 6
#     Node 11, Type 1, BuildingBlock: MIDCAF_clean_sbu_0, # of connection points: 6
#     Edge 12, Type (0, 1), BuildingBlock: ZUJKAS_clean_linker_0, # of connection points: 2
#     Edge 13, Type (0, 1), BuildingBlock: ZUJKAS_clean_linker_0, # of connection points: 2
#     Edge 14, Type (0, 1), BuildingBlock: ZUJKAS_clean_linker_0, # of connection points: 2
#     Edge 15, Type (0, 1), BuildingBlock: ZUJKAS_clean_linker_0, # of connection points: 2
#     Edge 16, Type (0, 1), BuildingBlock: ZUJKAS_clean_linker_0, # of connection points: 2
#     Edge 17, Type (0, 1), BuildingBlock: ZUJKAS_clean_linker_0, # of connection points: 2
#     Edge 18, Type (0, 1), BuildingBlock: ZUJKAS_clean_linker_0, # of connection points: 2
#     Edge 19, Type (0, 1), BuildingBlock: ZUJKAS_clean_linker_0, # of connection points: 2
#     Edge 20, Type (0, 1), BuildingBlock: ZUJKAS_clean_linker_0, # of connection points: 2
#     Edge 21, Type (0, 1), BuildingBlock: ZUJKAS_clean_linker_0, # of connection points: 2
#     Edge 22, Type (0, 1), BuildingBlock: ZUJKAS_clean_linker_0, # of connection points: 2
#     Edge 23, Type (0, 1), BuildingBlock: ZUJKAS_clean_linker_0, # of connection points: 2
#     Edge 24, Type (0, 1), BuildingBlock: ZUJKAS_clean_linker_0, # of connection points: 2
#     Edge 25, Type (0, 1), BuildingBlock: ZUJKAS_clean_linker_0, # of connection points: 2
#     Edge 26, Type (0, 1), BuildingBlock: ZUJKAS_clean_linker_0, # of connection points: 2
#     Edge 27, Type (0, 1), BuildingBlock: ZUJKAS_clean_linker_0, # of connection points: 2
#     Edge 28, Type (0, 1), BuildingBlock: ZUJKAS_clean_linker_0, # of connection points: 2
#     Edge 29, Type (0, 1), BuildingBlock: ZUJKAS_clean_linker_0, # of connection points: 2
#     Edge 30, Type (0, 1), BuildingBlock: ZUJKAS_clean_linker_0, # of connection points: 2
#     Edge 31, Type (0, 1), BuildingBlock: ZUJKAS_clean_linker_0, # of connection points: 2
#     Edge 32, Type (0, 1), BuildingBlock: ZUJKAS_clean_linker_0, # of connection points: 2
#     Edge 33, Type (0, 1), BuildingBlock: ZUJKAS_clean_linker_0, # of connection points: 2
#     Edge 34, Type (0, 1), BuildingBlock: ZUJKAS_clean_linker_0, # of connection points: 2
#     Edge 35, Type (0, 1), BuildingBlock: ZUJKAS_clean_linker_0, # of connection points: 2
# Relax obj value: 0.091
# Max RMSD: 0.201
# Mean RMSD: 0.142
data_MOF--net-pyr--node1-MIDCAF_clean_sbu_0--node2-PAMTOO_clean_linker_0--edge1-ZUJKAS_clean_linker_0
_symmetry_space_group_name_H-M    P1
_symmetry_Int_Tables_number       1
_symmetry_cell_setting            triclinic
loop_
_symmetry_equiv_pos_as_xyz
'x, y, z'
_cell_length_a     45.184269
_cell_length_b     46.618562
_cell_length_c     46.033397
_cell_angle_alpha  89.832441
_cell_angle_beta   91.236285
_cell_angle_gamma 95.223916
loop_
_atom_site_label
_atom_site_type_symbol
_atom_site_fract_x
_atom_site_fract_y
_atom_site_fract_z
_atom_type_partial_charge
H0 H 0.2026 0.25657 0.25463 0.0
H1 H 0.26406 0.19113 0.25876 0.0
H2 H 0.27047 0.25372 0.19045 0.0
H3 H 0.27446 0.19348 0.17295 0.0
C4 C 0.28715 0.18598 0.19209 0.0
O5 O 0.29233 0.20805 0.21199 0.0
H6 H 0.27337 0.16768 0.20205 0.0
C7 C 0.22181 0.24718 0.24634 0.0
C8 C 0.23539 0.25856 0.22099 0.0
C9 C 0.23177 0.22271 0.26011 0.0
C10 C 0.25595 0.20994 0.24851 0.0
C11 C 0.26969 0.22109 0.22343 0.0
C12 C 0.25954 0.24536 0.20983 0.0
H13 H 0.29458 0.86936 0.74691 0.0
H14 H 0.29431 0.82352 0.66573 0.0
H15 H 0.3627 0.81299 0.72964 0.0
H16 H 0.38185 0.82282 0.6689 0.0
C17 C 0.36349 0.80939 0.6576 0.0
O18 O 0.34276 0.79881 0.67747 0.0
H19 H 0.35281 0.82337 0.6416 0.0
C20 C 0.30396 0.85396 0.733 0.0
C21 C 0.33 0.84168 0.74208 0.0
C22 C 0.29089 0.84779 0.70543 0.0
C23 C 0.30401 0.82875 0.687 0.0
C24 C 0.32992 0.81647 0.69572 0.0
C25 C 0.34273 0.82279 0.72319 0.0
H26 H 0.79789 0.27079 0.8362 0.0
H27 H 0.71027 0.26147 0.79664 0.0
H28 H 0.76652 0.33904 0.78379 0.0
H29 H 0.70323 0.34204 0.80233 0.0
C30 C 0.69277 0.32617 0.78628 0.0
O31 O 0.71431 0.31219 0.77272 0.0
H32 H 0.67786 0.31018 0.79831 0.0
C33 C 0.78095 0.27905 0.82235 0.0
C34 C 0.78588 0.30694 0.81056 0.0
C35 C 0.75382 0.26222 0.81758 0.0
C36 C 0.73175 0.27345 0.80002 0.0
C37 C 0.73642 0.30105 0.78804 0.0
C38 C 0.76343 0.31763 0.79308 0.0
H39 H 0.81743 0.74193 0.34812 0.0
H40 H 0.81927 0.68368 0.27559 0.0
H41 H 0.87212 0.76455 0.27463 0.0
H42 H 0.84972 0.74658 0.21704 0.0
C43 C 0.84679 0.72287 0.2205 0.0
O44 O 0.85874 0.71617 0.2472 0.0
H45 H 0.82254 0.71594 0.21955 0.0
C46 C 0.82489 0.737 0.32664 0.0
C47 C 0.84531 0.75686 0.31281 0.0
C48 C 0.81521 0.71035 0.31362 0.0
C49 C 0.82635 0.70387 0.28632 0.0
C50 C 0.84687 0.72338 0.27254 0.0
C51 C 0.85626 0.74972 0.28569 0.0
H52 H 0.8814 0.92265 0.84335 0.0
H53 H 0.86668 0.86603 0.91685 0.0
H54 H 0.93474 0.85141 0.85683 0.0
H55 H 0.889 0.80161 0.8773 0.0
C56 C 0.89295 0.80637 0.90085 0.0
O57 O 0.90831 0.83319 0.90421 0.0
H58 H 0.871 0.80624 0.91133 0.0
C59 C 0.88703 0.90418 0.85597 0.0
C60 C 0.91013 0.88814 0.84686 0.0
C61 C 0.87111 0.89653 0.88122 0.0
C62 C 0.87875 0.87259 0.89749 0.0
C63 C 0.90137 0.85627 0.88845 0.0
C64 C 0.91696 0.864 0.86324 0.0
H65 H 0.71964 0.13926 0.31881 0.0
H66 H 0.67848 0.21911 0.32121 0.0
H67 H 0.75229 0.20678 0.37818 0.0
H68 H 0.71035 0.23853 0.40654 0.0
C69 C 0.69744 0.24566 0.3874 0.0
O70 O 0.71325 0.242 0.36257 0.0
H71 H 0.6758 0.23216 0.38643 0.0
C72 C 0.71843 0.16058 0.32774 0.0
C73 C 0.73854 0.1705 0.35009 0.0
C74 C 0.69677 0.17796 0.31682 0.0
C75 C 0.69527 0.20551 0.32878 0.0
C76 C 0.71514 0.21562 0.35097 0.0
C77 C 0.73683 0.19834 0.36131 0.0
H78 H 0.35602 0.67948 0.11628 0.0
H79 H 0.37505 0.6506 0.20336 0.0
H80 H 0.41447 0.73204 0.17364 0.0
H81 H 0.45374 0.7107 0.21633 0.0
C82 C 0.43903 0.69128 0.22243 0.0
O83 O 0.4098 0.69649 0.21737 0.0
H84 H 0.44506 0.67306 0.20879 0.0
C85 C 0.36766 0.68249 0.13703 0.0
C86 C 0.38612 0.70799 0.14198 0.0
C87 C 0.36305 0.66165 0.15911 0.0
C88 C 0.37781 0.66643 0.18613 0.0
C89 C 0.39612 0.69183 0.19122 0.0
C90 C 0.40002 0.71259 0.16936 0.0
H91 H 0.14536 0.32227 0.69608 0.0
H92 H 0.21043 0.38228 0.73835 0.0
H93 H 0.23528 0.33398 0.66535 0.0
H94 H 0.27212 0.33724 0.72302 0.0
C95 C 0.27564 0.36118 0.72158 0.0
O96 O 0.25375 0.37206 0.70457 0.0
H97 H 0.27489 0.36989 0.74399 0.0
C98 C 0.16778 0.33268 0.69758 0.0
C99 C 0.18929 0.32544 0.6778 0.0
C100 C 0.17505 0.35337 0.71936 0.0
C101 C 0.20423 0.36655 0.72151 0.0
C102 C 0.22582 0.35917 0.70232 0.0
C103 C 0.21836 0.33891 0.68042 0.0
Zn104 Zn 0.99727 0.05705 0.54856 0.0
Zn105 Zn 0.06588 0.99325 0.48916 0.0
Zn106 Zn 0.0314 0.02543 0.51816 0.0
C107 C 0.08534 0.0506 0.47718 0.0
C108 C 0.00678 0.97924 0.46995 0.0
O109 O 0.02878 0.0081 0.56349 0.0
O110 O 0.99822 0.03517 0.58534 0.0
C111 C 0.0467 0.09328 0.53083 0.0
O112 O 0.06598 0.05448 0.49665 0.0
O113 O 0.08922 0.02541 0.46894 0.0
O114 O 0.03235 0.97044 0.46901 0.0
O115 O 0.00232 1.00144 0.48534 0.0
O116 O 0.02343 0.09349 0.54551 0.0
O117 O 0.05283 0.06995 0.51821 0.0
O118 O 0.987 0.0243 0.49584 0.0
O119 O 0.96143 0.05197 0.52305 0.0
C120 C 0.96316 0.03669 0.50067 0.0
O121 O 0.05143 0.99547 0.54933 0.0
O122 O 0.08384 0.97468 0.52295 0.0
C123 C 0.01424 0.01436 0.58612 0.0
C124 C 0.07231 0.97848 0.54721 0.0
Zn125 Zn 0.52249 0.0502 0.97569 0.0
Zn126 Zn 0.57258 0.97939 0.04849 0.0
Zn127 Zn 0.54692 0.0135 0.01086 0.0
C128 C 0.61372 0.99399 0.00482 0.0
C129 C 0.52186 0.94825 0.02438 0.0
O130 O 0.52718 0.04621 0.03771 0.0
O131 O 0.50437 0.07293 0.00609 0.0
C132 C 0.58244 0.05327 0.96272 0.0
O133 O 0.59303 0.00966 0.99635 0.0
O134 O 0.61014 0.97808 0.02696 0.0
O135 O 0.54101 0.94718 0.04463 0.0
O136 O 0.52133 0.97083 0.00824 0.0
O137 O 0.55941 0.06577 0.95684 0.0
O138 O 0.58163 0.03265 0.9815 0.0
O139 O 0.51044 0.98819 0.98616 0.0
O140 O 0.49716 0.02025 0.954 0.0
C141 C 0.49495 0.99478 0.96365 0.0
O142 O 0.54805 0.03311 0.05505 0.0
O143 O 0.57285 0.00448 0.08303 0.0
C144 C 0.51038 0.0666 0.03213 0.0
C145 C 0.56002 0.02726 0.07984 0.0
Zn146 Zn 0.5856 0.56653 0.55496 0.0
Zn147 Zn 0.51009 0.50175 0.48534 0.0
Zn148 Zn 0.54875 0.53346 0.51986 0.0
C149 C 0.5679 0.49561 0.46591 0.0
C150 C 0.49641 0.55882 0.48084 0.0
O151 O 0.53003 0.57547 0.52563 0.0
O152 O 0.55901 0.59803 0.55929 0.0
C153 C 0.56942 0.51462 0.58424 0.0
O154 O 0.57489 0.51464 0.48577 0.0
O155 O 0.54104 0.48633 0.46143 0.0
O156 O 0.48904 0.53428 0.47002 0.0
O157 O 0.51691 0.56193 0.5008 0.0
O158 O 0.58726 0.53707 0.5863 0.0
O159 O 0.55198 0.51074 0.56179 0.0
O160 O 0.59196 0.53852 0.49806 0.0
O161 O 0.61768 0.57096 0.52574 0.0
C162 C 0.61547 0.55578 0.50294 0.0
O163 O 0.52668 0.49877 0.54653 0.0
O164 O 0.49242 0.47717 0.51691 0.0
C165 C 0.53604 0.59697 0.54303 0.0
C166 C 0.50451 0.47981 0.54188 0.0
Zn167 Zn 0.09023 0.53459 0.98468 0.0
Zn168 Zn 0.01166 0.47054 0.05157 0.0
Zn169 Zn 0.05103 0.50293 0.0183 0.0
C170 C 0.06924 0.46261 0.07277 0.0
C171 C 0.00385 0.45167 0.9937 0.0
O172 O 0.03761 0.54751 0.0158 0.0
O173 O 0.07073 0.57101 0.98754 0.0
C174 C 0.12154 0.5142 0.03285 0.0
O175 O 0.07632 0.48112 0.05261 0.0
O176 O 0.04224 0.45447 0.07708 0.0
O177 O 0.99348 0.44679 0.01869 0.0
O178 O 0.02569 0.47102 0.99006 0.0
O179 O 0.12537 0.52914 0.01007 0.0
O180 O 0.09551 0.50238 0.03896 0.0
O181 O 0.05007 0.48346 0.97448 0.0
O182 O 0.08317 0.51052 0.94921 0.0
C183 C 0.06428 0.48889 0.95081 0.0
O184 O 0.02062 0.53209 0.0371 0.0
O185 O 0.99108 0.50396 0.0651 0.0
C186 C 0.04754 0.57066 0.00243 0.0
C187 C 0.99924 0.5287 0.05525 0.0
H188 H 0.21484 0.16581 0.26967 0.0
H189 H 0.18875 0.14404 0.31143 0.0
H190 H 0.18679 0.2279 0.35014 0.0
H191 H 0.21309 0.24997 0.30829 0.0
H192 H 0.20707 0.17999 0.38809 0.0
H193 H 0.09873 0.1537 0.33052 0.0
H194 H 0.13075 0.14379 0.3117 0.0
H195 H 0.12633 0.18115 0.3179 0.0
C196 C 0.20905 0.17964 0.28713 0.0
C197 C 0.21608 0.20962 0.2857 0.0
C198 C 0.19395 0.16718 0.31087 0.0
C199 C 0.18566 0.1844 0.33372 0.0
C200 C 0.19289 0.21429 0.33262 0.0
H201 H 0.06733 0.1043 0.46643 0.0
H202 H 0.09193 0.14203 0.43563 0.0
C203 C 0.20778 0.22684 0.30869 0.0
C204 C 0.16967 0.17082 0.35876 0.0
H205 H 0.1055 0.13068 0.37616 0.0
C206 C 0.1847 0.16956 0.38567 0.0
C207 C 0.14038 0.15756 0.35561 0.0
C208 C 0.12291 0.15923 0.32747 0.0
C209 C 0.17172 0.15398 0.40909 0.0
C210 C 0.14311 0.13927 0.40537 0.0
C211 C 0.12748 0.1419 0.37895 0.0
C212 C 0.13017 0.11873 0.42738 0.0
C213 C 0.18892 0.15285 0.43744 0.0
C214 C 0.1437 0.09337 0.43322 0.0
C215 C 0.12968 0.07184 0.45061 0.0
C216 C 0.10191 0.07529 0.46267 0.0
C217 C 0.08893 0.10123 0.45782 0.0
C218 C 0.10287 0.12271 0.44012 0.0
H219 H 0.20628 0.17124 0.43957 0.0
H220 H 0.17389 0.153 0.4562 0.0
H221 H 0.20012 0.13263 0.43837 0.0
H222 H 0.16449 0.08962 0.42323 0.0
H223 H 0.14017 0.05205 0.45388 0.0
H224 H 0.38941 0.85394 0.75397 0.0
H225 H 0.41315 0.87098 0.7996 0.0
H226 H 0.32773 0.8658 0.84025 0.0
H227 H 0.30372 0.84858 0.79454 0.0
H228 H 0.35848 0.9176 0.84858 0.0
H229 H 0.43193 0.83249 0.87592 0.0
H230 H 0.43699 0.84503 0.83934 0.0
H231 H 0.40172 0.82715 0.84957 0.0
C232 C 0.3757 0.85572 0.77277 0.0
C233 C 0.34463 0.84985 0.77056 0.0
C234 C 0.38935 0.8654 0.79894 0.0
C235 C 0.37231 0.86919 0.82356 0.0
C236 C 0.34135 0.86284 0.8216 0.0
H237 H 0.45832 0.94872 0.98382 0.0
H238 H 0.42617 0.91387 0.95427 0.0
C239 C 0.32765 0.85318 0.79541 0.0
C240 C 0.38658 0.88265 0.85021 0.0
H241 H 0.44603 0.87961 0.89701 0.0
C242 C 0.37716 0.90889 0.8596 0.0
C243 C 0.4108 0.87123 0.86486 0.0
C244 C 0.42075 0.84226 0.85709 0.0
C245 C 0.39259 0.92496 0.88178 0.0
C246 C 0.41815 0.91461 0.89479 0.0
C247 C 0.42647 0.88752 0.88686 0.0
C248 C 0.43869 0.93365 0.9132 0.0
C249 C 0.38241 0.95366 0.89022 0.0
C250 C 0.45655 0.95577 0.89983 0.0
C251 C 0.47504 0.97512 0.91647 0.0
C252 C 0.47621 0.97274 0.94691 0.0
C253 C 0.45856 0.95038 0.96039 0.0
C254 C 0.44 0.93075 0.94359 0.0
H255 H 0.3591 0.95577 0.88294 0.0
H256 H 0.38419 0.95669 0.91413 0.0
H257 H 0.39692 0.97116 0.87996 0.0
H258 H 0.45587 0.95828 0.87642 0.0
H259 H 0.48841 0.99213 0.90546 0.0
H260 H 0.71152 0.37441 0.75587 0.0
H261 H 0.68296 0.40148 0.72101 0.0
H262 H 0.60663 0.34006 0.7318 0.0
H263 H 0.63514 0.31305 0.7668 0.0
H264 H 0.6539 0.38202 0.66826 0.0
H265 H 0.57494 0.41906 0.74823 0.0
H266 H 0.60935 0.40485 0.75915 0.0
H267 H 0.57825 0.38094 0.74685 0.0
C268 C 0.68865 0.36677 0.75072 0.0
C269 C 0.67537 0.34194 0.76416 0.0
C270 C 0.67239 0.38215 0.73087 0.0
C271 C 0.64256 0.37298 0.72418 0.0
C272 C 0.62944 0.34777 0.73707 0.0
H273 H 0.55487 0.45648 0.57824 0.0
H274 H 0.56657 0.41868 0.61259 0.0
C275 C 0.64574 0.33233 0.75691 0.0
C276 C 0.62544 0.38998 0.70364 0.0
H277 H 0.56916 0.43417 0.69973 0.0
C278 C 0.63515 0.39317 0.67499 0.0
C279 C 0.60109 0.40457 0.71264 0.0
C280 C 0.5903 0.40246 0.74343 0.0
C281 C 0.62168 0.41121 0.65523 0.0
C282 C 0.5976 0.42616 0.66432 0.0
C283 C 0.5874 0.42241 0.69278 0.0
C284 C 0.5853 0.44832 0.64564 0.0
C285 C 0.63425 0.41521 0.62522 0.0
C286 C 0.59049 0.47739 0.65351 0.0
C287 C 0.58357 0.49897 0.63411 0.0
C288 C 0.57113 0.49186 0.60652 0.0
C289 C 0.56409 0.46268 0.59943 0.0
C290 C 0.57106 0.44104 0.61891 0.0
H291 H 0.65585 0.40582 0.62329 0.0
H292 H 0.61838 0.40448 0.60906 0.0
H293 H 0.63747 0.43845 0.61956 0.0
H294 H 0.60138 0.48345 0.67407 0.0
H295 H 0.58913 0.52126 0.64024 0.0
H296 H 0.8331 0.66835 0.19982 0.0
H297 H 0.86086 0.64188 0.16518 0.0
H298 H 0.92383 0.7164 0.1555 0.0
H299 H 0.89623 0.74281 0.19047 0.0
H300 H 0.87663 0.65494 0.10639 0.0
H301 H 0.9755 0.65178 0.18028 0.0
H302 H 0.94015 0.66133 0.19286 0.0
H303 H 0.96363 0.6868 0.17248 0.0
C304 C 0.85265 0.67912 0.18996 0.0
C305 C 0.86235 0.70768 0.19736 0.0
C306 C 0.86847 0.66405 0.17025 0.0
C307 C 0.89448 0.67714 0.15793 0.0
C308 C 0.90398 0.70583 0.16498 0.0
H309 H 0.02244 0.58473 0.06223 0.0
H310 H 0.9974 0.62486 0.08164 0.0
C311 C 0.88815 0.72093 0.18473 0.0
C312 C 0.912 0.66021 0.13855 0.0
H313 H 0.97685 0.6282 0.13547 0.0
C314 C 0.89868 0.64932 0.11257 0.0
C315 C 0.94083 0.65308 0.14659 0.0
C316 C 0.95591 0.66363 0.17465 0.0
C317 C 0.91307 0.63079 0.09476 0.0
C318 C 0.94134 0.62258 0.10346 0.0
C319 C 0.95521 0.63454 0.12878 0.0
C320 C 0.95557 0.59946 0.08845 0.0
C321 C 0.89746 0.61988 0.06711 0.0
C322 C 0.94041 0.57193 0.08575 0.0
C323 C 0.95445 0.54925 0.07419 0.0
C324 C 0.98408 0.55351 0.06531 0.0
C325 C 0.99932 0.58105 0.06801 0.0
C326 C 0.98513 0.60389 0.07937 0.0
H327 H 0.88427 0.63658 0.05734 0.0
H328 H 0.91325 0.61334 0.0508 0.0
H329 H 0.88175 0.60093 0.07227 0.0
H330 H 0.91792 0.56774 0.09338 0.0
H331 H 0.94224 0.52818 0.07265 0.0
H332 H 0.31675 0.14132 0.21348 0.0
H333 H 0.3617 0.12272 0.1946 0.0
H334 H 0.36735 0.18974 0.12959 0.0
H335 H 0.32267 0.2085 0.14869 0.0
H336 H 0.36654 0.10185 0.1395 0.0
H337 H 0.45303 0.19199 0.15902 0.0
H338 H 0.41769 0.18945 0.17691 0.0
H339 H 0.4207 0.20312 0.14039 0.0
C340 C 0.32789 0.15223 0.1954 0.0
C341 C 0.31613 0.17606 0.18222 0.0
C342 C 0.35353 0.14165 0.18467 0.0
C343 C 0.36809 0.15498 0.16084 0.0
C344 C 0.35689 0.17942 0.14833 0.0
H345 H 0.48844 0.11906 0.02978 0.0
H346 H 0.45724 0.13999 0.06522 0.0
C347 C 0.33126 0.18999 0.15906 0.0
C348 C 0.39321 0.14183 0.14733 0.0
H349 H 0.46423 0.15668 0.12391 0.0
C350 C 0.38809 0.11364 0.13653 0.0
C351 C 0.4213 0.15725 0.14344 0.0
C352 C 0.42866 0.18703 0.15581 0.0
C353 C 0.40969 0.10099 0.12066 0.0
C354 C 0.43746 0.11677 0.11594 0.0
C355 C 0.44297 0.1446 0.12758 0.0
C356 C 0.45981 0.1057 0.09668 0.0
C357 C 0.402 0.07143 0.1078 0.0
C358 C 0.47255 0.07995 0.10301 0.0
C359 C 0.49029 0.06777 0.08263 0.0
C360 C 0.49588 0.08136 0.05572 0.0
C361 C 0.48449 0.10799 0.05024 0.0
C362 C 0.46672 0.12005 0.07054 0.0
H363 H 0.3778 0.0647 0.10857 0.0
H364 H 0.40901 0.07081 0.08485 0.0
H365 H 0.41392 0.05546 0.12028 0.0
H366 H 0.46788 0.06872 0.12326 0.0
H367 H 0.49833 0.04707 0.08738 0.0
H368 H 0.28076 0.87132 0.65208 0.0
H369 H 0.2376 0.89531 0.63551 0.0
H370 H 0.19806 0.88164 0.71941 0.0
H371 H 0.24109 0.85698 0.73606 0.0
H372 H 0.15842 0.86756 0.67212 0.0
H373 H 0.21699 0.97613 0.65876 0.0
H374 H 0.2352 0.94873 0.64076 0.0
H375 H 0.23257 0.94811 0.67972 0.0
C376 C 0.26282 0.8732 0.66698 0.0
C377 C 0.26439 0.8622 0.6954 0.0
C378 C 0.23831 0.88724 0.65759 0.0
C379 C 0.21485 0.89071 0.67639 0.0
C380 C 0.21607 0.87945 0.70465 0.0
H381 H 0.08267 0.99977 0.6024 0.0
H382 H 0.11206 0.97855 0.64121 0.0
C383 C 0.24071 0.86547 0.71415 0.0
C384 C 0.18878 0.90534 0.66591 0.0
H385 H 0.17041 0.96695 0.63255 0.0
C386 C 0.16087 0.88948 0.66396 0.0
C387 C 0.19179 0.93416 0.65588 0.0
C388 C 0.22069 0.95289 0.65915 0.0
C389 C 0.13648 0.90097 0.65023 0.0
C390 C 0.14025 0.92886 0.63787 0.0
C391 C 0.16753 0.94548 0.64181 0.0
C392 C 0.11794 0.93959 0.61736 0.0
C393 C 0.10712 0.88283 0.6483 0.0
C394 C 0.11105 0.92453 0.5914 0.0
C395 C 0.09451 0.9366 0.56937 0.0
C396 C 0.08439 0.96396 0.57282 0.0
C397 C 0.08985 0.97847 0.59938 0.0
C398 C 0.10673 0.96643 0.62145 0.0
H399 H 0.10471 0.8674 0.66672 0.0
H400 H 0.08816 0.89641 0.64816 0.0
H401 H 0.10604 0.87012 0.62789 0.0
H402 H 0.11995 0.90413 0.58743 0.0
H403 H 0.09073 0.92502 0.54906 0.0
H404 H 0.79041 0.3644 0.8239 0.0
H405 H 0.8331 0.3931 0.84528 0.0
H406 H 0.88515 0.32024 0.84032 0.0
H407 H 0.84304 0.29183 0.81732 0.0
H408 H 0.85466 0.38008 0.89672 0.0
H409 H 0.94648 0.38449 0.81882 0.0
H410 H 0.90832 0.37404 0.80814 0.0
H411 H 0.93072 0.34832 0.82493 0.0
C412 C 0.81123 0.35474 0.82626 0.0
C413 C 0.81315 0.32566 0.81907 0.0
C414 C 0.83562 0.37117 0.8387 0.0
C415 C 0.86242 0.35892 0.84431 0.0
C416 C 0.86494 0.33039 0.83574 0.0
H417 H 0.97672 0.39725 0.9924 0.0
H418 H 0.94513 0.37488 0.95334 0.0
C419 C 0.84063 0.314 0.82301 0.0
C420 C 0.88588 0.3744 0.86292 0.0
H421 H 0.96049 0.39438 0.86895 0.0
C422 C 0.87771 0.38352 0.89041 0.0
C423 C 0.91597 0.37905 0.8547 0.0
C424 C 0.92585 0.37122 0.82491 0.0
C425 C 0.8988 0.39633 0.9102 0.0
C426 C 0.92908 0.3995 0.90265 0.0
C427 C 0.93729 0.39141 0.87482 0.0
C428 C 0.95223 0.41095 0.92384 0.0
C429 C 0.88845 0.40629 0.93916 0.0
C430 C 0.96774 0.43803 0.91956 0.0
C431 C 0.98588 0.45082 0.94185 0.0
C432 C 0.9889 0.43654 0.96856 0.0
C433 C 0.97468 0.40874 0.97208 0.0
C434 C 0.95666 0.39597 0.94982 0.0
H435 H 0.8643 0.40917 0.9386 0.0
H436 H 0.89246 0.38989 0.95596 0.0
H437 H 0.90087 0.42697 0.94581 0.0
H438 H 0.96456 0.4499 0.89964 0.0
H439 H 0.99625 0.47244 0.93873 0.0
H440 H 0.76822 0.7212 0.34746 0.0
H441 H 0.73607 0.68686 0.37509 0.0
H442 H 0.78059 0.61681 0.34056 0.0
H443 H 0.81435 0.65117 0.31448 0.0
H444 H 0.69699 0.64391 0.35923 0.0
H445 H 0.78647 0.59983 0.42557 0.0
H446 H 0.79323 0.6312 0.40287 0.0
H447 H 0.79023 0.59575 0.38713 0.0
C448 C 0.77159 0.69855 0.34606 0.0
C449 C 0.79426 0.68912 0.32896 0.0
C450 C 0.75292 0.67887 0.36165 0.0
C451 C 0.75622 0.64924 0.36037 0.0
C452 C 0.77806 0.63959 0.34251 0.0
H453 H 0.613 0.54014 0.44513 0.0
H454 H 0.64847 0.55614 0.40776 0.0
C455 C 0.79707 0.65932 0.3272 0.0
C456 C 0.73676 0.6288 0.37797 0.0
H457 H 0.73759 0.57949 0.43297 0.0
C458 C 0.70584 0.62967 0.37523 0.0
C459 C 0.74836 0.61029 0.39894 0.0
C460 C 0.78137 0.60931 0.40407 0.0
C461 C 0.68626 0.61354 0.39361 0.0
C462 C 0.69786 0.59513 0.4147 0.0
C463 C 0.72871 0.59337 0.41663 0.0
C464 C 0.67887 0.58063 0.43737 0.0
C465 C 0.65355 0.61775 0.39133 0.0
C466 C 0.68522 0.5872 0.46669 0.0
C467 C 0.66549 0.57732 0.48816 0.0
C468 C 0.63879 0.56077 0.48083 0.0
C469 C 0.6334 0.55256 0.45167 0.0
C470 C 0.65346 0.56215 0.43016 0.0
H471 H 0.64932 0.63728 0.37855 0.0
H472 H 0.64157 0.59888 0.38026 0.0
H473 H 0.64403 0.61972 0.4132 0.0
H474 H 0.70476 0.60123 0.47289 0.0
H475 H 0.67053 0.58389 0.51041 0.0
H476 H 0.22693 0.2651 0.16236 0.0
H477 H 0.20507 0.30435 0.1368 0.0
H478 H 0.19363 0.34651 0.2185 0.0
H479 H 0.21618 0.30762 0.24425 0.0
H480 H 0.14783 0.31952 0.14455 0.0
H481 H 0.2306 0.41251 0.16748 0.0
H482 H 0.23899 0.37559 0.17213 0.0
H483 H 0.21836 0.39254 0.19914 0.0
C484 C 0.22036 0.283 0.17489 0.0
C485 C 0.22341 0.28323 0.20538 0.0
C486 C 0.20772 0.30536 0.16023 0.0
C487 C 0.19808 0.32857 0.17568 0.0
C488 C 0.20143 0.32911 0.20607 0.0
H489 H 0.06439 0.44011 0.12715 0.0
H490 H 0.09835 0.40979 0.15208 0.0
C491 C 0.21399 0.30668 0.22079 0.0
C492 C 0.18236 0.35091 0.16015 0.0
H493 H 0.18387 0.42331 0.14696 0.0
C494 C 0.15585 0.34217 0.14492 0.0
C495 C 0.19295 0.38046 0.16047 0.0
C496 C 0.22193 0.39091 0.17545 0.0
C497 C 0.13926 0.36219 0.13066 0.0
C498 C 0.14929 0.3918 0.13181 0.0
C499 C 0.17617 0.40059 0.14635 0.0
C500 C 0.13131 0.41368 0.11862 0.0
C501 C 0.1109 0.35163 0.11459 0.0
C502 C 0.13911 0.42662 0.09196 0.0
C503 C 0.11962 0.4439 0.07753 0.0
C504 C 0.09223 0.44869 0.08975 0.0
C505 C 0.08532 0.43684 0.11718 0.0
C506 C 0.10469 0.41955 0.13147 0.0
H507 H 0.10898 0.32791 0.11138 0.0
H508 H 0.09158 0.35719 0.12723 0.0
H509 H 0.10967 0.36228 0.09304 0.0
H510 H 0.15953 0.42218 0.08165 0.0
H511 H 0.12528 0.45217 0.05617 0.0
H512 H 0.77085 0.24772 0.87296 0.0
H513 H 0.75662 0.20352 0.89944 0.0
H514 H 0.70589 0.1699 0.82462 0.0
H515 H 0.72186 0.21313 0.79721 0.0
H516 H 0.70326 0.18749 0.91424 0.0
H517 H 0.74071 0.09856 0.8501 0.0
H518 H 0.75424 0.13566 0.84377 0.0
H519 H 0.71966 0.12074 0.82727 0.0
C520 C 0.75762 0.23054 0.86166 0.0
C521 C 0.74754 0.23412 0.83281 0.0
C522 C 0.74929 0.20528 0.87699 0.0
C523 C 0.73049 0.18311 0.86399 0.0
C524 C 0.72107 0.18626 0.83497 0.0
H525 H 0.58823 0.07064 0.90701 0.0
H526 H 0.63155 0.09691 0.88539 0.0
C527 C 0.72976 0.21133 0.81945 0.0
C528 C 0.7174 0.15871 0.8818 0.0
H529 H 0.69715 0.08629 0.88003 0.0
C530 C 0.70272 0.16526 0.90721 0.0
C531 C 0.71674 0.12963 0.87279 0.0
C532 C 0.734 0.12075 0.84715 0.0
C533 C 0.68557 0.14395 0.92251 0.0
C534 C 0.68306 0.1153 0.91217 0.0
C535 C 0.69914 0.10833 0.88784 0.0
C536 C 0.66 0.0939 0.92345 0.0
C537 C 0.6685 0.15254 0.94845 0.0
C538 C 0.66212 0.08255 0.95164 0.0
C539 C 0.63731 0.06739 0.96405 0.0
C540 C 0.61021 0.06364 0.94838 0.0
C541 C 0.60886 0.07339 0.91955 0.0
C542 C 0.63361 0.08822 0.90713 0.0
H543 H 0.67139 0.17611 0.95252 0.0
H544 H 0.64443 0.1459 0.94516 0.0
H545 H 0.67621 0.14134 0.96813 0.0
H546 H 0.68238 0.08679 0.96453 0.0
H547 H 0.63878 0.06023 0.9864 0.0
H548 H 0.81268 0.7939 0.342 0.0
H549 H 0.83093 0.8386 0.36704 0.0
H550 H 0.92027 0.82656 0.3416 0.0
H551 H 0.90227 0.78208 0.3166 0.0
H552 H 0.86986 0.84546 0.41231 0.0
H553 H 0.91455 0.90995 0.31971 0.0
H554 H 0.88982 0.87756 0.31486 0.0
H555 H 0.92909 0.87544 0.32093 0.0
C556 C 0.8362 0.80087 0.34167 0.0
C557 C 0.85602 0.78452 0.32718 0.0
C558 C 0.84656 0.82648 0.35584 0.0
C559 C 0.87687 0.83627 0.35567 0.0
C560 C 0.89666 0.81995 0.34126 0.0
H561 H 0.99622 0.9217 0.47291 0.0
H562 H 0.95865 0.89071 0.44629 0.0
C563 C 0.88634 0.79444 0.32704 0.0
C564 C 0.8884 0.86229 0.37231 0.0
H565 H 0.93533 0.92368 0.36721 0.0
C566 C 0.88368 0.86286 0.40234 0.0
C567 C 0.90586 0.88539 0.35928 0.0
C568 C 0.90985 0.88724 0.32686 0.0
C569 C 0.89782 0.88473 0.41996 0.0
C570 C 0.91759 0.90626 0.40728 0.0
C571 C 0.92047 0.90696 0.37699 0.0
C572 C 0.93825 0.92577 0.42524 0.0
C573 C 0.89214 0.88409 0.45214 0.0
C574 C 0.93965 0.95585 0.42192 0.0
C575 C 0.96136 0.97366 0.43713 0.0
C576 C 0.98199 0.96158 0.4556 0.0
C577 C 0.98036 0.93155 0.45897 0.0
C578 C 0.95874 0.91385 0.44398 0.0
H579 H 0.8697 0.87347 0.45672 0.0
H580 H 0.90873 0.87149 0.46328 0.0
H581 H 0.89406 0.90613 0.46147 0.0
H582 H 0.9244 0.96546 0.40712 0.0
H583 H 0.96298 0.99657 0.43335 0.0
H584 H 0.35518 0.79211 0.60067 0.0
H585 H 0.37881 0.75416 0.57545 0.0
H586 H 0.42482 0.73418 0.65502 0.0
H587 H 0.40101 0.77197 0.68029 0.0
H588 H 0.43915 0.751 0.56828 0.0
H589 H 0.39015 0.65483 0.62689 0.0
H590 H 0.37497 0.68929 0.62855 0.0
H591 H 0.40673 0.68236 0.65085 0.0
C592 C 0.3701 0.77938 0.61279 0.0
C593 C 0.37638 0.78492 0.64239 0.0
C594 C 0.3836 0.75776 0.59838 0.0
C595 C 0.40333 0.7411 0.6134 0.0
C596 C 0.40924 0.74636 0.6431 0.0
H597 H 0.54914 0.65163 0.56289 0.0
H598 H 0.51444 0.68669 0.57503 0.0
C599 C 0.39579 0.768 0.65749 0.0
C600 C 0.41906 0.71935 0.59776 0.0
H601 H 0.43367 0.64875 0.59948 0.0
C602 C 0.43766 0.72856 0.57485 0.0
C603 C 0.41675 0.68997 0.60597 0.0
C604 C 0.39584 0.67841 0.62922 0.0
C605 C 0.45513 0.7095 0.56095 0.0
C606 C 0.45424 0.68056 0.57044 0.0
C607 C 0.43453 0.671 0.59234 0.0
C608 C 0.47526 0.66047 0.55973 0.0
C609 C 0.47464 0.72059 0.53643 0.0
C610 C 0.46483 0.634 0.54699 0.0
C611 C 0.48471 0.6138 0.54003 0.0
C612 C 0.51533 0.61964 0.54598 0.0
C613 C 0.52571 0.64651 0.55793 0.0
C614 C 0.5059 0.66668 0.56473 0.0
H615 H 0.46615 0.7398 0.52593 0.0
H616 H 0.49734 0.72703 0.54518 0.0
H617 H 0.47625 0.70374 0.51967 0.0
H618 H 0.44123 0.62868 0.54317 0.0
H619 H 0.47594 0.59313 0.53135 0.0
H620 H 0.92777 0.85333 0.80371 0.0
H621 H 0.95498 0.8679 0.75976 0.0
H622 H 0.95735 0.95686 0.78582 0.0
H623 H 0.93092 0.94248 0.83001 0.0
H624 H 0.93683 0.90359 0.71604 0.0
H625 H 0.04357 0.94965 0.76471 0.0
H626 H 0.01698 0.92654 0.78477 0.0
H627 H 0.01223 0.96425 0.78048 0.0
C628 C 0.93452 0.87596 0.8003 0.0
C629 C 0.92717 0.89675 0.82039 0.0
C630 C 0.94997 0.88425 0.77513 0.0
C631 C 0.95866 0.91342 0.76974 0.0
C632 C 0.95146 0.93417 0.78981 0.0
H633 H 0.00759 0.03298 0.64099 0.0
H634 H 0.9994 0.00392 0.68466 0.0
C635 C 0.93597 0.92594 0.81489 0.0
C636 C 0.97342 0.92258 0.74226 0.0
H637 H 0.03258 0.96477 0.7158 0.0
C638 C 0.95808 0.91644 0.71585 0.0
C639 C 1.00124 0.93918 0.74208 0.0
C640 C 0.01961 0.94505 0.76952 0.0
C641 C 0.96875 0.92819 0.68952 0.0
C642 C 0.99574 0.94618 0.68958 0.0
C643 C 0.0119 0.95098 0.71578 0.0
C644 C 0.00518 0.96342 0.66367 0.0
C645 C 0.95008 0.92281 0.66216 0.0
C646 C 0.01226 0.95042 0.63749 0.0
C647 C 0.01692 0.9671 0.61229 0.0
C648 C 0.01467 0.99698 0.61305 0.0
C649 C 0.0093 0.00999 0.63969 0.0
C650 C 0.00472 0.99342 0.66472 0.0
H651 H 0.92776 0.91186 0.66664 0.0
H652 H 0.94716 0.94342 0.65074 0.0
H653 H 0.96151 0.90896 0.64729 0.0
H654 H 0.01314 0.92732 0.63632 0.0
H655 H 0.02077 0.95647 0.59202 0.0
H656 H 0.66824 0.12388 0.30968 0.0
H657 H 0.63679 0.10577 0.26864 0.0
H658 H 0.64552 0.19005 0.22924 0.0
H659 H 0.67795 0.20813 0.26968 0.0
H660 H 0.58281 0.12292 0.24527 0.0
H661 H 0.67434 0.13826 0.16609 0.0
H662 H 0.68108 0.14008 0.20484 0.0
H663 H 0.66669 0.16977 0.18595 0.0
C664 C 0.66368 0.13855 0.29219 0.0
C665 C 0.67597 0.16738 0.29282 0.0
C666 C 0.64544 0.12822 0.26889 0.0
C667 C 0.63913 0.14645 0.2457 0.0
C668 C 0.65047 0.17549 0.24669 0.0
H669 H 0.56225 0.08619 0.07738 0.0
H670 H 0.57499 0.11983 0.11763 0.0
C671 C 0.66879 0.18584 0.26998 0.0
C672 C 0.62171 0.13457 0.22007 0.0
H673 H 0.62815 0.11783 0.14846 0.0
C674 C 0.59259 0.12207 0.22401 0.0
C675 C 0.63442 0.13365 0.19229 0.0
C676 C 0.66591 0.14594 0.18692 0.0
C677 C 0.57619 0.10794 0.20112 0.0
C678 C 0.58943 0.10588 0.17374 0.0
C679 C 0.61798 0.11955 0.16944 0.0
C680 C 0.57598 0.0866 0.15047 0.0
C681 C 0.54502 0.09491 0.20659 0.0
C682 C 0.57163 0.05687 0.1557 0.0
C683 C 0.56444 0.03773 0.13285 0.0
C684 C 0.56142 0.04789 0.10427 0.0
C685 C 0.56406 0.07776 0.09924 0.0
C686 C 0.57148 0.09698 0.12217 0.0
H687 H 0.53469 0.10638 0.22432 0.0
H688 H 0.53071 0.09545 0.1867 0.0
H689 H 0.54577 0.07212 0.21335 0.0
H690 H 0.57558 0.04828 0.17718 0.0
H691 H 0.56261 0.01482 0.13737 0.0
H692 H 0.4393 0.72837 0.26839 0.0
H693 H 0.44799 0.71796 0.32021 0.0
H694 H 0.45755 0.62926 0.29904 0.0
H695 H 0.44878 0.63952 0.24751 0.0
H696 H 0.41573 0.67394 0.35703 0.0
H697 H 0.5352 0.65883 0.34565 0.0
H698 H 0.51444 0.67791 0.31905 0.0
H699 H 0.51146 0.63918 0.31934 0.0
C700 C 0.44329 0.7067 0.27496 0.0
C701 C 0.44383 0.68481 0.25409 0.0
C702 C 0.44818 0.70079 0.30442 0.0
C703 C 0.45383 0.67297 0.31328 0.0
C704 C 0.45369 0.65098 0.2925 0.0
H705 H 0.44451 0.56005 0.4501 0.0
H706 H 0.4324 0.59682 0.41535 0.0
C707 C 0.44866 0.65682 0.26315 0.0
C708 C 0.45994 0.66648 0.34417 0.0
H709 H 0.51169 0.6384 0.38803 0.0
C710 C 0.43688 0.66671 0.36408 0.0
C711 C 0.48773 0.65773 0.35343 0.0
C712 C 0.51375 0.65863 0.33334 0.0
C713 C 0.44023 0.65617 0.39249 0.0
C714 C 0.46717 0.64491 0.4009 0.0
C715 C 0.49095 0.6469 0.38162 0.0
C716 C 0.46994 0.62699 0.42732 0.0
C717 C 0.4146 0.65639 0.4129 0.0
C718 C 0.49457 0.63201 0.44638 0.0
C719 C 0.50171 0.61077 0.46622 0.0
C720 C 0.48444 0.58414 0.46705 0.0
C721 C 0.4583 0.58032 0.44988 0.0
C722 C 0.45117 0.6015 0.43014 0.0
H723 H 0.40126 0.67477 0.40808 0.0
H724 H 0.39974 0.63626 0.40993 0.0
H725 H 0.4224 0.65773 0.43594 0.0
H726 H 0.50944 0.65147 0.44446 0.0
H727 H 0.52211 0.6143 0.47899 0.0
H728 H 0.16332 0.40723 0.73564 0.0
H729 H 0.12967 0.42029 0.77335 0.0
H730 H 0.10206 0.33049 0.78775 0.0
H731 H 0.13594 0.31718 0.75 0.0
H732 H 0.06302 0.40236 0.78152 0.0
H733 H 0.14087 0.36574 0.8668 0.0
H734 H 0.15317 0.37411 0.83045 0.0
H735 H 0.1292 0.34207 0.83703 0.0
C736 C 0.14993 0.39027 0.74669 0.0
C737 C 0.15246 0.36119 0.74012 0.0
C738 C 0.13057 0.39776 0.76802 0.0
C739 C 0.11354 0.37633 0.78332 0.0
C740 C 0.11508 0.3473 0.77612 0.0
H741 H 0.05125 0.43039 0.95144 0.0
H742 H 0.05305 0.39733 0.91029 0.0
C743 C 0.13435 0.33976 0.75456 0.0
C744 C 0.09647 0.38473 0.80847 0.0
H745 H 0.10345 0.39341 0.88185 0.0
C746 C 0.07139 0.39989 0.80357 0.0
C747 C 0.10725 0.38113 0.83716 0.0
C748 C 0.13414 0.36496 0.84345 0.0
C749 C 0.05783 0.41301 0.82659 0.0
C750 C 0.07029 0.4116 0.85497 0.0
C751 C 0.09396 0.39458 0.86009 0.0
C752 C 0.06264 0.43107 0.87855 0.0
C753 C 0.03085 0.42896 0.82019 0.0
C754 C 0.06684 0.46097 0.87429 0.0
C755 C 0.06568 0.47979 0.89764 0.0
C756 C 0.06038 0.4691 0.92576 0.0
C757 C 0.05484 0.43923 0.92989 0.0
C758 C 0.05598 0.42034 0.90644 0.0
H759 H 0.01757 0.41896 0.80165 0.0
H760 H 0.01639 0.42933 0.83937 0.0
H761 H 0.03813 0.45148 0.814 0.0
H762 H 0.07284 0.4698 0.85321 0.0
H763 H 0.07018 0.50271 0.89387 0.0
H764 H 0.82751 0.91746 0.84695 0.0
H765 H 0.78538 0.94279 0.86243 0.0
H766 H 0.81542 0.93723 0.95164 0.0
H767 H 0.85803 0.91278 0.9363 0.0
H768 H 0.74112 0.92176 0.89846 0.0
H769 H 0.79868 0.0212 0.94562 0.0
H770 H 0.81702 0.99762 0.92226 0.0
H771 H 0.81275 0.98928 0.96024 0.0
C772 C 0.8255 0.92216 0.86981 0.0
C773 C 0.84621 0.91311 0.89038 0.0
C774 C 0.80131 0.93651 0.87862 0.0
C775 C 0.79747 0.94233 0.90814 0.0
C776 C 0.81825 0.93357 0.92868 0.0
H777 H 0.66781 0.98274 0.0263 0.0
H778 H 0.71209 0.9746 0.99916 0.0
C779 C 0.8424 0.91922 0.91991 0.0
C780 C 0.77064 0.95557 0.91782 0.0
H781 H 0.74818 0.00927 0.96017 0.0
C782 C 0.74258 0.9412 0.91149 0.0
C783 C 0.77258 0.981 0.93473 0.0
C784 C 0.80187 0.99834 0.94087 0.0
C785 C 0.7166 0.95058 0.92304 0.0
C786 C 0.7187 0.97527 0.94105 0.0
C787 C 0.74661 0.99035 0.94636 0.0
C788 C 0.69273 0.98373 0.95714 0.0
C789 C 0.68731 0.93307 0.91722 0.0
C790 C 0.66736 0.99242 0.94259 0.0
C791 C 0.64185 0.99702 0.95813 0.0
C792 C 0.64148 0.9932 0.98844 0.0
C793 C 0.66739 0.98577 0.00296 0.0
C794 C 0.69276 0.98122 0.98749 0.0
H795 H 0.69025 0.91204 0.90688 0.0
H796 H 0.67511 0.92901 0.93773 0.0
H797 H 0.67334 0.94527 0.90241 0.0
H798 H 0.667 0.99483 0.91919 0.0
H799 H 0.62211 0.00234 0.94632 0.0
H800 H 0.75669 0.16459 0.40682 0.0
H801 H 0.79498 0.13545 0.42603 0.0
H802 H 0.80916 0.10409 0.33996 0.0
H803 H 0.7715 0.13391 0.32023 0.0
H804 H 0.80227 0.06061 0.3929 0.0
H805 H 0.88774 0.15396 0.40386 0.0
H806 H 0.85112 0.159 0.41646 0.0
H807 H 0.85667 0.15373 0.37845 0.0
C808 C 0.76809 0.15175 0.39185 0.0
C809 C 0.76111 0.15185 0.36189 0.0
C810 C 0.78979 0.13492 0.40293 0.0
C811 C 0.80486 0.11773 0.38438 0.0
C812 C 0.79763 0.11718 0.35461 0.0
H813 H 0.96933 0.05005 0.44369 0.0
H814 H 0.93034 0.0646 0.41035 0.0
C815 C 0.77602 0.13417 0.34342 0.0
C816 C 0.8289 0.10122 0.39616 0.0
H817 H 0.89894 0.11022 0.4258 0.0
C818 C 0.82355 0.07131 0.39984 0.0
C819 C 0.85668 0.11526 0.40485 0.0
C820 C 0.86367 0.14724 0.4006 0.0
C821 C 0.84502 0.05521 0.41311 0.0
C822 C 0.87233 0.06951 0.423 0.0
C823 C 0.87801 0.09925 0.41821 0.0
C824 C 0.89456 0.05478 0.44032 0.0
C825 C 0.83825 0.02314 0.41665 0.0
C826 C 0.88728 0.04364 0.46789 0.0
C827 C 0.9095 0.03519 0.48683 0.0
C828 C 0.93932 0.03748 0.47843 0.0
C829 C 0.94638 0.0472 0.45031 0.0
C830 C 0.92417 0.05574 0.43138 0.0
H831 H 0.82087 0.01439 0.40078 0.0
H832 H 0.85851 0.0117 0.41391 0.0
H833 H 0.82987 0.01855 0.43882 0.0
H834 H 0.86476 0.04335 0.47555 0.0
H835 H 0.90365 0.02848 0.50869 0.0
H836 H 0.35435 0.62854 0.10998 0.0
H837 H 0.31421 0.59092 0.09996 0.0
H838 H 0.2838 0.59768 0.1876 0.0
H839 H 0.32297 0.6363 0.19745 0.0
H840 H 0.29456 0.53707 0.12498 0.0
H841 H 0.21288 0.61855 0.13798 0.0
H842 H 0.25226 0.62856 0.1359 0.0
H843 H 0.23688 0.61329 0.16877 0.0
C844 C 0.33916 0.62203 0.12716 0.0
C845 C 0.34157 0.63587 0.15434 0.0
C846 C 0.31644 0.60028 0.1215 0.0
C847 C 0.29575 0.59187 0.14289 0.0
C848 C 0.29927 0.60419 0.17065 0.0
H849 H 0.12031 0.51151 0.09219 0.0
H850 H 0.16287 0.52131 0.12577 0.0
C851 C 0.32187 0.62611 0.1763 0.0
C852 C 0.26901 0.57247 0.13497 0.0
H853 H 0.19462 0.57314 0.12117 0.0
C854 C 0.27259 0.54472 0.12459 0.0
C855 C 0.24034 0.58245 0.13466 0.0
C856 C 0.2352 0.61238 0.1447 0.0
C857 C 0.24844 0.52721 0.11265 0.0
C858 C 0.22019 0.53794 0.1107 0.0
C859 C 0.21628 0.56489 0.12282 0.0
C860 C 0.1957 0.52431 0.09209 0.0
C861 C 0.25355 0.49772 0.1015 0.0
C862 C 0.20014 0.52178 0.06216 0.0
C863 C 0.17596 0.51623 0.04305 0.0
C864 C 0.14687 0.51311 0.05348 0.0
C865 C 0.14253 0.51349 0.0836 0.0
C866 C 0.1668 0.51916 0.10278 0.0
H867 H 0.27187 0.48859 0.1139 0.0
H868 H 0.23316 0.4826 0.10288 0.0
H869 H 0.2601 0.49947 0.07843 0.0
H870 H 0.22208 0.52633 0.05329 0.0
H871 H 0.17992 0.51607 0.01992 0.0
H872 H 0.31447 0.40837 0.73417 0.0
H873 H 0.35994 0.42509 0.70841 0.0
H874 H 0.3477 0.35057 0.65267 0.0
H875 H 0.3022 0.33393 0.67826 0.0
H876 H 0.4148 0.39562 0.69461 0.0
H877 H 0.34547 0.42364 0.59916 0.0
H878 H 0.33037 0.41758 0.63487 0.0
H879 H 0.3381 0.38758 0.61278 0.0
C880 C 0.32191 0.39534 0.7168 0.0
C881 C 0.30523 0.36971 0.70835 0.0
C882 C 0.3478 0.40485 0.70218 0.0
C883 C 0.35706 0.38903 0.6787 0.0
C884 C 0.34085 0.36303 0.67076 0.0
H885 H 0.47611 0.42615 0.53836 0.0
H886 H 0.4446 0.40166 0.57489 0.0
C887 C 0.31501 0.35352 0.68537 0.0
C888 C 0.38205 0.40091 0.66081 0.0
H889 H 0.39734 0.42837 0.59357 0.0
C890 C 0.41112 0.40282 0.67251 0.0
C891 C 0.37699 0.41045 0.63214 0.0
C892 C 0.34605 0.41 0.61896 0.0
C893 C 0.43549 0.41339 0.65582 0.0
C894 C 0.43039 0.42259 0.627 0.0
C895 C 0.40123 0.42099 0.61558 0.0
C896 C 0.45458 0.43427 0.6079 0.0
C897 C 0.46644 0.41409 0.66889 0.0
C898 C 0.47161 0.46019 0.61475 0.0
C899 C 0.48991 0.47414 0.5939 0.0
C900 C 0.49104 0.4625 0.56586 0.0
C901 C 0.47549 0.43567 0.55976 0.0
C902 C 0.45752 0.42165 0.58061 0.0
H903 H 0.46729 0.39961 0.68806 0.0
H904 H 0.48244 0.40773 0.65265 0.0
H905 H 0.47373 0.43634 0.67614 0.0
H906 H 0.46928 0.47059 0.63548 0.0
H907 H 0.50143 0.49496 0.59905 0.0
H908 H 0.91595 0.80531 0.95648 0.0
H909 H 0.94296 0.76759 0.9797 0.0
H910 H 0.93323 0.71762 0.9008 0.0
H911 H 0.90697 0.75543 0.87744 0.0
H912 H 0.92618 0.71015 0.99018 0.0
H913 H 0.02208 0.72134 0.91687 0.0
H914 H 0.99531 0.74772 0.91826 0.0
H915 H 0.98727 0.71522 0.89741 0.0
C916 C 0.91996 0.78638 0.94408 0.0
C917 C 0.91005 0.78355 0.91498 0.0
C918 C 0.93519 0.76482 0.95737 0.0
C919 C 0.94063 0.74004 0.94181 0.0
C920 C 0.92999 0.73688 0.913 0.0
H921 H 0.98742 0.57308 0.9987 0.0
H922 H 0.9611 0.61584 0.9887 0.0
C923 C 0.91492 0.75845 0.89969 0.0
C924 C 0.95731 0.71735 0.95554 0.0
H925 H 0.01692 0.67877 0.94586 0.0
C926 C 0.94622 0.70346 0.98072 0.0
C927 C 0.98372 0.70895 0.94349 0.0
C928 C 0.99799 0.72428 0.91771 0.0
C929 C 0.96027 0.68068 0.99353 0.0
C930 C 0.98574 0.67122 0.98045 0.0
C931 C 0.99729 0.6858 0.95584 0.0
C932 C 1.00061 0.64589 0.99116 0.0
C933 C 0.94762 0.66703 0.02085 0.0
C934 C 0.03153 0.64841 0.99608 0.0
C935 C 0.04657 0.62397 1.00128 0.0
C936 C 0.03098 0.59653 0.00206 0.0
C937 C 0.99989 0.59406 0.99866 0.0
C938 C 0.98483 0.61853 0.99307 0.0
H939 H 0.93542 0.68239 0.03333 0.0
H940 H 0.93157 0.64852 0.01472 0.0
H941 H 0.96522 0.6591 0.03517 0.0
H942 H 0.04422 0.66922 0.99473 0.0
H943 H 0.07057 0.62642 0.00376 0.0
H944 H 0.38463 0.7661 0.14666 0.0
H945 H 0.39752 0.80267 0.10991 0.0
H946 H 0.41153 0.73627 0.04795 0.0
H947 H 0.39899 0.69938 0.08498 0.0
H948 H 0.459 0.77755 0.05366 0.0
H949 H 0.35584 0.83074 0.0372 0.0
H950 H 0.36437 0.82685 0.07515 0.0
H951 H 0.35618 0.79521 0.05299 0.0
C952 C 0.39014 0.75926 0.12512 0.0
C953 C 0.39098 0.72991 0.11873 0.0
C954 C 0.3971 0.78016 0.104 0.0
C955 C 0.40495 0.77219 0.07601 0.0
C956 C 0.40512 0.74285 0.06929 0.0
H957 H 0.51113 0.90919 0.98017 0.0
H958 H 0.4777 0.8643 0.98204 0.0
C959 C 0.39794 0.72184 0.09042 0.0
C960 C 0.4165 0.7948 0.05544 0.0
H961 H 0.40222 0.8611 0.03018 0.0
C962 C 0.44639 0.79544 0.0476 0.0
C963 C 0.39989 0.81792 0.04732 0.0
C964 C 0.36719 0.8175 0.05335 0.0
C965 C 0.46099 0.82001 0.03478 0.0
C966 C 0.44505 0.8443 0.02931 0.0
C967 C 0.41444 0.84251 0.03452 0.0
C968 C 0.46083 0.87311 0.02448 0.0
C969 C 0.49396 0.82076 0.02974 0.0
C970 C 0.46129 0.89335 0.04701 0.0
C971 C 0.48007 0.91867 0.04589 0.0
C972 C 0.49846 0.92441 0.02208 0.0
C973 C 0.49688 0.90511 0.99863 0.0
C974 C 0.47798 0.87954 0.99977 0.0
H975 H 0.50344 0.80089 0.03753 0.0
H976 H 0.49816 0.8231 0.00615 0.0
H977 H 0.50591 0.83956 0.04101 0.0
H978 H 0.44836 0.88878 0.06631 0.0
H979 H 0.4812 0.93326 0.06426 0.0
H980 H 0.22239 0.28301 0.65881 0.0
H981 H 0.20844 0.24622 0.62201 0.0
H982 H 0.12405 0.28117 0.60853 0.0
H983 H 0.1383 0.3187 0.6443 0.0
H984 H 0.16294 0.20566 0.62576 0.0
H985 H 0.14731 0.26862 0.52574 0.0
H986 H 0.16676 0.28395 0.55755 0.0
H987 H 0.12675 0.28152 0.55512 0.0
C988 C 0.20114 0.28329 0.64752 0.0
C989 C 0.18142 0.30379 0.65457 0.0
C990 C 0.19318 0.26219 0.62655 0.0
C991 C 0.16543 0.26123 0.61211 0.0
C992 C 0.14589 0.2819 0.6188 0.0
H993 H 0.03407 0.14854 0.53805 0.0
H994 H 0.06907 0.18965 0.55102 0.0
C995 C 0.15386 0.30305 0.63967 0.0
C996 C 0.15543 0.23689 0.59251 0.0
H997 H 0.12082 0.22089 0.5271 0.0
C998 C 0.15442 0.20888 0.6039 0.0
C999 C 0.14444 0.24113 0.56394 0.0
C1000 C 0.14666 0.27043 0.54978 0.0
C1001 C 0.1407 0.18526 0.5884 0.0
C1002 C 0.12804 0.18976 0.56055 0.0
C1003 C 0.13058 0.21751 0.54843 0.0
C1004 C 0.10825 0.16684 0.54604 0.0
C1005 C 0.13799 0.15603 0.60284 0.0
C1006 C 0.1188 0.14081 0.53742 0.0
C1007 C 0.09873 0.11712 0.53007 0.0
C1008 C 0.06795 0.11931 0.53119 0.0
C1009 C 0.05767 0.14616 0.53727 0.0
C1010 C 0.07765 0.16972 0.54456 0.0
H1011 H 0.1454 0.15709 0.62601 0.0
H1012 H 0.11461 0.14635 0.60167 0.0
H1013 H 0.15191 0.14148 0.59133 0.0
H1014 H 0.1424 0.13831 0.53807 0.0
H1015 H 0.1073 0.09668 0.5256 0.0
H1016 H 0.71626 0.2838 0.43092 0.0
H1017 H 0.70109 0.33237 0.43863 0.0
H1018 H 0.64944 0.32582 0.35866 0.0
H1019 H 0.66428 0.27704 0.35109 0.0
H1020 H 0.70421 0.38476 0.40393 0.0
H1021 H 0.58868 0.33766 0.42256 0.0
H1022 H 0.61985 0.31608 0.42223 0.0
H1023 H 0.60397 0.32794 0.38865 0.0
C1024 C 0.70198 0.29292 0.41482 0.0
C1025 C 0.6912 0.27669 0.39051 0.0
C1026 C 0.69343 0.32066 0.4192 0.0
C1027 C 0.67389 0.33254 0.39939 0.0
C1028 C 0.66427 0.3169 0.37437 0.0
H1029 H 0.5638 0.47297 0.41161 0.0
H1030 H 0.59442 0.43742 0.39202 0.0
C1031 C 0.67278 0.28915 0.37001 0.0
C1032 C 0.66161 0.36015 0.40613 0.0
H1033 H 0.5969 0.38817 0.42262 0.0
C1034 C 0.68074 0.38563 0.40794 0.0
C1035 C 0.63105 0.36111 0.41163 0.0
C1036 C 0.60967 0.33425 0.41146 0.0
C1037 C 0.66992 0.41219 0.41456 0.0
C1038 C 0.63931 0.4131 0.41989 0.0
C1039 C 0.62032 0.38755 0.41818 0.0
C1040 C 0.62602 0.43986 0.42811 0.0
C1041 C 0.6912 0.43905 0.41538 0.0
C1042 C 0.63451 0.45427 0.4542 0.0
C1043 C 0.61718 0.47503 0.46527 0.0
C1044 C 0.59087 0.48118 0.45064 0.0
C1045 C 0.58389 0.46852 0.4234 0.0
C1046 C 0.60135 0.44815 0.41221 0.0
H1047 H 0.71158 0.43627 0.40301 0.0
H1048 H 0.68055 0.45781 0.40639 0.0
H1049 H 0.69801 0.44394 0.43827 0.0
H1050 H 0.65316 0.44796 0.4671 0.0
H1051 H 0.62293 0.48429 0.48642 0.0
loop_
_geom_bond_atom_site_label_1
_geom_bond_atom_site_label_2
_geom_bond_distance
_geom_bond_site_symmetry_2
_ccdc_geom_bond_type
H0 C7 0.929 . S
H1 C10 0.930 . S
H2 C12 0.929 . S
H3 C4 0.969 . S
C4 H3 0.969 . S
C4 O5 1.550 . S
C4 H6 0.973 . S
O5 C4 1.550 . S
O5 C11 1.412 . S
H6 C4 0.973 . S
C7 H0 0.929 . S
C7 C8 1.400 . S
C7 C9 1.364 . S
C8 C7 1.400 . S
C8 C12 1.377 . S
C9 C7 1.364 . S
C9 C10 1.374 . S
C10 H1 0.930 . S
C10 C9 1.374 . S
C10 C11 1.383 . S
C11 O5 1.412 . S
C11 C10 1.383 . S
C11 C12 1.394 . S
C12 H2 0.929 . S
C12 C8 1.377 . S
C12 C11 1.394 . S
H13 C20 0.929 . S
H14 C23 0.930 . S
H15 C25 0.929 . S
H16 C17 0.969 . S
C17 H16 0.969 . S
C17 O18 1.550 . S
C17 H19 0.973 . S
O18 C17 1.550 . S
O18 C24 1.412 . S
H19 C17 0.973 . S
C20 H13 0.929 . S
C20 C21 1.400 . S
C20 C22 1.364 . S
C21 C20 1.400 . S
C21 C25 1.377 . S
C22 C20 1.364 . S
C22 C23 1.374 . S
C23 H14 0.930 . S
C23 C22 1.374 . S
C23 C24 1.383 . S
C24 O18 1.412 . S
C24 C23 1.383 . S
C24 C25 1.394 . S
C25 H15 0.929 . S
C25 C21 1.377 . S
C25 C24 1.394 . S
H26 C33 0.929 . S
H27 C36 0.930 . S
H28 C38 0.929 . S
H29 C30 0.969 . S
C30 H29 0.969 . S
C30 O31 1.550 . S
C30 H32 0.973 . S
O31 C30 1.550 . S
O31 C37 1.412 . S
H32 C30 0.973 . S
C33 H26 0.929 . S
C33 C34 1.400 . S
C33 C35 1.364 . S
C34 C33 1.400 . S
C34 C38 1.377 . S
C35 C33 1.364 . S
C35 C36 1.374 . S
C36 H27 0.930 . S
C36 C35 1.374 . S
C36 C37 1.383 . S
C37 O31 1.412 . S
C37 C36 1.383 . S
C37 C38 1.394 . S
C38 H28 0.929 . S
C38 C34 1.377 . S
C38 C37 1.394 . S
H39 C46 0.929 . S
H40 C49 0.930 . S
H41 C51 0.929 . S
H42 C43 0.969 . S
C43 H42 0.969 . S
C43 O44 1.550 . S
C43 H45 0.973 . S
O44 C43 1.550 . S
O44 C50 1.412 . S
H45 C43 0.973 . S
C46 H39 0.929 . S
C46 C47 1.400 . S
C46 C48 1.364 . S
C47 C46 1.400 . S
C47 C51 1.377 . S
C48 C46 1.364 . S
C48 C49 1.374 . S
C49 H40 0.930 . S
C49 C48 1.374 . S
C49 C50 1.383 . S
C50 O44 1.412 . S
C50 C49 1.383 . S
C50 C51 1.394 . S
C51 H41 0.929 . S
C51 C47 1.377 . S
C51 C50 1.394 . S
H52 C59 0.929 . S
H53 C62 0.930 . S
H54 C64 0.929 1_455 S
H55 C56 0.969 . S
C56 H55 0.969 . S
C56 O57 1.550 . S
C56 H58 0.973 . S
O57 C56 1.550 . S
O57 C63 1.412 . S
H58 C56 0.973 . S
C59 H52 0.929 . S
C59 C60 1.400 . S
C59 C61 1.364 . S
C60 C59 1.400 . S
C60 C64 1.377 . S
C61 C59 1.364 . S
C61 C62 1.374 . S
C62 H53 0.930 . S
C62 C61 1.374 . S
C62 C63 1.383 . S
C63 O57 1.412 . S
C63 C62 1.383 . S
C63 C64 1.394 . S
C64 H54 0.929 1_655 S
C64 C60 1.377 . S
C64 C63 1.394 . S
H65 C72 0.929 . S
H66 C75 0.930 . S
H67 C77 0.929 . S
H68 C69 0.969 . S
C69 H68 0.969 . S
C69 O70 1.550 . S
C69 H71 0.973 . S
O70 C69 1.550 . S
O70 C76 1.412 . S
H71 C69 0.973 . S
C72 H65 0.929 . S
C72 C73 1.400 . S
C72 C74 1.364 . S
C73 C72 1.400 . S
C73 C77 1.377 . S
C74 C72 1.364 . S
C74 C75 1.374 . S
C75 H66 0.930 . S
C75 C74 1.374 . S
C75 C76 1.383 . S
C76 O70 1.412 . S
C76 C75 1.383 . S
C76 C77 1.394 . S
C77 H67 0.929 . S
C77 C73 1.377 . S
C77 C76 1.394 . S
H78 C85 0.929 . S
H79 C88 0.930 . S
H80 C90 0.929 . S
H81 C82 0.969 . S
C82 H81 0.969 . S
C82 O83 1.550 . S
C82 H84 0.973 . S
O83 C82 1.550 . S
O83 C89 1.412 . S
H84 C82 0.973 . S
C85 H78 0.929 . S
C85 C86 1.400 . S
C85 C87 1.364 . S
C86 C85 1.400 . S
C86 C90 1.377 . S
C87 C85 1.364 . S
C87 C88 1.374 . S
C88 H79 0.930 . S
C88 C87 1.374 . S
C88 C89 1.383 . S
C89 O83 1.412 . S
C89 C88 1.383 . S
C89 C90 1.394 . S
C90 H80 0.929 . S
C90 C86 1.377 . S
C90 C89 1.394 . S
H91 C98 0.929 . S
H92 C101 0.930 . S
H93 C103 0.929 . S
H94 C95 0.969 . S
C95 H94 0.969 . S
C95 O96 1.550 . S
C95 H97 0.973 . S
O96 C95 1.550 . S
O96 C102 1.412 . S
H97 C95 0.973 . S
C98 H91 0.929 . S
C98 C99 1.400 . S
C98 C100 1.364 . S
C99 C98 1.400 . S
C99 C103 1.377 . S
C100 C98 1.364 . S
C100 C101 1.374 . S
C101 H92 0.930 . S
C101 C100 1.374 . S
C101 C102 1.383 . S
C102 O96 1.412 . S
C102 C101 1.383 . S
C102 C103 1.394 . S
C103 H93 0.929 . S
C103 C99 1.377 . S
C103 C102 1.394 . S
Zn104 O110 1.920 . S
Zn104 O116 1.898 . S
Zn104 O119 1.905 . S
Zn105 O113 1.905 1_565 S
Zn105 O114 1.898 . S
Zn105 O122 1.920 . S
Zn106 O109 2.080 1_455 S
Zn106 O112 2.114 . S
Zn106 O115 2.120 1_445 S
Zn106 O117 2.120 . S
Zn106 O118 2.114 1_455 S
Zn106 O121 2.080 . S
C107 O112 1.166 . S
C107 O113 1.182 . S
C108 O114 1.167 1_655 S
C108 O115 1.299 . S
O109 Zn106 2.080 1_655 S
O109 C123 1.305 . S
O110 Zn104 1.920 . S
O110 C123 1.234 . S
C111 O116 1.167 1_455 S
C111 O117 1.299 . S
O112 Zn106 2.114 . S
O112 C107 1.166 . S
O113 Zn105 1.905 1_545 S
O113 C107 1.182 . S
O114 Zn105 1.898 . S
O114 C108 1.167 1_455 S
O115 Zn106 2.120 1_665 S
O115 C108 1.299 . S
O116 Zn104 1.898 . S
O116 C111 1.167 1_655 S
O117 Zn106 2.120 . S
O117 C111 1.299 . S
O118 Zn106 2.114 1_655 S
O118 C120 1.166 . S
O119 Zn104 1.905 . S
O119 C120 1.182 . S
C120 O118 1.166 . S
C120 O119 1.182 . S
O121 Zn106 2.080 . S
O121 C124 1.305 . S
O122 Zn105 1.920 . S
O122 C124 1.234 1_565 S
C123 O109 1.305 . S
C123 O110 1.234 . S
C124 O121 1.305 . S
C124 O122 1.234 1_545 S
Zn125 O131 1.920 1_556 S
Zn125 O137 1.898 . S
Zn125 O140 1.905 . S
Zn126 O134 1.905 . S
Zn126 O135 1.898 . S
Zn126 O143 1.920 . S
Zn127 O130 2.080 . S
Zn127 O133 2.114 1_545 S
Zn127 O136 2.120 1_545 S
Zn127 O138 2.120 . S
Zn127 O139 2.114 1_544 S
Zn127 O142 2.080 . S
C128 O133 1.166 . S
C128 O134 1.182 . S
C129 O135 1.167 . S
C129 O136 1.299 . S
O130 Zn127 2.080 . S
O130 C144 1.305 . S
O131 Zn125 1.920 1_554 S
O131 C144 1.234 . S
C132 O137 1.167 . S
C132 O138 1.299 1_556 S
O133 Zn127 2.114 1_565 S
O133 C128 1.166 . S
O134 Zn126 1.905 . S
O134 C128 1.182 . S
O135 Zn126 1.898 . S
O135 C129 1.167 . S
O136 Zn127 2.120 1_565 S
O136 C129 1.299 . S
O137 Zn125 1.898 . S
O137 C132 1.167 . S
O138 Zn127 2.120 . S
O138 C132 1.299 1_554 S
O139 Zn127 2.114 1_566 S
O139 C141 1.166 . S
O140 Zn125 1.905 . S
O140 C141 1.182 1_545 S
C141 O139 1.166 . S
C141 O140 1.182 1_565 S
O142 Zn127 2.080 . S
O142 C145 1.305 . S
O143 Zn126 1.920 . S
O143 C145 1.234 1_565 S
C144 O130 1.305 . S
C144 O131 1.234 . S
C145 O142 1.305 . S
C145 O143 1.234 1_545 S
Zn146 O152 1.920 . S
Zn146 O158 1.898 . S
Zn146 O161 1.905 . S
Zn147 O155 1.905 . S
Zn147 O156 1.898 . S
Zn147 O164 1.920 . S
Zn148 O151 2.080 . S
Zn148 O154 2.114 . S
Zn148 O157 2.120 . S
Zn148 O159 2.120 . S
Zn148 O160 2.114 . S
Zn148 O163 2.080 . S
C149 O154 1.166 . S
C149 O155 1.182 . S
C150 O156 1.167 . S
C150 O157 1.299 . S
O151 Zn148 2.080 . S
O151 C165 1.305 . S
O152 Zn146 1.920 . S
O152 C165 1.234 . S
C153 O158 1.167 . S
C153 O159 1.299 . S
O154 Zn148 2.114 . S
O154 C149 1.166 . S
O155 Zn147 1.905 . S
O155 C149 1.182 . S
O156 Zn147 1.898 . S
O156 C150 1.167 . S
O157 Zn148 2.120 . S
O157 C150 1.299 . S
O158 Zn146 1.898 . S
O158 C153 1.167 . S
O159 Zn148 2.120 . S
O159 C153 1.299 . S
O160 Zn148 2.114 . S
O160 C162 1.166 . S
O161 Zn146 1.905 . S
O161 C162 1.182 . S
C162 O160 1.166 . S
C162 O161 1.182 . S
O163 Zn148 2.080 . S
O163 C166 1.305 . S
O164 Zn147 1.920 . S
O164 C166 1.234 . S
C165 O151 1.305 . S
C165 O152 1.234 . S
C166 O163 1.305 . S
C166 O164 1.234 . S
Zn167 O173 1.920 . S
Zn167 O179 1.898 . S
Zn167 O182 1.905 . S
Zn168 O176 1.905 . S
Zn168 O177 1.898 1_455 S
Zn168 O185 1.920 . S
Zn169 O172 2.080 1_554 S
Zn169 O175 2.114 . S
Zn169 O178 2.120 1_554 S
Zn169 O180 2.120 . S
Zn169 O181 2.114 1_554 S
Zn169 O184 2.080 . S
C170 O175 1.166 . S
C170 O176 1.182 . S
C171 O177 1.167 1_556 S
C171 O178 1.299 1_655 S
O172 Zn169 2.080 1_556 S
O172 C186 1.305 . S
O173 Zn167 1.920 . S
O173 C186 1.234 . S
C174 O179 1.167 1_554 S
C174 O180 1.299 . S
O175 Zn169 2.114 . S
O175 C170 1.166 . S
O176 Zn168 1.905 . S
O176 C170 1.182 . S
O177 Zn168 1.898 1_655 S
O177 C171 1.167 1_554 S
O178 Zn169 2.120 1_556 S
O178 C171 1.299 1_455 S
O179 Zn167 1.898 . S
O179 C174 1.167 1_556 S
O180 Zn169 2.120 . S
O180 C174 1.299 . S
O181 Zn169 2.114 1_556 S
O181 C183 1.166 . S
O182 Zn167 1.905 . S
O182 C183 1.182 . S
C183 O181 1.166 . S
C183 O182 1.182 . S
O184 Zn169 2.080 . S
O184 C187 1.305 . S
O185 Zn168 1.920 . S
O185 C187 1.234 . S
C186 O172 1.305 . S
C186 O173 1.234 . S
C187 O184 1.305 . S
C187 O185 1.234 . S
H188 C196 0.929 . S
H189 C198 0.930 . S
H190 C200 0.930 . S
H191 C203 0.929 . S
H192 C206 0.930 . S
H193 C208 0.960 . S
H194 C208 0.960 . S
H195 C208 0.960 . S
C196 H188 0.929 . S
C196 C197 1.377 . S
C196 C198 1.384 . S
C197 C196 1.377 . S
C197 C203 1.390 . S
C198 H189 0.930 . S
C198 C196 1.384 . S
C198 C199 1.372 . S
C199 C198 1.372 . S
C199 C200 1.400 . S
C199 C204 1.490 . S
C200 H190 0.930 . S
C200 C199 1.400 . S
C200 C203 1.386 . S
H201 C217 0.930 . S
H202 C218 0.931 . S
C203 H191 0.929 . S
C203 C197 1.390 . S
C203 C200 1.386 . S
C204 C199 1.490 . S
C204 C206 1.395 . S
C204 C207 1.403 . S
H205 C211 0.930 . S
C206 H192 0.930 . S
C206 C204 1.395 . S
C206 C209 1.403 . S
C207 C204 1.403 . S
C207 C208 1.524 . S
C207 C211 1.400 . S
C208 H193 0.960 . S
C208 H194 0.960 . S
C208 H195 0.960 . S
C208 C207 1.524 . S
C209 C206 1.403 . S
C209 C210 1.392 . S
C209 C213 1.495 . S
C210 C209 1.392 . S
C210 C211 1.385 . S
C210 C212 1.478 . S
C211 H205 0.930 . S
C211 C207 1.400 . S
C211 C210 1.385 . S
C212 C210 1.478 . S
C212 C214 1.381 . S
C212 C218 1.383 . S
C213 C209 1.495 . S
C213 H219 0.959 . S
C213 H220 0.961 . S
C213 H221 0.960 . S
C214 C212 1.381 . S
C214 C215 1.394 . S
C214 H222 0.930 . S
C215 C214 1.394 . S
C215 C216 1.383 . S
C215 H223 0.929 . S
C216 C215 1.383 . S
C216 C217 1.377 . S
C217 H201 0.930 . S
C217 C216 1.377 . S
C217 C218 1.379 . S
C218 H202 0.931 . S
C218 C212 1.383 . S
C218 C217 1.379 . S
H219 C213 0.959 . S
H220 C213 0.961 . S
H221 C213 0.960 . S
H222 C214 0.930 . S
H223 C215 0.929 . S
H224 C232 0.929 . S
H225 C234 0.930 . S
H226 C236 0.930 . S
H227 C239 0.929 . S
H228 C242 0.930 . S
H229 C244 0.960 . S
H230 C244 0.960 . S
H231 C244 0.960 . S
C232 H224 0.929 . S
C232 C233 1.377 . S
C232 C234 1.384 . S
C233 C232 1.377 . S
C233 C239 1.390 . S
C234 H225 0.930 . S
C234 C232 1.384 . S
C234 C235 1.372 . S
C235 C234 1.372 . S
C235 C236 1.400 . S
C235 C240 1.490 . S
C236 H226 0.930 . S
C236 C235 1.400 . S
C236 C239 1.386 . S
H237 C253 0.930 . S
H238 C254 0.931 . S
C239 H227 0.929 . S
C239 C233 1.390 . S
C239 C236 1.386 . S
C240 C235 1.490 . S
C240 C242 1.395 . S
C240 C243 1.403 . S
H241 C247 0.930 . S
C242 H228 0.930 . S
C242 C240 1.395 . S
C242 C245 1.403 . S
C243 C240 1.403 . S
C243 C244 1.524 . S
C243 C247 1.400 . S
C244 H229 0.960 . S
C244 H230 0.960 . S
C244 H231 0.960 . S
C244 C243 1.524 . S
C245 C242 1.403 . S
C245 C246 1.392 . S
C245 C249 1.495 . S
C246 C245 1.392 . S
C246 C247 1.385 . S
C246 C248 1.478 . S
C247 H241 0.930 . S
C247 C243 1.400 . S
C247 C246 1.385 . S
C248 C246 1.478 . S
C248 C250 1.381 . S
C248 C254 1.383 . S
C249 C245 1.495 . S
C249 H255 0.959 1_565 S
C249 H256 0.961 1_565 S
C249 H257 0.960 1_565 S
C250 C248 1.381 . S
C250 C251 1.394 . S
C250 H258 0.930 . S
C251 C250 1.394 . S
C251 C252 1.383 . S
C251 H259 0.929 . S
C252 C251 1.383 . S
C252 C253 1.377 . S
C253 H237 0.930 . S
C253 C252 1.377 . S
C253 C254 1.379 . S
C254 H238 0.931 . S
C254 C248 1.383 . S
C254 C253 1.379 . S
H255 C249 0.959 1_545 S
H256 C249 0.961 1_545 S
H257 C249 0.960 1_545 S
H258 C250 0.930 . S
H259 C251 0.929 . S
H260 C268 0.929 . S
H261 C270 0.930 . S
H262 C272 0.930 . S
H263 C275 0.929 . S
H264 C278 0.930 . S
H265 C280 0.960 . S
H266 C280 0.960 . S
H267 C280 0.960 . S
C268 H260 0.929 . S
C268 C269 1.377 . S
C268 C270 1.384 . S
C269 C268 1.377 . S
C269 C275 1.390 . S
C270 H261 0.930 . S
C270 C268 1.384 . S
C270 C271 1.372 . S
C271 C270 1.372 . S
C271 C272 1.400 . S
C271 C276 1.490 . S
C272 H262 0.930 . S
C272 C271 1.400 . S
C272 C275 1.386 . S
H273 C289 0.930 . S
H274 C290 0.931 . S
C275 H263 0.929 . S
C275 C269 1.390 . S
C275 C272 1.386 . S
C276 C271 1.490 . S
C276 C278 1.395 . S
C276 C279 1.403 . S
H277 C283 0.930 . S
C278 H264 0.930 . S
C278 C276 1.395 . S
C278 C281 1.403 . S
C279 C276 1.403 . S
C279 C280 1.524 . S
C279 C283 1.400 . S
C280 H265 0.960 . S
C280 H266 0.960 . S
C280 H267 0.960 . S
C280 C279 1.524 . S
C281 C278 1.403 . S
C281 C282 1.392 . S
C281 C285 1.495 . S
C282 C281 1.392 . S
C282 C283 1.385 . S
C282 C284 1.478 . S
C283 H277 0.930 . S
C283 C279 1.400 . S
C283 C282 1.385 . S
C284 C282 1.478 . S
C284 C286 1.381 . S
C284 C290 1.383 . S
C285 C281 1.495 . S
C285 H291 0.959 . S
C285 H292 0.961 . S
C285 H293 0.960 . S
C286 C284 1.381 . S
C286 C287 1.394 . S
C286 H294 0.930 . S
C287 C286 1.394 . S
C287 C288 1.383 . S
C287 H295 0.929 . S
C288 C287 1.383 . S
C288 C289 1.377 . S
C289 H273 0.930 . S
C289 C288 1.377 . S
C289 C290 1.379 . S
C290 H274 0.931 . S
C290 C284 1.383 . S
C290 C289 1.379 . S
H291 C285 0.959 . S
H292 C285 0.961 . S
H293 C285 0.960 . S
H294 C286 0.930 . S
H295 C287 0.929 . S
H296 C304 0.929 . S
H297 C306 0.930 . S
H298 C308 0.930 . S
H299 C311 0.929 . S
H300 C314 0.930 . S
H301 C316 0.960 . S
H302 C316 0.960 . S
H303 C316 0.960 1_655 S
C304 H296 0.929 . S
C304 C305 1.377 . S
C304 C306 1.384 . S
C305 C304 1.377 . S
C305 C311 1.390 . S
C306 H297 0.930 . S
C306 C304 1.384 . S
C306 C307 1.372 . S
C307 C306 1.372 . S
C307 C308 1.400 . S
C307 C312 1.490 . S
C308 H298 0.930 . S
C308 C307 1.400 . S
C308 C311 1.386 . S
H309 C325 0.930 . S
H310 C326 0.931 . S
C311 H299 0.929 . S
C311 C305 1.390 . S
C311 C308 1.386 . S
C312 C307 1.490 . S
C312 C314 1.395 . S
C312 C315 1.403 . S
H313 C319 0.930 1_455 S
C314 H300 0.930 . S
C314 C312 1.395 . S
C314 C317 1.403 . S
C315 C312 1.403 . S
C315 C316 1.524 1_655 S
C315 C319 1.400 . S
C316 H301 0.960 . S
C316 H302 0.960 . S
C316 H303 0.960 1_455 S
C316 C315 1.524 1_455 S
C317 C314 1.403 . S
C317 C318 1.392 . S
C317 C321 1.495 . S
C318 C317 1.392 . S
C318 C319 1.385 . S
C318 C320 1.478 . S
C319 H313 0.930 1_655 S
C319 C315 1.400 . S
C319 C318 1.385 . S
C320 C318 1.478 . S
C320 C322 1.381 . S
C320 C326 1.383 . S
C321 C317 1.495 . S
C321 H327 0.959 . S
C321 H328 0.961 . S
C321 H329 0.960 . S
C322 C320 1.381 . S
C322 C323 1.394 . S
C322 H330 0.930 . S
C323 C322 1.394 . S
C323 C324 1.383 1_655 S
C323 H331 0.929 . S
C324 C323 1.383 1_455 S
C324 C325 1.377 . S
C325 H309 0.930 . S
C325 C324 1.377 . S
C325 C326 1.379 1_455 S
C326 H310 0.931 . S
C326 C320 1.383 . S
C326 C325 1.379 1_655 S
H327 C321 0.959 . S
H328 C321 0.961 . S
H329 C321 0.960 . S
H330 C322 0.930 . S
H331 C323 0.929 . S
H332 C340 0.929 . S
H333 C342 0.930 . S
H334 C344 0.930 . S
H335 C347 0.929 . S
H336 C350 0.930 . S
H337 C352 0.960 . S
H338 C352 0.960 . S
H339 C352 0.960 . S
C340 H332 0.929 . S
C340 C341 1.377 . S
C340 C342 1.384 . S
C341 C340 1.377 . S
C341 C347 1.390 . S
C342 H333 0.930 . S
C342 C340 1.384 . S
C342 C343 1.372 . S
C343 C342 1.372 . S
C343 C344 1.400 . S
C343 C348 1.490 . S
C344 H334 0.930 . S
C344 C343 1.400 . S
C344 C347 1.386 . S
H345 C361 0.930 . S
H346 C362 0.931 . S
C347 H335 0.929 . S
C347 C341 1.390 . S
C347 C344 1.386 . S
C348 C343 1.490 . S
C348 C350 1.395 . S
C348 C351 1.403 . S
H349 C355 0.930 . S
C350 H336 0.930 . S
C350 C348 1.395 . S
C350 C353 1.403 . S
C351 C348 1.403 . S
C351 C352 1.524 . S
C351 C355 1.400 . S
C352 H337 0.960 . S
C352 H338 0.960 . S
C352 H339 0.960 . S
C352 C351 1.524 . S
C353 C350 1.403 . S
C353 C354 1.392 . S
C353 C357 1.495 . S
C354 C353 1.392 . S
C354 C355 1.385 . S
C354 C356 1.478 . S
C355 H349 0.930 . S
C355 C351 1.400 . S
C355 C354 1.385 . S
C356 C354 1.478 . S
C356 C358 1.381 . S
C356 C362 1.383 . S
C357 C353 1.495 . S
C357 H363 0.959 . S
C357 H364 0.961 . S
C357 H365 0.960 . S
C358 C356 1.381 . S
C358 C359 1.394 . S
C358 H366 0.930 . S
C359 C358 1.394 . S
C359 C360 1.383 . S
C359 H367 0.929 . S
C360 C359 1.383 . S
C360 C361 1.377 . S
C361 H345 0.930 . S
C361 C360 1.377 . S
C361 C362 1.379 . S
C362 H346 0.931 . S
C362 C356 1.383 . S
C362 C361 1.379 . S
H363 C357 0.959 . S
H364 C357 0.961 . S
H365 C357 0.960 . S
H366 C358 0.930 . S
H367 C359 0.929 . S
H368 C376 0.929 . S
H369 C378 0.930 . S
H370 C380 0.930 . S
H371 C383 0.929 . S
H372 C386 0.930 . S
H373 C388 0.960 . S
H374 C388 0.960 . S
H375 C388 0.960 . S
C376 H368 0.929 . S
C376 C377 1.377 . S
C376 C378 1.384 . S
C377 C376 1.377 . S
C377 C383 1.390 . S
C378 H369 0.930 . S
C378 C376 1.384 . S
C378 C379 1.372 . S
C379 C378 1.372 . S
C379 C380 1.400 . S
C379 C384 1.490 . S
C380 H370 0.930 . S
C380 C379 1.400 . S
C380 C383 1.386 . S
H381 C397 0.930 . S
H382 C398 0.931 . S
C383 H371 0.929 . S
C383 C377 1.390 . S
C383 C380 1.386 . S
C384 C379 1.490 . S
C384 C386 1.395 . S
C384 C387 1.403 . S
H385 C391 0.930 . S
C386 H372 0.930 . S
C386 C384 1.395 . S
C386 C389 1.403 . S
C387 C384 1.403 . S
C387 C388 1.524 . S
C387 C391 1.400 . S
C388 H373 0.960 . S
C388 H374 0.960 . S
C388 H375 0.960 . S
C388 C387 1.524 . S
C389 C386 1.403 . S
C389 C390 1.392 . S
C389 C393 1.495 . S
C390 C389 1.392 . S
C390 C391 1.385 . S
C390 C392 1.478 . S
C391 H385 0.930 . S
C391 C387 1.400 . S
C391 C390 1.385 . S
C392 C390 1.478 . S
C392 C394 1.381 . S
C392 C398 1.383 . S
C393 C389 1.495 . S
C393 H399 0.959 . S
C393 H400 0.961 . S
C393 H401 0.960 . S
C394 C392 1.381 . S
C394 C395 1.394 . S
C394 H402 0.930 . S
C395 C394 1.394 . S
C395 C396 1.383 . S
C395 H403 0.929 . S
C396 C395 1.383 . S
C396 C397 1.377 . S
C397 H381 0.930 . S
C397 C396 1.377 . S
C397 C398 1.379 . S
C398 H382 0.931 . S
C398 C392 1.383 . S
C398 C397 1.379 . S
H399 C393 0.959 . S
H400 C393 0.961 . S
H401 C393 0.960 . S
H402 C394 0.930 . S
H403 C395 0.929 . S
H404 C412 0.929 . S
H405 C414 0.930 . S
H406 C416 0.930 . S
H407 C419 0.929 . S
H408 C422 0.930 . S
H409 C424 0.960 . S
H410 C424 0.960 . S
H411 C424 0.960 . S
C412 H404 0.929 . S
C412 C413 1.377 . S
C412 C414 1.384 . S
C413 C412 1.377 . S
C413 C419 1.390 . S
C414 H405 0.930 . S
C414 C412 1.384 . S
C414 C415 1.372 . S
C415 C414 1.372 . S
C415 C416 1.400 . S
C415 C420 1.490 . S
C416 H406 0.930 . S
C416 C415 1.400 . S
C416 C419 1.386 . S
H417 C433 0.930 . S
H418 C434 0.931 . S
C419 H407 0.929 . S
C419 C413 1.390 . S
C419 C416 1.386 . S
C420 C415 1.490 . S
C420 C422 1.395 . S
C420 C423 1.403 . S
H421 C427 0.930 . S
C422 H408 0.930 . S
C422 C420 1.395 . S
C422 C425 1.403 . S
C423 C420 1.403 . S
C423 C424 1.524 . S
C423 C427 1.400 . S
C424 H409 0.960 . S
C424 H410 0.960 . S
C424 H411 0.960 . S
C424 C423 1.524 . S
C425 C422 1.403 . S
C425 C426 1.392 . S
C425 C429 1.495 . S
C426 C425 1.392 . S
C426 C427 1.385 . S
C426 C428 1.478 . S
C427 H421 0.930 . S
C427 C423 1.400 . S
C427 C426 1.385 . S
C428 C426 1.478 . S
C428 C430 1.381 . S
C428 C434 1.383 . S
C429 C425 1.495 . S
C429 H435 0.959 . S
C429 H436 0.961 . S
C429 H437 0.960 . S
C430 C428 1.381 . S
C430 C431 1.394 . S
C430 H438 0.930 . S
C431 C430 1.394 . S
C431 C432 1.383 . S
C431 H439 0.929 . S
C432 C431 1.383 . S
C432 C433 1.377 . S
C433 H417 0.930 . S
C433 C432 1.377 . S
C433 C434 1.379 . S
C434 H418 0.931 . S
C434 C428 1.383 . S
C434 C433 1.379 . S
H435 C429 0.959 . S
H436 C429 0.961 . S
H437 C429 0.960 . S
H438 C430 0.930 . S
H439 C431 0.929 . S
H440 C448 0.929 . S
H441 C450 0.930 . S
H442 C452 0.930 . S
H443 C455 0.929 . S
H444 C458 0.930 . S
H445 C460 0.960 . S
H446 C460 0.960 . S
H447 C460 0.960 . S
C448 H440 0.929 . S
C448 C449 1.377 . S
C448 C450 1.384 . S
C449 C448 1.377 . S
C449 C455 1.390 . S
C450 H441 0.930 . S
C450 C448 1.384 . S
C450 C451 1.372 . S
C451 C450 1.372 . S
C451 C452 1.400 . S
C451 C456 1.490 . S
C452 H442 0.930 . S
C452 C451 1.400 . S
C452 C455 1.386 . S
H453 C469 0.930 . S
H454 C470 0.931 . S
C455 H443 0.929 . S
C455 C449 1.390 . S
C455 C452 1.386 . S
C456 C451 1.490 . S
C456 C458 1.395 . S
C456 C459 1.403 . S
H457 C463 0.930 . S
C458 H444 0.930 . S
C458 C456 1.395 . S
C458 C461 1.403 . S
C459 C456 1.403 . S
C459 C460 1.524 . S
C459 C463 1.400 . S
C460 H445 0.960 . S
C460 H446 0.960 . S
C460 H447 0.960 . S
C460 C459 1.524 . S
C461 C458 1.403 . S
C461 C462 1.392 . S
C461 C465 1.495 . S
C462 C461 1.392 . S
C462 C463 1.385 . S
C462 C464 1.478 . S
C463 H457 0.930 . S
C463 C459 1.400 . S
C463 C462 1.385 . S
C464 C462 1.478 . S
C464 C466 1.381 . S
C464 C470 1.383 . S
C465 C461 1.495 . S
C465 H471 0.959 . S
C465 H472 0.961 . S
C465 H473 0.960 . S
C466 C464 1.381 . S
C466 C467 1.394 . S
C466 H474 0.930 . S
C467 C466 1.394 . S
C467 C468 1.383 . S
C467 H475 0.929 . S
C468 C467 1.383 . S
C468 C469 1.377 . S
C469 H453 0.930 . S
C469 C468 1.377 . S
C469 C470 1.379 . S
C470 H454 0.931 . S
C470 C464 1.383 . S
C470 C469 1.379 . S
H471 C465 0.959 . S
H472 C465 0.961 . S
H473 C465 0.960 . S
H474 C466 0.930 . S
H475 C467 0.929 . S
H476 C484 0.929 . S
H477 C486 0.930 . S
H478 C488 0.930 . S
H479 C491 0.929 . S
H480 C494 0.930 . S
H481 C496 0.960 . S
H482 C496 0.960 . S
H483 C496 0.960 . S
C484 H476 0.929 . S
C484 C485 1.377 . S
C484 C486 1.384 . S
C485 C484 1.377 . S
C485 C491 1.390 . S
C486 H477 0.930 . S
C486 C484 1.384 . S
C486 C487 1.372 . S
C487 C486 1.372 . S
C487 C488 1.400 . S
C487 C492 1.490 . S
C488 H478 0.930 . S
C488 C487 1.400 . S
C488 C491 1.386 . S
H489 C505 0.930 . S
H490 C506 0.931 . S
C491 H479 0.929 . S
C491 C485 1.390 . S
C491 C488 1.386 . S
C492 C487 1.490 . S
C492 C494 1.395 . S
C492 C495 1.403 . S
H493 C499 0.930 . S
C494 H480 0.930 . S
C494 C492 1.395 . S
C494 C497 1.403 . S
C495 C492 1.403 . S
C495 C496 1.524 . S
C495 C499 1.400 . S
C496 H481 0.960 . S
C496 H482 0.960 . S
C496 H483 0.960 . S
C496 C495 1.524 . S
C497 C494 1.403 . S
C497 C498 1.392 . S
C497 C501 1.495 . S
C498 C497 1.392 . S
C498 C499 1.385 . S
C498 C500 1.478 . S
C499 H493 0.930 . S
C499 C495 1.400 . S
C499 C498 1.385 . S
C500 C498 1.478 . S
C500 C502 1.381 . S
C500 C506 1.383 . S
C501 C497 1.495 . S
C501 H507 0.959 . S
C501 H508 0.961 . S
C501 H509 0.960 . S
C502 C500 1.381 . S
C502 C503 1.394 . S
C502 H510 0.930 . S
C503 C502 1.394 . S
C503 C504 1.383 . S
C503 H511 0.929 . S
C504 C503 1.383 . S
C504 C505 1.377 . S
C505 H489 0.930 . S
C505 C504 1.377 . S
C505 C506 1.379 . S
C506 H490 0.931 . S
C506 C500 1.383 . S
C506 C505 1.379 . S
H507 C501 0.959 . S
H508 C501 0.961 . S
H509 C501 0.960 . S
H510 C502 0.930 . S
H511 C503 0.929 . S
H512 C520 0.929 . S
H513 C522 0.930 . S
H514 C524 0.930 . S
H515 C527 0.929 . S
H516 C530 0.930 . S
H517 C532 0.960 . S
H518 C532 0.960 . S
H519 C532 0.960 . S
C520 H512 0.929 . S
C520 C521 1.377 . S
C520 C522 1.384 . S
C521 C520 1.377 . S
C521 C527 1.390 . S
C522 H513 0.930 . S
C522 C520 1.384 . S
C522 C523 1.372 . S
C523 C522 1.372 . S
C523 C524 1.400 . S
C523 C528 1.490 . S
C524 H514 0.930 . S
C524 C523 1.400 . S
C524 C527 1.386 . S
H525 C541 0.930 . S
H526 C542 0.931 . S
C527 H515 0.929 . S
C527 C521 1.390 . S
C527 C524 1.386 . S
C528 C523 1.490 . S
C528 C530 1.395 . S
C528 C531 1.403 . S
H529 C535 0.930 . S
C530 H516 0.930 . S
C530 C528 1.395 . S
C530 C533 1.403 . S
C531 C528 1.403 . S
C531 C532 1.524 . S
C531 C535 1.400 . S
C532 H517 0.960 . S
C532 H518 0.960 . S
C532 H519 0.960 . S
C532 C531 1.524 . S
C533 C530 1.403 . S
C533 C534 1.392 . S
C533 C537 1.495 . S
C534 C533 1.392 . S
C534 C535 1.385 . S
C534 C536 1.478 . S
C535 H529 0.930 . S
C535 C531 1.400 . S
C535 C534 1.385 . S
C536 C534 1.478 . S
C536 C538 1.381 . S
C536 C542 1.383 . S
C537 C533 1.495 . S
C537 H543 0.959 . S
C537 H544 0.961 . S
C537 H545 0.960 . S
C538 C536 1.381 . S
C538 C539 1.394 . S
C538 H546 0.930 . S
C539 C538 1.394 . S
C539 C540 1.383 . S
C539 H547 0.929 1_556 S
C540 C539 1.383 . S
C540 C541 1.377 . S
C541 H525 0.930 . S
C541 C540 1.377 . S
C541 C542 1.379 . S
C542 H526 0.931 . S
C542 C536 1.383 . S
C542 C541 1.379 . S
H543 C537 0.959 . S
H544 C537 0.961 . S
H545 C537 0.960 . S
H546 C538 0.930 . S
H547 C539 0.929 1_554 S
H548 C556 0.929 . S
H549 C558 0.930 . S
H550 C560 0.930 . S
H551 C563 0.929 . S
H552 C566 0.930 . S
H553 C568 0.960 . S
H554 C568 0.960 . S
H555 C568 0.960 . S
C556 H548 0.929 . S
C556 C557 1.377 . S
C556 C558 1.384 . S
C557 C556 1.377 . S
C557 C563 1.390 . S
C558 H549 0.930 . S
C558 C556 1.384 . S
C558 C559 1.372 . S
C559 C558 1.372 . S
C559 C560 1.400 . S
C559 C564 1.490 . S
C560 H550 0.930 . S
C560 C559 1.400 . S
C560 C563 1.386 . S
H561 C577 0.930 1_455 S
H562 C578 0.931 . S
C563 H551 0.929 . S
C563 C557 1.390 . S
C563 C560 1.386 . S
C564 C559 1.490 . S
C564 C566 1.395 . S
C564 C567 1.403 . S
H565 C571 0.930 . S
C566 H552 0.930 . S
C566 C564 1.395 . S
C566 C569 1.403 . S
C567 C564 1.403 . S
C567 C568 1.524 . S
C567 C571 1.400 . S
C568 H553 0.960 . S
C568 H554 0.960 . S
C568 H555 0.960 . S
C568 C567 1.524 . S
C569 C566 1.403 . S
C569 C570 1.392 . S
C569 C573 1.495 . S
C570 C569 1.392 . S
C570 C571 1.385 . S
C570 C572 1.478 . S
C571 H565 0.930 . S
C571 C567 1.400 . S
C571 C570 1.385 . S
C572 C570 1.478 . S
C572 C574 1.381 . S
C572 C578 1.383 . S
C573 C569 1.495 . S
C573 H579 0.959 . S
C573 H580 0.961 . S
C573 H581 0.960 . S
C574 C572 1.381 . S
C574 C575 1.394 . S
C574 H582 0.930 . S
C575 C574 1.394 . S
C575 C576 1.383 . S
C575 H583 0.929 . S
C576 C575 1.383 . S
C576 C577 1.377 . S
C577 H561 0.930 1_655 S
C577 C576 1.377 . S
C577 C578 1.379 . S
C578 H562 0.931 . S
C578 C572 1.383 . S
C578 C577 1.379 . S
H579 C573 0.959 . S
H580 C573 0.961 . S
H581 C573 0.960 . S
H582 C574 0.930 . S
H583 C575 0.929 . S
H584 C592 0.929 . S
H585 C594 0.930 . S
H586 C596 0.930 . S
H587 C599 0.929 . S
H588 C602 0.930 . S
H589 C604 0.960 . S
H590 C604 0.960 . S
H591 C604 0.960 . S
C592 H584 0.929 . S
C592 C593 1.377 . S
C592 C594 1.384 . S
C593 C592 1.377 . S
C593 C599 1.390 . S
C594 H585 0.930 . S
C594 C592 1.384 . S
C594 C595 1.372 . S
C595 C594 1.372 . S
C595 C596 1.400 . S
C595 C600 1.490 . S
C596 H586 0.930 . S
C596 C595 1.400 . S
C596 C599 1.386 . S
H597 C613 0.930 . S
H598 C614 0.931 . S
C599 H587 0.929 . S
C599 C593 1.390 . S
C599 C596 1.386 . S
C600 C595 1.490 . S
C600 C602 1.395 . S
C600 C603 1.403 . S
H601 C607 0.930 . S
C602 H588 0.930 . S
C602 C600 1.395 . S
C602 C605 1.403 . S
C603 C600 1.403 . S
C603 C604 1.524 . S
C603 C607 1.400 . S
C604 H589 0.960 . S
C604 H590 0.960 . S
C604 H591 0.960 . S
C604 C603 1.524 . S
C605 C602 1.403 . S
C605 C606 1.392 . S
C605 C609 1.495 . S
C606 C605 1.392 . S
C606 C607 1.385 . S
C606 C608 1.478 . S
C607 H601 0.930 . S
C607 C603 1.400 . S
C607 C606 1.385 . S
C608 C606 1.478 . S
C608 C610 1.381 . S
C608 C614 1.383 . S
C609 C605 1.495 . S
C609 H615 0.959 . S
C609 H616 0.961 . S
C609 H617 0.960 . S
C610 C608 1.381 . S
C610 C611 1.394 . S
C610 H618 0.930 . S
C611 C610 1.394 . S
C611 C612 1.383 . S
C611 H619 0.929 . S
C612 C611 1.383 . S
C612 C613 1.377 . S
C613 H597 0.930 . S
C613 C612 1.377 . S
C613 C614 1.379 . S
C614 H598 0.931 . S
C614 C608 1.383 . S
C614 C613 1.379 . S
H615 C609 0.959 . S
H616 C609 0.961 . S
H617 C609 0.960 . S
H618 C610 0.930 . S
H619 C611 0.929 . S
H620 C628 0.929 . S
H621 C630 0.930 . S
H622 C632 0.930 1_445 S
H623 C635 0.929 1_455 S
H624 C638 0.930 . S
H625 C640 0.960 . S
H626 C640 0.960 . S
H627 C640 0.960 . S
C628 H620 0.929 . S
C628 C629 1.377 . S
C628 C630 1.384 . S
C629 C628 1.377 . S
C629 C635 1.390 . S
C630 H621 0.930 . S
C630 C628 1.384 . S
C630 C631 1.372 . S
C631 C630 1.372 . S
C631 C632 1.400 . S
C631 C636 1.490 . S
C632 H622 0.930 1_665 S
C632 C631 1.400 . S
C632 C635 1.386 . S
H633 C649 0.930 . S
H634 C650 0.941 . S
C635 H623 0.929 1_655 S
C635 C629 1.390 . S
C635 C632 1.386 . S
C636 C631 1.490 . S
C636 C638 1.395 . S
C636 C639 1.403 1_655 S
H637 C643 0.930 . S
C638 H624 0.930 . S
C638 C636 1.395 . S
C638 C641 1.403 . S
C639 C636 1.403 1_455 S
C639 C640 1.524 . S
C639 C643 1.400 . S
C640 H625 0.960 . S
C640 H626 0.960 . S
C640 H627 0.960 . S
C640 C639 1.524 . S
C641 C638 1.403 . S
C641 C642 1.392 . S
C641 C645 1.495 . S
C642 C641 1.392 . S
C642 C643 1.385 1_655 S
C642 C644 1.478 1_565 S
C643 H637 0.930 . S
C643 C639 1.400 . S
C643 C642 1.385 1_455 S
C644 C642 1.478 1_545 S
C644 C646 1.381 1_545 S
C644 C650 1.368 1_655 S
C645 C641 1.495 . S
C645 H651 0.959 . S
C645 H652 0.961 1_565 S
C645 H653 0.960 . S
C646 C644 1.381 1_565 S
C646 C647 1.394 . S
C646 H654 0.930 . S
C647 C646 1.394 . S
C647 C648 1.383 1_565 S
C647 H655 0.929 . S
C648 C647 1.383 1_545 S
C648 C649 1.377 1_655 S
C649 H633 0.930 . S
C649 C648 1.377 1_455 S
C649 C650 1.385 . S
C650 H634 0.941 . S
C650 C644 1.368 1_455 S
C650 C649 1.385 . S
H651 C645 0.959 . S
H652 C645 0.961 1_545 S
H653 C645 0.960 . S
H654 C646 0.930 . S
H655 C647 0.929 . S
H656 C664 0.929 . S
H657 C666 0.930 . S
H658 C668 0.930 . S
H659 C671 0.929 . S
H660 C674 0.930 . S
H661 C676 0.960 . S
H662 C676 0.960 . S
H663 C676 0.960 . S
C664 H656 0.929 . S
C664 C665 1.377 . S
C664 C666 1.384 . S
C665 C664 1.377 . S
C665 C671 1.390 . S
C666 H657 0.930 . S
C666 C664 1.384 . S
C666 C667 1.372 . S
C667 C666 1.372 . S
C667 C668 1.400 . S
C667 C672 1.490 . S
C668 H658 0.930 . S
C668 C667 1.400 . S
C668 C671 1.386 . S
H669 C685 0.930 . S
H670 C686 0.931 . S
C671 H659 0.929 . S
C671 C665 1.390 . S
C671 C668 1.386 . S
C672 C667 1.490 . S
C672 C674 1.395 . S
C672 C675 1.403 . S
H673 C679 0.930 . S
C674 H660 0.930 . S
C674 C672 1.395 . S
C674 C677 1.403 . S
C675 C672 1.403 . S
C675 C676 1.524 . S
C675 C679 1.400 . S
C676 H661 0.960 . S
C676 H662 0.960 . S
C676 H663 0.960 . S
C676 C675 1.524 . S
C677 C674 1.403 . S
C677 C678 1.392 . S
C677 C681 1.495 . S
C678 C677 1.392 . S
C678 C679 1.385 . S
C678 C680 1.478 . S
C679 H673 0.930 . S
C679 C675 1.400 . S
C679 C678 1.385 . S
C680 C678 1.478 . S
C680 C682 1.381 . S
C680 C686 1.383 . S
C681 C677 1.495 . S
C681 H687 0.959 1_545 S
C681 H688 0.961 . S
C681 H689 0.960 1_545 S
C682 C680 1.381 . S
C682 C683 1.394 . S
C682 H690 0.930 . S
C683 C682 1.394 . S
C683 C684 1.383 . S
C683 H691 0.929 1_545 S
C684 C683 1.383 . S
C684 C685 1.377 . S
C685 H669 0.930 . S
C685 C684 1.377 . S
C685 C686 1.379 . S
C686 H670 0.931 . S
C686 C680 1.383 . S
C686 C685 1.379 . S
H687 C681 0.959 1_565 S
H688 C681 0.961 . S
H689 C681 0.960 1_565 S
H690 C682 0.930 . S
H691 C683 0.929 1_565 S
H692 C700 0.929 . S
H693 C702 0.930 . S
H694 C704 0.930 . S
H695 C707 0.929 . S
H696 C710 0.930 . S
H697 C712 0.960 . S
H698 C712 0.960 . S
H699 C712 0.960 . S
C700 H692 0.929 . S
C700 C701 1.377 . S
C700 C702 1.384 . S
C701 C700 1.377 . S
C701 C707 1.390 . S
C702 H693 0.930 . S
C702 C700 1.384 . S
C702 C703 1.372 . S
C703 C702 1.372 . S
C703 C704 1.400 . S
C703 C708 1.490 . S
C704 H694 0.930 . S
C704 C703 1.400 . S
C704 C707 1.386 . S
H705 C721 0.930 . S
H706 C722 0.931 . S
C707 H695 0.929 . S
C707 C701 1.390 . S
C707 C704 1.386 . S
C708 C703 1.490 . S
C708 C710 1.395 . S
C708 C711 1.403 . S
H709 C715 0.930 . S
C710 H696 0.930 . S
C710 C708 1.395 . S
C710 C713 1.403 . S
C711 C708 1.403 . S
C711 C712 1.524 . S
C711 C715 1.400 . S
C712 H697 0.960 . S
C712 H698 0.960 . S
C712 H699 0.960 . S
C712 C711 1.524 . S
C713 C710 1.403 . S
C713 C714 1.392 . S
C713 C717 1.495 . S
C714 C713 1.392 . S
C714 C715 1.385 . S
C714 C716 1.478 . S
C715 H709 0.930 . S
C715 C711 1.400 . S
C715 C714 1.385 . S
C716 C714 1.478 . S
C716 C718 1.381 . S
C716 C722 1.383 . S
C717 C713 1.495 . S
C717 H723 0.959 . S
C717 H724 0.961 . S
C717 H725 0.960 . S
C718 C716 1.381 . S
C718 C719 1.394 . S
C718 H726 0.930 . S
C719 C718 1.394 . S
C719 C720 1.383 . S
C719 H727 0.929 . S
C720 C719 1.383 . S
C720 C721 1.377 . S
C721 H705 0.930 . S
C721 C720 1.377 . S
C721 C722 1.379 . S
C722 H706 0.931 . S
C722 C716 1.383 . S
C722 C721 1.379 . S
H723 C717 0.959 . S
H724 C717 0.961 . S
H725 C717 0.960 . S
H726 C718 0.930 . S
H727 C719 0.929 . S
H728 C736 0.929 . S
H729 C738 0.930 . S
H730 C740 0.930 . S
H731 C743 0.929 . S
H732 C746 0.930 . S
H733 C748 0.960 . S
H734 C748 0.960 . S
H735 C748 0.960 . S
C736 H728 0.929 . S
C736 C737 1.377 . S
C736 C738 1.384 . S
C737 C736 1.377 . S
C737 C743 1.390 . S
C738 H729 0.930 . S
C738 C736 1.384 . S
C738 C739 1.372 . S
C739 C738 1.372 . S
C739 C740 1.400 . S
C739 C744 1.490 . S
C740 H730 0.930 . S
C740 C739 1.400 . S
C740 C743 1.386 . S
H741 C757 0.930 . S
H742 C758 0.931 . S
C743 H731 0.929 . S
C743 C737 1.390 . S
C743 C740 1.386 . S
C744 C739 1.490 . S
C744 C746 1.395 . S
C744 C747 1.403 . S
H745 C751 0.930 . S
C746 H732 0.930 . S
C746 C744 1.395 . S
C746 C749 1.403 . S
C747 C744 1.403 . S
C747 C748 1.524 . S
C747 C751 1.400 . S
C748 H733 0.960 . S
C748 H734 0.960 . S
C748 H735 0.960 . S
C748 C747 1.524 . S
C749 C746 1.403 . S
C749 C750 1.392 . S
C749 C753 1.495 . S
C750 C749 1.392 . S
C750 C751 1.385 . S
C750 C752 1.478 . S
C751 H745 0.930 . S
C751 C747 1.400 . S
C751 C750 1.385 . S
C752 C750 1.478 . S
C752 C754 1.381 . S
C752 C758 1.383 . S
C753 C749 1.495 . S
C753 H759 0.959 . S
C753 H760 0.961 . S
C753 H761 0.960 . S
C754 C752 1.381 . S
C754 C755 1.394 . S
C754 H762 0.930 . S
C755 C754 1.394 . S
C755 C756 1.383 . S
C755 H763 0.929 . S
C756 C755 1.383 . S
C756 C757 1.377 . S
C757 H741 0.930 . S
C757 C756 1.377 . S
C757 C758 1.379 . S
C758 H742 0.931 . S
C758 C752 1.383 . S
C758 C757 1.379 . S
H759 C753 0.959 . S
H760 C753 0.961 . S
H761 C753 0.960 . S
H762 C754 0.930 . S
H763 C755 0.929 . S
H764 C772 0.929 . S
H765 C774 0.930 . S
H766 C776 0.930 1_554 S
H767 C779 0.929 1_554 S
H768 C782 0.930 . S
H769 C784 0.960 . S
H770 C784 0.960 1_556 S
H771 C784 0.960 . S
C772 H764 0.929 . S
C772 C773 1.377 . S
C772 C774 1.384 . S
C773 C772 1.377 . S
C773 C779 1.390 . S
C774 H765 0.930 . S
C774 C772 1.384 . S
C774 C775 1.372 . S
C775 C774 1.372 . S
C775 C776 1.400 . S
C775 C780 1.490 . S
C776 H766 0.930 1_556 S
C776 C775 1.400 . S
C776 C779 1.386 . S
H777 C793 0.930 . S
H778 C794 0.931 . S
C779 H767 0.929 1_556 S
C779 C773 1.390 . S
C779 C776 1.386 . S
C780 C775 1.490 . S
C780 C782 1.395 . S
C780 C783 1.403 . S
H781 C787 0.930 1_544 S
C782 H768 0.930 . S
C782 C780 1.395 . S
C782 C785 1.403 . S
C783 C780 1.403 . S
C783 C784 1.524 1_566 S
C783 C787 1.400 . S
C784 H769 0.960 . S
C784 H770 0.960 1_554 S
C784 H771 0.960 . S
C784 C783 1.524 1_544 S
C785 C782 1.403 . S
C785 C786 1.392 . S
C785 C789 1.495 . S
C786 C785 1.392 . S
C786 C787 1.385 . S
C786 C788 1.478 . S
C787 H781 0.930 1_566 S
C787 C783 1.400 . S
C787 C786 1.385 . S
C788 C786 1.478 . S
C788 C790 1.381 . S
C788 C794 1.383 1_556 S
C789 C785 1.495 . S
C789 H795 0.959 . S
C789 H796 0.961 . S
C789 H797 0.960 . S
C790 C788 1.381 . S
C790 C791 1.394 . S
C790 H798 0.930 . S
C791 C790 1.394 . S
C791 C792 1.354 1_556 S
C791 H799 0.929 1_565 S
C792 C791 1.354 1_554 S
C792 C793 1.399 . S
C793 H777 0.930 . S
C793 C792 1.399 . S
C793 C794 1.379 . S
C794 H778 0.931 . S
C794 C788 1.383 1_554 S
C794 C793 1.379 . S
H795 C789 0.959 . S
H796 C789 0.961 . S
H797 C789 0.960 . S
H798 C790 0.930 . S
H799 C791 0.929 1_545 S
H800 C808 0.929 . S
H801 C810 0.930 . S
H802 C812 0.930 . S
H803 C815 0.929 . S
H804 C818 0.930 . S
H805 C820 0.960 . S
H806 C820 0.960 . S
H807 C820 0.960 . S
C808 H800 0.929 . S
C808 C809 1.377 . S
C808 C810 1.384 . S
C809 C808 1.377 . S
C809 C815 1.390 . S
C810 H801 0.930 . S
C810 C808 1.384 . S
C810 C811 1.372 . S
C811 C810 1.372 . S
C811 C812 1.400 . S
C811 C816 1.490 . S
C812 H802 0.930 . S
C812 C811 1.400 . S
C812 C815 1.386 . S
H813 C829 0.930 . S
H814 C830 0.931 . S
C815 H803 0.929 . S
C815 C809 1.390 . S
C815 C812 1.386 . S
C816 C811 1.490 . S
C816 C818 1.395 . S
C816 C819 1.403 . S
H817 C823 0.930 . S
C818 H804 0.930 . S
C818 C816 1.395 . S
C818 C821 1.403 . S
C819 C816 1.403 . S
C819 C820 1.524 . S
C819 C823 1.400 . S
C820 H805 0.960 . S
C820 H806 0.960 . S
C820 H807 0.960 . S
C820 C819 1.524 . S
C821 C818 1.403 . S
C821 C822 1.392 . S
C821 C825 1.495 . S
C822 C821 1.392 . S
C822 C823 1.385 . S
C822 C824 1.478 . S
C823 H817 0.930 . S
C823 C819 1.400 . S
C823 C822 1.385 . S
C824 C822 1.478 . S
C824 C826 1.381 . S
C824 C830 1.383 . S
C825 C821 1.495 . S
C825 H831 0.959 1_545 S
C825 H832 0.961 . S
C825 H833 0.959 1_545 S
C826 C824 1.381 . S
C826 C827 1.394 . S
C826 H834 0.930 . S
C827 C826 1.394 . S
C827 C828 1.383 . S
C827 H835 0.929 . S
C828 C827 1.383 . S
C828 C829 1.377 . S
C829 H813 0.930 . S
C829 C828 1.377 . S
C829 C830 1.379 . S
C830 H814 0.931 . S
C830 C824 1.383 . S
C830 C829 1.379 . S
H831 C825 0.959 1_565 S
H832 C825 0.961 . S
H833 C825 0.959 1_565 S
H834 C826 0.930 . S
H835 C827 0.929 . S
H836 C844 0.929 . S
H837 C846 0.930 . S
H838 C848 0.930 . S
H839 C851 0.929 . S
H840 C854 0.930 . S
H841 C856 0.960 . S
H842 C856 0.960 . S
H843 C856 0.960 . S
C844 H836 0.929 . S
C844 C845 1.377 . S
C844 C846 1.384 . S
C845 C844 1.377 . S
C845 C851 1.390 . S
C846 H837 0.930 . S
C846 C844 1.384 . S
C846 C847 1.372 . S
C847 C846 1.372 . S
C847 C848 1.400 . S
C847 C852 1.490 . S
C848 H838 0.930 . S
C848 C847 1.400 . S
C848 C851 1.386 . S
H849 C865 0.930 . S
H850 C866 0.931 . S
C851 H839 0.929 . S
C851 C845 1.390 . S
C851 C848 1.386 . S
C852 C847 1.490 . S
C852 C854 1.395 . S
C852 C855 1.403 . S
H853 C859 0.930 . S
C854 H840 0.930 . S
C854 C852 1.395 . S
C854 C857 1.403 . S
C855 C852 1.403 . S
C855 C856 1.524 . S
C855 C859 1.400 . S
C856 H841 0.960 . S
C856 H842 0.960 . S
C856 H843 0.960 . S
C856 C855 1.524 . S
C857 C854 1.403 . S
C857 C858 1.392 . S
C857 C861 1.495 . S
C858 C857 1.392 . S
C858 C859 1.385 . S
C858 C860 1.478 . S
C859 H853 0.930 . S
C859 C855 1.400 . S
C859 C858 1.385 . S
C860 C858 1.478 . S
C860 C862 1.381 . S
C860 C866 1.383 . S
C861 C857 1.495 . S
C861 H867 0.959 1_554 S
C861 H868 0.961 . S
C861 H869 0.960 1_554 S
C862 C860 1.381 . S
C862 C863 1.394 . S
C862 H870 0.930 1_554 S
C863 C862 1.394 . S
C863 C864 1.383 . S
C863 H871 0.929 1_554 S
C864 C863 1.383 . S
C864 C865 1.377 . S
C865 H849 0.930 . S
C865 C864 1.377 . S
C865 C866 1.379 . S
C866 H850 0.931 . S
C866 C860 1.383 . S
C866 C865 1.379 . S
H867 C861 0.959 1_556 S
H868 C861 0.961 . S
H869 C861 0.960 1_556 S
H870 C862 0.930 1_556 S
H871 C863 0.929 1_556 S
H872 C880 0.929 . S
H873 C882 0.930 . S
H874 C884 0.930 . S
H875 C887 0.929 . S
H876 C890 0.930 . S
H877 C892 0.960 . S
H878 C892 0.960 . S
H879 C892 0.960 . S
C880 H872 0.929 . S
C880 C881 1.377 . S
C880 C882 1.384 . S
C881 C880 1.377 . S
C881 C887 1.390 . S
C882 H873 0.930 . S
C882 C880 1.384 . S
C882 C883 1.372 . S
C883 C882 1.372 . S
C883 C884 1.400 . S
C883 C888 1.490 . S
C884 H874 0.930 . S
C884 C883 1.400 . S
C884 C887 1.386 . S
H885 C901 0.930 . S
H886 C902 0.931 . S
C887 H875 0.929 . S
C887 C881 1.390 . S
C887 C884 1.386 . S
C888 C883 1.490 . S
C888 C890 1.395 . S
C888 C891 1.403 . S
H889 C895 0.930 . S
C890 H876 0.930 . S
C890 C888 1.395 . S
C890 C893 1.403 . S
C891 C888 1.403 . S
C891 C892 1.524 . S
C891 C895 1.400 . S
C892 H877 0.960 . S
C892 H878 0.960 . S
C892 H879 0.960 . S
C892 C891 1.524 . S
C893 C890 1.403 . S
C893 C894 1.392 . S
C893 C897 1.495 . S
C894 C893 1.392 . S
C894 C895 1.385 . S
C894 C896 1.478 . S
C895 H889 0.930 . S
C895 C891 1.400 . S
C895 C894 1.385 . S
C896 C894 1.478 . S
C896 C898 1.381 . S
C896 C902 1.383 . S
C897 C893 1.495 . S
C897 H903 0.959 . S
C897 H904 0.961 . S
C897 H905 0.960 . S
C898 C896 1.381 . S
C898 C899 1.394 . S
C898 H906 0.930 . S
C899 C898 1.394 . S
C899 C900 1.383 . S
C899 H907 0.929 . S
C900 C899 1.383 . S
C900 C901 1.377 . S
C901 H885 0.930 . S
C901 C900 1.377 . S
C901 C902 1.379 . S
C902 H886 0.931 . S
C902 C896 1.383 . S
C902 C901 1.379 . S
H903 C897 0.959 . S
H904 C897 0.961 . S
H905 C897 0.960 . S
H906 C898 0.930 . S
H907 C899 0.929 . S
H908 C916 0.947 . S
H909 C918 0.930 1_554 S
H910 C920 0.930 . S
H911 C923 0.929 . S
H912 C926 0.930 . S
H913 C928 0.960 . S
H914 C928 0.960 . S
H915 C928 0.960 . S
C916 H908 0.947 . S
C916 C917 1.363 1_455 S
C916 C918 1.384 . S
C917 C916 1.363 1_655 S
C917 C923 1.399 . S
C918 H909 0.930 1_556 S
C918 C916 1.384 . S
C918 C919 1.372 . S
C919 C918 1.372 . S
C919 C920 1.400 1_455 S
C919 C924 1.490 . S
C920 H910 0.930 . S
C920 C919 1.400 1_655 S
C920 C923 1.386 . S
H921 C937 0.930 . S
H922 C938 0.931 1_655 S
C923 H911 0.929 . S
C923 C917 1.399 . S
C923 C920 1.386 . S
C924 C919 1.490 . S
C924 C926 1.395 1_556 S
C924 C927 1.403 . S
H925 C931 0.930 . S
C926 H912 0.930 . S
C926 C924 1.395 1_554 S
C926 C929 1.403 . S
C927 C924 1.403 . S
C927 C928 1.524 . S
C927 C931 1.400 . S
C928 H913 0.960 . S
C928 H914 0.960 . S
C928 H915 0.960 . S
C928 C927 1.524 . S
C929 C926 1.403 . S
C929 C930 1.392 1_554 S
C929 C933 1.495 . S
C930 C929 1.392 1_556 S
C930 C931 1.385 . S
C930 C932 1.478 . S
C931 H925 0.930 . S
C931 C927 1.400 . S
C931 C930 1.385 . S
C932 C930 1.478 . S
C932 C934 1.381 1_556 S
C932 C938 1.383 . S
C933 C929 1.495 . S
C933 H939 0.959 . S
C933 H940 0.961 . S
C933 H941 0.960 . S
C934 C932 1.381 1_554 S
C934 C935 1.394 . S
C934 H942 0.930 . S
C935 C934 1.394 . S
C935 C936 1.368 1_554 S
C935 H943 0.929 . S
C936 C935 1.368 1_556 S
C936 C937 1.394 . S
C937 H921 0.930 . S
C937 C936 1.394 . S
C937 C938 1.379 . S
C938 H922 0.931 1_455 S
C938 C932 1.383 . S
C938 C937 1.379 . S
H939 C933 0.959 . S
H940 C933 0.961 . S
H941 C933 0.960 . S
H942 C934 0.930 . S
H943 C935 0.929 . S
H944 C952 0.929 . S
H945 C954 0.930 . S
H946 C956 0.930 . S
H947 C959 0.929 . S
H948 C962 0.930 . S
H949 C964 0.960 . S
H950 C964 0.960 . S
H951 C964 0.960 . S
C952 H944 0.929 . S
C952 C953 1.377 . S
C952 C954 1.384 . S
C953 C952 1.377 . S
C953 C959 1.390 . S
C954 H945 0.930 . S
C954 C952 1.384 . S
C954 C955 1.372 . S
C955 C954 1.372 . S
C955 C956 1.400 . S
C955 C960 1.490 . S
C956 H946 0.930 . S
C956 C955 1.400 . S
C956 C959 1.386 . S
H957 C973 0.930 1_556 S
H958 C974 0.931 . S
C959 H947 0.929 . S
C959 C953 1.390 . S
C959 C956 1.386 . S
C960 C955 1.490 . S
C960 C962 1.395 . S
C960 C963 1.403 . S
H961 C967 0.930 . S
C962 H948 0.930 . S
C962 C960 1.395 . S
C962 C965 1.403 . S
C963 C960 1.403 . S
C963 C964 1.524 . S
C963 C967 1.400 . S
C964 H949 0.960 . S
C964 H950 0.960 . S
C964 H951 0.960 . S
C964 C963 1.524 . S
C965 C962 1.403 . S
C965 C966 1.392 . S
C965 C969 1.495 . S
C966 C965 1.392 . S
C966 C967 1.385 . S
C966 C968 1.478 . S
C967 H961 0.930 . S
C967 C963 1.400 . S
C967 C966 1.385 . S
C968 C966 1.478 . S
C968 C970 1.381 . S
C968 C974 1.383 . S
C969 C965 1.495 . S
C969 H975 0.959 . S
C969 H976 0.961 . S
C969 H977 0.960 . S
C970 C968 1.381 . S
C970 C971 1.394 . S
C970 H978 0.930 . S
C971 C970 1.394 . S
C971 C972 1.383 . S
C971 H979 0.929 . S
C972 C971 1.383 . S
C972 C973 1.377 . S
C973 H957 0.930 1_554 S
C973 C972 1.377 . S
C973 C974 1.379 . S
C974 H958 0.931 . S
C974 C968 1.383 . S
C974 C973 1.379 . S
H975 C969 0.959 . S
H976 C969 0.961 . S
H977 C969 0.960 . S
H978 C970 0.930 . S
H979 C971 0.929 . S
H980 C988 0.929 . S
H981 C990 0.930 . S
H982 C992 0.930 . S
H983 C995 0.929 . S
H984 C998 0.930 . S
H985 C1000 0.960 . S
H986 C1000 0.960 . S
H987 C1000 0.960 . S
C988 H980 0.929 . S
C988 C989 1.377 . S
C988 C990 1.384 . S
C989 C988 1.377 . S
C989 C995 1.390 . S
C990 H981 0.930 . S
C990 C988 1.384 . S
C990 C991 1.372 . S
C991 C990 1.372 . S
C991 C992 1.400 . S
C991 C996 1.490 . S
C992 H982 0.930 . S
C992 C991 1.400 . S
C992 C995 1.386 . S
H993 C1009 0.930 . S
H994 C1010 0.931 . S
C995 H983 0.929 . S
C995 C989 1.390 . S
C995 C992 1.386 . S
C996 C991 1.490 . S
C996 C998 1.395 . S
C996 C999 1.403 . S
H997 C1003 0.930 . S
C998 H984 0.930 . S
C998 C996 1.395 . S
C998 C1001 1.403 . S
C999 C996 1.403 . S
C999 C1000 1.524 . S
C999 C1003 1.400 . S
C1000 H985 0.960 . S
C1000 H986 0.960 . S
C1000 H987 0.960 . S
C1000 C999 1.524 . S
C1001 C998 1.403 . S
C1001 C1002 1.392 . S
C1001 C1005 1.495 . S
C1002 C1001 1.392 . S
C1002 C1003 1.385 . S
C1002 C1004 1.478 . S
C1003 H997 0.930 . S
C1003 C999 1.400 . S
C1003 C1002 1.385 . S
C1004 C1002 1.478 . S
C1004 C1006 1.381 . S
C1004 C1010 1.383 . S
C1005 C1001 1.495 . S
C1005 H1011 0.959 . S
C1005 H1012 0.961 . S
C1005 H1013 0.960 . S
C1006 C1004 1.381 . S
C1006 C1007 1.394 . S
C1006 H1014 0.930 . S
C1007 C1006 1.394 . S
C1007 C1008 1.383 . S
C1007 H1015 0.929 . S
C1008 C1007 1.383 . S
C1008 C1009 1.377 . S
C1009 H993 0.930 . S
C1009 C1008 1.377 . S
C1009 C1010 1.379 . S
C1010 H994 0.931 . S
C1010 C1004 1.383 . S
C1010 C1009 1.379 . S
H1011 C1005 0.959 . S
H1012 C1005 0.961 . S
H1013 C1005 0.960 . S
H1014 C1006 0.930 . S
H1015 C1007 0.929 . S
H1016 C1024 0.929 . S
H1017 C1026 0.930 . S
H1018 C1028 0.930 . S
H1019 C1031 0.929 . S
H1020 C1034 0.930 . S
H1021 C1036 0.960 . S
H1022 C1036 0.960 . S
H1023 C1036 0.960 . S
C1024 H1016 0.929 . S
C1024 C1025 1.377 . S
C1024 C1026 1.384 . S
C1025 C1024 1.377 . S
C1025 C1031 1.390 . S
C1026 H1017 0.930 . S
C1026 C1024 1.384 . S
C1026 C1027 1.372 . S
C1027 C1026 1.372 . S
C1027 C1028 1.400 . S
C1027 C1032 1.490 . S
C1028 H1018 0.930 . S
C1028 C1027 1.400 . S
C1028 C1031 1.386 . S
H1029 C1045 0.930 . S
H1030 C1046 0.931 . S
C1031 H1019 0.929 . S
C1031 C1025 1.390 . S
C1031 C1028 1.386 . S
C1032 C1027 1.490 . S
C1032 C1034 1.395 . S
C1032 C1035 1.403 . S
H1033 C1039 0.930 . S
C1034 H1020 0.930 . S
C1034 C1032 1.395 . S
C1034 C1037 1.403 . S
C1035 C1032 1.403 . S
C1035 C1036 1.524 . S
C1035 C1039 1.400 . S
C1036 H1021 0.960 . S
C1036 H1022 0.960 . S
C1036 H1023 0.960 . S
C1036 C1035 1.524 . S
C1037 C1034 1.403 . S
C1037 C1038 1.392 . S
C1037 C1041 1.495 . S
C1038 C1037 1.392 . S
C1038 C1039 1.385 . S
C1038 C1040 1.478 . S
C1039 H1033 0.930 . S
C1039 C1035 1.400 . S
C1039 C1038 1.385 . S
C1040 C1038 1.478 . S
C1040 C1042 1.381 . S
C1040 C1046 1.383 . S
C1041 C1037 1.495 . S
C1041 H1047 0.959 . S
C1041 H1048 0.961 . S
C1041 H1049 0.960 . S
C1042 C1040 1.381 . S
C1042 C1043 1.394 . S
C1042 H1050 0.930 . S
C1043 C1042 1.394 . S
C1043 C1044 1.383 . S
C1043 H1051 0.929 . S
C1044 C1043 1.383 . S
C1044 C1045 1.377 . S
C1045 H1029 0.930 . S
C1045 C1044 1.377 . S
C1045 C1046 1.379 . S
C1046 H1030 0.931 . S
C1046 C1040 1.383 . S
C1046 C1045 1.379 . S
H1047 C1041 0.959 . S
H1048 C1041 0.961 . S
H1049 C1041 0.960 . S
H1050 C1042 0.930 . S
H1051 C1043 0.929 . S
C197 C9 2.045 . S
C216 C107 1.880 . S
C233 C21 1.546 . S
C252 C141 1.373 . S
C288 C153 1.103 . S
C269 C30 1.147 . S
C305 C43 1.219 . S
C324 C187 1.179 . S
C360 C144 1.403 . S
C341 C4 1.427 . S
C396 C124 1.927 1_565 S
C377 C22 2.102 . S
C432 C171 1.043 . S
C413 C34 1.145 . S
C468 C162 1.267 . S
C449 C48 1.328 . S
C485 C8 1.650 . S
C504 C170 1.516 . S
C540 C132 1.363 . S
C521 C35 1.520 . S
C557 C47 1.614 . S
C576 C108 1.475 . S
C593 C17 1.324 . S
C612 C165 1.249 . S
C648 C123 1.565 . S
C629 C60 1.668 . S
C665 C74 1.892 . S
C684 C145 1.783 . S
C701 C82 1.080 . S
C720 C150 1.038 . S
C737 C100 1.916 . S
C756 C183 1.822 . S
C773 C61 1.952 . S
C792 C128 1.828 . S
C828 C120 1.628 . S
C809 C73 1.696 . S
C864 C174 1.505 . S
C845 C87 1.648 . S
C900 C166 1.089 . S
C881 C95 1.050 . S
C917 C56 1.617 . S
C936 C186 1.622 . S
C972 C129 1.576 . S
C953 C86 1.716 . S
C1008 C111 1.435 . S
C989 C99 1.534 . S
C1025 C69 1.495 . S
C1044 C149 1.425 . S
