# Generated by pormake.
# Topology zzz, (3,6)-cn, num edge types: 1
# Building blocks:
#     Node 0, Type 0, BuildingBlock: BETDIP_clean_linker_0, # of connection points: 3
#     Node 1, Type 0, BuildingBlock: BETDIP_clean_linker_0, # of connection points: 3
#     Node 2, Type 0, BuildingBlock: BETDIP_clean_linker_0, # of connection points: 3
#     Node 3, Type 0, BuildingBlock: BETDIP_clean_linker_0, # of connection points: 3
#     Node 4, Type 0, BuildingBlock: BETDIP_clean_linker_0, # of connection points: 3
#     Node 5, Type 0, BuildingBlock: BETDIP_clean_linker_0, # of connection points: 3
#     Node 6, Type 0, BuildingBlock: BETDIP_clean_linker_0, # of connection points: 3
#     Node 7, Type 0, BuildingBlock: BETDIP_clean_linker_0, # of connection points: 3
#     Node 8, Type 1, BuildingBlock: KUMJIN_clean_sbu_0, # of connection points: 6
#     Node 9, Type 1, BuildingBlock: KUMJIN_clean_sbu_0, # of connection points: 6
#     Node 10, Type 1, BuildingBlock: KUMJIN_clean_sbu_0, # of connection points: 6
#     Node 11, Type 1, BuildingBlock: KUMJIN_clean_sbu_0, # of connection points: 6
#     Edge 12, Type (0, 1), BuildingBlock: EZIPEK_clean_linker_0, # of connection points: 2
#     Edge 13, Type (0, 1), BuildingBlock: EZIPEK_clean_linker_0, # of connection points: 2
#     Edge 14, Type (0, 1), BuildingBlock: EZIPEK_clean_linker_0, # of connection points: 2
#     Edge 15, Type (0, 1), BuildingBlock: EZIPEK_clean_linker_0, # of connection points: 2
#     Edge 16, Type (0, 1), BuildingBlock: EZIPEK_clean_linker_0, # of connection points: 2
#     Edge 17, Type (0, 1), BuildingBlock: EZIPEK_clean_linker_0, # of connection points: 2
#     Edge 18, Type (0, 1), BuildingBlock: EZIPEK_clean_linker_0, # of connection points: 2
#     Edge 19, Type (0, 1), BuildingBlock: EZIPEK_clean_linker_0, # of connection points: 2
#     Edge 20, Type (0, 1), BuildingBlock: EZIPEK_clean_linker_0, # of connection points: 2
#     Edge 21, Type (0, 1), BuildingBlock: EZIPEK_clean_linker_0, # of connection points: 2
#     Edge 22, Type (0, 1), BuildingBlock: EZIPEK_clean_linker_0, # of connection points: 2
#     Edge 23, Type (0, 1), BuildingBlock: EZIPEK_clean_linker_0, # of connection points: 2
#     Edge 24, Type (0, 1), BuildingBlock: EZIPEK_clean_linker_0, # of connection points: 2
#     Edge 25, Type (0, 1), BuildingBlock: EZIPEK_clean_linker_0, # of connection points: 2
#     Edge 26, Type (0, 1), BuildingBlock: EZIPEK_clean_linker_0, # of connection points: 2
#     Edge 27, Type (0, 1), BuildingBlock: EZIPEK_clean_linker_0, # of connection points: 2
#     Edge 28, Type (0, 1), BuildingBlock: EZIPEK_clean_linker_0, # of connection points: 2
#     Edge 29, Type (0, 1), BuildingBlock: EZIPEK_clean_linker_0, # of connection points: 2
#     Edge 30, Type (0, 1), BuildingBlock: EZIPEK_clean_linker_0, # of connection points: 2
#     Edge 31, Type (0, 1), BuildingBlock: EZIPEK_clean_linker_0, # of connection points: 2
#     Edge 32, Type (0, 1), BuildingBlock: EZIPEK_clean_linker_0, # of connection points: 2
#     Edge 33, Type (0, 1), BuildingBlock: EZIPEK_clean_linker_0, # of connection points: 2
#     Edge 34, Type (0, 1), BuildingBlock: EZIPEK_clean_linker_0, # of connection points: 2
#     Edge 35, Type (0, 1), BuildingBlock: EZIPEK_clean_linker_0, # of connection points: 2
# Relax obj value: 0.235
# Max RMSD: 0.183
# Mean RMSD: 0.118
data_MOF--net-zzz--node1-KUMJIN_clean_sbu_0--node2-BETDIP_clean_linker_0--edge1-EZIPEK_clean_linker_0
_symmetry_space_group_name_H-M    P1
_symmetry_Int_Tables_number       1
_symmetry_cell_setting            triclinic
loop_
_symmetry_equiv_pos_as_xyz
'x, y, z'
_cell_length_a     37.484137
_cell_length_b     37.655343
_cell_length_c     11.107963
_cell_angle_alpha  91.127976
_cell_angle_beta   90.169363
_cell_angle_gamma 90.075006
loop_
_atom_site_label
_atom_site_type_symbol
_atom_site_fract_x
_atom_site_fract_y
_atom_site_fract_z
_atom_type_partial_charge
H0 H 0.77447 0.55688 0.41936 0.0
H1 H 0.74506 0.47848 0.14693 0.0
H2 H 0.84908 0.47597 0.30145 0.0
H3 H 0.72094 0.52884 0.05542 0.0
C4 C 0.70444 0.5359 0.13246 0.0
C5 C 0.78131 0.53445 0.3616 0.0
C6 C 0.81568 0.51756 0.37472 0.0
C7 C 0.75591 0.5217 0.27243 0.0
C8 C 0.76442 0.49068 0.20699 0.0
C9 C 0.79768 0.47475 0.21637 0.0
C10 C 0.82331 0.48895 0.29585 0.0
N11 N 0.72154 0.53815 0.25001 0.0
H12 H 0.99197 0.78502 0.46303 0.0
H13 H 0.04455 0.76578 0.12038 0.0
H14 H 0.0484 0.86902 0.28065 0.0
H15 H 0.05256 0.7108 0.19569 0.0
C16 C 0.0242 0.70578 0.20624 0.0
C17 C 1.00706 0.79454 0.3873 0.0
C18 C 0.01917 0.83163 0.38762 0.0
C19 C 0.01587 0.7697 0.2884 0.0
C20 C 0.03705 0.78277 0.19588 0.0
C21 C 0.04909 0.81761 0.19628 0.0
C22 C 0.03879 0.8419 0.28627 0.0
N23 N 1.00434 0.7324 0.27765 0.0
H24 H 0.75558 0.02916 0.40903 0.0
H25 H 0.78127 0.947 0.14778 0.0
H26 H 0.67427 0.95853 0.27566 0.0
H27 H 0.81055 0.99053 0.05545 0.0
C28 C 0.82619 0.99971 0.13241 0.0
C29 C 0.74749 1.00678 0.35269 0.0
C30 C 0.71137 0.99362 0.35949 0.0
C31 C 0.77271 0.99118 0.26923 0.0
C32 C 0.762 0.96092 0.20294 0.0
C33 C 0.72644 0.9499 0.19775 0.0
C34 C 0.70187 0.96611 0.27833 0.0
N35 N 0.80794 1.00584 0.24643 0.0
H36 H 0.51323 0.78587 0.46011 0.0
H37 H 0.58959 0.8029 0.1783 0.0
H38 H 0.59651 0.70996 0.39383 0.0
H39 H 0.58208 0.86028 0.23094 0.0
C40 C 0.55318 0.86017 0.22488 0.0
C41 C 0.53703 0.77781 0.41185 0.0
C42 C 0.55377 0.74476 0.43837 0.0
C43 C 0.55116 0.80007 0.32064 0.0
C44 C 0.58054 0.78773 0.25376 0.0
C45 C 0.59513 0.75391 0.27076 0.0
C46 C 0.5842 0.73511 0.373 0.0
N47 N 0.53397 0.83256 0.2854 0.0
H48 H 0.26862 0.5274 0.0899 0.0
H49 H 0.29068 0.45422 0.37276 0.0
H50 H 0.1857 0.45897 0.21898 0.0
H51 H 0.31672 0.5087 0.45566 0.0
C52 C 0.33527 0.50894 0.38063 0.0
C53 C 0.25979 0.50681 0.14961 0.0
C54 C 0.22376 0.49353 0.14018 0.0
C55 C 0.28397 0.49351 0.23911 0.0
C56 C 0.27214 0.46586 0.31118 0.0
C57 C 0.23673 0.45419 0.31099 0.0
C58 C 0.21321 0.46769 0.22277 0.0
N59 N 0.31975 0.50727 0.26039 0.0
H60 H 0.04884 0.26345 0.08819 0.0
H61 H 0.95339 0.30781 0.25113 0.0
H62 H 0.94946 0.20581 0.07763 0.0
H63 H 0.99347 0.3259 0.39985 0.0
C64 C 1.01163 0.33973 0.34097 0.0
C65 C 0.02068 0.26176 0.10843 0.0
C66 C 1.00046 0.23084 0.06663 0.0
C67 C 1.00398 0.28992 0.18065 0.0
C68 C 0.96742 0.28641 0.20574 0.0
C69 C 0.94865 0.25542 0.17623 0.0
C70 C 0.96468 0.22939 0.10211 0.0
N71 N 0.02279 0.32113 0.23024 0.0
H72 H 0.28047 0.02238 0.99668 0.0
H73 H 0.25176 0.09361 0.2878 0.0
H74 H 0.35864 0.0937 0.1488 0.0
H75 H 0.22672 0.03918 0.35748 0.0
C76 C 0.20989 0.03717 0.27781 0.0
C77 C 0.28763 0.04342 0.06005 0.0
C78 C 0.32316 0.05798 0.05839 0.0
C79 C 0.26197 0.05536 0.14778 0.0
C80 C 0.27157 0.08338 0.22617 0.0
C81 C 0.30626 0.09715 0.23113 0.0
C82 C 0.33148 0.08426 0.14587 0.0
N83 N 0.22689 0.03957 0.16102 0.0
H84 H 0.48559 0.28333 0.01924 0.0
H85 H 0.57091 0.25949 0.26779 0.0
H86 H 0.57185 0.35706 0.08108 0.0
H87 H 0.56037 0.20311 0.21108 0.0
C88 C 0.53173 0.20348 0.22573 0.0
C89 C 0.51123 0.28971 0.05923 0.0
C90 C 0.5277 0.32333 0.03552 0.0
C91 C 0.52788 0.26497 0.13887 0.0
C92 C 0.55956 0.27552 0.19761 0.0
C93 C 0.57435 0.30891 0.18058 0.0
C94 C 0.5601 0.33108 0.09276 0.0
N95 N 0.51145 0.2317 0.17151 0.0
Eu96 Eu 0.05107 0.02208 0.81587 0.0
C97 C 0.9093 1.00514 0.56489 0.0
C98 C 0.91824 0.95404 0.43244 0.0
C99 C 0.85881 0.96789 0.50589 0.0
C100 C 0.93206 0.98311 0.49997 0.0
C101 C 0.87223 0.99836 0.56516 0.0
C102 C 0.88179 0.94575 0.43973 0.0
C103 C 0.86359 0.05554 0.66265 0.0
N104 N 0.92291 0.03524 0.61689 0.0
C105 C 0.90035 0.0615 0.65711 0.0
C106 C 0.84951 0.02351 0.61863 0.0
Eu107 Eu 0.9857 0.04403 0.59985 0.0
N108 N 0.96721 0.99176 0.4946 0.0
C109 C 0.98943 0.97368 0.4182 0.0
C110 C 0.94119 0.93497 0.35604 0.0
C111 C 0.97686 0.94518 0.34756 0.0
H112 H 0.91073 0.08698 0.68623 0.0
H113 H 0.99484 0.93071 0.28847 0.0
H114 H 0.87091 0.92297 0.39108 0.0
H115 H 0.84609 0.07594 0.69863 0.0
H116 H 0.01713 0.98077 0.4142 0.0
H117 H 0.02158 0.02525 0.2927 0.0
H118 H 0.93161 0.91256 0.30255 0.0
H119 H 0.10559 0.07769 0.66389 0.0
H120 H 0.02602 0.99843 0.09273 0.0
H121 H 0.13479 0.1353 0.69037 0.0
H122 H 0.83049 0.96206 0.50622 0.0
H123 H 0.04224 0.08697 0.33267 0.0
H124 H 0.07857 0.1384 0.26372 0.0
H125 H 0.82092 0.01927 0.62056 0.0
H126 H 0.1105 0.16779 0.10068 0.0
N127 N 0.04859 0.04467 0.01564 0.0
C128 C 0.03556 0.02528 0.10816 0.0
C129 C 0.04575 0.07462 0.2451 0.0
C130 C 0.06355 0.09239 0.15451 0.0
C131 C 0.03316 0.04032 0.22272 0.0
C132 C 0.06452 0.07653 0.03865 0.0
H133 H 0.13115 0.16716 0.8866 0.0
N134 N 0.08122 0.07789 0.83538 0.0
C135 C 0.11928 0.12431 0.76279 0.0
C136 C 0.08157 0.09349 0.94633 0.0
C137 C 0.10159 0.09188 0.74632 0.0
C138 C 0.11744 0.14202 0.87371 0.0
C139 C 0.09902 0.12635 0.96799 0.0
O140 O 0.10826 0.01221 0.79778 0.0
O141 O 0.02191 0.99773 0.65386 0.0
O142 O 0.95302 0.02551 0.76059 0.0
O143 O 0.99537 0.01881 0.91167 0.0
O144 O 0.02475 0.96715 0.80487 0.0
O145 O 0.07866 0.98636 0.93678 0.0
O146 O 0.97341 0.0497 0.40933 0.0
O147 O 0.02422 0.06957 0.73701 0.0
O148 O 0.08071 0.01976 0.63525 0.0
O149 O 0.04061 0.04436 0.50214 0.0
O150 O 0.97507 0.09246 0.72333 0.0
O151 O 0.97651 0.09647 0.52096 0.0
C152 C 0.01376 0.96666 0.69423 0.0
C153 C 0.12913 0.95598 0.85746 0.0
C154 C 0.13655 0.89282 0.88937 0.0
C155 C 0.11914 0.92484 0.91465 0.0
C156 C 0.16498 0.89173 0.8079 0.0
C157 C 0.15799 0.955 0.77667 0.0
C158 C 0.17579 0.92297 0.75224 0.0
C159 C 0.9614 0.02002 0.87433 0.0
C160 C 0.10932 0.98909 0.8829 0.0
C161 C 0.09773 0.1424 0.08284 0.0
C162 C 0.07978 0.12554 0.17581 0.0
C163 C 1.00429 0.09414 0.78433 0.0
C164 C 0.93139 0.09476 0.37131 0.0
C165 C 0.92514 0.13077 0.35094 0.0
C166 C 0.89074 0.14293 0.32121 0.0
C167 C 0.86223 0.11882 0.31697 0.0
C168 C 0.9031 0.07054 0.35473 0.0
C169 C 0.86862 0.08265 0.33129 0.0
C170 C 0.07311 0.03248 0.52804 0.0
C171 C 0.96661 0.08333 0.41712 0.0
H172 H 0.09714 0.92509 0.97797 0.0
H173 H 0.1784 0.86693 0.78706 0.0
H174 H 0.16656 0.97881 0.73181 0.0
H175 H 0.19775 0.92231 0.68919 0.0
H176 H 0.94701 0.14953 0.36014 0.0
H177 H 0.8353 0.12787 0.29996 0.0
H178 H 0.9073 0.04234 0.36242 0.0
H179 H 0.84678 0.06394 0.32454 0.0
Eu180 Eu 0.5314 0.06016 0.81108 0.0
C181 C 0.53584 0.91376 0.57459 0.0
C182 C 0.58757 0.91753 0.44752 0.0
C183 C 0.57406 0.86219 0.54647 0.0
C184 C 0.55808 0.93361 0.50395 0.0
C185 C 0.54275 0.87746 0.59321 0.0
C186 C 0.59656 0.88229 0.47382 0.0
C187 C 0.4862 0.87369 0.69573 0.0
N188 N 0.50638 0.92971 0.62041 0.0
C189 C 0.48061 0.90981 0.67523 0.0
C190 C 0.51773 0.85757 0.65648 0.0
Eu191 Eu 0.502 0.99254 0.59599 0.0
N192 N 0.54885 0.96764 0.48098 0.0
C193 C 0.56462 0.98529 0.38943 0.0
C194 C 0.60599 0.93671 0.36159 0.0
C195 C 0.59388 0.97034 0.32936 0.0
H196 H 0.4565 0.92234 0.7079 0.0
H197 H 0.60746 0.98509 0.2605 0.0
H198 H 0.61975 0.8698 0.43332 0.0
H199 H 0.46632 0.85841 0.74262 0.0
H200 H 0.55572 0.01152 0.36645 0.0
H201 H 0.43289 0.06088 0.17103 0.0
H202 H 0.62856 0.92486 0.31672 0.0
H203 H 0.56942 0.1311 0.67949 0.0
H204 H 0.4818 0.03719 0.04488 0.0
H205 H 0.5607 0.19577 0.66741 0.0
H206 H 0.58038 0.83459 0.56216 0.0
H207 H 0.41265 0.12271 0.14231 0.0
H208 H 0.42315 0.18196 0.05131 0.0
H209 H 0.52212 0.82963 0.67292 0.0
H210 H 0.4591 0.21919 0.91811 0.0
N211 N 0.48632 0.08298 0.93996 0.0
C212 C 0.47207 0.06332 0.02944 0.0
C213 C 0.43378 0.112 0.08738 0.0
C214 C 0.45118 0.13331 1.0046 0.0
C215 C 0.44496 0.07709 0.10271 0.0
C216 C 0.47788 0.11785 0.93162 0.0
H217 H 0.51096 0.22471 0.77711 0.0
N218 N 0.52445 0.12294 0.79278 0.0
C219 C 0.54276 0.18002 0.72083 0.0
C220 C 0.49787 0.13864 0.85679 0.0
C221 C 0.54762 0.14331 0.72812 0.0
C222 C 0.5146 0.19624 0.78253 0.0
C223 C 0.49194 0.17562 0.8526 0.0
O224 O 0.57817 0.0885 0.8793 0.0
O225 O 0.55166 0.01942 0.67235 0.0
O226 O 0.51945 0.96267 0.76121 0.0
O227 O 0.52577 1.00609 0.91117 0.0
O228 O 0.57914 0.0661 0.6851 0.0
O229 O 0.55421 0.04737 0.98545 0.0
O230 O 0.45935 0.96259 0.50663 0.0
O231 O 0.48391 0.02895 0.74667 0.0
O232 O 0.50561 0.08898 0.65391 0.0
O233 O 0.51278 0.04675 0.50371 0.0
O234 O 0.44758 0.99248 0.68929 0.0
O235 O 0.48044 1.0096 0.42464 0.0
C236 C 0.5785 0.03615 0.62809 0.0
C237 C 0.61652 0.05549 0.99824 0.0
C238 C 0.65952 1.00729 0.99133 0.0
C239 C 0.62564 0.02066 0.96451 0.0
C240 C 0.68488 0.03035 0.0455 0.0
C241 C 0.64202 0.07804 0.0513 0.0
C242 C 0.67636 0.06563 0.07244 0.0
C243 C 0.52464 0.97198 0.87486 0.0
C244 C 0.58093 0.0692 0.97416 0.0
C245 C 0.46426 0.19091 0.92083 0.0
C246 C 0.44377 0.16972 0.99643 0.0
C247 C 0.45186 0.01813 0.76547 0.0
C248 C 0.41863 0.99888 0.41005 0.0
C249 C 0.4086 0.0321 0.45832 0.0
C250 C 0.37381 0.04471 0.44209 0.0
C251 C 0.34842 0.02188 0.38662 0.0
C252 C 0.39312 0.97666 0.3556 0.0
C253 C 0.35787 0.98784 0.34712 0.0
C254 C 0.50655 0.08039 0.53786 0.0
C255 C 0.45504 0.986 0.42382 0.0
H256 H 0.60619 1.00444 0.91789 0.0
H257 H 0.7114 0.02106 0.06765 0.0
H258 H 0.63543 0.10529 0.07523 0.0
H259 H 0.69626 0.08321 0.11173 0.0
H260 H 0.42787 0.0475 0.50932 0.0
H261 H 0.3212 0.0304 0.37215 0.0
H262 H 0.40038 0.9505 0.3215 0.0
H263 H 0.33795 0.97038 0.30726 0.0
Eu264 Eu 0.5533 0.52258 0.649 0.0
C265 C 0.4068 0.52035 0.86875 0.0
C266 C 0.37185 0.54611 0.70915 0.0
C267 C 0.34426 0.50406 0.84329 0.0
C268 C 0.40479 0.54161 0.76908 0.0
C269 C 0.37608 0.50257 0.90998 0.0
C270 C 0.34205 0.52609 0.74351 0.0
C271 C 0.40733 0.49182 0.09552 0.0
N272 N 0.43723 0.52121 0.93511 0.0
C273 C 0.43609 0.5116 0.05274 0.0
C274 C 0.37747 0.48638 0.02216 0.0
Eu275 Eu 0.48642 0.55268 0.85642 0.0
N276 N 0.43406 0.5607 0.73841 0.0
C277 C 0.43125 0.58684 0.65534 0.0
C278 C 0.36942 0.57175 0.62014 0.0
C279 C 0.39911 0.59264 0.59467 0.0
H280 H 0.45811 0.51816 0.11221 0.0
H281 H 0.3973 0.61318 0.52814 0.0
H282 H 0.31682 0.52857 0.69659 0.0
H283 H 0.40792 0.48143 0.18553 0.0
H284 H 0.45348 0.60383 0.63738 0.0
H285 H 0.60028 0.38506 0.61305 0.0
H286 H 0.34457 0.5762 0.57271 0.0
H287 H 0.60099 0.59694 0.72104 0.0
H288 H 0.55861 0.43525 0.58652 0.0
H289 H 0.66123 0.61335 0.78578 0.0
H290 H 0.3206 0.49013 0.87256 0.0
H291 H 0.66011 0.39643 0.69934 0.0
H292 H 0.70531 0.44037 0.77621 0.0
H293 H 0.35471 0.47204 0.05653 0.0
H294 H 0.72199 0.50232 0.82126 0.0
N295 N 0.59185 0.47296 0.67324 0.0
C296 C 0.58356 0.43964 0.63157 0.0
C297 C 0.64134 0.41813 0.69159 0.0
C298 C 0.65106 0.45289 0.72424 0.0
C299 C 0.60754 0.41156 0.64358 0.0
C300 C 0.62552 0.48023 0.71295 0.0
H301 H 0.70604 0.56676 0.82323 0.0
N302 N 0.60994 0.54122 0.72543 0.0
C303 C 0.65414 0.58563 0.7739 0.0
C304 C 0.63485 0.51525 0.73951 0.0
C305 C 0.6196 0.5761 0.73798 0.0
C306 C 0.67934 0.55928 0.79478 0.0
C307 C 0.67004 0.52364 0.77633 0.0
O308 O 0.54548 0.53286 0.45888 0.0
O309 O 0.49492 0.53749 0.66054 0.0
O310 O 0.48505 0.49118 0.87425 0.0
O311 O 0.53366 0.47296 0.75717 0.0
O312 O 0.50711 0.4905 0.5666 0.0
O313 O 0.59778 0.52143 0.52132 0.0
O314 O 0.49072 0.57893 0.03376 0.0
O315 O 0.54679 0.54912 0.82759 0.0
O316 O 0.54756 0.58292 0.6202 0.0
O317 O 0.50655 0.603 0.76239 0.0
O318 O 0.52839 0.53378 0.99253 0.0
O319 O 0.4523 0.59749 0.90609 0.0
C320 C 0.48117 0.51153 0.59846 0.0
C321 C 0.58047 0.49687 0.33549 0.0
C322 C 0.59209 0.43521 0.28182 0.0
C323 C 0.59829 0.4647 0.35732 0.0
C324 C 0.57127 0.43899 0.17846 0.0
C325 C 0.55949 0.5001 0.23273 0.0
C326 C 0.55546 0.47133 0.15456 0.0
C327 C 0.50754 0.46577 0.83601 0.0
C328 C 0.57764 0.52463 0.42808 0.0
C329 C 0.69504 0.49635 0.79152 0.0
C330 C 0.68554 0.46107 0.76586 0.0
C331 C 0.55701 0.53655 0.92844 0.0
C332 C 0.47493 0.63974 0.04155 0.0
C333 C 0.50928 0.65278 0.02395 0.0
C334 C 0.51885 0.68651 0.06654 0.0
C335 C 0.49234 0.70931 0.1123 0.0
C336 C 0.44856 0.66229 0.08904 0.0
C337 C 0.45713 0.69735 0.1215 0.0
C338 C 0.52887 0.60887 0.67243 0.0
C339 C 0.46655 0.60269 0.011 0.0
H340 H 0.61474 0.46172 0.43637 0.0
H341 H 0.56621 0.41668 0.1181 0.0
H342 H 0.54556 0.52463 0.21485 0.0
H343 H 0.54113 0.47438 0.07238 0.0
H344 H 0.52903 0.63597 0.98372 0.0
H345 H 0.49911 0.73588 0.14399 0.0
H346 H 0.42154 0.65279 0.10118 0.0
H347 H 0.43681 0.71482 0.15808 0.0
Eu348 Eu 0.03462 0.5555 0.65631 0.0
C349 C 0.0536 0.43066 0.99694 0.0
C350 C 0.04674 0.37697 0.87571 0.0
C351 C 0.0834 0.3764 0.05633 0.0
C352 C 0.04041 0.41364 0.89465 0.0
C353 C 0.07451 0.41204 0.08025 0.0
C354 C 0.0695 0.35885 0.95418 0.0
C355 C 0.07191 0.46355 0.21311 0.0
N356 N 0.04313 0.46464 0.02043 0.0
C357 C 0.05103 0.48079 0.12844 0.0
C358 C 0.08397 0.42914 0.18854 0.0
Eu359 Eu 1.00508 0.49152 0.87801 0.0
N360 N 0.01685 0.43143 0.82475 0.0
C361 C 0.99558 0.41311 0.74561 0.0
C362 C 0.02751 0.35892 0.78529 0.0
C363 C 1.00104 0.37688 0.72241 0.0
H364 H 0.04054 0.50666 0.15066 0.0
H365 H 0.98473 0.36285 0.65641 0.0
H366 H 0.07489 0.3308 0.94038 0.0
H367 H 0.07777 0.47665 0.29817 0.0
H368 H 0.97463 0.42658 0.69908 0.0
H369 H 0.05325 0.68356 0.88407 0.0
H370 H 0.03138 0.33075 0.7684 0.0
H371 H 0.99826 0.53923 0.38225 0.0
H372 H 0.06181 0.61923 0.84655 0.0
H373 H 0.96077 0.56931 0.23333 0.0
H374 H 0.09957 0.3617 0.1192 0.0
H375 H 1.0114 0.71722 0.75706 0.0
H376 H 0.97116 0.71815 0.57598 0.0
H377 H 0.099 0.41538 0.25594 0.0
H378 H 0.94617 0.68698 0.39807 0.0
N379 N 0.02372 0.61608 0.70509 0.0
C380 C 0.04293 0.63356 0.79235 0.0
C381 C 0.01484 0.68895 0.74102 0.0
C382 C 0.99733 0.67146 0.64552 0.0
C383 C 0.0385 0.67007 0.81276 0.0
C384 C 1.00301 0.63466 0.62811 0.0
H385 H 0.94207 0.63151 0.26975 0.0
N386 N 0.9985 0.58282 0.50741 0.0
C387 C 0.96847 0.58307 0.31585 0.0
C388 C 0.98995 0.61751 0.52609 0.0
C389 C 0.98954 0.566 0.40106 0.0
C390 C 0.95799 0.61818 0.33671 0.0
C391 C 0.96947 0.63615 0.44129 0.0
O392 O 0.06711 0.55915 0.49469 0.0
O393 O 0.02437 0.49685 0.68797 0.0
O394 O 0.06684 0.49292 0.88671 0.0
O395 O 0.08006 0.54644 0.79746 0.0
O396 O 0.03951 0.50884 0.5188 0.0
O397 O 0.08487 0.58466 0.66032 0.0
O398 O 0.97678 0.4766 0.04209 0.0
O399 O 0.01487 0.55023 0.84795 0.0
O400 O 0.97337 0.55318 0.63528 0.0
O401 O 0.95921 0.50259 0.74112 0.0
O402 O 0.99877 0.53761 0.01593 0.0
O403 O 0.95075 0.47131 0.86843 0.0
C404 C 0.03012 0.48249 0.58351 0.0
C405 C 0.12852 0.56416 0.52728 0.0
C406 C 0.17112 0.51574 0.52755 0.0
C407 C 0.1381 0.52991 0.56171 0.0
C408 C 0.19566 0.5377 0.46789 0.0
C409 C 0.15306 0.5857 0.46833 0.0
C410 C 0.1869 0.57266 0.44111 0.0
C411 C 0.08962 0.51913 0.86538 0.0
C412 C 0.09249 0.57705 0.54872 0.0
C413 C 0.96192 0.67225 0.46199 0.0
C414 C 0.97601 0.68995 0.56356 0.0
C415 C 1.00748 0.56432 0.95183 0.0
C416 C 0.93583 0.42879 0.01072 0.0
C417 C 0.89913 0.42393 0.01588 0.0
C418 C 0.88416 0.38971 0.02375 0.0
C419 C 0.90678 0.36008 0.02196 0.0
C420 C 0.95818 0.39919 0.02056 0.0
C421 C 0.94376 0.36493 0.02221 0.0
C422 C 0.9501 0.52809 0.66468 0.0
C423 C 0.94919 0.46445 0.98271 0.0
H424 H 0.11929 0.51432 0.61168 0.0
H425 H 0.22149 0.52763 0.4402 0.0
H426 H 0.14594 0.6124 0.44269 0.0
H427 H 0.206 0.58932 0.39594 0.0
H428 H 0.88216 0.44721 0.01433 0.0
H429 H 0.89605 0.33345 0.0228 0.0
H430 H 0.98652 0.40236 0.02707 0.0
H431 H 0.9613 0.34218 0.02492 0.0
C432 C 0.1536 1.00284 0.33203 0.0
C433 C 0.16998 0.03567 0.3035 0.0
C434 C 0.1196 0.06715 0.40419 0.0
C435 C 0.10354 0.03415 0.43573 0.0
N436 N 0.10055 0.97129 0.39641 0.0
N437 N 0.16445 0.09878 0.28802 0.0
C438 C 0.11922 1.00225 0.3893 0.0
C439 C 0.15144 0.06768 0.33157 0.0
N440 N 0.17163 0.97201 0.30826 0.0
N441 N 0.10525 0.09815 0.44739 0.0
H442 H 0.18707 0.09959 0.2336 0.0
H443 H 0.15139 0.12306 0.296 0.0
H444 H 0.08097 0.09919 0.4928 0.0
H445 H 0.11801 0.12265 0.44351 0.0
H446 H 0.16374 0.9474 0.3401 0.0
H447 H 0.19563 0.97147 0.26083 0.0
H448 H 0.1084 0.94752 0.35504 0.0
H449 H 0.0752 0.97043 0.4339 0.0
C450 C 0.52888 0.13738 0.25789 0.0
C451 C 0.51707 0.17183 0.29269 0.0
C452 C 0.49153 0.14559 0.47696 0.0
C453 C 0.50531 0.11094 0.44525 0.0
N454 N 0.52271 0.07418 0.27366 0.0
N455 N 0.49147 0.20954 0.44611 0.0
C456 C 0.52002 0.10694 0.32706 0.0
C457 C 0.49908 0.17603 0.40433 0.0
N458 N 0.55003 0.13347 0.15887 0.0
N459 N 0.4683 0.14916 0.57069 0.0
H460 H 0.49578 0.23217 0.39559 0.0
H461 H 0.48349 0.21532 0.534 0.0
H462 H 0.45889 0.1277 0.61793 0.0
H463 H 0.45427 0.17233 0.59092 0.0
H464 H 0.56729 0.11205 0.14964 0.0
H465 H 0.55312 0.15295 0.09418 0.0
H466 H 0.53276 0.06989 0.18764 0.0
H467 H 0.50864 0.05239 0.30269 0.0
C468 C 0.40081 0.53048 0.37914 0.0
C469 C 0.37479 0.50548 0.41591 0.0
C470 C 0.41903 0.48291 0.56541 0.0
C471 C 0.4443 0.50958 0.53457 0.0
N472 N 0.46248 0.54958 0.3794 0.0
N473 N 0.35961 0.45738 0.54606 0.0
C474 C 0.43606 0.53057 0.43167 0.0
C475 C 0.38445 0.48127 0.50829 0.0
N476 N 0.39128 0.55603 0.29961 0.0
N477 N 0.4284 0.45829 0.64821 0.0
H478 H 0.33601 0.45246 0.49948 0.0
H479 H 0.36149 0.44327 0.62535 0.0
H480 H 0.45211 0.45977 0.69609 0.0
H481 H 0.41403 0.43531 0.66522 0.0
H482 H 0.40704 0.57809 0.28163 0.0
H483 H 0.36643 0.55654 0.25745 0.0
H484 H 0.45989 0.56194 0.29678 0.0
H485 H 0.48808 0.55026 0.41394 0.0
C486 C 0.99215 0.40459 0.37908 0.0
C487 C 0.01961 0.37835 0.38313 0.0
C488 C 0.05058 0.41749 0.53524 0.0
C489 C 0.02431 0.44485 0.52563 0.0
N490 N 0.97304 0.46552 0.41617 0.0
N491 N 0.07779 0.36297 0.45481 0.0
C492 C 0.99621 0.43866 0.44014 0.0
C493 C 0.04976 0.38605 0.45758 0.0
N494 N 0.96103 0.39645 0.32049 0.0
N495 N 0.07519 0.42053 0.62498 0.0
H496 H 0.07777 0.34017 0.3998 0.0
H497 H 0.10205 0.36793 0.49776 0.0
H498 H 0.07399 0.44151 0.68676 0.0
H499 H 0.09354 0.40091 0.64651 0.0
H500 H 0.93818 0.41211 0.32596 0.0
H501 H 0.95734 0.37269 0.27235 0.0
H502 H 0.95517 0.46481 0.34413 0.0
H503 H 0.97295 0.48935 0.46507 0.0
C504 C 0.87257 0.04081 0.04526 0.0
C505 C 0.86488 1.0082 0.10145 0.0
C506 C 0.92328 0.98474 0.02584 0.0
C507 C 0.93006 0.01681 0.96347 0.0
N508 N 0.91368 0.07822 0.93833 0.0
N509 N 0.88114 0.94754 0.13387 0.0
C510 C 0.90534 0.04554 0.98057 0.0
C511 C 0.8902 0.98002 0.09049 0.0
N512 N 0.84698 0.06669 0.04571 0.0
N513 N 0.94844 0.95853 0.02297 0.0
H514 H 0.85803 0.94351 0.18397 0.0
H515 H 0.89518 0.92428 0.11534 0.0
H516 H 0.97175 0.96019 0.97262 0.0
H517 H 0.94748 0.93609 0.07599 0.0
H518 H 0.8475 0.08862 0.9902 0.0
H519 H 0.82387 0.06519 0.09755 0.0
H520 H 0.9002 0.10146 0.96206 0.0
H521 H 0.93601 0.08265 0.8865 0.0
C522 C 0.51715 0.91434 0.16282 0.0
C523 C 0.53803 0.88448 0.13119 0.0
C524 C 0.55039 0.91106 0.93467 0.0
C525 C 0.5288 0.94149 0.96412 0.0
N526 N 0.48297 0.96473 0.09542 0.0
N527 N 0.56608 0.84961 0.98033 0.0
C528 C 0.50988 0.94114 0.07574 0.0
C529 C 0.55168 0.88149 0.01373 0.0
N530 N 0.50458 0.91747 0.27718 0.0
N531 N 0.57258 0.91157 0.83782 0.0
H532 H 0.57446 0.84304 0.89328 0.0
H533 H 0.57446 0.84304 0.89328 0.0
H534 H 0.57358 0.93245 0.77909 0.0
H535 H 0.59271 0.89302 0.82233 0.0
H536 H 0.4943 0.94106 0.31135 0.0
H537 H 0.50675 0.89717 0.33931 0.0
H538 H 0.466 0.96403 0.16936 0.0
H539 H 0.47472 0.98184 0.02909 0.0
C540 C 0.64728 0.50387 0.07161 0.0
C541 C 0.66446 0.53621 0.10559 0.0
C542 C 0.61202 0.56834 0.02514 0.0
C543 C 0.59512 0.53624 0.98509 0.0
N544 N 0.60152 0.4731 0.95511 0.0
N545 N 0.66185 0.60026 0.10958 0.0
C546 C 0.61418 0.50392 1.00509 0.0
C547 C 0.64645 0.56842 0.08157 0.0
N548 N 0.66255 0.4727 0.10516 0.0
N549 N 0.59596 0.59978 1.00337 0.0
H550 H 0.68666 0.603 0.15172 0.0
H551 H 0.68666 0.603 0.15172 0.0
H552 H 0.57115 0.60055 0.96282 0.0
H553 H 0.60827 0.62422 0.0202 0.0
H554 H 0.65116 0.44781 0.09066 0.0
H555 H 0.68534 0.47202 0.15887 0.0
H556 H 0.61514 0.44906 0.95313 0.0
H557 H 0.57753 0.47205 0.90904 0.0
C558 C 0.03484 0.63882 0.1843 0.0
C559 C 1.01291 0.66854 0.15626 0.0
C560 C 0.98584 0.62986 0.99225 0.0
C561 C 1.01121 0.602 0.01127 0.0
N562 N 0.05895 0.58089 0.1373 0.0
N563 N 0.96878 0.69225 0.02322 0.0
C564 C 0.0352 0.60703 0.1106 0.0
C565 C 0.98842 0.66376 0.05811 0.0
N566 N 0.05619 0.63987 0.28372 0.0
N567 N 0.95887 0.62382 0.91169 0.0
H568 H 0.96927 0.71643 0.07069 0.0
H569 H 0.95368 0.69254 0.94442 0.0
H570 H 0.95709 0.60036 0.86047 0.0
H571 H 0.9374 0.64096 0.90068 0.0
H572 H 0.05665 0.6609 0.34636 0.0
H573 H 0.05665 0.6609 0.34636 0.0
H574 H 0.07654 0.58267 0.21022 0.0
H575 H 0.06225 0.55833 0.08286 0.0
C576 C 0.91407 0.23755 0.35743 0.0
C577 C 0.91384 0.24641 0.23371 0.0
C578 C 0.87817 0.19433 0.18372 0.0
C579 C 0.8857 0.18144 0.30047 0.0
N580 N 0.8945 0.19614 0.5095 0.0
N581 N 0.87948 0.24534 0.0525 0.0
C582 C 0.89763 0.20534 0.39173 0.0
C583 C 0.88869 0.22953 0.15724 0.0
N584 N 0.93234 0.25804 0.43929 0.0
N585 N 0.86495 0.1723 0.09532 0.0
H586 H 0.86001 0.23525 0.99401 0.0
H587 H 0.88967 0.27027 0.03134 0.0
H588 H 0.85741 0.14618 0.11025 0.0
H589 H 0.86305 0.17951 0.00549 0.0
H590 H 0.93816 0.25012 0.52641 0.0
H591 H 0.94122 0.28346 0.4204 0.0
H592 H 0.90071 0.21308 0.58174 0.0
H593 H 0.88251 0.17228 0.53388 0.0
C594 C 0.35308 0.13145 0.33912 0.0
C595 C 0.31738 0.12021 0.33786 0.0
C596 C 0.32849 0.08697 0.51767 0.0
C597 C 0.36344 0.08206 0.47257 0.0
N598 N 0.41352 0.11424 0.39155 0.0
N599 N 0.27245 0.11883 0.49143 0.0
C600 C 0.37772 0.10989 0.40218 0.0
C601 C 0.30522 0.10892 0.45118 0.0
N602 N 0.36279 0.15938 0.27071 0.0
N603 N 0.31715 0.06748 0.61204 0.0
H604 H 0.2565 0.1358 0.44102 0.0
H605 H 0.26278 0.11233 0.57603 0.0
H606 H 0.33481 0.0509 0.65739 0.0
H607 H 0.29084 0.0674 0.64201 0.0
H608 H 0.38848 0.16988 0.26924 0.0
H609 H 0.34367 0.17284 0.22036 0.0
H610 H 0.42527 0.134 0.34096 0.0
H611 H 0.43137 0.099 0.43961 0.0
C612 C 0.57222 0.34205 0.36639 0.0
C613 C 0.59473 0.32636 0.27952 0.0
C614 C 0.62974 0.38081 0.28045 0.0
C615 C 0.59897 0.39888 0.32215 0.0
N616 N 0.53864 0.3956 0.39903 0.0
N617 N 0.65087 0.32702 0.17855 0.0
C618 C 0.56991 0.37929 0.36849 0.0
C619 C 0.62643 0.3442 0.24876 0.0
N620 N 0.54966 0.32164 0.43154 0.0
N621 N 0.66084 0.39893 0.26664 0.0
H622 H 0.64765 0.30016 0.15546 0.0
H623 H 0.67302 0.33947 0.1417 0.0
H624 H 0.66307 0.4255 0.29427 0.0
H625 H 0.6846 0.38687 0.23987 0.0
H626 H 0.53226 0.33237 0.49544 0.0
H627 H 0.55128 0.29399 0.42921 0.0
H628 H 0.51524 0.38138 0.41398 0.0
H629 H 0.5354 0.42311 0.39921 0.0
C630 C 0.18689 0.42556 0.41505 0.0
C631 C 0.22345 0.43301 0.41619 0.0
C632 C 0.21504 0.47082 0.59172 0.0
C633 C 0.18054 0.47785 0.54529 0.0
N634 N 0.1291 0.45016 0.44526 0.0
N635 N 0.26695 0.43201 0.57502 0.0
C636 C 0.16437 0.45085 0.4713 0.0
C637 C 0.23592 0.4449 0.53012 0.0
N638 N 0.17412 0.39823 0.34606 0.0
N639 N 0.22832 0.49096 0.68456 0.0
H640 H 0.28122 0.41253 0.52732 0.0
H641 H 0.27664 0.4389 0.66037 0.0
H642 H 0.21249 0.50998 0.7285 0.0
H643 H 0.25458 0.48907 0.71481 0.0
H644 H 0.14707 0.39187 0.34311 0.0
H645 H 0.19148 0.38152 0.29821 0.0
H646 H 0.11083 0.46801 0.48232 0.0
H647 H 0.11083 0.46801 0.48232 0.0
C648 C 0.11148 0.83336 0.13853 0.0
C649 C 0.07524 0.82816 0.10466 0.0
C650 C 0.08914 0.84792 0.90284 0.0
C651 C 0.12217 0.86092 0.94635 0.0
N652 N 0.16756 0.86201 0.10006 0.0
N653 N 0.02907 0.82994 0.95262 0.0
C654 C 0.13435 0.852 0.06191 0.0
C655 C 0.06399 0.83452 0.98518 0.0
N656 N 0.12482 0.82113 0.24393 0.0
N657 N 0.08207 0.84908 0.78279 0.0
H658 H 1.00978 0.82027 0.01099 0.0
H659 H 0.01874 0.83794 0.87035 0.0
H660 H 0.10122 0.85827 0.72306 0.0
H661 H 0.05964 0.83749 0.7427 0.0
H662 H 0.11028 0.80549 0.30287 0.0
H663 H 0.11028 0.80549 0.30287 0.0
H664 H 0.17698 0.8567 0.18642 0.0
H665 H 0.1854 0.87524 0.04451 0.0
C666 C 0.72609 0.93858 0.97971 0.0
C667 C 0.71422 0.9268 0.09258 0.0
C668 C 0.6542 0.94215 0.03888 0.0
C669 C 0.66953 0.96949 0.96834 0.0
N670 N 0.71592 0.98303 0.82711 0.0
N671 N 0.66719 0.88851 0.15282 0.0
C672 C 0.70394 0.96315 0.91972 0.0
C673 C 0.678 0.91757 0.09211 0.0
N674 N 0.75793 0.92728 0.93523 0.0
N675 N 0.61873 0.94141 0.06291 0.0
H676 H 0.68581 0.87274 0.19715 0.0
H677 H 0.64099 0.87927 0.15189 0.0
H678 H 0.60086 0.9594 0.02746 0.0
H679 H 0.6071 0.92257 0.11742 0.0
H680 H 0.7674 0.93428 0.85085 0.0
H681 H 0.77321 0.90886 0.98193 0.0
H682 H 0.74198 0.98183 0.79505 0.0
H683 H 0.69911 1.00112 0.78495 0.0
C684 C 0.60047 0.74459 0.05276 0.0
C685 C 0.61324 0.73464 0.16654 0.0
C686 C 0.58123 0.67988 0.15168 0.0
C687 C 0.55683 0.69718 0.07242 0.0
N688 N 0.54857 0.74202 0.9213 0.0
N689 N 0.64151 0.68215 0.23602 0.0
C690 C 0.56847 0.72807 0.0116 0.0
C691 C 0.61381 0.69766 0.17823 0.0
N692 N 0.61732 0.77067 0.99199 0.0
N693 N 0.57204 0.65007 0.21232 0.0
H694 H 0.66364 0.6972 0.26345 0.0
H695 H 0.64274 0.65493 0.2504 0.0
H696 H 0.54752 0.63735 0.20244 0.0
H697 H 0.5883 0.63927 0.27846 0.0
H698 H 0.64 0.78302 0.02845 0.0
H699 H 0.6099 0.77814 0.90562 0.0
H700 H 0.55453 0.76625 0.88226 0.0
H701 H 0.52583 0.72921 0.88747 0.0
C702 C 0.81475 0.41121 0.21917 0.0
C703 C 0.80538 0.44097 0.15046 0.0
C704 C 0.82441 0.40867 0.96923 0.0
C705 C 0.84517 0.38697 0.04391 0.0
N706 N 0.84602 0.35604 0.23222 0.0
N707 N 0.79731 0.46679 0.95368 0.0
C708 C 0.83474 0.38362 0.16496 0.0
C709 C 0.80748 0.43887 0.02246 0.0
N710 N 0.80599 0.41096 0.33798 0.0
N711 N 0.82581 0.403 0.84792 0.0
H712 H 0.78669 0.4902 0.98971 0.0
H713 H 0.8014 0.46765 0.86116 0.0
H714 H 0.84071 0.38196 0.81151 0.0
H715 H 0.81043 0.41696 0.78657 0.0
H716 H 0.81268 0.39032 0.3952 0.0
H717 H 0.81268 0.39032 0.3952 0.0
H718 H 0.86056 0.33476 0.19673 0.0
H719 H 0.86056 0.33476 0.19673 0.0
C720 C 1.0071 0.16318 0.05687 0.0
C721 C 0.0138 0.19625 1.00056 0.0
C722 C 0.02496 0.16045 0.81023 0.0
C723 C 0.01305 0.12807 0.86348 0.0
N724 N 0.9867 0.10238 0.03939 0.0
N725 N 0.02717 0.22565 0.81653 0.0
C726 C 1.00239 0.13077 0.98715 0.0
C727 C 0.02272 0.19452 0.87539 0.0
N728 N 1.0049 0.16283 0.17966 0.0
N729 N 0.03812 0.15876 0.69589 0.0
H730 H 0.02663 0.25024 0.86143 0.0
H731 H 0.02949 0.22727 0.72345 0.0
H732 H 0.03936 0.13498 0.64622 0.0
H733 H 0.05045 0.18003 0.65436 0.0
H734 H 1.00248 0.13971 0.22884 0.0
H735 H 1.00941 0.18552 0.23311 0.0
H736 H 0.97338 0.10381 0.12153 0.0
H737 H 0.98576 0.07765 0.99737 0.0
C738 C 0.37055 0.07149 0.89677 0.0
C739 C 0.35365 0.04615 0.97251 0.0
C740 C 0.40235 1.00362 0.9171 0.0
C741 C 0.42076 0.02981 0.8483 0.0
N742 N 0.41556 0.08511 0.74675 0.0
N743 N 0.35611 0.98846 0.06081 0.0
C744 C 0.403 0.0629 0.83225 0.0
C745 C 0.37019 0.01226 0.9829 0.0
N746 N 0.35559 0.10439 0.88726 0.0
N747 N 0.41458 0.96941 0.91494 0.0
H748 H 0.33203 0.99257 0.10515 0.0
H749 H 0.3692 0.96555 0.08746 0.0
H750 H 0.43876 0.96183 0.87651 0.0
H751 H 0.39992 0.94787 0.94521 0.0
H752 H 0.36864 0.12607 0.85078 0.0
H753 H 0.33028 0.11044 0.92061 0.0
H754 H 0.40213 0.10749 0.71721 0.0
H755 H 0.43849 0.07931 0.69803 0.0
C756 C 0.52118 0.36317 0.85153 0.0
C757 C 0.51073 0.35445 0.96995 0.0
C758 C 0.49173 0.41712 1.00001 0.0
C759 C 0.50355 0.42663 0.88108 0.0
N760 N 0.50961 0.40083 0.68248 0.0
N761 N 0.47556 0.37085 0.14155 0.0
C762 C 0.51263 0.39734 0.80356 0.0
C763 C 0.49209 0.38067 0.03789 0.0
N764 N 0.53984 0.33901 0.78405 0.0
N765 N 0.48242 0.44271 0.0816 0.0
H766 H 0.47632 0.34486 0.17225 0.0
H767 H 0.45809 0.38718 0.18976 0.0
H768 H 0.4854 0.46914 0.06389 0.0
H769 H 0.47711 0.4382 0.17194 0.0
H770 H 0.55164 0.34543 0.7024 0.0
H771 H 0.54494 0.31334 0.81351 0.0
H772 H 0.51188 0.3792 0.62334 0.0
H773 H 0.50031 0.42403 0.64366 0.0
C774 C 0.17615 0.53755 0.06096 0.0
C775 C 0.19515 0.50486 0.04772 0.0
C776 C 0.14909 0.4854 0.89707 0.0
C777 C 0.12806 0.51653 0.91876 0.0
N778 N 0.12884 0.57705 0.99422 0.0
N779 N 0.19978 0.44789 0.94819 0.0
C780 C 0.14387 0.54406 0.99233 0.0
C781 C 0.18158 0.47909 0.96339 0.0
N782 N 0.18784 0.56182 0.14502 0.0
N783 N 0.13945 0.46314 0.80445 0.0
H784 H 0.22508 0.44385 0.9849 0.0
H785 H 0.18964 0.42556 0.90332 0.0
H786 H 0.11913 0.46984 0.74584 0.0
H787 H 0.15384 0.44103 0.7754 0.0
H788 H 0.17313 0.58384 0.17343 0.0
H789 H 0.21178 0.55884 0.19165 0.0
H790 H 0.14077 0.59937 0.03376 0.0
H791 H 0.10566 0.58308 0.94754 0.0
C792 C 0.98347 0.87603 0.5323 0.0
C793 C 0.01639 0.86113 0.48989 0.0
C794 C 0.04712 0.91385 0.58848 0.0
C795 C 0.01427 0.93016 0.62313 0.0
N796 N 0.95254 0.91856 0.66567 0.0
N797 N 0.08076 0.86504 0.508 0.0
C798 C 0.98294 0.90852 0.60704 0.0
C799 C 0.04812 0.87979 0.52731 0.0
N800 N 0.95232 0.86033 0.49635 0.0
N801 N 0.07853 0.92992 0.61954 0.0
H802 H 0.0846 0.83908 0.47639 0.0
H803 H 0.0846 0.83908 0.47639 0.0
H804 H 0.07968 0.95402 0.66643 0.0
H805 H 0.1034 0.91918 0.5977 0.0
H806 H 0.9273 0.87145 0.51212 0.0
H807 H 0.95169 0.83716 0.44354 0.0
H808 H 0.92974 0.90281 0.669 0.0
H809 H 0.95114 0.94174 0.71857 0.0
C810 C 0.66565 0.98417 0.53014 0.0
C811 C 0.68119 1.00733 0.44398 0.0
C812 C 0.62756 0.04615 0.46945 0.0
C813 C 0.61246 0.02369 0.55885 0.0
N814 N 0.62263 0.97489 0.69007 0.0
N815 N 0.6794 0.06476 0.35443 0.0
C816 C 0.63315 0.99368 0.59314 0.0
C817 C 0.66282 0.03962 0.42102 0.0
N818 N 0.68192 0.95246 0.55139 0.0
N819 N 0.60732 0.07317 0.42561 0.0
H820 H 0.70472 0.06101 0.31807 0.0
H821 H 0.66969 0.09045 0.34494 0.0
H822 H 0.58174 0.0788 0.45687 0.0
H823 H 0.61432 0.08774 0.35053 0.0
H824 H 0.66994 0.93197 0.59826 0.0
H825 H 0.70702 0.94601 0.51703 0.0
H826 H 0.63782 0.95512 0.72944 0.0
H827 H 0.59953 0.98125 0.73661 0.0
C828 C 0.51287 0.69267 0.48023 0.0
C829 C 0.53969 0.71646 0.52256 0.0
C830 C 0.55545 0.67232 0.67787 0.0
C831 C 0.53205 0.6466 0.6237 0.0
N832 N 0.49314 0.63172 0.45744 0.0
N833 N 0.58643 0.72935 0.66459 0.0
C834 C 0.51186 0.65682 0.52115 0.0
C835 C 0.56071 0.70637 0.62331 0.0
N836 N 0.48794 0.70434 0.40078 0.0
N837 N 0.57306 0.66391 0.78082 0.0
H838 H 0.58883 0.75508 0.63219 0.0
H839 H 0.60576 0.72308 0.72802 0.0
H840 H 0.56929 0.63975 0.82186 0.0
H841 H 0.59005 0.68088 0.8285 0.0
H842 H 0.46532 0.68964 0.37723 0.0
H843 H 0.48768 0.73025 0.36973 0.0
H844 H 0.48132 0.63627 0.37414 0.0
H845 H 0.49256 0.60538 0.48287 0.0
C846 C 0.85604 0.49641 0.54434 0.0
C847 C 0.84414 0.52518 0.47299 0.0
C848 C 0.89628 0.55896 0.55608 0.0
C849 C 0.91242 0.52749 0.60355 0.0
N850 N 0.9056 0.46338 0.61846 0.0
N851 N 0.85736 0.58383 0.40311 0.0
C852 C 0.89154 0.49561 0.59167 0.0
C853 C 0.86552 0.55651 0.47697 0.0
N854 N 0.8345 0.46794 0.56323 0.0
N855 N 0.90843 0.59159 0.59238 0.0
H856 H 0.83509 0.58334 0.34665 0.0
H857 H 0.87418 0.60562 0.39243 0.0
H858 H 0.92729 0.59502 0.66058 0.0
H859 H 0.89617 0.61516 0.56722 0.0
H860 H 0.8079 0.46662 0.53528 0.0
H861 H 0.8079 0.46662 0.53528 0.0
H862 H 0.89069 0.43994 0.61435 0.0
H863 H 0.93277 0.45933 0.62636 0.0
loop_
_geom_bond_atom_site_label_1
_geom_bond_atom_site_label_2
_geom_bond_distance
_geom_bond_site_symmetry_2
_ccdc_geom_bond_type
H0 C5 0.930 . S
H1 C8 0.930 . S
H2 C10 0.930 . S
H3 C4 1.016 . S
C4 H3 1.016 . S
C4 N11 1.286 . S
C5 H0 0.930 . S
C5 C6 1.397 . S
C5 C7 1.361 . S
C6 C5 1.397 . S
C6 C10 1.390 . S
C7 C5 1.361 . S
C7 C8 1.393 . S
C7 N11 1.413 . S
C8 H1 0.930 . S
C8 C7 1.393 . S
C8 C9 1.399 . S
C9 C8 1.399 . S
C9 C10 1.381 . S
C10 H2 0.930 . S
C10 C6 1.390 . S
C10 C9 1.381 . S
N11 C4 1.286 . S
N11 C7 1.413 . S
H12 C17 0.930 . S
H13 C20 0.930 . S
H14 C22 0.930 . S
H15 C16 1.016 . S
C16 H15 1.016 . S
C16 N23 1.286 . S
C17 H12 0.930 . S
C17 C18 1.397 . S
C17 C19 1.361 . S
C18 C17 1.397 . S
C18 C22 1.390 . S
C19 C17 1.361 . S
C19 C20 1.393 . S
C19 N23 1.413 . S
C20 H13 0.930 . S
C20 C19 1.393 . S
C20 C21 1.399 . S
C21 C20 1.399 . S
C21 C22 1.381 . S
C22 H14 0.930 . S
C22 C18 1.390 . S
C22 C21 1.381 . S
N23 C16 1.286 . S
N23 C19 1.413 . S
H24 C29 0.930 . S
H25 C32 0.930 . S
H26 C34 0.930 . S
H27 C28 1.016 . S
C28 H27 1.016 . S
C28 N35 1.286 . S
C29 H24 0.930 . S
C29 C30 1.397 . S
C29 C31 1.361 . S
C30 C29 1.397 . S
C30 C34 1.390 . S
C31 C29 1.361 . S
C31 C32 1.393 . S
C31 N35 1.413 . S
C32 H25 0.930 . S
C32 C31 1.393 . S
C32 C33 1.399 . S
C33 C32 1.399 . S
C33 C34 1.381 . S
C34 H26 0.930 . S
C34 C30 1.390 . S
C34 C33 1.381 . S
N35 C28 1.286 . S
N35 C31 1.413 . S
H36 C41 0.930 . S
H37 C44 0.930 . S
H38 C46 0.930 . S
H39 C40 1.016 . S
C40 H39 1.016 . S
C40 N47 1.286 . S
C41 H36 0.930 . S
C41 C42 1.397 . S
C41 C43 1.361 . S
C42 C41 1.397 . S
C42 C46 1.390 . S
C43 C41 1.361 . S
C43 C44 1.393 . S
C43 N47 1.413 . S
C44 H37 0.930 . S
C44 C43 1.393 . S
C44 C45 1.399 . S
C45 C44 1.399 . S
C45 C46 1.381 . S
C46 H38 0.930 . S
C46 C42 1.390 . S
C46 C45 1.381 . S
N47 C40 1.286 . S
N47 C43 1.413 . S
H48 C53 0.930 . S
H49 C56 0.930 . S
H50 C58 0.930 . S
H51 C52 1.016 . S
C52 H51 1.016 . S
C52 N59 1.286 . S
C53 H48 0.930 . S
C53 C54 1.397 . S
C53 C55 1.361 1_556 S
C54 C53 1.397 . S
C54 C58 1.390 . S
C55 C53 1.361 1_554 S
C55 C56 1.393 . S
C55 N59 1.413 . S
C56 H49 0.930 . S
C56 C55 1.393 . S
C56 C57 1.399 . S
C57 C56 1.399 . S
C57 C58 1.381 1_554 S
C58 H50 0.930 . S
C58 C54 1.390 . S
C58 C57 1.381 1_556 S
N59 C52 1.286 . S
N59 C55 1.413 . S
H60 C65 0.930 . S
H61 C68 0.930 . S
H62 C70 0.930 . S
H63 C64 1.016 . S
C64 H63 1.016 . S
C64 N71 1.286 . S
C65 H60 0.930 . S
C65 C66 1.397 . S
C65 C67 1.361 1_556 S
C66 C65 1.397 . S
C66 C70 1.390 . S
C67 C65 1.361 1_554 S
C67 C68 1.393 . S
C67 N71 1.413 . S
C68 H61 0.930 . S
C68 C67 1.393 . S
C68 C69 1.399 . S
C69 C68 1.399 . S
C69 C70 1.381 1_554 S
C70 H62 0.930 . S
C70 C66 1.390 . S
C70 C69 1.381 1_556 S
N71 C64 1.286 . S
N71 C67 1.413 . S
H72 C77 0.930 . S
H73 C80 0.930 . S
H74 C82 0.930 . S
H75 C76 1.016 . S
C76 H75 1.016 . S
C76 N83 1.286 . S
C77 H72 0.930 . S
C77 C78 1.397 . S
C77 C79 1.361 1_556 S
C78 C77 1.397 . S
C78 C82 1.390 . S
C79 C77 1.361 1_554 S
C79 C80 1.393 . S
C79 N83 1.413 . S
C80 H73 0.930 . S
C80 C79 1.393 . S
C80 C81 1.399 . S
C81 C80 1.399 . S
C81 C82 1.381 1_554 S
C82 H74 0.930 . S
C82 C78 1.390 . S
C82 C81 1.381 1_556 S
N83 C76 1.286 . S
N83 C79 1.413 . S
H84 C89 0.930 . S
H85 C92 0.930 . S
H86 C94 0.930 . S
H87 C88 1.016 . S
C88 H87 1.016 . S
C88 N95 1.286 . S
C89 H84 0.930 . S
C89 C90 1.397 . S
C89 C91 1.361 1_556 S
C90 C89 1.397 . S
C90 C94 1.390 . S
C91 C89 1.361 1_554 S
C91 C92 1.393 . S
C91 N95 1.413 . S
C92 H85 0.930 . S
C92 C91 1.393 . S
C92 C93 1.399 . S
C93 C92 1.399 . S
C93 C94 1.381 1_554 S
C94 H86 0.930 . S
C94 C90 1.390 . S
C94 C93 1.381 1_556 S
N95 C88 1.286 . S
N95 C91 1.413 . S
Eu96 N127 2.657 1_566 S
Eu96 N134 2.609 1_565 S
Eu96 O140 2.558 . S
Eu96 O141 2.612 1_455 S
Eu96 O143 2.339 1_455 S
Eu96 O144 2.563 . S
Eu96 O145 2.419 1_556 S
Eu96 O147 2.380 1_565 S
Eu96 O148 2.432 . S
Eu96 C160 2.848 . S
C97 C100 1.429 . S
C97 C101 1.411 . S
C97 N104 1.377 1_565 S
C98 C100 1.420 . S
C98 C102 1.423 . S
C98 C110 1.392 . S
C99 C101 1.420 . S
C99 C102 1.351 . S
C99 H122 0.931 . S
C100 C97 1.429 . S
C100 C98 1.420 . S
C100 N108 1.362 . S
C101 C97 1.411 . S
C101 C99 1.420 . S
C101 C106 1.395 1_565 S
C102 C98 1.423 . S
C102 C99 1.351 . S
C102 H114 0.930 . S
C103 C105 1.400 . S
C103 C106 1.386 . S
C103 H115 0.930 . S
N104 C97 1.377 1_545 S
N104 C105 1.321 . S
N104 Eu107 2.609 . S
C105 C103 1.400 . S
C105 N104 1.321 . S
C105 H112 0.930 . S
C106 C101 1.395 1_545 S
C106 C103 1.386 . S
C106 H125 0.930 . S
Eu107 N104 2.609 . S
Eu107 N108 2.657 1_545 S
Eu107 O141 2.380 1_545 S
Eu107 O142 2.432 . S
Eu107 O146 2.558 . S
Eu107 O147 2.612 1_655 S
Eu107 O149 2.339 1_655 S
Eu107 O150 2.563 1_655 S
Eu107 O151 2.419 . S
Eu107 C171 2.848 . S
N108 C100 1.362 . S
N108 Eu107 2.657 1_565 S
N108 C109 1.334 1_655 S
C109 N108 1.334 1_455 S
C109 C111 1.413 . S
C109 H116 0.929 . S
C110 C98 1.392 . S
C110 C111 1.367 1_655 S
C110 H118 0.930 . S
C111 C109 1.413 . S
C111 C110 1.367 1_455 S
C111 H113 0.930 . S
H112 C105 0.930 . S
H113 C111 0.930 . S
H114 C102 0.930 . S
H115 C103 0.930 . S
H116 C109 0.929 . S
H117 C131 0.930 1_655 S
H118 C110 0.930 . S
H119 C137 0.930 . S
H120 C128 0.929 1_655 S
H121 C135 0.930 . S
H122 C99 0.931 . S
H123 C129 0.930 . S
H124 C162 0.930 . S
H125 C106 0.930 . S
H126 C161 0.931 . S
N127 Eu96 2.657 1_544 S
N127 C128 1.334 . S
N127 C132 1.362 . S
C128 H120 0.929 1_455 S
C128 N127 1.334 . S
C128 C131 1.413 . S
C129 H123 0.930 . S
C129 C130 1.392 . S
C129 C131 1.367 . S
C130 C129 1.392 . S
C130 C132 1.420 . S
C130 C162 1.423 . S
C131 H117 0.930 1_455 S
C131 C128 1.413 . S
C131 C129 1.367 . S
C132 N127 1.362 . S
C132 C130 1.420 . S
C132 C136 1.429 . S
H133 C138 0.930 . S
N134 Eu96 2.609 1_545 S
N134 C136 1.377 1_556 S
N134 C137 1.321 1_545 S
C135 H121 0.930 . S
C135 C137 1.400 . S
C135 C138 1.386 1_566 S
C136 C132 1.429 . S
C136 N134 1.377 1_554 S
C136 C139 1.411 . S
C137 H119 0.930 . S
C137 N134 1.321 1_565 S
C137 C135 1.400 . S
C138 H133 0.930 . S
C138 C135 1.386 1_544 S
C138 C139 1.395 . S
C139 C136 1.411 . S
C139 C138 1.395 . S
C139 C161 1.420 . S
O140 Eu96 2.558 . S
O140 C160 1.257 . S
O141 Eu96 2.612 1_655 S
O141 Eu107 2.380 1_565 S
O141 C152 1.276 . S
O142 Eu107 2.432 . S
O142 C159 1.264 . S
O143 Eu96 2.339 1_655 S
O143 C159 1.254 1_565 S
O144 Eu96 2.563 . S
O144 C152 1.235 1_455 S
O145 Eu96 2.419 1_554 S
O145 C160 1.249 1_554 S
O146 Eu107 2.558 . S
O146 C171 1.257 . S
O147 Eu96 2.380 1_545 S
O147 Eu107 2.612 1_455 S
O147 C163 1.276 . S
O148 Eu96 2.432 . S
O148 C170 1.264 1_565 S
O149 Eu107 2.339 1_455 S
O149 C170 1.254 . S
O150 Eu107 2.563 1_455 S
O150 C163 1.235 . S
O151 Eu107 2.419 . S
O151 C171 1.249 . S
C152 O141 1.276 . S
C152 O144 1.235 1_655 S
C153 C155 1.393 . S
C153 C157 1.395 . S
C153 C160 1.492 1_554 S
C154 C155 1.392 . S
C154 C156 1.386 . S
C155 C153 1.393 . S
C155 C154 1.392 . S
C155 H172 0.930 . S
C156 C154 1.386 . S
C156 C158 1.395 . S
C156 H173 0.930 . S
C157 C153 1.395 . S
C157 C158 1.379 . S
C157 H174 0.930 . S
C158 C156 1.395 . S
C158 C157 1.379 . S
C158 H175 0.930 . S
C159 O142 1.264 . S
C159 O143 1.254 1_545 S
C160 Eu96 2.848 . S
C160 O140 1.257 . S
C160 O145 1.249 1_556 S
C160 C153 1.492 1_556 S
C161 H126 0.931 . S
C161 C139 1.420 . S
C161 C162 1.351 . S
C162 H124 0.930 . S
C162 C130 1.423 . S
C162 C161 1.351 . S
C163 O147 1.276 . S
C163 O150 1.235 . S
C164 C165 1.393 . S
C164 C168 1.395 . S
C164 C171 1.492 . S
C165 C164 1.393 . S
C165 C166 1.392 . S
C165 H176 0.930 1_655 S
C166 C165 1.392 . S
C166 C167 1.386 . S
C167 C166 1.386 . S
C167 C169 1.395 . S
C167 H177 0.930 . S
C168 C164 1.395 . S
C168 C169 1.379 . S
C168 H178 0.930 . S
C169 C167 1.395 . S
C169 C168 1.379 . S
C169 H179 0.930 . S
C170 O148 1.264 1_545 S
C170 O149 1.254 . S
C171 Eu107 2.848 . S
C171 O146 1.257 . S
C171 O151 1.249 . S
C171 C164 1.492 . S
H172 C155 0.930 . S
H173 C156 0.930 . S
H174 C157 0.930 . S
H175 C158 0.930 . S
H176 C165 0.930 1_455 S
H177 C167 0.930 . S
H178 C168 0.930 . S
H179 C169 0.930 . S
Eu180 N211 2.657 1_556 S
Eu180 N218 2.609 . S
Eu180 O224 2.558 . S
Eu180 O225 2.612 1_545 S
Eu180 O227 2.339 1_545 S
Eu180 O228 2.563 . S
Eu180 O229 2.419 1_556 S
Eu180 O231 2.380 . S
Eu180 O232 2.432 . S
Eu180 C244 2.848 . S
C181 C184 1.429 . S
C181 C185 1.411 . S
C181 N188 1.377 . S
C182 C184 1.420 . S
C182 C186 1.423 . S
C182 C194 1.392 . S
C183 C185 1.420 . S
C183 C186 1.351 . S
C183 H206 0.931 . S
C184 C181 1.429 . S
C184 C182 1.420 . S
C184 N192 1.362 . S
C185 C181 1.411 . S
C185 C183 1.420 . S
C185 C190 1.395 . S
C186 C182 1.423 . S
C186 C183 1.351 . S
C186 H198 0.930 . S
C187 C189 1.400 . S
C187 C190 1.386 . S
C187 H199 0.930 . S
N188 C181 1.377 . S
N188 C189 1.321 . S
N188 Eu191 2.609 . S
C189 C187 1.400 . S
C189 N188 1.321 . S
C189 H196 0.930 . S
C190 C185 1.395 . S
C190 C187 1.386 . S
C190 H209 0.930 . S
Eu191 N188 2.609 . S
Eu191 N192 2.657 . S
Eu191 O225 2.380 . S
Eu191 O226 2.432 . S
Eu191 O230 2.558 . S
Eu191 O231 2.612 1_565 S
Eu191 O233 2.339 1_565 S
Eu191 O234 2.563 1_565 S
Eu191 O235 2.419 . S
Eu191 C255 2.848 . S
N192 C184 1.362 . S
N192 Eu191 2.657 . S
N192 C193 1.334 1_565 S
C193 N192 1.334 1_545 S
C193 C195 1.413 . S
C193 H200 0.929 . S
C194 C182 1.392 . S
C194 C195 1.367 1_565 S
C194 H202 0.930 . S
C195 C193 1.413 . S
C195 C194 1.367 1_545 S
C195 H197 0.930 . S
H196 C189 0.930 . S
H197 C195 0.930 . S
H198 C186 0.930 . S
H199 C187 0.930 . S
H200 C193 0.929 . S
H201 C215 0.930 1_565 S
H202 C194 0.930 . S
H203 C221 0.930 . S
H204 C212 0.929 1_565 S
H205 C219 0.930 . S
H206 C183 0.931 . S
H207 C213 0.930 . S
H208 C246 0.930 . S
H209 C190 0.930 . S
H210 C245 0.931 . S
N211 Eu180 2.657 1_554 S
N211 C212 1.334 . S
N211 C216 1.362 . S
C212 H204 0.929 1_545 S
C212 N211 1.334 . S
C212 C215 1.413 . S
C213 H207 0.930 . S
C213 C214 1.392 . S
C213 C215 1.367 . S
C214 C213 1.392 . S
C214 C216 1.420 . S
C214 C246 1.423 . S
C215 H201 0.930 1_545 S
C215 C212 1.413 . S
C215 C213 1.367 . S
C216 N211 1.362 . S
C216 C214 1.420 . S
C216 C220 1.429 . S
H217 C222 0.930 . S
N218 Eu180 2.609 . S
N218 C220 1.377 1_556 S
N218 C221 1.321 . S
C219 H205 0.930 . S
C219 C221 1.400 . S
C219 C222 1.386 1_556 S
C220 C216 1.429 . S
C220 N218 1.377 1_554 S
C220 C223 1.411 . S
C221 H203 0.930 . S
C221 N218 1.321 . S
C221 C219 1.400 . S
C222 H217 0.930 . S
C222 C219 1.386 1_554 S
C222 C223 1.395 . S
C223 C220 1.411 . S
C223 C222 1.395 . S
C223 C245 1.420 . S
O224 Eu180 2.558 . S
O224 C244 1.257 . S
O225 Eu180 2.612 1_565 S
O225 Eu191 2.380 . S
O225 C236 1.276 . S
O226 Eu191 2.432 . S
O226 C243 1.264 . S
O227 Eu180 2.339 1_565 S
O227 C243 1.254 . S
O228 Eu180 2.563 . S
O228 C236 1.235 1_545 S
O229 Eu180 2.419 1_554 S
O229 C244 1.249 1_554 S
O230 Eu191 2.558 . S
O230 C255 1.257 . S
O231 Eu180 2.380 . S
O231 Eu191 2.612 1_545 S
O231 C247 1.276 . S
O232 Eu180 2.432 . S
O232 C254 1.264 . S
O233 Eu191 2.339 1_545 S
O233 C254 1.254 . S
O234 Eu191 2.563 1_545 S
O234 C247 1.235 . S
O235 Eu191 2.419 . S
O235 C255 1.249 . S
C236 O225 1.276 . S
C236 O228 1.235 1_565 S
C237 C239 1.393 . S
C237 C241 1.395 . S
C237 C244 1.492 1_554 S
C238 C239 1.392 . S
C238 C240 1.386 . S
C239 C237 1.393 . S
C239 C238 1.392 . S
C239 H256 0.930 . S
C240 C238 1.386 . S
C240 C242 1.395 . S
C240 H257 0.930 . S
C241 C237 1.395 . S
C241 C242 1.379 . S
C241 H258 0.930 . S
C242 C240 1.395 . S
C242 C241 1.379 . S
C242 H259 0.930 . S
C243 O226 1.264 . S
C243 O227 1.254 . S
C244 Eu180 2.848 . S
C244 O224 1.257 . S
C244 O229 1.249 1_556 S
C244 C237 1.492 1_556 S
C245 H210 0.931 . S
C245 C223 1.420 . S
C245 C246 1.351 . S
C246 H208 0.930 . S
C246 C214 1.423 . S
C246 C245 1.351 . S
C247 O231 1.276 . S
C247 O234 1.235 . S
C248 C249 1.393 . S
C248 C252 1.395 . S
C248 C255 1.492 . S
C249 C248 1.393 . S
C249 C250 1.392 . S
C249 H260 0.930 1_565 S
C250 C249 1.392 . S
C250 C251 1.386 . S
C251 C250 1.386 . S
C251 C253 1.395 . S
C251 H261 0.930 . S
C252 C248 1.395 . S
C252 C253 1.379 . S
C252 H262 0.930 . S
C253 C251 1.395 . S
C253 C252 1.379 . S
C253 H263 0.930 . S
C254 O232 1.264 . S
C254 O233 1.254 . S
C255 Eu191 2.848 . S
C255 O230 1.257 . S
C255 O235 1.249 . S
C255 C248 1.492 . S
H256 C239 0.930 . S
H257 C240 0.930 . S
H258 C241 0.930 . S
H259 C242 0.930 . S
H260 C249 0.930 1_545 S
H261 C251 0.930 . S
H262 C252 0.930 . S
H263 C253 0.930 . S
Eu264 N295 2.657 . S
Eu264 N302 2.609 . S
Eu264 O308 2.558 . S
Eu264 O309 2.612 . S
Eu264 O311 2.339 . S
Eu264 O312 2.563 . S
Eu264 O313 2.419 . S
Eu264 O315 2.380 . S
Eu264 O316 2.432 . S
Eu264 C328 2.848 . S
C265 C268 1.429 . S
C265 C269 1.411 . S
C265 N272 1.377 . S
C266 C268 1.420 . S
C266 C270 1.423 . S
C266 C278 1.392 . S
C267 C269 1.420 . S
C267 C270 1.351 . S
C267 H290 0.931 . S
C268 C265 1.429 . S
C268 C266 1.420 . S
C268 N276 1.362 . S
C269 C265 1.411 . S
C269 C267 1.420 . S
C269 C274 1.395 1_556 S
C270 C266 1.423 . S
C270 C267 1.351 . S
C270 H282 0.930 . S
C271 C273 1.400 . S
C271 C274 1.386 . S
C271 H283 0.930 . S
N272 C265 1.377 . S
N272 C273 1.321 1_556 S
N272 Eu275 2.609 . S
C273 C271 1.400 . S
C273 N272 1.321 1_554 S
C273 H280 0.930 . S
C274 C269 1.395 1_554 S
C274 C271 1.386 . S
C274 H293 0.930 . S
Eu275 N272 2.609 . S
Eu275 N276 2.657 . S
Eu275 O309 2.380 . S
Eu275 O310 2.432 . S
Eu275 O314 2.558 1_556 S
Eu275 O315 2.612 . S
Eu275 O317 2.339 . S
Eu275 O318 2.563 . S
Eu275 O319 2.419 . S
Eu275 C339 2.848 1_556 S
N276 C268 1.362 . S
N276 Eu275 2.657 . S
N276 C277 1.334 . S
C277 N276 1.334 . S
C277 C279 1.413 . S
C277 H284 0.929 . S
C278 C266 1.392 . S
C278 C279 1.367 . S
C278 H286 0.930 . S
C279 C277 1.413 . S
C279 C278 1.367 . S
C279 H281 0.930 . S
H280 C273 0.930 . S
H281 C279 0.930 . S
H282 C270 0.930 . S
H283 C271 0.930 . S
H284 C277 0.929 . S
H285 C299 0.930 . S
H286 C278 0.930 . S
H287 C305 0.930 . S
H288 C296 0.929 . S
H289 C303 0.930 . S
H290 C267 0.931 . S
H291 C297 0.930 . S
H292 C330 0.930 . S
H293 C274 0.930 . S
H294 C329 0.931 . S
N295 Eu264 2.657 . S
N295 C296 1.334 . S
N295 C300 1.362 . S
C296 H288 0.929 . S
C296 N295 1.334 . S
C296 C299 1.413 . S
C297 H291 0.930 . S
C297 C298 1.392 . S
C297 C299 1.367 . S
C298 C297 1.392 . S
C298 C300 1.420 . S
C298 C330 1.423 . S
C299 H285 0.930 . S
C299 C296 1.413 . S
C299 C297 1.367 . S
C300 N295 1.362 . S
C300 C298 1.420 . S
C300 C304 1.429 . S
H301 C306 0.930 . S
N302 Eu264 2.609 . S
N302 C304 1.377 . S
N302 C305 1.321 . S
C303 H289 0.930 . S
C303 C305 1.400 . S
C303 C306 1.386 . S
C304 C300 1.429 . S
C304 N302 1.377 . S
C304 C307 1.411 . S
C305 H287 0.930 . S
C305 N302 1.321 . S
C305 C303 1.400 . S
C306 H301 0.930 . S
C306 C303 1.386 . S
C306 C307 1.395 . S
C307 C304 1.411 . S
C307 C306 1.395 . S
C307 C329 1.420 . S
O308 Eu264 2.558 . S
O308 C328 1.257 . S
O309 Eu264 2.612 . S
O309 Eu275 2.380 . S
O309 C320 1.276 . S
O310 Eu275 2.432 . S
O310 C327 1.264 . S
O311 Eu264 2.339 . S
O311 C327 1.254 . S
O312 Eu264 2.563 . S
O312 C320 1.235 . S
O313 Eu264 2.419 . S
O313 C328 1.249 . S
O314 Eu275 2.558 1_554 S
O314 C339 1.257 . S
O315 Eu264 2.380 . S
O315 Eu275 2.612 . S
O315 C331 1.276 . S
O316 Eu264 2.432 . S
O316 C338 1.264 . S
O317 Eu275 2.339 . S
O317 C338 1.254 . S
O318 Eu275 2.563 . S
O318 C331 1.235 . S
O319 Eu275 2.419 . S
O319 C339 1.249 1_556 S
C320 O309 1.276 . S
C320 O312 1.235 . S
C321 C323 1.393 . S
C321 C325 1.395 . S
C321 C328 1.492 . S
C322 C323 1.392 . S
C322 C324 1.386 . S
C323 C321 1.393 . S
C323 C322 1.392 . S
C323 H340 0.930 . S
C324 C322 1.386 . S
C324 C326 1.395 . S
C324 H341 0.930 . S
C325 C321 1.395 . S
C325 C326 1.379 . S
C325 H342 0.930 . S
C326 C324 1.395 . S
C326 C325 1.379 . S
C326 H343 0.930 . S
C327 O310 1.264 . S
C327 O311 1.254 . S
C328 Eu264 2.848 . S
C328 O308 1.257 . S
C328 O313 1.249 . S
C328 C321 1.492 . S
C329 H294 0.931 . S
C329 C307 1.420 . S
C329 C330 1.351 . S
C330 H292 0.930 . S
C330 C298 1.423 . S
C330 C329 1.351 . S
C331 O315 1.276 . S
C331 O318 1.235 . S
C332 C333 1.393 . S
C332 C336 1.395 . S
C332 C339 1.492 . S
C333 C332 1.393 . S
C333 C334 1.392 . S
C333 H344 0.930 . S
C334 C333 1.392 . S
C334 C335 1.386 . S
C335 C334 1.386 . S
C335 C337 1.395 . S
C335 H345 0.930 . S
C336 C332 1.395 . S
C336 C337 1.379 . S
C336 H346 0.930 . S
C337 C335 1.395 . S
C337 C336 1.379 . S
C337 H347 0.930 . S
C338 O316 1.264 . S
C338 O317 1.254 . S
C339 Eu275 2.848 1_554 S
C339 O314 1.257 . S
C339 O319 1.249 1_554 S
C339 C332 1.492 . S
H340 C323 0.930 . S
H341 C324 0.930 . S
H342 C325 0.930 . S
H343 C326 0.930 . S
H344 C333 0.930 . S
H345 C335 0.930 . S
H346 C336 0.930 . S
H347 C337 0.930 . S
Eu348 N379 2.657 . S
Eu348 N386 2.609 . S
Eu348 O392 2.558 . S
Eu348 O393 2.612 . S
Eu348 O395 2.339 . S
Eu348 O396 2.563 . S
Eu348 O397 2.419 . S
Eu348 O399 2.380 . S
Eu348 O400 2.432 1_455 S
Eu348 C412 2.848 . S
C349 C352 1.429 . S
C349 C353 1.411 . S
C349 N356 1.377 1_655 S
C350 C352 1.420 . S
C350 C354 1.423 . S
C350 C362 1.392 . S
C351 C353 1.420 . S
C351 C354 1.351 . S
C351 H374 0.931 . S
C352 C349 1.429 . S
C352 C350 1.420 . S
C352 N360 1.362 . S
C353 C349 1.411 . S
C353 C351 1.420 . S
C353 C358 1.395 1_656 S
C354 C350 1.423 . S
C354 C351 1.351 . S
C354 H366 0.930 . S
C355 C357 1.400 . S
C355 C358 1.386 . S
C355 H367 0.930 . S
N356 C349 1.377 1_455 S
N356 C357 1.321 1_556 S
N356 Eu359 2.609 1_455 S
C357 C355 1.400 . S
C357 N356 1.321 1_554 S
C357 H364 0.930 . S
C358 C353 1.395 1_454 S
C358 C355 1.386 . S
C358 H377 0.930 . S
Eu359 N356 2.609 1_655 S
Eu359 N360 2.657 . S
Eu359 O393 2.380 1_655 S
Eu359 O394 2.432 1_655 S
Eu359 O398 2.558 1_556 S
Eu359 O399 2.612 1_655 S
Eu359 O401 2.339 . S
Eu359 O402 2.563 . S
Eu359 O403 2.419 . S
Eu359 C423 2.848 1_556 S
N360 C352 1.362 . S
N360 Eu359 2.657 . S
N360 C361 1.334 . S
C361 N360 1.334 . S
C361 C363 1.413 . S
C361 H368 0.929 . S
C362 C350 1.392 . S
C362 C363 1.367 . S
C362 H370 0.930 . S
C363 C361 1.413 . S
C363 C362 1.367 . S
C363 H365 0.930 . S
H364 C357 0.930 . S
H365 C363 0.930 . S
H366 C354 0.930 . S
H367 C355 0.930 . S
H368 C361 0.929 . S
H369 C383 0.930 . S
H370 C362 0.930 . S
H371 C389 0.930 . S
H372 C380 0.929 . S
H373 C387 0.930 . S
H374 C351 0.931 . S
H375 C381 0.930 . S
H376 C414 0.930 . S
H377 C358 0.930 . S
H378 C413 0.931 . S
N379 Eu348 2.657 . S
N379 C380 1.334 . S
N379 C384 1.362 . S
C380 H372 0.929 . S
C380 N379 1.334 . S
C380 C383 1.413 . S
C381 H375 0.930 . S
C381 C382 1.392 . S
C381 C383 1.367 . S
C382 C381 1.392 . S
C382 C384 1.420 . S
C382 C414 1.423 . S
C383 H369 0.930 . S
C383 C380 1.413 . S
C383 C381 1.367 . S
C384 N379 1.362 . S
C384 C382 1.420 . S
C384 C388 1.429 . S
H385 C390 0.928 1_655 S
N386 Eu348 2.609 . S
N386 C388 1.377 . S
N386 C389 1.321 1_455 S
C387 H373 0.930 . S
C387 C389 1.400 . S
C387 C390 1.386 1_655 S
C388 C384 1.429 . S
C388 N386 1.377 . S
C388 C391 1.411 . S
C389 H371 0.930 . S
C389 N386 1.321 1_655 S
C389 C387 1.400 . S
C390 H385 0.928 1_455 S
C390 C387 1.386 1_455 S
C390 C391 1.395 . S
C391 C388 1.411 . S
C391 C390 1.395 . S
C391 C413 1.420 . S
O392 Eu348 2.558 . S
O392 C412 1.257 . S
O393 Eu348 2.612 . S
O393 Eu359 2.380 1_455 S
O393 C404 1.276 . S
O394 Eu359 2.432 1_455 S
O394 C411 1.264 . S
O395 Eu348 2.339 . S
O395 C411 1.254 . S
O396 Eu348 2.563 . S
O396 C404 1.235 . S
O397 Eu348 2.419 . S
O397 C412 1.249 . S
O398 Eu359 2.558 1_554 S
O398 C423 1.257 . S
O399 Eu348 2.380 . S
O399 Eu359 2.612 1_455 S
O399 C415 1.276 1_455 S
O400 Eu348 2.432 1_655 S
O400 C422 1.264 . S
O401 Eu359 2.339 . S
O401 C422 1.254 . S
O402 Eu359 2.563 . S
O402 C415 1.235 . S
O403 Eu359 2.419 . S
O403 C423 1.249 1_556 S
C404 O393 1.276 . S
C404 O396 1.235 . S
C405 C407 1.393 . S
C405 C409 1.395 . S
C405 C412 1.492 . S
C406 C407 1.392 . S
C406 C408 1.386 . S
C407 C405 1.393 . S
C407 C406 1.392 . S
C407 H424 0.930 . S
C408 C406 1.386 . S
C408 C410 1.395 . S
C408 H425 0.930 . S
C409 C405 1.395 . S
C409 C410 1.379 . S
C409 H426 0.930 . S
C410 C408 1.395 . S
C410 C409 1.379 . S
C410 H427 0.930 . S
C411 O394 1.264 . S
C411 O395 1.254 . S
C412 Eu348 2.848 . S
C412 O392 1.257 . S
C412 O397 1.249 . S
C412 C405 1.492 . S
C413 H378 0.931 . S
C413 C391 1.420 . S
C413 C414 1.351 . S
C414 H376 0.930 . S
C414 C382 1.423 . S
C414 C413 1.351 . S
C415 O399 1.276 1_655 S
C415 O402 1.235 . S
C416 C417 1.393 . S
C416 C420 1.395 . S
C416 C423 1.492 . S
C417 C416 1.393 . S
C417 C418 1.392 . S
C417 H428 0.930 . S
C418 C417 1.392 . S
C418 C419 1.386 . S
C419 C418 1.386 . S
C419 C421 1.395 . S
C419 H429 0.930 . S
C420 C416 1.395 . S
C420 C421 1.379 . S
C420 H430 0.930 . S
C421 C419 1.395 . S
C421 C420 1.379 . S
C421 H431 0.930 . S
C422 O400 1.264 . S
C422 O401 1.254 . S
C423 Eu359 2.848 1_554 S
C423 O398 1.257 . S
C423 O403 1.249 1_554 S
C423 C416 1.492 . S
H424 C407 0.930 . S
H425 C408 0.930 . S
H426 C409 0.930 . S
H427 C410 0.930 . S
H428 C417 0.930 . S
H429 C419 0.930 . S
H430 C420 0.930 . S
H431 C421 0.930 . S
C432 C433 1.363 . S
C432 C438 1.379 . S
C432 N440 1.366 . S
C433 C432 1.363 . S
C433 C439 1.363 . S
C434 C435 1.363 . S
C434 C439 1.379 . S
C434 N441 1.356 . S
C435 C434 1.363 . S
C435 C438 1.363 . S
N436 C438 1.356 1_565 S
N436 H448 0.984 . S
N436 H449 0.985 . S
N437 C439 1.356 . S
N437 H442 0.984 . S
N437 H443 0.985 . S
C438 C432 1.379 . S
C438 C435 1.363 . S
C438 N436 1.356 1_545 S
C439 C433 1.363 . S
C439 C434 1.379 . S
C439 N437 1.356 . S
N440 C432 1.366 . S
N440 H446 0.965 1_545 S
N440 H447 0.994 . S
N441 C434 1.356 . S
N441 H444 0.984 . S
N441 H445 0.985 . S
H442 N437 0.984 . S
H443 N437 0.985 . S
H444 N441 0.984 . S
H445 N441 0.985 . S
H446 N440 0.965 1_565 S
H447 N440 0.994 . S
H448 N436 0.984 . S
H449 N436 0.985 . S
C450 C451 1.363 . S
C450 C456 1.379 . S
C450 N458 1.356 . S
C451 C450 1.363 . S
C451 C457 1.363 . S
C452 C453 1.363 . S
C452 C457 1.379 . S
C452 N459 1.356 . S
C453 C452 1.363 . S
C453 C456 1.363 . S
N454 C456 1.356 . S
N454 H466 0.984 . S
N454 H467 0.985 . S
N455 C457 1.356 . S
N455 H460 0.984 . S
N455 H461 0.985 . S
C456 C450 1.379 . S
C456 C453 1.363 . S
C456 N454 1.356 . S
C457 C451 1.363 . S
C457 C452 1.379 . S
C457 N455 1.356 . S
N458 C450 1.356 . S
N458 H464 0.984 . S
N458 H465 0.984 . S
N459 C452 1.356 . S
N459 H462 0.984 . S
N459 H463 0.985 . S
H460 N455 0.984 . S
H461 N455 0.985 . S
H462 N459 0.984 . S
H463 N459 0.985 . S
H464 N458 0.984 . S
H465 N458 0.984 . S
H466 N454 0.984 . S
H467 N454 0.985 . S
C468 C469 1.363 . S
C468 C474 1.379 . S
C468 N476 1.356 . S
C469 C468 1.363 . S
C469 C475 1.363 . S
C470 C471 1.363 . S
C470 C475 1.379 . S
C470 N477 1.356 . S
C471 C470 1.363 . S
C471 C474 1.363 . S
N472 C474 1.356 . S
N472 H484 0.984 . S
N472 H485 0.985 . S
N473 C475 1.356 . S
N473 H478 0.984 . S
N473 H479 0.985 . S
C474 C468 1.379 . S
C474 C471 1.363 . S
C474 N472 1.356 . S
C475 C469 1.363 . S
C475 C470 1.379 . S
C475 N473 1.356 . S
N476 C468 1.356 . S
N476 H482 0.984 . S
N476 H483 0.984 . S
N477 C470 1.356 . S
N477 H480 0.984 . S
N477 H481 0.985 . S
H478 N473 0.984 . S
H479 N473 0.985 . S
H480 N477 0.984 . S
H481 N477 0.985 . S
H482 N476 0.984 . S
H483 N476 0.984 . S
H484 N472 0.984 . S
H485 N472 0.985 . S
C486 C487 1.363 . S
C486 C492 1.379 . S
C486 N494 1.356 . S
C487 C486 1.363 . S
C487 C493 1.363 . S
C488 C489 1.363 . S
C488 C493 1.379 . S
C488 N495 1.347 1_455 S
C489 C488 1.363 . S
C489 C492 1.363 . S
N490 C492 1.356 . S
N490 H502 0.984 . S
N490 H503 0.985 . S
N491 C493 1.356 . S
N491 H496 0.984 . S
N491 H497 0.978 1_455 S
C492 C486 1.379 . S
C492 C489 1.363 . S
C492 N490 1.356 . S
C493 C487 1.363 . S
C493 C488 1.379 . S
C493 N491 1.356 . S
N494 C486 1.356 . S
N494 H500 0.984 . S
N494 H501 0.984 . S
N495 C488 1.347 1_655 S
N495 H498 0.984 . S
N495 H499 0.994 . S
H496 N491 0.984 . S
H497 N491 0.978 1_655 S
H498 N495 0.984 . S
H499 N495 0.994 . S
H500 N494 0.984 . S
H501 N494 0.984 . S
H502 N490 0.984 . S
H503 N490 0.985 . S
C504 C505 1.363 1_545 S
C504 C510 1.379 . S
C504 N512 1.356 . S
C505 C504 1.363 1_565 S
C505 C511 1.363 . S
C506 C507 1.363 . S
C506 C511 1.379 . S
C506 N513 1.356 1_554 S
C507 C506 1.363 . S
C507 C510 1.363 1_565 S
N508 C510 1.356 . S
N508 H520 0.984 . S
N508 H521 0.985 1_554 S
N509 C511 1.356 . S
N509 H514 0.984 . S
N509 H515 0.985 . S
C510 C504 1.379 . S
C510 C507 1.363 1_545 S
C510 N508 1.356 . S
C511 C505 1.363 . S
C511 C506 1.379 . S
C511 N509 1.356 . S
N512 C504 1.356 . S
N512 H518 0.984 . S
N512 H519 0.984 . S
N513 C506 1.356 1_556 S
N513 H516 0.984 . S
N513 H517 0.985 . S
H514 N509 0.984 . S
H515 N509 0.985 . S
H516 N513 0.984 . S
H517 N513 0.985 . S
H518 N512 0.984 . S
H519 N512 0.984 . S
H520 N508 0.984 . S
H521 N508 0.985 1_556 S
C522 C523 1.363 . S
C522 C528 1.379 . S
C522 N530 1.356 . S
C523 C522 1.363 . S
C523 C529 1.363 . S
C524 C525 1.363 . S
C524 C529 1.379 . S
C524 N531 1.356 1_554 S
C525 C524 1.363 . S
C525 C528 1.363 . S
N526 C528 1.356 1_556 S
N526 H538 0.984 . S
N526 H539 0.985 . S
N527 C529 1.356 . S
N527 H532 0.984 . S
N527 H533 0.985 . S
C528 C522 1.379 . S
C528 C525 1.363 . S
C528 N526 1.356 1_554 S
C529 C523 1.363 . S
C529 C524 1.379 . S
C529 N527 1.356 . S
N530 C522 1.356 . S
N530 H536 0.984 . S
N530 H537 0.984 . S
N531 C524 1.356 1_556 S
N531 H534 0.984 . S
N531 H535 0.985 1_556 S
H532 N527 0.984 . S
H533 N527 0.985 . S
H534 N531 0.984 . S
H535 N531 0.985 1_554 S
H536 N530 0.984 . S
H537 N530 0.984 . S
H538 N526 0.984 . S
H539 N526 0.985 . S
C540 C541 1.363 . S
C540 C546 1.379 . S
C540 N548 1.356 . S
C541 C540 1.363 . S
C541 C547 1.363 . S
C542 C543 1.363 1_554 S
C542 C547 1.379 . S
C542 N549 1.356 1_554 S
C543 C542 1.363 1_556 S
C543 C546 1.363 1_556 S
N544 C546 1.356 1_556 S
N544 H556 0.984 . S
N544 H557 0.985 . S
N545 C547 1.356 . S
N545 H550 0.984 . S
N545 H551 0.985 . S
C546 C540 1.379 . S
C546 C543 1.363 1_554 S
C546 N544 1.356 1_554 S
C547 C541 1.363 . S
C547 C542 1.379 . S
C547 N545 1.356 . S
N548 C540 1.356 . S
N548 H554 0.984 . S
N548 H555 0.984 . S
N549 C542 1.356 1_556 S
N549 H552 0.984 . S
N549 H553 0.985 1_556 S
H550 N545 0.984 . S
H551 N545 0.985 . S
H552 N549 0.984 . S
H553 N549 0.985 1_554 S
H554 N548 0.984 . S
H555 N548 0.984 . S
H556 N544 0.984 . S
H557 N544 0.985 . S
C558 C559 1.366 . S
C558 C564 1.378 1_655 S
C558 N566 1.354 1_655 S
C559 C558 1.366 . S
C559 C565 1.363 . S
C560 C561 1.364 . S
C560 C565 1.379 . S
C560 N567 1.356 1_554 S
C561 C560 1.364 . S
C561 C564 1.368 1_655 S
N562 C564 1.356 . S
N562 H574 0.984 . S
N562 H575 0.985 1_554 S
N563 C565 1.356 . S
N563 H568 0.984 . S
N563 H569 0.985 . S
C564 C558 1.378 1_455 S
C564 C561 1.368 1_455 S
C564 N562 1.356 . S
C565 C559 1.363 . S
C565 C560 1.379 . S
C565 N563 1.356 . S
N566 C558 1.354 1_455 S
N566 H572 0.984 . S
N566 H573 0.984 . S
N567 C560 1.356 1_556 S
N567 H570 0.984 . S
N567 H571 0.985 . S
H568 N563 0.984 . S
H569 N563 0.985 . S
H570 N567 0.984 . S
H571 N567 0.985 . S
H572 N566 0.984 . S
H573 N566 0.984 . S
H574 N562 0.984 . S
H575 N562 0.985 1_556 S
C576 C577 1.363 . S
C576 C582 1.379 . S
C576 N584 1.356 . S
C577 C576 1.363 . S
C577 C583 1.363 . S
C578 C579 1.357 1_455 S
C578 C583 1.379 . S
C578 N585 1.356 1_455 S
C579 C578 1.357 1_655 S
C579 C582 1.349 1_655 S
N580 C582 1.356 . S
N580 H592 0.984 . S
N580 H593 0.985 1_455 S
N581 C583 1.356 1_556 S
N581 H586 0.984 . S
N581 H587 0.985 . S
C582 C576 1.379 . S
C582 C579 1.349 1_455 S
C582 N580 1.356 . S
C583 C577 1.363 . S
C583 C578 1.379 . S
C583 N581 1.356 1_554 S
N584 C576 1.356 . S
N584 H590 0.984 . S
N584 H591 0.984 . S
N585 C578 1.356 1_655 S
N585 H588 0.984 . S
N585 H589 0.985 1_554 S
H586 N581 0.984 . S
H587 N581 0.985 . S
H588 N585 0.984 . S
H589 N585 0.985 1_556 S
H590 N584 0.984 . S
H591 N584 0.984 . S
H592 N580 0.984 . S
H593 N580 0.985 1_655 S
C594 C595 1.363 . S
C594 C600 1.379 . S
C594 N602 1.356 1_554 S
C595 C594 1.363 . S
C595 C601 1.363 . S
C596 C597 1.357 1_545 S
C596 C601 1.379 . S
C596 N603 1.356 1_545 S
C597 C596 1.357 1_565 S
C597 C600 1.348 1_565 S
N598 C600 1.356 . S
N598 H610 0.984 . S
N598 H611 0.985 1_545 S
N599 C601 1.356 . S
N599 H604 0.984 . S
N599 H605 0.985 . S
C600 C594 1.379 . S
C600 C597 1.348 1_545 S
C600 N598 1.356 . S
C601 C595 1.363 . S
C601 C596 1.379 . S
C601 N599 1.356 . S
N602 C594 1.356 1_556 S
N602 H608 0.984 . S
N602 H609 0.984 . S
N603 C596 1.356 1_565 S
N603 H606 0.984 . S
N603 H607 0.985 . S
H604 N599 0.984 . S
H605 N599 0.985 . S
H606 N603 0.984 . S
H607 N603 0.985 . S
H608 N602 0.984 . S
H609 N602 0.984 . S
H610 N598 0.984 . S
H611 N598 0.985 1_565 S
C612 C613 1.363 . S
C612 C618 1.379 . S
C612 N620 1.356 . S
C613 C612 1.363 . S
C613 C619 1.363 . S
C614 C615 1.363 . S
C614 C619 1.379 . S
C614 N621 1.356 . S
C615 C614 1.363 . S
C615 C618 1.363 . S
N616 C618 1.356 . S
N616 H628 0.984 . S
N616 H629 0.985 . S
N617 C619 1.356 . S
N617 H622 0.984 . S
N617 H623 0.985 1_554 S
C618 C612 1.379 . S
C618 C615 1.363 . S
C618 N616 1.356 . S
C619 C613 1.363 . S
C619 C614 1.379 . S
C619 N617 1.356 . S
N620 C612 1.356 . S
N620 H626 0.984 . S
N620 H627 0.984 . S
N621 C614 1.356 . S
N621 H624 0.984 . S
N621 H625 0.985 1_554 S
H622 N617 0.984 . S
H623 N617 0.985 1_556 S
H624 N621 0.984 . S
H625 N621 0.985 1_556 S
H626 N620 0.984 . S
H627 N620 0.984 . S
H628 N616 0.984 . S
H629 N616 0.985 . S
C630 C631 1.363 . S
C630 C636 1.379 . S
C630 N638 1.356 . S
C631 C630 1.363 . S
C631 C637 1.363 . S
C632 C633 1.363 . S
C632 C637 1.379 . S
C632 N639 1.356 . S
C633 C632 1.363 . S
C633 C636 1.363 . S
N634 C636 1.356 . S
N634 H646 0.984 . S
N634 H647 0.985 . S
N635 C637 1.356 . S
N635 H640 0.984 . S
N635 H641 0.985 . S
C636 C630 1.379 . S
C636 C633 1.363 . S
C636 N634 1.356 . S
C637 C631 1.363 . S
C637 C632 1.379 . S
C637 N635 1.356 . S
N638 C630 1.356 . S
N638 H644 0.984 1_554 S
N638 H645 0.984 . S
N639 C632 1.356 . S
N639 H642 0.984 . S
N639 H643 0.985 . S
H640 N635 0.984 . S
H641 N635 0.985 . S
H642 N639 0.984 . S
H643 N639 0.985 . S
H644 N638 0.984 1_556 S
H645 N638 0.984 . S
H646 N634 0.984 . S
H647 N634 0.985 . S
C648 C649 1.363 . S
C648 C654 1.379 1_655 S
C648 N656 1.356 . S
C649 C648 1.363 . S
C649 C655 1.363 . S
C650 C651 1.363 1_655 S
C650 C655 1.379 . S
C650 N657 1.356 . S
C651 C650 1.363 1_455 S
C651 C654 1.363 . S
N652 C654 1.356 . S
N652 H664 0.984 . S
N652 H665 0.985 . S
N653 C655 1.356 . S
N653 H658 0.984 . S
N653 H659 0.985 . S
C654 C648 1.379 1_455 S
C654 C651 1.363 . S
C654 N652 1.356 . S
C655 C649 1.363 . S
C655 C650 1.379 . S
C655 N653 1.356 . S
N656 C648 1.356 . S
N656 H662 0.984 1_655 S
N656 H663 0.984 . S
N657 C650 1.356 . S
N657 H660 0.984 1_655 S
N657 H661 0.985 1_554 S
H658 N653 0.984 . S
H659 N653 0.985 . S
H660 N657 0.984 1_455 S
H661 N657 0.985 1_556 S
H662 N656 0.984 1_455 S
H663 N656 0.984 . S
H664 N652 0.984 . S
H665 N652 0.985 . S
C666 C667 1.363 1_545 S
C666 C672 1.379 . S
C666 N674 1.356 . S
C667 C666 1.363 1_565 S
C667 C673 1.363 . S
C668 C669 1.363 1_565 S
C668 C673 1.379 . S
C668 N675 1.356 . S
C669 C668 1.363 1_545 S
C669 C672 1.363 . S
N670 C672 1.356 . S
N670 H682 0.984 . S
N670 H683 0.985 . S
N671 C673 1.356 . S
N671 H676 0.984 . S
N671 H677 0.985 . S
C672 C666 1.379 . S
C672 C669 1.363 . S
C672 N670 1.356 . S
C673 C667 1.363 . S
C673 C668 1.379 . S
C673 N671 1.356 . S
N674 C666 1.356 . S
N674 H680 0.984 . S
N674 H681 0.984 1_545 S
N675 C668 1.356 . S
N675 H678 0.984 1_565 S
N675 H679 0.985 . S
H676 N671 0.984 . S
H677 N671 0.985 . S
H678 N675 0.984 1_545 S
H679 N675 0.985 . S
H680 N674 0.984 . S
H681 N674 0.984 1_565 S
H682 N670 0.984 . S
H683 N670 0.985 . S
C684 C685 1.363 . S
C684 C690 1.379 . S
C684 N692 1.356 . S
C685 C684 1.363 . S
C685 C691 1.363 . S
C686 C687 1.363 . S
C686 C691 1.379 . S
C686 N693 1.356 . S
C687 C686 1.363 . S
C687 C690 1.363 . S
N688 C690 1.356 . S
N688 H700 0.984 . S
N688 H701 0.985 . S
N689 C691 1.356 . S
N689 H694 0.984 . S
N689 H695 0.985 . S
C690 C684 1.379 . S
C690 C687 1.363 . S
C690 N688 1.356 . S
C691 C685 1.363 . S
C691 C686 1.379 . S
C691 N689 1.356 . S
N692 C684 1.356 . S
N692 H698 0.984 . S
N692 H699 0.984 . S
N693 C686 1.356 . S
N693 H696 0.984 . S
N693 H697 0.985 . S
H694 N689 0.984 . S
H695 N689 0.985 . S
H696 N693 0.984 . S
H697 N693 0.985 . S
H698 N692 0.984 . S
H699 N692 0.984 . S
H700 N688 0.984 . S
H701 N688 0.985 . S
C702 C703 1.363 . S
C702 C708 1.379 . S
C702 N710 1.356 . S
C703 C702 1.363 . S
C703 C709 1.363 . S
C704 C705 1.363 . S
C704 C709 1.379 . S
C704 N711 1.356 . S
C705 C704 1.363 . S
C705 C708 1.363 . S
N706 C708 1.356 . S
N706 H718 0.984 . S
N706 H719 0.985 . S
N707 C709 1.356 . S
N707 H712 0.984 . S
N707 H713 0.985 . S
C708 C702 1.379 . S
C708 C705 1.363 . S
C708 N706 1.356 . S
C709 C703 1.363 . S
C709 C704 1.379 . S
C709 N707 1.356 . S
N710 C702 1.356 . S
N710 H716 0.984 . S
N710 H717 0.984 . S
N711 C704 1.356 . S
N711 H714 0.984 . S
N711 H715 0.985 1_554 S
H712 N707 0.984 . S
H713 N707 0.985 . S
H714 N711 0.984 . S
H715 N711 0.985 1_556 S
H716 N710 0.984 . S
H717 N710 0.984 . S
H718 N706 0.984 . S
H719 N706 0.985 . S
C720 C721 1.363 . S
C720 C726 1.379 . S
C720 N728 1.356 . S
C721 C720 1.363 . S
C721 C727 1.363 . S
C722 C723 1.363 . S
C722 C727 1.379 . S
C722 N729 1.356 . S
C723 C722 1.363 . S
C723 C726 1.363 . S
N724 C726 1.356 . S
N724 H736 0.984 1_556 S
N724 H737 0.985 . S
N725 C727 1.356 . S
N725 H730 0.984 . S
N725 H731 0.985 . S
C726 C720 1.379 . S
C726 C723 1.363 . S
C726 N724 1.356 . S
C727 C721 1.363 . S
C727 C722 1.379 . S
C727 N725 1.356 . S
N728 C720 1.356 . S
N728 H734 0.984 1_556 S
N728 H735 0.984 . S
N729 C722 1.356 . S
N729 H732 0.984 . S
N729 H733 0.985 1_455 S
H730 N725 0.984 . S
H731 N725 0.985 . S
H732 N729 0.984 . S
H733 N729 0.985 1_655 S
H734 N728 0.984 1_554 S
H735 N728 0.984 . S
H736 N724 0.984 1_554 S
H737 N724 0.985 . S
C738 C739 1.363 . S
C738 C744 1.379 . S
C738 N746 1.356 . S
C739 C738 1.363 . S
C739 C745 1.363 . S
C740 C741 1.363 . S
C740 C745 1.379 . S
C740 N747 1.356 . S
C741 C740 1.363 . S
C741 C744 1.363 . S
N742 C744 1.356 . S
N742 H754 0.984 1_556 S
N742 H755 0.985 . S
N743 C745 1.356 . S
N743 H748 0.984 . S
N743 H749 0.985 . S
C744 C738 1.379 . S
C744 C741 1.363 . S
C744 N742 1.356 . S
C745 C739 1.363 . S
C745 C740 1.379 . S
C745 N743 1.356 . S
N746 C738 1.356 . S
N746 H752 0.984 1_556 S
N746 H753 0.984 . S
N747 C740 1.356 . S
N747 H750 0.984 . S
N747 H751 0.985 . S
H748 N743 0.984 . S
H749 N743 0.985 . S
H750 N747 0.984 . S
H751 N747 0.985 . S
H752 N746 0.984 1_554 S
H753 N746 0.984 . S
H754 N742 0.984 1_554 S
H755 N742 0.985 . S
C756 C757 1.363 . S
C756 C762 1.379 . S
C756 N764 1.356 . S
C757 C756 1.363 . S
C757 C763 1.363 . S
C758 C759 1.363 . S
C758 C763 1.379 . S
C758 N765 1.356 . S
C759 C758 1.363 . S
C759 C762 1.363 . S
N760 C762 1.356 . S
N760 H772 0.984 . S
N760 H773 0.985 . S
N761 C763 1.356 . S
N761 H766 0.984 . S
N761 H767 0.985 1_556 S
C762 C756 1.379 . S
C762 C759 1.363 . S
C762 N760 1.356 . S
C763 C757 1.363 . S
C763 C758 1.379 . S
C763 N761 1.356 . S
N764 C756 1.356 . S
N764 H770 0.984 . S
N764 H771 0.984 . S
N765 C758 1.356 . S
N765 H768 0.984 . S
N765 H769 0.985 1_556 S
H766 N761 0.984 . S
H767 N761 0.985 1_554 S
H768 N765 0.984 . S
H769 N765 0.985 1_554 S
H770 N764 0.984 . S
H771 N764 0.984 . S
H772 N760 0.984 . S
H773 N760 0.985 . S
C774 C775 1.363 . S
C774 C780 1.379 . S
C774 N782 1.356 . S
C775 C774 1.363 . S
C775 C781 1.363 . S
C776 C777 1.363 . S
C776 C781 1.379 . S
C776 N783 1.356 . S
C777 C776 1.363 . S
C777 C780 1.363 . S
N778 C780 1.356 . S
N778 H790 0.984 . S
N778 H791 0.985 . S
N779 C781 1.356 . S
N779 H784 0.984 . S
N779 H785 0.985 1_556 S
C780 C774 1.379 . S
C780 C777 1.363 . S
C780 N778 1.356 . S
C781 C775 1.363 . S
C781 C776 1.379 . S
C781 N779 1.356 . S
N782 C774 1.356 . S
N782 H788 0.984 . S
N782 H789 0.984 . S
N783 C776 1.356 . S
N783 H786 0.984 . S
N783 H787 0.985 1_556 S
H784 N779 0.984 . S
H785 N779 0.985 1_554 S
H786 N783 0.984 . S
H787 N783 0.985 1_554 S
H788 N782 0.984 . S
H789 N782 0.984 . S
H790 N778 0.984 . S
H791 N778 0.985 . S
C792 C793 1.363 . S
C792 C798 1.379 . S
C792 N800 1.356 . S
C793 C792 1.363 . S
C793 C799 1.363 . S
C794 C795 1.363 . S
C794 C799 1.379 . S
C794 N801 1.356 1_655 S
C795 C794 1.363 . S
C795 C798 1.363 . S
N796 C798 1.356 . S
N796 H808 0.984 . S
N796 H809 0.985 . S
N797 C799 1.356 . S
N797 H802 0.984 . S
N797 H803 0.985 1_655 S
C798 C792 1.379 . S
C798 C795 1.363 . S
C798 N796 1.356 . S
C799 C793 1.363 . S
C799 C794 1.379 . S
C799 N797 1.356 . S
N800 C792 1.356 . S
N800 H806 0.984 . S
N800 H807 0.984 . S
N801 C794 1.356 1_455 S
N801 H804 0.984 . S
N801 H805 0.985 . S
H802 N797 0.984 . S
H803 N797 0.985 1_455 S
H804 N801 0.984 . S
H805 N801 0.985 . S
H806 N800 0.984 . S
H807 N800 0.984 . S
H808 N796 0.984 . S
H809 N796 0.985 . S
C810 C811 1.363 . S
C810 C816 1.379 . S
C810 N818 1.356 . S
C811 C810 1.363 . S
C811 C817 1.363 . S
C812 C813 1.363 . S
C812 C817 1.379 . S
C812 N819 1.356 1_565 S
C813 C812 1.363 . S
C813 C816 1.363 . S
N814 C816 1.356 . S
N814 H826 0.984 . S
N814 H827 0.985 . S
N815 C817 1.356 1_545 S
N815 H820 0.984 . S
N815 H821 0.985 . S
C816 C810 1.379 . S
C816 C813 1.363 . S
C816 N814 1.356 . S
C817 C811 1.363 . S
C817 C812 1.379 . S
C817 N815 1.356 1_565 S
N818 C810 1.356 . S
N818 H824 0.984 . S
N818 H825 0.984 . S
N819 C812 1.356 1_545 S
N819 H822 0.984 . S
N819 H823 0.985 . S
H820 N815 0.984 . S
H821 N815 0.985 . S
H822 N819 0.984 . S
H823 N819 0.985 . S
H824 N818 0.984 . S
H825 N818 0.984 . S
H826 N814 0.984 . S
H827 N814 0.985 . S
C828 C829 1.363 . S
C828 C834 1.379 . S
C828 N836 1.356 . S
C829 C828 1.363 . S
C829 C835 1.363 . S
C830 C831 1.363 . S
C830 C835 1.379 . S
C830 N837 1.356 . S
C831 C830 1.363 . S
C831 C834 1.363 . S
N832 C834 1.356 . S
N832 H844 0.984 . S
N832 H845 0.985 . S
N833 C835 1.356 . S
N833 H838 0.984 . S
N833 H839 0.985 . S
C834 C828 1.379 . S
C834 C831 1.363 . S
C834 N832 1.356 . S
C835 C829 1.363 . S
C835 C830 1.379 . S
C835 N833 1.356 . S
N836 C828 1.356 . S
N836 H842 0.984 . S
N836 H843 0.984 . S
N837 C830 1.356 . S
N837 H840 0.984 . S
N837 H841 0.985 . S
H838 N833 0.984 . S
H839 N833 0.985 . S
H840 N837 0.984 . S
H841 N837 0.985 . S
H842 N836 0.984 . S
H843 N836 0.984 . S
H844 N832 0.984 . S
H845 N832 0.985 . S
C846 C847 1.363 . S
C846 C852 1.379 . S
C846 N854 1.356 . S
C847 C846 1.363 . S
C847 C853 1.363 . S
C848 C849 1.363 . S
C848 C853 1.379 . S
C848 N855 1.356 . S
C849 C848 1.363 . S
C849 C852 1.363 . S
N850 C852 1.356 . S
N850 H862 0.984 . S
N850 H863 0.985 . S
N851 C853 1.356 . S
N851 H856 0.984 . S
N851 H857 0.985 . S
C852 C846 1.379 . S
C852 C849 1.363 . S
C852 N850 1.356 . S
C853 C847 1.363 . S
C853 C848 1.379 . S
C853 N851 1.356 . S
N854 C846 1.356 . S
N854 H860 0.984 . S
N854 H861 0.984 . S
N855 C848 1.356 . S
N855 H858 0.984 . S
N855 H859 0.985 . S
H856 N851 0.984 . S
H857 N851 0.985 . S
H858 N855 0.984 . S
H859 N855 0.985 . S
H860 N854 0.984 . S
H861 N854 0.984 . S
H862 N850 0.984 . S
H863 N850 0.985 . S
C433 C76 1.940 . S
C435 C170 2.102 . S
C453 C254 2.112 . S
C451 C88 1.949 . S
C471 C320 2.021 . S
C469 C52 2.020 . S
C489 C404 2.014 . S
C487 C64 2.012 . S
C507 C159 2.102 1_564 S
C505 C28 1.951 . S
C523 C40 1.960 . S
C525 C243 2.112 1_554 S
C541 C4 2.032 . S
C543 C331 2.021 . S
C559 C16 2.023 . S
C561 C415 2.009 1_554 S
C579 C166 0.959 . S
C577 C69 0.889 . S
C597 C250 0.924 . S
C595 C81 0.863 . S
C615 C322 0.878 . S
C613 C93 0.841 . S
C631 C57 0.865 . S
C633 C406 0.912 . S
C649 C21 0.879 . S
C651 C154 0.936 . S
C669 C238 0.900 . S
C667 C33 0.855 . S
C687 C334 0.878 . S
C685 C45 0.835 . S
C703 C9 0.857 . S
C705 C418 0.912 . S
C721 C66 2.126 . S
C723 C163 2.227 . S
C739 C78 2.104 . S
C741 C247 2.206 . S
C759 C327 2.296 . S
C757 C90 2.026 . S
C777 C411 2.316 . S
C775 C54 2.047 . S
C793 C18 2.115 . S
C795 C152 2.227 . S
C813 C236 2.206 . S
C811 C30 2.095 . S
C831 C338 2.296 . S
C829 C42 2.015 . S
C847 C6 2.034 . S
C849 C422 2.316 . S
