# Generated by pormake.
# Topology pyr, (3,6)-cn, num edge types: 1
# Building blocks:
#     Node 0, Type 0, BuildingBlock: BETDIP_clean_linker_0, # of connection points: 3
#     Node 1, Type 0, BuildingBlock: BETDIP_clean_linker_0, # of connection points: 3
#     Node 2, Type 0, BuildingBlock: BETDIP_clean_linker_0, # of connection points: 3
#     Node 3, Type 0, BuildingBlock: BETDIP_clean_linker_0, # of connection points: 3
#     Node 4, Type 0, BuildingBlock: BETDIP_clean_linker_0, # of connection points: 3
#     Node 5, Type 0, BuildingBlock: BETDIP_clean_linker_0, # of connection points: 3
#     Node 6, Type 0, BuildingBlock: BETDIP_clean_linker_0, # of connection points: 3
#     Node 7, Type 0, BuildingBlock: BETDIP_clean_linker_0, # of connection points: 3
#     Node 8, Type 1, BuildingBlock: BETFAJ_clean_sbu_0, # of connection points: 6
#     Node 9, Type 1, BuildingBlock: BETFAJ_clean_sbu_0, # of connection points: 6
#     Node 10, Type 1, BuildingBlock: BETFAJ_clean_sbu_0, # of connection points: 6
#     Node 11, Type 1, BuildingBlock: BETFAJ_clean_sbu_0, # of connection points: 6
#     Edge 12, Type (0, 1), BuildingBlock: AJUNOK_clean_linker_0, # of connection points: 2
#     Edge 13, Type (0, 1), BuildingBlock: AJUNOK_clean_linker_0, # of connection points: 2
#     Edge 14, Type (0, 1), BuildingBlock: AJUNOK_clean_linker_0, # of connection points: 2
#     Edge 15, Type (0, 1), BuildingBlock: AJUNOK_clean_linker_0, # of connection points: 2
#     Edge 16, Type (0, 1), BuildingBlock: AJUNOK_clean_linker_0, # of connection points: 2
#     Edge 17, Type (0, 1), BuildingBlock: AJUNOK_clean_linker_0, # of connection points: 2
#     Edge 18, Type (0, 1), BuildingBlock: AJUNOK_clean_linker_0, # of connection points: 2
#     Edge 19, Type (0, 1), BuildingBlock: AJUNOK_clean_linker_0, # of connection points: 2
#     Edge 20, Type (0, 1), BuildingBlock: AJUNOK_clean_linker_0, # of connection points: 2
#     Edge 21, Type (0, 1), BuildingBlock: AJUNOK_clean_linker_0, # of connection points: 2
#     Edge 22, Type (0, 1), BuildingBlock: AJUNOK_clean_linker_0, # of connection points: 2
#     Edge 23, Type (0, 1), BuildingBlock: AJUNOK_clean_linker_0, # of connection points: 2
#     Edge 24, Type (0, 1), BuildingBlock: AJUNOK_clean_linker_0, # of connection points: 2
#     Edge 25, Type (0, 1), BuildingBlock: AJUNOK_clean_linker_0, # of connection points: 2
#     Edge 26, Type (0, 1), BuildingBlock: AJUNOK_clean_linker_0, # of connection points: 2
#     Edge 27, Type (0, 1), BuildingBlock: AJUNOK_clean_linker_0, # of connection points: 2
#     Edge 28, Type (0, 1), BuildingBlock: AJUNOK_clean_linker_0, # of connection points: 2
#     Edge 29, Type (0, 1), BuildingBlock: AJUNOK_clean_linker_0, # of connection points: 2
#     Edge 30, Type (0, 1), BuildingBlock: AJUNOK_clean_linker_0, # of connection points: 2
#     Edge 31, Type (0, 1), BuildingBlock: AJUNOK_clean_linker_0, # of connection points: 2
#     Edge 32, Type (0, 1), BuildingBlock: AJUNOK_clean_linker_0, # of connection points: 2
#     Edge 33, Type (0, 1), BuildingBlock: AJUNOK_clean_linker_0, # of connection points: 2
#     Edge 34, Type (0, 1), BuildingBlock: AJUNOK_clean_linker_0, # of connection points: 2
#     Edge 35, Type (0, 1), BuildingBlock: AJUNOK_clean_linker_0, # of connection points: 2
# Relax obj value: 0.189
# Max RMSD: 0.181
# Mean RMSD: 0.138
data_MOF--net-pyr--node1-BETFAJ_clean_sbu_0--node2-BETDIP_clean_linker_0--edge1-AJUNOK_clean_linker_0
_symmetry_space_group_name_H-M    P1
_symmetry_Int_Tables_number       1
_symmetry_cell_setting            triclinic
loop_
_symmetry_equiv_pos_as_xyz
'x, y, z'
_cell_length_a     27.824304
_cell_length_b     29.294691
_cell_length_c     27.982022
_cell_angle_alpha  91.674135
_cell_angle_beta   87.638904
_cell_angle_gamma 108.44209
loop_
_atom_site_label
_atom_site_type_symbol
_atom_site_fract_x
_atom_site_fract_y
_atom_site_fract_z
_atom_type_partial_charge
H0 H 0.38479 0.38339 0.24553 0.0
H1 H 0.47559 0.33378 0.14102 0.0
H2 H 0.42739 0.25937 0.27367 0.0
H3 H 0.42682 0.46105 0.20065 0.0
C4 C 0.40859 0.43712 0.17167 0.0
C5 C 0.40758 0.36054 0.23536 0.0
C6 C 0.40464 0.3219 0.26436 0.0
C7 C 0.43339 0.3654 0.19077 0.0
C8 C 0.45815 0.33187 0.17656 0.0
C9 C 0.45706 0.29391 0.20693 0.0
C10 C 0.43127 0.29013 0.25137 0.0
N11 N 0.42864 0.39952 0.15767 0.0
H12 H 0.17829 0.87394 0.72998 0.0
H13 H 0.20412 0.81062 0.59476 0.0
H14 H 0.32923 0.87943 0.68442 0.0
H15 H 0.11176 0.82139 0.57898 0.0
C16 C 0.11789 0.84486 0.61042 0.0
C17 C 0.20418 0.8662 0.70334 0.0
C18 C 0.25611 0.87998 0.71131 0.0
C19 C 0.18564 0.842 0.66093 0.0
C20 C 0.21893 0.83122 0.6267 0.0
C21 C 0.27085 0.84476 0.635 0.0
C22 C 0.28928 0.87011 0.67692 0.0
N23 N 0.13341 0.8289 0.65243 0.0
H24 H 0.74808 0.46947 0.87604 0.0
H25 H 0.6174 0.34331 0.8622 0.0
H26 H 0.72611 0.34978 0.9695 0.0
H27 H 0.61879 0.37785 0.78376 0.0
C28 C 0.63122 0.41655 0.78982 0.0
C29 C 0.72634 0.43372 0.88774 0.0
C30 C 0.74474 0.41222 0.92461 0.0
C31 C 0.68069 0.40975 0.86463 0.0
C32 C 0.65249 0.36226 0.87931 0.0
C33 C 0.66939 0.33962 0.91691 0.0
C34 C 0.71491 0.36565 0.93916 0.0
N35 N 0.66434 0.43588 0.82873 0.0
H36 H 0.8128 0.6492 0.38384 0.0
H37 H 0.93533 0.7806 0.35953 0.0
H38 H 0.82838 0.77021 0.47829 0.0
H39 H 0.94562 0.74337 0.28619 0.0
C40 C 0.92935 0.70472 0.29015 0.0
C41 C 0.83274 0.68616 0.3939 0.0
C42 C 0.81515 0.70704 0.43402 0.0
C43 C 0.87628 0.71183 0.36685 0.0
C44 C 0.90239 0.76028 0.38041 0.0
C45 C 0.88545 0.78214 0.42115 0.0
C46 C 0.8419 0.7546 0.4471 0.0
N47 N 0.89265 0.68626 0.32806 0.0
H48 H 0.60414 0.81061 0.98142 0.0
H49 H 0.68008 0.7509 0.87148 0.0
H50 H 0.64059 0.87731 0.84421 0.0
H51 H 0.64689 0.68006 0.92151 0.0
C52 C 0.66644 0.70413 0.94986 0.0
C53 C 0.61767 0.8098 0.94463 0.0
C54 C 0.61553 0.84549 0.91287 0.0
C55 C 0.6399 0.77468 0.92972 0.0
C56 C 0.66003 0.77579 0.88287 0.0
C57 C 0.66157 0.81325 0.85247 0.0
C58 C 0.63736 0.84688 0.86674 0.0
N59 N 0.64839 0.74307 0.96368 0.0
H60 H 0.89395 0.25609 0.40181 0.0
H61 H 0.87024 0.3398 0.52435 0.0
H62 H 0.75443 0.28912 0.42135 0.0
H63 H 0.90841 0.2881 0.55819 0.0
C64 C 0.93213 0.27815 0.53066 0.0
C65 C 0.87055 0.27373 0.42201 0.0
C66 C 0.82268 0.27093 0.40613 0.0
C67 C 0.88746 0.29786 0.465 0.0
C68 C 0.85704 0.32023 0.49148 0.0
C69 C 0.80911 0.31654 0.47573 0.0
C70 C 0.79185 0.29175 0.43337 0.0
N71 N 0.93247 0.29461 0.48365 0.0
H72 H 0.32793 0.67145 0.2366 0.0
H73 H 0.45573 0.79949 0.25474 0.0
H74 H 0.34251 0.79743 0.15401 0.0
H75 H 0.45387 0.76465 0.33343 0.0
C76 C 0.44005 0.72588 0.32807 0.0
C77 C 0.34773 0.70845 0.22736 0.0
C78 C 0.32892 0.73039 0.19107 0.0
C79 C 0.39206 0.73305 0.25226 0.0
C80 C 0.42018 0.78083 0.23822 0.0
C81 C 0.4033 0.80342 0.20071 0.0
C82 C 0.35675 0.77848 0.17971 0.0
N83 N 0.40764 0.70684 0.28861 0.0
H84 H 0.12758 0.33551 0.75668 0.0
H85 H 0.24184 0.47441 0.74135 0.0
H86 H 0.23595 0.36308 0.63778 0.0
H87 H 0.22254 0.48505 0.8163 0.0
C88 C 0.18271 0.46659 0.82387 0.0
C89 C 0.15992 0.35924 0.73734 0.0
C90 C 0.18012 0.34187 0.69569 0.0
C91 C 0.18159 0.40705 0.75489 0.0
C92 C 0.22482 0.43747 0.72992 0.0
C93 C 0.24549 0.42114 0.6884 0.0
C94 C 0.22164 0.37425 0.67109 0.0
N95 N 0.1587 0.4236 0.79657 0.0
Sm96 Sm 0.07476 0.07694 0.5163 0.0
Sm97 Sm 1.00486 1.04091 0.60594 0.0
C98 C 0.11669 0.09998 0.4314 0.0
C99 C 0.15899 0.14111 0.41546 0.0
C100 C 0.15 0.1831 0.40124 0.0
C101 C 0.19022 0.22282 0.38755 0.0
C102 C 0.23964 0.22021 0.3859 0.0
C103 C 0.24903 0.17905 0.40186 0.0
C104 C 0.2089 0.13966 0.41661 0.0
C105 C 0.11324 1.03329 0.58315 0.0
C106 C 0.09035 0.15015 0.60719 0.0
C107 C 0.96967 0.9979 0.68625 0.0
C108 C 0.92054 0.96271 0.69795 0.0
C109 C 0.9181 0.91527 0.70698 0.0
C110 C 0.87183 0.88125 0.71841 0.0
C111 C 0.82759 0.89455 0.72195 0.0
C112 C 0.82954 0.94128 0.71001 0.0
C113 C 0.87573 0.97515 0.69776 0.0
C114 C 0.96219 0.0953 0.55529 0.0
C115 C 0.9827 0.97131 0.51092 0.0
O116 O 0.07534 0.10924 0.44588 0.0
O117 O 0.12849 0.07 0.45877 0.0
O118 O 0.06838 1.02138 0.56983 0.0
O119 O 0.14107 0.07054 0.55955 0.0
O120 O 0.09787 0.14739 0.56036 0.0
O121 O 0.0633 0.11245 0.63246 0.0
O122 O 0.99855 0.98248 0.65613 0.0
O123 O 0.96984 1.04173 0.67807 0.0
O124 O 1.00208 0.08543 0.54393 0.0
O125 O 0.93962 0.07059 0.59218 0.0
O126 O 0.96585 0.97814 0.55464 0.0
O127 O 1.0222 1.00312 0.49014 0.0
H128 H 0.11189 0.18498 0.39973 0.0
H129 H 0.18249 0.25449 0.37535 0.0
H130 H 0.28697 0.17621 0.40016 0.0
H131 H 0.21695 0.10779 0.42774 0.0
H132 H 0.95216 0.90479 0.70625 0.0
H133 H 0.87102 0.84531 0.72754 0.0
H134 H 0.79608 0.95266 0.71341 0.0
H135 H 0.87638 1.01129 0.68972 0.0
Sm136 Sm 0.58397 0.07589 0.07459 0.0
Sm137 Sm 0.49642 0.06575 1.04637 0.0
C138 C 0.67523 0.09805 0.10937 0.0
C139 C 0.69776 0.11899 0.15384 0.0
C140 C 0.74407 0.15591 0.1515 0.0
C141 C 0.76441 0.18001 0.19296 0.0
C142 C 0.73864 0.16696 0.23694 0.0
C143 C 0.69261 0.12951 0.23963 0.0
C144 C 0.67183 0.10575 0.19798 0.0
C145 C 0.51672 0.9898 0.11089 0.0
C146 C 0.51869 0.1326 0.1345 0.0
C147 C 0.40382 1.03845 1.01425 0.0
C148 C 0.38096 1.01795 0.96961 0.0
C149 C 0.34385 0.97273 0.97066 0.0
C150 C 0.3241 0.9502 0.92836 0.0
C151 C 0.34103 0.97303 0.88481 0.0
C152 C 0.37768 1.01853 0.88348 0.0
C153 C 0.398 1.0409 0.92584 0.0
C154 C 0.56075 0.15258 1.00913 0.0
C155 C 0.56517 1.01288 0.98415 0.0
O156 O 0.66091 0.12709 0.08324 0.0
O157 O 0.64243 1.05515 0.11161 0.0
O158 O 0.50986 1.03068 0.11396 0.0
O159 O 0.55688 0.99309 0.08462 0.0
O160 O 0.56479 0.13629 0.11885 0.0
O161 O 0.48165 0.09669 0.11848 0.0
O162 O 0.42194 1.01042 1.03809 0.0
O163 O 0.43338 0.08289 1.0135 0.0
O164 O 0.5706 0.11285 1.00781 0.0
O165 O 0.51835 0.14703 1.03247 0.0
O166 O 0.51841 1.00831 0.99868 0.0
O167 O 0.60143 1.04801 1.00228 0.0
H168 H 0.76382 0.16681 0.11745 0.0
H169 H 0.80001 0.20908 0.19076 0.0
H170 H 0.67234 0.11964 0.27362 0.0
H171 H 0.63533 0.07789 0.20016 0.0
H172 H 0.33085 0.9545 1.00418 0.0
H173 H 0.29561 0.91502 0.92955 0.0
H174 H 0.39106 1.03617 0.84975 0.0
H175 H 0.42729 0.07556 0.9242 0.0
Sm176 Sm 0.5228 0.52996 0.53137 0.0
Sm177 Sm 0.53645 0.60902 0.59169 0.0
C178 C 0.53878 0.45775 0.48322 0.0
C179 C 0.57889 0.43751 0.49227 0.0
C180 C 0.62169 0.46571 0.51658 0.0
C181 C 0.65958 0.44664 0.52741 0.0
C182 C 0.65541 0.39931 0.51353 0.0
C183 C 0.61227 0.37097 0.48956 0.0
C184 C 0.57388 0.38992 0.47939 0.0
C185 C 0.43288 0.52339 0.58091 0.0
C186 C 0.57102 0.52708 0.6397 0.0
C187 C 0.5191 0.68089 0.63964 0.0
C188 C 0.48565 0.70746 0.62603 0.0
C189 C 0.4465 0.68583 0.59458 0.0
C190 C 0.41488 0.7108 0.58019 0.0
C191 C 0.42064 0.75716 0.5985 0.0
C192 C 0.46016 0.77888 0.62986 0.0
C193 C 0.493 0.75435 0.64297 0.0
C194 C 0.6269 0.61462 0.54439 0.0
C195 C 0.49208 0.61331 0.48151 0.0
O196 O 0.55473 0.50179 0.4677 0.0
O197 O 0.50415 0.45141 0.51745 0.0
O198 O 0.47642 0.53607 0.59846 0.0
O199 O 0.43631 0.51536 0.53522 0.0
O200 O 0.56406 0.50885 0.5956 0.0
O201 O 0.56044 0.56706 0.64984 0.0
O202 O 0.49595 0.63591 0.64998 0.0
O203 O 0.5592 0.68669 0.61167 0.0
O204 O 0.58394 0.60244 0.52547 0.0
O205 O 0.6224 0.62293 0.58995 0.0
O206 O 0.50164 0.63312 0.52472 0.0
O207 O 0.49844 0.57122 0.47286 0.0
H208 H 0.62617 0.50276 0.52672 0.0
H209 H 0.69268 0.46917 0.5455 0.0
H210 H 0.60903 0.33479 0.47716 0.0
H211 H 0.54084 0.36781 0.46095 0.0
H212 H 0.43936 0.64909 0.58206 0.0
H213 H 0.3846 0.69309 0.55633 0.0
H214 H 0.46439 0.8139 0.64602 0.0
H215 H 0.52308 0.77137 0.66726 0.0
Sm216 Sm 0.03633 0.52857 0.08208 0.0
Sm217 Sm 0.04093 0.6146 1.02826 0.0
C218 C 0.06008 0.45187 0.10535 0.0
C219 C 0.10911 0.44457 0.11373 0.0
C220 C 0.14861 0.45603 0.07865 0.0
C221 C 0.1957 0.45139 0.08821 0.0
C222 C 0.20432 0.43568 0.13304 0.0
C223 C 0.16506 0.42466 0.16818 0.0
C224 C 0.11775 0.4288 0.15848 0.0
C225 C 0.99172 0.58155 0.144 0.0
C226 C 0.13621 0.62635 0.09616 0.0
C227 C 1.01813 0.68677 0.99166 0.0
C228 C 0.96907 0.69526 0.98838 0.0
C229 C 0.93078 0.67847 1.024 0.0
C230 C 0.88306 0.68374 1.01907 0.0
C231 C 0.87269 0.70529 0.97823 0.0
C232 C 0.911 0.72195 0.9427 0.0
C233 C 0.95892 0.71713 0.94786 0.0
C234 C 0.09473 0.56057 0.98047 0.0
C235 C 0.93756 0.51729 1.01929 0.0
O236 O 0.05166 0.4607 0.06151 0.0
O237 O 0.04549 0.47886 0.13694 0.0
O238 O 1.00953 0.59355 0.1021 0.0
O239 O 0.99292 0.5386 0.1522 0.0
O240 O 0.11719 0.57914 0.10011 0.0
O241 O 0.1121 0.6503 0.07251 0.0
O242 O 0.03503 0.68818 1.03478 0.0
O243 O 1.02358 0.65087 0.9656 0.0
O244 O 0.05172 0.54385 1.00196 0.0
O245 O 0.1104 0.60715 0.98527 0.0
O246 O 0.95964 0.56355 1.01014 0.0
O247 O 0.95944 0.49436 0.04684 0.0
H248 H 0.1435 0.46925 1.04408 0.0
H249 H 0.22578 0.46112 0.06092 0.0
H250 H 0.171 0.41279 0.20312 0.0
H251 H 0.08808 0.42038 0.18621 0.0
H252 H 0.93744 0.66047 0.05517 0.0
H253 H 0.8538 0.66971 1.04645 0.0
H254 H 0.90369 0.73839 0.91078 0.0
H255 H 0.98776 0.72964 0.9198 0.0
C256 C 0.36914 0.2992 0.3465 0.0
C257 C 0.36166 0.30544 0.29821 0.0
C258 C 0.32828 0.27453 0.37642 0.0
C259 C 0.27945 0.2552 0.35833 0.0
H260 H 0.40692 0.31153 0.36047 0.0
H261 H 0.33522 0.26833 0.41312 0.0
S262 S 0.24165 0.26021 0.23352 0.0
N263 N 0.30276 0.29039 0.23337 0.0
N264 N 0.22618 0.24303 0.2892 0.0
C265 C 0.27152 0.26246 0.31034 0.0
C266 C 0.31275 0.28781 0.28025 0.0
C267 C 0.2708 0.94679 0.77064 0.0
C268 C 0.27617 0.90228 0.75664 0.0
C269 C 0.29281 0.97012 0.81221 0.0
C270 C 0.32007 0.94907 0.84069 0.0
H271 H 0.2503 0.96392 0.7489 0.0
H272 H 0.28819 1.0045 0.82242 0.0
S273 S 0.34455 0.83302 0.81943 0.0
N274 N 0.31021 0.8378 0.7742 0.0
N275 N 0.35176 0.88207 0.85272 0.0
C276 C 0.3255 0.90455 0.82727 0.0
C277 C 0.3034 0.88095 0.78498 0.0
C278 C 0.60171 0.42672 0.70724 0.0
C279 C 0.61868 0.44743 0.75224 0.0
C280 C 0.58794 0.45285 0.6712 0.0
C281 C 0.5892 0.50117 0.67825 0.0
H282 H 0.59898 0.38953 0.69962 0.0
H283 H 0.57515 0.43444 0.63769 0.0
S284 S 0.63107 0.57338 0.78948 0.0
N285 N 0.63671 0.52037 0.80117 0.0
N286 N 0.60987 0.56886 0.73467 0.0
C287 C 0.60635 0.52258 0.72312 0.0
C288 C 0.62127 0.49606 0.7596 0.0
C289 C 0.97034 0.69142 0.21033 0.0
C290 C 0.9429 0.67198 0.25266 0.0
C291 C 0.98459 0.66218 0.17477 0.0
C292 C 0.9728 0.61203 0.18009 0.0
H293 H 0.98109 0.7298 0.20461 0.0
H294 H 1.00602 0.67926 0.14334 0.0
S295 S 0.90058 0.54248 0.28354 0.0
N296 N 0.90362 0.59857 0.29682 0.0
N297 N 0.93075 0.54429 0.23121 0.0
C298 C 0.94496 0.59211 0.22207 0.0
C299 C 0.92997 0.62176 0.25792 0.0
C300 C 0.44208 0.20607 0.19312 0.0
C301 C 0.47519 0.25359 0.19012 0.0
C302 C 0.4575 0.16696 0.17745 0.0
C303 C 0.50673 0.17371 0.15826 0.0
H304 H 0.40344 0.19907 0.20673 0.0
H305 H 0.43008 0.13123 0.17925 0.0
S306 S 0.60782 0.29115 0.14272 0.0
N307 N 0.55931 0.30538 0.16721 0.0
N308 N 0.58853 0.23192 0.137 0.0
C309 C 0.54046 0.22107 0.15565 0.0
C310 C 0.52456 0.26099 0.17154 0.0
C311 C 0.11454 0.92335 0.64414 0.0
C312 C 0.12646 0.89672 0.60542 0.0
C313 C 0.1167 0.97127 0.63862 0.0
C314 C 0.13224 0.99412 0.59473 0.0
H315 H 0.10035 0.90617 0.67792 0.0
H316 H 0.10257 0.98936 0.66763 0.0
S317 S 0.175 0.94211 0.48504 0.0
N318 N 0.15955 0.89781 0.5237 0.0
N319 N 0.1646 0.98847 0.51351 0.0
C320 C 0.14855 0.96914 0.55716 0.0
C321 C 0.14523 0.92009 0.56242 0.0
C322 C 0.80996 0.48905 0.95655 0.0
C323 C 0.7945 0.43858 0.94855 0.0
C324 C 0.85572 0.51406 0.97925 0.0
C325 C 0.88821 0.48997 0.99607 0.0
H326 H 0.78623 0.50966 0.94575 0.0
H327 H 0.86537 0.5527 0.98412 0.0
S328 S 0.86908 0.35899 0.98056 0.0
N329 N 0.81923 0.36651 0.95611 0.0
N330 N 0.90263 0.41268 1.0006 0.0
C331 C 0.87363 0.43972 0.98798 0.0
C332 C 0.82769 0.41438 0.96394 0.0
C333 C 0.7229 0.65573 0.43978 0.0
C334 C 0.76849 0.6798 0.46258 0.0
C335 C 0.67762 0.63361 0.46629 0.0
C336 C 0.67603 0.63446 0.51675 0.0
H337 H 0.7218 0.6553 0.40112 0.0
H338 H 0.64335 0.61664 0.44703 0.0
S339 S 0.78573 0.68989 0.59387 0.0
N340 N 0.80956 0.70062 0.53882 0.0
N341 N 0.72506 0.65977 0.5883 0.0
C342 C 0.72173 0.65719 0.5399 0.0
C343 C 0.76767 0.67968 0.51299 0.0
C344 C 0.3304 0.45895 0.19188 0.0
C345 C 0.35558 0.43391 0.16171 0.0
C346 C 0.28086 0.45816 0.18322 0.0
C347 C 0.25497 0.43277 0.14368 0.0
H348 H 0.34925 0.47959 0.22236 0.0
H349 H 0.26321 0.47861 0.20686 0.0
S350 S 0.30199 0.35808 0.05615 0.0
N351 N 0.34938 0.38035 0.09253 0.0
N352 N 0.25652 0.37955 0.07589 0.0
C353 C 0.27902 0.40648 0.11403 0.0
C354 C 0.32925 0.40678 0.12318 0.0
C355 C 0.6648 0.25561 0.94501 0.0
C356 C 0.63987 0.28969 0.93544 0.0
C357 C 0.6393 0.21083 0.96703 0.0
C358 C 0.58763 0.19806 0.98149 0.0
H359 H 0.70483 0.26393 0.93592 0.0
H360 H 0.66069 0.18679 0.97413 0.0
S361 S 0.50429 0.27355 0.96504 0.0
N362 N 0.55977 0.30614 0.94221 0.0
N363 N 0.51247 0.22362 0.98354 0.0
C364 C 0.56223 0.23153 0.97157 0.0
C365 C 0.58797 0.27662 0.9486 0.0
C366 C 0.88326 0.86075 0.46056 0.0
C367 C 0.91202 0.83299 0.43882 0.0
C368 C 0.90613 0.90503 0.48396 0.0
C369 C 0.95896 0.92502 0.48493 0.0
H370 H 0.84227 0.84794 0.46027 0.0
H371 H 0.88217 0.92396 0.50112 0.0
S372 S 0.05284 0.87019 0.43231 0.0
N373 N 0.99744 0.83047 0.42039 0.0
N374 N 0.04005 0.91533 0.46085 0.0
C375 C 0.98854 0.8994 0.46157 0.0
C376 C 0.96528 0.85328 0.4392 0.0
C377 C 0.29213 0.7732 0.60659 0.0
C378 C 0.30452 0.82349 0.60713 0.0
C379 C 0.32975 0.75144 0.59916 0.0
C380 C 0.38078 0.77937 0.59155 0.0
H381 H 0.25437 0.75081 0.61738 0.0
H382 H 0.31932 0.71295 0.60412 0.0
S383 S 0.43015 0.91162 0.5782 0.0
N384 N 0.36914 0.90016 0.59162 0.0
N385 N 0.44002 0.85888 0.57569 0.0
C386 C 0.39242 0.82917 0.58586 0.0
C387 C 0.35415 0.85138 0.594 0.0
C388 C 0.75086 0.83023 0.8262 0.0
C389 C 0.70093 0.82533 0.81407 0.0
C390 C 0.7912 0.84929 0.79425 0.0
C391 C 0.78323 0.86437 0.74897 0.0
H392 H 0.7593 0.82206 0.86183 0.0
H393 H 0.8292 0.85539 0.80655 0.0
S394 S 0.65945 0.85403 0.69784 0.0
N395 N 0.645 0.83316 0.75261 0.0
N396 N 0.72183 0.86924 0.69155 0.0
C397 C 0.73339 0.85727 0.73517 0.0
C398 C 0.69196 0.83779 0.76804 0.0
C399 C 0.79786 0.19622 0.3566 0.0
C400 C 0.80358 0.24545 0.36175 0.0
C401 C 0.77576 0.17048 0.31608 0.0
C402 C 0.75954 0.19367 0.27987 0.0
H403 H 0.80957 0.17746 0.38443 0.0
H404 H 0.77169 0.1325 0.31278 0.0
S405 S 0.7656 0.32154 0.27685 0.0
N406 N 0.7911 0.31626 0.32785 0.0
N407 N 0.74955 0.26753 0.2513 0.0
C408 C 0.76503 0.24271 0.28452 0.0
C409 C 0.78715 0.26879 0.32573 0.0
C410 C 0.47089 0.71627 0.41027 0.0
C411 C 0.45084 0.69474 0.36646 0.0
C412 C 0.48274 0.68972 0.44709 0.0
C413 C 0.47621 0.63999 0.4421 0.0
H414 H 0.47758 0.75444 0.41633 0.0
H415 H 0.49812 0.70881 0.47957 0.0
S416 S 0.42423 0.56513 0.33488 0.0
N417 N 0.42404 0.61952 0.32103 0.0
N418 N 0.44715 0.57014 0.38902 0.0
C419 C 0.45593 0.61777 0.39848 0.0
C420 C 0.44308 0.64482 0.36118 0.0
C421 C 0.11232 0.46399 0.88846 0.0
C422 C 0.15749 0.48901 0.86291 0.0
C423 C 0.09226 0.48645 0.92687 0.0
C424 C 0.1163 0.53494 0.94117 0.0
H425 H 0.09275 0.42674 0.87929 0.0
H426 H 0.05759 0.46571 0.94532 0.0
S427 S 0.2344 0.61649 0.88443 0.0
N428 N 0.22436 0.5653 0.85429 0.0
N429 N 0.18774 0.60667 0.92502 0.0
C430 C 0.16115 0.55993 0.91535 0.0
C431 C 0.18131 0.53729 0.87677 0.0
C432 C 0.63316 0.92102 0.96075 0.0
C433 C 0.60072 0.88724 0.93041 0.0
C434 C 0.62233 0.96271 0.97588 0.0
C435 C 0.57817 0.97181 0.96177 0.0
H436 H 0.6674 0.91531 0.97258 0.0
H437 H 0.64809 0.98718 1.0001 0.0
S438 S 0.48216 0.89504 0.881 0.0
N439 N 0.52419 0.86618 0.88476 0.0
N440 N 0.50245 0.94393 0.91505 0.0
C441 C 0.54561 0.93839 0.93115 0.0
C442 C 0.5573 0.89629 0.91487 0.0
C443 C 0.90341 0.19444 0.55954 0.0
C444 C 0.94013 0.23154 0.53542 0.0
C445 C 0.90909 0.14891 0.56244 0.0
C446 C 0.95197 0.13936 0.54179 0.0
H447 H 0.87005 0.20061 0.5761 0.0
H448 H 0.88058 0.12156 0.58252 0.0
S449 S 0.05816 0.22536 0.47421 0.0
N450 N 1.01946 0.25632 0.4894 0.0
N451 N 1.03105 0.17094 0.49555 0.0
C452 C 0.98814 0.17607 0.5164 0.0
C453 C 0.98204 0.22225 0.51316 0.0
C454 C 0.24003 0.66831 0.18925 0.0
C455 C 0.28035 0.70329 0.16531 0.0
C456 C 0.19436 0.64324 0.16656 0.0
C457 C 0.18565 0.65273 0.11914 0.0
H458 H 0.24314 0.66048 0.22634 0.0
H459 H 0.165 0.61691 0.18685 0.0
S460 S 0.27901 0.73617 1.03762 0.0
N461 N 0.30891 0.74129 0.08821 0.0
N462 N 0.22203 0.69751 0.04795 0.0
C463 C 0.22525 0.68702 0.09446 0.0
C464 C 0.27257 0.71136 0.11683 0.0
C465 C 0.29436 0.4544 0.61207 0.0
C466 C 0.29247 0.45215 0.66246 0.0
C467 C 0.3393 0.47881 0.58638 0.0
C468 C 0.3847 0.50213 0.60971 0.0
H469 H 0.26086 0.43647 0.5921 0.0
H470 H 0.33861 0.47836 0.54769 0.0
S471 S 0.40067 0.50764 0.74112 0.0
N472 N 0.34054 0.47586 0.73466 0.0
N473 N 0.42455 0.52223 0.68659 0.0
C474 C 0.3832 0.50125 0.66013 0.0
C475 C 0.33733 0.47626 0.68636 0.0
C476 C 0.74511 0.68567 0.92371 0.0
C477 C 0.71958 0.70662 0.95787 0.0
C478 C 0.79509 0.68652 0.93007 0.0
C479 C 0.82105 0.70762 0.97123 0.0
H480 H 0.72631 0.66855 0.89169 0.0
H481 H 0.81317 0.66956 0.9031 0.0
S482 S 0.77222 0.76932 0.07023 0.0
N483 N 0.72485 0.75103 1.03323 0.0
N484 N 0.8185 0.75151 1.04579 0.0
C485 C 0.79632 0.72929 1.00534 0.0
C486 C 0.74568 0.72919 0.99845 0.0
C487 C 0.44553 0.89541 0.20528 0.0
C488 C 0.4345 0.85131 0.17933 0.0
C489 C 0.47003 0.94045 0.18306 0.0
C490 C 0.48533 0.9433 0.13409 0.0
H491 H 0.43434 0.8952 0.24282 0.0
H492 H 0.47807 0.97312 0.20464 0.0
S493 S 0.46452 0.83908 0.04981 0.0
N494 N 0.4402 0.81445 0.10133 0.0
N495 N 0.48644 0.89761 0.06061 0.0
C496 C 0.47446 0.89951 0.10806 0.0
C497 C 0.4491 0.85412 0.13029 0.0
C498 C 0.1051 0.26687 0.67875 0.0
C499 C 0.15797 0.2907 0.67651 0.0
C500 C 0.08353 0.22085 0.65756 0.0
C501 C 0.11369 0.19707 0.63225 0.0
H502 H 0.07982 0.28437 0.69579 0.0
H503 H 0.04273 0.20446 0.65962 0.0
S504 S 0.25362 0.23922 0.61959 0.0
N505 N 0.24001 0.28234 0.65109 0.0
N506 N 0.19861 0.19867 0.60824 0.0
C507 C 0.16621 0.21947 0.63039 0.0
C508 C 0.18851 0.2654 0.65325 0.0
C509 C 0.78524 0.38929 0.49088 0.0
C510 C 0.77706 0.34082 0.5008 0.0
C511 C 0.74654 0.40955 0.49927 0.0
C512 C 0.69884 0.38165 0.51779 0.0
H513 H 0.81988 0.41023 0.47243 0.0
H514 H 0.75261 0.44583 0.48723 0.0
S515 S 0.66252 0.25534 0.55711 0.0
N516 N 0.72104 0.26696 0.53494 0.0
N517 N 0.6483 0.30565 0.55252 0.0
C518 C 0.69222 0.33458 0.53233 0.0
C519 C 0.73147 0.31389 0.52332 0.0
loop_
_geom_bond_atom_site_label_1
_geom_bond_atom_site_label_2
_geom_bond_distance
_geom_bond_site_symmetry_2
_ccdc_geom_bond_type
H0 C5 0.930 . S
H1 C8 0.930 . S
H2 C10 0.930 . S
H3 C4 1.016 . S
C4 H3 1.016 . S
C4 N11 1.286 . S
C5 H0 0.930 . S
C5 C6 1.397 . S
C5 C7 1.361 . S
C6 C5 1.397 . S
C6 C10 1.390 . S
C7 C5 1.361 . S
C7 C8 1.393 . S
C7 N11 1.413 . S
C8 H1 0.930 . S
C8 C7 1.393 . S
C8 C9 1.399 . S
C9 C8 1.399 . S
C9 C10 1.381 . S
C10 H2 0.930 . S
C10 C6 1.390 . S
C10 C9 1.381 . S
N11 C4 1.286 . S
N11 C7 1.413 . S
H12 C17 0.930 . S
H13 C20 0.930 . S
H14 C22 0.930 . S
H15 C16 1.016 . S
C16 H15 1.016 . S
C16 N23 1.286 . S
C17 H12 0.930 . S
C17 C18 1.397 . S
C17 C19 1.361 . S
C18 C17 1.397 . S
C18 C22 1.390 . S
C19 C17 1.361 . S
C19 C20 1.393 . S
C19 N23 1.413 . S
C20 H13 0.930 . S
C20 C19 1.393 . S
C20 C21 1.399 . S
C21 C20 1.399 . S
C21 C22 1.381 . S
C22 H14 0.930 . S
C22 C18 1.390 . S
C22 C21 1.381 . S
N23 C16 1.286 . S
N23 C19 1.413 . S
H24 C29 0.930 . S
H25 C32 0.930 . S
H26 C34 0.930 . S
H27 C28 1.016 . S
C28 H27 1.016 . S
C28 N35 1.286 . S
C29 H24 0.930 . S
C29 C30 1.397 . S
C29 C31 1.361 . S
C30 C29 1.397 . S
C30 C34 1.390 . S
C31 C29 1.361 . S
C31 C32 1.393 . S
C31 N35 1.413 . S
C32 H25 0.930 . S
C32 C31 1.393 . S
C32 C33 1.399 . S
C33 C32 1.399 . S
C33 C34 1.381 . S
C34 H26 0.930 . S
C34 C30 1.390 . S
C34 C33 1.381 . S
N35 C28 1.286 . S
N35 C31 1.413 . S
H36 C41 0.930 . S
H37 C44 0.930 . S
H38 C46 0.930 . S
H39 C40 1.016 . S
C40 H39 1.016 . S
C40 N47 1.286 . S
C41 H36 0.930 . S
C41 C42 1.397 . S
C41 C43 1.361 . S
C42 C41 1.397 . S
C42 C46 1.390 . S
C43 C41 1.361 . S
C43 C44 1.393 . S
C43 N47 1.413 . S
C44 H37 0.930 . S
C44 C43 1.393 . S
C44 C45 1.399 . S
C45 C44 1.399 . S
C45 C46 1.381 . S
C46 H38 0.930 . S
C46 C42 1.390 . S
C46 C45 1.381 . S
N47 C40 1.286 . S
N47 C43 1.413 . S
H48 C53 0.930 . S
H49 C56 0.930 . S
H50 C58 0.930 . S
H51 C52 1.016 . S
C52 H51 1.016 . S
C52 N59 1.286 . S
C53 H48 0.930 . S
C53 C54 1.397 . S
C53 C55 1.361 . S
C54 C53 1.397 . S
C54 C58 1.390 . S
C55 C53 1.361 . S
C55 C56 1.393 . S
C55 N59 1.413 . S
C56 H49 0.930 . S
C56 C55 1.393 . S
C56 C57 1.399 . S
C57 C56 1.399 . S
C57 C58 1.381 . S
C58 H50 0.930 . S
C58 C54 1.390 . S
C58 C57 1.381 . S
N59 C52 1.286 . S
N59 C55 1.413 . S
H60 C65 0.930 . S
H61 C68 0.930 . S
H62 C70 0.930 . S
H63 C64 1.016 . S
C64 H63 1.016 . S
C64 N71 1.286 . S
C65 H60 0.930 . S
C65 C66 1.397 . S
C65 C67 1.361 . S
C66 C65 1.397 . S
C66 C70 1.390 . S
C67 C65 1.361 . S
C67 C68 1.393 . S
C67 N71 1.413 . S
C68 H61 0.930 . S
C68 C67 1.393 . S
C68 C69 1.399 . S
C69 C68 1.399 . S
C69 C70 1.381 . S
C70 H62 0.930 . S
C70 C66 1.390 . S
C70 C69 1.381 . S
N71 C64 1.286 . S
N71 C67 1.413 . S
H72 C77 0.930 . S
H73 C80 0.930 . S
H74 C82 0.930 . S
H75 C76 1.016 . S
C76 H75 1.016 . S
C76 N83 1.286 . S
C77 H72 0.930 . S
C77 C78 1.397 . S
C77 C79 1.361 . S
C78 C77 1.397 . S
C78 C82 1.390 . S
C79 C77 1.361 . S
C79 C80 1.393 . S
C79 N83 1.413 . S
C80 H73 0.930 . S
C80 C79 1.393 . S
C80 C81 1.399 . S
C81 C80 1.399 . S
C81 C82 1.381 . S
C82 H74 0.930 . S
C82 C78 1.390 . S
C82 C81 1.381 . S
N83 C76 1.286 . S
N83 C79 1.413 . S
H84 C89 0.930 . S
H85 C92 0.930 . S
H86 C94 0.930 . S
H87 C88 1.016 . S
C88 H87 1.016 . S
C88 N95 1.286 . S
C89 H84 0.930 . S
C89 C90 1.397 . S
C89 C91 1.361 . S
C90 C89 1.397 . S
C90 C94 1.390 . S
C91 C89 1.361 . S
C91 C92 1.393 . S
C91 N95 1.413 . S
C92 H85 0.930 . S
C92 C91 1.393 . S
C92 C93 1.399 . S
C93 C92 1.399 . S
C93 C94 1.381 . S
C94 H86 0.930 . S
C94 C90 1.390 . S
C94 C93 1.381 . S
N95 C88 1.286 . S
N95 C91 1.413 . S
Sm96 C98 2.846 . S
Sm96 O116 2.543 . S
Sm96 O117 2.450 . S
Sm96 O118 2.681 1_545 S
Sm96 O119 2.464 1_545 S
Sm96 O120 2.396 . S
Sm96 O124 2.386 1_455 S
Sm96 O127 2.408 1_445 S
Sm97 C107 2.846 1_545 S
Sm97 O118 2.386 1_645 S
Sm97 O121 2.408 1_655 S
Sm97 O122 2.543 1_545 S
Sm97 O123 2.450 1_545 S
Sm97 O124 2.681 . S
Sm97 O125 2.464 . S
Sm97 O126 2.396 1_545 S
C98 Sm96 2.846 . S
C98 C99 1.506 . S
C98 O116 1.261 . S
C98 O117 1.242 . S
C99 C98 1.506 . S
C99 C100 1.358 . S
C99 C104 1.382 . S
C100 C99 1.358 . S
C100 C101 1.385 . S
C100 H128 0.930 . S
C101 C100 1.385 . S
C101 C102 1.395 . S
C101 H129 0.929 . S
C102 C101 1.395 . S
C102 C103 1.335 . S
C103 C102 1.335 . S
C103 C104 1.398 . S
C103 H130 0.930 . S
C104 C99 1.382 . S
C104 C103 1.398 . S
C104 H131 0.929 . S
C105 O118 1.271 . S
C105 O119 1.251 . S
C106 O120 1.252 . S
C106 O121 1.272 . S
C107 Sm97 2.846 1_565 S
C107 C108 1.506 . S
C107 O122 1.261 . S
C107 O123 1.242 . S
C108 C107 1.506 . S
C108 C109 1.358 . S
C108 C113 1.382 . S
C109 C108 1.358 . S
C109 C110 1.385 . S
C109 H132 0.930 . S
C110 C109 1.385 . S
C110 C111 1.395 . S
C110 H133 0.929 . S
C111 C110 1.395 . S
C111 C112 1.335 . S
C112 C111 1.335 . S
C112 C113 1.398 . S
C112 H134 0.930 . S
C113 C108 1.382 . S
C113 C112 1.398 . S
C113 H135 0.929 . S
C114 O124 1.271 . S
C114 O125 1.251 . S
C115 O126 1.252 . S
C115 O127 1.272 . S
O116 Sm96 2.543 . S
O116 C98 1.261 . S
O117 Sm96 2.450 . S
O117 C98 1.242 . S
O118 Sm96 2.681 1_565 S
O118 Sm97 2.386 1_465 S
O118 C105 1.271 . S
O119 Sm96 2.464 1_565 S
O119 C105 1.251 . S
O120 Sm96 2.396 . S
O120 C106 1.252 . S
O121 Sm97 2.408 1_455 S
O121 C106 1.272 . S
O122 Sm97 2.543 1_565 S
O122 C107 1.261 . S
O123 Sm97 2.450 1_565 S
O123 C107 1.242 . S
O124 Sm96 2.386 1_655 S
O124 Sm97 2.681 . S
O124 C114 1.271 . S
O125 Sm97 2.464 . S
O125 C114 1.251 . S
O126 Sm97 2.396 1_565 S
O126 C115 1.252 . S
O127 Sm96 2.408 1_665 S
O127 C115 1.272 . S
H128 C100 0.930 . S
H129 C101 0.929 . S
H130 C103 0.930 . S
H131 C104 0.929 . S
H132 C109 0.930 . S
H133 C110 0.929 . S
H134 C112 0.930 . S
H135 C113 0.929 . S
Sm136 C138 2.846 . S
Sm136 O156 2.543 . S
Sm136 O157 2.450 . S
Sm136 O158 2.681 1_545 S
Sm136 O159 2.464 1_545 S
Sm136 O160 2.396 . S
Sm136 O164 2.375 1_554 S
Sm136 O167 2.408 1_544 S
Sm137 C147 2.846 1_545 S
Sm137 O158 2.386 1_546 S
Sm137 O161 2.408 1_556 S
Sm137 O162 2.543 1_545 S
Sm137 O163 2.450 1_545 S
Sm137 O164 2.685 . S
Sm137 O165 2.464 . S
Sm137 O166 2.396 1_545 S
C138 Sm136 2.846 . S
C138 C139 1.506 . S
C138 O156 1.261 . S
C138 O157 1.242 . S
C139 C138 1.506 . S
C139 C140 1.358 . S
C139 C144 1.382 . S
C140 C139 1.358 . S
C140 C141 1.385 . S
C140 H168 0.930 . S
C141 C140 1.385 . S
C141 C142 1.395 . S
C141 H169 0.929 . S
C142 C141 1.395 . S
C142 C143 1.335 . S
C143 C142 1.335 . S
C143 C144 1.398 . S
C143 H170 0.930 . S
C144 C139 1.382 . S
C144 C143 1.398 . S
C144 H171 0.929 . S
C145 O158 1.271 . S
C145 O159 1.251 . S
C146 O160 1.252 . S
C146 O161 1.272 . S
C147 Sm137 2.846 1_565 S
C147 C148 1.506 . S
C147 O162 1.261 . S
C147 O163 1.242 . S
C148 C147 1.506 . S
C148 C149 1.358 . S
C148 C153 1.382 . S
C149 C148 1.358 . S
C149 C150 1.385 . S
C149 H172 0.930 . S
C150 C149 1.385 . S
C150 C151 1.395 . S
C150 H173 0.929 . S
C151 C150 1.395 . S
C151 C152 1.335 . S
C152 C151 1.335 . S
C152 C153 1.398 . S
C152 H174 0.930 . S
C153 C148 1.382 . S
C153 C152 1.398 . S
C153 H175 0.929 . S
C154 O164 1.284 . S
C154 O165 1.251 . S
C155 O166 1.252 . S
C155 O167 1.272 . S
O156 Sm136 2.543 . S
O156 C138 1.261 . S
O157 Sm136 2.450 . S
O157 C138 1.242 . S
O158 Sm136 2.681 1_565 S
O158 Sm137 2.386 1_564 S
O158 C145 1.271 . S
O159 Sm136 2.464 1_565 S
O159 C145 1.251 . S
O160 Sm136 2.396 . S
O160 C146 1.252 . S
O161 Sm137 2.408 1_554 S
O161 C146 1.272 . S
O162 Sm137 2.543 1_565 S
O162 C147 1.261 . S
O163 Sm137 2.450 1_565 S
O163 C147 1.242 . S
O164 Sm136 2.375 1_556 S
O164 Sm137 2.685 . S
O164 C154 1.284 . S
O165 Sm137 2.464 . S
O165 C154 1.251 . S
O166 Sm137 2.396 1_565 S
O166 C155 1.252 . S
O167 Sm136 2.408 1_566 S
O167 C155 1.272 . S
H168 C140 0.930 . S
H169 C141 0.929 . S
H170 C143 0.930 . S
H171 C144 0.929 . S
H172 C149 0.930 . S
H173 C150 0.929 . S
H174 C152 0.930 . S
H175 C153 0.929 . S
Sm176 C178 2.846 . S
Sm176 O196 2.543 . S
Sm176 O197 2.450 . S
Sm176 O198 2.681 . S
Sm176 O199 2.464 . S
Sm176 O200 2.396 . S
Sm176 O204 2.386 . S
Sm176 O207 2.408 . S
Sm177 C187 2.846 . S
Sm177 O198 2.386 . S
Sm177 O201 2.408 . S
Sm177 O202 2.543 . S
Sm177 O203 2.450 . S
Sm177 O204 2.681 . S
Sm177 O205 2.464 . S
Sm177 O206 2.396 . S
C178 Sm176 2.846 . S
C178 C179 1.506 . S
C178 O196 1.261 . S
C178 O197 1.242 . S
C179 C178 1.506 . S
C179 C180 1.358 . S
C179 C184 1.382 . S
C180 C179 1.358 . S
C180 C181 1.385 . S
C180 H208 0.930 . S
C181 C180 1.385 . S
C181 C182 1.395 . S
C181 H209 0.929 . S
C182 C181 1.395 . S
C182 C183 1.335 . S
C183 C182 1.335 . S
C183 C184 1.398 . S
C183 H210 0.930 . S
C184 C179 1.382 . S
C184 C183 1.398 . S
C184 H211 0.929 . S
C185 O198 1.271 . S
C185 O199 1.251 . S
C186 O200 1.252 . S
C186 O201 1.272 . S
C187 Sm177 2.846 . S
C187 C188 1.506 . S
C187 O202 1.261 . S
C187 O203 1.242 . S
C188 C187 1.506 . S
C188 C189 1.358 . S
C188 C193 1.382 . S
C189 C188 1.358 . S
C189 C190 1.385 . S
C189 H212 0.930 . S
C190 C189 1.385 . S
C190 C191 1.395 . S
C190 H213 0.929 . S
C191 C190 1.395 . S
C191 C192 1.335 . S
C192 C191 1.335 . S
C192 C193 1.398 . S
C192 H214 0.930 . S
C193 C188 1.382 . S
C193 C192 1.398 . S
C193 H215 0.929 . S
C194 O204 1.271 . S
C194 O205 1.251 . S
C195 O206 1.252 . S
C195 O207 1.272 . S
O196 Sm176 2.543 . S
O196 C178 1.261 . S
O197 Sm176 2.450 . S
O197 C178 1.242 . S
O198 Sm176 2.681 . S
O198 Sm177 2.386 . S
O198 C185 1.271 . S
O199 Sm176 2.464 . S
O199 C185 1.251 . S
O200 Sm176 2.396 . S
O200 C186 1.252 . S
O201 Sm177 2.408 . S
O201 C186 1.272 . S
O202 Sm177 2.543 . S
O202 C187 1.261 . S
O203 Sm177 2.450 . S
O203 C187 1.242 . S
O204 Sm176 2.386 . S
O204 Sm177 2.681 . S
O204 C194 1.271 . S
O205 Sm177 2.464 . S
O205 C194 1.251 . S
O206 Sm177 2.396 . S
O206 C195 1.252 . S
O207 Sm176 2.408 . S
O207 C195 1.272 . S
H208 C180 0.930 . S
H209 C181 0.929 . S
H210 C183 0.930 . S
H211 C184 0.929 . S
H212 C189 0.930 . S
H213 C190 0.929 . S
H214 C192 0.930 . S
H215 C193 0.929 . S
Sm216 C218 2.846 . S
Sm216 O236 2.543 . S
Sm216 O237 2.450 . S
Sm216 O238 2.681 1_455 S
Sm216 O239 2.464 1_455 S
Sm216 O240 2.396 . S
Sm216 O244 2.386 1_554 S
Sm216 O247 2.408 1_454 S
Sm217 C227 2.846 1_455 S
Sm217 O238 2.386 1_456 S
Sm217 O241 2.408 1_556 S
Sm217 O242 2.543 1_455 S
Sm217 O243 2.450 1_455 S
Sm217 O244 2.681 . S
Sm217 O245 2.464 . S
Sm217 O246 2.396 1_455 S
C218 Sm216 2.846 . S
C218 C219 1.506 . S
C218 O236 1.261 . S
C218 O237 1.242 . S
C219 C218 1.506 . S
C219 C220 1.358 . S
C219 C224 1.382 . S
C220 C219 1.358 . S
C220 C221 1.385 . S
C220 H248 0.930 . S
C221 C220 1.385 . S
C221 C222 1.395 . S
C221 H249 0.929 . S
C222 C221 1.395 . S
C222 C223 1.335 . S
C223 C222 1.335 . S
C223 C224 1.398 . S
C223 H250 0.930 . S
C224 C219 1.382 . S
C224 C223 1.398 . S
C224 H251 0.929 . S
C225 O238 1.271 . S
C225 O239 1.251 . S
C226 O240 1.252 . S
C226 O241 1.272 . S
C227 Sm217 2.846 1_655 S
C227 C228 1.506 . S
C227 O242 1.261 . S
C227 O243 1.242 . S
C228 C227 1.506 . S
C228 C229 1.358 . S
C228 C233 1.382 . S
C229 C228 1.358 . S
C229 C230 1.385 . S
C229 H252 0.930 . S
C230 C229 1.385 . S
C230 C231 1.395 . S
C230 H253 0.929 . S
C231 C230 1.395 . S
C231 C232 1.335 . S
C232 C231 1.335 . S
C232 C233 1.398 . S
C232 H254 0.930 . S
C233 C228 1.382 . S
C233 C232 1.398 . S
C233 H255 0.929 . S
C234 O244 1.271 . S
C234 O245 1.251 . S
C235 O246 1.252 . S
C235 O247 1.272 . S
O236 Sm216 2.543 . S
O236 C218 1.261 . S
O237 Sm216 2.450 . S
O237 C218 1.242 . S
O238 Sm216 2.681 1_655 S
O238 Sm217 2.386 1_654 S
O238 C225 1.271 . S
O239 Sm216 2.464 1_655 S
O239 C225 1.251 . S
O240 Sm216 2.396 . S
O240 C226 1.252 . S
O241 Sm217 2.408 1_554 S
O241 C226 1.272 . S
O242 Sm217 2.543 1_655 S
O242 C227 1.261 . S
O243 Sm217 2.450 1_655 S
O243 C227 1.242 . S
O244 Sm216 2.386 1_556 S
O244 Sm217 2.681 . S
O244 C234 1.271 . S
O245 Sm217 2.464 . S
O245 C234 1.251 . S
O246 Sm217 2.396 1_655 S
O246 C235 1.252 . S
O247 Sm216 2.408 1_656 S
O247 C235 1.272 . S
H248 C220 0.930 . S
H249 C221 0.929 . S
H250 C223 0.930 . S
H251 C224 0.929 . S
H252 C229 0.930 . S
H253 C230 0.929 . S
H254 C232 0.930 . S
H255 C233 0.929 . S
C256 C257 1.369 . S
C256 C258 1.419 . S
C256 H260 0.930 . S
C257 C256 1.369 . S
C257 C266 1.429 . S
C258 C256 1.419 . S
C258 C259 1.363 . S
C258 H261 0.929 . S
C259 C258 1.363 . S
C259 C265 1.428 . S
H260 C256 0.930 . S
H261 C258 0.929 . S
S262 N263 1.613 . S
S262 N264 1.610 . S
N263 S262 1.613 . S
N263 C266 1.350 . S
N264 S262 1.610 . S
N264 C265 1.351 . S
C265 C259 1.428 . S
C265 N264 1.351 . S
C265 C266 1.434 . S
C266 C257 1.429 . S
C266 N263 1.350 . S
C266 C265 1.434 . S
C267 C268 1.369 . S
C267 C269 1.419 . S
C267 H271 0.930 . S
C268 C267 1.369 . S
C268 C277 1.429 . S
C269 C267 1.419 . S
C269 C270 1.363 . S
C269 H272 0.929 . S
C270 C269 1.363 . S
C270 C276 1.428 . S
H271 C267 0.930 . S
H272 C269 0.929 . S
S273 N274 1.613 . S
S273 N275 1.610 . S
N274 S273 1.613 . S
N274 C277 1.350 . S
N275 S273 1.610 . S
N275 C276 1.351 . S
C276 C270 1.428 . S
C276 N275 1.351 . S
C276 C277 1.434 . S
C277 C268 1.429 . S
C277 N274 1.350 . S
C277 C276 1.434 . S
C278 C279 1.369 . S
C278 C280 1.419 . S
C278 H282 0.930 . S
C279 C278 1.369 . S
C279 C288 1.429 . S
C280 C278 1.419 . S
C280 C281 1.363 . S
C280 H283 0.929 . S
C281 C280 1.363 . S
C281 C287 1.428 . S
H282 C278 0.930 . S
H283 C280 0.929 . S
S284 N285 1.613 . S
S284 N286 1.610 . S
N285 S284 1.613 . S
N285 C288 1.350 . S
N286 S284 1.610 . S
N286 C287 1.351 . S
C287 C281 1.428 . S
C287 N286 1.351 . S
C287 C288 1.434 . S
C288 C279 1.429 . S
C288 N285 1.350 . S
C288 C287 1.434 . S
C289 C290 1.369 . S
C289 C291 1.419 . S
C289 H293 0.930 . S
C290 C289 1.369 . S
C290 C299 1.429 . S
C291 C289 1.419 . S
C291 C292 1.363 . S
C291 H294 0.929 . S
C292 C291 1.363 . S
C292 C298 1.428 . S
H293 C289 0.930 . S
H294 C291 0.929 . S
S295 N296 1.613 . S
S295 N297 1.610 . S
N296 S295 1.613 . S
N296 C299 1.350 . S
N297 S295 1.610 . S
N297 C298 1.351 . S
C298 C292 1.428 . S
C298 N297 1.351 . S
C298 C299 1.434 . S
C299 C290 1.429 . S
C299 N296 1.350 . S
C299 C298 1.434 . S
C300 C301 1.369 . S
C300 C302 1.419 . S
C300 H304 0.930 . S
C301 C300 1.369 . S
C301 C310 1.429 . S
C302 C300 1.419 . S
C302 C303 1.363 . S
C302 H305 0.929 . S
C303 C302 1.363 . S
C303 C309 1.428 . S
H304 C300 0.930 . S
H305 C302 0.929 . S
S306 N307 1.613 . S
S306 N308 1.610 . S
N307 S306 1.613 . S
N307 C310 1.350 . S
N308 S306 1.610 . S
N308 C309 1.351 . S
C309 C303 1.428 . S
C309 N308 1.351 . S
C309 C310 1.434 . S
C310 C301 1.429 . S
C310 N307 1.350 . S
C310 C309 1.434 . S
C311 C312 1.369 . S
C311 C313 1.419 . S
C311 H315 0.930 . S
C312 C311 1.369 . S
C312 C321 1.429 . S
C313 C311 1.419 . S
C313 C314 1.363 . S
C313 H316 0.929 . S
C314 C313 1.363 . S
C314 C320 1.428 . S
H315 C311 0.930 . S
H316 C313 0.929 . S
S317 N318 1.613 . S
S317 N319 1.610 . S
N318 S317 1.613 . S
N318 C321 1.350 . S
N319 S317 1.610 . S
N319 C320 1.351 . S
C320 C314 1.428 . S
C320 N319 1.351 . S
C320 C321 1.434 . S
C321 C312 1.429 . S
C321 N318 1.350 . S
C321 C320 1.434 . S
C322 C323 1.369 . S
C322 C324 1.419 . S
C322 H326 0.930 . S
C323 C322 1.369 . S
C323 C332 1.429 . S
C324 C322 1.419 . S
C324 C325 1.363 . S
C324 H327 0.929 . S
C325 C324 1.363 . S
C325 C331 1.428 . S
H326 C322 0.930 . S
H327 C324 0.929 . S
S328 N329 1.613 . S
S328 N330 1.610 . S
N329 S328 1.613 . S
N329 C332 1.350 . S
N330 S328 1.610 . S
N330 C331 1.351 . S
C331 C325 1.428 . S
C331 N330 1.351 . S
C331 C332 1.434 . S
C332 C323 1.429 . S
C332 N329 1.350 . S
C332 C331 1.434 . S
C333 C334 1.369 . S
C333 C335 1.419 . S
C333 H337 0.930 . S
C334 C333 1.369 . S
C334 C343 1.429 . S
C335 C333 1.419 . S
C335 C336 1.363 . S
C335 H338 0.929 . S
C336 C335 1.363 . S
C336 C342 1.428 . S
H337 C333 0.930 . S
H338 C335 0.929 . S
S339 N340 1.613 . S
S339 N341 1.610 . S
N340 S339 1.613 . S
N340 C343 1.350 . S
N341 S339 1.610 . S
N341 C342 1.351 . S
C342 C336 1.428 . S
C342 N341 1.351 . S
C342 C343 1.434 . S
C343 C334 1.429 . S
C343 N340 1.350 . S
C343 C342 1.434 . S
C344 C345 1.369 . S
C344 C346 1.419 . S
C344 H348 0.930 . S
C345 C344 1.369 . S
C345 C354 1.429 . S
C346 C344 1.419 . S
C346 C347 1.363 . S
C346 H349 0.929 . S
C347 C346 1.363 . S
C347 C353 1.428 . S
H348 C344 0.930 . S
H349 C346 0.929 . S
S350 N351 1.613 . S
S350 N352 1.610 . S
N351 S350 1.613 . S
N351 C354 1.350 . S
N352 S350 1.610 . S
N352 C353 1.351 . S
C353 C347 1.428 . S
C353 N352 1.351 . S
C353 C354 1.434 . S
C354 C345 1.429 . S
C354 N351 1.350 . S
C354 C353 1.434 . S
C355 C356 1.369 . S
C355 C357 1.419 . S
C355 H359 0.930 . S
C356 C355 1.369 . S
C356 C365 1.429 . S
C357 C355 1.419 . S
C357 C358 1.363 . S
C357 H360 0.929 . S
C358 C357 1.363 . S
C358 C364 1.428 . S
H359 C355 0.930 . S
H360 C357 0.929 . S
S361 N362 1.613 . S
S361 N363 1.610 . S
N362 S361 1.613 . S
N362 C365 1.350 . S
N363 S361 1.610 . S
N363 C364 1.351 . S
C364 C358 1.428 . S
C364 N363 1.351 . S
C364 C365 1.434 . S
C365 C356 1.429 . S
C365 N362 1.350 . S
C365 C364 1.434 . S
C366 C367 1.369 . S
C366 C368 1.419 . S
C366 H370 0.930 . S
C367 C366 1.369 . S
C367 C376 1.429 . S
C368 C366 1.419 . S
C368 C369 1.363 . S
C368 H371 0.929 . S
C369 C368 1.363 . S
C369 C375 1.428 . S
H370 C366 0.930 . S
H371 C368 0.929 . S
S372 N373 1.613 1_455 S
S372 N374 1.610 1_455 S
N373 S372 1.613 1_655 S
N373 C376 1.350 . S
N374 S372 1.610 1_655 S
N374 C375 1.351 . S
C375 C369 1.428 . S
C375 N374 1.351 . S
C375 C376 1.434 . S
C376 C367 1.429 . S
C376 N373 1.350 . S
C376 C375 1.434 . S
C377 C378 1.369 . S
C377 C379 1.419 . S
C377 H381 0.930 . S
C378 C377 1.369 . S
C378 C387 1.429 . S
C379 C377 1.419 . S
C379 C380 1.363 . S
C379 H382 0.929 . S
C380 C379 1.363 . S
C380 C386 1.428 . S
H381 C377 0.930 . S
H382 C379 0.929 . S
S383 N384 1.613 . S
S383 N385 1.610 . S
N384 S383 1.613 . S
N384 C387 1.350 . S
N385 S383 1.610 . S
N385 C386 1.351 . S
C386 C380 1.428 . S
C386 N385 1.351 . S
C386 C387 1.434 . S
C387 C378 1.429 . S
C387 N384 1.350 . S
C387 C386 1.434 . S
C388 C389 1.369 . S
C388 C390 1.419 . S
C388 H392 0.930 . S
C389 C388 1.369 . S
C389 C398 1.429 . S
C390 C388 1.419 . S
C390 C391 1.363 . S
C390 H393 0.929 . S
C391 C390 1.363 . S
C391 C397 1.428 . S
H392 C388 0.930 . S
H393 C390 0.929 . S
S394 N395 1.613 . S
S394 N396 1.610 . S
N395 S394 1.613 . S
N395 C398 1.350 . S
N396 S394 1.610 . S
N396 C397 1.351 . S
C397 C391 1.428 . S
C397 N396 1.351 . S
C397 C398 1.434 . S
C398 C389 1.429 . S
C398 N395 1.350 . S
C398 C397 1.434 . S
C399 C400 1.369 . S
C399 C401 1.419 . S
C399 H403 0.930 . S
C400 C399 1.369 . S
C400 C409 1.429 . S
C401 C399 1.419 . S
C401 C402 1.363 . S
C401 H404 0.929 . S
C402 C401 1.363 . S
C402 C408 1.428 . S
H403 C399 0.930 . S
H404 C401 0.929 . S
S405 N406 1.613 . S
S405 N407 1.610 . S
N406 S405 1.613 . S
N406 C409 1.350 . S
N407 S405 1.610 . S
N407 C408 1.351 . S
C408 C402 1.428 . S
C408 N407 1.351 . S
C408 C409 1.434 . S
C409 C400 1.429 . S
C409 N406 1.350 . S
C409 C408 1.434 . S
C410 C411 1.369 . S
C410 C412 1.419 . S
C410 H414 0.930 . S
C411 C410 1.369 . S
C411 C420 1.429 . S
C412 C410 1.419 . S
C412 C413 1.363 . S
C412 H415 0.929 . S
C413 C412 1.363 . S
C413 C419 1.428 . S
H414 C410 0.930 . S
H415 C412 0.929 . S
S416 N417 1.613 . S
S416 N418 1.610 . S
N417 S416 1.613 . S
N417 C420 1.350 . S
N418 S416 1.610 . S
N418 C419 1.351 . S
C419 C413 1.428 . S
C419 N418 1.351 . S
C419 C420 1.434 . S
C420 C411 1.429 . S
C420 N417 1.350 . S
C420 C419 1.434 . S
C421 C422 1.369 . S
C421 C423 1.419 . S
C421 H425 0.930 . S
C422 C421 1.369 . S
C422 C431 1.429 . S
C423 C421 1.419 . S
C423 C424 1.363 . S
C423 H426 0.929 . S
C424 C423 1.363 . S
C424 C430 1.428 . S
H425 C421 0.930 . S
H426 C423 0.929 . S
S427 N428 1.613 . S
S427 N429 1.610 . S
N428 S427 1.613 . S
N428 C431 1.350 . S
N429 S427 1.610 . S
N429 C430 1.351 . S
C430 C424 1.428 . S
C430 N429 1.351 . S
C430 C431 1.434 . S
C431 C422 1.429 . S
C431 N428 1.350 . S
C431 C430 1.434 . S
C432 C433 1.369 . S
C432 C434 1.419 . S
C432 H436 0.930 . S
C433 C432 1.369 . S
C433 C442 1.429 . S
C434 C432 1.419 . S
C434 C435 1.363 . S
C434 H437 0.929 . S
C435 C434 1.363 . S
C435 C441 1.428 . S
H436 C432 0.930 . S
H437 C434 0.929 . S
S438 N439 1.613 . S
S438 N440 1.610 . S
N439 S438 1.613 . S
N439 C442 1.350 . S
N440 S438 1.610 . S
N440 C441 1.351 . S
C441 C435 1.428 . S
C441 N440 1.351 . S
C441 C442 1.434 . S
C442 C433 1.429 . S
C442 N439 1.350 . S
C442 C441 1.434 . S
C443 C444 1.369 . S
C443 C445 1.419 . S
C443 H447 0.930 . S
C444 C443 1.369 . S
C444 C453 1.429 . S
C445 C443 1.419 . S
C445 C446 1.363 . S
C445 H448 0.929 . S
C446 C445 1.363 . S
C446 C452 1.428 . S
H447 C443 0.930 . S
H448 C445 0.929 . S
S449 N450 1.613 1_455 S
S449 N451 1.610 . S
N450 S449 1.613 1_655 S
N450 C453 1.350 . S
N451 S449 1.610 . S
N451 C452 1.351 1_455 S
C452 C446 1.428 . S
C452 N451 1.351 1_655 S
C452 C453 1.434 . S
C453 C444 1.429 . S
C453 N450 1.350 . S
C453 C452 1.434 . S
C454 C455 1.369 . S
C454 C456 1.419 . S
C454 H458 0.930 . S
C455 C454 1.369 . S
C455 C464 1.429 . S
C456 C454 1.419 . S
C456 C457 1.363 . S
C456 H459 0.929 . S
C457 C456 1.363 . S
C457 C463 1.428 . S
H458 C454 0.930 . S
H459 C456 0.929 . S
S460 N461 1.613 . S
S460 N462 1.610 . S
N461 S460 1.613 . S
N461 C464 1.350 . S
N462 S460 1.610 . S
N462 C463 1.351 . S
C463 C457 1.428 . S
C463 N462 1.351 . S
C463 C464 1.434 . S
C464 C455 1.429 . S
C464 N461 1.350 . S
C464 C463 1.434 . S
C465 C466 1.369 . S
C465 C467 1.419 . S
C465 H469 0.930 . S
C466 C465 1.369 . S
C466 C475 1.429 . S
C467 C465 1.419 . S
C467 C468 1.363 . S
C467 H470 0.929 . S
C468 C467 1.363 . S
C468 C474 1.428 . S
H469 C465 0.930 . S
H470 C467 0.929 . S
S471 N472 1.613 . S
S471 N473 1.610 . S
N472 S471 1.613 . S
N472 C475 1.350 . S
N473 S471 1.610 . S
N473 C474 1.351 . S
C474 C468 1.428 . S
C474 N473 1.351 . S
C474 C475 1.434 . S
C475 C466 1.429 . S
C475 N472 1.350 . S
C475 C474 1.434 . S
C476 C477 1.369 . S
C476 C478 1.419 . S
C476 H480 0.930 . S
C477 C476 1.369 . S
C477 C486 1.429 . S
C478 C476 1.419 . S
C478 C479 1.363 . S
C478 H481 0.929 . S
C479 C478 1.363 . S
C479 C485 1.428 . S
H480 C476 0.930 . S
H481 C478 0.929 . S
S482 N483 1.613 . S
S482 N484 1.610 . S
N483 S482 1.613 . S
N483 C486 1.350 . S
N484 S482 1.610 . S
N484 C485 1.351 . S
C485 C479 1.428 . S
C485 N484 1.351 . S
C485 C486 1.434 . S
C486 C477 1.429 . S
C486 N483 1.350 . S
C486 C485 1.434 . S
C487 C488 1.369 . S
C487 C489 1.419 . S
C487 H491 0.930 . S
C488 C487 1.369 . S
C488 C497 1.429 . S
C489 C487 1.419 . S
C489 C490 1.363 . S
C489 H492 0.929 . S
C490 C489 1.363 . S
C490 C496 1.428 . S
H491 C487 0.930 . S
H492 C489 0.929 . S
S493 N494 1.613 . S
S493 N495 1.610 . S
N494 S493 1.613 . S
N494 C497 1.350 . S
N495 S493 1.610 . S
N495 C496 1.351 . S
C496 C490 1.428 . S
C496 N495 1.351 . S
C496 C497 1.434 . S
C497 C488 1.429 . S
C497 N494 1.350 . S
C497 C496 1.434 . S
C498 C499 1.369 . S
C498 C500 1.419 . S
C498 H502 0.930 . S
C499 C498 1.369 . S
C499 C508 1.429 . S
C500 C498 1.419 . S
C500 C501 1.363 . S
C500 H503 0.929 . S
C501 C500 1.363 . S
C501 C507 1.428 . S
H502 C498 0.930 . S
H503 C500 0.929 . S
S504 N505 1.613 . S
S504 N506 1.610 . S
N505 S504 1.613 . S
N505 C508 1.350 . S
N506 S504 1.610 . S
N506 C507 1.351 . S
C507 C501 1.428 . S
C507 N506 1.351 . S
C507 C508 1.434 . S
C508 C499 1.429 . S
C508 N505 1.350 . S
C508 C507 1.434 . S
C509 C510 1.369 . S
C509 C511 1.419 . S
C509 H513 0.930 . S
C510 C509 1.369 . S
C510 C519 1.429 . S
C511 C509 1.419 . S
C511 C512 1.363 . S
C511 H514 0.929 . S
C512 C511 1.363 . S
C512 C518 1.428 . S
H513 C509 0.930 . S
H514 C511 0.929 . S
S515 N516 1.613 . S
S515 N517 1.610 . S
N516 S515 1.613 . S
N516 C519 1.350 . S
N517 S515 1.610 . S
N517 C518 1.351 . S
C518 C512 1.428 . S
C518 N517 1.351 . S
C518 C519 1.434 . S
C519 C510 1.429 . S
C519 N516 1.350 . S
C519 C518 1.434 . S
C257 C6 1.045 . S
C259 C102 1.082 . S
C268 C18 1.261 . S
C270 C151 1.253 . S
C281 C186 2.589 . S
C279 C28 2.658 . S
C290 C40 1.973 . S
C292 C225 1.925 . S
C303 C146 2.238 . S
C301 C9 2.069 . S
C314 C105 0.876 . S
C312 C16 0.892 . S
C325 C235 1.940 . S
C323 C30 1.980 . S
C336 C194 1.474 . S
C334 C42 1.502 . S
C345 C4 1.496 . S
C347 C222 1.544 . S
C358 C154 2.516 . S
C356 C33 2.606 . S
C367 C45 2.117 . S
C369 C115 2.109 . S
C378 C21 1.188 . S
C380 C191 1.239 . S
C391 C111 1.093 . S
C389 C57 1.085 . S
C400 C66 1.307 . S
C402 C142 1.287 . S
C411 C76 2.706 . S
C413 C195 2.631 . S
C422 C88 1.909 . S
C424 C234 1.881 . S
C433 C54 2.062 . S
C435 C155 2.235 . S
C446 C114 0.996 . S
C444 C64 1.022 . S
C457 C226 1.867 . S
C455 C78 1.920 . S
C468 C185 1.520 . S
C466 C93 1.548 . S
C477 C52 1.454 . S
C479 C231 1.576 . S
C490 C145 2.504 . S
C488 C81 2.595 . S
C501 C106 2.096 . S
C499 C90 2.100 . S
C510 C69 1.173 . S
C512 C182 1.238 . S
