# Generated by pormake.
# Topology rtl, (3,6)-cn, num edge types: 1
# Building blocks:
#     Node 0, Type 0, BuildingBlock: BELTOD_clean_linker_0, # of connection points: 3
#     Node 1, Type 0, BuildingBlock: BELTOD_clean_linker_0, # of connection points: 3
#     Node 2, Type 0, BuildingBlock: BELTOD_clean_linker_0, # of connection points: 3
#     Node 3, Type 0, BuildingBlock: BELTOD_clean_linker_0, # of connection points: 3
#     Node 4, Type 1, BuildingBlock: FUNLAD_clean_sbu_0, # of connection points: 6
#     Node 5, Type 1, BuildingBlock: FUNLAD_clean_sbu_0, # of connection points: 6
#     Edge 6, Type (0, 1), BuildingBlock: AJUNOK_clean_linker_0, # of connection points: 2
#     Edge 7, Type (0, 1), BuildingBlock: AJUNOK_clean_linker_0, # of connection points: 2
#     Edge 8, Type (0, 1), BuildingBlock: AJUNOK_clean_linker_0, # of connection points: 2
#     Edge 9, Type (0, 1), BuildingBlock: AJUNOK_clean_linker_0, # of connection points: 2
#     Edge 10, Type (0, 1), BuildingBlock: AJUNOK_clean_linker_0, # of connection points: 2
#     Edge 11, Type (0, 1), BuildingBlock: AJUNOK_clean_linker_0, # of connection points: 2
#     Edge 12, Type (0, 1), BuildingBlock: AJUNOK_clean_linker_0, # of connection points: 2
#     Edge 13, Type (0, 1), BuildingBlock: AJUNOK_clean_linker_0, # of connection points: 2
#     Edge 14, Type (0, 1), BuildingBlock: AJUNOK_clean_linker_0, # of connection points: 2
#     Edge 15, Type (0, 1), BuildingBlock: AJUNOK_clean_linker_0, # of connection points: 2
#     Edge 16, Type (0, 1), BuildingBlock: AJUNOK_clean_linker_0, # of connection points: 2
#     Edge 17, Type (0, 1), BuildingBlock: AJUNOK_clean_linker_0, # of connection points: 2
# Relax obj value: 0.021
# Max RMSD: 0.104
# Mean RMSD: 0.085
data_MOF--net-rtl--node1-FUNLAD_clean_sbu_0--node2-BELTOD_clean_linker_0--edge1-AJUNOK_clean_linker_0
_symmetry_space_group_name_H-M    P1
_symmetry_Int_Tables_number       1
_symmetry_cell_setting            triclinic
loop_
_symmetry_equiv_pos_as_xyz
'x, y, z'
_cell_length_a     36.685875
_cell_length_b     29.635516
_cell_length_c     19.874197
_cell_angle_alpha  88.966856
_cell_angle_beta   91.12289
_cell_angle_gamma 90.408653
loop_
_atom_site_label
_atom_site_type_symbol
_atom_site_fract_x
_atom_site_fract_y
_atom_site_fract_z
_atom_type_partial_charge
P0 P 0.14815 0.80112 0.01664 0.0
H1 H 0.16719 0.79941 0.15902 0.0
H2 H 0.13469 0.82491 0.2573 0.0
H3 H 0.03765 0.84459 0.13398 0.0
H4 H 0.06972 0.81705 0.03661 0.0
H5 H 0.18655 0.76152 0.90639 0.0
H6 H 0.22815 0.6977 0.90383 0.0
H7 H 0.19556 0.657 0.10353 0.0
H8 H 0.15377 0.72073 0.10578 0.0
H9 H 0.1336 0.89218 0.97149 0.0
H10 H 0.10724 0.75806 0.90439 0.0
O11 O 0.1842 0.83506 0.02754 0.0
H12 H 0.10158 0.92445 0.87359 0.0
H13 H 0.07527 0.7905 0.80475 0.0
C14 C 0.12105 0.80682 0.09044 0.0
C15 C 0.13853 0.80759 0.15366 0.0
C16 C 0.12 0.82239 0.20967 0.0
C17 C 0.08376 0.83719 0.20313 0.0
C18 C 0.06541 0.83295 0.14079 0.0
C19 C 0.08391 0.81758 0.08484 0.0
C20 C 0.16685 0.74584 0.00603 0.0
C21 C 0.18707 0.73772 0.94842 0.0
C22 C 0.21089 0.7012 0.947 0.0
C23 C 0.21507 0.67244 0.00355 0.0
C24 C 0.19284 0.67874 0.05933 0.0
C25 C 0.16887 0.71517 0.06052 0.0
C26 C 0.12369 0.82283 0.94394 0.0
C27 C 0.12108 0.86966 0.93531 0.0
C28 C 0.10268 0.88806 0.87954 0.0
C29 C 0.08625 0.85994 0.83144 0.0
C30 C 0.08763 0.81286 0.84132 0.0
C31 C 0.10616 0.79436 0.89764 0.0
P32 P 0.64942 0.68798 0.51747 0.0
H33 H 0.668 0.62212 0.41668 0.0
H34 H 0.63617 0.59607 0.31614 0.0
H35 H 0.55519 0.69975 0.33785 0.0
H36 H 0.58678 0.72475 0.44096 0.0
H37 H 0.70149 0.72504 0.61336 0.0
H38 H 0.74399 0.78862 0.60792 0.0
H39 H 0.70038 0.82611 0.41175 0.0
H40 H 0.65697 0.76292 0.418 0.0
H41 H 0.58405 0.63266 0.52825 0.0
H42 H 0.63898 0.73445 0.64625 0.0
O43 O 0.6786 0.6469 0.53851 0.0
H44 H 0.54565 0.61364 0.62309 0.0
H45 H 0.60106 0.71437 0.74206 0.0
C46 C 0.62951 0.67505 0.43657 0.0
C47 C 0.64362 0.63963 0.39969 0.0
C48 C 0.62542 0.62484 0.34192 0.0
C49 C 0.59286 0.64544 0.31953 0.0
C50 C 0.57974 0.68254 0.35475 0.0
C51 C 0.59794 0.69717 0.41307 0.0
C52 C 0.67563 0.73957 0.51667 0.0
C53 C 0.70009 0.74782 0.57017 0.0
C54 C 0.7244 0.78414 0.56704 0.0
C55 C 0.72511 0.81245 0.50974 0.0
C56 C 0.70006 0.80488 0.45668 0.0
C57 C 0.67525 0.76882 0.46033 0.0
C58 C 0.61439 0.68527 0.5796 0.0
C59 C 0.58696 0.65227 0.5735 0.0
C60 C 0.56488 0.64138 0.62781 0.0
C61 C 0.57033 0.66272 0.68964 0.0
C62 C 0.59626 0.69767 0.69462 0.0
C63 C 0.61806 0.70899 0.63983 0.0
P64 P 0.90783 0.28159 0.98742 0.0
H65 H 0.92716 0.30472 0.84952 0.0
H66 H 0.94109 0.25896 0.75189 0.0
H67 H 0.91929 0.13778 0.86851 0.0
H68 H 0.90489 0.18332 0.9651 0.0
H69 H 0.87737 0.36888 0.02008 0.0
H70 H 0.81525 0.39786 0.01841 0.0
H71 H 0.77487 0.26801 0.95369 0.0
H72 H 0.83743 0.23998 0.952 0.0
H73 H 0.96977 0.28029 0.08191 0.0
H74 H 0.86574 0.21268 0.06145 0.0
O75 O 0.93648 0.32558 0.98441 0.0
H76 H 0.98467 0.23298 0.18007 0.0
H77 H 0.88152 0.1631 0.15697 0.0
C78 C 0.91587 0.24751 0.91517 0.0
C79 C 0.92538 0.2683 0.85403 0.0
C80 C 0.93343 0.24218 0.79842 0.0
C81 C 0.93189 0.19483 0.80314 0.0
C82 C 0.9208 0.17422 0.86359 0.0
C83 C 0.91279 0.20034 0.9191 0.0
C84 C 0.86199 0.30252 0.98521 0.0
C85 C 0.85521 0.34681 0.00467 0.0
C86 C 0.81965 0.36324 0.00418 0.0
C87 C 0.79015 0.33541 0.98517 0.0
C88 C 0.79706 0.29069 0.9668 0.0
C89 C 0.83275 0.27449 0.96642 0.0
C90 C 0.91667 0.25001 0.06421 0.0
C91 C 0.95007 0.25533 0.09855 0.0
C92 C 0.95879 0.22777 0.15416 0.0
C93 C 0.93472 0.19336 0.17515 0.0
C94 C 0.90068 0.18921 0.14204 0.0
C95 C 0.89166 0.21752 0.08727 0.0
P96 P 0.41394 0.21784 0.50924 0.0
H97 H 0.43696 0.20061 0.64872 0.0
H98 H 0.44714 0.25045 0.74448 0.0
H99 H 0.41412 0.36482 0.62065 0.0
H100 H 0.40351 0.31486 0.52552 0.0
H101 H 0.38199 0.12777 0.49443 0.0
H102 H 0.31895 0.10066 0.48941 0.0
H103 H 0.28089 0.23714 0.51129 0.0
H104 H 0.34411 0.26392 0.51821 0.0
H105 H 0.48005 0.2637 0.46806 0.0
H106 H 0.37236 0.24014 0.38408 0.0
O107 O 0.44237 0.1743 0.51778 0.0
H108 H 0.49524 0.31013 0.3693 0.0
H109 H 0.38754 0.28626 0.28526 0.0
C110 C 0.42023 0.25424 0.57987 0.0
C111 C 0.43184 0.23638 0.64231 0.0
C112 C 0.43757 0.2648 0.69688 0.0
C113 C 0.4313 0.31141 0.68991 0.0
C114 C 0.41866 0.32896 0.62767 0.0
C115 C 0.41299 0.30051 0.57315 0.0
C116 C 0.36764 0.19776 0.50726 0.0
C117 C 0.36011 0.15184 0.4985 0.0
C118 C 0.32408 0.13645 0.49493 0.0
C119 C 0.29504 0.16692 0.49904 0.0
C120 C 0.30275 0.21293 0.50821 0.0
C121 C 0.33881 0.22823 0.51219 0.0
C122 C 0.42513 0.2486 0.43355 0.0
C123 C 0.45986 0.26809 0.42802 0.0
C124 C 0.46854 0.29439 0.37155 0.0
C125 C 0.44261 0.30143 0.31953 0.0
C126 C 0.40794 0.28141 0.32482 0.0
C127 C 0.3993 0.255 0.38132 0.0
C128 C 0.02313 0.95313 0.40523 0.0
N129 N 0.07714 0.06042 0.49649 0.0
C130 C 0.10659 0.03275 0.49707 0.0
C131 C 0.14172 0.05078 0.49533 0.0
C132 C 0.14661 0.09771 0.49341 0.0
C133 C 0.11592 0.12564 0.4941 0.0
C134 C 0.08113 0.10613 0.4952 0.0
Zn135 Zn 0.02666 0.0312 0.49718 0.0
C136 C 0.97708 0.07072 0.39419 0.0
N137 N 0.92251 0.96656 0.49936 0.0
C138 C 0.92083 0.92072 0.49748 0.0
C139 C 0.89165 0.99179 0.50065 0.0
C140 C 0.85737 0.97085 0.50027 0.0
C141 C 0.85502 0.92366 0.4978 0.0
C142 C 0.88721 0.89852 0.49618 0.0
Zn143 Zn 0.97261 0.99706 0.49888 0.0
O144 O 0.04383 0.98408 0.42762 0.0
C145 C 0.02384 0.95768 0.60126 0.0
O146 O 0.99059 0.95039 0.42576 0.0
H147 H 0.89362 0.0282 0.50175 0.0
H148 H 0.10288 0.99654 0.49882 0.0
H149 H 0.94565 0.90128 0.49691 0.0
O150 O 0.04373 0.98861 0.57621 0.0
O151 O 0.99146 0.95255 0.57843 0.0
H152 H 0.05732 0.12747 0.4948 0.0
O153 O 0.95574 0.0441 0.57178 0.0
O154 O 0.00884 0.07823 0.56708 0.0
O155 O 0.95485 0.04225 0.41952 0.0
O156 O 0.00943 0.07326 0.41763 0.0
C157 C 0.97707 0.07555 0.59112 0.0
H158 H 0.16487 0.02826 0.49607 0.0
H159 H 0.11882 0.16204 0.49283 0.0
H160 H 0.83301 0.99126 0.50112 0.0
H161 H 0.88634 0.86199 0.4948 0.0
C162 C 0.47274 0.43321 0.90498 0.0
N163 N 0.57513 0.44718 -0.00213 0.0
C164 C 0.57832 0.40171 0.99146 0.0
C165 C 0.61269 0.38205 0.98807 0.0
C166 C 0.64393 0.40944 0.99211 0.0
C167 C 0.63997 0.4561 -0.00067 0.0
C168 C 0.6051 0.47444 0.00159 0.0
Zn169 Zn 0.52446 0.47497 0.00232 0.0
C170 C 0.51631 0.55363 0.90938 0.0
N171 N 0.41841 0.5327 0.01145 0.0
C172 C 0.38832 0.50568 0.00639 0.0
C173 C 0.41536 0.57816 0.01744 0.0
C174 C 0.38107 0.59813 0.01848 0.0
C175 C 0.34963 0.57116 0.01244 0.0
C176 C 0.35344 0.52436 0.00645 0.0
Zn177 Zn 0.46929 0.50525 0.00767 0.0
O178 O 0.50556 0.43203 0.92629 0.0
C179 C 0.47819 0.42638 0.10125 0.0
O180 O 0.45097 0.46115 0.93024 0.0
H181 H 0.43958 0.59905 0.02087 0.0
H182 H 0.55418 0.38061 0.98911 0.0
H183 H 0.39136 0.4696 0.00194 0.0
O184 O 0.50966 0.42673 0.07578 0.0
O185 O 0.45516 0.45605 0.082 0.0
H186 H 0.60198 0.51049 0.00634 0.0
O187 O 0.48888 0.549 0.08541 0.0
O188 O 0.5429 0.51839 0.07753 0.0
O189 O 0.48436 0.55406 0.93296 0.0
O190 O 0.5387 0.52365 0.92975 0.0
C191 C 0.52222 0.54693 0.10399 0.0
H192 H 0.61487 0.34583 0.98322 0.0
H193 H 0.6636 0.47815 0.00242 0.0
H194 H 0.37911 0.63442 0.02282 0.0
H195 H 0.32974 0.50251 0.0024 0.0
C196 C 0.2314 0.16416 0.54236 0.0
C197 C 0.25677 0.15066 0.49457 0.0
C198 C 0.19547 0.14775 0.54076 0.0
C199 C 0.1838 0.11713 0.49151 0.0
H200 H 0.23961 0.18675 0.58225 0.0
H201 H 0.17699 0.1581 0.57933 0.0
S202 S 0.23822 0.07524 0.35071 0.0
N203 N 0.26672 0.10789 0.39331 0.0
N204 N 0.19933 0.07653 0.39106 0.0
C205 C 0.2085 0.10441 0.44234 0.0
C206 C 0.24497 0.12128 0.44369 0.0
C207 C 0.27139 0.64517 0.06289 0.0
C208 C 0.2465 0.64128 0.00848 0.0
C209 C 0.30421 0.62134 0.0646 0.0
C210 C 0.31319 0.59234 0.01237 0.0
H211 H 0.26624 0.66839 0.10305 0.0
H212 H 0.32309 0.62635 0.10648 0.0
S213 S 0.25637 0.56798 0.86084 0.0
N214 N 0.2322 0.60454 0.90278 0.0
N215 N 0.29401 0.55945 0.90616 0.0
C216 C 0.28794 0.58666 0.95903 0.0
C217 C 0.25461 0.61129 0.95696 0.0
C218 C 0.77897 0.84286 0.44888 0.0
C219 C 0.75487 0.84609 0.50269 0.0
C220 C 0.8108 0.86919 0.44658 0.0
C221 C 0.81932 0.90011 0.49748 0.0
H222 H 0.7741 0.81824 0.40999 0.0
H223 H 0.82935 0.8646 0.40555 0.0
S224 S 0.76373 0.92365 0.64641 0.0
N225 N 0.74054 0.88417 0.60603 0.0
N226 N 0.8003 0.93413 0.60132 0.0
C227 C 0.7946 0.9052 0.54985 0.0
C228 C 0.7624 0.87799 0.55261 0.0
C229 C 0.741 0.37854 0.04091 0.0
C230 C 0.75235 0.35308 0.98602 0.0
C231 C 0.70588 0.39661 0.04248 0.0
C232 C 0.68067 0.38947 0.9896 0.0
H233 H 0.75937 0.38438 0.08327 0.0
H234 H 0.69825 0.41603 0.08562 0.0
S235 S 0.69697 0.32751 0.83289 0.0
N236 N 0.73579 0.32351 0.87602 0.0
N237 N 0.66936 0.35655 0.88014 0.0
C238 C 0.69143 0.36409 0.93455 0.0
C239 C 0.72736 0.34608 0.9325 0.0
C240 C 0.08821 0.89892 0.28592 0.0
C241 C 0.06761 0.86362 0.25764 0.0
C242 C 0.07352 0.92708 0.33376 0.0
C243 C 0.03746 0.92136 0.35551 0.0
H244 H 0.11576 0.9057 0.26965 0.0
H245 H 0.09066 0.954 0.3531 0.0
S246 S 0.97255 0.8323 0.2994 0.0
N247 N 0.00977 0.82314 0.25635 0.0
N248 N 0.98177 0.87645 0.34654 0.0
C249 C 0.0166 0.88567 0.32849 0.0
C250 C 0.03172 0.85682 0.27942 0.0
C251 C 0.57799 0.62611 0.80211 0.0
C252 C 0.55436 0.64237 0.75088 0.0
C253 C 0.56505 0.5987 0.85447 0.0
C254 C 0.52791 0.58706 0.85811 0.0
H255 H 0.60707 0.63247 0.79967 0.0
H256 H 0.5845 0.58552 0.89144 0.0
S257 S 0.45435 0.62461 0.73978 0.0
N258 N 0.49185 0.64748 0.709 0.0
N259 N 0.46719 0.59649 0.80867 0.0
C260 C 0.5036 0.60526 0.80944 0.0
C261 C 0.51693 0.6327 0.75536 0.0
C262 C 0.92078 0.14857 0.28042 0.0
C263 C 0.94557 0.16102 0.22995 0.0
C264 C 0.93076 0.11846 0.33283 0.0
C265 C 0.96603 0.10032 0.33704 0.0
H266 H 0.89364 0.16276 0.28006 0.0
H267 H 0.91108 0.11024 0.37119 0.0
S268 S 0.03969 0.11763 0.21386 0.0
N269 N 0.00578 0.14902 0.18435 0.0
N270 N 0.0249 0.09412 0.2842 0.0
C271 C 0.99078 0.11161 0.28629 0.0
C272 C 0.98048 0.14155 0.23244 0.0
C273 C 0.47463 0.33927 0.77813 0.0
C274 C 0.4402 0.34192 0.74621 0.0
C275 C 0.48465 0.3688 0.82946 0.0
C276 C 0.46057 0.4021 0.85128 0.0
H277 H 0.49432 0.31471 0.76238 0.0
H278 H 0.51167 0.36549 0.85191 0.0
S279 S 0.36633 0.4214 0.78581 0.0
N280 N 0.38139 0.37915 0.74122 0.0
N281 N 0.40013 0.43498 0.83786 0.0
C282 C 0.42573 0.40463 0.82043 0.0
C283 C 0.4156 0.37454 0.7678 0.0
C284 C 0.59178 0.61363 0.20406 0.0
C285 C 0.57252 0.62643 0.26107 0.0
C286 C 0.57479 0.58923 0.15259 0.0
C287 C 0.5377 0.5772 0.15549 0.0
H288 H 0.62057 0.62137 0.20008 0.0
H289 H 0.59108 0.57895 0.1107 0.0
S290 S 0.47443 0.60435 0.29183 0.0
N291 N 0.51389 0.62633 0.3164 0.0
N292 N 0.48165 0.58163 0.21803 0.0
C293 C 0.51752 0.59175 0.21026 0.0
C294 C 0.535 0.61614 0.26343 0.0
C295 C 0.92047 0.13099 0.72443 0.0
C296 C 0.94298 0.16666 0.74623 0.0
C297 C 0.93139 0.1023 0.67337 0.0
C298 C 0.96541 0.10794 0.6425 0.0
H299 H 0.89425 0.1251 0.74727 0.0
H300 H 0.91318 0.07509 0.65881 0.0
S301 S 0.03447 0.19649 0.68207 0.0
N302 N 0.00076 0.20615 0.73357 0.0
N303 N 0.02135 0.15267 0.63736 0.0
C304 C 0.98799 0.14397 0.66343 0.0
C305 C 0.97675 0.17322 0.71527 0.0
C306 C 0.42776 0.36666 0.24258 0.0
C307 C 0.45127 0.33112 0.26118 0.0
C308 C 0.43639 0.39684 0.19011 0.0
C309 C 0.46885 0.39257 0.15419 0.0
H310 H 0.40292 0.37187 0.26992 0.0
H311 H 0.41773 0.4242 0.17856 0.0
S312 S 0.53785 0.30227 0.17953 0.0
N313 N 0.507 0.29129 0.23703 0.0
N314 N 0.52351 0.34794 0.13856 0.0
C315 C 0.49209 0.35624 0.17115 0.0
C316 C 0.48324 0.32558 0.22462 0.0
C317 C 0.09056 0.91231 0.73298 0.0
C318 C 0.06992 0.88067 0.76963 0.0
C319 C 0.07547 0.93597 0.67799 0.0
C320 C 0.03894 0.92918 0.65718 0.0
H321 H 0.11862 0.91934 0.74756 0.0
H322 H 0.09266 0.9604 0.65236 0.0
S323 S 0.97373 0.84818 0.73474 0.0
N324 N 0.01156 0.84224 0.78043 0.0
N325 N 0.98286 0.88675 0.67629 0.0
C326 C 0.01821 0.89646 0.69211 0.0
C327 C 0.03379 0.87215 0.74842 0.0
loop_
_geom_bond_atom_site_label_1
_geom_bond_atom_site_label_2
_geom_bond_distance
_geom_bond_site_symmetry_2
_ccdc_geom_bond_type
P0 O11 1.490 . S
P0 C14 1.812 . S
P0 C20 1.803 . S
P0 C26 1.819 1_554 S
H1 C15 0.941 . S
H2 C16 0.939 . S
H3 C18 0.940 . S
H4 C19 0.940 . S
H5 C21 0.939 . S
H6 C22 0.942 . S
H7 C24 0.940 . S
H8 C25 0.939 . S
H9 C27 0.941 . S
H10 C31 0.939 . S
O11 P0 1.490 . S
H12 C28 0.939 . S
H13 C30 0.940 . S
C14 P0 1.812 . S
C14 C15 1.389 . S
C14 C19 1.391 . S
C15 H1 0.941 . S
C15 C14 1.389 . S
C15 C16 1.397 . S
C16 H2 0.939 . S
C16 C15 1.397 . S
C16 C17 1.378 . S
C17 C16 1.378 . S
C17 C18 1.378 . S
C18 H3 0.940 . S
C18 C17 1.378 . S
C18 C19 1.396 . S
C19 H4 0.940 . S
C19 C14 1.391 . S
C19 C18 1.396 . S
C20 P0 1.803 . S
C20 C21 1.378 1_554 S
C20 C25 1.400 . S
C21 H5 0.939 . S
C21 C20 1.378 1_556 S
C21 C22 1.361 . S
C22 H6 0.942 . S
C22 C21 1.361 . S
C22 C23 1.369 1_556 S
C23 C22 1.369 1_554 S
C23 C24 1.404 . S
C24 H7 0.940 . S
C24 C23 1.404 . S
C24 C25 1.389 . S
C25 H8 0.939 . S
C25 C20 1.400 . S
C25 C24 1.389 . S
C26 P0 1.819 1_556 S
C26 C27 1.391 . S
C26 C31 1.391 . S
C27 H9 0.941 . S
C27 C26 1.391 . S
C27 C28 1.396 . S
C28 H12 0.939 . S
C28 C27 1.396 . S
C28 C29 1.397 . S
C29 C28 1.397 . S
C29 C30 1.385 . S
C30 H13 0.940 . S
C30 C29 1.385 . S
C30 C31 1.388 . S
C31 H10 0.939 . S
C31 C26 1.391 . S
C31 C30 1.388 . S
P32 O43 1.490 . S
P32 C46 1.812 . S
P32 C52 1.803 . S
P32 C58 1.819 . S
H33 C47 0.941 . S
H34 C48 0.939 . S
H35 C50 0.940 . S
H36 C51 0.940 . S
H37 C53 0.939 . S
H38 C54 0.942 . S
H39 C56 0.940 . S
H40 C57 0.939 . S
H41 C59 0.941 . S
H42 C63 0.939 . S
O43 P32 1.490 . S
H44 C60 0.939 . S
H45 C62 0.940 . S
C46 P32 1.812 . S
C46 C47 1.389 . S
C46 C51 1.391 . S
C47 H33 0.941 . S
C47 C46 1.389 . S
C47 C48 1.397 . S
C48 H34 0.939 . S
C48 C47 1.397 . S
C48 C49 1.378 . S
C49 C48 1.378 . S
C49 C50 1.378 . S
C50 H35 0.940 . S
C50 C49 1.378 . S
C50 C51 1.396 . S
C51 H36 0.940 . S
C51 C46 1.391 . S
C51 C50 1.396 . S
C52 P32 1.803 . S
C52 C53 1.378 . S
C52 C57 1.400 . S
C53 H37 0.939 . S
C53 C52 1.378 . S
C53 C54 1.361 . S
C54 H38 0.942 . S
C54 C53 1.361 . S
C54 C55 1.369 . S
C55 C54 1.369 . S
C55 C56 1.404 . S
C56 H39 0.940 . S
C56 C55 1.404 . S
C56 C57 1.389 . S
C57 H40 0.939 . S
C57 C52 1.400 . S
C57 C56 1.389 . S
C58 P32 1.819 . S
C58 C59 1.391 . S
C58 C63 1.391 . S
C59 H41 0.941 . S
C59 C58 1.391 . S
C59 C60 1.396 . S
C60 H44 0.939 . S
C60 C59 1.396 . S
C60 C61 1.397 . S
C61 C60 1.397 . S
C61 C62 1.385 . S
C62 H45 0.940 . S
C62 C61 1.385 . S
C62 C63 1.388 . S
C63 H42 0.939 . S
C63 C58 1.391 . S
C63 C62 1.388 . S
P64 O75 1.490 . S
P64 C78 1.812 . S
P64 C84 1.803 . S
P64 C90 1.819 1_556 S
H65 C79 0.941 . S
H66 C80 0.939 . S
H67 C82 0.940 . S
H68 C83 0.940 . S
H69 C85 0.939 . S
H70 C86 0.942 . S
H71 C88 0.940 . S
H72 C89 0.939 . S
H73 C91 0.941 . S
H74 C95 0.939 . S
O75 P64 1.490 . S
H76 C92 0.939 . S
H77 C94 0.940 . S
C78 P64 1.812 . S
C78 C79 1.389 . S
C78 C83 1.391 . S
C79 H65 0.941 . S
C79 C78 1.389 . S
C79 C80 1.397 . S
C80 H66 0.939 . S
C80 C79 1.397 . S
C80 C81 1.378 . S
C81 C80 1.378 . S
C81 C82 1.378 . S
C82 H67 0.940 . S
C82 C81 1.378 . S
C82 C83 1.396 . S
C83 H68 0.940 . S
C83 C78 1.391 . S
C83 C82 1.396 . S
C84 P64 1.803 . S
C84 C85 1.378 1_556 S
C84 C89 1.400 . S
C85 H69 0.939 . S
C85 C84 1.378 1_554 S
C85 C86 1.361 . S
C86 H70 0.942 . S
C86 C85 1.361 . S
C86 C87 1.369 . S
C87 C86 1.369 . S
C87 C88 1.404 1_554 S
C88 H71 0.940 . S
C88 C87 1.404 1_556 S
C88 C89 1.389 . S
C89 H72 0.939 . S
C89 C84 1.400 . S
C89 C88 1.389 . S
C90 P64 1.819 1_554 S
C90 C91 1.391 . S
C90 C95 1.391 . S
C91 H73 0.941 . S
C91 C90 1.391 . S
C91 C92 1.396 . S
C92 H76 0.939 . S
C92 C91 1.396 . S
C92 C93 1.397 . S
C93 C92 1.397 . S
C93 C94 1.385 . S
C94 H77 0.940 . S
C94 C93 1.385 . S
C94 C95 1.388 . S
C95 H74 0.939 . S
C95 C90 1.391 . S
C95 C94 1.388 . S
P96 O107 1.490 . S
P96 C110 1.812 . S
P96 C116 1.803 . S
P96 C122 1.819 . S
H97 C111 0.941 . S
H98 C112 0.939 . S
H99 C114 0.940 . S
H100 C115 0.940 . S
H101 C117 0.939 . S
H102 C118 0.942 . S
H103 C120 0.940 . S
H104 C121 0.939 . S
H105 C123 0.941 . S
H106 C127 0.939 . S
O107 P96 1.490 . S
H108 C124 0.939 . S
H109 C126 0.940 . S
C110 P96 1.812 . S
C110 C111 1.389 . S
C110 C115 1.391 . S
C111 H97 0.941 . S
C111 C110 1.389 . S
C111 C112 1.397 . S
C112 H98 0.939 . S
C112 C111 1.397 . S
C112 C113 1.378 . S
C113 C112 1.378 . S
C113 C114 1.378 . S
C114 H99 0.940 . S
C114 C113 1.378 . S
C114 C115 1.396 . S
C115 H100 0.940 . S
C115 C110 1.391 . S
C115 C114 1.396 . S
C116 P96 1.803 . S
C116 C117 1.378 . S
C116 C121 1.400 . S
C117 H101 0.939 . S
C117 C116 1.378 . S
C117 C118 1.361 . S
C118 H102 0.942 . S
C118 C117 1.361 . S
C118 C119 1.369 . S
C119 C118 1.369 . S
C119 C120 1.404 . S
C120 H103 0.940 . S
C120 C119 1.404 . S
C120 C121 1.389 . S
C121 H104 0.939 . S
C121 C116 1.400 . S
C121 C120 1.389 . S
C122 P96 1.819 . S
C122 C123 1.391 . S
C122 C127 1.391 . S
C123 H105 0.941 . S
C123 C122 1.391 . S
C123 C124 1.396 . S
C124 H108 0.939 . S
C124 C123 1.396 . S
C124 C125 1.397 . S
C125 C124 1.397 . S
C125 C126 1.385 . S
C126 H109 0.940 . S
C126 C125 1.385 . S
C126 C127 1.388 . S
C127 H106 0.939 . S
C127 C122 1.391 . S
C127 C126 1.388 . S
C128 O144 1.251 . S
C128 O146 1.254 1_455 S
N129 C130 1.333 . S
N129 C134 1.307 . S
N129 Zn135 2.020 . S
C130 N129 1.333 . S
C130 C131 1.379 . S
C130 H148 0.952 . S
C131 C130 1.379 . S
C131 C132 1.390 . S
C131 H158 0.949 . S
C132 C131 1.390 . S
C132 C133 1.357 . S
C133 C132 1.357 . S
C133 C134 1.370 . S
C133 H159 0.950 . S
C134 N129 1.307 . S
C134 C133 1.370 . S
C134 H152 0.948 . S
Zn135 N129 2.020 . S
Zn135 O144 2.039 1_545 S
Zn135 O150 2.034 1_545 S
Zn135 O154 2.025 . S
Zn135 O156 2.024 . S
C136 O155 1.246 . S
C136 O156 1.249 1_655 S
N137 C138 1.307 . S
N137 C139 1.333 . S
N137 Zn143 2.020 . S
C138 N137 1.307 . S
C138 C142 1.370 . S
C138 H149 0.948 . S
C139 N137 1.333 . S
C139 C140 1.379 . S
C139 H147 0.952 . S
C140 C139 1.379 . S
C140 C141 1.390 . S
C140 H160 0.949 . S
C141 C140 1.390 . S
C141 C142 1.357 . S
C142 C138 1.370 . S
C142 C141 1.357 . S
C142 H161 0.950 . S
Zn143 N137 2.020 . S
Zn143 O146 2.025 . S
Zn143 O151 2.024 . S
Zn143 O153 2.039 1_565 S
Zn143 O155 2.034 1_565 S
O144 C128 1.251 . S
O144 Zn135 2.039 1_565 S
C145 O150 1.246 . S
C145 O151 1.249 1_455 S
O146 C128 1.254 1_655 S
O146 Zn143 2.025 . S
H147 C139 0.952 . S
H148 C130 0.952 . S
H149 C138 0.948 . S
O150 Zn135 2.034 1_565 S
O150 C145 1.246 . S
O151 Zn143 2.024 . S
O151 C145 1.249 1_655 S
H152 C134 0.948 . S
O153 Zn143 2.039 1_545 S
O153 C157 1.251 . S
O154 Zn135 2.025 . S
O154 C157 1.254 1_455 S
O155 C136 1.246 . S
O155 Zn143 2.034 1_545 S
O156 Zn135 2.024 . S
O156 C136 1.249 1_455 S
C157 O153 1.251 . S
C157 O154 1.254 1_655 S
H158 C131 0.949 . S
H159 C133 0.950 . S
H160 C140 0.949 . S
H161 C142 0.950 . S
C162 O178 1.251 . S
C162 O180 1.254 . S
N163 C164 1.333 1_554 S
N163 C168 1.307 . S
N163 Zn169 2.020 . S
C164 N163 1.333 1_556 S
C164 C165 1.379 . S
C164 H182 0.952 . S
C165 C164 1.379 . S
C165 C166 1.390 1_556 S
C165 H192 0.949 . S
C166 C165 1.390 1_554 S
C166 C167 1.357 . S
C167 C166 1.357 . S
C167 C168 1.370 . S
C167 H193 0.950 . S
C168 N163 1.307 . S
C168 C167 1.370 . S
C168 H186 0.948 . S
Zn169 N163 2.020 . S
Zn169 O178 2.039 1_554 S
Zn169 O184 2.034 . S
Zn169 O188 2.025 . S
Zn169 O190 2.024 1_554 S
C170 O189 1.246 . S
C170 O190 1.249 . S
N171 C172 1.307 1_554 S
N171 C173 1.333 . S
N171 Zn177 2.020 . S
C172 N171 1.307 1_556 S
C172 C176 1.370 . S
C172 H183 0.948 . S
C173 N171 1.333 . S
C173 C174 1.379 . S
C173 H181 0.952 . S
C174 C173 1.379 . S
C174 C175 1.390 . S
C174 H194 0.949 . S
C175 C174 1.390 . S
C175 C176 1.357 1_554 S
C176 C172 1.370 . S
C176 C175 1.357 1_556 S
C176 H195 0.950 . S
Zn177 N171 2.020 . S
Zn177 O180 2.025 1_554 S
Zn177 O185 2.024 . S
Zn177 O187 2.039 . S
Zn177 O189 2.034 1_554 S
O178 C162 1.251 . S
O178 Zn169 2.039 1_556 S
C179 O184 1.246 . S
C179 O185 1.249 . S
O180 C162 1.254 . S
O180 Zn177 2.025 1_556 S
H181 C173 0.952 . S
H182 C164 0.952 . S
H183 C172 0.948 . S
O184 Zn169 2.034 . S
O184 C179 1.246 . S
O185 Zn177 2.024 . S
O185 C179 1.249 . S
H186 C168 0.948 . S
O187 Zn177 2.039 . S
O187 C191 1.251 . S
O188 Zn169 2.025 . S
O188 C191 1.254 . S
O189 C170 1.246 . S
O189 Zn177 2.034 1_556 S
O190 Zn169 2.024 1_556 S
O190 C170 1.249 . S
C191 O187 1.251 . S
C191 O188 1.254 . S
H192 C165 0.949 . S
H193 C167 0.950 . S
H194 C174 0.949 . S
H195 C176 0.950 . S
C196 C197 1.369 . S
C196 C198 1.419 . S
C196 H200 0.930 . S
C197 C196 1.369 . S
C197 C206 1.429 . S
C198 C196 1.419 . S
C198 C199 1.363 . S
C198 H201 0.929 . S
C199 C198 1.363 . S
C199 C205 1.428 . S
H200 C196 0.930 . S
H201 C198 0.929 . S
S202 N203 1.613 . S
S202 N204 1.610 . S
N203 S202 1.613 . S
N203 C206 1.350 . S
N204 S202 1.610 . S
N204 C205 1.351 . S
C205 C199 1.428 . S
C205 N204 1.351 . S
C205 C206 1.434 . S
C206 C197 1.429 . S
C206 N203 1.350 . S
C206 C205 1.434 . S
C207 C208 1.369 . S
C207 C209 1.419 . S
C207 H211 0.930 . S
C208 C207 1.369 . S
C208 C217 1.429 1_554 S
C209 C207 1.419 . S
C209 C210 1.363 . S
C209 H212 0.929 . S
C210 C209 1.363 . S
C210 C216 1.428 1_554 S
H211 C207 0.930 . S
H212 C209 0.929 . S
S213 N214 1.613 . S
S213 N215 1.610 . S
N214 S213 1.613 . S
N214 C217 1.350 . S
N215 S213 1.610 . S
N215 C216 1.351 . S
C216 C210 1.428 1_556 S
C216 N215 1.351 . S
C216 C217 1.434 . S
C217 C208 1.429 1_556 S
C217 N214 1.350 . S
C217 C216 1.434 . S
C218 C219 1.369 . S
C218 C220 1.419 . S
C218 H222 0.930 . S
C219 C218 1.369 . S
C219 C228 1.429 . S
C220 C218 1.419 . S
C220 C221 1.363 . S
C220 H223 0.929 . S
C221 C220 1.363 . S
C221 C227 1.428 . S
H222 C218 0.930 . S
H223 C220 0.929 . S
S224 N225 1.613 . S
S224 N226 1.610 . S
N225 S224 1.613 . S
N225 C228 1.350 . S
N226 S224 1.610 . S
N226 C227 1.351 . S
C227 C221 1.428 . S
C227 N226 1.351 . S
C227 C228 1.434 . S
C228 C219 1.429 . S
C228 N225 1.350 . S
C228 C227 1.434 . S
C229 C230 1.369 . S
C229 C231 1.419 . S
C229 H233 0.930 . S
C230 C229 1.369 . S
C230 C239 1.429 1_554 S
C231 C229 1.419 . S
C231 C232 1.363 . S
C231 H234 0.929 . S
C232 C231 1.363 . S
C232 C238 1.428 1_554 S
H233 C229 0.930 . S
H234 C231 0.929 . S
S235 N236 1.613 . S
S235 N237 1.610 . S
N236 S235 1.613 . S
N236 C239 1.350 . S
N237 S235 1.610 . S
N237 C238 1.351 . S
C238 C232 1.428 1_556 S
C238 N237 1.351 . S
C238 C239 1.434 . S
C239 C230 1.429 1_556 S
C239 N236 1.350 . S
C239 C238 1.434 . S
C240 C241 1.369 . S
C240 C242 1.419 . S
C240 H244 0.930 . S
C241 C240 1.369 . S
C241 C250 1.429 . S
C242 C240 1.419 . S
C242 C243 1.363 . S
C242 H245 0.929 . S
C243 C242 1.363 . S
C243 C249 1.428 . S
H244 C240 0.930 . S
H245 C242 0.929 . S
S246 N247 1.613 1_655 S
S246 N248 1.610 1_655 S
N247 S246 1.613 1_455 S
N247 C250 1.350 . S
N248 S246 1.610 1_455 S
N248 C249 1.351 . S
C249 C243 1.428 . S
C249 N248 1.351 . S
C249 C250 1.434 . S
C250 C241 1.429 . S
C250 N247 1.350 . S
C250 C249 1.434 . S
C251 C252 1.369 . S
C251 C253 1.419 . S
C251 H255 0.930 . S
C252 C251 1.369 . S
C252 C261 1.429 . S
C253 C251 1.419 . S
C253 C254 1.363 . S
C253 H256 0.929 . S
C254 C253 1.363 . S
C254 C260 1.428 . S
H255 C251 0.930 . S
H256 C253 0.929 . S
S257 N258 1.613 . S
S257 N259 1.610 . S
N258 S257 1.613 . S
N258 C261 1.350 . S
N259 S257 1.610 . S
N259 C260 1.351 . S
C260 C254 1.428 . S
C260 N259 1.351 . S
C260 C261 1.434 . S
C261 C252 1.429 . S
C261 N258 1.350 . S
C261 C260 1.434 . S
C262 C263 1.369 . S
C262 C264 1.419 . S
C262 H266 0.930 . S
C263 C262 1.369 . S
C263 C272 1.429 . S
C264 C262 1.419 . S
C264 C265 1.363 . S
C264 H267 0.929 . S
C265 C264 1.363 . S
C265 C271 1.428 . S
H266 C262 0.930 . S
H267 C264 0.929 . S
S268 N269 1.613 . S
S268 N270 1.610 . S
N269 S268 1.613 . S
N269 C272 1.350 . S
N270 S268 1.610 . S
N270 C271 1.351 . S
C271 C265 1.428 . S
C271 N270 1.351 . S
C271 C272 1.434 . S
C272 C263 1.429 . S
C272 N269 1.350 . S
C272 C271 1.434 . S
C273 C274 1.369 . S
C273 C275 1.419 . S
C273 H277 0.930 . S
C274 C273 1.369 . S
C274 C283 1.429 . S
C275 C273 1.419 . S
C275 C276 1.363 . S
C275 H278 0.929 . S
C276 C275 1.363 . S
C276 C282 1.428 . S
H277 C273 0.930 . S
H278 C275 0.929 . S
S279 N280 1.613 . S
S279 N281 1.610 . S
N280 S279 1.613 . S
N280 C283 1.350 . S
N281 S279 1.610 . S
N281 C282 1.351 . S
C282 C276 1.428 . S
C282 N281 1.351 . S
C282 C283 1.434 . S
C283 C274 1.429 . S
C283 N280 1.350 . S
C283 C282 1.434 . S
C284 C285 1.369 . S
C284 C286 1.419 . S
C284 H288 0.930 . S
C285 C284 1.369 . S
C285 C294 1.429 . S
C286 C284 1.419 . S
C286 C287 1.363 . S
C286 H289 0.929 . S
C287 C286 1.363 . S
C287 C293 1.428 . S
H288 C284 0.930 . S
H289 C286 0.929 . S
S290 N291 1.613 . S
S290 N292 1.610 . S
N291 S290 1.613 . S
N291 C294 1.350 . S
N292 S290 1.610 . S
N292 C293 1.351 . S
C293 C287 1.428 . S
C293 N292 1.351 . S
C293 C294 1.434 . S
C294 C285 1.429 . S
C294 N291 1.350 . S
C294 C293 1.434 . S
C295 C296 1.369 . S
C295 C297 1.419 . S
C295 H299 0.930 . S
C296 C295 1.369 . S
C296 C305 1.429 . S
C297 C295 1.419 . S
C297 C298 1.363 . S
C297 H300 0.929 . S
C298 C297 1.363 . S
C298 C304 1.428 . S
H299 C295 0.930 . S
H300 C297 0.929 . S
S301 N302 1.613 . S
S301 N303 1.610 . S
N302 S301 1.613 . S
N302 C305 1.350 1_455 S
N303 S301 1.610 . S
N303 C304 1.351 1_455 S
C304 C298 1.428 . S
C304 N303 1.351 1_655 S
C304 C305 1.434 . S
C305 C296 1.429 . S
C305 N302 1.350 1_655 S
C305 C304 1.434 . S
C306 C307 1.369 . S
C306 C308 1.419 . S
C306 H310 0.930 . S
C307 C306 1.369 . S
C307 C316 1.429 . S
C308 C306 1.419 . S
C308 C309 1.363 . S
C308 H311 0.929 . S
C309 C308 1.363 . S
C309 C315 1.428 . S
H310 C306 0.930 . S
H311 C308 0.929 . S
S312 N313 1.613 . S
S312 N314 1.610 . S
N313 S312 1.613 . S
N313 C316 1.350 . S
N314 S312 1.610 . S
N314 C315 1.351 . S
C315 C309 1.428 . S
C315 N314 1.351 . S
C315 C316 1.434 . S
C316 C307 1.429 . S
C316 N313 1.350 . S
C316 C315 1.434 . S
C317 C318 1.369 . S
C317 C319 1.419 . S
C317 H321 0.930 . S
C318 C317 1.369 . S
C318 C327 1.429 . S
C319 C317 1.419 . S
C319 C320 1.363 . S
C319 H322 0.929 . S
C320 C319 1.363 . S
C320 C326 1.428 . S
H321 C317 0.930 . S
H322 C319 0.929 . S
S323 N324 1.613 . S
S323 N325 1.610 . S
N324 S323 1.613 . S
N324 C327 1.350 . S
N325 S323 1.610 . S
N325 C326 1.351 . S
C326 C320 1.428 . S
C326 N325 1.351 . S
C326 C327 1.434 . S
C327 C318 1.429 . S
C327 N324 1.350 . S
C327 C326 1.434 . S
C199 C132 1.615 . S
C197 C119 1.620 . S
C208 C23 1.468 . S
C210 C175 1.551 . S
C219 C55 1.495 . S
C221 C141 1.615 . S
C230 C87 1.565 . S
C232 C166 1.553 . S
C243 C128 1.606 . S
C241 C17 1.500 . S
C254 C170 1.685 . S
C252 C61 1.526 . S
C263 C93 1.609 . S
C265 C136 1.596 . S
C274 C113 1.688 . S
C276 C162 1.685 . S
C287 C191 1.685 . S
C285 C49 1.533 . S
C298 C157 1.606 . S
C296 C81 1.616 . S
C309 C179 1.685 . S
C307 C125 1.698 . S
C318 C29 1.474 . S
C320 C145 1.593 . S
