# Generated by pormake.
# Topology zzz, (3,6)-cn, num edge types: 1
# Building blocks:
#     Node 0, Type 0, BuildingBlock: QEWDON_clean_linker_0, # of connection points: 3
#     Node 1, Type 0, BuildingBlock: QEWDON_clean_linker_0, # of connection points: 3
#     Node 2, Type 0, BuildingBlock: QEWDON_clean_linker_0, # of connection points: 3
#     Node 3, Type 0, BuildingBlock: QEWDON_clean_linker_0, # of connection points: 3
#     Node 4, Type 0, BuildingBlock: QEWDON_clean_linker_0, # of connection points: 3
#     Node 5, Type 0, BuildingBlock: QEWDON_clean_linker_0, # of connection points: 3
#     Node 6, Type 0, BuildingBlock: QEWDON_clean_linker_0, # of connection points: 3
#     Node 7, Type 0, BuildingBlock: QEWDON_clean_linker_0, # of connection points: 3
#     Node 8, Type 1, BuildingBlock: KUMBOL_clean_sbu_1, # of connection points: 6
#     Node 9, Type 1, BuildingBlock: KUMBOL_clean_sbu_1, # of connection points: 6
#     Node 10, Type 1, BuildingBlock: KUMBOL_clean_sbu_1, # of connection points: 6
#     Node 11, Type 1, BuildingBlock: KUMBOL_clean_sbu_1, # of connection points: 6
#     Edge 12, Type (0, 1), BuildingBlock: UVAHIK_clean_linker_0, # of connection points: 2
#     Edge 13, Type (0, 1), BuildingBlock: UVAHIK_clean_linker_0, # of connection points: 2
#     Edge 14, Type (0, 1), BuildingBlock: UVAHIK_clean_linker_0, # of connection points: 2
#     Edge 15, Type (0, 1), BuildingBlock: UVAHIK_clean_linker_0, # of connection points: 2
#     Edge 16, Type (0, 1), BuildingBlock: UVAHIK_clean_linker_0, # of connection points: 2
#     Edge 17, Type (0, 1), BuildingBlock: UVAHIK_clean_linker_0, # of connection points: 2
#     Edge 18, Type (0, 1), BuildingBlock: UVAHIK_clean_linker_0, # of connection points: 2
#     Edge 19, Type (0, 1), BuildingBlock: UVAHIK_clean_linker_0, # of connection points: 2
#     Edge 20, Type (0, 1), BuildingBlock: UVAHIK_clean_linker_0, # of connection points: 2
#     Edge 21, Type (0, 1), BuildingBlock: UVAHIK_clean_linker_0, # of connection points: 2
#     Edge 22, Type (0, 1), BuildingBlock: UVAHIK_clean_linker_0, # of connection points: 2
#     Edge 23, Type (0, 1), BuildingBlock: UVAHIK_clean_linker_0, # of connection points: 2
#     Edge 24, Type (0, 1), BuildingBlock: UVAHIK_clean_linker_0, # of connection points: 2
#     Edge 25, Type (0, 1), BuildingBlock: UVAHIK_clean_linker_0, # of connection points: 2
#     Edge 26, Type (0, 1), BuildingBlock: UVAHIK_clean_linker_0, # of connection points: 2
#     Edge 27, Type (0, 1), BuildingBlock: UVAHIK_clean_linker_0, # of connection points: 2
#     Edge 28, Type (0, 1), BuildingBlock: UVAHIK_clean_linker_0, # of connection points: 2
#     Edge 29, Type (0, 1), BuildingBlock: UVAHIK_clean_linker_0, # of connection points: 2
#     Edge 30, Type (0, 1), BuildingBlock: UVAHIK_clean_linker_0, # of connection points: 2
#     Edge 31, Type (0, 1), BuildingBlock: UVAHIK_clean_linker_0, # of connection points: 2
#     Edge 32, Type (0, 1), BuildingBlock: UVAHIK_clean_linker_0, # of connection points: 2
#     Edge 33, Type (0, 1), BuildingBlock: UVAHIK_clean_linker_0, # of connection points: 2
#     Edge 34, Type (0, 1), BuildingBlock: UVAHIK_clean_linker_0, # of connection points: 2
#     Edge 35, Type (0, 1), BuildingBlock: UVAHIK_clean_linker_0, # of connection points: 2
# Relax obj value: 0.091
# Max RMSD: 0.085
# Mean RMSD: 0.034
data_MOF--net-zzz--node1-KUMBOL_clean_sbu_1--node2-QEWDON_clean_linker_0--edge1-UVAHIK_clean_linker_0
_symmetry_space_group_name_H-M    P1
_symmetry_Int_Tables_number       1
_symmetry_cell_setting            triclinic
loop_
_symmetry_equiv_pos_as_xyz
'x, y, z'
_cell_length_a     68.829708
_cell_length_b     68.782889
_cell_length_c     19.793479
_cell_angle_alpha  89.895547
_cell_angle_beta   90.055188
_cell_angle_gamma 90.10838
loop_
_atom_site_label
_atom_site_type_symbol
_atom_site_fract_x
_atom_site_fract_y
_atom_site_fract_z
_atom_type_partial_charge
H0 H 0.75734 0.56895 0.13341 0.0
C1 C 0.76755 0.56449 0.17203 0.0
C2 C 0.78721 0.56876 0.16244 0.0
C3 C 0.76117 0.55502 0.23133 0.0
H4 H 0.81602 0.5673 0.20386 0.0
C5 C 0.80078 0.564 0.21221 0.0
C6 C 0.79515 0.55439 0.2713 0.0
C7 C 0.77535 0.5496 0.28043 0.0
C8 C 0.73975 0.55209 0.24307 0.0
H9 H 0.77112 0.54192 0.32587 0.0
C10 C 0.72637 0.54993 0.18865 0.0
C11 C 0.7061 0.54981 0.20018 0.0
C12 C 0.73225 0.55309 0.30915 0.0
H13 H 0.74172 0.55518 0.35221 0.0
C14 C 0.71228 0.55225 0.32078 0.0
H15 H 0.73155 0.54886 0.13719 0.0
C16 C 0.69931 0.55085 0.26691 0.0
H17 H 0.68386 0.55058 0.27743 0.0
H18 H 0.7068 0.55315 0.37192 0.0
H19 H 0.9957 0.76954 0.09137 0.0
C20 C 0.99783 0.77967 0.13236 0.0
C21 C 0.9939 0.79929 0.11953 0.0
C22 C 1.00419 0.77334 0.19654 0.0
H23 H 0.99237 0.82808 0.16135 0.0
C24 C 0.99528 0.81287 0.17182 0.0
C25 C 1.00163 0.80739 0.23625 0.0
C26 C 1.00656 0.78771 0.24804 0.0
C27 C 1.00789 0.75189 0.20922 0.0
H28 H 1.01212 0.78385 0.29735 0.0
C29 C 1.01118 0.73841 0.15557 0.0
C30 C 1.01368 0.71832 0.16833 0.0
C31 C 1.00735 0.74442 0.27562 0.0
H32 H 1.00416 0.7536 0.31841 0.0
C33 C 1.01037 0.7247 0.28838 0.0
H34 H 1.01214 0.74325 0.10375 0.0
C35 C 1.01351 0.71176 0.23545 0.0
H36 H 0.01531 0.69647 0.24695 0.0
H37 H 1.0099 0.71933 0.3398 0.0
H38 H 0.77938 0.98502 0.11853 0.0
C39 C 0.76962 0.98998 0.15767 0.0
C40 C 0.75022 0.98383 0.15549 0.0
C41 C 0.7764 1.00177 0.21117 0.0
H42 H 0.72235 0.98449 0.20425 0.0
C43 C 0.73739 0.98922 0.20678 0.0
C44 C 0.74335 1.00125 0.25965 0.0
C45 C 0.76278 1.00785 0.26112 0.0
C46 C 0.79777 1.00633 0.2174 0.0
H47 H 0.76721 0.01738 0.30178 0.0
C48 C 0.81033 1.00728 0.16026 0.0
C49 C 0.83068 1.00925 0.16845 0.0
C50 C 0.80613 1.00821 0.2821 0.0
H51 H 0.79742 1.00703 0.32738 0.0
C52 C 0.82609 1.01085 0.29 0.0
H53 H 0.80451 1.00603 0.10964 0.0
C54 C 0.83827 1.01119 0.23392 0.0
H55 H 0.85376 1.01292 0.24175 0.0
H56 H 0.83221 1.01219 0.34017 0.0
H57 H 0.55456 0.78108 0.09093 0.0
C58 C 0.55237 0.77066 0.13118 0.0
C59 C 0.55547 0.75104 0.11656 0.0
C60 C 0.54694 0.77668 0.19652 0.0
H61 H 0.55592 0.72189 0.15492 0.0
C62 C 0.5538 0.73708 0.16755 0.0
C63 C 0.54841 0.74222 0.23339 0.0
C64 C 0.54454 0.76205 0.24734 0.0
C65 C 0.5447 0.79815 0.21122 0.0
H66 H 0.53989 0.7659 0.29773 0.0
C67 C 0.5406 0.81206 0.1594 0.0
C68 C 0.54008 0.83226 0.17321 0.0
C69 C 0.54784 0.80517 0.27715 0.0
H70 H 0.55165 0.79549 0.31815 0.0
C71 C 0.54684 0.82499 0.29129 0.0
H72 H 0.53758 0.80738 0.10835 0.0
C73 C 0.5431 0.8384 0.24007 0.0
H74 H 0.54307 0.85371 0.25271 0.0
H75 H 0.54942 0.83006 0.34227 0.0
H76 H 0.27417 0.49999 0.16737 0.0
C77 C 0.26401 0.50295 0.12714 0.0
C78 C 0.24411 0.50128 0.14198 0.0
C79 C 0.27055 0.50811 0.06167 0.0
H80 H 0.21514 0.50276 0.10072 0.0
C81 C 0.23054 0.50363 0.08982 0.0
C82 C 0.23629 0.50788 0.02381 0.0
C83 C 0.25617 0.51091 0.01043 0.0
C84 C 0.29213 0.51025 0.04698 0.0
H85 H 0.26006 0.51527 0.95982 0.0
C86 C 0.30636 0.51227 0.09921 0.0
C87 C 0.32649 0.51366 0.08436 0.0
C88 C 0.29888 0.50985 0.97968 0.0
H89 H 0.28927 0.50741 0.93746 0.0
C90 C 0.31849 0.51229 0.96469 0.0
H91 H 0.30207 0.51253 0.15153 0.0
C92 C 0.3321 0.51434 0.01608 0.0
H93 H 0.34715 0.51636 1.00182 0.0
H94 H 0.32321 0.51234 0.91253 0.0
H95 H 0.05571 0.28369 0.15591 0.0
C96 C 0.05322 0.27381 0.1143 0.0
C97 C 0.05463 0.25386 0.12717 0.0
C98 C 0.04941 0.28086 0.0487 0.0
H99 H 0.05372 0.2251 0.08488 0.0
C100 C 0.05266 0.24055 0.0743 0.0
C101 C 0.04848 0.24679 0.00859 0.0
C102 C 0.04651 0.26696 0.99602 0.0
C103 C 0.04991 0.30253 0.03547 0.0
H104 H 0.043 0.27165 0.94527 0.0
C105 C 0.04627 0.31648 0.08731 0.0
C106 C 0.0495 0.33659 0.07626 0.0
C107 C 0.05577 0.3095 0.97169 0.0
H108 H 0.05924 0.29967 0.93091 0.0
C109 C 0.05814 0.32936 0.9599 0.0
H110 H 0.04146 0.31186 0.13679 0.0
C111 C 0.05525 0.34275 0.01164 0.0
H112 H 0.05756 0.35804 1.00107 0.0
H113 H 0.06273 0.33439 0.91056 0.0
H114 H 0.26736 0.04571 0.16907 0.0
C115 C 0.27672 0.04689 0.12534 0.0
C116 C 0.2954 0.05468 0.13377 0.0
C117 C 0.27053 0.03978 0.06208 0.0
H118 H 0.3229 0.06032 0.0862 0.0
C119 C 0.3081 0.05533 0.07852 0.0
C120 C 0.30272 0.04813 0.01506 0.0
C121 C 0.28381 0.04045 0.00693 0.0
C122 C 0.2509 0.03025 0.05588 0.0
H123 H 0.27958 0.03506 0.95772 0.0
C124 C 0.23481 0.03602 0.0963 0.0
C125 C 0.21684 0.02596 0.09325 0.0
C126 C 0.24845 1.01437 0.01195 0.0
H127 H 0.26037 1.00899 0.98172 0.0
C128 C 0.23074 1.00458 0.00809 0.0
H129 H 0.23614 0.04841 0.12963 0.0
C130 C 0.21516 1.01019 0.04841 0.0
H131 H 0.20188 1.00177 0.04546 0.0
H132 H 0.22921 0.99227 0.9745 0.0
H133 H 0.4829 0.26289 0.13916 0.0
C134 C 0.48671 0.27361 0.10129 0.0
C135 C 0.47917 0.29237 0.10788 0.0
C136 C 0.49863 0.26869 0.04605 0.0
H137 H 0.47755 0.32107 0.06532 0.0
C138 C 0.48316 0.30645 0.05879 0.0
C139 C 0.4953 0.30244 1.00397 0.0
C140 C 0.5033 0.28356 0.99818 0.0
C141 C 0.505 0.24787 0.03698 0.0
H142 H 0.51289 0.28054 0.95624 0.0
C143 C 0.50743 0.23488 0.09268 0.0
C144 C 0.51138 0.21483 0.08264 0.0
C145 C 0.50719 0.24037 0.97137 0.0
H146 H 0.50498 0.24942 0.92728 0.0
C147 C 0.5114 0.2208 0.96114 0.0
H148 H 0.50639 0.2403 0.1438 0.0
C149 C 0.51327 0.20814 0.01578 0.0
H150 H 0.51573 0.19292 0.00511 0.0
H151 H 0.51274 0.21527 0.91019 0.0
C152 C 0.05747 0.04459 0.8002 0.0
C153 C 0.0432 0.03718 0.90939 0.0
C154 C 0.04487 0.03355 0.83954 0.0
C155 C 0.05424 0.05212 0.93889 0.0
C156 C 0.06868 0.05949 0.82971 0.0
C157 C 0.06694 0.06325 0.89917 0.0
N158 N 0.05842 0.04099 0.7327 0.0
C159 C 0.0713 0.05078 0.69282 0.0
C160 C 0.08131 0.07019 0.78845 0.0
C161 C 0.08275 0.06568 0.71986 0.0
Gd162 Gd 1.00551 0.03905 0.55048 0.0
Gd163 Gd 0.03814 1.01606 0.69263 0.0
N164 N 0.03424 0.0193 0.80955 0.0
C165 C 0.03047 0.02566 0.94751 0.0
C166 C 0.02209 1.00779 0.84656 0.0
C167 C 0.01994 1.01083 0.91598 0.0
H168 H 1.01432 0.99601 0.8227 0.0
H169 H 1.01025 1.0017 0.94516 0.0
H170 H 0.03081 0.06021 0.42558 0.0
H171 H 0.07273 0.04725 0.64018 0.0
H172 H 0.03588 0.05575 0.30303 0.0
H173 H 0.02878 0.02798 1.00131 0.0
H174 H 0.05311 0.05516 0.99244 0.0
H175 H 0.97078 1.00735 0.59568 0.0
H176 H 0.09016 0.08178 0.80918 0.0
H177 H 0.09271 0.07365 0.6878 0.0
H178 H 0.99317 1.0031 0.24455 0.0
H179 H 0.0754 0.07469 0.92269 0.0
H180 H 0.95447 0.97475 0.42056 0.0
H181 H 0.95099 0.98156 0.54267 0.0
N182 N 0.98571 1.01454 0.50521 0.0
C183 C 0.98721 1.01166 0.43744 0.0
C184 C 0.9725 1.00439 0.54264 0.0
C185 C 0.96319 0.98607 0.44361 0.0
C186 C 0.96122 0.98984 0.51261 0.0
C187 C 0.97619 0.99713 0.40497 0.0
H188 H 0.97021 0.98296 0.30946 0.0
N189 N 1.01053 0.03698 0.4337 0.0
C190 C 1.00016 0.02306 0.40085 0.0
C191 C 0.01554 0.03199 0.29552 0.0
C192 C 1.00243 0.02016 0.33081 0.0
C193 C 0.02309 0.04878 0.39947 0.0
C194 C 0.02586 0.04641 0.32999 0.0
O195 O 0.02725 0.0472 0.70879 0.0
O196 O 0.02603 0.0599 0.60202 0.0
O197 O 0.99394 0.06312 0.49187 0.0
O198 O 0.97837 0.05252 0.57966 0.0
O199 O 1.00639 1.0083 0.70542 0.0
O200 O 0.99258 0.03518 0.65562 0.0
O201 O 0.01554 1.00764 0.53484 0.0
O202 O 0.01766 0.99503 0.64178 0.0
O203 O 0.04911 0.99174 0.75136 0.0
O204 O 0.06558 1.00273 0.6662 0.0
O205 O 0.03733 0.04663 0.54039 0.0
O206 O 0.05022 0.01887 0.586 0.0
C207 C 0.02687 0.06228 0.66767 0.0
C208 C 0.99186 0.0206 0.69873 0.0
C209 C 0.97868 0.08641 0.56299 0.0
C210 C 0.99037 0.11998 0.56916 0.0
C211 C 0.96345 0.10937 0.63957 0.0
C212 C 0.96451 0.09076 0.61165 0.0
C213 C 0.97625 0.12394 0.61847 0.0
C214 C 0.99169 0.10105 0.54272 0.0
C215 C 0.98016 0.06649 0.5355 0.0
C216 C 0.99158 1.00558 0.29831 0.0
C217 C 0.9785 0.99411 0.33528 0.0
H218 H 0.0177 0.03021 0.24167 0.0
C219 C 0.01641 0.99263 0.57621 0.0
C220 C 0.05114 0.03349 0.54324 0.0
C221 C 0.0648 0.96868 0.68034 0.0
C222 C 0.05395 0.93478 0.67549 0.0
C223 C 0.07888 0.94646 0.59854 0.0
C224 C 0.07793 0.96492 0.62766 0.0
C225 C 0.067 0.93145 0.62221 0.0
C226 C 0.05277 0.95355 0.70349 0.0
C227 C 0.06326 0.98849 0.70905 0.0
H228 H 0.95251 0.11257 0.67717 0.0
H229 H 0.95434 0.07972 0.62846 0.0
H230 H 0.97474 0.13839 0.63942 0.0
H231 H 1.00295 0.09771 0.50635 0.0
H232 H 0.089 0.94374 0.55782 0.0
H233 H 0.08737 0.9763 0.60859 0.0
H234 H 0.06838 0.91716 0.5999 0.0
H235 H 0.04231 0.95641 0.74311 0.0
C236 C 0.51715 0.96534 0.5866 0.0
C237 C 0.48583 0.95434 0.6277 0.0
C238 C 0.49818 0.96946 0.60565 0.0
C239 C 0.49309 0.93532 0.63335 0.0
C240 C 0.52424 0.94615 0.58934 0.0
C241 C 0.51223 0.93123 0.61407 0.0
N242 N 0.52866 0.98015 0.56481 0.0
C243 C 0.54676 0.97663 0.53959 0.0
C244 C 0.54317 0.94252 0.56662 0.0
C245 C 0.55438 0.9578 0.54087 0.0
Gd246 Gd 0.53369 0.04212 0.72154 0.0
Gd247 Gd 0.51479 1.01118 0.56485 0.0
N248 N 0.4915 0.98799 0.59897 0.0
C249 C 0.46636 0.95865 0.64119 0.0
C250 C 0.47214 0.9918 0.60607 0.0
C251 C 0.45941 0.97738 0.62899 0.0
H252 H 0.46627 1.00579 0.59258 0.0
H253 H 0.44416 0.98063 0.63603 0.0
H254 H 0.57394 0.06219 0.66158 0.0
H255 H 0.55537 0.98843 0.51939 0.0
H256 H 0.58724 0.09505 0.63844 0.0
H257 H 0.4564 0.94744 0.65823 0.0
H258 H 0.48386 0.92358 0.65089 0.0
H259 H 0.49607 0.04917 0.82751 0.0
H260 H 0.54914 0.92796 0.56785 0.0
H261 H 0.56888 0.95507 0.52209 0.0
H262 H 0.53683 0.13825 0.71335 0.0
H263 H 0.5175 0.91643 0.61741 0.0
H264 H 0.48277 0.10986 0.83033 0.0
H265 H 0.47504 0.07608 0.86448 0.0
N266 N 0.51403 0.06706 0.76597 0.0
C267 C 0.51918 0.08557 0.7502 0.0
C268 C 0.49893 0.06365 0.80908 0.0
C269 C 0.49166 0.09799 0.81214 0.0
C270 C 0.48724 0.07895 0.83143 0.0
C271 C 0.50813 0.10156 0.77258 0.0
H272 H 0.50594 0.133 0.77343 0.0
N273 N 0.54701 0.0728 0.69832 0.0
C274 C 0.53642 0.08856 0.71615 0.0
C275 C 0.56169 0.10985 0.67453 0.0
C276 C 0.54331 0.10755 0.70385 0.0
C277 C 0.56532 0.07489 0.67283 0.0
C278 C 0.57286 0.09343 0.65984 0.0
O279 O 0.53263 0.99724 0.64994 0.0
O280 O 0.51988 1.01295 0.73942 0.0
O281 O 0.56116 0.033 0.76341 0.0
O282 O 0.53968 0.04594 0.82889 0.0
O283 O 0.4913 0.02846 0.61966 0.0
O284 O 0.50293 0.02971 0.7288 0.0
O285 O 0.53248 0.05716 0.61872 0.0
O286 O 0.50599 0.04287 0.56974 0.0
O287 O 0.49793 1.00002 0.48104 0.0
O288 O 0.52349 0.01734 0.46128 0.0
O289 O 0.55682 0.02705 0.65848 0.0
O290 O 0.54463 0.02426 0.55018 0.0
C291 C 0.52715 0.99713 0.71345 0.0
C292 C 0.4884 0.0303 0.68524 0.0
C293 C 0.55861 0.01956 0.87158 0.0
C294 C 0.57966 0.99323 0.91114 0.0
C295 C 0.54658 0.99614 0.95338 0.0
C296 C 0.54362 1.01262 0.91329 0.0
C297 C 0.56444 0.98649 0.95253 0.0
C298 C 0.57642 1.0097 0.87043 0.0
C299 C 0.55587 0.03622 0.8254 0.0
C300 C 0.53192 0.12353 0.72304 0.0
C301 C 0.51432 0.12054 0.75719 0.0
H302 H 0.56754 0.12419 0.66444 0.0
C303 C 0.51824 0.05748 0.57428 0.0
C304 C 0.55929 0.02576 0.59258 0.0
C305 C 0.49639 0.02237 0.39109 0.0
C306 C 0.46691 0.04102 0.36788 0.0
C307 C 0.49334 0.04024 0.28606 0.0
C308 C 0.50403 0.02808 0.32858 0.0
C309 C 0.47486 0.04657 0.30516 0.0
C310 C 0.47802 0.02917 0.41097 0.0
C311 C 0.50776 1.00972 0.43616 0.0
H312 H 0.53496 0.99081 0.98531 0.0
H313 H 0.52959 0.01971 0.9143 0.0
H314 H 0.5664 0.97403 0.98526 0.0
H315 H 0.58769 1.01479 0.83649 0.0
H316 H 0.49926 0.04455 0.23765 0.0
H317 H 0.51826 0.02314 0.31276 0.0
H318 H 0.46666 0.05538 0.26989 0.0
H319 H 0.47244 0.02531 0.46038 0.0
C320 C 0.48291 0.50464 0.81167 0.0
C321 C 0.50263 0.5046 0.91315 0.0
C322 C 0.49854 0.51192 0.84804 0.0
C323 C 0.49129 0.48939 0.93965 0.0
C324 C 0.47095 0.49 0.83925 0.0
C325 C 0.47545 0.48215 0.90288 0.0
N326 N 0.47925 0.51211 0.74938 0.0
C327 C 0.46289 0.50695 0.71455 0.0
C328 C 0.45466 0.4839 0.80237 0.0
C329 C 0.45048 0.49261 0.74016 0.0
Gd330 Gd 0.53452 0.51293 0.57195 0.0
Gd331 Gd 0.50047 0.5364 0.71088 0.0
N332 N 0.50906 0.52684 0.82139 0.0
C333 C 0.51758 0.51322 0.95059 0.0
C334 C 0.5225 0.53631 0.86009 0.0
C335 C 0.52732 0.52937 0.92438 0.0
H336 H 0.52927 0.5495 0.84238 0.0
H337 H 0.53831 0.5367 0.95415 0.0
H338 H 0.50743 0.52203 0.43515 0.0
H339 H 0.45969 0.51371 0.66649 0.0
H340 H 0.51044 0.5398 0.327 0.0
H341 H 0.52119 0.50801 1.00075 0.0
H342 H 0.49434 0.48347 0.98931 0.0
H343 H 0.58015 0.50767 0.63083 0.0
H344 H 0.44509 0.47271 0.82191 0.0
H345 H 0.43774 0.48823 0.71187 0.0
H346 H 0.57642 0.56265 0.32631 0.0
H347 H 0.46657 0.47072 0.92461 0.0
H348 H 0.61793 0.54202 0.5072 0.0
H349 H 0.61282 0.52073 0.60655 0.0
N350 N 0.56656 0.52294 0.55028 0.0
C351 C 0.56924 0.53369 0.49337 0.0
C352 C 0.58204 0.51764 0.58924 0.0
C353 C 0.60347 0.53669 0.51861 0.0
C354 C 0.60064 0.52472 0.57482 0.0
C355 C 0.58776 0.54098 0.47621 0.0
H356 H 0.60418 0.55767 0.40281 0.0
N357 N 0.53611 0.52884 0.46733 0.0
C358 C 0.55361 0.53651 0.45017 0.0
C359 C 0.54019 0.54818 0.34483 0.0
C360 C 0.55606 0.54667 0.38884 0.0
C361 C 0.52092 0.5292 0.42288 0.0
C362 C 0.52263 0.53916 0.3615 0.0
O363 O 0.50189 0.50369 0.68908 0.0
O364 O 0.53397 0.49901 0.67475 0.0
O365 O 0.52231 0.48496 0.54671 0.0
O366 O 0.55202 0.49165 0.51853 0.0
O367 O 0.53256 0.54429 0.72347 0.0
O368 O 0.5488 0.51853 0.67387 0.0
O369 O 0.52484 0.54414 0.5522 0.0
O370 O 0.51991 0.5581 0.65694 0.0
O371 O 0.49016 0.55785 0.78307 0.0
O372 O 0.47351 0.55175 0.69307 0.0
O373 O 0.50189 0.50974 0.55678 0.0
O374 O 0.48888 0.5372 0.60437 0.0
C375 C 0.51741 0.49297 0.69923 0.0
C376 C 0.54814 0.53327 0.71653 0.0
C377 C 0.53374 0.47069 0.44662 0.0
C378 C 0.51526 0.44705 0.38036 0.0
C379 C 0.54149 0.46572 0.32852 0.0
C380 C 0.54501 0.47519 0.38962 0.0
C381 C 0.52691 0.45161 0.32391 0.0
C382 C 0.51874 0.45696 0.44121 0.0
C383 C 0.53759 0.47947 0.51308 0.0
C384 C 0.5743 0.55463 0.37289 0.0
C385 C 0.5901 0.55181 0.4165 0.0
H386 H 0.54149 0.55586 0.29719 0.0
C387 C 0.52402 0.55944 0.59208 0.0
C388 C 0.48805 0.52282 0.56112 0.0
C389 C 0.47341 0.58399 0.73009 0.0
C390 C 0.48665 0.61688 0.72254 0.0
C391 C 0.45394 0.61005 0.6826 0.0
C392 C 0.456 0.59059 0.70121 0.0
C393 C 0.46915 0.62315 0.69305 0.0
C394 C 0.48871 0.5972 0.7406 0.0
C395 C 0.47568 0.56312 0.74484 0.0
H396 H 0.55033 0.46907 0.2848 0.0
H397 H 0.5566 0.48584 0.39229 0.0
H398 H 0.52514 0.44404 0.27644 0.0
H399 H 0.50982 0.454 0.4851 0.0
H400 H 0.44047 0.61502 0.66021 0.0
H401 H 0.44408 0.5806 0.69226 0.0
H402 H 0.46705 0.63826 0.67946 0.0
H403 H 0.50233 0.59213 0.76164 0.0
C404 C 1.01407 0.46544 0.73299 0.0
C405 C 0.0353 0.46528 0.83042 0.0
C406 C 0.02487 0.47539 0.78018 0.0
C407 C 0.03539 0.44484 0.82999 0.0
C408 C 1.01328 0.44497 0.73405 0.0
C409 C 0.02439 0.43469 0.78182 0.0
N410 N 1.00325 0.4759 0.68894 0.0
C411 C 0.99027 0.46688 0.64725 0.0
C412 C 1.00087 0.43554 0.68858 0.0
C413 C 0.98911 0.44657 0.64559 0.0
Gd414 Gd 0.02755 0.5455 0.5443 0.0
Gd415 Gd 1.00744 0.50983 0.68925 0.0
N416 N 0.02408 0.49504 0.77957 0.0
C417 C 0.04475 0.47602 0.88072 0.0
C418 C 0.03231 0.50557 0.83061 0.0
C419 C 0.04302 0.49626 0.88132 0.0
H420 H 0.03098 0.52121 0.83129 0.0
H421 H 0.0499 0.50469 0.92081 0.0
H422 H 0.05764 0.52074 0.4409 0.0
H423 H 0.98099 0.47537 0.61451 0.0
H424 H 0.05584 0.50395 0.33052 0.0
H425 H 0.05295 0.46882 0.92024 0.0
H426 H 0.04346 0.43677 0.86776 0.0
H427 H 0.99744 0.5831 0.5326 0.0
H428 H 0.99983 0.41982 0.68764 0.0
H429 H 0.9791 0.43945 0.61138 0.0
H430 H 0.99403 0.52344 0.24022 0.0
H431 H 0.02414 0.41894 0.78313 0.0
H432 H 0.96218 0.57575 0.35548 0.0
H433 H 0.97053 0.59433 0.45863 0.0
N434 N 1.00367 0.55842 0.47222 0.0
C435 C 1.00021 0.54887 0.41379 0.0
C436 C 0.99393 0.57515 0.48708 0.0
C437 C 0.97394 0.57083 0.38764 0.0
C438 C 0.97869 0.58144 0.4456 0.0
C439 C 0.98511 0.55462 0.37008 0.0
H440 H 0.97067 0.54862 0.27495 0.0
N441 N 0.02872 0.53148 0.43536 0.0
C442 C 1.01322 0.53474 0.39471 0.0
C443 C 0.02685 0.51399 0.30882 0.0
C444 C 1.01167 0.52593 0.3307 0.0
C445 C 0.04451 0.52173 0.41101 0.0
C446 C 0.0436 0.51235 0.34836 0.0
O447 O 0.03998 0.51457 0.69749 0.0
O448 O 0.05213 0.53267 0.60653 0.0
O449 O 0.04544 0.56427 0.48054 0.0
O450 O 0.04122 0.57121 0.58558 0.0
O451 O 0.02139 0.53831 0.72094 0.0
O452 O 1.01152 0.55773 0.63427 0.0
O453 O 0.99541 0.54386 0.57087 0.0
O454 O 0.99114 0.51168 0.58997 0.0
O455 O 0.98465 0.53087 0.70912 0.0
O456 O 0.98467 0.50301 0.76089 0.0
O457 O 0.03725 0.51353 0.5422 0.0
O458 O 1.01073 0.49738 0.58437 0.0
C459 C 0.05434 0.52268 0.66321 0.0
C460 C 0.01712 0.55563 0.69725 0.0
C461 C 0.0703 0.582 0.53767 0.0
C462 C 0.10521 0.57632 0.5317 0.0
C463 C 0.09283 0.60702 0.5743 0.0
C464 C 0.07386 0.60059 0.56389 0.0
C465 C 0.10842 0.59501 0.55823 0.0
C466 C 0.08601 0.56974 0.52206 0.0
C467 C 0.04998 0.57585 0.52997 0.0
C468 C 0.99569 0.53032 0.28911 0.0
C469 C 0.9824 0.54467 0.30882 0.0
H470 H 0.02625 0.50691 0.26 0.0
C471 C 0.98466 0.52816 0.56563 0.0
C472 C 0.02608 0.49793 0.54507 0.0
C473 C 0.97177 0.5302 0.81902 0.0
C474 C 0.95 0.55272 0.87723 0.0
C475 C 0.97426 0.53409 0.94015 0.0
C476 C 0.98058 0.52537 0.88063 0.0
C477 C 0.95889 0.54733 0.93888 0.0
C478 C 0.95715 0.54434 0.81727 0.0
C479 C 0.97678 0.52018 0.75599 0.0
H480 H 0.09545 0.62136 0.59481 0.0
H481 H 0.06191 0.61012 0.57678 0.0
H482 H 0.12305 0.60031 0.56673 0.0
H483 H 0.08332 0.55534 0.50186 0.0
H484 H 0.98089 0.53012 0.98782 0.0
H485 H 0.99209 0.51468 0.88297 0.0
H486 H 0.95374 0.55273 0.98684 0.0
H487 H 0.95123 0.54837 0.7686 0.0
C488 C 0.18074 0.02929 0.1132 0.0
C489 C 0.1999 0.03107 0.13771 0.0
C490 C 0.16475 0.03142 0.15623 0.0
C491 C 0.14796 0.05082 0.32047 0.0
H492 H 0.10909 1.0101 0.30686 0.0
C493 C 0.07343 0.05203 0.46425 0.0
C494 C 0.06804 0.03453 0.49616 0.0
C495 C 0.08959 0.05274 0.42081 0.0
C496 C 0.11979 0.02159 0.31144 0.0
H497 H 0.21694 0.03755 0.2271 0.0
H498 H 0.18891 0.04173 0.30198 0.0
H499 H 0.13708 1.00988 0.23133 0.0
H500 H 0.07548 1.00405 0.50693 0.0
H501 H 0.10327 1.00524 0.43082 0.0
H502 H 0.1305 0.0625 0.40079 0.0
C503 C 0.18638 0.0385 0.24916 0.0
C504 C 0.1358 0.02155 0.26773 0.0
C505 C 0.20248 0.03617 0.20607 0.0
C506 C 0.07916 0.0178 0.48335 0.0
C507 C 0.09508 0.01844 0.43934 0.0
C508 C 0.13173 0.05102 0.36366 0.0
C509 C 0.16732 0.03565 0.22512 0.0
C510 C 0.15017 0.0361 0.27172 0.0
C511 C 0.10056 0.0359 0.40746 0.0
C512 C 0.11751 0.0363 0.36005 0.0
H513 H 0.17804 0.0259 0.06062 0.0
H514 H 0.15029 0.02954 0.13556 0.0
H515 H 0.15868 0.06229 0.32476 0.0
H516 H 0.0653 0.06523 0.47338 0.0
H517 H 0.09334 0.06641 0.39686 0.0
C518 C 0.50102 0.20199 0.19824 0.0
C519 C 0.51284 0.20049 0.14028 0.0
C520 C 0.50112 0.18735 0.2482 0.0
C521 C 0.51068 0.13494 0.26972 0.0
H522 H 0.51504 0.14569 0.46131 0.0
C523 C 0.50165 0.07503 0.47737 0.0
C524 C 0.51631 0.07447 0.52707 0.0
C525 C 0.50034 0.09067 0.43166 0.0
C526 C 0.51376 0.14244 0.40796 0.0
H527 H 0.53505 0.18267 0.09315 0.0
H528 H 0.53461 0.15715 0.17828 0.0
H529 H 0.51468 0.17268 0.37999 0.0
H530 H 0.54106 0.09024 0.56647 0.0
H531 H 0.53831 0.11774 0.48948 0.0
H532 H 0.50961 0.10475 0.29751 0.0
C533 C 0.52508 0.16952 0.18462 0.0
C534 C 0.51345 0.15793 0.36141 0.0
C535 C 0.52524 0.18423 0.13549 0.0
C536 C 0.52939 0.0902 0.53016 0.0
C537 C 0.52783 0.10602 0.48563 0.0
C538 C 0.51059 0.1195 0.31629 0.0
C539 C 0.51283 0.1707 0.2412 0.0
C540 C 0.51217 0.15437 0.29154 0.0
C541 C 0.51339 0.10643 0.43533 0.0
C542 C 0.51237 0.123 0.38603 0.0
H543 H 0.49114 0.2141 0.20399 0.0
H544 H 0.4915 0.18874 0.2912 0.0
H545 H 0.50952 0.13166 0.21636 0.0
H546 H 0.4912 0.06334 0.47348 0.0
H547 H 0.48896 0.0905 0.39381 0.0
C548 C 0.33889 0.52245 0.20231 0.0
C549 C 0.34191 0.51383 0.13863 0.0
C550 C 0.35376 0.52277 0.25131 0.0
C551 C 0.40318 0.50107 0.28967 0.0
H552 H 0.40591 0.54327 0.41829 0.0
C553 C 0.46463 0.50335 0.49056 0.0
C554 C 0.47091 0.52142 0.5154 0.0
C555 C 0.44824 0.50203 0.44849 0.0
C556 C 0.40569 0.53149 0.38219 0.0
H557 H 0.36321 0.49807 0.07906 0.0
H558 H 0.38903 0.50002 0.16045 0.0
H559 H 0.37937 0.54208 0.33801 0.0
H560 H 0.46512 0.55234 0.51428 0.0
H561 H 0.43749 0.55032 0.43799 0.0
H562 H 0.43015 0.49122 0.33007 0.0
C563 C 0.37511 0.50608 0.17431 0.0
C564 C 0.39006 0.53058 0.33654 0.0
C565 C 0.36021 0.50538 0.12627 0.0
C566 C 0.46056 0.53816 0.49649 0.0
C567 C 0.44449 0.53692 0.45297 0.0
C568 C 0.41903 0.50224 0.33404 0.0
C569 C 0.37223 0.51472 0.23797 0.0
C570 C 0.38854 0.5154 0.28906 0.0
C571 C 0.43792 0.51881 0.42829 0.0
C572 C 0.42066 0.51748 0.38124 0.0
H573 H 0.32515 0.52924 0.21426 0.0
H574 H 0.35063 0.5293 0.29976 0.0
H575 H 0.40255 0.48878 0.25573 0.0
H576 H 0.47216 0.49014 0.50475 0.0
H577 H 0.44363 0.48771 0.43268 0.0
C578 C 0.06258 0.36526 0.14114 0.0
C579 C 0.04776 0.35138 0.13159 0.0
C580 C 0.06064 0.38019 0.18883 0.0
C581 C 0.02363 0.40886 0.27952 0.0
H582 H 0.06682 0.42513 0.39199 0.0
C583 C 1.01385 0.46844 0.48328 0.0
C584 C 0.02935 0.48107 0.49867 0.0
C585 C 0.01641 0.45245 0.44048 0.0
C586 C 0.05465 0.42106 0.36036 0.0
H587 H 0.01935 0.34224 0.16612 0.0
H588 H 0.01581 0.36849 0.24926 0.0
H589 H 0.07055 0.39744 0.31624 0.0
H590 H 0.05995 0.48633 0.48119 0.0
H591 H 0.06432 0.45896 0.40389 0.0
H592 H 1.00786 0.4327 0.3216 0.0
C593 C 0.02899 0.36778 0.21952 0.0
C594 C 0.05678 0.40502 0.31701 0.0
C595 C 0.03106 0.35262 0.17229 0.0
C596 C 0.0476 0.47713 0.46986 0.0
C597 C 0.05014 0.46119 0.42609 0.0
C598 C 0.02157 0.42502 0.3222 0.0
C599 C 0.04371 0.38188 0.2281 0.0
C600 C 0.04128 0.39864 0.27602 0.0
C601 C 0.03455 0.44855 0.41055 0.0
C602 C 0.037 0.43141 0.36372 0.0
H603 H 0.0757 0.36469 0.11103 0.0
H604 H 0.07223 0.39078 0.19347 0.0
H605 H 1.01149 0.40466 0.24791 0.0
H606 H 0.99953 0.47096 0.50394 0.0
H607 H 1.00407 0.44302 0.43156 0.0
C608 C 0.8432 0.0218 0.05625 0.0
C609 C 0.84449 1.00857 0.11028 0.0
C610 C 0.85785 0.02257 0.00669 0.0
C611 C 0.89884 0.99454 0.93236 0.0
H612 H 0.92017 0.04511 0.88776 0.0
C613 C 0.97159 1.00248 0.78533 0.0
C614 C 0.97419 0.01857 0.74227 0.0
C615 C 0.95513 1.00099 0.82704 0.0
C616 C 0.91426 0.03083 0.89842 0.0
H617 H 0.86171 0.98527 0.15304 0.0
H618 H 0.8869 0.98632 0.06643 0.0
H619 H 0.89209 0.04277 0.96218 0.0
H620 H 0.96087 0.04545 0.70828 0.0
H621 H 0.93211 0.04254 0.77839 0.0
H622 H 0.92076 0.98252 0.86823 0.0
C623 C 0.87472 0.9962 0.06219 0.0
C624 C 0.89809 0.02953 0.94142 0.0
C625 C 0.8603 0.99564 0.11205 0.0
C626 C 0.95958 0.03288 0.74101 0.0
C627 C 0.94305 0.0313 0.78204 0.0
C628 C 0.91486 0.99584 0.88874 0.0
C629 C 0.87392 1.0099 0.00944 0.0
C630 C 0.89026 1.01135 0.9596 0.0
C631 C 0.94057 1.01542 0.82627 0.0
C632 C 0.92301 1.01401 0.87147 0.0
H633 H 0.83127 0.03203 0.05377 0.0
H634 H 0.85668 0.03321 0.96648 0.0
H635 H 0.89308 0.9803 0.94459 0.0
H636 H 0.98224 0.99094 0.7869 0.0
H637 H 0.95403 0.9886 0.8606 0.0
C638 C 0.54711 0.84627 0.05682 0.0
C639 C 0.53712 0.84727 0.1188 0.0
C640 C 0.54618 0.86168 0.00991 0.0
C641 C 0.53461 0.91483 1.00174 0.0
H642 H 0.53454 0.90711 0.80782 0.0
C643 C 0.51816 0.97788 0.81683 0.0
C644 C 0.52892 0.97936 0.75663 0.0
C645 C 0.51975 0.96151 0.85869 0.0
C646 C 0.53478 0.90956 0.86185 0.0
H647 H 0.51731 0.86491 0.1775 0.0
H648 H 0.51544 0.89139 0.09615 0.0
H649 H 0.53562 0.87895 0.8835 0.0
H650 H 0.55018 0.96476 0.69439 0.0
H651 H 0.55273 0.9359 0.76683 0.0
H652 H 0.5337 0.94536 0.98036 0.0
C653 C 0.52453 0.87903 0.08428 0.0
C654 C 0.53539 0.89336 0.90542 0.0
C655 C 0.52551 0.86372 0.13103 0.0
C656 C 0.54136 0.96393 0.73953 0.0
C657 C 0.54286 0.9474 0.78129 0.0
C658 C 0.53396 0.93096 0.95833 0.0
C659 C 0.53518 0.87852 0.02355 0.0
C660 C 0.5351 0.89571 0.97618 0.0
C661 C 0.53215 0.946 0.84181 0.0
C662 C 0.53381 0.92862 0.88768 0.0
H663 H 0.55633 0.83393 0.04577 0.0
H664 H 0.55467 0.86068 0.96404 0.0
H665 H 0.5349 0.91741 0.05567 0.0
H666 H 0.50838 0.98942 0.83175 0.0
H667 H 0.51105 0.96094 0.9042 0.0
C668 C 0.69224 0.53474 0.09397 0.0
C669 C 0.69174 0.54935 0.14351 0.0
C670 C 0.67752 0.53348 0.04482 0.0
C671 C 0.63892 0.56162 0.95823 0.0
H672 H 0.61407 0.5116 0.93268 0.0
C673 C 0.56811 0.55346 0.79839 0.0
C674 C 0.56504 0.53598 0.76317 0.0
C675 C 0.58385 0.55547 0.84329 0.0
C676 C 0.62098 0.52566 0.93782 0.0
H677 H 0.67583 0.57454 0.17852 0.0
H678 H 0.6505 0.57261 0.09215 0.0
H679 H 0.64159 0.51442 0.00927 0.0
H680 H 0.57624 0.50682 0.74876 0.0
H681 H 0.60401 0.51066 0.82245 0.0
H682 H 0.61869 0.57287 0.88585 0.0
C683 C 0.66211 0.56201 0.09151 0.0
C684 C 0.63681 0.52725 0.98222 0.0
C685 C 0.67659 0.56306 0.14122 0.0
C686 C 0.57824 0.52067 0.77371 0.0
C687 C 0.59409 0.52276 0.81748 0.0
C688 C 0.62328 0.55999 0.91292 0.0
C689 C 0.66219 0.54704 0.04326 0.0
C690 C 0.64593 0.54525 0.99333 0.0
C691 C 0.59713 0.54011 0.85366 0.0
C692 C 0.61396 0.54198 0.90205 0.0
H693 H 0.70367 0.52393 0.09459 0.0
H694 H 0.67809 0.52184 0.00809 0.0
H695 H 0.6457 0.57569 0.96524 0.0
H696 H 0.5583 0.5656 0.79152 0.0
H697 H 0.58537 0.569 0.87058 0.0
C698 C 1.00174 0.70246 0.0609 0.0
C699 C 0.0157 0.70376 0.11257 0.0
C700 C 1.00215 0.68707 0.01416 0.0
C701 C 0.02409 0.63728 0.98979 0.0
H702 H 1.00228 0.64266 0.81042 0.0
C703 C 0.01544 0.5701 0.8143 0.0
C704 C 0.01673 0.57268 0.74393 0.0
C705 C 0.01502 0.58616 0.85804 0.0
C706 C 1.00871 0.64081 0.85991 0.0
H707 H 0.04161 0.69041 0.15348 0.0
H708 H 0.04305 0.66435 0.07058 0.0
H709 H 1.00336 0.67059 0.88488 0.0
H710 H 0.01858 0.59437 0.66471 0.0
H711 H 0.01892 0.62218 0.74033 0.0
H712 H 0.03038 0.60781 0.96376 0.0
C713 C 0.0312 0.67461 0.06723 0.0
C714 C 1.00902 0.65693 0.90351 0.0
C715 C 0.03055 0.68976 0.11456 0.0
C716 C 0.01758 0.59178 0.71857 0.0
C717 C 0.01757 0.60783 0.76232 0.0
C718 C 0.02407 0.62127 0.94587 0.0
C719 C 0.01675 0.67266 0.01702 0.0
C720 C 0.01667 0.65549 0.96944 0.0
C721 C 0.01626 0.60537 0.833 0.0
C722 C 0.01631 0.62266 0.88009 0.0
H723 H 0.98996 0.71286 0.0585 0.0
H724 H 0.99056 0.68617 0.97734 0.0
H725 H 0.02979 0.63518 0.04024 0.0
H726 H 0.01445 0.55563 0.8357 0.0
H727 H 1.01347 0.58341 0.9116 0.0
C728 C 0.07233 0.23442 0.21411 0.0
C729 C 0.05677 0.24657 0.1968 0.0
C730 C 0.07221 0.22434 0.27544 0.0
C731 C 0.04203 0.21548 0.43169 0.0
H732 H 0.05523 0.16193 0.39253 0.0
C733 C 1.00735 0.13619 0.47294 0.0
C734 C 1.0031 0.13564 0.54229 0.0
C735 C 0.01917 0.1507 0.44639 0.0
C736 C 0.05158 0.17684 0.40462 0.0
H737 H 0.0296 0.25887 0.23066 0.0
H738 H 0.02869 0.24059 0.33571 0.0
H739 H 0.06706 0.18745 0.31938 0.0
H740 H 1.00789 0.15015 0.6382 0.0
H741 H 0.0286 0.17584 0.59113 0.0
H742 H 0.02491 0.2043 0.51346 0.0
C743 C 0.0414 0.23917 0.30394 0.0
C744 C 0.05862 0.19162 0.36311 0.0
C745 C 0.04178 0.24959 0.24339 0.0
C746 C 1.01083 0.1502 0.58446 0.0
C747 C 0.02274 0.16485 0.55767 0.0
C748 C 0.03473 0.20058 0.47279 0.0
C749 C 0.05619 0.22573 0.31943 0.0
C750 C 0.05312 0.21106 0.37394 0.0
C751 C 0.02708 0.16516 0.48828 0.0
C752 C 0.03862 0.18106 0.45728 0.0
H753 H 0.08412 0.23208 0.17887 0.0
H754 H 0.08414 0.2146 0.28643 0.0
H755 H 0.03796 0.23032 0.44286 0.0
H756 H 1.00116 0.12564 0.43852 0.0
H757 H 0.02166 0.15088 0.39236 0.0
C758 C 0.31527 0.07601 0.20907 0.0
C759 C 0.30312 0.05973 0.20151 0.0
C760 C 0.32789 0.07733 0.26405 0.0
C761 C 0.35489 0.04151 0.35917 0.0
H762 H 0.38391 0.08702 0.41561 0.0
C763 C 0.4347 0.03332 0.42176 0.0
C764 C 0.44666 0.0465 0.38643 0.0
C765 C 0.415 0.0372 0.43112 0.0
C766 C 0.37592 0.07415 0.40065 0.0
H767 H 0.2924 0.03366 0.25068 0.0
H768 H 0.31396 0.03629 0.34801 0.0
H769 H 0.35029 0.09055 0.37768 0.0
H770 H 0.44748 0.07502 0.33945 0.0
H771 H 0.41292 0.08119 0.35178 0.0
H772 H 0.38062 0.02526 0.37729 0.0
C773 C 0.31425 0.04771 0.31028 0.0
C774 C 0.35664 0.07616 0.37915 0.0
C775 C 0.30174 0.0463 0.25481 0.0
C776 C 0.43863 0.06426 0.36501 0.0
C777 C 0.41882 0.06799 0.37338 0.0
C778 C 0.37406 0.03952 0.38053 0.0
C779 C 0.32848 0.06243 0.3128 0.0
C780 C 0.34624 0.05998 0.35485 0.0
C781 C 0.40662 0.05414 0.4042 0.0
C782 C 0.38514 0.05592 0.39837 0.0
H783 H 0.31633 0.08679 0.16923 0.0
H784 H 0.33852 0.08895 0.26415 0.0
H785 H 0.34754 0.02871 0.34013 0.0
H786 H 0.44022 0.01945 0.43906 0.0
H787 H 0.40612 0.0264 0.4564 0.0
C788 C 0.45096 0.30714 0.1675 0.0
C789 C 0.4694 0.29857 0.17032 0.0
C790 C 0.44477 0.31934 0.2196 0.0
C791 C 0.46502 0.34511 0.37382 0.0
H792 H 0.4455 0.38974 0.27595 0.0
C793 C 0.4958 0.41993 0.43388 0.0
C794 C 0.50017 0.43145 0.37689 0.0
C795 C 0.48286 0.40433 0.42922 0.0
C796 C 0.45121 0.37749 0.30394 0.0
H797 H 0.49484 0.29386 0.23211 0.0
H798 H 0.48493 0.3157 0.32043 0.0
H799 H 0.43884 0.35766 0.23411 0.0
H800 H 0.49294 0.43617 0.27136 0.0
H801 H 0.47227 0.40808 0.26131 0.0
H802 H 0.47968 0.365 0.43813 0.0
C803 C 0.47466 0.31298 0.28015 0.0
C804 C 0.44695 0.35882 0.28074 0.0
C805 C 0.48053 0.30037 0.22911 0.0
C806 C 0.49053 0.42737 0.31594 0.0
C807 C 0.47812 0.41138 0.31072 0.0
C808 C 0.46997 0.36379 0.3954 0.0
C809 C 0.45736 0.32383 0.27364 0.0
C810 C 0.45513 0.34236 0.31231 0.0
C811 C 0.47445 0.39927 0.36689 0.0
C812 C 0.46431 0.38022 0.35766 0.0
H813 H 0.44207 0.30571 0.12256 0.0
H814 H 0.43092 0.32658 0.21411 0.0
H815 H 0.4706 0.33285 0.40216 0.0
H816 H 0.50292 0.42232 0.48189 0.0
H817 H 0.48009 0.39583 0.47425 0.0
C818 C 0.2455 0.50918 0.26596 0.0
C819 C 0.23696 0.49879 0.21254 0.0
C820 C 0.2356 0.51141 0.32717 0.0
C821 C 0.1864 0.50151 0.40787 0.0
H822 H 0.19278 0.55525 0.46114 0.0
C823 C 0.12374 0.54479 0.53311 0.0
C824 C 0.12207 0.56424 0.51217 0.0
C825 C 0.14035 0.53399 0.5171 0.0
C826 C 0.19063 0.54025 0.44635 0.0
H827 H 0.21302 0.47973 0.18597 0.0
H828 H 0.19509 0.48497 0.28843 0.0
H829 H 0.21817 0.53957 0.39874 0.0
H830 H 0.13589 0.58735 0.45535 0.0
H831 H 0.16407 0.56847 0.42401 0.0
H832 H 0.15777 0.50315 0.44914 0.0
C833 C 0.20941 0.49138 0.28497 0.0
C834 C 0.20555 0.53096 0.41158 0.0
C835 C 0.2196 0.48861 0.22495 0.0
C836 C 0.13698 0.5725 0.47334 0.0
C837 C 0.15329 0.56167 0.45611 0.0
C838 C 0.17117 0.51105 0.44076 0.0
C839 C 0.21666 0.50389 0.33539 0.0
C840 C 0.20329 0.51172 0.38847 0.0
C841 C 0.15539 0.54233 0.47838 0.0
C842 C 0.17273 0.53088 0.45718 0.0
H843 H 0.25906 0.51693 0.25891 0.0
H844 H 0.24229 0.52024 0.36595 0.0
H845 H 0.18433 0.48642 0.39422 0.0
H846 H 0.11238 0.53804 0.5627 0.0
H847 H 0.14141 0.5192 0.53543 0.0
C848 C 0.97508 0.81862 0.0347 0.0
C849 C 0.99068 0.80626 0.0498 0.0
C850 C 0.97474 0.82892 0.97379 0.0
C851 C 0.98843 0.86199 0.88792 0.0
H852 H 0.02023 0.8497 0.73224 0.0
C853 C 0.03896 0.91768 0.77404 0.0
C854 C 0.04203 0.9187 0.70399 0.0
C855 C 0.02763 0.90295 0.80182 0.0
C856 C 1.01096 0.85333 0.77454 0.0
H857 H 0.01727 0.79367 0.0117 0.0
H858 H 0.01729 0.81218 0.90734 0.0
H859 H 1.00726 0.82345 0.80203 0.0
H860 H 0.03584 0.90462 0.60822 0.0
H861 H 0.01598 0.87863 0.65737 0.0
H862 H 0.9923 0.89181 0.86098 0.0
C863 C 1.00494 0.81367 0.94073 0.0
C864 C 1.0037 0.8383 0.81508 0.0
C865 C 1.00504 0.80308 1.00092 0.0
C866 C 0.03378 0.90427 0.66244 0.0
C867 C 0.02235 0.88943 0.69045 0.0
C868 C 0.99545 0.87692 0.84706 0.0
C869 C 0.9903 0.82748 0.92789 0.0
C870 C 0.99325 0.8425 0.87447 0.0
C871 C 0.01906 0.88874 0.76049 0.0
C872 C 1.00772 0.87282 0.79231 0.0
H873 H 0.96373 0.8211 0.07156 0.0
H874 H 0.96289 0.83893 0.96476 0.0
H875 H 0.98053 0.866 0.93303 0.0
H876 H 0.04562 0.9281 0.80791 0.0
H877 H 0.02596 0.90247 0.85622 0.0
C878 C 0.73423 0.95447 0.10792 0.0
C879 C 0.74223 0.973 0.09766 0.0
C880 C 0.72035 0.94715 0.06305 0.0
C881 C 0.69068 0.96107 0.91001 0.0
H882 H 0.64815 0.94632 0.02793 0.0
C883 C 0.61603 0.99503 0.90362 0.0
C884 C 0.59912 0.98371 0.91163 0.0
C885 C 0.63434 0.98652 0.90588 0.0
C886 C 0.65988 0.9499 0.9936 0.0
H887 H 0.74373 0.99761 0.02995 0.0
H888 H 0.71919 0.9854 0.95291 0.0
H889 H 0.68127 0.94309 0.06751 0.0
H890 H 0.58848 0.95425 0.92674 0.0
H891 H 0.62083 0.93959 0.93506 0.0
H892 H 0.6688 0.96984 0.83908 0.0
C893 C 0.72372 0.97607 0.99408 0.0
C894 C 0.67901 0.948 0.01613 0.0
C895 C 0.73785 0.98318 0.0383 0.0
C896 C 0.60113 0.96351 0.92147 0.0
C897 C 0.6196 0.95504 0.92532 0.0
C898 C 0.67151 0.96327 0.88798 0.0
C899 C 0.71385 0.95855 0.00838 0.0
C900 C 0.69463 0.95464 0.97617 0.0
C901 C 0.63635 0.96653 0.91776 0.0
C902 C 0.65597 0.95866 0.9311 0.0
H903 H 0.73744 0.94642 0.15368 0.0
H904 H 0.71352 0.93334 0.07457 0.0
H905 H 0.70232 0.96578 0.87703 0.0
H906 H 0.61526 1.01066 0.89793 0.0
H907 H 0.64703 0.9958 0.90178 0.0
C908 C 0.54325 0.7467 0.99989 0.0
C909 C 0.55841 0.74455 0.04645 0.0
C910 C 0.54337 0.7362 0.93971 0.0
C911 C 0.56341 0.68943 0.88231 0.0
H912 H 0.52528 0.69867 0.74195 0.0
C913 C 0.51194 0.63034 0.79996 0.0
C914 C 0.50237 0.63099 0.73742 0.0
C915 C 0.52538 0.64463 0.81737 0.0
C916 C 0.53638 0.6958 0.77942 0.0
H917 H 0.58661 0.73175 0.06435 0.0
H918 H 0.58758 0.71432 0.95702 0.0
H919 H 0.53865 0.72594 0.8038 0.0
H920 H 0.50009 0.64659 0.64262 0.0
H921 H 0.52412 0.67134 0.67199 0.0
H922 H 0.56142 0.65935 0.85702 0.0
C923 C 0.57508 0.7233 0.96791 0.0
C924 C 0.54384 0.7115 0.81591 0.0
C925 C 0.57469 0.73343 0.02906 0.0
C926 C 0.5072 0.64579 0.69133 0.0
C927 C 0.52091 0.66 0.70833 0.0
C928 C 0.55638 0.67383 0.84459 0.0
C929 C 0.55886 0.72356 0.92438 0.0
C930 C 0.5563 0.70837 0.87131 0.0
C931 C 0.52981 0.65989 0.77235 0.0
C932 C 0.54167 0.67665 0.79629 0.0
H933 H 0.5305 0.75515 0.0127 0.0
H934 H 0.53047 0.7368 0.90854 0.0
H935 H 0.57311 0.6862 0.92385 0.0
H936 H 0.50832 0.61932 0.83707 0.0
H937 H 0.53144 0.64422 0.86782 0.0
C938 C 0.79961 0.5634 0.04747 0.0
C939 C 0.79443 0.57653 0.09805 0.0
C940 C 0.8121 0.56913 0.99582 0.0
C941 C 0.85177 0.6049 0.97549 0.0
H942 H 0.8622 0.56961 0.82829 0.0
C943 C 0.92827 0.57814 0.93032 0.0
C944 C 0.9324 0.5656 0.8761 0.0
C945 C 0.91019 0.58718 0.93562 0.0
C946 C 0.85976 0.58013 0.86782 0.0
H947 H 0.79633 0.60633 0.13185 0.0
H948 H 0.81721 0.61692 0.03887 0.0
H949 H 0.82973 0.57259 0.87011 0.0
H950 H 0.92086 0.5552 0.77989 0.0
H951 H 0.89109 0.57281 0.78488 0.0
H952 H 0.88147 0.61347 0.97038 0.0
C953 C 0.81238 0.60194 0.04007 0.0
C954 C 0.8409 0.58151 0.89299 0.0
C955 C 0.80019 0.59602 0.09279 0.0
C956 C 0.9187 0.56447 0.82319 0.0
C957 C 0.90103 0.57433 0.82686 0.0
C958 C 0.87048 0.60419 0.94829 0.0
C959 C 0.81952 0.58827 0.9933 0.0
C960 C 0.83703 0.59253 0.95113 0.0
C961 C 0.89589 0.58478 0.88519 0.0
C962 C 0.87518 0.5905 0.89808 0.0
H963 H 0.79547 0.54822 0.05141 0.0
H964 H 0.81724 0.55794 0.962 0.0
H965 H 0.84952 0.614 0.0193 0.0
H966 H 0.93861 0.58044 0.97069 0.0
H967 H 0.90729 0.59508 0.98163 0.0
C968 C 0.02796 0.22682 0.92869 0.0
C969 C 0.04631 0.23162 0.95509 0.0
C970 C 0.02536 0.20985 0.88991 0.0
C971 C 0.05177 0.17138 0.79291 0.0
H972 H 1.00798 0.13872 0.8413 0.0
C973 C 0.0344 0.09813 0.65542 0.0
C974 C 0.02881 0.08231 0.69632 0.0
C975 C 0.0364 0.11688 0.68273 0.0
C976 C 0.02033 0.14761 0.82719 0.0
H977 H 0.07637 0.22263 0.96012 0.0
H978 H 0.07204 0.19347 0.89128 0.0
H979 H 1.0116 0.17074 0.89311 0.0
H980 H 0.02089 0.07404 0.79836 0.0
H981 H 0.02384 0.10672 0.84538 0.0
H982 H 0.06064 0.14813 0.72764 0.0
C983 C 0.0596 0.20274 0.90004 0.0
C984 C 0.02229 0.16613 0.8564 0.0
C985 C 0.06212 0.21951 0.93945 0.0
C986 C 0.02515 0.08583 0.76517 0.0
C987 C 0.02674 0.10465 0.79212 0.0
C988 C 0.0497 0.15294 0.7631 0.0
C989 C 0.0411 0.19735 0.87603 0.0
C990 C 0.03818 0.17823 0.84045 0.0
C991 C 0.03236 0.12051 0.75134 0.0
C992 C 0.0341 0.14063 0.78053 0.0
H993 H 0.01544 0.23566 0.94093 0.0
H994 H 1.01092 0.20631 0.8719 0.0
H995 H 0.06413 0.18028 0.77884 0.0
H996 H 0.03743 0.096 0.60226 0.0
H997 H 0.04089 0.12861 0.64972 0.0
C998 C 0.33038 0.06355 0.95149 0.0
C999 C 0.31791 0.04751 0.96083 0.0
C1000 C 0.34741 0.0619 0.91335 0.0
C1001 C 0.37447 0.03244 0.78815 0.0
H1002 H 0.4197 0.05241 0.88252 0.0
C1003 C 0.45259 0.03759 0.66978 0.0
C1004 C 0.46808 0.03165 0.71155 0.0
C1005 C 0.4336 0.03907 0.69545 0.0
C1006 C 0.40726 0.04671 0.85543 0.0
H1007 H 0.31306 0.01747 0.93283 0.0
H1008 H 0.34273 1.01468 0.86458 0.0
H1009 H 0.38755 0.05612 0.93228 0.0
H1010 H 0.47533 0.02175 0.81253 0.0
H1011 H 0.44256 0.02502 0.85758 0.0
H1012 H 0.3944 0.02308 0.71108 0.0
C1013 C 0.3393 0.02853 0.88752 0.0
C1014 C 0.38875 0.04899 0.88372 0.0
C1015 C 0.32222 0.03016 0.92633 0.0
C1016 C 0.46396 0.02693 0.77924 0.0
C1017 C 0.4451 0.02869 0.80508 0.0
C1018 C 0.39304 0.03042 0.7592 0.0
C1019 C 0.35248 0.04419 0.88271 0.0
C1020 C 0.37208 0.04186 0.85071 0.0
C1021 C 0.42965 0.0349 0.76376 0.0
C1022 C 0.40971 0.03741 0.7928 0.0
H1023 H 0.32741 0.07722 0.97656 0.0
H1024 H 0.35696 0.07439 0.90955 0.0
H1025 H 0.36196 0.02682 0.76126 0.0
H1026 H 0.45518 0.04131 0.61734 0.0
H1027 H 0.42208 0.04396 0.66222 0.0
C1028 C 0.51835 0.32611 0.94719 0.0
C1029 C 0.49945 0.31867 0.95548 0.0
C1030 C 0.52145 0.34394 0.91353 0.0
C1031 C 0.49743 0.38075 0.80046 0.0
H1032 H 0.53317 0.41705 0.88409 0.0
C1033 C 0.49806 0.46274 0.72752 0.0
C1034 C 0.51589 0.47274 0.72664 0.0
C1035 C 0.49675 0.44367 0.75282 0.0
C1036 C 0.5233 0.40708 0.85927 0.0
H1037 H 0.46914 0.32379 0.9326 0.0
H1038 H 0.47446 0.35444 0.87349 0.0
H1039 H 0.5303 0.38407 0.92852 0.0
H1040 H 0.54647 0.47021 0.75101 0.0
H1041 H 0.54434 0.43694 0.79376 0.0
H1042 H 0.49036 0.40371 0.73137 0.0
C1043 C 0.48698 0.34665 0.89247 0.0
C1044 C 0.52167 0.38804 0.88487 0.0
C1045 C 0.4839 0.329 0.92645 0.0
C1046 C 0.53245 0.46302 0.75114 0.0
C1047 C 0.53118 0.44393 0.77628 0.0
C1048 C 0.49909 0.39975 0.77476 0.0
C1049 C 0.50574 0.35469 0.88681 0.0
C1050 C 0.50857 0.3746 0.85632 0.0
C1051 C 0.5133 0.43388 0.77753 0.0
C1052 C 0.51192 0.41333 0.80407 0.0
H1053 H 0.5306 0.31867 0.9698 0.0
H1054 H 0.53614 0.34948 0.9096 0.0
H1055 H 0.48739 0.37083 0.77621 0.0
H1056 H 0.4851 0.46954 0.70774 0.0
H1057 H 0.48265 0.43667 0.75341 0.0
C1058 C 0.20735 0.49343 0.96623 0.0
C1059 C 0.22087 0.50873 0.97058 0.0
C1060 C 0.19066 0.49513 0.92646 0.0
C1061 C 0.16639 0.52251 0.78889 0.0
H1062 H 0.11968 0.50551 0.88127 0.0
C1063 C 0.08844 0.53524 0.67979 0.0
C1064 C 0.07429 0.52086 0.69183 0.0
C1065 C 0.10688 0.53408 0.71002 0.0
C1066 C 0.13253 0.51006 0.85398 0.0
H1067 H 0.22794 0.53747 0.93324 0.0
H1068 H 0.19861 0.54045 0.86254 0.0
H1069 H 0.15091 0.50286 0.93749 0.0
H1070 H 0.06865 0.49376 0.74422 0.0
H1071 H 0.10072 0.49146 0.79553 0.0
H1072 H 0.1479 0.52955 0.70489 0.0
C1073 C 0.20102 0.5271 0.89036 0.0
C1074 C 0.15053 0.50859 0.8865 0.0
C1075 C 0.21786 0.52539 0.9306 0.0
C1076 C 0.07912 0.50518 0.73419 0.0
C1077 C 0.09756 0.50393 0.76398 0.0
C1078 C 0.14831 0.52387 0.75594 0.0
C1079 C 0.1869 0.5122 0.88961 0.0
C1080 C 0.16776 0.51459 0.85435 0.0
C1081 C 0.1117 0.51847 0.75305 0.0
C1082 C 0.1311 0.51749 0.78785 0.0
H1083 H 0.20935 0.48032 0.99585 0.0
H1084 H 0.1804 0.48317 0.9259 0.0
H1085 H 0.17936 0.52722 0.76251 0.0
H1086 H 0.08509 0.5477 0.64842 0.0
H1087 H 0.11717 0.54572 0.7009 0.0
C1088 C 0.02149 0.82811 0.31627 0.0
C1089 C 1.00336 0.82289 0.28889 0.0
C1090 C 0.02351 0.84513 0.35521 0.0
C1091 C 0.99566 0.8827 0.45142 0.0
H1092 H 0.03848 0.91683 0.40468 0.0
C1093 C 1.00997 0.95661 0.58873 0.0
C1094 C 0.01508 0.97256 0.54775 0.0
C1095 C 1.00872 0.93777 0.56163 0.0
C1096 C 0.0264 0.90752 0.41832 0.0
H1097 H 0.97307 0.83107 0.28302 0.0
H1098 H 0.97642 0.86031 0.35188 0.0
H1099 H 0.03613 0.88469 0.35281 0.0
H1100 H 0.02299 0.98101 0.44585 0.0
H1101 H 0.02139 0.94819 0.39926 0.0
H1102 H 0.98577 0.90564 0.51618 0.0
C1103 C 0.98913 0.85138 0.34354 0.0
C1104 C 0.02517 0.88894 0.38909 0.0
C1105 C 0.98719 0.83458 0.30399 0.0
C1106 C 0.01904 0.96911 0.47906 0.0
C1107 C 0.01824 0.95022 0.45238 0.0
C1108 C 0.997 0.9012 0.48123 0.0
C1109 C 1.0074 0.85721 0.36844 0.0
C1110 C 1.00963 0.87634 0.40439 0.0
C1111 C 1.01311 0.93422 0.49324 0.0
C1112 C 1.01222 0.91403 0.46431 0.0
H1113 H 0.03427 0.81957 0.30476 0.0
H1114 H 0.03778 0.84903 0.37396 0.0
H1115 H 0.98357 0.87339 0.46498 0.0
H1116 H 1.00674 0.95868 0.64177 0.0
H1117 H 1.00453 0.92593 0.59462 0.0
C1118 C 0.72194 0.02558 0.31903 0.0
C1119 C 0.72866 1.00641 0.312 0.0
C1120 C 0.70515 0.02953 0.35714 0.0
C1121 C 0.67066 1.00804 0.48358 0.0
H1122 H 0.63298 0.04221 0.39952 0.0
C1123 C 0.59579 0.02475 0.60784 0.0
C1124 C 0.57949 0.02516 0.56479 0.0
C1125 C 0.61471 0.0239 0.58139 0.0
C1126 C 0.64328 0.03257 0.4237 0.0
H1127 H 0.72356 0.97653 0.34145 0.0
H1128 H 0.69467 0.98335 0.40842 0.0
H1129 H 0.66503 0.03835 0.34874 0.0
H1130 H 0.57059 0.02514 0.45958 0.0
H1131 H 0.60338 0.02358 0.41382 0.0
H1132 H 0.64872 1.00181 0.55743 0.0
C1133 C 0.70225 0.99542 0.38509 0.0
C1134 C 0.66182 0.03055 0.39498 0.0
C1135 C 0.71885 0.99148 0.34666 0.0
C1136 C 0.5827 0.02487 0.49454 0.0
C1137 C 0.60159 0.02411 0.46814 0.0
C1138 C 0.65216 1.01014 0.5125 0.0
C1139 C 0.69481 1.01442 0.38951 0.0
C1140 C 0.67571 0.01803 0.4239 0.0
C1141 C 0.61791 0.02355 0.51109 0.0
C1142 C 0.63807 0.02222 0.48248 0.0
H1143 H 0.72903 0.03733 0.29208 0.0
H1144 H 0.7 0.04438 0.35994 0.0
H1145 H 0.68097 0.9984 0.50777 0.0
H1146 H 0.59398 0.025 0.66218 0.0
H1147 H 0.62686 0.0237 0.61616 0.0
C1148 C 0.52998 0.72366 0.32472 0.0
C1149 C 0.54678 0.72626 0.28511 0.0
C1150 C 0.5274 0.70661 0.36358 0.0
C1151 C 0.54388 0.65508 0.36719 0.0
H1152 H 0.5212 0.65311 0.54595 0.0
C1153 C 0.54266 0.58322 0.52025 0.0
C1154 C 0.52663 0.57913 0.5617 0.0
C1155 C 0.54488 0.60153 0.48977 0.0
C1156 C 0.52731 0.65329 0.49569 0.0
H1157 H 0.5746 0.71353 0.25967 0.0
H1158 H 0.57021 0.68422 0.32696 0.0
H1159 H 0.52531 0.68446 0.48915 0.0
H1160 H 0.50026 0.59111 0.60346 0.0
H1161 H 0.50381 0.62301 0.54957 0.0
H1162 H 0.54566 0.62407 0.37262 0.0
C1163 C 0.55876 0.69499 0.32698 0.0
C1164 C 0.52972 0.67137 0.46308 0.0
C1165 C 0.56134 0.71193 0.28862 0.0
C1166 C 0.51293 0.59393 0.57264 0.0
C1167 C 0.51503 0.61226 0.5417 0.0
C1168 C 0.54136 0.63707 0.39944 0.0
C1169 C 0.54154 0.69175 0.36358 0.0
C1170 C 0.53825 0.67256 0.39854 0.0
C1171 C 0.53102 0.61637 0.49937 0.0
C1172 C 0.5332 0.63581 0.46458 0.0
H1173 H 0.51842 0.73431 0.32293 0.0
H1174 H 0.51395 0.70469 0.39113 0.0
H1175 H 0.55009 0.65527 0.31694 0.0
H1176 H 0.55375 0.57237 0.51244 0.0
H1177 H 0.55766 0.60408 0.45915 0.0
C1178 C 0.81707 0.5305 0.33046 0.0
C1179 C 0.81061 0.54969 0.32148 0.0
C1180 C 0.83457 0.52668 0.36481 0.0
C1181 C 0.87217 0.54909 0.47766 0.0
H1182 H 0.90725 0.51291 0.39089 0.0
C1183 C 0.95432 0.54744 0.54208 0.0
C1184 C 0.96413 0.52954 0.54195 0.0
C1185 C 0.93506 0.54884 0.51939 0.0
C1186 C 0.8976 0.52286 0.41658 0.0
H1187 H 0.81704 0.57984 0.34306 0.0
H1188 H 0.84718 0.57329 0.40385 0.0
H1189 H 0.87425 0.51672 0.34792 0.0
H1190 H 0.9611 0.4989 0.5191 0.0
H1191 H 0.9274 0.50119 0.48065 0.0
H1192 H 0.89548 0.55535 0.54604 0.0
C1193 C 0.83883 0.56108 0.38505 0.0
C1194 C 0.87858 0.52503 0.39186 0.0
C1195 C 0.82149 0.56487 0.3503 0.0
C1196 C 0.95403 0.51296 0.51956 0.0
C1197 C 0.93471 0.51432 0.49696 0.0
C1198 C 0.89114 0.54687 0.50251 0.0
C1199 C 0.84594 0.54198 0.3913 0.0
C1200 C 0.86564 0.53837 0.42146 0.0
C1201 C 0.9249 0.5323 0.49642 0.0
C1202 C 0.90428 0.53392 0.47184 0.0
H1203 H 0.80916 0.51855 0.30768 0.0
H1204 H 0.83945 0.51177 0.36919 0.0
H1205 H 0.86259 0.55928 0.50256 0.0
H1206 H 0.96144 0.56043 0.56049 0.0
H1207 H 0.92822 0.563 0.51921 0.0
loop_
_geom_bond_atom_site_label_1
_geom_bond_atom_site_label_2
_geom_bond_distance
_geom_bond_site_symmetry_2
_ccdc_geom_bond_type
H0 C1 0.949 . S
C1 H0 0.949 . S
C1 C2 1.395 . S
C1 C3 1.391 . S
C2 C1 1.395 . S
C2 C5 1.390 . S
C3 C1 1.391 . S
C3 C7 1.387 . S
C3 C8 1.491 . S
H4 C5 0.950 . S
C5 C2 1.390 . S
C5 H4 0.950 . S
C5 C6 1.378 . S
C6 C5 1.378 . S
C6 C7 1.409 . S
C7 C3 1.387 . S
C7 C6 1.409 . S
C7 H9 0.951 . S
C8 C3 1.491 . S
C8 C10 1.382 . S
C8 C12 1.404 . S
H9 C7 0.951 . S
C10 C8 1.382 . S
C10 C11 1.390 . S
C10 H15 0.949 . S
C11 C10 1.390 . S
C11 C16 1.399 . S
C12 C8 1.404 . S
C12 H13 0.950 . S
C12 C14 1.375 . S
H13 C12 0.950 . S
C14 C12 1.375 . S
C14 C16 1.382 . S
C14 H18 0.950 . S
H15 C10 0.949 . S
C16 C11 1.399 . S
C16 C14 1.382 . S
C16 H17 0.952 . S
H17 C16 0.952 . S
H18 C14 0.950 . S
H19 C20 0.949 . S
C20 H19 0.949 . S
C20 C21 1.395 . S
C20 C22 1.391 . S
C21 C20 1.395 . S
C21 C24 1.390 . S
C22 C20 1.391 . S
C22 C26 1.387 . S
C22 C27 1.491 . S
H23 C24 0.950 . S
C24 C21 1.390 . S
C24 H23 0.950 . S
C24 C25 1.378 . S
C25 C24 1.378 . S
C25 C26 1.409 . S
C26 C22 1.387 . S
C26 C25 1.409 . S
C26 H28 0.951 . S
C27 C22 1.491 . S
C27 C29 1.382 . S
C27 C31 1.404 . S
H28 C26 0.951 . S
C29 C27 1.382 . S
C29 C30 1.390 . S
C29 H34 0.949 . S
C30 C29 1.390 . S
C30 C35 1.399 . S
C31 C27 1.404 . S
C31 H32 0.950 . S
C31 C33 1.375 . S
H32 C31 0.950 . S
C33 C31 1.375 . S
C33 C35 1.382 . S
C33 H37 0.950 . S
H34 C29 0.949 . S
C35 C30 1.399 . S
C35 C33 1.382 . S
C35 H36 0.952 . S
H36 C35 0.952 . S
H37 C33 0.950 . S
H38 C39 0.949 . S
C39 H38 0.949 . S
C39 C40 1.395 . S
C39 C41 1.391 . S
C40 C39 1.395 . S
C40 C43 1.390 . S
C41 C39 1.391 . S
C41 C45 1.387 . S
C41 C46 1.491 . S
H42 C43 0.950 . S
C43 C40 1.390 . S
C43 H42 0.950 . S
C43 C44 1.378 . S
C44 C43 1.378 . S
C44 C45 1.409 . S
C45 C41 1.387 . S
C45 C44 1.409 . S
C45 H47 0.951 . S
C46 C41 1.491 . S
C46 C48 1.382 . S
C46 C50 1.404 . S
H47 C45 0.951 . S
C48 C46 1.382 . S
C48 C49 1.390 . S
C48 H53 0.949 . S
C49 C48 1.390 . S
C49 C54 1.399 . S
C50 C46 1.404 . S
C50 H51 0.950 . S
C50 C52 1.375 . S
H51 C50 0.950 . S
C52 C50 1.375 . S
C52 C54 1.382 . S
C52 H56 0.950 . S
H53 C48 0.949 . S
C54 C49 1.399 . S
C54 C52 1.382 . S
C54 H55 0.952 . S
H55 C54 0.952 . S
H56 C52 0.950 . S
H57 C58 0.949 . S
C58 H57 0.949 . S
C58 C59 1.395 . S
C58 C60 1.391 . S
C59 C58 1.395 . S
C59 C62 1.390 . S
C60 C58 1.391 . S
C60 C64 1.387 . S
C60 C65 1.491 . S
H61 C62 0.950 . S
C62 C59 1.390 . S
C62 H61 0.950 . S
C62 C63 1.378 . S
C63 C62 1.378 . S
C63 C64 1.409 . S
C64 C60 1.387 . S
C64 C63 1.409 . S
C64 H66 0.951 . S
C65 C60 1.491 . S
C65 C67 1.382 . S
C65 C69 1.404 . S
H66 C64 0.951 . S
C67 C65 1.382 . S
C67 C68 1.390 . S
C67 H72 0.949 . S
C68 C67 1.390 . S
C68 C73 1.399 . S
C69 C65 1.404 . S
C69 H70 0.950 . S
C69 C71 1.375 . S
H70 C69 0.950 . S
C71 C69 1.375 . S
C71 C73 1.382 . S
C71 H75 0.950 . S
H72 C67 0.949 . S
C73 C68 1.399 . S
C73 C71 1.382 . S
C73 H74 0.952 . S
H74 C73 0.952 . S
H75 C71 0.950 . S
H76 C77 0.949 . S
C77 H76 0.949 . S
C77 C78 1.395 . S
C77 C79 1.391 . S
C78 C77 1.395 . S
C78 C81 1.393 . S
C79 C77 1.391 . S
C79 C83 1.387 1_554 S
C79 C84 1.491 . S
H80 C81 0.950 1_556 S
C81 C78 1.393 . S
C81 H80 0.950 1_554 S
C81 C82 1.375 1_554 S
C82 C81 1.375 1_556 S
C82 C83 1.409 . S
C83 C79 1.387 1_556 S
C83 C82 1.409 . S
C83 H85 0.951 . S
C84 C79 1.491 . S
C84 C86 1.382 . S
C84 C88 1.404 1_554 S
H85 C83 0.951 . S
C86 C84 1.382 . S
C86 C87 1.390 . S
C86 H91 0.949 . S
C87 C86 1.390 . S
C87 C92 1.399 . S
C88 C84 1.404 1_556 S
C88 H89 0.950 . S
C88 C90 1.375 . S
H89 C88 0.950 . S
C90 C88 1.375 . S
C90 C92 1.382 1_556 S
C90 H94 0.950 . S
H91 C86 0.949 . S
C92 C87 1.399 . S
C92 C90 1.382 1_554 S
C92 H93 0.952 . S
H93 C92 0.952 . S
H94 C90 0.950 . S
H95 C96 0.949 . S
C96 H95 0.949 . S
C96 C97 1.395 . S
C96 C98 1.391 . S
C97 C96 1.395 . S
C97 C100 1.390 . S
C98 C96 1.391 . S
C98 C102 1.387 1_554 S
C98 C103 1.491 . S
H99 C100 0.950 . S
C100 C97 1.390 . S
C100 H99 0.950 . S
C100 C101 1.378 1_554 S
C101 C100 1.378 1_556 S
C101 C102 1.409 . S
C102 C98 1.387 1_556 S
C102 C101 1.409 . S
C102 H104 0.951 . S
C103 C98 1.491 . S
C103 C105 1.382 . S
C103 C107 1.404 1_554 S
H104 C102 0.951 . S
C105 C103 1.382 . S
C105 C106 1.390 . S
C105 H110 0.949 . S
C106 C105 1.390 . S
C106 C111 1.399 . S
C107 C103 1.404 1_556 S
C107 H108 0.950 . S
C107 C109 1.375 . S
H108 C107 0.950 . S
C109 C107 1.375 . S
C109 C111 1.382 1_556 S
C109 H113 0.950 . S
H110 C105 0.949 . S
C111 C106 1.399 . S
C111 C109 1.382 1_554 S
C111 H112 0.952 . S
H112 C111 0.952 . S
H113 C109 0.950 . S
H114 C115 0.949 . S
C115 H114 0.949 . S
C115 C116 1.395 . S
C115 C117 1.391 . S
C116 C115 1.395 . S
C116 C119 1.390 . S
C117 C115 1.391 . S
C117 C121 1.387 1_554 S
C117 C122 1.491 . S
H118 C119 0.950 . S
C119 C116 1.390 . S
C119 H118 0.950 . S
C119 C120 1.378 1_554 S
C120 C119 1.378 1_556 S
C120 C121 1.409 . S
C121 C117 1.387 1_556 S
C121 C120 1.409 . S
C121 H123 0.951 . S
C122 C117 1.491 . S
C122 C124 1.382 . S
C122 C126 1.404 1_554 S
H123 C121 0.951 . S
C124 C122 1.382 . S
C124 C125 1.390 . S
C124 H129 0.949 . S
C125 C124 1.390 . S
C125 C130 1.399 . S
C126 C122 1.404 1_556 S
C126 H127 0.950 . S
C126 C128 1.375 . S
H127 C126 0.950 . S
C128 C126 1.375 . S
C128 C130 1.382 1_556 S
C128 H132 0.950 . S
H129 C124 0.949 . S
C130 C125 1.399 . S
C130 C128 1.382 1_554 S
C130 H131 0.952 . S
H131 C130 0.952 . S
H132 C128 0.950 . S
H133 C134 0.949 . S
C134 H133 0.949 . S
C134 C135 1.395 . S
C134 C136 1.391 . S
C135 C134 1.395 . S
C135 C138 1.390 1_554 S
C136 C134 1.391 . S
C136 C140 1.387 1_554 S
C136 C141 1.491 . S
H137 C138 0.950 . S
C138 C135 1.390 1_556 S
C138 H137 0.950 . S
C138 C139 1.378 . S
C139 C138 1.378 . S
C139 C140 1.409 . S
C140 C136 1.387 1_556 S
C140 C139 1.409 . S
C140 H142 0.951 . S
C141 C136 1.491 . S
C141 C143 1.382 . S
C141 C145 1.404 1_554 S
H142 C140 0.951 . S
C143 C141 1.382 . S
C143 C144 1.390 . S
C143 H148 0.949 . S
C144 C143 1.390 . S
C144 C149 1.399 . S
C145 C141 1.404 1_556 S
C145 H146 0.950 . S
C145 C147 1.375 . S
H146 C145 0.950 . S
C147 C145 1.375 . S
C147 C149 1.382 1_556 S
C147 H151 0.950 . S
H148 C143 0.949 . S
C149 C144 1.399 . S
C149 C147 1.382 1_554 S
C149 H150 0.952 . S
H150 C149 0.952 . S
H151 C147 0.950 . S
C152 C154 1.422 . S
C152 C156 1.415 . S
C152 N158 1.369 . S
C153 C154 1.421 . S
C153 C155 1.417 . S
C153 C165 1.422 . S
C154 C152 1.422 . S
C154 C153 1.421 . S
C154 N164 1.359 . S
C155 C153 1.417 . S
C155 C157 1.329 . S
C155 H174 0.930 . S
C156 C152 1.415 . S
C156 C157 1.437 . S
C156 C160 1.413 . S
C157 C155 1.329 . S
C157 C156 1.437 . S
C157 H179 0.929 . S
N158 C152 1.369 . S
N158 C159 1.338 . S
N158 Gd163 2.622 1_545 S
C159 N158 1.338 . S
C159 C161 1.378 . S
C159 H171 0.929 1_545 S
C160 C156 1.413 . S
C160 C161 1.348 . S
C160 H176 0.931 . S
C161 C159 1.378 . S
C161 C160 1.348 . S
C161 H177 0.930 . S
Gd162 N182 2.622 . S
Gd162 N189 2.570 . S
Gd162 O196 2.353 1_655 S
Gd162 O197 2.468 1_655 S
Gd162 O198 2.427 . S
Gd162 O200 2.388 . S
Gd162 O201 2.386 1_545 S
Gd162 O205 2.307 1_655 S
Gd162 C215 2.805 . S
Gd163 N158 2.622 1_565 S
Gd163 N164 2.570 1_565 S
Gd163 O195 2.386 1_565 S
Gd163 O199 2.307 1_465 S
Gd163 O202 2.353 . S
Gd163 O203 2.468 . S
Gd163 O204 2.427 . S
Gd163 O206 2.388 1_565 S
Gd163 C227 2.805 . S
N164 C154 1.359 . S
N164 Gd163 2.570 1_545 S
N164 C166 1.343 . S
C165 C153 1.422 . S
C165 C167 1.321 . S
C165 H173 0.931 . S
C166 N164 1.343 . S
C166 C167 1.390 . S
C166 H168 0.931 1_455 S
C167 C165 1.321 . S
C167 C166 1.390 . S
C167 H169 0.930 1_455 S
H168 C166 0.931 1_655 S
H169 C167 0.930 1_655 S
H170 C193 0.931 . S
H171 C159 0.929 1_565 S
H172 C194 0.935 . S
H173 C165 0.931 . S
H174 C155 0.930 . S
H175 C184 0.929 . S
H176 C160 0.931 . S
H177 C161 0.930 . S
H178 C216 0.930 . S
H179 C157 0.929 . S
H180 C185 0.931 1_565 S
H181 C186 0.930 . S
N182 Gd162 2.622 . S
N182 C183 1.369 . S
N182 C184 1.338 . S
C183 N182 1.369 . S
C183 C187 1.429 . S
C183 C190 1.422 . S
C184 H175 0.929 . S
C184 N182 1.338 . S
C184 C186 1.378 . S
C185 H180 0.931 1_545 S
C185 C186 1.348 . S
C185 C187 1.417 . S
C186 H181 0.930 . S
C186 C184 1.378 . S
C186 C185 1.348 . S
C187 C183 1.429 . S
C187 C185 1.417 . S
C187 C217 1.421 1_545 S
H188 C217 0.929 . S
N189 Gd162 2.570 . S
N189 C190 1.359 . S
N189 C193 1.343 1_655 S
C190 C183 1.422 . S
C190 N189 1.359 . S
C190 C192 1.421 1_545 S
C191 C192 1.422 . S
C191 C194 1.321 1_665 S
C191 H218 0.931 . S
C192 C190 1.421 1_565 S
C192 C191 1.422 . S
C192 C216 1.417 . S
C193 H170 0.931 . S
C193 N189 1.343 1_455 S
C193 C194 1.390 . S
C194 H172 0.935 . S
C194 C191 1.321 1_445 S
C194 C193 1.390 . S
O195 Gd163 2.386 1_545 S
O195 C207 1.265 . S
O196 Gd162 2.353 1_455 S
O196 C207 1.242 . S
O197 Gd162 2.468 1_455 S
O197 C215 1.263 1_455 S
O198 Gd162 2.427 . S
O198 C215 1.252 . S
O199 Gd163 2.307 1_645 S
O199 C208 1.261 . S
O200 Gd162 2.388 . S
O200 C208 1.252 . S
O201 Gd162 2.386 1_565 S
O201 C219 1.265 . S
O202 Gd163 2.353 . S
O202 C219 1.242 1_455 S
O203 Gd163 2.468 . S
O203 C227 1.263 . S
O204 Gd163 2.427 . S
O204 C227 1.252 . S
O205 Gd162 2.307 1_455 S
O205 C220 1.261 . S
O206 Gd163 2.388 1_545 S
O206 C220 1.252 . S
C207 O195 1.265 . S
C207 O196 1.242 . S
C208 O199 1.261 . S
C208 O200 1.252 . S
C209 C212 1.394 . S
C209 C214 1.370 1_655 S
C209 C215 1.500 . S
C210 C213 1.383 1_455 S
C210 C214 1.395 . S
C211 C212 1.396 . S
C211 C213 1.365 . S
C211 H228 0.929 . S
C212 C209 1.394 . S
C212 C211 1.396 . S
C212 H229 0.930 . S
C213 C210 1.383 1_655 S
C213 C211 1.365 . S
C213 H230 0.931 . S
C214 C209 1.370 1_455 S
C214 C210 1.395 . S
C214 H231 0.930 . S
C215 Gd162 2.805 . S
C215 O197 1.263 1_655 S
C215 O198 1.252 . S
C215 C209 1.500 . S
C216 H178 0.930 . S
C216 C192 1.417 . S
C216 C217 1.329 . S
C217 C187 1.421 1_565 S
C217 H188 0.929 . S
C217 C216 1.329 . S
H218 C191 0.931 . S
C219 O201 1.265 . S
C219 O202 1.242 1_655 S
C220 O205 1.261 . S
C220 O206 1.252 . S
C221 C224 1.394 . S
C221 C226 1.370 . S
C221 C227 1.500 . S
C222 C225 1.383 . S
C222 C226 1.395 . S
C223 C224 1.396 . S
C223 C225 1.365 . S
C223 H232 0.929 . S
C224 C221 1.394 . S
C224 C223 1.396 . S
C224 H233 0.930 . S
C225 C222 1.383 . S
C225 C223 1.365 . S
C225 H234 0.931 . S
C226 C221 1.370 . S
C226 C222 1.395 . S
C226 H235 0.930 1_455 S
C227 Gd163 2.805 . S
C227 O203 1.263 . S
C227 O204 1.252 . S
C227 C221 1.500 . S
H228 C211 0.929 . S
H229 C212 0.930 . S
H230 C213 0.931 . S
H231 C214 0.930 . S
H232 C223 0.929 . S
H233 C224 0.930 . S
H234 C225 0.931 . S
H235 C226 0.930 1_655 S
C236 C238 1.422 . S
C236 C240 1.415 . S
C236 N242 1.369 . S
C237 C238 1.421 . S
C237 C239 1.417 . S
C237 C249 1.422 . S
C238 C236 1.422 . S
C238 C237 1.421 . S
C238 N248 1.359 . S
C239 C237 1.417 . S
C239 C241 1.329 . S
C239 H258 0.930 . S
C240 C236 1.415 . S
C240 C241 1.437 . S
C240 C244 1.413 . S
C241 C239 1.329 . S
C241 C240 1.437 . S
C241 H263 0.929 . S
N242 C236 1.369 . S
N242 C243 1.338 . S
N242 Gd247 2.622 . S
C243 N242 1.338 . S
C243 C245 1.378 . S
C243 H255 0.929 . S
C244 C240 1.413 . S
C244 C245 1.348 . S
C244 H260 0.931 . S
C245 C243 1.378 . S
C245 C244 1.348 . S
C245 H261 0.930 . S
Gd246 N266 2.622 . S
Gd246 N273 2.570 . S
Gd246 O280 2.353 1_545 S
Gd246 O281 2.468 . S
Gd246 O282 2.427 . S
Gd246 O284 2.388 . S
Gd246 O285 2.386 . S
Gd246 O289 2.307 . S
Gd246 C299 2.805 . S
Gd247 N242 2.622 . S
Gd247 N248 2.570 . S
Gd247 O279 2.386 . S
Gd247 O283 2.307 1_565 S
Gd247 O286 2.353 1_565 S
Gd247 O287 2.468 1_565 S
Gd247 O288 2.427 . S
Gd247 O290 2.395 . S
Gd247 C311 2.805 1_565 S
N248 C238 1.359 . S
N248 Gd247 2.570 . S
N248 C250 1.343 . S
C249 C237 1.422 . S
C249 C251 1.321 . S
C249 H257 0.931 . S
C250 N248 1.343 . S
C250 C251 1.390 . S
C250 H252 0.931 . S
C251 C249 1.321 . S
C251 C250 1.390 . S
C251 H253 0.930 . S
H252 C250 0.931 . S
H253 C251 0.930 . S
H254 C277 0.931 . S
H255 C243 0.929 . S
H256 C278 0.930 . S
H257 C249 0.931 . S
H258 C239 0.930 . S
H259 C268 0.929 . S
H260 C244 0.931 . S
H261 C245 0.930 . S
H262 C300 0.930 . S
H263 C241 0.929 . S
H264 C269 0.931 . S
H265 C270 0.930 . S
N266 Gd246 2.622 . S
N266 C267 1.369 . S
N266 C268 1.338 . S
C267 N266 1.369 . S
C267 C271 1.415 . S
C267 C274 1.422 . S
C268 H259 0.929 . S
C268 N266 1.338 . S
C268 C270 1.378 . S
C269 H264 0.931 . S
C269 C270 1.348 . S
C269 C271 1.413 . S
C270 H265 0.930 . S
C270 C268 1.378 . S
C270 C269 1.348 . S
C271 C267 1.415 . S
C271 C269 1.413 . S
C271 C301 1.437 . S
H272 C301 0.929 . S
N273 Gd246 2.570 . S
N273 C274 1.359 . S
N273 C277 1.343 . S
C274 C267 1.422 . S
C274 N273 1.359 . S
C274 C276 1.421 . S
C275 C276 1.422 . S
C275 C278 1.321 . S
C275 H302 0.931 . S
C276 C274 1.421 . S
C276 C275 1.422 . S
C276 C300 1.417 . S
C277 H254 0.931 . S
C277 N273 1.343 . S
C277 C278 1.390 . S
C278 H256 0.930 . S
C278 C275 1.321 . S
C278 C277 1.390 . S
O279 Gd247 2.386 . S
O279 C291 1.265 . S
O280 Gd246 2.353 1_565 S
O280 C291 1.242 . S
O281 Gd246 2.468 . S
O281 C299 1.263 . S
O282 Gd246 2.427 . S
O282 C299 1.252 . S
O283 Gd247 2.307 1_545 S
O283 C292 1.261 . S
O284 Gd246 2.388 . S
O284 C292 1.252 . S
O285 Gd246 2.386 . S
O285 C303 1.265 . S
O286 Gd247 2.353 1_545 S
O286 C303 1.242 . S
O287 Gd247 2.468 1_545 S
O287 C311 1.263 . S
O288 Gd247 2.427 . S
O288 C311 1.252 1_565 S
O289 Gd246 2.307 . S
O289 C304 1.261 . S
O290 Gd247 2.395 . S
O290 C304 1.234 1_565 S
C291 O279 1.265 . S
C291 O280 1.242 . S
C292 O283 1.261 . S
C292 O284 1.252 . S
C293 C296 1.394 . S
C293 C298 1.370 . S
C293 C299 1.500 . S
C294 C297 1.383 . S
C294 C298 1.395 . S
C295 C296 1.396 . S
C295 C297 1.365 . S
C295 H312 0.929 1_556 S
C296 C293 1.394 . S
C296 C295 1.396 . S
C296 H313 0.930 . S
C297 C294 1.383 . S
C297 C295 1.365 . S
C297 H314 0.931 . S
C298 C293 1.370 . S
C298 C294 1.395 . S
C298 H315 0.930 . S
C299 Gd246 2.805 . S
C299 O281 1.263 . S
C299 O282 1.252 . S
C299 C293 1.500 . S
C300 H262 0.930 . S
C300 C276 1.417 . S
C300 C301 1.329 . S
C301 C271 1.437 . S
C301 H272 0.929 . S
C301 C300 1.329 . S
H302 C275 0.931 . S
C303 O285 1.265 . S
C303 O286 1.242 . S
C304 O289 1.261 . S
C304 O290 1.234 1_545 S
C305 C308 1.401 . S
C305 C310 1.370 . S
C305 C311 1.500 . S
C306 C309 1.383 . S
C306 C310 1.395 . S
C307 C308 1.400 . S
C307 C309 1.365 . S
C307 H316 0.934 . S
C308 C305 1.401 . S
C308 C307 1.400 . S
C308 H317 0.919 1_545 S
C309 C306 1.383 . S
C309 C307 1.365 . S
C309 H318 0.931 . S
C310 C305 1.370 . S
C310 C306 1.395 . S
C310 H319 0.930 . S
C311 Gd247 2.805 1_545 S
C311 O287 1.263 . S
C311 O288 1.252 1_545 S
C311 C305 1.500 . S
H312 C295 0.929 1_554 S
H313 C296 0.930 . S
H314 C297 0.931 . S
H315 C298 0.930 . S
H316 C307 0.934 . S
H317 C308 0.919 1_565 S
H318 C309 0.931 . S
H319 C310 0.930 . S
C320 C322 1.422 . S
C320 C324 1.415 . S
C320 N326 1.369 . S
C321 C322 1.421 . S
C321 C323 1.417 . S
C321 C333 1.422 . S
C322 C320 1.422 . S
C322 C321 1.421 . S
C322 N332 1.359 . S
C323 C321 1.417 . S
C323 C325 1.329 . S
C323 H342 0.930 . S
C324 C320 1.415 . S
C324 C325 1.437 . S
C324 C328 1.413 . S
C325 C323 1.329 . S
C325 C324 1.437 . S
C325 H347 0.929 . S
N326 C320 1.369 . S
N326 C327 1.338 . S
N326 Gd331 2.622 . S
C327 N326 1.338 . S
C327 C329 1.378 . S
C327 H339 0.929 . S
C328 C324 1.413 . S
C328 C329 1.348 . S
C328 H344 0.931 . S
C329 C327 1.378 . S
C329 C328 1.348 . S
C329 H345 0.930 . S
Gd330 N350 2.622 . S
Gd330 N357 2.570 . S
Gd330 O364 2.353 . S
Gd330 O365 2.468 . S
Gd330 O366 2.427 . S
Gd330 O368 2.388 . S
Gd330 O369 2.386 . S
Gd330 O373 2.307 . S
Gd330 C383 2.805 . S
Gd331 N326 2.622 . S
Gd331 N332 2.570 . S
Gd331 O363 2.386 . S
Gd331 O367 2.307 . S
Gd331 O370 2.353 . S
Gd331 O371 2.468 . S
Gd331 O372 2.427 . S
Gd331 O374 2.388 . S
Gd331 C395 2.805 . S
N332 C322 1.359 . S
N332 Gd331 2.570 . S
N332 C334 1.343 . S
C333 C321 1.422 . S
C333 C335 1.321 . S
C333 H341 0.931 . S
C334 N332 1.343 . S
C334 C335 1.390 . S
C334 H336 0.931 . S
C335 C333 1.321 . S
C335 C334 1.390 . S
C335 H337 0.930 . S
H336 C334 0.931 . S
H337 C335 0.930 . S
H338 C361 0.931 . S
H339 C327 0.929 . S
H340 C362 0.930 . S
H341 C333 0.931 . S
H342 C323 0.930 . S
H343 C352 0.929 . S
H344 C328 0.931 . S
H345 C329 0.930 . S
H346 C384 0.930 . S
H347 C325 0.929 . S
H348 C353 0.931 . S
H349 C354 0.930 . S
N350 Gd330 2.622 . S
N350 C351 1.369 . S
N350 C352 1.338 . S
C351 N350 1.369 . S
C351 C355 1.415 . S
C351 C358 1.422 . S
C352 H343 0.929 . S
C352 N350 1.338 . S
C352 C354 1.378 . S
C353 H348 0.931 . S
C353 C354 1.348 . S
C353 C355 1.413 . S
C354 H349 0.930 . S
C354 C352 1.378 . S
C354 C353 1.348 . S
C355 C351 1.415 . S
C355 C353 1.413 . S
C355 C385 1.437 . S
H356 C385 0.929 . S
N357 Gd330 2.570 . S
N357 C358 1.359 . S
N357 C361 1.343 . S
C358 C351 1.422 . S
C358 N357 1.359 . S
C358 C360 1.421 . S
C359 C360 1.422 . S
C359 C362 1.321 . S
C359 H386 0.931 . S
C360 C358 1.421 . S
C360 C359 1.422 . S
C360 C384 1.417 . S
C361 H338 0.931 . S
C361 N357 1.343 . S
C361 C362 1.390 . S
C362 H340 0.930 . S
C362 C359 1.321 . S
C362 C361 1.390 . S
O363 Gd331 2.386 . S
O363 C375 1.265 . S
O364 Gd330 2.353 . S
O364 C375 1.242 . S
O365 Gd330 2.468 . S
O365 C383 1.263 . S
O366 Gd330 2.427 . S
O366 C383 1.252 . S
O367 Gd331 2.307 . S
O367 C376 1.261 . S
O368 Gd330 2.388 . S
O368 C376 1.252 . S
O369 Gd330 2.386 . S
O369 C387 1.265 . S
O370 Gd331 2.353 . S
O370 C387 1.242 . S
O371 Gd331 2.468 . S
O371 C395 1.263 . S
O372 Gd331 2.427 . S
O372 C395 1.252 . S
O373 Gd330 2.307 . S
O373 C388 1.261 . S
O374 Gd331 2.388 . S
O374 C388 1.252 . S
C375 O363 1.265 . S
C375 O364 1.242 . S
C376 O367 1.261 . S
C376 O368 1.252 . S
C377 C380 1.394 . S
C377 C382 1.370 . S
C377 C383 1.500 . S
C378 C381 1.383 . S
C378 C382 1.395 . S
C379 C380 1.396 . S
C379 C381 1.365 . S
C379 H396 0.929 . S
C380 C377 1.394 . S
C380 C379 1.396 . S
C380 H397 0.930 . S
C381 C378 1.383 . S
C381 C379 1.365 . S
C381 H398 0.931 . S
C382 C377 1.370 . S
C382 C378 1.395 . S
C382 H399 0.930 . S
C383 Gd330 2.805 . S
C383 O365 1.263 . S
C383 O366 1.252 . S
C383 C377 1.500 . S
C384 H346 0.930 . S
C384 C360 1.417 . S
C384 C385 1.329 . S
C385 C355 1.437 . S
C385 H356 0.929 . S
C385 C384 1.329 . S
H386 C359 0.931 . S
C387 O369 1.265 . S
C387 O370 1.242 . S
C388 O373 1.261 . S
C388 O374 1.252 . S
C389 C392 1.394 . S
C389 C394 1.370 . S
C389 C395 1.500 . S
C390 C393 1.383 . S
C390 C394 1.395 . S
C391 C392 1.396 . S
C391 C393 1.365 . S
C391 H400 0.929 . S
C392 C389 1.394 . S
C392 C391 1.396 . S
C392 H401 0.930 . S
C393 C390 1.383 . S
C393 C391 1.365 . S
C393 H402 0.931 . S
C394 C389 1.370 . S
C394 C390 1.395 . S
C394 H403 0.930 . S
C395 Gd331 2.805 . S
C395 O371 1.263 . S
C395 O372 1.252 . S
C395 C389 1.500 . S
H396 C379 0.929 . S
H397 C380 0.930 . S
H398 C381 0.931 . S
H399 C382 0.930 . S
H400 C391 0.929 . S
H401 C392 0.930 . S
H402 C393 0.931 . S
H403 C394 0.930 . S
C404 C406 1.422 . S
C404 C408 1.415 . S
C404 N410 1.369 . S
C405 C406 1.421 . S
C405 C407 1.417 . S
C405 C417 1.422 . S
C406 C404 1.422 . S
C406 C405 1.421 . S
C406 N416 1.359 . S
C407 C405 1.417 . S
C407 C409 1.329 . S
C407 H426 0.930 . S
C408 C404 1.415 . S
C408 C409 1.437 . S
C408 C412 1.413 . S
C409 C407 1.329 . S
C409 C408 1.437 . S
C409 H431 0.929 . S
N410 C404 1.369 . S
N410 C411 1.338 1_455 S
N410 Gd415 2.622 1_455 S
C411 N410 1.338 1_655 S
C411 C413 1.378 1_655 S
C411 H423 0.929 . S
C412 C408 1.413 . S
C412 C413 1.348 . S
C412 H428 0.931 . S
C413 C411 1.378 1_455 S
C413 C412 1.348 . S
C413 H429 0.930 . S
Gd414 N434 2.622 . S
Gd414 N441 2.570 . S
Gd414 O448 2.353 . S
Gd414 O449 2.468 . S
Gd414 O450 2.427 . S
Gd414 O452 2.388 . S
Gd414 O453 2.386 1_455 S
Gd414 O457 2.307 . S
Gd414 C467 2.805 . S
Gd415 N410 2.622 1_655 S
Gd415 N416 2.570 1_655 S
Gd415 O447 2.386 1_655 S
Gd415 O451 2.307 1_655 S
Gd415 O454 2.353 . S
Gd415 O455 2.468 . S
Gd415 O456 2.427 . S
Gd415 O458 2.388 . S
Gd415 C479 2.805 . S
N416 C406 1.359 . S
N416 Gd415 2.570 1_455 S
N416 C418 1.343 . S
C417 C405 1.422 . S
C417 C419 1.321 . S
C417 H425 0.931 . S
C418 N416 1.343 . S
C418 C419 1.390 . S
C418 H420 0.931 . S
C419 C417 1.321 . S
C419 C418 1.390 . S
C419 H421 0.930 . S
H420 C418 0.931 . S
H421 C419 0.930 . S
H422 C445 0.931 . S
H423 C411 0.929 . S
H424 C446 0.930 . S
H425 C417 0.931 . S
H426 C407 0.930 . S
H427 C436 0.929 . S
H428 C412 0.931 . S
H429 C413 0.930 . S
H430 C468 0.930 . S
H431 C409 0.929 . S
H432 C437 0.948 . S
H433 C438 0.930 . S
N434 Gd414 2.622 . S
N434 C435 1.369 . S
N434 C436 1.338 . S
C435 N434 1.369 . S
C435 C439 1.415 1_455 S
C435 C442 1.422 . S
C436 H427 0.929 . S
C436 N434 1.338 . S
C436 C438 1.378 . S
C437 H432 0.948 . S
C437 C438 1.328 1_655 S
C437 C439 1.417 . S
C438 H433 0.930 . S
C438 C436 1.378 . S
C438 C437 1.328 1_455 S
C439 C435 1.415 1_655 S
C439 C437 1.417 . S
C439 C469 1.437 . S
H440 C469 0.929 . S
N441 Gd414 2.570 . S
N441 C442 1.359 . S
N441 C445 1.343 . S
C442 C435 1.422 . S
C442 N441 1.359 . S
C442 C444 1.421 1_455 S
C443 C444 1.422 . S
C443 C446 1.321 . S
C443 H470 0.931 . S
C444 C442 1.421 1_655 S
C444 C443 1.422 . S
C444 C468 1.417 . S
C445 H422 0.931 . S
C445 N441 1.343 . S
C445 C446 1.390 1_455 S
C446 H424 0.930 . S
C446 C443 1.321 . S
C446 C445 1.390 1_655 S
O447 Gd415 2.386 1_455 S
O447 C459 1.265 . S
O448 Gd414 2.353 . S
O448 C459 1.242 . S
O449 Gd414 2.468 . S
O449 C467 1.263 . S
O450 Gd414 2.427 . S
O450 C467 1.252 . S
O451 Gd415 2.307 1_455 S
O451 C460 1.261 . S
O452 Gd414 2.388 . S
O452 C460 1.252 . S
O453 Gd414 2.386 1_655 S
O453 C471 1.265 . S
O454 Gd415 2.353 . S
O454 C471 1.242 . S
O455 Gd415 2.468 . S
O455 C479 1.263 . S
O456 Gd415 2.427 . S
O456 C479 1.252 . S
O457 Gd414 2.307 . S
O457 C472 1.261 . S
O458 Gd415 2.388 . S
O458 C472 1.252 1_655 S
C459 O447 1.265 . S
C459 O448 1.242 . S
C460 O451 1.261 . S
C460 O452 1.252 . S
C461 C464 1.394 . S
C461 C466 1.370 . S
C461 C467 1.500 . S
C462 C465 1.383 . S
C462 C466 1.395 . S
C463 C464 1.396 . S
C463 C465 1.365 . S
C463 H480 0.929 . S
C464 C461 1.394 . S
C464 C463 1.396 . S
C464 H481 0.930 . S
C465 C462 1.383 . S
C465 C463 1.365 . S
C465 H482 0.931 . S
C466 C461 1.370 . S
C466 C462 1.395 . S
C466 H483 0.930 . S
C467 Gd414 2.805 . S
C467 O449 1.263 . S
C467 O450 1.252 . S
C467 C461 1.500 . S
C468 H430 0.930 . S
C468 C444 1.417 . S
C468 C469 1.329 . S
C469 C439 1.437 . S
C469 H440 0.929 . S
C469 C468 1.329 . S
H470 C443 0.931 . S
C471 O453 1.265 . S
C471 O454 1.242 . S
C472 O457 1.261 . S
C472 O458 1.252 1_455 S
C473 C476 1.394 . S
C473 C478 1.370 . S
C473 C479 1.500 . S
C474 C477 1.383 . S
C474 C478 1.395 . S
C475 C476 1.396 . S
C475 C477 1.365 . S
C475 H484 0.929 . S
C476 C473 1.394 . S
C476 C475 1.396 . S
C476 H485 0.930 . S
C477 C474 1.383 . S
C477 C475 1.365 . S
C477 H486 0.931 . S
C478 C473 1.370 . S
C478 C474 1.395 . S
C478 H487 0.930 . S
C479 Gd415 2.805 . S
C479 O455 1.263 . S
C479 O456 1.252 . S
C479 C473 1.500 . S
H480 C463 0.929 . S
H481 C464 0.930 . S
H482 C465 0.931 . S
H483 C466 0.930 . S
H484 C475 0.929 . S
H485 C476 0.930 . S
H486 C477 0.931 . S
H487 C478 0.930 . S
C488 C489 1.349 . S
C488 C490 1.327 . S
C488 H513 0.950 . S
C489 C488 1.349 . S
C489 C505 1.349 . S
C490 C488 1.327 . S
C490 C509 1.429 . S
C490 H514 0.950 . S
C491 C508 1.574 . S
C491 C510 1.368 . S
C491 H515 0.949 . S
H492 C496 0.949 . S
C493 C494 1.349 . S
C493 C495 1.327 . S
C493 H516 0.950 . S
C494 C493 1.349 . S
C494 C506 1.349 . S
C495 C493 1.327 . S
C495 C511 1.429 . S
C495 H517 0.950 . S
C496 H492 0.949 . S
C496 C504 1.574 . S
C496 C512 1.368 . S
H497 C505 0.950 . S
H498 C503 0.950 . S
H499 C504 0.949 . S
H500 C506 0.950 . S
H501 C507 0.950 . S
H502 C508 0.949 . S
C503 H498 0.950 . S
C503 C505 1.327 . S
C503 C509 1.429 . S
C504 C496 1.574 . S
C504 H499 0.949 . S
C504 C510 1.368 . S
C505 C489 1.349 . S
C505 H497 0.950 . S
C505 C503 1.327 . S
C506 C494 1.349 . S
C506 H500 0.950 . S
C506 C507 1.327 . S
C507 H501 0.950 . S
C507 C506 1.327 . S
C507 C511 1.429 . S
C508 C491 1.574 . S
C508 H502 0.949 . S
C508 C512 1.368 . S
C509 C490 1.429 . S
C509 C503 1.429 . S
C509 C510 1.523 . S
C510 C491 1.368 . S
C510 C504 1.368 . S
C510 C509 1.523 . S
C511 C495 1.429 . S
C511 C507 1.429 . S
C511 C512 1.523 . S
C512 C496 1.368 . S
C512 C508 1.368 . S
C512 C511 1.523 . S
H513 C488 0.950 . S
H514 C490 0.950 . S
H515 C491 0.949 . S
H516 C493 0.950 . S
H517 C495 0.950 . S
C518 C519 1.349 . S
C518 C520 1.327 . S
C518 H543 0.950 . S
C519 C518 1.349 . S
C519 C535 1.349 . S
C520 C518 1.327 . S
C520 C539 1.429 . S
C520 H544 0.950 . S
C521 C538 1.574 . S
C521 C540 1.368 . S
C521 H545 0.949 . S
H522 C526 0.949 . S
C523 C524 1.349 . S
C523 C525 1.327 . S
C523 H546 0.950 . S
C524 C523 1.349 . S
C524 C536 1.349 . S
C525 C523 1.327 . S
C525 C541 1.429 . S
C525 H547 0.950 . S
C526 H522 0.949 . S
C526 C534 1.574 . S
C526 C542 1.368 . S
H527 C535 0.950 . S
H528 C533 0.950 . S
H529 C534 0.949 . S
H530 C536 0.950 . S
H531 C537 0.950 . S
H532 C538 0.949 . S
C533 H528 0.950 . S
C533 C535 1.327 . S
C533 C539 1.429 . S
C534 C526 1.574 . S
C534 H529 0.949 . S
C534 C540 1.368 . S
C535 C519 1.349 . S
C535 H527 0.950 . S
C535 C533 1.327 . S
C536 C524 1.349 . S
C536 H530 0.950 . S
C536 C537 1.327 . S
C537 H531 0.950 . S
C537 C536 1.327 . S
C537 C541 1.429 . S
C538 C521 1.574 . S
C538 H532 0.949 . S
C538 C542 1.368 . S
C539 C520 1.429 . S
C539 C533 1.429 . S
C539 C540 1.523 . S
C540 C521 1.368 . S
C540 C534 1.368 . S
C540 C539 1.523 . S
C541 C525 1.429 . S
C541 C537 1.429 . S
C541 C542 1.523 . S
C542 C526 1.368 . S
C542 C538 1.368 . S
C542 C541 1.523 . S
H543 C518 0.950 . S
H544 C520 0.950 . S
H545 C521 0.949 . S
H546 C523 0.950 . S
H547 C525 0.950 . S
C548 C549 1.349 . S
C548 C550 1.327 . S
C548 H573 0.950 . S
C549 C548 1.349 . S
C549 C565 1.349 . S
C550 C548 1.327 . S
C550 C569 1.429 . S
C550 H574 0.950 . S
C551 C568 1.574 . S
C551 C570 1.368 . S
C551 H575 0.949 . S
H552 C556 0.949 . S
C553 C554 1.349 . S
C553 C555 1.327 . S
C553 H576 0.950 . S
C554 C553 1.349 . S
C554 C566 1.349 . S
C555 C553 1.327 . S
C555 C571 1.429 . S
C555 H577 0.950 . S
C556 H552 0.949 . S
C556 C564 1.574 . S
C556 C572 1.368 . S
H557 C565 0.950 . S
H558 C563 0.950 . S
H559 C564 0.949 . S
H560 C566 0.950 . S
H561 C567 0.950 . S
H562 C568 0.949 . S
C563 H558 0.950 . S
C563 C565 1.327 . S
C563 C569 1.429 . S
C564 C556 1.574 . S
C564 H559 0.949 . S
C564 C570 1.368 . S
C565 C549 1.349 . S
C565 H557 0.950 . S
C565 C563 1.327 . S
C566 C554 1.349 . S
C566 H560 0.950 . S
C566 C567 1.327 . S
C567 H561 0.950 . S
C567 C566 1.327 . S
C567 C571 1.429 . S
C568 C551 1.574 . S
C568 H562 0.949 . S
C568 C572 1.368 . S
C569 C550 1.429 . S
C569 C563 1.429 . S
C569 C570 1.523 . S
C570 C551 1.368 . S
C570 C564 1.368 . S
C570 C569 1.523 . S
C571 C555 1.429 . S
C571 C567 1.429 . S
C571 C572 1.523 . S
C572 C556 1.368 . S
C572 C568 1.368 . S
C572 C571 1.523 . S
H573 C548 0.950 . S
H574 C550 0.950 . S
H575 C551 0.949 . S
H576 C553 0.950 . S
H577 C555 0.950 . S
C578 C579 1.349 . S
C578 C580 1.327 . S
C578 H603 0.950 . S
C579 C578 1.349 . S
C579 C595 1.349 . S
C580 C578 1.327 . S
C580 C599 1.429 . S
C580 H604 0.950 . S
C581 C598 1.574 . S
C581 C600 1.368 . S
C581 H605 0.983 . S
H582 C586 0.949 . S
C583 C584 1.358 . S
C583 C585 1.329 . S
C583 H606 0.939 1_455 S
C584 C583 1.358 . S
C584 C596 1.349 . S
C585 C583 1.329 . S
C585 C601 1.429 . S
C585 H607 0.950 1_455 S
C586 H582 0.949 . S
C586 C594 1.574 . S
C586 C602 1.368 . S
H587 C595 0.950 . S
H588 C593 0.950 . S
H589 C594 0.949 . S
H590 C596 0.950 . S
H591 C597 0.950 . S
H592 C598 0.949 1_655 S
C593 H588 0.950 . S
C593 C595 1.327 . S
C593 C599 1.429 . S
C594 C586 1.574 . S
C594 H589 0.949 . S
C594 C600 1.368 . S
C595 C579 1.349 . S
C595 H587 0.950 . S
C595 C593 1.327 . S
C596 C584 1.349 . S
C596 H590 0.950 . S
C596 C597 1.327 . S
C597 H591 0.950 . S
C597 C596 1.327 . S
C597 C601 1.429 . S
C598 C581 1.574 . S
C598 H592 0.949 1_455 S
C598 C602 1.368 . S
C599 C580 1.429 . S
C599 C593 1.429 . S
C599 C600 1.523 . S
C600 C581 1.368 . S
C600 C594 1.368 . S
C600 C599 1.523 . S
C601 C585 1.429 . S
C601 C597 1.429 . S
C601 C602 1.523 . S
C602 C586 1.368 . S
C602 C598 1.368 . S
C602 C601 1.523 . S
H603 C578 0.950 . S
H604 C580 0.950 . S
H605 C581 0.983 . S
H606 C583 0.939 1_655 S
H607 C585 0.950 1_655 S
C608 C609 1.349 . S
C608 C610 1.327 . S
C608 H633 0.950 . S
C609 C608 1.349 . S
C609 C625 1.349 . S
C610 C608 1.327 . S
C610 C629 1.429 . S
C610 H634 0.950 1_565 S
C611 C628 1.574 . S
C611 C630 1.368 . S
C611 H635 0.949 . S
H612 C616 0.949 . S
C613 C614 1.349 1_565 S
C613 C615 1.327 . S
C613 H636 0.950 . S
C614 C613 1.349 1_545 S
C614 C626 1.349 . S
C615 C613 1.327 . S
C615 C631 1.429 . S
C615 H637 0.950 . S
C616 H612 0.949 . S
C616 C624 1.574 1_556 S
C616 C632 1.368 1_545 S
H617 C625 0.950 . S
H618 C623 0.950 1_556 S
H619 C624 0.949 . S
H620 C626 0.950 . S
H621 C627 0.950 . S
H622 C628 0.949 . S
C623 H618 0.950 1_554 S
C623 C625 1.327 . S
C623 C629 1.429 . S
C624 C616 1.574 1_554 S
C624 H619 0.949 . S
C624 C630 1.368 1_544 S
C625 C609 1.349 . S
C625 H617 0.950 . S
C625 C623 1.327 . S
C626 C614 1.349 . S
C626 H620 0.950 . S
C626 C627 1.327 . S
C627 H621 0.950 . S
C627 C626 1.327 . S
C627 C631 1.429 1_545 S
C628 C611 1.574 . S
C628 H622 0.949 . S
C628 C632 1.368 . S
C629 C610 1.429 . S
C629 C623 1.429 . S
C629 C630 1.523 1_554 S
C630 C611 1.368 . S
C630 C624 1.368 1_566 S
C630 C629 1.523 1_556 S
C631 C615 1.429 . S
C631 C627 1.429 1_565 S
C631 C632 1.523 . S
C632 C616 1.368 1_565 S
C632 C628 1.368 . S
C632 C631 1.523 . S
H633 C608 0.950 . S
H634 C610 0.950 1_545 S
H635 C611 0.949 . S
H636 C613 0.950 . S
H637 C615 0.950 . S
C638 C639 1.349 . S
C638 C640 1.327 . S
C638 H663 0.950 . S
C639 C638 1.349 . S
C639 C655 1.349 . S
C640 C638 1.327 . S
C640 C659 1.429 . S
C640 H664 0.950 1_554 S
C641 C658 1.574 1_554 S
C641 C660 1.368 1_554 S
C641 H665 0.949 . S
H642 C646 0.949 . S
C643 C644 1.349 . S
C643 C645 1.327 . S
C643 H666 0.950 . S
C644 C643 1.349 . S
C644 C656 1.349 . S
C645 C643 1.327 . S
C645 C661 1.429 . S
C645 H667 0.950 . S
C646 H642 0.949 . S
C646 C654 1.574 . S
C646 C662 1.368 . S
H647 C655 0.950 . S
H648 C653 0.950 . S
H649 C654 0.949 . S
H650 C656 0.950 . S
H651 C657 0.950 . S
H652 C658 0.949 . S
C653 H648 0.950 . S
C653 C655 1.327 . S
C653 C659 1.429 . S
C654 C646 1.574 . S
C654 H649 0.949 . S
C654 C660 1.368 . S
C655 C639 1.349 . S
C655 H647 0.950 . S
C655 C653 1.327 . S
C656 C644 1.349 . S
C656 H650 0.950 . S
C656 C657 1.327 . S
C657 H651 0.950 . S
C657 C656 1.327 . S
C657 C661 1.429 . S
C658 C641 1.574 1_556 S
C658 H652 0.949 . S
C658 C662 1.368 . S
C659 C640 1.429 . S
C659 C653 1.429 . S
C659 C660 1.523 1_554 S
C660 C641 1.368 1_556 S
C660 C654 1.368 . S
C660 C659 1.523 1_556 S
C661 C645 1.429 . S
C661 C657 1.429 . S
C661 C662 1.523 . S
C662 C646 1.368 . S
C662 C658 1.368 . S
C662 C661 1.523 . S
H663 C638 0.950 . S
H664 C640 0.950 1_556 S
H665 C641 0.949 . S
H666 C643 0.950 . S
H667 C645 0.950 . S
C668 C669 1.349 . S
C668 C670 1.327 . S
C668 H693 0.950 . S
C669 C668 1.349 . S
C669 C685 1.349 . S
C670 C668 1.327 . S
C670 C689 1.429 . S
C670 H694 0.950 . S
C671 C688 1.574 . S
C671 C690 1.368 . S
C671 H695 0.949 . S
H672 C676 0.949 . S
C673 C674 1.349 . S
C673 C675 1.327 . S
C673 H696 0.950 . S
C674 C673 1.349 . S
C674 C686 1.349 . S
C675 C673 1.327 . S
C675 C691 1.429 . S
C675 H697 0.950 . S
C676 H672 0.949 . S
C676 C684 1.574 . S
C676 C692 1.368 . S
H677 C685 0.950 . S
H678 C683 0.950 . S
H679 C684 0.952 . S
H680 C686 0.950 . S
H681 C687 0.950 . S
H682 C688 0.949 . S
C683 H678 0.950 . S
C683 C685 1.327 . S
C683 C689 1.429 . S
C684 C676 1.574 . S
C684 H679 0.952 . S
C684 C690 1.368 . S
C685 C669 1.349 . S
C685 H677 0.950 . S
C685 C683 1.327 . S
C686 C674 1.349 . S
C686 H680 0.950 . S
C686 C687 1.327 . S
C687 H681 0.950 . S
C687 C686 1.327 . S
C687 C691 1.429 . S
C688 C671 1.574 . S
C688 H682 0.949 . S
C688 C692 1.368 . S
C689 C670 1.429 . S
C689 C683 1.429 . S
C689 C690 1.523 1_554 S
C690 C671 1.368 . S
C690 C684 1.368 . S
C690 C689 1.523 1_556 S
C691 C675 1.429 . S
C691 C687 1.429 . S
C691 C692 1.523 . S
C692 C676 1.368 . S
C692 C688 1.368 . S
C692 C691 1.523 . S
H693 C668 0.950 . S
H694 C670 0.950 . S
H695 C671 0.949 . S
H696 C673 0.950 . S
H697 C675 0.950 . S
C698 C699 1.349 . S
C698 C700 1.327 . S
C698 H723 0.950 . S
C699 C698 1.349 . S
C699 C715 1.349 . S
C700 C698 1.327 . S
C700 C719 1.429 . S
C700 H724 0.977 1_554 S
C701 C718 1.574 . S
C701 C720 1.368 . S
C701 H725 0.949 1_556 S
H702 C706 0.954 . S
C703 C704 1.349 . S
C703 C705 1.327 . S
C703 H726 0.950 . S
C704 C703 1.349 . S
C704 C716 1.349 1_655 S
C705 C703 1.327 . S
C705 C721 1.429 . S
C705 H727 0.950 . S
C706 H702 0.954 . S
C706 C714 1.573 1_455 S
C706 C722 1.364 1_455 S
H707 C715 0.950 . S
H708 C713 0.950 . S
H709 C714 0.949 1_455 S
H710 C716 0.950 . S
H711 C717 0.950 . S
H712 C718 0.949 . S
C713 H708 0.950 . S
C713 C715 1.327 . S
C713 C719 1.429 . S
C714 C706 1.573 1_655 S
C714 H709 0.949 1_655 S
C714 C720 1.368 . S
C715 C699 1.349 . S
C715 H707 0.950 . S
C715 C713 1.327 . S
C716 C704 1.349 1_455 S
C716 H710 0.950 . S
C716 C717 1.327 . S
C717 H711 0.950 . S
C717 C716 1.327 . S
C717 C721 1.429 1_455 S
C718 C701 1.574 . S
C718 H712 0.949 . S
C718 C722 1.368 . S
C719 C700 1.429 . S
C719 C713 1.429 . S
C719 C720 1.523 1_554 S
C720 C701 1.368 . S
C720 C714 1.368 . S
C720 C719 1.523 1_556 S
C721 C705 1.429 . S
C721 C717 1.429 1_655 S
C721 C722 1.523 . S
C722 C706 1.364 1_655 S
C722 C718 1.368 . S
C722 C721 1.523 . S
H723 C698 0.950 . S
H724 C700 0.977 1_556 S
H725 C701 0.949 1_554 S
H726 C703 0.950 . S
H727 C705 0.950 . S
C728 C729 1.349 . S
C728 C730 1.327 . S
C728 H753 0.950 . S
C729 C728 1.349 . S
C729 C745 1.349 . S
C730 C728 1.327 . S
C730 C749 1.429 . S
C730 H754 0.950 . S
C731 C748 1.574 . S
C731 C750 1.368 . S
C731 H755 0.949 1_455 S
H732 C736 0.949 . S
C733 C734 1.349 1_655 S
C733 C735 1.327 . S
C733 H756 0.950 . S
C734 C733 1.349 1_455 S
C734 C746 1.349 . S
C735 C733 1.327 . S
C735 C751 1.429 1_655 S
C735 H757 0.950 . S
C736 H732 0.949 . S
C736 C744 1.574 . S
C736 C752 1.368 . S
H737 C745 0.950 . S
H738 C743 0.950 . S
H739 C744 0.949 . S
H740 C746 0.950 . S
H741 C747 0.950 . S
H742 C748 0.949 1_655 S
C743 H738 0.950 . S
C743 C745 1.327 . S
C743 C749 1.429 . S
C744 C736 1.574 . S
C744 H739 0.949 . S
C744 C750 1.368 . S
C745 C729 1.349 . S
C745 H737 0.950 . S
C745 C743 1.327 . S
C746 C734 1.349 . S
C746 H740 0.950 . S
C746 C747 1.327 . S
C747 H741 0.950 . S
C747 C746 1.327 . S
C747 C751 1.429 . S
C748 C731 1.574 . S
C748 H742 0.949 1_455 S
C748 C752 1.368 . S
C749 C730 1.429 . S
C749 C743 1.429 . S
C749 C750 1.523 . S
C750 C731 1.368 . S
C750 C744 1.368 . S
C750 C749 1.523 . S
C751 C735 1.429 1_455 S
C751 C747 1.429 . S
C751 C752 1.523 . S
C752 C736 1.368 . S
C752 C748 1.368 . S
C752 C751 1.523 . S
H753 C728 0.950 . S
H754 C730 0.950 . S
H755 C731 0.949 1_655 S
H756 C733 0.950 . S
H757 C735 0.950 . S
C758 C759 1.349 . S
C758 C760 1.327 . S
C758 H783 0.950 . S
C759 C758 1.349 . S
C759 C775 1.349 . S
C760 C758 1.327 . S
C760 C779 1.429 . S
C760 H784 0.950 . S
C761 C778 1.574 . S
C761 C780 1.368 . S
C761 H785 0.949 . S
H762 C766 0.949 . S
C763 C764 1.349 . S
C763 C765 1.327 . S
C763 H786 0.950 1_545 S
C764 C763 1.349 . S
C764 C776 1.349 . S
C765 C763 1.327 . S
C765 C781 1.429 . S
C765 H787 0.950 . S
C766 H762 0.949 . S
C766 C774 1.574 . S
C766 C782 1.368 . S
H767 C775 0.950 . S
H768 C773 0.950 . S
H769 C774 0.949 . S
H770 C776 0.950 . S
H771 C777 0.950 . S
H772 C778 0.949 . S
C773 H768 0.950 . S
C773 C775 1.327 . S
C773 C779 1.429 . S
C774 C766 1.574 . S
C774 H769 0.949 . S
C774 C780 1.368 . S
C775 C759 1.349 . S
C775 H767 0.950 . S
C775 C773 1.327 . S
C776 C764 1.349 . S
C776 H770 0.950 . S
C776 C777 1.327 . S
C777 H771 0.950 . S
C777 C776 1.327 . S
C777 C781 1.429 . S
C778 C761 1.574 . S
C778 H772 0.949 . S
C778 C782 1.368 . S
C779 C760 1.429 . S
C779 C773 1.429 . S
C779 C780 1.523 . S
C780 C761 1.368 . S
C780 C774 1.368 . S
C780 C779 1.523 . S
C781 C765 1.429 . S
C781 C777 1.429 . S
C781 C782 1.523 . S
C782 C766 1.368 . S
C782 C778 1.368 . S
C782 C781 1.523 . S
H783 C758 0.950 . S
H784 C760 0.950 . S
H785 C761 0.949 . S
H786 C763 0.950 1_565 S
H787 C765 0.950 . S
C788 C789 1.349 . S
C788 C790 1.327 . S
C788 H813 0.950 . S
C789 C788 1.349 . S
C789 C805 1.349 . S
C790 C788 1.327 . S
C790 C809 1.429 . S
C790 H814 0.950 . S
C791 C808 1.574 . S
C791 C810 1.368 . S
C791 H815 0.949 . S
H792 C796 0.949 . S
C793 C794 1.349 . S
C793 C795 1.327 . S
C793 H816 0.950 . S
C794 C793 1.349 . S
C794 C806 1.349 . S
C795 C793 1.327 . S
C795 C811 1.429 . S
C795 H817 0.950 . S
C796 H792 0.949 . S
C796 C804 1.574 . S
C796 C812 1.368 . S
H797 C805 0.950 . S
H798 C803 0.950 . S
H799 C804 0.949 . S
H800 C806 0.950 . S
H801 C807 0.950 . S
H802 C808 0.949 . S
C803 H798 0.950 . S
C803 C805 1.327 . S
C803 C809 1.429 . S
C804 C796 1.574 . S
C804 H799 0.949 . S
C804 C810 1.368 . S
C805 C789 1.349 . S
C805 H797 0.950 . S
C805 C803 1.327 . S
C806 C794 1.349 . S
C806 H800 0.950 . S
C806 C807 1.327 . S
C807 H801 0.950 . S
C807 C806 1.327 . S
C807 C811 1.429 . S
C808 C791 1.574 . S
C808 H802 0.949 . S
C808 C812 1.368 . S
C809 C790 1.429 . S
C809 C803 1.429 . S
C809 C810 1.523 . S
C810 C791 1.368 . S
C810 C804 1.368 . S
C810 C809 1.523 . S
C811 C795 1.429 . S
C811 C807 1.429 . S
C811 C812 1.523 . S
C812 C796 1.368 . S
C812 C808 1.368 . S
C812 C811 1.523 . S
H813 C788 0.950 . S
H814 C790 0.950 . S
H815 C791 0.949 . S
H816 C793 0.950 . S
H817 C795 0.950 . S
C818 C819 1.349 . S
C818 C820 1.327 . S
C818 H843 0.950 . S
C819 C818 1.349 . S
C819 C835 1.349 . S
C820 C818 1.327 . S
C820 C839 1.429 . S
C820 H844 0.950 . S
C821 C838 1.574 . S
C821 C840 1.368 . S
C821 H845 0.949 . S
H822 C826 0.949 . S
C823 C824 1.349 . S
C823 C825 1.327 . S
C823 H846 0.950 . S
C824 C823 1.349 . S
C824 C836 1.349 . S
C825 C823 1.327 . S
C825 C841 1.429 . S
C825 H847 0.950 . S
C826 H822 0.949 . S
C826 C834 1.574 . S
C826 C842 1.368 . S
H827 C835 0.950 . S
H828 C833 0.950 . S
H829 C834 0.949 . S
H830 C836 0.950 . S
H831 C837 0.950 . S
H832 C838 0.949 . S
C833 H828 0.950 . S
C833 C835 1.327 . S
C833 C839 1.429 . S
C834 C826 1.574 . S
C834 H829 0.949 . S
C834 C840 1.368 . S
C835 C819 1.349 . S
C835 H827 0.950 . S
C835 C833 1.327 . S
C836 C824 1.349 . S
C836 H830 0.950 . S
C836 C837 1.327 . S
C837 H831 0.950 . S
C837 C836 1.327 . S
C837 C841 1.429 . S
C838 C821 1.574 . S
C838 H832 0.949 . S
C838 C842 1.368 . S
C839 C820 1.429 . S
C839 C833 1.429 . S
C839 C840 1.523 . S
C840 C821 1.368 . S
C840 C834 1.368 . S
C840 C839 1.523 . S
C841 C825 1.429 . S
C841 C837 1.429 . S
C841 C842 1.523 . S
C842 C826 1.368 . S
C842 C838 1.368 . S
C842 C841 1.523 . S
H843 C818 0.950 . S
H844 C820 0.950 . S
H845 C821 0.949 . S
H846 C823 0.950 . S
H847 C825 0.950 . S
C848 C849 1.349 . S
C848 C850 1.327 . S
C848 H873 0.950 . S
C849 C848 1.349 . S
C849 C865 1.349 . S
C850 C848 1.327 . S
C850 C869 1.429 . S
C850 H874 0.950 . S
C851 C868 1.573 . S
C851 C870 1.368 . S
C851 H875 0.945 1_655 S
H852 C856 0.949 . S
C853 C854 1.349 . S
C853 C855 1.327 . S
C853 H876 0.950 . S
C854 C853 1.349 . S
C854 C866 1.349 1_455 S
C855 C853 1.327 . S
C855 C871 1.429 1_455 S
C855 H877 0.950 1_556 S
C856 H852 0.949 . S
C856 C864 1.574 . S
C856 C872 1.368 . S
H857 C865 0.950 . S
H858 C863 0.950 . S
H859 C864 0.949 . S
H860 C866 0.950 . S
H861 C867 0.950 . S
H862 C868 0.953 1_455 S
C863 H858 0.950 . S
C863 C865 1.327 . S
C863 C869 1.429 . S
C864 C856 1.574 . S
C864 H859 0.949 . S
C864 C870 1.368 1_556 S
C865 C849 1.349 . S
C865 H857 0.950 . S
C865 C863 1.327 . S
C866 C854 1.349 1_655 S
C866 H860 0.950 . S
C866 C867 1.327 . S
C867 H861 0.950 . S
C867 C866 1.327 . S
C867 C871 1.429 . S
C868 C851 1.573 . S
C868 H862 0.953 1_655 S
C868 C872 1.366 1_554 S
C869 C850 1.429 . S
C869 C863 1.429 . S
C869 C870 1.523 . S
C870 C851 1.368 . S
C870 C864 1.368 1_554 S
C870 C869 1.523 . S
C871 C855 1.429 1_655 S
C871 C867 1.429 . S
C871 C872 1.523 . S
C872 C856 1.368 . S
C872 C868 1.366 1_556 S
C872 C871 1.523 . S
H873 C848 0.950 . S
H874 C850 0.950 . S
H875 C851 0.945 1_455 S
H876 C853 0.950 . S
H877 C855 0.950 1_554 S
C878 C879 1.349 . S
C878 C880 1.327 . S
C878 H903 0.950 . S
C879 C878 1.349 . S
C879 C895 1.349 . S
C880 C878 1.327 . S
C880 C899 1.429 . S
C880 H904 0.950 . S
C881 C898 1.574 1_554 S
C881 C900 1.368 1_545 S
C881 H905 0.949 . S
H882 C886 0.949 . S
C883 C884 1.349 . S
C883 C885 1.327 . S
C883 H906 0.950 . S
C884 C883 1.349 . S
C884 C896 1.349 1_545 S
C885 C883 1.327 . S
C885 C901 1.393 1_545 S
C885 H907 0.950 . S
C886 H882 0.949 . S
C886 C894 1.574 . S
C886 C902 1.368 1_554 S
H887 C895 0.950 1_545 S
H888 C893 0.950 1_545 S
H889 C894 0.949 . S
H890 C896 0.950 . S
H891 C897 0.950 . S
H892 C898 0.949 . S
C893 H888 0.950 1_565 S
C893 C895 1.327 . S
C893 C899 1.429 . S
C894 C886 1.574 . S
C894 H889 0.949 . S
C894 C900 1.368 . S
C895 C879 1.349 . S
C895 H887 0.950 1_565 S
C895 C893 1.327 . S
C896 C884 1.349 1_565 S
C896 H890 0.950 . S
C896 C897 1.327 . S
C897 H891 0.950 . S
C897 C896 1.327 . S
C897 C901 1.456 . S
C898 C881 1.574 1_556 S
C898 H892 0.949 . S
C898 C902 1.368 1_545 S
C899 C880 1.429 . S
C899 C893 1.429 . S
C899 C900 1.523 . S
C900 C881 1.368 1_565 S
C900 C894 1.368 . S
C900 C899 1.523 . S
C901 C885 1.393 1_565 S
C901 C897 1.456 . S
C901 C902 1.532 . S
C902 C886 1.368 1_556 S
C902 C898 1.368 1_565 S
C902 C901 1.532 . S
H903 C878 0.950 . S
H904 C880 0.950 . S
H905 C881 0.949 . S
H906 C883 0.950 . S
H907 C885 0.950 . S
C908 C909 1.349 . S
C908 C910 1.327 . S
C908 H933 0.950 . S
C909 C908 1.349 . S
C909 C925 1.349 . S
C910 C908 1.327 . S
C910 C929 1.429 . S
C910 H934 0.950 . S
C911 C928 1.574 . S
C911 C930 1.368 . S
C911 H935 0.949 . S
H912 C916 0.949 . S
C913 C914 1.349 . S
C913 C915 1.327 . S
C913 H936 0.950 . S
C914 C913 1.349 . S
C914 C926 1.349 . S
C915 C913 1.327 . S
C915 C931 1.429 . S
C915 H937 0.950 1_556 S
C916 H912 0.949 . S
C916 C924 1.574 1_556 S
C916 C932 1.368 . S
H917 C925 0.950 . S
H918 C923 0.950 . S
H919 C924 0.949 1_556 S
H920 C926 0.950 . S
H921 C927 0.950 . S
H922 C928 0.949 . S
C923 H918 0.950 . S
C923 C925 1.327 . S
C923 C929 1.429 . S
C924 C916 1.574 1_554 S
C924 H919 0.949 1_554 S
C924 C930 1.368 . S
C925 C909 1.349 . S
C925 H917 0.950 . S
C925 C923 1.327 . S
C926 C914 1.349 . S
C926 H920 0.950 . S
C926 C927 1.327 . S
C927 H921 0.950 . S
C927 C926 1.327 . S
C927 C931 1.429 . S
C928 C911 1.574 . S
C928 H922 0.949 . S
C928 C932 1.368 1_554 S
C929 C910 1.429 . S
C929 C923 1.429 . S
C929 C930 1.523 . S
C930 C911 1.368 . S
C930 C924 1.368 . S
C930 C929 1.523 . S
C931 C915 1.429 . S
C931 C927 1.429 . S
C931 C932 1.523 . S
C932 C916 1.368 . S
C932 C928 1.368 1_556 S
C932 C931 1.523 . S
H933 C908 0.950 . S
H934 C910 0.950 . S
H935 C911 0.949 . S
H936 C913 0.950 . S
H937 C915 0.950 1_554 S
C938 C939 1.349 . S
C938 C940 1.327 . S
C938 H963 0.950 . S
C939 C938 1.349 . S
C939 C955 1.349 . S
C940 C938 1.327 . S
C940 C959 1.429 . S
C940 H964 0.950 . S
C941 C958 1.574 . S
C941 C960 1.368 . S
C941 H965 0.949 . S
H942 C946 0.949 . S
C943 C944 1.349 . S
C943 C945 1.327 . S
C943 H966 0.950 . S
C944 C943 1.349 . S
C944 C956 1.349 . S
C945 C943 1.327 . S
C945 C961 1.429 . S
C945 H967 0.950 . S
C946 H942 0.949 . S
C946 C954 1.574 1_556 S
C946 C962 1.368 . S
H947 C955 0.950 . S
H948 C953 0.950 . S
H949 C954 0.949 . S
H950 C956 0.950 . S
H951 C957 0.950 . S
H952 C958 0.949 . S
C953 H948 0.950 . S
C953 C955 1.327 . S
C953 C959 1.429 . S
C954 C946 1.574 1_554 S
C954 H949 0.949 . S
C954 C960 1.368 . S
C955 C939 1.349 . S
C955 H947 0.950 . S
C955 C953 1.327 . S
C956 C944 1.349 . S
C956 H950 0.950 . S
C956 C957 1.327 . S
C957 H951 0.950 . S
C957 C956 1.327 . S
C957 C961 1.429 . S
C958 C941 1.574 . S
C958 H952 0.949 . S
C958 C962 1.368 1_554 S
C959 C940 1.429 . S
C959 C953 1.429 . S
C959 C960 1.523 . S
C960 C941 1.368 . S
C960 C954 1.368 . S
C960 C959 1.523 . S
C961 C945 1.429 . S
C961 C957 1.429 . S
C961 C962 1.523 . S
C962 C946 1.368 . S
C962 C958 1.368 1_556 S
C962 C961 1.523 . S
H963 C938 0.950 . S
H964 C940 0.950 . S
H965 C941 0.949 . S
H966 C943 0.950 . S
H967 C945 0.950 . S
C968 C969 1.349 . S
C968 C970 1.327 . S
C968 H993 0.950 . S
C969 C968 1.349 . S
C969 C985 1.349 . S
C970 C968 1.327 . S
C970 C989 1.429 . S
C970 H994 0.950 . S
C971 C988 1.574 . S
C971 C990 1.368 . S
C971 H995 0.949 . S
H972 C976 0.949 . S
C973 C974 1.349 . S
C973 C975 1.327 . S
C973 H996 0.950 . S
C974 C973 1.349 . S
C974 C986 1.349 . S
C975 C973 1.327 . S
C975 C991 1.429 . S
C975 H997 0.950 . S
C976 H972 0.949 . S
C976 C984 1.574 . S
C976 C992 1.368 . S
H977 C985 0.950 . S
H978 C983 0.950 . S
H979 C984 0.949 . S
H980 C986 0.922 1_655 S
H981 C987 0.950 . S
H982 C988 0.949 . S
C983 H978 0.950 . S
C983 C985 1.327 . S
C983 C989 1.429 . S
C984 C976 1.574 . S
C984 H979 0.949 . S
C984 C990 1.368 . S
C985 C969 1.349 . S
C985 H977 0.950 . S
C985 C983 1.327 . S
C986 C974 1.349 . S
C986 H980 0.922 1_455 S
C986 C987 1.327 . S
C987 H981 0.950 . S
C987 C986 1.327 . S
C987 C991 1.429 . S
C988 C971 1.574 . S
C988 H982 0.949 . S
C988 C992 1.368 . S
C989 C970 1.429 . S
C989 C983 1.429 . S
C989 C990 1.523 . S
C990 C971 1.368 . S
C990 C984 1.368 . S
C990 C989 1.523 . S
C991 C975 1.429 . S
C991 C987 1.429 . S
C991 C992 1.523 . S
C992 C976 1.368 . S
C992 C988 1.368 . S
C992 C991 1.523 . S
H993 C968 0.950 . S
H994 C970 0.950 . S
H995 C971 0.949 . S
H996 C973 0.950 . S
H997 C975 0.950 . S
C998 C999 1.349 . S
C998 C1000 1.327 . S
C998 H1023 0.950 . S
C999 C998 1.349 . S
C999 C1015 1.349 . S
C1000 C998 1.327 . S
C1000 C1019 1.429 . S
C1000 H1024 0.950 . S
C1001 C1018 1.574 . S
C1001 C1020 1.368 . S
C1001 H1025 0.949 . S
H1002 C1006 0.949 . S
C1003 C1004 1.349 . S
C1003 C1005 1.327 . S
C1003 H1026 0.950 . S
C1004 C1003 1.349 . S
C1004 C1016 1.349 . S
C1005 C1003 1.327 . S
C1005 C1021 1.429 . S
C1005 H1027 0.950 . S
C1006 H1002 0.949 . S
C1006 C1014 1.574 . S
C1006 C1022 1.368 . S
H1007 C1015 0.950 . S
H1008 C1013 0.950 . S
H1009 C1014 0.949 . S
H1010 C1016 0.950 . S
H1011 C1017 0.950 . S
H1012 C1018 0.949 . S
C1013 H1008 0.950 . S
C1013 C1015 1.327 . S
C1013 C1019 1.429 . S
C1014 C1006 1.574 . S
C1014 H1009 0.949 . S
C1014 C1020 1.368 . S
C1015 C999 1.349 . S
C1015 H1007 0.950 . S
C1015 C1013 1.327 . S
C1016 C1004 1.349 . S
C1016 H1010 0.950 . S
C1016 C1017 1.327 . S
C1017 H1011 0.950 . S
C1017 C1016 1.327 . S
C1017 C1021 1.429 . S
C1018 C1001 1.574 . S
C1018 H1012 0.949 . S
C1018 C1022 1.368 . S
C1019 C1000 1.429 . S
C1019 C1013 1.429 . S
C1019 C1020 1.523 . S
C1020 C1001 1.368 . S
C1020 C1014 1.368 . S
C1020 C1019 1.523 . S
C1021 C1005 1.429 . S
C1021 C1017 1.429 . S
C1021 C1022 1.523 . S
C1022 C1006 1.368 . S
C1022 C1018 1.368 . S
C1022 C1021 1.523 . S
H1023 C998 0.950 . S
H1024 C1000 0.950 . S
H1025 C1001 0.949 . S
H1026 C1003 0.950 . S
H1027 C1005 0.950 . S
C1028 C1029 1.349 . S
C1028 C1030 1.327 . S
C1028 H1053 0.950 . S
C1029 C1028 1.349 . S
C1029 C1045 1.349 . S
C1030 C1028 1.327 . S
C1030 C1049 1.429 . S
C1030 H1054 0.950 . S
C1031 C1048 1.574 . S
C1031 C1050 1.368 . S
C1031 H1055 0.949 . S
H1032 C1036 0.949 . S
C1033 C1034 1.349 . S
C1033 C1035 1.327 . S
C1033 H1056 0.950 . S
C1034 C1033 1.349 . S
C1034 C1046 1.349 . S
C1035 C1033 1.327 . S
C1035 C1051 1.429 . S
C1035 H1057 0.950 . S
C1036 H1032 0.949 . S
C1036 C1044 1.574 . S
C1036 C1052 1.368 . S
H1037 C1045 0.950 . S
H1038 C1043 0.950 . S
H1039 C1044 0.949 . S
H1040 C1046 0.950 . S
H1041 C1047 0.950 . S
H1042 C1048 0.949 . S
C1043 H1038 0.950 . S
C1043 C1045 1.327 . S
C1043 C1049 1.429 . S
C1044 C1036 1.574 . S
C1044 H1039 0.949 . S
C1044 C1050 1.368 . S
C1045 C1029 1.349 . S
C1045 H1037 0.950 . S
C1045 C1043 1.327 . S
C1046 C1034 1.349 . S
C1046 H1040 0.950 . S
C1046 C1047 1.327 . S
C1047 H1041 0.950 . S
C1047 C1046 1.327 . S
C1047 C1051 1.429 . S
C1048 C1031 1.574 . S
C1048 H1042 0.949 . S
C1048 C1052 1.368 . S
C1049 C1030 1.429 . S
C1049 C1043 1.429 . S
C1049 C1050 1.523 . S
C1050 C1031 1.368 . S
C1050 C1044 1.368 . S
C1050 C1049 1.523 . S
C1051 C1035 1.429 . S
C1051 C1047 1.429 . S
C1051 C1052 1.523 . S
C1052 C1036 1.368 . S
C1052 C1048 1.368 . S
C1052 C1051 1.523 . S
H1053 C1028 0.950 . S
H1054 C1030 0.950 . S
H1055 C1031 0.949 . S
H1056 C1033 0.950 . S
H1057 C1035 0.950 . S
C1058 C1059 1.349 . S
C1058 C1060 1.327 . S
C1058 H1083 0.950 . S
C1059 C1058 1.349 . S
C1059 C1075 1.349 . S
C1060 C1058 1.327 . S
C1060 C1079 1.429 . S
C1060 H1084 0.950 . S
C1061 C1078 1.574 . S
C1061 C1080 1.368 . S
C1061 H1085 0.949 . S
H1062 C1066 0.949 . S
C1063 C1064 1.349 . S
C1063 C1065 1.327 . S
C1063 H1086 0.950 . S
C1064 C1063 1.349 . S
C1064 C1076 1.349 . S
C1065 C1063 1.327 . S
C1065 C1081 1.429 . S
C1065 H1087 0.950 . S
C1066 H1062 0.949 . S
C1066 C1074 1.574 . S
C1066 C1082 1.368 . S
H1067 C1075 0.950 . S
H1068 C1073 0.950 . S
H1069 C1074 0.949 . S
H1070 C1076 0.950 . S
H1071 C1077 0.950 . S
H1072 C1078 0.949 . S
C1073 H1068 0.950 . S
C1073 C1075 1.327 . S
C1073 C1079 1.429 . S
C1074 C1066 1.574 . S
C1074 H1069 0.949 . S
C1074 C1080 1.368 . S
C1075 C1059 1.349 . S
C1075 H1067 0.950 . S
C1075 C1073 1.327 . S
C1076 C1064 1.349 . S
C1076 H1070 0.950 . S
C1076 C1077 1.327 . S
C1077 H1071 0.950 . S
C1077 C1076 1.327 . S
C1077 C1081 1.429 . S
C1078 C1061 1.574 . S
C1078 H1072 0.949 . S
C1078 C1082 1.368 . S
C1079 C1060 1.429 . S
C1079 C1073 1.429 . S
C1079 C1080 1.523 . S
C1080 C1061 1.368 . S
C1080 C1074 1.368 . S
C1080 C1079 1.523 . S
C1081 C1065 1.429 . S
C1081 C1077 1.429 . S
C1081 C1082 1.523 . S
C1082 C1066 1.368 . S
C1082 C1078 1.368 . S
C1082 C1081 1.523 . S
H1083 C1058 0.950 . S
H1084 C1060 0.950 . S
H1085 C1061 0.949 . S
H1086 C1063 0.950 . S
H1087 C1065 0.950 . S
C1088 C1089 1.349 . S
C1088 C1090 1.327 . S
C1088 H1113 0.950 . S
C1089 C1088 1.349 . S
C1089 C1105 1.349 . S
C1090 C1088 1.327 . S
C1090 C1109 1.429 . S
C1090 H1114 0.950 . S
C1091 C1108 1.574 . S
C1091 C1110 1.368 . S
C1091 H1115 0.949 . S
H1092 C1096 0.949 . S
C1093 C1094 1.349 . S
C1093 C1095 1.327 . S
C1093 H1116 0.950 . S
C1094 C1093 1.349 . S
C1094 C1106 1.349 . S
C1095 C1093 1.327 . S
C1095 C1111 1.429 . S
C1095 H1117 0.950 . S
C1096 H1092 0.949 . S
C1096 C1104 1.574 . S
C1096 C1112 1.368 . S
H1097 C1105 0.950 . S
H1098 C1103 0.950 . S
H1099 C1104 0.949 . S
H1100 C1106 0.950 . S
H1101 C1107 0.950 . S
H1102 C1108 0.949 . S
C1103 H1098 0.950 . S
C1103 C1105 1.327 . S
C1103 C1109 1.429 . S
C1104 C1096 1.574 . S
C1104 H1099 0.949 . S
C1104 C1110 1.368 . S
C1105 C1089 1.349 . S
C1105 H1097 0.950 . S
C1105 C1103 1.327 . S
C1106 C1094 1.349 . S
C1106 H1100 0.950 . S
C1106 C1107 1.327 . S
C1107 H1101 0.950 . S
C1107 C1106 1.327 . S
C1107 C1111 1.429 . S
C1108 C1091 1.574 . S
C1108 H1102 0.949 . S
C1108 C1112 1.368 . S
C1109 C1090 1.429 . S
C1109 C1103 1.429 . S
C1109 C1110 1.523 . S
C1110 C1091 1.368 . S
C1110 C1104 1.368 . S
C1110 C1109 1.523 . S
C1111 C1095 1.429 . S
C1111 C1107 1.429 . S
C1111 C1112 1.523 . S
C1112 C1096 1.368 . S
C1112 C1108 1.368 . S
C1112 C1111 1.523 . S
H1113 C1088 0.950 . S
H1114 C1090 0.950 . S
H1115 C1091 0.949 . S
H1116 C1093 0.950 . S
H1117 C1095 0.950 . S
C1118 C1119 1.349 . S
C1118 C1120 1.327 . S
C1118 H1143 0.950 . S
C1119 C1118 1.349 . S
C1119 C1135 1.349 . S
C1120 C1118 1.327 . S
C1120 C1139 1.429 . S
C1120 H1144 0.950 . S
C1121 C1138 1.574 . S
C1121 C1140 1.368 . S
C1121 H1145 0.949 . S
H1122 C1126 0.949 1_545 S
C1123 C1124 1.351 1_565 S
C1123 C1125 1.327 . S
C1123 H1146 0.950 . S
C1124 C1123 1.351 1_545 S
C1124 C1136 1.348 . S
C1125 C1123 1.327 . S
C1125 C1141 1.429 . S
C1125 H1147 0.950 . S
C1126 H1122 0.949 1_565 S
C1126 C1134 1.574 . S
C1126 C1142 1.368 . S
H1127 C1135 0.950 . S
H1128 C1133 0.950 . S
H1129 C1134 0.949 . S
H1130 C1136 0.950 . S
H1131 C1137 0.950 . S
H1132 C1138 0.949 . S
C1133 H1128 0.950 . S
C1133 C1135 1.327 . S
C1133 C1139 1.429 . S
C1134 C1126 1.574 . S
C1134 H1129 0.949 . S
C1134 C1140 1.368 . S
C1135 C1119 1.349 . S
C1135 H1127 0.950 . S
C1135 C1133 1.327 . S
C1136 C1124 1.348 . S
C1136 H1130 0.950 . S
C1136 C1137 1.327 . S
C1137 H1131 0.950 . S
C1137 C1136 1.327 . S
C1137 C1141 1.429 1_545 S
C1138 C1121 1.574 . S
C1138 H1132 0.949 . S
C1138 C1142 1.368 . S
C1139 C1120 1.429 . S
C1139 C1133 1.429 . S
C1139 C1140 1.523 . S
C1140 C1121 1.368 . S
C1140 C1134 1.368 . S
C1140 C1139 1.523 . S
C1141 C1125 1.429 . S
C1141 C1137 1.429 1_565 S
C1141 C1142 1.523 . S
C1142 C1126 1.368 . S
C1142 C1138 1.368 . S
C1142 C1141 1.523 . S
H1143 C1118 0.950 . S
H1144 C1120 0.950 . S
H1145 C1121 0.949 . S
H1146 C1123 0.950 . S
H1147 C1125 0.950 . S
C1148 C1149 1.349 . S
C1148 C1150 1.327 . S
C1148 H1173 0.950 . S
C1149 C1148 1.349 . S
C1149 C1165 1.349 . S
C1150 C1148 1.327 . S
C1150 C1169 1.429 . S
C1150 H1174 0.950 . S
C1151 C1168 1.574 . S
C1151 C1170 1.368 . S
C1151 H1175 0.949 . S
H1152 C1156 0.949 . S
C1153 C1154 1.349 . S
C1153 C1155 1.327 . S
C1153 H1176 0.950 . S
C1154 C1153 1.349 . S
C1154 C1166 1.349 . S
C1155 C1153 1.327 . S
C1155 C1171 1.429 . S
C1155 H1177 0.950 . S
C1156 H1152 0.949 . S
C1156 C1164 1.574 . S
C1156 C1172 1.368 . S
H1157 C1165 0.950 . S
H1158 C1163 0.950 . S
H1159 C1164 0.949 . S
H1160 C1166 0.950 . S
H1161 C1167 0.950 . S
H1162 C1168 0.949 . S
C1163 H1158 0.950 . S
C1163 C1165 1.327 . S
C1163 C1169 1.429 . S
C1164 C1156 1.574 . S
C1164 H1159 0.949 . S
C1164 C1170 1.368 . S
C1165 C1149 1.349 . S
C1165 H1157 0.950 . S
C1165 C1163 1.327 . S
C1166 C1154 1.349 . S
C1166 H1160 0.950 . S
C1166 C1167 1.327 . S
C1167 H1161 0.950 . S
C1167 C1166 1.327 . S
C1167 C1171 1.429 . S
C1168 C1151 1.574 . S
C1168 H1162 0.949 . S
C1168 C1172 1.368 . S
C1169 C1150 1.429 . S
C1169 C1163 1.429 . S
C1169 C1170 1.523 . S
C1170 C1151 1.368 . S
C1170 C1164 1.368 . S
C1170 C1169 1.523 . S
C1171 C1155 1.429 . S
C1171 C1167 1.429 . S
C1171 C1172 1.523 . S
C1172 C1156 1.368 . S
C1172 C1168 1.368 . S
C1172 C1171 1.523 . S
H1173 C1148 0.950 . S
H1174 C1150 0.950 . S
H1175 C1151 0.949 . S
H1176 C1153 0.950 . S
H1177 C1155 0.950 . S
C1178 C1179 1.349 . S
C1178 C1180 1.327 . S
C1178 H1203 0.950 . S
C1179 C1178 1.349 . S
C1179 C1195 1.349 . S
C1180 C1178 1.327 . S
C1180 C1199 1.429 . S
C1180 H1204 0.950 . S
C1181 C1198 1.574 . S
C1181 C1200 1.368 . S
C1181 H1205 0.949 . S
H1182 C1186 0.949 . S
C1183 C1184 1.349 . S
C1183 C1185 1.327 . S
C1183 H1206 0.950 . S
C1184 C1183 1.349 . S
C1184 C1196 1.349 . S
C1185 C1183 1.327 . S
C1185 C1201 1.429 . S
C1185 H1207 0.950 . S
C1186 H1182 0.949 . S
C1186 C1194 1.574 . S
C1186 C1202 1.368 . S
H1187 C1195 0.950 . S
H1188 C1193 0.950 . S
H1189 C1194 0.949 . S
H1190 C1196 0.950 . S
H1191 C1197 0.950 . S
H1192 C1198 0.949 . S
C1193 H1188 0.950 . S
C1193 C1195 1.327 . S
C1193 C1199 1.429 . S
C1194 C1186 1.574 . S
C1194 H1189 0.949 . S
C1194 C1200 1.368 . S
C1195 C1179 1.349 . S
C1195 H1187 0.950 . S
C1195 C1193 1.327 . S
C1196 C1184 1.349 . S
C1196 H1190 0.950 . S
C1196 C1197 1.327 . S
C1197 H1191 0.950 . S
C1197 C1196 1.327 . S
C1197 C1201 1.429 . S
C1198 C1181 1.574 . S
C1198 H1192 0.949 . S
C1198 C1202 1.368 . S
C1199 C1180 1.429 . S
C1199 C1193 1.429 . S
C1199 C1200 1.523 . S
C1200 C1181 1.368 . S
C1200 C1194 1.368 . S
C1200 C1199 1.523 . S
C1201 C1185 1.429 . S
C1201 C1197 1.429 . S
C1201 C1202 1.523 . S
C1202 C1186 1.368 . S
C1202 C1198 1.368 . S
C1202 C1201 1.523 . S
H1203 C1178 0.950 . S
H1204 C1180 0.950 . S
H1205 C1181 0.949 . S
H1206 C1183 0.950 . S
H1207 C1185 0.950 . S
C489 C125 1.891 . S
C494 C220 1.963 . S
C524 C303 1.985 . S
C519 C144 1.900 . S
C554 C388 1.950 . S
C549 C87 1.881 . S
C584 C472 1.940 . S
C579 C106 1.870 . S
C614 C208 1.963 . S
C609 C49 1.954 . S
C639 C68 1.963 . S
C644 C291 1.985 . S
C669 C11 1.940 . S
C674 C376 1.950 . S
C699 C30 1.928 . S
C704 C460 1.939 1_655 S
C734 C210 0.614 . S
C729 C97 0.572 . S
C764 C306 0.588 . S
C759 C116 0.544 . S
C794 C378 0.614 . S
C789 C135 0.573 . S
C819 C78 0.553 . S
C824 C462 0.602 . S
C849 C21 0.571 . S
C854 C222 0.614 . S
C884 C294 0.588 . S
C879 C40 0.543 . S
C914 C390 0.615 . S
C909 C59 0.573 . S
C939 C2 0.553 . S
C944 C474 0.602 . S
C969 C101 1.892 . S
C974 C207 2.025 . S
C999 C120 1.886 . S
C1004 C292 2.027 . S
C1034 C375 2.048 . S
C1029 C139 1.911 . S
C1064 C459 2.053 . S
C1059 C82 1.918 . S
C1089 C25 1.895 . S
C1094 C219 2.025 . S
C1124 C304 2.027 . S
C1119 C44 1.890 . S
C1154 C387 2.048 . S
C1149 C63 1.915 . S
C1179 C6 1.920 . S
C1184 C471 2.052 . S
