# Generated by pormake.
# Topology ftw, (4,12)-cn, num edge types: 1
# Building blocks:
#     Node 0, Type 0, BuildingBlock: NAHDIM_clean_linker_0, # of connection points: 4
#     Node 1, Type 0, BuildingBlock: NAHDIM_clean_linker_0, # of connection points: 4
#     Node 2, Type 0, BuildingBlock: NAHDIM_clean_linker_0, # of connection points: 4
#     Node 3, Type 1, BuildingBlock: EZIPEK_clean_sbu_0, # of connection points: 12
#     Edge 4, Type (0, 1), BuildingBlock: XIVTED_clean_linker_0, # of connection points: 2
#     Edge 5, Type (0, 1), BuildingBlock: XIVTED_clean_linker_0, # of connection points: 2
#     Edge 6, Type (0, 1), BuildingBlock: XIVTED_clean_linker_0, # of connection points: 2
#     Edge 7, Type (0, 1), BuildingBlock: XIVTED_clean_linker_0, # of connection points: 2
#     Edge 8, Type (0, 1), BuildingBlock: XIVTED_clean_linker_0, # of connection points: 2
#     Edge 9, Type (0, 1), BuildingBlock: XIVTED_clean_linker_0, # of connection points: 2
#     Edge 10, Type (0, 1), BuildingBlock: XIVTED_clean_linker_0, # of connection points: 2
#     Edge 11, Type (0, 1), BuildingBlock: XIVTED_clean_linker_0, # of connection points: 2
#     Edge 12, Type (0, 1), BuildingBlock: XIVTED_clean_linker_0, # of connection points: 2
#     Edge 13, Type (0, 1), BuildingBlock: XIVTED_clean_linker_0, # of connection points: 2
#     Edge 14, Type (0, 1), BuildingBlock: XIVTED_clean_linker_0, # of connection points: 2
#     Edge 15, Type (0, 1), BuildingBlock: XIVTED_clean_linker_0, # of connection points: 2
# Relax obj value: 0.006
# Max RMSD: 0.061
# Mean RMSD: 0.048
data_MOF--net-ftw--node1-EZIPEK_clean_sbu_0--node2-NAHDIM_clean_linker_0--edge1-XIVTED_clean_linker_0
_symmetry_space_group_name_H-M    P1
_symmetry_Int_Tables_number       1
_symmetry_cell_setting            triclinic
loop_
_symmetry_equiv_pos_as_xyz
'x, y, z'
_cell_length_a     33.147536
_cell_length_b     32.566156
_cell_length_c     32.111488
_cell_angle_alpha  90.387901
_cell_angle_beta   89.273774
_cell_angle_gamma 89.558394
loop_
_atom_site_label
_atom_site_type_symbol
_atom_site_fract_x
_atom_site_fract_y
_atom_site_fract_z
_atom_type_partial_charge
C0 C 0.12881 0.70211 0.32095 0.0
C1 C 0.09099 0.68849 0.29771 0.0
C2 C 0.05164 0.64703 0.34752 0.0
C3 C 0.01519 0.64545 0.36966 0.0
C4 C 0.00496 0.61112 0.39356 0.0
C5 C 0.03253 0.57786 0.39623 0.0
C6 C 0.06948 0.57905 0.37374 0.0
C7 C 0.07855 0.61347 0.34929 0.0
C8 C 0.96475 0.61061 0.41617 0.0
C9 C 0.09964 0.5442 0.37604 0.0
C10 C 0.89235 0.29711 0.34642 0.0
C11 C 0.92773 0.3142 0.32089 0.0
C12 C 0.96701 0.36005 0.36597 0.0
C13 C 0.00506 0.36547 0.38319 0.0
C14 C 0.01526 0.40226 0.40324 0.0
C15 C 0.98621 0.4342 0.40689 0.0
C16 C 0.9474 0.42886 0.38997 0.0
C17 C 0.93817 0.39187 0.36955 0.0
C18 C 0.05715 0.407 0.42045 0.0
C19 C 0.91561 0.46213 0.39383 0.0
C20 C 0.94564 0.38905 0.6764 0.0
C21 C 0.98527 0.38446 0.66114 0.0
C22 C 0.00408 0.41641 0.6393 0.0
C23 C 0.98244 0.45329 0.63206 0.0
C24 C 0.94312 0.45855 0.64908 0.0
C25 C 0.92547 0.42645 0.67162 0.0
C26 C 0.04667 0.41041 0.62313 0.0
C27 C 0.9193 0.49758 0.64238 0.0
C28 C 0.14777 0.74857 0.64593 0.0
C29 C 0.10752 0.72857 0.65708 0.0
C30 C 0.09326 0.65502 0.65322 0.0
C31 C 0.11332 0.61738 0.6488 0.0
C32 C 0.09381 0.58304 0.63216 0.0
C33 C 0.05286 0.58638 0.62063 0.0
C34 C 0.03164 0.62377 0.62743 0.0
C35 C 0.05214 0.65786 0.64349 0.0
C36 C 0.11726 0.54356 0.62573 0.0
C37 C 0.9876 0.62794 0.6168 0.0
C38 C 0.02285 0.54238 0.42331 0.0
C39 C 0.00889 0.50638 0.40461 0.0
C40 C 0.99666 0.47297 0.42867 0.0
C41 C 0.99652 0.47611 0.47262 0.0
C42 C 0.98121 0.44451 0.49773 0.0
C43 C 0.98157 0.44777 0.54095 0.0
C44 C 0.99832 0.48224 0.56076 0.0
C45 C -0.00018 0.48538 0.60471 0.0
C46 C 0.01735 0.51975 0.6233 0.0
C47 C 0.03314 0.55152 0.59914 0.0
C48 C 0.03109 0.54935 0.55519 0.0
C49 C 0.04612 0.58105 0.52994 0.0
C50 C 0.04334 0.57894 0.48679 0.0
C51 C 0.02619 0.54467 0.46714 0.0
C52 C 0.01213 0.51177 0.49189 0.0
C53 C 0.01382 0.51447 0.53599 0.0
C54 C 0.88529 0.30139 0.67711 0.0
C55 C 0.92807 0.31696 0.68415 0.0
O56 O 0.05952 0.68168 0.32555 0.0
O57 O 0.11459 0.68777 0.66687 0.0
O58 O 0.926 0.35802 0.69575 0.0
O59 O 0.95956 0.32359 0.34673 0.0
H60 H 0.09808 0.65979 0.27997 0.0
H61 H 0.13927 0.67763 0.34218 0.0
H62 H 0.12253 0.73017 0.33989 0.0
H63 H 0.15362 0.70858 0.29841 0.0
H64 H 0.99457 0.67137 0.36801 0.0
H65 H 0.10688 0.61402 0.33228 0.0
H66 H 0.94944 0.58083 0.41097 0.0
H67 H 0.94448 0.63585 0.40599 0.0
H68 H 0.96961 0.61406 0.45014 0.0
H69 H 0.1285 0.55137 0.35979 0.0
H70 H 0.08673 0.51626 0.36157 0.0
H71 H 0.10604 0.53699 0.40907 0.0
H72 H 0.91724 0.34227 0.30453 0.0
H73 H 0.86725 0.28858 0.32553 0.0
H74 H 0.88091 0.32061 0.36889 0.0
H75 H 0.9018 0.26963 0.36426 0.0
H76 H 0.02704 0.34075 0.38044 0.0
H77 H 0.90831 0.38802 0.35701 0.0
H78 H 0.05538 0.40901 0.45495 0.0
H79 H 0.07084 0.4359 0.40902 0.0
H80 H 0.07731 0.38086 0.41165 0.0
H81 H 0.88607 0.45231 0.38137 0.0
H82 H 0.9257 0.48972 0.37658 0.0
H83 H 0.91149 0.47121 0.42703 0.0
H84 H 0.94472 0.31316 0.65397 0.0
H85 H 0.00146 0.35594 0.66624 0.0
H86 H 0.89512 0.42982 0.68422 0.0
H87 H 0.04631 0.40689 0.58873 0.0
H88 H 0.06131 0.38275 0.63647 0.0
H89 H 0.06517 0.43774 0.6305 0.0
H90 H 0.88848 0.49617 0.65626 0.0
H91 H 0.91677 0.50363 0.60852 0.0
H92 H 0.93538 0.52389 0.65652 0.0
H93 H 0.0883 0.73091 0.62895 0.0
H94 H 0.14303 0.7812 0.63716 0.0
H95 H 0.162 0.7322 0.619 0.0
H96 H 0.16871 0.74719 0.67266 0.0
H97 H 0.14487 0.61541 0.65709 0.0
H98 H 0.03604 0.68659 0.64839 0.0
H99 H 0.11673 0.53444 0.59235 0.0
H100 H 0.10283 0.51861 0.64384 0.0
H101 H 0.14917 0.54626 0.6355 0.0
H102 H 0.97428 0.6573 0.62845 0.0
H103 H 0.9703 0.60201 0.6302 0.0
H104 H 0.98422 0.62663 0.58247 0.0
H105 H 0.00768 0.50426 0.37091 0.0
H106 H 0.96837 0.41709 0.48423 0.0
H107 H 0.96893 0.42265 0.55859 0.0
H108 H 0.01878 0.52175 0.65699 0.0
H109 H 0.05993 0.60807 0.54321 0.0
H110 H 0.05516 0.60438 0.469 0.0
H111 H 0.88603 0.26862 0.66721 0.0
H112 H 0.87075 0.31956 0.6522 0.0
H113 H 0.86673 0.30448 0.70605 0.0
C114 C 0.72328 0.11705 0.65094 0.0
C115 C 0.7092 0.08677 0.68438 0.0
C116 C 0.66222 0.03893 0.65092 0.0
C117 C 0.65698 0.99797 0.63915 0.0
C118 C 0.62097 0.9848 0.62116 0.0
C119 C 0.58967 0.0136 0.61443 0.0
C120 C 0.59422 0.0549 0.62734 0.0
C121 C 0.63047 0.0672 0.64548 0.0
C122 C 0.6169 0.9405 0.60795 0.0
C123 C 0.56129 0.08633 0.62053 0.0
C124 C 0.28355 0.89452 0.64362 0.0
C125 C 0.30419 0.9333 0.65952 0.0
C126 C 0.37744 0.93809 0.6535 0.0
C127 C 0.38124 0.97955 0.64266 0.0
C128 C 0.41654 0.99377 0.6231 0.0
C129 C 0.44832 0.96575 0.61372 0.0
C130 C 0.44508 0.92428 0.62614 0.0
C131 C 0.40979 0.91114 0.64645 0.0
C132 C 0.41962 0.03857 0.61187 0.0
C133 C 0.47849 0.89365 0.61709 0.0
C134 C 0.36536 0.00911 0.35623 0.0
C135 C 0.38134 0.04345 0.37684 0.0
C136 C 0.41936 0.04152 0.3952 0.0
C137 C 0.44197 0.00455 0.39293 0.0
C138 C 0.42638 0.97009 0.37178 0.0
C139 C 0.38809 0.97282 0.35379 0.0
C140 C 0.43494 0.07883 0.41794 0.0
C141 C 0.44979 0.93026 0.36907 0.0
C142 C 0.75183 0.10015 0.35889 0.0
C143 C 0.73105 0.06326 0.33904 0.0
C144 C 0.65805 0.05958 0.34864 0.0
C145 C 0.62664 0.08701 0.35799 0.0
C146 C 0.59185 0.07402 0.37925 0.0
C147 C 0.58802 0.03217 0.39021 0.0
C148 C 0.61892 0.00381 0.37887 0.0
C149 C 0.65376 0.01788 0.35832 0.0
C150 C 0.55944 0.10516 0.39031 0.0
C151 C 0.61524 0.95876 0.38874 0.0
C152 C 0.55404 0.00174 0.58992 0.0
C153 C 0.51933 0.98887 0.61109 0.0
C154 C 0.48423 0.97933 0.58949 0.0
C155 C 0.48356 0.98306 0.5456 0.0
C156 C 0.44854 0.97463 0.52291 0.0
C157 C 0.44761 0.98048 0.48008 0.0
C158 C 0.48202 0.99385 0.45811 0.0
C159 C 0.48082 0.0018 0.41497 0.0
C160 C 0.51597 0.01286 0.39348 0.0
C161 C 0.55223 0.01834 0.41448 0.0
C162 C 0.55337 0.01318 0.45819 0.0
C163 C 0.58848 0.02131 0.48079 0.0
C164 C 0.58886 0.01741 0.52386 0.0
C165 C 0.55422 0.00487 0.54604 0.0
C166 C 0.51873 0.99586 0.52387 0.0
C167 C 0.51818 0.00049 0.47996 0.0
C168 C 0.27729 0.0504 0.37361 0.0
C169 C 0.3028 0.04296 0.33398 0.0
O170 O 0.69862 0.04973 0.66634 0.0
O171 O 0.69171 0.0742 0.32965 0.0
O172 O 0.32816 0.00939 0.3389 0.0
O173 O 0.34318 0.92325 0.67115 0.0
H174 H 0.6829 0.1005 0.70144 0.0
H175 H 0.69815 0.12444 0.62968 0.0
H176 H 0.74853 0.10388 0.63198 0.0
H177 H 0.73334 0.14611 0.66572 0.0
H178 H 0.68158 0.97638 0.64359 0.0
H179 H 0.63396 0.09907 0.65422 0.0
H180 H 0.58831 0.92775 0.62059 0.0
H181 H 0.6425 0.92121 0.61861 0.0
H182 H 0.61557 0.9386 0.57346 0.0
H183 H 0.5686 0.11674 0.63425 0.0
H184 H 0.53249 0.0755 0.63448 0.0
H185 H 0.55648 0.09014 0.58661 0.0
H186 H 0.30444 0.95559 0.63334 0.0
H187 H 0.25239 0.90173 0.63342 0.0
H188 H 0.28223 0.87086 0.66838 0.0
H189 H 0.30074 0.88169 0.61654 0.0
H190 H 0.35674 0.0008 0.64967 0.0
H191 H 0.40673 0.87935 0.65568 0.0
H192 H 0.44902 0.05105 0.62204 0.0
H193 H 0.39488 0.05727 0.62621 0.0
H194 H 0.41821 0.04183 0.57754 0.0
H195 H 0.47049 0.8621 0.62706 0.0
H196 H 0.50621 0.9031 0.63353 0.0
H197 H 0.48561 0.89311 0.5832 0.0
H198 H 0.32075 0.07102 0.3277 0.0
H199 H 0.36426 0.07175 0.37944 0.0
H200 H 0.37556 0.94647 0.33789 0.0
H201 H 0.43743 0.07196 0.45163 0.0
H202 H 0.41497 0.10609 0.41438 0.0
H203 H 0.46554 0.0866 0.40621 0.0
H204 H 0.43391 0.90653 0.3506 0.0
H205 H 0.45484 0.91832 0.40091 0.0
H206 H 0.47987 0.93571 0.35463 0.0
H207 H 0.73174 0.03802 0.36225 0.0
H208 H 0.78335 0.0921 0.36721 0.0
H209 H 0.73535 0.10951 0.38781 0.0
H210 H 0.75221 0.1266 0.3372 0.0
H211 H 0.63002 0.11899 0.34959 0.0
H212 H 0.6774 0.99627 0.34947 0.0
H213 H 0.55028 0.10231 0.42355 0.0
H214 H 0.53248 0.09923 0.37111 0.0
H215 H 0.56942 0.13715 0.38464 0.0
H216 H 0.63954 0.94005 0.3736 0.0
H217 H 0.58554 0.94712 0.37848 0.0
H218 H 0.61687 0.95444 0.42293 0.0
H219 H 0.51953 0.98661 0.64478 0.0
H220 H 0.42118 0.96415 0.53807 0.0
H221 H 0.41958 0.97429 0.46437 0.0
H222 H 0.51469 0.01889 0.36033 0.0
H223 H 0.61596 0.03133 0.46552 0.0
H224 H 0.6167 0.02452 0.53952 0.0
H225 H 0.25553 0.07599 0.36872 0.0
H226 H 0.2604 0.0224 0.38247 0.0
H227 H 0.29684 0.05888 0.40004 0.0
C228 C 0.66491 0.74902 0.90383 0.0
C229 C 0.67654 0.73621 0.9479 0.0
C230 C 0.65189 0.66816 0.95963 0.0
C231 C 0.6425 0.66089 0.00146 0.0
C232 C 0.61023 0.63534 0.01254 0.0
C233 C 0.58672 0.61719 0.98091 0.0
C234 C 0.5964 0.62447 0.93851 0.0
C235 C 0.62934 0.64952 0.92839 0.0
C236 C 0.60101 0.62802 0.058 0.0
C237 C 0.57168 0.60621 0.90397 0.0
C238 C 0.30225 0.67138 0.10933 0.0
C239 C 0.32069 0.69796 0.07485 0.0
C240 C 0.36911 0.65378 0.03617 0.0
C241 C 0.3772 0.63539 0.99752 0.0
C242 C 0.41366 0.61443 0.98957 0.0
C243 C 0.44254 0.61123 0.02148 0.0
C244 C 0.43458 0.62955 0.06082 0.0
C245 C 0.39802 0.65076 0.06778 0.0
C246 C 0.42127 0.59566 0.94707 0.0
C247 C 0.46464 0.62645 0.09559 0.0
C248 C 0.38656 0.34282 0.05169 0.0
C249 C 0.38949 0.35911 0.01147 0.0
C250 C 0.42336 0.38189 -0.00079 0.0
C251 C 0.45461 0.38885 0.02804 0.0
C252 C 0.45216 0.37142 0.06824 0.0
C253 C 0.4183 0.34808 0.07933 0.0
C254 C 0.42567 0.39864 0.95555 0.0
C255 C 0.48501 0.37793 0.09965 0.0
C256 C 0.76018 0.36597 0.89491 0.0
C257 C 0.73864 0.35038 0.93403 0.0
C258 C 0.66542 0.3571 0.94175 0.0
C259 C 0.63199 0.36349 0.91657 0.0
C260 C 0.59689 0.3825 0.93243 0.0
C261 C 0.59503 0.39445 0.97487 0.0
C262 C 0.628 0.38596 0.00112 0.0
C263 C 0.663 0.36743 0.98424 0.0
C264 C 0.56214 0.39065 0.90363 0.0
C265 C 0.62641 0.39709 0.0468 0.0
C266 C 0.55163 0.59121 0.99227 0.0
C267 C 0.51508 0.61088 0.00225 0.0
C268 C 0.48093 0.58844 0.01364 0.0
C269 C 0.48326 0.54513 0.01585 0.0
C270 C 0.44996 0.5217 0.02877 0.0
C271 C 0.45219 0.47903 0.02968 0.0
C272 C 0.48762 0.45809 0.01712 0.0
C273 C 0.48968 0.41466 0.0163 0.0
C274 C 0.52528 0.39488 0.00327 0.0
C275 C 0.55919 0.4173 0.99113 0.0
C276 C 0.55792 0.46073 0.99234 0.0
C277 C 0.59168 0.48424 0.9809 0.0
C278 C 0.58997 0.52694 0.98166 0.0
C279 C 0.55412 0.54782 0.99283 0.0
C280 C 0.51978 0.52474 0.00468 0.0
C281 C 0.52184 0.48116 0.00492 0.0
C282 C 0.2984 0.351 0.10144 0.0
C283 C 0.31412 0.33386 0.05979 0.0
O284 O 0.68211 0.69405 0.94935 0.0
O285 O 0.69927 0.34063 0.92405 0.0
O286 O 0.35386 0.32121 0.06432 0.0
O287 O 0.33308 0.67363 0.04143 0.0
H288 H 0.65134 0.74552 0.96943 0.0
H289 H 0.63564 0.73507 0.89539 0.0
H290 H 0.68825 0.73877 0.8808 0.0
H291 H 0.66147 0.78294 0.90213 0.0
H292 H 0.66035 0.67554 0.0253 0.0
H293 H 0.6371 0.65538 0.8961 0.0
H294 H 0.57123 0.64187 0.06622 0.0
H295 H 0.62415 0.6415 0.07864 0.0
H296 H 0.59912 0.59455 0.06404 0.0
H297 H 0.58119 0.61747 0.87281 0.0
H298 H 0.53925 0.6138 0.90903 0.0
H299 H 0.57476 0.57226 0.90423 0.0
H300 H 0.34693 0.71467 0.08779 0.0
H301 H 0.29129 0.69109 0.13557 0.0
H302 H 0.32516 0.64974 0.12156 0.0
H303 H 0.27667 0.65312 0.09735 0.0
H304 H 0.35478 0.63776 0.97335 0.0
H305 H 0.39229 0.66444 0.09806 0.0
H306 H 0.42261 0.56171 0.94969 0.0
H307 H 0.45082 0.60594 0.93443 0.0
H308 H 0.39733 0.60387 0.92462 0.0
H309 H 0.45291 0.64 0.12523 0.0
H310 H 0.49271 0.64267 0.08653 0.0
H311 H 0.47272 0.59376 0.10092 0.0
H312 H 0.31186 0.35897 0.03654 0.0
H313 H 0.36553 0.35361 0.98954 0.0
H314 H 0.41594 0.33474 0.11008 0.0
H315 H 0.42313 0.43263 0.95668 0.0
H316 H 0.40128 0.38661 0.93555 0.0
H317 H 0.45529 0.39072 0.94093 0.0
H318 H 0.47736 0.36449 0.13044 0.0
H319 H 0.49055 0.41129 0.1038 0.0
H320 H 0.51351 0.36363 0.08796 0.0
H321 H 0.73939 0.3758 0.95739 0.0
H322 H 0.79175 0.37455 0.90206 0.0
H323 H 0.74429 0.39362 0.88312 0.0
H324 H 0.76052 0.34206 0.87004 0.0
H325 H 0.63399 0.35467 0.884 0.0
H326 H 0.68828 0.36089 0.00424 0.0
H327 H 0.55481 0.42399 0.9036 0.0
H328 H 0.53495 0.37426 0.91501 0.0
H329 H 0.56885 0.38055 0.87114 0.0
H330 H 0.65303 0.38524 0.06377 0.0
H331 H 0.59858 0.38462 0.06141 0.0
H332 H 0.62522 0.431 0.05037 0.0
H333 H 0.5131 0.64412 0.00083 0.0
H334 H 0.42176 0.53611 0.03832 0.0
H335 H 0.42559 0.46266 0.0399 0.0
H336 H 0.52644 0.36158 0.002 0.0
H337 H 0.6199 0.46991 0.97131 0.0
H338 H 0.61697 0.54336 0.97278 0.0
H339 H 0.26668 0.3618 0.09853 0.0
H340 H 0.31708 0.37748 0.11115 0.0
H341 H 0.29985 0.32715 0.12599 0.0
C342 C 0.01517 0.11447 0.89852 0.0
C343 C 0.0102 0.10821 0.10008 0.0
C344 C 0.02079 0.91571 0.89044 0.0
C345 C 0.02071 0.90878 0.09193 0.0
C346 C 0.11434 0.91179 0.99808 0.0
C347 C 0.11502 0.11081 -0.00017 0.0
C348 C 0.91817 0.91393 0.99205 0.0
C349 C 0.91983 0.11269 0.99746 0.0
C350 C 0.91874 0.01001 0.09763 0.0
C351 C 0.11361 0.01077 0.09581 0.0
C352 C 0.91991 0.02048 0.8963 0.0
C353 C 0.11547 0.00978 0.89404 0.0
Eu354 Eu 0.01738 0.08952 0.99855 0.0
O355 O 0.05268 0.04706 0.0342 0.0
O356 O 0.98213 0.04924 0.96095 0.0
Eu357 Eu 0.09321 0.01163 0.9951 0.0
Eu358 Eu 0.94076 0.01287 0.99658 0.0
O359 O 0.05373 0.04985 0.95906 0.0
O360 O 0.98123 0.04762 0.03428 0.0
Eu361 Eu 0.01758 0.01436 0.91686 0.0
Eu362 Eu 0.01626 0.00925 0.07438 0.0
O363 O 0.05281 0.97633 0.95722 0.0
O364 O 0.05167 0.97455 0.03004 0.0
O365 O 0.98041 0.974 0.03179 0.0
O366 O 0.9808 0.97679 0.95708 0.0
Eu367 Eu 0.01643 0.93399 0.99223 0.0
O368 O 0.01519 0.12579 0.93857 0.0
O369 O 0.01283 0.12176 0.06101 0.0
O370 O 0.02105 0.90182 0.92948 0.0
O371 O 0.01805 0.89773 0.05197 0.0
O372 O 0.1264 0.95082 0.99836 0.0
O373 O 0.12739 0.07173 0.99728 0.0
O374 O 0.90667 0.9532 0.99486 0.0
O375 O 0.90717 0.07387 0.99665 0.0
O376 O 0.95696 0.0063 0.10961 0.0
O377 O 0.07525 0.00939 0.1087 0.0
O378 O 0.95819 0.01877 0.88288 0.0
O379 O 0.07728 0.01315 0.88166 0.0
O380 O 0.95636 0.90036 0.99 0.0
O381 O 0.07615 0.89931 0.99488 0.0
O382 O 0.95823 0.12458 0.99876 0.0
O383 O 0.07664 0.12352 0.00058 0.0
O384 O 0.01159 0.06883 0.11152 0.0
O385 O 0.02032 0.94737 0.1064 0.0
O386 O 0.01703 0.07585 0.88434 0.0
O387 O 0.01816 0.95511 0.87947 0.0
O388 O 0.12749 0.00853 0.93356 0.0
O389 O 0.12643 0.01214 0.05629 0.0
O390 O 0.90756 0.01795 0.93589 0.0
O391 O 0.90652 0.01388 0.05836 0.0
H392 H 0.9645 0.23898 0.33309 0.0
H393 H 0.9939 0.19015 0.09016 0.0
H394 H 0.92399 0.3191 0.23545 0.0
H395 H 0.00833 0.09806 0.18523 0.0
H396 H 0.97594 0.24023 0.14391 0.0
H397 H 0.98742 0.18916 0.28012 0.0
C398 C 0.96039 0.24599 0.30049 0.0
C399 C 0.94215 0.28312 0.28862 0.0
C400 C 0.98318 0.20911 0.15305 0.0
C401 C 0.96867 0.22663 0.22797 0.0
C402 C 0.99371 0.18041 0.12235 0.0
C403 C 0.00262 0.13958 0.13303 0.0
C404 C 0.98167 0.19717 0.19493 0.0
C405 C 0.00159 0.12907 0.17541 0.0
C406 C 0.97349 0.21763 0.27033 0.0
C407 C 0.93782 0.29086 0.24598 0.0
N408 N 0.99123 0.15767 0.20481 0.0
N409 N 0.95104 0.26291 0.21723 0.0
H410 H 0.72373 0.09181 0.25837 0.0
H411 H 0.92509 0.98184 0.17727 0.0
H412 H 0.79181 0.00617 0.33206 0.0
H413 H 0.84194 0.04205 0.09469 0.0
H414 H 0.87625 0.9902 0.23412 0.0
H415 H 0.76604 0.07396 0.19778 0.0
C416 C 0.74712 0.06868 0.26157 0.0
C417 C 0.75384 0.04983 0.30011 0.0
C418 C 0.86849 0.00127 0.2035 0.0
C419 C 0.80304 0.03015 0.23127 0.0
C420 C 0.89644 0.99663 0.171 0.0
C421 C 0.88773 0.01152 0.13116 0.0
C422 C 0.83168 0.02147 0.19639 0.0
C423 C 0.84992 0.03006 0.12487 0.0
C424 C 0.77133 0.0586 0.22703 0.0
C425 C 0.78527 0.02092 0.30277 0.0
N426 N 0.82345 0.03494 0.15728 0.0
N427 N 0.80884 0.01214 0.26891 0.0
H428 H 0.05902 0.76517 0.31491 0.0
H429 H 0.03481 0.82711 0.0758 0.0
H430 H 0.09395 0.68643 0.21189 0.0
H431 H 0.02144 0.91392 0.17753 0.0
H432 H 0.04985 0.77338 0.12571 0.0
H433 H 0.03923 0.81835 0.26544 0.0
C434 C 0.06244 0.75912 0.28183 0.0
C435 C 0.07811 0.72135 0.26744 0.0
C436 C 0.04348 0.80414 0.13714 0.0
C437 C 0.05538 0.78188 0.21071 0.0
C438 C 0.03464 0.83493 0.10864 0.0
C439 C 0.02682 0.87532 0.12236 0.0
C440 C 0.04441 0.81359 0.17981 0.0
C441 C 0.02734 0.88334 0.1654 0.0
C442 C 0.05117 0.78943 0.25365 0.0
C443 C 0.08193 0.71506 0.2243 0.0
N444 N 0.03605 0.85276 0.19257 0.0
N445 N 0.07059 0.74497 0.19747 0.0
H446 H 0.24834 0.98052 0.32226 0.0
H447 H 0.18846 0.04536 0.09198 0.0
H448 H 0.29819 0.08665 0.26112 0.0
H449 H 0.10849 0.97865 0.17383 0.0
H450 H 0.23709 0.05055 0.14864 0.0
H451 H 0.20437 0.96956 0.26257 0.0
C452 C 0.24985 0.0016 0.29636 0.0
C453 C 0.27622 0.03511 0.297 0.0
C454 C 0.20894 0.03464 0.154 0.0
C455 C 0.22701 0.02209 0.22841 0.0
C456 C 0.18135 0.03146 0.12171 0.0
C457 C 0.14436 0.0118 0.12844 0.0
C458 C 0.19964 0.01743 0.19288 0.0
C459 C 0.1365 0.99449 0.16756 0.0
C460 C 0.22493 0.99525 0.26234 0.0
C461 C 0.27784 0.06083 0.26212 0.0
N462 N 0.16397 0.99765 0.19835 0.0
N463 N 0.2535 0.0538 0.22918 0.0
H464 H 0.11747 0.71668 0.74165 0.0
H465 H 0.00794 0.92607 0.80692 0.0
H466 H 0.0548 0.79357 0.65443 0.0
H467 H 0.04655 0.8357 0.89616 0.0
H468 H 0.02357 0.87742 0.75077 0.0
H469 H 0.09063 0.75908 0.79889 0.0
C470 C 0.09742 0.74204 0.73464 0.0
C471 C 0.08773 0.75125 0.69329 0.0
C472 C 0.02824 0.86808 0.78266 0.0
C473 C 0.05787 0.80062 0.75851 0.0
C474 C 0.0194 0.89591 0.81479 0.0
C475 C 0.02617 0.88513 0.85641 0.0
C476 C 0.04444 0.82932 0.79208 0.0
C477 C 0.04082 0.84544 0.8646 0.0
C478 C 0.08222 0.76633 0.76729 0.0
C479 C 0.06249 0.78514 0.68592 0.0
N480 N 0.04987 0.81916 0.83271 0.0
N481 N 0.04864 0.80876 0.71816 0.0
H482 H 0.24284 0.98989 0.65755 0.0
H483 H 0.19309 0.98124 0.90194 0.0
H484 H 0.30999 0.91566 0.74361 0.0
H485 H 0.10933 0.02648 0.81072 0.0
H486 H 0.24215 0.96744 0.84602 0.0
H487 H 0.19944 0.01368 0.71526 0.0
C488 C 0.24884 0.97921 0.68876 0.0
C489 C 0.28045 0.95135 0.69591 0.0
C490 C 0.21312 0.98064 0.83834 0.0
C491 C 0.23066 0.97789 0.76195 0.0
C492 C 0.18512 0.98875 0.87027 0.0
C493 C 0.14684 0.00484 0.86105 0.0
C494 C 0.20295 0.98898 0.79693 0.0
C495 C 0.13828 0.01373 0.81932 0.0
C496 C 0.22398 0.99258 0.7216 0.0
C497 C 0.28642 0.93771 0.73681 0.0
N498 N 0.16606 0.0056 0.78883 0.0
N499 N 0.26176 0.95114 0.76829 0.0
H500 H 0.92318 0.32583 0.76982 0.0
H501 H 0.02686 0.10911 0.81393 0.0
H502 H 0.97684 0.24935 0.67366 0.0
H503 H 0.99139 0.19451 0.91145 0.0
H504 H 0.01142 0.16133 0.76231 0.0
H505 H 0.95039 0.27958 0.82245 0.0
C506 C 0.94136 0.2997 0.75987 0.0
C507 C 0.94836 0.29171 0.71736 0.0
C508 C 0.00739 0.1688 0.79502 0.0
C509 C 0.97868 0.23808 0.77728 0.0
C510 C 0.01615 0.13893 0.82457 0.0
C511 C 0.01019 0.14725 0.86718 0.0
C512 C 0.99212 0.2072 0.80804 0.0
C513 C 0.9965 0.18663 0.879 0.0
C514 C 0.95676 0.27322 0.78987 0.0
C515 C 0.97124 0.25686 0.70612 0.0
N516 N 0.98753 0.21497 0.84957 0.0
N517 N 0.98538 0.23121 0.73586 0.0
H518 H 0.783 0.04955 0.67022 0.0
H519 H 0.84137 0.04351 0.91033 0.0
H520 H 0.70993 0.10399 0.7684 0.0
H521 H 0.92674 0.01596 0.811 0.0
H522 H 0.79094 0.06042 0.85868 0.0
H523 H 0.83467 0.03283 0.72128 0.0
C524 C 0.77809 0.05835 0.70248 0.0
C525 C 0.74231 0.07847 0.7151 0.0
C526 C 0.82068 0.05062 0.84817 0.0
C527 C 0.80079 0.05874 0.77368 0.0
C528 C 0.8495 0.04063 0.87766 0.0
C529 C 0.88845 0.02816 0.86504 0.0
C530 C 0.83067 0.04788 0.80566 0.0
C531 C 0.89716 0.02547 0.82219 0.0
C532 C 0.80746 0.04868 0.73158 0.0
C533 C 0.73713 0.08862 0.75735 0.0
N534 N 0.86844 0.0352 0.79401 0.0
N535 N 0.76598 0.07849 0.78517 0.0
H536 H 0.32078 0.25122 0.07918 0.0
H537 H 0.10745 0.19306 0.98451 0.0
H538 H 0.24701 0.3366 0.01112 0.0
H539 H 0.1937 0.10174 0.02411 0.0
H540 H 0.15783 0.24616 0.99533 0.0
H541 H 0.27444 0.19601 0.06063 0.0
C542 C 0.2952 0.25818 0.05973 0.0
C543 C 0.28815 0.2984 0.04589 0.0
C544 C 0.16586 0.21448 0.00137 0.0
C545 C 0.23443 0.23566 0.02558 0.0
C546 C 0.13704 0.18411 0.99532 0.0
C547 C 0.14628 0.14283 0.00353 0.0
C548 C 0.20412 0.20368 0.01626 0.0
C549 C 0.18527 0.13312 0.01722 0.0
C550 C 0.2687 0.22671 0.04927 0.0
C551 C 0.25388 0.3059 0.0218 0.0
N552 N 0.21265 0.16337 0.02352 0.0
N553 N 0.22823 0.2749 0.01256 0.0
H554 H 0.24946 0.6848 0.03324 0.0
H555 H 0.19436 0.92339 0.01468 0.0
H556 H 0.32274 0.78216 0.08249 0.0
H557 H 0.10678 0.82752 0.99625 0.0
H558 H 0.24485 0.87137 0.03038 0.0
H559 H 0.19972 0.73615 0.01117 0.0
C560 C 0.25504 0.71699 0.03936 0.0
C561 C 0.29016 0.72924 0.05995 0.0
C562 C 0.21462 0.86169 0.02276 0.0
C563 C 0.23377 0.78804 0.0344 0.0
C564 C 0.18568 0.89141 0.01355 0.0
C565 C 0.14598 0.87999 0.00423 0.0
C566 C 0.20409 0.82006 0.02248 0.0
C567 C 0.13687 0.8379 0.00338 0.0
C568 C 0.22671 0.74622 0.02677 0.0
C569 C 0.29609 0.77135 0.06682 0.0
N570 N 0.16569 0.80946 0.01248 0.0
N571 N 0.26823 0.7992 0.05404 0.0
H572 H 0.79832 0.34832 0.9921 0.0
H573 H 0.84271 0.10719 0.96806 0.0
H574 H 0.73053 0.26858 0.91176 0.0
H575 H 0.92686 0.19335 0.02036 0.0
H576 H 0.79476 0.16368 0.95789 0.0
H577 H 0.83929 0.28933 0.01326 0.0
C578 C 0.79165 0.31822 0.97952 0.0
C579 C 0.76064 0.3132 0.95067 0.0
C580 C 0.82362 0.17009 0.97187 0.0
C581 C 0.80766 0.24574 0.97413 0.0
C582 C 0.85092 0.13785 0.97791 0.0
C583 C 0.88899 0.1456 0.99481 0.0
C584 C 0.83432 0.21026 0.9832 0.0
C585 C 0.89804 0.18601 0.00678 0.0
C586 C 0.81512 0.28465 0.99139 0.0
C587 C 0.75371 0.27368 0.93461 0.0
N588 N 0.87096 0.21681 0.00064 0.0
N589 N 0.77707 0.24146 0.94654 0.0
H590 H 0.6829 0.80364 0.99868 0.0
H591 H 0.92054 0.83423 0.96221 0.0
H592 H 0.75596 0.71974 0.92502 0.0
H593 H 0.84039 0.92432 0.01873 0.0
H594 H 0.86328 0.7872 0.95587 0.0
H595 H 0.74303 0.84339 0.01413 0.0
C596 C 0.71179 0.79328 0.98625 0.0
C597 C 0.71453 0.75812 0.96092 0.0
C598 C 0.85842 0.8172 0.96985 0.0
C599 C 0.78362 0.80399 0.97775 0.0
C600 C 0.89108 0.84398 0.97363 0.0
C601 C 0.88522 0.88347 0.99063 0.0
C602 C 0.81981 0.82994 0.98355 0.0
C603 C 0.84635 0.89446 0.00486 0.0
C604 C 0.74612 0.81608 0.99489 0.0
C605 C 0.75268 0.74644 0.94508 0.0
N606 N 0.81526 0.86795 0.00089 0.0
N607 N 0.78576 0.76941 0.95363 0.0
loop_
_geom_bond_atom_site_label_1
_geom_bond_atom_site_label_2
_geom_bond_distance
_geom_bond_site_symmetry_2
_ccdc_geom_bond_type
C0 C1 1.560 . S
C0 H61 0.959 . S
C0 H62 0.959 . S
C0 H63 0.960 . S
C1 C0 1.560 . S
C1 O56 1.426 . S
C1 H60 0.980 . S
C2 C3 1.407 . S
C2 C7 1.418 . S
C2 O56 1.334 . S
C3 C2 1.407 . S
C3 C4 1.360 1_455 S
C3 H64 0.929 1_455 S
C4 C3 1.360 1_655 S
C4 C5 1.401 1_655 S
C4 C8 1.527 . S
C5 C4 1.401 1_455 S
C5 C6 1.405 . S
C5 C38 1.587 . S
C6 C5 1.405 . S
C6 C7 1.332 . S
C6 C9 1.496 . S
C7 C2 1.418 . S
C7 C6 1.332 . S
C7 H65 0.929 . S
C8 C4 1.527 . S
C8 H66 0.959 . S
C8 H67 0.961 . S
C8 H68 0.961 . S
C9 C6 1.496 . S
C9 H69 0.960 . S
C9 H70 0.960 . S
C9 H71 0.961 . S
C10 C11 1.517 . S
C10 H73 0.961 1_655 S
C10 H74 0.960 . S
C10 H75 0.959 . S
C11 C10 1.517 . S
C11 O59 1.468 . S
C11 H72 0.980 1_655 S
C12 C13 1.349 1_655 S
C12 C17 1.367 . S
C12 O59 1.408 . S
C13 C12 1.349 1_455 S
C13 C14 1.407 . S
C13 H76 0.930 . S
C14 C13 1.407 . S
C14 C15 1.449 1_455 S
C14 C18 1.535 . S
C15 C14 1.449 1_655 S
C15 C16 1.384 . S
C15 C40 1.553 . S
C16 C15 1.384 . S
C16 C17 1.364 . S
C16 C19 1.450 . S
C17 C12 1.367 . S
C17 C16 1.364 . S
C17 H77 0.931 . S
C18 C14 1.535 . S
C18 H78 0.959 . S
C18 H79 0.961 . S
C18 H80 0.959 . S
C19 C16 1.450 . S
C19 H81 0.960 . S
C19 H82 0.960 . S
C19 H83 0.960 . S
C20 C21 1.309 1_655 S
C20 C25 1.304 . S
C20 O58 1.435 . S
C21 C20 1.309 1_455 S
C21 C22 1.476 . S
C21 H85 0.930 . S
C22 C21 1.476 . S
C22 C23 1.400 1_455 S
C22 C26 1.567 . S
C23 C22 1.400 1_655 S
C23 C24 1.373 . S
C23 C45 1.432 . S
C24 C23 1.373 . S
C24 C25 1.339 . S
C24 C27 1.530 . S
C25 C20 1.304 . S
C25 C24 1.339 . S
C25 H86 0.930 . S
C26 C22 1.567 . S
C26 H87 0.961 . S
C26 H88 0.960 . S
C26 H89 0.958 . S
C27 C24 1.530 . S
C27 H90 0.961 . S
C27 H91 0.960 . S
C27 H92 0.960 . S
C28 C29 1.530 . S
C28 H94 0.961 . S
C28 H95 0.961 . S
C28 H96 0.959 . S
C29 C28 1.530 . S
C29 O57 1.412 . S
C29 H93 0.980 . S
C30 C31 1.288 . S
C30 C35 1.377 . S
C30 O57 1.393 . S
C31 C30 1.288 . S
C31 C32 1.369 . S
C31 H97 0.932 . S
C32 C31 1.369 . S
C32 C33 1.398 . S
C32 C36 1.527 . S
C33 C32 1.398 . S
C33 C34 1.380 1_455 S
C33 C47 1.497 . S
C34 C33 1.380 1_655 S
C34 C35 1.383 1_655 S
C34 C37 1.603 . S
C35 C30 1.377 . S
C35 C34 1.383 1_455 S
C35 H98 0.929 1_455 S
C36 C32 1.527 . S
C36 H99 0.961 . S
C36 H100 0.959 . S
C36 H101 0.959 . S
C37 C34 1.603 . S
C37 H102 0.960 . S
C37 H103 0.962 . S
C37 H104 0.961 . S
C38 C5 1.587 . S
C38 C39 1.360 1_455 S
C38 C51 1.412 . S
C39 C38 1.360 1_655 S
C39 C40 1.365 . S
C39 H105 0.929 . S
C40 C15 1.553 . S
C40 C39 1.365 . S
C40 C41 1.404 . S
C41 C40 1.404 . S
C41 C42 1.395 . S
C41 C52 1.451 . S
C42 C41 1.395 . S
C42 C43 1.322 . S
C42 H106 0.930 . S
C43 C42 1.322 . S
C43 C44 1.459 . S
C43 H107 0.929 . S
C44 C43 1.459 . S
C44 C45 1.445 . S
C44 C53 1.395 . S
C45 C23 1.432 . S
C45 C44 1.445 . S
C45 C46 1.370 1_655 S
C46 C45 1.370 1_455 S
C46 C47 1.438 . S
C46 H108 0.930 . S
C47 C33 1.497 . S
C47 C46 1.438 . S
C47 C48 1.360 . S
C48 C47 1.360 . S
C48 C49 1.401 . S
C48 C53 1.446 1_455 S
C49 C48 1.401 . S
C49 C50 1.347 . S
C49 H109 0.929 . S
C50 C49 1.347 . S
C50 C51 1.455 . S
C50 H110 0.930 . S
C51 C38 1.412 . S
C51 C50 1.455 . S
C51 C52 1.331 1_455 S
C52 C41 1.451 . S
C52 C51 1.331 1_655 S
C52 C53 1.497 . S
C53 C44 1.395 . S
C53 C48 1.446 1_655 S
C53 C52 1.497 . S
C54 C55 1.582 1_655 S
C54 H111 0.962 1_655 S
C54 H112 0.959 . S
C54 H113 0.958 . S
C55 C54 1.582 1_455 S
C55 O58 1.458 1_455 S
C55 H84 0.980 . S
O56 C1 1.426 . S
O56 C2 1.334 . S
O57 C29 1.412 . S
O57 C30 1.393 . S
O58 C20 1.435 . S
O58 C55 1.458 1_655 S
O59 C11 1.468 . S
O59 C12 1.408 . S
H60 C1 0.980 . S
H61 C0 0.959 . S
H62 C0 0.959 . S
H63 C0 0.960 . S
H64 C3 0.929 1_655 S
H65 C7 0.929 . S
H66 C8 0.959 . S
H67 C8 0.961 . S
H68 C8 0.961 . S
H69 C9 0.960 . S
H70 C9 0.960 . S
H71 C9 0.961 . S
H72 C11 0.980 1_455 S
H73 C10 0.961 1_455 S
H74 C10 0.960 . S
H75 C10 0.959 . S
H76 C13 0.930 . S
H77 C17 0.931 . S
H78 C18 0.959 . S
H79 C18 0.961 . S
H80 C18 0.959 . S
H81 C19 0.960 . S
H82 C19 0.960 . S
H83 C19 0.960 . S
H84 C55 0.980 . S
H85 C21 0.930 . S
H86 C25 0.930 . S
H87 C26 0.961 . S
H88 C26 0.960 . S
H89 C26 0.958 . S
H90 C27 0.961 . S
H91 C27 0.960 . S
H92 C27 0.960 . S
H93 C29 0.980 . S
H94 C28 0.961 . S
H95 C28 0.961 . S
H96 C28 0.959 . S
H97 C31 0.932 . S
H98 C35 0.929 1_655 S
H99 C36 0.961 . S
H100 C36 0.959 . S
H101 C36 0.959 . S
H102 C37 0.960 . S
H103 C37 0.962 . S
H104 C37 0.961 . S
H105 C39 0.929 . S
H106 C42 0.930 . S
H107 C43 0.929 . S
H108 C46 0.930 . S
H109 C49 0.929 . S
H110 C50 0.930 . S
H111 C54 0.962 1_455 S
H112 C54 0.959 . S
H113 C54 0.958 . S
C114 C115 1.560 . S
C114 H175 0.959 . S
C114 H176 0.959 . S
C114 H177 0.960 . S
C115 C114 1.560 . S
C115 O170 1.426 . S
C115 H174 0.980 . S
C116 C117 1.407 1_545 S
C116 C121 1.418 . S
C116 O170 1.334 . S
C117 C116 1.407 1_565 S
C117 C118 1.360 . S
C117 H178 0.929 . S
C118 C117 1.360 . S
C118 C119 1.401 1_565 S
C118 C122 1.527 . S
C119 C118 1.401 1_545 S
C119 C120 1.405 . S
C119 C152 1.587 1_545 S
C120 C119 1.405 . S
C120 C121 1.332 . S
C120 C123 1.496 . S
C121 C116 1.418 . S
C121 C120 1.332 . S
C121 H179 0.929 . S
C122 C118 1.527 . S
C122 H180 0.959 . S
C122 H181 0.961 . S
C122 H182 0.961 . S
C123 C120 1.496 . S
C123 H183 0.960 . S
C123 H184 0.960 . S
C123 H185 0.961 . S
C124 C125 1.517 . S
C124 H187 0.961 1_565 S
C124 H188 0.960 . S
C124 H189 0.959 . S
C125 C124 1.517 . S
C125 O173 1.468 . S
C125 H186 0.980 1_565 S
C126 C127 1.349 1_565 S
C126 C131 1.367 . S
C126 O173 1.408 . S
C127 C126 1.349 1_545 S
C127 C128 1.407 . S
C127 H190 0.930 . S
C128 C127 1.407 . S
C128 C129 1.449 1_545 S
C128 C132 1.535 . S
C129 C128 1.449 1_565 S
C129 C130 1.384 . S
C129 C154 1.553 . S
C130 C129 1.384 . S
C130 C131 1.364 . S
C130 C133 1.450 . S
C131 C126 1.367 . S
C131 C130 1.364 . S
C131 H191 0.931 . S
C132 C128 1.535 . S
C132 H192 0.959 . S
C132 H193 0.961 . S
C132 H194 0.959 . S
C133 C130 1.450 . S
C133 H195 0.960 . S
C133 H196 0.960 . S
C133 H197 0.960 . S
C134 C135 1.309 1_565 S
C134 C139 1.304 . S
C134 O172 1.435 . S
C135 C134 1.309 1_545 S
C135 C136 1.476 . S
C135 H199 0.930 . S
C136 C135 1.476 . S
C136 C137 1.400 1_545 S
C136 C140 1.567 . S
C137 C136 1.400 1_565 S
C137 C138 1.373 . S
C137 C159 1.432 . S
C138 C137 1.373 . S
C138 C139 1.339 . S
C138 C141 1.530 . S
C139 C134 1.304 . S
C139 C138 1.339 . S
C139 H200 0.930 . S
C140 C136 1.567 . S
C140 H201 0.961 . S
C140 H202 0.960 . S
C140 H203 0.958 . S
C141 C138 1.530 . S
C141 H204 0.961 . S
C141 H205 0.960 . S
C141 H206 0.960 . S
C142 C143 1.530 . S
C142 H208 0.961 . S
C142 H209 0.961 . S
C142 H210 0.959 . S
C143 C142 1.530 . S
C143 O171 1.412 . S
C143 H207 0.980 . S
C144 C145 1.288 . S
C144 C149 1.377 1_545 S
C144 O171 1.393 . S
C145 C144 1.288 . S
C145 C146 1.369 . S
C145 H211 0.932 . S
C146 C145 1.369 . S
C146 C147 1.398 . S
C146 C150 1.527 . S
C147 C146 1.398 . S
C147 C148 1.380 1_545 S
C147 C161 1.497 . S
C148 C147 1.380 1_565 S
C148 C149 1.383 . S
C148 C151 1.603 . S
C149 C144 1.377 1_565 S
C149 C148 1.383 . S
C149 H212 0.929 . S
C150 C146 1.527 . S
C150 H213 0.961 . S
C150 H214 0.959 . S
C150 H215 0.959 . S
C151 C148 1.603 . S
C151 H216 0.960 . S
C151 H217 0.962 . S
C151 H218 0.961 . S
C152 C119 1.587 1_565 S
C152 C153 1.360 . S
C152 C165 1.412 . S
C153 C152 1.360 . S
C153 C154 1.365 . S
C153 H219 0.929 . S
C154 C129 1.553 . S
C154 C153 1.365 . S
C154 C155 1.404 . S
C155 C154 1.404 . S
C155 C156 1.395 . S
C155 C166 1.451 . S
C156 C155 1.395 . S
C156 C157 1.322 . S
C156 H220 0.930 . S
C157 C156 1.322 . S
C157 C158 1.459 . S
C157 H221 0.929 . S
C158 C157 1.459 . S
C158 C159 1.445 . S
C158 C167 1.395 . S
C159 C137 1.432 . S
C159 C158 1.445 . S
C159 C160 1.371 . S
C160 C159 1.371 . S
C160 C161 1.437 1_565 S
C160 H222 0.930 1_565 S
C161 C147 1.497 . S
C161 C160 1.437 1_545 S
C161 C162 1.363 . S
C162 C161 1.363 . S
C162 C163 1.404 . S
C162 C167 1.441 1_545 S
C163 C162 1.404 . S
C163 C164 1.347 . S
C163 H223 0.929 . S
C164 C163 1.347 . S
C164 C165 1.455 1_545 S
C164 H224 0.930 . S
C165 C152 1.412 . S
C165 C164 1.455 1_565 S
C165 C166 1.331 . S
C166 C155 1.451 . S
C166 C165 1.331 . S
C166 C167 1.497 . S
C167 C158 1.395 . S
C167 C162 1.441 1_565 S
C167 C166 1.497 . S
C168 C169 1.582 1_565 S
C168 H225 0.962 . S
C168 H226 0.959 . S
C168 H227 0.958 . S
C169 C168 1.582 1_545 S
C169 O172 1.458 1_545 S
C169 H198 0.980 . S
O170 C115 1.426 . S
O170 C116 1.334 . S
O171 C143 1.412 . S
O171 C144 1.393 . S
O172 C134 1.435 . S
O172 C169 1.458 1_565 S
O173 C125 1.468 . S
O173 C126 1.408 . S
H174 C115 0.980 . S
H175 C114 0.959 . S
H176 C114 0.959 . S
H177 C114 0.960 . S
H178 C117 0.929 . S
H179 C121 0.929 . S
H180 C122 0.959 . S
H181 C122 0.961 . S
H182 C122 0.961 . S
H183 C123 0.960 . S
H184 C123 0.960 . S
H185 C123 0.961 . S
H186 C125 0.980 1_545 S
H187 C124 0.961 1_545 S
H188 C124 0.960 . S
H189 C124 0.959 . S
H190 C127 0.930 . S
H191 C131 0.931 . S
H192 C132 0.959 . S
H193 C132 0.961 . S
H194 C132 0.959 . S
H195 C133 0.960 . S
H196 C133 0.960 . S
H197 C133 0.960 . S
H198 C169 0.980 . S
H199 C135 0.930 . S
H200 C139 0.930 . S
H201 C140 0.961 . S
H202 C140 0.960 . S
H203 C140 0.958 . S
H204 C141 0.961 . S
H205 C141 0.960 . S
H206 C141 0.960 . S
H207 C143 0.980 . S
H208 C142 0.961 . S
H209 C142 0.961 . S
H210 C142 0.959 . S
H211 C145 0.932 . S
H212 C149 0.929 . S
H213 C150 0.961 . S
H214 C150 0.959 . S
H215 C150 0.959 . S
H216 C151 0.960 . S
H217 C151 0.962 . S
H218 C151 0.961 . S
H219 C153 0.929 . S
H220 C156 0.930 . S
H221 C157 0.929 . S
H222 C160 0.930 1_545 S
H223 C163 0.929 . S
H224 C164 0.930 . S
H225 C168 0.962 . S
H226 C168 0.959 . S
H227 C168 0.958 . S
C228 C229 1.560 . S
C228 H289 0.959 . S
C228 H290 0.959 . S
C228 H291 0.960 . S
C229 C228 1.560 . S
C229 O284 1.426 . S
C229 H288 0.980 . S
C230 C231 1.407 1_556 S
C230 C235 1.418 . S
C230 O284 1.334 . S
C231 C230 1.407 1_554 S
C231 C232 1.360 . S
C231 H292 0.929 . S
C232 C231 1.360 . S
C232 C233 1.401 . S
C232 C236 1.527 . S
C233 C232 1.401 . S
C233 C234 1.405 1_554 S
C233 C266 1.587 . S
C234 C233 1.405 1_556 S
C234 C235 1.332 . S
C234 C237 1.496 . S
C235 C230 1.418 . S
C235 C234 1.332 . S
C235 H293 0.929 . S
C236 C232 1.527 . S
C236 H294 0.959 . S
C236 H295 0.961 . S
C236 H296 0.961 . S
C237 C234 1.496 . S
C237 H297 0.960 . S
C237 H298 0.960 . S
C237 H299 0.961 . S
C238 C239 1.517 . S
C238 H301 0.961 . S
C238 H302 0.960 . S
C238 H303 0.959 . S
C239 C238 1.517 . S
C239 O287 1.468 . S
C239 H300 0.980 . S
C240 C241 1.349 . S
C240 C245 1.367 . S
C240 O287 1.408 . S
C241 C240 1.349 . S
C241 C242 1.407 . S
C241 H304 0.930 1_554 S
C242 C241 1.407 . S
C242 C243 1.449 . S
C242 C246 1.535 1_554 S
C243 C242 1.449 . S
C243 C244 1.384 . S
C243 C268 1.553 . S
C244 C243 1.384 . S
C244 C245 1.364 . S
C244 C247 1.450 . S
C245 C240 1.367 . S
C245 C244 1.364 . S
C245 H305 0.931 . S
C246 C242 1.535 1_556 S
C246 H306 0.959 . S
C246 H307 0.961 . S
C246 H308 0.959 . S
C247 C244 1.450 . S
C247 H309 0.960 . S
C247 H310 0.960 . S
C247 H311 0.960 . S
C248 C249 1.288 1_554 S
C248 C253 1.304 . S
C248 O286 1.435 . S
C249 C248 1.288 1_556 S
C249 C250 1.479 . S
C249 H313 0.946 . S
C250 C249 1.479 . S
C250 C251 1.400 1_556 S
C250 C254 1.567 . S
C251 C250 1.400 1_554 S
C251 C252 1.373 . S
C251 C273 1.432 . S
C252 C251 1.373 . S
C252 C253 1.339 . S
C252 C255 1.530 . S
C253 C248 1.304 . S
C253 C252 1.339 . S
C253 H314 0.930 . S
C254 C250 1.567 . S
C254 H315 0.961 . S
C254 H316 0.960 . S
C254 H317 0.958 . S
C255 C252 1.530 . S
C255 H318 0.961 . S
C255 H319 0.960 . S
C255 H320 0.960 . S
C256 C257 1.530 . S
C256 H322 0.961 . S
C256 H323 0.961 . S
C256 H324 0.959 . S
C257 C256 1.530 . S
C257 O285 1.412 . S
C257 H321 0.980 1_556 S
C258 C259 1.288 . S
C258 C263 1.377 1_556 S
C258 O285 1.393 . S
C259 C258 1.288 . S
C259 C260 1.369 . S
C259 H325 0.932 . S
C260 C259 1.369 . S
C260 C261 1.398 . S
C260 C264 1.527 . S
C261 C260 1.398 . S
C261 C262 1.380 1_556 S
C261 C275 1.497 1_556 S
C262 C261 1.380 1_554 S
C262 C263 1.383 . S
C262 C265 1.603 . S
C263 C258 1.377 1_554 S
C263 C262 1.383 . S
C263 H326 0.929 . S
C264 C260 1.527 . S
C264 H327 0.961 . S
C264 H328 0.959 . S
C264 H329 0.959 . S
C265 C262 1.603 . S
C265 H330 0.960 . S
C265 H331 0.962 . S
C265 H332 0.961 . S
C266 C233 1.587 . S
C266 C267 1.360 . S
C266 C279 1.412 . S
C267 C266 1.360 . S
C267 C268 1.365 . S
C267 H333 0.929 . S
C268 C243 1.553 . S
C268 C267 1.365 . S
C268 C269 1.404 . S
C269 C268 1.404 . S
C269 C270 1.395 . S
C269 C280 1.451 . S
C270 C269 1.395 . S
C270 C271 1.322 . S
C270 H334 0.930 . S
C271 C270 1.322 . S
C271 C272 1.459 . S
C271 H335 0.929 . S
C272 C271 1.459 . S
C272 C273 1.445 . S
C272 C281 1.395 . S
C273 C251 1.432 . S
C273 C272 1.445 . S
C273 C274 1.370 . S
C274 C273 1.370 . S
C274 C275 1.438 . S
C274 H336 0.930 . S
C275 C261 1.497 1_554 S
C275 C274 1.438 . S
C275 C276 1.360 . S
C276 C275 1.360 . S
C276 C277 1.401 . S
C276 C281 1.446 . S
C277 C276 1.401 . S
C277 C278 1.347 . S
C277 H337 0.929 . S
C278 C277 1.347 . S
C278 C279 1.455 . S
C278 H338 0.930 . S
C279 C266 1.412 . S
C279 C278 1.455 . S
C279 C280 1.331 . S
C280 C269 1.451 . S
C280 C279 1.331 . S
C280 C281 1.497 . S
C281 C272 1.395 . S
C281 C276 1.446 . S
C281 C280 1.497 . S
C282 C283 1.582 . S
C282 H339 0.962 . S
C282 H340 0.959 . S
C282 H341 0.958 . S
C283 C282 1.582 . S
C283 O286 1.458 . S
C283 H312 0.980 . S
O284 C229 1.426 . S
O284 C230 1.334 . S
O285 C257 1.412 . S
O285 C258 1.393 . S
O286 C248 1.435 . S
O286 C283 1.458 . S
O287 C239 1.468 . S
O287 C240 1.408 . S
H288 C229 0.980 . S
H289 C228 0.959 . S
H290 C228 0.959 . S
H291 C228 0.960 . S
H292 C231 0.929 . S
H293 C235 0.929 . S
H294 C236 0.959 . S
H295 C236 0.961 . S
H296 C236 0.961 . S
H297 C237 0.960 . S
H298 C237 0.960 . S
H299 C237 0.961 . S
H300 C239 0.980 . S
H301 C238 0.961 . S
H302 C238 0.960 . S
H303 C238 0.959 . S
H304 C241 0.930 1_556 S
H305 C245 0.931 . S
H306 C246 0.959 . S
H307 C246 0.961 . S
H308 C246 0.959 . S
H309 C247 0.960 . S
H310 C247 0.960 . S
H311 C247 0.960 . S
H312 C283 0.980 . S
H313 C249 0.946 . S
H314 C253 0.930 . S
H315 C254 0.961 . S
H316 C254 0.960 . S
H317 C254 0.958 . S
H318 C255 0.961 . S
H319 C255 0.960 . S
H320 C255 0.960 . S
H321 C257 0.980 1_554 S
H322 C256 0.961 . S
H323 C256 0.961 . S
H324 C256 0.959 . S
H325 C259 0.932 . S
H326 C263 0.929 . S
H327 C264 0.961 . S
H328 C264 0.959 . S
H329 C264 0.959 . S
H330 C265 0.960 . S
H331 C265 0.962 . S
H332 C265 0.961 . S
H333 C267 0.929 . S
H334 C270 0.930 . S
H335 C271 0.929 . S
H336 C274 0.930 . S
H337 C277 0.929 . S
H338 C278 0.930 . S
H339 C282 0.962 . S
H340 C282 0.959 . S
H341 C282 0.958 . S
C342 O368 1.283 . S
C342 O386 1.283 . S
C343 O369 1.283 . S
C343 O384 1.283 . S
C344 O370 1.283 . S
C344 O387 1.283 . S
C345 O371 1.283 . S
C345 O385 1.283 . S
C346 O372 1.283 . S
C346 O381 1.283 . S
C347 O373 1.283 1_554 S
C347 O383 1.283 . S
C348 O374 1.283 . S
C348 O380 1.283 1_554 S
C349 O375 1.283 . S
C349 O382 1.283 . S
C350 O376 1.283 . S
C350 O391 1.283 . S
C351 O377 1.283 . S
C351 O389 1.283 . S
C352 O378 1.283 . S
C352 O390 1.283 . S
C353 O379 1.283 . S
C353 O388 1.283 . S
Eu354 O355 2.376 . S
Eu354 O356 2.364 1_454 S
Eu354 O359 2.364 1_554 S
Eu354 O360 2.376 1_455 S
Eu354 O368 2.353 1_554 S
Eu354 O369 2.373 . S
Eu354 O382 2.363 1_455 S
Eu354 O383 2.363 . S
O355 Eu354 2.376 . S
O355 Eu357 2.368 1_554 S
O355 Eu362 2.370 . S
O356 Eu354 2.364 1_656 S
O356 Eu358 2.364 1_556 S
O356 Eu361 2.370 1_655 S
Eu357 O355 2.368 1_556 S
Eu357 O359 2.373 . S
Eu357 O363 2.373 1_545 S
Eu357 O364 2.368 1_546 S
Eu357 O372 2.363 1_545 S
Eu357 O373 2.363 . S
Eu357 O388 2.367 . S
Eu357 O389 2.359 1_556 S
Eu358 O356 2.364 1_554 S
Eu358 O360 2.376 . S
Eu358 O365 2.376 1_545 S
Eu358 O366 2.364 1_544 S
Eu358 O374 2.363 1_545 S
Eu358 O375 2.363 . S
Eu358 O390 2.353 1_554 S
Eu358 O391 2.373 . S
O359 Eu354 2.364 1_556 S
O359 Eu357 2.373 . S
O359 Eu361 2.370 . S
O360 Eu354 2.376 1_655 S
O360 Eu358 2.376 . S
O360 Eu362 2.370 1_655 S
Eu361 O356 2.370 1_455 S
Eu361 O359 2.370 . S
Eu361 O363 2.370 1_545 S
Eu361 O366 2.370 1_445 S
Eu361 O378 2.363 1_455 S
Eu361 O379 2.363 . S
Eu361 O386 2.363 . S
Eu361 O387 2.363 1_545 S
Eu362 O355 2.370 . S
Eu362 O360 2.370 1_455 S
Eu362 O364 2.370 1_545 S
Eu362 O365 2.370 1_445 S
Eu362 O376 2.363 1_455 S
Eu362 O377 2.363 . S
Eu362 O384 2.363 . S
Eu362 O385 2.363 1_545 S
O363 Eu357 2.373 1_565 S
O363 Eu361 2.370 1_565 S
O363 Eu367 2.373 . S
O364 Eu357 2.368 1_564 S
O364 Eu362 2.370 1_565 S
O364 Eu367 2.368 1_554 S
O365 Eu358 2.376 1_565 S
O365 Eu362 2.370 1_665 S
O365 Eu367 2.368 1_654 S
O366 Eu358 2.364 1_566 S
O366 Eu361 2.370 1_665 S
O366 Eu367 2.373 1_655 S
Eu367 O363 2.373 . S
Eu367 O364 2.368 1_556 S
Eu367 O365 2.368 1_456 S
Eu367 O366 2.373 1_455 S
Eu367 O370 2.367 . S
Eu367 O371 2.359 1_556 S
Eu367 O380 2.363 1_455 S
Eu367 O381 2.363 . S
O368 C342 1.283 . S
O368 Eu354 2.353 1_556 S
O369 C343 1.283 . S
O369 Eu354 2.373 . S
O370 C344 1.283 . S
O370 Eu367 2.367 . S
O371 C345 1.283 . S
O371 Eu367 2.359 1_554 S
O372 C346 1.283 . S
O372 Eu357 2.363 1_565 S
O373 C347 1.283 1_556 S
O373 Eu357 2.363 . S
O374 C348 1.283 . S
O374 Eu358 2.363 1_565 S
O375 C349 1.283 . S
O375 Eu358 2.363 . S
O376 C350 1.283 . S
O376 Eu362 2.363 1_655 S
O377 C351 1.283 . S
O377 Eu362 2.363 . S
O378 C352 1.283 . S
O378 Eu361 2.363 1_655 S
O379 C353 1.283 . S
O379 Eu361 2.363 . S
O380 C348 1.283 1_556 S
O380 Eu367 2.363 1_655 S
O381 C346 1.283 . S
O381 Eu367 2.363 . S
O382 C349 1.283 . S
O382 Eu354 2.363 1_655 S
O383 C347 1.283 . S
O383 Eu354 2.363 . S
O384 C343 1.283 . S
O384 Eu362 2.363 . S
O385 C345 1.283 . S
O385 Eu362 2.363 1_565 S
O386 C342 1.283 . S
O386 Eu361 2.363 . S
O387 C344 1.283 . S
O387 Eu361 2.363 1_565 S
O388 C353 1.283 . S
O388 Eu357 2.367 . S
O389 C351 1.283 . S
O389 Eu357 2.359 1_554 S
O390 C352 1.283 . S
O390 Eu358 2.353 1_556 S
O391 C350 1.283 . S
O391 Eu358 2.373 . S
H392 C398 0.930 . S
H393 C402 0.930 . S
H394 C407 0.929 . S
H395 C405 0.929 . S
H396 C400 0.929 . S
H397 C406 0.929 . S
C398 H392 0.930 . S
C398 C399 1.367 1_655 S
C398 C406 1.378 . S
C399 C398 1.367 1_455 S
C399 C407 1.433 . S
C400 H396 0.929 . S
C400 C402 1.378 . S
C400 C404 1.350 . S
C401 C404 1.463 . S
C401 C406 1.350 1_455 S
C401 N409 1.427 . S
C402 H393 0.930 . S
C402 C400 1.378 . S
C402 C403 1.367 . S
C403 C402 1.367 . S
C403 C405 1.433 1_455 S
C404 C400 1.350 . S
C404 C401 1.463 . S
C404 N408 1.427 1_455 S
C405 H395 0.929 . S
C405 C403 1.433 1_655 S
C405 N408 1.384 . S
C406 H397 0.929 . S
C406 C398 1.378 . S
C406 C401 1.350 1_655 S
C407 H394 0.929 . S
C407 C399 1.433 . S
C407 N409 1.384 . S
N408 C404 1.427 1_655 S
N408 C405 1.384 . S
N409 C401 1.427 . S
N409 C407 1.384 . S
H410 C416 0.930 . S
H411 C420 0.930 . S
H412 C425 0.929 . S
H413 C423 0.929 . S
H414 C418 0.929 . S
H415 C424 0.929 . S
C416 H410 0.930 . S
C416 C417 1.367 . S
C416 C424 1.378 . S
C417 C416 1.367 . S
C417 C425 1.433 1_545 S
C418 H414 0.929 . S
C418 C420 1.378 . S
C418 C422 1.350 1_565 S
C419 C422 1.463 . S
C419 C424 1.350 . S
C419 N427 1.427 1_545 S
C420 H411 0.930 . S
C420 C418 1.378 . S
C420 C421 1.367 1_565 S
C421 C420 1.367 1_545 S
C421 C423 1.433 . S
C422 C418 1.350 1_545 S
C422 C419 1.463 . S
C422 N426 1.427 . S
C423 H413 0.929 . S
C423 C421 1.433 . S
C423 N426 1.384 . S
C424 H415 0.929 . S
C424 C416 1.378 . S
C424 C419 1.350 . S
C425 H412 0.929 . S
C425 C417 1.433 1_565 S
C425 N427 1.384 . S
N426 C422 1.427 . S
N426 C423 1.384 . S
N427 C419 1.427 1_565 S
N427 C425 1.384 . S
H428 C434 0.930 . S
H429 C438 0.930 . S
H430 C443 0.929 . S
H431 C441 0.929 . S
H432 C436 0.929 . S
H433 C442 0.929 . S
C434 H428 0.930 . S
C434 C435 1.367 . S
C434 C442 1.378 . S
C435 C434 1.367 . S
C435 C443 1.433 1_455 S
C436 H432 0.929 . S
C436 C438 1.378 . S
C436 C440 1.350 1_655 S
C437 C440 1.463 . S
C437 C442 1.350 . S
C437 N445 1.427 1_455 S
C438 H429 0.930 . S
C438 C436 1.378 . S
C438 C439 1.367 1_655 S
C439 C438 1.367 1_455 S
C439 C441 1.433 . S
C440 C436 1.350 1_455 S
C440 C437 1.463 . S
C440 N444 1.427 . S
C441 H431 0.929 . S
C441 C439 1.433 . S
C441 N444 1.384 . S
C442 H433 0.929 . S
C442 C434 1.378 . S
C442 C437 1.350 . S
C443 H430 0.929 . S
C443 C435 1.433 1_655 S
C443 N445 1.384 . S
N444 C440 1.427 . S
N444 C441 1.384 . S
N445 C437 1.427 1_655 S
N445 C443 1.384 . S
H446 C452 0.930 . S
H447 C456 0.930 . S
H448 C461 0.929 . S
H449 C459 0.929 . S
H450 C454 0.929 . S
H451 C460 0.929 . S
C452 H446 0.930 . S
C452 C453 1.367 1_565 S
C452 C460 1.378 . S
C453 C452 1.367 1_545 S
C453 C461 1.433 . S
C454 H450 0.929 . S
C454 C456 1.378 . S
C454 C458 1.350 . S
C455 C458 1.463 . S
C455 C460 1.350 1_545 S
C455 N463 1.427 . S
C456 H447 0.930 . S
C456 C454 1.378 . S
C456 C457 1.367 . S
C457 C456 1.367 . S
C457 C459 1.433 1_545 S
C458 C454 1.350 . S
C458 C455 1.463 . S
C458 N462 1.427 1_545 S
C459 H449 0.929 . S
C459 C457 1.433 1_565 S
C459 N462 1.384 . S
C460 H451 0.929 . S
C460 C452 1.378 . S
C460 C455 1.350 1_565 S
C461 H448 0.929 . S
C461 C453 1.433 . S
C461 N463 1.384 . S
N462 C458 1.427 1_565 S
N462 C459 1.384 . S
N463 C455 1.427 . S
N463 C461 1.384 . S
H464 C470 0.930 . S
H465 C474 0.930 . S
H466 C479 0.929 . S
H467 C477 0.929 . S
H468 C472 0.929 . S
H469 C478 0.929 . S
C470 H464 0.930 . S
C470 C471 1.367 . S
C470 C478 1.378 . S
C471 C470 1.367 . S
C471 C479 1.433 1_455 S
C472 H468 0.929 . S
C472 C474 1.378 . S
C472 C476 1.350 1_655 S
C473 C476 1.463 . S
C473 C478 1.350 . S
C473 N481 1.427 1_455 S
C474 H465 0.930 . S
C474 C472 1.378 . S
C474 C475 1.367 1_655 S
C475 C474 1.367 1_455 S
C475 C477 1.433 . S
C476 C472 1.350 1_455 S
C476 C473 1.463 . S
C476 N480 1.427 . S
C477 H467 0.929 . S
C477 C475 1.433 . S
C477 N480 1.384 . S
C478 H469 0.929 . S
C478 C470 1.378 . S
C478 C473 1.350 . S
C479 H466 0.929 . S
C479 C471 1.433 1_655 S
C479 N481 1.384 . S
N480 C476 1.427 . S
N480 C477 1.384 . S
N481 C473 1.427 1_655 S
N481 C479 1.384 . S
H482 C488 0.930 . S
H483 C492 0.930 . S
H484 C497 0.929 . S
H485 C495 0.929 . S
H486 C490 0.929 . S
H487 C496 0.929 . S
C488 H482 0.930 . S
C488 C489 1.367 . S
C488 C496 1.378 . S
C489 C488 1.367 . S
C489 C497 1.433 1_545 S
C490 H486 0.929 . S
C490 C492 1.378 . S
C490 C494 1.350 1_565 S
C491 C494 1.463 . S
C491 C496 1.350 . S
C491 N499 1.427 1_545 S
C492 H483 0.930 . S
C492 C490 1.378 . S
C492 C493 1.367 1_565 S
C493 C492 1.367 1_545 S
C493 C495 1.433 . S
C494 C490 1.350 1_545 S
C494 C491 1.463 . S
C494 N498 1.427 . S
C495 H485 0.929 . S
C495 C493 1.433 . S
C495 N498 1.384 . S
C496 H487 0.929 . S
C496 C488 1.378 . S
C496 C491 1.350 . S
C497 H484 0.929 . S
C497 C489 1.433 1_565 S
C497 N499 1.384 . S
N498 C494 1.427 . S
N498 C495 1.384 . S
N499 C491 1.427 1_565 S
N499 C497 1.384 . S
H500 C506 0.930 1_655 S
H501 C510 0.930 . S
H502 C515 0.929 . S
H503 C513 0.929 1_655 S
H504 C508 0.929 . S
H505 C514 0.929 1_655 S
C506 H500 0.930 1_455 S
C506 C507 1.367 . S
C506 C514 1.378 . S
C507 C506 1.367 . S
C507 C515 1.433 . S
C508 H504 0.929 . S
C508 C510 1.378 . S
C508 C512 1.350 . S
C509 C512 1.463 . S
C509 C514 1.350 . S
C509 N517 1.427 . S
C510 H501 0.930 . S
C510 C508 1.378 . S
C510 C511 1.367 . S
C511 C510 1.367 . S
C511 C513 1.433 . S
C512 C508 1.350 . S
C512 C509 1.463 . S
C512 N516 1.427 . S
C513 H503 0.929 1_455 S
C513 C511 1.433 . S
C513 N516 1.384 . S
C514 H505 0.929 1_455 S
C514 C506 1.378 . S
C514 C509 1.350 . S
C515 H502 0.929 . S
C515 C507 1.433 . S
C515 N517 1.384 . S
N516 C512 1.427 . S
N516 C513 1.384 . S
N517 C509 1.427 . S
N517 C515 1.384 . S
H518 C524 0.930 . S
H519 C528 0.930 . S
H520 C533 0.929 . S
H521 C531 0.929 . S
H522 C526 0.929 . S
H523 C532 0.929 . S
C524 H518 0.930 . S
C524 C525 1.367 1_565 S
C524 C532 1.378 . S
C525 C524 1.367 1_545 S
C525 C533 1.433 . S
C526 H522 0.929 . S
C526 C528 1.378 . S
C526 C530 1.350 . S
C527 C530 1.463 . S
C527 C532 1.350 1_545 S
C527 N535 1.427 . S
C528 H519 0.930 . S
C528 C526 1.378 . S
C528 C529 1.367 . S
C529 C528 1.367 . S
C529 C531 1.433 1_545 S
C530 C526 1.350 . S
C530 C527 1.463 . S
C530 N534 1.427 1_545 S
C531 H521 0.929 . S
C531 C529 1.433 1_565 S
C531 N534 1.384 . S
C532 H523 0.929 . S
C532 C524 1.378 . S
C532 C527 1.350 1_565 S
C533 H520 0.929 . S
C533 C525 1.433 . S
C533 N535 1.384 . S
N534 C530 1.427 1_565 S
N534 C531 1.384 . S
N535 C527 1.427 . S
N535 C533 1.384 . S
H536 C542 0.930 . S
H537 C546 0.930 . S
H538 C551 0.929 . S
H539 C549 0.929 . S
H540 C544 0.929 . S
H541 C550 0.929 . S
C542 H536 0.930 . S
C542 C543 1.367 1_554 S
C542 C550 1.378 . S
C543 C542 1.367 1_556 S
C543 C551 1.433 . S
C544 H540 0.929 . S
C544 C546 1.378 . S
C544 C548 1.350 . S
C545 C548 1.463 . S
C545 C550 1.350 1_556 S
C545 N553 1.427 . S
C546 H537 0.930 . S
C546 C544 1.378 . S
C546 C547 1.367 . S
C547 C546 1.367 . S
C547 C549 1.433 1_556 S
C548 C544 1.350 . S
C548 C545 1.463 . S
C548 N552 1.427 1_556 S
C549 H539 0.929 . S
C549 C547 1.433 1_554 S
C549 N552 1.384 . S
C550 H541 0.929 . S
C550 C542 1.378 . S
C550 C545 1.350 1_554 S
C551 H538 0.929 . S
C551 C543 1.433 . S
C551 N553 1.384 . S
N552 C548 1.427 1_554 S
N552 C549 1.384 . S
N553 C545 1.427 . S
N553 C551 1.384 . S
H554 C560 0.930 . S
H555 C564 0.930 . S
H556 C569 0.929 . S
H557 C567 0.929 . S
H558 C562 0.929 . S
H559 C568 0.929 . S
C560 H554 0.930 . S
C560 C561 1.367 . S
C560 C568 1.378 . S
C561 C560 1.367 . S
C561 C569 1.433 1_554 S
C562 H558 0.929 . S
C562 C564 1.378 . S
C562 C566 1.350 1_556 S
C563 C566 1.463 . S
C563 C568 1.350 . S
C563 N571 1.427 1_554 S
C564 H555 0.930 . S
C564 C562 1.378 . S
C564 C565 1.382 . S
C565 C564 1.382 . S
C565 C567 1.418 1_556 S
C566 C562 1.350 1_554 S
C566 C563 1.463 . S
C566 N570 1.427 . S
C567 H557 0.929 . S
C567 C565 1.418 1_554 S
C567 N570 1.384 . S
C568 H559 0.929 . S
C568 C560 1.378 . S
C568 C563 1.350 . S
C569 H556 0.929 . S
C569 C561 1.433 1_556 S
C569 N571 1.384 . S
N570 C566 1.427 . S
N570 C567 1.384 . S
N571 C563 1.427 1_556 S
N571 C569 1.384 . S
H572 C578 0.930 . S
H573 C582 0.930 . S
H574 C587 0.929 . S
H575 C585 0.929 . S
H576 C580 0.929 . S
H577 C586 0.929 . S
C578 H572 0.930 . S
C578 C579 1.367 . S
C578 C586 1.378 . S
C579 C578 1.367 . S
C579 C587 1.433 1_554 S
C580 H576 0.929 . S
C580 C582 1.378 . S
C580 C584 1.350 1_556 S
C581 C584 1.463 . S
C581 C586 1.350 . S
C581 N589 1.427 1_554 S
C582 H573 0.930 . S
C582 C580 1.378 . S
C582 C583 1.367 1_556 S
C583 C582 1.367 1_554 S
C583 C585 1.433 . S
C584 C580 1.350 1_554 S
C584 C581 1.463 . S
C584 N588 1.427 . S
C585 H575 0.929 . S
C585 C583 1.433 . S
C585 N588 1.384 . S
C586 H577 0.929 . S
C586 C578 1.378 . S
C586 C581 1.350 . S
C587 H574 0.929 . S
C587 C579 1.433 1_556 S
C587 N589 1.384 . S
N588 C584 1.427 . S
N588 C585 1.384 . S
N589 C581 1.427 1_556 S
N589 C587 1.384 . S
H590 C596 0.930 . S
H591 C600 0.930 . S
H592 C605 0.929 . S
H593 C603 0.929 . S
H594 C598 0.929 . S
H595 C604 0.929 . S
C596 H590 0.930 . S
C596 C597 1.367 1_554 S
C596 C604 1.378 . S
C597 C596 1.367 1_556 S
C597 C605 1.433 . S
C598 H594 0.929 . S
C598 C600 1.378 . S
C598 C602 1.350 . S
C599 C602 1.463 . S
C599 C604 1.350 1_556 S
C599 N607 1.427 . S
C600 H591 0.930 . S
C600 C598 1.378 . S
C600 C601 1.367 . S
C601 C600 1.367 . S
C601 C603 1.433 1_556 S
C602 C598 1.350 . S
C602 C599 1.463 . S
C602 N606 1.427 1_556 S
C603 H593 0.929 . S
C603 C601 1.433 1_554 S
C603 N606 1.384 . S
C604 H595 0.929 . S
C604 C596 1.378 . S
C604 C599 1.350 1_554 S
C605 H592 0.929 . S
C605 C597 1.433 . S
C605 N607 1.384 . S
N606 C602 1.427 1_554 S
N606 C603 1.384 . S
N607 C599 1.427 . S
N607 C605 1.384 . S
C403 C343 1.506 . S
C399 C11 0.868 1_455 S
C421 C350 1.480 . S
C417 C143 1.191 . S
C439 C345 1.271 . S
C435 C1 0.962 . S
C457 C351 1.609 . S
C453 C169 1.192 . S
C471 C29 1.133 . S
C475 C344 1.385 . S
C493 C353 1.593 . S
C489 C125 0.944 1_545 S
C507 C55 1.150 . S
C511 C342 1.519 . S
C525 C115 1.067 . S
C529 C352 1.363 . S
C543 C283 1.284 1_556 S
C547 C347 1.708 1_556 S
C561 C239 0.982 . S
C565 C346 1.696 . S
C583 C349 1.573 . S
C579 C257 1.287 1_554 S
C601 C348 1.457 1_556 S
C597 C229 1.119 . S
