# Generated by pormake.
# Topology dag, (6,3)-cn, num edge types: 1
# Building blocks:
#     Node 0, Type 0, BuildingBlock: MIDCAF_clean_sbu_0, # of connection points: 6
#     Node 1, Type 0, BuildingBlock: MIDCAF_clean_sbu_0, # of connection points: 6
#     Node 2, Type 0, BuildingBlock: MIDCAF_clean_sbu_0, # of connection points: 6
#     Node 3, Type 0, BuildingBlock: MIDCAF_clean_sbu_0, # of connection points: 6
#     Node 4, Type 1, BuildingBlock: PAMTOO_clean_linker_0, # of connection points: 3
#     Node 5, Type 1, BuildingBlock: PAMTOO_clean_linker_0, # of connection points: 3
#     Node 6, Type 1, BuildingBlock: PAMTOO_clean_linker_0, # of connection points: 3
#     Node 7, Type 1, BuildingBlock: PAMTOO_clean_linker_0, # of connection points: 3
#     Node 8, Type 1, BuildingBlock: PAMTOO_clean_linker_0, # of connection points: 3
#     Node 9, Type 1, BuildingBlock: PAMTOO_clean_linker_0, # of connection points: 3
#     Node 10, Type 1, BuildingBlock: PAMTOO_clean_linker_0, # of connection points: 3
#     Node 11, Type 1, BuildingBlock: PAMTOO_clean_linker_0, # of connection points: 3
#     Edge 12, Type (0, 1), BuildingBlock: AJUNOK_clean_linker_0, # of connection points: 2
#     Edge 13, Type (0, 1), BuildingBlock: AJUNOK_clean_linker_0, # of connection points: 2
#     Edge 14, Type (0, 1), BuildingBlock: AJUNOK_clean_linker_0, # of connection points: 2
#     Edge 15, Type (0, 1), BuildingBlock: AJUNOK_clean_linker_0, # of connection points: 2
#     Edge 16, Type (0, 1), BuildingBlock: AJUNOK_clean_linker_0, # of connection points: 2
#     Edge 17, Type (0, 1), BuildingBlock: AJUNOK_clean_linker_0, # of connection points: 2
#     Edge 18, Type (0, 1), BuildingBlock: AJUNOK_clean_linker_0, # of connection points: 2
#     Edge 19, Type (0, 1), BuildingBlock: AJUNOK_clean_linker_0, # of connection points: 2
#     Edge 20, Type (0, 1), BuildingBlock: AJUNOK_clean_linker_0, # of connection points: 2
#     Edge 21, Type (0, 1), BuildingBlock: AJUNOK_clean_linker_0, # of connection points: 2
#     Edge 22, Type (0, 1), BuildingBlock: AJUNOK_clean_linker_0, # of connection points: 2
#     Edge 23, Type (0, 1), BuildingBlock: AJUNOK_clean_linker_0, # of connection points: 2
#     Edge 24, Type (0, 1), BuildingBlock: AJUNOK_clean_linker_0, # of connection points: 2
#     Edge 25, Type (0, 1), BuildingBlock: AJUNOK_clean_linker_0, # of connection points: 2
#     Edge 26, Type (0, 1), BuildingBlock: AJUNOK_clean_linker_0, # of connection points: 2
#     Edge 27, Type (0, 1), BuildingBlock: AJUNOK_clean_linker_0, # of connection points: 2
#     Edge 28, Type (0, 1), BuildingBlock: AJUNOK_clean_linker_0, # of connection points: 2
#     Edge 29, Type (0, 1), BuildingBlock: AJUNOK_clean_linker_0, # of connection points: 2
#     Edge 30, Type (0, 1), BuildingBlock: AJUNOK_clean_linker_0, # of connection points: 2
#     Edge 31, Type (0, 1), BuildingBlock: AJUNOK_clean_linker_0, # of connection points: 2
#     Edge 32, Type (0, 1), BuildingBlock: AJUNOK_clean_linker_0, # of connection points: 2
#     Edge 33, Type (0, 1), BuildingBlock: AJUNOK_clean_linker_0, # of connection points: 2
#     Edge 34, Type (0, 1), BuildingBlock: AJUNOK_clean_linker_0, # of connection points: 2
#     Edge 35, Type (0, 1), BuildingBlock: AJUNOK_clean_linker_0, # of connection points: 2
# Relax obj value: 0.132
# Max RMSD: 0.142
# Mean RMSD: 0.116
data_MOF--net-dag--node1-MIDCAF_clean_sbu_0--node2-PAMTOO_clean_linker_0--edge1-AJUNOK_clean_linker_0
_symmetry_space_group_name_H-M    P1
_symmetry_Int_Tables_number       1
_symmetry_cell_setting            triclinic
loop_
_symmetry_equiv_pos_as_xyz
'x, y, z'
_cell_length_a     29.488597
_cell_length_b     30.485172
_cell_length_c     23.114194
_cell_angle_alpha  89.464379
_cell_angle_beta   93.237661
_cell_angle_gamma 89.454387
loop_
_atom_site_label
_atom_site_type_symbol
_atom_site_fract_x
_atom_site_fract_y
_atom_site_fract_z
_atom_type_partial_charge
Zn0 Zn 0.12528 0.81122 0.10206 0.0
Zn1 Zn 0.12396 0.84176 0.9043 0.0
Zn2 Zn 0.12298 0.83423 1.00739 0.0
C3 C 0.13905 0.92514 0.94645 0.0
C4 C 0.03627 0.81853 0.92114 0.0
O5 O 0.16852 0.77503 0.03056 0.0
O6 O 0.13523 0.74751 0.10538 0.0
C7 C 0.17606 0.88548 0.10363 0.0
O8 O 0.1432 0.90338 0.99457 0.0
O9 O 0.12819 0.90562 0.89998 0.0
O10 O 0.06402 0.81725 0.88158 0.0
O11 O 0.05101 0.82657 0.97359 0.0
O12 O 0.17772 0.84829 0.1282 0.0
O13 O 0.15293 0.89008 0.05493 0.0
O14 O 0.05044 0.83279 0.03414 0.0
O15 O 0.06759 0.832 0.12799 0.0
C16 C 0.03826 0.83684 0.08671 0.0
O17 O 0.17066 0.7845 0.97024 0.0
O18 O 0.17758 0.81017 0.88168 0.0
C19 C 0.16586 0.74467 0.06975 0.0
C20 C 0.18962 0.78319 0.92121 0.0
Zn21 Zn 0.66779 0.64409 0.41641 0.0
Zn22 Zn 0.68019 0.65896 0.63237 0.0
Zn23 Zn 0.65946 0.65516 0.52425 0.0
C24 C 0.70491 0.577 0.61168 0.0
C25 C 0.58338 0.66968 0.61137 0.0
O26 O 0.69722 0.71083 0.48318 0.0
O27 O 0.70948 0.68959 0.39417 0.0
C28 C 0.68687 0.56426 0.4557 0.0
O29 O 0.68987 0.59193 0.56158 0.0
O30 O 0.70597 0.60176 0.65499 0.0
O31 O 0.61543 0.6692 0.6501 0.0
O32 O 0.59212 0.66512 0.55781 0.0
O33 O 0.68719 0.58317 0.40713 0.0
O34 O 0.67895 0.58646 0.5015 0.0
O35 O 0.58811 0.65984 0.49484 0.0
O36 O 0.60091 0.65542 0.40182 0.0
C37 C 0.57331 0.65981 0.44141 0.0
O38 O 0.69869 0.71587 0.54525 0.0
O39 O 0.72073 0.70894 0.63793 0.0
C40 C 0.71414 0.71773 0.4335 0.0
C41 C 0.71966 0.73079 0.5914 0.0
Zn42 Zn 0.87825 0.11125 1.00763 0.0
Zn43 Zn 0.8665 0.23311 0.15478 0.0
Zn44 Zn 0.83832 0.15839 0.06492 0.0
C45 C 0.93251 0.16514 0.13995 0.0
C46 C 0.8146 0.1643 0.18753 0.0
O47 O 0.83733 0.19514 0.98531 0.0
O48 O 0.83855 0.13445 0.93572 0.0
C49 C 0.93003 0.18129 1.00926 0.0
O50 O 0.90029 0.14214 0.11654 0.0
O51 O 0.92821 0.20654 0.14403 0.0
O52 O 0.838 0.1923 0.21564 0.0
O53 O 0.80129 0.1754 0.136 0.0
O54 O 0.93831 0.14048 0.0137 0.0
O55 O 0.89052 0.19612 0.02015 0.0
O56 O 0.80339 0.09976 0.03436 0.0
O57 O 0.86091 0.05504 0.04877 0.0
C58 C 0.81876 0.06052 0.03758 0.0
O59 O 0.78722 0.20637 0.08908 0.0
O60 O 0.82845 0.26555 0.08921 0.0
C61 C 0.82944 0.17518 0.93735 0.0
C62 C 0.7895 0.24842 0.08395 0.0
Zn63 Zn 0.37236 0.31698 0.63517 0.0
Zn64 Zn 0.32726 0.30438 0.4172 0.0
Zn65 Zn 0.35076 0.31951 0.52427 0.0
C66 C 0.41988 0.28807 0.43018 0.0
C67 C 0.31545 0.39434 0.43376 0.0
O68 O 0.30733 0.27433 0.57335 0.0
O69 O 0.33475 0.27008 0.66441 0.0
C70 C 0.45334 0.30599 0.5862 0.0
O71 O 0.41245 0.30084 0.48177 0.0
O72 O 0.38727 0.28382 0.39292 0.0
O73 O 0.31145 0.36499 0.39583 0.0
O74 O 0.32788 0.38409 0.48663 0.0
O75 O 0.43824 0.30698 0.63607 0.0
O76 O 0.42592 0.30956 0.54077 0.0
O77 O 0.33627 0.38709 0.54859 0.0
O78 O 0.35101 0.379 0.64306 0.0
C79 C 0.33823 0.40294 0.60008 0.0
O80 O 0.29791 0.26713 0.51422 0.0
O81 O 0.27735 0.26332 0.4209 0.0
C82 C 0.30599 0.25855 0.62528 0.0
C83 C 0.27286 0.25083 0.4723 0.0
H84 H 0.1113 0.045 0.17285 0.0
H85 H 0.10445 0.13145 0.31808 0.0
H86 H 0.21448 0.03865 0.31085 0.0
H87 H 0.18394 0.0683 0.44072 0.0
C88 C 0.17045 0.10015 0.42308 0.0
O89 O 0.18262 0.10563 0.36668 0.0
H90 H 0.13281 0.10023 0.42505 0.0
C91 C 0.12485 0.05682 0.21396 0.0
C92 C 0.16532 0.03833 0.23797 0.0
C93 C 0.10137 0.0893 0.24293 0.0
C94 C 0.12084 0.10521 0.29556 0.0
C95 C 0.16162 0.08704 0.31985 0.0
C96 C 0.18321 0.05282 0.29177 0.0
H97 H 0.40646 0.58843 0.61833 0.0
H98 H 0.28212 0.59671 0.70796 0.0
H99 H 0.38267 0.69676 0.72989 0.0
H100 H 0.34728 0.66143 0.83665 0.0
C101 C 0.31091 0.65764 0.82214 0.0
O102 O 0.30469 0.66779 0.76371 0.0
H103 H 0.30142 0.62292 0.82946 0.0
C104 C 0.38355 0.60595 0.64525 0.0
C105 C 0.39768 0.64592 0.66917 0.0
C106 C 0.34245 0.58678 0.65973 0.0
C107 C 0.31467 0.60964 0.6972 0.0
C108 C 0.32955 0.64868 0.7233 0.0
C109 C 0.37088 0.66702 0.70886 0.0
H110 H 0.89204 0.97545 0.15654 0.0
H111 H 0.79829 0.96927 0.29148 0.0
H112 H 0.85779 0.85055 0.23228 0.0
H113 H 0.75457 0.85742 0.26174 0.0
C114 C 0.76302 0.87111 0.30549 0.0
O115 O 0.80753 0.88475 0.30962 0.0
H116 H 0.74055 0.90002 0.31127 0.0
C117 C 0.87301 0.95573 0.18553 0.0
C118 C 0.87912 0.90974 0.18837 0.0
C119 C 0.8428 0.97701 0.22125 0.0
C120 C 0.8203 0.95282 0.26237 0.0
C121 C 0.82647 0.90741 0.26669 0.0
C122 C 0.8544 0.88587 0.22867 0.0
H123 H 0.65282 0.39489 0.56878 0.0
H124 H 0.65317 0.27902 0.6779 0.0
H125 H 0.75864 0.3734 0.7014 0.0
H126 H 0.79417 0.28322 0.70591 0.0
C127 C 0.76467 0.26606 0.72337 0.0
O128 O 0.7305 0.29598 0.73273 0.0
H129 H 0.75208 0.24173 0.69078 0.0
C130 C 0.66857 0.37392 0.60245 0.0
C131 C 0.70765 0.38873 0.63325 0.0
C132 C 0.64647 0.33583 0.62039 0.0
C133 C 0.66904 0.30852 0.66268 0.0
C134 C 0.71073 0.32098 0.68952 0.0
C135 C 0.72915 0.36177 0.67616 0.0
H136 H 0.60437 0.36301 0.45377 0.0
H137 H 0.61189 0.28742 0.29873 0.0
H138 H 0.69955 0.39678 0.32514 0.0
H139 H 0.66418 0.38337 0.20349 0.0
C140 C 0.66047 0.34711 0.20569 0.0
O141 O 0.67861 0.3314 0.25829 0.0
H142 H 0.62364 0.33949 0.20034 0.0
C143 C 0.62042 0.35677 0.41362 0.0
C144 C 0.6543 0.38499 0.39467 0.0
C145 C 0.6037 0.32284 0.37795 0.0
C146 C 0.6248 0.31331 0.32679 0.0
C147 C 0.65986 0.33961 0.3089 0.0
C148 C 0.67426 0.37542 0.34216 0.0
H149 H 0.0666 0.12149 0.94282 0.0
H150 H 0.09867 0.22929 0.834 0.0
H151 H 0.18619 0.11638 0.84302 0.0
H152 H 0.12359 0.19122 0.71563 0.0
C153 C 0.15672 0.17647 0.73141 0.0
O154 O 0.16675 0.18901 0.78795 0.0
H155 H 0.15401 0.14013 0.72868 0.0
C156 C 0.09078 0.13618 0.91532 0.0
C157 C 0.12883 0.11241 0.89816 0.0
C158 C 0.08157 0.17912 0.89524 0.0
C159 C 0.10713 0.19715 0.85214 0.0
C160 C 0.14374 0.1733 0.83229 0.0
C161 C 0.15612 0.13258 0.85747 0.0
H162 H 0.38836 0.57382 0.41627 0.0
H163 H 0.36959 0.6871 0.30325 0.0
H164 H 0.27525 0.5811 0.292 0.0
H165 H 0.30781 0.60844 0.18396 0.0
C166 C 0.30896 0.64467 0.18941 0.0
O167 O 0.29892 0.65551 0.24534 0.0
H168 H 0.34392 0.6555 0.18121 0.0
C169 C 0.36843 0.59297 0.38409 0.0
C170 C 0.32852 0.57474 0.35962 0.0
C171 C 0.38483 0.63313 0.36375 0.0
C172 C 0.35916 0.65545 0.319 0.0
C173 C 0.32029 0.6363 0.29249 0.0
C174 C 0.30465 0.59629 0.31344 0.0
H175 H 0.84964 0.89383 0.93861 0.0
H176 H 0.84565 0.84536 0.76514 0.0
H177 H 0.75336 0.9473 0.80964 0.0
H178 H 0.73254 0.92688 0.67394 0.0
C179 C 0.74311 0.89642 0.698 0.0
O180 O 0.78569 0.90324 0.7244 0.0
H181 H 0.71764 0.89063 0.731 0.0
C182 C 0.83222 0.89184 0.89624 0.0
C183 C 0.79651 0.92145 0.88121 0.0
C184 C 0.85006 0.86398 0.85511 0.0
C185 C 0.83091 0.86518 0.79794 0.0
C186 C 0.79663 0.8957 0.78145 0.0
C187 C 0.77916 0.92325 0.82324 0.0
C188 C 0.18079 0.92101 0.19961 0.0
C189 C 0.18819 0.92379 0.13988 0.0
C190 C 0.17877 0.9586 0.23346 0.0
C191 C 0.18445 0.00016 0.20889 0.0
H192 H 0.17233 0.89004 0.21948 0.0
H193 H 0.16849 0.95539 0.27757 0.0
S194 S 0.2203 0.02401 0.06094 0.0
N195 N 0.21243 0.97036 0.06178 0.0
N196 N 0.20797 0.0416 0.12569 0.0
C197 C 0.19764 0.00306 0.15149 0.0
C198 C 0.19968 0.96465 0.11683 0.0
C199 C 0.50004 0.68707 0.59386 0.0
C200 C 0.53609 0.67015 0.63008 0.0
C201 C 0.45465 0.6815 0.60799 0.0
C202 C 0.44427 0.66043 0.6599 0.0
H203 H 0.5069 0.70331 0.55348 0.0
H204 H 0.42759 0.69228 0.57735 0.0
S205 S 0.52576 0.61451 0.77257 0.0
N206 N 0.55786 0.63394 0.7222 0.0
N207 N 0.4729 0.62545 0.74925 0.0
C208 C 0.47988 0.64627 0.69829 0.0
C209 C 0.52579 0.65095 0.6835 0.0
C210 C 0.78931 0.08679 0.17821 0.0
C211 C 0.82067 0.11704 0.20211 0.0
C212 C 0.79608 0.04149 0.18603 0.0
C213 C 0.8352 0.02485 0.21635 0.0
H214 H 0.75946 0.09823 0.15277 0.0
H215 H 0.77089 0.01935 0.16744 0.0
S216 S 0.92594 0.08928 0.29172 0.0
N217 N 0.89078 0.12659 0.26177 0.0
N218 N 0.90415 0.04127 0.27372 0.0
C219 C 0.8662 0.0544 0.24189 0.0
C220 C 0.85879 0.10058 0.23545 0.0
C221 C 0.53353 0.27786 0.58886 0.0
C222 C 0.50236 0.31289 0.58255 0.0
C223 C 0.5804 0.2855 0.59685 0.0
C224 C 0.59752 0.32846 0.60239 0.0
H225 H 0.52152 0.24439 0.58874 0.0
H226 H 0.60316 0.25743 0.60081 0.0
S227 S 0.52731 0.43092 0.59828 0.0
N228 N 0.49053 0.39142 0.58477 0.0
N229 N 0.57735 0.40632 0.60637 0.0
C230 C 0.56591 0.36372 0.59733 0.0
C231 C 0.51868 0.35576 0.58627 0.0
C232 C 0.7169 0.48937 0.43655 0.0
C233 C 0.68221 0.51636 0.4558 0.0
C234 C 0.70863 0.44536 0.42277 0.0
C235 C 0.66462 0.42758 0.42403 0.0
H236 H 0.7502 0.50276 0.43041 0.0
H237 H 0.73645 0.42591 0.40772 0.0
S238 S 0.56198 0.48697 0.47013 0.0
N239 N 0.6033 0.52283 0.47831 0.0
N240 N 0.58592 0.44191 0.44657 0.0
C241 C 0.62998 0.45439 0.44518 0.0
C242 C 0.6392 0.49845 0.46203 0.0
C243 C 0.96115 0.20624 0.91945 0.0
C244 C 0.9633 0.2077 0.98037 0.0
C245 C 0.00101 0.20355 0.88926 0.0
C246 C 0.04364 0.20312 0.91952 0.0
H247 H 0.92899 0.20026 0.8959 0.0
H248 H -0.00165 0.19613 0.84345 0.0
S249 S 0.06676 0.21949 0.07668 0.0
N250 N 0.01079 0.21852 0.06792 0.0
N251 N 0.0858 0.21421 0.01125 0.0
C252 C 0.04592 0.21223 0.97894 0.0
C253 C 0.00549 0.21458 1.0095 0.0
C254 C 0.29396 0.47411 0.4437 0.0
C255 C 0.31423 0.4403 0.41295 0.0
C256 C 0.29668 0.51808 0.42512 0.0
C257 C 0.31844 0.52893 0.37435 0.0
H258 H 0.27691 0.46663 0.48282 0.0
H259 H 0.28278 0.54374 0.45118 0.0
S260 S 0.37535 0.45268 0.27748 0.0
N261 N 0.35619 0.42097 0.32876 0.0
N262 N 0.3594 0.503 0.29323 0.0
C263 C 0.33701 0.49534 0.34212 0.0
C264 C 0.33514 0.45107 0.36139 0.0
C265 C 0.97484 0.83801 0.8475 0.0
C266 C 0.98722 0.82078 0.90301 0.0
C267 C 0.92985 0.84872 0.83097 0.0
C268 C 0.89491 0.8423 0.86893 0.0
H269 H 0.00047 0.84612 0.81747 0.0
H270 H 0.92308 0.86503 0.7895 0.0
S271 S 0.90754 0.78893 0.01408 0.0
N272 N 0.95996 0.79119 0.99244 0.0
N273 N 0.87468 0.8113 0.96131 0.0
C274 C 0.90611 0.82159 0.92276 0.0
C275 C 0.95236 0.81082 0.93979 0.0
C276 C 0.7858 0.03455 0.944 0.0
C277 C 0.7953 0.02619 1.00335 0.0
C278 C 0.78157 0.00018 0.90447 0.0
C279 C 0.78509 0.95614 0.92326 0.0
H280 H 0.78657 0.0677 0.92699 0.0
H281 H 0.77996 0.00857 0.8588 0.0
S282 S 0.79214 0.91777 0.07636 0.0
N283 N 0.79791 0.97154 0.08036 0.0
N284 N 0.78508 0.90671 1.00666 0.0
C285 C 0.78679 0.94774 0.98342 0.0
C286 C 0.79322 0.9828 0.02342 0.0
C287 C 0.50289 0.27228 0.44723 0.0
C288 C 0.46657 0.28807 0.41078 0.0
C289 C 0.54804 0.28172 0.43559 0.0
C290 C 0.5578 0.30603 0.38601 0.0
H291 H 0.49601 0.25361 0.48562 0.0
H292 H 0.57526 0.27109 0.46608 0.0
S293 S 0.47488 0.3516 0.27419 0.0
N294 N 0.44348 0.32699 0.32142 0.0
N295 N 0.52803 0.34344 0.29848 0.0
C296 C 0.52186 0.31927 0.34713 0.0
C297 C 0.4762 0.31033 0.35951 0.0
C298 C 0.1615 0.9912 0.89262 0.0
C299 C 0.14392 0.97319 0.94267 0.0
C300 C 0.15782 0.03601 0.87998 0.0
C301 C 0.13739 0.06554 0.91759 0.0
H302 H 0.17616 0.97 0.86107 0.0
H303 H 0.16904 0.04664 0.83844 0.0
S304 S 0.08823 0.03416 0.05689 0.0
N305 N 0.10511 0.98719 0.03018 0.0
N306 N 0.10321 0.07252 0.01118 0.0
C307 C 0.12215 0.0479 0.97007 0.0
C308 C 0.12424 0.00161 0.98149 0.0
C309 C 0.49249 0.64378 0.46156 0.0
C310 C 0.52402 0.66084 0.42433 0.0
C311 C 0.44673 0.63877 0.44313 0.0
C312 C 0.431 0.64803 0.38537 0.0
H313 H 0.50366 0.63183 0.50424 0.0
H314 H 0.42404 0.62541 0.47389 0.0
S315 S 0.50074 0.69384 0.27035 0.0
N316 N 0.53605 0.68989 0.32812 0.0
N317 N 0.45172 0.6756 0.29116 0.0
C318 C 0.46227 0.66596 0.34789 0.0
C319 C 0.50836 0.67307 0.36771 0.0
C320 C 0.34492 0.48189 0.57192 0.0
C321 C 0.33009 0.45009 0.61061 0.0
C322 C 0.34495 0.52653 0.58609 0.0
C323 C 0.33226 0.54095 0.64083 0.0
H324 H 0.35919 0.47205 0.53187 0.0
H325 H 0.35732 0.54962 0.55491 0.0
S326 S 0.28985 0.46988 0.75739 0.0
N327 N 0.29941 0.43589 0.70422 0.0
N328 N 0.30352 0.51888 0.73349 0.0
C329 C 0.31607 0.50932 0.6793 0.0
C330 C 0.31443 0.46413 0.66379 0.0
C331 C 0.97754 0.83397 0.15604 0.0
C332 C 0.99176 0.84913 0.10243 0.0
C333 C 0.94035 0.85265 0.18177 0.0
C334 C 0.91464 0.88707 0.1548 0.0
H335 H -0.0029 0.80897 0.1803 0.0
H336 H 0.93367 0.84138 0.22497 0.0
S337 S 0.93382 0.93448 1.00919 0.0
N338 N 0.97545 0.89823 0.02051 0.0
N339 N 0.9033 0.93183 0.06687 0.0
C340 C 0.92646 0.90043 0.09875 0.0
C341 C 0.96532 0.88172 0.07295 0.0
C342 C 0.73451 0.50351 0.58112 0.0
C343 C 0.71286 0.52946 0.62151 0.0
C344 C 0.73529 0.45743 0.58609 0.0
C345 C 0.71598 0.43637 0.63298 0.0
H346 H 0.75003 0.51897 0.54499 0.0
H347 H 0.7498 0.43819 0.55245 0.0
S348 S 0.65843 0.48938 0.75272 0.0
N349 N 0.67357 0.53051 0.71132 0.0
N350 N 0.67685 0.44454 0.7218 0.0
C351 C 0.69694 0.4621 0.6755 0.0
C352 C 0.69521 0.50858 0.66977 0.0
C353 C 0.00889 0.17066 0.19195 0.0
C354 C 0.97543 0.14428 0.164 0.0
C355 C 0.04911 0.15264 0.21732 0.0
C356 C 0.05748 0.10724 0.21702 0.0
H357 H 0.00427 0.20587 0.19427 0.0
H358 H 0.07409 0.17469 0.23671 0.0
S359 S 0.97972 0.02292 0.15334 0.0
N360 N 0.95317 0.06996 0.13861 0.0
N361 N 0.02757 0.03569 0.18946 0.0
C362 C 0.02395 0.08016 0.19035 0.0
C363 C 0.98329 0.09871 0.16319 0.0
C364 C 0.19407 0.67492 0.11596 0.0
C365 C 0.20327 0.71285 0.08356 0.0
C366 C 0.22883 0.65175 0.14712 0.0
C367 C 0.27411 0.6656 0.14714 0.0
H368 H 0.15931 0.66484 0.12059 0.0
H369 H 0.21992 0.62423 0.17409 0.0
S370 S 0.31727 0.75873 0.0624 0.0
N371 N 0.26179 0.76012 0.04804 0.0
N372 N 0.32719 0.71644 0.10666 0.0
C373 C 0.28437 0.70118 0.1111 0.0
C374 C 0.24892 0.72469 0.07898 0.0
C375 C 0.77313 0.78876 0.62397 0.0
C376 C 0.73109 0.77735 0.59691 0.0
C377 C 0.77863 0.82885 0.65273 0.0
C378 C 0.74187 0.85838 0.65637 0.0
H379 H 0.80082 0.76507 0.62692 0.0
H380 H 0.81107 0.83527 0.67481 0.0
S381 S 0.62602 0.84519 0.58852 0.0
N382 N 0.65327 0.79988 0.57189 0.0
N383 N 0.66356 0.87525 0.62558 0.0
C384 C 0.70091 0.84879 0.62528 0.0
C385 C 0.6955 0.80826 0.59559 0.0
C386 C 0.75613 0.32096 0.10887 0.0
C387 C 0.74993 0.27585 0.09843 0.0
C388 C 0.72487 0.3451 0.13933 0.0
C389 C 0.68581 0.3253 0.15918 0.0
H390 H 0.78709 0.33703 0.09764 0.0
H391 H 0.73286 0.37863 0.15082 0.0
S392 S 0.64879 0.21105 0.13325 0.0
N393 N 0.69788 0.21438 0.10258 0.0
N394 N 0.63933 0.26008 0.16009 0.0
C395 C 0.67675 0.28169 0.1439 0.0
C396 C 0.70861 0.25695 0.11302 0.0
C397 C 0.22339 0.24371 0.62611 0.0
C398 C 0.26832 0.23068 0.64151 0.0
C399 C 0.18691 0.22451 0.65295 0.0
C400 C 0.19443 0.19125 0.69508 0.0
H401 H 0.2166 0.27097 0.59635 0.0
H402 H 0.15294 0.23719 0.64273 0.0
S403 S 0.30518 0.14078 0.74286 0.0
N404 N 0.31806 0.17951 0.69625 0.0
N405 N 0.24933 0.1425 0.7455 0.0
C406 C 0.23888 0.17548 0.70693 0.0
C407 C 0.27594 0.19547 0.68043 0.0
C408 C 0.77222 0.7609 0.38492 0.0
C409 C 0.73309 0.7604 0.41704 0.0
C410 C 0.78327 0.79786 0.35213 0.0
C411 C 0.75546 0.83564 0.35005 0.0
H412 H 0.7928 0.73145 0.38206 0.0
H413 H 0.81232 0.79595 0.32556 0.0
S414 S 0.64972 0.85122 0.42744 0.0
N415 N 0.66713 0.80109 0.44576 0.0
N416 N 0.68801 0.87085 0.38489 0.0
C417 C 0.71749 0.83634 0.38434 0.0
C418 C 0.70638 0.7987 0.41787 0.0
C419 C 0.79722 0.17572 0.83468 0.0
C420 C 0.81283 0.19926 0.88393 0.0
C421 C 0.78121 0.19736 0.7836 0.0
C422 C 0.78023 0.24342 0.77962 0.0
H423 H 0.79717 0.14018 0.83552 0.0
H424 H 0.76973 0.17781 0.74681 0.0
S425 S 0.81828 0.32062 0.89503 0.0
N426 N 0.82668 0.27157 0.92485 0.0
N427 N 0.79711 0.31196 0.82848 0.0
C428 C 0.79598 0.26741 0.8282 0.0
C429 C 0.81203 0.24544 0.88043 0.0
C430 C 0.19725 0.21809 0.45451 0.0
C431 C 0.24103 0.21502 0.48157 0.0
C432 C 0.17176 0.18045 0.44264 0.0
C433 C 0.18964 0.13851 0.45652 0.0
H434 H 0.18431 0.2494 0.43783 0.0
H435 H 0.13995 0.18386 0.41707 0.0
S436 S 0.29933 0.11388 0.53719 0.0
N437 N 0.29841 0.16784 0.52984 0.0
N438 N 0.25093 0.0966 0.50629 0.0
C439 C 0.23132 0.13543 0.48913 0.0
C440 C 0.25695 0.17395 0.50209 0.0
C441 C 0.26139 0.76431 0.87627 0.0
C442 C 0.22481 0.75055 0.90829 0.0
C443 C 0.29005 0.73399 0.85116 0.0
C444 C 0.28283 0.68871 0.85634 0.0
H445 H 0.26675 0.79894 0.8685 0.0
H446 H 0.3169 0.74605 0.82528 0.0
S447 S 0.19441 0.63566 0.94038 0.0
N448 N 0.18485 0.68877 0.94749 0.0
N449 N 0.23883 0.63136 0.90021 0.0
C450 C 0.24803 0.67437 0.89113 0.0
C451 C 0.21898 0.70543 0.9172 0.0
loop_
_geom_bond_atom_site_label_1
_geom_bond_atom_site_label_2
_geom_bond_distance
_geom_bond_site_symmetry_2
_ccdc_geom_bond_type
Zn0 O6 1.920 . S
Zn0 O12 1.898 . S
Zn0 O15 1.905 . S
Zn1 O9 1.905 . S
Zn1 O10 1.898 . S
Zn1 O18 1.920 . S
Zn2 O5 2.081 . S
Zn2 O8 2.114 1_554 S
Zn2 O11 2.120 1_554 S
Zn2 O13 2.120 . S
Zn2 O14 2.114 . S
Zn2 O17 2.080 1_554 S
C3 O8 1.166 . S
C3 O9 1.182 . S
C4 O10 1.167 . S
C4 O11 1.299 . S
O5 Zn2 2.081 . S
O5 C19 1.305 . S
O6 Zn0 1.920 . S
O6 C19 1.234 . S
C7 O12 1.167 . S
C7 O13 1.299 . S
O8 Zn2 2.114 1_556 S
O8 C3 1.166 . S
O9 Zn1 1.905 . S
O9 C3 1.182 . S
O10 Zn1 1.898 . S
O10 C4 1.167 . S
O11 Zn2 2.120 1_556 S
O11 C4 1.299 . S
O12 Zn0 1.898 . S
O12 C7 1.167 . S
O13 Zn2 2.120 . S
O13 C7 1.299 . S
O14 Zn2 2.114 . S
O14 C16 1.166 . S
O15 Zn0 1.905 . S
O15 C16 1.182 . S
C16 O14 1.166 . S
C16 O15 1.182 . S
O17 Zn2 2.080 1_556 S
O17 C20 1.305 . S
O18 Zn1 1.920 . S
O18 C20 1.234 . S
C19 O5 1.305 . S
C19 O6 1.234 . S
C20 O17 1.305 . S
C20 O18 1.234 . S
Zn21 O27 1.920 . S
Zn21 O33 1.898 . S
Zn21 O36 1.905 . S
Zn22 O30 1.905 . S
Zn22 O31 1.898 . S
Zn22 O39 1.920 . S
Zn23 O26 2.080 . S
Zn23 O29 2.114 . S
Zn23 O32 2.120 . S
Zn23 O34 2.120 . S
Zn23 O35 2.114 . S
Zn23 O38 2.080 . S
C24 O29 1.166 . S
C24 O30 1.182 . S
C25 O31 1.167 . S
C25 O32 1.299 . S
O26 Zn23 2.080 . S
O26 C40 1.305 . S
O27 Zn21 1.920 . S
O27 C40 1.234 . S
C28 O33 1.167 . S
C28 O34 1.299 . S
O29 Zn23 2.114 . S
O29 C24 1.166 . S
O30 Zn22 1.905 . S
O30 C24 1.182 . S
O31 Zn22 1.898 . S
O31 C25 1.167 . S
O32 Zn23 2.120 . S
O32 C25 1.299 . S
O33 Zn21 1.898 . S
O33 C28 1.167 . S
O34 Zn23 2.120 . S
O34 C28 1.299 . S
O35 Zn23 2.114 . S
O35 C37 1.166 . S
O36 Zn21 1.905 . S
O36 C37 1.182 . S
C37 O35 1.166 . S
C37 O36 1.182 . S
O38 Zn23 2.080 . S
O38 C41 1.305 . S
O39 Zn22 1.920 . S
O39 C41 1.234 . S
C40 O26 1.305 . S
C40 O27 1.234 . S
C41 O38 1.305 . S
C41 O39 1.234 . S
Zn42 O48 1.920 . S
Zn42 O54 1.898 . S
Zn42 O57 1.905 . S
Zn43 O51 1.905 . S
Zn43 O52 1.898 . S
Zn43 O60 1.920 . S
Zn44 O47 2.080 1_554 S
Zn44 O50 2.114 . S
Zn44 O53 2.120 . S
Zn44 O55 2.120 1_554 S
Zn44 O56 2.114 1_554 S
Zn44 O59 2.080 . S
C45 O50 1.166 . S
C45 O51 1.182 . S
C46 O52 1.167 . S
C46 O53 1.299 . S
O47 Zn44 2.080 1_556 S
O47 C61 1.305 . S
O48 Zn42 1.920 . S
O48 C61 1.234 . S
C49 O54 1.167 . S
C49 O55 1.299 . S
O50 Zn44 2.114 . S
O50 C45 1.166 . S
O51 Zn43 1.905 . S
O51 C45 1.182 . S
O52 Zn43 1.898 . S
O52 C46 1.167 . S
O53 Zn44 2.120 . S
O53 C46 1.299 . S
O54 Zn42 1.898 . S
O54 C49 1.167 . S
O55 Zn44 2.120 1_556 S
O55 C49 1.299 . S
O56 Zn44 2.114 1_556 S
O56 C58 1.166 . S
O57 Zn42 1.905 . S
O57 C58 1.182 . S
C58 O56 1.166 . S
C58 O57 1.182 . S
O59 Zn44 2.080 . S
O59 C62 1.305 . S
O60 Zn43 1.920 . S
O60 C62 1.234 . S
C61 O47 1.305 . S
C61 O48 1.234 . S
C62 O59 1.305 . S
C62 O60 1.234 . S
Zn63 O69 1.920 . S
Zn63 O75 1.898 . S
Zn63 O78 1.905 . S
Zn64 O72 1.905 . S
Zn64 O73 1.898 . S
Zn64 O81 1.920 . S
Zn65 O68 2.080 . S
Zn65 O71 2.114 . S
Zn65 O74 2.120 . S
Zn65 O76 2.120 . S
Zn65 O77 2.114 . S
Zn65 O80 2.080 . S
C66 O71 1.166 . S
C66 O72 1.182 . S
C67 O73 1.167 . S
C67 O74 1.299 . S
O68 Zn65 2.080 . S
O68 C82 1.305 . S
O69 Zn63 1.920 . S
O69 C82 1.234 . S
C70 O75 1.167 . S
C70 O76 1.299 . S
O71 Zn65 2.114 . S
O71 C66 1.166 . S
O72 Zn64 1.905 . S
O72 C66 1.182 . S
O73 Zn64 1.898 . S
O73 C67 1.167 . S
O74 Zn65 2.120 . S
O74 C67 1.299 . S
O75 Zn63 1.898 . S
O75 C70 1.167 . S
O76 Zn65 2.120 . S
O76 C70 1.299 . S
O77 Zn65 2.114 . S
O77 C79 1.166 . S
O78 Zn63 1.905 . S
O78 C79 1.182 . S
C79 O77 1.166 . S
C79 O78 1.182 . S
O80 Zn65 2.080 . S
O80 C83 1.305 . S
O81 Zn64 1.920 . S
O81 C83 1.234 . S
C82 O68 1.305 . S
C82 O69 1.234 . S
C83 O80 1.305 . S
C83 O81 1.234 . S
H84 C91 0.929 . S
H85 C94 0.930 . S
H86 C96 0.929 . S
H87 C88 0.969 . S
C88 H87 0.969 . S
C88 O89 1.550 . S
C88 H90 0.973 . S
O89 C88 1.550 . S
O89 C95 1.412 . S
H90 C88 0.973 . S
C91 H84 0.929 . S
C91 C92 1.400 . S
C91 C93 1.364 . S
C92 C91 1.400 . S
C92 C96 1.377 . S
C93 C91 1.364 . S
C93 C94 1.374 . S
C94 H85 0.930 . S
C94 C93 1.374 . S
C94 C95 1.383 . S
C95 O89 1.412 . S
C95 C94 1.383 . S
C95 C96 1.394 . S
C96 H86 0.929 . S
C96 C92 1.377 . S
C96 C95 1.394 . S
H97 C104 0.929 . S
H98 C107 0.930 . S
H99 C109 0.929 . S
H100 C101 0.969 . S
C101 H100 0.969 . S
C101 O102 1.550 . S
C101 H103 0.973 . S
O102 C101 1.550 . S
O102 C108 1.412 . S
H103 C101 0.973 . S
C104 H97 0.929 . S
C104 C105 1.400 . S
C104 C106 1.364 . S
C105 C104 1.400 . S
C105 C109 1.377 . S
C106 C104 1.364 . S
C106 C107 1.374 . S
C107 H98 0.930 . S
C107 C106 1.374 . S
C107 C108 1.383 . S
C108 O102 1.412 . S
C108 C107 1.383 . S
C108 C109 1.394 . S
C109 H99 0.929 . S
C109 C105 1.377 . S
C109 C108 1.394 . S
H110 C117 0.929 . S
H111 C120 0.930 . S
H112 C122 0.929 . S
H113 C114 0.969 . S
C114 H113 0.969 . S
C114 O115 1.550 . S
C114 H116 0.973 . S
O115 C114 1.550 . S
O115 C121 1.412 . S
H116 C114 0.973 . S
C117 H110 0.929 . S
C117 C118 1.400 . S
C117 C119 1.364 . S
C118 C117 1.400 . S
C118 C122 1.377 . S
C119 C117 1.364 . S
C119 C120 1.374 . S
C120 H111 0.930 . S
C120 C119 1.374 . S
C120 C121 1.383 . S
C121 O115 1.412 . S
C121 C120 1.383 . S
C121 C122 1.394 . S
C122 H112 0.929 . S
C122 C118 1.377 . S
C122 C121 1.394 . S
H123 C130 0.929 . S
H124 C133 0.930 . S
H125 C135 0.929 . S
H126 C127 0.969 . S
C127 H126 0.969 . S
C127 O128 1.550 . S
C127 H129 0.973 . S
O128 C127 1.550 . S
O128 C134 1.412 . S
H129 C127 0.973 . S
C130 H123 0.929 . S
C130 C131 1.400 . S
C130 C132 1.364 . S
C131 C130 1.400 . S
C131 C135 1.377 . S
C132 C130 1.364 . S
C132 C133 1.374 . S
C133 H124 0.930 . S
C133 C132 1.374 . S
C133 C134 1.383 . S
C134 O128 1.412 . S
C134 C133 1.383 . S
C134 C135 1.394 . S
C135 H125 0.929 . S
C135 C131 1.377 . S
C135 C134 1.394 . S
H136 C143 0.929 . S
H137 C146 0.930 . S
H138 C148 0.929 . S
H139 C140 0.969 . S
C140 H139 0.969 . S
C140 O141 1.550 . S
C140 H142 0.973 . S
O141 C140 1.550 . S
O141 C147 1.412 . S
H142 C140 0.973 . S
C143 H136 0.929 . S
C143 C144 1.400 . S
C143 C145 1.364 . S
C144 C143 1.400 . S
C144 C148 1.377 . S
C145 C143 1.364 . S
C145 C146 1.374 . S
C146 H137 0.930 . S
C146 C145 1.374 . S
C146 C147 1.383 . S
C147 O141 1.412 . S
C147 C146 1.383 . S
C147 C148 1.394 . S
C148 H138 0.929 . S
C148 C144 1.377 . S
C148 C147 1.394 . S
H149 C156 0.929 . S
H150 C159 0.930 . S
H151 C161 0.929 . S
H152 C153 0.969 . S
C153 H152 0.969 . S
C153 O154 1.550 . S
C153 H155 0.973 . S
O154 C153 1.550 . S
O154 C160 1.412 . S
H155 C153 0.973 . S
C156 H149 0.929 . S
C156 C157 1.400 . S
C156 C158 1.364 . S
C157 C156 1.400 . S
C157 C161 1.377 . S
C158 C156 1.364 . S
C158 C159 1.374 . S
C159 H150 0.930 . S
C159 C158 1.374 . S
C159 C160 1.383 . S
C160 O154 1.412 . S
C160 C159 1.383 . S
C160 C161 1.394 . S
C161 H151 0.929 . S
C161 C157 1.377 . S
C161 C160 1.394 . S
H162 C169 0.929 . S
H163 C172 0.930 . S
H164 C174 0.929 . S
H165 C166 0.969 . S
C166 H165 0.969 . S
C166 O167 1.550 . S
C166 H168 0.973 . S
O167 C166 1.550 . S
O167 C173 1.412 . S
H168 C166 0.973 . S
C169 H162 0.929 . S
C169 C170 1.400 . S
C169 C171 1.364 . S
C170 C169 1.400 . S
C170 C174 1.377 . S
C171 C169 1.364 . S
C171 C172 1.374 . S
C172 H163 0.930 . S
C172 C171 1.374 . S
C172 C173 1.383 . S
C173 O167 1.412 . S
C173 C172 1.383 . S
C173 C174 1.394 . S
C174 H164 0.929 . S
C174 C170 1.377 . S
C174 C173 1.394 . S
H175 C182 0.929 . S
H176 C185 0.930 . S
H177 C187 0.929 . S
H178 C179 0.969 . S
C179 H178 0.969 . S
C179 O180 1.550 . S
C179 H181 0.973 . S
O180 C179 1.550 . S
O180 C186 1.412 . S
H181 C179 0.973 . S
C182 H175 0.929 . S
C182 C183 1.400 . S
C182 C184 1.364 . S
C183 C182 1.400 . S
C183 C187 1.377 . S
C184 C182 1.364 . S
C184 C185 1.374 . S
C185 H176 0.930 . S
C185 C184 1.374 . S
C185 C186 1.383 . S
C186 O180 1.412 . S
C186 C185 1.383 . S
C186 C187 1.394 . S
C187 H177 0.929 . S
C187 C183 1.377 . S
C187 C186 1.394 . S
C188 C189 1.369 . S
C188 C190 1.419 . S
C188 H192 0.930 . S
C189 C188 1.369 . S
C189 C198 1.429 . S
C190 C188 1.419 . S
C190 C191 1.363 1_565 S
C190 H193 0.929 . S
C191 C190 1.363 1_545 S
C191 C197 1.428 . S
H192 C188 0.930 . S
H193 C190 0.929 . S
S194 N195 1.613 . S
S194 N196 1.610 . S
N195 S194 1.613 . S
N195 C198 1.350 1_545 S
N196 S194 1.610 . S
N196 C197 1.351 . S
C197 C191 1.428 . S
C197 N196 1.351 . S
C197 C198 1.434 1_545 S
C198 C189 1.429 . S
C198 N195 1.350 1_565 S
C198 C197 1.434 1_565 S
C199 C200 1.369 . S
C199 C201 1.419 . S
C199 H203 0.930 . S
C200 C199 1.369 . S
C200 C209 1.429 . S
C201 C199 1.419 . S
C201 C202 1.363 . S
C201 H204 0.929 . S
C202 C201 1.363 . S
C202 C208 1.428 . S
H203 C199 0.930 . S
H204 C201 0.929 . S
S205 N206 1.613 . S
S205 N207 1.610 . S
N206 S205 1.613 . S
N206 C209 1.350 . S
N207 S205 1.610 . S
N207 C208 1.351 . S
C208 C202 1.428 . S
C208 N207 1.351 . S
C208 C209 1.434 . S
C209 C200 1.429 . S
C209 N206 1.350 . S
C209 C208 1.434 . S
C210 C211 1.369 1_565 S
C210 C212 1.419 . S
C210 H214 0.930 . S
C211 C210 1.369 1_545 S
C211 C220 1.429 . S
C212 C210 1.419 . S
C212 C213 1.363 . S
C212 H215 0.929 . S
C213 C212 1.363 . S
C213 C219 1.428 . S
H214 C210 0.930 . S
H215 C212 0.929 . S
S216 N217 1.613 . S
S216 N218 1.610 1_545 S
N217 S216 1.613 . S
N217 C220 1.350 . S
N218 S216 1.610 1_565 S
N218 C219 1.351 . S
C219 C213 1.428 . S
C219 N218 1.351 . S
C219 C220 1.434 1_565 S
C220 C211 1.429 . S
C220 N217 1.350 . S
C220 C219 1.434 1_545 S
C221 C222 1.369 . S
C221 C223 1.419 . S
C221 H225 0.930 . S
C222 C221 1.369 . S
C222 C231 1.429 . S
C223 C221 1.419 . S
C223 C224 1.363 . S
C223 H226 0.929 . S
C224 C223 1.363 . S
C224 C230 1.428 . S
H225 C221 0.930 . S
H226 C223 0.929 . S
S227 N228 1.613 . S
S227 N229 1.610 . S
N228 S227 1.613 . S
N228 C231 1.350 . S
N229 S227 1.610 . S
N229 C230 1.351 . S
C230 C224 1.428 . S
C230 N229 1.351 . S
C230 C231 1.434 . S
C231 C222 1.429 . S
C231 N228 1.350 . S
C231 C230 1.434 . S
C232 C233 1.369 . S
C232 C234 1.419 . S
C232 H236 0.930 . S
C233 C232 1.369 . S
C233 C242 1.429 . S
C234 C232 1.419 . S
C234 C235 1.363 . S
C234 H237 0.929 . S
C235 C234 1.363 . S
C235 C241 1.428 . S
H236 C232 0.930 . S
H237 C234 0.929 . S
S238 N239 1.613 . S
S238 N240 1.610 . S
N239 S238 1.613 . S
N239 C242 1.350 . S
N240 S238 1.610 . S
N240 C241 1.351 . S
C241 C235 1.428 . S
C241 N240 1.351 . S
C241 C242 1.434 . S
C242 C233 1.429 . S
C242 N239 1.350 . S
C242 C241 1.434 . S
C243 C244 1.369 . S
C243 C245 1.419 1_655 S
C243 H247 0.930 . S
C244 C243 1.369 . S
C244 C253 1.429 1_655 S
C245 C243 1.419 1_455 S
C245 C246 1.363 . S
C245 H248 0.929 . S
C246 C245 1.363 . S
C246 C252 1.428 . S
H247 C243 0.930 . S
H248 C245 0.929 . S
S249 N250 1.613 1_556 S
S249 N251 1.610 . S
N250 S249 1.613 1_554 S
N250 C253 1.350 1_554 S
N251 S249 1.610 . S
N251 C252 1.351 . S
C252 C246 1.428 . S
C252 N251 1.351 . S
C252 C253 1.434 . S
C253 C244 1.429 1_455 S
C253 N250 1.350 1_556 S
C253 C252 1.434 . S
C254 C255 1.369 . S
C254 C256 1.419 . S
C254 H258 0.930 . S
C255 C254 1.369 . S
C255 C264 1.429 . S
C256 C254 1.419 . S
C256 C257 1.363 . S
C256 H259 0.929 . S
C257 C256 1.363 . S
C257 C263 1.428 . S
H258 C254 0.930 . S
H259 C256 0.929 . S
S260 N261 1.613 . S
S260 N262 1.610 . S
N261 S260 1.613 . S
N261 C264 1.350 . S
N262 S260 1.610 . S
N262 C263 1.351 . S
C263 C257 1.428 . S
C263 N262 1.351 . S
C263 C264 1.434 . S
C264 C255 1.429 . S
C264 N261 1.350 . S
C264 C263 1.434 . S
C265 C266 1.356 1_655 S
C265 C267 1.435 . S
C265 H269 0.927 1_655 S
C266 C265 1.356 1_455 S
C266 C275 1.429 . S
C267 C265 1.435 . S
C267 C268 1.363 . S
C267 H270 0.929 . S
C268 C267 1.363 . S
C268 C274 1.428 . S
H269 C265 0.927 1_455 S
H270 C267 0.929 . S
S271 N272 1.613 . S
S271 N273 1.610 1_455 S
N272 S271 1.613 . S
N272 C275 1.350 . S
N273 S271 1.610 1_655 S
N273 C274 1.351 . S
C274 C268 1.428 . S
C274 N273 1.351 . S
C274 C275 1.434 1_655 S
C275 C266 1.429 . S
C275 N272 1.350 . S
C275 C274 1.434 1_455 S
C276 C277 1.369 . S
C276 C278 1.419 1_545 S
C276 H280 0.930 . S
C277 C276 1.369 . S
C277 C286 1.429 1_545 S
C278 C276 1.419 1_565 S
C278 C279 1.363 . S
C278 H281 0.929 . S
C279 C278 1.363 . S
C279 C285 1.428 . S
H280 C276 0.930 . S
H281 C278 0.929 . S
S282 N283 1.613 . S
S282 N284 1.610 . S
N283 S282 1.613 . S
N283 C286 1.350 . S
N284 S282 1.610 . S
N284 C285 1.351 . S
C285 C279 1.428 . S
C285 N284 1.351 . S
C285 C286 1.434 . S
C286 C277 1.429 1_565 S
C286 N283 1.350 . S
C286 C285 1.434 . S
C287 C288 1.369 . S
C287 C289 1.419 . S
C287 H291 0.930 . S
C288 C287 1.369 . S
C288 C297 1.429 . S
C289 C287 1.419 . S
C289 C290 1.363 . S
C289 H292 0.929 . S
C290 C289 1.363 . S
C290 C296 1.428 . S
H291 C287 0.930 . S
H292 C289 0.929 . S
S293 N294 1.613 . S
S293 N295 1.610 . S
N294 S293 1.613 . S
N294 C297 1.350 . S
N295 S293 1.610 . S
N295 C296 1.351 . S
C296 C290 1.428 . S
C296 N295 1.351 . S
C296 C297 1.434 . S
C297 C288 1.429 . S
C297 N294 1.350 . S
C297 C296 1.434 . S
C298 C299 1.369 . S
C298 C300 1.419 . S
C298 H302 0.930 1_545 S
C299 C298 1.369 . S
C299 C308 1.429 . S
C300 C298 1.419 . S
C300 C301 1.363 . S
C300 H303 0.929 . S
C301 C300 1.363 . S
C301 C307 1.428 . S
H302 C298 0.930 1_565 S
H303 C300 0.929 . S
S304 N305 1.613 . S
S304 N306 1.610 . S
N305 S304 1.613 . S
N305 C308 1.350 . S
N306 S304 1.610 . S
N306 C307 1.351 . S
C307 C301 1.428 . S
C307 N306 1.351 . S
C307 C308 1.434 . S
C308 C299 1.429 . S
C308 N305 1.350 . S
C308 C307 1.434 . S
C309 C310 1.369 . S
C309 C311 1.419 . S
C309 H313 0.930 . S
C310 C309 1.369 . S
C310 C319 1.429 . S
C311 C309 1.419 . S
C311 C312 1.363 . S
C311 H314 0.929 . S
C312 C311 1.363 . S
C312 C318 1.428 . S
H313 C309 0.930 . S
H314 C311 0.929 . S
S315 N316 1.613 . S
S315 N317 1.610 . S
N316 S315 1.613 . S
N316 C319 1.350 . S
N317 S315 1.610 . S
N317 C318 1.351 . S
C318 C312 1.428 . S
C318 N317 1.351 . S
C318 C319 1.434 . S
C319 C310 1.429 . S
C319 N316 1.350 . S
C319 C318 1.434 . S
C320 C321 1.369 . S
C320 C322 1.419 . S
C320 H324 0.930 . S
C321 C320 1.369 . S
C321 C330 1.429 . S
C322 C320 1.419 . S
C322 C323 1.363 . S
C322 H325 0.929 . S
C323 C322 1.363 . S
C323 C329 1.428 . S
H324 C320 0.930 . S
H325 C322 0.929 . S
S326 N327 1.613 . S
S326 N328 1.610 . S
N327 S326 1.613 . S
N327 C330 1.350 . S
N328 S326 1.610 . S
N328 C329 1.351 . S
C329 C323 1.428 . S
C329 N328 1.351 . S
C329 C330 1.434 . S
C330 C321 1.429 . S
C330 N327 1.350 . S
C330 C329 1.434 . S
C331 C332 1.369 . S
C331 C333 1.419 . S
C331 H335 0.930 1_655 S
C332 C331 1.369 . S
C332 C341 1.429 . S
C333 C331 1.419 . S
C333 C334 1.363 . S
C333 H336 0.929 . S
C334 C333 1.363 . S
C334 C340 1.428 . S
H335 C331 0.930 1_455 S
H336 C333 0.929 . S
S337 N338 1.613 . S
S337 N339 1.610 . S
N338 S337 1.613 . S
N338 C341 1.350 . S
N339 S337 1.610 . S
N339 C340 1.351 . S
C340 C334 1.428 . S
C340 N339 1.351 . S
C340 C341 1.434 . S
C341 C332 1.429 . S
C341 N338 1.350 . S
C341 C340 1.434 . S
C342 C343 1.369 . S
C342 C344 1.419 . S
C342 H346 0.930 . S
C343 C342 1.369 . S
C343 C352 1.429 . S
C344 C342 1.419 . S
C344 C345 1.363 . S
C344 H347 0.929 . S
C345 C344 1.363 . S
C345 C351 1.428 . S
H346 C342 0.930 . S
H347 C344 0.929 . S
S348 N349 1.613 . S
S348 N350 1.610 . S
N349 S348 1.613 . S
N349 C352 1.350 . S
N350 S348 1.610 . S
N350 C351 1.351 . S
C351 C345 1.428 . S
C351 N350 1.351 . S
C351 C352 1.434 . S
C352 C343 1.429 . S
C352 N349 1.350 . S
C352 C351 1.434 . S
C353 C354 1.369 . S
C353 C355 1.419 . S
C353 H357 0.930 . S
C354 C353 1.369 . S
C354 C363 1.429 . S
C355 C353 1.419 . S
C355 C356 1.363 . S
C355 H358 0.929 . S
C356 C355 1.363 . S
C356 C362 1.428 . S
H357 C353 0.930 . S
H358 C355 0.929 . S
S359 N360 1.613 1_455 S
S359 N361 1.610 . S
N360 S359 1.613 1_655 S
N360 C363 1.350 1_655 S
N361 S359 1.610 . S
N361 C362 1.351 . S
C362 C356 1.428 . S
C362 N361 1.351 . S
C362 C363 1.434 . S
C363 C354 1.429 . S
C363 N360 1.350 1_455 S
C363 C362 1.434 . S
C364 C365 1.369 . S
C364 C366 1.419 . S
C364 H368 0.930 . S
C365 C364 1.369 . S
C365 C374 1.429 . S
C366 C364 1.419 . S
C366 C367 1.363 . S
C366 H369 0.929 . S
C367 C366 1.363 . S
C367 C373 1.428 . S
H368 C364 0.930 . S
H369 C366 0.929 . S
S370 N371 1.613 . S
S370 N372 1.610 . S
N371 S370 1.613 . S
N371 C374 1.350 . S
N372 S370 1.610 . S
N372 C373 1.351 . S
C373 C367 1.428 . S
C373 N372 1.351 . S
C373 C374 1.434 . S
C374 C365 1.429 . S
C374 N371 1.350 . S
C374 C373 1.434 . S
C375 C376 1.369 . S
C375 C377 1.419 . S
C375 H379 0.930 . S
C376 C375 1.369 . S
C376 C385 1.429 . S
C377 C375 1.419 . S
C377 C378 1.363 . S
C377 H380 0.929 . S
C378 C377 1.363 . S
C378 C384 1.428 . S
H379 C375 0.930 . S
H380 C377 0.929 . S
S381 N382 1.613 . S
S381 N383 1.610 . S
N382 S381 1.613 . S
N382 C385 1.350 . S
N383 S381 1.610 . S
N383 C384 1.351 . S
C384 C378 1.428 . S
C384 N383 1.351 . S
C384 C385 1.434 . S
C385 C376 1.429 . S
C385 N382 1.350 . S
C385 C384 1.434 . S
C386 C387 1.369 . S
C386 C388 1.419 . S
C386 H390 0.930 . S
C387 C386 1.369 . S
C387 C396 1.429 . S
C388 C386 1.419 . S
C388 C389 1.363 . S
C388 H391 0.929 . S
C389 C388 1.363 . S
C389 C395 1.428 . S
H390 C386 0.930 . S
H391 C388 0.929 . S
S392 N393 1.613 . S
S392 N394 1.610 . S
N393 S392 1.613 . S
N393 C396 1.350 . S
N394 S392 1.610 . S
N394 C395 1.351 . S
C395 C389 1.428 . S
C395 N394 1.351 . S
C395 C396 1.434 . S
C396 C387 1.429 . S
C396 N393 1.350 . S
C396 C395 1.434 . S
C397 C398 1.369 . S
C397 C399 1.419 . S
C397 H401 0.930 . S
C398 C397 1.369 . S
C398 C407 1.429 . S
C399 C397 1.419 . S
C399 C400 1.363 . S
C399 H402 0.929 . S
C400 C399 1.363 . S
C400 C406 1.428 . S
H401 C397 0.930 . S
H402 C399 0.929 . S
S403 N404 1.613 . S
S403 N405 1.610 . S
N404 S403 1.613 . S
N404 C407 1.350 . S
N405 S403 1.610 . S
N405 C406 1.351 . S
C406 C400 1.428 . S
C406 N405 1.351 . S
C406 C407 1.434 . S
C407 C398 1.429 . S
C407 N404 1.350 . S
C407 C406 1.434 . S
C408 C409 1.369 . S
C408 C410 1.419 . S
C408 H412 0.930 . S
C409 C408 1.369 . S
C409 C418 1.429 . S
C410 C408 1.419 . S
C410 C411 1.363 . S
C410 H413 0.929 . S
C411 C410 1.363 . S
C411 C417 1.428 . S
H412 C408 0.930 . S
H413 C410 0.929 . S
S414 N415 1.613 . S
S414 N416 1.610 . S
N415 S414 1.613 . S
N415 C418 1.350 . S
N416 S414 1.610 . S
N416 C417 1.351 . S
C417 C411 1.428 . S
C417 N416 1.351 . S
C417 C418 1.434 . S
C418 C409 1.429 . S
C418 N415 1.350 . S
C418 C417 1.434 . S
C419 C420 1.369 . S
C419 C421 1.419 . S
C419 H423 0.930 . S
C420 C419 1.369 . S
C420 C429 1.429 . S
C421 C419 1.419 . S
C421 C422 1.363 . S
C421 H424 0.929 . S
C422 C421 1.363 . S
C422 C428 1.428 . S
H423 C419 0.930 . S
H424 C421 0.929 . S
S425 N426 1.613 . S
S425 N427 1.610 1_554 S
N426 S425 1.613 . S
N426 C429 1.350 1_554 S
N427 S425 1.610 1_556 S
N427 C428 1.351 . S
C428 C422 1.428 . S
C428 N427 1.351 . S
C428 C429 1.434 . S
C429 C420 1.429 . S
C429 N426 1.350 1_556 S
C429 C428 1.434 . S
C430 C431 1.369 . S
C430 C432 1.419 . S
C430 H434 0.930 . S
C431 C430 1.369 . S
C431 C440 1.429 . S
C432 C430 1.419 . S
C432 C433 1.363 . S
C432 H435 0.929 . S
C433 C432 1.363 . S
C433 C439 1.428 . S
H434 C430 0.930 . S
H435 C432 0.929 . S
S436 N437 1.613 . S
S436 N438 1.610 . S
N437 S436 1.613 . S
N437 C440 1.350 . S
N438 S436 1.610 . S
N438 C439 1.351 . S
C439 C433 1.428 . S
C439 N438 1.351 . S
C439 C440 1.434 . S
C440 C431 1.429 . S
C440 N437 1.350 . S
C440 C439 1.434 . S
C441 C442 1.369 . S
C441 C443 1.419 . S
C441 H445 0.930 . S
C442 C441 1.369 . S
C442 C451 1.429 . S
C443 C441 1.419 . S
C443 C444 1.363 . S
C443 H446 0.929 . S
C444 C443 1.363 . S
C444 C450 1.428 . S
H445 C441 0.930 . S
H446 C443 0.929 . S
S447 N448 1.613 . S
S447 N449 1.610 . S
N448 S447 1.613 . S
N448 C451 1.350 . S
N449 S447 1.610 . S
N449 C450 1.351 . S
C450 C444 1.428 . S
C450 N449 1.351 . S
C450 C451 1.434 . S
C451 C442 1.429 . S
C451 N448 1.350 . S
C451 C450 1.434 . S
C189 C7 1.009 . S
C191 C92 1.047 . S
C200 C25 0.857 . S
C202 C105 0.899 . S
C211 C46 1.049 . S
C213 C119 1.055 . S
C224 C132 0.916 . S
C222 C70 0.881 . S
C235 C144 0.940 . S
C233 C28 0.938 . S
C244 C49 1.030 . S
C246 C158 1.038 . S
C255 C67 0.959 . S
C257 C170 1.022 . S
C266 C4 0.884 . S
C268 C184 0.929 . S
C277 C58 1.492 . S
C279 C183 1.571 . S
C290 C145 1.711 . S
C288 C66 1.685 . S
C301 C157 1.622 . S
C299 C3 1.549 1_545 S
C310 C37 1.594 . S
C312 C171 1.684 . S
C323 C106 1.738 . S
C321 C79 1.682 . S
C332 C16 1.529 1_655 S
C334 C118 1.575 . S
C345 C131 1.593 . S
C343 C24 1.502 . S
C356 C93 1.685 . S
C354 C45 1.601 1_455 S
C367 C166 1.377 . S
C365 C19 1.321 . S
C378 C179 1.314 . S
C376 C41 1.250 . S
C387 C62 1.272 . S
C389 C140 1.358 . S
C400 C153 1.490 . S
C398 C82 1.313 . S
C411 C114 1.415 . S
C409 C40 1.277 . S
C420 C61 1.288 . S
C422 C127 1.342 . S
C433 C88 1.411 . S
C431 C83 1.353 . S
C444 C101 1.343 . S
C442 C20 1.244 . S
