# Generated by pormake.
# Topology zzz, (3,6)-cn, num edge types: 1
# Building blocks:
#     Node 0, Type 0, BuildingBlock: MIDCAF_clean_linker_0, # of connection points: 3
#     Node 1, Type 0, BuildingBlock: MIDCAF_clean_linker_0, # of connection points: 3
#     Node 2, Type 0, BuildingBlock: MIDCAF_clean_linker_0, # of connection points: 3
#     Node 3, Type 0, BuildingBlock: MIDCAF_clean_linker_0, # of connection points: 3
#     Node 4, Type 0, BuildingBlock: MIDCAF_clean_linker_0, # of connection points: 3
#     Node 5, Type 0, BuildingBlock: MIDCAF_clean_linker_0, # of connection points: 3
#     Node 6, Type 0, BuildingBlock: MIDCAF_clean_linker_0, # of connection points: 3
#     Node 7, Type 0, BuildingBlock: MIDCAF_clean_linker_0, # of connection points: 3
#     Node 8, Type 1, BuildingBlock: BETGAK_clean_sbu_0, # of connection points: 6
#     Node 9, Type 1, BuildingBlock: BETGAK_clean_sbu_0, # of connection points: 6
#     Node 10, Type 1, BuildingBlock: BETGAK_clean_sbu_0, # of connection points: 6
#     Node 11, Type 1, BuildingBlock: BETGAK_clean_sbu_0, # of connection points: 6
#     Edge 12, Type (0, 1), BuildingBlock: OJICUG_clean_linker_0, # of connection points: 2
#     Edge 13, Type (0, 1), BuildingBlock: OJICUG_clean_linker_0, # of connection points: 2
#     Edge 14, Type (0, 1), BuildingBlock: OJICUG_clean_linker_0, # of connection points: 2
#     Edge 15, Type (0, 1), BuildingBlock: OJICUG_clean_linker_0, # of connection points: 2
#     Edge 16, Type (0, 1), BuildingBlock: OJICUG_clean_linker_0, # of connection points: 2
#     Edge 17, Type (0, 1), BuildingBlock: OJICUG_clean_linker_0, # of connection points: 2
#     Edge 18, Type (0, 1), BuildingBlock: OJICUG_clean_linker_0, # of connection points: 2
#     Edge 19, Type (0, 1), BuildingBlock: OJICUG_clean_linker_0, # of connection points: 2
#     Edge 20, Type (0, 1), BuildingBlock: OJICUG_clean_linker_0, # of connection points: 2
#     Edge 21, Type (0, 1), BuildingBlock: OJICUG_clean_linker_0, # of connection points: 2
#     Edge 22, Type (0, 1), BuildingBlock: OJICUG_clean_linker_0, # of connection points: 2
#     Edge 23, Type (0, 1), BuildingBlock: OJICUG_clean_linker_0, # of connection points: 2
#     Edge 24, Type (0, 1), BuildingBlock: OJICUG_clean_linker_0, # of connection points: 2
#     Edge 25, Type (0, 1), BuildingBlock: OJICUG_clean_linker_0, # of connection points: 2
#     Edge 26, Type (0, 1), BuildingBlock: OJICUG_clean_linker_0, # of connection points: 2
#     Edge 27, Type (0, 1), BuildingBlock: OJICUG_clean_linker_0, # of connection points: 2
#     Edge 28, Type (0, 1), BuildingBlock: OJICUG_clean_linker_0, # of connection points: 2
#     Edge 29, Type (0, 1), BuildingBlock: OJICUG_clean_linker_0, # of connection points: 2
#     Edge 30, Type (0, 1), BuildingBlock: OJICUG_clean_linker_0, # of connection points: 2
#     Edge 31, Type (0, 1), BuildingBlock: OJICUG_clean_linker_0, # of connection points: 2
#     Edge 32, Type (0, 1), BuildingBlock: OJICUG_clean_linker_0, # of connection points: 2
#     Edge 33, Type (0, 1), BuildingBlock: OJICUG_clean_linker_0, # of connection points: 2
#     Edge 34, Type (0, 1), BuildingBlock: OJICUG_clean_linker_0, # of connection points: 2
#     Edge 35, Type (0, 1), BuildingBlock: OJICUG_clean_linker_0, # of connection points: 2
# Relax obj value: 0.515
# Max RMSD: 0.264
# Mean RMSD: 0.255
data_MOF--net-zzz--node1-BETGAK_clean_sbu_0--node2-MIDCAF_clean_linker_0--edge1-OJICUG_clean_linker_0
_symmetry_space_group_name_H-M    P1
_symmetry_Int_Tables_number       1
_symmetry_cell_setting            triclinic
loop_
_symmetry_equiv_pos_as_xyz
'x, y, z'
_cell_length_a     46.097954
_cell_length_b     46.088292
_cell_length_c     14.382484
_cell_angle_alpha  89.718988
_cell_angle_beta   89.934978
_cell_angle_gamma 89.988914
loop_
_atom_site_label
_atom_site_type_symbol
_atom_site_fract_x
_atom_site_fract_y
_atom_site_fract_z
_atom_type_partial_charge
C0 C 0.82571 0.52427 0.47593 0.0
C1 C 0.83716 0.50582 0.54584 0.0
C2 C 0.82057 0.48142 0.57168 0.0
C3 C 0.79475 0.47459 0.52519 0.0
H4 H 0.70818 0.53317 0.23239 0.0
H5 H 0.66585 0.5482 0.13984 0.0
H6 H 0.63163 0.4611 0.15905 0.0
H7 H 0.67316 0.44666 0.25132 0.0
H8 H 0.74115 0.41576 0.1165 0.0
H9 H 0.77423 0.3883 0.01833 0.0
H10 H 0.8316 0.37623 0.25305 0.0
H11 H 0.79824 0.40239 0.35079 0.0
H12 H 0.79275 0.53078 0.37133 0.0
H13 H 0.8374 0.54356 0.45466 0.0
H14 H 0.82841 0.46633 0.62378 0.0
H15 H 0.78387 0.45445 0.54278 0.0
N16 N 0.73902 0.49147 0.35094 0.0
N17 N 0.73063 0.45055 0.25635 0.0
N18 N 0.77138 0.45194 0.35179 0.0
C19 C 0.72191 0.47692 0.28804 0.0
C20 C 0.7553 0.43796 0.2876 0.0
C21 C 0.76378 0.47839 0.3842 0.0
C22 C 0.69413 0.4887 0.24945 0.0
C23 C 0.69115 0.51757 0.21895 0.0
C24 C 0.66699 0.52602 0.1647 0.0
C25 C 0.64512 0.50586 0.14046 0.0
C26 C 0.64754 0.4775 0.17622 0.0
C27 C 0.67159 0.4691 0.22927 0.0
C28 C 0.76787 0.41245 0.24023 0.0
C29 C 0.76017 0.40606 0.14804 0.0
C30 C 0.77925 0.39041 0.09153 0.0
C31 C 0.80632 0.38129 0.12636 0.0
C32 C 0.81129 0.38324 0.22267 0.0
C33 C 0.79219 0.39865 0.27906 0.0
C34 C 0.78437 0.49187 0.4514 0.0
C35 C 0.79967 0.51736 0.42923 0.0
C36 C 1.00553 0.82278 0.48543 0.0
C37 C 0.02355 0.8342 0.55604 0.0
C38 C 0.04786 0.81765 0.58273 0.0
C39 C 0.055 0.79187 0.53664 0.0
H40 H 0.99637 0.70837 0.23573 0.0
H41 H 0.98056 0.66726 0.13973 0.0
H42 H 0.06578 0.62903 0.16576 0.0
H43 H 0.08094 0.66926 0.26183 0.0
H44 H 0.10465 0.75212 0.11979 0.0
H45 H 0.13175 0.79042 0.0448 0.0
H46 H 0.16807 0.81502 0.31033 0.0
H47 H 0.13873 0.77779 0.38603 0.0
H48 H 0.99958 0.78979 0.38107 0.0
H49 H 0.98634 0.83446 0.46345 0.0
H50 H 0.06262 0.82547 0.63542 0.0
H51 H 0.07502 0.78097 0.55525 0.0
N52 N 0.03794 0.73656 0.36029 0.0
N53 N 0.07952 0.72693 0.26932 0.0
N54 N 0.07899 0.76688 0.36805 0.0
C55 C 0.05246 0.71918 0.29792 0.0
C56 C 0.0929 0.75059 0.3042 0.0
C57 C 0.05174 0.76041 0.39675 0.0
C58 C 0.03994 0.69221 0.25654 0.0
C59 C 1.01135 0.69072 0.22296 0.0
C60 C 1.00247 0.66727 0.16672 0.0
C61 C 0.02189 0.64462 0.14337 0.0
C62 C 0.04991 0.64556 0.18204 0.0
C63 C 0.05873 0.6689 0.23722 0.0
C64 C 0.11883 0.7628 0.25887 0.0
C65 C 0.11941 0.76486 0.16162 0.0
C66 C 0.13518 0.78701 0.11845 0.0
C67 C 0.15101 0.80705 0.17209 0.0
C68 C 0.15491 0.801 0.26737 0.0
C69 C 0.13838 0.77944 0.31086 0.0
C70 C 0.03812 0.78145 0.4624 0.0
C71 C 0.01272 0.79675 0.43921 0.0
C72 C 0.69989 1.0005 0.48053 0.0
C73 C 0.68829 0.01899 0.54958 0.0
C74 C 0.70497 0.04324 0.57539 0.0
C75 C 0.73102 0.04992 0.52958 0.0
H76 H 0.81876 0.99125 0.2436 0.0
H77 H 0.86138 0.97598 0.15322 0.0
H78 H 0.89523 0.06328 0.16634 0.0
H79 H 0.8535 0.07796 0.25724 0.0
H80 H 0.78463 0.10736 0.11681 0.0
H81 H 0.75135 0.13423 0.01696 0.0
H82 H 0.69435 0.14758 0.25193 0.0
H83 H 0.72792 0.12204 0.3512 0.0
H84 H 0.73318 0.99384 0.37711 0.0
H85 H 0.68814 0.98131 0.45932 0.0
H86 H 0.69703 0.05836 0.62684 0.0
H87 H 0.74196 0.06999 0.54694 0.0
N88 N 0.78735 0.03311 0.35783 0.0
N89 N 0.79576 0.07378 0.26075 0.0
N90 N 0.75463 0.07232 0.35489 0.0
C91 C 0.8046 0.04761 0.2946 0.0
C92 C 0.77084 0.08623 0.29031 0.0
C93 C 0.76234 0.04606 0.38934 0.0
C94 C 0.83258 0.03585 0.25756 0.0
C95 C 0.83577 1.00686 0.22933 0.0
C96 C 0.86009 0.99827 0.17626 0.0
C97 C 0.88194 0.0184 0.15077 0.0
C98 C 0.87934 0.04691 0.18443 0.0
C99 C 0.85513 0.05544 0.23653 0.0
C100 C 0.75815 0.11142 0.24088 0.0
C101 C 0.76565 0.11724 0.14791 0.0
C102 C 0.74645 0.13252 0.09045 0.0
C103 C 0.71944 0.14185 0.12513 0.0
C104 C 0.71462 0.14042 0.22169 0.0
C105 C 0.73385 0.12538 0.279 0.0
C106 C 0.74156 0.03262 0.45656 0.0
C107 C 0.72615 1.00726 0.43451 0.0
C108 C 0.37109 0.72084 0.27155 0.0
C109 C 0.37553 0.7147 0.17677 0.0
C110 C 0.39083 0.73511 0.12232 0.0
C111 C 0.40562 0.75797 0.16454 0.0
H112 H 0.44135 0.85485 0.25775 0.0
H113 H 0.45664 0.89533 0.16147 0.0
H114 H 0.54304 0.85928 0.14704 0.0
H115 H 0.52717 0.81794 0.24327 0.0
H116 H 0.4492 0.7439 0.56083 0.0
H117 H 0.46219 0.6993 0.64098 0.0
H118 H 0.53862 0.69189 0.46855 0.0
H119 H 0.52481 0.73662 0.38633 0.0
H120 H 0.3859 0.74501 0.38915 0.0
H121 H 0.35835 0.70641 0.31498 0.0
H122 H 0.39462 0.73156 0.04899 0.0
H123 H 0.4201 0.77108 0.12236 0.0
N124 N 0.44404 0.79737 0.27136 0.0
N125 N 0.4855 0.78893 0.36413 0.0
N126 N 0.44518 0.75766 0.37234 0.0
C127 C 0.4708 0.80583 0.30048 0.0
C128 C 0.47214 0.76486 0.40148 0.0
C129 C 0.43112 0.77344 0.30714 0.0
C130 C 0.48297 0.83295 0.25812 0.0
C131 C 0.46381 0.85572 0.2355 0.0
C132 C 0.47269 0.8792 0.18031 0.0
C133 C 0.50113 0.88082 0.14497 0.0
C134 C 0.52083 0.85872 0.17149 0.0
C135 C 0.5119 0.83514 0.22779 0.0
C136 C 0.48613 0.74415 0.4678 0.0
C137 C 0.46939 0.73335 0.54226 0.0
C138 C 0.47687 0.70752 0.58828 0.0
C139 C 0.50135 0.69135 0.56118 0.0
C140 C 0.51929 0.70327 0.49073 0.0
C141 C 0.51177 0.72933 0.44461 0.0
C142 C 0.40573 0.76037 0.26168 0.0
C143 C 0.38658 0.74317 0.31409 0.0
C144 C 0.20671 0.54802 0.93884 0.0
C145 C 0.18998 0.52384 0.96588 0.0
C146 C 0.20115 0.5059 0.03764 0.0
C147 C 0.22696 0.51318 0.085 0.0
H148 H 0.31824 0.49777 0.27576 0.0
H149 H 0.3601 0.48197 0.36955 0.0
H150 H 0.39146 0.57023 0.37516 0.0
H151 H 0.35041 0.58561 0.28253 0.0
H152 H 0.28404 0.61842 0.39059 0.0
H153 H 0.25039 0.64649 0.48485 0.0
H154 H 0.19322 0.6549 0.24806 0.0
H155 H 0.22717 0.62825 0.154 0.0
H156 H 0.24328 0.5752 0.96724 0.0
H157 H 0.19911 0.56272 0.88526 0.0
H158 H 0.18937 0.48677 0.05986 0.0
H159 H 0.23361 0.50021 0.14426 0.0
N160 N 0.28686 0.53965 0.16581 0.0
N161 N 0.29463 0.58139 0.25718 0.0
N162 N 0.25481 0.57937 0.15797 0.0
C163 C 0.30349 0.55467 0.22893 0.0
C164 C 0.27037 0.59386 0.2223 0.0
C165 C 0.26252 0.55257 0.12891 0.0
C166 C 0.3308 0.54299 0.2715 0.0
C167 C 0.33448 0.51358 0.29536 0.0
C168 C 0.35836 0.50462 0.35007 0.0
C169 C 0.37936 0.52479 0.38095 0.0
C170 C 0.37621 0.55386 0.35261 0.0
C171 C 0.35236 0.56276 0.29954 0.0
C172 C 0.25746 0.61982 0.26621 0.0
C173 C 0.26492 0.62744 0.35763 0.0
C174 C 0.2455 0.64344 0.41191 0.0
C175 C 0.2183 0.65163 0.37573 0.0
C176 C 0.21358 0.64858 0.2796 0.0
C177 C 0.23304 0.63287 0.22534 0.0
C178 C 0.24234 0.53852 0.06163 0.0
C179 C 0.23232 0.5552 0.98592 0.0
C180 C 0.01708 0.18905 0.08189 0.0
C181 C 1.01051 0.1858 0.98654 0.0
C182 C 0.99999 0.21052 0.93875 0.0
C183 C 0.99435 0.23668 0.98594 0.0
H184 H 0.0348 0.31928 0.27966 0.0
H185 H 0.04918 0.36181 0.37118 0.0
H186 H 0.96121 0.3939 0.3583 0.0
H187 H 0.94734 0.35225 0.26629 0.0
H188 H 0.90654 0.22657 0.15655 0.0
H189 H 0.8798 0.19279 0.2523 0.0
H190 H 0.88821 0.25044 0.48699 0.0
H191 H 0.91613 0.284 0.39087 0.0
H192 H 0.01489 0.21602 0.20309 0.0
H193 H 0.02461 0.1708 0.12281 0.0
H194 H 0.99506 0.20947 0.86531 0.0
H195 H 0.98404 0.25434 0.94856 0.0
N196 N 0.99517 0.28658 0.16922 0.0
N197 N 0.952 0.29533 0.25307 0.0
N198 N 0.95655 0.25321 0.16501 0.0
C199 C 0.97889 0.30422 0.22602 0.0
C200 C 0.94069 0.26995 0.22293 0.0
C201 C 0.98346 0.26109 0.13718 0.0
C202 C 0.98988 0.33214 0.26578 0.0
C203 C 0.0188 0.33584 0.29443 0.0
C204 C 0.0269 0.36013 0.34809 0.0
C205 C 1.00636 0.38148 0.37373 0.0
C206 C 0.97788 0.37838 0.34007 0.0
C207 C 0.96982 0.3542 0.28738 0.0
C208 C 0.91466 0.25721 0.26735 0.0
C209 C 0.90178 0.23261 0.22768 0.0
C210 C 0.88609 0.21326 0.2829 0.0
C211 C 0.88295 0.21824 0.37886 0.0
C212 C 0.8912 0.24547 0.41408 0.0
C213 C 0.90708 0.26483 0.35872 0.0
C214 C 0.99967 0.23923 0.08182 0.0
C215 C 1.01176 0.21527 0.12847 0.0
C216 C 0.31765 0.97765 0.9363 0.0
C217 C 0.33422 1.00195 0.96239 0.0
C218 C 0.32283 0.01995 0.03314 0.0
C219 C 0.29696 0.01263 0.08053 0.0
H220 H 0.2056 0.0279 0.27073 0.0
H221 H 0.16376 0.04365 0.36445 0.0
H222 H 0.13242 0.95537 0.37264 0.0
H223 H 0.17345 0.94007 0.27998 0.0
H224 H 0.24015 0.90788 0.39118 0.0
H225 H 0.27392 0.88024 0.48691 0.0
H226 H 0.33109 0.87131 0.25018 0.0
H227 H 0.29702 0.89755 0.15473 0.0
H228 H 0.28115 0.95034 0.96557 0.0
H229 H 0.32542 0.96289 0.88354 0.0
H230 H 0.33448 0.03917 0.05459 0.0
H231 H 0.29014 0.02566 0.13908 0.0
N232 N 0.23708 0.98602 0.16205 0.0
N233 N 0.22935 0.9444 0.25538 0.0
N234 N 0.2693 0.94642 0.15633 0.0
C235 C 0.22042 0.97103 0.22575 0.0
C236 C 0.25371 0.93198 0.22128 0.0
C237 C 0.26151 0.97315 0.12592 0.0
C238 C 0.19304 0.9827 0.26771 0.0
C239 C 0.18936 1.01209 0.29079 0.0
C240 C 0.16548 0.02101 0.34549 0.0
C241 C 0.14451 1.00082 0.37718 0.0
C242 C 0.14764 0.97177 0.34942 0.0
C243 C 0.17147 0.96291 0.29631 0.0
C244 C 0.2667 0.90618 0.26665 0.0
C245 C 0.25929 0.89883 0.35861 0.0
C246 C 0.27878 0.88308 0.41374 0.0
C247 C 0.306 0.87487 0.37783 0.0
C248 C 0.31071 0.87766 0.28148 0.0
C249 C 0.29118 0.89311 0.2264 0.0
C250 C 0.28174 0.98718 0.05819 0.0
C251 C 0.29198 0.97042 0.98341 0.0
C252 C 0.62621 0.28863 0.42209 0.0
C253 C 0.64517 0.30737 0.37322 0.0
C254 C 0.65229 0.30011 0.28072 0.0
C255 C 0.63622 0.27916 0.23329 0.0
H256 H 0.57852 0.16879 0.24884 0.0
H257 H 0.56321 0.12751 0.3415 0.0
H258 H 0.47788 0.16538 0.3692 0.0
H259 H 0.49391 0.20755 0.27726 0.0
H260 H 0.49748 0.28874 0.12685 0.0
H261 H 0.48462 0.33362 0.0436 0.0
H262 H 0.5657 0.32959 0.89338 0.0
H263 H 0.57789 0.28493 0.97462 0.0
H264 H 0.59431 0.25515 0.41277 0.0
H265 H 0.6201 0.29259 0.49345 0.0
H266 H 0.66814 0.31249 0.24172 0.0
H267 H 0.63936 0.27669 0.15907 0.0
N268 N 0.57624 0.22735 0.25579 0.0
N269 N 0.53694 0.237 0.15503 0.0
N270 N 0.57726 0.26836 0.16027 0.0
C271 C 0.55024 0.2193 0.21963 0.0
C272 C 0.55101 0.26156 0.12407 0.0
C273 C 0.58986 0.25167 0.22628 0.0
C274 C 0.53748 0.19161 0.25556 0.0
C275 C 0.55623 0.16807 0.2729 0.0
C276 C 0.54733 0.14415 0.32615 0.0
C277 C 0.51927 0.14284 0.36465 0.0
C278 C 0.49984 0.16565 0.34251 0.0
C279 C 0.50882 0.18972 0.28842 0.0
C280 C 0.53853 0.28292 0.05658 0.0
C281 C 0.5119 0.29685 0.0732 0.0
C282 C 0.50485 0.32298 0.02654 0.0
C283 C 0.52423 0.33581 0.96189 0.0
C284 C 0.54993 0.32062 0.94138 0.0
C285 C 0.55696 0.29478 0.98809 0.0
C286 C 0.61416 0.26387 0.27927 0.0
C287 C 0.61112 0.26687 0.37558 0.0
La288 La 0.03529 1.00445 0.83196 0.0
La289 La 0.99237 0.01666 0.6986 0.0
C290 C 0.06696 0.98569 0.96225 0.0
C291 C 0.08866 0.96282 0.97708 0.0
C292 C 0.11093 0.96738 0.04161 0.0
C293 C 0.13037 0.9451 0.06303 0.0
C294 C 0.12767 0.91778 0.02077 0.0
C295 C 0.10642 0.91395 0.95165 0.0
C296 C 0.08711 0.93633 0.92979 0.0
C297 C 0.05834 0.02028 0.6683 0.0
C298 C 0.01328 0.95266 0.70257 0.0
C299 C 0.96074 0.03617 0.56941 0.0
C300 C 0.93987 0.05998 0.56047 0.0
C301 C 0.93309 0.0775 0.63696 0.0
C302 C 0.91517 0.10172 0.62561 0.0
C303 C 0.90384 0.10879 0.5375 0.0
C304 C 0.90943 0.09007 0.46242 0.0
C305 C 0.92733 0.06589 0.47392 0.0
C306 C 0.96935 1.00058 0.86156 0.0
C307 C 0.0147 0.0685 0.82783 0.0
O308 O 0.07454 1.00648 0.90557 0.0
O309 O 0.04013 0.97742 0.94892 0.0
O310 O 0.06744 0.02817 0.74903 0.0
O311 O 0.03681 1.00383 0.68115 0.0
O312 O 0.02466 0.9598 0.78399 0.0
O313 O 1.00296 0.97332 0.6481 0.0
O314 O 0.9531 0.01516 0.62532 0.0
O315 O 0.98779 0.0438 0.58174 0.0
O316 O 0.96054 0.99245 0.78068 0.0
O317 O 0.99079 0.01728 0.84944 0.0
O318 O 1.00243 0.06135 0.74776 0.0
O319 O 0.02555 0.04796 0.88146 0.0
H320 H 0.11272 0.98789 0.07767 0.0
H321 H 0.14675 0.94884 0.11544 0.0
H322 H 0.10349 0.89311 0.91848 0.0
H323 H 0.07034 0.93256 0.87864 0.0
H324 H 0.94237 0.07294 0.70466 0.0
H325 H 0.91109 0.11552 0.68494 0.0
H326 H 0.90149 0.09503 0.3933 0.0
H327 H 0.93223 0.05242 0.41438 0.0
La328 La 0.51686 0.03232 0.82023 0.0
La329 La 0.50496 0.9901 0.68644 0.0
C330 C 0.53656 0.06383 0.94866 0.0
C331 C 0.56048 0.08463 0.95498 0.0
C332 C 0.57791 0.09062 0.87723 0.0
C333 C 0.60228 0.10842 0.88592 0.0
C334 C 0.60959 0.12041 0.97259 0.0
C335 C 0.59097 0.11563 0.04888 0.0
C336 C 0.56663 0.09784 0.04005 0.0
C337 C 0.50133 0.05611 0.65752 0.0
C338 C 0.56886 1.01046 0.6912 0.0
C339 C 0.48569 0.95855 0.55737 0.0
C340 C 0.46255 0.93691 0.54996 0.0
C341 C 0.44558 0.92957 0.62758 0.0
C342 C 0.42205 0.91072 0.61803 0.0
C343 C 0.41507 0.89906 0.53058 0.0
C344 C 0.43326 0.90529 0.45427 0.0
C345 C 0.4568 0.92408 0.46401 0.0
C346 C 0.52028 0.96644 0.84988 0.0
C347 C 0.45294 1.01191 0.81598 0.0
O348 O 0.51533 0.07145 0.89397 0.0
O349 O 0.54408 0.03676 0.93636 0.0
O350 O 0.49309 0.06467 0.73856 0.0
O351 O 0.51787 0.03457 0.6693 0.0
O352 O 0.56152 0.02121 0.77322 0.0
O353 O 0.5483 1.00085 0.63573 0.0
O354 O 0.50731 0.95134 0.61103 0.0
O355 O 0.47727 0.98526 0.57157 0.0
O356 O 0.52852 0.95768 0.76904 0.0
O357 O 0.50378 0.98793 0.83722 0.0
O358 O 0.46025 1.00099 0.73407 0.0
O359 O 0.47352 0.02173 0.87106 0.0
H360 H 0.57319 0.0808 0.81064 0.0
H361 H 0.61603 0.11186 0.82575 0.0
H362 H 0.59613 0.12412 0.11698 0.0
H363 H 0.55322 0.09354 0.10053 0.0
H364 H 0.45002 0.9391 0.69482 0.0
H365 H 0.40864 0.90617 0.67825 0.0
H366 H 0.42832 0.89713 0.38561 0.0
H367 H 0.46987 0.92941 0.4036 0.0
La368 La 0.49156 0.51892 0.83001 0.0
La369 La 0.53281 0.50797 0.68965 0.0
C370 C 0.46143 0.53652 0.96518 0.0
C371 C 0.43978 0.55923 0.98255 0.0
C372 C 0.4186 0.55468 0.05101 0.0
C373 C 0.39923 0.57683 0.07397 0.0
C374 C 0.40091 0.604 0.02934 0.0
C375 C 0.4211 0.60781 0.95674 0.0
C376 C 0.44031 0.58556 0.93332 0.0
C377 C 0.46668 0.50461 0.6683 0.0
C378 C 0.51215 0.57191 0.70156 0.0
C379 C 0.56186 0.49027 0.55234 0.0
C380 C 0.58274 0.46719 0.53144 0.0
C381 C 0.60152 0.45597 0.59951 0.0
C382 C 0.62049 0.43325 0.57776 0.0
C383 C 0.62072 0.42122 0.48791 0.0
C384 C 0.60215 0.43318 0.41991 0.0
C385 C 0.58352 0.45597 0.44145 0.0
C386 C 0.5578 0.52276 0.85057 0.0
C387 C 0.51275 0.45503 0.81937 0.0
O388 O 0.45337 0.5159 0.90918 0.0
O389 O 0.48801 0.54508 0.94858 0.0
O390 O 0.4584 0.49598 0.74951 0.0
O391 O 0.48828 0.52099 0.67977 0.0
O392 O 0.50175 0.56402 0.78392 0.0
O393 O 0.52164 0.55177 0.6443 0.0
O394 O 0.57061 0.51047 0.60904 0.0
O395 O 0.53528 0.48199 0.57008 0.0
O396 O 0.56606 0.53106 0.76891 0.0
O397 O 0.53626 0.50618 0.84005 0.0
O398 O 0.52329 0.46287 0.73715 0.0
O399 O 0.50288 0.47517 0.87605 0.0
H400 H 0.41759 0.53428 0.08865 0.0
H401 H 0.38367 0.57306 0.12908 0.0
H402 H 0.42327 0.62853 0.92158 0.0
H403 H 0.45621 0.58931 0.87917 0.0
H404 H 0.60124 0.46447 0.6696 0.0
H405 H 0.63459 0.42485 0.6317 0.0
H406 H 0.60094 0.4242 0.35063 0.0
H407 H 0.56915 0.46439 0.38815 0.0
La408 La 1.00768 0.49334 0.82194 0.0
La409 La 0.01981 0.5356 0.68688 0.0
C410 C 0.98786 0.46169 0.9509 0.0
C411 C 0.96429 0.44048 0.95701 0.0
C412 C 0.94729 0.43418 0.87883 0.0
C413 C 0.92326 0.41588 0.88717 0.0
C414 C 0.91586 0.40369 0.97391 0.0
C415 C 0.93407 0.40882 0.0507 0.0
C416 C 0.95808 0.4271 0.04221 0.0
C417 C 0.02361 0.46952 0.66018 0.0
C418 C 0.95596 0.51499 0.69105 0.0
C419 C 0.03924 0.56715 0.55695 0.0
C420 C 0.06218 0.589 0.54909 0.0
C421 C 0.07881 0.59667 0.62677 0.0
C422 C 0.10217 0.61576 0.61687 0.0
C423 C 0.1093 0.62734 0.529 0.0
C424 C 0.09144 0.62075 0.45256 0.0
C425 C 0.06807 0.60173 0.46264 0.0
C426 C 1.00402 0.55928 0.84901 0.0
C427 C 0.07154 0.51398 0.81812 0.0
O428 O 1.0095 0.45436 0.89757 0.0
O429 O 0.97995 0.48861 0.93705 0.0
O430 O 0.03174 0.46106 0.74164 0.0
O431 O 1.00702 0.49105 0.67104 0.0
O432 O 0.9631 0.50429 0.77361 0.0
O433 O 0.97666 0.52463 0.63569 0.0
O434 O 0.01737 0.57423 0.60968 0.0
O435 O 0.04787 0.54054 0.57264 0.0
O436 O 0.99605 0.56804 0.7677 0.0
O437 O 0.02055 0.53776 0.83769 0.0
O438 O 0.06443 0.5248 0.73562 0.0
O439 O 0.05083 0.5042 0.87324 0.0
H440 H 0.95208 0.44412 0.81213 0.0
H441 H 0.90983 0.41218 0.82664 0.0
H442 H 0.92882 0.4002 0.11886 0.0
H443 H 0.97116 0.43164 0.103 0.0
H444 H 0.07427 0.58721 0.69436 0.0
H445 H 0.11535 0.62056 0.67717 0.0
H446 H 0.09654 0.6288 0.3836 0.0
H447 H 0.05526 0.59614 0.40217 0.0
C448 C 0.12615 0.02831 0.518 0.0
C449 C 0.12073 1.00902 0.44437 0.0
H450 H 0.11081 0.04707 0.64528 0.0
C451 C 0.09318 0.99563 0.44084 0.0
H452 H 0.14703 0.03888 0.52423 0.0
C453 C 0.07237 1.00024 0.51096 0.0
C454 C 0.07846 0.01839 0.58679 0.0
H455 H 0.08785 0.981 0.38471 0.0
H456 H 0.05188 0.9888 0.50736 0.0
C457 C 0.10536 0.03289 0.58806 0.0
C458 C 0.49406 0.12503 0.51142 0.0
C459 C 0.51156 0.11911 0.43336 0.0
H460 H 0.47694 0.10997 0.64175 0.0
C461 C 0.52359 0.09097 0.42636 0.0
H462 H 0.48462 0.14632 0.52084 0.0
C463 C 0.51944 0.07009 0.497 0.0
C464 C 0.50299 0.07661 0.57658 0.0
H465 H 0.53672 0.08513 0.36689 0.0
H466 H 0.52979 0.04909 0.49044 0.0
C467 C 0.4898 0.10412 0.5816 0.0
C468 C 0.39805 0.49722 0.52199 0.0
C469 C 0.40328 0.51651 0.44756 0.0
H470 H 0.4138 0.47829 0.64903 0.0
C471 C 0.43087 0.52979 0.44246 0.0
H472 H 0.37715 0.48674 0.52937 0.0
C473 C 0.45192 0.52502 0.51169 0.0
C474 C 0.44606 0.50684 0.58823 0.0
H475 H 0.43606 0.54441 0.38568 0.0
H476 H 0.47247 0.53633 0.50674 0.0
C477 C 0.41909 0.49249 0.59123 0.0
C478 C 0.03236 0.40072 0.51639 0.0
C479 C 0.01363 0.40563 0.44056 0.0
H480 H 0.05031 0.41686 0.64366 0.0
C481 C 1.00017 0.43314 0.4339 0.0
H482 H 0.04294 0.37992 0.52534 0.0
C483 C 1.00425 0.45438 0.50278 0.0
C484 C 0.02197 0.44882 0.58038 0.0
H485 H 0.98599 0.43816 0.37606 0.0
H486 H 0.99283 0.47484 0.49661 0.0
C487 C 0.03646 0.42195 0.585 0.0
C488 C 0.93366 0.0239 0.08949 0.0
C489 C 0.906 1.01078 0.08364 0.0
H490 H 0.97532 0.03093 0.0253 0.0
C491 C 0.9008 0.99217 1.008 0.0
H492 H 0.93892 0.03795 0.14718 0.0
C493 C 0.92189 0.98793 0.93873 0.0
C494 C 0.9489 1.00218 0.94237 0.0
H495 H 0.87989 0.98184 0.99962 0.0
H496 H 0.91657 0.97422 0.88021 0.0
C497 C 0.95475 0.01971 0.01985 0.0
C498 C 0.52713 0.89808 0.99899 0.0
C499 C 0.5091 0.90423 0.07561 0.0
H500 H 0.54491 0.91273 0.869 0.0
C501 C 0.49686 0.9323 0.08071 0.0
H502 H 0.53676 0.8768 0.99128 0.0
C503 C 0.50136 0.95293 1.0096 0.0
C504 C 0.51832 0.94618 0.93132 0.0
H505 H 0.48329 0.93827 0.13906 0.0
H506 H 0.49085 0.97389 1.01471 0.0
C507 C 0.53168 0.91872 0.92815 0.0
C508 C 0.59343 0.50041 0.07992 0.0
C509 C 0.6212 0.51325 0.07261 0.0
H510 H 0.5517 0.49339 0.0168 0.0
C511 C 0.62661 0.53126 0.99504 0.0
H512 H 0.58803 0.48683 0.13907 0.0
C513 C 0.60558 0.53522 0.92542 0.0
C514 C 0.57843 0.52128 0.93076 0.0
H515 H 0.64763 0.54133 0.98562 0.0
H516 H 0.61102 0.54848 0.86551 0.0
C517 C 0.5724 0.50433 1.01001 0.0
C518 C 0.997 0.62779 0.99548 0.0
C519 C 0.01419 0.62134 0.07391 0.0
H520 H 0.98018 0.61344 0.86442 0.0
C521 C 0.02589 0.59306 0.08086 0.0
H522 H 0.98781 0.64923 0.98623 0.0
C523 C 0.02174 0.57252 1.00991 0.0
C524 C 1.00562 0.57954 0.92997 0.0
H525 H 0.03877 0.58683 0.1406 0.0
H526 H 0.03184 0.55139 0.01658 0.0
C527 C 0.99276 0.60723 0.92487 0.0
C528 C 0.86287 0.1686 0.41477 0.0
C529 C 0.87927 0.19284 0.44226 0.0
H530 H 0.85748 0.1225 0.42473 0.0
C531 C 0.89818 0.18982 0.51848 0.0
H532 H 0.84751 0.17029 0.35809 0.0
C533 C 0.90382 0.16255 0.55661 0.0
C534 C 0.89064 0.13769 0.51956 0.0
H535 H 0.91132 0.20781 0.54199 0.0
H536 H 0.92085 0.16076 0.60812 0.0
C537 C 0.86863 0.14119 0.45276 0.0
C538 C 0.33428 0.89081 0.5162 0.0
C539 C 0.33159 0.87179 0.44038 0.0
H540 H 0.36288 0.91441 0.60388 0.0
C541 C 0.35623 0.85604 0.41214 0.0
H542 H 0.31601 0.90345 0.54044 0.0
C543 C 0.38356 0.86268 0.44851 0.0
C544 C 0.38659 0.88486 0.51462 0.0
H545 H 0.35484 0.84054 0.35596 0.0
H546 H 0.40251 0.85208 0.4197 0.0
C547 C 0.36147 0.89728 0.55281 0.0
C548 C 0.64705 0.34374 0.5045 0.0
C549 C 0.65082 0.33732 0.40947 0.0
H550 H 0.63346 0.37511 0.6042 0.0
C551 C 0.65308 0.36086 0.34676 0.0
H552 H 0.64704 0.32674 0.55661 0.0
C553 C 0.64683 0.38901 0.37536 0.0
C554 C 0.63738 0.39434 0.46653 0.0
H555 H 0.65664 0.35769 0.27325 0.0
H556 H 0.64679 0.40612 0.32356 0.0
C557 C 0.63976 0.37184 0.5325 0.0
C558 C 0.19003 0.63609 0.51526 0.0
C559 C 0.19272 0.6549 0.4383 0.0
H560 H 0.16142 0.61256 0.60407 0.0
C561 C 0.16806 0.67051 0.40917 0.0
H562 H 0.20832 0.62357 0.54031 0.0
C563 C 0.14071 0.66383 0.44574 0.0
C564 C 0.13769 0.64176 0.51296 0.0
H565 H 0.16944 0.68588 0.35213 0.0
H566 H 0.12175 0.67426 0.41619 0.0
C567 C 0.16282 0.62959 0.55208 0.0
C568 C 0.15905 0.84224 0.03923 0.0
C569 C 0.1558 0.83704 0.13529 0.0
H570 H 0.15282 0.87228 0.92664 0.0
C571 C 0.15018 0.86089 0.19356 0.0
H572 H 0.16436 0.82471 0.99233 0.0
C573 C 0.14397 0.88808 0.156 0.0
C574 C 0.14315 0.89217 0.0593 0.0
H575 H 0.14731 0.85819 0.26776 0.0
H576 H 0.13681 0.90499 0.20277 0.0
C577 C 0.1525 0.86951 1.00146 0.0
C578 C 0.69066 0.12523 0.98865 0.0
C579 C 0.694 0.14504 0.06207 0.0
H580 H 0.66122 0.10187 0.90301 0.0
C581 C 0.66998 0.16207 0.08795 0.0
H582 H 0.70844 0.11158 0.96641 0.0
C583 C 0.64246 0.15616 0.05174 0.0
C584 C 0.63864 0.13342 0.98808 0.0
H585 H 0.67192 0.17815 0.14227 0.0
H586 H 0.62392 0.16786 0.07882 0.0
C587 C 0.66329 0.11949 0.95212 0.0
C588 C 0.37844 0.66099 0.20072 0.0
C589 C 0.37176 0.68452 0.14157 0.0
H590 H 0.39298 0.61727 0.21148 0.0
C591 C 0.36821 0.67905 0.046 0.0
H592 H 0.38164 0.664 0.27457 0.0
C593 C 0.37517 0.65184 1.00933 0.0
C594 C 0.38538 0.62952 0.06773 0.0
H595 H 0.36223 0.69635 0.99856 0.0
H596 H 0.37438 0.64887 0.93472 0.0
C597 C 0.38514 0.63387 0.16425 0.0
C598 C 0.85585 0.36125 0.08981 0.0
C599 C 0.83169 0.378 0.06303 0.0
H600 H 0.90198 0.35602 0.0814 0.0
C601 C 0.83489 0.39764 0.98841 0.0
H602 H 0.85402 0.3453 0.14504 0.0
C603 C 0.86224 0.40364 0.95184 0.0
C604 C 0.887 0.39014 0.98891 0.0
H605 H 0.81698 0.41104 0.96534 0.0
H606 H 0.86416 0.42121 0.9019 0.0
C607 C 0.88334 0.36742 0.0535 0.0
C608 C 0.03331 0.13567 0.97036 0.0
C609 C 0.01292 0.15645 0.93974 0.0
H610 H 0.04973 0.09228 0.96009 0.0
C611 C 0.99394 0.14816 0.86726 0.0
H612 H 0.04891 0.14096 0.02383 0.0
C613 C 0.99496 0.12007 0.82869 0.0
C614 C 0.01466 0.09919 0.86229 0.0
H615 H 0.97755 0.163 0.84189 0.0
H616 H 0.97965 0.11445 0.77461 0.0
C617 C 0.03397 0.10757 0.93304 0.0
C618 C 0.38692 0.01767 0.97643 0.0
C619 C 0.36413 1.00675 0.92146 0.0
H620 H 0.43216 0.02783 0.9871 0.0
C621 C 0.37089 0.99854 0.82931 0.0
H622 H 0.38312 0.02376 0.048 0.0
C623 C 0.39942 1.00048 0.79453 0.0
C624 C 0.42217 1.01087 0.85041 0.0
H625 H 0.35413 0.99042 0.78368 0.0
H626 H 0.40368 0.99355 0.72395 0.0
C627 C 0.41535 0.01975 0.9415 0.0
C628 C 0.5064 0.38782 0.97563 0.0
C629 C 0.51912 0.36578 0.92159 0.0
H630 H 0.4945 0.43263 0.98665 0.0
C631 C 0.52872 0.37335 0.83129 0.0
H632 H 0.49913 0.38331 0.04582 0.0
C633 C 0.52632 0.402 0.79734 0.0
C634 C 0.5142 0.42407 0.85248 0.0
H635 H 0.53831 0.35713 0.78656 0.0
H636 H 0.53431 0.4069 0.72819 0.0
C637 C 0.50398 0.41639 0.94172 0.0
C638 C 0.1536 0.52717 0.83212 0.0
C639 C 0.16013 0.51909 0.92476 0.0
H640 H 0.12106 0.53208 0.72602 0.0
C641 C 0.13718 0.50834 0.97992 0.0
H642 H 0.17049 0.53515 0.78635 0.0
C643 C 0.10883 0.50629 0.94466 0.0
C644 C 0.10223 0.51504 0.85304 0.0
H645 H 0.14081 0.50236 0.05183 0.0
H646 H 0.09189 0.49834 0.99039 0.0
C647 C 0.12513 0.52527 0.797 0.0
C648 C 0.0265 0.87057 0.68928 0.0
C649 C 0.01867 0.86406 0.59668 0.0
H650 H 0.03097 0.90304 0.79523 0.0
C651 C 1.008 0.88701 0.54126 0.0
H652 H 0.03438 0.85366 0.73523 0.0
C653 C 1.00584 0.91538 0.57623 0.0
C654 C 0.01438 0.92196 0.66785 0.0
H655 H 1.00216 0.88335 0.46939 0.0
H656 H 0.998 0.93233 0.53031 0.0
C657 C 0.02445 0.89903 0.72416 0.0
C658 C 0.65104 0.02324 0.68064 0.0
C659 C 0.65812 0.01467 0.58911 0.0
H660 H 0.61787 0.02881 0.7844 0.0
C661 C 0.63547 1.00378 0.53345 0.0
H662 H 0.66767 0.03136 0.72674 0.0
C663 C 0.60687 1.00206 0.56717 0.0
C664 C 0.59975 1.01125 0.6577 0.0
H665 H 0.63955 0.99742 0.46229 0.0
H666 H 0.59017 0.99396 0.52115 0.0
C667 C 0.62235 0.02164 0.71422 0.0
C668 C 0.49875 0.65407 0.69307 0.0
C669 C 0.5064 0.66128 0.60057 0.0
H670 H 0.49456 0.62076 0.7976 0.0
C671 C 0.51699 0.6388 0.54377 0.0
H672 H 0.49088 0.67062 0.73992 0.0
C673 C 0.51924 0.61019 0.57728 0.0
C674 C 0.51092 0.60289 0.6688 0.0
H675 H 0.52266 0.64301 0.47191 0.0
H676 H 0.52702 0.59363 0.53026 0.0
C677 C 0.50094 0.62535 0.72657 0.0
C678 C 0.88993 0.52136 0.53107 0.0
C679 C 0.86713 0.51033 0.58628 0.0
H680 H 0.93521 0.53144 0.51995 0.0
C681 C 0.8739 0.50177 0.67829 0.0
H682 H 0.88609 0.52773 0.45959 0.0
C683 C 0.90245 0.50352 0.71277 0.0
C684 C 0.92521 0.51406 0.65668 0.0
H685 H 0.85713 0.49353 0.72406 0.0
H686 H 0.9067 0.49636 0.78328 0.0
C687 C 0.91839 0.52324 0.56566 0.0
loop_
_geom_bond_atom_site_label_1
_geom_bond_atom_site_label_2
_geom_bond_distance
_geom_bond_site_symmetry_2
_ccdc_geom_bond_type
C0 C1 1.384 . S
C0 H13 0.947 . S
C0 C35 1.382 . S
C1 C0 1.384 . S
C1 C2 1.378 . S
C2 C1 1.378 . S
C2 C3 1.378 . S
C2 H14 0.952 . S
C3 C2 1.378 . S
C3 H15 0.950 . S
C3 C34 1.383 . S
H4 C23 0.947 . S
H5 C24 0.946 . S
H6 C26 0.953 . S
H7 C27 0.945 . S
H8 C29 0.952 . S
H9 C30 0.949 . S
H10 C32 0.950 . S
H11 C33 0.948 . S
H12 C35 0.951 . S
H13 C0 0.947 . S
H14 C2 0.952 . S
H15 C3 0.950 . S
N16 C19 1.382 . S
N16 C21 1.363 . S
N17 C19 1.371 . S
N17 C20 1.372 . S
N18 C20 1.361 . S
N18 C21 1.377 . S
C19 N16 1.382 . S
C19 N17 1.371 . S
C19 C22 1.480 . S
C20 N17 1.372 . S
C20 N18 1.361 . S
C20 C28 1.457 . S
C21 N16 1.363 . S
C21 N18 1.377 . S
C21 C34 1.479 . S
C22 C19 1.480 . S
C22 C23 1.383 . S
C22 C27 1.385 . S
C23 H4 0.947 . S
C23 C22 1.383 . S
C23 C24 1.388 . S
C24 H5 0.946 . S
C24 C23 1.388 . S
C24 C25 1.384 . S
C25 C24 1.384 . S
C25 C26 1.377 . S
C26 H6 0.953 . S
C26 C25 1.377 . S
C26 C27 1.369 . S
C27 H7 0.945 . S
C27 C22 1.385 . S
C27 C26 1.369 . S
C28 C20 1.457 . S
C28 C29 1.372 . S
C28 C33 1.364 . S
C29 H8 0.952 . S
C29 C28 1.372 . S
C29 C30 1.389 . S
C30 H9 0.949 . S
C30 C29 1.389 . S
C30 C31 1.387 . S
C31 C30 1.387 . S
C31 C32 1.372 . S
C32 H10 0.950 . S
C32 C31 1.372 . S
C32 C33 1.379 . S
C33 H11 0.948 . S
C33 C28 1.364 . S
C33 C32 1.379 . S
C34 C3 1.383 . S
C34 C21 1.479 . S
C34 C35 1.398 . S
C35 C0 1.382 . S
C35 H12 0.951 . S
C35 C34 1.398 . S
C36 C37 1.384 1_655 S
C36 H49 0.948 . S
C36 C71 1.382 1_655 S
C37 C36 1.384 1_455 S
C37 C38 1.378 . S
C38 C37 1.378 . S
C38 C39 1.378 . S
C38 H50 0.952 . S
C39 C38 1.378 . S
C39 H51 0.950 . S
C39 C70 1.383 . S
H40 C59 0.947 . S
H41 C60 0.952 . S
H42 C62 0.953 . S
H43 C63 0.945 . S
H44 C65 0.949 1_655 S
H45 C66 0.949 . S
H46 C68 0.950 . S
H47 C69 0.948 . S
H48 C71 0.951 1_655 S
H49 C36 0.948 . S
H50 C38 0.952 . S
H51 C39 0.950 . S
N52 C55 1.382 . S
N52 C57 1.363 . S
N53 C55 1.371 . S
N53 C56 1.372 . S
N54 C56 1.361 . S
N54 C57 1.377 . S
C55 N52 1.382 . S
C55 N53 1.371 . S
C55 C58 1.480 . S
C56 N53 1.372 . S
C56 N54 1.361 . S
C56 C64 1.457 . S
C57 N52 1.363 . S
C57 N54 1.377 . S
C57 C70 1.479 . S
C58 C55 1.480 . S
C58 C59 1.383 . S
C58 C63 1.385 . S
C59 H40 0.947 . S
C59 C58 1.383 . S
C59 C60 1.386 1_455 S
C60 H41 0.952 . S
C60 C59 1.386 1_655 S
C60 C61 1.381 1_655 S
C61 C60 1.381 1_455 S
C61 C62 1.377 . S
C62 H42 0.953 . S
C62 C61 1.377 . S
C62 C63 1.369 . S
C63 H43 0.945 . S
C63 C58 1.385 . S
C63 C62 1.369 . S
C64 C56 1.457 . S
C64 C65 1.377 . S
C64 C69 1.364 . S
C65 H44 0.949 1_455 S
C65 C64 1.377 . S
C65 C66 1.387 1_455 S
C66 H45 0.949 . S
C66 C65 1.387 1_655 S
C66 C67 1.387 1_655 S
C67 C66 1.387 1_455 S
C67 C68 1.372 . S
C68 H46 0.950 . S
C68 C67 1.372 . S
C68 C69 1.379 . S
C69 H47 0.948 . S
C69 C64 1.364 . S
C69 C68 1.379 . S
C70 C39 1.383 . S
C70 C57 1.479 . S
C70 C71 1.398 . S
C71 C36 1.382 1_455 S
C71 H48 0.951 1_455 S
C71 C70 1.398 . S
C72 C73 1.384 1_565 S
C72 H85 0.948 . S
C72 C107 1.382 1_565 S
C73 C72 1.384 1_545 S
C73 C74 1.378 . S
C74 C73 1.378 . S
C74 C75 1.378 . S
C74 H86 0.952 . S
C75 C74 1.378 . S
C75 H87 0.950 . S
C75 C106 1.383 . S
H76 C95 0.947 . S
H77 C96 0.952 . S
H78 C98 0.953 . S
H79 C99 0.945 . S
H80 C101 0.949 1_565 S
H81 C102 0.949 . S
H82 C104 0.950 . S
H83 C105 0.948 . S
H84 C107 0.951 1_565 S
H85 C72 0.948 . S
H86 C74 0.952 . S
H87 C75 0.950 . S
N88 C91 1.382 . S
N88 C93 1.363 . S
N89 C91 1.371 . S
N89 C92 1.372 . S
N90 C92 1.361 . S
N90 C93 1.377 . S
C91 N88 1.382 . S
C91 N89 1.371 . S
C91 C94 1.480 . S
C92 N89 1.372 . S
C92 N90 1.361 . S
C92 C100 1.457 . S
C93 N88 1.363 . S
C93 N90 1.377 . S
C93 C106 1.479 . S
C94 C91 1.480 . S
C94 C95 1.383 . S
C94 C99 1.385 . S
C95 H76 0.947 . S
C95 C94 1.383 . S
C95 C96 1.386 1_545 S
C96 H77 0.952 . S
C96 C95 1.386 1_565 S
C96 C97 1.382 1_565 S
C97 C96 1.382 1_545 S
C97 C98 1.377 . S
C98 H78 0.953 . S
C98 C97 1.377 . S
C98 C99 1.369 . S
C99 H79 0.945 . S
C99 C94 1.385 . S
C99 C98 1.369 . S
C100 C92 1.457 . S
C100 C101 1.377 . S
C100 C105 1.364 . S
C101 H80 0.949 1_545 S
C101 C100 1.377 . S
C101 C102 1.387 1_545 S
C102 H81 0.949 . S
C102 C101 1.387 1_565 S
C102 C103 1.387 1_565 S
C103 C102 1.387 1_545 S
C103 C104 1.372 . S
C104 H82 0.950 . S
C104 C103 1.372 . S
C104 C105 1.379 . S
C105 H83 0.948 . S
C105 C100 1.364 . S
C105 C104 1.379 . S
C106 C75 1.383 . S
C106 C93 1.479 . S
C106 C107 1.398 . S
C107 C72 1.382 1_545 S
C107 H84 0.951 1_545 S
C107 C106 1.398 . S
C108 C109 1.384 . S
C108 H121 0.947 . S
C108 C143 1.382 . S
C109 C108 1.384 . S
C109 C110 1.378 . S
C110 C109 1.378 . S
C110 C111 1.378 . S
C110 H122 0.952 . S
C111 C110 1.378 . S
C111 H123 0.950 . S
C111 C142 1.383 . S
H112 C131 0.947 . S
H113 C132 0.946 . S
H114 C134 0.953 . S
H115 C135 0.945 . S
H116 C137 0.952 . S
H117 C138 0.949 . S
H118 C140 0.950 . S
H119 C141 0.948 . S
H120 C143 0.951 . S
H121 C108 0.947 . S
H122 C110 0.952 . S
H123 C111 0.950 . S
N124 C127 1.382 . S
N124 C129 1.363 . S
N125 C127 1.371 . S
N125 C128 1.372 . S
N126 C128 1.361 . S
N126 C129 1.377 . S
C127 N124 1.382 . S
C127 N125 1.371 . S
C127 C130 1.480 . S
C128 N125 1.372 . S
C128 N126 1.361 . S
C128 C136 1.457 . S
C129 N124 1.363 . S
C129 N126 1.377 . S
C129 C142 1.479 . S
C130 C127 1.480 . S
C130 C131 1.383 . S
C130 C135 1.385 . S
C131 H112 0.947 . S
C131 C130 1.383 . S
C131 C132 1.388 . S
C132 H113 0.946 . S
C132 C131 1.388 . S
C132 C133 1.384 . S
C133 C132 1.384 . S
C133 C134 1.377 . S
C134 H114 0.953 . S
C134 C133 1.377 . S
C134 C135 1.369 . S
C135 H115 0.945 . S
C135 C130 1.385 . S
C135 C134 1.369 . S
C136 C128 1.457 . S
C136 C137 1.372 . S
C136 C141 1.364 . S
C137 H116 0.952 . S
C137 C136 1.372 . S
C137 C138 1.389 . S
C138 H117 0.949 . S
C138 C137 1.389 . S
C138 C139 1.387 . S
C139 C138 1.387 . S
C139 C140 1.372 . S
C140 H118 0.950 . S
C140 C139 1.372 . S
C140 C141 1.379 . S
C141 H119 0.948 . S
C141 C136 1.364 . S
C141 C140 1.379 . S
C142 C111 1.383 . S
C142 C129 1.479 . S
C142 C143 1.398 . S
C143 C108 1.382 . S
C143 H120 0.951 . S
C143 C142 1.398 . S
C144 C145 1.384 . S
C144 H157 0.947 . S
C144 C179 1.382 . S
C145 C144 1.384 . S
C145 C146 1.378 . S
C146 C145 1.378 . S
C146 C147 1.378 . S
C146 H158 0.952 . S
C147 C146 1.378 . S
C147 H159 0.950 . S
C147 C178 1.383 . S
H148 C167 0.947 1_556 S
H149 C168 0.946 . S
H150 C170 0.953 . S
H151 C171 0.945 . S
H152 C173 0.952 . S
H153 C174 0.949 . S
H154 C176 0.950 . S
H155 C177 0.948 . S
H156 C179 0.951 . S
H157 C144 0.947 . S
H158 C146 0.952 . S
H159 C147 0.950 . S
N160 C163 1.382 1_556 S
N160 C165 1.363 . S
N161 C163 1.371 . S
N161 C164 1.372 . S
N162 C164 1.361 . S
N162 C165 1.377 1_554 S
C163 N160 1.382 1_554 S
C163 N161 1.371 . S
C163 C166 1.480 . S
C164 N161 1.372 . S
C164 N162 1.361 . S
C164 C172 1.457 . S
C165 N160 1.363 . S
C165 N162 1.377 1_556 S
C165 C178 1.479 . S
C166 C163 1.480 . S
C166 C167 1.383 . S
C166 C171 1.385 . S
C167 H148 0.947 1_554 S
C167 C166 1.383 . S
C167 C168 1.388 . S
C168 H149 0.946 . S
C168 C167 1.388 . S
C168 C169 1.384 . S
C169 C168 1.384 . S
C169 C170 1.377 . S
C170 H150 0.953 . S
C170 C169 1.377 . S
C170 C171 1.369 . S
C171 H151 0.945 . S
C171 C166 1.385 . S
C171 C170 1.369 . S
C172 C164 1.457 . S
C172 C173 1.372 . S
C172 C177 1.364 . S
C173 H152 0.952 . S
C173 C172 1.372 . S
C173 C174 1.389 . S
C174 H153 0.949 . S
C174 C173 1.389 . S
C174 C175 1.387 . S
C175 C174 1.387 . S
C175 C176 1.372 . S
C176 H154 0.950 . S
C176 C175 1.372 . S
C176 C177 1.379 . S
C177 H155 0.948 . S
C177 C172 1.364 . S
C177 C176 1.379 . S
C178 C147 1.383 . S
C178 C165 1.479 . S
C178 C179 1.398 . S
C179 C144 1.382 . S
C179 H156 0.951 . S
C179 C178 1.398 . S
C180 C181 1.384 1_655 S
C180 H193 0.947 . S
C180 C215 1.382 1_655 S
C181 C180 1.384 1_455 S
C181 C182 1.378 . S
C182 C181 1.378 . S
C182 C183 1.378 . S
C182 H194 0.952 . S
C183 C182 1.378 . S
C183 H195 0.950 . S
C183 C214 1.383 . S
H184 C203 0.947 1_556 S
H185 C204 0.950 . S
H186 C206 0.953 . S
H187 C207 0.945 . S
H188 C209 0.947 1_655 S
H189 C210 0.954 . S
H190 C212 0.950 . S
H191 C213 0.948 . S
H192 C215 0.950 1_655 S
H193 C180 0.947 . S
H194 C182 0.952 . S
H195 C183 0.950 . S
N196 C199 1.382 1_556 S
N196 C201 1.363 . S
N197 C199 1.371 . S
N197 C200 1.372 . S
N198 C200 1.361 . S
N198 C201 1.377 1_554 S
C199 N196 1.382 1_554 S
C199 N197 1.371 . S
C199 C202 1.480 . S
C200 N197 1.372 . S
C200 N198 1.361 . S
C200 C208 1.457 . S
C201 N196 1.363 . S
C201 N198 1.377 1_556 S
C201 C214 1.479 . S
C202 C199 1.480 . S
C202 C203 1.383 . S
C202 C207 1.385 . S
C203 H184 0.947 1_554 S
C203 C202 1.383 . S
C203 C204 1.387 1_455 S
C204 H185 0.950 . S
C204 C203 1.387 1_655 S
C204 C205 1.382 1_655 S
C205 C204 1.382 1_455 S
C205 C206 1.377 . S
C206 H186 0.953 . S
C206 C205 1.377 . S
C206 C207 1.369 . S
C207 H187 0.945 . S
C207 C202 1.385 . S
C207 C206 1.369 . S
C208 C200 1.457 . S
C208 C209 1.379 . S
C208 C213 1.364 . S
C209 H188 0.947 1_455 S
C209 C208 1.379 . S
C209 C210 1.387 1_455 S
C210 H189 0.954 . S
C210 C209 1.387 1_655 S
C210 C211 1.383 1_655 S
C211 C210 1.383 1_455 S
C211 C212 1.372 . S
C212 H190 0.950 . S
C212 C211 1.372 . S
C212 C213 1.379 . S
C213 H191 0.948 . S
C213 C208 1.364 . S
C213 C212 1.379 . S
C214 C183 1.383 . S
C214 C201 1.479 . S
C214 C215 1.399 . S
C215 C180 1.382 1_455 S
C215 H192 0.950 1_455 S
C215 C214 1.399 . S
C216 C217 1.384 1_565 S
C216 H229 0.947 . S
C216 C251 1.382 1_565 S
C217 C216 1.384 1_545 S
C217 C218 1.378 . S
C218 C217 1.378 . S
C218 C219 1.378 . S
C218 H230 0.952 . S
C219 C218 1.378 . S
C219 H231 0.950 . S
C219 C250 1.383 . S
H220 C239 0.947 1_556 S
H221 C240 0.950 . S
H222 C242 0.953 . S
H223 C243 0.945 . S
H224 C245 0.948 1_565 S
H225 C246 0.954 . S
H226 C248 0.950 . S
H227 C249 0.948 . S
H228 C251 0.950 1_565 S
H229 C216 0.947 . S
H230 C218 0.952 . S
H231 C219 0.950 . S
N232 C235 1.382 1_556 S
N232 C237 1.363 . S
N233 C235 1.371 . S
N233 C236 1.372 . S
N234 C236 1.361 . S
N234 C237 1.377 1_554 S
C235 N232 1.382 1_554 S
C235 N233 1.371 . S
C235 C238 1.480 . S
C236 N233 1.372 . S
C236 N234 1.361 . S
C236 C244 1.457 . S
C237 N232 1.363 . S
C237 N234 1.377 1_556 S
C237 C250 1.479 . S
C238 C235 1.480 . S
C238 C239 1.383 . S
C238 C243 1.385 . S
C239 H220 0.947 1_554 S
C239 C238 1.383 . S
C239 C240 1.387 1_545 S
C240 H221 0.950 . S
C240 C239 1.387 1_565 S
C240 C241 1.382 1_565 S
C241 C240 1.382 1_545 S
C241 C242 1.377 . S
C242 H222 0.953 . S
C242 C241 1.377 . S
C242 C243 1.369 . S
C243 H223 0.945 . S
C243 C238 1.385 . S
C243 C242 1.369 . S
C244 C236 1.457 . S
C244 C245 1.379 . S
C244 C249 1.364 . S
C245 H224 0.948 1_545 S
C245 C244 1.379 . S
C245 C246 1.387 1_545 S
C246 H225 0.954 . S
C246 C245 1.387 1_565 S
C246 C247 1.384 1_565 S
C247 C246 1.384 1_545 S
C247 C248 1.372 . S
C248 H226 0.950 . S
C248 C247 1.372 . S
C248 C249 1.379 . S
C249 H227 0.948 . S
C249 C244 1.364 . S
C249 C248 1.379 . S
C250 C219 1.383 . S
C250 C237 1.479 . S
C250 C251 1.399 . S
C251 C216 1.382 1_545 S
C251 H228 0.950 1_545 S
C251 C250 1.399 . S
C252 C253 1.384 . S
C252 H265 0.947 . S
C252 C287 1.382 . S
C253 C252 1.384 . S
C253 C254 1.378 . S
C254 C253 1.378 . S
C254 C255 1.378 . S
C254 H266 0.952 . S
C255 C254 1.378 . S
C255 H267 0.950 . S
C255 C286 1.383 . S
H256 C275 0.947 . S
H257 C276 0.946 . S
H258 C278 0.953 1_556 S
H259 C279 0.945 1_556 S
H260 C281 0.952 . S
H261 C282 0.949 . S
H262 C284 0.950 . S
H263 C285 0.948 . S
H264 C287 0.951 . S
H265 C252 0.947 . S
H266 C254 0.952 . S
H267 C255 0.950 . S
N268 C271 1.382 . S
N268 C273 1.363 . S
N269 C271 1.371 1_556 S
N269 C272 1.372 . S
N270 C272 1.361 1_554 S
N270 C273 1.377 . S
C271 N268 1.382 . S
C271 N269 1.371 1_554 S
C271 C274 1.480 . S
C272 N269 1.372 . S
C272 N270 1.361 1_556 S
C272 C280 1.457 . S
C273 N268 1.363 . S
C273 N270 1.377 . S
C273 C286 1.479 . S
C274 C271 1.480 . S
C274 C275 1.383 . S
C274 C279 1.385 . S
C275 H256 0.947 . S
C275 C274 1.383 . S
C275 C276 1.388 . S
C276 H257 0.946 . S
C276 C275 1.388 . S
C276 C277 1.384 . S
C277 C276 1.384 . S
C277 C278 1.377 . S
C278 H258 0.953 1_554 S
C278 C277 1.377 . S
C278 C279 1.369 . S
C279 H259 0.945 1_554 S
C279 C274 1.385 . S
C279 C278 1.369 . S
C280 C272 1.457 . S
C280 C281 1.372 . S
C280 C285 1.364 . S
C281 H260 0.952 . S
C281 C280 1.372 . S
C281 C282 1.389 . S
C282 H261 0.949 . S
C282 C281 1.389 . S
C282 C283 1.387 . S
C283 C282 1.387 . S
C283 C284 1.372 . S
C284 H262 0.950 . S
C284 C283 1.372 . S
C284 C285 1.379 . S
C285 H263 0.948 . S
C285 C280 1.364 . S
C285 C284 1.379 . S
C286 C255 1.383 . S
C286 C273 1.479 . S
C286 C287 1.398 . S
C287 C252 1.382 . S
C287 H264 0.951 . S
C287 C286 1.398 . S
La288 C290 2.928 . S
La288 O308 2.521 . S
La288 O309 2.628 . S
La288 O310 2.554 . S
La288 O311 2.757 1_565 S
La288 O312 2.470 . S
La288 O317 2.482 1_455 S
La288 O319 2.503 1_565 S
La289 C299 2.928 . S
La289 O311 2.482 1_655 S
La289 O313 2.503 1_545 S
La289 O314 2.521 . S
La289 O315 2.628 . S
La289 O316 2.554 . S
La289 O317 2.757 1_545 S
La289 O318 2.470 . S
C290 La288 2.928 . S
C290 C291 1.503 . S
C290 O308 1.261 . S
C290 O309 1.243 . S
C291 C290 1.503 . S
C291 C292 1.394 . S
C291 C296 1.373 1_556 S
C292 C291 1.394 . S
C292 C293 1.380 1_556 S
C292 H320 0.930 . S
C293 C292 1.380 1_554 S
C293 C294 1.376 . S
C293 H321 0.930 . S
C294 C293 1.376 . S
C294 C295 1.370 . S
C295 C294 1.370 . S
C295 C296 1.396 . S
C295 H322 0.929 . S
C296 C291 1.373 1_554 S
C296 C295 1.396 . S
C296 H323 0.929 1_455 S
C297 O310 1.240 . S
C297 O311 1.289 1_565 S
C298 O312 1.258 1_655 S
C298 O313 1.256 . S
C299 La289 2.928 . S
C299 C300 1.503 . S
C299 O314 1.261 . S
C299 O315 1.243 . S
C300 C299 1.503 . S
C300 C301 1.394 . S
C300 C305 1.373 . S
C301 C300 1.394 . S
C301 C302 1.380 . S
C301 H324 0.930 . S
C302 C301 1.380 . S
C302 C303 1.376 . S
C302 H325 0.930 . S
C303 C302 1.376 . S
C303 C304 1.370 . S
C304 C303 1.370 . S
C304 C305 1.396 . S
C304 H326 0.929 . S
C305 C300 1.373 . S
C305 C304 1.396 . S
C305 H327 0.929 1_655 S
C306 O316 1.240 . S
C306 O317 1.289 1_545 S
C307 O318 1.258 1_455 S
C307 O319 1.256 . S
O308 La288 2.521 . S
O308 C290 1.261 . S
O309 La288 2.628 . S
O309 C290 1.243 . S
O310 La288 2.554 . S
O310 C297 1.240 . S
O311 La288 2.757 1_545 S
O311 La289 2.482 1_455 S
O311 C297 1.289 1_545 S
O312 La288 2.470 . S
O312 C298 1.258 1_455 S
O313 La289 2.503 1_565 S
O313 C298 1.256 . S
O314 La289 2.521 . S
O314 C299 1.261 . S
O315 La289 2.628 . S
O315 C299 1.243 . S
O316 La289 2.554 . S
O316 C306 1.240 . S
O317 La288 2.482 1_655 S
O317 La289 2.757 1_565 S
O317 C306 1.289 1_565 S
O318 La289 2.470 . S
O318 C307 1.258 1_655 S
O319 La288 2.503 1_545 S
O319 C307 1.256 . S
H320 C292 0.930 . S
H321 C293 0.930 . S
H322 C295 0.929 . S
H323 C296 0.929 1_655 S
H324 C301 0.930 . S
H325 C302 0.930 . S
H326 C304 0.929 . S
H327 C305 0.929 1_455 S
La328 C330 2.928 . S
La328 O348 2.521 . S
La328 O349 2.628 . S
La328 O350 2.554 . S
La328 O351 2.757 . S
La328 O352 2.470 . S
La328 O357 2.482 1_545 S
La328 O359 2.503 . S
La329 C339 2.928 . S
La329 O351 2.482 1_565 S
La329 O353 2.503 . S
La329 O354 2.521 . S
La329 O355 2.628 . S
La329 O356 2.554 . S
La329 O357 2.757 . S
La329 O358 2.470 . S
C330 La328 2.928 . S
C330 C331 1.503 . S
C330 O348 1.261 . S
C330 O349 1.243 . S
C331 C330 1.503 . S
C331 C332 1.394 . S
C331 C336 1.373 1_556 S
C332 C331 1.394 . S
C332 C333 1.380 1_556 S
C332 H360 0.930 . S
C333 C332 1.380 1_554 S
C333 C334 1.376 . S
C333 H361 0.930 . S
C334 C333 1.376 . S
C334 C335 1.370 . S
C335 C334 1.370 . S
C335 C336 1.396 . S
C335 H362 0.929 . S
C336 C331 1.373 1_554 S
C336 C335 1.396 . S
C336 H363 0.929 1_545 S
C337 O350 1.240 . S
C337 O351 1.289 . S
C338 O352 1.258 1_565 S
C338 O353 1.256 . S
C339 La329 2.928 . S
C339 C340 1.503 . S
C339 O354 1.261 . S
C339 O355 1.243 . S
C340 C339 1.503 . S
C340 C341 1.394 . S
C340 C345 1.373 . S
C341 C340 1.394 . S
C341 C342 1.380 . S
C341 H364 0.930 . S
C342 C341 1.380 . S
C342 C343 1.376 . S
C342 H365 0.930 . S
C343 C342 1.376 . S
C343 C344 1.370 . S
C344 C343 1.370 . S
C344 C345 1.396 . S
C344 H366 0.929 . S
C345 C340 1.373 . S
C345 C344 1.396 . S
C345 H367 0.929 1_565 S
C346 O356 1.240 . S
C346 O357 1.289 . S
C347 O358 1.258 1_545 S
C347 O359 1.256 . S
O348 La328 2.521 . S
O348 C330 1.261 . S
O349 La328 2.628 . S
O349 C330 1.243 . S
O350 La328 2.554 . S
O350 C337 1.240 . S
O351 La328 2.757 . S
O351 La329 2.482 1_545 S
O351 C337 1.289 . S
O352 La328 2.470 . S
O352 C338 1.258 1_545 S
O353 La329 2.503 . S
O353 C338 1.256 . S
O354 La329 2.521 . S
O354 C339 1.261 . S
O355 La329 2.628 . S
O355 C339 1.243 . S
O356 La329 2.554 . S
O356 C346 1.240 . S
O357 La328 2.482 1_565 S
O357 La329 2.757 . S
O357 C346 1.289 . S
O358 La329 2.470 . S
O358 C347 1.258 1_565 S
O359 La328 2.503 . S
O359 C347 1.256 . S
H360 C332 0.930 . S
H361 C333 0.930 . S
H362 C335 0.929 . S
H363 C336 0.929 1_565 S
H364 C341 0.930 . S
H365 C342 0.930 . S
H366 C344 0.929 . S
H367 C345 0.929 1_545 S
La368 C370 2.928 . S
La368 O388 2.521 . S
La368 O389 2.628 . S
La368 O390 2.554 . S
La368 O391 2.757 . S
La368 O392 2.470 . S
La368 O397 2.482 . S
La368 O399 2.503 . S
La369 C379 2.928 . S
La369 O391 2.482 . S
La369 O393 2.503 . S
La369 O394 2.521 . S
La369 O395 2.628 . S
La369 O396 2.554 . S
La369 O397 2.757 . S
La369 O398 2.470 . S
C370 La368 2.928 . S
C370 C371 1.503 . S
C370 O388 1.261 . S
C370 O389 1.243 . S
C371 C370 1.503 . S
C371 C372 1.394 . S
C371 C376 1.373 1_556 S
C372 C371 1.394 . S
C372 C373 1.380 1_556 S
C372 H400 0.930 . S
C373 C372 1.380 1_554 S
C373 C374 1.376 . S
C373 H401 0.930 . S
C374 C373 1.376 . S
C374 C375 1.370 . S
C375 C374 1.370 . S
C375 C376 1.396 . S
C375 H402 0.929 . S
C376 C371 1.373 1_554 S
C376 C375 1.396 . S
C376 H403 0.929 . S
C377 O390 1.240 . S
C377 O391 1.289 . S
C378 O392 1.258 . S
C378 O393 1.256 . S
C379 La369 2.928 . S
C379 C380 1.503 . S
C379 O394 1.261 . S
C379 O395 1.243 . S
C380 C379 1.503 . S
C380 C381 1.394 . S
C380 C385 1.373 . S
C381 C380 1.394 . S
C381 C382 1.380 . S
C381 H404 0.930 . S
C382 C381 1.380 . S
C382 C383 1.376 . S
C382 H405 0.930 . S
C383 C382 1.376 . S
C383 C384 1.370 . S
C384 C383 1.370 . S
C384 C385 1.396 . S
C384 H406 0.929 . S
C385 C380 1.373 . S
C385 C384 1.396 . S
C385 H407 0.929 . S
C386 O396 1.240 . S
C386 O397 1.289 . S
C387 O398 1.258 . S
C387 O399 1.256 . S
O388 La368 2.521 . S
O388 C370 1.261 . S
O389 La368 2.628 . S
O389 C370 1.243 . S
O390 La368 2.554 . S
O390 C377 1.240 . S
O391 La368 2.757 . S
O391 La369 2.482 . S
O391 C377 1.289 . S
O392 La368 2.470 . S
O392 C378 1.258 . S
O393 La369 2.503 . S
O393 C378 1.256 . S
O394 La369 2.521 . S
O394 C379 1.261 . S
O395 La369 2.628 . S
O395 C379 1.243 . S
O396 La369 2.554 . S
O396 C386 1.240 . S
O397 La368 2.482 . S
O397 La369 2.757 . S
O397 C386 1.289 . S
O398 La369 2.470 . S
O398 C387 1.258 . S
O399 La368 2.503 . S
O399 C387 1.256 . S
H400 C372 0.930 . S
H401 C373 0.930 . S
H402 C375 0.929 . S
H403 C376 0.929 . S
H404 C381 0.930 . S
H405 C382 0.930 . S
H406 C384 0.929 . S
H407 C385 0.929 . S
La408 C410 2.928 . S
La408 O428 2.521 . S
La408 O429 2.628 . S
La408 O430 2.554 . S
La408 O431 2.757 1_655 S
La408 O432 2.470 . S
La408 O437 2.482 . S
La408 O439 2.503 1_655 S
La409 C419 2.928 . S
La409 O431 2.482 . S
La409 O433 2.503 1_455 S
La409 O434 2.521 . S
La409 O435 2.628 . S
La409 O436 2.554 . S
La409 O437 2.757 1_455 S
La409 O438 2.470 . S
C410 La408 2.928 . S
C410 C411 1.503 . S
C410 O428 1.261 . S
C410 O429 1.243 . S
C411 C410 1.503 . S
C411 C412 1.394 . S
C411 C416 1.373 1_556 S
C412 C411 1.394 . S
C412 C413 1.380 1_556 S
C412 H440 0.930 . S
C413 C412 1.380 1_554 S
C413 C414 1.376 . S
C413 H441 0.930 . S
C414 C413 1.376 . S
C414 C415 1.370 . S
C415 C414 1.370 . S
C415 C416 1.396 . S
C415 H442 0.929 . S
C416 C411 1.373 1_554 S
C416 C415 1.396 . S
C416 H443 0.929 . S
C417 O430 1.244 . S
C417 O431 1.287 1_655 S
C418 O432 1.258 . S
C418 O433 1.256 . S
C419 La409 2.928 . S
C419 C420 1.503 . S
C419 O434 1.261 . S
C419 O435 1.243 . S
C420 C419 1.503 . S
C420 C421 1.394 . S
C420 C425 1.373 . S
C421 C420 1.394 . S
C421 C422 1.380 . S
C421 H444 0.930 . S
C422 C421 1.380 . S
C422 C423 1.376 . S
C422 H445 0.930 . S
C423 C422 1.376 . S
C423 C424 1.370 . S
C424 C423 1.370 . S
C424 C425 1.396 . S
C424 H446 0.929 . S
C425 C420 1.373 . S
C425 C424 1.396 . S
C425 H447 0.929 . S
C426 O436 1.249 . S
C426 O437 1.284 1_455 S
C427 O438 1.258 . S
C427 O439 1.256 . S
O428 La408 2.521 . S
O428 C410 1.261 . S
O429 La408 2.628 . S
O429 C410 1.243 . S
O430 La408 2.554 . S
O430 C417 1.244 . S
O431 La408 2.757 1_455 S
O431 La409 2.482 . S
O431 C417 1.287 1_455 S
O432 La408 2.470 . S
O432 C418 1.258 . S
O433 La409 2.503 1_655 S
O433 C418 1.256 . S
O434 La409 2.521 . S
O434 C419 1.261 . S
O435 La409 2.628 . S
O435 C419 1.243 . S
O436 La409 2.554 . S
O436 C426 1.249 . S
O437 La408 2.482 . S
O437 La409 2.757 1_655 S
O437 C426 1.284 1_655 S
O438 La409 2.470 . S
O438 C427 1.258 . S
O439 La408 2.503 1_455 S
O439 C427 1.256 . S
H440 C412 0.930 . S
H441 C413 0.930 . S
H442 C415 0.929 . S
H443 C416 0.929 . S
H444 C421 0.930 . S
H445 C422 0.930 . S
H446 C424 0.929 . S
H447 C425 0.929 . S
C448 C449 1.400 . S
C448 H452 0.950 . S
C448 C457 1.390 . S
C449 C448 1.400 . S
C449 C451 1.375 1_545 S
H450 C457 0.950 . S
C451 C449 1.375 1_565 S
C451 C453 1.390 . S
C451 H455 0.950 . S
H452 C448 0.950 . S
C453 C451 1.390 . S
C453 C454 1.355 1_565 S
C453 H456 0.950 . S
C454 C453 1.355 1_545 S
C454 C457 1.420 . S
H455 C451 0.950 . S
H456 C453 0.950 . S
C457 C448 1.390 . S
C457 H450 0.950 . S
C457 C454 1.420 . S
C458 C459 1.387 . S
C458 H462 0.950 . S
C458 C467 1.390 . S
C459 C458 1.387 . S
C459 C461 1.387 . S
H460 C467 0.950 . S
C461 C459 1.387 . S
C461 C463 1.390 . S
C461 H465 0.950 . S
H462 C458 0.950 . S
C463 C461 1.390 . S
C463 C464 1.387 . S
C463 H466 0.950 . S
C464 C463 1.387 . S
C464 C467 1.387 . S
H465 C461 0.950 . S
H466 C463 0.950 . S
C467 C458 1.390 . S
C467 H460 0.950 . S
C467 C464 1.387 . S
C468 C469 1.387 . S
C468 H472 0.950 . S
C468 C477 1.390 . S
C469 C468 1.387 . S
C469 C471 1.387 . S
H470 C477 0.950 . S
C471 C469 1.387 . S
C471 C473 1.390 . S
C471 H475 0.950 . S
H472 C468 0.950 . S
C473 C471 1.390 . S
C473 C474 1.387 . S
C473 H476 0.950 . S
C474 C473 1.387 . S
C474 C477 1.387 . S
H475 C471 0.950 . S
H476 C473 0.950 . S
C477 C468 1.390 . S
C477 H470 0.950 . S
C477 C474 1.387 . S
C478 C479 1.414 . S
C478 H482 0.950 . S
C478 C487 1.390 . S
C479 C478 1.414 . S
C479 C481 1.362 1_455 S
H480 C487 0.950 . S
C481 C479 1.362 1_655 S
C481 C483 1.390 . S
C481 H485 0.950 . S
H482 C478 0.950 . S
C483 C481 1.390 . S
C483 C484 1.387 1_655 S
C483 H486 0.950 . S
C484 C483 1.387 1_455 S
C484 C487 1.387 . S
H485 C481 0.950 . S
H486 C483 0.950 . S
C487 C478 1.390 . S
C487 H480 0.950 . S
C487 C484 1.387 . S
C488 C489 1.384 1_545 S
C488 H492 0.950 . S
C488 C497 1.390 . S
C489 C488 1.384 1_565 S
C489 C491 1.391 . S
H490 C497 0.950 . S
C491 C489 1.391 . S
C491 C493 1.390 . S
C491 H495 0.950 . S
H492 C488 0.950 . S
C493 C491 1.390 . S
C493 C494 1.411 . S
C493 H496 0.950 . S
C494 C493 1.411 . S
C494 C497 1.363 1_565 S
H495 C491 0.950 . S
H496 C493 0.950 . S
C497 C488 1.390 . S
C497 H490 0.950 . S
C497 C494 1.363 1_545 S
C498 C499 1.387 . S
C498 H502 0.950 . S
C498 C507 1.390 . S
C499 C498 1.387 . S
C499 C501 1.387 . S
H500 C507 0.950 . S
C501 C499 1.387 . S
C501 C503 1.390 . S
C501 H505 0.950 . S
H502 C498 0.950 . S
C503 C501 1.390 . S
C503 C504 1.387 . S
C503 H506 0.950 . S
C504 C503 1.387 . S
C504 C507 1.387 . S
H505 C501 0.950 . S
H506 C503 0.950 . S
C507 C498 1.390 . S
C507 H500 0.950 . S
C507 C504 1.387 . S
C508 C509 1.387 . S
C508 H512 0.950 . S
C508 C517 1.390 . S
C509 C508 1.387 . S
C509 C511 1.387 . S
H510 C517 0.950 . S
C511 C509 1.387 . S
C511 C513 1.390 . S
C511 H515 0.950 . S
H512 C508 0.950 . S
C513 C511 1.390 . S
C513 C514 1.387 . S
C513 H516 0.950 . S
C514 C513 1.387 . S
C514 C517 1.387 . S
H515 C511 0.950 . S
H516 C513 0.950 . S
C517 C508 1.390 . S
C517 H510 0.950 . S
C517 C514 1.387 . S
C518 C519 1.420 . S
C518 H522 0.950 . S
C518 C527 1.390 . S
C519 C518 1.420 . S
C519 C521 1.356 1_655 S
H520 C527 0.950 . S
C521 C519 1.356 1_455 S
C521 C523 1.390 . S
C521 H525 0.950 . S
H522 C518 0.950 . S
C523 C521 1.390 . S
C523 C524 1.387 1_455 S
C523 H526 0.950 . S
C524 C523 1.387 1_655 S
C524 C527 1.387 . S
H525 C521 0.950 . S
H526 C523 0.950 . S
C527 C518 1.390 . S
C527 H520 0.950 . S
C527 C524 1.387 . S
C528 C529 1.387 . S
C528 H532 0.950 . S
C528 C537 1.390 . S
C529 C528 1.387 . S
C529 C531 1.387 . S
H530 C537 0.950 . S
C531 C529 1.387 . S
C531 C533 1.390 . S
C531 H535 0.950 1_655 S
H532 C528 0.950 . S
C533 C531 1.390 . S
C533 C534 1.387 . S
C533 H536 0.950 . S
C534 C533 1.387 . S
C534 C537 1.387 . S
H535 C531 0.950 1_455 S
H536 C533 0.950 . S
C537 C528 1.390 . S
C537 H530 0.950 . S
C537 C534 1.387 . S
C538 C539 1.387 . S
C538 H542 0.950 1_565 S
C538 C547 1.390 . S
C539 C538 1.387 . S
C539 C541 1.387 . S
H540 C547 0.950 . S
C541 C539 1.387 . S
C541 C543 1.390 . S
C541 H545 0.950 . S
H542 C538 0.950 1_545 S
C543 C541 1.390 . S
C543 C544 1.387 . S
C543 H546 0.950 . S
C544 C543 1.387 . S
C544 C547 1.387 . S
H545 C541 0.950 . S
H546 C543 0.950 . S
C547 C538 1.390 . S
C547 H540 0.950 . S
C547 C544 1.387 . S
C548 C549 1.387 . S
C548 H552 0.950 . S
C548 C557 1.390 . S
C549 C548 1.387 . S
C549 C551 1.387 . S
H550 C557 0.950 . S
C551 C549 1.387 . S
C551 C553 1.390 . S
C551 H555 0.950 . S
H552 C548 0.950 . S
C553 C551 1.390 . S
C553 C554 1.387 . S
C553 H556 0.950 . S
C554 C553 1.387 . S
C554 C557 1.387 . S
H555 C551 0.950 . S
H556 C553 0.950 . S
C557 C548 1.390 . S
C557 H550 0.950 . S
C557 C554 1.387 . S
C558 C559 1.387 . S
C558 H562 0.950 . S
C558 C567 1.390 . S
C559 C558 1.387 . S
C559 C561 1.387 . S
H560 C567 0.950 . S
C561 C559 1.387 . S
C561 C563 1.390 . S
C561 H565 0.950 . S
H562 C558 0.950 . S
C563 C561 1.390 . S
C563 C564 1.387 . S
C563 H566 0.950 . S
C564 C563 1.387 . S
C564 C567 1.387 . S
H565 C561 0.950 . S
H566 C563 0.950 . S
C567 C558 1.390 . S
C567 H560 0.950 . S
C567 C564 1.387 . S
C568 C569 1.387 . S
C568 H572 0.950 1_554 S
C568 C577 1.390 . S
C569 C568 1.387 . S
C569 C571 1.387 . S
H570 C577 0.950 1_556 S
C571 C569 1.387 . S
C571 C573 1.390 . S
C571 H575 0.950 . S
H572 C568 0.950 1_556 S
C573 C571 1.390 . S
C573 C574 1.387 . S
C573 H576 0.950 . S
C574 C573 1.387 . S
C574 C577 1.387 . S
H575 C571 0.950 . S
H576 C573 0.950 . S
C577 C568 1.390 . S
C577 H570 0.950 1_554 S
C577 C574 1.387 . S
C578 C579 1.387 . S
C578 H582 0.944 1_544 S
C578 C587 1.390 . S
C579 C578 1.387 . S
C579 C581 1.387 . S
H580 C587 0.950 1_556 S
C581 C579 1.387 . S
C581 C583 1.390 . S
C581 H585 0.950 . S
H582 C578 0.944 1_566 S
C583 C581 1.390 . S
C583 C584 1.387 . S
C583 H586 0.950 . S
C584 C583 1.387 . S
C584 C587 1.387 . S
H585 C581 0.950 . S
H586 C583 0.950 . S
C587 C578 1.390 . S
C587 H580 0.950 1_554 S
C587 C584 1.387 . S
C588 C589 1.387 . S
C588 H592 0.950 . S
C588 C597 1.390 . S
C589 C588 1.387 . S
C589 C591 1.387 . S
H590 C597 0.950 . S
C591 C589 1.387 . S
C591 C593 1.390 . S
C591 H595 0.950 . S
H592 C588 0.950 . S
C593 C591 1.390 . S
C593 C594 1.387 . S
C593 H596 0.950 . S
C594 C593 1.387 . S
C594 C597 1.387 . S
H595 C591 0.950 . S
H596 C593 0.950 . S
C597 C588 1.390 . S
C597 H590 0.950 . S
C597 C594 1.387 . S
C598 C599 1.387 . S
C598 H602 0.950 . S
C598 C607 1.390 . S
C599 C598 1.387 . S
C599 C601 1.387 . S
H600 C607 0.950 . S
C601 C599 1.387 . S
C601 C603 1.390 . S
C601 H605 0.950 1_554 S
H602 C598 0.950 . S
C603 C601 1.390 . S
C603 C604 1.387 . S
C603 H606 0.950 1_554 S
C604 C603 1.387 . S
C604 C607 1.387 . S
H605 C601 0.950 1_556 S
H606 C603 0.950 1_556 S
C607 C598 1.390 . S
C607 H600 0.950 . S
C607 C604 1.387 . S
C608 C609 1.387 1_655 S
C608 H612 0.950 . S
C608 C617 1.390 . S
C609 C608 1.387 1_455 S
C609 C611 1.387 . S
H610 C617 0.950 . S
C611 C609 1.387 . S
C611 C613 1.390 . S
C611 H615 0.950 . S
H612 C608 0.950 . S
C613 C611 1.390 . S
C613 C614 1.387 . S
C613 H616 0.950 . S
C614 C613 1.387 . S
C614 C617 1.387 1_455 S
H615 C611 0.950 . S
H616 C613 0.950 . S
C617 C608 1.390 . S
C617 H610 0.950 . S
C617 C614 1.387 1_655 S
C618 C619 1.387 . S
C618 H622 0.950 . S
C618 C627 1.390 . S
C619 C618 1.387 . S
C619 C621 1.387 1_545 S
H620 C627 0.950 . S
C621 C619 1.387 1_565 S
C621 C623 1.390 . S
C621 H625 0.950 . S
H622 C618 0.950 . S
C623 C621 1.390 . S
C623 C624 1.387 1_565 S
C623 H626 0.950 . S
C624 C623 1.387 1_545 S
C624 C627 1.387 . S
H625 C621 0.950 . S
H626 C623 0.950 . S
C627 C618 1.390 . S
C627 H620 0.950 . S
C627 C624 1.387 . S
C628 C629 1.387 . S
C628 H632 0.950 . S
C628 C637 1.390 . S
C629 C628 1.387 . S
C629 C631 1.387 . S
H630 C637 0.950 . S
C631 C629 1.387 . S
C631 C633 1.390 . S
C631 H635 0.950 . S
H632 C628 0.950 . S
C633 C631 1.390 . S
C633 C634 1.387 . S
C633 H636 0.950 . S
C634 C633 1.387 . S
C634 C637 1.387 . S
H635 C631 0.950 . S
H636 C633 0.950 . S
C637 C628 1.390 . S
C637 H630 0.950 . S
C637 C634 1.387 . S
C638 C639 1.387 . S
C638 H642 0.950 . S
C638 C647 1.390 . S
C639 C638 1.387 . S
C639 C641 1.387 . S
H640 C647 0.950 . S
C641 C639 1.387 . S
C641 C643 1.390 . S
C641 H645 0.950 . S
H642 C638 0.950 . S
C643 C641 1.390 . S
C643 C644 1.387 . S
C643 H646 0.950 . S
C644 C643 1.387 . S
C644 C647 1.387 . S
H645 C641 0.950 . S
H646 C643 0.950 . S
C647 C638 1.390 . S
C647 H640 0.950 . S
C647 C644 1.387 . S
C648 C649 1.387 1_455 S
C648 H652 0.950 . S
C648 C657 1.390 . S
C649 C648 1.387 1_655 S
C649 C651 1.387 . S
H650 C657 0.950 . S
C651 C649 1.387 . S
C651 C653 1.390 . S
C651 H655 0.950 . S
H652 C648 0.950 . S
C653 C651 1.390 . S
C653 C654 1.387 . S
C653 H656 0.950 . S
C654 C653 1.387 . S
C654 C657 1.387 1_655 S
H655 C651 0.950 . S
H656 C653 0.950 . S
C657 C648 1.390 . S
C657 H650 0.950 . S
C657 C654 1.387 1_455 S
C658 C659 1.387 1_545 S
C658 H662 0.950 . S
C658 C667 1.390 . S
C659 C658 1.387 1_565 S
C659 C661 1.387 . S
H660 C667 0.950 . S
C661 C659 1.387 . S
C661 C663 1.390 . S
C661 H665 0.950 . S
H662 C658 0.950 . S
C663 C661 1.390 . S
C663 C664 1.387 . S
C663 H666 0.950 . S
C664 C663 1.387 . S
C664 C667 1.387 1_565 S
H665 C661 0.950 . S
H666 C663 0.950 . S
C667 C658 1.390 . S
C667 H660 0.950 . S
C667 C664 1.387 1_545 S
C668 C669 1.387 . S
C668 H672 0.950 . S
C668 C677 1.390 . S
C669 C668 1.387 . S
C669 C671 1.387 . S
H670 C677 0.950 . S
C671 C669 1.387 . S
C671 C673 1.390 . S
C671 H675 0.950 . S
H672 C668 0.950 . S
C673 C671 1.390 . S
C673 C674 1.387 . S
C673 H676 0.950 . S
C674 C673 1.387 . S
C674 C677 1.387 . S
H675 C671 0.950 . S
H676 C673 0.950 . S
C677 C668 1.390 . S
C677 H670 0.950 . S
C677 C674 1.387 . S
C678 C679 1.387 . S
C678 H682 0.950 . S
C678 C687 1.390 . S
C679 C678 1.387 . S
C679 C681 1.387 . S
H680 C687 0.950 . S
C681 C679 1.387 . S
C681 C683 1.390 . S
C681 H685 0.950 . S
H682 C678 0.950 . S
C683 C681 1.390 . S
C683 C684 1.387 . S
C683 H686 0.950 . S
C684 C683 1.387 . S
C684 C687 1.387 . S
H685 C681 0.950 . S
H686 C683 0.950 . S
C687 C678 1.390 . S
C687 H680 0.950 . S
C687 C684 1.387 . S
C449 C241 2.460 . S
C454 C297 2.858 1_545 S
C464 C337 2.900 . S
C459 C277 2.589 . S
C474 C377 2.882 . S
C469 C169 2.480 . S
C484 C417 2.873 1_455 S
C479 C205 2.476 . S
C494 C306 2.860 1_564 S
C489 C97 2.462 1_565 S
C499 C133 2.580 . S
C504 C346 2.902 1_554 S
C509 C25 2.497 . S
C514 C386 2.882 1_554 S
C519 C61 2.478 1_655 S
C524 C426 2.873 1_654 S
C534 C303 0.813 . S
C529 C211 0.836 1_655 S
C544 C343 0.816 . S
C539 C247 0.833 1_565 S
C554 C383 0.780 . S
C549 C253 0.782 . S
C559 C175 0.801 . S
C564 C423 0.786 . S
C569 C67 0.809 . S
C574 C294 0.815 . S
C584 C334 0.809 . S
C579 C103 0.806 . S
C594 C374 0.781 . S
C589 C109 0.790 . S
C599 C31 0.788 . S
C604 C414 0.794 . S
C609 C181 3.261 . S
C614 C307 3.745 . S
C619 C217 3.221 . S
C624 C347 3.710 . S
C634 C387 3.710 . S
C629 C283 3.158 . S
C644 C427 3.733 . S
C639 C145 3.236 . S
C649 C37 3.276 1_655 S
C654 C298 3.754 . S
C664 C338 3.711 . S
C659 C73 3.234 1_565 S
C674 C378 3.711 . S
C669 C139 3.129 . S
C679 C1 3.262 . S
C684 C418 3.738 . S
