# Generated by pormake.
# Topology anh, (6,3)-cn, num edge types: 1
# Building blocks:
#     Node 0, Type 0, BuildingBlock: PAMTUU_clean_sbu_0, # of connection points: 6
#     Node 1, Type 0, BuildingBlock: PAMTUU_clean_sbu_0, # of connection points: 6
#     Node 2, Type 0, BuildingBlock: PAMTUU_clean_sbu_0, # of connection points: 6
#     Node 3, Type 1, BuildingBlock: MIDCAF_clean_linker_0, # of connection points: 3
#     Node 4, Type 1, BuildingBlock: MIDCAF_clean_linker_0, # of connection points: 3
#     Node 5, Type 1, BuildingBlock: MIDCAF_clean_linker_0, # of connection points: 3
#     Node 6, Type 1, BuildingBlock: MIDCAF_clean_linker_0, # of connection points: 3
#     Node 7, Type 1, BuildingBlock: MIDCAF_clean_linker_0, # of connection points: 3
#     Node 8, Type 1, BuildingBlock: MIDCAF_clean_linker_0, # of connection points: 3
#     Edge 9, Type (0, 1), BuildingBlock: OJICUG_clean_linker_0, # of connection points: 2
#     Edge 10, Type (0, 1), BuildingBlock: OJICUG_clean_linker_0, # of connection points: 2
#     Edge 11, Type (0, 1), BuildingBlock: OJICUG_clean_linker_0, # of connection points: 2
#     Edge 12, Type (0, 1), BuildingBlock: OJICUG_clean_linker_0, # of connection points: 2
#     Edge 13, Type (0, 1), BuildingBlock: OJICUG_clean_linker_0, # of connection points: 2
#     Edge 14, Type (0, 1), BuildingBlock: OJICUG_clean_linker_0, # of connection points: 2
#     Edge 15, Type (0, 1), BuildingBlock: OJICUG_clean_linker_0, # of connection points: 2
#     Edge 16, Type (0, 1), BuildingBlock: OJICUG_clean_linker_0, # of connection points: 2
#     Edge 17, Type (0, 1), BuildingBlock: OJICUG_clean_linker_0, # of connection points: 2
#     Edge 18, Type (0, 1), BuildingBlock: OJICUG_clean_linker_0, # of connection points: 2
#     Edge 19, Type (0, 1), BuildingBlock: OJICUG_clean_linker_0, # of connection points: 2
#     Edge 20, Type (0, 1), BuildingBlock: OJICUG_clean_linker_0, # of connection points: 2
#     Edge 21, Type (0, 1), BuildingBlock: OJICUG_clean_linker_0, # of connection points: 2
#     Edge 22, Type (0, 1), BuildingBlock: OJICUG_clean_linker_0, # of connection points: 2
#     Edge 23, Type (0, 1), BuildingBlock: OJICUG_clean_linker_0, # of connection points: 2
#     Edge 24, Type (0, 1), BuildingBlock: OJICUG_clean_linker_0, # of connection points: 2
#     Edge 25, Type (0, 1), BuildingBlock: OJICUG_clean_linker_0, # of connection points: 2
#     Edge 26, Type (0, 1), BuildingBlock: OJICUG_clean_linker_0, # of connection points: 2
# Relax obj value: 0.307
# Max RMSD: 0.199
# Mean RMSD: 0.165
data_MOF--net-anh--node1-PAMTUU_clean_sbu_0--node2-MIDCAF_clean_linker_0--edge1-OJICUG_clean_linker_0
_symmetry_space_group_name_H-M    P1
_symmetry_Int_Tables_number       1
_symmetry_cell_setting            triclinic
loop_
_symmetry_equiv_pos_as_xyz
'x, y, z'
_cell_length_a     27.229019
_cell_length_b     27.252296
_cell_length_c     52.329958
_cell_angle_alpha  90.616008
_cell_angle_beta   93.625134
_cell_angle_gamma 120.16162
loop_
_atom_site_label
_atom_site_type_symbol
_atom_site_fract_x
_atom_site_fract_y
_atom_site_fract_z
_atom_type_partial_charge
Tb0 Tb 0.16445 0.73883 0.15047 0.0
Tb1 Tb 0.23989 0.68137 0.16875 0.0
C2 C 0.22515 0.70292 0.10995 0.0
C3 C 1.03687 0.74172 0.15407 0.0
C4 C 0.93202 0.65291 0.16851 0.0
C5 C 0.93524 0.67883 0.14499 0.0
C6 C 0.98724 0.72282 0.13786 0.0
C7 C 1.03255 0.7204 0.17874 0.0
C8 C 0.98057 0.67652 0.18592 0.0
C9 C 1.09259 0.76987 0.14307 0.0
O10 O 1.10386 0.65034 0.15884 0.0
O11 O 0.15842 0.60856 0.15571 0.0
O12 O 0.18609 0.67471 0.19914 0.0
O13 O 0.18946 0.75723 0.19103 0.0
O14 O 0.26598 0.62125 0.16757 0.0
O15 O 0.29761 0.68567 0.19851 0.0
O16 O 0.2989 0.773 0.16971 0.0
O17 O 0.2504 0.80814 0.1457 0.0
O18 O 0.1866 0.71674 0.11474 0.0
O19 O 0.25422 0.69273 0.12813 0.0
C20 C 1.10866 0.60478 0.15655 0.0
O21 O 1.13727 0.79656 0.15932 0.0
O22 O 1.09881 0.7376 0.12657 0.0
C23 C 0.18017 0.71712 0.20664 0.0
C24 C 0.35991 0.65686 0.1848 0.0
C25 C 0.46198 0.65955 0.17682 0.0
C26 C 0.44061 0.64897 0.20118 0.0
C27 C 0.38952 0.64712 0.20506 0.0
C28 C 0.38426 0.67376 0.16137 0.0
C29 C 0.43484 0.67484 0.15735 0.0
C30 C 0.30199 0.64495 0.18767 0.0
C31 C 0.2976 0.81428 0.15738 0.0
H32 H 0.899 0.66158 0.13091 0.0
H33 H 0.98962 0.73804 0.11867 0.0
H34 H 1.07021 0.73386 0.19168 0.0
H35 H 0.97944 0.65821 0.2043 0.0
H36 H 0.46128 0.63832 0.21671 0.0
H37 H 0.37164 0.63515 0.22343 0.0
H38 H 0.36234 0.68254 0.14566 0.0
H39 H 0.44976 0.68292 0.13831 0.0
Tb40 Tb 0.65606 1.0994 0.48372 0.0
Tb41 Tb 0.79302 0.16297 0.49135 0.0
C42 C 0.72821 0.1473 0.43686 0.0
C43 C 0.50288 1.01241 0.49583 0.0
C44 C 0.4061 0.92778 0.51765 0.0
C45 C 0.40662 0.97578 0.50759 0.0
C46 C 0.45452 1.01753 0.49675 0.0
C47 C 0.50487 0.96756 0.50787 0.0
C48 C 0.45665 0.9254 0.51872 0.0
C49 C 0.54925 1.05304 0.4812 0.0
O50 O 0.67521 1.03072 0.48999 0.0
O51 O 0.76922 1.07578 0.48064 0.0
O52 O 0.76451 0.11446 0.52533 0.0
O53 O 0.67948 0.11223 0.52467 0.0
O54 O 0.87306 0.1928 0.47674 0.0
O55 O 0.86666 0.21345 0.51577 0.0
O56 O 0.76631 0.22164 0.50459 0.0
O57 O 0.68639 0.18957 0.47793 0.0
O58 O 0.68188 0.10542 0.44513 0.0
O59 O 0.7723 0.18104 0.45276 0.0
C60 C 0.72151 1.0292 0.48509 0.0
O61 O 0.58361 1.10212 0.49292 0.0
O62 O 0.57631 1.03363 0.46862 0.0
C63 C 0.71932 0.10554 0.53664 0.0
C64 C 0.91988 0.28998 0.49038 0.0
C65 C 0.89955 0.37915 0.4792 0.0
C66 C 0.91441 0.37235 0.50454 0.0
C67 C 0.92498 0.32828 0.51009 0.0
C68 C 0.91484 0.30328 0.4648 0.0
C69 C 0.90397 0.347 0.45928 0.0
C70 C 0.89772 0.22968 0.4962 0.0
C71 C 0.72809 0.23063 0.49253 0.0
H72 H 0.36852 0.97902 0.506 0.0
H73 H 0.45268 1.05237 0.48784 0.0
H74 H 0.5426 0.96373 0.50782 0.0
H75 H 0.45781 0.88931 0.52653 0.0
H76 H 0.91277 0.39757 0.52025 0.0
H77 H 0.92979 0.31986 0.53001 0.0
H78 H 0.91224 0.2758 0.44902 0.0
H79 H 0.89539 0.35324 0.43945 0.0
Tb80 Tb 0.69662 0.55957 0.81579 0.0
Tb81 Tb 0.75414 0.69226 0.83261 0.0
C82 C 0.72734 0.64966 0.77532 0.0
C83 C 0.6851 0.42234 0.81031 0.0
C84 C 0.74698 0.36708 0.82224 0.0
C85 C 0.74198 0.38232 0.79705 0.0
C86 C 0.7111 0.40937 0.79112 0.0
C87 C 0.69011 0.40708 0.83557 0.0
C88 C 0.72056 0.37944 0.84143 0.0
C89 C 0.65826 0.45675 0.80432 0.0
O90 O 0.78803 0.59253 0.81314 0.0
O91 O 0.82807 0.68085 0.83394 0.0
O92 O 0.72011 0.64054 0.86577 0.0
O93 O 0.73722 0.57109 0.85369 0.0
O94 O 0.76933 0.7742 0.82543 0.0
O95 O 0.79729 0.75631 0.86185 0.0
O96 O 0.66414 0.66314 0.82297 0.0
O97 O 0.62719 0.56879 0.82992 0.0
O98 O 0.68584 0.60258 0.78334 0.0
O99 O 0.76704 0.68777 0.79189 0.0
C100 C 0.83269 0.63912 0.82365 0.0
O101 O 0.64252 0.47443 0.82379 0.0
O102 O 0.68421 0.49686 0.78839 0.0
C103 C 0.72916 0.59893 0.8717 0.0
C104 C 0.75132 0.80999 0.86206 0.0
C105 C 0.66387 0.83243 0.87222 0.0
C106 C 0.66104 0.78191 0.87997 0.0
C107 C 0.70419 0.7706 0.87475 0.0
C108 C 0.75741 0.8629 0.85693 0.0
C109 C 0.7142 0.87417 0.86202 0.0
C110 C 0.78624 0.7913 0.8494 0.0
C111 C 0.62085 0.61341 0.8276 0.0
H112 H 0.7606 0.37184 0.78172 0.0
H113 H 0.70809 0.42074 0.77154 0.0
H114 H 0.67104 0.41689 0.85091 0.0
H115 H 0.72332 0.36755 0.86093 0.0
H116 H 0.62345 0.74917 0.88815 0.0
H117 H 0.69836 0.72918 0.87879 0.0
H118 H 0.79313 0.89358 0.84695 0.0
H119 H 0.71804 0.91339 0.85546 0.0
C120 C 0.5095 1.06969 0.18984 0.0
C121 C 0.50892 1.03163 0.17132 0.0
C122 C 0.5609 1.04438 0.16148 0.0
C123 C 0.61243 1.09273 0.17078 0.0
H124 H 0.77096 0.28936 0.15865 0.0
H125 H 0.85498 0.36934 0.14181 0.0
H126 H 0.94843 0.3986 0.21554 0.0
H127 H 0.86671 0.31937 0.23188 0.0
H128 H 0.79372 0.28166 0.28291 0.0
H129 H 0.79726 0.27052 0.32912 0.0
H130 H 0.65788 1.09734 0.31756 0.0
H131 H 0.65276 0.10942 0.27184 0.0
H132 H 0.56017 0.14359 0.21484 0.0
H133 H 0.47055 1.06101 0.19806 0.0
H134 H 0.56191 1.01599 0.14716 0.0
H135 H 0.65202 1.09998 0.16378 0.0
N136 N 0.71234 0.21246 0.19354 0.0
N137 N 0.76342 0.24493 0.23402 0.0
N138 N 0.67095 0.16678 0.23083 0.0
C139 C 0.76094 0.25022 0.20816 0.0
C140 C 0.71895 0.2033 0.24549 0.0
C141 C 0.66702 0.1708 0.20504 0.0
C142 C 0.8116 0.29731 0.19669 0.0
C143 C 0.80979 0.3125 0.17113 0.0
C144 C 0.85795 0.35859 0.16148 0.0
C145 C 0.90923 0.39038 0.17713 0.0
C146 C 0.91065 0.37467 0.20256 0.0
C147 C 0.86301 0.32913 0.21211 0.0
C148 C 0.72262 0.19668 0.27362 0.0
C149 C 0.76382 0.2413 0.29029 0.0
C150 C 0.76602 0.23471 0.31683 0.0
C151 C 0.72754 0.18311 0.32734 0.0
C152 C 0.68727 0.13824 0.31046 0.0
C153 C 0.68456 0.1451 0.28409 0.0
C154 C 0.61304 0.12857 0.19045 0.0
C155 C 0.56091 0.11708 0.19947 0.0
C156 C 0.73669 0.45674 0.54215 0.0
C157 C 0.73431 0.44441 0.51584 0.0
C158 C 0.73083 0.48213 0.4985 0.0
C159 C 0.73107 0.53153 0.50747 0.0
H160 H 0.6652 0.68001 0.50184 0.0
H161 H 0.65913 0.7607 0.48437 0.0
H162 H 0.80912 0.87693 0.53267 0.0
H163 H 0.8144 0.79707 0.55015 0.0
H164 H 0.76355 0.74194 0.61339 0.0
H165 H 0.76205 0.74718 0.66011 0.0
H166 H 0.72377 0.57337 0.66285 0.0
H167 H 0.72518 0.5678 0.61657 0.0
H168 H 0.73848 0.51196 0.57157 0.0
H169 H 0.73833 0.42847 0.55613 0.0
H170 H 0.729 0.47404 0.47805 0.0
H171 H 0.72923 0.56 0.49371 0.0
N172 N 0.73538 0.63737 0.5302 0.0
N173 N 0.74313 0.69034 0.56785 0.0
N174 N 0.73875 0.60296 0.57091 0.0
C175 C 0.73936 0.6849 0.5418 0.0
C176 C 0.74235 0.64942 0.58256 0.0
C177 C 0.73564 0.59612 0.54495 0.0
C178 C 0.7407 0.73217 0.52716 0.0
C179 C 0.69757 0.72293 0.50817 0.0
C180 C 0.69373 0.76913 0.49842 0.0
C181 C 0.73365 0.82555 0.50709 0.0
C182 C 0.77798 0.8344 0.52528 0.0
C183 C 0.78107 0.7885 0.53531 0.0
C184 C 0.7441 0.65431 0.61105 0.0
C185 C 0.75502 0.70492 0.62396 0.0
C186 C 0.7545 0.70808 0.65075 0.0
C187 C 0.74232 0.66055 0.66514 0.0
C188 C 0.73253 0.6105 0.65228 0.0
C189 C 0.7336 0.60748 0.62568 0.0
C190 C 0.73403 0.54384 0.534 0.0
C191 C 0.73644 0.50511 0.55101 0.0
C192 C 1.08692 0.68793 0.86475 0.0
C193 C 1.05266 0.6517 0.8437 0.0
C194 C 1.07051 0.61652 0.83229 0.0
C195 C 1.12 0.61645 0.84227 0.0
H196 H 0.31212 0.64556 0.83256 0.0
H197 H 0.38978 0.63579 0.81643 0.0
H198 H 0.42403 0.58989 0.89138 0.0
H199 H 0.34711 0.59864 0.90717 0.0
H200 H 0.32488 0.66253 0.95686 0.0
H201 H 0.32614 0.67809 0.00321 0.0
H202 H 0.15696 0.65478 0.99274 0.0
H203 H 0.15619 0.64086 0.94698 0.0
H204 H 0.15934 0.71498 0.89144 0.0
H205 H 1.07483 0.71501 0.87451 0.0
H206 H 1.04574 0.58834 0.81591 0.0
H207 H 1.13123 0.58737 0.83376 0.0
N208 N 0.23693 0.63574 0.86735 0.0
N209 N 0.27898 0.63677 0.90843 0.0
N210 N 0.2003 0.64944 0.90456 0.0
C211 C 0.27804 0.63179 0.88238 0.0
C212 C 0.24015 0.64534 0.91966 0.0
C213 C 0.19785 0.64485 0.87863 0.0
C214 C 0.32283 0.62297 0.87124 0.0
C215 C 0.33584 0.63274 0.84549 0.0
C216 C 0.38077 0.62749 0.83628 0.0
C217 C 0.41346 0.61159 0.85248 0.0
C218 C 0.3996 0.60109 0.87805 0.0
C219 C 0.35536 0.60671 0.88723 0.0
C220 C 0.24078 0.65117 0.94804 0.0
C221 C 0.28795 0.66057 0.96452 0.0
C222 C 0.2886 0.66932 0.99111 0.0
C223 C 0.24204 0.6687 0.00175 0.0
C224 C 0.19429 0.65726 0.98527 0.0
C225 C 0.19376 0.64891 0.95889 0.0
C226 C 1.15237 0.65111 0.86404 0.0
C227 C 1.13564 0.68764 0.87465 0.0
C228 C 0.20144 0.77637 0.45645 0.0
C229 C 0.19021 0.7755 0.48235 0.0
C230 C 1.13523 0.76128 0.48839 0.0
C231 C 1.09235 0.74817 0.46882 0.0
H232 H 0.9079 0.68184 0.45018 0.0
H233 H 0.85258 0.59514 0.47252 0.0
H234 H 0.8332 0.49604 0.40369 0.0
H235 H 0.88651 0.58206 0.38142 0.0
H236 H 0.9713 0.64335 0.33632 0.0
H237 H 1.00595 0.64299 0.29424 0.0
H238 H 0.164 0.79642 0.31758 0.0
H239 H 1.12979 0.79696 0.35937 0.0
H240 H 0.16976 0.76541 0.41733 0.0
H241 H 0.24378 0.78879 0.45108 0.0
H242 H 1.12565 0.76099 0.50819 0.0
H243 H 1.05025 0.7371 0.47399 0.0
N244 N 1.00346 0.70496 0.42701 0.0
N245 N 0.97523 0.68662 0.38298 0.0
N246 N 1.07212 0.74007 0.39723 0.0
C247 C 0.9613 0.68157 0.40776 0.0
C248 C 1.03081 0.71729 0.37764 0.0
C249 C 1.05887 0.73384 0.42196 0.0
C250 C 0.9042 0.63832 0.41459 0.0
C251 C 0.88862 0.64143 0.43941 0.0
C252 C 0.85719 0.59171 0.45227 0.0
C253 C 0.84215 0.53898 0.44042 0.0
C254 C 0.8457 0.53601 0.41375 0.0
C255 C 0.87653 0.58572 0.40082 0.0
C256 C 1.0478 0.72018 0.35115 0.0
C257 C 1.01302 0.67745 0.33229 0.0
C258 C 1.03304 0.67689 0.30834 0.0
C259 C 1.08774 0.71953 0.30275 0.0
C260 C 1.12156 0.76322 0.32131 0.0
C261 C 1.10195 0.76338 0.34526 0.0
C262 C 1.10413 0.75006 0.4429 0.0
C263 C 0.15911 0.76404 0.43702 0.0
C264 C 0.80808 0.19846 0.78199 0.0
C265 C 0.79995 0.19705 0.80837 0.0
C266 C 0.77491 0.14414 0.81973 0.0
C267 C 0.74857 1.09395 0.80438 0.0
H268 H 0.54827 0.99079 0.78601 0.0
H269 H 0.51012 0.93677 0.82371 0.0
H270 H 0.52843 0.80077 0.79136 0.0
H271 H 0.56498 0.85434 0.75372 0.0
H272 H 0.58361 0.9532 0.68037 0.0
H273 H 0.59478 0.9699 0.63472 0.0
H274 H 0.77683 1.0758 0.6512 0.0
H275 H 0.76605 1.05802 0.69628 0.0
H276 H 0.78467 0.15123 0.74615 0.0
H277 H 0.8276 0.23809 0.77236 0.0
H278 H 0.77006 0.14144 0.84013 0.0
H279 H 0.72406 1.05391 0.81333 0.0
N280 N 0.65577 1.00971 0.77065 0.0
N281 N 0.61781 0.96507 0.72979 0.0
N282 N 0.71058 1.04425 0.7357 0.0
C283 C 0.61199 0.96882 0.75526 0.0
C284 C 0.66744 1.0033 0.71991 0.0
C285 C 0.70531 1.04727 0.76111 0.0
C286 C 0.56137 0.92729 0.76757 0.0
C287 C 0.54033 0.94764 0.78629 0.0
C288 C 0.5187 0.91675 0.80797 0.0
C289 C 0.51964 0.86613 0.81132 0.0
C290 C 0.52843 0.84037 0.78988 0.0
C291 C 0.5495 0.87108 0.76806 0.0
C292 C 0.67381 1.00484 0.69201 0.0
C293 C 0.62607 0.97895 0.67413 0.0
C294 C 0.63243 0.98896 0.64803 0.0
C295 C 0.68664 1.02475 0.63938 0.0
C296 C 0.73453 1.04772 0.65713 0.0
C297 C 0.72821 1.03783 0.68309 0.0
C298 C 0.74864 1.09609 0.77757 0.0
C299 C 0.78283 0.14829 0.76673 0.0
C300 C 0.78994 0.4325 0.11936 0.0
C301 C 0.76944 0.42959 0.14364 0.0
C302 C 0.71234 0.39024 0.14685 0.0
C303 C 0.67433 0.36376 0.12525 0.0
H304 H 0.62194 0.46531 0.13705 0.0
H305 H 0.60279 0.52727 0.16288 0.0
H306 H 0.55128 0.58197 0.09425 0.0
H307 H 0.57181 0.52087 0.0681 0.0
H308 H 0.58459 0.46729 0.01346 0.0
H309 H 0.60848 0.50707 0.97177 0.0
H310 H 0.75622 0.48676 0.97633 0.0
H311 H 0.73176 0.44595 0.01835 0.0
H312 H 0.7675 0.41995 0.07901 0.0
H313 H 0.83414 0.46225 0.11648 0.0
H314 H 0.69567 0.38666 0.16543 0.0
H315 H 0.62917 0.34074 0.12796 0.0
N316 N 0.63284 0.42157 0.09673 0.0
N317 N 0.62032 0.46132 0.05958 0.0
N318 N 0.66769 0.40905 0.05886 0.0
C319 C 0.61403 0.45335 0.08487 0.0
C320 C 0.64609 0.43867 0.04628 0.0
C321 C 0.65935 0.39894 0.08418 0.0
C322 C 0.59763 0.4875 0.10044 0.0
C323 C 0.60621 0.4902 0.12735 0.0
C324 C 0.59569 0.52604 0.14222 0.0
C325 C 0.57594 0.55966 0.13058 0.0
C326 C 0.56761 0.55733 0.10371 0.0
C327 C 0.57845 0.52164 0.08876 0.0
C328 C 0.65658 0.45387 0.01932 0.0
C329 C 0.62197 0.47077 0.00554 0.0
C330 C 0.63593 0.49411 0.98171 0.0
C331 C 0.68494 0.50131 0.971 0.0
C332 C 0.71818 0.48185 0.98413 0.0
C333 C 0.70407 0.45823 0.00812 0.0
C334 C 0.69292 0.38082 0.10062 0.0
C335 C 0.75155 0.40775 0.09773 0.0
C336 C 0.54208 0.67172 0.1513 0.0
C337 C 0.50393 0.64318 0.17003 0.0
H338 H 0.59557 0.66757 0.12406 0.0
C339 C 0.49807 0.59194 0.17862 0.0
H340 H 0.54835 0.71184 0.14467 0.0
C341 C 0.52506 0.5669 0.16693 0.0
C342 C 0.55839 0.59249 0.14641 0.0
H343 H 0.46858 0.56829 0.19275 0.0
H344 H 0.51592 0.52522 0.17263 0.0
C345 C 0.56891 0.64638 0.13947 0.0
C346 C 0.82904 0.39882 0.45548 0.0
C347 C 0.87636 0.41697 0.47338 0.0
H348 H 0.77816 0.42282 0.4319 0.0
C349 C 0.90244 0.47195 0.48473 0.0
H350 H 0.8065 0.3557 0.44725 0.0
C351 C 0.88593 0.51017 0.47612 0.0
C352 C 0.84299 0.49406 0.45596 0.0
H353 H 0.93839 0.48679 0.49887 0.0
H354 H 0.91093 0.5538 0.48356 0.0
C355 C 0.81227 0.43694 0.44694 0.0
C356 C 0.56058 0.78936 0.85772 0.0
C357 C 0.61129 0.83644 0.86866 0.0
H358 H 0.48721 0.76168 0.83125 0.0
C359 C 0.61538 0.88988 0.86893 0.0
H360 H 0.55458 0.74707 0.85803 0.0
C361 C 0.57701 0.89824 0.85331 0.0
C362 C 0.53404 0.85305 0.83735 0.0
H363 H 0.65244 0.92665 0.8783 0.0
H364 H 0.58697 0.94162 0.8509 0.0
C365 C 0.52181 0.79765 0.84226 0.0
C366 C 0.82775 0.5813 0.16175 0.0
C367 C 0.88245 0.59561 0.17209 0.0
H368 H 0.74747 0.51499 0.14494 0.0
C369 C 0.89159 0.55168 0.18065 0.0
H370 H 0.81864 0.614 0.15574 0.0
C371 C 0.84994 0.49476 0.17505 0.0
C372 C 0.79958 0.48146 0.16055 0.0
H373 H 0.93288 0.56089 0.18905 0.0
H374 H 0.85937 0.46169 0.17972 0.0
C375 C 0.78668 0.52455 0.15588 0.0
C376 C 0.33806 0.82467 0.50877 0.0
C377 C 0.35022 0.87631 0.52088 0.0
H378 H 0.27498 0.74954 0.48742 0.0
C379 C 0.30461 0.88202 0.52848 0.0
H380 H 0.37188 0.818 0.50306 0.0
C381 C 0.24895 0.84321 0.51888 0.0
C382 C 0.23867 0.79788 0.50213 0.0
H383 H 0.31261 0.9204 0.53874 0.0
H384 H 0.2158 0.85318 0.52171 0.0
C385 C 0.28237 0.78546 0.49955 0.0
C386 C 0.82398 0.34428 0.81652 0.0
C387 C 0.77327 0.33182 0.82731 0.0
H388 H 0.87531 0.31148 0.80359 0.0
C389 C 0.74197 0.27979 0.83872 0.0
H390 H 0.84968 0.38488 0.80821 0.0
C391 C 0.75597 0.23755 0.83576 0.0
C392 C 0.80167 0.2468 0.82136 0.0
H393 H 0.7029 0.26924 0.84734 0.0
H394 H 0.72646 0.1958 0.84204 0.0
C395 C 0.83854 0.30222 0.81388 0.0
C396 C 0.67335 0.92355 0.49268 0.0
C397 C 0.72257 0.97493 0.48775 0.0
H398 H 0.63794 0.83619 0.5023 0.0
C399 C 0.77428 0.97498 0.48726 0.0
H400 H 0.63274 0.92164 0.49326 0.0
C401 C 0.77726 0.92614 0.49261 0.0
C402 C 0.72857 0.87533 0.49838 0.0
H403 H 0.8132 1.01339 0.48353 0.0
H404 H 0.81817 0.92848 0.49265 0.0
C405 C 0.67626 0.87435 0.49776 0.0
C406 C 0.93969 0.69525 0.83236 0.0
C407 C 0.88979 0.64311 0.82562 0.0
H408 H 1.02966 0.73942 0.84212 0.0
C409 C 0.89485 0.59441 0.82252 0.0
H410 H 0.93786 0.73384 0.83464 0.0
C411 C 0.94783 0.59738 0.82727 0.0
C412 C 0.99743 0.64923 0.83511 0.0
H413 H 0.85745 0.55338 0.81742 0.0
H414 H 0.94927 0.55847 0.8259 0.0
C415 C 0.99258 0.69833 0.83682 0.0
C416 C 0.3514 0.92147 0.15602 0.0
C417 C 0.35166 0.87016 0.15798 0.0
H418 H 0.40076 1.01277 0.15875 0.0
C419 C 0.40451 0.87271 0.16223 0.0
H420 H 0.31153 0.92113 0.15282 0.0
C421 C 0.45554 0.92503 0.16521 0.0
C422 C 0.45521 0.97641 0.16447 0.0
H423 H 0.40643 0.83407 0.16372 0.0
H424 H 0.49514 0.9252 0.16926 0.0
C425 C 0.40251 0.97398 0.1595 0.0
C426 C 0.77159 0.32691 0.51532 0.0
C427 C 0.73133 0.28683 0.49673 0.0
H428 H 0.80512 0.40773 0.53524 0.0
C429 C 0.69446 0.30111 0.48287 0.0
H430 H 0.80097 0.318 0.52636 0.0
C431 C 0.69688 0.3533 0.48807 0.0
C432 C 0.73585 0.39224 0.50741 0.0
H433 H 0.66317 0.27163 0.46826 0.0
H434 H 0.66686 0.36221 0.47761 0.0
C435 C 0.77386 0.37859 0.52052 0.0
C436 C 0.52552 0.56687 0.84671 0.0
C437 C 0.56483 0.60901 0.83164 0.0
H438 H 0.44739 0.53422 0.86492 0.0
C439 C 0.5514 0.64902 0.82164 0.0
H440 H 0.53421 0.53525 0.85469 0.0
C441 C 0.50085 0.64777 0.82707 0.0
C442 C 0.46318 0.60789 0.84351 0.0
H443 H 0.58038 0.6819 0.80979 0.0
H444 H 0.49275 0.67982 0.81927 0.0
C445 C 0.47576 0.5666 0.85272 0.0
C446 C 1.06379 0.50605 0.17212 0.0
C447 C 1.05794 0.54754 0.15878 0.0
H448 H 1.02217 0.42424 0.18807 0.0
C449 C 1.00333 0.5342 0.14871 0.0
H450 H 1.10533 0.51469 0.17994 0.0
C451 C 0.95549 0.48111 0.15264 0.0
C452 C 0.96062 0.44157 0.16807 0.0
H453 H 0.99755 0.56491 0.13794 0.0
H454 H 0.9143 0.47227 0.14449 0.0
C455 C 1.01588 0.45414 0.17691 0.0
C456 C 0.2143 0.72102 0.06375 0.0
C457 C 0.2347 0.69785 0.0826 0.0
H458 H 0.20221 0.7316 0.02394 0.0
C459 C 0.26137 0.66799 0.07476 0.0
H460 H 0.19437 0.7451 0.06901 0.0
C461 C 0.26523 0.65952 0.04857 0.0
C462 C 0.24273 0.68096 0.02973 0.0
H463 H 0.27759 0.6496 0.08877 0.0
H464 H 0.28409 0.63458 0.04309 0.0
C465 C 0.21852 0.71297 0.03778 0.0
C466 C 0.78008 0.19323 0.39785 0.0
C467 C 0.72892 0.15803 0.40907 0.0
H468 H 0.82025 0.22773 0.36333 0.0
C469 C 0.6776 0.13276 0.3934 0.0
H470 H 0.82038 0.21341 0.40939 0.0
C471 C 0.67731 0.14185 0.36719 0.0
C472 C 0.72845 0.17578 0.35567 0.0
H473 H 0.63724 0.10613 0.40141 0.0
H474 H 0.63662 0.1224 0.35601 0.0
C475 C 0.7799 0.20173 0.37143 0.0
C476 C 0.68728 0.61346 0.73034 0.0
C477 C 0.72994 0.65658 0.74716 0.0
H478 H 0.65768 0.58136 0.69162 0.0
C479 C 0.77549 0.70343 0.73664 0.0
H480 H 0.65124 0.57686 0.73757 0.0
C481 C 0.77899 0.70598 0.70992 0.0
C482 C 0.73733 0.66145 0.69332 0.0
H483 H 0.80903 0.73739 0.74902 0.0
H484 H 0.8152 0.74175 0.70232 0.0
C485 C 0.69102 0.61581 0.70388 0.0
C486 C 0.66385 1.07706 0.57545 0.0
C487 C 0.71108 1.08456 0.56284 0.0
H488 H 0.61928 1.05253 0.60944 0.0
C489 C 0.74887 1.06978 0.57512 0.0
H490 H 0.63371 1.08776 0.56649 0.0
C491 C 0.74002 1.04867 0.59965 0.0
C492 C 0.6933 1.04207 0.61244 0.0
H493 H 0.78522 1.0743 0.56579 0.0
H494 H 0.76988 1.03763 0.60863 0.0
C495 C 0.65513 1.05615 0.59998 0.0
C496 C 0.70619 0.60102 0.91723 0.0
C497 C 0.72295 0.57779 0.89789 0.0
H498 H 0.68189 0.59555 0.95566 0.0
C499 C 0.73056 0.53141 0.90331 0.0
H500 H 0.70022 0.63685 0.91371 0.0
C501 C 0.71968 0.5075 0.92722 0.0
C502 C 0.7009 0.52936 0.94627 0.0
H503 H 0.74357 0.51247 0.88885 0.0
H504 H 0.72411 0.47068 0.93047 0.0
C505 C 0.69529 0.57705 0.94118 0.0
C506 C 1.1307 0.66798 0.24528 0.0
C507 C 0.15789 0.71766 0.23159 0.0
H508 H 1.08643 0.62948 0.27847 0.0
C509 C 0.16102 0.76753 0.24127 0.0
H510 H 1.12713 0.62876 0.23814 0.0
C511 C 1.13786 0.7679 0.26426 0.0
C512 C 1.11046 0.71827 0.27791 0.0
H513 H 0.1814 0.80641 0.23109 0.0
H514 H 1.14093 0.80698 0.27126 0.0
C515 C 1.10687 0.6682 0.26817 0.0
loop_
_geom_bond_atom_site_label_1
_geom_bond_atom_site_label_2
_geom_bond_distance
_geom_bond_site_symmetry_2
_ccdc_geom_bond_type
Tb0 C9 2.764 1_455 S
Tb0 O10 2.325 1_455 S
Tb0 O13 2.303 . S
Tb0 O17 2.322 . S
Tb0 O18 2.349 . S
Tb0 O21 2.415 1_455 S
Tb0 O22 2.399 1_455 S
Tb1 O11 2.322 1_455 S
Tb1 O12 2.349 . S
Tb1 O14 2.415 . S
Tb1 O15 2.399 . S
Tb1 O16 2.325 . S
Tb1 O19 2.303 . S
Tb1 C30 2.764 . S
C2 O18 1.261 . S
C2 O19 1.257 . S
C3 C6 1.358 . S
C3 C7 1.332 . S
C3 C9 1.504 . S
C4 C5 1.373 . S
C4 C8 1.308 . S
C5 C4 1.373 . S
C5 C6 1.429 . S
C5 H32 0.932 . S
C6 C3 1.358 . S
C6 C5 1.429 . S
C6 H33 0.930 . S
C7 C3 1.332 . S
C7 C8 1.394 . S
C7 H34 0.932 . S
C8 C4 1.308 . S
C8 C7 1.394 . S
C8 H35 0.929 . S
C9 Tb0 2.764 1_655 S
C9 C3 1.504 . S
C9 O21 1.239 . S
C9 O22 1.263 . S
O10 Tb0 2.325 1_655 S
O10 C20 1.236 . S
O11 Tb1 2.322 1_655 S
O11 C20 1.257 . S
O12 Tb1 2.349 . S
O12 C23 1.261 . S
O13 Tb0 2.303 . S
O13 C23 1.257 . S
O14 Tb1 2.415 . S
O14 C30 1.239 . S
O15 Tb1 2.399 . S
O15 C30 1.263 . S
O16 Tb1 2.325 . S
O16 C31 1.236 . S
O17 Tb0 2.322 . S
O17 C31 1.257 . S
O18 Tb0 2.349 . S
O18 C2 1.261 . S
O19 Tb1 2.303 . S
O19 C2 1.257 . S
C20 O10 1.236 . S
C20 O11 1.257 . S
O21 Tb0 2.415 1_655 S
O21 C9 1.239 . S
O22 Tb0 2.399 1_655 S
O22 C9 1.263 . S
C23 O12 1.261 . S
C23 O13 1.257 . S
C24 C27 1.358 . S
C24 C28 1.332 . S
C24 C30 1.504 . S
C25 C26 1.373 . S
C25 C29 1.308 . S
C26 C25 1.373 . S
C26 C27 1.429 . S
C26 H36 0.932 . S
C27 C24 1.358 . S
C27 C26 1.429 . S
C27 H37 0.930 . S
C28 C24 1.332 . S
C28 C29 1.394 . S
C28 H38 0.932 . S
C29 C25 1.308 . S
C29 C28 1.394 . S
C29 H39 0.929 . S
C30 Tb1 2.764 . S
C30 O14 1.239 . S
C30 O15 1.263 . S
C30 C24 1.504 . S
C31 O16 1.236 . S
C31 O17 1.257 . S
H32 C5 0.932 . S
H33 C6 0.930 . S
H34 C7 0.932 . S
H35 C8 0.929 . S
H36 C26 0.932 . S
H37 C27 0.930 . S
H38 C28 0.932 . S
H39 C29 0.929 . S
Tb40 C49 2.764 . S
Tb40 O50 2.325 . S
Tb40 O53 2.303 1_565 S
Tb40 O57 2.322 1_565 S
Tb40 O58 2.349 1_565 S
Tb40 O61 2.415 . S
Tb40 O62 2.399 . S
Tb41 O51 2.322 1_545 S
Tb41 O52 2.349 . S
Tb41 O54 2.415 . S
Tb41 O55 2.399 . S
Tb41 O56 2.325 . S
Tb41 O59 2.303 . S
Tb41 C70 2.764 . S
C42 O58 1.261 . S
C42 O59 1.257 . S
C43 C46 1.358 . S
C43 C47 1.332 . S
C43 C49 1.504 . S
C44 C45 1.373 . S
C44 C48 1.308 . S
C45 C44 1.373 . S
C45 C46 1.429 . S
C45 H72 0.932 . S
C46 C43 1.358 . S
C46 C45 1.429 . S
C46 H73 0.930 . S
C47 C43 1.332 . S
C47 C48 1.394 . S
C47 H74 0.932 . S
C48 C44 1.308 . S
C48 C47 1.394 . S
C48 H75 0.929 . S
C49 Tb40 2.764 . S
C49 C43 1.504 . S
C49 O61 1.239 . S
C49 O62 1.263 . S
O50 Tb40 2.325 . S
O50 C60 1.236 . S
O51 Tb41 2.322 1_565 S
O51 C60 1.257 . S
O52 Tb41 2.349 . S
O52 C63 1.261 . S
O53 Tb40 2.303 1_545 S
O53 C63 1.257 . S
O54 Tb41 2.415 . S
O54 C70 1.239 . S
O55 Tb41 2.399 . S
O55 C70 1.263 . S
O56 Tb41 2.325 . S
O56 C71 1.236 . S
O57 Tb40 2.322 1_545 S
O57 C71 1.257 . S
O58 Tb40 2.349 1_545 S
O58 C42 1.261 . S
O59 Tb41 2.303 . S
O59 C42 1.257 . S
C60 O50 1.236 . S
C60 O51 1.257 . S
O61 Tb40 2.415 . S
O61 C49 1.239 . S
O62 Tb40 2.399 . S
O62 C49 1.263 . S
C63 O52 1.261 . S
C63 O53 1.257 . S
C64 C67 1.358 . S
C64 C68 1.332 . S
C64 C70 1.504 . S
C65 C66 1.373 . S
C65 C69 1.308 . S
C66 C65 1.373 . S
C66 C67 1.429 . S
C66 H76 0.932 . S
C67 C64 1.358 . S
C67 C66 1.429 . S
C67 H77 0.930 . S
C68 C64 1.332 . S
C68 C69 1.394 . S
C68 H78 0.932 . S
C69 C65 1.308 . S
C69 C68 1.394 . S
C69 H79 0.929 . S
C70 Tb41 2.764 . S
C70 O54 1.239 . S
C70 O55 1.263 . S
C70 C64 1.504 . S
C71 O56 1.236 . S
C71 O57 1.257 . S
H72 C45 0.932 . S
H73 C46 0.930 . S
H74 C47 0.932 . S
H75 C48 0.929 . S
H76 C66 0.932 . S
H77 C67 0.930 . S
H78 C68 0.932 . S
H79 C69 0.929 . S
Tb80 C89 2.764 . S
Tb80 O90 2.325 . S
Tb80 O93 2.303 . S
Tb80 O97 2.322 . S
Tb80 O98 2.349 . S
Tb80 O101 2.415 . S
Tb80 O102 2.399 . S
Tb81 O91 2.322 . S
Tb81 O92 2.349 . S
Tb81 O94 2.415 . S
Tb81 O95 2.399 . S
Tb81 O96 2.325 . S
Tb81 O99 2.303 . S
Tb81 C110 2.764 . S
C82 O98 1.261 . S
C82 O99 1.257 . S
C83 C86 1.358 . S
C83 C87 1.332 . S
C83 C89 1.504 . S
C84 C85 1.373 . S
C84 C88 1.308 . S
C85 C84 1.373 . S
C85 C86 1.429 . S
C85 H112 0.932 . S
C86 C83 1.358 . S
C86 C85 1.429 . S
C86 H113 0.930 . S
C87 C83 1.332 . S
C87 C88 1.394 . S
C87 H114 0.932 . S
C88 C84 1.308 . S
C88 C87 1.394 . S
C88 H115 0.929 . S
C89 Tb80 2.764 . S
C89 C83 1.504 . S
C89 O101 1.239 . S
C89 O102 1.263 . S
O90 Tb80 2.325 . S
O90 C100 1.236 . S
O91 Tb81 2.322 . S
O91 C100 1.257 . S
O92 Tb81 2.349 . S
O92 C103 1.261 . S
O93 Tb80 2.303 . S
O93 C103 1.257 . S
O94 Tb81 2.415 . S
O94 C110 1.239 . S
O95 Tb81 2.399 . S
O95 C110 1.263 . S
O96 Tb81 2.325 . S
O96 C111 1.236 . S
O97 Tb80 2.322 . S
O97 C111 1.257 . S
O98 Tb80 2.349 . S
O98 C82 1.261 . S
O99 Tb81 2.303 . S
O99 C82 1.257 . S
C100 O90 1.236 . S
C100 O91 1.257 . S
O101 Tb80 2.415 . S
O101 C89 1.239 . S
O102 Tb80 2.399 . S
O102 C89 1.263 . S
C103 O92 1.261 . S
C103 O93 1.257 . S
C104 C107 1.358 . S
C104 C108 1.332 . S
C104 C110 1.504 . S
C105 C106 1.373 . S
C105 C109 1.308 . S
C106 C105 1.373 . S
C106 C107 1.429 . S
C106 H116 0.932 . S
C107 C104 1.358 . S
C107 C106 1.429 . S
C107 H117 0.930 . S
C108 C104 1.332 . S
C108 C109 1.394 . S
C108 H118 0.932 . S
C109 C105 1.308 . S
C109 C108 1.394 . S
C109 H119 0.929 . S
C110 Tb81 2.764 . S
C110 O94 1.239 . S
C110 O95 1.263 . S
C110 C104 1.504 . S
C111 O96 1.236 . S
C111 O97 1.257 . S
H112 C85 0.932 . S
H113 C86 0.930 . S
H114 C87 0.932 . S
H115 C88 0.929 . S
H116 C106 0.932 . S
H117 C107 0.930 . S
H118 C108 0.932 . S
H119 C109 0.929 . S
C120 C121 1.384 . S
C120 H133 0.947 . S
C120 C155 1.382 . S
C121 C120 1.384 . S
C121 C122 1.378 . S
C122 C121 1.378 . S
C122 C123 1.378 . S
C122 H134 0.952 . S
C123 C122 1.378 . S
C123 H135 0.950 . S
C123 C154 1.383 . S
H124 C143 0.947 . S
H125 C144 0.946 . S
H126 C146 0.953 . S
H127 C147 0.945 . S
H128 C149 0.952 . S
H129 C150 0.949 . S
H130 C152 0.944 1_565 S
H131 C153 0.948 . S
H132 C155 0.951 . S
H133 C120 0.947 . S
H134 C122 0.952 . S
H135 C123 0.950 . S
N136 C139 1.382 . S
N136 C141 1.363 1_545 S
N137 C139 1.371 . S
N137 C140 1.372 . S
N138 C140 1.361 1_565 S
N138 C141 1.377 . S
C139 N136 1.382 . S
C139 N137 1.371 . S
C139 C142 1.480 . S
C140 N137 1.372 . S
C140 N138 1.361 1_545 S
C140 C148 1.457 . S
C141 N136 1.363 1_565 S
C141 N138 1.377 . S
C141 C154 1.479 . S
C142 C139 1.480 . S
C142 C143 1.383 . S
C142 C147 1.385 . S
C143 H124 0.947 . S
C143 C142 1.383 . S
C143 C144 1.388 . S
C144 H125 0.946 . S
C144 C143 1.388 . S
C144 C145 1.384 . S
C145 C144 1.384 . S
C145 C146 1.377 . S
C146 H126 0.953 . S
C146 C145 1.377 . S
C146 C147 1.369 . S
C147 H127 0.945 . S
C147 C142 1.385 . S
C147 C146 1.369 . S
C148 C140 1.457 . S
C148 C149 1.372 . S
C148 C153 1.364 1_545 S
C149 H128 0.952 . S
C149 C148 1.372 . S
C149 C150 1.389 . S
C150 H129 0.949 . S
C150 C149 1.389 . S
C150 C151 1.387 . S
C151 C150 1.387 . S
C151 C152 1.379 . S
C152 H130 0.944 1_545 S
C152 C151 1.379 . S
C152 C153 1.378 1_545 S
C153 H131 0.948 . S
C153 C148 1.364 1_565 S
C153 C152 1.378 1_565 S
C154 C123 1.383 . S
C154 C141 1.479 . S
C154 C155 1.398 . S
C155 C120 1.382 . S
C155 H132 0.951 . S
C155 C154 1.398 . S
C156 C157 1.384 . S
C156 H169 0.947 . S
C156 C191 1.382 . S
C157 C156 1.384 . S
C157 C158 1.378 . S
C158 C157 1.378 . S
C158 C159 1.378 . S
C158 H170 0.952 . S
C159 C158 1.378 . S
C159 H171 0.950 . S
C159 C190 1.383 . S
H160 C179 0.947 . S
H161 C180 0.946 . S
H162 C182 0.953 . S
H163 C183 0.945 . S
H164 C185 0.952 . S
H165 C186 0.949 . S
H166 C188 0.950 . S
H167 C189 0.948 . S
H168 C191 0.951 . S
H169 C156 0.947 . S
H170 C158 0.952 . S
H171 C159 0.950 . S
N172 C175 1.382 . S
N172 C177 1.363 . S
N173 C175 1.371 . S
N173 C176 1.372 . S
N174 C176 1.361 . S
N174 C177 1.377 . S
C175 N172 1.382 . S
C175 N173 1.371 . S
C175 C178 1.480 . S
C176 N173 1.372 . S
C176 N174 1.361 . S
C176 C184 1.457 . S
C177 N172 1.363 . S
C177 N174 1.377 . S
C177 C190 1.479 . S
C178 C175 1.480 . S
C178 C179 1.383 . S
C178 C183 1.385 . S
C179 H160 0.947 . S
C179 C178 1.383 . S
C179 C180 1.388 . S
C180 H161 0.946 . S
C180 C179 1.388 . S
C180 C181 1.384 . S
C181 C180 1.384 . S
C181 C182 1.377 . S
C182 H162 0.953 . S
C182 C181 1.377 . S
C182 C183 1.369 . S
C183 H163 0.945 . S
C183 C178 1.385 . S
C183 C182 1.369 . S
C184 C176 1.457 . S
C184 C185 1.372 . S
C184 C189 1.364 . S
C185 H164 0.952 . S
C185 C184 1.372 . S
C185 C186 1.389 . S
C186 H165 0.949 . S
C186 C185 1.389 . S
C186 C187 1.387 . S
C187 C186 1.387 . S
C187 C188 1.372 . S
C188 H166 0.950 . S
C188 C187 1.372 . S
C188 C189 1.379 . S
C189 H167 0.948 . S
C189 C184 1.364 . S
C189 C188 1.379 . S
C190 C159 1.383 . S
C190 C177 1.479 . S
C190 C191 1.398 . S
C191 C156 1.382 . S
C191 H168 0.951 . S
C191 C190 1.398 . S
C192 C193 1.384 . S
C192 H205 0.947 . S
C192 C227 1.382 . S
C193 C192 1.384 . S
C193 C194 1.378 . S
C194 C193 1.378 . S
C194 C195 1.378 . S
C194 H206 0.952 . S
C195 C194 1.378 . S
C195 H207 0.950 1_655 S
C195 C226 1.383 . S
H196 C215 0.947 . S
H197 C216 0.946 . S
H198 C218 0.953 . S
H199 C219 0.945 . S
H200 C221 0.952 . S
H201 C222 0.949 . S
H202 C224 0.950 1_655 S
H203 C225 0.948 1_655 S
H204 C227 0.951 . S
H205 C192 0.947 . S
H206 C194 0.952 . S
H207 C195 0.950 1_455 S
N208 C211 1.382 . S
N208 C213 1.363 . S
N209 C211 1.371 . S
N209 C212 1.372 . S
N210 C212 1.361 . S
N210 C213 1.377 . S
C211 N208 1.382 . S
C211 N209 1.371 . S
C211 C214 1.480 . S
C212 N209 1.372 . S
C212 N210 1.361 . S
C212 C220 1.457 . S
C213 N208 1.363 . S
C213 N210 1.377 . S
C213 C226 1.479 1_455 S
C214 C211 1.480 . S
C214 C215 1.383 . S
C214 C219 1.385 . S
C215 H196 0.947 . S
C215 C214 1.383 . S
C215 C216 1.388 . S
C216 H197 0.946 . S
C216 C215 1.388 . S
C216 C217 1.384 . S
C217 C216 1.384 . S
C217 C218 1.377 . S
C218 H198 0.953 . S
C218 C217 1.377 . S
C218 C219 1.369 . S
C219 H199 0.945 . S
C219 C214 1.385 . S
C219 C218 1.369 . S
C220 C212 1.457 . S
C220 C221 1.372 . S
C220 C225 1.364 . S
C221 H200 0.952 . S
C221 C220 1.372 . S
C221 C222 1.389 . S
C222 H201 0.949 . S
C222 C221 1.389 . S
C222 C223 1.367 1_556 S
C223 C222 1.367 1_554 S
C223 C224 1.352 1_554 S
C224 H202 0.950 1_455 S
C224 C223 1.352 1_556 S
C224 C225 1.379 . S
C225 H203 0.948 1_455 S
C225 C220 1.364 . S
C225 C224 1.379 . S
C226 C195 1.383 . S
C226 C213 1.479 1_655 S
C226 C227 1.398 . S
C227 C192 1.382 . S
C227 H204 0.951 . S
C227 C226 1.398 . S
C228 C229 1.384 . S
C228 H241 0.947 . S
C228 C263 1.382 . S
C229 C228 1.384 . S
C229 C230 1.378 . S
C230 C229 1.378 . S
C230 C231 1.378 . S
C230 H242 0.952 . S
C231 C230 1.378 . S
C231 H243 0.950 . S
C231 C262 1.383 . S
H232 C251 0.947 . S
H233 C252 0.946 . S
H234 C254 0.953 . S
H235 C255 0.945 . S
H236 C257 0.952 . S
H237 C258 0.949 . S
H238 C260 0.950 . S
H239 C261 0.948 . S
H240 C263 0.951 . S
H241 C228 0.947 . S
H242 C230 0.952 . S
H243 C231 0.950 . S
N244 C247 1.382 1_455 S
N244 C249 1.363 . S
N245 C247 1.371 . S
N245 C248 1.372 1_655 S
N246 C248 1.361 . S
N246 C249 1.377 . S
C247 N244 1.382 1_655 S
C247 N245 1.371 . S
C247 C250 1.480 . S
C248 N245 1.372 1_455 S
C248 N246 1.361 . S
C248 C256 1.457 . S
C249 N244 1.363 . S
C249 N246 1.377 . S
C249 C262 1.479 . S
C250 C247 1.480 . S
C250 C251 1.383 . S
C250 C255 1.385 . S
C251 H232 0.947 . S
C251 C250 1.383 . S
C251 C252 1.388 . S
C252 H233 0.946 . S
C252 C251 1.388 . S
C252 C253 1.384 . S
C253 C252 1.384 . S
C253 C254 1.377 . S
C254 H234 0.953 . S
C254 C253 1.377 . S
C254 C255 1.369 . S
C255 H235 0.945 . S
C255 C250 1.385 . S
C255 C254 1.369 . S
C256 C248 1.457 . S
C256 C257 1.372 1_455 S
C256 C261 1.364 . S
C257 H236 0.952 . S
C257 C256 1.372 1_655 S
C257 C258 1.389 . S
C258 H237 0.949 . S
C258 C257 1.389 . S
C258 C259 1.372 1_655 S
C259 C258 1.372 1_455 S
C259 C260 1.386 . S
C260 H238 0.950 . S
C260 C259 1.386 . S
C260 C261 1.379 . S
C261 H239 0.948 . S
C261 C256 1.364 . S
C261 C260 1.379 . S
C262 C231 1.383 . S
C262 C249 1.479 . S
C262 C263 1.398 . S
C263 C228 1.382 . S
C263 H240 0.951 . S
C263 C262 1.398 . S
C264 C265 1.384 . S
C264 H277 0.947 . S
C264 C299 1.382 . S
C265 C264 1.384 . S
C265 C266 1.378 . S
C266 C265 1.378 . S
C266 C267 1.378 . S
C266 H278 0.952 . S
C267 C266 1.378 . S
C267 H279 0.950 . S
C267 C298 1.383 . S
H268 C287 0.947 . S
H269 C288 0.946 . S
H270 C290 0.953 . S
H271 C291 0.945 . S
H272 C293 0.952 . S
H273 C294 0.949 . S
H274 C296 0.950 . S
H275 C297 0.948 . S
H276 C299 0.951 . S
H277 C264 0.947 . S
H278 C266 0.952 . S
H279 C267 0.950 . S
N280 C283 1.382 1_545 S
N280 C285 1.363 . S
N281 C283 1.371 . S
N281 C284 1.372 1_565 S
N282 C284 1.361 . S
N282 C285 1.377 . S
C283 N280 1.382 1_565 S
C283 N281 1.371 . S
C283 C286 1.480 . S
C284 N281 1.372 1_545 S
C284 N282 1.361 . S
C284 C292 1.457 . S
C285 N280 1.363 . S
C285 N282 1.377 . S
C285 C298 1.479 . S
C286 C283 1.480 . S
C286 C287 1.383 . S
C286 C291 1.385 . S
C287 H268 0.947 . S
C287 C286 1.383 . S
C287 C288 1.388 . S
C288 H269 0.946 . S
C288 C287 1.388 . S
C288 C289 1.384 . S
C289 C288 1.384 . S
C289 C290 1.377 . S
C290 H270 0.953 . S
C290 C289 1.377 . S
C290 C291 1.369 . S
C291 H271 0.945 . S
C291 C286 1.385 . S
C291 C290 1.369 . S
C292 C284 1.457 . S
C292 C293 1.372 1_545 S
C292 C297 1.364 . S
C293 H272 0.952 . S
C293 C292 1.372 1_565 S
C293 C294 1.389 . S
C294 H273 0.949 . S
C294 C293 1.389 . S
C294 C295 1.387 . S
C295 C294 1.387 . S
C295 C296 1.372 1_565 S
C296 H274 0.950 . S
C296 C295 1.372 1_545 S
C296 C297 1.379 . S
C297 H275 0.948 . S
C297 C292 1.364 . S
C297 C296 1.379 . S
C298 C267 1.383 . S
C298 C285 1.479 . S
C298 C299 1.398 . S
C299 C264 1.382 . S
C299 H276 0.951 . S
C299 C298 1.398 . S
C300 C301 1.384 . S
C300 H313 0.947 . S
C300 C335 1.382 . S
C301 C300 1.384 . S
C301 C302 1.378 . S
C302 C301 1.378 . S
C302 C303 1.378 . S
C302 H314 0.952 . S
C303 C302 1.378 . S
C303 H315 0.950 . S
C303 C334 1.383 . S
H304 C323 0.947 . S
H305 C324 0.946 . S
H306 C326 0.953 . S
H307 C327 0.945 . S
H308 C329 0.952 . S
H309 C330 0.949 . S
H310 C332 0.950 . S
H311 C333 0.948 . S
H312 C335 0.951 . S
H313 C300 0.947 . S
H314 C302 0.952 . S
H315 C303 0.950 . S
N316 C319 1.382 . S
N316 C321 1.363 . S
N317 C319 1.371 . S
N317 C320 1.372 . S
N318 C320 1.361 . S
N318 C321 1.377 . S
C319 N316 1.382 . S
C319 N317 1.371 . S
C319 C322 1.480 . S
C320 N317 1.372 . S
C320 N318 1.361 . S
C320 C328 1.457 . S
C321 N316 1.363 . S
C321 N318 1.377 . S
C321 C334 1.479 . S
C322 C319 1.480 . S
C322 C323 1.383 . S
C322 C327 1.385 . S
C323 H304 0.947 . S
C323 C322 1.383 . S
C323 C324 1.388 . S
C324 H305 0.946 . S
C324 C323 1.388 . S
C324 C325 1.384 . S
C325 C324 1.384 . S
C325 C326 1.377 . S
C326 H306 0.953 . S
C326 C325 1.377 . S
C326 C327 1.369 . S
C327 H307 0.945 . S
C327 C322 1.385 . S
C327 C326 1.369 . S
C328 C320 1.457 . S
C328 C329 1.372 . S
C328 C333 1.364 . S
C329 H308 0.952 . S
C329 C328 1.372 . S
C329 C330 1.389 1_554 S
C330 H309 0.949 . S
C330 C329 1.389 1_556 S
C330 C331 1.387 . S
C331 C330 1.387 . S
C331 C332 1.372 . S
C332 H310 0.950 . S
C332 C331 1.372 . S
C332 C333 1.379 1_556 S
C333 H311 0.948 . S
C333 C328 1.364 . S
C333 C332 1.379 1_554 S
C334 C303 1.383 . S
C334 C321 1.479 . S
C334 C335 1.398 . S
C335 C300 1.382 . S
C335 H312 0.951 . S
C335 C334 1.398 . S
C336 C337 1.387 . S
C336 H340 0.950 . S
C336 C345 1.390 . S
C337 C336 1.387 . S
C337 C339 1.387 . S
H338 C345 0.950 . S
C339 C337 1.387 . S
C339 C341 1.390 . S
C339 H343 0.950 . S
H340 C336 0.950 . S
C341 C339 1.390 . S
C341 C342 1.387 . S
C341 H344 0.950 . S
C342 C341 1.387 . S
C342 C345 1.387 . S
H343 C339 0.950 . S
H344 C341 0.950 . S
C345 C336 1.390 . S
C345 H338 0.950 . S
C345 C342 1.387 . S
C346 C347 1.387 . S
C346 H350 0.950 . S
C346 C355 1.390 . S
C347 C346 1.387 . S
C347 C349 1.387 . S
H348 C355 0.950 . S
C349 C347 1.387 . S
C349 C351 1.390 . S
C349 H353 0.950 . S
H350 C346 0.950 . S
C351 C349 1.390 . S
C351 C352 1.387 . S
C351 H354 0.950 . S
C352 C351 1.387 . S
C352 C355 1.387 . S
H353 C349 0.950 . S
H354 C351 0.950 . S
C355 C346 1.390 . S
C355 H348 0.950 . S
C355 C352 1.387 . S
C356 C357 1.387 . S
C356 H360 0.950 . S
C356 C365 1.390 . S
C357 C356 1.387 . S
C357 C359 1.387 . S
H358 C365 0.950 . S
C359 C357 1.387 . S
C359 C361 1.390 . S
C359 H363 0.950 . S
H360 C356 0.950 . S
C361 C359 1.390 . S
C361 C362 1.387 . S
C361 H364 0.950 . S
C362 C361 1.387 . S
C362 C365 1.387 . S
H363 C359 0.950 . S
H364 C361 0.950 . S
C365 C356 1.390 . S
C365 H358 0.950 . S
C365 C362 1.387 . S
C366 C367 1.387 . S
C366 H370 0.950 . S
C366 C375 1.390 . S
C367 C366 1.387 . S
C367 C369 1.387 . S
H368 C375 0.950 . S
C369 C367 1.387 . S
C369 C371 1.390 . S
C369 H373 0.950 . S
H370 C366 0.950 . S
C371 C369 1.390 . S
C371 C372 1.387 . S
C371 H374 0.950 . S
C372 C371 1.387 . S
C372 C375 1.387 . S
H373 C369 0.950 . S
H374 C371 0.950 . S
C375 C366 1.390 . S
C375 H368 0.950 . S
C375 C372 1.387 . S
C376 C377 1.387 . S
C376 H380 0.950 . S
C376 C385 1.390 . S
C377 C376 1.387 . S
C377 C379 1.387 . S
H378 C385 0.950 . S
C379 C377 1.387 . S
C379 C381 1.390 . S
C379 H383 0.950 . S
H380 C376 0.950 . S
C381 C379 1.390 . S
C381 C382 1.387 . S
C381 H384 0.950 . S
C382 C381 1.387 . S
C382 C385 1.387 . S
H383 C379 0.950 . S
H384 C381 0.950 . S
C385 C376 1.390 . S
C385 H378 0.950 . S
C385 C382 1.387 . S
C386 C387 1.387 . S
C386 H390 0.950 . S
C386 C395 1.390 . S
C387 C386 1.387 . S
C387 C389 1.387 . S
H388 C395 0.950 . S
C389 C387 1.387 . S
C389 C391 1.390 . S
C389 H393 0.950 . S
H390 C386 0.950 . S
C391 C389 1.390 . S
C391 C392 1.387 . S
C391 H394 0.950 . S
C392 C391 1.387 . S
C392 C395 1.387 . S
H393 C389 0.950 . S
H394 C391 0.950 . S
C395 C386 1.390 . S
C395 H388 0.950 . S
C395 C392 1.387 . S
C396 C397 1.387 . S
C396 H400 0.950 . S
C396 C405 1.390 . S
C397 C396 1.387 . S
C397 C399 1.387 . S
H398 C405 0.950 . S
C399 C397 1.387 . S
C399 C401 1.390 . S
C399 H403 0.950 . S
H400 C396 0.950 . S
C401 C399 1.390 . S
C401 C402 1.387 . S
C401 H404 0.950 . S
C402 C401 1.387 . S
C402 C405 1.387 . S
H403 C399 0.950 . S
H404 C401 0.950 . S
C405 C396 1.390 . S
C405 H398 0.950 . S
C405 C402 1.387 . S
C406 C407 1.387 . S
C406 H410 0.950 . S
C406 C415 1.390 . S
C407 C406 1.387 . S
C407 C409 1.387 . S
H408 C415 0.950 . S
C409 C407 1.387 . S
C409 C411 1.390 . S
C409 H413 0.950 . S
H410 C406 0.950 . S
C411 C409 1.390 . S
C411 C412 1.387 . S
C411 H414 0.950 . S
C412 C411 1.387 . S
C412 C415 1.387 . S
H413 C409 0.950 . S
H414 C411 0.950 . S
C415 C406 1.390 . S
C415 H408 0.950 . S
C415 C412 1.387 . S
C416 C417 1.387 . S
C416 H420 0.950 . S
C416 C425 1.390 . S
C417 C416 1.387 . S
C417 C419 1.387 . S
H418 C425 0.950 . S
C419 C417 1.387 . S
C419 C421 1.390 . S
C419 H423 0.950 . S
H420 C416 0.950 . S
C421 C419 1.390 . S
C421 C422 1.387 . S
C421 H424 0.950 . S
C422 C421 1.387 . S
C422 C425 1.387 . S
H423 C419 0.950 . S
H424 C421 0.950 . S
C425 C416 1.390 . S
C425 H418 0.950 . S
C425 C422 1.387 . S
C426 C427 1.387 . S
C426 H430 0.950 . S
C426 C435 1.390 . S
C427 C426 1.387 . S
C427 C429 1.387 . S
H428 C435 0.950 . S
C429 C427 1.387 . S
C429 C431 1.390 . S
C429 H433 0.950 . S
H430 C426 0.950 . S
C431 C429 1.390 . S
C431 C432 1.387 . S
C431 H434 0.950 . S
C432 C431 1.387 . S
C432 C435 1.387 . S
H433 C429 0.950 . S
H434 C431 0.950 . S
C435 C426 1.390 . S
C435 H428 0.950 . S
C435 C432 1.387 . S
C436 C437 1.387 . S
C436 H440 0.950 . S
C436 C445 1.390 . S
C437 C436 1.387 . S
C437 C439 1.387 . S
H438 C445 0.950 . S
C439 C437 1.387 . S
C439 C441 1.390 . S
C439 H443 0.950 . S
H440 C436 0.950 . S
C441 C439 1.390 . S
C441 C442 1.387 . S
C441 H444 0.950 . S
C442 C441 1.387 . S
C442 C445 1.387 . S
H443 C439 0.950 . S
H444 C441 0.950 . S
C445 C436 1.390 . S
C445 H438 0.950 . S
C445 C442 1.387 . S
C446 C447 1.387 . S
C446 H450 0.950 . S
C446 C455 1.390 . S
C447 C446 1.387 . S
C447 C449 1.387 . S
H448 C455 0.950 . S
C449 C447 1.387 . S
C449 C451 1.390 . S
C449 H453 0.950 . S
H450 C446 0.950 . S
C451 C449 1.390 . S
C451 C452 1.387 . S
C451 H454 0.950 . S
C452 C451 1.387 . S
C452 C455 1.387 . S
H453 C449 0.950 . S
H454 C451 0.950 . S
C455 C446 1.390 . S
C455 H448 0.950 . S
C455 C452 1.387 . S
C456 C457 1.387 . S
C456 H460 0.950 1_455 S
C456 C465 1.390 . S
C457 C456 1.387 . S
C457 C459 1.387 . S
H458 C465 0.950 1_655 S
C459 C457 1.387 . S
C459 C461 1.390 . S
C459 H463 0.950 . S
H460 C456 0.950 1_655 S
C461 C459 1.390 . S
C461 C462 1.387 . S
C461 H464 0.950 . S
C462 C461 1.387 . S
C462 C465 1.387 . S
H463 C459 0.950 . S
H464 C461 0.950 . S
C465 C456 1.390 . S
C465 H458 0.950 1_455 S
C465 C462 1.387 . S
C466 C467 1.387 . S
C466 H470 0.950 . S
C466 C475 1.390 . S
C467 C466 1.387 . S
C467 C469 1.387 . S
H468 C475 0.950 . S
C469 C467 1.387 . S
C469 C471 1.390 . S
C469 H473 0.950 1_545 S
H470 C466 0.950 . S
C471 C469 1.390 . S
C471 C472 1.387 . S
C471 H474 0.950 1_545 S
C472 C471 1.387 . S
C472 C475 1.387 . S
H473 C469 0.950 1_565 S
H474 C471 0.950 1_565 S
C475 C466 1.390 . S
C475 H468 0.950 . S
C475 C472 1.387 . S
C476 C477 1.387 . S
C476 H480 0.950 . S
C476 C485 1.390 . S
C477 C476 1.387 . S
C477 C479 1.387 . S
H478 C485 0.950 . S
C479 C477 1.387 . S
C479 C481 1.390 . S
C479 H483 0.950 . S
H480 C476 0.950 . S
C481 C479 1.390 . S
C481 C482 1.387 . S
C481 H484 0.950 . S
C482 C481 1.387 . S
C482 C485 1.387 . S
H483 C479 0.950 . S
H484 C481 0.950 . S
C485 C476 1.390 . S
C485 H478 0.950 . S
C485 C482 1.387 . S
C486 C487 1.387 . S
C486 H490 0.950 . S
C486 C495 1.390 . S
C487 C486 1.387 . S
C487 C489 1.387 1_545 S
H488 C495 0.950 . S
C489 C487 1.387 1_565 S
C489 C491 1.390 . S
C489 H493 0.950 . S
H490 C486 0.950 . S
C491 C489 1.390 . S
C491 C492 1.387 . S
C491 H494 0.950 . S
C492 C491 1.387 . S
C492 C495 1.387 1_565 S
H493 C489 0.950 . S
H494 C491 0.950 . S
C495 C486 1.390 . S
C495 H488 0.950 . S
C495 C492 1.387 1_545 S
C496 C497 1.387 . S
C496 H500 0.950 . S
C496 C505 1.390 . S
C497 C496 1.387 . S
C497 C499 1.387 . S
H498 C505 0.950 . S
C499 C497 1.387 . S
C499 C501 1.390 . S
C499 H503 0.950 . S
H500 C496 0.950 . S
C501 C499 1.390 . S
C501 C502 1.387 . S
C501 H504 0.950 . S
C502 C501 1.387 . S
C502 C505 1.387 . S
H503 C499 0.950 . S
H504 C501 0.950 . S
C505 C496 1.390 . S
C505 H498 0.950 . S
C505 C502 1.387 . S
C506 C507 1.387 1_655 S
C506 H510 0.950 . S
C506 C515 1.390 . S
C507 C506 1.387 1_455 S
C507 C509 1.387 . S
H508 C515 0.950 . S
C509 C507 1.387 . S
C509 C511 1.390 . S
C509 H513 0.950 . S
H510 C506 0.950 . S
C511 C509 1.390 . S
C511 C512 1.390 . S
C511 H514 0.950 . S
C512 C511 1.390 . S
C512 C515 1.390 1_455 S
H513 C509 0.950 . S
H514 C511 0.950 . S
C515 C506 1.390 . S
C515 H508 0.950 . S
C515 C512 1.390 1_655 S
C337 C25 0.685 . S
C342 C325 0.667 . S
C347 C65 0.664 . S
C352 C253 0.599 . S
C357 C105 0.748 . S
C362 C289 0.751 . S
C367 C4 0.756 . S
C372 C301 0.755 . S
C382 C229 0.606 . S
C377 C44 0.632 . S
C392 C265 0.695 . S
C387 C84 0.698 . S
C397 C60 3.023 . S
C402 C181 2.930 . S
C407 C100 3.180 . S
C412 C193 3.116 . S
C417 C31 3.208 . S
C422 C121 3.127 . S
C432 C157 3.136 . S
C427 C71 3.207 . S
C442 C217 2.956 . S
C437 C111 3.050 . S
C447 C20 3.030 . S
C452 C145 2.938 . S
C462 C223 1.859 . S
C457 C2 1.754 . S
C467 C42 1.779 . S
C472 C151 1.811 . S
C477 C82 1.769 . S
C482 C187 1.816 . S
C492 C295 1.043 . S
C487 C63 1.073 . S
C502 C331 1.125 . S
C497 C103 1.131 . S
C507 C23 1.033 . S
C512 C259 1.012 . S
