# Generated by pormake.
# Topology nom, (4,4)-cn, num edge types: 1
# Building blocks:
#     Node 0, Type 0, BuildingBlock: NAHDIM_clean_linker_0, # of connection points: 4
#     Node 1, Type 0, BuildingBlock: NAHDIM_clean_linker_0, # of connection points: 4
#     Node 2, Type 0, BuildingBlock: NAHDIM_clean_linker_0, # of connection points: 4
#     Node 3, Type 0, BuildingBlock: NAHDIM_clean_linker_0, # of connection points: 4
#     Node 4, Type 0, BuildingBlock: NAHDIM_clean_linker_0, # of connection points: 4
#     Node 5, Type 0, BuildingBlock: NAHDIM_clean_linker_0, # of connection points: 4
#     Node 6, Type 1, BuildingBlock: TATPOV_clean_sbu_0, # of connection points: 4
#     Node 7, Type 1, BuildingBlock: TATPOV_clean_sbu_0, # of connection points: 4
#     Node 8, Type 1, BuildingBlock: TATPOV_clean_sbu_0, # of connection points: 4
#     Node 9, Type 1, BuildingBlock: TATPOV_clean_sbu_0, # of connection points: 4
#     Node 10, Type 1, BuildingBlock: TATPOV_clean_sbu_0, # of connection points: 4
#     Node 11, Type 1, BuildingBlock: TATPOV_clean_sbu_0, # of connection points: 4
#     Edge 12, Type (0, 1), BuildingBlock: XIVTED_clean_linker_0, # of connection points: 2
#     Edge 13, Type (0, 1), BuildingBlock: XIVTED_clean_linker_0, # of connection points: 2
#     Edge 14, Type (0, 1), BuildingBlock: XIVTED_clean_linker_0, # of connection points: 2
#     Edge 15, Type (0, 1), BuildingBlock: XIVTED_clean_linker_0, # of connection points: 2
#     Edge 16, Type (0, 1), BuildingBlock: XIVTED_clean_linker_0, # of connection points: 2
#     Edge 17, Type (0, 1), BuildingBlock: XIVTED_clean_linker_0, # of connection points: 2
#     Edge 18, Type (0, 1), BuildingBlock: XIVTED_clean_linker_0, # of connection points: 2
#     Edge 19, Type (0, 1), BuildingBlock: XIVTED_clean_linker_0, # of connection points: 2
#     Edge 20, Type (0, 1), BuildingBlock: XIVTED_clean_linker_0, # of connection points: 2
#     Edge 21, Type (0, 1), BuildingBlock: XIVTED_clean_linker_0, # of connection points: 2
#     Edge 22, Type (0, 1), BuildingBlock: XIVTED_clean_linker_0, # of connection points: 2
#     Edge 23, Type (0, 1), BuildingBlock: XIVTED_clean_linker_0, # of connection points: 2
#     Edge 24, Type (0, 1), BuildingBlock: XIVTED_clean_linker_0, # of connection points: 2
#     Edge 25, Type (0, 1), BuildingBlock: XIVTED_clean_linker_0, # of connection points: 2
#     Edge 26, Type (0, 1), BuildingBlock: XIVTED_clean_linker_0, # of connection points: 2
#     Edge 27, Type (0, 1), BuildingBlock: XIVTED_clean_linker_0, # of connection points: 2
#     Edge 28, Type (0, 1), BuildingBlock: XIVTED_clean_linker_0, # of connection points: 2
#     Edge 29, Type (0, 1), BuildingBlock: XIVTED_clean_linker_0, # of connection points: 2
#     Edge 30, Type (0, 1), BuildingBlock: XIVTED_clean_linker_0, # of connection points: 2
#     Edge 31, Type (0, 1), BuildingBlock: XIVTED_clean_linker_0, # of connection points: 2
#     Edge 32, Type (0, 1), BuildingBlock: XIVTED_clean_linker_0, # of connection points: 2
#     Edge 33, Type (0, 1), BuildingBlock: XIVTED_clean_linker_0, # of connection points: 2
#     Edge 34, Type (0, 1), BuildingBlock: XIVTED_clean_linker_0, # of connection points: 2
#     Edge 35, Type (0, 1), BuildingBlock: XIVTED_clean_linker_0, # of connection points: 2
# Relax obj value: 0.066
# Max RMSD: 0.134
# Mean RMSD: 0.125
data_MOF--net-nom--node1-TATPOV_clean_sbu_0--node2-NAHDIM_clean_linker_0--edge1-XIVTED_clean_linker_0
_symmetry_space_group_name_H-M    P1
_symmetry_Int_Tables_number       1
_symmetry_cell_setting            triclinic
loop_
_symmetry_equiv_pos_as_xyz
'x, y, z'
_cell_length_a     57.288729
_cell_length_b     58.14089
_cell_length_c     69.695144
_cell_angle_alpha  90.669593
_cell_angle_beta   90.606796
_cell_angle_gamma 120.06941
loop_
_atom_site_label
_atom_site_type_symbol
_atom_site_fract_x
_atom_site_fract_y
_atom_site_fract_z
_atom_type_partial_charge
C0 C 0.16465 0.57488 0.23135 0.0
C1 C 0.17441 0.59113 0.25017 0.0
C2 C 0.13118 0.57734 0.26607 0.0
C3 C 0.12544 0.55158 0.27081 0.0
C4 C 0.10058 0.53342 0.27876 0.0
C5 C 0.08114 0.54115 0.28203 0.0
C6 C 0.08713 0.56726 0.27774 0.0
C7 C 0.11216 0.58502 0.2699 0.0
C8 C 0.09486 0.50581 0.28339 0.0
C9 C 0.06687 0.57619 0.28106 0.0
C10 C 0.90986 0.45583 0.18987 0.0
C11 C 0.92495 0.46683 0.20812 0.0
C12 C 0.95158 0.46023 0.23242 0.0
C13 C 0.95371 0.48067 0.24464 0.0
C14 C 0.97142 0.48961 0.26052 0.0
C15 C 0.98684 0.47735 0.2647 0.0
C16 C 0.98381 0.4559 0.25303 0.0
C17 C 0.96619 0.44763 0.23699 0.0
C18 C 0.97419 0.51274 0.27248 0.0
C19 C -0.00036 0.44216 0.25727 0.0
C20 C 0.89701 0.42479 0.37218 0.0
C21 C 0.90438 0.45051 0.36623 0.0
C22 C 0.93139 0.46912 0.36253 0.0
C23 C 0.95138 0.4618 0.36483 0.0
C24 C 0.9442 0.43642 0.3719 0.0
C25 C 0.91704 0.4183 0.37566 0.0
C26 C 0.93848 0.49633 0.35564 0.0
C27 C 0.96507 0.42815 0.37479 0.0
C28 C 0.15205 0.6274 0.40863 0.0
C29 C 0.13148 0.60043 0.4166 0.0
C30 C 0.08501 0.57562 0.40394 0.0
C31 C 0.066 0.58 0.39453 0.0
C32 C 0.04533 0.55999 0.38314 0.0
C33 C 0.04355 0.53489 0.38136 0.0
C34 C 0.06152 0.5297 0.39198 0.0
C35 C 0.08208 0.55013 0.40326 0.0
C36 C 0.02609 0.56602 0.37235 0.0
C37 C 0.05958 0.50288 0.39082 0.0
C38 C 0.05397 0.52153 0.28892 0.0
C39 C 0.03412 0.50635 0.27511 0.0
C40 C 0.00761 0.48862 0.28031 0.0
C41 C 0.00082 0.48503 0.2999 0.0
C42 C 0.97465 0.46653 0.30568 0.0
C43 C 0.96771 0.46435 0.32492 0.0
C44 C 0.98661 0.48086 0.33908 0.0
C45 C 0.97934 0.47994 0.35853 0.0
C46 C 0.99844 0.49718 0.37214 0.0
C47 C 0.02482 0.51528 0.36684 0.0
C48 C 0.03265 0.51601 0.34757 0.0
C49 C 0.05918 0.53369 0.34184 0.0
C50 C 0.0664 0.53508 0.32272 0.0
C51 C 0.04727 0.51919 0.30853 0.0
C52 C 0.02058 0.50084 0.31403 0.0
C53 C 0.01334 0.49904 0.33361 0.0
C54 C 0.83336 0.37438 0.35534 0.0
C55 C 0.8492 0.40287 0.36343 0.0
O56 O 0.15443 0.5953 0.25758 0.0
O57 O 0.10578 0.59648 0.41342 0.0
O58 O 0.87082 0.40574 0.37445 0.0
O59 O 0.93628 0.4528 0.21599 0.0
H60 H 0.1799 0.58037 0.26076 0.0
H61 H 0.14704 0.55491 0.23384 0.0
H62 H 0.15859 0.5851 0.22071 0.0
H63 H 0.18094 0.57211 0.22524 0.0
H64 H 0.14003 0.54534 0.26821 0.0
H65 H 0.11681 0.60496 0.26632 0.0
H66 H 0.07773 0.49102 0.27429 0.0
H67 H 0.11257 0.50325 0.28099 0.0
H68 H 0.0888 0.50144 0.29859 0.0
H69 H 0.07489 0.59736 0.27739 0.0
H70 H 0.04841 0.56371 0.2722 0.0
H71 H 0.06088 0.57351 0.29633 0.0
H72 H 0.93875 0.48882 0.20834 0.0
H73 H 0.86724 0.44287 0.19759 0.0
H74 H 0.92094 0.47161 0.17887 0.0
H75 H 0.91642 0.44181 0.18395 0.0
H76 H 0.94196 0.49015 0.24169 0.0
H77 H 0.96425 0.43168 0.22767 0.0
H78 H 0.96606 0.50579 0.28697 0.0
H79 H 0.99576 0.52822 0.27429 0.0
H80 H 0.96314 0.52199 0.266 0.0
H81 H 0.99252 0.42376 0.24841 0.0
H82 H 0.02127 0.45586 0.25432 0.0
H83 H 0.9981 0.43704 0.27269 0.0
H84 H 0.85636 0.41574 0.35061 0.0
H85 H 0.88907 0.45603 0.3643 0.0
H86 H 0.91119 0.39855 0.38061 0.0
H87 H 0.94512 0.49849 0.34054 0.0
H88 H 0.92114 0.49983 0.35639 0.0
H89 H 0.95552 0.51191 0.36438 0.0
H90 H 0.95631 0.40789 0.38072 0.0
H91 H 0.97453 0.42859 0.36087 0.0
H92 H 0.98128 0.44247 0.38473 0.0
H93 H 0.13433 0.58527 0.40872 0.0
H94 H 0.17288 0.63107 0.41092 0.0
H95 H 0.14844 0.62768 0.39297 0.0
H96 H 0.15029 0.64368 0.41572 0.0
H97 H 0.06807 0.59956 0.39555 0.0
H98 H 0.09587 0.54617 0.41135 0.0
H99 H 0.02895 0.56519 0.35668 0.0
H100 H 0.00495 0.55077 0.37542 0.0
H101 H 0.02914 0.58595 0.37619 0.0
H102 H 0.0736 0.50127 0.40114 0.0
H103 H 0.03863 0.48697 0.39372 0.0
H104 H 0.06443 0.49937 0.37607 0.0
H105 H 0.03911 0.50925 0.26002 0.0
H106 H 0.95921 0.45367 0.29533 0.0
H107 H 0.94719 0.44987 0.32848 0.0
H108 H 0.99255 0.4969 0.38691 0.0
H109 H 0.07469 0.54677 0.35206 0.0
H110 H 0.08706 0.54914 0.31914 0.0
H111 H 0.82685 0.35964 0.36696 0.0
H112 H 0.81531 0.37137 0.34707 0.0
H113 H 0.84632 0.37068 0.34551 0.0
C114 C 0.45034 0.87492 0.58973 0.0
C115 C 0.43388 0.86508 0.57093 0.0
C116 C 0.44525 0.90678 0.5546 0.0
C117 C 0.47161 0.91357 0.54947 0.0
C118 C 0.48836 0.93748 0.54014 0.0
C119 C 0.47865 0.95496 0.53593 0.0
C120 C 0.4521 0.9481 0.54094 0.0
C121 C 0.43573 0.92402 0.55013 0.0
C122 C 0.51653 0.94418 0.53486 0.0
C123 C 0.44112 0.96636 0.5368 0.0
C124 C 0.6039 0.12937 0.61628 0.0
C125 C 0.60536 0.11776 0.59762 0.0
C126 C 0.57175 0.09208 0.57221 0.0
C127 C 0.54675 0.08635 0.56458 0.0
C128 C 0.53281 0.0655 0.55123 0.0
C129 C 0.54447 0.05026 0.54515 0.0
C130 C 0.57006 0.05627 0.55252 0.0
C131 C 0.58352 0.07718 0.56602 0.0
C132 C 0.50545 0.05957 0.5438 0.0
C133 C 0.58308 0.0405 0.54616 0.0
C134 C 0.57088 0.12365 0.43227 0.0
C135 C 0.54574 0.11497 0.44059 0.0
C136 C 0.52973 0.08848 0.44609 0.0
C137 C 0.53933 0.07048 0.44341 0.0
C138 C 0.56406 0.07891 0.43405 0.0
C139 C 0.57944 0.10545 0.42838 0.0
C140 C 0.503 0.07996 0.45538 0.0
C141 C 0.57472 0.06018 0.43078 0.0
C142 C 0.38672 0.86017 0.40585 0.0
C143 C 0.41376 0.88413 0.40056 0.0
C144 C 0.43306 0.92965 0.41354 0.0
C145 C 0.42589 0.94687 0.42232 0.0
C146 C 0.44497 0.96949 0.43267 0.0
C147 C 0.47195 0.97501 0.43413 0.0
C148 C 0.47973 0.95855 0.42431 0.0
C149 C 0.46021 0.93606 0.414 0.0
C150 C 0.43612 0.98697 0.44261 0.0
C151 C 0.5085 0.96434 0.42523 0.0
C152 C 0.49648 0.9808 0.5268 0.0
C153 C 0.51323 0.00248 0.53877 0.0
C154 C 0.52948 0.02776 0.53135 0.0
C155 C 0.5294 0.03162 0.51136 0.0
C156 C 0.5457 0.05674 0.50341 0.0
C157 C 0.54451 0.06062 0.48385 0.0
C158 C 0.52687 0.03955 0.47149 0.0
C159 C 0.52451 0.04358 0.45173 0.0
C160 C 0.50691 0.02217 0.43983 0.0
C161 C 0.49136 0.99668 0.44718 0.0
C162 C 0.49331 0.99229 0.46691 0.0
C163 C 0.47777 0.96694 0.47479 0.0
C164 C 0.47905 0.96302 0.49434 0.0
C165 C 0.49587 0.98431 0.50679 0.0
C166 C 0.51226 0.00988 0.49908 0.0
C167 C 0.51097 0.01387 0.47912 0.0
C168 C 0.62417 0.17752 0.44952 0.0
C169 C 0.59589 0.16988 0.44213 0.0
O170 O 0.42836 0.88413 0.56396 0.0
O171 O 0.41316 0.90714 0.40494 0.0
O172 O 0.58747 0.14967 0.42842 0.0
O173 O 0.58341 0.11181 0.58572 0.0
H174 H 0.4454 0.86073 0.56015 0.0
H175 H 0.46998 0.89316 0.58733 0.0
H176 H 0.43924 0.87958 0.60065 0.0
H177 H 0.45448 0.85951 0.59541 0.0
H178 H 0.47941 0.90053 0.55276 0.0
H179 H 0.4154 0.91863 0.5541 0.0
H180 H 0.53145 0.96245 0.54281 0.0
H181 H 0.52065 0.9279 0.53818 0.0
H182 H 0.51956 0.94837 0.51929 0.0
H183 H 0.42024 0.95837 0.54199 0.0
H184 H 0.45431 0.9861 0.54374 0.0
H185 H 0.44115 0.96941 0.5211 0.0
H186 H 0.62514 0.12784 0.59032 0.0
H187 H 0.59849 0.0986 0.63758 0.0
H188 H 0.62191 0.15016 0.61654 0.0
H189 H 0.5887 0.13623 0.61461 0.0
H190 H 0.53793 0.09804 0.56946 0.0
H191 H 0.60309 0.08178 0.57166 0.0
H192 H 0.5062 0.06261 0.52808 0.0
H193 H 0.49028 0.03846 0.54634 0.0
H194 H 0.49861 0.07242 0.55074 0.0
H195 H 0.60366 0.04849 0.55246 0.0
H196 H 0.57042 0.0195 0.55049 0.0
H197 H 0.58432 0.04057 0.53027 0.0
H198 H 0.58241 0.16302 0.45475 0.0
H199 H 0.53888 0.12905 0.44301 0.0
H200 H 0.59878 0.11239 0.42169 0.0
H201 H 0.5046 0.07674 0.47089 0.0
H202 H 0.4967 0.09509 0.45391 0.0
H203 H 0.48707 0.06086 0.44891 0.0
H204 H 0.59436 0.06984 0.42336 0.0
H205 H 0.57729 0.05266 0.44475 0.0
H206 H 0.55992 0.04275 0.42201 0.0
H207 H 0.42943 0.88296 0.40939 0.0
H208 H 0.38667 0.84137 0.40267 0.0
H209 H 0.38329 0.86101 0.42144 0.0
H210 H 0.36986 0.86006 0.39773 0.0
H211 H 0.40501 0.94204 0.42154 0.0
H212 H 0.46624 0.92353 0.4065 0.0
H213 H 0.43821 0.98599 0.45839 0.0
H214 H 0.4493 0.00797 0.43849 0.0
H215 H 0.41484 0.98094 0.43905 0.0
H216 H 0.51166 0.95047 0.41599 0.0
H217 H 0.52233 0.98502 0.42069 0.0
H218 H 0.51402 0.96271 0.44027 0.0
H219 H 0.51308 0.99977 0.55416 0.0
H220 H 0.55942 0.07375 0.51226 0.0
H221 H 0.55743 0.08045 0.47859 0.0
H222 H 0.50491 0.02546 0.42476 0.0
H223 H 0.46423 0.94983 0.46597 0.0
H224 H 0.46647 0.94313 0.49962 0.0
H225 H 0.63868 0.18402 0.43756 0.0
H226 H 0.63133 0.19385 0.46044 0.0
H227 H 0.62369 0.16011 0.45633 0.0
C228 C 0.60653 0.4565 0.73883 0.0
C229 C 0.59749 0.43948 0.72034 0.0
C230 C 0.56452 0.45033 0.70608 0.0
C231 C 0.58305 0.47632 0.70049 0.0
C232 C 0.574 0.49258 0.69244 0.0
C233 C 0.54599 0.48261 0.6899 0.0
C234 C 0.52739 0.45625 0.6951 0.0
C235 C 0.53697 0.44047 0.70307 0.0
C236 C 0.59429 0.52057 0.68694 0.0
C237 C 0.49736 0.44495 0.69267 0.0
C238 C 0.44883 0.54434 0.78455 0.0
C239 C 0.45418 0.53586 0.76586 0.0
C240 C 0.48742 0.54926 0.74085 0.0
C241 C 0.47014 0.5287 0.72803 0.0
C242 C 0.48008 0.52288 0.71153 0.0
C243 C 0.50785 0.53843 0.70741 0.0
C244 C 0.52505 0.56011 0.71967 0.0
C245 C 0.51457 0.56525 0.73628 0.0
C246 C 0.46091 0.49936 0.69898 0.0
C247 C 0.55465 0.57726 0.71557 0.0
C248 C 0.45278 0.57778 0.60087 0.0
C249 C 0.43725 0.55249 0.60864 0.0
C250 C 0.44858 0.53642 0.61228 0.0
C251 C 0.47605 0.54599 0.60812 0.0
C252 C 0.49132 0.57093 0.59935 0.0
C253 C 0.47932 0.58642 0.59563 0.0
C254 C 0.43143 0.50956 0.62107 0.0
C255 C 0.52053 0.58158 0.59455 0.0
C256 C 0.5064 0.37789 0.57564 0.0
C257 C 0.5199 0.40675 0.56917 0.0
C258 C 0.50009 0.43487 0.57225 0.0
C259 C 0.47624 0.43173 0.57981 0.0
C260 C 0.47608 0.45261 0.58998 0.0
C261 C 0.50027 0.47741 0.59201 0.0
C262 C 0.52378 0.48142 0.58263 0.0
C263 C 0.52356 0.45993 0.57306 0.0
C264 C 0.45042 0.44774 0.59939 0.0
C265 C 0.54954 0.50793 0.58365 0.0
C266 C 0.53597 0.50017 0.68295 0.0
C267 C 0.53091 0.51467 0.69672 0.0
C268 C 0.51906 0.52973 0.69164 0.0
C269 C 0.51366 0.53183 0.67211 0.0
C270 C 0.50335 0.54814 0.66639 0.0
C271 C 0.49614 0.54849 0.6473 0.0
C272 C 0.4984 0.53207 0.63332 0.0
C273 C 0.4892 0.53072 0.61418 0.0
C274 C 0.491 0.51357 0.60079 0.0
C275 C 0.50178 0.49758 0.60603 0.0
C276 C 0.51166 0.49912 0.62499 0.0
C277 C 0.52283 0.48346 0.63074 0.0
C278 C 0.5317 0.48448 0.64954 0.0
C279 C 0.52888 0.50047 0.66351 0.0
C280 C 0.51783 0.51651 0.65806 0.0
C281 C 0.50964 0.51618 0.63871 0.0
C282 C 0.44773 0.62753 0.62105 0.0
C283 C 0.429 0.59984 0.61237 0.0
O284 O 0.57196 0.43407 0.71465 0.0
O285 O 0.5002 0.41321 0.56495 0.0
O286 O 0.44267 0.59427 0.59844 0.0
O287 O 0.4787 0.55355 0.75789 0.0
H288 H 0.61209 0.45008 0.70878 0.0
H289 H 0.608 0.47601 0.73641 0.0
H290 H 0.5919 0.44636 0.75044 0.0
H291 H 0.62673 0.46023 0.7436 0.0
H292 H 0.60448 0.48417 0.70255 0.0
H293 H 0.52288 0.42035 0.70734 0.0
H294 H 0.59155 0.53488 0.69597 0.0
H295 H 0.61541 0.52491 0.68876 0.0
H296 H 0.59082 0.52384 0.67176 0.0
H297 H 0.48562 0.42381 0.69692 0.0
H298 H 0.49097 0.45672 0.70157 0.0
H299 H 0.49229 0.4464 0.67749 0.0
H300 H 0.4492 0.51469 0.765 0.0
H301 H 0.44756 0.5291 0.79502 0.0
H302 H 0.46878 0.56081 0.79048 0.0
H303 H 0.41413 0.5507 0.77797 0.0
H304 H 0.44889 0.51662 0.73103 0.0
H305 H 0.52773 0.58129 0.74608 0.0
H306 H 0.45778 0.50653 0.68504 0.0
H307 H 0.46946 0.48629 0.696 0.0
H308 H 0.4409 0.48726 0.70562 0.0
H309 H 0.56431 0.59572 0.72458 0.0
H310 H 0.56509 0.5659 0.7185 0.0
H311 H 0.55748 0.58269 0.70019 0.0
H312 H 0.42321 0.58564 0.6244 0.0
H313 H 0.41632 0.54539 0.61198 0.0
H314 H 0.49096 0.60582 0.58932 0.0
H315 H 0.43845 0.51002 0.63605 0.0
H316 H 0.40975 0.5037 0.62128 0.0
H317 H 0.43353 0.49414 0.61299 0.0
H318 H 0.52962 0.6013 0.58769 0.0
H319 H 0.53226 0.58343 0.60784 0.0
H320 H 0.52232 0.56742 0.5847 0.0
H321 H 0.53275 0.41906 0.58157 0.0
H322 H 0.52185 0.37215 0.57873 0.0
H323 H 0.49503 0.37567 0.58896 0.0
H324 H 0.49202 0.36413 0.56449 0.0
H325 H 0.45813 0.41238 0.57873 0.0
H326 H 0.5418 0.46252 0.56659 0.0
H327 H 0.4539 0.45161 0.6151 0.0
H328 H 0.44427 0.46167 0.59363 0.0
H329 H 0.43356 0.42708 0.59692 0.0
H330 H 0.56405 0.50938 0.57262 0.0
H331 H 0.5452 0.52437 0.58171 0.0
H332 H 0.55923 0.51063 0.59801 0.0
H333 H 0.53468 0.51285 0.71177 0.0
H334 H 0.5006 0.56065 0.67668 0.0
H335 H 0.48817 0.56134 0.64376 0.0
H336 H 0.4832 0.51208 0.5863 0.0
H337 H 0.52478 0.4701 0.62083 0.0
H338 H 0.54014 0.47202 0.65311 0.0
H339 H 0.43708 0.63245 0.63217 0.0
H340 H 0.46557 0.62805 0.62793 0.0
H341 H 0.4549 0.64287 0.60979 0.0
C342 C 0.15541 0.59908 0.90123 0.0
C343 C 0.16561 0.58906 0.88467 0.0
C344 C 0.12309 0.55225 0.87099 0.0
C345 C 0.11355 0.56798 0.8627 0.0
C346 C 0.08754 0.5562 0.85445 0.0
C347 C 0.07091 0.52821 0.85439 0.0
C348 C 0.08091 0.51232 0.86196 0.0
C349 C 0.10693 0.5246 0.87016 0.0
C350 C 0.07746 0.57367 0.84636 0.0
C351 C 0.06381 0.48241 0.86195 0.0
C352 C 0.89337 0.43043 0.94247 0.0
C353 C 0.91316 0.43494 0.92752 0.0
C354 C 0.94165 0.46904 0.90488 0.0
C355 C 0.94737 0.45214 0.89386 0.0
C356 C 0.96478 0.46186 0.87831 0.0
C357 C 0.97655 0.48901 0.87357 0.0
C358 C 0.97058 0.50601 0.88444 0.0
C359 C 0.95314 0.49575 0.9 0.0
C360 C 0.97088 0.44314 0.8671 0.0
C361 C 0.98273 0.53497 0.87968 0.0
C362 C 0.87811 0.45139 0.76869 0.0
C363 C 0.88499 0.43295 0.77557 0.0
C364 C 0.91212 0.44004 0.7782 0.0
C365 C 0.93266 0.46629 0.77424 0.0
C366 C 0.92573 0.4844 0.76628 0.0
C367 C 0.89844 0.47653 0.76334 0.0
C368 C 0.91876 0.41983 0.78595 0.0
C369 C 0.94708 0.51242 0.76167 0.0
C370 C 0.1111 0.46403 0.71875 0.0
C371 C 0.10127 0.48393 0.72151 0.0
C372 C 0.05685 0.47411 0.7316 0.0
C373 C 0.03522 0.45208 0.73977 0.0
C374 C 0.01833 0.45515 0.75266 0.0
C375 C 0.02254 0.48092 0.75672 0.0
C376 C 0.04339 0.50317 0.74741 0.0
C377 C 0.06079 0.49958 0.73528 0.0
C378 C 0.99629 0.43083 0.76214 0.0
C379 C 0.04756 0.53073 0.75043 0.0
C380 C 0.04226 0.51584 0.84817 0.0
C381 C 0.02332 0.51073 0.86237 0.0
C382 C 0.99598 0.49947 0.85771 0.0
C383 C 0.98741 0.49498 0.83829 0.0
C384 C 0.96051 0.48632 0.83302 0.0
C385 C 0.95205 0.48092 0.81391 0.0
C386 C 0.96989 0.48277 0.79946 0.0
C387 C 0.96102 0.47556 0.78017 0.0
C388 C 0.97896 0.47638 0.76638 0.0
C389 C 0.00576 0.48437 0.77131 0.0
C390 C 0.01532 0.49289 0.79037 0.0
C391 C 0.04235 0.5019 0.7958 0.0
C392 C 0.05149 0.51028 0.81458 0.0
C393 C 0.03361 0.50857 0.82887 0.0
C394 C 0.00614 0.49871 0.82385 0.0
C395 C 0.99718 0.49172 0.8045 0.0
C396 C 0.81879 0.44742 0.78626 0.0
C397 C 0.83248 0.43155 0.78075 0.0
O398 O 0.14735 0.56264 0.88026 0.0
O399 O 0.07337 0.47016 0.71999 0.0
O400 O 0.8521 0.44567 0.76737 0.0
O401 O 0.92537 0.46041 0.92031 0.0
H402 H 0.16871 0.60139 0.87183 0.0
H403 H 0.13639 0.5985 0.89703 0.0
H404 H 0.15151 0.58656 0.91406 0.0
H405 H 0.17059 0.61998 0.90512 0.0
H406 H 0.12597 0.5894 0.86292 0.0
H407 H 0.11458 0.51264 0.87642 0.0
H408 H 0.05976 0.57094 0.85457 0.0
H409 H 0.09314 0.59507 0.84693 0.0
H410 H 0.07068 0.56773 0.83121 0.0
H411 H 0.07559 0.47281 0.86627 0.0
H412 H 0.04704 0.4765 0.87211 0.0
H413 H 0.05473 0.47478 0.84747 0.0
H414 H 0.92734 0.42755 0.93076 0.0
H415 H 0.90136 0.42578 0.95587 0.0
H416 H 0.89791 0.45067 0.94791 0.0
H417 H 0.85379 0.40078 0.92881 0.0
H418 H 0.93846 0.43137 0.89738 0.0
H419 H 0.94853 0.50861 0.90855 0.0
H420 H 0.96303 0.44091 0.85216 0.0
H421 H 0.99302 0.45143 0.86641 0.0
H422 H 0.96166 0.42312 0.8735 0.0
H423 H 0.97452 0.54513 0.88862 0.0
H424 H 0.00493 0.54523 0.88197 0.0
H425 H 0.97885 0.53694 0.8643 0.0
H426 H 0.84184 0.42928 0.79418 0.0
H427 H 0.86916 0.41313 0.77908 0.0
H428 H 0.89282 0.49042 0.75772 0.0
H429 H 0.92521 0.42467 0.80124 0.0
H430 H 0.90114 0.39934 0.78502 0.0
H431 H 0.93571 0.42039 0.77798 0.0
H432 H 0.93836 0.5241 0.75557 0.0
H433 H 0.95887 0.52275 0.77489 0.0
H434 H 0.96133 0.51195 0.75121 0.0
H435 H 0.1078 0.4929 0.7362 0.0
H436 H 0.13332 0.47391 0.72089 0.0
H437 H 0.10153 0.448 0.72941 0.0
H438 H 0.10566 0.4549 0.70411 0.0
H439 H 0.03223 0.43249 0.73654 0.0
H440 H 0.07721 0.51656 0.72849 0.0
H441 H 0.99683 0.43421 0.7779 0.0
H442 H 0.97637 0.42685 0.75655 0.0
H443 H 0.998 0.41288 0.75937 0.0
H444 H 0.06031 0.54449 0.73914 0.0
H445 H 0.0279 0.53018 0.75052 0.0
H446 H 0.05773 0.53887 0.76454 0.0
H447 H 0.02985 0.51468 0.87732 0.0
H448 H 0.9458 0.4839 0.84363 0.0
H449 H 0.93115 0.47465 0.81071 0.0
H450 H 0.97176 0.46996 0.75175 0.0
H451 H 0.05687 0.50281 0.78559 0.0
H452 H 0.07255 0.51738 0.8179 0.0
H453 H 0.80316 0.43669 0.79718 0.0
H454 H 0.83399 0.46707 0.79247 0.0
H455 H 0.80917 0.45073 0.77347 0.0
C456 C 0.47995 0.87997 0.88589 0.0
C457 C 0.46674 0.86484 0.90413 0.0
C458 C 0.48726 0.89867 0.92945 0.0
C459 C 0.46512 0.90037 0.93605 0.0
C460 C 0.4689 0.92344 0.94555 0.0
C461 C 0.49535 0.94523 0.94836 0.0
C462 C 0.51773 0.94322 0.94217 0.0
C463 C 0.51336 0.91969 0.93308 0.0
C464 C 0.44463 0.9247 0.95235 0.0
C465 C 0.54621 0.96616 0.94467 0.0
C466 C 0.45329 0.03788 0.8591 0.0
C467 C 0.48012 0.05305 0.87023 0.0
C468 C 0.48296 0.05034 0.90476 0.0
C469 C 0.5085 0.05272 0.90637 0.0
C470 C 0.51506 0.0419 0.92199 0.0
C471 C 0.49555 0.02828 0.93614 0.0
C472 C 0.47036 0.02728 0.93511 0.0
C473 C 0.46457 0.03877 0.91951 0.0
C474 C 0.54238 0.044 0.92291 0.0
C475 C 0.44904 0.01282 0.94988 0.0
C476 C 0.55137 0.12413 0.04481 0.0
C477 C 0.57109 0.12109 0.03519 0.0
C478 C 0.56652 0.09573 0.03007 0.0
C479 C 0.54157 0.07303 0.03443 0.0
C480 C 0.52217 0.07603 0.04487 0.0
C481 C 0.52753 0.10162 0.05016 0.0
C482 C 0.5881 0.09322 0.01961 0.0
C483 C 0.49546 0.05228 0.0499 0.0
C484 C 0.53594 0.88481 0.07266 0.0
C485 C 0.52237 0.9013 0.07654 0.0
C486 C 0.53959 0.94773 0.06869 0.0
C487 C 0.56275 0.96925 0.0614 0.0
C488 C 0.56111 0.98866 0.05062 0.0
C489 C 0.53571 0.98668 0.04753 0.0
C490 C 0.51254 0.96611 0.05623 0.0
C491 C 0.51469 0.94672 0.06662 0.0
C492 C 0.58626 0.01054 0.04176 0.0
C493 C 0.48531 0.964 0.05386 0.0
C494 C 0.49949 0.97074 0.9565 0.0
C495 C 0.49572 0.98737 0.94417 0.0
C496 C 0.50014 0.01217 0.9504 0.0
C497 C 0.50879 0.0209 0.96952 0.0
C498 C 0.51396 0.04595 0.97618 0.0
C499 C 0.52243 0.05429 0.99506 0.0
C500 C 0.52627 0.03797 0.00797 0.0
C501 C 0.5352 0.04637 0.02714 0.0
C502 C 0.53823 0.0294 0.03969 0.0
C503 C 0.5328 0.00418 0.03354 0.0
C504 C 0.52442 0.99566 0.01432 0.0
C505 C 0.51933 0.97061 0.00758 0.0
C506 C 0.51099 0.96232 0.9887 0.0
C507 C 0.50759 0.97882 0.97578 0.0
C508 C 0.51243 0.00408 0.98228 0.0
C509 C 0.52104 0.01258 0.00154 0.0
C510 C 0.5503 0.18357 0.03555 0.0
C511 C 0.5677 0.17056 0.0375 0.0
O512 O 0.48411 0.87693 0.91973 0.0
O513 O 0.54184 0.92803 0.07724 0.0
O514 O 0.55458 0.14844 0.04893 0.0
O515 O 0.47521 0.05806 0.88881 0.0
H516 H 0.44762 0.86507 0.90611 0.0
H517 H 0.48415 0.90077 0.88727 0.0
H518 H 0.49927 0.88035 0.88341 0.0
H519 H 0.46627 0.87046 0.87325 0.0
H520 H 0.44491 0.88365 0.93395 0.0
H521 H 0.53029 0.91795 0.92814 0.0
H522 H 0.44193 0.93898 0.94351 0.0
H523 H 0.42583 0.90505 0.95128 0.0
H524 H 0.44781 0.932 0.96748 0.0
H525 H 0.56122 0.962 0.9379 0.0
H526 H 0.54789 0.98432 0.93827 0.0
H527 H 0.55134 0.97042 0.96018 0.0
H528 H 0.48897 0.03978 0.8702 0.0
H529 H 0.45678 0.03386 0.84408 0.0
H530 H 0.44016 0.01855 0.866 0.0
H531 H 0.44255 0.04935 0.85892 0.0
H532 H 0.52305 0.0625 0.8952 0.0
H533 H 0.44504 0.03741 0.91819 0.0
H534 H 0.54013 0.02433 0.91929 0.0
H535 H 0.55667 0.05877 0.91272 0.0
H536 H 0.55113 0.04967 0.93767 0.0
H537 H 0.43046 0.0138 0.94697 0.0
H538 H 0.44363 0.99161 0.95011 0.0
H539 H 0.45705 0.02153 0.96436 0.0
H540 H 0.56983 0.1645 0.02268 0.0
H541 H 0.58999 0.13851 0.03161 0.0
H542 H 0.51264 0.10422 0.05785 0.0
H543 H 0.58147 0.08696 0.00449 0.0
H544 H 0.6076 0.11226 0.01966 0.0
H545 H 0.59131 0.07773 0.02627 0.0
H546 H 0.48212 0.05806 0.05743 0.0
H547 H 0.4849 0.0408 0.03665 0.0
H548 H 0.49893 0.03893 0.05927 0.0
H549 H 0.5082 0.89706 0.06416 0.0
H550 H 0.52071 0.86326 0.07238 0.0
H551 H 0.54579 0.88998 0.05848 0.0
H552 H 0.55161 0.88879 0.08379 0.0
H553 H 0.58195 0.97009 0.06339 0.0
H554 H 0.49684 0.93063 0.07287 0.0
H555 H 0.58391 0.00913 0.02587 0.0
H556 H 0.58924 0.03019 0.04637 0.0
H557 H 0.60456 0.00958 0.04579 0.0
H558 H 0.47025 0.94942 0.06378 0.0
H559 H 0.48704 0.98368 0.05645 0.0
H560 H 0.47776 0.9576 0.03891 0.0
H561 H 0.48939 0.98096 0.92939 0.0
H562 H 0.51149 0.05938 0.96685 0.0
H563 H 0.52595 0.07373 -0.00061 0.0
H564 H 0.54484 0.03586 0.0544 0.0
H565 H 0.52178 0.95708 0.01679 0.0
H566 H 0.50728 0.94282 0.98433 0.0
H567 H 0.56044 0.2014 0.02643 0.0
H568 H 0.53059 0.1693 0.02867 0.0
H569 H 0.54647 0.18957 0.04983 0.0
C570 C 0.55733 0.41205 0.08004 0.0
C571 C 0.57667 0.41888 0.09735 0.0
C572 C 0.57241 0.45519 0.11265 0.0
C573 C 0.54576 0.43972 0.11886 0.0
C574 C 0.53188 0.45188 0.12643 0.0
C575 C 0.54513 0.47993 0.12814 0.0
C576 C 0.57244 0.49538 0.12292 0.0
C577 C 0.58568 0.48276 0.11519 0.0
C578 C 0.50282 0.43486 0.13205 0.0
C579 C 0.58738 0.5253 0.12487 0.0
C580 C 0.47937 0.58443 0.03402 0.0
C581 C 0.49445 0.57978 0.04929 0.0
C582 C 0.48598 0.54662 0.07366 0.0
C583 C 0.50976 0.56267 0.08437 0.0
C584 C 0.51615 0.55281 0.10065 0.0
C585 C 0.49834 0.52643 0.10633 0.0
C586 C 0.47421 0.51037 0.09574 0.0
C587 C 0.46835 0.52074 0.07951 0.0
C588 C 0.54211 0.57045 0.11164 0.0
C589 C 0.45481 0.48223 0.10147 0.0
C590 C 0.44406 0.57377 0.21052 0.0
C591 C 0.47144 0.5892 0.20611 0.0
C592 C 0.48731 0.57731 0.20341 0.0
C593 C 0.47538 0.54942 0.20498 0.0
C594 C 0.44808 0.53403 0.21034 0.0
C595 C 0.43284 0.54653 0.21329 0.0
C596 C 0.51661 0.59445 0.19842 0.0
C597 C 0.43481 0.5043 0.21235 0.0
C598 C 0.59662 0.4737 0.25051 0.0
C599 C 0.57636 0.47059 0.26587 0.0
C600 C 0.5593 0.49886 0.2543 0.0
C601 C 0.57091 0.52454 0.24716 0.0
C602 C 0.5573 0.53104 0.23334 0.0
C603 C 0.5312 0.51143 0.22692 0.0
C604 C 0.51866 0.48588 0.23503 0.0
C605 C 0.5329 0.47981 0.24862 0.0
C606 C 0.57114 0.55857 0.22512 0.0
C607 C 0.49048 0.46483 0.22894 0.0
C608 C 0.52987 0.49328 0.13368 0.0
C609 C 0.51956 0.50178 0.11889 0.0
C610 C 0.50578 0.51537 0.12279 0.0
C611 C 0.50114 0.5198 0.14197 0.0
C612 C 0.48615 0.53223 0.14636 0.0
C613 C 0.48231 0.53712 0.16531 0.0
C614 C 0.49383 0.53033 0.18059 0.0
C615 C 0.49093 0.53616 0.19989 0.0
C616 C 0.50305 0.52955 0.21469 0.0
C617 C 0.51794 0.51704 0.21073 0.0
C618 C 0.52069 0.51064 0.19156 0.0
C619 C 0.53531 0.49779 0.18711 0.0
C620 C 0.53807 0.49175 0.16819 0.0
C621 C 0.52667 0.49871 0.15299 0.0
C622 C 0.51203 0.51183 0.15713 0.0
C623 C 0.50875 0.5175 0.17645 0.0
C624 C 0.40022 0.58805 0.18806 0.0
C625 C 0.42715 0.60212 0.19913 0.0
O626 O 0.58609 0.44474 0.10381 0.0
O627 O 0.57402 0.49319 0.26671 0.0
O628 O 0.42802 0.58464 0.2121 0.0
O629 O 0.47934 0.55518 0.0576 0.0
H630 H 0.56609 0.40485 0.10913 0.0
H631 H 0.5388 0.41225 0.08418 0.0
H632 H 0.56712 0.42662 0.06844 0.0
H633 H 0.55114 0.39182 0.07434 0.0
H634 H 0.53552 0.41828 0.11752 0.0
H635 H 0.60637 0.49447 0.11061 0.0
H636 H 0.48989 0.43995 0.12317 0.0
H637 H 0.49551 0.41329 0.13018 0.0
H638 H 0.50046 0.439 0.14727 0.0
H639 H 0.60938 0.53411 0.12263 0.0
H640 H 0.57929 0.5335 0.11406 0.0
H641 H 0.58425 0.5315 0.13929 0.0
H642 H 0.51549 0.58505 0.04583 0.0
H643 H 0.49096 0.58681 0.02047 0.0
H644 H 0.46188 0.56436 0.02951 0.0
H645 H 0.47402 0.61738 0.04599 0.0
H646 H 0.5235 0.58281 0.08004 0.0
H647 H 0.45001 0.50857 0.07117 0.0
H648 H 0.53755 0.57326 0.12664 0.0
H649 H 0.55461 0.56079 0.11221 0.0
H650 H 0.55409 0.59028 0.1051 0.0
H651 H 0.43608 0.47289 0.09246 0.0
H652 H 0.46472 0.47006 0.10013 0.0
H653 H 0.44932 0.48193 0.11674 0.0
H654 H 0.44327 0.60816 0.1883 0.0
H655 H 0.48036 0.6105 0.20472 0.0
H656 H 0.41177 0.53493 0.21703 0.0
H657 H 0.51949 0.59045 0.18327 0.0
H658 H 0.52367 0.61599 0.20017 0.0
H659 H 0.5294 0.58951 0.20759 0.0
H660 H 0.41323 0.49511 0.2162 0.0
H661 H 0.43622 0.49514 0.19865 0.0
H662 H 0.44558 0.49962 0.2236 0.0
H663 H 0.55664 0.4528 0.26202 0.0
H664 H 0.59899 0.45587 0.24994 0.0
H665 H 0.58929 0.47587 0.2362 0.0
H666 H 0.61661 0.49159 0.2536 0.0
H667 H 0.59112 0.53922 0.25195 0.0
H668 H 0.52328 0.46027 0.25482 0.0
H669 H 0.57343 0.55725 0.20941 0.0
H670 H 0.55853 0.5679 0.22734 0.0
H671 H 0.59138 0.57163 0.23178 0.0
H672 H 0.48257 0.44687 0.23793 0.0
H673 H 0.47661 0.47294 0.22981 0.0
H674 H 0.49051 0.45883 0.21376 0.0
H675 H 0.52294 0.49838 0.10408 0.0
H676 H 0.47715 0.53821 0.13517 0.0
H677 H 0.47046 0.54662 0.1678 0.0
H678 H 0.50103 0.53436 0.22944 0.0
H679 H 0.54479 0.4922 0.1982 0.0
H680 H 0.54948 0.48182 0.16561 0.0
H681 H 0.38305 0.58108 0.19802 0.0
H682 H 0.39907 0.6017 0.17756 0.0
H683 H 0.39835 0.57055 0.18006 0.0
Zn684 Zn 0.67585 0.4562 0.42694 0.0
Zn685 Zn 0.64528 0.40239 0.42099 0.0
O686 O 0.6844 0.41058 0.42096 0.0
O687 O 0.71004 0.45389 0.42487 0.0
O688 O 0.6248 0.36244 0.41902 0.0
O689 O 0.65713 0.45221 0.45245 0.0
O690 O 0.63119 0.40953 0.44575 0.0
C691 C 0.70769 0.43123 0.42222 0.0
C692 C 0.64172 0.43899 0.392 0.0
O693 O 0.63481 0.41554 0.39726 0.0
O694 O 0.65816 0.45897 0.40218 0.0
C695 C 0.63124 0.34993 0.4071 0.0
O696 O 0.65036 0.36345 0.39479 0.0
C697 C 0.63761 0.42961 0.45667 0.0
Zn698 Zn 0.20339 0.6578 0.59098 0.0
Zn699 Zn 0.23181 0.63198 0.58511 0.0
O700 O 0.2603 0.6712 0.58695 0.0
O701 O 0.23902 0.69312 0.59289 0.0
O702 O 0.25477 0.61483 0.58342 0.0
O703 O 0.18621 0.63507 0.61432 0.0
O704 O 0.21036 0.61574 0.60935 0.0
C705 C 0.2608 0.69305 0.59004 0.0
C706 C 0.19212 0.62841 0.55433 0.0
O707 O 0.20921 0.62205 0.56027 0.0
O708 O 0.18655 0.6431 0.56462 0.0
C709 C 0.27469 0.62342 0.57223 0.0
O710 O 0.27893 0.64242 0.56031 0.0
C711 C 0.19315 0.61836 0.61911 0.0
Zn712 Zn 0.55863 0.20617 0.73721 0.0
Zn713 Zn 0.61148 0.22824 0.74575 0.0
O714 O 0.60448 0.25919 0.74071 0.0
O715 O 0.56151 0.24155 0.73296 0.0
O716 O 0.6513 0.24907 0.7519 0.0
O717 O 0.55086 0.19123 0.76379 0.0
O718 O 0.59407 0.20656 0.76998 0.0
C719 C 0.5845 0.26186 0.73583 0.0
C720 C 0.58731 0.18907 0.71194 0.0
O721 O 0.60779 0.20491 0.72224 0.0
O722 O 0.56434 0.18618 0.71547 0.0
C723 C 0.66629 0.26499 0.7392 0.0
O724 O 0.65545 0.26501 0.72249 0.0
C725 C 0.56949 0.19355 0.775 0.0
Zn726 Zn 0.37329 0.57018 0.91518 0.0
Zn727 Zn 0.40255 0.62319 0.90902 0.0
O728 O 0.36307 0.61422 0.90896 0.0
O729 O 0.33866 0.57123 0.9137 0.0
O730 O 0.42178 0.66272 0.9053 0.0
O731 O 0.3924 0.57665 0.94079 0.0
O732 O 0.41741 0.61939 0.93503 0.0
C733 C 0.34018 0.59339 0.91083 0.0
C734 C 0.405 0.58436 0.88046 0.0
O735 O 0.41211 0.60811 0.8856 0.0
O736 O 0.38923 0.56507 0.89077 0.0
C737 C 0.41257 0.67201 0.89281 0.0
O738 O 0.39206 0.65544 0.8818 0.0
C739 C 0.41083 0.59972 0.94594 0.0
Zn740 Zn 0.80142 0.4368 0.06216 0.0
Zn741 Zn 0.777 0.38375 0.0662 0.0
O742 O 0.7468 0.39286 0.06855 0.0
O743 O 0.76621 0.43614 0.06522 0.0
O744 O 0.75538 0.3438 0.06668 0.0
O745 O 0.81315 0.43348 0.03572 0.0
O746 O 0.79505 0.39041 0.03984 0.0
C747 C 0.74525 0.41393 0.06792 0.0
C748 C 0.82043 0.41962 0.09515 0.0
O749 O 0.80288 0.39614 0.08962 0.0
O750 O 0.82368 0.43948 0.08568 0.0
C751 C 0.73725 0.33207 0.07909 0.0
O752 O 0.73499 0.3462 0.09303 0.0
C753 C 0.808 0.41084 0.02954 0.0
Zn754 Zn 0.37497 0.8231 0.22514 0.0
Zn755 Zn 0.40448 0.79876 0.23193 0.0
O756 O 0.36514 0.76894 0.23029 0.0
O757 O 0.3402 0.78723 0.22492 0.0
O758 O 0.42342 0.77762 0.23405 0.0
O759 O 0.39553 0.83784 0.20047 0.0
O760 O 0.42046 0.81998 0.2076 0.0
C761 C 0.34207 0.76672 0.22774 0.0
C762 C 0.40586 0.83766 0.26174 0.0
O763 O 0.41316 0.82119 0.25648 0.0
O764 O 0.39061 0.84208 0.25093 0.0
C765 C 0.41461 0.75786 0.24511 0.0
O766 O 0.39493 0.75331 0.25676 0.0
C767 C 0.41486 0.83395 0.1966 0.0
H768 H 0.17745 0.63653 0.23561 0.0
H769 H 0.33892 0.71938 0.23611 0.0
H770 H 0.22766 0.60547 0.2553 0.0
H771 H 0.28915 0.75381 0.22323 0.0
H772 H 0.29829 0.67663 0.24089 0.0
H773 H 0.21802 0.67885 0.22897 0.0
C774 C 0.19705 0.63875 0.23871 0.0
C775 C 0.19923 0.6177 0.24648 0.0
C776 C 0.29623 0.6935 0.23695 0.0
C777 C 0.24573 0.66584 0.23851 0.0
C778 C 0.31945 0.71795 0.23415 0.0
C779 C 0.31749 0.74031 0.22931 0.0
C780 C 0.27078 0.69129 0.23486 0.0
C781 C 0.29165 0.73716 0.22699 0.0
C782 C 0.22019 0.66285 0.23484 0.0
C783 C 0.22511 0.62138 0.24969 0.0
N784 N 0.26932 0.71313 0.22983 0.0
N785 N 0.24734 0.64499 0.24575 0.0
H786 H 0.61755 0.19516 0.40813 0.0
H787 H 0.59327 0.31641 0.43219 0.0
H788 H 0.57492 0.19918 0.4575 0.0
H789 H 0.64438 0.3175 0.3867 0.0
H790 H 0.58014 0.27027 0.43826 0.0
H791 H 0.62167 0.23684 0.3969 0.0
C792 C 0.60872 0.20465 0.41643 0.0
C793 C 0.59587 0.19375 0.43375 0.0
C794 C 0.59404 0.28051 0.42683 0.0
C795 C 0.60066 0.24142 0.42114 0.0
C796 C 0.60151 0.30687 0.42331 0.0
C797 C 0.62025 0.321 0.40907 0.0
C798 C 0.60542 0.26814 0.41607 0.0
C799 C 0.63006 0.30748 0.39794 0.0
C800 C 0.61113 0.22843 0.41007 0.0
C801 C 0.58494 0.20689 0.44406 0.0
N802 N 0.62274 0.28188 0.4018 0.0
N803 N 0.5877 0.23008 0.43765 0.0
H804 H 0.37759 0.57433 0.62634 0.0
H805 H 0.32166 0.64028 0.55269 0.0
H806 H 0.42374 0.62272 0.57932 0.0
H807 H 0.27437 0.58782 0.59778 0.0
H808 H 0.35771 0.63074 0.56014 0.0
H809 H 0.33821 0.57582 0.61423 0.0
C810 C 0.3793 0.58499 0.61331 0.0
C811 C 0.40392 0.59837 0.60379 0.0
C812 C 0.33933 0.6211 0.56827 0.0
C813 C 0.35904 0.60055 0.58996 0.0
C814 C 0.31869 0.62649 0.564 0.0
C815 C 0.29504 0.61506 0.57476 0.0
C816 C 0.33637 0.60425 0.58348 0.0
C817 C 0.29232 0.59727 0.58919 0.0
C818 C 0.35683 0.58588 0.6064 0.0
C819 C 0.40509 0.61207 0.58704 0.0
N820 N 0.31283 0.59263 0.59325 0.0
N821 N 0.38302 0.61299 0.58074 0.0
H822 H 0.81074 0.41773 0.74403 0.0
H823 H 0.69435 0.27322 0.77317 0.0
H824 H 0.8063 0.38443 0.79973 0.0
H825 H 0.70181 0.30503 0.71646 0.0
H826 H 0.73794 0.31173 0.78219 0.0
H827 H 0.77345 0.37486 0.7327 0.0
C828 C 0.80221 0.40121 0.75375 0.0
C829 C 0.8118 0.40449 0.77277 0.0
C830 C 0.73017 0.31014 0.76771 0.0
C831 C 0.7687 0.35554 0.76009 0.0
C832 C 0.70529 0.28811 0.76253 0.0
C833 C 0.69423 0.28603 0.74409 0.0
C834 C 0.74403 0.33031 0.75439 0.0
C835 C 0.70941 0.30589 0.73089 0.0
C836 C 0.78086 0.37676 0.74733 0.0
C837 C 0.79966 0.38261 0.7849 0.0
N838 N 0.73336 0.32732 0.73636 0.0
N839 N 0.77863 0.35912 0.7784 0.0
H840 H 0.4986 0.8427 0.91267 0.0
H841 H 0.39061 0.69736 0.8733 0.0
H842 H 0.42032 0.82246 0.88955 0.0
H843 H 0.45705 0.71239 0.91125 0.0
H844 H 0.40488 0.74459 0.87496 0.0
H845 H 0.48696 0.79626 0.90843 0.0
C846 C 0.47886 0.82842 0.90688 0.0
C847 C 0.46004 0.83624 0.90199 0.0
C848 C 0.4164 0.73756 0.88285 0.0
C849 C 0.44696 0.78334 0.89656 0.0
C850 C 0.40837 0.71062 0.88183 0.0
C851 C 0.42258 0.70088 0.89225 0.0
C852 C 0.43894 0.75495 0.89423 0.0
C853 C 0.44542 0.71902 0.90308 0.0
C854 C 0.47229 0.80197 0.90439 0.0
C855 C 0.43513 0.81709 0.89391 0.0
N856 N 0.45286 0.7452 0.90382 0.0
N857 N 0.42928 0.79152 0.89149 0.0
H858 H 0.61912 0.45311 0.07542 0.0
H859 H 0.69773 0.37189 0.08021 0.0
H860 H 0.58841 0.37922 0.10531 0.0
H861 H 0.73329 0.45326 0.06214 0.0
H862 H 0.65539 0.37144 0.08609 0.0
H863 H 0.65888 0.4505 0.06681 0.0
C864 C 0.62083 0.43633 0.08018 0.0
C865 C 0.60076 0.41663 0.09143 0.0
C866 C 0.67248 0.38933 0.08079 0.0
C867 C 0.64612 0.41335 0.08147 0.0
C868 C 0.6966 0.38959 0.07738 0.0
C869 C 0.71913 0.41271 0.07077 0.0
C870 C 0.67086 0.41225 0.07738 0.0
C871 C 0.71653 0.43505 0.06735 0.0
C872 C 0.6435 0.43484 0.07527 0.0
C873 C 0.60367 0.39502 0.09689 0.0
N874 N 0.69286 0.43426 0.07071 0.0
N875 N 0.62606 0.39401 0.09194 0.0
H876 H 0.38638 0.8588 0.58559 0.0
H877 H 0.31047 0.69975 0.58217 0.0
H878 H 0.42241 0.81365 0.56508 0.0
H879 H 0.27044 0.74404 0.59548 0.0
H880 H 0.35256 0.74146 0.57837 0.0
H881 H 0.34459 0.81717 0.59153 0.0
C882 C 0.38538 0.8401 0.58218 0.0
C883 C 0.40765 0.83964 0.57436 0.0
C884 C 0.33461 0.7421 0.58219 0.0
C885 C 0.36016 0.79198 0.58153 0.0
C886 C 0.31053 0.71825 0.58443 0.0
C887 C 0.28679 0.71835 0.5891 0.0
C888 C 0.33509 0.76633 0.58466 0.0
C889 C 0.28821 0.74299 0.59183 0.0
C890 C 0.36158 0.81637 0.58564 0.0
C891 C 0.40553 0.81487 0.57074 0.0
N892 N 0.31194 0.766 0.58952 0.0
N893 N 0.3822 0.79206 0.57429 0.0
H894 H 0.55721 0.3946 0.73697 0.0
H895 H 0.63148 0.30967 0.73259 0.0
H896 H 0.63601 0.42558 0.71254 0.0
H897 H 0.54502 0.27497 0.73508 0.0
H898 H 0.6359 0.35375 0.72975 0.0
H899 H 0.55503 0.352 0.74143 0.0
C900 C 0.574 0.39235 0.73244 0.0
C901 C 0.59648 0.41336 0.7238 0.0
C902 C 0.61601 0.33642 0.7309 0.0
C903 C 0.59436 0.36484 0.72928 0.0
C904 C 0.61347 0.31132 0.73257 0.0
C905 C 0.58783 0.28862 0.734 0.0
C906 C 0.59279 0.33877 0.73101 0.0
C907 C 0.56516 0.29188 0.73388 0.0
C908 C 0.57276 0.36806 0.73501 0.0
C909 C 0.61807 0.40965 0.71883 0.0
N910 N 0.5682 0.31648 0.7325 0.0
N911 N 0.61646 0.38576 0.72157 0.0
H912 H 0.17432 0.55646 0.90828 0.0
H913 H 0.33475 0.63498 0.89816 0.0
H914 H 0.21708 0.62716 0.87477 0.0
H915 H 0.28879 0.55505 0.91918 0.0
H916 H 0.29272 0.6357 0.89345 0.0
H917 H 0.21715 0.55909 0.91648 0.0
C918 C 0.19279 0.57251 0.90262 0.0
C919 C 0.19215 0.59124 0.89042 0.0
C920 C 0.29191 0.61808 0.89916 0.0
C921 C 0.24125 0.59461 0.89996 0.0
C922 C 0.31586 0.61766 0.90192 0.0
C923 C 0.31525 0.59484 0.90896 0.0
C924 C 0.26723 0.59561 0.90365 0.0
C925 C 0.29021 0.57299 0.91358 0.0
C926 C 0.2172 0.57402 0.90731 0.0
C927 C 0.2167 0.61204 0.8839 0.0
N928 N 0.26722 0.57391 0.91082 0.0
N929 N 0.2403 0.61309 0.88866 0.0
H930 H 0.58096 0.1901 0.07471 0.0
H931 H 0.73244 0.29871 0.04928 0.0
H932 H 0.61641 0.19589 0.01944 0.0
H933 H 0.6929 0.30176 0.10086 0.0
H934 H 0.69313 0.25569 0.04095 0.0
H935 H 0.62461 0.22583 0.08704 0.0
C936 C 0.59807 0.19866 0.06528 0.0
C937 C 0.59512 0.19014 0.04603 0.0
C938 C 0.69318 0.26563 0.0542 0.0
C939 C 0.64495 0.231 0.05993 0.0
C940 C 0.71568 0.29017 0.05902 0.0
C941 C 0.71583 0.30409 0.07566 0.0
C942 C 0.67063 0.25488 0.06609 0.0
C943 C 0.69358 0.29189 0.08778 0.0
C944 C 0.62292 0.21906 0.07228 0.0
C945 C 0.61785 0.20192 0.03436 0.0
N946 N 0.67175 0.26812 0.08265 0.0
N947 N 0.64176 0.22184 0.04146 0.0
H948 H 0.40318 0.60525 0.23245 0.0
H949 H 0.45258 0.75946 0.22071 0.0
H950 H 0.45759 0.65427 0.18882 0.0
H951 H 0.39474 0.70977 0.26256 0.0
H952 H 0.46008 0.72286 0.21224 0.0
H953 H 0.40486 0.64474 0.24678 0.0
C954 C 0.41583 0.62443 0.2261 0.0
C955 C 0.43041 0.62657 0.20951 0.0
C956 C 0.44597 0.72004 0.22343 0.0
C957 C 0.43213 0.67173 0.22559 0.0
C958 C 0.44173 0.74098 0.22833 0.0
C959 C 0.42271 0.73758 0.24219 0.0
C960 C 0.43102 0.69545 0.2324 0.0
C961 C 0.40941 0.71323 0.25166 0.0
C962 C 0.41673 0.64694 0.23422 0.0
C963 C 0.44619 0.6518 0.20167 0.0
N964 N 0.41358 0.69299 0.24643 0.0
N965 N 0.44651 0.67336 0.20971 0.0
H966 H 0.83925 0.44403 0.35864 0.0
H967 H 0.71257 0.38685 0.42434 0.0
H968 H 0.81947 0.37782 0.39546 0.0
H969 H 0.7572 0.47005 0.41052 0.0
H970 H 0.7502 0.38195 0.41303 0.0
H971 H 0.8081 0.45321 0.37641 0.0
C972 C 0.82842 0.43149 0.37051 0.0
C973 C 0.83149 0.40977 0.3753 0.0
C974 C 0.7519 0.40136 0.41278 0.0
C975 C 0.79571 0.42002 0.39556 0.0
C976 C 0.73045 0.40417 0.4192 0.0
C977 C 0.73173 0.42888 0.41829 0.0
C978 C 0.77449 0.42326 0.40499 0.0
C979 C 0.75538 0.45065 0.4115 0.0
C980 C 0.81075 0.4368 0.38068 0.0
C981 C 0.81722 0.39437 0.391 0.0
N982 N 0.77565 0.44723 0.40479 0.0
N983 N 0.79957 0.3995 0.40037 0.0
H984 H 0.1601 0.58018 0.43444 0.0
H985 H 0.1525 0.63559 0.5384 0.0
H986 H 0.11581 0.62041 0.44673 0.0
H987 H 0.20305 0.60191 0.52606 0.0
H988 H 0.13466 0.62505 0.50565 0.0
H989 H 0.17208 0.58314 0.46862 0.0
C990 C 0.15257 0.58925 0.44441 0.0
C991 C 0.13664 0.59972 0.43783 0.0
C992 C 0.14955 0.61982 0.5101 0.0
C993 C 0.15054 0.60357 0.47679 0.0
C994 C 0.15977 0.62583 0.52884 0.0
C995 C 0.17955 0.61989 0.53497 0.0
C996 C 0.1592 0.60785 0.49727 0.0
C997 C 0.18794 0.607 0.52194 0.0
C998 C 0.15947 0.59102 0.46386 0.0
C999 C 0.12779 0.61173 0.45124 0.0
N1000 N 0.17787 0.60159 0.50364 0.0
N1001 N 0.1349 0.61336 0.47006 0.0
H1002 H 0.65263 0.11993 0.61967 0.0
H1003 H 0.54725 0.1527 0.68825 0.0
H1004 H 0.54916 0.0759 0.61242 0.0
H1005 H 0.63307 0.18977 0.69919 0.0
H1006 H 0.55113 0.12665 0.66227 0.0
H1007 H 0.64736 0.14707 0.653 0.0
C1008 C 0.63309 0.11514 0.62505 0.0
C1009 C 0.60145 0.0977 0.61024 0.0
C1010 C 0.56913 0.14044 0.67035 0.0
C1011 C 0.59707 0.128 0.65037 0.0
C1012 C 0.56696 0.15541 0.6852 0.0
C1013 C 0.58988 0.17352 0.69596 0.0
C1014 C 0.59439 0.14352 0.66614 0.0
C1015 C 0.61487 0.17606 0.69127 0.0
C1016 C 0.62972 0.133 0.64475 0.0
C1017 C 0.5679 0.08773 0.62035 0.0
N1018 N 0.61649 0.1612 0.67664 0.0
N1019 N 0.56979 0.10618 0.63866 0.0
H1020 H 0.39639 0.49339 0.77021 0.0
H1021 H 0.43672 0.61994 0.85318 0.0
H1022 H 0.46281 0.59268 0.75855 0.0
H1023 H 0.39151 0.53595 0.86475 0.0
H1024 H 0.44535 0.60922 0.82078 0.0
H1025 H 0.39172 0.51004 0.80842 0.0
C1026 C 0.40583 0.51419 0.77432 0.0
C1027 C 0.43369 0.54093 0.76074 0.0
C1028 C 0.43378 0.59326 0.83054 0.0
C1029 C 0.42495 0.55886 0.80502 0.0
C1030 C 0.42887 0.59931 0.84902 0.0
C1031 C 0.41317 0.5788 0.86168 0.0
C1032 C 0.42273 0.56657 0.82477 0.0
C1033 C 0.40355 0.55244 0.8555 0.0
C1034 C 0.40463 0.52453 0.79816 0.0
C1035 C 0.44787 0.57678 0.76708 0.0
N1036 N 0.40827 0.5471 0.83743 0.0
N1037 N 0.44361 0.58157 0.78957 0.0
H1038 H 0.87539 0.45204 0.90796 0.0
H1039 H 0.81476 0.37052 0.01488 0.0
H1040 H 0.88788 0.37552 0.93269 0.0
H1041 H 0.82172 0.44566 0.00028 0.0
H1042 H 0.83227 0.36872 0.9832 0.0
H1043 H 0.84368 0.44411 0.94178 0.0
C1044 C 0.87031 0.43564 0.91743 0.0
C1045 C 0.88906 0.41718 0.91805 0.0
C1046 C 0.82975 0.38546 0.98698 0.0
C1047 C 0.84898 0.40716 0.95571 0.0
C1048 C 0.81975 0.38649 0.00498 0.0
C1049 C 0.81708 0.40842 0.01027 0.0
C1050 C 0.83662 0.40627 0.97421 0.0
C1051 C 0.82379 0.42856 0.99689 0.0
C1052 C 0.85212 0.43148 0.93882 0.0
C1053 C 0.8782 0.38741 0.93305 0.0
N1054 N 0.83326 0.42699 0.97946 0.0
N1055 N 0.86095 0.38727 0.95153 0.0
H1056 H 0.54213 0.90525 0.11347 0.0
H1057 H 0.40083 0.85156 0.16463 0.0
H1058 H 0.46784 0.87956 0.08167 0.0
H1059 H 0.46534 0.84257 0.18901 0.0
H1060 H 0.42739 0.86957 0.13566 0.0
H1061 H 0.51633 0.89 0.14307 0.0
C1062 C 0.5204 0.89643 0.11275 0.0
C1063 C 0.50703 0.89335 0.0951 0.0
C1064 C 0.43568 0.86367 0.14739 0.0
C1065 C 0.47759 0.87642 0.12881 0.0
C1066 C 0.42062 0.85351 0.16393 0.0
C1067 C 0.43086 0.84546 0.17921 0.0
C1068 C 0.46134 0.86627 0.14628 0.0
C1069 C 0.4566 0.84836 0.17751 0.0
C1070 C 0.50574 0.88775 0.12959 0.0
C1071 C 0.47889 0.88215 0.09498 0.0
N1072 N 0.47103 0.85865 0.16137 0.0
N1073 N 0.46509 0.87414 0.11159 0.0
H1074 H 0.61461 0.50787 0.29087 0.0
H1075 H 0.60521 0.40125 0.36668 0.0
H1076 H 0.56001 0.42351 0.2842 0.0
H1077 H 0.65398 0.48621 0.37563 0.0
H1078 H 0.58885 0.40882 0.33622 0.0
H1079 H 0.62995 0.50019 0.32176 0.0
C1080 C 0.60569 0.48776 0.29604 0.0
C1081 C 0.5856 0.46633 0.2852 0.0
C1082 C 0.60309 0.42579 0.34488 0.0
C1083 C 0.60337 0.4573 0.32032 0.0
C1084 C 0.61244 0.42149 0.36228 0.0
C1085 C 0.63104 0.44312 0.37374 0.0
C1086 C 0.61245 0.45192 0.33886 0.0
C1087 C 0.63968 0.46891 0.36729 0.0
C1088 C 0.61447 0.48336 0.31362 0.0
C1089 C 0.57519 0.44059 0.2923 0.0
N1090 N 0.63036 0.47257 0.35027 0.0
N1091 N 0.58416 0.43679 0.30943 0.0
H1092 H 0.44214 0.8633 0.38334 0.0
H1093 H 0.39502 0.87471 0.27718 0.0
H1094 H 0.39527 0.90052 0.36987 0.0
H1095 H 0.43302 0.82868 0.29075 0.0
H1096 H 0.40182 0.89054 0.31042 0.0
H1097 H 0.44542 0.85631 0.34894 0.0
C1098 C 0.43298 0.87042 0.3731 0.0
C1099 C 0.41871 0.88278 0.37942 0.0
C1100 C 0.40888 0.87715 0.30611 0.0
C1101 C 0.42197 0.87453 0.34015 0.0
C1102 C 0.40505 0.86812 0.28709 0.0
C1103 C 0.41313 0.85003 0.28119 0.0
C1104 C 0.42081 0.868 0.3194 0.0
C1105 C 0.42626 0.84244 0.29468 0.0
C1106 C 0.43476 0.86635 0.35351 0.0
C1107 C 0.40678 0.89123 0.3656 0.0
N1108 N 0.42945 0.85125 0.31321 0.0
N1109 N 0.4086 0.88686 0.34664 0.0
H1110 H 0.50425 0.38428 0.53288 0.0
H1111 H 0.65027 0.46404 0.48741 0.0
H1112 H 0.57477 0.43911 0.56622 0.0
H1113 H 0.58734 0.38864 0.4645 0.0
H1114 H 0.62161 0.45922 0.51472 0.0
H1115 H 0.53316 0.38994 0.50559 0.0
C1116 C 0.52582 0.39749 0.53442 0.0
C1117 C 0.53721 0.41099 0.55187 0.0
C1118 C 0.61419 0.44373 0.50371 0.0
C1119 C 0.57026 0.41786 0.52073 0.0
C1120 C 0.63049 0.44647 0.48814 0.0
C1121 C 0.62121 0.42668 0.47369 0.0
C1122 C 0.5883 0.42128 0.50464 0.0
C1123 C 0.59539 0.40431 0.47536 0.0
C1124 C 0.54228 0.40069 0.5189 0.0
C1125 C 0.56523 0.4282 0.55305 0.0
N1126 N 0.57977 0.40231 0.49048 0.0
N1127 N 0.58083 0.43119 0.53767 0.0
H1128 H 0.07797 0.49324 0.68921 0.0
H1129 H 0.2145 0.59581 0.6423 0.0
H1130 H 0.1536 0.524 0.72041 0.0
H1131 H 0.14266 0.60092 0.63299 0.0
H1132 H 0.19194 0.56469 0.6683 0.0
H1133 H 0.10059 0.52807 0.66556 0.0
C1134 C 0.09926 0.50737 0.69119 0.0
C1135 C 0.11395 0.50579 0.70691 0.0
C1136 C 0.18125 0.57282 0.66063 0.0
C1137 C 0.1399 0.54509 0.67961 0.0
C1138 C 0.19403 0.59045 0.64579 0.0
C1139 C 0.1804 0.60093 0.63555 0.0
C1140 C 0.15445 0.56509 0.66486 0.0
C1141 C 0.1539 0.59339 0.64065 0.0
C1142 C 0.1121 0.52723 0.67769 0.0
C1143 C 0.14158 0.52455 0.70852 0.0
N1144 N 0.14161 0.57559 0.65481 0.0
N1145 N 0.15376 0.54324 0.69492 0.0
H1146 H 0.52665 0.06613 0.85094 0.0
H1147 H 0.52714 0.18442 0.79713 0.0
H1148 H 0.47592 0.09803 0.86716 0.0
H1149 H 0.59408 0.17028 0.79422 0.0
H1150 H 0.50985 0.15479 0.82432 0.0
H1151 H 0.55345 0.10544 0.83161 0.0
C1152 C 0.52143 0.08163 0.85064 0.0
C1153 C 0.49891 0.07877 0.86048 0.0
C1154 C 0.52857 0.15845 0.81799 0.0
C1155 C 0.52918 0.12353 0.83826 0.0
C1156 C 0.5384 0.17533 0.80244 0.0
C1157 C 0.5619 0.17953 0.79335 0.0
C1158 C 0.54195 0.14514 0.8242 0.0
C1159 C 0.57586 0.16748 0.80086 0.0
C1160 C 0.53675 0.10407 0.83966 0.0
C1161 C 0.49301 0.09942 0.85965 0.0
N1162 N 0.56537 0.15035 0.81565 0.0
N1163 N 0.5078 0.12075 0.84849 0.0
H1164 H 0.4421 0.56902 0.06957 0.0
H1165 H 0.46066 0.63996 0.95824 0.0
H1166 H 0.53288 0.63797 0.04088 0.0
H1167 H 0.39066 0.56827 0.97695 0.0
H1168 H 0.48221 0.64416 0.98984 0.0
H1169 H 0.41762 0.57578 0.03532 0.0
C1170 C 0.45385 0.58406 0.05924 0.0
C1171 C 0.49114 0.59983 0.0577 0.0
C1172 C 0.46208 0.62766 0.98695 0.0
C1173 C 0.46055 0.60895 0.01946 0.0
C1174 C 0.44979 0.62526 0.96901 0.0
C1175 C 0.42399 0.60356 0.96494 0.0
C1176 C 0.44813 0.60853 0.00086 0.0
C1177 C 0.41073 0.5851 0.97939 0.0
C1178 C 0.43922 0.58737 0.03763 0.0
C1179 C 0.51107 0.62751 0.04112 0.0
N1180 N 0.42295 0.58803 0.99672 0.0
N1181 N 0.4933 0.62723 0.0226 0.0
H1182 H 0.88336 0.40708 0.21685 0.0
H1183 H 0.85913 0.46723 0.11023 0.0
H1184 H 0.90064 0.50159 0.20426 0.0
H1185 H 0.8167 0.38319 0.12186 0.0
H1186 H 0.88021 0.47609 0.14194 0.0
H1187 H 0.86138 0.39446 0.17792 0.0
C1188 C 0.88086 0.42117 0.20834 0.0
C1189 C 0.89865 0.45757 0.21402 0.0
C1190 C 0.86638 0.4557 0.13753 0.0
C1191 C 0.8701 0.44018 0.16981 0.0
C1192 C 0.85438 0.45056 0.11937 0.0
C1193 C 0.83574 0.42441 0.11343 0.0
C1194 C 0.85991 0.43461 0.14988 0.0
C1195 C 0.83075 0.40366 0.12592 0.0
C1196 C 0.86901 0.41418 0.18402 0.0
C1197 C 0.89169 0.48074 0.20043 0.0
N1198 N 0.84268 0.40922 0.1437 0.0
N1199 N 0.88015 0.46989 0.17883 0.0
loop_
_geom_bond_atom_site_label_1
_geom_bond_atom_site_label_2
_geom_bond_distance
_geom_bond_site_symmetry_2
_ccdc_geom_bond_type
C0 C1 1.560 . S
C0 H61 0.959 . S
C0 H62 0.959 . S
C0 H63 0.960 . S
C1 C0 1.560 . S
C1 O56 1.426 . S
C1 H60 0.980 . S
C2 C3 1.407 . S
C2 C7 1.418 . S
C2 O56 1.334 . S
C3 C2 1.407 . S
C3 C4 1.360 . S
C3 H64 0.929 . S
C4 C3 1.360 . S
C4 C5 1.401 . S
C4 C8 1.527 . S
C5 C4 1.401 . S
C5 C6 1.405 . S
C5 C38 1.587 . S
C6 C5 1.405 . S
C6 C7 1.332 . S
C6 C9 1.496 . S
C7 C2 1.418 . S
C7 C6 1.332 . S
C7 H65 0.929 . S
C8 C4 1.527 . S
C8 H66 0.959 . S
C8 H67 0.961 . S
C8 H68 0.961 . S
C9 C6 1.496 . S
C9 H69 0.960 . S
C9 H70 0.960 . S
C9 H71 0.961 . S
C10 C11 1.517 . S
C10 H73 0.961 . S
C10 H74 0.960 . S
C10 H75 0.959 . S
C11 C10 1.517 . S
C11 O59 1.468 . S
C11 H72 0.980 . S
C12 C13 1.349 . S
C12 C17 1.367 . S
C12 O59 1.408 . S
C13 C12 1.349 . S
C13 C14 1.407 . S
C13 H76 0.930 . S
C14 C13 1.407 . S
C14 C15 1.449 . S
C14 C18 1.535 . S
C15 C14 1.449 . S
C15 C16 1.384 . S
C15 C40 1.553 1_655 S
C16 C15 1.384 . S
C16 C17 1.364 . S
C16 C19 1.450 . S
C17 C12 1.367 . S
C17 C16 1.364 . S
C17 H77 0.931 . S
C18 C14 1.535 . S
C18 H78 0.959 1_655 S
C18 H79 0.960 1_655 S
C18 H80 0.959 . S
C19 C16 1.450 . S
C19 H81 0.960 . S
C19 H82 0.960 1_655 S
C19 H83 0.960 . S
C20 C21 1.309 . S
C20 C25 1.304 . S
C20 O58 1.435 . S
C21 C20 1.309 . S
C21 C22 1.476 . S
C21 H85 0.930 . S
C22 C21 1.476 . S
C22 C23 1.400 . S
C22 C26 1.567 . S
C23 C22 1.400 . S
C23 C24 1.373 . S
C23 C45 1.432 . S
C24 C23 1.373 . S
C24 C25 1.339 . S
C24 C27 1.530 . S
C25 C20 1.304 . S
C25 C24 1.339 . S
C25 H86 0.930 . S
C26 C22 1.567 . S
C26 H87 0.961 . S
C26 H88 0.960 . S
C26 H89 0.958 . S
C27 C24 1.530 . S
C27 H90 0.961 . S
C27 H91 0.960 . S
C27 H92 0.960 . S
C28 C29 1.530 . S
C28 H94 0.961 . S
C28 H95 0.961 . S
C28 H96 0.959 . S
C29 C28 1.530 . S
C29 O57 1.412 . S
C29 H93 0.980 . S
C30 C31 1.288 . S
C30 C35 1.377 . S
C30 O57 1.393 . S
C31 C30 1.288 . S
C31 C32 1.369 . S
C31 H97 0.932 . S
C32 C31 1.369 . S
C32 C33 1.398 . S
C32 C36 1.527 . S
C33 C32 1.398 . S
C33 C34 1.380 . S
C33 C47 1.497 . S
C34 C33 1.380 . S
C34 C35 1.383 . S
C34 C37 1.603 . S
C35 C30 1.377 . S
C35 C34 1.383 . S
C35 H98 0.929 . S
C36 C32 1.527 . S
C36 H99 0.961 . S
C36 H100 0.930 1_455 S
C36 H101 0.959 . S
C37 C34 1.603 . S
C37 H102 0.960 . S
C37 H103 0.962 . S
C37 H104 0.961 . S
C38 C5 1.587 . S
C38 C39 1.360 . S
C38 C51 1.412 . S
C39 C38 1.360 . S
C39 C40 1.365 . S
C39 H105 0.929 . S
C40 C15 1.553 1_455 S
C40 C39 1.365 . S
C40 C41 1.420 . S
C41 C40 1.420 . S
C41 C42 1.364 1_455 S
C41 C52 1.469 . S
C42 C41 1.364 1_655 S
C42 C43 1.322 . S
C42 H106 0.930 . S
C43 C42 1.322 . S
C43 C44 1.459 . S
C43 H107 0.929 . S
C44 C43 1.459 . S
C44 C45 1.445 . S
C44 C53 1.395 1_655 S
C45 C23 1.432 . S
C45 C44 1.445 . S
C45 C46 1.370 . S
C46 C45 1.370 . S
C46 C47 1.438 1_655 S
C46 H108 0.930 . S
C47 C33 1.497 . S
C47 C46 1.438 1_455 S
C47 C48 1.360 . S
C48 C47 1.360 . S
C48 C49 1.401 . S
C48 C53 1.446 . S
C49 C48 1.401 . S
C49 C50 1.347 . S
C49 H109 0.929 . S
C50 C49 1.347 . S
C50 C51 1.455 . S
C50 H110 0.930 . S
C51 C38 1.412 . S
C51 C50 1.455 . S
C51 C52 1.331 . S
C52 C41 1.469 . S
C52 C51 1.331 . S
C52 C53 1.497 . S
C53 C44 1.395 1_455 S
C53 C48 1.446 . S
C53 C52 1.497 . S
C54 C55 1.582 . S
C54 H111 0.962 . S
C54 H112 0.959 . S
C54 H113 0.958 . S
C55 C54 1.582 . S
C55 O58 1.458 . S
C55 H84 0.980 . S
O56 C1 1.426 . S
O56 C2 1.334 . S
O57 C29 1.412 . S
O57 C30 1.393 . S
O58 C20 1.435 . S
O58 C55 1.458 . S
O59 C11 1.468 . S
O59 C12 1.408 . S
H60 C1 0.980 . S
H61 C0 0.959 . S
H62 C0 0.959 . S
H63 C0 0.960 . S
H64 C3 0.929 . S
H65 C7 0.929 . S
H66 C8 0.959 . S
H67 C8 0.961 . S
H68 C8 0.961 . S
H69 C9 0.960 . S
H70 C9 0.960 . S
H71 C9 0.961 . S
H72 C11 0.980 . S
H73 C10 0.961 . S
H74 C10 0.960 . S
H75 C10 0.959 . S
H76 C13 0.930 . S
H77 C17 0.931 . S
H78 C18 0.959 1_455 S
H79 C18 0.960 1_455 S
H80 C18 0.959 . S
H81 C19 0.960 . S
H82 C19 0.960 1_455 S
H83 C19 0.960 . S
H84 C55 0.980 . S
H85 C21 0.930 . S
H86 C25 0.930 . S
H87 C26 0.961 . S
H88 C26 0.960 . S
H89 C26 0.958 . S
H90 C27 0.961 . S
H91 C27 0.960 . S
H92 C27 0.960 . S
H93 C29 0.980 . S
H94 C28 0.961 . S
H95 C28 0.961 . S
H96 C28 0.959 . S
H97 C31 0.932 . S
H98 C35 0.929 . S
H99 C36 0.961 . S
H100 C36 0.930 1_655 S
H101 C36 0.959 . S
H102 C37 0.960 . S
H103 C37 0.962 . S
H104 C37 0.961 . S
H105 C39 0.929 . S
H106 C42 0.930 . S
H107 C43 0.929 . S
H108 C46 0.930 . S
H109 C49 0.929 . S
H110 C50 0.930 . S
H111 C54 0.962 . S
H112 C54 0.959 . S
H113 C54 0.958 . S
C114 C115 1.560 . S
C114 H175 0.959 . S
C114 H176 0.959 . S
C114 H177 0.960 . S
C115 C114 1.560 . S
C115 O170 1.426 . S
C115 H174 0.980 . S
C116 C117 1.407 . S
C116 C121 1.418 . S
C116 O170 1.334 . S
C117 C116 1.407 . S
C117 C118 1.360 . S
C117 H178 0.929 . S
C118 C117 1.360 . S
C118 C119 1.401 . S
C118 C122 1.527 . S
C119 C118 1.401 . S
C119 C120 1.405 . S
C119 C152 1.587 . S
C120 C119 1.405 . S
C120 C121 1.332 . S
C120 C123 1.496 . S
C121 C116 1.418 . S
C121 C120 1.332 . S
C121 H179 0.929 . S
C122 C118 1.527 . S
C122 H180 0.959 . S
C122 H181 0.961 . S
C122 H182 0.961 . S
C123 C120 1.496 . S
C123 H183 0.960 . S
C123 H184 0.960 . S
C123 H185 0.961 . S
C124 C125 1.517 . S
C124 H187 0.961 . S
C124 H188 0.960 . S
C124 H189 0.959 . S
C125 C124 1.517 . S
C125 O173 1.468 . S
C125 H186 0.980 . S
C126 C127 1.349 . S
C126 C131 1.367 . S
C126 O173 1.408 . S
C127 C126 1.349 . S
C127 C128 1.407 . S
C127 H190 0.930 . S
C128 C127 1.407 . S
C128 C129 1.449 . S
C128 C132 1.535 . S
C129 C128 1.449 . S
C129 C130 1.384 . S
C129 C154 1.553 . S
C130 C129 1.384 . S
C130 C131 1.364 . S
C130 C133 1.450 . S
C131 C126 1.367 . S
C131 C130 1.364 . S
C131 H191 0.931 . S
C132 C128 1.535 . S
C132 H192 0.959 . S
C132 H193 0.961 . S
C132 H194 0.959 . S
C133 C130 1.450 . S
C133 H195 0.960 . S
C133 H196 0.960 . S
C133 H197 0.960 . S
C134 C135 1.309 . S
C134 C139 1.304 . S
C134 O172 1.435 . S
C135 C134 1.309 . S
C135 C136 1.476 . S
C135 H199 0.930 . S
C136 C135 1.476 . S
C136 C137 1.400 . S
C136 C140 1.567 . S
C137 C136 1.400 . S
C137 C138 1.373 . S
C137 C159 1.432 . S
C138 C137 1.373 . S
C138 C139 1.339 . S
C138 C141 1.530 . S
C139 C134 1.304 . S
C139 C138 1.339 . S
C139 H200 0.930 . S
C140 C136 1.567 . S
C140 H201 0.961 . S
C140 H202 0.960 . S
C140 H203 0.958 . S
C141 C138 1.530 . S
C141 H204 0.961 . S
C141 H205 0.960 . S
C141 H206 0.960 . S
C142 C143 1.530 . S
C142 H208 0.961 . S
C142 H209 0.961 . S
C142 H210 0.959 . S
C143 C142 1.530 . S
C143 O171 1.412 . S
C143 H207 0.980 . S
C144 C145 1.288 . S
C144 C149 1.377 . S
C144 O171 1.393 . S
C145 C144 1.288 . S
C145 C146 1.369 . S
C145 H211 0.932 . S
C146 C145 1.369 . S
C146 C147 1.398 . S
C146 C150 1.527 . S
C147 C146 1.398 . S
C147 C148 1.380 . S
C147 C161 1.515 . S
C148 C147 1.380 . S
C148 C149 1.383 . S
C148 C151 1.603 . S
C149 C144 1.377 . S
C149 C148 1.383 . S
C149 H212 0.929 . S
C150 C146 1.527 . S
C150 H213 0.961 . S
C150 H214 0.959 1_565 S
C150 H215 0.959 . S
C151 C148 1.603 . S
C151 H216 0.960 . S
C151 H217 0.962 . S
C151 H218 0.961 . S
C152 C119 1.587 . S
C152 C153 1.360 . S
C152 C165 1.412 . S
C153 C152 1.360 . S
C153 C154 1.365 1_565 S
C153 H219 0.929 . S
C154 C129 1.553 . S
C154 C153 1.365 1_545 S
C154 C155 1.404 . S
C155 C154 1.404 . S
C155 C156 1.395 . S
C155 C166 1.451 1_545 S
C156 C155 1.395 . S
C156 C157 1.322 . S
C156 H220 0.930 . S
C157 C156 1.322 . S
C157 C158 1.459 . S
C157 H221 0.929 . S
C158 C157 1.459 . S
C158 C159 1.445 . S
C158 C167 1.395 . S
C159 C137 1.432 . S
C159 C158 1.445 . S
C159 C160 1.370 . S
C160 C159 1.370 . S
C160 C161 1.401 1_545 S
C160 H222 0.930 . S
C161 C147 1.515 . S
C161 C160 1.401 1_565 S
C161 C162 1.378 . S
C162 C161 1.378 . S
C162 C163 1.401 . S
C162 C167 1.446 1_565 S
C163 C162 1.401 . S
C163 C164 1.347 . S
C163 H223 0.929 . S
C164 C163 1.347 . S
C164 C165 1.455 . S
C164 H224 0.930 . S
C165 C152 1.412 . S
C165 C164 1.455 . S
C165 C166 1.331 . S
C166 C155 1.451 1_565 S
C166 C165 1.331 . S
C166 C167 1.497 1_565 S
C167 C158 1.395 . S
C167 C162 1.446 1_545 S
C167 C166 1.497 1_545 S
C168 C169 1.582 . S
C168 H225 0.962 . S
C168 H226 0.959 . S
C168 H227 0.958 . S
C169 C168 1.582 . S
C169 O172 1.458 . S
C169 H198 0.980 . S
O170 C115 1.426 . S
O170 C116 1.334 . S
O171 C143 1.412 . S
O171 C144 1.393 . S
O172 C134 1.435 . S
O172 C169 1.458 . S
O173 C125 1.468 . S
O173 C126 1.408 . S
H174 C115 0.980 . S
H175 C114 0.959 . S
H176 C114 0.959 . S
H177 C114 0.960 . S
H178 C117 0.929 . S
H179 C121 0.929 . S
H180 C122 0.959 . S
H181 C122 0.961 . S
H182 C122 0.961 . S
H183 C123 0.960 . S
H184 C123 0.960 . S
H185 C123 0.961 . S
H186 C125 0.980 . S
H187 C124 0.961 . S
H188 C124 0.960 . S
H189 C124 0.959 . S
H190 C127 0.930 . S
H191 C131 0.931 . S
H192 C132 0.959 . S
H193 C132 0.961 . S
H194 C132 0.959 . S
H195 C133 0.960 . S
H196 C133 0.960 . S
H197 C133 0.960 . S
H198 C169 0.980 . S
H199 C135 0.930 . S
H200 C139 0.930 . S
H201 C140 0.961 . S
H202 C140 0.960 . S
H203 C140 0.958 . S
H204 C141 0.961 . S
H205 C141 0.960 . S
H206 C141 0.960 . S
H207 C143 0.980 . S
H208 C142 0.961 . S
H209 C142 0.961 . S
H210 C142 0.959 . S
H211 C145 0.932 . S
H212 C149 0.929 . S
H213 C150 0.961 . S
H214 C150 0.959 1_545 S
H215 C150 0.959 . S
H216 C151 0.960 . S
H217 C151 0.962 . S
H218 C151 0.961 . S
H219 C153 0.929 . S
H220 C156 0.930 . S
H221 C157 0.929 . S
H222 C160 0.930 . S
H223 C163 0.929 . S
H224 C164 0.930 . S
H225 C168 0.962 . S
H226 C168 0.959 . S
H227 C168 0.958 . S
C228 C229 1.560 . S
C228 H289 0.959 . S
C228 H290 0.959 . S
C228 H291 0.960 . S
C229 C228 1.560 . S
C229 O284 1.426 . S
C229 H288 0.980 . S
C230 C231 1.407 . S
C230 C235 1.418 . S
C230 O284 1.334 . S
C231 C230 1.407 . S
C231 C232 1.360 . S
C231 H292 0.929 . S
C232 C231 1.360 . S
C232 C233 1.401 . S
C232 C236 1.527 . S
C233 C232 1.401 . S
C233 C234 1.405 . S
C233 C266 1.587 . S
C234 C233 1.405 . S
C234 C235 1.332 . S
C234 C237 1.496 . S
C235 C230 1.418 . S
C235 C234 1.332 . S
C235 H293 0.929 . S
C236 C232 1.527 . S
C236 H294 0.959 . S
C236 H295 0.961 . S
C236 H296 0.961 . S
C237 C234 1.496 . S
C237 H297 0.960 . S
C237 H298 0.960 . S
C237 H299 0.961 . S
C238 C239 1.517 . S
C238 H301 0.961 . S
C238 H302 0.960 . S
C238 H303 0.959 . S
C239 C238 1.517 . S
C239 O287 1.468 . S
C239 H300 0.980 . S
C240 C241 1.349 . S
C240 C245 1.367 . S
C240 O287 1.408 . S
C241 C240 1.349 . S
C241 C242 1.407 . S
C241 H304 0.930 . S
C242 C241 1.407 . S
C242 C243 1.449 . S
C242 C246 1.535 . S
C243 C242 1.449 . S
C243 C244 1.384 . S
C243 C268 1.553 . S
C244 C243 1.384 . S
C244 C245 1.364 . S
C244 C247 1.450 . S
C245 C240 1.367 . S
C245 C244 1.364 . S
C245 H305 0.931 . S
C246 C242 1.535 . S
C246 H306 0.959 . S
C246 H307 0.961 . S
C246 H308 0.959 . S
C247 C244 1.450 . S
C247 H309 0.960 . S
C247 H310 0.960 . S
C247 H311 0.960 . S
C248 C249 1.309 . S
C248 C253 1.304 . S
C248 O286 1.435 . S
C249 C248 1.309 . S
C249 C250 1.476 . S
C249 H313 0.930 . S
C250 C249 1.476 . S
C250 C251 1.400 . S
C250 C254 1.567 . S
C251 C250 1.400 . S
C251 C252 1.373 . S
C251 C273 1.432 . S
C252 C251 1.373 . S
C252 C253 1.339 . S
C252 C255 1.530 . S
C253 C248 1.304 . S
C253 C252 1.339 . S
C253 H314 0.930 . S
C254 C250 1.567 . S
C254 H315 0.961 . S
C254 H316 0.960 . S
C254 H317 0.958 . S
C255 C252 1.530 . S
C255 H318 0.961 . S
C255 H319 0.960 . S
C255 H320 0.960 . S
C256 C257 1.530 . S
C256 H322 0.961 . S
C256 H323 0.961 . S
C256 H324 0.959 . S
C257 C256 1.530 . S
C257 O285 1.412 . S
C257 H321 0.980 . S
C258 C259 1.288 . S
C258 C263 1.377 . S
C258 O285 1.393 . S
C259 C258 1.288 . S
C259 C260 1.369 . S
C259 H325 0.932 . S
C260 C259 1.369 . S
C260 C261 1.398 . S
C260 C264 1.527 . S
C261 C260 1.398 . S
C261 C262 1.380 . S
C261 C275 1.497 . S
C262 C261 1.380 . S
C262 C263 1.383 . S
C262 C265 1.603 . S
C263 C258 1.377 . S
C263 C262 1.383 . S
C263 H326 0.929 . S
C264 C260 1.527 . S
C264 H327 0.961 . S
C264 H328 0.959 . S
C264 H329 0.959 . S
C265 C262 1.603 . S
C265 H330 0.960 . S
C265 H331 0.962 . S
C265 H332 0.961 . S
C266 C233 1.587 . S
C266 C267 1.360 . S
C266 C279 1.412 . S
C267 C266 1.360 . S
C267 C268 1.365 . S
C267 H333 0.929 . S
C268 C243 1.553 . S
C268 C267 1.365 . S
C268 C269 1.404 . S
C269 C268 1.404 . S
C269 C270 1.395 . S
C269 C280 1.451 . S
C270 C269 1.395 . S
C270 C271 1.322 . S
C270 H334 0.930 . S
C271 C270 1.322 . S
C271 C272 1.459 . S
C271 H335 0.929 . S
C272 C271 1.459 . S
C272 C273 1.445 . S
C272 C281 1.395 . S
C273 C251 1.432 . S
C273 C272 1.445 . S
C273 C274 1.370 . S
C274 C273 1.370 . S
C274 C275 1.438 . S
C274 H336 0.930 . S
C275 C261 1.497 . S
C275 C274 1.438 . S
C275 C276 1.360 . S
C276 C275 1.360 . S
C276 C277 1.401 . S
C276 C281 1.446 . S
C277 C276 1.401 . S
C277 C278 1.347 . S
C277 H337 0.929 . S
C278 C277 1.347 . S
C278 C279 1.455 . S
C278 H338 0.930 . S
C279 C266 1.412 . S
C279 C278 1.455 . S
C279 C280 1.331 . S
C280 C269 1.451 . S
C280 C279 1.331 . S
C280 C281 1.497 . S
C281 C272 1.395 . S
C281 C276 1.446 . S
C281 C280 1.497 . S
C282 C283 1.582 . S
C282 H339 0.962 . S
C282 H340 0.959 . S
C282 H341 0.958 . S
C283 C282 1.582 . S
C283 O286 1.458 . S
C283 H312 0.980 . S
O284 C229 1.426 . S
O284 C230 1.334 . S
O285 C257 1.412 . S
O285 C258 1.393 . S
O286 C248 1.435 . S
O286 C283 1.458 . S
O287 C239 1.468 . S
O287 C240 1.408 . S
H288 C229 0.980 . S
H289 C228 0.959 . S
H290 C228 0.959 . S
H291 C228 0.960 . S
H292 C231 0.929 . S
H293 C235 0.929 . S
H294 C236 0.959 . S
H295 C236 0.961 . S
H296 C236 0.961 . S
H297 C237 0.960 . S
H298 C237 0.960 . S
H299 C237 0.961 . S
H300 C239 0.980 . S
H301 C238 0.961 . S
H302 C238 0.960 . S
H303 C238 0.959 . S
H304 C241 0.930 . S
H305 C245 0.931 . S
H306 C246 0.959 . S
H307 C246 0.961 . S
H308 C246 0.959 . S
H309 C247 0.960 . S
H310 C247 0.960 . S
H311 C247 0.960 . S
H312 C283 0.980 . S
H313 C249 0.930 . S
H314 C253 0.930 . S
H315 C254 0.961 . S
H316 C254 0.960 . S
H317 C254 0.958 . S
H318 C255 0.961 . S
H319 C255 0.960 . S
H320 C255 0.960 . S
H321 C257 0.980 . S
H322 C256 0.961 . S
H323 C256 0.961 . S
H324 C256 0.959 . S
H325 C259 0.932 . S
H326 C263 0.929 . S
H327 C264 0.961 . S
H328 C264 0.959 . S
H329 C264 0.959 . S
H330 C265 0.960 . S
H331 C265 0.962 . S
H332 C265 0.961 . S
H333 C267 0.929 . S
H334 C270 0.930 . S
H335 C271 0.929 . S
H336 C274 0.930 . S
H337 C277 0.929 . S
H338 C278 0.930 . S
H339 C282 0.962 . S
H340 C282 0.959 . S
H341 C282 0.958 . S
C342 C343 1.560 . S
C342 H403 0.959 . S
C342 H404 0.959 . S
C342 H405 0.960 . S
C343 C342 1.560 . S
C343 O398 1.426 . S
C343 H402 0.980 . S
C344 C345 1.407 . S
C344 C349 1.418 . S
C344 O398 1.334 . S
C345 C344 1.407 . S
C345 C346 1.360 . S
C345 H406 0.929 . S
C346 C345 1.360 . S
C346 C347 1.401 . S
C346 C350 1.527 . S
C347 C346 1.401 . S
C347 C348 1.405 . S
C347 C380 1.587 . S
C348 C347 1.405 . S
C348 C349 1.332 . S
C348 C351 1.496 . S
C349 C344 1.418 . S
C349 C348 1.332 . S
C349 H407 0.929 . S
C350 C346 1.527 . S
C350 H408 0.959 . S
C350 H409 0.961 . S
C350 H410 0.961 . S
C351 C348 1.496 . S
C351 H411 0.960 . S
C351 H412 0.960 . S
C351 H413 0.961 . S
C352 C353 1.517 . S
C352 H415 0.961 . S
C352 H416 0.960 . S
C352 H417 0.959 . S
C353 C352 1.517 . S
C353 O401 1.468 . S
C353 H414 0.980 . S
C354 C355 1.349 . S
C354 C359 1.367 . S
C354 O401 1.408 . S
C355 C354 1.349 . S
C355 C356 1.407 . S
C355 H418 0.930 . S
C356 C355 1.407 . S
C356 C357 1.441 . S
C356 C360 1.514 1_655 S
C357 C356 1.441 . S
C357 C358 1.420 . S
C357 C382 1.526 1_655 S
C358 C357 1.420 . S
C358 C359 1.364 . S
C358 C361 1.450 . S
C359 C354 1.367 . S
C359 C358 1.364 . S
C359 H419 0.931 . S
C360 C356 1.514 1_455 S
C360 H420 0.978 . S
C360 H421 0.978 . S
C360 H422 0.946 1_455 S
C361 C358 1.450 . S
C361 H423 0.960 . S
C361 H424 0.960 1_655 S
C361 H425 0.960 . S
C362 C363 1.309 . S
C362 C367 1.304 . S
C362 O400 1.435 . S
C363 C362 1.309 . S
C363 C364 1.476 . S
C363 H427 0.930 . S
C364 C363 1.476 . S
C364 C365 1.400 . S
C364 C368 1.567 . S
C365 C364 1.400 . S
C365 C366 1.373 . S
C365 C387 1.432 . S
C366 C365 1.373 . S
C366 C367 1.339 . S
C366 C369 1.530 . S
C367 C362 1.304 . S
C367 C366 1.339 . S
C367 H428 0.930 . S
C368 C364 1.567 . S
C368 H429 0.961 . S
C368 H430 0.960 . S
C368 H431 0.958 . S
C369 C366 1.530 . S
C369 H432 0.961 . S
C369 H433 0.960 . S
C369 H434 0.960 . S
C370 C371 1.530 . S
C370 H436 0.961 . S
C370 H437 0.961 . S
C370 H438 0.959 . S
C371 C370 1.530 . S
C371 O399 1.412 . S
C371 H435 0.980 . S
C372 C373 1.288 . S
C372 C377 1.377 . S
C372 O399 1.393 . S
C373 C372 1.288 . S
C373 C374 1.369 . S
C373 H439 0.932 . S
C374 C373 1.369 . S
C374 C375 1.398 . S
C374 C378 1.527 . S
C375 C374 1.398 . S
C375 C376 1.380 . S
C375 C389 1.497 . S
C376 C375 1.380 . S
C376 C377 1.383 . S
C376 C379 1.603 . S
C377 C372 1.377 . S
C377 C376 1.383 . S
C377 H440 0.929 . S
C378 C374 1.527 . S
C378 H441 0.961 . S
C378 H442 0.959 . S
C378 H443 0.959 . S
C379 C376 1.603 . S
C379 H444 0.960 . S
C379 H445 0.962 . S
C379 H446 0.961 . S
C380 C347 1.587 . S
C380 C381 1.360 . S
C380 C393 1.412 . S
C381 C380 1.360 . S
C381 C382 1.365 . S
C381 H447 0.929 . S
C382 C357 1.526 1_455 S
C382 C381 1.365 . S
C382 C383 1.404 . S
C383 C382 1.404 . S
C383 C384 1.395 1_455 S
C383 C394 1.451 . S
C384 C383 1.395 1_655 S
C384 C385 1.322 . S
C384 H448 0.930 . S
C385 C384 1.322 . S
C385 C386 1.459 . S
C385 H449 0.929 . S
C386 C385 1.459 . S
C386 C387 1.445 . S
C386 C395 1.395 1_655 S
C387 C365 1.432 . S
C387 C386 1.445 . S
C387 C388 1.370 . S
C388 C387 1.370 . S
C388 C389 1.438 1_655 S
C388 H450 0.930 . S
C389 C375 1.497 . S
C389 C388 1.438 1_455 S
C389 C390 1.360 . S
C390 C389 1.360 . S
C390 C391 1.401 . S
C390 C395 1.446 . S
C391 C390 1.401 . S
C391 C392 1.347 . S
C391 H451 0.929 . S
C392 C391 1.347 . S
C392 C393 1.455 . S
C392 H452 0.930 . S
C393 C380 1.412 . S
C393 C392 1.455 . S
C393 C394 1.331 . S
C394 C383 1.451 . S
C394 C393 1.331 . S
C394 C395 1.497 . S
C395 C386 1.395 1_455 S
C395 C390 1.446 . S
C395 C394 1.497 . S
C396 C397 1.582 . S
C396 H453 0.962 . S
C396 H454 0.959 . S
C396 H455 0.958 . S
C397 C396 1.582 . S
C397 O400 1.458 . S
C397 H426 0.980 . S
O398 C343 1.426 . S
O398 C344 1.334 . S
O399 C371 1.412 . S
O399 C372 1.393 . S
O400 C362 1.435 . S
O400 C397 1.458 . S
O401 C353 1.468 . S
O401 C354 1.408 . S
H402 C343 0.980 . S
H403 C342 0.959 . S
H404 C342 0.959 . S
H405 C342 0.960 . S
H406 C345 0.929 . S
H407 C349 0.929 . S
H408 C350 0.959 . S
H409 C350 0.961 . S
H410 C350 0.961 . S
H411 C351 0.960 . S
H412 C351 0.960 . S
H413 C351 0.961 . S
H414 C353 0.980 . S
H415 C352 0.961 . S
H416 C352 0.960 . S
H417 C352 0.959 . S
H418 C355 0.930 . S
H419 C359 0.931 . S
H420 C360 0.978 . S
H421 C360 0.978 . S
H422 C360 0.946 1_655 S
H423 C361 0.960 . S
H424 C361 0.960 1_455 S
H425 C361 0.960 . S
H426 C397 0.980 . S
H427 C363 0.930 . S
H428 C367 0.930 . S
H429 C368 0.961 . S
H430 C368 0.960 . S
H431 C368 0.958 . S
H432 C369 0.961 . S
H433 C369 0.960 . S
H434 C369 0.960 . S
H435 C371 0.980 . S
H436 C370 0.961 . S
H437 C370 0.961 . S
H438 C370 0.959 . S
H439 C373 0.932 . S
H440 C377 0.929 . S
H441 C378 0.961 . S
H442 C378 0.959 . S
H443 C378 0.959 . S
H444 C379 0.960 . S
H445 C379 0.962 . S
H446 C379 0.961 . S
H447 C381 0.929 . S
H448 C384 0.930 . S
H449 C385 0.929 . S
H450 C388 0.930 . S
H451 C391 0.929 . S
H452 C392 0.930 . S
H453 C396 0.962 . S
H454 C396 0.959 . S
H455 C396 0.958 . S
C456 C457 1.560 . S
C456 H517 0.959 . S
C456 H518 0.959 . S
C456 H519 0.960 . S
C457 C456 1.560 . S
C457 O512 1.426 . S
C457 H516 0.980 . S
C458 C459 1.407 . S
C458 C463 1.418 . S
C458 O512 1.334 . S
C459 C458 1.407 . S
C459 C460 1.360 . S
C459 H520 0.929 . S
C460 C459 1.360 . S
C460 C461 1.401 . S
C460 C464 1.527 . S
C461 C460 1.401 . S
C461 C462 1.405 . S
C461 C494 1.587 . S
C462 C461 1.405 . S
C462 C463 1.332 . S
C462 C465 1.496 . S
C463 C458 1.418 . S
C463 C462 1.332 . S
C463 H521 0.929 . S
C464 C460 1.527 . S
C464 H522 0.959 . S
C464 H523 0.961 . S
C464 H524 0.961 . S
C465 C462 1.496 . S
C465 H525 0.960 . S
C465 H526 0.960 . S
C465 H527 0.961 . S
C466 C467 1.517 . S
C466 H529 0.961 . S
C466 H530 0.960 . S
C466 H531 0.959 . S
C467 C466 1.517 . S
C467 O515 1.468 . S
C467 H528 0.980 . S
C468 C469 1.349 . S
C468 C473 1.367 . S
C468 O515 1.408 . S
C469 C468 1.349 . S
C469 C470 1.407 . S
C469 H532 0.930 . S
C470 C469 1.407 . S
C470 C471 1.449 . S
C470 C474 1.535 . S
C471 C470 1.449 . S
C471 C472 1.384 . S
C471 C496 1.553 . S
C472 C471 1.384 . S
C472 C473 1.364 . S
C472 C475 1.450 . S
C473 C468 1.367 . S
C473 C472 1.364 . S
C473 H533 0.931 . S
C474 C470 1.535 . S
C474 H534 0.959 . S
C474 H535 0.961 . S
C474 H536 0.959 . S
C475 C472 1.450 . S
C475 H537 0.960 . S
C475 H538 0.960 . S
C475 H539 0.960 . S
C476 C477 1.309 . S
C476 C481 1.304 . S
C476 O514 1.435 . S
C477 C476 1.309 . S
C477 C478 1.476 . S
C477 H541 0.930 . S
C478 C477 1.476 . S
C478 C479 1.400 . S
C478 C482 1.567 . S
C479 C478 1.400 . S
C479 C480 1.373 . S
C479 C501 1.432 . S
C480 C479 1.373 . S
C480 C481 1.339 . S
C480 C483 1.530 . S
C481 C476 1.304 . S
C481 C480 1.339 . S
C481 H542 0.930 . S
C482 C478 1.567 . S
C482 H543 0.961 . S
C482 H544 0.960 . S
C482 H545 0.958 . S
C483 C480 1.530 . S
C483 H546 0.961 . S
C483 H547 0.960 . S
C483 H548 0.960 . S
C484 C485 1.530 . S
C484 H550 0.961 . S
C484 H551 0.961 . S
C484 H552 0.959 . S
C485 C484 1.530 . S
C485 O513 1.412 . S
C485 H549 0.980 . S
C486 C487 1.288 . S
C486 C491 1.377 . S
C486 O513 1.393 . S
C487 C486 1.288 . S
C487 C488 1.369 . S
C487 H553 0.932 . S
C488 C487 1.369 . S
C488 C489 1.398 . S
C488 C492 1.525 1_565 S
C489 C488 1.398 . S
C489 C490 1.380 . S
C489 C503 1.497 1_565 S
C490 C489 1.380 . S
C490 C491 1.383 . S
C490 C493 1.603 . S
C491 C486 1.377 . S
C491 C490 1.383 . S
C491 H554 0.929 . S
C492 C488 1.525 1_545 S
C492 H555 0.961 1_545 S
C492 H556 0.997 . S
C492 H557 0.925 1_545 S
C493 C490 1.603 . S
C493 H558 0.960 . S
C493 H559 0.962 . S
C493 H560 0.961 . S
C494 C461 1.587 . S
C494 C495 1.360 . S
C494 C507 1.412 . S
C495 C494 1.360 . S
C495 C496 1.365 1_565 S
C495 H561 0.929 . S
C496 C471 1.553 . S
C496 C495 1.365 1_545 S
C496 C497 1.404 . S
C497 C496 1.404 . S
C497 C498 1.395 . S
C497 C508 1.451 1_545 S
C498 C497 1.395 . S
C498 C499 1.322 . S
C498 H562 0.930 . S
C499 C498 1.322 . S
C499 C500 1.459 . S
C499 H563 0.929 . S
C500 C499 1.459 . S
C500 C501 1.445 1_556 S
C500 C509 1.395 . S
C501 C479 1.432 . S
C501 C500 1.445 1_554 S
C501 C502 1.370 . S
C502 C501 1.370 . S
C502 C503 1.438 . S
C502 H564 0.930 . S
C503 C489 1.497 1_545 S
C503 C502 1.438 . S
C503 C504 1.360 1_545 S
C504 C503 1.360 1_565 S
C504 C505 1.401 . S
C504 C509 1.446 1_564 S
C505 C504 1.401 . S
C505 C506 1.347 1_554 S
C505 H565 0.929 . S
C506 C505 1.347 1_556 S
C506 C507 1.455 . S
C506 H566 0.930 . S
C507 C494 1.412 . S
C507 C506 1.455 . S
C507 C508 1.331 . S
C508 C497 1.451 1_565 S
C508 C507 1.331 . S
C508 C509 1.497 1_565 S
C509 C500 1.395 . S
C509 C504 1.446 1_546 S
C509 C508 1.497 1_545 S
C510 C511 1.582 . S
C510 H567 0.962 . S
C510 H568 0.959 . S
C510 H569 0.958 . S
C511 C510 1.582 . S
C511 O514 1.458 . S
C511 H540 0.980 . S
O512 C457 1.426 . S
O512 C458 1.334 . S
O513 C485 1.412 . S
O513 C486 1.393 . S
O514 C476 1.435 . S
O514 C511 1.458 . S
O515 C467 1.468 . S
O515 C468 1.408 . S
H516 C457 0.980 . S
H517 C456 0.959 . S
H518 C456 0.959 . S
H519 C456 0.960 . S
H520 C459 0.929 . S
H521 C463 0.929 . S
H522 C464 0.959 . S
H523 C464 0.961 . S
H524 C464 0.961 . S
H525 C465 0.960 . S
H526 C465 0.960 . S
H527 C465 0.961 . S
H528 C467 0.980 . S
H529 C466 0.961 . S
H530 C466 0.960 . S
H531 C466 0.959 . S
H532 C469 0.930 . S
H533 C473 0.931 . S
H534 C474 0.959 . S
H535 C474 0.961 . S
H536 C474 0.959 . S
H537 C475 0.960 . S
H538 C475 0.960 . S
H539 C475 0.960 . S
H540 C511 0.980 . S
H541 C477 0.930 . S
H542 C481 0.930 . S
H543 C482 0.961 . S
H544 C482 0.960 . S
H545 C482 0.958 . S
H546 C483 0.961 . S
H547 C483 0.960 . S
H548 C483 0.960 . S
H549 C485 0.980 . S
H550 C484 0.961 . S
H551 C484 0.961 . S
H552 C484 0.959 . S
H553 C487 0.932 . S
H554 C491 0.929 . S
H555 C492 0.961 1_565 S
H556 C492 0.997 . S
H557 C492 0.925 1_565 S
H558 C493 0.960 . S
H559 C493 0.962 . S
H560 C493 0.961 . S
H561 C495 0.929 . S
H562 C498 0.930 . S
H563 C499 0.929 . S
H564 C502 0.930 . S
H565 C505 0.929 . S
H566 C506 0.930 . S
H567 C510 0.962 . S
H568 C510 0.959 . S
H569 C510 0.958 . S
C570 C571 1.560 . S
C570 H631 0.959 . S
C570 H632 0.959 . S
C570 H633 0.960 . S
C571 C570 1.560 . S
C571 O626 1.426 . S
C571 H630 0.980 . S
C572 C573 1.407 . S
C572 C577 1.418 . S
C572 O626 1.334 . S
C573 C572 1.407 . S
C573 C574 1.360 . S
C573 H634 0.929 . S
C574 C573 1.360 . S
C574 C575 1.401 . S
C574 C578 1.527 . S
C575 C574 1.401 . S
C575 C576 1.405 . S
C575 C608 1.587 . S
C576 C575 1.405 . S
C576 C577 1.332 . S
C576 C579 1.496 . S
C577 C572 1.418 . S
C577 C576 1.332 . S
C577 H635 0.929 . S
C578 C574 1.527 . S
C578 H636 0.959 . S
C578 H637 0.961 . S
C578 H638 0.961 . S
C579 C576 1.496 . S
C579 H639 0.960 . S
C579 H640 0.960 . S
C579 H641 0.961 . S
C580 C581 1.517 . S
C580 H643 0.961 . S
C580 H644 0.960 . S
C580 H645 0.959 . S
C581 C580 1.517 . S
C581 O629 1.468 . S
C581 H642 0.980 . S
C582 C583 1.349 . S
C582 C587 1.367 . S
C582 O629 1.408 . S
C583 C582 1.349 . S
C583 C584 1.407 . S
C583 H646 0.930 . S
C584 C583 1.407 . S
C584 C585 1.449 . S
C584 C588 1.535 . S
C585 C584 1.449 . S
C585 C586 1.384 . S
C585 C610 1.553 . S
C586 C585 1.384 . S
C586 C587 1.364 . S
C586 C589 1.450 . S
C587 C582 1.367 . S
C587 C586 1.364 . S
C587 H647 0.931 . S
C588 C584 1.535 . S
C588 H648 0.959 . S
C588 H649 0.961 . S
C588 H650 0.959 . S
C589 C586 1.450 . S
C589 H651 0.960 . S
C589 H652 0.960 . S
C589 H653 0.960 . S
C590 C591 1.309 . S
C590 C595 1.304 . S
C590 O628 1.435 . S
C591 C590 1.309 . S
C591 C592 1.476 . S
C591 H655 0.930 . S
C592 C591 1.476 . S
C592 C593 1.400 . S
C592 C596 1.567 . S
C593 C592 1.400 . S
C593 C594 1.373 . S
C593 C615 1.432 . S
C594 C593 1.373 . S
C594 C595 1.339 . S
C594 C597 1.530 . S
C595 C590 1.304 . S
C595 C594 1.339 . S
C595 H656 0.930 . S
C596 C592 1.567 . S
C596 H657 0.961 . S
C596 H658 0.960 . S
C596 H659 0.958 . S
C597 C594 1.530 . S
C597 H660 0.961 . S
C597 H661 0.960 . S
C597 H662 0.960 . S
C598 C599 1.530 . S
C598 H664 0.961 . S
C598 H665 0.961 . S
C598 H666 0.959 . S
C599 C598 1.530 . S
C599 O627 1.412 . S
C599 H663 0.980 . S
C600 C601 1.288 . S
C600 C605 1.377 . S
C600 O627 1.393 . S
C601 C600 1.288 . S
C601 C602 1.369 . S
C601 H667 0.932 . S
C602 C601 1.369 . S
C602 C603 1.398 . S
C602 C606 1.527 . S
C603 C602 1.398 . S
C603 C604 1.380 . S
C603 C617 1.497 . S
C604 C603 1.380 . S
C604 C605 1.383 . S
C604 C607 1.603 . S
C605 C600 1.377 . S
C605 C604 1.383 . S
C605 H668 0.929 . S
C606 C602 1.527 . S
C606 H669 0.961 . S
C606 H670 0.959 . S
C606 H671 0.959 . S
C607 C604 1.603 . S
C607 H672 0.960 . S
C607 H673 0.962 . S
C607 H674 0.961 . S
C608 C575 1.587 . S
C608 C609 1.360 . S
C608 C621 1.412 . S
C609 C608 1.360 . S
C609 C610 1.365 . S
C609 H675 0.929 . S
C610 C585 1.553 . S
C610 C609 1.365 . S
C610 C611 1.404 . S
C611 C610 1.404 . S
C611 C612 1.395 . S
C611 C622 1.451 . S
C612 C611 1.395 . S
C612 C613 1.322 . S
C612 H676 0.930 . S
C613 C612 1.322 . S
C613 C614 1.459 . S
C613 H677 0.929 . S
C614 C613 1.459 . S
C614 C615 1.445 . S
C614 C623 1.395 . S
C615 C593 1.432 . S
C615 C614 1.445 . S
C615 C616 1.370 . S
C616 C615 1.370 . S
C616 C617 1.438 . S
C616 H678 0.930 . S
C617 C603 1.497 . S
C617 C616 1.438 . S
C617 C618 1.360 . S
C618 C617 1.360 . S
C618 C619 1.401 . S
C618 C623 1.446 . S
C619 C618 1.401 . S
C619 C620 1.347 . S
C619 H679 0.929 . S
C620 C619 1.347 . S
C620 C621 1.455 . S
C620 H680 0.930 . S
C621 C608 1.412 . S
C621 C620 1.455 . S
C621 C622 1.331 . S
C622 C611 1.451 . S
C622 C621 1.331 . S
C622 C623 1.497 . S
C623 C614 1.395 . S
C623 C618 1.446 . S
C623 C622 1.497 . S
C624 C625 1.582 . S
C624 H681 0.962 . S
C624 H682 0.959 . S
C624 H683 0.958 . S
C625 C624 1.582 . S
C625 O628 1.458 . S
C625 H654 0.980 . S
O626 C571 1.426 . S
O626 C572 1.334 . S
O627 C599 1.412 . S
O627 C600 1.393 . S
O628 C590 1.435 . S
O628 C625 1.458 . S
O629 C581 1.468 . S
O629 C582 1.408 . S
H630 C571 0.980 . S
H631 C570 0.959 . S
H632 C570 0.959 . S
H633 C570 0.960 . S
H634 C573 0.929 . S
H635 C577 0.929 . S
H636 C578 0.959 . S
H637 C578 0.961 . S
H638 C578 0.961 . S
H639 C579 0.960 . S
H640 C579 0.960 . S
H641 C579 0.961 . S
H642 C581 0.980 . S
H643 C580 0.961 . S
H644 C580 0.960 . S
H645 C580 0.959 . S
H646 C583 0.930 . S
H647 C587 0.931 . S
H648 C588 0.959 . S
H649 C588 0.961 . S
H650 C588 0.959 . S
H651 C589 0.960 . S
H652 C589 0.960 . S
H653 C589 0.960 . S
H654 C625 0.980 . S
H655 C591 0.930 . S
H656 C595 0.930 . S
H657 C596 0.961 . S
H658 C596 0.960 . S
H659 C596 0.958 . S
H660 C597 0.961 . S
H661 C597 0.960 . S
H662 C597 0.960 . S
H663 C599 0.980 . S
H664 C598 0.961 . S
H665 C598 0.961 . S
H666 C598 0.959 . S
H667 C601 0.932 . S
H668 C605 0.929 . S
H669 C606 0.961 . S
H670 C606 0.959 . S
H671 C606 0.959 . S
H672 C607 0.960 . S
H673 C607 0.962 . S
H674 C607 0.961 . S
H675 C609 0.929 . S
H676 C612 0.930 . S
H677 C613 0.929 . S
H678 C616 0.930 . S
H679 C619 0.929 . S
H680 C620 0.930 . S
H681 C624 0.962 . S
H682 C624 0.959 . S
H683 C624 0.958 . S
Zn684 O687 2.031 . S
Zn684 O689 2.049 . S
Zn684 O694 2.067 . S
Zn685 O686 1.962 . S
Zn685 O688 1.986 . S
Zn685 O690 1.996 . S
Zn685 O693 1.943 . S
O686 Zn685 1.962 . S
O686 C691 1.254 . S
O687 Zn684 2.031 . S
O687 C691 1.269 . S
O688 Zn685 1.986 . S
O688 C695 1.262 . S
O689 Zn684 2.049 . S
O689 C697 1.260 . S
O690 Zn685 1.996 . S
O690 C697 1.257 . S
C691 O686 1.254 . S
C691 O687 1.269 . S
C692 O693 1.249 . S
C692 O694 1.270 . S
O693 Zn685 1.943 . S
O693 C692 1.249 . S
O694 Zn684 2.067 . S
O694 C692 1.270 . S
C695 O688 1.262 . S
C695 O696 1.232 . S
O696 C695 1.232 . S
C697 O689 1.260 . S
C697 O690 1.257 . S
Zn698 O701 2.031 . S
Zn698 O703 2.049 . S
Zn698 O708 2.067 . S
Zn699 O700 1.962 . S
Zn699 O702 1.986 . S
Zn699 O704 1.996 . S
Zn699 O707 1.943 . S
O700 Zn699 1.962 . S
O700 C705 1.254 . S
O701 Zn698 2.031 . S
O701 C705 1.269 . S
O702 Zn699 1.986 . S
O702 C709 1.262 . S
O703 Zn698 2.049 . S
O703 C711 1.260 . S
O704 Zn699 1.996 . S
O704 C711 1.257 . S
C705 O700 1.254 . S
C705 O701 1.269 . S
C706 O707 1.249 . S
C706 O708 1.270 . S
O707 Zn699 1.943 . S
O707 C706 1.249 . S
O708 Zn698 2.067 . S
O708 C706 1.270 . S
C709 O702 1.262 . S
C709 O710 1.232 . S
O710 C709 1.232 . S
C711 O703 1.260 . S
C711 O704 1.257 . S
Zn712 O715 2.031 . S
Zn712 O717 2.049 . S
Zn712 O722 2.067 . S
Zn713 O714 1.962 . S
Zn713 O716 1.986 . S
Zn713 O718 1.996 . S
Zn713 O721 1.943 . S
O714 Zn713 1.962 . S
O714 C719 1.254 . S
O715 Zn712 2.031 . S
O715 C719 1.269 . S
O716 Zn713 1.986 . S
O716 C723 1.262 . S
O717 Zn712 2.049 . S
O717 C725 1.260 . S
O718 Zn713 1.996 . S
O718 C725 1.257 . S
C719 O714 1.254 . S
C719 O715 1.269 . S
C720 O721 1.249 . S
C720 O722 1.270 . S
O721 Zn713 1.943 . S
O721 C720 1.249 . S
O722 Zn712 2.067 . S
O722 C720 1.270 . S
C723 O716 1.262 . S
C723 O724 1.232 . S
O724 C723 1.232 . S
C725 O717 1.260 . S
C725 O718 1.257 . S
Zn726 O729 2.031 . S
Zn726 O731 2.049 . S
Zn726 O736 2.067 . S
Zn727 O728 1.962 . S
Zn727 O730 1.986 . S
Zn727 O732 1.996 . S
Zn727 O735 1.943 . S
O728 Zn727 1.962 . S
O728 C733 1.254 . S
O729 Zn726 2.031 . S
O729 C733 1.269 . S
O730 Zn727 1.986 . S
O730 C737 1.262 . S
O731 Zn726 2.049 . S
O731 C739 1.260 . S
O732 Zn727 1.996 . S
O732 C739 1.257 . S
C733 O728 1.254 . S
C733 O729 1.269 . S
C734 O735 1.249 . S
C734 O736 1.270 . S
O735 Zn727 1.943 . S
O735 C734 1.249 . S
O736 Zn726 2.067 . S
O736 C734 1.270 . S
C737 O730 1.262 . S
C737 O738 1.232 . S
O738 C737 1.232 . S
C739 O731 1.260 . S
C739 O732 1.257 . S
Zn740 O743 2.031 . S
Zn740 O745 2.049 . S
Zn740 O750 2.067 . S
Zn741 O742 1.962 . S
Zn741 O744 1.986 . S
Zn741 O746 1.996 . S
Zn741 O749 1.943 . S
O742 Zn741 1.962 . S
O742 C747 1.254 . S
O743 Zn740 2.031 . S
O743 C747 1.269 . S
O744 Zn741 1.986 . S
O744 C751 1.262 . S
O745 Zn740 2.049 . S
O745 C753 1.260 . S
O746 Zn741 1.996 . S
O746 C753 1.257 . S
C747 O742 1.254 . S
C747 O743 1.269 . S
C748 O749 1.249 . S
C748 O750 1.270 . S
O749 Zn741 1.943 . S
O749 C748 1.249 . S
O750 Zn740 2.067 . S
O750 C748 1.270 . S
C751 O744 1.262 . S
C751 O752 1.232 . S
O752 C751 1.232 . S
C753 O745 1.260 . S
C753 O746 1.257 . S
Zn754 O757 2.031 . S
Zn754 O759 2.049 . S
Zn754 O764 2.067 . S
Zn755 O756 1.962 . S
Zn755 O758 1.986 . S
Zn755 O760 1.996 . S
Zn755 O763 1.943 . S
O756 Zn755 1.962 . S
O756 C761 1.254 . S
O757 Zn754 2.031 . S
O757 C761 1.269 . S
O758 Zn755 1.986 . S
O758 C765 1.262 . S
O759 Zn754 2.049 . S
O759 C767 1.260 . S
O760 Zn755 1.996 . S
O760 C767 1.257 . S
C761 O756 1.254 . S
C761 O757 1.269 . S
C762 O763 1.249 . S
C762 O764 1.270 . S
O763 Zn755 1.943 . S
O763 C762 1.249 . S
O764 Zn754 2.067 . S
O764 C762 1.270 . S
C765 O758 1.262 . S
C765 O766 1.232 . S
O766 C765 1.232 . S
C767 O759 1.260 . S
C767 O760 1.257 . S
H768 C774 0.930 . S
H769 C778 0.930 . S
H770 C783 0.929 . S
H771 C781 0.929 . S
H772 C776 0.929 . S
H773 C782 0.929 . S
C774 H768 0.930 . S
C774 C775 1.367 . S
C774 C782 1.378 . S
C775 C774 1.367 . S
C775 C783 1.433 . S
C776 H772 0.929 . S
C776 C778 1.378 . S
C776 C780 1.350 . S
C777 C780 1.463 . S
C777 C782 1.350 . S
C777 N785 1.427 . S
C778 H769 0.930 . S
C778 C776 1.378 . S
C778 C779 1.367 . S
C779 C778 1.367 . S
C779 C781 1.433 . S
C780 C776 1.350 . S
C780 C777 1.463 . S
C780 N784 1.427 . S
C781 H771 0.929 . S
C781 C779 1.433 . S
C781 N784 1.384 . S
C782 H773 0.929 . S
C782 C774 1.378 . S
C782 C777 1.350 . S
C783 H770 0.929 . S
C783 C775 1.433 . S
C783 N785 1.384 . S
N784 C780 1.427 . S
N784 C781 1.384 . S
N785 C777 1.427 . S
N785 C783 1.384 . S
H786 C792 0.930 . S
H787 C796 0.930 . S
H788 C801 0.929 . S
H789 C799 0.929 . S
H790 C794 0.929 . S
H791 C800 0.929 . S
C792 H786 0.930 . S
C792 C793 1.367 . S
C792 C800 1.378 . S
C793 C792 1.367 . S
C793 C801 1.433 . S
C794 H790 0.929 . S
C794 C796 1.378 . S
C794 C798 1.350 . S
C795 C798 1.463 . S
C795 C800 1.350 . S
C795 N803 1.427 . S
C796 H787 0.930 . S
C796 C794 1.378 . S
C796 C797 1.367 . S
C797 C796 1.367 . S
C797 C799 1.433 . S
C798 C794 1.350 . S
C798 C795 1.463 . S
C798 N802 1.427 . S
C799 H789 0.929 . S
C799 C797 1.433 . S
C799 N802 1.384 . S
C800 H791 0.929 . S
C800 C792 1.378 . S
C800 C795 1.350 . S
C801 H788 0.929 . S
C801 C793 1.433 . S
C801 N803 1.384 . S
N802 C798 1.427 . S
N802 C799 1.384 . S
N803 C795 1.427 . S
N803 C801 1.384 . S
H804 C810 0.930 . S
H805 C814 0.930 . S
H806 C819 0.929 . S
H807 C817 0.929 . S
H808 C812 0.929 . S
H809 C818 0.929 . S
C810 H804 0.930 . S
C810 C811 1.367 . S
C810 C818 1.378 . S
C811 C810 1.367 . S
C811 C819 1.433 . S
C812 H808 0.929 . S
C812 C814 1.378 . S
C812 C816 1.350 . S
C813 C816 1.463 . S
C813 C818 1.350 . S
C813 N821 1.427 . S
C814 H805 0.930 . S
C814 C812 1.378 . S
C814 C815 1.367 . S
C815 C814 1.367 . S
C815 C817 1.433 . S
C816 C812 1.350 . S
C816 C813 1.463 . S
C816 N820 1.427 . S
C817 H807 0.929 . S
C817 C815 1.433 . S
C817 N820 1.384 . S
C818 H809 0.929 . S
C818 C810 1.378 . S
C818 C813 1.350 . S
C819 H806 0.929 . S
C819 C811 1.433 . S
C819 N821 1.384 . S
N820 C816 1.427 . S
N820 C817 1.384 . S
N821 C813 1.427 . S
N821 C819 1.384 . S
H822 C828 0.930 . S
H823 C832 0.930 . S
H824 C837 0.929 . S
H825 C835 0.929 . S
H826 C830 0.929 . S
H827 C836 0.929 . S
C828 H822 0.930 . S
C828 C829 1.367 . S
C828 C836 1.378 . S
C829 C828 1.367 . S
C829 C837 1.433 . S
C830 H826 0.929 . S
C830 C832 1.378 . S
C830 C834 1.350 . S
C831 C834 1.463 . S
C831 C836 1.350 . S
C831 N839 1.427 . S
C832 H823 0.930 . S
C832 C830 1.378 . S
C832 C833 1.367 . S
C833 C832 1.367 . S
C833 C835 1.433 . S
C834 C830 1.350 . S
C834 C831 1.463 . S
C834 N838 1.427 . S
C835 H825 0.929 . S
C835 C833 1.433 . S
C835 N838 1.384 . S
C836 H827 0.929 . S
C836 C828 1.378 . S
C836 C831 1.350 . S
C837 H824 0.929 . S
C837 C829 1.433 . S
C837 N839 1.384 . S
N838 C834 1.427 . S
N838 C835 1.384 . S
N839 C831 1.427 . S
N839 C837 1.384 . S
H840 C846 0.930 . S
H841 C850 0.930 . S
H842 C855 0.929 . S
H843 C853 0.929 . S
H844 C848 0.929 . S
H845 C854 0.929 . S
C846 H840 0.930 . S
C846 C847 1.367 . S
C846 C854 1.378 . S
C847 C846 1.367 . S
C847 C855 1.433 . S
C848 H844 0.929 . S
C848 C850 1.378 . S
C848 C852 1.350 . S
C849 C852 1.463 . S
C849 C854 1.350 . S
C849 N857 1.427 . S
C850 H841 0.930 . S
C850 C848 1.378 . S
C850 C851 1.367 . S
C851 C850 1.367 . S
C851 C853 1.433 . S
C852 C848 1.350 . S
C852 C849 1.463 . S
C852 N856 1.427 . S
C853 H843 0.929 . S
C853 C851 1.433 . S
C853 N856 1.384 . S
C854 H845 0.929 . S
C854 C846 1.378 . S
C854 C849 1.350 . S
C855 H842 0.929 . S
C855 C847 1.433 . S
C855 N857 1.384 . S
N856 C852 1.427 . S
N856 C853 1.384 . S
N857 C849 1.427 . S
N857 C855 1.384 . S
H858 C864 0.930 . S
H859 C868 0.930 . S
H860 C873 0.929 . S
H861 C871 0.929 . S
H862 C866 0.929 . S
H863 C872 0.929 . S
C864 H858 0.930 . S
C864 C865 1.367 . S
C864 C872 1.378 . S
C865 C864 1.367 . S
C865 C873 1.433 . S
C866 H862 0.929 . S
C866 C868 1.378 . S
C866 C870 1.350 . S
C867 C870 1.463 . S
C867 C872 1.350 . S
C867 N875 1.427 . S
C868 H859 0.930 . S
C868 C866 1.378 . S
C868 C869 1.367 . S
C869 C868 1.367 . S
C869 C871 1.433 . S
C870 C866 1.350 . S
C870 C867 1.463 . S
C870 N874 1.427 . S
C871 H861 0.929 . S
C871 C869 1.433 . S
C871 N874 1.384 . S
C872 H863 0.929 . S
C872 C864 1.378 . S
C872 C867 1.350 . S
C873 H860 0.929 . S
C873 C865 1.433 . S
C873 N875 1.384 . S
N874 C870 1.427 . S
N874 C871 1.384 . S
N875 C867 1.427 . S
N875 C873 1.384 . S
H876 C882 0.930 . S
H877 C886 0.930 . S
H878 C891 0.929 . S
H879 C889 0.929 . S
H880 C884 0.929 . S
H881 C890 0.929 . S
C882 H876 0.930 . S
C882 C883 1.367 . S
C882 C890 1.378 . S
C883 C882 1.367 . S
C883 C891 1.433 . S
C884 H880 0.929 . S
C884 C886 1.378 . S
C884 C888 1.350 . S
C885 C888 1.463 . S
C885 C890 1.350 . S
C885 N893 1.427 . S
C886 H877 0.930 . S
C886 C884 1.378 . S
C886 C887 1.367 . S
C887 C886 1.367 . S
C887 C889 1.433 . S
C888 C884 1.350 . S
C888 C885 1.463 . S
C888 N892 1.427 . S
C889 H879 0.929 . S
C889 C887 1.433 . S
C889 N892 1.384 . S
C890 H881 0.929 . S
C890 C882 1.378 . S
C890 C885 1.350 . S
C891 H878 0.929 . S
C891 C883 1.433 . S
C891 N893 1.384 . S
N892 C888 1.427 . S
N892 C889 1.384 . S
N893 C885 1.427 . S
N893 C891 1.384 . S
H894 C900 0.930 . S
H895 C904 0.930 . S
H896 C909 0.929 . S
H897 C907 0.929 . S
H898 C902 0.929 . S
H899 C908 0.929 . S
C900 H894 0.930 . S
C900 C901 1.367 . S
C900 C908 1.378 . S
C901 C900 1.367 . S
C901 C909 1.433 . S
C902 H898 0.929 . S
C902 C904 1.378 . S
C902 C906 1.350 . S
C903 C906 1.463 . S
C903 C908 1.350 . S
C903 N911 1.427 . S
C904 H895 0.930 . S
C904 C902 1.378 . S
C904 C905 1.367 . S
C905 C904 1.367 . S
C905 C907 1.433 . S
C906 C902 1.350 . S
C906 C903 1.463 . S
C906 N910 1.427 . S
C907 H897 0.929 . S
C907 C905 1.433 . S
C907 N910 1.384 . S
C908 H899 0.929 . S
C908 C900 1.378 . S
C908 C903 1.350 . S
C909 H896 0.929 . S
C909 C901 1.433 . S
C909 N911 1.384 . S
N910 C906 1.427 . S
N910 C907 1.384 . S
N911 C903 1.427 . S
N911 C909 1.384 . S
H912 C918 0.930 . S
H913 C922 0.930 . S
H914 C927 0.929 . S
H915 C925 0.929 . S
H916 C920 0.929 . S
H917 C926 0.929 . S
C918 H912 0.930 . S
C918 C919 1.367 . S
C918 C926 1.378 . S
C919 C918 1.367 . S
C919 C927 1.433 . S
C920 H916 0.929 . S
C920 C922 1.378 . S
C920 C924 1.350 . S
C921 C924 1.463 . S
C921 C926 1.350 . S
C921 N929 1.427 . S
C922 H913 0.930 . S
C922 C920 1.378 . S
C922 C923 1.367 . S
C923 C922 1.367 . S
C923 C925 1.433 . S
C924 C920 1.350 . S
C924 C921 1.463 . S
C924 N928 1.427 . S
C925 H915 0.929 . S
C925 C923 1.433 . S
C925 N928 1.384 . S
C926 H917 0.929 . S
C926 C918 1.378 . S
C926 C921 1.350 . S
C927 H914 0.929 . S
C927 C919 1.433 . S
C927 N929 1.384 . S
N928 C924 1.427 . S
N928 C925 1.384 . S
N929 C921 1.427 . S
N929 C927 1.384 . S
H930 C936 0.930 . S
H931 C940 0.930 . S
H932 C945 0.929 . S
H933 C943 0.929 . S
H934 C938 0.929 . S
H935 C944 0.929 . S
C936 H930 0.930 . S
C936 C937 1.367 . S
C936 C944 1.378 . S
C937 C936 1.367 . S
C937 C945 1.433 . S
C938 H934 0.929 . S
C938 C940 1.378 . S
C938 C942 1.350 . S
C939 C942 1.463 . S
C939 C944 1.350 . S
C939 N947 1.427 . S
C940 H931 0.930 . S
C940 C938 1.378 . S
C940 C941 1.367 . S
C941 C940 1.367 . S
C941 C943 1.433 . S
C942 C938 1.350 . S
C942 C939 1.463 . S
C942 N946 1.427 . S
C943 H933 0.929 . S
C943 C941 1.433 . S
C943 N946 1.384 . S
C944 H935 0.929 . S
C944 C936 1.378 . S
C944 C939 1.350 . S
C945 H932 0.929 . S
C945 C937 1.433 . S
C945 N947 1.384 . S
N946 C942 1.427 . S
N946 C943 1.384 . S
N947 C939 1.427 . S
N947 C945 1.384 . S
H948 C954 0.930 . S
H949 C958 0.930 . S
H950 C963 0.929 . S
H951 C961 0.929 . S
H952 C956 0.929 . S
H953 C962 0.929 . S
C954 H948 0.930 . S
C954 C955 1.367 . S
C954 C962 1.378 . S
C955 C954 1.367 . S
C955 C963 1.433 . S
C956 H952 0.929 . S
C956 C958 1.378 . S
C956 C960 1.350 . S
C957 C960 1.463 . S
C957 C962 1.350 . S
C957 N965 1.427 . S
C958 H949 0.930 . S
C958 C956 1.378 . S
C958 C959 1.367 . S
C959 C958 1.367 . S
C959 C961 1.433 . S
C960 C956 1.350 . S
C960 C957 1.463 . S
C960 N964 1.427 . S
C961 H951 0.929 . S
C961 C959 1.433 . S
C961 N964 1.384 . S
C962 H953 0.929 . S
C962 C954 1.378 . S
C962 C957 1.350 . S
C963 H950 0.929 . S
C963 C955 1.433 . S
C963 N965 1.384 . S
N964 C960 1.427 . S
N964 C961 1.384 . S
N965 C957 1.427 . S
N965 C963 1.384 . S
H966 C972 0.930 . S
H967 C976 0.930 . S
H968 C981 0.929 . S
H969 C979 0.929 . S
H970 C974 0.929 . S
H971 C980 0.929 . S
C972 H966 0.930 . S
C972 C973 1.367 . S
C972 C980 1.378 . S
C973 C972 1.367 . S
C973 C981 1.433 . S
C974 H970 0.929 . S
C974 C976 1.378 . S
C974 C978 1.350 . S
C975 C978 1.463 . S
C975 C980 1.350 . S
C975 N983 1.427 . S
C976 H967 0.930 . S
C976 C974 1.378 . S
C976 C977 1.367 . S
C977 C976 1.367 . S
C977 C979 1.433 . S
C978 C974 1.350 . S
C978 C975 1.463 . S
C978 N982 1.427 . S
C979 H969 0.929 . S
C979 C977 1.433 . S
C979 N982 1.384 . S
C980 H971 0.929 . S
C980 C972 1.378 . S
C980 C975 1.350 . S
C981 H968 0.929 . S
C981 C973 1.433 . S
C981 N983 1.384 . S
N982 C978 1.427 . S
N982 C979 1.384 . S
N983 C975 1.427 . S
N983 C981 1.384 . S
H984 C990 0.930 . S
H985 C994 0.930 . S
H986 C999 0.929 . S
H987 C997 0.929 . S
H988 C992 0.929 . S
H989 C998 0.929 . S
C990 H984 0.930 . S
C990 C991 1.367 . S
C990 C998 1.378 . S
C991 C990 1.367 . S
C991 C999 1.433 . S
C992 H988 0.929 . S
C992 C994 1.378 . S
C992 C996 1.350 . S
C993 C996 1.463 . S
C993 C998 1.350 . S
C993 N1001 1.427 . S
C994 H985 0.930 . S
C994 C992 1.378 . S
C994 C995 1.367 . S
C995 C994 1.367 . S
C995 C997 1.433 . S
C996 C992 1.350 . S
C996 C993 1.463 . S
C996 N1000 1.427 . S
C997 H987 0.929 . S
C997 C995 1.433 . S
C997 N1000 1.384 . S
C998 H989 0.929 . S
C998 C990 1.378 . S
C998 C993 1.350 . S
C999 H986 0.929 . S
C999 C991 1.433 . S
C999 N1001 1.384 . S
N1000 C996 1.427 . S
N1000 C997 1.384 . S
N1001 C993 1.427 . S
N1001 C999 1.384 . S
H1002 C1008 0.930 . S
H1003 C1012 0.930 . S
H1004 C1017 0.929 . S
H1005 C1015 0.929 . S
H1006 C1010 0.929 . S
H1007 C1016 0.929 . S
C1008 H1002 0.930 . S
C1008 C1009 1.367 . S
C1008 C1016 1.378 . S
C1009 C1008 1.367 . S
C1009 C1017 1.433 . S
C1010 H1006 0.929 . S
C1010 C1012 1.378 . S
C1010 C1014 1.350 . S
C1011 C1014 1.463 . S
C1011 C1016 1.350 . S
C1011 N1019 1.427 . S
C1012 H1003 0.930 . S
C1012 C1010 1.378 . S
C1012 C1013 1.367 . S
C1013 C1012 1.367 . S
C1013 C1015 1.433 . S
C1014 C1010 1.350 . S
C1014 C1011 1.463 . S
C1014 N1018 1.427 . S
C1015 H1005 0.929 . S
C1015 C1013 1.433 . S
C1015 N1018 1.384 . S
C1016 H1007 0.929 . S
C1016 C1008 1.378 . S
C1016 C1011 1.350 . S
C1017 H1004 0.929 . S
C1017 C1009 1.433 . S
C1017 N1019 1.384 . S
N1018 C1014 1.427 . S
N1018 C1015 1.384 . S
N1019 C1011 1.427 . S
N1019 C1017 1.384 . S
H1020 C1026 0.930 . S
H1021 C1030 0.930 . S
H1022 C1035 0.929 . S
H1023 C1033 0.929 . S
H1024 C1028 0.929 . S
H1025 C1034 0.929 . S
C1026 H1020 0.930 . S
C1026 C1027 1.367 . S
C1026 C1034 1.378 . S
C1027 C1026 1.367 . S
C1027 C1035 1.433 . S
C1028 H1024 0.929 . S
C1028 C1030 1.378 . S
C1028 C1032 1.350 . S
C1029 C1032 1.463 . S
C1029 C1034 1.350 . S
C1029 N1037 1.427 . S
C1030 H1021 0.930 . S
C1030 C1028 1.378 . S
C1030 C1031 1.367 . S
C1031 C1030 1.367 . S
C1031 C1033 1.433 . S
C1032 C1028 1.350 . S
C1032 C1029 1.463 . S
C1032 N1036 1.427 . S
C1033 H1023 0.929 . S
C1033 C1031 1.433 . S
C1033 N1036 1.384 . S
C1034 H1025 0.929 . S
C1034 C1026 1.378 . S
C1034 C1029 1.350 . S
C1035 H1022 0.929 . S
C1035 C1027 1.433 . S
C1035 N1037 1.384 . S
N1036 C1032 1.427 . S
N1036 C1033 1.384 . S
N1037 C1029 1.427 . S
N1037 C1035 1.384 . S
H1038 C1044 0.930 . S
H1039 C1048 0.930 . S
H1040 C1053 0.929 . S
H1041 C1051 0.929 . S
H1042 C1046 0.929 1_556 S
H1043 C1052 0.929 . S
C1044 H1038 0.930 . S
C1044 C1045 1.367 . S
C1044 C1052 1.378 . S
C1045 C1044 1.367 . S
C1045 C1053 1.433 . S
C1046 H1042 0.929 1_554 S
C1046 C1048 1.378 . S
C1046 C1050 1.350 1_554 S
C1047 C1050 1.463 . S
C1047 C1052 1.350 . S
C1047 N1055 1.427 . S
C1048 H1039 0.930 . S
C1048 C1046 1.378 . S
C1048 C1049 1.367 . S
C1049 C1048 1.367 . S
C1049 C1051 1.433 . S
C1050 C1046 1.350 1_556 S
C1050 C1047 1.463 . S
C1050 N1054 1.423 1_556 S
C1051 H1041 0.929 . S
C1051 C1049 1.433 . S
C1051 N1054 1.395 . S
C1052 H1043 0.929 . S
C1052 C1044 1.378 . S
C1052 C1047 1.350 . S
C1053 H1040 0.929 . S
C1053 C1045 1.433 . S
C1053 N1055 1.384 . S
N1054 C1050 1.423 1_554 S
N1054 C1051 1.395 . S
N1055 C1047 1.427 . S
N1055 C1053 1.384 . S
H1056 C1062 0.930 . S
H1057 C1066 0.930 . S
H1058 C1071 0.929 . S
H1059 C1069 0.929 . S
H1060 C1064 0.929 . S
H1061 C1070 0.929 . S
C1062 H1056 0.930 . S
C1062 C1063 1.367 . S
C1062 C1070 1.378 . S
C1063 C1062 1.367 . S
C1063 C1071 1.433 . S
C1064 H1060 0.929 . S
C1064 C1066 1.378 . S
C1064 C1068 1.350 . S
C1065 C1068 1.463 . S
C1065 C1070 1.350 . S
C1065 N1073 1.427 . S
C1066 H1057 0.930 . S
C1066 C1064 1.378 . S
C1066 C1067 1.367 . S
C1067 C1066 1.367 . S
C1067 C1069 1.433 . S
C1068 C1064 1.350 . S
C1068 C1065 1.463 . S
C1068 N1072 1.427 . S
C1069 H1059 0.929 . S
C1069 C1067 1.433 . S
C1069 N1072 1.384 . S
C1070 H1061 0.929 . S
C1070 C1062 1.378 . S
C1070 C1065 1.350 . S
C1071 H1058 0.929 . S
C1071 C1063 1.433 . S
C1071 N1073 1.384 . S
N1072 C1068 1.427 . S
N1072 C1069 1.384 . S
N1073 C1065 1.427 . S
N1073 C1071 1.384 . S
H1074 C1080 0.930 . S
H1075 C1084 0.930 . S
H1076 C1089 0.929 . S
H1077 C1087 0.929 . S
H1078 C1082 0.929 . S
H1079 C1088 0.929 . S
C1080 H1074 0.930 . S
C1080 C1081 1.367 . S
C1080 C1088 1.378 . S
C1081 C1080 1.367 . S
C1081 C1089 1.433 . S
C1082 H1078 0.929 . S
C1082 C1084 1.378 . S
C1082 C1086 1.350 . S
C1083 C1086 1.463 . S
C1083 C1088 1.350 . S
C1083 N1091 1.427 . S
C1084 H1075 0.930 . S
C1084 C1082 1.378 . S
C1084 C1085 1.367 . S
C1085 C1084 1.367 . S
C1085 C1087 1.433 . S
C1086 C1082 1.350 . S
C1086 C1083 1.463 . S
C1086 N1090 1.427 . S
C1087 H1077 0.929 . S
C1087 C1085 1.433 . S
C1087 N1090 1.384 . S
C1088 H1079 0.929 . S
C1088 C1080 1.378 . S
C1088 C1083 1.350 . S
C1089 H1076 0.929 . S
C1089 C1081 1.433 . S
C1089 N1091 1.384 . S
N1090 C1086 1.427 . S
N1090 C1087 1.384 . S
N1091 C1083 1.427 . S
N1091 C1089 1.384 . S
H1092 C1098 0.930 . S
H1093 C1102 0.930 . S
H1094 C1107 0.929 . S
H1095 C1105 0.929 . S
H1096 C1100 0.929 . S
H1097 C1106 0.929 . S
C1098 H1092 0.930 . S
C1098 C1099 1.367 . S
C1098 C1106 1.378 . S
C1099 C1098 1.367 . S
C1099 C1107 1.433 . S
C1100 H1096 0.929 . S
C1100 C1102 1.378 . S
C1100 C1104 1.350 . S
C1101 C1104 1.463 . S
C1101 C1106 1.350 . S
C1101 N1109 1.427 . S
C1102 H1093 0.930 . S
C1102 C1100 1.378 . S
C1102 C1103 1.367 . S
C1103 C1102 1.367 . S
C1103 C1105 1.433 . S
C1104 C1100 1.350 . S
C1104 C1101 1.463 . S
C1104 N1108 1.427 . S
C1105 H1095 0.929 . S
C1105 C1103 1.433 . S
C1105 N1108 1.384 . S
C1106 H1097 0.929 . S
C1106 C1098 1.378 . S
C1106 C1101 1.350 . S
C1107 H1094 0.929 . S
C1107 C1099 1.433 . S
C1107 N1109 1.384 . S
N1108 C1104 1.427 . S
N1108 C1105 1.384 . S
N1109 C1101 1.427 . S
N1109 C1107 1.384 . S
H1110 C1116 0.930 . S
H1111 C1120 0.930 . S
H1112 C1125 0.929 . S
H1113 C1123 0.929 . S
H1114 C1118 0.929 . S
H1115 C1124 0.929 . S
C1116 H1110 0.930 . S
C1116 C1117 1.367 . S
C1116 C1124 1.378 . S
C1117 C1116 1.367 . S
C1117 C1125 1.433 . S
C1118 H1114 0.929 . S
C1118 C1120 1.378 . S
C1118 C1122 1.350 . S
C1119 C1122 1.463 . S
C1119 C1124 1.350 . S
C1119 N1127 1.427 . S
C1120 H1111 0.930 . S
C1120 C1118 1.378 . S
C1120 C1121 1.367 . S
C1121 C1120 1.367 . S
C1121 C1123 1.433 . S
C1122 C1118 1.350 . S
C1122 C1119 1.463 . S
C1122 N1126 1.427 . S
C1123 H1113 0.929 . S
C1123 C1121 1.433 . S
C1123 N1126 1.384 . S
C1124 H1115 0.929 . S
C1124 C1116 1.378 . S
C1124 C1119 1.350 . S
C1125 H1112 0.929 . S
C1125 C1117 1.433 . S
C1125 N1127 1.384 . S
N1126 C1122 1.427 . S
N1126 C1123 1.384 . S
N1127 C1119 1.427 . S
N1127 C1125 1.384 . S
H1128 C1134 0.930 . S
H1129 C1138 0.930 . S
H1130 C1143 0.929 . S
H1131 C1141 0.929 . S
H1132 C1136 0.929 . S
H1133 C1142 0.929 . S
C1134 H1128 0.930 . S
C1134 C1135 1.367 . S
C1134 C1142 1.378 . S
C1135 C1134 1.367 . S
C1135 C1143 1.433 . S
C1136 H1132 0.929 . S
C1136 C1138 1.378 . S
C1136 C1140 1.350 . S
C1137 C1140 1.463 . S
C1137 C1142 1.350 . S
C1137 N1145 1.427 . S
C1138 H1129 0.930 . S
C1138 C1136 1.378 . S
C1138 C1139 1.367 . S
C1139 C1138 1.367 . S
C1139 C1141 1.433 . S
C1140 C1136 1.350 . S
C1140 C1137 1.463 . S
C1140 N1144 1.427 . S
C1141 H1131 0.929 . S
C1141 C1139 1.433 . S
C1141 N1144 1.384 . S
C1142 H1133 0.929 . S
C1142 C1134 1.378 . S
C1142 C1137 1.350 . S
C1143 H1130 0.929 . S
C1143 C1135 1.433 . S
C1143 N1145 1.384 . S
N1144 C1140 1.427 . S
N1144 C1141 1.384 . S
N1145 C1137 1.427 . S
N1145 C1143 1.384 . S
H1146 C1152 0.930 . S
H1147 C1156 0.930 . S
H1148 C1161 0.929 . S
H1149 C1159 0.929 . S
H1150 C1154 0.929 . S
H1151 C1160 0.929 . S
C1152 H1146 0.930 . S
C1152 C1153 1.367 . S
C1152 C1160 1.378 . S
C1153 C1152 1.367 . S
C1153 C1161 1.433 . S
C1154 H1150 0.929 . S
C1154 C1156 1.378 . S
C1154 C1158 1.350 . S
C1155 C1158 1.463 . S
C1155 C1160 1.350 . S
C1155 N1163 1.427 . S
C1156 H1147 0.930 . S
C1156 C1154 1.378 . S
C1156 C1157 1.367 . S
C1157 C1156 1.367 . S
C1157 C1159 1.433 . S
C1158 C1154 1.350 . S
C1158 C1155 1.463 . S
C1158 N1162 1.427 . S
C1159 H1149 0.929 . S
C1159 C1157 1.433 . S
C1159 N1162 1.384 . S
C1160 H1151 0.929 . S
C1160 C1152 1.378 . S
C1160 C1155 1.350 . S
C1161 H1148 0.929 . S
C1161 C1153 1.433 . S
C1161 N1163 1.384 . S
N1162 C1158 1.427 . S
N1162 C1159 1.384 . S
N1163 C1155 1.427 . S
N1163 C1161 1.384 . S
H1164 C1170 0.930 . S
H1165 C1174 0.930 . S
H1166 C1179 0.929 . S
H1167 C1177 0.929 . S
H1168 C1172 0.929 . S
H1169 C1178 0.929 . S
C1170 H1164 0.930 . S
C1170 C1171 1.367 . S
C1170 C1178 1.378 . S
C1171 C1170 1.367 . S
C1171 C1179 1.433 . S
C1172 H1168 0.929 . S
C1172 C1174 1.378 . S
C1172 C1176 1.350 . S
C1173 C1176 1.463 1_554 S
C1173 C1178 1.350 . S
C1173 N1181 1.427 . S
C1174 H1165 0.930 . S
C1174 C1172 1.378 . S
C1174 C1175 1.367 . S
C1175 C1174 1.367 . S
C1175 C1177 1.433 . S
C1176 C1172 1.350 . S
C1176 C1173 1.463 1_556 S
C1176 N1180 1.427 . S
C1177 H1167 0.929 . S
C1177 C1175 1.433 . S
C1177 N1180 1.384 . S
C1178 H1169 0.929 . S
C1178 C1170 1.378 . S
C1178 C1173 1.350 . S
C1179 H1166 0.929 . S
C1179 C1171 1.433 . S
C1179 N1181 1.384 . S
N1180 C1176 1.427 . S
N1180 C1177 1.384 . S
N1181 C1173 1.427 . S
N1181 C1179 1.384 . S
H1182 C1188 0.930 . S
H1183 C1192 0.930 . S
H1184 C1197 0.929 . S
H1185 C1195 0.929 . S
H1186 C1190 0.929 . S
H1187 C1196 0.929 . S
C1188 H1182 0.930 . S
C1188 C1189 1.367 . S
C1188 C1196 1.378 . S
C1189 C1188 1.367 . S
C1189 C1197 1.433 . S
C1190 H1186 0.929 . S
C1190 C1192 1.378 . S
C1190 C1194 1.350 . S
C1191 C1194 1.463 . S
C1191 C1196 1.350 . S
C1191 N1199 1.427 . S
C1192 H1183 0.930 . S
C1192 C1190 1.378 . S
C1192 C1193 1.367 . S
C1193 C1192 1.367 . S
C1193 C1195 1.433 . S
C1194 C1190 1.350 . S
C1194 C1191 1.463 . S
C1194 N1198 1.427 . S
C1195 H1185 0.929 . S
C1195 C1193 1.433 . S
C1195 N1198 1.384 . S
C1196 H1187 0.929 . S
C1196 C1188 1.378 . S
C1196 C1191 1.350 . S
C1197 H1184 0.929 . S
C1197 C1189 1.433 . S
C1197 N1199 1.384 . S
N1198 C1194 1.427 . S
N1198 C1195 1.384 . S
N1199 C1191 1.427 . S
N1199 C1197 1.384 . S
C779 C761 1.621 . S
C775 C1 1.222 . S
C793 C169 1.399 . S
C797 C695 1.621 . S
C811 C283 1.355 . S
C815 C709 1.548 . S
C829 C397 1.279 . S
C833 C723 1.503 . S
C851 C737 1.481 . S
C847 C457 1.122 . S
C865 C571 1.053 . S
C869 C747 1.469 . S
C883 C115 1.188 . S
C887 C705 1.642 . S
C901 C229 1.193 . S
C905 C719 1.644 . S
C919 C343 1.127 . S
C923 C733 1.521 . S
C941 C751 1.585 . S
C937 C511 1.409 . S
C959 C765 1.665 . S
C955 C625 1.430 . S
C977 C691 1.733 . S
C973 C55 1.441 . S
C991 C29 1.179 . S
C995 C706 1.375 . S
C1009 C125 0.972 . S
C1013 C720 1.568 . S
C1031 C734 1.511 . S
C1027 C239 0.959 . S
C1045 C353 0.882 . S
C1049 C753 1.383 . S
C1067 C767 1.267 . S
C1063 C485 1.028 . S
C1085 C692 1.350 . S
C1081 C599 1.114 . S
C1103 C762 1.362 . S
C1099 C143 1.131 . S
C1117 C257 1.041 . S
C1121 C697 1.249 . S
C1139 C711 1.194 . S
C1135 C371 1.014 . S
C1153 C467 0.886 . S
C1157 C725 1.362 . S
C1171 C581 0.883 . S
C1175 C739 1.408 . S
C1189 C11 0.926 . S
C1193 C748 1.477 . S
