# Generated by pormake.
# Topology pyr, (3,6)-cn, num edge types: 1
# Building blocks:
#     Node 0, Type 0, BuildingBlock: BETDIP_clean_linker_0, # of connection points: 3
#     Node 1, Type 0, BuildingBlock: BETDIP_clean_linker_0, # of connection points: 3
#     Node 2, Type 0, BuildingBlock: BETDIP_clean_linker_0, # of connection points: 3
#     Node 3, Type 0, BuildingBlock: BETDIP_clean_linker_0, # of connection points: 3
#     Node 4, Type 0, BuildingBlock: BETDIP_clean_linker_0, # of connection points: 3
#     Node 5, Type 0, BuildingBlock: BETDIP_clean_linker_0, # of connection points: 3
#     Node 6, Type 0, BuildingBlock: BETDIP_clean_linker_0, # of connection points: 3
#     Node 7, Type 0, BuildingBlock: BETDIP_clean_linker_0, # of connection points: 3
#     Node 8, Type 1, BuildingBlock: PAMTUU_clean_sbu_0, # of connection points: 6
#     Node 9, Type 1, BuildingBlock: PAMTUU_clean_sbu_0, # of connection points: 6
#     Node 10, Type 1, BuildingBlock: PAMTUU_clean_sbu_0, # of connection points: 6
#     Node 11, Type 1, BuildingBlock: PAMTUU_clean_sbu_0, # of connection points: 6
#     Edge 12, Type (0, 1), BuildingBlock: UVAHIK_clean_linker_0, # of connection points: 2
#     Edge 13, Type (0, 1), BuildingBlock: UVAHIK_clean_linker_0, # of connection points: 2
#     Edge 14, Type (0, 1), BuildingBlock: UVAHIK_clean_linker_0, # of connection points: 2
#     Edge 15, Type (0, 1), BuildingBlock: UVAHIK_clean_linker_0, # of connection points: 2
#     Edge 16, Type (0, 1), BuildingBlock: UVAHIK_clean_linker_0, # of connection points: 2
#     Edge 17, Type (0, 1), BuildingBlock: UVAHIK_clean_linker_0, # of connection points: 2
#     Edge 18, Type (0, 1), BuildingBlock: UVAHIK_clean_linker_0, # of connection points: 2
#     Edge 19, Type (0, 1), BuildingBlock: UVAHIK_clean_linker_0, # of connection points: 2
#     Edge 20, Type (0, 1), BuildingBlock: UVAHIK_clean_linker_0, # of connection points: 2
#     Edge 21, Type (0, 1), BuildingBlock: UVAHIK_clean_linker_0, # of connection points: 2
#     Edge 22, Type (0, 1), BuildingBlock: UVAHIK_clean_linker_0, # of connection points: 2
#     Edge 23, Type (0, 1), BuildingBlock: UVAHIK_clean_linker_0, # of connection points: 2
#     Edge 24, Type (0, 1), BuildingBlock: UVAHIK_clean_linker_0, # of connection points: 2
#     Edge 25, Type (0, 1), BuildingBlock: UVAHIK_clean_linker_0, # of connection points: 2
#     Edge 26, Type (0, 1), BuildingBlock: UVAHIK_clean_linker_0, # of connection points: 2
#     Edge 27, Type (0, 1), BuildingBlock: UVAHIK_clean_linker_0, # of connection points: 2
#     Edge 28, Type (0, 1), BuildingBlock: UVAHIK_clean_linker_0, # of connection points: 2
#     Edge 29, Type (0, 1), BuildingBlock: UVAHIK_clean_linker_0, # of connection points: 2
#     Edge 30, Type (0, 1), BuildingBlock: UVAHIK_clean_linker_0, # of connection points: 2
#     Edge 31, Type (0, 1), BuildingBlock: UVAHIK_clean_linker_0, # of connection points: 2
#     Edge 32, Type (0, 1), BuildingBlock: UVAHIK_clean_linker_0, # of connection points: 2
#     Edge 33, Type (0, 1), BuildingBlock: UVAHIK_clean_linker_0, # of connection points: 2
#     Edge 34, Type (0, 1), BuildingBlock: UVAHIK_clean_linker_0, # of connection points: 2
#     Edge 35, Type (0, 1), BuildingBlock: UVAHIK_clean_linker_0, # of connection points: 2
# Relax obj value: 0.092
# Max RMSD: 0.160
# Mean RMSD: 0.130
data_MOF--net-pyr--node1-PAMTUU_clean_sbu_0--node2-BETDIP_clean_linker_0--edge1-UVAHIK_clean_linker_0
_symmetry_space_group_name_H-M    P1
_symmetry_Int_Tables_number       1
_symmetry_cell_setting            triclinic
loop_
_symmetry_equiv_pos_as_xyz
'x, y, z'
_cell_length_a     49.446975
_cell_length_b     49.642914
_cell_length_c     49.085485
_cell_angle_alpha  90.781069
_cell_angle_beta   88.232206
_cell_angle_gamma 105.31983
loop_
_atom_site_label
_atom_site_type_symbol
_atom_site_fract_x
_atom_site_fract_y
_atom_site_fract_z
_atom_type_partial_charge
H0 H 0.28736 0.27902 0.23245 0.0
H1 H 0.33675 0.26767 0.16171 0.0
H2 H 0.32382 0.20937 0.22764 0.0
H3 H 0.31488 0.29522 0.14163 0.0
C4 C 0.30442 0.30562 0.15652 0.0
C5 C 0.30049 0.26758 0.22197 0.0
C6 C 0.30418 0.24308 0.23335 0.0
C7 C 0.31175 0.27647 0.1961 0.0
C8 C 0.3279 0.26118 0.18173 0.0
C9 C 0.33204 0.23676 0.193 0.0
C10 C 0.32039 0.22807 0.21886 0.0
N11 N 0.30447 0.29966 0.18473 0.0
H12 H 0.18031 0.79045 0.74158 0.0
H13 H 0.18881 0.74481 0.66824 0.0
H14 H 0.24561 0.74816 0.73345 0.0
H15 H 0.14835 0.75407 0.65672 0.0
C16 C 0.14714 0.77267 0.66803 0.0
C17 C 0.1909 0.77727 0.73007 0.0
C18 C 0.21393 0.77012 0.74099 0.0
C19 C 0.18172 0.76846 0.70398 0.0
C20 C 0.19535 0.75148 0.68861 0.0
C21 C 0.21801 0.74342 0.69954 0.0
C22 C 0.22715 0.75294 0.72566 0.0
N23 N 0.16024 0.77918 0.69349 0.0
H24 H 0.70383 0.40937 0.83281 0.0
H25 H 0.63026 0.3397 0.83623 0.0
H26 H 0.69622 0.34514 0.89267 0.0
H27 H 0.61067 0.36851 0.81403 0.0
C28 C 0.62699 0.38203 0.80144 0.0
C29 C 0.69199 0.39007 0.84225 0.0
C30 C 0.70331 0.379 0.86412 0.0
C31 C 0.66557 0.37637 0.83213 0.0
C32 C 0.65039 0.35083 0.84401 0.0
C33 C 0.66123 0.33945 0.86607 0.0
C34 C 0.68766 0.35377 0.87582 0.0
N35 N 0.65543 0.3886 0.80967 0.0
H36 H 0.82345 0.62519 0.35029 0.0
H37 H 0.89719 0.69439 0.34495 0.0
H38 H 0.83656 0.69111 0.41014 0.0
H39 H 0.89279 0.68405 0.29988 0.0
C40 C 0.88663 0.66137 0.29934 0.0
C41 C 0.83615 0.64466 0.35848 0.0
C42 C 0.827 0.65647 0.382 0.0
C43 C 0.86099 0.65849 0.34458 0.0
C44 C 0.87745 0.68397 0.35493 0.0
C45 C 0.8688 0.69579 0.3787 0.0
C46 C 0.84356 0.68189 0.39201 0.0
N47 N 0.8688 0.6462 0.3203 0.0
H48 H 0.67071 0.77449 0.92713 0.0
H49 H 0.71746 0.75074 0.8599 0.0
H50 H 0.6844 0.82204 0.85295 0.0
H51 H 0.69555 0.70554 0.88047 0.0
C52 C 0.70442 0.71351 0.89991 0.0
C53 C 0.67906 0.77771 0.9064 0.0
C54 C 0.67516 0.80001 0.89107 0.0
C55 C 0.69352 0.75936 0.89503 0.0
C56 C 0.70518 0.76409 0.86846 0.0
C57 C 0.70202 0.78666 0.85316 0.0
C58 C 0.68643 0.80417 0.86439 0.0
N59 N 0.69805 0.73762 0.9113 0.0
H60 H 0.82747 0.23953 0.32839 0.0
H61 H 0.80622 0.27915 0.40164 0.0
H62 H 0.75013 0.26338 0.33473 0.0
H63 H 0.84223 0.26824 0.41956 0.0
C64 C 0.85138 0.25597 0.40537 0.0
C65 C 0.81349 0.24947 0.33964 0.0
C66 C 0.78811 0.25049 0.32837 0.0
C67 C 0.82011 0.25917 0.36617 0.0
C68 C 0.80161 0.27145 0.38115 0.0
C69 C 0.77629 0.27304 0.36984 0.0
C70 C 0.76969 0.26238 0.34353 0.0
N71 N 0.84432 0.25388 0.37745 0.0
H72 H 0.31847 0.64276 0.21689 0.0
H73 H 0.38544 0.71865 0.22079 0.0
H74 H 0.32583 0.70574 0.15651 0.0
H75 H 0.3405 0.62669 0.24732 0.0
C76 C 0.35707 0.64269 0.25646 0.0
C77 C 0.32971 0.66289 0.2089 0.0
C78 C 0.31964 0.67241 0.18537 0.0
C79 C 0.35406 0.67922 0.22146 0.0
C80 C 0.3673 0.70578 0.21072 0.0
C81 C 0.35708 0.71592 0.18749 0.0
C82 C 0.3336 0.69866 0.17476 0.0
N83 N 0.36578 0.66996 0.24482 0.0
H84 H 0.11681 0.32378 0.70753 0.0
H85 H 0.18189 0.39996 0.6975 0.0
H86 H 0.18132 0.32998 0.64513 0.0
H87 H 0.14834 0.41801 0.71812 0.0
C88 C 0.14067 0.40272 0.7341 0.0
C89 C 0.13565 0.33551 0.69685 0.0
C90 C 0.14707 0.32348 0.67472 0.0
C91 C 0.14797 0.36301 0.70512 0.0
C92 C 0.1721 0.37877 0.69114 0.0
C93 C 0.18393 0.36712 0.66908 0.0
C94 C 0.17148 0.33941 0.66131 0.0
N95 N 0.1363 0.37381 0.72827 0.0
Tb96 Tb 0.02133 0.01558 0.5085 0.0
Tb97 Tb 0.96902 1.00286 0.5541 0.0
C98 C 0.96914 0.96432 0.50368 0.0
C99 C 0.08212 0.04946 0.46266 0.0
C100 C 0.12341 0.09488 0.44068 0.0
C101 C 0.12829 0.06829 0.44201 0.0
C102 C 0.10779 0.04579 0.45286 0.0
C103 C 0.07731 0.07609 0.46204 0.0
C104 C 0.09778 0.09863 0.45095 0.0
C105 C 0.06071 0.02514 0.47314 0.0
O106 O 1.00246 0.05009 0.50579 0.0
O107 O 0.95839 0.02677 0.52104 0.0
O108 O 0.99536 0.04368 0.56474 0.0
O109 O 0.03703 0.04198 0.54327 0.0
O110 O 0.92549 0.99078 0.56123 0.0
O111 O 0.95386 1.00284 0.59455 0.0
O112 O 0.9997 0.98309 0.56988 0.0
O113 O 0.02392 0.97857 0.53002 0.0
O114 O 0.9856 0.98579 0.49086 0.0
O115 O 0.96407 0.96512 0.52999 0.0
C116 C 0.97551 0.04792 0.50827 0.0
O117 O 0.06348 0.01822 0.49821 0.0
O118 O 0.03472 0.02388 0.46782 0.0
C119 C 0.02264 0.05307 0.56108 0.0
C120 C 0.91139 0.96827 0.60379 0.0
C121 C 0.87707 0.92513 0.63594 0.0
C122 C 0.89705 0.94714 0.6481 0.0
C123 C 0.91392 0.96855 0.6322 0.0
C124 C 0.89184 0.94592 0.59151 0.0
C125 C 0.87483 0.92458 0.60746 0.0
C126 C 0.92794 0.99222 0.58763 0.0
C127 C 0.01727 0.97225 0.55568 0.0
H128 H 0.14764 0.06466 0.43388 0.0
H129 H 0.11183 0.02538 0.45326 0.0
H130 H 0.05766 0.07936 0.4698 0.0
H131 H 0.09355 0.11894 0.45032 0.0
H132 H 0.89897 0.94835 0.67004 0.0
H133 H 0.92857 0.98567 0.64222 0.0
H134 H 0.88929 0.9451 0.56966 0.0
H135 H 0.85972 0.90777 0.59754 0.0
Tb136 Tb 0.53114 0.03655 0.05154 0.0
Tb137 Tb 0.48358 0.02122 1.00442 0.0
C138 C 0.53748 1.00023 1.00108 0.0
C139 C 0.59545 0.06551 0.09332 0.0
C140 C 0.64736 0.10012 0.10959 0.0
C141 C 0.6372 0.07296 0.12007 0.0
C142 C 0.61151 0.05587 0.112 0.0
C143 C 0.60608 0.092 0.08161 0.0
C144 C 0.63186 0.10921 0.08973 0.0
C145 C 0.56683 0.04849 0.0885 0.0
O146 O 0.5403 0.07365 0.02601 0.0
O147 O 0.51649 0.0557 0.98732 0.0
O148 O 0.47834 0.05688 0.02764 0.0
O149 O 0.49227 0.04379 0.06783 0.0
O150 O 0.472 0.01111 0.96401 0.0
O151 O 0.44169 0.0172 0.99465 0.0
O152 O 0.46739 0.99087 0.03687 0.0
O153 O 0.50797 0.99365 0.05976 0.0
O154 O 0.55022 0.02183 1.01589 0.0
O155 O 0.51014 0.9931 0.99876 0.0
C156 C 0.53453 0.07575 1.00023 0.0
O157 O 0.54788 0.06186 0.08464 0.0
O158 O 0.56416 0.0271 0.07217 0.0
C159 C 0.4781 0.05777 0.05426 0.0
C160 C 0.42447 0.98492 0.95953 0.0
C161 C 0.38315 0.94048 0.93701 0.0
C162 C 0.37583 0.96355 0.94899 0.0
C163 C 0.39629 0.98557 0.96 0.0
C164 C 0.43182 0.96148 0.94847 0.0
C165 C 0.41131 0.93945 0.93728 0.0
C166 C 0.44564 0.00947 0.96968 0.0
C167 C 0.48182 0.98087 0.05444 0.0
H168 H 0.64829 0.0654 0.1357 0.0
H169 H 0.60359 0.03551 0.12128 0.0
H170 H 0.59403 0.09974 0.06697 0.0
H171 H 0.63925 0.1299 0.08108 0.0
H172 H 0.35427 0.96478 0.94955 0.0
H173 H 0.39015 1.00339 0.96853 0.0
H174 H 0.45342 0.96039 0.94793 0.0
H175 H 0.41768 0.92209 0.92801 0.0
Tb176 Tb 0.50254 0.4929 0.5091 0.0
Tb177 Tb 0.50494 0.55013 0.54439 0.0
C178 C 0.48164 0.54235 0.48558 0.0
C179 C 0.52406 0.43361 0.47751 0.0
C180 C 0.56638 0.40639 0.4658 0.0
C181 C 0.54199 0.40066 0.45034 0.0
C182 C 0.52103 0.41418 0.45615 0.0
C183 C 0.54802 0.43899 0.49345 0.0
C184 C 0.56899 0.42538 0.4877 0.0
C185 C 0.50331 0.44975 0.48157 0.0
O186 O 0.54651 0.51438 0.51181 0.0
O187 O 0.54234 0.55898 0.51794 0.0
O188 O 0.5308 0.52898 0.56669 0.0
O189 O 0.51194 0.48436 0.55084 0.0
O190 O 0.511 0.59361 0.54506 0.0
O191 O 0.50056 0.56957 0.58198 0.0
O192 O 0.46817 0.51846 0.55856 0.0
O193 O 0.45926 0.49078 0.52043 0.0
O194 O 0.49627 0.52413 0.48076 0.0
O195 O 0.47732 0.55027 0.5106 0.0
C196 C 0.55713 0.54148 0.51069 0.0
O197 O 0.49175 0.44908 0.50588 0.0
O198 O 0.511 0.47502 0.47195 0.0
C199 C 0.52664 0.50176 0.56878 0.0
C200 C 0.47979 0.60648 0.57684 0.0
C201 C 0.43353 0.6276 0.59082 0.0
C202 C 0.45561 0.63033 0.60895 0.0
C203 C 0.47857 0.6199 0.60197 0.0
C204 C 0.45788 0.60389 0.5586 0.0
C205 C 0.43505 0.61452 0.56546 0.0
C206 C 0.50293 0.59366 0.5706 0.0
C207 C 0.4511 0.49949 0.54385 0.0
H208 H 0.53921 0.38585 0.43358 0.0
H209 H 0.50272 0.40991 0.44359 0.0
H210 H 0.5508 0.45419 0.50988 0.0
H211 H 0.58762 0.43041 0.49982 0.0
H212 H 0.45511 0.64051 0.62854 0.0
H213 H 0.49517 0.62192 0.61637 0.0
H214 H 0.45816 0.59324 0.53923 0.0
H215 H 0.41821 0.6118 0.55123 0.0
Tb216 Tb 0.0177 0.55272 1.00552 0.0
Tb217 Tb 0.01045 0.49289 0.03694 0.0
C218 C 0.04402 0.50599 0.98172 0.0
C219 C 0.99883 0.61361 0.97849 0.0
C220 C 0.9546 0.63774 0.96879 0.0
C221 C 0.97722 0.64107 0.94994 0.0
C222 C 0.9992 0.62911 0.95479 0.0
C223 C 0.97668 0.61089 0.99773 0.0
C224 C 0.95482 0.62303 0.993 0.0
C225 C 0.01985 0.59791 0.98158 0.0
O226 O 0.97372 0.52994 1.00222 0.0
O227 O 0.9786 0.48554 1.00599 0.0
O228 O 0.98098 0.5124 0.05771 0.0
O229 O 1.00316 0.55782 0.04684 0.0
O230 O 1.00309 0.44934 0.03456 0.0
O231 O 0.0096 0.47073 0.07329 0.0
O232 O 0.046 0.52258 0.05514 0.0
O233 O 0.05904 0.55539 1.0212 0.0
O234 O 0.03094 0.52506 0.97659 0.0
O235 O 0.04331 0.49524 1.00605 0.0
C236 C 0.96439 0.50289 0.99819 0.0
O237 O 0.02869 0.5966 1.00614 0.0
O238 O 0.01399 0.57362 0.96952 0.0
C239 C 0.98549 0.53936 0.06211 0.0
C240 C 0.03051 0.43399 0.06593 0.0
C241 C 0.07477 0.41074 0.07826 0.0
C242 C 0.04905 0.40277 0.09299 0.0
C243 C 0.02703 0.4143 0.08681 0.0
C244 C 0.05613 0.44194 0.05122 0.0
C245 C 0.07799 0.43033 0.05722 0.0
C246 C 0.00813 0.44736 0.06026 0.0
C247 C 0.06426 0.54398 0.04382 0.0
H248 H 0.97763 0.65247 0.9312 0.0
H249 H 0.01603 0.63119 0.93964 0.0
H250 H 0.9758 0.59859 1.01597 0.0
H251 H 0.93749 0.61984 1.0077 0.0
H252 H 0.04598 0.38762 0.10924 0.0
H253 H 0.00745 0.4081 0.09848 0.0
H254 H 0.05938 0.45742 0.03528 0.0
H255 H 0.09769 0.43723 0.04584 0.0
C256 C 0.28646 0.24968 0.28102 0.0
C257 C 0.28925 0.23186 0.25918 0.0
C258 C 0.27132 0.23888 0.30478 0.0
C259 C 0.24521 0.17341 0.3431 0.0
H260 H 0.18781 0.2069 0.37223 0.0
C261 C 0.17318 0.12205 0.43158 0.0
C262 C 0.14447 0.11797 0.42702 0.0
C263 C 0.19327 0.14084 0.4157 0.0
C264 C 0.20385 0.19741 0.36438 0.0
H265 H 0.27773 0.1888 0.24503 0.0
H266 H 0.25189 0.17008 0.28643 0.0
H267 H 0.21896 0.22966 0.33478 0.0
H268 H 0.11422 0.13148 0.40333 0.0
H269 H 0.14928 0.16413 0.37539 0.0
H270 H 0.22952 0.14057 0.37165 0.0
C271 C 0.26177 0.19231 0.2854 0.0
C272 C 0.22181 0.21055 0.34314 0.0
C273 C 0.27667 0.20306 0.26169 0.0
C274 C 0.1362 0.13433 0.40742 0.0
C275 C 0.15631 0.15308 0.39145 0.0
C276 C 0.22739 0.16037 0.36432 0.0
C277 C 0.25888 0.21007 0.30718 0.0
C278 C 0.2422 0.19828 0.33186 0.0
C279 C 0.18506 0.15587 0.39484 0.0
C280 C 0.20611 0.17188 0.37483 0.0
H281 H 0.29607 0.27193 0.2798 0.0
H282 H 0.26951 0.25301 0.32133 0.0
H283 H 0.26096 0.16366 0.335 0.0
H284 H 0.18013 0.11006 0.4469 0.0
H285 H 0.21526 0.14295 0.41915 0.0
C286 C 0.23704 0.76714 0.78551 0.0
C287 C 0.2257 0.78255 0.76723 0.0
C288 C 0.2503 0.77982 0.80895 0.0
C289 C 0.25826 0.84158 0.85399 0.0
H290 H 0.33366 0.83468 0.8638 0.0
C291 C 0.34204 0.92607 0.90663 0.0
C292 C 0.36175 0.91852 0.92287 0.0
C293 C 0.32259 0.90587 0.89225 0.0
C294 C 0.31243 0.83641 0.86177 0.0
H295 H 0.21925 0.82336 0.75954 0.0
H296 H 0.24177 0.84512 0.80047 0.0
H297 H 0.30384 0.80513 0.83043 0.0
H298 H 0.37604 0.88364 0.93721 0.0
H299 H 0.342 0.84818 0.91181 0.0
H300 H 0.26708 0.87341 0.88473 0.0
C301 C 0.24015 0.82318 0.79687 0.0
C302 C 0.29536 0.81948 0.84264 0.0
C303 C 0.22716 0.81064 0.77339 0.0
C304 C 0.36132 0.89016 0.92464 0.0
C305 C 0.34182 0.86987 0.91016 0.0
C306 C 0.27526 0.85842 0.87317 0.0
C307 C 0.25222 0.80805 0.81468 0.0
C308 C 0.26843 0.82253 0.83797 0.0
C309 C 0.32235 0.87756 0.89368 0.0
C310 C 0.30286 0.85666 0.87663 0.0
H311 H 0.23594 0.74537 0.78158 0.0
H312 H 0.25926 0.76762 0.82246 0.0
H313 H 0.2374 0.84403 0.85114 0.0
H314 H 0.34215 0.94777 0.90432 0.0
H315 H 0.30834 0.91261 0.87927 0.0
C316 C 0.58975 0.38997 0.77166 0.0
C317 C 0.61838 0.39512 0.77714 0.0
C318 C 0.58088 0.40182 0.74898 0.0
C319 C 0.6043 0.45859 0.69747 0.0
H320 H 0.53931 0.41536 0.65951 0.0
C321 C 0.55053 0.5071 0.61408 0.0
C322 C 0.53876 0.49013 0.59196 0.0
C323 C 0.56118 0.49583 0.63616 0.0
C324 C 0.55769 0.42772 0.66959 0.0
H325 H 0.66029 0.41684 0.76291 0.0
H326 H 0.64492 0.43722 0.723 0.0
H327 H 0.55645 0.39503 0.69793 0.0
H328 H 0.52978 0.44797 0.57562 0.0
H329 H 0.54876 0.42857 0.61359 0.0
H330 H 0.60592 0.49102 0.66858 0.0
C331 C 0.62917 0.42433 0.73651 0.0
C332 C 0.56733 0.41614 0.69202 0.0
C333 C 0.63805 0.4125 0.75935 0.0
C334 C 0.53838 0.46169 0.59237 0.0
C335 C 0.54918 0.45048 0.61433 0.0
C336 C 0.5947 0.47016 0.67493 0.0
C337 C 0.60042 0.41911 0.73093 0.0
C338 C 0.59069 0.43141 0.70646 0.0
C339 C 0.56054 0.46728 0.63672 0.0
C340 C 0.57117 0.45494 0.66066 0.0
H341 H 0.57408 0.37677 0.78506 0.0
H342 H 0.55858 0.39765 0.74583 0.0
H343 H 0.62217 0.47118 0.70811 0.0
H344 H 0.55113 0.52907 0.61457 0.0
H345 H 0.56938 0.50946 0.65308 0.0
C346 C 0.91065 0.66283 0.25398 0.0
C347 C 0.89512 0.64694 0.27535 0.0
C348 C 0.91911 0.64974 0.23116 0.0
C349 C 0.90435 0.58294 0.19304 0.0
H350 H 0.97902 0.6148 0.16239 0.0
C351 C 0.95635 0.53137 0.10568 0.0
C352 C 0.97154 0.54967 0.08562 0.0
C353 C 0.94543 0.54185 0.12897 0.0
C354 C 0.95801 0.60579 0.17056 0.0
H355 H 0.87612 0.60484 0.2897 0.0
H356 H 0.89125 0.58191 0.24992 0.0
H357 H 0.96348 0.63562 0.20305 0.0
H358 H 0.98585 0.59322 0.07362 0.0
H359 H 0.96679 0.61127 0.11391 0.0
H360 H 0.8991 0.55298 0.16039 0.0
C361 C 0.89657 0.60451 0.25063 0.0
C362 C 0.94908 0.61774 0.19385 0.0
C363 C 0.88804 0.61765 0.27348 0.0
C364 C 0.97462 0.5785 0.08882 0.0
C365 C 0.96379 0.58891 0.11199 0.0
C366 C 0.91335 0.57088 0.1697 0.0
C367 C 0.91234 0.62043 0.22927 0.0
C368 C 0.92203 0.60672 0.20518 0.0
C369 C 0.94958 0.5708 0.13257 0.0
C370 C 0.94015 0.58245 0.15803 0.0
H371 H 0.91623 0.68544 0.2549 0.0
H372 H 0.93081 0.66264 0.21488 0.0
H373 H 0.8833 0.57407 0.20116 0.0
H374 H 0.95358 0.50904 0.1038 0.0
H375 H 0.93458 0.5274 0.14454 0.0
C376 C 0.37327 0.23094 0.1646 0.0
C377 C 0.34705 0.21919 0.17732 0.0
C378 C 0.38765 0.21388 0.15073 0.0
C379 C 0.41961 0.16949 0.1394 0.0
H380 H 0.37928 0.11118 0.09102 0.0
C381 C 0.46602 0.0814 0.09668 0.0
C382 C 0.46256 0.07557 0.06872 0.0
C383 C 0.45204 0.09921 0.10986 0.0
C384 C 0.39085 0.12744 0.10438 0.0
H385 H 0.31485 0.18067 0.18482 0.0
H386 H 0.33988 0.15096 0.16066 0.0
H387 H 0.35486 0.14269 0.11314 0.0
H388 H 0.44145 0.08351 0.03274 0.0
H389 H 0.41705 0.11435 0.05574 0.0
H390 H 0.45562 0.1542 0.13057 0.0
C391 C 0.3494 0.17326 0.16142 0.0
C392 C 0.37683 0.14534 0.11717 0.0
C393 C 0.3352 0.19023 0.17544 0.0
C394 C 0.44459 0.08758 0.05431 0.0
C395 C 0.43049 0.10515 0.06749 0.0
C396 C 0.43359 0.15142 0.12676 0.0
C397 C 0.37584 0.18486 0.14908 0.0
C398 C 0.39105 0.16652 0.13484 0.0
C399 C 0.43415 0.11126 0.09536 0.0
C400 C 0.41933 0.13022 0.10912 0.0
H401 H 0.38287 0.25321 0.16582 0.0
H402 H 0.40792 0.22338 0.14119 0.0
H403 H 0.43101 0.18548 0.15312 0.0
H404 H 0.47977 0.07251 0.10833 0.0
H405 H 0.45503 0.10336 0.13143 0.0
C406 C 0.11406 0.78296 0.63457 0.0
C407 C 0.1309 0.79112 0.65729 0.0
C408 C 0.0991 0.80067 0.62415 0.0
C409 C 0.07484 0.86407 0.64173 0.0
H410 H 0.07069 0.86955 0.56338 0.0
C411 C 0.01664 0.93717 0.59225 0.0
C412 C 0.02886 0.95095 0.5683 0.0
C413 C 0.02706 0.91621 0.6033 0.0
C414 C 0.07185 0.86847 0.58532 0.0
H415 H 0.1456 0.8244 0.68676 0.0
H416 H 0.12038 0.85541 0.66825 0.0
H417 H 0.09274 0.83591 0.58229 0.0
H418 H 0.062 0.95402 0.53756 0.0
H419 H 0.08066 0.91831 0.55722 0.0
H420 H 0.05524 0.8976 0.64472 0.0
C421 C 0.11789 0.83507 0.65886 0.0
C422 C 0.08412 0.84882 0.59619 0.0
C423 C 0.13256 0.8173 0.66939 0.0
C424 C 0.05193 0.94364 0.5559 0.0
C425 C 0.06251 0.92295 0.56708 0.0
C426 C 0.06281 0.88391 0.63084 0.0
C427 C 0.10095 0.82704 0.6361 0.0
C428 C 0.0861 0.84659 0.62454 0.0
C429 C 0.0501 0.90877 0.5908 0.0
C430 C 0.06147 0.88661 0.60248 0.0
H431 H 0.11242 0.76285 0.62492 0.0
H432 H 0.08601 0.79363 0.6068 0.0
H433 H 0.07552 0.86263 0.66368 0.0
H434 H 0.9987 0.94218 0.60217 0.0
H435 H 0.01676 0.90554 0.62141 0.0
C436 C 0.75001 0.37812 0.88273 0.0
C437 C 0.73135 0.39355 0.87507 0.0
C438 C 0.77554 0.3913 0.89456 0.0
C439 C 0.81174 0.45572 0.93182 0.0
H440 H 0.87764 0.42929 0.91581 0.0
C441 C 0.92146 0.50927 0.97531 0.0
C442 C 0.93745 0.49154 0.98406 0.0
C443 C 0.89653 0.49846 0.96134 0.0
C444 C 0.85938 0.43678 0.92074 0.0
H445 H 0.72541 0.43522 0.87355 0.0
H446 H 0.7703 0.45835 0.89372 0.0
H447 H 0.83447 0.40886 0.89201 0.0
H448 H 0.93935 0.44839 0.9851 0.0
H449 H 0.89603 0.42968 0.96106 0.0
H450 H 0.83679 0.48364 0.96062 0.0
C451 C 0.76492 0.43591 0.89092 0.0
C452 C 0.83455 0.42503 0.90705 0.0
C453 C 0.7393 0.42268 0.87903 0.0
C454 C 0.92772 0.46275 0.97865 0.0
C455 C 0.9029 0.45199 0.96464 0.0
C456 C 0.83665 0.46754 0.94548 0.0
C457 C 0.78332 0.42036 0.89904 0.0
C458 C 0.81025 0.43409 0.91259 0.0
C459 C 0.88701 0.46968 0.95565 0.0
C460 C 0.86073 0.45801 0.94035 0.0
H461 H 0.74483 0.35571 0.87968 0.0
H462 H 0.78892 0.37851 0.90076 0.0
H463 H 0.79342 0.46303 0.93691 0.0
H464 H 0.92829 0.53156 0.97905 0.0
H465 H 0.88498 0.51276 0.95455 0.0
C466 C 0.78193 0.65936 0.40482 0.0
C467 C 0.79974 0.64302 0.39575 0.0
C468 C 0.75671 0.64718 0.41864 0.0
C469 C 0.70366 0.58074 0.42926 0.0
H470 H 0.68232 0.61904 0.49248 0.0
C471 C 0.60258 0.53398 0.49294 0.0
C472 C 0.58634 0.55242 0.50038 0.0
C473 C 0.62967 0.54412 0.4819 0.0
C474 C 0.68789 0.60821 0.47474 0.0
H475 H 0.80488 0.601 0.39374 0.0
H476 H 0.76047 0.57955 0.41783 0.0
H477 H 0.72764 0.63815 0.46949 0.0
H478 H 0.58603 0.59603 0.5025 0.0
H479 H 0.63319 0.61368 0.48296 0.0
H480 H 0.66371 0.55104 0.43422 0.0
C481 C 0.76613 0.60183 0.41413 0.0
C482 C 0.71383 0.61913 0.4616 0.0
C483 C 0.79148 0.61407 0.40032 0.0
C484 C 0.59799 0.58126 0.49704 0.0
C485 C 0.62509 0.59139 0.48597 0.0
C486 C 0.67766 0.56983 0.44238 0.0
C487 C 0.74862 0.61834 0.42363 0.0
C488 C 0.72184 0.6057 0.43852 0.0
C489 C 0.64113 0.57291 0.47805 0.0
C490 C 0.66937 0.58363 0.46508 0.0
H491 H 0.78739 0.68163 0.40107 0.0
H492 H 0.74337 0.66034 0.42517 0.0
H493 H 0.70914 0.5701 0.41135 0.0
H494 H 0.59432 0.51162 0.49536 0.0
H495 H 0.64165 0.52939 0.47637 0.0
C496 C 0.26967 0.33361 0.16544 0.0
C497 C 0.28502 0.32129 0.14681 0.0
C498 C 0.24902 0.34555 0.1564 0.0
C499 C 0.20139 0.34119 0.09954 0.0
H500 H 0.18641 0.40659 0.13428 0.0
C501 C 0.11512 0.3913 0.06456 0.0
C502 C 0.09862 0.39952 0.08524 0.0
C503 C 0.13867 0.38238 0.07102 0.0
C504 C 0.19022 0.38817 0.12455 0.0
H505 H 0.29179 0.3129 0.10411 0.0
H506 H 0.25585 0.33421 0.08814 0.0
H507 H 0.22765 0.39178 0.14662 0.0
H508 H 0.09368 0.40462 0.12888 0.0
H509 H 0.13469 0.38877 0.14021 0.0
H510 H 0.16386 0.33758 0.07754 0.0
C511 C 0.25946 0.33418 0.10979 0.0
C512 C 0.21386 0.37971 0.13157 0.0
C513 C 0.28016 0.32219 0.11887 0.0
C514 C 0.10587 0.3982 0.11254 0.0
C515 C 0.12952 0.38945 0.11899 0.0
C516 C 0.17781 0.34973 0.09243 0.0
C517 C 0.2433 0.34552 0.12853 0.0
C518 C 0.21953 0.35591 0.11941 0.0
C519 C 0.14629 0.38167 0.09827 0.0
C520 C 0.1718 0.37311 0.10511 0.0
H521 H 0.27296 0.33335 0.18714 0.0
H522 H 0.23679 0.35382 0.17142 0.0
H523 H 0.2049 0.32251 0.09008 0.0
H524 H 0.10989 0.39189 0.04335 0.0
H525 H 0.15125 0.37663 0.05462 0.0
C526 C 0.63146 0.28943 0.86331 0.0
C527 C 0.64547 0.31253 0.87908 0.0
C528 C 0.61869 0.26363 0.87562 0.0
C529 C 0.6223 0.22322 0.93761 0.0
H530 H 0.5495 0.17731 0.91689 0.0
C531 C 0.56437 0.12546 0.99941 0.0
C532 C 0.54808 0.10214 0.98543 0.0
C533 C 0.57614 0.15066 0.98581 0.0
C534 C 0.57004 0.18962 0.92269 0.0
H535 H 0.6555 0.32676 0.92046 0.0
H536 H 0.63363 0.28198 0.94171 0.0
H537 H 0.56952 0.22192 0.8942 0.0
H538 H 0.53186 0.08713 0.94587 0.0
H539 H 0.5529 0.13078 0.9221 0.0
H540 H 0.62315 0.19099 0.9658 0.0
C541 C 0.63297 0.2836 0.91977 0.0
C542 C 0.58149 0.21529 0.90969 0.0
C543 C 0.64554 0.30933 0.90754 0.0
C544 C 0.54419 0.10465 0.95739 0.0
C545 C 0.55611 0.12982 0.94374 0.0
C546 C 0.61097 0.19753 0.95045 0.0
C547 C 0.61973 0.26028 0.90398 0.0
C548 C 0.60766 0.23254 0.91715 0.0
C549 C 0.57216 0.15329 0.95777 0.0
C550 C 0.58456 0.1804 0.94338 0.0
H551 H 0.63114 0.291 0.84134 0.0
H552 H 0.60878 0.24609 0.86281 0.0
H553 H 0.64274 0.23569 0.94353 0.0
H554 H 0.56772 0.12446 1.02101 0.0
H555 H 0.58794 0.16828 0.9975 0.0
C556 C 0.88857 0.72735 0.41753 0.0
C557 C 0.88527 0.72314 0.38934 0.0
C558 C 0.90096 0.75385 0.42797 0.0
C559 C 0.91351 0.82811 0.41063 0.0
H560 H 0.95725 0.8388 0.47602 0.0
C561 C 0.96221 0.93644 0.46024 0.0
C562 C 0.95859 0.93774 0.48872 0.0
C563 C 0.95455 0.91079 0.44653 0.0
C564 C 0.94495 0.83608 0.45782 0.0
H565 H 0.89354 0.7432 0.34987 0.0
H566 H 0.91594 0.78949 0.36809 0.0
H567 H 0.94408 0.7929 0.45435 0.0
H568 H 0.94346 0.91319 0.52502 0.0
H569 H 0.93021 0.86857 0.50107 0.0
H570 H 0.9145 0.87145 0.41423 0.0
C571 C 0.9084 0.77234 0.38215 0.0
C572 C 0.93739 0.80981 0.4454 0.0
C573 C 0.89589 0.74577 0.37169 0.0
C574 C 0.94654 0.91297 0.50308 0.0
C575 C 0.93916 0.88736 0.48942 0.0
C576 C 0.9213 0.85448 0.42295 0.0
C577 C 0.91054 0.77679 0.41046 0.0
C578 C 0.92112 0.80536 0.42195 0.0
C579 C 0.94342 0.88597 0.46108 0.0
C580 C 0.93663 0.85856 0.44694 0.0
H581 H 0.88095 0.71023 0.43162 0.0
H582 H 0.902 0.75649 0.44988 0.0
H583 H 0.90066 0.82537 0.39282 0.0
H584 H 0.97143 0.95515 0.44858 0.0
H585 H 0.95809 0.91028 0.42466 0.0
C586 C 0.24265 0.70541 0.69605 0.0
C587 C 0.23367 0.72663 0.6834 0.0
C588 C 0.26059 0.69207 0.68224 0.0
C589 C 0.31401 0.70459 0.62672 0.0
H590 H 0.31277 0.62749 0.64029 0.0
C591 C 0.39717 0.65265 0.58015 0.0
C592 C 0.40862 0.63761 0.59866 0.0
C593 C 0.37363 0.66197 0.58762 0.0
C594 C 0.31341 0.64908 0.63637 0.0
H595 H 0.23543 0.74957 0.64584 0.0
H596 H 0.26632 0.72575 0.62139 0.0
H597 H 0.27411 0.64555 0.65741 0.0
H598 H 0.40407 0.62006 0.63926 0.0
H599 H 0.36307 0.6364 0.65235 0.0
H600 H 0.35351 0.70812 0.60591 0.0
C601 C 0.25985 0.7198 0.64222 0.0
C602 C 0.29128 0.65944 0.64618 0.0
C603 C 0.24188 0.73321 0.6561 0.0
C604 C 0.39589 0.63186 0.62468 0.0
C605 C 0.37223 0.64093 0.63205 0.0
C606 C 0.33606 0.69416 0.61674 0.0
C607 C 0.26993 0.69951 0.65535 0.0
C608 C 0.2916 0.68751 0.64201 0.0
C609 C 0.36088 0.65615 0.61364 0.0
C610 C 0.33627 0.66646 0.62198 0.0
H611 H 0.23642 0.69966 0.71698 0.0
H612 H 0.26809 0.67676 0.69313 0.0
H613 H 0.31518 0.7264 0.62343 0.0
H614 H 0.40663 0.6575 0.56 0.0
H615 H 0.36526 0.67355 0.57298 0.0
C616 C 0.7036 0.80118 0.80424 0.0
C617 C 0.71703 0.7935 0.82651 0.0
C618 C 0.71863 0.81009 0.77996 0.0
C619 C 0.7867 0.8141 0.743 0.0
H620 H 0.77269 0.87979 0.71069 0.0
C621 C 0.86741 0.89229 0.67557 0.0
C622 C 0.85757 0.90386 0.65317 0.0
C623 C 0.84863 0.87438 0.69337 0.0
C624 C 0.77657 0.86117 0.71916 0.0
H625 H 0.75656 0.78875 0.84078 0.0
H626 H 0.78288 0.80476 0.79877 0.0
H627 H 0.74244 0.85642 0.74798 0.0
H628 H 0.82043 0.90513 0.63138 0.0
H629 H 0.78762 0.87376 0.66247 0.0
H630 H 0.82168 0.81978 0.71476 0.0
C631 C 0.76063 0.80328 0.79965 0.0
C632 C 0.75917 0.84769 0.74053 0.0
C633 C 0.74556 0.79415 0.8238 0.0
C634 C 0.82865 0.89638 0.64837 0.0
C635 C 0.80986 0.87863 0.66627 0.0
C636 C 0.80426 0.82775 0.72174 0.0
C637 C 0.74747 0.81179 0.77757 0.0
C638 C 0.76427 0.82425 0.75302 0.0
C639 C 0.81962 0.86785 0.68922 0.0
C640 C 0.79959 0.85166 0.70989 0.0
H641 H 0.68155 0.80058 0.80571 0.0
H642 H 0.70772 0.81602 0.7632 0.0
H643 H 0.79095 0.79581 0.75182 0.0
H644 H 0.88961 0.89751 0.67961 0.0
H645 H 0.85675 0.86656 0.71099 0.0
C646 C 0.75354 0.21739 0.29971 0.0
C647 C 0.77968 0.237 0.30179 0.0
C648 C 0.74559 0.20378 0.27506 0.0
C649 C 0.75375 0.21018 0.2021 0.0
H650 H 0.72357 0.12968 0.20301 0.0
C651 C 0.69493 0.10996 0.1301 0.0
C652 C 0.67215 0.11962 0.12191 0.0
C653 C 0.7151 0.1263 0.14706 0.0
C654 C 0.73241 0.15209 0.20221 0.0
H655 H 0.81792 0.25808 0.27982 0.0
H656 H 0.80355 0.23459 0.23612 0.0
H657 H 0.74483 0.15387 0.24372 0.0
H658 H 0.65408 0.155 0.12328 0.0
H659 H 0.68941 0.18354 0.15256 0.0
H660 H 0.74001 0.20846 0.1609 0.0
C661 C 0.78946 0.22968 0.25376 0.0
C662 C 0.74433 0.16592 0.22559 0.0
C663 C 0.79766 0.24299 0.27866 0.0
C664 C 0.67143 0.14697 0.12901 0.0
C665 C 0.69169 0.16336 0.14585 0.0
C666 C 0.74144 0.19634 0.17872 0.0
C667 C 0.76345 0.20977 0.25189 0.0
C668 C 0.75448 0.19512 0.22596 0.0
C669 C 0.71301 0.1527 0.156 0.0
C670 C 0.73012 0.1672 0.17877 0.0
H671 H 0.73941 0.21223 0.31731 0.0
H672 H 0.72531 0.18869 0.27404 0.0
H673 H 0.7614 0.23274 0.20197 0.0
H674 H 0.69642 0.08921 0.12449 0.0
H675 H 0.73158 0.11776 0.15425 0.0
C676 C 0.39365 0.65288 0.29315 0.0
C677 C 0.37082 0.63448 0.28048 0.0
C678 C 0.40631 0.64404 0.31545 0.0
C679 C 0.41296 0.57913 0.34918 0.0
H680 H 0.43918 0.62835 0.4103 0.0
C681 C 0.47523 0.54666 0.43523 0.0
C682 C 0.46979 0.55404 0.46223 0.0
C683 C 0.46406 0.5574 0.41321 0.0
C684 C 0.4318 0.61422 0.3935 0.0
H685 H 0.34316 0.59264 0.28153 0.0
H686 H 0.36473 0.5774 0.32032 0.0
H687 H 0.41783 0.64526 0.3721 0.0
H688 H 0.44824 0.57885 0.48702 0.0
H689 H 0.42845 0.59725 0.4487 0.0
H690 H 0.42619 0.54788 0.37072 0.0
C691 C 0.37337 0.59846 0.31292 0.0
C692 C 0.41984 0.62407 0.37137 0.0
C693 C 0.36082 0.60727 0.29074 0.0
C694 C 0.45296 0.57267 0.46655 0.0
C695 C 0.44173 0.58341 0.44449 0.0
C696 C 0.42489 0.56931 0.37124 0.0
C697 C 0.39645 0.61659 0.32555 0.0
C698 C 0.41007 0.60661 0.34892 0.0
C699 C 0.447 0.57584 0.41745 0.0
C700 C 0.43446 0.58664 0.39381 0.0
H701 H 0.40191 0.67399 0.28575 0.0
H702 H 0.42415 0.65856 0.32443 0.0
H703 H 0.40611 0.5651 0.33219 0.0
H704 H 0.48823 0.53254 0.43099 0.0
H705 H 0.46907 0.5514 0.39277 0.0
C706 C 0.1263 0.39397 0.78338 0.0
C707 C 0.13332 0.41237 0.76124 0.0
C708 C 0.11976 0.4036 0.809 0.0
C709 C 0.12579 0.46891 0.84929 0.0
H710 H 0.06445 0.42245 0.89242 0.0
C711 C 0.06596 0.51126 0.93492 0.0
C712 C 0.0591 0.49576 0.95907 0.0
C713 C 0.0784 0.50086 0.9127 0.0
C714 C 0.0819 0.43548 0.88079 0.0
H715 H 0.13906 0.45506 0.74833 0.0
H716 H 0.12679 0.47178 0.79275 0.0
H717 H 0.07908 0.40454 0.84953 0.0
H718 H 0.06046 0.45747 0.9791 0.0
H719 H 0.0819 0.43908 0.93992 0.0
H720 H 0.12774 0.50024 0.88017 0.0
C721 C 0.12695 0.45008 0.79065 0.0
C722 C 0.09034 0.42523 0.85621 0.0
C723 C 0.13373 0.4405 0.76513 0.0
C724 C 0.06554 0.46991 0.96077 0.0
C725 C 0.07766 0.45931 0.93834 0.0
C726 C 0.11715 0.47924 0.87372 0.0
C727 C 0.1199 0.43177 0.81294 0.0
C728 C 0.11214 0.44196 0.83996 0.0
C729 C 0.08396 0.4746 0.91403 0.0
C730 C 0.09489 0.46276 0.88951 0.0
H731 H 0.12609 0.37219 0.78104 0.0
H732 H 0.11484 0.38899 0.82576 0.0
H733 H 0.14307 0.48215 0.83764 0.0
H734 H 0.06138 0.53131 0.93302 0.0
H735 H 0.08281 0.51297 0.89413 0.0
C736 C 0.66902 0.83305 0.9282 0.0
C737 C 0.66063 0.81995 0.90319 0.0
C738 C 0.65666 0.85342 0.93867 0.0
C739 C 0.61444 0.90114 0.91741 0.0
H740 H 0.60255 0.90832 0.99533 0.0
C741 C 0.54273 0.9644 0.96658 0.0
C742 C 0.5539 0.98243 0.98813 0.0
C743 C 0.5573 0.94608 0.95552 0.0
C744 C 0.60602 0.90668 0.97354 0.0
H745 H 0.63227 0.81702 0.8699 0.0
H746 H 0.60979 0.85166 0.88862 0.0
H747 H 0.62379 0.8722 0.97792 0.0
H748 H 0.58917 0.99564 1.01486 0.0
H749 H 0.61439 0.96309 0.99579 0.0
H750 H 0.59558 0.93504 0.91319 0.0
C751 C 0.62655 0.84706 0.89979 0.0
C752 C 0.61826 0.88606 0.96353 0.0
C753 C 0.63922 0.82703 0.88914 0.0
C754 C 0.58013 0.98208 0.99816 0.0
C755 C 0.59446 0.96338 0.98741 0.0
C756 C 0.6018 0.92145 0.92743 0.0
C757 C 0.63536 0.86082 0.92452 0.0
C758 C 0.62257 0.88295 0.9353 0.0
C759 C 0.58307 0.94511 0.96612 0.0
C760 C 0.59745 0.92436 0.95556 0.0
H761 H 0.68576 0.82817 0.93922 0.0
H762 H 0.66433 0.86382 0.95752 0.0
H763 H 0.61799 0.89986 0.89561 0.0
H764 H 0.52259 0.96425 0.95841 0.0
H765 H 0.54802 0.93208 0.93921 0.0
C766 C 0.87866 0.22025 0.39867 0.0
C767 C 0.86845 0.23827 0.41606 0.0
C768 C 0.89256 0.20178 0.4092 0.0
C769 C 0.89889 0.1656 0.47279 0.0
H770 H 0.96007 0.14636 0.43272 0.0
C771 C 0.93536 0.06804 0.4985 0.0
C772 C 0.96431 0.0703 0.49727 0.0
C773 C 0.92493 0.08963 0.48899 0.0
C774 C 0.94319 0.15167 0.44433 0.0
H775 H 0.86559 0.25181 0.45789 0.0
H776 H 0.8904 0.21982 0.47638 0.0
H777 H 0.94123 0.18354 0.41614 0.0
H778 H 0.00501 0.0971 0.48501 0.0
H779 H 0.98683 0.13483 0.46877 0.0
H780 H 0.90116 0.13404 0.50121 0.0
C781 C 0.88721 0.21962 0.45464 0.0
C782 C 0.93218 0.17279 0.43466 0.0
C783 C 0.8732 0.23808 0.44407 0.0
C784 C 0.98257 0.09457 0.48614 0.0
C785 C 0.97213 0.1162 0.47672 0.0
C786 C 0.90996 0.14453 0.48251 0.0
C787 C 0.89669 0.20095 0.43736 0.0
C788 C 0.9097 0.17983 0.44861 0.0
C789 C 0.94319 0.11404 0.47812 0.0
C790 C 0.93206 0.1371 0.46825 0.0
H791 H 0.87533 0.21982 0.37695 0.0
H792 H 0.89924 0.18749 0.39532 0.0
H793 H 0.88139 0.17024 0.48391 0.0
H794 H 0.92069 0.0496 0.50686 0.0
H795 H 0.90248 0.08705 0.48994 0.0
C796 C 0.26852 0.64633 0.18603 0.0
C797 C 0.29427 0.65539 0.17167 0.0
C798 C 0.24405 0.63296 0.17234 0.0
C799 C 0.21544 0.62289 0.10198 0.0
H800 H 0.15443 0.56859 0.138 0.0
C801 C 0.1072 0.58327 0.05234 0.0
C802 C 0.0913 0.55578 0.05748 0.0
C803 C 0.132 0.59474 0.06623 0.0
C804 C 0.17134 0.58343 0.12738 0.0
H805 H 0.31493 0.65643 0.13205 0.0
H806 H 0.2728 0.63203 0.10838 0.0
H807 H 0.19755 0.58803 0.16194 0.0
H808 H 0.08951 0.51851 0.08074 0.0
H809 H 0.13316 0.53796 0.10404 0.0
H810 H 0.18981 0.61738 0.06701 0.0
C811 C 0.27099 0.63611 0.12998 0.0
C812 C 0.19606 0.595 0.14138 0.0
C813 C 0.29528 0.64987 0.14358 0.0
C814 C 0.1011 0.53986 0.07646 0.0
C815 C 0.12612 0.55116 0.09003 0.0
C816 C 0.19091 0.61104 0.08787 0.0
C817 C 0.24482 0.62794 0.14399 0.0
C818 C 0.21851 0.61502 0.12895 0.0
C819 C 0.14189 0.57889 0.08534 0.0
C820 C 0.16836 0.59121 0.10036 0.0
H821 H 0.26711 0.65058 0.20766 0.0
H822 H 0.22441 0.62741 0.18393 0.0
H823 H 0.23187 0.63857 0.0917 0.0
H824 H 0.10013 0.59621 0.03804 0.0
H825 H 0.14309 0.61629 0.06231 0.0
C826 C 0.23177 0.40104 0.66857 0.0
C827 C 0.20957 0.38353 0.65431 0.0
C828 C 0.25632 0.41543 0.65472 0.0
C829 C 0.29858 0.41127 0.5934 0.0
H830 H 0.33521 0.48879 0.60942 0.0
C831 C 0.40186 0.46989 0.53814 0.0
C832 C 0.42211 0.48757 0.55438 0.0
C833 C 0.3746 0.45856 0.54849 0.0
C834 C 0.32539 0.46706 0.60489 0.0
H835 H 0.19541 0.3683 0.61415 0.0
H836 H 0.23857 0.39298 0.59011 0.0
H837 H 0.29 0.46662 0.63134 0.0
H838 H 0.4296 0.5072 0.59424 0.0
H839 H 0.38256 0.48697 0.61239 0.0
H840 H 0.33427 0.4113 0.56767 0.0
C841 C 0.23696 0.39535 0.61202 0.0
C842 C 0.29948 0.45442 0.61739 0.0
C843 C 0.21232 0.38117 0.62582 0.0
C844 C 0.41451 0.49377 0.58109 0.0
C845 C 0.3874 0.48232 0.59147 0.0
C846 C 0.32463 0.42381 0.58108 0.0
C847 C 0.25927 0.41244 0.62636 0.0
C848 C 0.28596 0.42634 0.61197 0.0
C849 C 0.36709 0.46455 0.57534 0.0
C850 C 0.33851 0.45177 0.58693 0.0
H851 H 0.23052 0.40304 0.69054 0.0
H852 H 0.27335 0.42824 0.6663 0.0
H853 H 0.28874 0.38949 0.58907 0.0
H854 H 0.40701 0.46486 0.51741 0.0
H855 H 0.35937 0.44524 0.5354 0.0
C856 C 0.7393 0.68588 0.89349 0.0
C857 C 0.72804 0.70381 0.90991 0.0
C858 C 0.76353 0.67885 0.90105 0.0
C859 C 0.80769 0.67477 0.95851 0.0
H860 H 0.86677 0.68369 0.90287 0.0
C861 C 0.91729 0.66162 0.98216 0.0
C862 C 0.92987 0.64778 0.96237 0.0
C863 C 0.89305 0.66968 0.97635 0.0
C864 C 0.8504 0.68074 0.91857 0.0
H865 H 0.73241 0.72754 0.9477 0.0
H866 H 0.77469 0.71488 0.96113 0.0
H867 H 0.82271 0.69376 0.89212 0.0
H868 H 0.92685 0.63119 0.92119 0.0
H869 H 0.88441 0.64471 0.91118 0.0
H870 H 0.83507 0.66112 0.98483 0.0
C871 C 0.76483 0.70642 0.94234 0.0
C872 C 0.82519 0.68656 0.9124 0.0
C873 C 0.74072 0.71371 0.93462 0.0
C874 C 0.91789 0.6423 0.93665 0.0
C875 C 0.89356 0.65009 0.93093 0.0
C876 C 0.83284 0.66864 0.96464 0.0
C877 C 0.77677 0.6894 0.92533 0.0
C878 C 0.80354 0.68348 0.93224 0.0
C879 C 0.88077 0.6638 0.95072 0.0
C880 C 0.85444 0.67139 0.94467 0.0
H881 H 0.72985 0.67798 0.87436 0.0
H882 H 0.7721 0.66538 0.88775 0.0
H883 H 0.79125 0.67209 0.97413 0.0
H884 H 0.92624 0.66627 1.00209 0.0
H885 H 0.88401 0.68059 0.99192 0.0
C886 C 0.39978 0.75542 0.17517 0.0
C887 C 0.37046 0.74443 0.17627 0.0
C888 C 0.41202 0.78147 0.16313 0.0
C889 C 0.39504 0.84652 0.13925 0.0
H890 H 0.46435 0.8562 0.09687 0.0
C891 C 0.43967 0.9413 0.06742 0.0
C892 C 0.46865 0.954 0.06859 0.0
C893 C 0.42764 0.91603 0.08096 0.0
C894 C 0.44508 0.85392 0.10879 0.0
H895 H 0.33112 0.75318 0.16648 0.0
H896 H 0.35227 0.79759 0.14473 0.0
H897 H 0.44397 0.81219 0.12026 0.0
H898 H 0.50764 0.94969 0.08484 0.0
H899 H 0.48674 0.90582 0.1081 0.0
H900 H 0.39599 0.88815 0.12721 0.0
C901 C 0.36597 0.78642 0.15341 0.0
C902 C 0.43342 0.82867 0.12237 0.0
C903 C 0.35378 0.76057 0.16559 0.0
C904 C 0.48525 0.94066 0.08348 0.0
C905 C 0.4733 0.91533 0.09672 0.0
C906 C 0.40658 0.87166 0.12544 0.0
C907 C 0.3953 0.79724 0.15178 0.0
C908 C 0.40819 0.82453 0.13783 0.0
C909 C 0.44435 0.90268 0.0957 0.0
C910 C 0.43177 0.87572 0.11006 0.0
H911 H 0.41336 0.74363 0.18304 0.0
H912 H 0.43465 0.78921 0.16272 0.0
H913 H 0.37592 0.84449 0.15131 0.0
H914 H 0.42624 0.95092 0.05616 0.0
H915 H 0.4053 0.90674 0.07958 0.0
C916 C 0.1209 0.27334 0.6842 0.0
C917 C 0.13378 0.29441 0.66545 0.0
C918 C 0.10905 0.246 0.67527 0.0
C919 C 0.11577 0.19618 0.6237 0.0
H920 H 0.03599 0.16191 0.63288 0.0
C921 C 0.0612 0.09697 0.56442 0.0
C922 C 0.03727 0.07844 0.576 0.0
C923 C 0.07371 0.12215 0.57747 0.0
C924 C 0.05842 0.17079 0.63063 0.0
H925 H 0.14324 0.30311 0.62238 0.0
H926 H 0.12383 0.25518 0.60722 0.0
H927 H 0.05633 0.20797 0.65248 0.0
H928 H 0.00829 0.07099 0.61079 0.0
H929 H 0.03091 0.1142 0.63434 0.0
H930 H 0.11836 0.15906 0.60254 0.0
C931 C 0.12299 0.26003 0.62877 0.0
C932 C 0.06995 0.19726 0.64174 0.0
C933 C 0.13427 0.28741 0.63756 0.0
C934 C 0.02661 0.08507 0.60131 0.0
C935 C 0.03948 0.10997 0.61468 0.0
C936 C 0.1044 0.16948 0.61309 0.0
C937 C 0.11037 0.23915 0.64754 0.0
C938 C 0.09859 0.21029 0.63792 0.0
C939 C 0.06293 0.12911 0.60272 0.0
C940 C 0.07545 0.15661 0.61594 0.0
H941 H 0.12042 0.27777 0.70584 0.0
H942 H 0.09939 0.23008 0.69005 0.0
H943 H 0.13801 0.20587 0.62075 0.0
H944 H 0.06966 0.09252 0.54474 0.0
H945 H 0.09133 0.13648 0.56727 0.0
C946 C 0.76465 0.31169 0.3974 0.0
C947 C 0.75607 0.28506 0.38541 0.0
C948 C 0.74478 0.32423 0.40914 0.0
C949 C 0.66975 0.32106 0.40416 0.0
H950 H 0.68206 0.36933 0.46786 0.0
C951 C 0.59751 0.39138 0.4309 0.0
C952 C 0.58936 0.39328 0.45837 0.0
C953 C 0.61865 0.37859 0.42359 0.0
C954 C 0.67822 0.35573 0.45016 0.0
H955 H 0.72043 0.24981 0.37801 0.0
H956 H 0.6859 0.27131 0.3989 0.0
H957 H 0.71722 0.34495 0.45367 0.0
H958 H 0.59734 0.3836 0.49981 0.0
H959 H 0.6342 0.36089 0.487 0.0
H960 H 0.63069 0.33131 0.40078 0.0
C961 C 0.70777 0.28296 0.39855 0.0
C962 C 0.69849 0.34199 0.44189 0.0
C963 C 0.72753 0.27058 0.38668 0.0
C964 C 0.60326 0.38257 0.47847 0.0
C965 C 0.62441 0.36963 0.47114 0.0
C966 C 0.64957 0.33471 0.41242 0.0
C967 C 0.71602 0.31024 0.40922 0.0
C968 C 0.69447 0.3245 0.41875 0.0
C969 C 0.63213 0.36723 0.44357 0.0
C970 C 0.6536 0.35236 0.4354 0.0
H971 H 0.78654 0.3233 0.3966 0.0
H972 H 0.75184 0.34531 0.41705 0.0
H973 H 0.66611 0.30813 0.38599 0.0
H974 H 0.58766 0.40001 0.41498 0.0
H975 H 0.62451 0.3777 0.40222 0.0
loop_
_geom_bond_atom_site_label_1
_geom_bond_atom_site_label_2
_geom_bond_distance
_geom_bond_site_symmetry_2
_ccdc_geom_bond_type
H0 C5 0.930 . S
H1 C8 0.930 . S
H2 C10 0.930 . S
H3 C4 1.016 . S
C4 H3 1.016 . S
C4 N11 1.286 . S
C5 H0 0.930 . S
C5 C6 1.397 . S
C5 C7 1.361 . S
C6 C5 1.397 . S
C6 C10 1.390 . S
C7 C5 1.361 . S
C7 C8 1.393 . S
C7 N11 1.413 . S
C8 H1 0.930 . S
C8 C7 1.393 . S
C8 C9 1.399 . S
C9 C8 1.399 . S
C9 C10 1.381 . S
C10 H2 0.930 . S
C10 C6 1.390 . S
C10 C9 1.381 . S
N11 C4 1.286 . S
N11 C7 1.413 . S
H12 C17 0.930 . S
H13 C20 0.930 . S
H14 C22 0.930 . S
H15 C16 1.016 . S
C16 H15 1.016 . S
C16 N23 1.286 . S
C17 H12 0.930 . S
C17 C18 1.397 . S
C17 C19 1.361 . S
C18 C17 1.397 . S
C18 C22 1.390 . S
C19 C17 1.361 . S
C19 C20 1.393 . S
C19 N23 1.413 . S
C20 H13 0.930 . S
C20 C19 1.393 . S
C20 C21 1.399 . S
C21 C20 1.399 . S
C21 C22 1.381 . S
C22 H14 0.930 . S
C22 C18 1.390 . S
C22 C21 1.381 . S
N23 C16 1.286 . S
N23 C19 1.413 . S
H24 C29 0.930 . S
H25 C32 0.930 . S
H26 C34 0.930 . S
H27 C28 1.016 . S
C28 H27 1.016 . S
C28 N35 1.286 . S
C29 H24 0.930 . S
C29 C30 1.397 . S
C29 C31 1.361 . S
C30 C29 1.397 . S
C30 C34 1.390 . S
C31 C29 1.361 . S
C31 C32 1.393 . S
C31 N35 1.413 . S
C32 H25 0.930 . S
C32 C31 1.393 . S
C32 C33 1.399 . S
C33 C32 1.399 . S
C33 C34 1.381 . S
C34 H26 0.930 . S
C34 C30 1.390 . S
C34 C33 1.381 . S
N35 C28 1.286 . S
N35 C31 1.413 . S
H36 C41 0.930 . S
H37 C44 0.930 . S
H38 C46 0.930 . S
H39 C40 1.016 . S
C40 H39 1.016 . S
C40 N47 1.286 . S
C41 H36 0.930 . S
C41 C42 1.397 . S
C41 C43 1.361 . S
C42 C41 1.397 . S
C42 C46 1.390 . S
C43 C41 1.361 . S
C43 C44 1.393 . S
C43 N47 1.413 . S
C44 H37 0.930 . S
C44 C43 1.393 . S
C44 C45 1.399 . S
C45 C44 1.399 . S
C45 C46 1.381 . S
C46 H38 0.930 . S
C46 C42 1.390 . S
C46 C45 1.381 . S
N47 C40 1.286 . S
N47 C43 1.413 . S
H48 C53 0.930 . S
H49 C56 0.930 . S
H50 C58 0.930 . S
H51 C52 1.016 . S
C52 H51 1.016 . S
C52 N59 1.286 . S
C53 H48 0.930 . S
C53 C54 1.397 . S
C53 C55 1.361 . S
C54 C53 1.397 . S
C54 C58 1.390 . S
C55 C53 1.361 . S
C55 C56 1.393 . S
C55 N59 1.413 . S
C56 H49 0.930 . S
C56 C55 1.393 . S
C56 C57 1.399 . S
C57 C56 1.399 . S
C57 C58 1.381 . S
C58 H50 0.930 . S
C58 C54 1.390 . S
C58 C57 1.381 . S
N59 C52 1.286 . S
N59 C55 1.413 . S
H60 C65 0.930 . S
H61 C68 0.930 . S
H62 C70 0.930 . S
H63 C64 1.016 . S
C64 H63 1.016 . S
C64 N71 1.286 . S
C65 H60 0.930 . S
C65 C66 1.397 . S
C65 C67 1.361 . S
C66 C65 1.397 . S
C66 C70 1.390 . S
C67 C65 1.361 . S
C67 C68 1.393 . S
C67 N71 1.413 . S
C68 H61 0.930 . S
C68 C67 1.393 . S
C68 C69 1.399 . S
C69 C68 1.399 . S
C69 C70 1.381 . S
C70 H62 0.930 . S
C70 C66 1.390 . S
C70 C69 1.381 . S
N71 C64 1.286 . S
N71 C67 1.413 . S
H72 C77 0.930 . S
H73 C80 0.930 . S
H74 C82 0.930 . S
H75 C76 1.016 . S
C76 H75 1.016 . S
C76 N83 1.286 . S
C77 H72 0.930 . S
C77 C78 1.397 . S
C77 C79 1.361 . S
C78 C77 1.397 . S
C78 C82 1.390 . S
C79 C77 1.361 . S
C79 C80 1.393 . S
C79 N83 1.413 . S
C80 H73 0.930 . S
C80 C79 1.393 . S
C80 C81 1.399 . S
C81 C80 1.399 . S
C81 C82 1.381 . S
C82 H74 0.930 . S
C82 C78 1.390 . S
C82 C81 1.381 . S
N83 C76 1.286 . S
N83 C79 1.413 . S
H84 C89 0.930 . S
H85 C92 0.930 . S
H86 C94 0.930 . S
H87 C88 1.016 . S
C88 H87 1.016 . S
C88 N95 1.286 . S
C89 H84 0.930 . S
C89 C90 1.397 . S
C89 C91 1.361 . S
C90 C89 1.397 . S
C90 C94 1.390 . S
C91 C89 1.361 . S
C91 C92 1.393 . S
C91 N95 1.413 . S
C92 H85 0.930 . S
C92 C91 1.393 . S
C92 C93 1.399 . S
C93 C92 1.399 . S
C93 C94 1.381 . S
C94 H86 0.930 . S
C94 C90 1.390 . S
C94 C93 1.381 . S
N95 C88 1.286 . S
N95 C91 1.413 . S
Tb96 C105 2.764 . S
Tb96 O106 2.325 1_455 S
Tb96 O109 2.303 . S
Tb96 O113 2.322 1_545 S
Tb96 O114 2.349 1_545 S
Tb96 O117 2.415 . S
Tb96 O118 2.399 . S
Tb97 O107 2.300 1_565 S
Tb97 O108 2.326 1_565 S
Tb97 O110 2.442 . S
Tb97 O111 2.404 . S
Tb97 O112 2.345 1_655 S
Tb97 O115 2.322 . S
Tb97 C126 2.782 . S
C98 O114 1.261 1_655 S
C98 O115 1.257 . S
C99 C102 1.358 . S
C99 C103 1.332 . S
C99 C105 1.504 . S
C100 C101 1.373 . S
C100 C104 1.308 . S
C101 C100 1.373 . S
C101 C102 1.429 . S
C101 H128 0.932 . S
C102 C99 1.358 . S
C102 C101 1.429 . S
C102 H129 0.930 . S
C103 C99 1.332 . S
C103 C104 1.394 . S
C103 H130 0.932 . S
C104 C100 1.308 . S
C104 C103 1.394 . S
C104 H131 0.929 . S
C105 Tb96 2.764 . S
C105 C99 1.504 . S
C105 O117 1.239 . S
C105 O118 1.263 . S
O106 Tb96 2.325 1_655 S
O106 C116 1.236 . S
O107 Tb97 2.300 1_545 S
O107 C116 1.257 . S
O108 Tb97 2.326 1_545 S
O108 C119 1.261 1_655 S
O109 Tb96 2.303 . S
O109 C119 1.257 . S
O110 Tb97 2.442 . S
O110 C126 1.239 . S
O111 Tb97 2.404 . S
O111 C126 1.263 . S
O112 Tb97 2.345 1_455 S
O112 C127 1.236 . S
O113 Tb96 2.322 1_565 S
O113 C127 1.257 . S
O114 Tb96 2.349 1_565 S
O114 C98 1.261 1_455 S
O115 Tb97 2.322 . S
O115 C98 1.257 . S
C116 O106 1.236 . S
C116 O107 1.257 . S
O117 Tb96 2.415 . S
O117 C105 1.239 . S
O118 Tb96 2.399 . S
O118 C105 1.263 . S
C119 O108 1.261 1_455 S
C119 O109 1.257 . S
C120 C123 1.358 . S
C120 C124 1.332 . S
C120 C126 1.504 . S
C121 C122 1.373 . S
C121 C125 1.308 . S
C122 C121 1.373 . S
C122 C123 1.429 . S
C122 H132 0.932 . S
C123 C120 1.358 . S
C123 C122 1.429 . S
C123 H133 0.930 . S
C124 C120 1.332 . S
C124 C125 1.394 . S
C124 H134 0.932 . S
C125 C121 1.308 . S
C125 C124 1.394 . S
C125 H135 0.929 . S
C126 Tb97 2.782 . S
C126 O110 1.239 . S
C126 O111 1.263 . S
C126 C120 1.504 . S
C127 O112 1.236 . S
C127 O113 1.257 . S
H128 C101 0.932 . S
H129 C102 0.930 . S
H130 C103 0.932 . S
H131 C104 0.929 . S
H132 C122 0.932 . S
H133 C123 0.930 . S
H134 C124 0.932 . S
H135 C125 0.929 . S
Tb136 C145 2.764 . S
Tb136 O146 2.325 . S
Tb136 O149 2.303 . S
Tb136 O153 2.322 1_545 S
Tb136 O154 2.349 1_545 S
Tb136 O157 2.415 . S
Tb136 O158 2.399 . S
Tb137 O147 2.322 . S
Tb137 O148 2.349 1_556 S
Tb137 O150 2.415 1_545 S
Tb137 O151 2.399 1_545 S
Tb137 O152 2.325 1_546 S
Tb137 O155 2.303 1_545 S
Tb137 C166 2.764 1_545 S
C138 O154 1.261 1_556 S
C138 O155 1.257 . S
C139 C142 1.358 . S
C139 C143 1.332 . S
C139 C145 1.504 . S
C140 C141 1.373 . S
C140 C144 1.308 . S
C141 C140 1.373 . S
C141 C142 1.429 . S
C141 H168 0.932 . S
C142 C139 1.358 . S
C142 C141 1.429 . S
C142 H169 0.930 . S
C143 C139 1.332 . S
C143 C144 1.394 . S
C143 H170 0.932 . S
C144 C140 1.308 . S
C144 C143 1.394 . S
C144 H171 0.929 . S
C145 Tb136 2.764 . S
C145 C139 1.504 . S
C145 O157 1.239 . S
C145 O158 1.263 . S
O146 Tb136 2.325 . S
O146 C156 1.236 1_554 S
O147 Tb137 2.322 . S
O147 C156 1.257 . S
O148 Tb137 2.349 1_554 S
O148 C159 1.261 . S
O149 Tb136 2.303 . S
O149 C159 1.257 . S
O150 Tb137 2.415 1_565 S
O150 C166 1.239 . S
O151 Tb137 2.399 1_565 S
O151 C166 1.263 . S
O152 Tb137 2.325 1_564 S
O152 C167 1.236 . S
O153 Tb136 2.322 1_565 S
O153 C167 1.257 . S
O154 Tb136 2.349 1_565 S
O154 C138 1.261 1_554 S
O155 Tb137 2.303 1_565 S
O155 C138 1.257 . S
C156 O146 1.236 1_556 S
C156 O147 1.257 . S
O157 Tb136 2.415 . S
O157 C145 1.239 . S
O158 Tb136 2.399 . S
O158 C145 1.263 . S
C159 O148 1.261 . S
C159 O149 1.257 . S
C160 C163 1.358 . S
C160 C164 1.332 . S
C160 C166 1.504 . S
C161 C162 1.373 . S
C161 C165 1.308 . S
C162 C161 1.373 . S
C162 C163 1.429 . S
C162 H172 0.932 . S
C163 C160 1.358 . S
C163 C162 1.429 . S
C163 H173 0.930 . S
C164 C160 1.332 . S
C164 C165 1.394 . S
C164 H174 0.932 . S
C165 C161 1.308 . S
C165 C164 1.394 . S
C165 H175 0.929 . S
C166 Tb137 2.764 1_565 S
C166 O150 1.239 . S
C166 O151 1.263 . S
C166 C160 1.504 . S
C167 O152 1.236 . S
C167 O153 1.257 . S
H168 C141 0.932 . S
H169 C142 0.930 . S
H170 C143 0.932 . S
H171 C144 0.929 . S
H172 C162 0.932 . S
H173 C163 0.930 . S
H174 C164 0.932 . S
H175 C165 0.929 . S
Tb176 C185 2.764 . S
Tb176 O186 2.325 . S
Tb176 O189 2.303 . S
Tb176 O193 2.322 . S
Tb176 O194 2.349 . S
Tb176 O197 2.415 . S
Tb176 O198 2.399 . S
Tb177 O187 2.322 . S
Tb177 O188 2.349 . S
Tb177 O190 2.415 . S
Tb177 O191 2.399 . S
Tb177 O192 2.325 . S
Tb177 O195 2.303 . S
Tb177 C206 2.764 . S
C178 O194 1.261 . S
C178 O195 1.257 . S
C179 C182 1.358 . S
C179 C183 1.332 . S
C179 C185 1.504 . S
C180 C181 1.373 . S
C180 C184 1.308 . S
C181 C180 1.373 . S
C181 C182 1.429 . S
C181 H208 0.932 . S
C182 C179 1.358 . S
C182 C181 1.429 . S
C182 H209 0.930 . S
C183 C179 1.332 . S
C183 C184 1.394 . S
C183 H210 0.932 . S
C184 C180 1.308 . S
C184 C183 1.394 . S
C184 H211 0.929 . S
C185 Tb176 2.764 . S
C185 C179 1.504 . S
C185 O197 1.239 . S
C185 O198 1.263 . S
O186 Tb176 2.325 . S
O186 C196 1.236 . S
O187 Tb177 2.322 . S
O187 C196 1.257 . S
O188 Tb177 2.349 . S
O188 C199 1.261 . S
O189 Tb176 2.303 . S
O189 C199 1.257 . S
O190 Tb177 2.415 . S
O190 C206 1.239 . S
O191 Tb177 2.399 . S
O191 C206 1.263 . S
O192 Tb177 2.325 . S
O192 C207 1.236 . S
O193 Tb176 2.322 . S
O193 C207 1.257 . S
O194 Tb176 2.349 . S
O194 C178 1.261 . S
O195 Tb177 2.303 . S
O195 C178 1.257 . S
C196 O186 1.236 . S
C196 O187 1.257 . S
O197 Tb176 2.415 . S
O197 C185 1.239 . S
O198 Tb176 2.399 . S
O198 C185 1.263 . S
C199 O188 1.261 . S
C199 O189 1.257 . S
C200 C203 1.358 . S
C200 C204 1.332 . S
C200 C206 1.504 . S
C201 C202 1.373 . S
C201 C205 1.308 . S
C202 C201 1.373 . S
C202 C203 1.429 . S
C202 H212 0.932 . S
C203 C200 1.358 . S
C203 C202 1.429 . S
C203 H213 0.930 . S
C204 C200 1.332 . S
C204 C205 1.394 . S
C204 H214 0.932 . S
C205 C201 1.308 . S
C205 C204 1.394 . S
C205 H215 0.929 . S
C206 Tb177 2.764 . S
C206 O190 1.239 . S
C206 O191 1.263 . S
C206 C200 1.504 . S
C207 O192 1.236 . S
C207 O193 1.257 . S
H208 C181 0.932 . S
H209 C182 0.930 . S
H210 C183 0.932 . S
H211 C184 0.929 . S
H212 C202 0.932 . S
H213 C203 0.930 . S
H214 C204 0.932 . S
H215 C205 0.929 . S
Tb216 C225 2.764 1_455 S
Tb216 O226 2.325 1_455 S
Tb216 O229 2.303 1_456 S
Tb216 O233 2.322 1_556 S
Tb216 O234 2.349 . S
Tb216 O237 2.415 1_455 S
Tb216 O238 2.399 1_455 S
Tb217 O227 2.322 1_455 S
Tb217 O228 2.349 1_455 S
Tb217 O230 2.415 . S
Tb217 O231 2.399 . S
Tb217 O232 2.325 . S
Tb217 O235 2.303 1_554 S
Tb217 C246 2.764 . S
C218 O234 1.261 . S
C218 O235 1.257 . S
C219 C222 1.358 . S
C219 C223 1.332 . S
C219 C225 1.504 . S
C220 C221 1.373 . S
C220 C224 1.308 . S
C221 C220 1.373 . S
C221 C222 1.429 . S
C221 H248 0.932 . S
C222 C219 1.358 . S
C222 C221 1.429 . S
C222 H249 0.930 . S
C223 C219 1.332 . S
C223 C224 1.394 . S
C223 H250 0.932 . S
C224 C220 1.308 . S
C224 C223 1.394 . S
C224 H251 0.929 . S
C225 Tb216 2.764 1_655 S
C225 C219 1.504 . S
C225 O237 1.239 . S
C225 O238 1.263 . S
O226 Tb216 2.325 1_655 S
O226 C236 1.236 . S
O227 Tb217 2.322 1_655 S
O227 C236 1.257 1_554 S
O228 Tb217 2.349 1_655 S
O228 C239 1.261 . S
O229 Tb216 2.303 1_654 S
O229 C239 1.257 . S
O230 Tb217 2.415 . S
O230 C246 1.239 . S
O231 Tb217 2.399 . S
O231 C246 1.263 . S
O232 Tb217 2.325 . S
O232 C247 1.236 . S
O233 Tb216 2.322 1_554 S
O233 C247 1.257 . S
O234 Tb216 2.349 . S
O234 C218 1.261 . S
O235 Tb217 2.303 1_556 S
O235 C218 1.257 . S
C236 O226 1.236 . S
C236 O227 1.257 1_556 S
O237 Tb216 2.415 1_655 S
O237 C225 1.239 . S
O238 Tb216 2.399 1_655 S
O238 C225 1.263 . S
C239 O228 1.261 . S
C239 O229 1.257 . S
C240 C243 1.358 . S
C240 C244 1.332 . S
C240 C246 1.504 . S
C241 C242 1.373 . S
C241 C245 1.308 . S
C242 C241 1.373 . S
C242 C243 1.429 . S
C242 H252 0.932 . S
C243 C240 1.358 . S
C243 C242 1.429 . S
C243 H253 0.930 . S
C244 C240 1.332 . S
C244 C245 1.394 . S
C244 H254 0.932 . S
C245 C241 1.308 . S
C245 C244 1.394 . S
C245 H255 0.929 . S
C246 Tb217 2.764 . S
C246 O230 1.239 . S
C246 O231 1.263 . S
C246 C240 1.504 . S
C247 O232 1.236 . S
C247 O233 1.257 . S
H248 C221 0.932 . S
H249 C222 0.930 . S
H250 C223 0.932 . S
H251 C224 0.929 . S
H252 C242 0.932 . S
H253 C243 0.930 . S
H254 C244 0.932 . S
H255 C245 0.929 . S
C256 C257 1.349 . S
C256 C258 1.327 . S
C256 H281 0.950 . S
C257 C256 1.349 . S
C257 C273 1.349 . S
C258 C256 1.327 . S
C258 C277 1.429 . S
C258 H282 0.950 . S
C259 C276 1.574 . S
C259 C278 1.368 . S
C259 H283 0.949 . S
H260 C264 0.949 . S
C261 C262 1.349 . S
C261 C263 1.327 . S
C261 H284 0.950 . S
C262 C261 1.349 . S
C262 C274 1.349 . S
C263 C261 1.327 . S
C263 C279 1.429 . S
C263 H285 0.950 . S
C264 H260 0.949 . S
C264 C272 1.574 . S
C264 C280 1.368 . S
H265 C273 0.950 . S
H266 C271 0.950 . S
H267 C272 0.949 . S
H268 C274 0.950 . S
H269 C275 0.950 . S
H270 C276 0.949 . S
C271 H266 0.950 . S
C271 C273 1.327 . S
C271 C277 1.429 . S
C272 C264 1.574 . S
C272 H267 0.949 . S
C272 C278 1.368 . S
C273 C257 1.349 . S
C273 H265 0.950 . S
C273 C271 1.327 . S
C274 C262 1.349 . S
C274 H268 0.950 . S
C274 C275 1.327 . S
C275 H269 0.950 . S
C275 C274 1.327 . S
C275 C279 1.429 . S
C276 C259 1.574 . S
C276 H270 0.949 . S
C276 C280 1.368 . S
C277 C258 1.429 . S
C277 C271 1.429 . S
C277 C278 1.523 . S
C278 C259 1.368 . S
C278 C272 1.368 . S
C278 C277 1.523 . S
C279 C263 1.429 . S
C279 C275 1.429 . S
C279 C280 1.523 . S
C280 C264 1.368 . S
C280 C276 1.368 . S
C280 C279 1.523 . S
H281 C256 0.950 . S
H282 C258 0.950 . S
H283 C259 0.949 . S
H284 C261 0.950 . S
H285 C263 0.950 . S
C286 C287 1.349 . S
C286 C288 1.327 . S
C286 H311 0.950 . S
C287 C286 1.349 . S
C287 C303 1.349 . S
C288 C286 1.327 . S
C288 C307 1.429 . S
C288 H312 0.950 . S
C289 C306 1.574 . S
C289 C308 1.368 . S
C289 H313 0.949 . S
H290 C294 0.949 . S
C291 C292 1.349 . S
C291 C293 1.327 . S
C291 H314 0.950 . S
C292 C291 1.349 . S
C292 C304 1.349 . S
C293 C291 1.327 . S
C293 C309 1.429 . S
C293 H315 0.950 . S
C294 H290 0.949 . S
C294 C302 1.574 . S
C294 C310 1.368 . S
H295 C303 0.950 . S
H296 C301 0.950 . S
H297 C302 0.949 . S
H298 C304 0.950 . S
H299 C305 0.950 . S
H300 C306 0.949 . S
C301 H296 0.950 . S
C301 C303 1.327 . S
C301 C307 1.429 . S
C302 C294 1.574 . S
C302 H297 0.949 . S
C302 C308 1.368 . S
C303 C287 1.349 . S
C303 H295 0.950 . S
C303 C301 1.327 . S
C304 C292 1.349 . S
C304 H298 0.950 . S
C304 C305 1.327 . S
C305 H299 0.950 . S
C305 C304 1.327 . S
C305 C309 1.429 . S
C306 C289 1.574 . S
C306 H300 0.949 . S
C306 C310 1.368 . S
C307 C288 1.429 . S
C307 C301 1.429 . S
C307 C308 1.523 . S
C308 C289 1.368 . S
C308 C302 1.368 . S
C308 C307 1.523 . S
C309 C293 1.429 . S
C309 C305 1.429 . S
C309 C310 1.523 . S
C310 C294 1.368 . S
C310 C306 1.368 . S
C310 C309 1.523 . S
H311 C286 0.950 . S
H312 C288 0.950 . S
H313 C289 0.949 . S
H314 C291 0.950 . S
H315 C293 0.950 . S
C316 C317 1.349 . S
C316 C318 1.327 . S
C316 H341 0.950 . S
C317 C316 1.349 . S
C317 C333 1.349 . S
C318 C316 1.327 . S
C318 C337 1.429 . S
C318 H342 0.950 . S
C319 C336 1.574 . S
C319 C338 1.368 . S
C319 H343 0.949 . S
H320 C324 0.949 . S
C321 C322 1.349 . S
C321 C323 1.327 . S
C321 H344 0.950 . S
C322 C321 1.349 . S
C322 C334 1.349 . S
C323 C321 1.327 . S
C323 C339 1.429 . S
C323 H345 0.950 . S
C324 H320 0.949 . S
C324 C332 1.574 . S
C324 C340 1.368 . S
H325 C333 0.950 . S
H326 C331 0.950 . S
H327 C332 0.949 . S
H328 C334 0.950 . S
H329 C335 0.950 . S
H330 C336 0.949 . S
C331 H326 0.950 . S
C331 C333 1.327 . S
C331 C337 1.429 . S
C332 C324 1.574 . S
C332 H327 0.949 . S
C332 C338 1.368 . S
C333 C317 1.349 . S
C333 H325 0.950 . S
C333 C331 1.327 . S
C334 C322 1.349 . S
C334 H328 0.950 . S
C334 C335 1.327 . S
C335 H329 0.950 . S
C335 C334 1.327 . S
C335 C339 1.429 . S
C336 C319 1.574 . S
C336 H330 0.949 . S
C336 C340 1.368 . S
C337 C318 1.429 . S
C337 C331 1.429 . S
C337 C338 1.523 . S
C338 C319 1.368 . S
C338 C332 1.368 . S
C338 C337 1.523 . S
C339 C323 1.429 . S
C339 C335 1.429 . S
C339 C340 1.523 . S
C340 C324 1.368 . S
C340 C336 1.368 . S
C340 C339 1.523 . S
H341 C316 0.950 . S
H342 C318 0.950 . S
H343 C319 0.949 . S
H344 C321 0.950 . S
H345 C323 0.950 . S
C346 C347 1.349 . S
C346 C348 1.327 . S
C346 H371 0.950 . S
C347 C346 1.349 . S
C347 C363 1.349 . S
C348 C346 1.327 . S
C348 C367 1.429 . S
C348 H372 0.950 . S
C349 C366 1.574 . S
C349 C368 1.368 . S
C349 H373 0.949 . S
H350 C354 0.949 . S
C351 C352 1.349 . S
C351 C353 1.327 . S
C351 H374 0.950 . S
C352 C351 1.349 . S
C352 C364 1.349 . S
C353 C351 1.327 . S
C353 C369 1.429 . S
C353 H375 0.950 . S
C354 H350 0.949 . S
C354 C362 1.574 . S
C354 C370 1.368 . S
H355 C363 0.950 . S
H356 C361 0.950 . S
H357 C362 0.949 . S
H358 C364 0.950 . S
H359 C365 0.950 . S
H360 C366 0.949 . S
C361 H356 0.950 . S
C361 C363 1.327 . S
C361 C367 1.429 . S
C362 C354 1.574 . S
C362 H357 0.949 . S
C362 C368 1.368 . S
C363 C347 1.349 . S
C363 H355 0.950 . S
C363 C361 1.327 . S
C364 C352 1.349 . S
C364 H358 0.950 . S
C364 C365 1.327 . S
C365 H359 0.950 . S
C365 C364 1.327 . S
C365 C369 1.429 . S
C366 C349 1.574 . S
C366 H360 0.949 . S
C366 C370 1.368 . S
C367 C348 1.429 . S
C367 C361 1.429 . S
C367 C368 1.523 . S
C368 C349 1.368 . S
C368 C362 1.368 . S
C368 C367 1.523 . S
C369 C353 1.429 . S
C369 C365 1.429 . S
C369 C370 1.523 . S
C370 C354 1.368 . S
C370 C366 1.368 . S
C370 C369 1.523 . S
H371 C346 0.950 . S
H372 C348 0.950 . S
H373 C349 0.949 . S
H374 C351 0.950 . S
H375 C353 0.950 . S
C376 C377 1.349 . S
C376 C378 1.327 . S
C376 H401 0.950 . S
C377 C376 1.349 . S
C377 C393 1.349 . S
C378 C376 1.327 . S
C378 C397 1.429 . S
C378 H402 0.950 . S
C379 C396 1.574 . S
C379 C398 1.368 . S
C379 H403 0.949 . S
H380 C384 0.949 . S
C381 C382 1.349 . S
C381 C383 1.327 . S
C381 H404 0.950 . S
C382 C381 1.349 . S
C382 C394 1.349 . S
C383 C381 1.327 . S
C383 C399 1.429 . S
C383 H405 0.950 . S
C384 H380 0.949 . S
C384 C392 1.574 . S
C384 C400 1.368 . S
H385 C393 0.950 . S
H386 C391 0.950 . S
H387 C392 0.949 . S
H388 C394 0.950 . S
H389 C395 0.950 . S
H390 C396 0.949 . S
C391 H386 0.950 . S
C391 C393 1.327 . S
C391 C397 1.429 . S
C392 C384 1.574 . S
C392 H387 0.949 . S
C392 C398 1.368 . S
C393 C377 1.349 . S
C393 H385 0.950 . S
C393 C391 1.327 . S
C394 C382 1.349 . S
C394 H388 0.950 . S
C394 C395 1.327 . S
C395 H389 0.950 . S
C395 C394 1.327 . S
C395 C399 1.429 . S
C396 C379 1.574 . S
C396 H390 0.949 . S
C396 C400 1.368 . S
C397 C378 1.429 . S
C397 C391 1.429 . S
C397 C398 1.523 . S
C398 C379 1.368 . S
C398 C392 1.368 . S
C398 C397 1.523 . S
C399 C383 1.429 . S
C399 C395 1.429 . S
C399 C400 1.523 . S
C400 C384 1.368 . S
C400 C396 1.368 . S
C400 C399 1.523 . S
H401 C376 0.950 . S
H402 C378 0.950 . S
H403 C379 0.949 . S
H404 C381 0.950 . S
H405 C383 0.950 . S
C406 C407 1.349 . S
C406 C408 1.327 . S
C406 H431 0.950 . S
C407 C406 1.349 . S
C407 C423 1.349 . S
C408 C406 1.327 . S
C408 C427 1.429 . S
C408 H432 0.950 . S
C409 C426 1.574 . S
C409 C428 1.368 . S
C409 H433 0.949 . S
H410 C414 0.949 . S
C411 C412 1.349 . S
C411 C413 1.327 . S
C411 H434 0.950 . S
C412 C411 1.349 . S
C412 C424 1.349 . S
C413 C411 1.327 . S
C413 C429 1.429 . S
C413 H435 0.950 . S
C414 H410 0.949 . S
C414 C422 1.574 . S
C414 C430 1.368 . S
H415 C423 0.950 . S
H416 C421 0.950 . S
H417 C422 0.949 . S
H418 C424 0.950 . S
H419 C425 0.950 . S
H420 C426 0.949 . S
C421 H416 0.950 . S
C421 C423 1.327 . S
C421 C427 1.429 . S
C422 C414 1.574 . S
C422 H417 0.949 . S
C422 C428 1.368 . S
C423 C407 1.349 . S
C423 H415 0.950 . S
C423 C421 1.327 . S
C424 C412 1.349 . S
C424 H418 0.950 . S
C424 C425 1.327 . S
C425 H419 0.950 . S
C425 C424 1.327 . S
C425 C429 1.429 . S
C426 C409 1.574 . S
C426 H420 0.949 . S
C426 C430 1.368 . S
C427 C408 1.429 . S
C427 C421 1.429 . S
C427 C428 1.523 . S
C428 C409 1.368 . S
C428 C422 1.368 . S
C428 C427 1.523 . S
C429 C413 1.429 . S
C429 C425 1.429 . S
C429 C430 1.523 . S
C430 C414 1.368 . S
C430 C426 1.368 . S
C430 C429 1.523 . S
H431 C406 0.950 . S
H432 C408 0.950 . S
H433 C409 0.949 . S
H434 C411 0.950 . S
H435 C413 0.950 . S
C436 C437 1.349 . S
C436 C438 1.327 . S
C436 H461 0.950 . S
C437 C436 1.349 . S
C437 C453 1.349 . S
C438 C436 1.327 . S
C438 C457 1.429 . S
C438 H462 0.950 . S
C439 C456 1.574 . S
C439 C458 1.368 . S
C439 H463 0.949 . S
H440 C444 0.949 . S
C441 C442 1.349 . S
C441 C443 1.327 . S
C441 H464 0.950 . S
C442 C441 1.349 . S
C442 C454 1.349 . S
C443 C441 1.327 . S
C443 C459 1.429 . S
C443 H465 0.950 . S
C444 H440 0.949 . S
C444 C452 1.574 . S
C444 C460 1.368 . S
H445 C453 0.950 . S
H446 C451 0.950 . S
H447 C452 0.949 . S
H448 C454 0.950 . S
H449 C455 0.950 . S
H450 C456 0.949 . S
C451 H446 0.950 . S
C451 C453 1.327 . S
C451 C457 1.429 . S
C452 C444 1.574 . S
C452 H447 0.949 . S
C452 C458 1.368 . S
C453 C437 1.349 . S
C453 H445 0.950 . S
C453 C451 1.327 . S
C454 C442 1.349 . S
C454 H448 0.950 . S
C454 C455 1.327 . S
C455 H449 0.950 . S
C455 C454 1.327 . S
C455 C459 1.429 . S
C456 C439 1.574 . S
C456 H450 0.949 . S
C456 C460 1.368 . S
C457 C438 1.429 . S
C457 C451 1.429 . S
C457 C458 1.523 . S
C458 C439 1.368 . S
C458 C452 1.368 . S
C458 C457 1.523 . S
C459 C443 1.429 . S
C459 C455 1.429 . S
C459 C460 1.523 . S
C460 C444 1.368 . S
C460 C456 1.368 . S
C460 C459 1.523 . S
H461 C436 0.950 . S
H462 C438 0.950 . S
H463 C439 0.949 . S
H464 C441 0.950 . S
H465 C443 0.950 . S
C466 C467 1.349 . S
C466 C468 1.327 . S
C466 H491 0.950 . S
C467 C466 1.349 . S
C467 C483 1.349 . S
C468 C466 1.327 . S
C468 C487 1.429 . S
C468 H492 0.950 . S
C469 C486 1.574 . S
C469 C488 1.368 . S
C469 H493 0.949 . S
H470 C474 0.949 . S
C471 C472 1.349 . S
C471 C473 1.327 . S
C471 H494 0.950 . S
C472 C471 1.349 . S
C472 C484 1.349 . S
C473 C471 1.327 . S
C473 C489 1.429 . S
C473 H495 0.950 . S
C474 H470 0.949 . S
C474 C482 1.574 . S
C474 C490 1.368 . S
H475 C483 0.950 . S
H476 C481 0.950 . S
H477 C482 0.949 . S
H478 C484 0.950 . S
H479 C485 0.950 . S
H480 C486 0.949 . S
C481 H476 0.950 . S
C481 C483 1.327 . S
C481 C487 1.429 . S
C482 C474 1.574 . S
C482 H477 0.949 . S
C482 C488 1.368 . S
C483 C467 1.349 . S
C483 H475 0.950 . S
C483 C481 1.327 . S
C484 C472 1.349 . S
C484 H478 0.950 . S
C484 C485 1.327 . S
C485 H479 0.950 . S
C485 C484 1.327 . S
C485 C489 1.429 . S
C486 C469 1.574 . S
C486 H480 0.949 . S
C486 C490 1.368 . S
C487 C468 1.429 . S
C487 C481 1.429 . S
C487 C488 1.523 . S
C488 C469 1.368 . S
C488 C482 1.368 . S
C488 C487 1.523 . S
C489 C473 1.429 . S
C489 C485 1.429 . S
C489 C490 1.523 . S
C490 C474 1.368 . S
C490 C486 1.368 . S
C490 C489 1.523 . S
H491 C466 0.950 . S
H492 C468 0.950 . S
H493 C469 0.949 . S
H494 C471 0.950 . S
H495 C473 0.950 . S
C496 C497 1.349 . S
C496 C498 1.327 . S
C496 H521 0.950 . S
C497 C496 1.349 . S
C497 C513 1.349 . S
C498 C496 1.327 . S
C498 C517 1.429 . S
C498 H522 0.950 . S
C499 C516 1.574 . S
C499 C518 1.368 . S
C499 H523 0.949 . S
H500 C504 0.949 . S
C501 C502 1.349 . S
C501 C503 1.327 . S
C501 H524 0.950 . S
C502 C501 1.349 . S
C502 C514 1.349 . S
C503 C501 1.327 . S
C503 C519 1.429 . S
C503 H525 0.950 . S
C504 H500 0.949 . S
C504 C512 1.574 . S
C504 C520 1.368 . S
H505 C513 0.950 . S
H506 C511 0.950 . S
H507 C512 0.949 . S
H508 C514 0.950 . S
H509 C515 0.950 . S
H510 C516 0.949 . S
C511 H506 0.950 . S
C511 C513 1.327 . S
C511 C517 1.429 . S
C512 C504 1.574 . S
C512 H507 0.949 . S
C512 C518 1.368 . S
C513 C497 1.349 . S
C513 H505 0.950 . S
C513 C511 1.327 . S
C514 C502 1.349 . S
C514 H508 0.950 . S
C514 C515 1.327 . S
C515 H509 0.950 . S
C515 C514 1.327 . S
C515 C519 1.429 . S
C516 C499 1.574 . S
C516 H510 0.949 . S
C516 C520 1.368 . S
C517 C498 1.429 . S
C517 C511 1.429 . S
C517 C518 1.523 . S
C518 C499 1.368 . S
C518 C512 1.368 . S
C518 C517 1.523 . S
C519 C503 1.429 . S
C519 C515 1.429 . S
C519 C520 1.523 . S
C520 C504 1.368 . S
C520 C516 1.368 . S
C520 C519 1.523 . S
H521 C496 0.950 . S
H522 C498 0.950 . S
H523 C499 0.949 . S
H524 C501 0.950 . S
H525 C503 0.950 . S
C526 C527 1.349 . S
C526 C528 1.327 . S
C526 H551 0.950 . S
C527 C526 1.349 . S
C527 C543 1.349 . S
C528 C526 1.327 . S
C528 C547 1.429 . S
C528 H552 0.950 . S
C529 C546 1.574 . S
C529 C548 1.368 . S
C529 H553 0.949 . S
H530 C534 0.949 . S
C531 C532 1.349 . S
C531 C533 1.327 . S
C531 H554 0.950 1_556 S
C532 C531 1.349 . S
C532 C544 1.349 . S
C533 C531 1.327 . S
C533 C549 1.429 . S
C533 H555 0.950 . S
C534 H530 0.949 . S
C534 C542 1.574 . S
C534 C550 1.368 . S
H535 C543 0.950 . S
H536 C541 0.950 . S
H537 C542 0.949 . S
H538 C544 0.950 . S
H539 C545 0.950 . S
H540 C546 0.949 . S
C541 H536 0.950 . S
C541 C543 1.327 . S
C541 C547 1.429 . S
C542 C534 1.574 . S
C542 H537 0.949 . S
C542 C548 1.368 . S
C543 C527 1.349 . S
C543 H535 0.950 . S
C543 C541 1.327 . S
C544 C532 1.349 . S
C544 H538 0.950 . S
C544 C545 1.327 . S
C545 H539 0.950 . S
C545 C544 1.327 . S
C545 C549 1.429 . S
C546 C529 1.574 . S
C546 H540 0.949 . S
C546 C550 1.368 . S
C547 C528 1.429 . S
C547 C541 1.429 . S
C547 C548 1.523 . S
C548 C529 1.368 . S
C548 C542 1.368 . S
C548 C547 1.523 . S
C549 C533 1.429 . S
C549 C545 1.429 . S
C549 C550 1.523 . S
C550 C534 1.368 . S
C550 C546 1.368 . S
C550 C549 1.523 . S
H551 C526 0.950 . S
H552 C528 0.950 . S
H553 C529 0.949 . S
H554 C531 0.950 1_554 S
H555 C533 0.950 . S
C556 C557 1.349 . S
C556 C558 1.327 . S
C556 H581 0.950 . S
C557 C556 1.349 . S
C557 C573 1.349 . S
C558 C556 1.327 . S
C558 C577 1.429 . S
C558 H582 0.950 . S
C559 C576 1.574 . S
C559 C578 1.368 . S
C559 H583 0.949 . S
H560 C564 0.949 . S
C561 C562 1.349 . S
C561 C563 1.327 . S
C561 H584 0.950 . S
C562 C561 1.349 . S
C562 C574 1.349 . S
C563 C561 1.327 . S
C563 C579 1.429 . S
C563 H585 0.950 . S
C564 H560 0.949 . S
C564 C572 1.574 . S
C564 C580 1.368 . S
H565 C573 0.950 . S
H566 C571 0.950 . S
H567 C572 0.949 . S
H568 C574 0.950 . S
H569 C575 0.950 . S
H570 C576 0.949 . S
C571 H566 0.950 . S
C571 C573 1.327 . S
C571 C577 1.429 . S
C572 C564 1.574 . S
C572 H567 0.949 . S
C572 C578 1.368 . S
C573 C557 1.349 . S
C573 H565 0.950 . S
C573 C571 1.327 . S
C574 C562 1.349 . S
C574 H568 0.950 . S
C574 C575 1.327 . S
C575 H569 0.950 . S
C575 C574 1.327 . S
C575 C579 1.429 . S
C576 C559 1.574 . S
C576 H570 0.949 . S
C576 C580 1.368 . S
C577 C558 1.429 . S
C577 C571 1.429 . S
C577 C578 1.523 . S
C578 C559 1.368 . S
C578 C572 1.368 . S
C578 C577 1.523 . S
C579 C563 1.429 . S
C579 C575 1.429 . S
C579 C580 1.523 . S
C580 C564 1.368 . S
C580 C576 1.368 . S
C580 C579 1.523 . S
H581 C556 0.950 . S
H582 C558 0.950 . S
H583 C559 0.949 . S
H584 C561 0.950 . S
H585 C563 0.950 . S
C586 C587 1.349 . S
C586 C588 1.327 . S
C586 H611 0.950 . S
C587 C586 1.349 . S
C587 C603 1.349 . S
C588 C586 1.327 . S
C588 C607 1.429 . S
C588 H612 0.950 . S
C589 C606 1.574 . S
C589 C608 1.368 . S
C589 H613 0.949 . S
H590 C594 0.949 . S
C591 C592 1.349 . S
C591 C593 1.327 . S
C591 H614 0.950 . S
C592 C591 1.349 . S
C592 C604 1.349 . S
C593 C591 1.327 . S
C593 C609 1.429 . S
C593 H615 0.950 . S
C594 H590 0.949 . S
C594 C602 1.574 . S
C594 C610 1.368 . S
H595 C603 0.950 . S
H596 C601 0.950 . S
H597 C602 0.949 . S
H598 C604 0.950 . S
H599 C605 0.950 . S
H600 C606 0.949 . S
C601 H596 0.950 . S
C601 C603 1.327 . S
C601 C607 1.429 . S
C602 C594 1.574 . S
C602 H597 0.949 . S
C602 C608 1.368 . S
C603 C587 1.349 . S
C603 H595 0.950 . S
C603 C601 1.327 . S
C604 C592 1.349 . S
C604 H598 0.950 . S
C604 C605 1.327 . S
C605 H599 0.950 . S
C605 C604 1.327 . S
C605 C609 1.429 . S
C606 C589 1.574 . S
C606 H600 0.949 . S
C606 C610 1.368 . S
C607 C588 1.429 . S
C607 C601 1.429 . S
C607 C608 1.523 . S
C608 C589 1.368 . S
C608 C602 1.368 . S
C608 C607 1.523 . S
C609 C593 1.429 . S
C609 C605 1.429 . S
C609 C610 1.523 . S
C610 C594 1.368 . S
C610 C606 1.368 . S
C610 C609 1.523 . S
H611 C586 0.950 . S
H612 C588 0.950 . S
H613 C589 0.949 . S
H614 C591 0.950 . S
H615 C593 0.950 . S
C616 C617 1.349 . S
C616 C618 1.327 . S
C616 H641 0.950 . S
C617 C616 1.349 . S
C617 C633 1.349 . S
C618 C616 1.327 . S
C618 C637 1.429 . S
C618 H642 0.950 . S
C619 C636 1.574 . S
C619 C638 1.368 . S
C619 H643 0.949 . S
H620 C624 0.949 . S
C621 C622 1.349 . S
C621 C623 1.327 . S
C621 H644 0.950 . S
C622 C621 1.349 . S
C622 C634 1.349 . S
C623 C621 1.327 . S
C623 C639 1.429 . S
C623 H645 0.950 . S
C624 H620 0.949 . S
C624 C632 1.574 . S
C624 C640 1.368 . S
H625 C633 0.950 . S
H626 C631 0.950 . S
H627 C632 0.949 . S
H628 C634 0.950 . S
H629 C635 0.950 . S
H630 C636 0.949 . S
C631 H626 0.950 . S
C631 C633 1.327 . S
C631 C637 1.429 . S
C632 C624 1.574 . S
C632 H627 0.949 . S
C632 C638 1.368 . S
C633 C617 1.349 . S
C633 H625 0.950 . S
C633 C631 1.327 . S
C634 C622 1.349 . S
C634 H628 0.950 . S
C634 C635 1.327 . S
C635 H629 0.950 . S
C635 C634 1.327 . S
C635 C639 1.429 . S
C636 C619 1.574 . S
C636 H630 0.949 . S
C636 C640 1.368 . S
C637 C618 1.429 . S
C637 C631 1.429 . S
C637 C638 1.523 . S
C638 C619 1.368 . S
C638 C632 1.368 . S
C638 C637 1.523 . S
C639 C623 1.429 . S
C639 C635 1.429 . S
C639 C640 1.523 . S
C640 C624 1.368 . S
C640 C636 1.368 . S
C640 C639 1.523 . S
H641 C616 0.950 . S
H642 C618 0.950 . S
H643 C619 0.949 . S
H644 C621 0.950 . S
H645 C623 0.950 . S
C646 C647 1.349 . S
C646 C648 1.327 . S
C646 H671 0.950 . S
C647 C646 1.349 . S
C647 C663 1.349 . S
C648 C646 1.327 . S
C648 C667 1.429 . S
C648 H672 0.950 . S
C649 C666 1.574 . S
C649 C668 1.368 . S
C649 H673 0.949 . S
H650 C654 0.949 . S
C651 C652 1.349 . S
C651 C653 1.327 . S
C651 H674 0.950 . S
C652 C651 1.349 . S
C652 C664 1.349 . S
C653 C651 1.327 . S
C653 C669 1.429 . S
C653 H675 0.950 . S
C654 H650 0.949 . S
C654 C662 1.574 . S
C654 C670 1.368 . S
H655 C663 0.950 . S
H656 C661 0.950 . S
H657 C662 0.949 . S
H658 C664 0.950 . S
H659 C665 0.950 . S
H660 C666 0.949 . S
C661 H656 0.950 . S
C661 C663 1.327 . S
C661 C667 1.429 . S
C662 C654 1.574 . S
C662 H657 0.949 . S
C662 C668 1.368 . S
C663 C647 1.349 . S
C663 H655 0.950 . S
C663 C661 1.327 . S
C664 C652 1.349 . S
C664 H658 0.950 . S
C664 C665 1.327 . S
C665 H659 0.950 . S
C665 C664 1.327 . S
C665 C669 1.429 . S
C666 C649 1.574 . S
C666 H660 0.949 . S
C666 C670 1.368 . S
C667 C648 1.429 . S
C667 C661 1.429 . S
C667 C668 1.523 . S
C668 C649 1.368 . S
C668 C662 1.368 . S
C668 C667 1.523 . S
C669 C653 1.429 . S
C669 C665 1.429 . S
C669 C670 1.523 . S
C670 C654 1.368 . S
C670 C666 1.368 . S
C670 C669 1.523 . S
H671 C646 0.950 . S
H672 C648 0.950 . S
H673 C649 0.949 . S
H674 C651 0.950 . S
H675 C653 0.950 . S
C676 C677 1.349 . S
C676 C678 1.327 . S
C676 H701 0.950 . S
C677 C676 1.349 . S
C677 C693 1.349 . S
C678 C676 1.327 . S
C678 C697 1.429 . S
C678 H702 0.950 . S
C679 C696 1.574 . S
C679 C698 1.368 . S
C679 H703 0.949 . S
H680 C684 0.949 . S
C681 C682 1.349 . S
C681 C683 1.327 . S
C681 H704 0.950 . S
C682 C681 1.349 . S
C682 C694 1.349 . S
C683 C681 1.327 . S
C683 C699 1.429 . S
C683 H705 0.950 . S
C684 H680 0.949 . S
C684 C692 1.574 . S
C684 C700 1.368 . S
H685 C693 0.950 . S
H686 C691 0.950 . S
H687 C692 0.949 . S
H688 C694 0.950 . S
H689 C695 0.950 . S
H690 C696 0.949 . S
C691 H686 0.950 . S
C691 C693 1.327 . S
C691 C697 1.429 . S
C692 C684 1.574 . S
C692 H687 0.949 . S
C692 C698 1.368 . S
C693 C677 1.349 . S
C693 H685 0.950 . S
C693 C691 1.327 . S
C694 C682 1.349 . S
C694 H688 0.950 . S
C694 C695 1.327 . S
C695 H689 0.950 . S
C695 C694 1.327 . S
C695 C699 1.429 . S
C696 C679 1.574 . S
C696 H690 0.949 . S
C696 C700 1.368 . S
C697 C678 1.429 . S
C697 C691 1.429 . S
C697 C698 1.523 . S
C698 C679 1.368 . S
C698 C692 1.368 . S
C698 C697 1.523 . S
C699 C683 1.429 . S
C699 C695 1.429 . S
C699 C700 1.523 . S
C700 C684 1.368 . S
C700 C696 1.368 . S
C700 C699 1.523 . S
H701 C676 0.950 . S
H702 C678 0.950 . S
H703 C679 0.949 . S
H704 C681 0.950 . S
H705 C683 0.950 . S
C706 C707 1.349 . S
C706 C708 1.327 . S
C706 H731 0.950 . S
C707 C706 1.349 . S
C707 C723 1.349 . S
C708 C706 1.327 . S
C708 C727 1.429 . S
C708 H732 0.950 . S
C709 C726 1.574 . S
C709 C728 1.368 . S
C709 H733 0.949 . S
H710 C714 0.949 . S
C711 C712 1.349 . S
C711 C713 1.327 . S
C711 H734 0.950 . S
C712 C711 1.349 . S
C712 C724 1.349 . S
C713 C711 1.327 . S
C713 C729 1.429 . S
C713 H735 0.950 . S
C714 H710 0.949 . S
C714 C722 1.574 . S
C714 C730 1.368 . S
H715 C723 0.950 . S
H716 C721 0.950 . S
H717 C722 0.949 . S
H718 C724 0.950 . S
H719 C725 0.950 . S
H720 C726 0.949 . S
C721 H716 0.950 . S
C721 C723 1.327 . S
C721 C727 1.429 . S
C722 C714 1.574 . S
C722 H717 0.949 . S
C722 C728 1.368 . S
C723 C707 1.349 . S
C723 H715 0.950 . S
C723 C721 1.327 . S
C724 C712 1.349 . S
C724 H718 0.950 . S
C724 C725 1.327 . S
C725 H719 0.950 . S
C725 C724 1.327 . S
C725 C729 1.429 . S
C726 C709 1.574 . S
C726 H720 0.949 . S
C726 C730 1.368 . S
C727 C708 1.429 . S
C727 C721 1.429 . S
C727 C728 1.523 . S
C728 C709 1.368 . S
C728 C722 1.368 . S
C728 C727 1.523 . S
C729 C713 1.429 . S
C729 C725 1.429 . S
C729 C730 1.523 . S
C730 C714 1.368 . S
C730 C726 1.368 . S
C730 C729 1.523 . S
H731 C706 0.950 . S
H732 C708 0.950 . S
H733 C709 0.949 . S
H734 C711 0.950 . S
H735 C713 0.950 . S
C736 C737 1.349 . S
C736 C738 1.327 . S
C736 H761 0.950 . S
C737 C736 1.349 . S
C737 C753 1.349 . S
C738 C736 1.327 . S
C738 C757 1.429 . S
C738 H762 0.950 . S
C739 C756 1.574 . S
C739 C758 1.368 . S
C739 H763 0.949 . S
H740 C744 0.949 . S
C741 C742 1.349 . S
C741 C743 1.327 . S
C741 H764 0.950 . S
C742 C741 1.349 . S
C742 C754 1.349 . S
C743 C741 1.327 . S
C743 C759 1.429 . S
C743 H765 0.950 . S
C744 H740 0.949 . S
C744 C752 1.574 . S
C744 C760 1.368 . S
H745 C753 0.950 . S
H746 C751 0.950 . S
H747 C752 0.949 . S
H748 C754 0.950 1_554 S
H749 C755 0.950 . S
H750 C756 0.949 . S
C751 H746 0.950 . S
C751 C753 1.327 . S
C751 C757 1.429 . S
C752 C744 1.574 . S
C752 H747 0.949 . S
C752 C758 1.368 . S
C753 C737 1.349 . S
C753 H745 0.950 . S
C753 C751 1.327 . S
C754 C742 1.349 . S
C754 H748 0.950 1_556 S
C754 C755 1.327 . S
C755 H749 0.950 . S
C755 C754 1.327 . S
C755 C759 1.429 . S
C756 C739 1.574 . S
C756 H750 0.949 . S
C756 C760 1.368 . S
C757 C738 1.429 . S
C757 C751 1.429 . S
C757 C758 1.523 . S
C758 C739 1.368 . S
C758 C752 1.368 . S
C758 C757 1.523 . S
C759 C743 1.429 . S
C759 C755 1.429 . S
C759 C760 1.523 . S
C760 C744 1.368 . S
C760 C756 1.368 . S
C760 C759 1.523 . S
H761 C736 0.950 . S
H762 C738 0.950 . S
H763 C739 0.949 . S
H764 C741 0.950 . S
H765 C743 0.950 . S
C766 C767 1.349 . S
C766 C768 1.327 . S
C766 H791 0.950 . S
C767 C766 1.349 . S
C767 C783 1.349 . S
C768 C766 1.327 . S
C768 C787 1.429 . S
C768 H792 0.950 . S
C769 C786 1.574 . S
C769 C788 1.368 . S
C769 H793 0.949 . S
H770 C774 0.949 . S
C771 C772 1.349 . S
C771 C773 1.327 . S
C771 H794 0.950 . S
C772 C771 1.349 . S
C772 C784 1.349 . S
C773 C771 1.327 . S
C773 C789 1.429 . S
C773 H795 0.950 . S
C774 H770 0.949 . S
C774 C782 1.574 . S
C774 C790 1.368 . S
H775 C783 0.950 . S
H776 C781 0.950 . S
H777 C782 0.949 . S
H778 C784 0.950 . S
H779 C785 0.950 . S
H780 C786 0.949 . S
C781 H776 0.950 . S
C781 C783 1.327 . S
C781 C787 1.429 . S
C782 C774 1.574 . S
C782 H777 0.949 . S
C782 C788 1.368 . S
C783 C767 1.349 . S
C783 H775 0.950 . S
C783 C781 1.327 . S
C784 C772 1.349 . S
C784 H778 0.950 . S
C784 C785 1.327 . S
C785 H779 0.950 . S
C785 C784 1.327 . S
C785 C789 1.429 . S
C786 C769 1.574 . S
C786 H780 0.949 . S
C786 C790 1.368 . S
C787 C768 1.429 . S
C787 C781 1.429 . S
C787 C788 1.523 . S
C788 C769 1.368 . S
C788 C782 1.368 . S
C788 C787 1.523 . S
C789 C773 1.429 . S
C789 C785 1.429 . S
C789 C790 1.523 . S
C790 C774 1.368 . S
C790 C786 1.368 . S
C790 C789 1.523 . S
H791 C766 0.950 . S
H792 C768 0.950 . S
H793 C769 0.949 . S
H794 C771 0.950 . S
H795 C773 0.950 . S
C796 C797 1.349 . S
C796 C798 1.327 . S
C796 H821 0.950 . S
C797 C796 1.349 . S
C797 C813 1.349 . S
C798 C796 1.327 . S
C798 C817 1.429 . S
C798 H822 0.950 . S
C799 C816 1.574 . S
C799 C818 1.368 . S
C799 H823 0.949 . S
H800 C804 0.949 . S
C801 C802 1.349 . S
C801 C803 1.327 . S
C801 H824 0.950 1_554 S
C802 C801 1.349 . S
C802 C814 1.349 . S
C803 C801 1.327 . S
C803 C819 1.429 . S
C803 H825 0.950 . S
C804 H800 0.949 . S
C804 C812 1.574 . S
C804 C820 1.368 . S
H805 C813 0.950 . S
H806 C811 0.950 . S
H807 C812 0.949 . S
H808 C814 0.950 . S
H809 C815 0.950 . S
H810 C816 0.949 . S
C811 H806 0.950 . S
C811 C813 1.327 . S
C811 C817 1.429 . S
C812 C804 1.574 . S
C812 H807 0.949 . S
C812 C818 1.368 . S
C813 C797 1.349 . S
C813 H805 0.950 . S
C813 C811 1.327 . S
C814 C802 1.349 . S
C814 H808 0.950 . S
C814 C815 1.327 . S
C815 H809 0.950 . S
C815 C814 1.327 . S
C815 C819 1.429 . S
C816 C799 1.574 . S
C816 H810 0.949 . S
C816 C820 1.368 . S
C817 C798 1.429 . S
C817 C811 1.429 . S
C817 C818 1.523 . S
C818 C799 1.368 . S
C818 C812 1.368 . S
C818 C817 1.523 . S
C819 C803 1.429 . S
C819 C815 1.429 . S
C819 C820 1.523 . S
C820 C804 1.368 . S
C820 C816 1.368 . S
C820 C819 1.523 . S
H821 C796 0.950 . S
H822 C798 0.950 . S
H823 C799 0.949 . S
H824 C801 0.950 1_556 S
H825 C803 0.950 . S
C826 C827 1.349 . S
C826 C828 1.327 . S
C826 H851 0.950 . S
C827 C826 1.349 . S
C827 C843 1.349 . S
C828 C826 1.327 . S
C828 C847 1.429 . S
C828 H852 0.950 . S
C829 C846 1.574 . S
C829 C848 1.368 . S
C829 H853 0.949 . S
H830 C834 0.949 . S
C831 C832 1.349 . S
C831 C833 1.327 . S
C831 H854 0.950 . S
C832 C831 1.349 . S
C832 C844 1.349 . S
C833 C831 1.327 . S
C833 C849 1.429 . S
C833 H855 0.950 . S
C834 H830 0.949 . S
C834 C842 1.574 . S
C834 C850 1.368 . S
H835 C843 0.950 . S
H836 C841 0.950 . S
H837 C842 0.949 . S
H838 C844 0.950 . S
H839 C845 0.950 . S
H840 C846 0.949 . S
C841 H836 0.950 . S
C841 C843 1.327 . S
C841 C847 1.429 . S
C842 C834 1.574 . S
C842 H837 0.949 . S
C842 C848 1.368 . S
C843 C827 1.349 . S
C843 H835 0.950 . S
C843 C841 1.327 . S
C844 C832 1.349 . S
C844 H838 0.950 . S
C844 C845 1.327 . S
C845 H839 0.950 . S
C845 C844 1.327 . S
C845 C849 1.429 . S
C846 C829 1.574 . S
C846 H840 0.949 . S
C846 C850 1.368 . S
C847 C828 1.429 . S
C847 C841 1.429 . S
C847 C848 1.523 . S
C848 C829 1.368 . S
C848 C842 1.368 . S
C848 C847 1.523 . S
C849 C833 1.429 . S
C849 C845 1.429 . S
C849 C850 1.523 . S
C850 C834 1.368 . S
C850 C846 1.368 . S
C850 C849 1.523 . S
H851 C826 0.950 . S
H852 C828 0.950 . S
H853 C829 0.949 . S
H854 C831 0.950 . S
H855 C833 0.950 . S
C856 C857 1.349 . S
C856 C858 1.327 . S
C856 H881 0.950 . S
C857 C856 1.349 . S
C857 C873 1.349 . S
C858 C856 1.327 . S
C858 C877 1.429 . S
C858 H882 0.950 . S
C859 C876 1.574 . S
C859 C878 1.368 . S
C859 H883 0.949 . S
H860 C864 0.949 . S
C861 C862 1.349 . S
C861 C863 1.327 . S
C861 H884 0.950 . S
C862 C861 1.349 . S
C862 C874 1.349 . S
C863 C861 1.327 . S
C863 C879 1.429 . S
C863 H885 0.950 . S
C864 H860 0.949 . S
C864 C872 1.574 . S
C864 C880 1.368 . S
H865 C873 0.950 . S
H866 C871 0.950 . S
H867 C872 0.949 . S
H868 C874 0.950 . S
H869 C875 0.950 . S
H870 C876 0.949 . S
C871 H866 0.950 . S
C871 C873 1.327 . S
C871 C877 1.429 . S
C872 C864 1.574 . S
C872 H867 0.949 . S
C872 C878 1.368 . S
C873 C857 1.349 . S
C873 H865 0.950 . S
C873 C871 1.327 . S
C874 C862 1.349 . S
C874 H868 0.950 . S
C874 C875 1.327 . S
C875 H869 0.950 . S
C875 C874 1.327 . S
C875 C879 1.429 . S
C876 C859 1.574 . S
C876 H870 0.949 . S
C876 C880 1.368 . S
C877 C858 1.429 . S
C877 C871 1.429 . S
C877 C878 1.523 . S
C878 C859 1.368 . S
C878 C872 1.368 . S
C878 C877 1.523 . S
C879 C863 1.429 . S
C879 C875 1.429 . S
C879 C880 1.523 . S
C880 C864 1.368 . S
C880 C876 1.368 . S
C880 C879 1.523 . S
H881 C856 0.950 . S
H882 C858 0.950 . S
H883 C859 0.949 . S
H884 C861 0.950 . S
H885 C863 0.950 . S
C886 C887 1.349 . S
C886 C888 1.327 . S
C886 H911 0.950 . S
C887 C886 1.349 . S
C887 C903 1.349 . S
C888 C886 1.327 . S
C888 C907 1.429 . S
C888 H912 0.950 . S
C889 C906 1.574 . S
C889 C908 1.368 . S
C889 H913 0.949 . S
H890 C894 0.949 . S
C891 C892 1.349 . S
C891 C893 1.327 . S
C891 H914 0.950 . S
C892 C891 1.349 . S
C892 C904 1.349 . S
C893 C891 1.327 . S
C893 C909 1.429 . S
C893 H915 0.950 . S
C894 H890 0.949 . S
C894 C902 1.574 . S
C894 C910 1.368 . S
H895 C903 0.950 . S
H896 C901 0.950 . S
H897 C902 0.949 . S
H898 C904 0.950 . S
H899 C905 0.950 . S
H900 C906 0.949 . S
C901 H896 0.950 . S
C901 C903 1.327 . S
C901 C907 1.429 . S
C902 C894 1.574 . S
C902 H897 0.949 . S
C902 C908 1.368 . S
C903 C887 1.349 . S
C903 H895 0.950 . S
C903 C901 1.327 . S
C904 C892 1.349 . S
C904 H898 0.950 . S
C904 C905 1.327 . S
C905 H899 0.950 . S
C905 C904 1.327 . S
C905 C909 1.429 . S
C906 C889 1.574 . S
C906 H900 0.949 . S
C906 C910 1.368 . S
C907 C888 1.429 . S
C907 C901 1.429 . S
C907 C908 1.523 . S
C908 C889 1.368 . S
C908 C902 1.368 . S
C908 C907 1.523 . S
C909 C893 1.429 . S
C909 C905 1.429 . S
C909 C910 1.523 . S
C910 C894 1.368 . S
C910 C906 1.368 . S
C910 C909 1.523 . S
H911 C886 0.950 . S
H912 C888 0.950 . S
H913 C889 0.949 . S
H914 C891 0.950 . S
H915 C893 0.950 . S
C916 C917 1.349 . S
C916 C918 1.327 . S
C916 H941 0.950 . S
C917 C916 1.349 . S
C917 C933 1.349 . S
C918 C916 1.327 . S
C918 C937 1.429 . S
C918 H942 0.950 . S
C919 C936 1.574 . S
C919 C938 1.368 . S
C919 H943 0.949 . S
H920 C924 0.949 . S
C921 C922 1.349 . S
C921 C923 1.327 . S
C921 H944 0.950 . S
C922 C921 1.349 . S
C922 C934 1.349 . S
C923 C921 1.327 . S
C923 C939 1.429 . S
C923 H945 0.950 . S
C924 H920 0.949 . S
C924 C932 1.574 . S
C924 C940 1.368 . S
H925 C933 0.950 . S
H926 C931 0.950 . S
H927 C932 0.949 . S
H928 C934 0.950 . S
H929 C935 0.950 . S
H930 C936 0.949 . S
C931 H926 0.950 . S
C931 C933 1.327 . S
C931 C937 1.429 . S
C932 C924 1.574 . S
C932 H927 0.949 . S
C932 C938 1.368 . S
C933 C917 1.349 . S
C933 H925 0.950 . S
C933 C931 1.327 . S
C934 C922 1.349 . S
C934 H928 0.950 . S
C934 C935 1.327 . S
C935 H929 0.950 . S
C935 C934 1.327 . S
C935 C939 1.429 . S
C936 C919 1.574 . S
C936 H930 0.949 . S
C936 C940 1.368 . S
C937 C918 1.429 . S
C937 C931 1.429 . S
C937 C938 1.523 . S
C938 C919 1.368 . S
C938 C932 1.368 . S
C938 C937 1.523 . S
C939 C923 1.429 . S
C939 C935 1.429 . S
C939 C940 1.523 . S
C940 C924 1.368 . S
C940 C936 1.368 . S
C940 C939 1.523 . S
H941 C916 0.950 . S
H942 C918 0.950 . S
H943 C919 0.949 . S
H944 C921 0.950 . S
H945 C923 0.950 . S
C946 C947 1.349 . S
C946 C948 1.327 . S
C946 H971 0.950 . S
C947 C946 1.349 . S
C947 C963 1.349 . S
C948 C946 1.327 . S
C948 C967 1.429 . S
C948 H972 0.950 . S
C949 C966 1.574 . S
C949 C968 1.368 . S
C949 H973 0.949 . S
H950 C954 0.949 . S
C951 C952 1.349 . S
C951 C953 1.327 . S
C951 H974 0.950 . S
C952 C951 1.349 . S
C952 C964 1.349 . S
C953 C951 1.327 . S
C953 C969 1.429 . S
C953 H975 0.950 . S
C954 H950 0.949 . S
C954 C962 1.574 . S
C954 C970 1.368 . S
H955 C963 0.950 . S
H956 C961 0.950 . S
H957 C962 0.949 . S
H958 C964 0.950 . S
H959 C965 0.950 . S
H960 C966 0.949 . S
C961 H956 0.950 . S
C961 C963 1.327 . S
C961 C967 1.429 . S
C962 C954 1.574 . S
C962 H957 0.949 . S
C962 C968 1.368 . S
C963 C947 1.349 . S
C963 H955 0.950 . S
C963 C961 1.327 . S
C964 C952 1.349 . S
C964 H958 0.950 . S
C964 C965 1.327 . S
C965 H959 0.950 . S
C965 C964 1.327 . S
C965 C969 1.429 . S
C966 C949 1.574 . S
C966 H960 0.949 . S
C966 C970 1.368 . S
C967 C948 1.429 . S
C967 C961 1.429 . S
C967 C968 1.523 . S
C968 C949 1.368 . S
C968 C962 1.368 . S
C968 C967 1.523 . S
C969 C953 1.429 . S
C969 C965 1.429 . S
C969 C970 1.523 . S
C970 C954 1.368 . S
C970 C966 1.368 . S
C970 C969 1.523 . S
H971 C946 0.950 . S
H972 C948 0.950 . S
H973 C949 0.949 . S
H974 C951 0.950 . S
H975 C953 0.950 . S
C257 C6 0.868 . S
C262 C100 0.875 . S
C287 C18 1.379 . S
C292 C161 1.387 . S
C322 C199 2.630 . S
C317 C28 2.664 . S
C347 C40 1.584 . S
C352 C239 1.551 . S
C382 C159 1.509 . S
C377 C9 1.509 . S
C412 C127 1.955 . S
C407 C16 1.891 . S
C442 C236 1.691 . S
C437 C30 1.702 . S
C472 C196 1.388 . S
C467 C42 1.401 . S
C497 C4 0.889 . S
C502 C241 0.887 . S
C532 C156 2.620 . S
C527 C33 2.613 . S
C557 C45 1.827 . S
C562 C98 1.798 . S
C587 C21 1.521 . S
C592 C201 1.562 . S
C622 C121 0.912 . S
C617 C57 0.907 . S
C647 C66 1.358 . S
C652 C140 1.380 . S
C677 C76 2.717 . S
C682 C178 2.675 . S
C707 C88 1.491 . S
C712 C218 1.468 . S
C737 C54 1.481 . S
C742 C138 1.477 . S
C772 C116 2.045 . S
C767 C64 2.004 . S
C802 C247 1.549 . S
C797 C78 1.558 . S
C832 C207 1.452 . S
C827 C93 1.461 . S
C857 C52 0.868 . S
C862 C220 0.877 . S
C892 C167 2.613 . S
C887 C81 2.599 . S
C922 C119 1.775 . S
C917 C90 1.804 . S
C947 C69 1.518 . S
C952 C180 1.574 . S
