# Generated by pormake.
# Topology pyr, (3,6)-cn, num edge types: 1
# Building blocks:
#     Node 0, Type 0, BuildingBlock: ESEHIV_clean_linker_0, # of connection points: 3
#     Node 1, Type 0, BuildingBlock: ESEHIV_clean_linker_0, # of connection points: 3
#     Node 2, Type 0, BuildingBlock: ESEHIV_clean_linker_0, # of connection points: 3
#     Node 3, Type 0, BuildingBlock: ESEHIV_clean_linker_0, # of connection points: 3
#     Node 4, Type 0, BuildingBlock: ESEHIV_clean_linker_0, # of connection points: 3
#     Node 5, Type 0, BuildingBlock: ESEHIV_clean_linker_0, # of connection points: 3
#     Node 6, Type 0, BuildingBlock: ESEHIV_clean_linker_0, # of connection points: 3
#     Node 7, Type 0, BuildingBlock: ESEHIV_clean_linker_0, # of connection points: 3
#     Node 8, Type 1, BuildingBlock: GEDQOX_clean_sbu_0, # of connection points: 6
#     Node 9, Type 1, BuildingBlock: GEDQOX_clean_sbu_0, # of connection points: 6
#     Node 10, Type 1, BuildingBlock: GEDQOX_clean_sbu_0, # of connection points: 6
#     Node 11, Type 1, BuildingBlock: GEDQOX_clean_sbu_0, # of connection points: 6
#     Edge 12, Type (0, 1), BuildingBlock: MIFKUJ_clean_linker_0, # of connection points: 2
#     Edge 13, Type (0, 1), BuildingBlock: MIFKUJ_clean_linker_0, # of connection points: 2
#     Edge 14, Type (0, 1), BuildingBlock: MIFKUJ_clean_linker_0, # of connection points: 2
#     Edge 15, Type (0, 1), BuildingBlock: MIFKUJ_clean_linker_0, # of connection points: 2
#     Edge 16, Type (0, 1), BuildingBlock: MIFKUJ_clean_linker_0, # of connection points: 2
#     Edge 17, Type (0, 1), BuildingBlock: MIFKUJ_clean_linker_0, # of connection points: 2
#     Edge 18, Type (0, 1), BuildingBlock: MIFKUJ_clean_linker_0, # of connection points: 2
#     Edge 19, Type (0, 1), BuildingBlock: MIFKUJ_clean_linker_0, # of connection points: 2
#     Edge 20, Type (0, 1), BuildingBlock: MIFKUJ_clean_linker_0, # of connection points: 2
#     Edge 21, Type (0, 1), BuildingBlock: MIFKUJ_clean_linker_0, # of connection points: 2
#     Edge 22, Type (0, 1), BuildingBlock: MIFKUJ_clean_linker_0, # of connection points: 2
#     Edge 23, Type (0, 1), BuildingBlock: MIFKUJ_clean_linker_0, # of connection points: 2
#     Edge 24, Type (0, 1), BuildingBlock: MIFKUJ_clean_linker_0, # of connection points: 2
#     Edge 25, Type (0, 1), BuildingBlock: MIFKUJ_clean_linker_0, # of connection points: 2
#     Edge 26, Type (0, 1), BuildingBlock: MIFKUJ_clean_linker_0, # of connection points: 2
#     Edge 27, Type (0, 1), BuildingBlock: MIFKUJ_clean_linker_0, # of connection points: 2
#     Edge 28, Type (0, 1), BuildingBlock: MIFKUJ_clean_linker_0, # of connection points: 2
#     Edge 29, Type (0, 1), BuildingBlock: MIFKUJ_clean_linker_0, # of connection points: 2
#     Edge 30, Type (0, 1), BuildingBlock: MIFKUJ_clean_linker_0, # of connection points: 2
#     Edge 31, Type (0, 1), BuildingBlock: MIFKUJ_clean_linker_0, # of connection points: 2
#     Edge 32, Type (0, 1), BuildingBlock: MIFKUJ_clean_linker_0, # of connection points: 2
#     Edge 33, Type (0, 1), BuildingBlock: MIFKUJ_clean_linker_0, # of connection points: 2
#     Edge 34, Type (0, 1), BuildingBlock: MIFKUJ_clean_linker_0, # of connection points: 2
#     Edge 35, Type (0, 1), BuildingBlock: MIFKUJ_clean_linker_0, # of connection points: 2
# Relax obj value: 0.101
# Max RMSD: 0.152
# Mean RMSD: 0.061
data_MOF--net-pyr--node1-GEDQOX_clean_sbu_0--node2-ESEHIV_clean_linker_0--edge1-MIFKUJ_clean_linker_0
_symmetry_space_group_name_H-M    P1
_symmetry_Int_Tables_number       1
_symmetry_cell_setting            triclinic
loop_
_symmetry_equiv_pos_as_xyz
'x, y, z'
_cell_length_a     49.956508
_cell_length_b     49.738751
_cell_length_c     44.061317
_cell_angle_alpha  89.039571
_cell_angle_beta   92.970312
_cell_angle_gamma 89.269433
loop_
_atom_site_label
_atom_site_type_symbol
_atom_site_fract_x
_atom_site_fract_y
_atom_site_fract_z
_atom_type_partial_charge
H0 H 0.15404 0.19953 0.18985 0.0
H1 H 0.21405 0.13643 0.19097 0.0
H2 H 0.21624 0.202 0.12559 0.0
C3 C 0.17169 0.1908 0.18085 0.0
C4 C 0.18315 0.20453 0.15579 0.0
C5 C 0.18217 0.16619 0.19455 0.0
C6 C 0.2059 0.15524 0.18179 0.0
C7 C 0.21893 0.16747 0.15666 0.0
C8 C 0.20675 0.19207 0.14411 0.0
H9 H 0.33585 0.80942 0.76821 0.0
H10 H 0.41046 0.76647 0.75958 0.0
H11 H 0.34036 0.74587 0.70422 0.0
C12 C 0.34735 0.79362 0.75803 0.0
C13 C 0.33519 0.77832 0.73491 0.0
C14 C 0.3745 0.78947 0.76724 0.0
C15 C 0.38932 0.7692 0.75336 0.0
C16 C 0.37726 0.75357 0.73017 0.0
C17 C 0.35007 0.75805 0.72162 0.0
H18 H 0.74766 0.36738 0.86567 0.0
H19 H 0.74799 0.42916 0.79556 0.0
H20 H 0.68147 0.37589 0.80003 0.0
C21 C 0.73828 0.37764 0.84594 0.0
C22 C 0.71351 0.36857 0.83393 0.0
C23 C 0.75104 0.39963 0.83248 0.0
C24 C 0.73838 0.41259 0.80676 0.0
C25 C 0.71313 0.4043 0.79542 0.0
C26 C 0.7009 0.38239 0.80908 0.0
H27 H 0.82874 0.79302 0.33769 0.0
H28 H 0.85045 0.81632 0.24767 0.0
H29 H 0.80157 0.74702 0.26082 0.0
C30 C 0.82724 0.79025 0.31331 0.0
C31 C 0.81327 0.76815 0.30152 0.0
C32 C 0.84053 0.80796 0.29412 0.0
C33 C 0.83995 0.80312 0.26269 0.0
C34 C 0.8257 0.78126 0.25056 0.0
C35 C 0.81222 0.76414 0.27009 0.0
H36 H 0.82196 0.89443 0.83776 0.0
H37 H 0.88369 0.833 0.84076 0.0
H38 H 0.82242 0.83126 0.90647 0.0
C39 C 0.83097 0.87643 0.84813 0.0
C40 C 0.81848 0.86464 0.87386 0.0
C41 C 0.85477 0.86558 0.83555 0.0
C42 C 0.86598 0.84159 0.8499 0.0
C43 C 0.85507 0.82834 0.87562 0.0
C44 C 0.83124 0.84058 0.88709 0.0
H45 H 0.63853 0.28044 0.24818 0.0
H46 H 0.70404 0.22332 0.25586 0.0
H47 H 0.70444 0.29219 0.31329 0.0
C48 C 0.65767 0.27396 0.25871 0.0
C49 C 0.67017 0.28944 0.2817 0.0
C50 C 0.67013 0.25035 0.24887 0.0
C51 C 0.69493 0.24205 0.2626 0.0
C52 C 0.70732 0.25691 0.28601 0.0
C53 C 0.69494 0.28068 0.29515 0.0
H54 H 0.29071 0.66295 0.15362 0.0
H55 H 0.29178 0.60997 0.23216 0.0
H56 H 0.35632 0.66494 0.22044 0.0
C57 C 0.30024 0.65571 0.17493 0.0
C58 C 0.32498 0.66618 0.18496 0.0
C59 C 0.28817 0.63529 0.19168 0.0
C60 C 0.30107 0.62549 0.2189 0.0
C61 C 0.32545 0.63649 0.22961 0.0
C62 C 0.33732 0.65663 0.21239 0.0
H63 H 0.18081 0.23649 0.75922 0.0
H64 H 0.22078 0.23652 0.675 0.0
H65 H 0.24318 0.29333 0.74346 0.0
C66 C 0.19601 0.24452 0.74507 0.0
C67 C 0.21153 0.26642 0.75505 0.0
C68 C 0.19969 0.23322 0.71648 0.0
C69 C 0.21854 0.24444 0.69752 0.0
C70 C 0.23406 0.26626 0.7071 0.0
C71 C 0.23097 0.27658 0.73611 0.0
Nd72 Nd 0.03667 0.99267 0.51609 0.0
Nd73 Nd 0.9998 0.03898 0.5142 0.0
C74 C 0.06788 0.95009 0.50947 0.0
C75 C 0.08326 0.93244 0.53123 0.0
C76 C 0.08866 0.90561 0.52412 0.0
C77 C 0.10417 0.88919 0.5445 0.0
C78 C 0.1146 0.89955 0.5721 0.0
C79 C 0.10852 0.92623 0.57942 0.0
C80 C 0.09289 0.94248 0.55925 0.0
C81 C 0.05025 0.03063 0.55861 0.0
C82 C 0.99192 0.99048 0.56854 0.0
C83 C 0.96885 0.08127 0.52324 0.0
C84 C 0.95462 0.10225 0.50471 0.0
C85 C 0.96563 0.11334 0.47871 0.0
C86 C 0.95057 0.13144 0.45993 0.0
C87 C 0.92416 0.13848 0.46665 0.0
C88 C 0.91354 0.12764 0.4931 0.0
C89 C 0.92868 0.10979 0.51197 0.0
C90 C 0.98657 1.00169 0.47107 0.0
C91 C 0.04441 0.04099 0.46145 0.0
O92 O 0.04179 0.94865 0.50977 0.0
O93 O 0.07624 0.97482 0.50765 0.0
O94 O 0.05242 1.00499 0.56386 0.0
O95 O 0.04246 0.03539 0.53145 0.0
O96 O 1.00897 0.97579 0.55337 0.0
O97 O 0.98749 0.01604 0.55957 0.0
O98 O 0.99506 0.08205 0.52522 0.0
O99 O 0.95968 0.05697 0.51981 0.0
O100 O 0.98471 0.02743 0.46619 0.0
O101 O 0.99398 0.99633 0.49831 0.0
O102 O 0.027 0.05568 0.47623 0.0
O103 O 0.04915 0.01555 0.47077 0.0
H104 H 0.08123 0.89751 0.50266 0.0
H105 H 0.10868 0.86871 0.53832 0.0
H106 H 0.11603 0.93458 0.60071 0.0
H107 H 0.08868 0.96304 0.56537 0.0
H108 H 0.98561 0.10759 0.47257 0.0
H109 H 0.95949 0.13963 0.43995 0.0
H110 H 0.89313 0.13209 0.49872 0.0
H111 H 0.91979 0.1012 0.53178 0.0
Nd112 Nd 0.51938 1.00188 0.03775 0.0
Nd113 Nd 0.51835 0.03134 0.99141 0.0
C114 C 0.52006 0.96025 0.07633 0.0
C115 C 0.5025 0.93716 0.07964 0.0
C116 C 0.5108 0.91553 0.09867 0.0
C117 C 0.49489 0.89275 0.10053 0.0
C118 C 0.47046 0.89125 0.08326 0.0
C119 C 0.46213 0.91312 0.06432 0.0
C120 C 0.47807 0.93591 0.0625 0.0
C121 C 0.47462 0.03768 0.04389 0.0
C122 C 0.4864 0.97993 0.97871 0.0
C123 C 0.51711 0.07236 0.95204 0.0
C124 C 0.53492 0.09484 0.94477 0.0
C125 C 0.53594 0.11793 0.96277 0.0
C126 C 0.5526 0.13919 0.9557 0.0
C127 C 0.56861 0.13792 0.93045 0.0
C128 C 0.56763 0.1148 0.91249 0.0
C129 C 0.55088 0.09354 0.9195 0.0
C130 C 0.56312 0.99549 0.98543 0.0
C131 C 0.55179 0.0533 0.05059 0.0
O132 O 0.53315 0.96074 0.05159 0.0
O133 O 0.50989 0.98367 0.08227 0.0
O134 O 0.49385 0.03245 0.0641 0.0
O135 O 0.48044 0.02543 0.01943 0.0
O136 O 0.50213 0.97266 1.00209 0.0
O137 O 0.48499 1.00539 0.97124 0.0
O138 O 0.50621 0.07301 0.97824 0.0
O139 O 0.52501 0.04821 0.94535 0.0
O140 O 0.5439 1.00064 0.9652 0.0
O141 O 0.55731 1.00793 1.00977 0.0
O142 O 0.53741 0.06049 0.02607 0.0
O143 O 0.55172 0.02813 0.05938 0.0
H144 H 0.52967 0.91617 0.11191 0.0
H145 H 0.5016 0.87638 0.1157 0.0
H146 H 0.44354 0.91244 0.05057 0.0
H147 H 0.47148 0.95244 0.04749 0.0
H148 H 0.52375 0.11973 0.98228 0.0
H149 H 0.5525 0.15688 0.96971 0.0
H150 H 0.57992 0.11306 0.89306 0.0
H151 H 0.55044 0.07607 0.90514 0.0
Nd152 Nd 0.49969 0.5036 0.50096 0.0
Nd153 Nd 0.55026 0.5369 0.51421 0.0
C154 C 0.45154 0.48494 0.4861 0.0
C155 C 0.4289 0.47407 0.50198 0.0
C156 C 0.41211 0.45553 0.48724 0.0
C157 C 0.39276 0.44207 0.50321 0.0
C158 C 0.38996 0.44694 0.53426 0.0
C159 C 0.40611 0.46649 0.54857 0.0
C160 C 0.42552 0.47988 0.53258 0.0
C161 C 0.53372 0.48382 0.54739 0.0
C162 C 0.49844 0.5523 0.55012 0.0
C163 C 0.5981 0.55583 0.52994 0.0
C164 C 0.62157 0.5661 0.51518 0.0
C165 C 0.63936 0.58266 0.53153 0.0
C166 C 0.66012 0.59521 0.51702 0.0
C167 C 0.66328 0.59154 0.48582 0.0
C168 C 0.64592 0.57411 0.46976 0.0
C169 C 0.62514 0.56152 0.48434 0.0
C170 C 0.51598 0.5566 0.46793 0.0
C171 C 0.55161 0.48812 0.46472 0.0
O172 O 0.4564 0.51057 0.4893 0.0
O173 O 0.47326 0.46995 0.48797 0.0
O174 O 0.51969 0.4684 0.52946 0.0
O175 O 0.52767 0.50799 0.54213 0.0
O176 O 0.48441 0.53945 0.52872 0.0
O177 O 0.52474 0.54959 0.55312 0.0
O178 O 0.5933 0.53011 0.52738 0.0
O179 O 0.57649 0.57089 0.5264 0.0
O180 O 0.52975 0.57207 0.48609 0.0
O181 O 0.5223 0.53247 0.47307 0.0
O182 O 0.56579 0.50212 0.48502 0.0
O183 O 0.52519 0.4898 0.46261 0.0
H184 H 0.41463 0.45073 0.46365 0.0
H185 H 0.38092 0.42693 0.49159 0.0
H186 H 0.40418 0.47097 0.57234 0.0
H187 H 0.43845 0.49408 0.54435 0.0
H188 H 0.63679 0.58638 0.55537 0.0
H189 H 0.67339 0.60824 0.53006 0.0
H190 H 0.64763 0.57113 0.44564 0.0
H191 H 0.61135 0.54897 0.47134 0.0
Nd192 Nd 0.99702 0.51092 0.03494 0.0
Nd193 Nd 0.04157 0.52167 0.9949 0.0
C194 C 0.94944 0.51011 0.05805 0.0
C195 C 0.93366 0.5341 0.06527 0.0
C196 C 0.90642 0.53284 0.07121 0.0
C197 C 0.892 0.5565 0.0768 0.0
C198 C 0.90467 0.58168 0.07626 0.0
C199 C 0.93191 0.58259 0.06989 0.0
C200 C 0.94627 0.55911 0.065 0.0
C201 C 0.03951 0.53579 0.06358 0.0
C202 C 0.99508 0.56954 0.9921 0.0
C203 C 0.08981 0.52496 0.9737 0.0
C204 C 0.11042 0.50401 0.96988 0.0
C205 C 0.11633 0.48454 0.99285 0.0
C206 C 0.13224 0.46208 0.98717 0.0
C207 C 0.14235 0.45853 0.95834 0.0
C208 C 0.13753 0.47879 0.93591 0.0
C209 C 0.12175 0.50132 0.94168 0.0
C210 C 0.99872 0.49771 0.96632 0.0
C211 C 0.04307 0.46244 0.03647 0.0
O212 O 0.95281 0.50689 0.02907 0.0
O213 O 0.97176 0.5068 0.0746 0.0
O214 O 0.02569 0.51732 0.07635 0.0
O215 O 0.02989 0.54166 0.03725 0.0
O216 O 0.98214 0.55136 1.00831 0.0
O217 O 0.0204 0.56409 0.98586 0.0
O218 O 0.08471 0.53086 1.00168 0.0
O219 O 0.06808 0.52285 0.95606 0.0
O220 O 1.01221 0.51674 0.95392 0.0
O221 O 1.00856 0.49107 0.9924 0.0
O222 O 0.05577 0.48011 0.0193 0.0
O223 O 1.01814 0.46843 0.04388 0.0
H224 H 0.8964 0.51368 0.07169 0.0
H225 H 0.87112 0.55501 0.08203 0.0
H226 H 0.9423 0.60152 0.06861 0.0
H227 H 0.96739 0.56054 0.06096 0.0
H228 H 0.10798 0.48613 0.01494 0.0
H229 H 0.13596 0.44713 1.0051 0.0
H230 H 0.14467 0.47658 0.91329 0.0
H231 H 0.11728 0.51597 0.92359 0.0
H232 H 0.1295 0.17311 0.21595 0.0
H233 H 0.10856 0.1531 0.25916 0.0
H234 H 0.17931 0.10513 0.28051 0.0
H235 H 0.20134 0.12604 0.23793 0.0
H236 H 0.13495 0.07377 0.28932 0.0
H237 H 0.16018 0.16125 0.32449 0.0
H238 H 0.16175 0.21079 0.32246 0.0
H239 H 0.07585 0.21524 0.32252 0.0
H240 H 0.07375 0.16571 0.32414 0.0
H241 H 0.09006 0.02282 0.43273 0.0
H242 H 0.11344 0.04266 0.39052 0.0
H243 H 0.05476 0.10693 0.3829 0.0
H244 H 0.03244 0.08787 0.42651 0.0
H245 H 0.09389 0.13013 0.36648 0.0
H246 H 0.06632 0.04504 0.32819 0.0
H247 H 0.06191 0.99573 0.32692 0.0
H248 H 0.14756 0.98653 0.32859 0.0
H249 H 0.15248 0.0358 0.3302 0.0
C250 C 0.14145 0.15885 0.22971 0.0
C251 C 0.16817 0.15229 0.22205 0.0
C252 C 0.1289 0.14696 0.25504 0.0
C253 C 0.14185 0.12728 0.27448 0.0
C254 C 0.16817 0.12006 0.26666 0.0
C255 C 0.18098 0.13229 0.24156 0.0
C256 C 0.12807 0.11457 0.30241 0.0
C257 C 0.12637 0.08631 0.3063 0.0
C258 C 0.11559 0.13003 0.32498 0.0
C259 C 0.1168 0.15977 0.32415 0.0
C260 C 0.14162 0.1728 0.32385 0.0
C261 C 0.1426 0.20087 0.32281 0.0
C262 C 0.11891 0.21615 0.32229 0.0
C263 C 0.09419 0.20338 0.32289 0.0
C264 C 0.09309 0.17531 0.32389 0.0
C265 C 0.08189 0.04115 0.42215 0.0
C266 C 0.05877 0.0532 0.43385 0.0
C267 C 0.09536 0.05263 0.39718 0.0
C268 C 0.08617 0.07655 0.38148 0.0
C269 C 0.06309 0.08865 0.39344 0.0
C270 C 0.04994 0.07746 0.41882 0.0
C271 C 0.10048 0.08908 0.35357 0.0
C272 C 0.10235 0.1174 0.34961 0.0
C273 C 0.1126 0.07365 0.33055 0.0
C274 C 0.10977 0.04407 0.32966 0.0
C275 C 0.08421 0.03248 0.32848 0.0
C276 C 0.08162 1.00455 0.32767 0.0
C277 C 0.10444 0.988 0.32777 0.0
C278 C 0.1299 0.99937 0.32858 0.0
C279 C 0.13261 0.02729 0.32942 0.0
H280 H 0.1024 0.96638 0.32715 0.0
H281 H 0.11972 0.23789 0.32148 0.0
H282 H 0.36909 0.84398 0.76991 0.0
H283 H 0.3888 0.87398 0.80778 0.0
H284 H 0.42979 0.80664 0.85329 0.0
H285 H 0.40933 0.77614 0.81567 0.0
H286 H 0.40711 0.84022 0.89368 0.0
H287 H 0.46427 0.84926 0.81086 0.0
H288 H 0.47571 0.85641 0.75759 0.0
H289 H 0.43974 0.93528 0.75718 0.0
H290 H 0.42772 0.92847 0.81033 0.0
H291 H 0.49126 0.92543 0.98484 0.0
H292 H 0.47281 0.8915 0.95067 0.0
H293 H 0.43235 0.95373 0.89564 0.0
H294 H 0.45156 0.98794 0.92925 0.0
H295 H 0.45737 0.92017 0.86108 0.0
H296 H 0.39906 0.90987 0.94445 0.0
H297 H 0.38924 0.90244 0.99821 0.0
H298 H 0.42906 0.82544 0.99823 0.0
H299 H 0.43946 0.83256 0.94455 0.0
C300 C 0.38211 0.83545 0.7881 0.0
C301 C 0.3875 0.80762 0.7899 0.0
C302 C 0.39357 0.85269 0.8096 0.0
C303 C 0.41096 0.8426 0.83323 0.0
C304 C 0.41644 0.81484 0.8352 0.0
C305 C 0.40493 0.79749 0.81359 0.0
C306 C 0.42319 0.86131 0.85575 0.0
C307 C 0.41846 0.85749 0.88666 0.0
C308 C 0.43765 0.88404 0.84651 0.0
C309 C 0.44489 0.88826 0.81453 0.0
C310 C 0.4586 0.86805 0.79934 0.0
C311 C 0.46523 0.87206 0.76918 0.0
C312 C 0.4584 0.89626 0.75399 0.0
C313 C 0.44499 0.91653 0.76896 0.0
C314 C 0.43829 0.91262 0.79912 0.0
C315 C 0.47824 0.93192 0.96562 0.0
C316 C 0.47293 0.95941 0.95968 0.0
C317 C 0.46758 0.91244 0.94617 0.0
C318 C 0.45098 0.92 0.92069 0.0
C319 C 0.44514 0.94741 0.91514 0.0
C320 C 0.45603 0.96695 0.93442 0.0
C321 C 0.44076 0.89951 0.89898 0.0
C322 C 0.44602 0.90291 0.86818 0.0
C323 C 0.42692 0.87637 0.90841 0.0
C324 C 0.42022 0.87185 0.94053 0.0
C325 C 0.40585 0.89142 0.95595 0.0
C326 C 0.40018 0.88725 0.98641 0.0
C327 C 0.40856 0.8635 1.00162 0.0
C328 C 0.42259 0.84383 0.9864 0.0
C329 C 0.42835 0.84791 0.95595 0.0
H330 H 0.40408 0.86029 0.02516 0.0
H331 H 0.46356 0.89932 0.73064 0.0
H332 H 0.66316 0.42623 0.7924 0.0
H333 H 0.63673 0.44073 0.74668 0.0
H334 H 0.70473 0.42577 0.69251 0.0
H335 H 0.73151 0.41177 0.73862 0.0
H336 H 0.67589 0.46902 0.67068 0.0
H337 H 0.65897 0.37854 0.69757 0.0
H338 H 0.64881 0.34071 0.73176 0.0
H339 H 0.57195 0.37618 0.7469 0.0
H340 H 0.58184 0.41452 0.71319 0.0
H341 H 0.55391 0.43296 0.55798 0.0
H342 H 0.5891 0.41895 0.59618 0.0
H343 H 0.59407 0.50052 0.62775 0.0
H344 H 0.55974 0.51462 0.58928 0.0
H345 H 0.59132 0.41852 0.65506 0.0
H346 H 0.65638 0.51554 0.65291 0.0
H347 H 0.67 0.54951 0.61551 0.0
H348 H 0.65565 0.49372 0.54336 0.0
H349 H 0.64244 0.45925 0.58034 0.0
C350 C 0.67259 0.42661 0.7708 0.0
C351 C 0.69921 0.41773 0.76883 0.0
C352 C 0.65749 0.43477 0.74472 0.0
C353 C 0.66859 0.43368 0.71614 0.0
C354 C 0.69577 0.42659 0.71435 0.0
C355 C 0.71103 0.41867 0.74061 0.0
C356 C 0.65109 0.43793 0.68823 0.0
C357 C 0.65741 0.45801 0.66717 0.0
C358 C 0.62755 0.42273 0.68307 0.0
C359 C 0.62123 0.3995 0.70297 0.0
C360 C 0.63996 0.37836 0.70832 0.0
C361 C 0.63425 0.35683 0.72761 0.0
C362 C 0.60976 0.35606 0.74149 0.0
C363 C 0.59091 0.37682 0.7361 0.0
C364 C 0.59655 0.39845 0.71688 0.0
C365 C 0.56262 0.44782 0.57308 0.0
C366 C 0.5542 0.47483 0.57071 0.0
C367 C 0.58268 0.43984 0.59485 0.0
C368 C 0.59454 0.45877 0.61452 0.0
C369 C 0.58572 0.48567 0.61238 0.0
C370 C 0.56593 0.49366 0.59053 0.0
C371 C 0.61547 0.45046 0.63806 0.0
C372 C 0.60985 0.42948 0.65833 0.0
C373 C 0.64006 0.46424 0.64184 0.0
C374 C 0.64826 0.48483 0.61945 0.0
C375 C 0.65628 0.51045 0.6291 0.0
C376 C 0.66391 0.5298 0.60796 0.0
C377 C 0.66371 0.52375 0.5771 0.0
C378 C 0.65579 0.49837 0.56728 0.0
C379 C 0.64821 0.47893 0.58832 0.0
H380 H 0.66981 0.53868 0.56081 0.0
H381 H 0.60537 0.33932 0.75632 0.0
H382 H 0.87019 0.77622 0.21796 0.0
H383 H 0.8736 0.75179 0.1708 0.0
H384 H 0.78751 0.74453 0.16322 0.0
H385 H 0.78413 0.76867 0.21084 0.0
H386 H 0.80895 0.69755 0.16455 0.0
H387 H 0.82263 0.77475 0.10616 0.0
H388 H 0.83971 0.81867 0.09003 0.0
H389 H 0.91915 0.7851 0.08783 0.0
H390 H 0.90276 0.7411 0.10462 0.0
H391 H 0.85219 0.59654 0.06089 0.0
H392 H 0.82902 0.63825 0.07425 0.0
H393 H 0.90165 0.66578 0.12013 0.0
H394 H 0.92442 0.62419 0.10836 0.0
H395 H 0.87341 0.70641 0.08324 0.0
H396 H 0.8581 0.63567 0.16055 0.0
H397 H 0.84042 0.59166 0.17588 0.0
H398 H 0.76203 0.61517 0.13948 0.0
H399 H 0.77939 0.65922 0.12361 0.0
C400 C 0.85193 0.77041 0.20557 0.0
C401 C 0.82694 0.774 0.21819 0.0
C402 C 0.85386 0.75647 0.17849 0.0
C403 C 0.83079 0.74617 0.16341 0.0
C404 C 0.80558 0.75214 0.17448 0.0
C405 C 0.80367 0.76592 0.20167 0.0
C406 C 0.83363 0.72507 0.14027 0.0
C407 C 0.82234 0.69987 0.14609 0.0
C408 C 0.85112 0.72786 0.11616 0.0
C409 C 0.8614 0.75452 0.10683 0.0
C410 C 0.84381 0.77676 0.10264 0.0
C411 C 0.85338 0.80169 0.0933 0.0
C412 C 0.8805 0.80468 0.08794 0.0
C413 C 0.89814 0.78275 0.09199 0.0
C414 C 0.8887 0.75778 0.10139 0.0
C415 C 0.86316 0.61145 0.07393 0.0
C416 C 0.89024 0.60698 0.08341 0.0
C417 C 0.84999 0.63536 0.08117 0.0
C418 C 0.86378 0.65518 0.0978 0.0
C419 C 0.89082 0.65096 0.10675 0.0
C420 C 0.90382 0.62708 0.09994 0.0
C421 C 0.84994 0.67921 0.10899 0.0
C422 C 0.85917 0.70474 0.10091 0.0
C423 C 0.83047 0.6769 0.13094 0.0
C424 C 0.82009 0.65051 0.14055 0.0
C425 C 0.83715 0.63134 0.15561 0.0
C426 C 0.82719 0.60642 0.16443 0.0
C427 C 0.80014 0.60058 0.15856 0.0
C428 C 0.78299 0.61969 0.14393 0.0
C429 C 0.79288 0.64462 0.13502 0.0
H430 H 0.79245 0.58129 0.16541 0.0
H431 H 0.88784 0.82398 0.08061 0.0
H432 H 0.26045 0.13561 0.18618 0.0
H433 H 0.30054 0.11482 0.16663 0.0
H434 H 0.27955 0.14789 0.07773 0.0
H435 H 0.23898 0.16855 0.09715 0.0
H436 H 0.30121 0.0996 0.06805 0.0
H437 H 0.33526 0.17089 0.13065 0.0
H438 H 0.3416 0.19677 0.17769 0.0
H439 H 0.37454 0.12662 0.22476 0.0
H440 H 0.3681 0.10024 0.17808 0.0
H441 H 0.42968 0.05923 1.00759 0.0
H442 H 0.38852 0.0813 0.02369 0.0
H443 H 0.41441 0.06709 0.11738 0.0
H444 H 0.45596 0.04687 0.10121 0.0
H445 H 0.38939 0.1072 0.12351 0.0
H446 H 0.35357 0.03456 0.06407 0.0
H447 H 0.34616 1.0068 0.01858 0.0
H448 H 0.31563 0.07597 0.9677 0.0
H449 H 0.32311 0.10418 0.01283 0.0
C450 C 0.26386 0.13862 0.16232 0.0
C451 C 0.24514 0.15444 0.14387 0.0
C452 C 0.28761 0.12664 0.15094 0.0
C453 C 0.29462 0.12939 0.12014 0.0
C454 C 0.2758 0.14486 0.10152 0.0
C455 C 0.25213 0.15714 0.11299 0.0
C456 C 0.32098 0.11642 0.10771 0.0
C457 C 0.32043 0.10171 0.08029 0.0
C458 C 0.34698 0.11772 0.12294 0.0
C459 C 0.35096 0.13354 0.15095 0.0
C460 C 0.3437 0.16095 0.15109 0.0
C461 C 0.34733 0.17571 0.17767 0.0
C462 C 0.3584 0.16333 0.20421 0.0
C463 C 0.36593 0.13618 0.2042 0.0
C464 C 0.36231 0.12132 0.17768 0.0
C465 C 0.42671 0.06058 0.03168 0.0
C466 C 0.44715 0.05054 0.05267 0.0
C467 C 0.40242 0.07326 0.04125 0.0
C468 C 0.39643 0.07613 0.07249 0.0
C469 C 0.41705 0.06597 0.09321 0.0
C470 C 0.44141 0.05389 0.0837 0.0
C471 C 0.36981 0.08978 0.08392 0.0
C472 C 0.37027 0.10479 0.1112 0.0
C473 C 0.34366 0.08834 0.0688 0.0
C474 C 0.33918 0.07151 0.04169 0.0
C475 C 0.34542 0.04385 0.04312 0.0
C476 C 0.34119 0.02804 0.01742 0.0
C477 C 0.33051 0.03963 0.99025 0.0
C478 C 0.32395 0.06704 0.98875 0.0
C479 C 0.32817 0.08294 0.01438 0.0
H480 H 0.32726 0.02736 0.97037 0.0
H481 H 0.3612 0.17479 0.22478 0.0
H482 H 0.28997 0.78764 0.76618 0.0
H483 H 0.24531 0.80107 0.74481 0.0
H484 H 0.27484 0.79903 0.65449 0.0
H485 H 0.31891 0.78511 0.67558 0.0
H486 H 0.22953 0.8439 0.7155 0.0
H487 H 0.22893 0.78427 0.60187 0.0
H488 H 0.24351 0.73975 0.58472 0.0
H489 H 0.23956 0.70778 0.67546 0.0
H490 H 0.22455 0.75198 0.6931 0.0
H491 H 0.16277 0.91426 0.59724 0.0
H492 H 0.19334 0.88788 0.63117 0.0
H493 H 0.13832 0.82163 0.62776 0.0
H494 H 0.10782 0.84796 0.59287 0.0
H495 H 0.18659 0.80326 0.62345 0.0
H496 H 0.14635 0.86057 0.69238 0.0
H497 H 0.12912 0.90304 0.71243 0.0
H498 H 0.20871 0.93481 0.7174 0.0
H499 H 0.22638 0.8927 0.69694 0.0
C500 C 0.28672 0.78981 0.74176 0.0
C501 C 0.30777 0.7851 0.7225 0.0
C502 C 0.26126 0.79742 0.72958 0.0
C503 C 0.25655 0.80057 0.69799 0.0
C504 C 0.27767 0.79592 0.67885 0.0
C505 C 0.30292 0.78805 0.69093 0.0
C506 C 0.23031 0.81068 0.68479 0.0
C507 C 0.21994 0.83484 0.69561 0.0
C508 C 0.2172 0.79838 0.65946 0.0
C509 C 0.2257 0.77154 0.64884 0.0
C510 C 0.23095 0.76771 0.61813 0.0
C511 C 0.23935 0.74253 0.60833 0.0
C512 C 0.2425 0.72096 0.62899 0.0
C513 C 0.23718 0.72451 0.65949 0.0
C514 C 0.22874 0.74964 0.66941 0.0
C515 C 0.15708 0.89416 0.60394 0.0
C516 C 0.13286 0.8832 0.5927 0.0
C517 C 0.1745 0.87912 0.62344 0.0
C518 C 0.16785 0.85299 0.63264 0.0
C519 C 0.14377 0.84183 0.62115 0.0
C520 C 0.12642 0.85682 0.60124 0.0
C521 C 0.18683 0.83721 0.65317 0.0
C522 C 0.19578 0.81198 0.64376 0.0
C523 C 0.19812 0.84812 0.68035 0.0
C524 C 0.18768 0.87345 0.69301 0.0
C525 C 0.16017 0.87666 0.6976 0.0
C526 C 0.15032 0.90067 0.70905 0.0
C527 C 0.1678 0.92161 0.71617 0.0
C528 C 0.19519 0.91856 0.7119 0.0
C529 C 0.20514 0.89459 0.70043 0.0
H530 H 0.16014 0.9402 0.72501 0.0
H531 H 0.24906 0.7015 0.62137 0.0
H532 H 0.76926 0.45149 0.83612 0.0
H533 H 0.81237 0.46667 0.85782 0.0
H534 H 0.83502 0.38489 0.88174 0.0
H535 H 0.79284 0.36914 0.85834 0.0
H536 H 0.83831 0.43413 0.93031 0.0
H537 H 0.86612 0.3983 0.83335 0.0
H538 H 0.86169 0.3954 0.7775 0.0
H539 H 0.87269 0.48064 0.76914 0.0
H540 H 0.87677 0.48407 0.82502 0.0
H541 H 0.97284 0.45225 0.98313 0.0
H542 H 0.93148 0.43423 0.95964 0.0
H543 H 0.92718 0.50076 0.89526 0.0
H544 H 0.9691 0.51802 0.91775 0.0
H545 H 0.91381 0.45853 0.86677 0.0
H546 H 0.88745 0.49735 0.9588 0.0
H547 H 0.88919 0.50563 0.01379 0.0
H548 H 0.87189 0.42265 0.03157 0.0
H549 H 0.87035 0.41381 0.97656 0.0
C550 C 0.78353 0.43659 0.84541 0.0
C551 C 0.77739 0.40902 0.84542 0.0
C552 C 0.80804 0.44538 0.85808 0.0
C553 C 0.82665 0.42685 0.8714 0.0
C554 C 0.8207 0.39943 0.87169 0.0
C555 C 0.79647 0.39054 0.85847 0.0
C556 C 0.85239 0.43618 0.88503 0.0
C557 C 0.85504 0.43911 0.9166 0.0
C558 C 0.87362 0.44359 0.86685 0.0
C559 C 0.87142 0.44148 0.83332 0.0
C560 C 0.86731 0.41645 0.81961 0.0
C561 C 0.86493 0.4147 0.78795 0.0
C562 C 0.86682 0.43783 0.76978 0.0
C563 C 0.87119 0.46275 0.78324 0.0
C564 C 0.87355 0.4646 0.81489 0.0
C565 C 0.96307 0.46288 0.96386 0.0
C566 C 0.97408 0.48647 0.9522 0.0
C567 C 0.93938 0.4527 0.95057 0.0
C568 C 0.92593 0.46635 0.92593 0.0
C569 C 0.93715 0.48982 0.91417 0.0
C570 C 0.96107 0.4997 0.92708 0.0
C571 C 0.90015 0.45634 0.91243 0.0
C572 C 0.89731 0.45342 0.88076 0.0
C573 C 0.87846 0.44962 0.93051 0.0
C574 C 0.87906 0.45486 0.96359 0.0
C575 C 0.88419 0.48082 0.97444 0.0
C576 C 0.88512 0.48562 1.00563 0.0
C577 C 0.88075 0.46465 0.02621 0.0
C578 C 0.87532 0.43886 0.01561 0.0
C579 C 0.87438 0.43395 0.98442 0.0
H580 H 0.8815 0.46838 0.05036 0.0
H581 H 0.86498 0.43644 0.74527 0.0
H582 H 0.78439 0.77855 0.35133 0.0
H583 H 0.76346 0.74598 0.38459 0.0
H584 H 0.79272 0.68095 0.33128 0.0
H585 H 0.8141 0.71328 0.29828 0.0
H586 H 0.73977 0.67599 0.34184 0.0
H587 H 0.8214 0.69183 0.39977 0.0
H588 H 0.85642 0.71913 0.42531 0.0
H589 H 0.79871 0.75108 0.48449 0.0
H590 H 0.76323 0.72427 0.45898 0.0
H591 H 0.69676 0.57444 0.44246 0.0
H592 H 0.72669 0.60198 0.4129 0.0
H593 H 0.70424 0.67199 0.46272 0.0
H594 H 0.67445 0.64469 0.49228 0.0
H595 H 0.75701 0.67165 0.45375 0.0
H596 H 0.67495 0.65915 0.39309 0.0
H597 H 0.63948 0.6325 0.36737 0.0
H598 H 0.69785 0.59493 0.31312 0.0
H599 H 0.73373 0.62112 0.33884 0.0
C600 C 0.78664 0.7573 0.34691 0.0
C601 C 0.80078 0.74852 0.32206 0.0
C602 C 0.77466 0.73873 0.3659 0.0
C603 C 0.7767 0.71107 0.36046 0.0
C604 C 0.79086 0.70223 0.33578 0.0
C605 C 0.80291 0.72075 0.31686 0.0
C606 C 0.76326 0.6914 0.37991 0.0
C607 C 0.74387 0.6747 0.36625 0.0
C608 C 0.7683 0.69011 0.4118 0.0
C609 C 0.7896 0.70621 0.42727 0.0
C610 C 0.81612 0.70485 0.41806 0.0
C611 C 0.83606 0.7202 0.43256 0.0
C612 C 0.82978 0.73688 0.45646 0.0
C613 C 0.80354 0.73818 0.46595 0.0
C614 C 0.78351 0.72289 0.45149 0.0
C615 C 0.69833 0.59568 0.44716 0.0
C616 C 0.68319 0.60742 0.46961 0.0
C617 C 0.71544 0.61137 0.43032 0.0
C618 C 0.71743 0.63909 0.43539 0.0
C619 C 0.70307 0.65063 0.45851 0.0
C620 C 0.68609 0.63497 0.47543 0.0
C621 C 0.73332 0.65647 0.4157 0.0
C622 C 0.75313 0.67276 0.42931 0.0
C623 C 0.72862 0.65747 0.38374 0.0
C624 C 0.70705 0.64186 0.36812 0.0
C625 C 0.68024 0.64506 0.37583 0.0
C626 C 0.66006 0.63006 0.36124 0.0
C627 C 0.66642 0.61197 0.33869 0.0
C628 C 0.69297 0.60891 0.33063 0.0
C629 C 0.71323 0.62383 0.3452 0.0
H630 H 0.65077 0.60038 0.32741 0.0
H631 H 0.84525 0.74875 0.46766 0.0
H632 H 0.1497 0.24316 0.18294 0.0
H633 H 0.12767 0.28368 0.1622 0.0
H634 H 0.16444 0.27222 0.07731 0.0
H635 H 0.18617 0.2306 0.09764 0.0
H636 H 0.16355 0.32588 0.08674 0.0
H637 H 0.09337 0.26156 0.08936 0.0
H638 H 0.06488 0.22744 0.11231 0.0
H639 H 0.03959 0.28485 0.17704 0.0
H640 H 0.06821 0.31924 0.1547 0.0
H641 H 0.08459 0.43338 0.0109 0.0
H642 H 0.10729 0.39149 0.02766 0.0
H643 H 0.05877 0.38791 0.10559 0.0
H644 H 0.03473 0.42892 0.08732 0.0
H645 H 0.06645 0.34075 0.09831 0.0
H646 H 0.13766 0.40507 0.09741 0.0
H647 H 0.16613 0.43942 0.07477 0.0
H648 H 0.19047 0.38296 1.00857 0.0
H649 H 0.16166 0.34844 0.03035 0.0
C650 C 0.15305 0.24831 0.15954 0.0
C651 C 0.17006 0.23173 0.14244 0.0
C652 C 0.14014 0.27235 0.14748 0.0
C653 C 0.1433 0.282 0.11741 0.0
C654 C 0.1609 0.26612 0.10045 0.0
C655 C 0.17369 0.24178 0.11244 0.0
C656 C 0.12837 0.30811 0.10419 0.0
C657 C 0.14222 0.32875 0.08912 0.0
C658 C 0.10039 0.31346 0.10711 0.0
C659 C 0.08314 0.29289 0.12055 0.0
C660 C 0.08188 0.26685 0.10862 0.0
C661 C 0.06569 0.24748 0.1215 0.0
C662 C 0.05049 0.25395 0.14617 0.0
C663 C 0.05141 0.27985 0.15796 0.0
C664 C 0.06759 0.2993 0.14519 0.0
C665 C 0.07865 0.42389 0.03173 0.0
C666 C 0.05743 0.4356 0.04746 0.0
C667 C 0.09219 0.39949 0.04184 0.0
C668 C 0.08625 0.38552 0.06915 0.0
C669 C 0.06474 0.3972 0.08466 0.0
C670 C 0.0507 0.42124 0.07407 0.0
C671 C 0.1016 0.35908 0.08119 0.0
C672 C 0.08781 0.3382 0.09601 0.0
C673 C 0.12971 0.35368 0.07827 0.0
C674 C 0.14729 0.37425 0.06535 0.0
C675 C 0.14898 0.40002 0.07793 0.0
C676 C 0.16513 0.41953 0.06521 0.0
C677 C 0.18 0.4134 0.04016 0.0
C678 C 0.17886 0.38769 0.0279 0.0
C679 C 0.16259 0.36816 0.04039 0.0
H680 H 0.19242 0.42855 0.03028 0.0
H681 H 0.03797 0.23892 0.15611 0.0
H682 H 0.6896 0.32796 0.80246 0.0
H683 H 0.66626 0.28938 0.82266 0.0
H684 H 0.68586 0.31501 0.91407 0.0
H685 H 0.709 0.35419 0.89395 0.0
H686 H 0.69296 0.25929 0.90601 0.0
H687 H 0.62549 0.32722 0.88606 0.0
H688 H 0.6004 0.36214 0.85562 0.0
H689 H 0.57614 0.30335 0.78984 0.0
H690 H 0.60153 0.26814 0.81957 0.0
H691 H 0.59878 0.16962 0.96896 0.0
H692 H 0.62465 0.20911 0.9557 0.0
H693 H 0.60354 0.19732 0.8607 0.0
H694 H 0.57668 0.15861 0.87383 0.0
H695 H 0.59685 0.24832 0.875 0.0
H696 H 0.66655 0.18115 0.89263 0.0
H697 H 0.69231 0.14607 0.92212 0.0
H698 H 0.71246 0.203 0.99157 0.0
H699 H 0.68652 0.23836 0.96265 0.0
C700 C 0.68882 0.32554 0.82688 0.0
C701 C 0.70083 0.34433 0.84662 0.0
C702 C 0.67558 0.30342 0.83836 0.0
C703 C 0.67405 0.29961 0.86981 0.0
C704 C 0.68681 0.31771 0.88971 0.0
C705 C 0.70005 0.34 0.87819 0.0
C706 C 0.65849 0.27697 0.88157 0.0
C707 C 0.67183 0.25705 0.89971 0.0
C708 C 0.63106 0.27396 0.87283 0.0
C709 C 0.61561 0.29507 0.85495 0.0
C710 C 0.615 0.32177 0.86497 0.0
C711 C 0.6007 0.34161 0.84786 0.0
C712 C 0.58671 0.33497 0.8208 0.0
C713 C 0.58698 0.30846 0.81081 0.0
C714 C 0.60132 0.28855 0.82779 0.0
C715 C 0.59953 0.17552 0.94525 0.0
C716 C 0.58563 0.16096 0.92244 0.0
C717 C 0.61456 0.19793 0.9377 0.0
C718 C 0.61621 0.20602 0.90719 0.0
C719 C 0.60257 0.19139 0.88439 0.0
C720 C 0.58744 0.1691 0.89192 0.0
C721 C 0.63141 0.23022 0.89892 0.0
C722 C 0.61794 0.25056 0.8815 0.0
C723 C 0.6587 0.23353 0.90827 0.0
C724 C 0.67435 0.21232 0.92564 0.0
C725 C 0.67629 0.18613 0.91431 0.0
C726 C 0.69096 0.16621 0.9309 0.0
C727 C 0.70394 0.17229 0.95875 0.0
C728 C 0.70235 0.19832 0.97002 0.0
C729 C 0.68769 0.21831 0.95353 0.0
H730 H 0.71529 0.15684 0.97155 0.0
H731 H 0.57566 0.35036 0.80757 0.0
H732 H 0.89046 0.82541 0.28029 0.0
H733 H 0.91695 0.86031 0.3058 0.0
H734 H 0.8522 0.87579 0.36452 0.0
H735 H 0.8253 0.8418 0.33839 0.0
H736 H 0.87397 0.92139 0.3491 0.0
H737 H 0.90588 0.83517 0.38747 0.0
H738 H 0.92425 0.78914 0.38396 0.0
H739 H 0.9946 0.82013 0.34446 0.0
H740 H 0.97646 0.86636 0.34736 0.0
H741 H 0.97652 0.94884 0.48265 0.0
H742 H 0.95358 0.91719 0.44861 0.0
H743 H 0.94878 0.97782 0.37721 0.0
H744 H 0.9709 1.00978 0.41154 0.0
H745 H 0.96269 0.89481 0.39695 0.0
H746 H 0.89052 0.9721 0.3353 0.0
H747 H 0.86953 0.01619 0.34468 0.0
H748 H 0.87496 0.99962 0.44077 0.0
H749 H 0.89565 0.95534 0.43193 0.0
C750 C 0.88168 0.83664 0.29822 0.0
C751 C 0.85586 0.83068 0.3075 0.0
C752 C 0.89694 0.85639 0.31298 0.0
C753 C 0.88672 0.87037 0.3374 0.0
C754 C 0.86055 0.86521 0.34582 0.0
C755 C 0.84529 0.8456 0.33104 0.0
C756 C 0.90351 0.88956 0.35516 0.0
C757 C 0.89346 0.91564 0.35935 0.0
C758 C 0.92872 0.88193 0.36906 0.0
C759 C 0.93968 0.85418 0.3673 0.0
C760 C 0.92517 0.83215 0.37781 0.0
C761 C 0.93555 0.80603 0.37597 0.0
C762 C 0.96054 0.80171 0.36391 0.0
C763 C 0.97523 0.82351 0.35373 0.0
C764 C 0.96491 0.84967 0.35548 0.0
C765 C 0.97067 0.95533 0.45964 0.0
C766 C 0.9751 0.98183 0.44981 0.0
C767 C 0.95766 0.93722 0.44017 0.0
C768 C 0.94903 0.94525 0.41049 0.0
C769 C 0.95471 0.97134 0.4002 0.0
C770 C 0.96742 0.98955 0.41978 0.0
C771 C 0.93315 0.92665 0.39088 0.0
C772 C 0.94338 0.90069 0.38633 0.0
C773 C 0.90772 0.93413 0.3774 0.0
C774 C 0.89491 0.96056 0.38294 0.0
C775 C 0.88715 0.97785 0.35841 0.0
C776 C 0.87531 1.00287 0.36364 0.0
C777 C 0.87101 1.01074 0.39331 0.0
C778 C 0.8784 0.99355 0.41781 0.0
C779 C 0.89021 0.96851 0.4127 0.0
H780 H 0.86188 0.03013 0.39732 0.0
H781 H 0.96856 0.78147 0.36252 0.0
H782 H 0.37426 0.744 0.66924 0.0
H783 H 0.39582 0.70791 0.64242 0.0
H784 H 0.43833 0.68196 0.7256 0.0
H785 H 0.41583 0.71758 0.75323 0.0
H786 H 0.46926 0.68616 0.66774 0.0
H787 H 0.39063 0.64646 0.70897 0.0
H788 H 0.34246 0.64572 0.71857 0.0
H789 H 0.32289 0.6468 0.62251 0.0
H790 H 0.37097 0.64797 0.61233 0.0
H791 H 0.51601 0.56554 0.60726 0.0
H792 H 0.49591 0.59771 0.64086 0.0
H793 H 0.43095 0.61226 0.57389 0.0
H794 H 0.45044 0.579 0.54073 0.0
H795 H 0.41181 0.61302 0.62692 0.0
H796 H 0.48645 0.6553 0.58335 0.0
H797 H 0.53338 0.66009 0.56955 0.0
H798 H 0.55939 0.65879 0.664 0.0
H799 H 0.51261 0.65361 0.67836 0.0
C800 C 0.38799 0.73052 0.68203 0.0
C801 C 0.39285 0.73334 0.71359 0.0
C802 C 0.40044 0.71004 0.66656 0.0
C803 C 0.41835 0.69215 0.68214 0.0
C804 C 0.42444 0.69561 0.71328 0.0
C805 C 0.41167 0.71599 0.72896 0.0
C806 C 0.42978 0.66937 0.66574 0.0
C807 C 0.45692 0.66982 0.6593 0.0
C808 C 0.4133 0.64876 0.65382 0.0
C809 C 0.3844 0.64752 0.6599 0.0
C810 C 0.37606 0.64673 0.68989 0.0
C811 C 0.34876 0.64621 0.69544 0.0
C812 C 0.32962 0.64627 0.67117 0.0
C813 C 0.33774 0.64676 0.64129 0.0
C814 C 0.36501 0.64733 0.63562 0.0
C815 C 0.49731 0.57543 0.59981 0.0
C816 C 0.48488 0.56998 0.57128 0.0
C817 C 0.48592 0.59395 0.61897 0.0
C818 C 0.46228 0.60801 0.60963 0.0
C819 C 0.44928 0.6018 0.58158 0.0
C820 C 0.46041 0.58281 0.56262 0.0
C821 C 0.45153 0.62959 0.62876 0.0
C822 C 0.4244 0.62907 0.6356 0.0
C823 C 0.46792 0.65052 0.64046 0.0
C824 C 0.49606 0.65378 0.63192 0.0
C825 C 0.50219 0.65584 0.60117 0.0
C826 C 0.52876 0.65866 0.59325 0.0
C827 C 0.54936 0.65967 0.61588 0.0
C828 C 0.54341 0.65796 0.64649 0.0
C829 C 0.51688 0.6551 0.65454 0.0
H830 H 0.56992 0.66184 0.6097 0.0
H831 H 0.3085 0.64589 0.67551 0.0
H832 H 0.85341 0.91976 0.81364 0.0
H833 H 0.87509 0.94048 0.77073 0.0
H834 H 0.90971 0.86399 0.74933 0.0
H835 H 0.88778 0.843 0.79163 0.0
H836 H 0.94674 0.89833 0.73891 0.0
H837 H 0.85398 0.90044 0.70506 0.0
H838 H 0.80585 0.91133 0.70761 0.0
H839 H 0.82361 0.99548 0.7114 0.0
H840 H 0.8719 0.98506 0.70925 0.0
H841 H 0.99434 0.93789 0.59268 0.0
H842 H 0.97174 0.91792 0.63543 0.0
H843 H 0.93405 0.99424 0.65173 0.0
H844 H 0.95616 0.01407 0.60822 0.0
H845 H 0.8987 0.96063 0.6654 0.0
H846 H 0.99104 0.95925 0.69953 0.0
H847 H 0.03937 0.94904 0.69777 0.0
H848 H 0.02293 0.86458 0.69472 0.0
H849 H 0.97444 0.87431 0.69609 0.0
C850 C 0.86524 0.90689 0.79984 0.0
C851 C 0.86819 0.87906 0.80757 0.0
C852 C 0.87796 0.91908 0.77469 0.0
C853 C 0.89447 0.90432 0.75536 0.0
C854 C 0.89756 0.87662 0.76309 0.0
C855 C 0.88476 0.8644 0.78808 0.0
C856 C 0.90852 0.91734 0.72771 0.0
C857 C 0.93584 0.91163 0.72278 0.0
C858 C 0.89553 0.93562 0.70605 0.0
C859 C 0.86656 0.94195 0.70732 0.0
C860 C 0.84763 0.92125 0.70666 0.0
C861 C 0.82032 0.92734 0.708 0.0
C862 C 0.81169 0.95407 0.70976 0.0
C863 C 0.83034 0.97478 0.7101 0.0
C864 C 0.85768 0.9688 0.70879 0.0
C865 C 0.98136 0.9507 0.60525 0.0
C866 C 0.9777 0.97807 0.59614 0.0
C867 C 0.96832 0.93909 0.63043 0.0
C868 C 0.95097 0.95414 0.64854 0.0
C869 C 0.94705 0.98146 0.63915 0.0
C870 C 0.96003 0.99306 0.61385 0.0
C871 C 0.93696 0.94158 0.67652 0.0
C872 C 0.90964 0.94735 0.68152 0.0
C873 C 0.95 0.92347 0.69838 0.0
C874 C 0.97909 0.91753 0.69759 0.0
C875 C 0.99772 0.93851 0.69828 0.0
C876 C 0.02514 0.93281 0.69738 0.0
C877 C 0.03421 0.90619 0.69604 0.0
C878 C 1.01587 0.8852 0.6957 0.0
C879 C 0.98842 0.89079 0.69656 0.0
H880 H 0.05545 0.90182 0.69534 0.0
H881 H 0.79054 0.95875 0.7108 0.0
H882 H 0.69252 0.23022 0.19886 0.0
H883 H 0.67267 0.19897 0.16211 0.0
H884 H 0.59912 0.2001 0.20938 0.0
H885 H 0.61875 0.23199 0.2457 0.0
H886 H 0.65739 0.15028 0.16981 0.0
H887 H 0.54624 0.18606 0.16148 0.0
H888 H 0.51996 0.22823 0.16394 0.0
H889 H 0.58731 0.27327 0.13555 0.0
H890 H 0.61386 0.23135 0.13252 0.0
H891 H 0.57457 0.04777 0.10823 0.0
H892 H 0.59524 0.08283 0.13948 0.0
H893 H 0.58234 0.14009 0.06532 0.0
H894 H 0.56099 0.10536 0.03431 0.0
H895 H 0.56851 0.1621 0.11537 0.0
H896 H 0.64542 0.11297 0.08552 0.0
H897 H 0.67381 0.07281 0.07875 0.0
H898 H 0.67906 0.05854 0.17527 0.0
H899 H 0.65039 0.09843 0.18259 0.0
C900 C 0.672 0.22402 0.20114 0.0
C901 C 0.65712 0.23353 0.22505 0.0
C902 C 0.6607 0.2061 0.18021 0.0
C903 C 0.63435 0.19719 0.18284 0.0
C904 C 0.61931 0.20702 0.20649 0.0
C905 C 0.63051 0.22524 0.22724 0.0
C906 C 0.62316 0.17674 0.16164 0.0
C907 C 0.63797 0.15293 0.15787 0.0
C908 C 0.598 0.18026 0.14566 0.0
C909 C 0.58211 0.20557 0.14707 0.0
C910 C 0.5554 0.20495 0.15564 0.0
C911 C 0.54047 0.22881 0.15716 0.0
C912 C 0.55199 0.25342 0.15 0.0
C913 C 0.57844 0.25421 0.1412 0.0
C914 C 0.59345 0.2304 0.13962 0.0
C915 C 0.57636 0.06777 0.09851 0.0
C916 C 0.56618 0.07379 0.06881 0.0
C917 C 0.58823 0.0878 0.11637 0.0
C918 C 0.59055 0.11409 0.10469 0.0
C919 C 0.5807 0.12 0.07488 0.0
C920 C 0.5686 0.10008 0.05713 0.0
C921 C 0.60266 0.13561 0.12375 0.0
C922 C 0.58797 0.15953 0.12724 0.0
C923 C 0.62824 0.1325 0.13886 0.0
C924 C 0.64556 0.10855 0.13457 0.0
C925 C 0.65247 0.10116 0.10528 0.0
C926 C 0.66864 0.07846 0.10135 0.0
C927 C 0.67818 0.0631 0.12656 0.0
C928 C 0.67163 0.07044 0.15576 0.0
C929 C 0.65545 0.09311 0.15982 0.0
H930 H 0.69069 0.04553 0.12347 0.0
H931 H 0.5404 0.27187 0.15121 0.0
H932 H 0.34354 0.66748 0.27627 0.0
H933 H 0.37217 0.65349 0.32054 0.0
H934 H 0.36737 0.57096 0.29234 0.0
H935 H 0.33821 0.58493 0.2481 0.0
H936 H 0.36799 0.57527 0.3548 0.0
H937 H 0.41897 0.60808 0.27266 0.0
H938 H 0.43078 0.64093 0.23318 0.0
H939 H 0.44876 0.69935 0.30168 0.0
H940 H 0.43658 0.66697 0.34156 0.0
H941 H 0.48798 0.52528 0.42816 0.0
H942 H 0.45267 0.53918 0.39065 0.0
H943 H 0.46091 0.6215 0.41874 0.0
H944 H 0.49683 0.60766 0.45614 0.0
H945 H 0.45745 0.61781 0.35776 0.0
H946 H 0.40872 0.58346 0.4405 0.0
H947 H 0.39768 0.54985 0.47952 0.0
H948 H 0.37636 0.49347 0.40991 0.0
H949 H 0.38774 0.52659 0.37044 0.0
C950 C 0.34827 0.6463 0.27981 0.0
C951 C 0.33902 0.62729 0.25865 0.0
C952 C 0.3646 0.63834 0.30506 0.0
C953 C 0.37234 0.61127 0.30935 0.0
C954 C 0.36169 0.59196 0.28935 0.0
C955 C 0.34508 0.59993 0.26414 0.0
C956 C 0.39333 0.60363 0.33306 0.0
C957 C 0.38763 0.58435 0.35534 0.0
C958 C 0.41882 0.61584 0.33397 0.0
C959 C 0.42661 0.63519 0.31007 0.0
C960 C 0.42527 0.62799 0.27929 0.0
C961 C 0.43204 0.64652 0.25684 0.0
C962 C 0.44045 0.67223 0.26491 0.0
C963 C 0.4422 0.67943 0.29546 0.0
C964 C 0.43537 0.661 0.318 0.0
C965 C 0.48231 0.54636 0.42632 0.0
C966 C 0.49508 0.56544 0.44502 0.0
C967 C 0.46201 0.55424 0.40501 0.0
C968 C 0.45386 0.5813 0.40223 0.0
C969 C 0.46684 0.60049 0.42063 0.0
C970 C 0.48729 0.5926 0.44194 0.0
C971 C 0.43212 0.58953 0.37968 0.0
C972 C 0.43774 0.60886 0.35746 0.0
C973 C 0.40665 0.57727 0.37882 0.0
C974 C 0.39924 0.55748 0.4025 0.0
C975 C 0.40182 0.56385 0.4335 0.0
C976 C 0.3955 0.54489 0.4557 0.0
C977 C 0.38632 0.51956 0.44719 0.0
C978 C 0.38345 0.51312 0.41646 0.0
C979 C 0.38981 0.53199 0.39416 0.0
H980 H 0.38135 0.50495 0.46441 0.0
H981 H 0.44568 0.68656 0.2475 0.0
H982 H 0.19783 0.24354 0.80965 0.0
H983 H 0.18959 0.26681 0.85711 0.0
H984 H 0.20719 0.34261 0.8143 0.0
H985 H 0.21359 0.32024 0.76667 0.0
H986 H 0.23406 0.32934 0.87715 0.0
H987 H 0.1476 0.33259 0.81584 0.0
H988 H 0.1095 0.30981 0.78986 0.0
H989 H 0.09384 0.26743 0.87266 0.0
H990 H 0.13212 0.28974 0.89899 0.0
H991 H 0.18515 0.45138 0.92287 0.0
H992 H 0.20092 0.40943 0.90219 0.0
H993 H 0.14623 0.36517 0.95627 0.0
H994 H 0.12908 0.4074 0.9756 0.0
H995 H 0.14024 0.34954 0.90185 0.0
H996 H 0.21654 0.35726 0.96704 0.0
H997 H 0.25427 0.37888 0.9949 0.0
H998 H 0.29055 0.39661 0.91076 0.0
H999 H 0.2528 0.37557 0.88231 0.0
C1000 C 0.19971 0.26519 0.81025 0.0
C1001 C 0.20673 0.27989 0.78428 0.0
C1002 C 0.1953 0.27835 0.83746 0.0
C1003 C 0.19826 0.30629 0.83917 0.0
C1004 C 0.20536 0.32094 0.8135 0.0
C1005 C 0.20916 0.308 0.78628 0.0
C1006 C 0.19246 0.32112 0.86685 0.0
C1007 C 0.21363 0.33369 0.88292 0.0
C1008 C 0.16588 0.32572 0.87503 0.0
C1009 C 0.14288 0.31251 0.85922 0.0
C1010 C 0.13617 0.31822 0.8284 0.0
C1011 C 0.11453 0.30544 0.81363 0.0
C1012 C 0.09932 0.2871 0.82957 0.0
C1013 C 0.10568 0.28158 0.86032 0.0
C1014 C 0.12734 0.29428 0.87517 0.0
C1015 C 0.17663 0.43272 0.9306 0.0
C1016 C 0.1556 0.43283 0.95055 0.0
C1017 C 0.18598 0.40861 0.91912 0.0
C1018 C 0.17496 0.38397 0.92783 0.0
C1019 C 0.15506 0.38388 0.94918 0.0
C1020 C 0.14544 0.40808 0.96042 0.0
C1021 C 0.18185 0.35913 0.91149 0.0
C1022 C 0.16086 0.34461 0.89734 0.0
C1023 C 0.2087 0.35236 0.90559 0.0
C1024 C 0.23173 0.36484 0.92251 0.0
C1025 C 0.23248 0.3659 0.95444 0.0
C1026 C 0.25389 0.37806 0.97035 0.0
C1027 C 0.2748 0.38911 0.95461 0.0
C1028 C 0.27436 0.388 0.92292 0.0
C1029 C 0.25297 0.37591 0.90689 0.0
H1030 H 0.29136 0.39852 0.96696 0.0
H1031 H 0.08256 0.27724 0.81811 0.0
H1032 H 0.77487 0.89221 0.8431 0.0
H1033 H 0.73443 0.91248 0.86196 0.0
H1034 H 0.76007 0.88866 0.95328 0.0
H1035 H 0.80022 0.86712 0.93406 0.0
H1036 H 0.71118 0.88815 0.95728 0.0
H1037 H 0.75644 0.96199 0.91351 0.0
H1038 H 0.77877 0.98807 0.87421 0.0
H1039 H 0.7074 0.98573 0.81569 0.0
H1040 H 0.68475 0.95938 0.85453 0.0
H1041 H 0.60947 0.97696 0.02173 0.0
H1042 H 0.65127 0.95558 1.00552 0.0
H1043 H 0.62199 0.96259 0.91221 0.0
H1044 H 0.58049 0.98338 0.92828 0.0
H1045 H 0.67339 0.97273 0.9112 0.0
H1046 H 0.62844 0.89936 0.95842 0.0
H1047 H 0.60727 0.87545 1.0002 0.0
H1048 H 0.68022 0.88019 0.05572 0.0
H1049 H 0.70173 0.90444 0.01437 0.0
C1050 C 0.77242 0.89128 0.86735 0.0
C1051 C 0.79223 0.87763 0.88649 0.0
C1052 C 0.74869 0.90346 0.87852 0.0
C1053 C 0.74308 0.90373 0.90992 0.0
C1054 C 0.76267 0.88965 0.92906 0.0
C1055 C 0.78625 0.87701 0.91778 0.0
C1056 C 0.71728 0.91803 0.92242 0.0
C1057 C 0.70352 0.90688 0.94713 0.0
C1058 C 0.70551 0.94269 0.91018 0.0
C1059 C 0.71902 0.95847 0.88678 0.0
C1060 C 0.74557 0.96691 0.89218 0.0
C1061 C 0.75828 0.98175 0.87 0.0
C1062 C 0.74454 0.98848 0.84243 0.0
C1063 C 0.71804 0.98046 0.83703 0.0
C1064 C 0.70525 0.96558 0.85912 0.0
C1065 C 0.61172 0.97403 0.9977 0.0
C1066 C 0.59053 0.98245 0.97672 0.0
C1067 C 0.63606 0.96139 0.98818 0.0
C1068 C 0.64099 0.95658 0.95704 0.0
C1069 C 0.61992 0.96547 0.93628 0.0
C1070 C 0.5956 0.97761 0.94575 0.0
C1071 C 0.66741 0.94279 0.94582 0.0
C1072 C 0.6812 0.95403 0.92132 0.0
C1073 C 0.67944 0.91855 0.95862 0.0
C1074 C 0.66659 0.90396 0.98343 0.0
C1075 C 0.6399 0.89547 0.97962 0.0
C1076 C 0.62785 0.88183 1.00321 0.0
C1077 C 0.64237 0.87637 0.03063 0.0
C1078 C 0.66899 0.88448 0.03448 0.0
C1079 C 0.68113 0.89816 0.01098 0.0
H1080 H 0.633 0.86581 0.04886 0.0
H1081 H 0.75441 0.99997 0.82529 0.0
H1082 H 0.72012 0.25653 0.34703 0.0
H1083 H 0.76134 0.23999 0.37342 0.0
H1084 H 0.79258 0.21758 0.28784 0.0
H1085 H 0.7514 0.23456 0.26105 0.0
H1086 H 0.79855 0.17745 0.33202 0.0
H1087 H 0.81701 0.27166 0.32288 0.0
H1088 H 0.80678 0.32002 0.32743 0.0
H1089 H 0.80232 0.31006 0.42401 0.0
H1090 H 0.81217 0.26157 0.42001 0.0
H1091 H 0.92226 0.13888 0.40429 0.0
H1092 H 0.89054 0.16323 0.36964 0.0
H1093 H 0.85422 0.19955 0.44598 0.0
H1094 H 0.88703 0.17676 0.48065 0.0
H1095 H 0.85407 0.23434 0.4013 0.0
H1096 H 0.82942 0.14129 0.41137 0.0
H1097 H 0.83654 0.0922 0.40909 0.0
H1098 H 0.84932 0.09904 0.31367 0.0
H1099 H 0.84264 0.14824 0.31548 0.0
C1100 C 0.7359 0.2485 0.33372 0.0
C1101 C 0.73258 0.24706 0.3019 0.0
C1102 C 0.75942 0.23899 0.34886 0.0
C1103 C 0.78011 0.2279 0.33252 0.0
C1104 C 0.77683 0.22616 0.30081 0.0
C1105 C 0.75329 0.23577 0.28559 0.0
C1106 C 0.80477 0.21739 0.34886 0.0
C1107 C 0.81106 0.18996 0.34669 0.0
C1108 C 0.82057 0.23366 0.36855 0.0
C1109 C 0.81519 0.26294 0.37111 0.0
C1110 C 0.81372 0.27976 0.34507 0.0
C1111 C 0.808 0.3072 0.34756 0.0
C1112 C 0.80386 0.3181 0.37598 0.0
C1113 C 0.80553 0.30159 0.40201 0.0
C1114 C 0.81123 0.27414 0.39965 0.0
C1115 C 0.90804 0.15262 0.41372 0.0
C1116 C 0.90699 0.15556 0.44535 0.0
C1117 C 0.88967 0.16627 0.39386 0.0
C1118 C 0.86956 0.18266 0.40525 0.0
C1119 C 0.8694 0.18681 0.43666 0.0
C1120 C 0.888 0.1735 0.4565 0.0
C1121 C 0.8477 0.19425 0.38483 0.0
C1122 C 0.84187 0.22187 0.38626 0.0
C1123 C 0.83202 0.17806 0.3648 0.0
C1124 C 0.83584 0.14847 0.36364 0.0
C1125 C 0.83393 0.13234 0.38995 0.0
C1126 C 0.83787 0.1045 0.38874 0.0
C1127 C 0.84346 0.09252 0.36127 0.0
C1128 C 0.84504 0.10836 0.33494 0.0
C1129 C 0.84118 0.13621 0.33604 0.0
H1130 H 0.84649 0.07097 0.36036 0.0
H1131 H 0.7994 0.33934 0.37785 0.0
H1132 H 0.24349 0.66348 0.17136 0.0
H1133 H 0.20094 0.64561 0.15098 0.0
H1134 H 0.23146 0.56473 0.1663 0.0
H1135 H 0.27421 0.58255 0.18666 0.0
H1136 H 0.2065 0.57312 0.10843 0.0
H1137 H 0.18857 0.58763 0.21291 0.0
H1138 H 0.18675 0.61385 0.25978 0.0
H1139 H 0.13212 0.67039 0.21418 0.0
H1140 H 0.13393 0.64471 0.16689 0.0
H1141 H 0.06153 0.52454 0.11999 0.0
H1142 H 0.10385 0.5408 0.14275 0.0
H1143 H 0.11617 0.58774 0.0616 0.0
H1144 H 0.07335 0.57205 0.0389 0.0
H1145 H 0.12 0.59404 0.15396 0.0
H1146 H 0.18461 0.58102 0.05057 0.0
H1147 H 0.1883 0.55196 1.00607 0.0
H1148 H 0.15068 0.48771 0.05344 0.0
H1149 H 0.14675 0.51638 0.09816 0.0
C1150 C 0.24111 0.64189 0.17036 0.0
C1151 C 0.2621 0.62437 0.18056 0.0
C1152 C 0.2168 0.63173 0.15886 0.0
C1153 C 0.21309 0.60388 0.15724 0.0
C1154 C 0.234 0.5863 0.16739 0.0
C1155 C 0.25826 0.59647 0.17919 0.0
C1156 C 0.18742 0.59317 0.14467 0.0
C1157 C 0.18758 0.5777 0.11835 0.0
C1158 C 0.16282 0.59897 0.15784 0.0
C1159 C 0.16159 0.61438 0.18628 0.0
C1160 C 0.17635 0.60578 0.2128 0.0
C1161 C 0.17528 0.62052 0.23946 0.0
C1162 C 0.15938 0.64381 0.23994 0.0
C1163 C 0.14446 0.65236 0.21377 0.0
C1164 C 0.14547 0.63771 0.18704 0.0
C1165 C 0.07315 0.53849 0.10706 0.0
C1166 C 0.06431 0.54691 0.0776 0.0
C1167 C 0.09729 0.54772 0.12009 0.0
C1168 C 0.11318 0.56523 0.10372 0.0
C1169 C 0.10426 0.57399 0.07443 0.0
C1170 C 0.07986 0.56505 0.06153 0.0
C1171 C 0.13905 0.57432 0.11748 0.0
C1172 C 0.13891 0.58956 0.14397 0.0
C1173 C 0.16368 0.56807 0.10466 0.0
C1174 C 0.16518 0.55094 0.07757 0.0
C1175 C 0.17706 0.56071 0.05142 0.0
C1176 C 0.17918 0.54432 0.02617 0.0
C1177 C 0.1697 0.51803 0.02691 0.0
C1178 C 0.1579 0.50812 0.05284 0.0
C1179 C 0.15561 0.52448 0.07809 0.0
H1180 H 0.17161 0.50532 1.00742 0.0
H1181 H 0.15858 0.65519 0.2606 0.0
H1182 H 0.28543 0.28276 0.7189 0.0
H1183 H 0.31149 0.31236 0.68716 0.0
H1184 H 0.2484 0.31133 0.61653 0.0
H1185 H 0.22228 0.28164 0.64816 0.0
H1186 H 0.29809 0.31077 0.59315 0.0
H1187 H 0.2508 0.36177 0.66494 0.0
H1188 H 0.23646 0.37315 0.71592 0.0
H1189 H 0.31807 0.38832 0.74535 0.0
H1190 H 0.33298 0.37654 0.69467 0.0
H1191 H 0.33944 0.42969 0.51743 0.0
H1192 H 0.3119 0.39827 0.54519 0.0
H1193 H 0.37216 0.3946 0.61894 0.0
H1194 H 0.39991 0.42558 0.59128 0.0
H1195 H 0.32164 0.39828 0.63932 0.0
H1196 H 0.36872 0.34564 0.56742 0.0
H1197 H 0.3826 0.33392 0.51634 0.0
H1198 H 0.30036 0.32243 0.48669 0.0
H1199 H 0.28597 0.33448 0.53751 0.0
C1200 C 0.27731 0.28856 0.69643 0.0
C1201 C 0.25175 0.28014 0.68608 0.0
C1202 C 0.29217 0.30546 0.67836 0.0
C1203 C 0.28159 0.31444 0.64978 0.0
C1204 C 0.25685 0.30468 0.63857 0.0
C1205 C 0.24201 0.28766 0.65661 0.0
C1206 C 0.2955 0.33543 0.63262 0.0
C1207 C 0.30295 0.33003 0.60306 0.0
C1208 C 0.30198 0.36048 0.64572 0.0
C1209 C 0.29304 0.36803 0.67608 0.0
C1210 C 0.26572 0.36736 0.68234 0.0
C1211 C 0.25748 0.37389 0.71118 0.0
C1212 C 0.27635 0.3814 0.73388 0.0
C1213 C 0.30348 0.38247 0.72775 0.0
C1214 C 0.31184 0.37588 0.69897 0.0
C1215 C 0.3468 0.42221 0.53958 0.0
C1216 C 0.37191 0.43008 0.5521 0.0
C1217 C 0.33104 0.4043 0.5554 0.0
C1218 C 0.34017 0.3939 0.58394 0.0
C1219 C 0.36475 0.40244 0.59695 0.0
C1220 C 0.38052 0.42028 0.58116 0.0
C1221 C 0.32458 0.37348 0.60001 0.0
C1222 C 0.31671 0.37905 0.62936 0.0
C1223 C 0.31762 0.34867 0.58665 0.0
C1224 C 0.32626 0.34123 0.55616 0.0
C1225 C 0.35359 0.34082 0.54994 0.0
C1226 C 0.36154 0.33408 0.52105 0.0
C1227 C 0.34237 0.3275 0.49826 0.0
C1228 C 0.31519 0.32757 0.50435 0.0
C1229 C 0.30712 0.33434 0.5332 0.0
H1230 H 0.34857 0.32229 0.4759 0.0
H1231 H 0.26993 0.38644 0.7562 0.0
H1232 H 0.83404 0.78499 0.9101 0.0
H1233 H 0.85574 0.74335 0.93009 0.0
H1234 H 0.93011 0.76782 0.89403 0.0
H1235 H 0.90896 0.80938 0.87466 0.0
H1236 H 0.92944 0.71744 0.88506 0.0
H1237 H 0.91217 0.76392 0.97677 0.0
H1238 H 0.88526 0.7863 0.01465 0.0
H1239 H 0.83952 0.71459 0.0254 0.0
H1240 H 0.86584 0.6919 0.98722 0.0
H1241 H 1.01416 0.61348 0.95846 0.0
H1242 H 0.99144 0.65538 0.94101 0.0
H1243 H 0.91938 0.62973 0.98174 0.0
H1244 H 0.94237 0.58807 0.99981 0.0
H1245 H 0.91788 0.68015 0.98835 0.0
H1246 H 0.93302 0.63398 0.89659 0.0
H1247 H 0.95897 0.61059 0.85863 0.0
H1248 H 1.00728 0.68055 0.84777 0.0
H1249 H 0.9818 0.70426 0.88595 0.0
C1250 C 0.85512 0.78203 0.9065 0.0
C1251 C 0.8689 0.80184 0.8898 0.0
C1252 C 0.86785 0.75759 0.91826 0.0
C1253 C 0.89534 0.75121 0.91433 0.0
C1254 C 0.90907 0.77098 0.89781 0.0
C1255 C 0.89647 0.79537 0.88624 0.0
C1256 C 0.9097 0.7244 0.92651 0.0
C1257 C 0.92696 0.7098 0.90791 0.0
C1258 C 0.90678 0.71263 0.9561 0.0
C1259 C 0.8907 0.72636 0.97873 0.0
C1260 C 0.89617 0.75301 0.98695 0.0
C1261 C 0.88106 0.76574 1.00851 0.0
C1262 C 0.86056 0.75193 0.0222 0.0
C1263 C 0.85528 0.72531 0.01459 0.0
C1264 C 0.87029 0.71251 0.99298 0.0
C1265 C 0.99343 0.61648 0.9638 0.0
C1266 C 0.98063 0.59633 0.98084 0.0
C1267 C 0.98003 0.64088 0.95336 0.0
C1268 C 0.95274 0.64679 0.9589 0.0
C1269 C 0.94011 0.62678 0.97641 0.0
C1270 C 0.95353 0.60239 0.98689 0.0
C1271 C 0.9377 0.67332 0.94691 0.0
C1272 C 0.92034 0.68782 0.96551 0.0
C1273 C 0.94032 0.68494 0.91724 0.0
C1274 C 0.9557 0.67078 0.89436 0.0
C1275 C 0.9493 0.64431 0.88625 0.0
C1276 C 0.9639 0.631 0.86468 0.0
C1277 C 0.98481 0.64404 0.85086 0.0
C1278 C 0.99111 0.67045 0.85853 0.0
C1279 C 0.97659 0.68384 0.88012 0.0
H1280 H 0.99609 0.63371 0.83416 0.0
H1281 H 0.84878 0.76186 0.03872 0.0
H1282 H 0.30269 0.71266 0.16055 0.0
H1283 H 0.32584 0.74944 0.13568 0.0
H1284 H 0.39991 0.70364 0.14415 0.0
H1285 H 0.37696 0.66715 0.16945 0.0
H1286 H 0.40711 0.7518 0.16518 0.0
H1287 H 0.36553 0.71592 0.07446 0.0
H1288 H 0.3282 0.7001 0.04088 0.0
H1289 H 0.29076 0.77825 0.04183 0.0
H1290 H 0.3277 0.79445 0.07579 0.0
H1291 H 0.48684 0.83871 0.0836 0.0
H1292 H 0.46001 0.79904 0.0934 0.0
H1293 H 0.38932 0.84927 0.09749 0.0
H1294 H 0.41611 0.88917 0.08798 0.0
H1295 H 0.37997 0.79913 0.06817 0.0
H1296 H 0.42061 0.83373 0.16094 0.0
H1297 H 0.45833 0.84952 0.194 0.0
H1298 H 0.49764 0.7726 0.18858 0.0
H1299 H 0.46032 0.75649 0.15505 0.0
C1300 C 0.3238 0.71033 0.15659 0.0
C1301 C 0.33812 0.68722 0.1671 0.0
C1302 C 0.33699 0.73128 0.14231 0.0
C1303 C 0.3646 0.72924 0.13793 0.0
C1304 C 0.37864 0.70569 0.1474 0.0
C1305 C 0.36555 0.68491 0.1619 0.0
C1306 C 0.37941 0.75243 0.12595 0.0
C1307 C 0.40139 0.76179 0.14368 0.0
C1308 C 0.3715 0.76601 0.09836 0.0
C1309 C 0.34926 0.75632 0.07793 0.0
C1310 C 0.34923 0.72968 0.06773 0.0
C1311 C 0.32816 0.72065 0.04858 0.0
C1312 C 0.30708 0.73813 0.03929 0.0
C1313 C 0.30708 0.76471 0.04907 0.0
C1314 C 0.32809 0.77384 0.06825 0.0
C1315 C 0.46555 0.8413 0.08643 0.0
C1316 C 0.45364 0.86706 0.08556 0.0
C1317 C 0.45025 0.81863 0.09179 0.0
C1318 C 0.4228 0.82135 0.09651 0.0
C1319 C 0.4105 0.84683 0.09387 0.0
C1320 C 0.42582 0.86957 0.0885 0.0
C1321 C 0.40769 0.79799 0.10724 0.0
C1322 C 0.38565 0.78884 0.08948 0.0
C1323 C 0.4155 0.78446 0.13481 0.0
C1324 C 0.43781 0.79401 0.15524 0.0
C1325 C 0.4374 0.82026 0.1666 0.0
C1326 C 0.45869 0.82925 0.18545 0.0
C1327 C 0.4804 0.8121 0.19332 0.0
C1328 C 0.48082 0.78588 0.18243 0.0
C1329 C 0.45961 0.7768 0.16351 0.0
H1330 H 0.49686 0.8191 0.20792 0.0
H1331 H 0.29079 0.73111 0.02446 0.0
H1332 H 0.14533 0.22746 0.71803 0.0
H1333 H 0.1181 0.19161 0.6954 0.0
H1334 H 0.18984 0.15184 0.66751 0.0
H1335 H 0.21702 0.1877 0.68977 0.0
H1336 H 0.15433 0.15559 0.62177 0.0
H1337 H 0.15361 0.12707 0.72629 0.0
H1338 H 0.14642 0.13222 0.78085 0.0
H1339 H 0.06285 0.149 0.76034 0.0
H1340 H 0.06962 0.14431 0.70559 0.0
H1341 H 0.07686 0.02279 0.61378 0.0
H1342 H 0.10004 0.05671 0.64473 0.0
H1343 H 0.07227 0.11864 0.58049 0.0
H1344 H 0.04964 0.08481 0.54918 0.0
H1345 H 0.0862 0.1024 0.67357 0.0
H1346 H 0.12252 0.16188 0.5703 0.0
H1347 H 0.13186 0.15433 0.51663 0.0
H1348 H 0.14934 0.07103 0.53701 0.0
H1349 H 0.14046 0.07817 0.59085 0.0
C1350 C 0.15527 0.21081 0.70752 0.0
C1351 C 0.18326 0.21038 0.70553 0.0
C1352 C 0.13971 0.19035 0.6946 0.0
C1353 C 0.15194 0.16899 0.67982 0.0
C1354 C 0.17996 0.16819 0.67863 0.0
C1355 C 0.19546 0.18868 0.69134 0.0
C1356 C 0.13562 0.14821 0.66406 0.0
C1357 C 0.13945 0.14399 0.63316 0.0
C1358 C 0.11632 0.1329 0.67892 0.0
C1359 C 0.11218 0.13558 0.71182 0.0
C1360 C 0.13374 0.13206 0.7334 0.0
C1361 C 0.12974 0.13486 0.76436 0.0
C1362 C 0.10421 0.141 0.77405 0.0
C1363 C 0.08262 0.14428 0.7528 0.0
C1364 C 0.08652 0.14152 0.7218 0.0
C1365 C 0.07552 0.04369 0.60645 0.0
C1366 C 0.06179 0.05118 0.57892 0.0
C1367 C 0.08864 0.06303 0.62421 0.0
C1368 C 0.08819 0.09011 0.61467 0.0
C1369 C 0.07322 0.09778 0.58801 0.0
C1370 C 0.06027 0.07846 0.57018 0.0
C1371 C 0.10487 0.11002 0.63136 0.0
C1372 C 0.10106 0.1141 0.66229 0.0
C1373 C 0.12458 0.12492 0.61672 0.0
C1374 C 0.13057 0.12052 0.58453 0.0
C1375 C 0.12848 0.14199 0.56334 0.0
C1376 C 0.13367 0.13778 0.53289 0.0
C1377 C 0.14111 0.1122 0.5234 0.0
C1378 C 0.14349 0.09081 0.54437 0.0
C1379 C 0.13837 0.09492 0.57485 0.0
H1380 H 0.14507 0.10897 0.49981 0.0
H1381 H 0.10115 0.14317 0.79803 0.0
H1382 H 0.69373 0.33733 0.29539 0.0
H1383 H 0.67438 0.37498 0.32209 0.0
H1384 H 0.59809 0.33532 0.32039 0.0
H1385 H 0.61746 0.2972 0.29418 0.0
H1386 H 0.59472 0.39233 0.30935 0.0
H1387 H 0.63699 0.32783 0.38099 0.0
H1388 H 0.67503 0.29971 0.40127 0.0
H1389 H 0.72225 0.37032 0.41583 0.0
H1390 H 0.68459 0.39884 0.39515 0.0
H1391 H 0.52882 0.4497 0.42909 0.0
H1392 H 0.55044 0.42008 0.39423 0.0
H1393 H 0.62655 0.45698 0.41628 0.0
H1394 H 0.605 0.48638 0.45228 0.0
H1395 H 0.6329 0.40474 0.4144 0.0
H1396 H 0.59067 0.47005 0.34729 0.0
H1397 H 0.55395 0.49912 0.32554 0.0
H1398 H 0.50844 0.42946 0.30078 0.0
H1399 H 0.54473 0.39994 0.32278 0.0
C1400 C 0.67277 0.33669 0.30049 0.0
C1401 C 0.65722 0.31408 0.2931 0.0
C1402 C 0.66174 0.35826 0.31563 0.0
C1403 C 0.63495 0.35771 0.32357 0.0
C1404 C 0.61885 0.33606 0.31446 0.0
C1405 C 0.62991 0.31435 0.29941 0.0
C1406 C 0.62436 0.37861 0.34345 0.0
C1407 C 0.60286 0.39497 0.3324 0.0
C1408 C 0.63564 0.38252 0.37316 0.0
C1409 C 0.65807 0.36544 0.38623 0.0
C1410 C 0.65554 0.33734 0.38833 0.0
C1411 C 0.67703 0.32133 0.39991 0.0
C1412 C 0.70107 0.33321 0.40975 0.0
C1413 C 0.70363 0.36114 0.40815 0.0
C1414 C 0.68221 0.37724 0.39651 0.0
C1415 C 0.55015 0.45171 0.42647 0.0
C1416 C 0.56517 0.47056 0.44332 0.0
C1417 C 0.56248 0.4348 0.40634 0.0
C1418 C 0.59003 0.43666 0.40206 0.0
C1419 C 0.60521 0.4553 0.41905 0.0
C1420 C 0.59289 0.47209 0.43958 0.0
C1421 C 0.60287 0.41843 0.38053 0.0
C1422 C 0.62485 0.40246 0.39125 0.0
C1423 C 0.59219 0.4151 0.35039 0.0
C1424 C 0.57037 0.43278 0.33689 0.0
C1425 C 0.57276 0.46092 0.33738 0.0
C1426 C 0.55203 0.47748 0.32498 0.0
C1427 C 0.52886 0.46615 0.31184 0.0
C1428 C 0.5264 0.43821 0.31099 0.0
C1429 C 0.54706 0.42155 0.32338 0.0
H1430 H 0.51282 0.479 0.30226 0.0
H1431 H 0.7177 0.32079 0.41868 0.0
loop_
_geom_bond_atom_site_label_1
_geom_bond_atom_site_label_2
_geom_bond_distance
_geom_bond_site_symmetry_2
_ccdc_geom_bond_type
H0 C3 0.931 . S
H1 C6 0.928 . S
H2 C8 0.930 . S
C3 H0 0.931 . S
C3 C4 1.413 . S
C3 C5 1.360 . S
C4 C3 1.413 . S
C4 C8 1.429 . S
C5 C3 1.360 . S
C5 C6 1.372 . S
C6 H1 0.928 . S
C6 C5 1.372 . S
C6 C7 1.404 . S
C7 C6 1.404 . S
C7 C8 1.391 . S
C8 H2 0.930 . S
C8 C4 1.429 . S
C8 C7 1.391 . S
H9 C12 0.931 . S
H10 C15 0.928 . S
H11 C17 0.930 . S
C12 H9 0.931 . S
C12 C13 1.413 . S
C12 C14 1.360 . S
C13 C12 1.413 . S
C13 C17 1.429 . S
C14 C12 1.360 . S
C14 C15 1.372 . S
C15 H10 0.928 . S
C15 C14 1.372 . S
C15 C16 1.404 . S
C16 C15 1.404 . S
C16 C17 1.391 . S
C17 H11 0.930 . S
C17 C13 1.429 . S
C17 C16 1.391 . S
H18 C21 0.931 . S
H19 C24 0.928 . S
H20 C26 0.930 . S
C21 H18 0.931 . S
C21 C22 1.413 . S
C21 C23 1.360 . S
C22 C21 1.413 . S
C22 C26 1.429 . S
C23 C21 1.360 . S
C23 C24 1.372 . S
C24 H19 0.928 . S
C24 C23 1.372 . S
C24 C25 1.404 . S
C25 C24 1.404 . S
C25 C26 1.391 . S
C26 H20 0.930 . S
C26 C22 1.429 . S
C26 C25 1.391 . S
H27 C30 0.931 . S
H28 C33 0.928 . S
H29 C35 0.930 . S
C30 H27 0.931 . S
C30 C31 1.413 . S
C30 C32 1.360 . S
C31 C30 1.413 . S
C31 C35 1.429 . S
C32 C30 1.360 . S
C32 C33 1.372 . S
C33 H28 0.928 . S
C33 C32 1.372 . S
C33 C34 1.404 . S
C34 C33 1.404 . S
C34 C35 1.391 . S
C35 H29 0.930 . S
C35 C31 1.429 . S
C35 C34 1.391 . S
H36 C39 0.931 . S
H37 C42 0.928 . S
H38 C44 0.930 . S
C39 H36 0.931 . S
C39 C40 1.413 . S
C39 C41 1.360 . S
C40 C39 1.413 . S
C40 C44 1.429 . S
C41 C39 1.360 . S
C41 C42 1.372 . S
C42 H37 0.928 . S
C42 C41 1.372 . S
C42 C43 1.404 . S
C43 C42 1.404 . S
C43 C44 1.391 . S
C44 H38 0.930 . S
C44 C40 1.429 . S
C44 C43 1.391 . S
H45 C48 0.931 . S
H46 C51 0.928 . S
H47 C53 0.930 . S
C48 H45 0.931 . S
C48 C49 1.413 . S
C48 C50 1.360 . S
C49 C48 1.413 . S
C49 C53 1.429 . S
C50 C48 1.360 . S
C50 C51 1.372 . S
C51 H46 0.928 . S
C51 C50 1.372 . S
C51 C52 1.404 . S
C52 C51 1.404 . S
C52 C53 1.391 . S
C53 H47 0.930 . S
C53 C49 1.429 . S
C53 C52 1.391 . S
H54 C57 0.931 . S
H55 C60 0.928 . S
H56 C62 0.930 . S
C57 H54 0.931 . S
C57 C58 1.413 . S
C57 C59 1.360 . S
C58 C57 1.413 . S
C58 C62 1.429 . S
C59 C57 1.360 . S
C59 C60 1.372 . S
C60 H55 0.928 . S
C60 C59 1.372 . S
C60 C61 1.404 . S
C61 C60 1.404 . S
C61 C62 1.391 . S
C62 H56 0.930 . S
C62 C58 1.429 . S
C62 C61 1.391 . S
H63 C66 0.931 . S
H64 C69 0.928 . S
H65 C71 0.930 . S
C66 H63 0.931 . S
C66 C67 1.413 . S
C66 C68 1.360 . S
C67 C66 1.413 . S
C67 C71 1.429 . S
C68 C66 1.360 . S
C68 C69 1.372 . S
C69 H64 0.928 . S
C69 C68 1.372 . S
C69 C70 1.404 . S
C70 C69 1.404 . S
C70 C71 1.391 . S
C71 H65 0.930 . S
C71 C67 1.429 . S
C71 C70 1.391 . S
Nd72 C74 2.836 . S
Nd72 O92 2.500 . S
Nd72 O93 2.492 . S
Nd72 O94 2.487 1_565 S
Nd72 O95 2.682 1_565 S
Nd72 O96 2.410 . S
Nd72 O101 2.414 1_455 S
Nd72 O103 2.424 1_565 S
Nd73 C83 2.836 . S
Nd73 O95 2.414 1_655 S
Nd73 O97 2.424 1_545 S
Nd73 O98 2.500 . S
Nd73 O99 2.492 . S
Nd73 O100 2.487 1_545 S
Nd73 O101 2.682 1_545 S
Nd73 O102 2.410 . S
C74 Nd72 2.836 . S
C74 C75 1.498 . S
C74 O92 1.258 . S
C74 O93 1.239 . S
C75 C74 1.498 . S
C75 C76 1.366 . S
C75 C80 1.407 . S
C76 C75 1.366 . S
C76 C77 1.392 . S
C76 H104 0.930 . S
C77 C76 1.392 . S
C77 C78 1.398 . S
C77 H105 0.929 . S
C78 C77 1.398 . S
C78 C79 1.352 . S
C79 C78 1.352 . S
C79 C80 1.384 . S
C79 H106 0.930 . S
C80 C75 1.407 . S
C80 C79 1.384 . S
C80 H107 0.929 . S
C81 O94 1.241 . S
C81 O95 1.273 . S
C82 O96 1.251 1_655 S
C82 O97 1.268 . S
C83 Nd73 2.836 . S
C83 C84 1.498 . S
C83 O98 1.258 . S
C83 O99 1.239 . S
C84 C83 1.498 . S
C84 C85 1.366 . S
C84 C89 1.407 . S
C85 C84 1.366 . S
C85 C86 1.392 . S
C85 H108 0.930 . S
C86 C85 1.392 . S
C86 C87 1.398 . S
C86 H109 0.929 . S
C87 C86 1.398 . S
C87 C88 1.352 . S
C88 C87 1.352 . S
C88 C89 1.384 . S
C88 H110 0.930 . S
C89 C84 1.407 . S
C89 C88 1.384 . S
C89 H111 0.929 . S
C90 O100 1.241 . S
C90 O101 1.273 . S
C91 O102 1.251 1_455 S
C91 O103 1.268 . S
O92 Nd72 2.500 . S
O92 C74 1.258 . S
O93 Nd72 2.492 . S
O93 C74 1.239 . S
O94 Nd72 2.487 1_545 S
O94 C81 1.241 . S
O95 Nd72 2.682 1_545 S
O95 Nd73 2.414 1_455 S
O95 C81 1.273 . S
O96 Nd72 2.410 . S
O96 C82 1.251 1_455 S
O97 Nd73 2.424 1_565 S
O97 C82 1.268 . S
O98 Nd73 2.500 . S
O98 C83 1.258 . S
O99 Nd73 2.492 . S
O99 C83 1.239 . S
O100 Nd73 2.487 1_565 S
O100 C90 1.241 . S
O101 Nd72 2.414 1_655 S
O101 Nd73 2.682 1_565 S
O101 C90 1.273 . S
O102 Nd73 2.410 . S
O102 C91 1.251 1_655 S
O103 Nd72 2.424 1_545 S
O103 C91 1.268 . S
H104 C76 0.930 . S
H105 C77 0.929 . S
H106 C79 0.930 . S
H107 C80 0.929 . S
H108 C85 0.930 . S
H109 C86 0.929 . S
H110 C88 0.930 . S
H111 C89 0.929 . S
Nd112 C114 2.836 . S
Nd112 O132 2.500 . S
Nd112 O133 2.492 . S
Nd112 O134 2.487 1_565 S
Nd112 O135 2.682 1_565 S
Nd112 O136 2.410 1_554 S
Nd112 O141 2.414 1_554 S
Nd112 O143 2.424 1_565 S
Nd113 C123 2.836 . S
Nd113 O135 2.414 1_556 S
Nd113 O137 2.424 1_545 S
Nd113 O138 2.500 . S
Nd113 O139 2.492 . S
Nd113 O140 2.487 . S
Nd113 O141 2.682 1_545 S
Nd113 O142 2.410 1_556 S
C114 Nd112 2.836 . S
C114 C115 1.498 . S
C114 O132 1.258 . S
C114 O133 1.239 . S
C115 C114 1.498 . S
C115 C116 1.366 . S
C115 C120 1.407 . S
C116 C115 1.366 . S
C116 C117 1.392 . S
C116 H144 0.930 . S
C117 C116 1.392 . S
C117 C118 1.398 . S
C117 H145 0.929 . S
C118 C117 1.398 . S
C118 C119 1.352 . S
C119 C118 1.352 . S
C119 C120 1.384 . S
C119 H146 0.930 . S
C120 C115 1.407 . S
C120 C119 1.384 . S
C120 H147 0.929 . S
C121 O134 1.241 . S
C121 O135 1.273 . S
C122 O136 1.251 . S
C122 O137 1.268 . S
C123 Nd113 2.836 . S
C123 C124 1.498 . S
C123 O138 1.258 . S
C123 O139 1.239 . S
C124 C123 1.498 . S
C124 C125 1.366 . S
C124 C129 1.407 . S
C125 C124 1.366 . S
C125 C126 1.392 . S
C125 H148 0.930 . S
C126 C125 1.392 . S
C126 C127 1.398 . S
C126 H149 0.929 . S
C127 C126 1.398 . S
C127 C128 1.352 . S
C128 C127 1.352 . S
C128 C129 1.384 . S
C128 H150 0.930 . S
C129 C124 1.407 . S
C129 C128 1.384 . S
C129 H151 0.929 . S
C130 O140 1.241 1_565 S
C130 O141 1.273 . S
C131 O142 1.251 . S
C131 O143 1.268 . S
O132 Nd112 2.500 . S
O132 C114 1.258 . S
O133 Nd112 2.492 . S
O133 C114 1.239 . S
O134 Nd112 2.487 1_545 S
O134 C121 1.241 . S
O135 Nd112 2.682 1_545 S
O135 Nd113 2.414 1_554 S
O135 C121 1.273 . S
O136 Nd112 2.410 1_556 S
O136 C122 1.251 . S
O137 Nd113 2.424 1_565 S
O137 C122 1.268 . S
O138 Nd113 2.500 . S
O138 C123 1.258 . S
O139 Nd113 2.492 . S
O139 C123 1.239 . S
O140 Nd113 2.487 . S
O140 C130 1.241 1_545 S
O141 Nd112 2.414 1_556 S
O141 Nd113 2.682 1_565 S
O141 C130 1.273 . S
O142 Nd113 2.410 1_554 S
O142 C131 1.251 . S
O143 Nd112 2.424 1_545 S
O143 C131 1.268 . S
H144 C116 0.930 . S
H145 C117 0.929 . S
H146 C119 0.930 . S
H147 C120 0.929 . S
H148 C125 0.930 . S
H149 C126 0.929 . S
H150 C128 0.930 . S
H151 C129 0.929 . S
Nd152 C154 2.836 . S
Nd152 O172 2.500 . S
Nd152 O173 2.492 . S
Nd152 O174 2.487 . S
Nd152 O175 2.682 . S
Nd152 O176 2.410 . S
Nd152 O181 2.414 . S
Nd152 O183 2.424 . S
Nd153 C163 2.836 . S
Nd153 O175 2.414 . S
Nd153 O177 2.424 . S
Nd153 O178 2.500 . S
Nd153 O179 2.492 . S
Nd153 O180 2.487 . S
Nd153 O181 2.682 . S
Nd153 O182 2.410 . S
C154 Nd152 2.836 . S
C154 C155 1.498 . S
C154 O172 1.258 . S
C154 O173 1.239 . S
C155 C154 1.498 . S
C155 C156 1.366 . S
C155 C160 1.407 . S
C156 C155 1.366 . S
C156 C157 1.392 . S
C156 H184 0.930 . S
C157 C156 1.392 . S
C157 C158 1.398 . S
C157 H185 0.929 . S
C158 C157 1.398 . S
C158 C159 1.352 . S
C159 C158 1.352 . S
C159 C160 1.384 . S
C159 H186 0.930 . S
C160 C155 1.407 . S
C160 C159 1.384 . S
C160 H187 0.929 . S
C161 O174 1.241 . S
C161 O175 1.273 . S
C162 O176 1.251 . S
C162 O177 1.268 . S
C163 Nd153 2.836 . S
C163 C164 1.498 . S
C163 O178 1.258 . S
C163 O179 1.239 . S
C164 C163 1.498 . S
C164 C165 1.366 . S
C164 C169 1.407 . S
C165 C164 1.366 . S
C165 C166 1.392 . S
C165 H188 0.930 . S
C166 C165 1.392 . S
C166 C167 1.398 . S
C166 H189 0.929 . S
C167 C166 1.398 . S
C167 C168 1.352 . S
C168 C167 1.352 . S
C168 C169 1.384 . S
C168 H190 0.930 . S
C169 C164 1.407 . S
C169 C168 1.384 . S
C169 H191 0.929 . S
C170 O180 1.241 . S
C170 O181 1.273 . S
C171 O182 1.251 . S
C171 O183 1.268 . S
O172 Nd152 2.500 . S
O172 C154 1.258 . S
O173 Nd152 2.492 . S
O173 C154 1.239 . S
O174 Nd152 2.487 . S
O174 C161 1.241 . S
O175 Nd152 2.682 . S
O175 Nd153 2.414 . S
O175 C161 1.273 . S
O176 Nd152 2.410 . S
O176 C162 1.251 . S
O177 Nd153 2.424 . S
O177 C162 1.268 . S
O178 Nd153 2.500 . S
O178 C163 1.258 . S
O179 Nd153 2.492 . S
O179 C163 1.239 . S
O180 Nd153 2.487 . S
O180 C170 1.241 . S
O181 Nd152 2.414 . S
O181 Nd153 2.682 . S
O181 C170 1.273 . S
O182 Nd153 2.410 . S
O182 C171 1.251 . S
O183 Nd152 2.424 . S
O183 C171 1.268 . S
H184 C156 0.930 . S
H185 C157 0.929 . S
H186 C159 0.930 . S
H187 C160 0.929 . S
H188 C165 0.930 . S
H189 C166 0.929 . S
H190 C168 0.930 . S
H191 C169 0.929 . S
Nd192 C194 2.836 . S
Nd192 O212 2.500 . S
Nd192 O213 2.492 . S
Nd192 O214 2.487 1_655 S
Nd192 O215 2.682 1_655 S
Nd192 O216 2.410 . S
Nd192 O221 2.414 1_554 S
Nd192 O223 2.424 1_655 S
Nd193 C203 2.836 . S
Nd193 O215 2.414 1_556 S
Nd193 O217 2.424 1_455 S
Nd193 O218 2.500 . S
Nd193 O219 2.492 . S
Nd193 O220 2.487 1_455 S
Nd193 O221 2.682 1_455 S
Nd193 O222 2.410 . S
C194 Nd192 2.836 . S
C194 C195 1.498 . S
C194 O212 1.258 . S
C194 O213 1.239 . S
C195 C194 1.498 . S
C195 C196 1.366 . S
C195 C200 1.407 . S
C196 C195 1.366 . S
C196 C197 1.392 . S
C196 H224 0.930 . S
C197 C196 1.392 . S
C197 C198 1.398 . S
C197 H225 0.929 . S
C198 C197 1.398 . S
C198 C199 1.352 . S
C199 C198 1.352 . S
C199 C200 1.384 . S
C199 H226 0.930 . S
C200 C195 1.407 . S
C200 C199 1.384 . S
C200 H227 0.929 . S
C201 O214 1.241 . S
C201 O215 1.273 . S
C202 O216 1.251 1_556 S
C202 O217 1.268 . S
C203 Nd193 2.836 . S
C203 C204 1.498 . S
C203 O218 1.258 . S
C203 O219 1.239 . S
C204 C203 1.498 . S
C204 C205 1.366 . S
C204 C209 1.407 . S
C205 C204 1.366 . S
C205 C206 1.392 . S
C205 H228 0.930 . S
C206 C205 1.392 . S
C206 C207 1.398 . S
C206 H229 0.929 . S
C207 C206 1.398 . S
C207 C208 1.352 . S
C208 C207 1.352 . S
C208 C209 1.384 . S
C208 H230 0.930 . S
C209 C204 1.407 . S
C209 C208 1.384 . S
C209 H231 0.929 . S
C210 O220 1.241 . S
C210 O221 1.273 . S
C211 O222 1.251 1_554 S
C211 O223 1.268 . S
O212 Nd192 2.500 . S
O212 C194 1.258 . S
O213 Nd192 2.492 . S
O213 C194 1.239 . S
O214 Nd192 2.487 1_455 S
O214 C201 1.241 . S
O215 Nd192 2.682 1_455 S
O215 Nd193 2.414 1_554 S
O215 C201 1.273 . S
O216 Nd192 2.410 . S
O216 C202 1.251 1_554 S
O217 Nd193 2.424 1_655 S
O217 C202 1.268 . S
O218 Nd193 2.500 . S
O218 C203 1.258 . S
O219 Nd193 2.492 . S
O219 C203 1.239 . S
O220 Nd193 2.487 1_655 S
O220 C210 1.241 . S
O221 Nd192 2.414 1_556 S
O221 Nd193 2.682 1_655 S
O221 C210 1.273 . S
O222 Nd193 2.410 . S
O222 C211 1.251 1_556 S
O223 Nd192 2.424 1_455 S
O223 C211 1.268 . S
H224 C196 0.930 . S
H225 C197 0.929 . S
H226 C199 0.930 . S
H227 C200 0.929 . S
H228 C205 0.930 . S
H229 C206 0.929 . S
H230 C208 0.930 . S
H231 C209 0.929 . S
H232 C250 0.951 . S
H233 C252 0.951 . S
H234 C254 0.950 . S
H235 C255 0.950 . S
H236 C257 0.950 . S
H237 C260 0.950 . S
H238 C261 0.950 . S
H239 C263 0.950 . S
H240 C264 0.950 . S
H241 C265 0.951 . S
H242 C267 0.951 . S
H243 C269 0.950 . S
H244 C270 0.950 . S
H245 C272 0.950 . S
H246 C275 0.950 . S
H247 C276 0.976 . S
H248 C278 0.950 . S
H249 C279 0.950 . S
C250 H232 0.951 . S
C250 C251 1.366 . S
C250 C252 1.388 . S
C251 C250 1.366 . S
C251 C255 1.385 . S
C252 H233 0.951 . S
C252 C250 1.388 . S
C252 C253 1.366 . S
C253 C252 1.366 . S
C253 C254 1.414 . S
C253 C256 1.499 . S
C254 H234 0.950 . S
C254 C253 1.414 . S
C254 C255 1.374 . S
C255 H235 0.950 . S
C255 C251 1.385 . S
C255 C254 1.374 . S
C256 C253 1.499 . S
C256 C257 1.373 . S
C256 C258 1.389 . S
C257 H236 0.950 . S
C257 C256 1.373 . S
C257 C273 1.377 . S
C258 C256 1.389 . S
C258 C259 1.524 . S
C258 C272 1.377 . S
C259 C258 1.524 . S
C259 C260 1.397 . S
C259 C264 1.363 . S
C260 H237 0.950 . S
C260 C259 1.397 . S
C260 C261 1.334 . S
C261 H238 0.950 . S
C261 C260 1.334 . S
C261 C262 1.287 . S
C262 C261 1.287 . S
C262 C263 1.524 . S
C262 H281 0.913 . S
C263 H239 0.950 . S
C263 C262 1.524 . S
C263 C264 1.415 . S
C264 H240 0.950 . S
C264 C259 1.363 . S
C264 C263 1.415 . S
C265 H241 0.951 . S
C265 C266 1.366 . S
C265 C267 1.388 . S
C266 C265 1.366 . S
C266 C270 1.385 . S
C267 H242 0.951 . S
C267 C265 1.388 . S
C267 C268 1.366 . S
C268 C267 1.366 . S
C268 C269 1.414 . S
C268 C271 1.499 . S
C269 H243 0.950 . S
C269 C268 1.414 . S
C269 C270 1.374 . S
C270 H244 0.950 . S
C270 C266 1.385 . S
C270 C269 1.374 . S
C271 C268 1.499 . S
C271 C272 1.373 . S
C271 C273 1.389 . S
C272 H245 0.950 . S
C272 C258 1.377 . S
C272 C271 1.373 . S
C273 C257 1.377 . S
C273 C271 1.389 . S
C273 C274 1.524 . S
C274 C273 1.524 . S
C274 C275 1.397 . S
C274 C279 1.363 . S
C275 H246 0.950 . S
C275 C274 1.397 . S
C275 C276 1.305 1_545 S
C276 H247 0.976 . S
C276 C275 1.305 1_565 S
C276 C277 1.290 . S
C277 C276 1.290 . S
C277 C278 1.524 1_565 S
C277 H280 0.999 . S
C278 H248 0.950 . S
C278 C277 1.524 1_545 S
C278 C279 1.415 . S
C279 H249 0.950 . S
C279 C274 1.363 . S
C279 C278 1.415 . S
H280 C277 0.999 . S
H281 C262 0.913 . S
H282 C300 0.951 . S
H283 C302 0.951 . S
H284 C304 0.950 . S
H285 C305 0.950 . S
H286 C307 0.950 . S
H287 C310 0.950 . S
H288 C311 0.950 . S
H289 C313 0.950 . S
H290 C314 0.950 . S
H291 C315 0.951 . S
H292 C317 0.951 . S
H293 C319 0.950 . S
H294 C320 0.950 . S
H295 C322 0.950 . S
H296 C325 0.950 . S
H297 C326 0.950 . S
H298 C328 0.950 . S
H299 C329 0.950 . S
C300 H282 0.951 . S
C300 C301 1.366 . S
C300 C302 1.388 . S
C301 C300 1.366 . S
C301 C305 1.385 . S
C302 H283 0.951 . S
C302 C300 1.388 . S
C302 C303 1.366 . S
C303 C302 1.366 . S
C303 C304 1.414 . S
C303 C306 1.499 . S
C304 H284 0.950 . S
C304 C303 1.414 . S
C304 C305 1.374 . S
C305 H285 0.950 . S
C305 C301 1.385 . S
C305 C304 1.374 . S
C306 C303 1.499 . S
C306 C307 1.373 . S
C306 C308 1.389 . S
C307 H286 0.950 . S
C307 C306 1.373 . S
C307 C323 1.377 . S
C308 C306 1.389 . S
C308 C309 1.524 . S
C308 C322 1.377 . S
C309 C308 1.524 . S
C309 C310 1.397 . S
C309 C314 1.363 . S
C310 H287 0.950 . S
C310 C309 1.397 . S
C310 C311 1.334 . S
C311 H288 0.950 . S
C311 C310 1.334 . S
C311 C312 1.287 . S
C312 C311 1.287 . S
C312 C313 1.524 . S
C312 H331 0.913 . S
C313 H289 0.950 . S
C313 C312 1.524 . S
C313 C314 1.415 . S
C314 H290 0.950 . S
C314 C309 1.363 . S
C314 C313 1.415 . S
C315 H291 0.951 . S
C315 C316 1.366 . S
C315 C317 1.388 . S
C316 C315 1.366 . S
C316 C320 1.385 . S
C317 H292 0.951 . S
C317 C315 1.388 . S
C317 C318 1.366 . S
C318 C317 1.366 . S
C318 C319 1.414 . S
C318 C321 1.499 . S
C319 H293 0.950 . S
C319 C318 1.414 . S
C319 C320 1.374 . S
C320 H294 0.950 . S
C320 C316 1.385 . S
C320 C319 1.374 . S
C321 C318 1.499 . S
C321 C322 1.373 . S
C321 C323 1.389 . S
C322 H295 0.950 . S
C322 C308 1.377 . S
C322 C321 1.373 . S
C323 C307 1.377 . S
C323 C321 1.389 . S
C323 C324 1.524 . S
C324 C323 1.524 . S
C324 C325 1.397 . S
C324 C329 1.363 . S
C325 H296 0.950 . S
C325 C324 1.397 . S
C325 C326 1.334 . S
C326 H297 0.950 . S
C326 C325 1.334 . S
C326 C327 1.287 . S
C327 C326 1.287 . S
C327 C328 1.524 . S
C327 H330 0.999 . S
C328 H298 0.950 . S
C328 C327 1.524 . S
C328 C329 1.415 . S
C329 H299 0.950 . S
C329 C324 1.363 . S
C329 C328 1.415 . S
H330 C327 0.999 . S
H331 C312 0.913 . S
H332 C350 0.951 . S
H333 C352 0.951 . S
H334 C354 0.950 . S
H335 C355 0.950 . S
H336 C357 0.950 . S
H337 C360 0.950 . S
H338 C361 0.950 . S
H339 C363 0.950 . S
H340 C364 0.950 . S
H341 C365 0.951 . S
H342 C367 0.951 . S
H343 C369 0.950 . S
H344 C370 0.950 . S
H345 C372 0.950 . S
H346 C375 0.950 . S
H347 C376 0.950 . S
H348 C378 0.950 . S
H349 C379 0.950 . S
C350 H332 0.951 . S
C350 C351 1.366 . S
C350 C352 1.388 . S
C351 C350 1.366 . S
C351 C355 1.385 . S
C352 H333 0.951 . S
C352 C350 1.388 . S
C352 C353 1.366 . S
C353 C352 1.366 . S
C353 C354 1.414 . S
C353 C356 1.499 . S
C354 H334 0.950 . S
C354 C353 1.414 . S
C354 C355 1.374 . S
C355 H335 0.950 . S
C355 C351 1.385 . S
C355 C354 1.374 . S
C356 C353 1.499 . S
C356 C357 1.373 . S
C356 C358 1.389 . S
C357 H336 0.950 . S
C357 C356 1.373 . S
C357 C373 1.377 . S
C358 C356 1.389 . S
C358 C359 1.524 . S
C358 C372 1.377 . S
C359 C358 1.524 . S
C359 C360 1.397 . S
C359 C364 1.363 . S
C360 H337 0.950 . S
C360 C359 1.397 . S
C360 C361 1.334 . S
C361 H338 0.950 . S
C361 C360 1.334 . S
C361 C362 1.287 . S
C362 C361 1.287 . S
C362 C363 1.524 . S
C362 H381 0.913 . S
C363 H339 0.950 . S
C363 C362 1.524 . S
C363 C364 1.415 . S
C364 H340 0.950 . S
C364 C359 1.363 . S
C364 C363 1.415 . S
C365 H341 0.951 . S
C365 C366 1.366 . S
C365 C367 1.388 . S
C366 C365 1.366 . S
C366 C370 1.385 . S
C367 H342 0.951 . S
C367 C365 1.388 . S
C367 C368 1.366 . S
C368 C367 1.366 . S
C368 C369 1.414 . S
C368 C371 1.499 . S
C369 H343 0.950 . S
C369 C368 1.414 . S
C369 C370 1.374 . S
C370 H344 0.950 . S
C370 C366 1.385 . S
C370 C369 1.374 . S
C371 C368 1.499 . S
C371 C372 1.373 . S
C371 C373 1.389 . S
C372 H345 0.950 . S
C372 C358 1.377 . S
C372 C371 1.373 . S
C373 C357 1.377 . S
C373 C371 1.389 . S
C373 C374 1.524 . S
C374 C373 1.524 . S
C374 C375 1.397 . S
C374 C379 1.363 . S
C375 H346 0.950 . S
C375 C374 1.397 . S
C375 C376 1.334 . S
C376 H347 0.950 . S
C376 C375 1.334 . S
C376 C377 1.287 . S
C377 C376 1.287 . S
C377 C378 1.524 . S
C377 H380 0.999 . S
C378 H348 0.950 . S
C378 C377 1.524 . S
C378 C379 1.415 . S
C379 H349 0.950 . S
C379 C374 1.363 . S
C379 C378 1.415 . S
H380 C377 0.999 . S
H381 C362 0.913 . S
H382 C400 0.951 . S
H383 C402 0.951 . S
H384 C404 0.950 . S
H385 C405 0.950 . S
H386 C407 0.950 . S
H387 C410 0.950 . S
H388 C411 0.950 . S
H389 C413 0.950 . S
H390 C414 0.950 . S
H391 C415 0.951 . S
H392 C417 0.951 . S
H393 C419 0.950 . S
H394 C420 0.950 . S
H395 C422 0.950 . S
H396 C425 0.950 . S
H397 C426 0.950 . S
H398 C428 0.950 . S
H399 C429 0.950 . S
C400 H382 0.951 . S
C400 C401 1.366 . S
C400 C402 1.388 . S
C401 C400 1.366 . S
C401 C405 1.385 . S
C402 H383 0.951 . S
C402 C400 1.388 . S
C402 C403 1.366 . S
C403 C402 1.366 . S
C403 C404 1.414 . S
C403 C406 1.499 . S
C404 H384 0.950 . S
C404 C403 1.414 . S
C404 C405 1.374 . S
C405 H385 0.950 . S
C405 C401 1.385 . S
C405 C404 1.374 . S
C406 C403 1.499 . S
C406 C407 1.373 . S
C406 C408 1.389 . S
C407 H386 0.950 . S
C407 C406 1.373 . S
C407 C423 1.377 . S
C408 C406 1.389 . S
C408 C409 1.524 . S
C408 C422 1.377 . S
C409 C408 1.524 . S
C409 C410 1.397 . S
C409 C414 1.363 . S
C410 H387 0.950 . S
C410 C409 1.397 . S
C410 C411 1.334 . S
C411 H388 0.950 . S
C411 C410 1.334 . S
C411 C412 1.287 . S
C412 C411 1.287 . S
C412 C413 1.524 . S
C412 H431 0.913 . S
C413 H389 0.950 . S
C413 C412 1.524 . S
C413 C414 1.415 . S
C414 H390 0.950 . S
C414 C409 1.363 . S
C414 C413 1.415 . S
C415 H391 0.951 . S
C415 C416 1.366 . S
C415 C417 1.388 . S
C416 C415 1.366 . S
C416 C420 1.385 . S
C417 H392 0.951 . S
C417 C415 1.388 . S
C417 C418 1.366 . S
C418 C417 1.366 . S
C418 C419 1.414 . S
C418 C421 1.499 . S
C419 H393 0.950 . S
C419 C418 1.414 . S
C419 C420 1.374 . S
C420 H394 0.950 . S
C420 C416 1.385 . S
C420 C419 1.374 . S
C421 C418 1.499 . S
C421 C422 1.373 . S
C421 C423 1.389 . S
C422 H395 0.950 . S
C422 C408 1.377 . S
C422 C421 1.373 . S
C423 C407 1.377 . S
C423 C421 1.389 . S
C423 C424 1.524 . S
C424 C423 1.524 . S
C424 C425 1.397 . S
C424 C429 1.363 . S
C425 H396 0.950 . S
C425 C424 1.397 . S
C425 C426 1.334 . S
C426 H397 0.950 . S
C426 C425 1.334 . S
C426 C427 1.287 . S
C427 C426 1.287 . S
C427 C428 1.524 . S
C427 H430 0.999 . S
C428 H398 0.950 . S
C428 C427 1.524 . S
C428 C429 1.415 . S
C429 H399 0.950 . S
C429 C424 1.363 . S
C429 C428 1.415 . S
H430 C427 0.999 . S
H431 C412 0.913 . S
H432 C450 0.951 . S
H433 C452 0.951 . S
H434 C454 0.950 . S
H435 C455 0.950 . S
H436 C457 0.950 . S
H437 C460 0.950 . S
H438 C461 0.950 . S
H439 C463 0.950 . S
H440 C464 0.950 . S
H441 C465 0.951 . S
H442 C467 0.951 . S
H443 C469 0.950 . S
H444 C470 0.950 . S
H445 C472 0.950 . S
H446 C475 0.950 . S
H447 C476 0.950 . S
H448 C478 0.950 . S
H449 C479 0.969 . S
C450 H432 0.951 . S
C450 C451 1.366 . S
C450 C452 1.388 . S
C451 C450 1.366 . S
C451 C455 1.385 . S
C452 H433 0.951 . S
C452 C450 1.388 . S
C452 C453 1.366 . S
C453 C452 1.366 . S
C453 C454 1.414 . S
C453 C456 1.499 . S
C454 H434 0.950 . S
C454 C453 1.414 . S
C454 C455 1.374 . S
C455 H435 0.950 . S
C455 C451 1.385 . S
C455 C454 1.374 . S
C456 C453 1.499 . S
C456 C457 1.373 . S
C456 C458 1.389 . S
C457 H436 0.950 . S
C457 C456 1.373 . S
C457 C473 1.377 . S
C458 C456 1.389 . S
C458 C459 1.524 . S
C458 C472 1.377 . S
C459 C458 1.524 . S
C459 C460 1.397 . S
C459 C464 1.363 . S
C460 H437 0.950 . S
C460 C459 1.397 . S
C460 C461 1.334 . S
C461 H438 0.950 . S
C461 C460 1.334 . S
C461 C462 1.287 . S
C462 C461 1.287 . S
C462 C463 1.524 . S
C462 H481 0.913 . S
C463 H439 0.950 . S
C463 C462 1.524 . S
C463 C464 1.415 . S
C464 H440 0.950 . S
C464 C459 1.363 . S
C464 C463 1.415 . S
C465 H441 0.951 . S
C465 C466 1.366 . S
C465 C467 1.388 . S
C466 C465 1.366 . S
C466 C470 1.385 . S
C467 H442 0.951 . S
C467 C465 1.388 . S
C467 C468 1.366 . S
C468 C467 1.366 . S
C468 C469 1.414 . S
C468 C471 1.499 . S
C469 H443 0.950 . S
C469 C468 1.414 . S
C469 C470 1.374 . S
C470 H444 0.950 . S
C470 C466 1.385 . S
C470 C469 1.374 . S
C471 C468 1.499 . S
C471 C472 1.373 . S
C471 C473 1.389 . S
C472 H445 0.950 . S
C472 C458 1.377 . S
C472 C471 1.373 . S
C473 C457 1.377 . S
C473 C471 1.389 . S
C473 C474 1.542 . S
C474 C473 1.542 . S
C474 C475 1.387 1_554 S
C474 C479 1.355 1_554 S
C475 H446 0.950 . S
C475 C474 1.387 1_556 S
C475 C476 1.334 . S
C476 H447 0.950 . S
C476 C475 1.334 . S
C476 C477 1.287 . S
C477 C476 1.287 . S
C477 C478 1.524 . S
C477 H480 0.999 . S
C478 H448 0.950 . S
C478 C477 1.524 . S
C478 C479 1.415 . S
C479 H449 0.969 . S
C479 C474 1.355 1_556 S
C479 C478 1.415 . S
H480 C477 0.999 . S
H481 C462 0.913 . S
H482 C500 0.951 . S
H483 C502 0.951 . S
H484 C504 0.950 . S
H485 C505 0.950 . S
H486 C507 0.950 . S
H487 C510 0.950 . S
H488 C511 0.950 . S
H489 C513 0.950 . S
H490 C514 0.950 . S
H491 C515 0.951 . S
H492 C517 0.951 . S
H493 C519 0.950 . S
H494 C520 0.950 . S
H495 C522 0.950 . S
H496 C525 0.950 . S
H497 C526 0.950 . S
H498 C528 0.950 . S
H499 C529 0.950 . S
C500 H482 0.951 . S
C500 C501 1.366 . S
C500 C502 1.388 . S
C501 C500 1.366 . S
C501 C505 1.385 . S
C502 H483 0.951 . S
C502 C500 1.388 . S
C502 C503 1.366 . S
C503 C502 1.366 . S
C503 C504 1.414 . S
C503 C506 1.499 . S
C504 H484 0.950 . S
C504 C503 1.414 . S
C504 C505 1.374 . S
C505 H485 0.950 . S
C505 C501 1.385 . S
C505 C504 1.374 . S
C506 C503 1.499 . S
C506 C507 1.373 . S
C506 C508 1.389 . S
C507 H486 0.950 . S
C507 C506 1.373 . S
C507 C523 1.377 . S
C508 C506 1.389 . S
C508 C509 1.524 . S
C508 C522 1.377 . S
C509 C508 1.524 . S
C509 C510 1.397 . S
C509 C514 1.363 . S
C510 H487 0.950 . S
C510 C509 1.397 . S
C510 C511 1.334 . S
C511 H488 0.950 . S
C511 C510 1.334 . S
C511 C512 1.287 . S
C512 C511 1.287 . S
C512 C513 1.524 . S
C512 H531 0.913 . S
C513 H489 0.950 . S
C513 C512 1.524 . S
C513 C514 1.415 . S
C514 H490 0.950 . S
C514 C509 1.363 . S
C514 C513 1.415 . S
C515 H491 0.951 . S
C515 C516 1.366 . S
C515 C517 1.388 . S
C516 C515 1.366 . S
C516 C520 1.385 . S
C517 H492 0.951 . S
C517 C515 1.388 . S
C517 C518 1.366 . S
C518 C517 1.366 . S
C518 C519 1.414 . S
C518 C521 1.499 . S
C519 H493 0.950 . S
C519 C518 1.414 . S
C519 C520 1.374 . S
C520 H494 0.950 . S
C520 C516 1.385 . S
C520 C519 1.374 . S
C521 C518 1.499 . S
C521 C522 1.373 . S
C521 C523 1.389 . S
C522 H495 0.950 . S
C522 C508 1.377 . S
C522 C521 1.373 . S
C523 C507 1.377 . S
C523 C521 1.389 . S
C523 C524 1.524 . S
C524 C523 1.524 . S
C524 C525 1.397 . S
C524 C529 1.363 . S
C525 H496 0.950 . S
C525 C524 1.397 . S
C525 C526 1.334 . S
C526 H497 0.950 . S
C526 C525 1.334 . S
C526 C527 1.287 . S
C527 C526 1.287 . S
C527 C528 1.524 . S
C527 H530 0.999 . S
C528 H498 0.950 . S
C528 C527 1.524 . S
C528 C529 1.415 . S
C529 H499 0.950 . S
C529 C524 1.363 . S
C529 C528 1.415 . S
H530 C527 0.999 . S
H531 C512 0.913 . S
H532 C550 0.951 . S
H533 C552 0.951 . S
H534 C554 0.950 . S
H535 C555 0.950 . S
H536 C557 0.950 . S
H537 C560 0.950 . S
H538 C561 0.950 . S
H539 C563 0.950 . S
H540 C564 0.950 . S
H541 C565 0.951 . S
H542 C567 0.951 . S
H543 C569 0.950 . S
H544 C570 0.950 . S
H545 C572 0.950 . S
H546 C575 0.950 . S
H547 C576 0.950 . S
H548 C578 0.950 . S
H549 C579 0.950 . S
C550 H532 0.951 . S
C550 C551 1.366 . S
C550 C552 1.388 . S
C551 C550 1.366 . S
C551 C555 1.385 . S
C552 H533 0.951 . S
C552 C550 1.388 . S
C552 C553 1.366 . S
C553 C552 1.366 . S
C553 C554 1.414 . S
C553 C556 1.499 . S
C554 H534 0.950 . S
C554 C553 1.414 . S
C554 C555 1.374 . S
C555 H535 0.950 . S
C555 C551 1.385 . S
C555 C554 1.374 . S
C556 C553 1.499 . S
C556 C557 1.373 . S
C556 C558 1.389 . S
C557 H536 0.950 . S
C557 C556 1.373 . S
C557 C573 1.377 . S
C558 C556 1.389 . S
C558 C559 1.524 . S
C558 C572 1.377 . S
C559 C558 1.524 . S
C559 C560 1.397 . S
C559 C564 1.363 . S
C560 H537 0.950 . S
C560 C559 1.397 . S
C560 C561 1.334 . S
C561 H538 0.950 . S
C561 C560 1.334 . S
C561 C562 1.287 . S
C562 C561 1.287 . S
C562 C563 1.524 . S
C562 H581 0.913 . S
C563 H539 0.950 . S
C563 C562 1.524 . S
C563 C564 1.415 . S
C564 H540 0.950 . S
C564 C559 1.363 . S
C564 C563 1.415 . S
C565 H541 0.951 . S
C565 C566 1.366 . S
C565 C567 1.388 . S
C566 C565 1.366 . S
C566 C570 1.385 . S
C567 H542 0.951 . S
C567 C565 1.388 . S
C567 C568 1.366 . S
C568 C567 1.366 . S
C568 C569 1.414 . S
C568 C571 1.499 . S
C569 H543 0.950 . S
C569 C568 1.414 . S
C569 C570 1.374 . S
C570 H544 0.950 . S
C570 C566 1.385 . S
C570 C569 1.374 . S
C571 C568 1.499 . S
C571 C572 1.373 . S
C571 C573 1.389 . S
C572 H545 0.950 . S
C572 C558 1.377 . S
C572 C571 1.373 . S
C573 C557 1.377 . S
C573 C571 1.389 . S
C573 C574 1.524 . S
C574 C573 1.524 . S
C574 C575 1.397 . S
C574 C579 1.363 . S
C575 H546 0.950 . S
C575 C574 1.397 . S
C575 C576 1.334 1_556 S
C576 H547 0.950 . S
C576 C575 1.334 1_554 S
C576 C577 1.287 1_554 S
C577 C576 1.287 1_556 S
C577 C578 1.524 . S
C577 H580 0.999 1_556 S
C578 H548 0.950 . S
C578 C577 1.524 . S
C578 C579 1.415 . S
C579 H549 0.950 . S
C579 C574 1.363 . S
C579 C578 1.415 . S
H580 C577 0.999 1_554 S
H581 C562 0.913 . S
H582 C600 0.951 . S
H583 C602 0.951 . S
H584 C604 0.950 . S
H585 C605 0.950 . S
H586 C607 0.950 . S
H587 C610 0.950 . S
H588 C611 0.950 . S
H589 C613 0.950 . S
H590 C614 0.950 . S
H591 C615 0.951 . S
H592 C617 0.951 . S
H593 C619 0.950 . S
H594 C620 0.950 . S
H595 C622 0.950 . S
H596 C625 0.950 . S
H597 C626 0.950 . S
H598 C628 0.950 . S
H599 C629 0.950 . S
C600 H582 0.951 . S
C600 C601 1.366 . S
C600 C602 1.388 . S
C601 C600 1.366 . S
C601 C605 1.385 . S
C602 H583 0.951 . S
C602 C600 1.388 . S
C602 C603 1.366 . S
C603 C602 1.366 . S
C603 C604 1.414 . S
C603 C606 1.499 . S
C604 H584 0.950 . S
C604 C603 1.414 . S
C604 C605 1.374 . S
C605 H585 0.950 . S
C605 C601 1.385 . S
C605 C604 1.374 . S
C606 C603 1.499 . S
C606 C607 1.373 . S
C606 C608 1.389 . S
C607 H586 0.950 . S
C607 C606 1.373 . S
C607 C623 1.377 . S
C608 C606 1.389 . S
C608 C609 1.524 . S
C608 C622 1.377 . S
C609 C608 1.524 . S
C609 C610 1.397 . S
C609 C614 1.363 . S
C610 H587 0.950 . S
C610 C609 1.397 . S
C610 C611 1.334 . S
C611 H588 0.950 . S
C611 C610 1.334 . S
C611 C612 1.287 . S
C612 C611 1.287 . S
C612 C613 1.524 . S
C612 H631 0.913 . S
C613 H589 0.950 . S
C613 C612 1.524 . S
C613 C614 1.415 . S
C614 H590 0.950 . S
C614 C609 1.363 . S
C614 C613 1.415 . S
C615 H591 0.951 . S
C615 C616 1.366 . S
C615 C617 1.388 . S
C616 C615 1.366 . S
C616 C620 1.385 . S
C617 H592 0.951 . S
C617 C615 1.388 . S
C617 C618 1.366 . S
C618 C617 1.366 . S
C618 C619 1.414 . S
C618 C621 1.499 . S
C619 H593 0.950 . S
C619 C618 1.414 . S
C619 C620 1.374 . S
C620 H594 0.950 . S
C620 C616 1.385 . S
C620 C619 1.374 . S
C621 C618 1.499 . S
C621 C622 1.373 . S
C621 C623 1.389 . S
C622 H595 0.950 . S
C622 C608 1.377 . S
C622 C621 1.373 . S
C623 C607 1.377 . S
C623 C621 1.389 . S
C623 C624 1.524 . S
C624 C623 1.524 . S
C624 C625 1.397 . S
C624 C629 1.363 . S
C625 H596 0.950 . S
C625 C624 1.397 . S
C625 C626 1.334 . S
C626 H597 0.950 . S
C626 C625 1.334 . S
C626 C627 1.287 . S
C627 C626 1.287 . S
C627 C628 1.524 . S
C627 H630 0.999 . S
C628 H598 0.950 . S
C628 C627 1.524 . S
C628 C629 1.415 . S
C629 H599 0.950 . S
C629 C624 1.363 . S
C629 C628 1.415 . S
H630 C627 0.999 . S
H631 C612 0.913 . S
H632 C650 0.951 . S
H633 C652 0.951 . S
H634 C654 0.950 . S
H635 C655 0.950 . S
H636 C657 0.950 . S
H637 C660 0.950 . S
H638 C661 0.950 . S
H639 C663 0.950 . S
H640 C664 0.950 . S
H641 C665 0.951 . S
H642 C667 0.951 . S
H643 C669 0.950 . S
H644 C670 0.950 . S
H645 C672 0.950 . S
H646 C675 0.950 . S
H647 C676 0.950 . S
H648 C678 0.950 . S
H649 C679 0.950 . S
C650 H632 0.951 . S
C650 C651 1.366 . S
C650 C652 1.388 . S
C651 C650 1.366 . S
C651 C655 1.385 . S
C652 H633 0.951 . S
C652 C650 1.388 . S
C652 C653 1.366 . S
C653 C652 1.366 . S
C653 C654 1.414 . S
C653 C656 1.499 . S
C654 H634 0.950 . S
C654 C653 1.414 . S
C654 C655 1.374 . S
C655 H635 0.950 . S
C655 C651 1.385 . S
C655 C654 1.374 . S
C656 C653 1.499 . S
C656 C657 1.373 . S
C656 C658 1.389 . S
C657 H636 0.950 . S
C657 C656 1.373 . S
C657 C673 1.377 . S
C658 C656 1.389 . S
C658 C659 1.524 . S
C658 C672 1.377 . S
C659 C658 1.524 . S
C659 C660 1.397 . S
C659 C664 1.363 . S
C660 H637 0.950 . S
C660 C659 1.397 . S
C660 C661 1.334 1_554 S
C661 H638 0.950 . S
C661 C660 1.334 1_556 S
C661 C662 1.287 . S
C662 C661 1.287 . S
C662 C663 1.524 1_556 S
C662 H681 0.913 . S
C663 H639 0.950 . S
C663 C662 1.524 1_554 S
C663 C664 1.415 . S
C664 H640 0.950 . S
C664 C659 1.363 . S
C664 C663 1.415 . S
C665 H641 0.951 . S
C665 C666 1.366 . S
C665 C667 1.388 . S
C666 C665 1.366 . S
C666 C670 1.385 . S
C667 H642 0.951 . S
C667 C665 1.388 . S
C667 C668 1.366 . S
C668 C667 1.366 . S
C668 C669 1.414 . S
C668 C671 1.499 . S
C669 H643 0.950 . S
C669 C668 1.414 . S
C669 C670 1.374 . S
C670 H644 0.950 . S
C670 C666 1.385 . S
C670 C669 1.374 . S
C671 C668 1.499 . S
C671 C672 1.373 . S
C671 C673 1.389 . S
C672 H645 0.950 . S
C672 C658 1.377 . S
C672 C671 1.373 . S
C673 C657 1.377 . S
C673 C671 1.389 . S
C673 C674 1.524 . S
C674 C673 1.524 . S
C674 C675 1.397 . S
C674 C679 1.363 . S
C675 H646 0.950 . S
C675 C674 1.397 . S
C675 C676 1.334 . S
C676 H647 0.950 . S
C676 C675 1.334 . S
C676 C677 1.287 . S
C677 C676 1.287 . S
C677 C678 1.524 . S
C677 H680 0.999 . S
C678 H648 0.950 . S
C678 C677 1.524 . S
C678 C679 1.415 . S
C679 H649 0.950 . S
C679 C674 1.363 . S
C679 C678 1.415 . S
H680 C677 0.999 . S
H681 C662 0.913 . S
H682 C700 0.951 . S
H683 C702 0.951 . S
H684 C704 0.950 . S
H685 C705 0.950 . S
H686 C707 0.950 . S
H687 C710 0.950 . S
H688 C711 0.950 . S
H689 C713 0.950 . S
H690 C714 0.950 . S
H691 C715 0.951 . S
H692 C717 0.951 . S
H693 C719 0.950 . S
H694 C720 0.950 . S
H695 C722 0.950 . S
H696 C725 0.950 . S
H697 C726 0.950 . S
H698 C728 0.923 1_554 S
H699 C729 0.950 . S
C700 H682 0.951 . S
C700 C701 1.366 . S
C700 C702 1.388 . S
C701 C700 1.366 . S
C701 C705 1.385 . S
C702 H683 0.951 . S
C702 C700 1.388 . S
C702 C703 1.366 . S
C703 C702 1.366 . S
C703 C704 1.414 . S
C703 C706 1.499 . S
C704 H684 0.950 . S
C704 C703 1.414 . S
C704 C705 1.374 . S
C705 H685 0.950 . S
C705 C701 1.385 . S
C705 C704 1.374 . S
C706 C703 1.499 . S
C706 C707 1.373 . S
C706 C708 1.389 . S
C707 H686 0.950 . S
C707 C706 1.373 . S
C707 C723 1.377 . S
C708 C706 1.389 . S
C708 C709 1.524 . S
C708 C722 1.377 . S
C709 C708 1.524 . S
C709 C710 1.397 . S
C709 C714 1.363 . S
C710 H687 0.950 . S
C710 C709 1.397 . S
C710 C711 1.334 . S
C711 H688 0.950 . S
C711 C710 1.334 . S
C711 C712 1.287 . S
C712 C711 1.287 . S
C712 C713 1.524 . S
C712 H731 0.913 . S
C713 H689 0.950 . S
C713 C712 1.524 . S
C713 C714 1.415 . S
C714 H690 0.950 . S
C714 C709 1.363 . S
C714 C713 1.415 . S
C715 H691 0.951 . S
C715 C716 1.366 . S
C715 C717 1.388 . S
C716 C715 1.366 . S
C716 C720 1.385 . S
C717 H692 0.951 . S
C717 C715 1.388 . S
C717 C718 1.366 . S
C718 C717 1.366 . S
C718 C719 1.414 . S
C718 C721 1.499 . S
C719 H693 0.950 . S
C719 C718 1.414 . S
C719 C720 1.374 . S
C720 H694 0.950 . S
C720 C716 1.385 . S
C720 C719 1.374 . S
C721 C718 1.499 . S
C721 C722 1.373 . S
C721 C723 1.389 . S
C722 H695 0.950 . S
C722 C708 1.377 . S
C722 C721 1.373 . S
C723 C707 1.377 . S
C723 C721 1.389 . S
C723 C724 1.524 . S
C724 C723 1.524 . S
C724 C725 1.397 . S
C724 C729 1.363 . S
C725 H696 0.950 . S
C725 C724 1.397 . S
C725 C726 1.334 . S
C726 H697 0.950 . S
C726 C725 1.334 . S
C726 C727 1.287 . S
C727 C726 1.287 . S
C727 C728 1.532 . S
C727 H730 0.999 1_556 S
C728 H698 0.923 1_556 S
C728 C727 1.532 . S
C728 C729 1.438 . S
C729 H699 0.950 . S
C729 C724 1.363 . S
C729 C728 1.438 . S
H730 C727 0.999 1_554 S
H731 C712 0.913 . S
H732 C750 0.951 . S
H733 C752 0.951 . S
H734 C754 0.950 . S
H735 C755 0.950 . S
H736 C757 0.950 . S
H737 C760 0.950 . S
H738 C761 0.950 . S
H739 C763 0.954 . S
H740 C764 0.950 . S
H741 C765 0.951 . S
H742 C767 0.951 . S
H743 C769 0.950 . S
H744 C770 0.950 1_455 S
H745 C772 0.950 . S
H746 C775 0.950 . S
H747 C776 0.950 . S
H748 C778 0.950 . S
H749 C779 0.950 . S
C750 H732 0.951 . S
C750 C751 1.366 . S
C750 C752 1.388 . S
C751 C750 1.366 . S
C751 C755 1.385 . S
C752 H733 0.951 . S
C752 C750 1.388 . S
C752 C753 1.366 . S
C753 C752 1.366 . S
C753 C754 1.414 . S
C753 C756 1.499 . S
C754 H734 0.950 . S
C754 C753 1.414 . S
C754 C755 1.374 . S
C755 H735 0.950 . S
C755 C751 1.385 . S
C755 C754 1.374 . S
C756 C753 1.499 . S
C756 C757 1.373 . S
C756 C758 1.389 . S
C757 H736 0.950 . S
C757 C756 1.373 . S
C757 C773 1.377 . S
C758 C756 1.389 . S
C758 C759 1.524 . S
C758 C772 1.377 . S
C759 C758 1.524 . S
C759 C760 1.397 . S
C759 C764 1.363 . S
C760 H737 0.950 . S
C760 C759 1.397 . S
C760 C761 1.334 . S
C761 H738 0.950 . S
C761 C760 1.334 . S
C761 C762 1.287 . S
C762 C761 1.287 . S
C762 C763 1.524 . S
C762 H781 0.913 . S
C763 H739 0.954 . S
C763 C762 1.524 . S
C763 C764 1.415 . S
C764 H740 0.950 . S
C764 C759 1.363 . S
C764 C763 1.415 . S
C765 H741 0.951 . S
C765 C766 1.366 . S
C765 C767 1.388 . S
C766 C765 1.366 . S
C766 C770 1.385 . S
C767 H742 0.951 . S
C767 C765 1.388 . S
C767 C768 1.366 . S
C768 C767 1.366 . S
C768 C769 1.414 . S
C768 C771 1.499 . S
C769 H743 0.950 . S
C769 C768 1.414 . S
C769 C770 1.374 . S
C770 H744 0.950 1_655 S
C770 C766 1.385 . S
C770 C769 1.374 . S
C771 C768 1.499 . S
C771 C772 1.373 . S
C771 C773 1.389 . S
C772 H745 0.950 . S
C772 C758 1.377 . S
C772 C771 1.373 . S
C773 C757 1.377 . S
C773 C771 1.389 . S
C773 C774 1.524 . S
C774 C773 1.524 . S
C774 C775 1.397 . S
C774 C779 1.363 . S
C775 H746 0.950 . S
C775 C774 1.397 . S
C775 C776 1.334 . S
C776 H747 0.950 . S
C776 C775 1.334 . S
C776 C777 1.287 . S
C777 C776 1.287 . S
C777 C778 1.524 . S
C777 H780 0.999 . S
C778 H748 0.950 . S
C778 C777 1.524 . S
C778 C779 1.415 . S
C779 H749 0.950 . S
C779 C774 1.363 . S
C779 C778 1.415 . S
H780 C777 0.999 . S
H781 C762 0.913 . S
H782 C800 0.951 . S
H783 C802 0.951 . S
H784 C804 0.950 . S
H785 C805 0.950 . S
H786 C807 0.950 . S
H787 C810 0.950 . S
H788 C811 0.950 . S
H789 C813 0.950 . S
H790 C814 0.950 . S
H791 C815 0.951 . S
H792 C817 0.951 . S
H793 C819 0.950 . S
H794 C820 0.950 . S
H795 C822 0.950 . S
H796 C825 0.950 . S
H797 C826 0.950 . S
H798 C828 0.950 . S
H799 C829 0.950 . S
C800 H782 0.951 . S
C800 C801 1.366 . S
C800 C802 1.388 . S
C801 C800 1.366 . S
C801 C805 1.385 . S
C802 H783 0.951 . S
C802 C800 1.388 . S
C802 C803 1.366 . S
C803 C802 1.366 . S
C803 C804 1.414 . S
C803 C806 1.499 . S
C804 H784 0.950 . S
C804 C803 1.414 . S
C804 C805 1.374 . S
C805 H785 0.950 . S
C805 C801 1.385 . S
C805 C804 1.374 . S
C806 C803 1.499 . S
C806 C807 1.373 . S
C806 C808 1.389 . S
C807 H786 0.950 . S
C807 C806 1.373 . S
C807 C823 1.377 . S
C808 C806 1.389 . S
C808 C809 1.524 . S
C808 C822 1.377 . S
C809 C808 1.524 . S
C809 C810 1.397 . S
C809 C814 1.363 . S
C810 H787 0.950 . S
C810 C809 1.397 . S
C810 C811 1.334 . S
C811 H788 0.950 . S
C811 C810 1.334 . S
C811 C812 1.287 . S
C812 C811 1.287 . S
C812 C813 1.524 . S
C812 H831 0.913 . S
C813 H789 0.950 . S
C813 C812 1.524 . S
C813 C814 1.415 . S
C814 H790 0.950 . S
C814 C809 1.363 . S
C814 C813 1.415 . S
C815 H791 0.951 . S
C815 C816 1.366 . S
C815 C817 1.388 . S
C816 C815 1.366 . S
C816 C820 1.385 . S
C817 H792 0.951 . S
C817 C815 1.388 . S
C817 C818 1.366 . S
C818 C817 1.366 . S
C818 C819 1.414 . S
C818 C821 1.499 . S
C819 H793 0.950 . S
C819 C818 1.414 . S
C819 C820 1.374 . S
C820 H794 0.950 . S
C820 C816 1.385 . S
C820 C819 1.374 . S
C821 C818 1.499 . S
C821 C822 1.373 . S
C821 C823 1.389 . S
C822 H795 0.950 . S
C822 C808 1.377 . S
C822 C821 1.373 . S
C823 C807 1.377 . S
C823 C821 1.389 . S
C823 C824 1.524 . S
C824 C823 1.524 . S
C824 C825 1.397 . S
C824 C829 1.363 . S
C825 H796 0.950 . S
C825 C824 1.397 . S
C825 C826 1.334 . S
C826 H797 0.950 . S
C826 C825 1.334 . S
C826 C827 1.287 . S
C827 C826 1.287 . S
C827 C828 1.524 . S
C827 H830 0.999 . S
C828 H798 0.950 . S
C828 C827 1.524 . S
C828 C829 1.415 . S
C829 H799 0.950 . S
C829 C824 1.363 . S
C829 C828 1.415 . S
H830 C827 0.999 . S
H831 C812 0.913 . S
H832 C850 0.951 . S
H833 C852 0.951 . S
H834 C854 0.950 . S
H835 C855 0.950 . S
H836 C857 0.950 . S
H837 C860 0.950 . S
H838 C861 0.950 . S
H839 C863 0.950 1_545 S
H840 C864 0.950 . S
H841 C865 0.951 . S
H842 C867 0.951 . S
H843 C869 0.950 . S
H844 C870 0.950 . S
H845 C872 0.950 . S
H846 C875 0.950 . S
H847 C876 0.950 1_455 S
H848 C878 0.950 . S
H849 C879 0.950 . S
C850 H832 0.951 . S
C850 C851 1.366 . S
C850 C852 1.388 . S
C851 C850 1.366 . S
C851 C855 1.385 . S
C852 H833 0.951 . S
C852 C850 1.388 . S
C852 C853 1.366 . S
C853 C852 1.366 . S
C853 C854 1.414 . S
C853 C856 1.499 . S
C854 H834 0.950 . S
C854 C853 1.414 . S
C854 C855 1.374 . S
C855 H835 0.950 . S
C855 C851 1.385 . S
C855 C854 1.374 . S
C856 C853 1.499 . S
C856 C857 1.373 . S
C856 C858 1.389 . S
C857 H836 0.950 . S
C857 C856 1.373 . S
C857 C873 1.377 . S
C858 C856 1.389 . S
C858 C859 1.524 . S
C858 C872 1.377 . S
C859 C858 1.524 . S
C859 C860 1.397 . S
C859 C864 1.363 . S
C860 H837 0.950 . S
C860 C859 1.397 . S
C860 C861 1.334 . S
C861 H838 0.950 . S
C861 C860 1.334 . S
C861 C862 1.287 . S
C862 C861 1.287 . S
C862 C863 1.524 . S
C862 H881 0.913 1_565 S
C863 H839 0.950 1_565 S
C863 C862 1.524 . S
C863 C864 1.415 . S
C864 H840 0.950 . S
C864 C859 1.363 . S
C864 C863 1.415 . S
C865 H841 0.951 . S
C865 C866 1.366 . S
C865 C867 1.388 . S
C866 C865 1.366 . S
C866 C870 1.385 . S
C867 H842 0.951 . S
C867 C865 1.388 . S
C867 C868 1.366 . S
C868 C867 1.366 . S
C868 C869 1.414 . S
C868 C871 1.499 . S
C869 H843 0.950 . S
C869 C868 1.414 . S
C869 C870 1.374 . S
C870 H844 0.950 . S
C870 C866 1.385 . S
C870 C869 1.374 . S
C871 C868 1.499 . S
C871 C872 1.373 . S
C871 C873 1.389 . S
C872 H845 0.950 . S
C872 C858 1.377 . S
C872 C871 1.373 . S
C873 C857 1.377 . S
C873 C871 1.389 . S
C873 C874 1.524 . S
C874 C873 1.524 . S
C874 C875 1.397 . S
C874 C879 1.363 . S
C875 H846 0.950 . S
C875 C874 1.397 . S
C875 C876 1.334 . S
C876 H847 0.950 1_655 S
C876 C875 1.334 . S
C876 C877 1.287 . S
C877 C876 1.287 . S
C877 C878 1.524 . S
C877 H880 0.999 . S
C878 H848 0.950 . S
C878 C877 1.524 . S
C878 C879 1.415 . S
C879 H849 0.950 . S
C879 C874 1.363 . S
C879 C878 1.415 . S
H880 C877 0.999 . S
H881 C862 0.913 1_545 S
H882 C900 0.951 . S
H883 C902 0.951 . S
H884 C904 0.950 . S
H885 C905 0.950 . S
H886 C907 0.950 . S
H887 C910 0.950 . S
H888 C911 0.950 . S
H889 C913 0.950 . S
H890 C914 0.950 . S
H891 C915 0.951 . S
H892 C917 0.951 . S
H893 C919 0.950 . S
H894 C920 0.950 . S
H895 C922 0.950 . S
H896 C925 0.950 . S
H897 C926 0.950 . S
H898 C928 0.950 . S
H899 C929 0.950 . S
C900 H882 0.951 . S
C900 C901 1.366 . S
C900 C902 1.388 . S
C901 C900 1.366 . S
C901 C905 1.385 . S
C902 H883 0.951 . S
C902 C900 1.388 . S
C902 C903 1.366 . S
C903 C902 1.366 . S
C903 C904 1.414 . S
C903 C906 1.499 . S
C904 H884 0.950 . S
C904 C903 1.414 . S
C904 C905 1.374 . S
C905 H885 0.950 . S
C905 C901 1.385 . S
C905 C904 1.374 . S
C906 C903 1.499 . S
C906 C907 1.373 . S
C906 C908 1.389 . S
C907 H886 0.950 . S
C907 C906 1.373 . S
C907 C923 1.377 . S
C908 C906 1.389 . S
C908 C909 1.524 . S
C908 C922 1.377 . S
C909 C908 1.524 . S
C909 C910 1.397 . S
C909 C914 1.363 . S
C910 H887 0.950 . S
C910 C909 1.397 . S
C910 C911 1.334 . S
C911 H888 0.950 . S
C911 C910 1.334 . S
C911 C912 1.287 . S
C912 C911 1.287 . S
C912 C913 1.524 . S
C912 H931 0.913 . S
C913 H889 0.950 . S
C913 C912 1.524 . S
C913 C914 1.415 . S
C914 H890 0.950 . S
C914 C909 1.363 . S
C914 C913 1.415 . S
C915 H891 0.951 . S
C915 C916 1.366 . S
C915 C917 1.388 . S
C916 C915 1.366 . S
C916 C920 1.385 . S
C917 H892 0.951 . S
C917 C915 1.388 . S
C917 C918 1.366 . S
C918 C917 1.366 . S
C918 C919 1.414 . S
C918 C921 1.499 . S
C919 H893 0.950 . S
C919 C918 1.414 . S
C919 C920 1.374 . S
C920 H894 0.950 . S
C920 C916 1.385 . S
C920 C919 1.374 . S
C921 C918 1.499 . S
C921 C922 1.373 . S
C921 C923 1.389 . S
C922 H895 0.950 . S
C922 C908 1.377 . S
C922 C921 1.373 . S
C923 C907 1.377 . S
C923 C921 1.389 . S
C923 C924 1.524 . S
C924 C923 1.524 . S
C924 C925 1.397 . S
C924 C929 1.363 . S
C925 H896 0.950 . S
C925 C924 1.397 . S
C925 C926 1.334 . S
C926 H897 0.950 . S
C926 C925 1.334 . S
C926 C927 1.287 . S
C927 C926 1.287 . S
C927 C928 1.524 . S
C927 H930 0.999 . S
C928 H898 0.950 . S
C928 C927 1.524 . S
C928 C929 1.415 . S
C929 H899 0.950 . S
C929 C924 1.363 . S
C929 C928 1.415 . S
H930 C927 0.999 . S
H931 C912 0.913 . S
H932 C950 0.951 . S
H933 C952 0.951 . S
H934 C954 0.950 . S
H935 C955 0.950 . S
H936 C957 0.950 . S
H937 C960 0.950 . S
H938 C961 0.950 . S
H939 C963 0.950 . S
H940 C964 0.950 . S
H941 C965 0.951 . S
H942 C967 0.951 . S
H943 C969 0.950 . S
H944 C970 0.950 . S
H945 C972 0.950 . S
H946 C975 0.950 . S
H947 C976 0.950 . S
H948 C978 0.950 . S
H949 C979 0.950 . S
C950 H932 0.951 . S
C950 C951 1.366 . S
C950 C952 1.388 . S
C951 C950 1.366 . S
C951 C955 1.385 . S
C952 H933 0.951 . S
C952 C950 1.388 . S
C952 C953 1.366 . S
C953 C952 1.366 . S
C953 C954 1.414 . S
C953 C956 1.499 . S
C954 H934 0.950 . S
C954 C953 1.414 . S
C954 C955 1.374 . S
C955 H935 0.950 . S
C955 C951 1.385 . S
C955 C954 1.374 . S
C956 C953 1.499 . S
C956 C957 1.373 . S
C956 C958 1.389 . S
C957 H936 0.950 . S
C957 C956 1.373 . S
C957 C973 1.377 . S
C958 C956 1.389 . S
C958 C959 1.524 . S
C958 C972 1.377 . S
C959 C958 1.524 . S
C959 C960 1.397 . S
C959 C964 1.363 . S
C960 H937 0.950 . S
C960 C959 1.397 . S
C960 C961 1.334 . S
C961 H938 0.950 . S
C961 C960 1.334 . S
C961 C962 1.287 . S
C962 C961 1.287 . S
C962 C963 1.524 . S
C962 H981 0.913 . S
C963 H939 0.950 . S
C963 C962 1.524 . S
C963 C964 1.415 . S
C964 H940 0.950 . S
C964 C959 1.363 . S
C964 C963 1.415 . S
C965 H941 0.951 . S
C965 C966 1.366 . S
C965 C967 1.388 . S
C966 C965 1.366 . S
C966 C970 1.385 . S
C967 H942 0.951 . S
C967 C965 1.388 . S
C967 C968 1.366 . S
C968 C967 1.366 . S
C968 C969 1.414 . S
C968 C971 1.499 . S
C969 H943 0.950 . S
C969 C968 1.414 . S
C969 C970 1.374 . S
C970 H944 0.950 . S
C970 C966 1.385 . S
C970 C969 1.374 . S
C971 C968 1.499 . S
C971 C972 1.373 . S
C971 C973 1.389 . S
C972 H945 0.950 . S
C972 C958 1.377 . S
C972 C971 1.373 . S
C973 C957 1.377 . S
C973 C971 1.389 . S
C973 C974 1.524 . S
C974 C973 1.524 . S
C974 C975 1.397 . S
C974 C979 1.363 . S
C975 H946 0.950 . S
C975 C974 1.397 . S
C975 C976 1.334 . S
C976 H947 0.950 . S
C976 C975 1.334 . S
C976 C977 1.287 . S
C977 C976 1.287 . S
C977 C978 1.524 . S
C977 H980 0.999 . S
C978 H948 0.950 . S
C978 C977 1.524 . S
C978 C979 1.415 . S
C979 H949 0.950 . S
C979 C974 1.363 . S
C979 C978 1.415 . S
H980 C977 0.999 . S
H981 C962 0.913 . S
H982 C1000 0.951 . S
H983 C1002 0.951 . S
H984 C1004 0.950 . S
H985 C1005 0.950 . S
H986 C1007 0.950 . S
H987 C1010 0.950 . S
H988 C1011 0.950 . S
H989 C1013 0.950 . S
H990 C1014 0.950 . S
H991 C1015 0.951 . S
H992 C1017 0.951 . S
H993 C1019 0.950 . S
H994 C1020 0.950 . S
H995 C1022 0.950 . S
H996 C1025 0.950 . S
H997 C1026 0.950 . S
H998 C1028 0.950 . S
H999 C1029 0.950 . S
C1000 H982 0.951 . S
C1000 C1001 1.366 . S
C1000 C1002 1.388 . S
C1001 C1000 1.366 . S
C1001 C1005 1.385 . S
C1002 H983 0.951 . S
C1002 C1000 1.388 . S
C1002 C1003 1.366 . S
C1003 C1002 1.366 . S
C1003 C1004 1.414 . S
C1003 C1006 1.499 . S
C1004 H984 0.950 . S
C1004 C1003 1.414 . S
C1004 C1005 1.374 . S
C1005 H985 0.950 . S
C1005 C1001 1.385 . S
C1005 C1004 1.374 . S
C1006 C1003 1.499 . S
C1006 C1007 1.373 . S
C1006 C1008 1.389 . S
C1007 H986 0.950 . S
C1007 C1006 1.373 . S
C1007 C1023 1.377 . S
C1008 C1006 1.389 . S
C1008 C1009 1.524 . S
C1008 C1022 1.377 . S
C1009 C1008 1.524 . S
C1009 C1010 1.397 . S
C1009 C1014 1.363 . S
C1010 H987 0.950 . S
C1010 C1009 1.397 . S
C1010 C1011 1.334 . S
C1011 H988 0.950 . S
C1011 C1010 1.334 . S
C1011 C1012 1.287 . S
C1012 C1011 1.287 . S
C1012 C1013 1.524 . S
C1012 H1031 0.913 . S
C1013 H989 0.950 . S
C1013 C1012 1.524 . S
C1013 C1014 1.415 . S
C1014 H990 0.950 . S
C1014 C1009 1.363 . S
C1014 C1013 1.415 . S
C1015 H991 0.951 . S
C1015 C1016 1.366 . S
C1015 C1017 1.388 . S
C1016 C1015 1.366 . S
C1016 C1020 1.385 . S
C1017 H992 0.951 . S
C1017 C1015 1.388 . S
C1017 C1018 1.366 . S
C1018 C1017 1.366 . S
C1018 C1019 1.414 . S
C1018 C1021 1.499 . S
C1019 H993 0.950 . S
C1019 C1018 1.414 . S
C1019 C1020 1.374 . S
C1020 H994 0.950 . S
C1020 C1016 1.385 . S
C1020 C1019 1.374 . S
C1021 C1018 1.499 . S
C1021 C1022 1.373 . S
C1021 C1023 1.389 . S
C1022 H995 0.950 . S
C1022 C1008 1.377 . S
C1022 C1021 1.373 . S
C1023 C1007 1.377 . S
C1023 C1021 1.389 . S
C1023 C1024 1.524 . S
C1024 C1023 1.524 . S
C1024 C1025 1.397 . S
C1024 C1029 1.363 . S
C1025 H996 0.950 . S
C1025 C1024 1.397 . S
C1025 C1026 1.334 . S
C1026 H997 0.950 . S
C1026 C1025 1.334 . S
C1026 C1027 1.287 . S
C1027 C1026 1.287 . S
C1027 C1028 1.524 . S
C1027 H1030 0.999 . S
C1028 H998 0.950 . S
C1028 C1027 1.524 . S
C1028 C1029 1.415 . S
C1029 H999 0.950 . S
C1029 C1024 1.363 . S
C1029 C1028 1.415 . S
H1030 C1027 0.999 . S
H1031 C1012 0.913 . S
H1032 C1050 0.951 . S
H1033 C1052 0.951 . S
H1034 C1054 0.950 . S
H1035 C1055 0.950 . S
H1036 C1057 0.950 . S
H1037 C1060 0.950 . S
H1038 C1061 0.950 . S
H1039 C1063 0.950 1_545 S
H1040 C1064 0.950 . S
H1041 C1065 0.951 1_554 S
H1042 C1067 0.951 . S
H1043 C1069 0.950 . S
H1044 C1070 0.950 . S
H1045 C1072 0.950 . S
H1046 C1075 0.950 . S
H1047 C1076 0.950 . S
H1048 C1078 0.950 . S
H1049 C1079 0.950 . S
C1050 H1032 0.951 . S
C1050 C1051 1.366 . S
C1050 C1052 1.388 . S
C1051 C1050 1.366 . S
C1051 C1055 1.385 . S
C1052 H1033 0.951 . S
C1052 C1050 1.388 . S
C1052 C1053 1.366 . S
C1053 C1052 1.366 . S
C1053 C1054 1.414 . S
C1053 C1056 1.499 . S
C1054 H1034 0.950 . S
C1054 C1053 1.414 . S
C1054 C1055 1.374 . S
C1055 H1035 0.950 . S
C1055 C1051 1.385 . S
C1055 C1054 1.374 . S
C1056 C1053 1.499 . S
C1056 C1057 1.373 . S
C1056 C1058 1.389 . S
C1057 H1036 0.950 . S
C1057 C1056 1.373 . S
C1057 C1073 1.377 . S
C1058 C1056 1.389 . S
C1058 C1059 1.524 . S
C1058 C1072 1.377 . S
C1059 C1058 1.524 . S
C1059 C1060 1.397 . S
C1059 C1064 1.363 . S
C1060 H1037 0.950 . S
C1060 C1059 1.397 . S
C1060 C1061 1.334 . S
C1061 H1038 0.950 . S
C1061 C1060 1.334 . S
C1061 C1062 1.287 . S
C1062 C1061 1.287 . S
C1062 C1063 1.524 . S
C1062 H1081 0.913 . S
C1063 H1039 0.950 1_565 S
C1063 C1062 1.524 . S
C1063 C1064 1.415 . S
C1064 H1040 0.950 . S
C1064 C1059 1.363 . S
C1064 C1063 1.415 . S
C1065 H1041 0.951 1_556 S
C1065 C1066 1.366 . S
C1065 C1067 1.388 . S
C1066 C1065 1.366 . S
C1066 C1070 1.385 . S
C1067 H1042 0.951 . S
C1067 C1065 1.388 . S
C1067 C1068 1.366 . S
C1068 C1067 1.366 . S
C1068 C1069 1.414 . S
C1068 C1071 1.499 . S
C1069 H1043 0.950 . S
C1069 C1068 1.414 . S
C1069 C1070 1.374 . S
C1070 H1044 0.950 . S
C1070 C1066 1.385 . S
C1070 C1069 1.374 . S
C1071 C1068 1.499 . S
C1071 C1072 1.373 . S
C1071 C1073 1.389 . S
C1072 H1045 0.950 . S
C1072 C1058 1.377 . S
C1072 C1071 1.373 . S
C1073 C1057 1.377 . S
C1073 C1071 1.389 . S
C1073 C1074 1.524 . S
C1074 C1073 1.524 . S
C1074 C1075 1.397 . S
C1074 C1079 1.363 . S
C1075 H1046 0.950 . S
C1075 C1074 1.397 . S
C1075 C1076 1.334 . S
C1076 H1047 0.950 . S
C1076 C1075 1.334 . S
C1076 C1077 1.287 . S
C1077 C1076 1.287 . S
C1077 C1078 1.524 . S
C1077 H1080 0.999 . S
C1078 H1048 0.950 . S
C1078 C1077 1.524 . S
C1078 C1079 1.415 . S
C1079 H1049 0.950 . S
C1079 C1074 1.363 . S
C1079 C1078 1.415 . S
H1080 C1077 0.999 . S
H1081 C1062 0.913 . S
H1082 C1100 0.951 . S
H1083 C1102 0.951 . S
H1084 C1104 0.950 . S
H1085 C1105 0.950 . S
H1086 C1107 0.950 . S
H1087 C1110 0.950 . S
H1088 C1111 0.950 . S
H1089 C1113 0.950 . S
H1090 C1114 0.950 . S
H1091 C1115 0.951 . S
H1092 C1117 0.951 . S
H1093 C1119 0.950 . S
H1094 C1120 0.950 . S
H1095 C1122 0.950 . S
H1096 C1125 0.950 . S
H1097 C1126 0.950 . S
H1098 C1128 0.950 . S
H1099 C1129 0.950 . S
C1100 H1082 0.951 . S
C1100 C1101 1.366 . S
C1100 C1102 1.388 . S
C1101 C1100 1.366 . S
C1101 C1105 1.385 . S
C1102 H1083 0.951 . S
C1102 C1100 1.388 . S
C1102 C1103 1.366 . S
C1103 C1102 1.366 . S
C1103 C1104 1.414 . S
C1103 C1106 1.499 . S
C1104 H1084 0.950 . S
C1104 C1103 1.414 . S
C1104 C1105 1.374 . S
C1105 H1085 0.950 . S
C1105 C1101 1.385 . S
C1105 C1104 1.374 . S
C1106 C1103 1.499 . S
C1106 C1107 1.373 . S
C1106 C1108 1.389 . S
C1107 H1086 0.950 . S
C1107 C1106 1.373 . S
C1107 C1123 1.377 . S
C1108 C1106 1.389 . S
C1108 C1109 1.524 . S
C1108 C1122 1.377 . S
C1109 C1108 1.524 . S
C1109 C1110 1.397 . S
C1109 C1114 1.363 . S
C1110 H1087 0.950 . S
C1110 C1109 1.397 . S
C1110 C1111 1.334 . S
C1111 H1088 0.950 . S
C1111 C1110 1.334 . S
C1111 C1112 1.287 . S
C1112 C1111 1.287 . S
C1112 C1113 1.524 . S
C1112 H1131 0.913 . S
C1113 H1089 0.950 . S
C1113 C1112 1.524 . S
C1113 C1114 1.415 . S
C1114 H1090 0.950 . S
C1114 C1109 1.363 . S
C1114 C1113 1.415 . S
C1115 H1091 0.951 . S
C1115 C1116 1.366 . S
C1115 C1117 1.388 . S
C1116 C1115 1.366 . S
C1116 C1120 1.385 . S
C1117 H1092 0.951 . S
C1117 C1115 1.388 . S
C1117 C1118 1.366 . S
C1118 C1117 1.366 . S
C1118 C1119 1.414 . S
C1118 C1121 1.499 . S
C1119 H1093 0.950 . S
C1119 C1118 1.414 . S
C1119 C1120 1.374 . S
C1120 H1094 0.950 . S
C1120 C1116 1.385 . S
C1120 C1119 1.374 . S
C1121 C1118 1.499 . S
C1121 C1122 1.373 . S
C1121 C1123 1.389 . S
C1122 H1095 0.950 . S
C1122 C1108 1.377 . S
C1122 C1121 1.373 . S
C1123 C1107 1.377 . S
C1123 C1121 1.389 . S
C1123 C1124 1.524 . S
C1124 C1123 1.524 . S
C1124 C1125 1.397 . S
C1124 C1129 1.363 . S
C1125 H1096 0.950 . S
C1125 C1124 1.397 . S
C1125 C1126 1.334 . S
C1126 H1097 0.950 . S
C1126 C1125 1.334 . S
C1126 C1127 1.287 . S
C1127 C1126 1.287 . S
C1127 C1128 1.524 . S
C1127 H1130 0.999 . S
C1128 H1098 0.950 . S
C1128 C1127 1.524 . S
C1128 C1129 1.415 . S
C1129 H1099 0.950 . S
C1129 C1124 1.363 . S
C1129 C1128 1.415 . S
H1130 C1127 0.999 . S
H1131 C1112 0.913 . S
H1132 C1150 0.951 . S
H1133 C1152 0.951 . S
H1134 C1154 0.950 . S
H1135 C1155 0.950 . S
H1136 C1157 0.950 . S
H1137 C1160 0.950 . S
H1138 C1161 0.950 . S
H1139 C1163 0.950 . S
H1140 C1164 0.950 . S
H1141 C1165 0.951 . S
H1142 C1167 0.951 . S
H1143 C1169 0.950 . S
H1144 C1170 0.950 . S
H1145 C1172 0.950 . S
H1146 C1175 0.950 . S
H1147 C1176 0.950 . S
H1148 C1178 0.950 . S
H1149 C1179 0.950 . S
C1150 H1132 0.951 . S
C1150 C1151 1.366 . S
C1150 C1152 1.388 . S
C1151 C1150 1.366 . S
C1151 C1155 1.385 . S
C1152 H1133 0.951 . S
C1152 C1150 1.388 . S
C1152 C1153 1.366 . S
C1153 C1152 1.366 . S
C1153 C1154 1.414 . S
C1153 C1156 1.499 . S
C1154 H1134 0.950 . S
C1154 C1153 1.414 . S
C1154 C1155 1.374 . S
C1155 H1135 0.950 . S
C1155 C1151 1.385 . S
C1155 C1154 1.374 . S
C1156 C1153 1.499 . S
C1156 C1157 1.373 . S
C1156 C1158 1.389 . S
C1157 H1136 0.950 . S
C1157 C1156 1.373 . S
C1157 C1173 1.377 . S
C1158 C1156 1.389 . S
C1158 C1159 1.524 . S
C1158 C1172 1.377 . S
C1159 C1158 1.524 . S
C1159 C1160 1.397 . S
C1159 C1164 1.363 . S
C1160 H1137 0.950 . S
C1160 C1159 1.397 . S
C1160 C1161 1.334 . S
C1161 H1138 0.950 . S
C1161 C1160 1.334 . S
C1161 C1162 1.287 . S
C1162 C1161 1.287 . S
C1162 C1163 1.524 . S
C1162 H1181 0.913 . S
C1163 H1139 0.950 . S
C1163 C1162 1.524 . S
C1163 C1164 1.415 . S
C1164 H1140 0.950 . S
C1164 C1159 1.363 . S
C1164 C1163 1.415 . S
C1165 H1141 0.951 . S
C1165 C1166 1.366 . S
C1165 C1167 1.388 . S
C1166 C1165 1.366 . S
C1166 C1170 1.385 . S
C1167 H1142 0.951 . S
C1167 C1165 1.388 . S
C1167 C1168 1.366 . S
C1168 C1167 1.366 . S
C1168 C1169 1.414 . S
C1168 C1171 1.499 . S
C1169 H1143 0.950 . S
C1169 C1168 1.414 . S
C1169 C1170 1.374 . S
C1170 H1144 0.950 . S
C1170 C1166 1.385 . S
C1170 C1169 1.374 . S
C1171 C1168 1.499 . S
C1171 C1172 1.373 . S
C1171 C1173 1.389 . S
C1172 H1145 0.950 . S
C1172 C1158 1.377 . S
C1172 C1171 1.373 . S
C1173 C1157 1.377 . S
C1173 C1171 1.389 . S
C1173 C1174 1.524 . S
C1174 C1173 1.524 . S
C1174 C1175 1.397 . S
C1174 C1179 1.363 . S
C1175 H1146 0.950 . S
C1175 C1174 1.397 . S
C1175 C1176 1.334 1_554 S
C1176 H1147 0.950 . S
C1176 C1175 1.334 1_556 S
C1176 C1177 1.287 . S
C1177 C1176 1.287 . S
C1177 C1178 1.524 . S
C1177 H1180 0.999 . S
C1178 H1148 0.950 . S
C1178 C1177 1.524 . S
C1178 C1179 1.415 1_556 S
C1179 H1149 0.950 . S
C1179 C1174 1.363 . S
C1179 C1178 1.415 1_554 S
H1180 C1177 0.999 . S
H1181 C1162 0.913 . S
H1182 C1200 0.951 . S
H1183 C1202 0.951 . S
H1184 C1204 0.950 . S
H1185 C1205 0.950 . S
H1186 C1207 0.950 . S
H1187 C1210 0.950 . S
H1188 C1211 0.950 . S
H1189 C1213 0.950 . S
H1190 C1214 0.950 . S
H1191 C1215 0.951 . S
H1192 C1217 0.951 . S
H1193 C1219 0.950 . S
H1194 C1220 0.950 . S
H1195 C1222 0.950 . S
H1196 C1225 0.950 . S
H1197 C1226 0.950 . S
H1198 C1228 0.950 . S
H1199 C1229 0.950 . S
C1200 H1182 0.951 . S
C1200 C1201 1.366 . S
C1200 C1202 1.388 . S
C1201 C1200 1.366 . S
C1201 C1205 1.385 . S
C1202 H1183 0.951 . S
C1202 C1200 1.388 . S
C1202 C1203 1.366 . S
C1203 C1202 1.366 . S
C1203 C1204 1.414 . S
C1203 C1206 1.499 . S
C1204 H1184 0.950 . S
C1204 C1203 1.414 . S
C1204 C1205 1.374 . S
C1205 H1185 0.950 . S
C1205 C1201 1.385 . S
C1205 C1204 1.374 . S
C1206 C1203 1.499 . S
C1206 C1207 1.373 . S
C1206 C1208 1.389 . S
C1207 H1186 0.950 . S
C1207 C1206 1.373 . S
C1207 C1223 1.377 . S
C1208 C1206 1.389 . S
C1208 C1209 1.524 . S
C1208 C1222 1.377 . S
C1209 C1208 1.524 . S
C1209 C1210 1.397 . S
C1209 C1214 1.363 . S
C1210 H1187 0.950 . S
C1210 C1209 1.397 . S
C1210 C1211 1.334 . S
C1211 H1188 0.950 . S
C1211 C1210 1.334 . S
C1211 C1212 1.287 . S
C1212 C1211 1.287 . S
C1212 C1213 1.524 . S
C1212 H1231 0.913 . S
C1213 H1189 0.950 . S
C1213 C1212 1.524 . S
C1213 C1214 1.415 . S
C1214 H1190 0.950 . S
C1214 C1209 1.363 . S
C1214 C1213 1.415 . S
C1215 H1191 0.951 . S
C1215 C1216 1.366 . S
C1215 C1217 1.388 . S
C1216 C1215 1.366 . S
C1216 C1220 1.385 . S
C1217 H1192 0.951 . S
C1217 C1215 1.388 . S
C1217 C1218 1.366 . S
C1218 C1217 1.366 . S
C1218 C1219 1.414 . S
C1218 C1221 1.499 . S
C1219 H1193 0.950 . S
C1219 C1218 1.414 . S
C1219 C1220 1.374 . S
C1220 H1194 0.950 . S
C1220 C1216 1.385 . S
C1220 C1219 1.374 . S
C1221 C1218 1.499 . S
C1221 C1222 1.373 . S
C1221 C1223 1.389 . S
C1222 H1195 0.950 . S
C1222 C1208 1.377 . S
C1222 C1221 1.373 . S
C1223 C1207 1.377 . S
C1223 C1221 1.389 . S
C1223 C1224 1.524 . S
C1224 C1223 1.524 . S
C1224 C1225 1.397 . S
C1224 C1229 1.363 . S
C1225 H1196 0.950 . S
C1225 C1224 1.397 . S
C1225 C1226 1.334 . S
C1226 H1197 0.950 . S
C1226 C1225 1.334 . S
C1226 C1227 1.287 . S
C1227 C1226 1.287 . S
C1227 C1228 1.524 . S
C1227 H1230 0.999 . S
C1228 H1198 0.950 . S
C1228 C1227 1.524 . S
C1228 C1229 1.415 . S
C1229 H1199 0.950 . S
C1229 C1224 1.363 . S
C1229 C1228 1.415 . S
H1230 C1227 0.999 . S
H1231 C1212 0.913 . S
H1232 C1250 0.951 . S
H1233 C1252 0.951 . S
H1234 C1254 0.950 . S
H1235 C1255 0.950 . S
H1236 C1257 0.950 . S
H1237 C1260 0.950 . S
H1238 C1261 0.950 . S
H1239 C1263 0.950 . S
H1240 C1264 0.950 . S
H1241 C1265 0.951 1_554 S
H1242 C1267 0.951 . S
H1243 C1269 0.950 . S
H1244 C1270 0.950 . S
H1245 C1272 0.950 . S
H1246 C1275 0.950 . S
H1247 C1276 0.950 . S
H1248 C1278 0.950 . S
H1249 C1279 0.950 . S
C1250 H1232 0.951 . S
C1250 C1251 1.366 . S
C1250 C1252 1.388 . S
C1251 C1250 1.366 . S
C1251 C1255 1.385 . S
C1252 H1233 0.951 . S
C1252 C1250 1.388 . S
C1252 C1253 1.366 . S
C1253 C1252 1.366 . S
C1253 C1254 1.414 . S
C1253 C1256 1.499 . S
C1254 H1234 0.950 . S
C1254 C1253 1.414 . S
C1254 C1255 1.374 . S
C1255 H1235 0.950 . S
C1255 C1251 1.385 . S
C1255 C1254 1.374 . S
C1256 C1253 1.499 . S
C1256 C1257 1.373 . S
C1256 C1258 1.389 . S
C1257 H1236 0.950 . S
C1257 C1256 1.373 . S
C1257 C1273 1.377 . S
C1258 C1256 1.389 . S
C1258 C1259 1.524 . S
C1258 C1272 1.377 . S
C1259 C1258 1.524 . S
C1259 C1260 1.397 . S
C1259 C1264 1.363 . S
C1260 H1237 0.950 . S
C1260 C1259 1.397 . S
C1260 C1261 1.334 . S
C1261 H1238 0.950 . S
C1261 C1260 1.334 . S
C1261 C1262 1.287 . S
C1262 C1261 1.287 . S
C1262 C1263 1.524 . S
C1262 H1281 0.913 . S
C1263 H1239 0.950 . S
C1263 C1262 1.524 . S
C1263 C1264 1.415 . S
C1264 H1240 0.950 . S
C1264 C1259 1.363 . S
C1264 C1263 1.415 . S
C1265 H1241 0.951 1_556 S
C1265 C1266 1.366 . S
C1265 C1267 1.388 . S
C1266 C1265 1.366 . S
C1266 C1270 1.385 . S
C1267 H1242 0.951 . S
C1267 C1265 1.388 . S
C1267 C1268 1.366 . S
C1268 C1267 1.366 . S
C1268 C1269 1.414 . S
C1268 C1271 1.499 . S
C1269 H1243 0.950 . S
C1269 C1268 1.414 . S
C1269 C1270 1.374 . S
C1270 H1244 0.950 . S
C1270 C1266 1.385 . S
C1270 C1269 1.374 . S
C1271 C1268 1.499 . S
C1271 C1272 1.373 . S
C1271 C1273 1.389 . S
C1272 H1245 0.950 . S
C1272 C1258 1.377 . S
C1272 C1271 1.373 . S
C1273 C1257 1.377 . S
C1273 C1271 1.389 . S
C1273 C1274 1.524 . S
C1274 C1273 1.524 . S
C1274 C1275 1.397 . S
C1274 C1279 1.363 . S
C1275 H1246 0.950 . S
C1275 C1274 1.397 . S
C1275 C1276 1.334 1_655 S
C1276 H1247 0.950 . S
C1276 C1275 1.334 1_455 S
C1276 C1277 1.287 . S
C1277 C1276 1.287 . S
C1277 C1278 1.524 . S
C1277 H1280 0.999 . S
C1278 H1248 0.950 . S
C1278 C1277 1.524 . S
C1278 C1279 1.415 1_455 S
C1279 H1249 0.950 . S
C1279 C1274 1.363 . S
C1279 C1278 1.415 1_655 S
H1280 C1277 0.999 . S
H1281 C1262 0.913 . S
H1282 C1300 0.951 . S
H1283 C1302 0.951 . S
H1284 C1304 0.950 . S
H1285 C1305 0.950 . S
H1286 C1307 0.950 . S
H1287 C1310 0.950 . S
H1288 C1311 0.950 . S
H1289 C1313 0.950 . S
H1290 C1314 0.950 . S
H1291 C1315 0.951 . S
H1292 C1317 0.951 . S
H1293 C1319 0.950 . S
H1294 C1320 0.950 . S
H1295 C1322 0.950 . S
H1296 C1325 0.950 . S
H1297 C1326 0.950 . S
H1298 C1328 0.950 . S
H1299 C1329 0.950 . S
C1300 H1282 0.951 . S
C1300 C1301 1.366 . S
C1300 C1302 1.388 . S
C1301 C1300 1.366 . S
C1301 C1305 1.385 . S
C1302 H1283 0.951 . S
C1302 C1300 1.388 . S
C1302 C1303 1.366 . S
C1303 C1302 1.366 . S
C1303 C1304 1.414 . S
C1303 C1306 1.499 . S
C1304 H1284 0.950 . S
C1304 C1303 1.414 . S
C1304 C1305 1.374 . S
C1305 H1285 0.950 . S
C1305 C1301 1.385 . S
C1305 C1304 1.374 . S
C1306 C1303 1.499 . S
C1306 C1307 1.373 . S
C1306 C1308 1.389 . S
C1307 H1286 0.950 . S
C1307 C1306 1.373 . S
C1307 C1323 1.377 . S
C1308 C1306 1.389 . S
C1308 C1309 1.524 . S
C1308 C1322 1.377 . S
C1309 C1308 1.524 . S
C1309 C1310 1.397 . S
C1309 C1314 1.363 . S
C1310 H1287 0.950 . S
C1310 C1309 1.397 . S
C1310 C1311 1.334 . S
C1311 H1288 0.950 . S
C1311 C1310 1.334 . S
C1311 C1312 1.287 . S
C1312 C1311 1.287 . S
C1312 C1313 1.524 . S
C1312 H1331 0.913 . S
C1313 H1289 0.950 . S
C1313 C1312 1.524 . S
C1313 C1314 1.415 . S
C1314 H1290 0.950 . S
C1314 C1309 1.363 . S
C1314 C1313 1.415 . S
C1315 H1291 0.951 . S
C1315 C1316 1.366 . S
C1315 C1317 1.388 . S
C1316 C1315 1.366 . S
C1316 C1320 1.385 . S
C1317 H1292 0.951 . S
C1317 C1315 1.388 . S
C1317 C1318 1.366 . S
C1318 C1317 1.366 . S
C1318 C1319 1.414 . S
C1318 C1321 1.499 . S
C1319 H1293 0.950 . S
C1319 C1318 1.414 . S
C1319 C1320 1.374 . S
C1320 H1294 0.950 . S
C1320 C1316 1.385 . S
C1320 C1319 1.374 . S
C1321 C1318 1.499 . S
C1321 C1322 1.373 . S
C1321 C1323 1.389 . S
C1322 H1295 0.950 . S
C1322 C1308 1.377 . S
C1322 C1321 1.373 . S
C1323 C1307 1.377 . S
C1323 C1321 1.389 . S
C1323 C1324 1.524 . S
C1324 C1323 1.524 . S
C1324 C1325 1.397 . S
C1324 C1329 1.363 . S
C1325 H1296 0.950 . S
C1325 C1324 1.397 . S
C1325 C1326 1.334 . S
C1326 H1297 0.950 . S
C1326 C1325 1.334 . S
C1326 C1327 1.287 . S
C1327 C1326 1.287 . S
C1327 C1328 1.524 . S
C1327 H1330 0.999 . S
C1328 H1298 0.950 . S
C1328 C1327 1.524 . S
C1328 C1329 1.415 . S
C1329 H1299 0.950 . S
C1329 C1324 1.363 . S
C1329 C1328 1.415 . S
H1330 C1327 0.999 . S
H1331 C1312 0.913 . S
H1332 C1350 0.951 . S
H1333 C1352 0.951 . S
H1334 C1354 0.950 . S
H1335 C1355 0.950 . S
H1336 C1357 0.950 . S
H1337 C1360 0.950 . S
H1338 C1361 0.950 . S
H1339 C1363 0.950 . S
H1340 C1364 0.950 . S
H1341 C1365 0.951 . S
H1342 C1367 0.951 . S
H1343 C1369 0.950 . S
H1344 C1370 0.950 1_655 S
H1345 C1372 0.950 . S
H1346 C1375 0.950 . S
H1347 C1376 0.950 . S
H1348 C1378 0.950 . S
H1349 C1379 0.950 . S
C1350 H1332 0.951 . S
C1350 C1351 1.366 . S
C1350 C1352 1.388 . S
C1351 C1350 1.366 . S
C1351 C1355 1.385 . S
C1352 H1333 0.951 . S
C1352 C1350 1.388 . S
C1352 C1353 1.366 . S
C1353 C1352 1.366 . S
C1353 C1354 1.414 . S
C1353 C1356 1.499 . S
C1354 H1334 0.950 . S
C1354 C1353 1.414 . S
C1354 C1355 1.374 . S
C1355 H1335 0.950 . S
C1355 C1351 1.385 . S
C1355 C1354 1.374 . S
C1356 C1353 1.499 . S
C1356 C1357 1.373 . S
C1356 C1358 1.389 . S
C1357 H1336 0.950 . S
C1357 C1356 1.373 . S
C1357 C1373 1.377 . S
C1358 C1356 1.389 . S
C1358 C1359 1.524 . S
C1358 C1372 1.377 . S
C1359 C1358 1.524 . S
C1359 C1360 1.397 . S
C1359 C1364 1.363 . S
C1360 H1337 0.950 . S
C1360 C1359 1.397 . S
C1360 C1361 1.334 . S
C1361 H1338 0.950 . S
C1361 C1360 1.334 . S
C1361 C1362 1.287 . S
C1362 C1361 1.287 . S
C1362 C1363 1.524 . S
C1362 H1381 0.913 . S
C1363 H1339 0.950 . S
C1363 C1362 1.524 . S
C1363 C1364 1.415 . S
C1364 H1340 0.950 . S
C1364 C1359 1.363 . S
C1364 C1363 1.415 . S
C1365 H1341 0.951 . S
C1365 C1366 1.366 . S
C1365 C1367 1.388 . S
C1366 C1365 1.366 . S
C1366 C1370 1.385 . S
C1367 H1342 0.951 . S
C1367 C1365 1.388 . S
C1367 C1368 1.366 . S
C1368 C1367 1.366 . S
C1368 C1369 1.414 . S
C1368 C1371 1.499 . S
C1369 H1343 0.950 . S
C1369 C1368 1.414 . S
C1369 C1370 1.374 . S
C1370 H1344 0.950 1_455 S
C1370 C1366 1.385 . S
C1370 C1369 1.374 . S
C1371 C1368 1.499 . S
C1371 C1372 1.373 . S
C1371 C1373 1.389 . S
C1372 H1345 0.950 . S
C1372 C1358 1.377 . S
C1372 C1371 1.373 . S
C1373 C1357 1.377 . S
C1373 C1371 1.389 . S
C1373 C1374 1.524 . S
C1374 C1373 1.524 . S
C1374 C1375 1.397 . S
C1374 C1379 1.363 . S
C1375 H1346 0.950 . S
C1375 C1374 1.397 . S
C1375 C1376 1.334 . S
C1376 H1347 0.950 . S
C1376 C1375 1.334 . S
C1376 C1377 1.287 . S
C1377 C1376 1.287 . S
C1377 C1378 1.524 . S
C1377 H1380 0.999 . S
C1378 H1348 0.950 . S
C1378 C1377 1.524 . S
C1378 C1379 1.415 . S
C1379 H1349 0.950 . S
C1379 C1374 1.363 . S
C1379 C1378 1.415 . S
H1380 C1377 0.999 . S
H1381 C1362 0.913 . S
H1382 C1400 0.951 . S
H1383 C1402 0.951 . S
H1384 C1404 0.950 . S
H1385 C1405 0.950 . S
H1386 C1407 0.950 . S
H1387 C1410 0.950 . S
H1388 C1411 0.950 . S
H1389 C1413 0.950 . S
H1390 C1414 0.950 . S
H1391 C1415 0.951 . S
H1392 C1417 0.951 . S
H1393 C1419 0.950 . S
H1394 C1420 0.950 . S
H1395 C1422 0.950 . S
H1396 C1425 0.950 . S
H1397 C1426 0.950 . S
H1398 C1428 0.950 . S
H1399 C1429 0.950 . S
C1400 H1382 0.951 . S
C1400 C1401 1.366 . S
C1400 C1402 1.388 . S
C1401 C1400 1.366 . S
C1401 C1405 1.385 . S
C1402 H1383 0.951 . S
C1402 C1400 1.388 . S
C1402 C1403 1.366 . S
C1403 C1402 1.366 . S
C1403 C1404 1.414 . S
C1403 C1406 1.499 . S
C1404 H1384 0.950 . S
C1404 C1403 1.414 . S
C1404 C1405 1.374 . S
C1405 H1385 0.950 . S
C1405 C1401 1.385 . S
C1405 C1404 1.374 . S
C1406 C1403 1.499 . S
C1406 C1407 1.373 . S
C1406 C1408 1.389 . S
C1407 H1386 0.950 . S
C1407 C1406 1.373 . S
C1407 C1423 1.377 . S
C1408 C1406 1.389 . S
C1408 C1409 1.524 . S
C1408 C1422 1.377 . S
C1409 C1408 1.524 . S
C1409 C1410 1.397 . S
C1409 C1414 1.363 . S
C1410 H1387 0.950 . S
C1410 C1409 1.397 . S
C1410 C1411 1.334 . S
C1411 H1388 0.950 . S
C1411 C1410 1.334 . S
C1411 C1412 1.287 . S
C1412 C1411 1.287 . S
C1412 C1413 1.524 . S
C1412 H1431 0.913 . S
C1413 H1389 0.950 . S
C1413 C1412 1.524 . S
C1413 C1414 1.415 . S
C1414 H1390 0.950 . S
C1414 C1409 1.363 . S
C1414 C1413 1.415 . S
C1415 H1391 0.951 . S
C1415 C1416 1.366 . S
C1415 C1417 1.388 . S
C1416 C1415 1.366 . S
C1416 C1420 1.385 . S
C1417 H1392 0.951 . S
C1417 C1415 1.388 . S
C1417 C1418 1.366 . S
C1418 C1417 1.366 . S
C1418 C1419 1.414 . S
C1418 C1421 1.499 . S
C1419 H1393 0.950 . S
C1419 C1418 1.414 . S
C1419 C1420 1.374 . S
C1420 H1394 0.950 . S
C1420 C1416 1.385 . S
C1420 C1419 1.374 . S
C1421 C1418 1.499 . S
C1421 C1422 1.373 . S
C1421 C1423 1.389 . S
C1422 H1395 0.950 . S
C1422 C1408 1.377 . S
C1422 C1421 1.373 . S
C1423 C1407 1.377 . S
C1423 C1421 1.389 . S
C1423 C1424 1.524 . S
C1424 C1423 1.524 . S
C1424 C1425 1.397 . S
C1424 C1429 1.363 . S
C1425 H1396 0.950 . S
C1425 C1424 1.397 . S
C1425 C1426 1.334 . S
C1426 H1397 0.950 . S
C1426 C1425 1.334 . S
C1426 C1427 1.287 . S
C1427 C1426 1.287 . S
C1427 C1428 1.524 . S
C1427 H1430 0.999 . S
C1428 H1398 0.950 . S
C1428 C1427 1.524 . S
C1428 C1429 1.415 . S
C1429 H1399 0.950 . S
C1429 C1424 1.363 . S
C1429 C1428 1.415 . S
H1430 C1427 0.999 . S
H1431 C1412 0.913 . S
C251 C5 2.910 . S
C266 C91 2.888 . S
C301 C14 2.150 . S
C316 C122 2.197 . S
C366 C161 1.276 . S
C351 C25 1.325 . S
C401 C34 0.411 . S
C416 C198 0.431 . S
C466 C121 2.788 . S
C451 C7 2.878 . S
C516 C78 1.421 . S
C501 C13 1.423 . S
C566 C210 1.363 . S
C551 C23 1.419 . S
C616 C167 0.919 . S
C601 C31 0.924 . S
C651 C4 2.282 . S
C666 C211 2.276 . S
C716 C127 1.275 . S
C701 C22 1.278 . S
C751 C32 0.530 . S
C766 C90 0.576 . S
C801 C16 2.331 . S
C816 C162 2.334 . S
C866 C82 2.873 . S
C851 C41 2.894 . S
C901 C50 2.157 . S
C916 C131 2.207 . S
C951 C61 1.321 . S
C966 C170 1.275 . S
C1001 C67 0.426 . S
C1016 C207 0.442 . S
C1051 C40 2.897 . S
C1066 C130 2.806 . S
C1116 C87 1.401 . S
C1101 C52 1.400 . S
C1166 C201 1.370 . S
C1151 C59 1.424 . S
C1216 C158 0.913 . S
C1201 C70 0.919 . S
C1251 C43 2.281 . S
C1266 C202 2.279 . S
C1316 C118 1.279 . S
C1301 C58 1.281 . S
C1366 C81 0.561 . S
C1351 C68 0.510 . S
C1401 C49 2.339 . S
C1416 C171 2.341 . S
