# Generated by pormake.
# Topology ssa, (4,4)-cn, num edge types: 1
# Building blocks:
#     Node 0, Type 0, BuildingBlock: ESEHIV_clean_sbu_0, # of connection points: 4
#     Node 1, Type 0, BuildingBlock: ESEHIV_clean_sbu_0, # of connection points: 4
#     Node 2, Type 0, BuildingBlock: ESEHIV_clean_sbu_0, # of connection points: 4
#     Node 3, Type 0, BuildingBlock: ESEHIV_clean_sbu_0, # of connection points: 4
#     Node 4, Type 0, BuildingBlock: ESEHIV_clean_sbu_0, # of connection points: 4
#     Node 5, Type 0, BuildingBlock: ESEHIV_clean_sbu_0, # of connection points: 4
#     Node 6, Type 1, BuildingBlock: GIZVER_clean_linker_0, # of connection points: 4
#     Node 7, Type 1, BuildingBlock: GIZVER_clean_linker_0, # of connection points: 4
#     Node 8, Type 1, BuildingBlock: GIZVER_clean_linker_0, # of connection points: 4
#     Node 9, Type 1, BuildingBlock: GIZVER_clean_linker_0, # of connection points: 4
#     Node 10, Type 1, BuildingBlock: GIZVER_clean_linker_0, # of connection points: 4
#     Node 11, Type 1, BuildingBlock: GIZVER_clean_linker_0, # of connection points: 4
#     Edge 12, Type (0, 1), BuildingBlock: KIFKEQ_clean_linker_1, # of connection points: 2
#     Edge 13, Type (0, 1), BuildingBlock: KIFKEQ_clean_linker_1, # of connection points: 2
#     Edge 14, Type (0, 1), BuildingBlock: KIFKEQ_clean_linker_1, # of connection points: 2
#     Edge 15, Type (0, 1), BuildingBlock: KIFKEQ_clean_linker_1, # of connection points: 2
#     Edge 16, Type (0, 1), BuildingBlock: KIFKEQ_clean_linker_1, # of connection points: 2
#     Edge 17, Type (0, 1), BuildingBlock: KIFKEQ_clean_linker_1, # of connection points: 2
#     Edge 18, Type (0, 1), BuildingBlock: KIFKEQ_clean_linker_1, # of connection points: 2
#     Edge 19, Type (0, 1), BuildingBlock: KIFKEQ_clean_linker_1, # of connection points: 2
#     Edge 20, Type (0, 1), BuildingBlock: KIFKEQ_clean_linker_1, # of connection points: 2
#     Edge 21, Type (0, 1), BuildingBlock: KIFKEQ_clean_linker_1, # of connection points: 2
#     Edge 22, Type (0, 1), BuildingBlock: KIFKEQ_clean_linker_1, # of connection points: 2
#     Edge 23, Type (0, 1), BuildingBlock: KIFKEQ_clean_linker_1, # of connection points: 2
#     Edge 24, Type (0, 1), BuildingBlock: KIFKEQ_clean_linker_1, # of connection points: 2
#     Edge 25, Type (0, 1), BuildingBlock: KIFKEQ_clean_linker_1, # of connection points: 2
#     Edge 26, Type (0, 1), BuildingBlock: KIFKEQ_clean_linker_1, # of connection points: 2
#     Edge 27, Type (0, 1), BuildingBlock: KIFKEQ_clean_linker_1, # of connection points: 2
#     Edge 28, Type (0, 1), BuildingBlock: KIFKEQ_clean_linker_1, # of connection points: 2
#     Edge 29, Type (0, 1), BuildingBlock: KIFKEQ_clean_linker_1, # of connection points: 2
#     Edge 30, Type (0, 1), BuildingBlock: KIFKEQ_clean_linker_1, # of connection points: 2
#     Edge 31, Type (0, 1), BuildingBlock: KIFKEQ_clean_linker_1, # of connection points: 2
#     Edge 32, Type (0, 1), BuildingBlock: KIFKEQ_clean_linker_1, # of connection points: 2
#     Edge 33, Type (0, 1), BuildingBlock: KIFKEQ_clean_linker_1, # of connection points: 2
#     Edge 34, Type (0, 1), BuildingBlock: KIFKEQ_clean_linker_1, # of connection points: 2
#     Edge 35, Type (0, 1), BuildingBlock: KIFKEQ_clean_linker_1, # of connection points: 2
# Relax obj value: 0.005
# Max RMSD: 0.107
# Mean RMSD: 0.064
data_MOF--net-ssa--node1-ESEHIV_clean_sbu_0--node2-GIZVER_clean_linker_0--edge1-KIFKEQ_clean_linker_1
_symmetry_space_group_name_H-M    P1
_symmetry_Int_Tables_number       1
_symmetry_cell_setting            triclinic
loop_
_symmetry_equiv_pos_as_xyz
'x, y, z'
_cell_length_a     52.182926
_cell_length_b     56.581937
_cell_length_c     32.766461
_cell_angle_alpha  88.772595
_cell_angle_beta   90.607458
_cell_angle_gamma 121.69648
loop_
_atom_site_label
_atom_site_type_symbol
_atom_site_fract_x
_atom_site_fract_y
_atom_site_fract_z
_atom_type_partial_charge
Cu0 Cu 1.04723 0.53943 0.02437 0.0
N1 N 1.02106 0.50245 0.04015 0.0
N2 N 0.98486 0.45774 0.03486 0.0
C3 C 0.99763 0.48348 0.01805 0.0
C4 C 1.00092 0.46068 0.06899 0.0
C5 C 1.02323 0.48837 0.07224 0.0
O6 O 1.02744 0.54796 -0.01932 0.0
C7 C 0.08945 0.52513 -0.00205 0.0
O8 O 0.06569 0.50125 -0.01227 0.0
H9 H 0.99121 0.48825 -0.01105 0.0
H10 H 1.04051 0.49742 0.09545 0.0
N11 N 0.05528 0.56253 0.06861 0.0
N12 N 0.08174 0.59759 0.11151 0.0
C13 C 0.08079 0.58725 0.07428 0.0
C14 C 1.03937 0.55685 0.10324 0.0
C15 C 0.05554 0.57842 0.12967 0.0
C16 C 1.00486 0.54968 -0.0097 0.0
O17 O 0.9974 0.54743 0.02897 0.0
H18 H 0.09858 0.5969 0.05177 0.0
H19 H 1.01809 0.53787 0.1094 0.0
O20 O 0.08592 0.5445 0.00994 0.0
H21 H 0.99728 0.44397 0.08957 0.0
H22 H 0.04893 0.5791 0.16059 0.0
Cu23 Cu 0.58686 0.03987 0.47674 0.0
N24 N 0.60312 0.03318 0.43106 0.0
N25 N 0.61248 1.00935 0.38596 0.0
C26 C 0.60122 1.00904 0.42315 0.0
C27 C 0.62189 0.03495 0.37017 0.0
C28 C 0.61606 0.04951 0.39796 0.0
O29 O 0.55196 1.00396 0.49184 0.0
C30 C 0.64059 0.07974 0.51151 0.0
O31 O 0.64408 0.09015 0.47431 0.0
H32 H 0.59115 0.99149 0.44421 0.0
H33 H 0.62011 0.07022 0.39378 0.0
N34 N 0.57498 0.06508 0.46391 0.0
N35 N 0.56498 0.09859 0.47266 0.0
C36 C 0.5754 0.08334 0.48998 0.0
C37 C 0.56391 0.06877 0.42873 0.0
C38 C 0.55769 0.08942 0.43402 0.0
C39 C 0.52639 0.99977 0.502 0.0
O40 O 0.52366 1.02112 0.50892 0.0
H41 H 0.58247 0.08475 0.52145 0.0
H42 H 0.5604 0.05712 0.40131 0.0
O43 O 0.61691 0.05636 0.51971 0.0
H44 H 0.63139 0.04253 0.34011 0.0
H45 H 0.54856 0.09703 0.41112 0.0
Cu46 Cu 0.56533 0.52502 -0.01904 0.0
N47 N 0.56646 0.50788 0.93326 0.0
N48 N 0.56809 0.47884 0.88952 0.0
C49 C 0.56634 0.48412 0.92914 0.0
C50 C 0.56871 0.49976 0.86806 0.0
C51 C 0.56746 0.51742 0.895 0.0
O52 O 0.57844 0.51334 0.02924 0.0
C53 C 0.50594 0.49396 0.01236 0.0
O54 O 0.51378 0.47617 0.02348 0.0
H55 H 0.56521 0.47111 0.9546 0.0
H56 H 0.56694 0.53581 0.88715 0.0
N57 N 0.58771 0.56382 -0.0247 0.0
N58 N 0.60147 0.60779 -0.01357 0.0
C59 C 0.58576 0.58129 0.00054 0.0
C60 C 0.60555 0.57995 0.94432 0.0
C61 C 0.61395 0.6071 0.95103 0.0
C62 C 0.5983 0.50689 0.0342 0.0
O63 O 0.60042 0.49728 0.07012 0.0
H64 H 0.57208 0.57451 0.02791 0.0
H65 H 0.61175 0.57253 0.91836 0.0
O66 O 0.52438 0.51548 -0.00837 0.0
H67 H 0.56926 0.5018 0.83511 0.0
H68 H 0.62805 0.62492 0.93146 0.0
Cu69 Cu 1.03796 0.51245 0.491 0.0
N70 N 1.04689 0.49527 0.45003 0.0
N71 N 0.07366 0.48587 0.40769 0.0
C72 C 0.07456 0.50322 0.43616 0.0
C73 C 1.04418 0.46629 0.40342 0.0
C74 C 1.02777 0.47211 0.42959 0.0
O75 O 0.07122 0.55082 0.49421 0.0
C76 C 1.02399 0.46725 0.5463 0.0
O77 O 1.03245 0.45757 0.5167 0.0
H78 H 0.09495 0.52147 0.4466 0.0
H79 H 1.00366 0.45989 0.4342 0.0
N80 N 1.00361 0.51353 0.47831 0.0
N81 N 0.96427 0.51794 0.49037 0.0
C82 C 0.99104 0.52279 0.50408 0.0
C83 C 0.98423 0.50262 0.44687 0.0
C84 C 0.95977 0.50516 0.45439 0.0
C85 C 0.09758 0.5591 0.50748 0.0
O86 O 0.10323 0.54105 0.52441 0.0
H87 H 1.00057 0.53145 0.53353 0.0
H88 H 0.98706 0.49264 0.42105 0.0
O89 O 1.0278 0.49137 0.54245 0.0
H90 H 1.03512 0.44862 0.38357 0.0
H91 H 0.93996 0.49766 0.43542 0.0
Cu92 Cu 0.52113 1.01045 -0.01812 0.0
N93 N 0.49539 1.01628 0.94884 0.0
N94 N 0.47855 0.03989 0.9141 0.0
C95 C 0.49744 0.04087 0.94341 0.0
C96 C 0.46369 1.01345 0.90103 0.0
C97 C 0.4742 0.99899 0.92238 0.0
O98 O 0.55927 0.04601 -0.01504 0.0
C99 C 0.47456 0.97419 0.03462 0.0
O100 O 0.45983 0.96691 -6e-05 0.0
H101 H 0.51346 0.05941 0.95952 0.0
H102 H 0.46769 0.97767 0.91775 0.0
N103 N 0.52994 0.98576 0.95882 0.0
N104 N 0.54833 0.95803 0.95652 0.0
C105 C 0.54424 0.97529 -0.02059 0.0
C106 C 0.52483 0.97489 0.92129 0.0
C107 C 0.53596 0.95748 0.91991 0.0
C108 C 0.57008 0.05751 0.95032 0.0
O109 O 0.55558 0.04468 0.91708 0.0
H110 H 0.55094 0.97987 0.01103 0.0
H111 H 0.51394 0.97934 0.89667 0.0
O112 O 0.5021 0.99398 0.03459 0.0
H113 H 0.44769 1.00554 0.87613 0.0
H114 H 0.53521 0.94555 0.89404 0.0
Cu115 Cu 0.55878 0.51989 0.43726 0.0
N116 N 0.58155 0.55051 0.40302 0.0
N117 N 0.59817 0.59238 0.37491 0.0
C118 C 0.5742 0.56898 0.39041 0.0
C119 C 0.62143 0.58836 0.37747 0.0
C120 C 0.61112 0.56253 0.39497 0.0
O121 O 0.51719 0.51048 0.4367 0.0
C122 C 0.57141 0.51596 0.52207 0.0
O123 O 0.54407 0.49401 0.5253 0.0
H124 H 0.55233 0.56623 0.39529 0.0
H125 H 0.62462 0.55389 0.40377 0.0
N126 N 0.55984 0.4892 0.42019 0.0
N127 N 0.55588 0.44803 0.42724 0.0
C128 C 0.54652 0.46468 0.44045 0.0
C129 C 0.57796 0.48795 0.39251 0.0
C130 C 0.57563 0.46255 0.39689 0.0
C131 C 0.50769 0.52546 0.45014 0.0
O132 O 0.5262 0.54798 0.4704 0.0
H133 H 0.53212 0.46007 0.46665 0.0
H134 H 0.59321 0.50491 0.37243 0.0
O135 O 0.57954 0.53022 0.48908 0.0
H136 H 0.64446 0.60341 0.36877 0.0
H137 H 0.58859 0.45591 0.38049 0.0
H138 H 0.2906 0.5414 0.13198 0.0
H139 H 0.28175 0.52947 0.26274 0.0
H140 H 0.20309 0.4997 0.18788 0.0
H141 H 0.33459 0.56527 0.17358 0.0
H142 H 0.32987 0.56835 0.22649 0.0
H143 H 0.34676 0.53163 0.14985 0.0
H144 H 0.37762 0.49579 0.24019 0.0
H145 H 0.33532 0.53928 0.27794 0.0
C146 C 0.27658 0.53267 0.15893 0.0
C147 C 0.24511 0.51936 0.15515 0.0
C148 C 0.29003 0.5358 0.19766 0.0
C149 C 0.2716 0.52589 0.23272 0.0
C150 C 0.24014 0.51237 0.22915 0.0
C151 C 0.22724 0.50879 0.19034 0.0
C152 C 0.32396 0.55297 0.20203 0.0
C153 C 0.33739 0.5355 0.21256 0.0
C154 C 0.3485 0.52642 0.18135 0.0
C155 C 0.364 0.51282 0.19102 0.0
C156 C 0.36617 0.50662 0.23218 0.0
C157 C 0.35653 0.51652 0.2636 0.0
C158 C 0.342 0.53086 0.25372 0.0
H159 H 0.78398 0.24437 0.71185 0.0
H160 H 0.76663 0.24862 0.83877 0.0
H161 H 0.72872 0.1694 0.78219 0.0
H162 H 0.78868 0.28616 0.73881 0.0
H163 H 0.78097 0.28807 0.79095 0.0
H164 H 0.83958 0.31068 0.71747 0.0
H165 H 0.90989 0.34951 0.80687 0.0
H166 H 0.81902 0.29156 0.84532 0.0
C167 C 0.77443 0.23398 0.74085 0.0
C168 C 0.75648 0.20478 0.74295 0.0
C169 C 0.77846 0.25001 0.77534 0.0
C170 C 0.76486 0.23647 0.81258 0.0
C171 C 0.74751 0.2073 0.81545 0.0
C172 C 0.74384 0.19176 0.78065 0.0
C173 C 0.7925 0.28111 0.77045 0.0
C174 C 0.82584 0.29766 0.7801 0.0
C175 C 0.8471 0.31256 0.74884 0.0
C176 C 0.87746 0.33173 0.75836 0.0
C177 C 0.88661 0.33458 0.79929 0.0
C178 C 0.86578 0.32042 0.83088 0.0
C179 C 0.83543 0.30178 0.82105 0.0
H180 H 0.57459 0.76499 0.12933 0.0
H181 H 0.5764 0.76313 0.26096 0.0
H182 H 0.61781 0.72813 0.19269 0.0
H183 H 0.537 0.76888 0.17286 0.0
H184 H 0.54274 0.77362 0.22651 0.0
H185 H 0.56928 0.80672 0.12402 0.0
H186 H 0.61045 0.88934 0.17024 0.0
H187 H 0.57671 0.81972 0.25375 0.0
C188 C 0.58226 0.76044 0.15758 0.0
C189 C 0.59855 0.74704 0.15648 0.0
C190 C 0.57479 0.76693 0.1953 0.0
C191 C 0.58327 0.75939 0.23191 0.0
C192 C 0.5991 0.74563 0.23108 0.0
C193 C 0.60716 0.74021 0.19336 0.0
C194 C 0.55473 0.77873 0.19671 0.0
C195 C 0.57229 0.80981 0.18965 0.0
C196 C 0.5774 0.82069 0.14958 0.0
C197 C 0.59133 0.84938 0.14237 0.0
C198 C 0.60104 0.86729 0.17564 0.0
C199 C 0.59569 0.85685 0.21589 0.0
C200 C 0.58149 0.82802 0.22278 0.0
H201 H 0.76689 0.56112 0.69465 0.0
H202 H 0.77906 0.55075 0.82267 0.0
H203 H 0.69002 0.51484 0.77316 0.0
H204 H 0.81562 0.58941 0.72537 0.0
H205 H 0.81948 0.5894 0.77934 0.0
H206 H 0.82095 0.55582 0.68334 0.0
H207 H 0.87892 0.53071 0.73553 0.0
H208 H 0.83881 0.56332 0.81259 0.0
C209 C 0.75742 0.55178 0.72419 0.0
C210 C 0.72602 0.53742 0.72994 0.0
C211 C 0.77681 0.55614 0.75741 0.0
C212 C 0.76435 0.54598 0.79651 0.0
C213 C 0.73297 0.53097 0.8022 0.0
C214 C 0.7142 0.52598 0.76854 0.0
C215 C 0.81052 0.57552 0.75258 0.0
C216 C 0.82711 0.56034 0.74869 0.0
C217 C 0.83113 0.55239 0.71 0.0
C218 C 0.84938 0.54119 0.70542 0.0
C219 C 0.86352 0.53787 0.73977 0.0
C220 C 0.86021 0.54595 0.77862 0.0
C221 C 0.84145 0.55676 0.78292 0.0
H222 H 0.34895 0.80563 0.24715 0.0
H223 H 0.34854 0.80444 0.37875 0.0
H224 H 0.3908 0.8822 0.31184 0.0
H225 H 0.33723 0.76361 0.28505 0.0
H226 H 0.34107 0.76407 0.33916 0.0
H227 H 0.28993 0.75738 0.25319 0.0
H228 H 0.21027 0.7085 0.32587 0.0
H229 H 0.29731 0.74535 0.38225 0.0
C230 C 0.35406 0.81651 0.27574 0.0
C231 C 0.36992 0.84569 0.27534 0.0
C232 C 0.34566 0.8014 0.31304 0.0
C233 C 0.35384 0.8159 0.35 0.0
C234 C 0.36999 0.84512 0.34989 0.0
C235 C 0.37727 0.85968 0.31238 0.0
C236 C 0.33147 0.7702 0.31352 0.0
C237 C 0.29754 0.75469 0.31771 0.0
C238 C 0.27945 0.74956 0.28281 0.0
C239 C 0.24791 0.7331 0.28574 0.0
C240 C 0.23454 0.72233 0.32392 0.0
C241 C 0.25209 0.72633 0.35871 0.0
C242 C 0.28364 0.74276 0.35562 0.0
H243 H 0.51034 0.28419 0.75677 0.0
H244 H 0.50371 0.27485 0.6264 0.0
H245 H 0.55656 0.35605 0.67756 0.0
H246 H 0.46971 0.24191 0.72637 0.0
H247 H 0.46532 0.23874 0.67239 0.0
H248 H 0.48184 0.21171 0.75864 0.0
H249 H 0.51792 0.1717 0.6905 0.0
H250 H 0.50838 0.23533 0.63274 0.0
C251 C 0.51703 0.2932 0.72634 0.0
C252 C 0.53579 0.32218 0.72125 0.0
C253 C 0.50575 0.27592 0.69214 0.0
C254 C 0.51334 0.28794 0.65274 0.0
C255 C 0.53202 0.31682 0.64713 0.0
C256 C 0.54348 0.33365 0.68159 0.0
C257 C 0.48221 0.24536 0.69736 0.0
C258 C 0.49531 0.22701 0.69657 0.0
C259 C 0.49205 0.21021 0.73096 0.0
C260 C 0.49965 0.18989 0.72862 0.0
C261 C 0.5121 0.18745 0.6925 0.0
C262 C 0.51564 0.20396 0.65817 0.0
C263 C 0.50701 0.22359 0.66001 0.0
H264 H 0.14034 0.56781 0.03267 0.0
H265 H 0.105 0.48718 -0.02035 0.0
H266 H 0.18354 0.56678 0.05818 0.0
H267 H 0.14896 0.48655 0.00407 0.0
H268 H 0.1951 0.47608 0.12056 0.0
H269 H 0.16248 0.47925 0.07025 0.0
H270 H 0.2287 0.56649 0.05113 0.0
H271 H 0.26086 0.56336 0.103 0.0
C272 C 0.14221 0.5502 0.02534 0.0
C273 C 0.11884 0.52733 0.00474 0.0
C274 C 0.16722 0.54968 0.03982 0.0
C275 C 0.16966 0.52636 0.03382 0.0
C276 C 0.14755 0.50457 0.0101 0.0
C277 C 0.12239 0.50501 -0.00416 0.0
C278 C 0.20304 0.49576 0.10476 0.0
C279 C 0.23033 0.51954 0.11617 0.0
C280 C 0.18439 0.4976 0.07564 0.0
C281 C 0.19261 0.52329 0.057 0.0
C282 C 0.22132 0.5465 0.06549 0.0
C283 C 0.23999 0.54465 0.0948 0.0
H284 H 0.63885 0.06711 0.59332 0.0
H285 H 0.69124 0.13119 0.50299 0.0
H286 H 0.67174 0.0977 0.647 0.0
H287 H 0.72406 0.16151 0.55646 0.0
H288 H 0.74108 0.2172 0.66896 0.0
H289 H 0.71704 0.18644 0.61178 0.0
H290 H 0.72409 0.1223 0.67483 0.0
H291 H 0.74881 0.15336 0.73203 0.0
C292 C 0.65761 0.08752 0.58483 0.0
C293 C 0.66223 0.09674 0.54388 0.0
C294 C 0.67655 0.10501 0.61556 0.0
C295 C 0.70041 0.13212 0.606 0.0
C296 C 0.70565 0.1409 0.56489 0.0
C297 C 0.68686 0.12342 0.53423 0.0
C298 C 0.73845 0.1969 0.67024 0.0
C299 C 0.74685 0.1878 0.7053 0.0
C300 C 0.72447 0.17916 0.63744 0.0
C301 C 0.71837 0.15181 0.63892 0.0
C302 C 0.72802 0.1431 0.67307 0.0
C303 C 0.74224 0.16093 0.70578 0.0
H304 H 0.60807 0.61947 0.06633 0.0
H305 H 0.59913 0.64954 0.94824 0.0
H306 H 0.61046 0.65927 0.09851 0.0
H307 H 0.60069 0.68917 -0.01927 0.0
H308 H 0.55699 0.71743 0.09727 0.0
H309 H 0.56011 0.68688 0.04822 0.0
H310 H 0.6524 0.71892 0.08306 0.0
H311 H 0.64978 0.75012 0.13093 0.0
C312 C 0.60656 0.63461 0.04736 0.0
C313 C 0.60348 0.63155 0.00491 0.0
C314 C 0.60806 0.65736 0.06565 0.0
C315 C 0.60586 0.67719 0.04194 0.0
C316 C 0.60254 0.67414 -0.00051 0.0
C317 C 0.60177 0.65164 -0.01898 0.0
C318 C 0.57837 0.71895 0.093 0.0
C319 C 0.60304 0.73593 0.11829 0.0
C320 C 0.58007 0.70134 0.06515 0.0
C321 C 0.60637 0.70043 0.06247 0.0
C322 C 0.63185 0.71923 0.08485 0.0
C323 C 0.63032 0.73706 0.11213 0.0
H324 H 0.97838 0.56189 0.53673 0.0
H325 H 0.90362 0.48406 0.49482 0.0
H326 H 0.94453 0.56723 0.58127 0.0
H327 H 0.86958 0.48921 0.53974 0.0
H328 H 0.84352 0.49339 0.67859 0.0
H329 H 0.86728 0.48816 0.61836 0.0
H330 H 0.89879 0.57284 0.58149 0.0
H331 H 0.87467 0.57791 0.64167 0.0
C332 C 0.95459 0.54614 0.5367 0.0
C333 C 0.94362 0.52253 0.51253 0.0
C334 C 0.93518 0.54927 0.56189 0.0
C335 C 0.9044 0.52863 0.56394 0.0
C336 C 0.8932 0.50542 0.53874 0.0
C337 C 0.9126 0.50254 0.51294 0.0
C338 C 0.8547 0.51054 0.65685 0.0
C339 C 0.85726 0.53602 0.66463 0.0
C340 C 0.86825 0.50757 0.62238 0.0
C341 C 0.88507 0.53017 0.59541 0.0
C342 C 0.88609 0.55514 0.60192 0.0
C343 C 0.8721 0.55797 0.63609 0.0
H344 H 0.49994 0.96428 0.10157 0.0
H345 H 0.41469 0.94571 0.05104 0.0
H346 H 0.4733 0.93192 0.15885 0.0
H347 H 0.3883 0.91396 0.10836 0.0
H348 H 0.35958 0.88501 0.24466 0.0
H349 H 0.38523 0.91725 0.18714 0.0
H350 H 0.43506 0.87751 0.16441 0.0
H351 H 0.40888 0.84489 0.22154 0.0
C352 C 0.47561 0.95369 0.10308 0.0
C353 C 0.45939 0.95756 0.07192 0.0
C354 C 0.46037 0.93498 0.13555 0.0
C355 C 0.42872 0.92033 0.13784 0.0
C356 C 0.41267 0.925 0.10742 0.0
C357 C 0.42781 0.94318 0.07464 0.0
C358 C 0.37557 0.88287 0.22677 0.0
C359 C 0.382 0.86229 0.23705 0.0
C360 C 0.39033 0.90135 0.19407 0.0
C361 C 0.41232 0.90002 0.1716 0.0
C362 C 0.41842 0.87915 0.18151 0.0
C363 C 0.40319 0.86029 0.21374 0.0
H364 H 0.5946 0.42977 0.43477 0.0
H365 H 0.50549 0.41011 0.4674 0.0
H366 H 0.58877 0.39239 0.48001 0.0
H367 H 0.49999 0.37354 0.51359 0.0
H368 H 0.49033 0.30302 0.58634 0.0
H369 H 0.49558 0.32937 0.52394 0.0
H370 H 0.58874 0.38798 0.55363 0.0
H371 H 0.58384 0.3609 0.61503 0.0
C372 C 0.57351 0.41708 0.45087 0.0
C373 C 0.55062 0.4231 0.44789 0.0
C374 C 0.57029 0.39585 0.47715 0.0
C375 C 0.54407 0.38015 0.50084 0.0
C376 C 0.52042 0.38501 0.49566 0.0
C377 C 0.52366 0.40619 0.46948 0.0
C378 C 0.51221 0.321 0.5789 0.0
C379 C 0.53661 0.33001 0.60591 0.0
C380 C 0.51512 0.33631 0.54333 0.0
C381 C 0.54245 0.36102 0.53402 0.0
C382 C 0.56739 0.36898 0.55963 0.0
C383 C 0.56451 0.35362 0.59512 0.0
H384 H 0.58332 0.95459 0.41022 0.0
H385 H 0.64205 1.01188 0.31623 0.0
H386 H 0.58249 0.91672 0.3758 0.0
H387 H 0.63962 0.97379 0.28074 0.0
H388 H 0.64787 0.90531 0.23316 0.0
H389 H 0.65442 0.94132 0.27941 0.0
H390 H 0.56167 0.88887 0.318 0.0
H391 H 0.55582 0.85258 0.27301 0.0
C392 C 0.59616 0.95935 0.38237 0.0
C393 C 0.61264 0.98669 0.3662 0.0
C394 C 0.5954 0.93738 0.36229 0.0
C395 C 0.6109 0.94197 0.32528 0.0
C396 C 0.62774 0.96932 0.30947 0.0
C397 C 0.62875 0.99131 0.3297 0.0
C398 C 0.62918 0.90132 0.25237 0.0
C399 C 0.60138 0.87617 0.24958 0.0
C400 C 0.63276 0.92206 0.27854 0.0
C401 C 0.60842 0.91837 0.30204 0.0
C402 C 0.58106 0.89252 0.30079 0.0
C403 C 0.57764 0.87161 0.27501 0.0
H404 H 0.61436 0.46988 0.01648 0.0
H405 H 0.62894 0.54953 -0.02066 0.0
H406 H 0.65019 0.47438 0.96473 0.0
H407 H 0.66424 0.55395 0.92679 0.0
H408 H 0.74723 0.56671 0.86462 0.0
H409 H 0.71536 0.56019 0.92323 0.0
H410 H 0.65368 0.47516 0.88889 0.0
H411 H 0.68582 0.48162 0.83077 0.0
C412 C 0.62505 0.48825 -0.00313 0.0
C413 C 0.61843 0.50914 0.0011 0.0
C414 C 0.64548 0.49079 0.96726 0.0
C415 C 0.66014 0.51457 0.94183 0.0
C416 C 0.65354 0.53551 0.94622 0.0
C417 C 0.63289 0.5328 -0.02435 0.0
C418 C 0.7275 0.54634 0.87057 0.0
C419 C 0.71903 0.52464 0.84329 0.0
C420 C 0.70897 0.54275 0.90365 0.0
C421 C 0.68177 0.51732 0.9102 0.0
C422 C 0.67452 0.49497 0.88471 0.0
C423 C 0.69295 0.49862 0.85155 0.0
H424 H 0.094 0.5995 0.46564 0.0
H425 H 0.15774 0.58394 0.52635 0.0
H426 H 0.13492 0.64377 0.44035 0.0
H427 H 0.19906 0.62915 0.50221 0.0
H428 H 0.2597 0.68668 0.39434 0.0
H429 H 0.22431 0.64922 0.43989 0.0
H430 H 0.1737 0.68955 0.45121 0.0
H431 H 0.20847 0.72618 0.4039 0.0
C432 C 0.11676 0.6058 0.47443 0.0
C433 C 0.12251 0.58793 0.49773 0.0
C434 C 0.14039 0.63148 0.46014 0.0
C435 C 0.17055 0.64025 0.46902 0.0
C436 C 0.17622 0.62298 0.49416 0.0
C437 C 0.15249 0.5971 0.50826 0.0
C438 C 0.2416 0.68796 0.40779 0.0
C439 C 0.23675 0.70924 0.39564 0.0
C440 C 0.22118 0.66643 0.43391 0.0
C441 C 0.19561 0.6659 0.44873 0.0
C442 C 0.19257 0.68875 0.43955 0.0
C443 C 0.2127 0.71 0.41293 0.0
H444 H 0.52432 0.0939 0.91069 0.0
H445 H 0.43167 0.03842 0.87542 0.0
H446 H 0.52543 0.13153 0.87183 0.0
H447 H 0.43275 0.0762 0.83652 0.0
H448 H 0.51508 0.19859 0.80972 0.0
H449 H 0.50629 0.16317 0.86185 0.0
H450 H 0.45833 0.09902 0.77293 0.0
H451 H 0.46673 0.13409 0.72173 0.0
C452 C 0.50392 0.08986 0.89552 0.0
C453 C 0.47797 0.063 0.89575 0.0
C454 C 0.50456 0.11152 0.87327 0.0
C455 C 0.47927 0.1068 0.85077 0.0
C456 C 0.45278 0.08037 0.85298 0.0
C457 C 0.45216 0.05871 0.87517 0.0
C458 C 0.50223 0.17685 0.80181 0.0
C459 C 0.49186 0.169 0.76175 0.0
C460 C 0.49735 0.15663 0.83143 0.0
C461 C 0.48165 0.12829 0.8215 0.0
C462 C 0.47015 0.12057 0.78182 0.0
C463 C 0.47523 0.14067 0.75235 0.0
H464 H 0.46644 0.48325 0.40262 0.0
H465 H 0.48202 0.55632 0.46448 0.0
H466 H 0.42316 0.47948 0.36853 0.0
H467 H 0.4376 0.55193 0.43136 0.0
H468 H 0.39494 0.56071 0.30927 0.0
H469 H 0.42608 0.56056 0.36498 0.0
H470 H 0.37417 0.47072 0.36761 0.0
H471 H 0.34413 0.4712 0.31031 0.0
C472 C 0.46018 0.49815 0.40981 0.0
C473 C 0.47807 0.52034 0.43589 0.0
C474 C 0.43501 0.49584 0.39042 0.0
C475 C 0.42676 0.51552 0.39679 0.0
C476 C 0.44351 0.53667 0.42506 0.0
C477 C 0.4689 0.53908 0.44433 0.0
C478 C 0.38948 0.54098 0.32292 0.0
C479 C 0.36723 0.51598 0.30549 0.0
C480 C 0.4074 0.54082 0.3549 0.0
C481 C 0.40323 0.5156 0.37038 0.0
C482 C 0.37869 0.49056 0.35575 0.0
C483 C 0.36112 0.49076 0.32334 0.0
H484 H 0.97794 0.40674 0.04082 0.0
H485 H 0.93909 0.45129 -0.01252 0.0
H486 H 0.94255 0.36559 0.00231 0.0
H487 H 0.90442 0.41069 0.9483 0.0
H488 H 0.83866 0.33526 0.88681 0.0
H489 H 0.86215 0.36296 0.94733 0.0
H490 H 0.93959 0.35559 0.92975 0.0
H491 H 0.91565 0.32723 0.87011 0.0
C492 C 0.96146 0.40757 0.02153 0.0
C493 C 0.96153 0.43237 0.01677 0.0
C494 C 0.94133 0.38407 -0.00075 0.0
C495 C 0.92072 0.38484 -0.02795 0.0
C496 C 0.9197 0.40917 -0.03073 0.0
C497 C 0.93986 0.43262 -0.00869 0.0
C498 C 0.86011 0.33855 0.89692 0.0
C499 C 0.87551 0.32939 0.87344 0.0
C500 C 0.87376 0.35473 0.9313 0.0
C501 C 0.90304 0.36204 0.94284 0.0
C502 C 0.91703 0.35039 0.92182 0.0
C503 C 0.90339 0.33422 0.88748 0.0
H504 H 1.00182 0.53908 0.90839 0.0
H505 H 0.96295 0.56379 0.00144 0.0
H506 H 0.9659 0.53805 0.85862 0.0
H507 H 0.92722 0.56275 0.95186 0.0
H508 H 0.88998 0.58526 0.83738 0.0
H509 H 0.92553 0.58728 0.88835 0.0
H510 H 0.90979 0.50864 0.84782 0.0
H511 H 0.87368 0.50617 0.79759 0.0
C512 C 0.98587 0.54459 0.91811 0.0
C513 C 0.98524 0.55149 0.95887 0.0
C514 C 0.96512 0.54375 0.88973 0.0
C515 C 0.94357 0.55015 0.90139 0.0
C516 C 0.9436 0.55785 0.94185 0.0
C517 C 0.96405 0.55836 -0.02972 0.0
C518 C 0.89352 0.56807 0.83991 0.0
C519 C 0.87896 0.5456 0.81314 0.0
C520 C 0.9141 0.56935 0.86894 0.0
C521 C 0.92082 0.54832 0.8717 0.0
C522 C 0.90561 0.52547 0.84585 0.0
C523 C 0.88483 0.52404 0.81714 0.0
H524 H 0.52361 0.95258 0.47758 0.0
H525 H 0.46732 0.98354 0.51374 0.0
H526 H 0.47959 0.9104 0.45364 0.0
H527 H 0.42287 0.94069 0.49083 0.0
H528 H 0.39962 0.83519 0.41081 0.0
H529 H 0.43254 0.8679 0.46233 0.0
H530 H 0.40501 0.92484 0.42378 0.0
H531 H 0.3713 0.89167 0.37382 0.0
C532 C 0.50172 0.95006 0.48159 0.0
C533 C 0.49912 0.97174 0.49684 0.0
C534 C 0.47631 0.92565 0.46806 0.0
C535 C 0.44759 0.9222 0.46967 0.0
C536 C 0.4447 0.94287 0.48831 0.0
C537 C 0.47019 0.9674 0.50168 0.0
C538 C 0.39972 0.85421 0.41452 0.0
C539 C 0.38323 0.86107 0.38782 0.0
C540 C 0.4189 0.87315 0.4437 0.0
C541 C 0.42203 0.89934 0.44668 0.0
C542 C 0.40325 0.90493 0.42262 0.0
C543 C 0.38404 0.88598 0.39363 0.0
H544 H 0.54119 0.4262 0.9207 0.0
H545 H 0.59536 0.47862 0.82014 0.0
H546 H 0.53711 0.38587 0.88788 0.0
H547 H 0.59058 0.4386 0.7868 0.0
H548 H 0.59133 0.36696 0.73887 0.0
H549 H 0.60311 0.40369 0.78695 0.0
H550 H 0.51087 0.35796 0.82917 0.0
H551 H 0.49942 0.32101 0.7817 0.0
C552 C 0.55253 0.42917 0.89188 0.0
C553 C 0.56822 0.45553 0.87272 0.0
C554 C 0.55 0.40603 0.87288 0.0
C555 C 0.56333 0.40885 0.8345 0.0
C556 C 0.58023 0.43553 0.81647 0.0
C557 C 0.58264 0.45851 0.83533 0.0
C558 C 0.57379 0.36451 0.75914 0.0
C559 C 0.54441 0.34122 0.75629 0.0
C560 C 0.58045 0.38563 0.78651 0.0
C561 C 0.55782 0.38411 0.81146 0.0
C562 C 0.52895 0.35982 0.81068 0.0
C563 C 0.52234 0.33858 0.78345 0.0
H564 H 0.07304 0.46569 0.33323 0.0
H565 H 0.13165 0.51042 0.43389 0.0
H566 H 0.11541 0.46965 0.29667 0.0
H567 H 0.17422 0.51426 0.39732 0.0
H568 H 0.24516 0.54624 0.29069 0.0
H569 H 0.2056 0.5381 0.33854 0.0
H570 H 0.15012 0.4541 0.29572 0.0
H571 H 0.18942 0.46266 0.24725 0.0
C572 C 0.09488 0.47602 0.34786 0.0
C573 C 0.09884 0.48775 0.38651 0.0
C574 C 0.11926 0.47822 0.32693 0.0
C575 C 0.1483 0.49212 0.34412 0.0
C576 C 0.15226 0.50366 0.38298 0.0
C577 C 0.12783 0.5015 0.40391 0.0
C578 C 0.22489 0.52578 0.29254 0.0
C579 C 0.22025 0.5051 0.26522 0.0
C580 C 0.20213 0.52111 0.31984 0.0
C581 C 0.17436 0.4956 0.32042 0.0
C582 C 0.17087 0.47422 0.29536 0.0
C583 C 0.19349 0.47897 0.26794 0.0
H584 H 0.57819 0.0992 0.9004 0.0
H585 H 0.62453 0.07734 -0.01125 0.0
H586 H 0.62549 0.14103 0.88137 0.0
H587 H 0.67259 0.11942 0.9691 0.0
H588 H 0.74183 0.16193 0.85551 0.0
H589 H 0.70112 0.13027 0.90169 0.0
H590 H 0.66934 0.18696 0.90296 0.0
H591 H 0.70995 0.21851 0.85647 0.0
C592 C 0.59852 0.10381 0.91648 0.0
C593 C 0.59781 0.08513 0.94597 0.0
C594 C 0.62563 0.12787 0.90577 0.0
C595 C 0.65284 0.13357 0.92371 0.0
C596 C 0.65196 0.11555 0.95478 0.0
C597 C 0.62453 0.09161 0.96618 0.0
C598 C 0.72673 0.16803 0.86679 0.0
C599 C 0.72888 0.19254 0.85206 0.0
C600 C 0.70349 0.14997 0.89342 0.0
C601 C 0.68178 0.15595 0.90555 0.0
C602 C 0.68559 0.18169 0.89382 0.0
C603 C 0.709 0.19986 0.86744 0.0
H604 H 0.64491 0.64532 0.38336 0.0
H605 H 0.5535 0.59619 0.33972 0.0
H606 H 0.6467 0.68771 0.36179 0.0
H607 H 0.55535 0.63827 0.31713 0.0
H608 H 0.55676 0.71404 0.28877 0.0
H609 H 0.55749 0.67984 0.33448 0.0
H610 H 0.64958 0.71057 0.29928 0.0
H611 H 0.6492 0.74555 0.25549 0.0
C612 C 0.62526 0.6436 0.36891 0.0
C613 C 0.59916 0.61744 0.36276 0.0
C614 C 0.62621 0.66788 0.35672 0.0
C615 C 0.60117 0.66652 0.33774 0.0
C616 C 0.57486 0.64028 0.33246 0.0
C617 C 0.57384 0.61608 0.34503 0.0
C618 C 0.57757 0.71432 0.29233 0.0
C619 C 0.60277 0.73212 0.26806 0.0
C620 C 0.57785 0.69438 0.31796 0.0
C621 C 0.60325 0.6918 0.31955 0.0
C622 C 0.62955 0.71177 0.29884 0.0
C623 C 0.62935 0.73183 0.27356 0.0
H624 H 0.52715 0.11619 0.45032 0.0
H625 H 0.59412 0.12814 0.53987 0.0
H626 H 0.51827 0.1484 0.48653 0.0
H627 H 0.58409 0.15891 0.57714 0.0
H628 H 0.57279 0.22262 0.6334 0.0
H629 H 0.58776 0.20218 0.58076 0.0
H630 H 0.49419 0.14786 0.54792 0.0
H631 H 0.47978 0.16928 0.59937 0.0
C632 C 0.54018 0.1258 0.47748 0.0
C633 C 0.56111 0.11917 0.49233 0.0
C634 C 0.53487 0.14412 0.49852 0.0
C635 C 0.55029 0.15625 0.53499 0.0
C636 C 0.57199 0.15036 0.54894 0.0
C637 C 0.5774 0.13222 0.52785 0.0
C638 C 0.55571 0.20712 0.61363 0.0
C639 C 0.52525 0.19772 0.61981 0.0
C640 C 0.56414 0.19506 0.58393 0.0
C641 C 0.54217 0.17296 0.56044 0.0
C642 C 0.51182 0.16496 0.56498 0.0
C643 C 0.50347 0.17724 0.59439 0.0
H644 H 0.48124 0.52541 -0.00641 0.0
H645 H 0.46918 0.45781 0.07188 0.0
H646 H 0.44199 0.52699 0.03173 0.0
H647 H 0.43056 0.45992 0.11006 0.0
H648 H 0.4194 0.51925 0.19977 0.0
H649 H 0.44749 0.50999 0.15115 0.0
H650 H 0.37887 0.48938 0.06034 0.0
H651 H 0.34908 0.49703 0.1103 0.0
C652 C 0.46979 0.51049 0.01825 0.0
C653 C 0.47862 0.49169 0.02998 0.0
C654 C 0.44724 0.51133 0.03985 0.0
C655 C 0.43341 0.4936 0.07373 0.0
C656 C 0.4409 0.47374 0.08391 0.0
C657 C 0.46307 0.47261 0.06205 0.0
C658 C 0.40958 0.51198 0.16995 0.0
C659 C 0.38132 0.50806 0.15958 0.0
C660 C 0.42596 0.50695 0.14196 0.0
C661 C 0.41509 0.4986 0.10236 0.0
C662 C 0.38752 0.49563 0.09095 0.0
C663 C 0.37062 0.50013 0.11947 0.0
H664 H 1.01115 0.41455 0.56369 0.0
H665 H 0.99345 0.47668 0.6048 0.0
H666 H 0.97594 0.38164 0.61449 0.0
H667 H 0.95774 0.44364 0.65471 0.0
H668 H 0.91739 0.38737 0.76566 0.0
H669 H 0.95422 0.41967 0.71661 0.0
H670 H 0.92249 0.35387 0.62927 0.0
H671 H 0.88626 0.32091 0.67966 0.0
C672 C 0.99993 0.42128 0.58375 0.0
C673 C 1.00528 0.44835 0.58022 0.0
C674 C 0.97946 0.40227 0.61259 0.0
C675 C 0.96377 0.40983 0.63861 0.0
C676 C 0.96964 0.43711 0.6356 0.0
C677 C 0.99017 0.45613 0.6069 0.0
C678 C 0.91849 0.37957 0.73624 0.0
C679 C 0.89913 0.35135 0.72691 0.0
C680 C 0.93941 0.39828 0.7078 0.0
C681 C 0.94145 0.38949 0.66886 0.0
C682 C 0.92185 0.36132 0.65918 0.0
C683 C 0.90086 0.34247 0.68786 0.0
H684 H 0.59344 0.9744 0.01071 0.0
H685 H 0.5331 0.9064 0.93367 0.0
H686 H 0.60918 0.94551 0.04422 0.0
H687 H 0.54972 0.87736 0.96629 0.0
H688 H 0.54403 0.83029 0.09006 0.0
H689 H 0.53923 0.85577 0.03297 0.0
H690 H 0.63332 0.91971 0.04452 0.0
H691 H 0.63774 0.89437 0.10273 0.0
C692 C 0.58398 0.95335 0.00041 0.0
C693 C 0.56155 0.94245 -0.02973 0.0
C694 C 0.59335 0.93683 0.0192 0.0
C695 C 0.58056 0.90894 0.00822 0.0
C696 C 0.55973 0.89864 -0.02417 0.0
C697 C 0.55036 0.91529 0.95694 0.0
C698 C 0.56397 0.84926 0.07944 0.0
C699 C 0.59115 0.8606 0.10117 0.0
C700 C 0.56125 0.86392 0.04657 0.0
C701 C 0.58574 0.89013 0.03465 0.0
C702 C 0.61381 0.89992 0.0536 0.0
C703 C 0.61643 0.88539 0.08676 0.0
H704 H 0.63245 0.5496 0.51464 0.0
H705 H 0.5628 0.49425 0.59984 0.0
H706 H 0.6709 0.55561 0.56355 0.0
H707 H 0.60151 0.50064 0.64896 0.0
H708 H 0.67991 0.54622 0.73964 0.0
H709 H 0.64288 0.54149 0.68969 0.0
H710 H 0.68847 0.52421 0.59673 0.0
H711 H 0.72542 0.52799 0.64748 0.0
C712 C 0.6253 0.53895 0.54398 0.0
C713 C 0.59448 0.52152 0.55344 0.0
C714 C 0.64738 0.54221 0.57176 0.0
C715 C 0.63918 0.52849 0.60986 0.0
C716 C 0.60843 0.51155 0.61977 0.0
C717 C 0.58629 0.50792 0.59171 0.0
C718 C 0.68193 0.541 0.70871 0.0
C719 C 0.70526 0.53676 0.6978 0.0
C720 C 0.66072 0.53842 0.6801 0.0
C721 C 0.66256 0.5321 0.63956 0.0
C722 C 0.68656 0.52906 0.62792 0.0
C723 C 0.70771 0.53129 0.65686 0.0
H724 H 0.13999 0.62882 0.08438 0.0
H725 H 0.08063 0.62319 0.18035 0.0
H726 H 0.18207 0.66806 0.11772 0.0
H727 H 0.12298 0.66109 0.21488 0.0
H728 H 0.19868 0.73628 0.26752 0.0
H729 H 0.15951 0.70845 0.21786 0.0
H730 H 0.2129 0.67594 0.17488 0.0
H731 H 0.2524 0.70482 0.22317 0.0
C732 C 0.13565 0.63588 0.11238 0.0
C733 C 0.10659 0.62226 0.12971 0.0
C734 C 0.16005 0.65837 0.13181 0.0
C735 C 0.15619 0.66779 0.16928 0.0
C736 C 0.12698 0.65482 0.18583 0.0
C737 C 0.10257 0.63256 0.16623 0.0
C738 C 0.20236 0.7239 0.24634 0.0
C739 C 0.2285 0.72268 0.24907 0.0
C740 C 0.17977 0.70763 0.21827 0.0
C741 C 0.18258 0.68933 0.19288 0.0
C742 C 0.20986 0.68983 0.19358 0.0
C743 C 0.23264 0.70645 0.22125 0.0
loop_
_geom_bond_atom_site_label_1
_geom_bond_atom_site_label_2
_geom_bond_distance
_geom_bond_site_symmetry_2
_ccdc_geom_bond_type
Cu0 N1 1.999 1_454 S
Cu0 O6 1.974 1_454 S
Cu0 N11 1.985 . S
Cu0 O20 1.959 . S
N1 Cu0 1.999 1_656 S
N1 C3 1.263 . S
N1 C5 1.389 1_556 S
N2 C3 1.358 . S
N2 C4 1.400 . S
C3 N1 1.263 . S
C3 N2 1.358 . S
C3 H9 0.930 . S
C4 N2 1.400 . S
C4 C5 1.351 1_556 S
C4 H21 0.932 . S
C5 N1 1.389 1_554 S
C5 C4 1.351 1_554 S
C5 H10 0.930 . S
O6 Cu0 1.974 1_656 S
O6 C16 1.282 . S
C7 O8 1.261 1_554 S
C7 O20 1.251 . S
O8 C7 1.261 1_556 S
H9 C3 0.930 . S
H10 C5 0.930 . S
N11 Cu0 1.985 . S
N11 C13 1.335 . S
N11 C14 1.390 . S
N12 C13 1.345 . S
N12 C15 1.336 . S
C13 N11 1.335 . S
C13 N12 1.345 . S
C13 H18 0.930 . S
C14 N11 1.390 . S
C14 C15 1.346 . S
C14 H19 0.930 1_554 S
C15 N12 1.336 . S
C15 C14 1.346 . S
C15 H22 0.929 . S
C16 O6 1.282 . S
C16 O17 1.216 1_655 S
O17 C16 1.216 1_455 S
H18 C13 0.930 . S
H19 C14 0.930 1_556 S
O20 Cu0 1.959 . S
O20 C7 1.251 . S
H21 C4 0.932 . S
H22 C15 0.929 . S
Cu23 N24 1.999 . S
Cu23 O29 1.974 . S
Cu23 N34 1.985 1_565 S
Cu23 O43 1.959 1_565 S
N24 Cu23 1.999 . S
N24 C26 1.263 . S
N24 C28 1.389 . S
N25 C26 1.358 . S
N25 C27 1.400 . S
C26 N24 1.263 . S
C26 N25 1.358 . S
C26 H32 0.930 . S
C27 N25 1.400 . S
C27 C28 1.351 . S
C27 H44 0.930 . S
C28 N24 1.389 . S
C28 C27 1.351 . S
C28 H33 0.930 . S
O29 Cu23 1.974 . S
O29 C39 1.282 . S
C30 O31 1.261 . S
C30 O43 1.251 . S
O31 C30 1.261 . S
H32 C26 0.930 . S
H33 C28 0.930 . S
N34 Cu23 1.985 1_545 S
N34 C36 1.335 . S
N34 C37 1.390 . S
N35 C36 1.345 . S
N35 C38 1.336 . S
C36 N34 1.335 . S
C36 N35 1.345 . S
C36 H41 0.930 . S
C37 N34 1.390 . S
C37 C38 1.346 . S
C37 H42 0.930 . S
C38 N35 1.336 . S
C38 C37 1.346 . S
C38 H45 0.929 . S
C39 O29 1.282 . S
C39 O40 1.216 . S
O40 C39 1.216 . S
H41 C36 0.930 . S
H42 C37 0.930 . S
O43 Cu23 1.959 1_545 S
O43 C30 1.251 . S
H44 C27 0.930 . S
H45 C38 0.929 . S
Cu46 N47 1.999 1_554 S
Cu46 O52 1.974 1_554 S
Cu46 N57 1.985 . S
Cu46 O66 1.959 . S
N47 Cu46 1.999 1_556 S
N47 C49 1.263 . S
N47 C51 1.389 . S
N48 C49 1.358 . S
N48 C50 1.400 . S
C49 N47 1.263 . S
C49 N48 1.358 . S
C49 H55 0.930 . S
C50 N48 1.400 . S
C50 C51 1.351 . S
C50 H67 0.930 . S
C51 N47 1.389 . S
C51 C50 1.351 . S
C51 H56 0.930 . S
O52 Cu46 1.974 1_556 S
O52 C62 1.282 . S
C53 O54 1.261 . S
C53 O66 1.251 . S
O54 C53 1.261 . S
H55 C49 0.930 . S
H56 C51 0.930 . S
N57 Cu46 1.985 . S
N57 C59 1.335 . S
N57 C60 1.390 . S
N58 C59 1.345 . S
N58 C61 1.336 . S
C59 N57 1.335 . S
C59 N58 1.345 . S
C59 H64 0.930 . S
C60 N57 1.390 . S
C60 C61 1.346 . S
C60 H65 0.930 . S
C61 N58 1.336 . S
C61 C60 1.346 . S
C61 H68 0.929 . S
C62 O52 1.282 . S
C62 O63 1.216 1_556 S
O63 C62 1.216 1_554 S
H64 C59 0.930 . S
H65 C60 0.930 . S
O66 Cu46 1.959 . S
O66 C53 1.251 . S
H67 C50 0.930 . S
H68 C61 0.929 . S
Cu69 N70 1.999 1_655 S
Cu69 O75 1.974 1_655 S
Cu69 N80 1.985 . S
Cu69 O89 1.959 . S
N70 Cu69 1.999 1_455 S
N70 C72 1.263 . S
N70 C74 1.389 1_455 S
N71 C72 1.358 . S
N71 C73 1.400 . S
C72 N70 1.263 . S
C72 N71 1.358 . S
C72 H78 0.930 . S
C73 N71 1.400 . S
C73 C74 1.351 1_455 S
C73 H90 0.930 . S
C74 N70 1.389 1_655 S
C74 C73 1.351 1_655 S
C74 H79 0.930 . S
O75 Cu69 1.974 1_455 S
O75 C85 1.282 . S
C76 O77 1.261 . S
C76 O89 1.251 . S
O77 C76 1.261 . S
H78 C72 0.930 . S
H79 C74 0.930 . S
N80 Cu69 1.985 . S
N80 C82 1.335 . S
N80 C83 1.390 . S
N81 C82 1.345 . S
N81 C84 1.336 . S
C82 N80 1.335 . S
C82 N81 1.345 . S
C82 H87 0.930 . S
C83 N80 1.390 . S
C83 C84 1.346 . S
C83 H88 0.930 1_655 S
C84 N81 1.336 . S
C84 C83 1.346 . S
C84 H91 0.929 . S
C85 O75 1.282 . S
C85 O86 1.216 . S
O86 C85 1.216 . S
H87 C82 0.930 . S
H88 C83 0.930 1_455 S
O89 Cu69 1.959 . S
O89 C76 1.251 . S
H90 C73 0.930 . S
H91 C84 0.929 . S
Cu92 N93 1.999 . S
Cu92 O98 1.974 . S
Cu92 N103 1.985 1_545 S
Cu92 O112 1.959 1_545 S
N93 Cu92 1.999 . S
N93 C95 1.263 1_554 S
N93 C97 1.389 . S
N94 C95 1.358 . S
N94 C96 1.400 1_556 S
C95 N93 1.263 1_556 S
C95 N94 1.358 . S
C95 H101 0.930 . S
C96 N94 1.400 1_554 S
C96 C97 1.351 . S
C96 H113 0.930 . S
C97 N93 1.389 . S
C97 C96 1.351 . S
C97 H102 0.930 . S
O98 Cu92 1.974 . S
O98 C108 1.282 1_554 S
C99 O100 1.261 . S
C99 O112 1.251 . S
O100 C99 1.261 . S
H101 C95 0.930 . S
H102 C97 0.930 . S
N103 Cu92 1.985 1_565 S
N103 C105 1.335 . S
N103 C106 1.390 . S
N104 C105 1.345 . S
N104 C107 1.336 . S
C105 N103 1.335 . S
C105 N104 1.345 . S
C105 H110 0.930 . S
C106 N103 1.390 . S
C106 C107 1.346 . S
C106 H111 0.930 1_565 S
C107 N104 1.336 . S
C107 C106 1.346 . S
C107 H114 0.929 . S
C108 O98 1.282 1_556 S
C108 O109 1.216 . S
O109 C108 1.216 . S
H110 C105 0.930 . S
H111 C106 0.930 1_545 S
O112 Cu92 1.959 1_565 S
O112 C99 1.251 . S
H113 C96 0.930 . S
H114 C107 0.929 . S
Cu115 N116 1.999 . S
Cu115 O121 1.974 . S
Cu115 N126 1.985 . S
Cu115 O135 1.959 . S
N116 Cu115 1.999 . S
N116 C118 1.263 . S
N116 C120 1.389 . S
N117 C118 1.358 . S
N117 C119 1.400 . S
C118 N116 1.263 . S
C118 N117 1.358 . S
C118 H124 0.930 . S
C119 N117 1.400 . S
C119 C120 1.351 . S
C119 H136 0.930 . S
C120 N116 1.389 . S
C120 C119 1.351 . S
C120 H125 0.930 . S
O121 Cu115 1.974 . S
O121 C131 1.282 . S
C122 O123 1.261 . S
C122 O135 1.251 . S
O123 C122 1.261 . S
H124 C118 0.930 . S
H125 C120 0.930 . S
N126 Cu115 1.985 . S
N126 C128 1.335 . S
N126 C129 1.390 . S
N127 C128 1.345 . S
N127 C130 1.336 . S
C128 N126 1.335 . S
C128 N127 1.345 . S
C128 H133 0.930 . S
C129 N126 1.390 . S
C129 C130 1.346 . S
C129 H134 0.930 . S
C130 N127 1.336 . S
C130 C129 1.346 . S
C130 H137 0.929 . S
C131 O121 1.282 . S
C131 O132 1.216 . S
O132 C131 1.216 . S
H133 C128 0.930 . S
H134 C129 0.930 . S
O135 Cu115 1.959 . S
O135 C122 1.251 . S
H136 C119 0.930 . S
H137 C130 0.929 . S
H138 C146 0.930 . S
H139 C149 0.930 . S
H140 C151 0.930 . S
H141 C152 0.970 . S
H142 C152 0.970 . S
H143 C154 0.930 . S
H144 C156 0.930 . S
H145 C158 0.930 . S
C146 H138 0.930 . S
C146 C147 1.382 . S
C146 C148 1.426 . S
C147 C146 1.382 . S
C147 C151 1.389 . S
C148 C146 1.426 . S
C148 C149 1.375 . S
C148 C152 1.532 . S
C149 H139 0.930 . S
C149 C148 1.375 . S
C149 C150 1.416 . S
C150 C149 1.416 . S
C150 C151 1.371 . S
C151 H140 0.930 . S
C151 C147 1.389 . S
C151 C150 1.371 . S
C152 H141 0.970 . S
C152 H142 0.970 . S
C152 C148 1.532 . S
C152 C153 1.499 . S
C153 C152 1.499 . S
C153 C154 1.370 . S
C153 C158 1.415 . S
C154 H143 0.930 . S
C154 C153 1.370 . S
C154 C155 1.407 . S
C155 C154 1.407 . S
C155 C156 1.365 . S
C156 H144 0.930 . S
C156 C155 1.365 . S
C156 C157 1.393 . S
C157 C156 1.393 . S
C157 C158 1.387 . S
C158 H145 0.930 . S
C158 C153 1.415 . S
C158 C157 1.387 . S
H159 C167 0.930 . S
H160 C170 0.930 . S
H161 C172 0.930 . S
H162 C173 0.970 . S
H163 C173 0.970 . S
H164 C175 0.930 . S
H165 C177 0.930 . S
H166 C179 0.930 . S
C167 H159 0.930 . S
C167 C168 1.382 . S
C167 C169 1.426 . S
C168 C167 1.382 . S
C168 C172 1.389 . S
C169 C167 1.426 . S
C169 C170 1.375 . S
C169 C173 1.532 . S
C170 H160 0.930 . S
C170 C169 1.375 . S
C170 C171 1.416 . S
C171 C170 1.416 . S
C171 C172 1.371 . S
C172 H161 0.930 . S
C172 C168 1.389 . S
C172 C171 1.371 . S
C173 H162 0.970 . S
C173 H163 0.970 . S
C173 C169 1.532 . S
C173 C174 1.499 . S
C174 C173 1.499 . S
C174 C175 1.370 . S
C174 C179 1.415 . S
C175 H164 0.930 . S
C175 C174 1.370 . S
C175 C176 1.407 . S
C176 C175 1.407 . S
C176 C177 1.365 . S
C177 H165 0.930 . S
C177 C176 1.365 . S
C177 C178 1.393 . S
C178 C177 1.393 . S
C178 C179 1.387 . S
C179 H166 0.930 . S
C179 C174 1.415 . S
C179 C178 1.387 . S
H180 C188 0.930 . S
H181 C191 0.930 . S
H182 C193 0.930 . S
H183 C194 0.970 . S
H184 C194 0.970 . S
H185 C196 0.930 . S
H186 C198 0.930 . S
H187 C200 0.930 . S
C188 H180 0.930 . S
C188 C189 1.382 . S
C188 C190 1.426 . S
C189 C188 1.382 . S
C189 C193 1.389 . S
C190 C188 1.426 . S
C190 C191 1.375 . S
C190 C194 1.532 . S
C191 H181 0.930 . S
C191 C190 1.375 . S
C191 C192 1.416 . S
C192 C191 1.416 . S
C192 C193 1.371 . S
C193 H182 0.930 . S
C193 C189 1.389 . S
C193 C192 1.371 . S
C194 H183 0.970 . S
C194 H184 0.970 . S
C194 C190 1.532 . S
C194 C195 1.499 . S
C195 C194 1.499 . S
C195 C196 1.370 . S
C195 C200 1.415 . S
C196 H185 0.930 . S
C196 C195 1.370 . S
C196 C197 1.407 . S
C197 C196 1.407 . S
C197 C198 1.365 . S
C198 H186 0.930 . S
C198 C197 1.365 . S
C198 C199 1.393 . S
C199 C198 1.393 . S
C199 C200 1.387 . S
C200 H187 0.930 . S
C200 C195 1.415 . S
C200 C199 1.387 . S
H201 C209 0.930 . S
H202 C212 0.930 . S
H203 C214 0.930 . S
H204 C215 0.970 . S
H205 C215 0.970 . S
H206 C217 0.930 . S
H207 C219 0.930 . S
H208 C221 0.930 . S
C209 H201 0.930 . S
C209 C210 1.382 . S
C209 C211 1.426 . S
C210 C209 1.382 . S
C210 C214 1.389 . S
C211 C209 1.426 . S
C211 C212 1.375 . S
C211 C215 1.532 . S
C212 H202 0.930 . S
C212 C211 1.375 . S
C212 C213 1.416 . S
C213 C212 1.416 . S
C213 C214 1.371 . S
C214 H203 0.930 . S
C214 C210 1.389 . S
C214 C213 1.371 . S
C215 H204 0.970 . S
C215 H205 0.970 . S
C215 C211 1.532 . S
C215 C216 1.499 . S
C216 C215 1.499 . S
C216 C217 1.370 . S
C216 C221 1.415 . S
C217 H206 0.930 . S
C217 C216 1.370 . S
C217 C218 1.407 . S
C218 C217 1.407 . S
C218 C219 1.365 . S
C219 H207 0.930 . S
C219 C218 1.365 . S
C219 C220 1.393 . S
C220 C219 1.393 . S
C220 C221 1.387 . S
C221 H208 0.930 . S
C221 C216 1.415 . S
C221 C220 1.387 . S
H222 C230 0.930 . S
H223 C233 0.930 . S
H224 C235 0.930 . S
H225 C236 0.970 . S
H226 C236 0.970 . S
H227 C238 0.930 . S
H228 C240 0.930 . S
H229 C242 0.930 . S
C230 H222 0.930 . S
C230 C231 1.382 . S
C230 C232 1.426 . S
C231 C230 1.382 . S
C231 C235 1.389 . S
C232 C230 1.426 . S
C232 C233 1.375 . S
C232 C236 1.532 . S
C233 H223 0.930 . S
C233 C232 1.375 . S
C233 C234 1.416 . S
C234 C233 1.416 . S
C234 C235 1.371 . S
C235 H224 0.930 . S
C235 C231 1.389 . S
C235 C234 1.371 . S
C236 H225 0.970 . S
C236 H226 0.970 . S
C236 C232 1.532 . S
C236 C237 1.499 . S
C237 C236 1.499 . S
C237 C238 1.370 . S
C237 C242 1.415 . S
C238 H227 0.930 . S
C238 C237 1.370 . S
C238 C239 1.407 . S
C239 C238 1.407 . S
C239 C240 1.365 . S
C240 H228 0.930 . S
C240 C239 1.365 . S
C240 C241 1.393 . S
C241 C240 1.393 . S
C241 C242 1.387 . S
C242 H229 0.930 . S
C242 C237 1.415 . S
C242 C241 1.387 . S
H243 C251 0.930 . S
H244 C254 0.930 . S
H245 C256 0.930 . S
H246 C257 0.970 . S
H247 C257 0.970 . S
H248 C259 0.930 . S
H249 C261 0.930 . S
H250 C263 0.930 . S
C251 H243 0.930 . S
C251 C252 1.382 . S
C251 C253 1.426 . S
C252 C251 1.382 . S
C252 C256 1.389 . S
C253 C251 1.426 . S
C253 C254 1.375 . S
C253 C257 1.532 . S
C254 H244 0.930 . S
C254 C253 1.375 . S
C254 C255 1.416 . S
C255 C254 1.416 . S
C255 C256 1.371 . S
C256 H245 0.930 . S
C256 C252 1.389 . S
C256 C255 1.371 . S
C257 H246 0.970 . S
C257 H247 0.970 . S
C257 C253 1.532 . S
C257 C258 1.499 . S
C258 C257 1.499 . S
C258 C259 1.370 . S
C258 C263 1.415 . S
C259 H248 0.930 . S
C259 C258 1.370 . S
C259 C260 1.407 . S
C260 C259 1.407 . S
C260 C261 1.365 . S
C261 H249 0.930 . S
C261 C260 1.365 . S
C261 C262 1.393 . S
C262 C261 1.393 . S
C262 C263 1.387 . S
C263 H250 0.930 . S
C263 C258 1.415 . S
C263 C262 1.387 . S
H264 C272 0.950 . S
H265 C277 0.950 . S
H266 C274 0.950 . S
H267 C276 0.950 . S
H268 C278 0.950 . S
H269 C280 0.950 . S
H270 C282 0.950 . S
H271 C283 0.950 . S
C272 H264 0.950 . S
C272 C273 1.386 . S
C272 C274 1.391 . S
C273 C272 1.386 . S
C273 C277 1.393 . S
C274 H266 0.950 . S
C274 C272 1.391 . S
C274 C275 1.400 . S
C275 C274 1.400 . S
C275 C276 1.398 . S
C275 C281 1.491 . S
C276 H267 0.950 . S
C276 C275 1.398 . S
C276 C277 1.391 . S
C277 H265 0.950 . S
C277 C273 1.393 . S
C277 C276 1.391 . S
C278 H268 0.950 . S
C278 C279 1.386 . S
C278 C280 1.391 . S
C279 C278 1.386 . S
C279 C283 1.393 . S
C280 H269 0.950 . S
C280 C278 1.391 . S
C280 C281 1.400 . S
C281 C275 1.491 . S
C281 C280 1.400 . S
C281 C282 1.398 . S
C282 H270 0.950 . S
C282 C281 1.398 . S
C282 C283 1.391 . S
C283 H271 0.950 . S
C283 C279 1.393 . S
C283 C282 1.391 . S
H284 C292 0.950 . S
H285 C297 0.950 . S
H286 C294 0.950 . S
H287 C296 0.950 . S
H288 C298 0.950 . S
H289 C300 0.950 . S
H290 C302 0.950 . S
H291 C303 0.950 . S
C292 H284 0.950 . S
C292 C293 1.386 . S
C292 C294 1.391 . S
C293 C292 1.386 . S
C293 C297 1.393 . S
C294 H286 0.950 . S
C294 C292 1.391 . S
C294 C295 1.400 . S
C295 C294 1.400 . S
C295 C296 1.398 . S
C295 C301 1.491 . S
C296 H287 0.950 . S
C296 C295 1.398 . S
C296 C297 1.391 . S
C297 H285 0.950 . S
C297 C293 1.393 . S
C297 C296 1.391 . S
C298 H288 0.950 . S
C298 C299 1.386 . S
C298 C300 1.391 . S
C299 C298 1.386 . S
C299 C303 1.393 . S
C300 H289 0.950 . S
C300 C298 1.391 . S
C300 C301 1.400 . S
C301 C295 1.491 . S
C301 C300 1.400 . S
C301 C302 1.398 . S
C302 H290 0.950 . S
C302 C301 1.398 . S
C302 C303 1.391 . S
C303 H291 0.950 . S
C303 C299 1.393 . S
C303 C302 1.391 . S
H304 C312 0.950 . S
H305 C317 0.950 . S
H306 C314 0.950 . S
H307 C316 0.950 . S
H308 C318 0.950 . S
H309 C320 0.950 . S
H310 C322 0.950 . S
H311 C323 0.950 . S
C312 H304 0.950 . S
C312 C313 1.386 . S
C312 C314 1.391 . S
C313 C312 1.386 . S
C313 C317 1.393 . S
C314 H306 0.950 . S
C314 C312 1.391 . S
C314 C315 1.400 . S
C315 C314 1.400 . S
C315 C316 1.398 . S
C315 C321 1.491 . S
C316 H307 0.950 . S
C316 C315 1.398 . S
C316 C317 1.391 . S
C317 H305 0.950 . S
C317 C313 1.393 . S
C317 C316 1.391 . S
C318 H308 0.950 . S
C318 C319 1.386 . S
C318 C320 1.391 . S
C319 C318 1.386 . S
C319 C323 1.393 . S
C320 H309 0.950 . S
C320 C318 1.391 . S
C320 C321 1.400 . S
C321 C315 1.491 . S
C321 C320 1.400 . S
C321 C322 1.398 . S
C322 H310 0.950 . S
C322 C321 1.398 . S
C322 C323 1.391 . S
C323 H311 0.950 . S
C323 C319 1.393 . S
C323 C322 1.391 . S
H324 C332 0.950 . S
H325 C337 0.950 . S
H326 C334 0.950 . S
H327 C336 0.950 . S
H328 C338 0.950 . S
H329 C340 0.950 . S
H330 C342 0.950 . S
H331 C343 0.950 . S
C332 H324 0.950 . S
C332 C333 1.386 . S
C332 C334 1.391 . S
C333 C332 1.386 . S
C333 C337 1.393 . S
C334 H326 0.950 . S
C334 C332 1.391 . S
C334 C335 1.400 . S
C335 C334 1.400 . S
C335 C336 1.398 . S
C335 C341 1.491 . S
C336 H327 0.950 . S
C336 C335 1.398 . S
C336 C337 1.391 . S
C337 H325 0.950 . S
C337 C333 1.393 . S
C337 C336 1.391 . S
C338 H328 0.950 . S
C338 C339 1.386 . S
C338 C340 1.391 . S
C339 C338 1.386 . S
C339 C343 1.393 . S
C340 H329 0.950 . S
C340 C338 1.391 . S
C340 C341 1.400 . S
C341 C335 1.491 . S
C341 C340 1.400 . S
C341 C342 1.398 . S
C342 H330 0.950 . S
C342 C341 1.398 . S
C342 C343 1.391 . S
C343 H331 0.950 . S
C343 C339 1.393 . S
C343 C342 1.391 . S
H344 C352 0.950 . S
H345 C357 0.950 . S
H346 C354 0.950 . S
H347 C356 0.950 . S
H348 C358 0.950 . S
H349 C360 0.950 . S
H350 C362 0.950 . S
H351 C363 0.950 . S
C352 H344 0.950 . S
C352 C353 1.386 . S
C352 C354 1.391 . S
C353 C352 1.386 . S
C353 C357 1.393 . S
C354 H346 0.950 . S
C354 C352 1.391 . S
C354 C355 1.400 . S
C355 C354 1.400 . S
C355 C356 1.398 . S
C355 C361 1.491 . S
C356 H347 0.950 . S
C356 C355 1.398 . S
C356 C357 1.391 . S
C357 H345 0.950 . S
C357 C353 1.393 . S
C357 C356 1.391 . S
C358 H348 0.950 . S
C358 C359 1.386 . S
C358 C360 1.391 . S
C359 C358 1.386 . S
C359 C363 1.393 . S
C360 H349 0.950 . S
C360 C358 1.391 . S
C360 C361 1.400 . S
C361 C355 1.491 . S
C361 C360 1.400 . S
C361 C362 1.398 . S
C362 H350 0.950 . S
C362 C361 1.398 . S
C362 C363 1.391 . S
C363 H351 0.950 . S
C363 C359 1.393 . S
C363 C362 1.391 . S
H364 C372 0.950 . S
H365 C377 0.950 . S
H366 C374 0.950 . S
H367 C376 0.950 . S
H368 C378 0.950 . S
H369 C380 0.950 . S
H370 C382 0.950 . S
H371 C383 0.950 . S
C372 H364 0.950 . S
C372 C373 1.386 . S
C372 C374 1.391 . S
C373 C372 1.386 . S
C373 C377 1.393 . S
C374 H366 0.950 . S
C374 C372 1.391 . S
C374 C375 1.400 . S
C375 C374 1.400 . S
C375 C376 1.398 . S
C375 C381 1.491 . S
C376 H367 0.950 . S
C376 C375 1.398 . S
C376 C377 1.391 . S
C377 H365 0.950 . S
C377 C373 1.393 . S
C377 C376 1.391 . S
C378 H368 0.950 . S
C378 C379 1.386 . S
C378 C380 1.391 . S
C379 C378 1.386 . S
C379 C383 1.393 . S
C380 H369 0.950 . S
C380 C378 1.391 . S
C380 C381 1.400 . S
C381 C375 1.491 . S
C381 C380 1.400 . S
C381 C382 1.398 . S
C382 H370 0.950 . S
C382 C381 1.398 . S
C382 C383 1.391 . S
C383 H371 0.950 . S
C383 C379 1.393 . S
C383 C382 1.391 . S
H384 C392 0.950 . S
H385 C397 0.950 . S
H386 C394 0.950 . S
H387 C396 0.950 . S
H388 C398 0.950 . S
H389 C400 0.950 . S
H390 C402 0.950 . S
H391 C403 0.950 . S
C392 H384 0.950 . S
C392 C393 1.386 . S
C392 C394 1.391 . S
C393 C392 1.386 . S
C393 C397 1.393 . S
C394 H386 0.950 . S
C394 C392 1.391 . S
C394 C395 1.400 . S
C395 C394 1.400 . S
C395 C396 1.398 . S
C395 C401 1.491 . S
C396 H387 0.950 . S
C396 C395 1.398 . S
C396 C397 1.391 . S
C397 H385 0.950 . S
C397 C393 1.393 . S
C397 C396 1.391 . S
C398 H388 0.950 . S
C398 C399 1.386 . S
C398 C400 1.391 . S
C399 C398 1.386 . S
C399 C403 1.393 . S
C400 H389 0.950 . S
C400 C398 1.391 . S
C400 C401 1.400 . S
C401 C395 1.491 . S
C401 C400 1.400 . S
C401 C402 1.398 . S
C402 H390 0.950 . S
C402 C401 1.398 . S
C402 C403 1.391 . S
C403 H391 0.950 . S
C403 C399 1.393 . S
C403 C402 1.391 . S
H404 C412 0.950 1_554 S
H405 C417 0.950 . S
H406 C414 0.950 . S
H407 C416 0.950 . S
H408 C418 0.950 . S
H409 C420 0.950 . S
H410 C422 0.950 . S
H411 C423 0.950 . S
C412 H404 0.950 1_556 S
C412 C413 1.386 . S
C412 C414 1.391 . S
C413 C412 1.386 . S
C413 C417 1.393 . S
C414 H406 0.950 . S
C414 C412 1.391 . S
C414 C415 1.400 . S
C415 C414 1.400 . S
C415 C416 1.398 . S
C415 C421 1.491 . S
C416 H407 0.950 . S
C416 C415 1.398 . S
C416 C417 1.391 . S
C417 H405 0.950 . S
C417 C413 1.393 . S
C417 C416 1.391 . S
C418 H408 0.950 . S
C418 C419 1.386 . S
C418 C420 1.391 . S
C419 C418 1.386 . S
C419 C423 1.393 . S
C420 H409 0.950 . S
C420 C418 1.391 . S
C420 C421 1.400 . S
C421 C415 1.491 . S
C421 C420 1.400 . S
C421 C422 1.398 . S
C422 H410 0.950 . S
C422 C421 1.398 . S
C422 C423 1.391 . S
C423 H411 0.950 . S
C423 C419 1.393 . S
C423 C422 1.391 . S
H424 C432 0.950 . S
H425 C437 0.950 . S
H426 C434 0.950 . S
H427 C436 0.950 . S
H428 C438 0.950 . S
H429 C440 0.950 . S
H430 C442 0.950 . S
H431 C443 0.950 . S
C432 H424 0.950 . S
C432 C433 1.386 . S
C432 C434 1.391 . S
C433 C432 1.386 . S
C433 C437 1.393 . S
C434 H426 0.950 . S
C434 C432 1.391 . S
C434 C435 1.400 . S
C435 C434 1.400 . S
C435 C436 1.398 . S
C435 C441 1.491 . S
C436 H427 0.950 . S
C436 C435 1.398 . S
C436 C437 1.391 . S
C437 H425 0.950 . S
C437 C433 1.393 . S
C437 C436 1.391 . S
C438 H428 0.950 . S
C438 C439 1.386 . S
C438 C440 1.391 . S
C439 C438 1.386 . S
C439 C443 1.393 . S
C440 H429 0.950 . S
C440 C438 1.391 . S
C440 C441 1.400 . S
C441 C435 1.491 . S
C441 C440 1.400 . S
C441 C442 1.398 . S
C442 H430 0.950 . S
C442 C441 1.398 . S
C442 C443 1.391 . S
C443 H431 0.950 . S
C443 C439 1.393 . S
C443 C442 1.391 . S
H444 C452 0.950 . S
H445 C457 0.950 1_554 S
H446 C454 0.950 . S
H447 C456 0.950 . S
H448 C458 0.950 . S
H449 C460 0.950 . S
H450 C462 0.950 . S
H451 C463 0.950 . S
C452 H444 0.950 . S
C452 C453 1.386 . S
C452 C454 1.391 . S
C453 C452 1.386 . S
C453 C457 1.393 . S
C454 H446 0.950 . S
C454 C452 1.391 . S
C454 C455 1.400 . S
C455 C454 1.400 . S
C455 C456 1.398 . S
C455 C461 1.491 . S
C456 H447 0.950 . S
C456 C455 1.398 . S
C456 C457 1.391 . S
C457 H445 0.950 1_556 S
C457 C453 1.393 . S
C457 C456 1.391 . S
C458 H448 0.950 . S
C458 C459 1.386 . S
C458 C460 1.391 . S
C459 C458 1.386 . S
C459 C463 1.393 . S
C460 H449 0.950 . S
C460 C458 1.391 . S
C460 C461 1.400 . S
C461 C455 1.491 . S
C461 C460 1.400 . S
C461 C462 1.398 . S
C462 H450 0.950 . S
C462 C461 1.398 . S
C462 C463 1.391 . S
C463 H451 0.950 . S
C463 C459 1.393 . S
C463 C462 1.391 . S
H464 C472 0.950 . S
H465 C477 0.950 . S
H466 C474 0.950 . S
H467 C476 0.950 . S
H468 C478 0.950 . S
H469 C480 0.950 . S
H470 C482 0.950 . S
H471 C483 0.950 . S
C472 H464 0.950 . S
C472 C473 1.386 . S
C472 C474 1.391 . S
C473 C472 1.386 . S
C473 C477 1.393 . S
C474 H466 0.950 . S
C474 C472 1.391 . S
C474 C475 1.400 . S
C475 C474 1.400 . S
C475 C476 1.398 . S
C475 C481 1.491 . S
C476 H467 0.950 . S
C476 C475 1.398 . S
C476 C477 1.391 . S
C477 H465 0.950 . S
C477 C473 1.393 . S
C477 C476 1.391 . S
C478 H468 0.950 . S
C478 C479 1.386 . S
C478 C480 1.391 . S
C479 C478 1.386 . S
C479 C483 1.393 . S
C480 H469 0.950 . S
C480 C478 1.391 . S
C480 C481 1.400 . S
C481 C475 1.491 . S
C481 C480 1.400 . S
C481 C482 1.398 . S
C482 H470 0.950 . S
C482 C481 1.398 . S
C482 C483 1.391 . S
C483 H471 0.950 . S
C483 C479 1.393 . S
C483 C482 1.391 . S
H484 C492 0.950 . S
H485 C497 0.950 . S
H486 C494 0.950 . S
H487 C496 0.950 . S
H488 C498 0.950 . S
H489 C500 0.950 . S
H490 C502 0.950 . S
H491 C503 0.950 . S
C492 H484 0.950 . S
C492 C493 1.386 . S
C492 C494 1.391 . S
C493 C492 1.386 . S
C493 C497 1.393 . S
C494 H486 0.950 . S
C494 C492 1.391 . S
C494 C495 1.400 . S
C495 C494 1.400 . S
C495 C496 1.398 . S
C495 C501 1.491 . S
C496 H487 0.950 . S
C496 C495 1.398 . S
C496 C497 1.391 . S
C497 H485 0.950 . S
C497 C493 1.393 . S
C497 C496 1.391 . S
C498 H488 0.950 . S
C498 C499 1.386 . S
C498 C500 1.391 . S
C499 C498 1.386 . S
C499 C503 1.393 . S
C500 H489 0.950 . S
C500 C498 1.391 . S
C500 C501 1.400 . S
C501 C495 1.491 . S
C501 C500 1.400 . S
C501 C502 1.398 . S
C502 H490 0.950 . S
C502 C501 1.398 . S
C502 C503 1.391 . S
C503 H491 0.950 . S
C503 C499 1.393 . S
C503 C502 1.391 . S
H504 C512 0.950 . S
H505 C517 0.950 . S
H506 C514 0.950 . S
H507 C516 0.950 . S
H508 C518 0.950 . S
H509 C520 0.950 . S
H510 C522 0.950 . S
H511 C523 0.950 . S
C512 H504 0.950 . S
C512 C513 1.386 . S
C512 C514 1.391 . S
C513 C512 1.386 . S
C513 C517 1.393 . S
C514 H506 0.950 . S
C514 C512 1.391 . S
C514 C515 1.400 . S
C515 C514 1.400 . S
C515 C516 1.398 . S
C515 C521 1.491 . S
C516 H507 0.950 . S
C516 C515 1.398 . S
C516 C517 1.391 . S
C517 H505 0.950 . S
C517 C513 1.393 . S
C517 C516 1.391 . S
C518 H508 0.950 . S
C518 C519 1.386 . S
C518 C520 1.391 . S
C519 C518 1.386 . S
C519 C523 1.393 . S
C520 H509 0.950 . S
C520 C518 1.391 . S
C520 C521 1.400 . S
C521 C515 1.491 . S
C521 C520 1.400 . S
C521 C522 1.398 . S
C522 H510 0.950 . S
C522 C521 1.398 . S
C522 C523 1.391 . S
C523 H511 0.950 . S
C523 C519 1.393 . S
C523 C522 1.391 . S
H524 C532 0.950 . S
H525 C537 0.950 . S
H526 C534 0.950 . S
H527 C536 0.950 . S
H528 C538 0.950 . S
H529 C540 0.950 . S
H530 C542 0.950 . S
H531 C543 0.950 . S
C532 H524 0.950 . S
C532 C533 1.386 . S
C532 C534 1.391 . S
C533 C532 1.386 . S
C533 C537 1.393 . S
C534 H526 0.950 . S
C534 C532 1.391 . S
C534 C535 1.400 . S
C535 C534 1.400 . S
C535 C536 1.398 . S
C535 C541 1.491 . S
C536 H527 0.950 . S
C536 C535 1.398 . S
C536 C537 1.391 . S
C537 H525 0.950 . S
C537 C533 1.393 . S
C537 C536 1.391 . S
C538 H528 0.950 . S
C538 C539 1.386 . S
C538 C540 1.391 . S
C539 C538 1.386 . S
C539 C543 1.393 . S
C540 H529 0.950 . S
C540 C538 1.391 . S
C540 C541 1.400 . S
C541 C535 1.491 . S
C541 C540 1.400 . S
C541 C542 1.398 . S
C542 H530 0.950 . S
C542 C541 1.398 . S
C542 C543 1.391 . S
C543 H531 0.950 . S
C543 C539 1.393 . S
C543 C542 1.391 . S
H544 C552 0.950 . S
H545 C557 0.950 . S
H546 C554 0.950 . S
H547 C556 0.950 . S
H548 C558 0.950 . S
H549 C560 0.950 . S
H550 C562 0.950 . S
H551 C563 0.950 . S
C552 H544 0.950 . S
C552 C553 1.386 . S
C552 C554 1.391 . S
C553 C552 1.386 . S
C553 C557 1.393 . S
C554 H546 0.950 . S
C554 C552 1.391 . S
C554 C555 1.400 . S
C555 C554 1.400 . S
C555 C556 1.398 . S
C555 C561 1.491 . S
C556 H547 0.950 . S
C556 C555 1.398 . S
C556 C557 1.391 . S
C557 H545 0.950 . S
C557 C553 1.393 . S
C557 C556 1.391 . S
C558 H548 0.950 . S
C558 C559 1.386 . S
C558 C560 1.391 . S
C559 C558 1.386 . S
C559 C563 1.393 . S
C560 H549 0.950 . S
C560 C558 1.391 . S
C560 C561 1.400 . S
C561 C555 1.491 . S
C561 C560 1.400 . S
C561 C562 1.398 . S
C562 H550 0.950 . S
C562 C561 1.398 . S
C562 C563 1.391 . S
C563 H551 0.950 . S
C563 C559 1.393 . S
C563 C562 1.391 . S
H564 C572 0.950 . S
H565 C577 0.950 . S
H566 C574 0.950 . S
H567 C576 0.950 . S
H568 C578 0.950 . S
H569 C580 0.950 . S
H570 C582 0.950 . S
H571 C583 0.950 . S
C572 H564 0.950 . S
C572 C573 1.386 . S
C572 C574 1.391 . S
C573 C572 1.386 . S
C573 C577 1.393 . S
C574 H566 0.950 . S
C574 C572 1.391 . S
C574 C575 1.400 . S
C575 C574 1.400 . S
C575 C576 1.398 . S
C575 C581 1.491 . S
C576 H567 0.950 . S
C576 C575 1.398 . S
C576 C577 1.391 . S
C577 H565 0.950 . S
C577 C573 1.393 . S
C577 C576 1.391 . S
C578 H568 0.950 . S
C578 C579 1.386 . S
C578 C580 1.391 . S
C579 C578 1.386 . S
C579 C583 1.393 . S
C580 H569 0.950 . S
C580 C578 1.391 . S
C580 C581 1.400 . S
C581 C575 1.491 . S
C581 C580 1.400 . S
C581 C582 1.398 . S
C582 H570 0.950 . S
C582 C581 1.398 . S
C582 C583 1.391 . S
C583 H571 0.950 . S
C583 C579 1.393 . S
C583 C582 1.391 . S
H584 C592 0.950 . S
H585 C597 0.950 . S
H586 C594 0.950 . S
H587 C596 0.950 . S
H588 C598 0.950 . S
H589 C600 0.950 . S
H590 C602 0.950 . S
H591 C603 0.950 . S
C592 H584 0.950 . S
C592 C593 1.386 . S
C592 C594 1.391 . S
C593 C592 1.386 . S
C593 C597 1.393 . S
C594 H586 0.950 . S
C594 C592 1.391 . S
C594 C595 1.400 . S
C595 C594 1.400 . S
C595 C596 1.398 . S
C595 C601 1.491 . S
C596 H587 0.950 . S
C596 C595 1.398 . S
C596 C597 1.391 . S
C597 H585 0.950 . S
C597 C593 1.393 . S
C597 C596 1.391 . S
C598 H588 0.950 . S
C598 C599 1.386 . S
C598 C600 1.391 . S
C599 C598 1.386 . S
C599 C603 1.393 . S
C600 H589 0.950 . S
C600 C598 1.391 . S
C600 C601 1.400 . S
C601 C595 1.491 . S
C601 C600 1.400 . S
C601 C602 1.398 . S
C602 H590 0.950 . S
C602 C601 1.398 . S
C602 C603 1.391 . S
C603 H591 0.950 . S
C603 C599 1.393 . S
C603 C602 1.391 . S
H604 C612 0.950 . S
H605 C617 0.950 . S
H606 C614 0.950 . S
H607 C616 0.950 . S
H608 C618 0.950 . S
H609 C620 0.950 . S
H610 C622 0.950 . S
H611 C623 0.950 . S
C612 H604 0.950 . S
C612 C613 1.386 . S
C612 C614 1.391 . S
C613 C612 1.386 . S
C613 C617 1.393 . S
C614 H606 0.950 . S
C614 C612 1.391 . S
C614 C615 1.400 . S
C615 C614 1.400 . S
C615 C616 1.398 . S
C615 C621 1.491 . S
C616 H607 0.950 . S
C616 C615 1.398 . S
C616 C617 1.391 . S
C617 H605 0.950 . S
C617 C613 1.393 . S
C617 C616 1.391 . S
C618 H608 0.950 . S
C618 C619 1.386 . S
C618 C620 1.391 . S
C619 C618 1.386 . S
C619 C623 1.393 . S
C620 H609 0.950 . S
C620 C618 1.391 . S
C620 C621 1.400 . S
C621 C615 1.491 . S
C621 C620 1.400 . S
C621 C622 1.398 . S
C622 H610 0.950 . S
C622 C621 1.398 . S
C622 C623 1.391 . S
C623 H611 0.950 . S
C623 C619 1.393 . S
C623 C622 1.391 . S
H624 C632 0.950 . S
H625 C637 0.950 . S
H626 C634 0.950 . S
H627 C636 0.950 . S
H628 C638 0.950 . S
H629 C640 0.950 . S
H630 C642 0.950 . S
H631 C643 0.950 . S
C632 H624 0.950 . S
C632 C633 1.386 . S
C632 C634 1.391 . S
C633 C632 1.386 . S
C633 C637 1.393 . S
C634 H626 0.950 . S
C634 C632 1.391 . S
C634 C635 1.400 . S
C635 C634 1.400 . S
C635 C636 1.398 . S
C635 C641 1.491 . S
C636 H627 0.950 . S
C636 C635 1.398 . S
C636 C637 1.391 . S
C637 H625 0.950 . S
C637 C633 1.393 . S
C637 C636 1.391 . S
C638 H628 0.950 . S
C638 C639 1.386 . S
C638 C640 1.391 . S
C639 C638 1.386 . S
C639 C643 1.393 . S
C640 H629 0.950 . S
C640 C638 1.391 . S
C640 C641 1.400 . S
C641 C635 1.491 . S
C641 C640 1.400 . S
C641 C642 1.398 . S
C642 H630 0.950 . S
C642 C641 1.398 . S
C642 C643 1.391 . S
C643 H631 0.950 . S
C643 C639 1.393 . S
C643 C642 1.391 . S
H644 C652 0.950 . S
H645 C657 0.950 . S
H646 C654 0.950 . S
H647 C656 0.950 . S
H648 C658 0.950 . S
H649 C660 0.950 . S
H650 C662 0.950 . S
H651 C663 0.950 . S
C652 H644 0.950 . S
C652 C653 1.386 . S
C652 C654 1.391 . S
C653 C652 1.386 . S
C653 C657 1.393 . S
C654 H646 0.950 . S
C654 C652 1.391 . S
C654 C655 1.400 . S
C655 C654 1.400 . S
C655 C656 1.398 . S
C655 C661 1.491 . S
C656 H647 0.950 . S
C656 C655 1.398 . S
C656 C657 1.391 . S
C657 H645 0.950 . S
C657 C653 1.393 . S
C657 C656 1.391 . S
C658 H648 0.950 . S
C658 C659 1.386 . S
C658 C660 1.391 . S
C659 C658 1.386 . S
C659 C663 1.393 . S
C660 H649 0.950 . S
C660 C658 1.391 . S
C660 C661 1.400 . S
C661 C655 1.491 . S
C661 C660 1.400 . S
C661 C662 1.398 . S
C662 H650 0.950 . S
C662 C661 1.398 . S
C662 C663 1.391 . S
C663 H651 0.950 . S
C663 C659 1.393 . S
C663 C662 1.391 . S
H664 C672 0.950 . S
H665 C677 0.950 . S
H666 C674 0.950 . S
H667 C676 0.950 . S
H668 C678 0.950 . S
H669 C680 0.950 . S
H670 C682 0.950 . S
H671 C683 0.950 . S
C672 H664 0.950 . S
C672 C673 1.386 . S
C672 C674 1.391 . S
C673 C672 1.386 . S
C673 C677 1.393 . S
C674 H666 0.950 . S
C674 C672 1.391 . S
C674 C675 1.400 . S
C675 C674 1.400 . S
C675 C676 1.398 . S
C675 C681 1.491 . S
C676 H667 0.950 . S
C676 C675 1.398 . S
C676 C677 1.391 . S
C677 H665 0.950 . S
C677 C673 1.393 . S
C677 C676 1.391 . S
C678 H668 0.950 . S
C678 C679 1.386 . S
C678 C680 1.391 . S
C679 C678 1.386 . S
C679 C683 1.393 . S
C680 H669 0.950 . S
C680 C678 1.391 . S
C680 C681 1.400 . S
C681 C675 1.491 . S
C681 C680 1.400 . S
C681 C682 1.398 . S
C682 H670 0.950 . S
C682 C681 1.398 . S
C682 C683 1.391 . S
C683 H671 0.950 . S
C683 C679 1.393 . S
C683 C682 1.391 . S
H684 C692 0.950 . S
H685 C697 0.950 . S
H686 C694 0.950 . S
H687 C696 0.950 . S
H688 C698 0.950 . S
H689 C700 0.950 . S
H690 C702 0.950 . S
H691 C703 0.950 . S
C692 H684 0.950 . S
C692 C693 1.386 . S
C692 C694 1.391 . S
C693 C692 1.386 . S
C693 C697 1.393 . S
C694 H686 0.950 . S
C694 C692 1.391 . S
C694 C695 1.400 . S
C695 C694 1.400 . S
C695 C696 1.398 . S
C695 C701 1.491 . S
C696 H687 0.950 . S
C696 C695 1.398 . S
C696 C697 1.391 . S
C697 H685 0.950 . S
C697 C693 1.393 . S
C697 C696 1.391 . S
C698 H688 0.950 . S
C698 C699 1.386 . S
C698 C700 1.391 . S
C699 C698 1.386 . S
C699 C703 1.393 . S
C700 H689 0.950 . S
C700 C698 1.391 . S
C700 C701 1.400 . S
C701 C695 1.491 . S
C701 C700 1.400 . S
C701 C702 1.398 . S
C702 H690 0.950 . S
C702 C701 1.398 . S
C702 C703 1.391 . S
C703 H691 0.950 . S
C703 C699 1.393 . S
C703 C702 1.391 . S
H704 C712 0.950 . S
H705 C717 0.950 . S
H706 C714 0.950 . S
H707 C716 0.950 . S
H708 C718 0.950 . S
H709 C720 0.950 . S
H710 C722 0.950 . S
H711 C723 0.950 . S
C712 H704 0.950 . S
C712 C713 1.386 . S
C712 C714 1.391 . S
C713 C712 1.386 . S
C713 C717 1.393 . S
C714 H706 0.950 . S
C714 C712 1.391 . S
C714 C715 1.400 . S
C715 C714 1.400 . S
C715 C716 1.398 . S
C715 C721 1.491 . S
C716 H707 0.950 . S
C716 C715 1.398 . S
C716 C717 1.391 . S
C717 H705 0.950 . S
C717 C713 1.393 . S
C717 C716 1.391 . S
C718 H708 0.950 . S
C718 C719 1.386 . S
C718 C720 1.391 . S
C719 C718 1.386 . S
C719 C723 1.393 . S
C720 H709 0.950 . S
C720 C718 1.391 . S
C720 C721 1.400 . S
C721 C715 1.491 . S
C721 C720 1.400 . S
C721 C722 1.398 . S
C722 H710 0.950 . S
C722 C721 1.398 . S
C722 C723 1.391 . S
C723 H711 0.950 . S
C723 C719 1.393 . S
C723 C722 1.391 . S
H724 C732 0.950 . S
H725 C737 0.950 . S
H726 C734 0.950 . S
H727 C736 0.950 . S
H728 C738 0.950 . S
H729 C740 0.950 . S
H730 C742 0.950 . S
H731 C743 0.950 . S
C732 H724 0.950 . S
C732 C733 1.386 . S
C732 C734 1.391 . S
C733 C732 1.386 . S
C733 C737 1.393 . S
C734 H726 0.950 . S
C734 C732 1.391 . S
C734 C735 1.400 . S
C735 C734 1.400 . S
C735 C736 1.398 . S
C735 C741 1.491 . S
C736 H727 0.950 . S
C736 C735 1.398 . S
C736 C737 1.391 . S
C737 H725 0.950 . S
C737 C733 1.393 . S
C737 C736 1.391 . S
C738 H728 0.950 . S
C738 C739 1.386 . S
C738 C740 1.391 . S
C739 C738 1.386 . S
C739 C743 1.393 . S
C740 H729 0.950 . S
C740 C738 1.391 . S
C740 C741 1.400 . S
C741 C735 1.491 . S
C741 C740 1.400 . S
C741 C742 1.398 . S
C742 H730 0.950 . S
C742 C741 1.398 . S
C742 C743 1.391 . S
C743 H731 0.950 . S
C743 C739 1.393 . S
C743 C742 1.391 . S
C273 C7 1.741 . S
C279 C147 1.588 . S
C293 C30 1.537 . S
C299 C168 1.392 . S
C319 C189 1.476 . S
C313 N58 1.592 . S
C339 C218 1.370 . S
C333 N81 1.386 . S
C359 C231 1.522 . S
C353 C99 1.630 . S
C379 C255 1.395 . S
C373 N127 1.430 . S
C393 N25 1.593 . S
C399 C199 1.509 . S
C413 C62 1.538 . S
C419 C213 1.464 . S
C439 C241 1.559 . S
C433 C85 1.686 . S
C459 C260 1.408 . S
C453 N94 1.432 . S
C473 C131 1.662 . S
C479 C157 1.558 . S
C499 C178 1.316 . S
C493 N2 1.376 . S
C519 C220 1.623 . S
C513 C16 1.729 . S
C533 C39 1.546 . S
C539 C234 1.389 . S
C559 C252 1.593 . S
C553 N48 1.616 . S
C573 N71 1.430 . S
C579 C150 1.316 . S
C593 C108 1.675 . S
C599 C171 1.507 . S
C613 N117 1.443 . S
C619 C192 1.320 . S
C633 N35 1.618 . S
C639 C262 1.589 . S
C659 C155 1.403 . S
C653 C53 1.574 . S
C673 C76 1.766 . S
C679 C176 1.596 . S
C693 N104 1.466 . S
C699 C197 1.347 . S
C713 C122 1.655 . S
C719 C210 1.593 . S
C733 N12 1.380 . S
C739 C239 1.275 . S
