# Generated by pormake.
# Topology rtl, (3,6)-cn, num edge types: 1
# Building blocks:
#     Node 0, Type 0, BuildingBlock: KAKCAD_clean_linker_0, # of connection points: 3
#     Node 1, Type 0, BuildingBlock: KAKCAD_clean_linker_0, # of connection points: 3
#     Node 2, Type 0, BuildingBlock: KAKCAD_clean_linker_0, # of connection points: 3
#     Node 3, Type 0, BuildingBlock: KAKCAD_clean_linker_0, # of connection points: 3
#     Node 4, Type 1, BuildingBlock: LEVNOQ01_clean_sbu_1, # of connection points: 6
#     Node 5, Type 1, BuildingBlock: LEVNOQ01_clean_sbu_1, # of connection points: 6
#     Edge 6, Type (0, 1), BuildingBlock: AJUNOK_clean_linker_0, # of connection points: 2
#     Edge 7, Type (0, 1), BuildingBlock: AJUNOK_clean_linker_0, # of connection points: 2
#     Edge 8, Type (0, 1), BuildingBlock: AJUNOK_clean_linker_0, # of connection points: 2
#     Edge 9, Type (0, 1), BuildingBlock: AJUNOK_clean_linker_0, # of connection points: 2
#     Edge 10, Type (0, 1), BuildingBlock: AJUNOK_clean_linker_0, # of connection points: 2
#     Edge 11, Type (0, 1), BuildingBlock: AJUNOK_clean_linker_0, # of connection points: 2
#     Edge 12, Type (0, 1), BuildingBlock: AJUNOK_clean_linker_0, # of connection points: 2
#     Edge 13, Type (0, 1), BuildingBlock: AJUNOK_clean_linker_0, # of connection points: 2
#     Edge 14, Type (0, 1), BuildingBlock: AJUNOK_clean_linker_0, # of connection points: 2
#     Edge 15, Type (0, 1), BuildingBlock: AJUNOK_clean_linker_0, # of connection points: 2
#     Edge 16, Type (0, 1), BuildingBlock: AJUNOK_clean_linker_0, # of connection points: 2
#     Edge 17, Type (0, 1), BuildingBlock: AJUNOK_clean_linker_0, # of connection points: 2
# Relax obj value: 0.026
# Max RMSD: 0.060
# Mean RMSD: 0.045
data_MOF--net-rtl--node1-LEVNOQ01_clean_sbu_1--node2-KAKCAD_clean_linker_0--edge1-AJUNOK_clean_linker_0
_symmetry_space_group_name_H-M    P1
_symmetry_Int_Tables_number       1
_symmetry_cell_setting            triclinic
loop_
_symmetry_equiv_pos_as_xyz
'x, y, z'
_cell_length_a     29.945123
_cell_length_b     33.645301
_cell_length_c     23.267767
_cell_angle_alpha  89.997355
_cell_angle_beta   98.559939
_cell_angle_gamma 89.960777
loop_
_atom_site_label
_atom_site_type_symbol
_atom_site_fract_x
_atom_site_fract_y
_atom_site_fract_z
_atom_type_partial_charge
C0 C 0.17285 0.8985 0.90339 0.0
C1 C 0.16333 0.93919 0.89487 0.0
C2 C 0.19386 0.88442 0.95738 0.0
C3 C 0.20693 0.91078 1.00396 0.0
C4 C 0.19858 0.9516 0.99464 0.0
C5 C 0.17671 0.9655 0.94122 0.0
C6 C 0.22828 0.8959 0.06227 0.0
C7 C 0.25635 0.86213 0.06739 0.0
C8 C 0.27492 0.84717 0.12225 0.0
C9 C 0.26645 0.86697 0.17256 0.0
C10 C 0.2387 0.90078 0.16857 0.0
C11 C 0.21961 0.91484 0.11344 0.0
C12 C 0.22639 0.91968 0.22171 0.0
C13 C 0.21305 0.89614 0.26606 0.0
C14 C 0.22425 0.96129 0.22632 0.0
C15 C 0.20632 0.97889 0.2723 0.0
C16 C 0.18984 0.95517 0.31419 0.0
C17 C 0.30155 0.80982 0.12676 0.0
C18 C 0.2857 0.77684 0.09279 0.0
C19 C 0.3428 0.80682 0.16434 0.0
C20 C 0.36861 0.77199 0.16591 0.0
C21 C 0.35333 0.73955 0.13033 0.0
C22 C 0.31123 0.74209 0.09467 0.0
C23 C 0.19495 0.91373 0.31183 0.0
H24 H 0.16423 0.87743 0.86835 0.0
H25 H 0.19913 0.85272 0.96264 0.0
H26 H 0.20894 0.9731 0.02862 0.0
H27 H 0.16981 -0.00296 0.93654 0.0
H28 H 0.26421 0.84745 0.02869 0.0
H29 H 0.19632 0.93964 0.11069 0.0
H30 H 0.28054 0.85544 0.2149 0.0
H31 H 0.214 0.86401 0.26358 0.0
H32 H 0.23509 0.98018 0.19331 0.0
H33 H 0.20347 0.01096 0.2737 0.0
H34 H 0.25367 0.77807 0.0642 0.0
H35 H 0.35574 0.8318 0.1911 0.0
H36 H 0.18219 0.89471 0.34326 0.0
H37 H 0.29884 0.7177 0.06632 0.0
H38 H 0.40092 0.77071 0.19385 0.0
C39 C 0.70905 0.62659 0.79463 0.0
C40 C 0.68416 0.59129 0.79506 0.0
C41 C 0.73027 0.63625 0.74703 0.0
C42 C 0.72841 0.61021 0.6993 0.0
C43 C 0.70734 0.573 0.70269 0.0
C44 C 0.68517 0.56378 0.74989 0.0
C45 C 0.74458 0.62358 0.64463 0.0
C46 C 0.78025 0.65093 0.6467 0.0
C47 C 0.79081 0.669 0.59592 0.0
C48 C 0.76721 0.65706 0.54169 0.0
C49 C 0.73311 0.62806 0.53824 0.0
C50 C 0.72159 0.6121 0.58995 0.0
C51 C 0.70815 0.61505 0.48108 0.0
C52 C 0.69281 0.64266 0.43702 0.0
C53 C 0.6981 0.57461 0.4711 0.0
C54 C 0.67208 0.5622 0.4194 0.0
C55 C 0.65514 0.5899 0.3764 0.0
C56 C 0.82459 0.70189 0.60017 0.0
C57 C 0.82761 0.72964 0.64599 0.0
C58 C 0.85278 0.7069 0.55753 0.0
C59 C 0.88211 0.73935 0.55966 0.0
C60 C 0.88474 0.76726 0.60513 0.0
C61 C 0.85744 0.76175 0.64857 0.0
C62 C 0.6666 0.63017 0.3851 0.0
H63 H 0.7099 0.64791 0.82967 0.0
H64 H 0.74576 0.66527 0.74655 0.0
H65 H 0.70638 0.55155 0.66787 0.0
H66 H 0.66659 0.53613 0.74932 0.0
H67 H 0.79956 0.65875 0.68824 0.0
H68 H 0.69313 0.592 0.58734 0.0
H69 H 0.77487 0.67061 0.5021 0.0
H70 H 0.69978 0.67406 0.44342 0.0
H71 H 0.71019 0.55248 0.50354 0.0
H72 H 0.66481 0.53082 0.41326 0.0
H73 H 0.8059 0.72736 0.67913 0.0
H74 H 0.85185 0.68604 0.52194 0.0
H75 H 0.65408 0.65212 0.3526 0.0
H76 H 0.85845 0.78278 0.684 0.0
H77 H 0.90153 0.74324 0.52437 0.0
C78 C 0.79418 0.1173 0.21728 0.0
C79 C 0.83788 0.10121 0.22481 0.0
C80 C 0.77416 0.13077 0.1625 0.0
C81 C 0.79768 0.12852 0.11447 0.0
C82 C 0.84223 0.11399 0.12307 0.0
C83 C 0.86203 0.10036 0.17759 0.0
C84 C 0.77593 0.14068 0.05534 0.0
C85 C 0.74859 0.17469 0.04749 0.0
C86 C 0.7298 0.18724 0.99153 0.0
C87 C 0.73877 0.16569 0.9429 0.0
C88 C 0.76538 0.13105 0.94976 0.0
C89 C 0.78328 0.1186 0.00627 0.0
C90 C 0.77655 0.10913 0.89805 0.0
C91 C 0.74501 0.10571 0.84691 0.0
C92 C 0.82004 0.09318 0.89853 0.0
C93 C 0.83224 0.0758 0.84874 0.0
C94 C 0.80154 0.07431 0.79698 0.0
C95 C 0.70081 0.22303 0.98438 0.0
C96 C 0.66478 0.22653 0.01624 0.0
C97 C 0.70967 0.25429 0.94755 0.0
C98 C 0.68359 0.28904 0.9441 0.0
C99 C 0.64775 0.2925 0.9764 0.0
C100 C 0.63844 0.26084 0.01215 0.0
C101 C 0.75748 0.08865 0.79673 0.0
H102 H 0.77488 0.11785 0.25313 0.0
H103 H 0.73974 0.14161 0.15736 0.0
H104 H 0.86174 0.11277 0.08747 0.0
H105 H 0.89591 0.08821 0.18264 0.0
H106 H 0.74289 0.19222 0.08481 0.0
H107 H 0.80286 0.09144 0.01221 0.0
H108 H 0.72515 0.17616 0.89981 0.0
H109 H 0.71094 0.11691 0.84526 0.0
H110 H 0.84555 0.09577 0.93653 0.0
H111 H 0.86669 0.0656 0.84982 0.0
H112 H 0.65722 0.20279 0.04475 0.0
H113 H 0.73754 0.25229 0.92287 0.0
H114 H 0.73318 0.08772 0.7573 0.0
H115 H 0.61153 0.26313 0.03839 0.0
H116 H 0.69159 0.31329 0.91676 0.0
C117 C 0.27123 0.42047 0.28792 0.0
C118 C 0.31563 0.43387 0.288 0.0
C119 C 0.25881 0.4026 0.33749 0.0
C120 C 0.29064 0.3976 0.38799 0.0
C121 C 0.33451 0.41265 0.3886 0.0
C122 C 0.34678 0.43069 0.33923 0.0
C123 C 0.27908 0.37494 0.43874 0.0
C124 C 0.25249 0.34041 0.43018 0.0
C125 C 0.24294 0.3178 0.47758 0.0
C126 C 0.26047 0.33 0.53432 0.0
C127 C 0.28719 0.36437 0.5439 0.0
C128 C 0.29606 0.38673 0.49581 0.0
C129 C 0.30575 0.37716 0.604 0.0
C130 C 0.2788 0.37643 0.64863 0.0
C131 C 0.35035 0.39118 0.61679 0.0
C132 C 0.36727 0.405 0.67243 0.0
C133 C 0.34006 0.40502 0.71671 0.0
C134 C 0.21395 0.28184 0.46803 0.0
C135 C 0.17369 0.28262 0.42825 0.0
C136 C 0.22502 0.24724 0.5009 0.0
C137 C 0.19523 0.21507 0.49671 0.0
C138 C 0.15373 0.21677 0.45952 0.0
C139 C 0.1438 0.25046 0.4242 0.0
C140 C 0.29573 0.39038 0.70431 0.0
H141 H 0.24647 0.42299 0.2491 0.0
H142 H 0.22447 0.39211 0.33593 0.0
H143 H 0.36006 0.40895 0.42635 0.0
H144 H 0.38139 0.44037 0.34023 0.0
H145 H 0.2402 0.33038 0.38643 0.0
H146 H 0.31565 0.41382 0.50291 0.0
H147 H 0.2532 0.31276 0.57116 0.0
H148 H 0.24418 0.36615 0.64011 0.0
H149 H 0.37214 0.39178 0.58358 0.0
H150 H 0.40124 0.41689 0.68024 0.0
H151 H 0.16412 0.3089 0.40244 0.0
H152 H 0.25611 0.2455 0.53126 0.0
H153 H 0.27394 0.39026 0.73754 0.0
H154 H 0.11191 0.25268 0.39551 0.0
H155 H 0.20346 0.18993 0.52544 0.0
O156 O 0.94327 0.08569 0.64722 0.0
Mg157 Mg 0.01141 0.08405 0.63847 0.0
O158 O 0.93346 0.0268 0.60537 0.0
Mg159 Mg -0.0037 0.01337 0.55774 0.0
O160 O 0.02343 0.07863 0.55485 0.0
O161 O 0.03508 0.13456 0.60756 0.0
O162 O 0.05861 -0.00073 0.51138 0.0
O163 O 0.95007 0.03555 0.46935 0.0
Mg164 Mg 0.96662 0.96401 0.48037 0.0
O165 O 0.97273 0.94532 0.56471 0.0
O166 O 0.01873 0.97683 0.4317 0.0
O167 O 0.90374 0.98608 0.44585 0.0
O168 O 0.96483 0.90468 0.48682 0.0
C169 C 0.06193 0.0136 0.69052 0.0
C170 C 0.91877 0.05577 0.6327 0.0
C171 C 0.03707 0.1154 0.55995 0.0
C172 C 0.05583 0.98907 0.45842 0.0
C173 C 0.91482 0.02154 0.43809 0.0
C174 C 0.96674 0.90993 0.54193 0.0
O175 O 0.05674 0.05054 0.69767 0.0
O176 O 0.04219 -0.00399 0.64506 0.0
O177 O 0.52977 0.48985 0.17708 0.0
Mg178 Mg 0.50382 0.45464 0.10409 0.0
O179 O 0.54064 0.53995 0.12028 0.0
Mg180 Mg 0.49287 0.5168 0.03781 0.0
O181 O 0.53302 0.45588 0.03048 0.0
O182 O 0.54418 0.40785 0.09883 0.0
O183 O 0.44602 0.48905 0.95648 0.0
O184 O 0.54644 0.53976 0.98077 0.0
Mg185 Mg 0.44854 0.57212 0.95482 0.0
O186 O 0.45654 0.57874 0.04336 0.0
O187 O 0.39897 0.5337 0.91398 0.0
O188 O 0.50716 0.58006 0.91752 0.0
O189 O 0.42342 0.62367 0.97868 0.0
C190 C 0.41712 0.46603 0.10427 0.0
C191 C 0.5455 0.5242 0.17072 0.0
C192 C 0.55037 0.42187 0.04911 0.0
C193 C 0.41218 0.49811 0.91858 0.0
C194 C 0.54414 0.56357 0.93764 0.0
C195 C 0.4358 0.61252 0.03169 0.0
O196 O 0.43715 0.43441 0.09482 0.0
O197 O 0.43593 0.49897 0.0952 0.0
C198 C 0.07655 0.20137 0.48008 0.0
C199 C 0.11797 0.18735 0.46645 0.0
C200 C 0.04727 0.17612 0.5042 0.0
C201 C 0.05802 0.13588 0.51488 0.0
H202 H 0.06862 0.23281 0.47743 0.0
H203 H 0.01788 0.18895 0.51925 0.0
S204 S 0.15729 0.08267 0.47512 0.0
N205 N 0.16463 0.12931 0.45627 0.0
N206 N 0.10913 0.0817 0.50177 0.0
C207 C 0.09651 0.1204 0.49511 0.0
C208 C 0.12672 0.14626 0.47098 0.0
C209 C 0.3647 0.66605 0.12453 0.0
C210 C 0.38264 0.70474 0.12418 0.0
C211 C 0.38606 0.63388 0.10149 0.0
C212 C 0.42584 0.63958 0.07743 0.0
H213 H 0.33214 0.66124 0.13834 0.0
H214 H 0.36899 0.6054 0.09715 0.0
S215 S 0.48971 0.7334 0.07329 0.0
N216 N 0.44533 0.74572 0.10392 0.0
N217 N 0.48511 0.68519 0.06046 0.0
C218 C 0.4464 0.6771 0.08216 0.0
C219 C 0.42489 0.70978 0.10575 0.0
C220 C 0.89322 0.84139 0.61276 0.0
C221 C 0.91232 0.80399 0.60363 0.0
C222 C 0.91428 0.87676 0.59938 0.0
C223 C 0.95484 0.87581 0.57599 0.0
H224 H 0.86011 0.84338 0.626 0.0
H225 H 0.89659 0.90465 0.60217 0.0
S226 S 0.0235 0.78678 0.55567 0.0
N227 N 0.97839 0.76902 0.57992 0.0
N228 N 0.01663 0.83548 0.55209 0.0
C229 C 0.97632 0.83911 0.57179 0.0
C230 C 0.95538 0.80318 0.58628 0.0
C231 C 0.64448 0.36504 0.99807 0.0
C232 C 0.62196 0.32994 0.97754 0.0
C233 C 0.62037 0.39761 0.01553 0.0
C234 C 0.57321 0.39601 0.01205 0.0
H235 H 0.68105 0.36602 0.0055 0.0
H236 H 0.63893 0.42268 0.03627 0.0
S237 S 0.4983 0.31341 0.95365 0.0
N238 N 0.54971 0.29751 0.94826 0.0
N239 N 0.5046 0.35859 0.98147 0.0
C240 C 0.55019 0.36262 0.98677 0.0
C241 C 0.57456 0.32956 0.96925 0.0
C242 C 0.16769 0.96109 0.41385 0.0
C243 C 0.16132 0.97243 0.35486 0.0
C244 C 0.13512 0.96988 0.44968 0.0
C245 C 0.09502 0.98966 0.42714 0.0
H246 H 0.19687 0.94355 0.4315 0.0
H247 H 0.13976 0.95854 0.49374 0.0
S248 S 0.06427 0.02956 0.2781 0.0
N249 N 0.11355 0.00768 0.27749 0.0
N250 N 0.05265 0.02394 0.34477 0.0
C251 C 0.08983 0.00364 0.36972 0.0
C252 C 0.12295 0.99511 0.33352 0.0
C253 C 0.64955 0.54934 0.86682 0.0
C254 C 0.65234 0.58581 0.83774 0.0
C255 C 0.61607 0.54279 0.90231 0.0
C256 C 0.58395 0.57232 0.90898 0.0
H257 H 0.67277 0.52547 0.86107 0.0
H258 H 0.61401 0.51389 0.92228 0.0
S259 S 0.57789 0.67349 0.84453 0.0
N260 N 0.62074 0.65207 0.81968 0.0
N261 N 0.55884 0.6401 0.88676 0.0
C262 C 0.58759 0.60935 0.88198 0.0
C263 C 0.62148 0.616 0.84622 0.0
C264 C 0.86629 0.10245 0.33223 0.0
C265 C 0.85657 0.08121 0.27973 0.0
C266 C 0.88538 0.08324 0.3839 0.0
C267 C 0.89395 0.04211 0.38464 0.0
H268 H 0.85982 0.13411 0.33304 0.0
H269 H 0.89311 0.1005 0.42343 0.0
S270 S 0.87468 0.97366 0.2581 0.0
N271 N 0.85726 0.01738 0.23142 0.0
N272 N 0.89212 0.98115 0.32793 0.0
C273 C 0.88395 0.02073 0.33229 0.0
C274 C 0.86546 0.04031 0.27997 0.0
C275 C 0.33064 0.4533 0.79571 0.0
C276 C 0.35666 0.42364 0.77388 0.0
C277 C 0.348 0.47566 0.84478 0.0
C278 C 0.39188 0.46896 0.87444 0.0
H279 H 0.29747 0.46076 0.77292 0.0
H280 H 0.32745 0.49943 0.85827 0.0
S281 S 0.47196 0.39191 0.83823 0.0
N282 N 0.42706 0.38648 0.78828 0.0
N283 N 0.45978 0.42845 0.88069 0.0
C284 C 0.41723 0.43772 0.85522 0.0
C285 C 0.39966 0.41518 0.8048 0.0
C286 C 0.63291 0.58639 0.26751 0.0
C287 C 0.62441 0.57647 0.32373 0.0
C288 C 0.60616 0.57079 0.21765 0.0
C289 C 0.57016 0.54469 0.22248 0.0
H290 H 0.66134 0.60518 0.26208 0.0
H291 H 0.61484 0.57796 0.1753 0.0
S292 S 0.52956 0.5149 0.35947 0.0
N293 N 0.57415 0.54293 0.38082 0.0
N294 N 0.52443 0.51342 0.28789 0.0
C295 C 0.55996 0.53641 0.27841 0.0
C296 C 0.58693 0.55233 0.3288 0.0
C297 C 0.8436 0.02794 0.74015 0.0
C298 C 0.81843 0.06313 0.74248 0.0
C299 C 0.87197 0.02275 0.69782 0.0
C300 C 0.87645 0.05294 0.65736 0.0
H301 H 0.8442 0.00581 0.77409 0.0
H302 H 0.89411 -0.0029 0.70094 0.0
S303 S 0.81252 0.14746 0.6391 0.0
N304 N 0.79517 0.12592 0.6956 0.0
N305 N 0.84908 0.11637 0.61687 0.0
C306 C 0.84792 0.08617 0.65543 0.0
C307 C 0.81869 0.09125 0.69789 0.0
C308 C 0.35698 0.48222 0.23324 0.0
C309 C 0.33152 0.4471 0.23371 0.0
C310 C 0.38098 0.49065 0.18728 0.0
C311 C 0.38092 0.46381 0.14089 0.0
H312 H 0.36041 0.50215 0.2702 0.0
H313 H 0.4027 0.51655 0.19072 0.0
S314 S 0.31493 0.3705 0.1179 0.0
N315 N 0.30381 0.38762 0.18076 0.0
N316 N 0.34923 0.40328 0.09477 0.0
C317 C 0.35265 0.43035 0.13858 0.0
C318 C 0.32787 0.422 0.18496 0.0
C319 C 0.15345 0.99111 0.81661 0.0
C320 C 0.13952 0.9548 0.83835 0.0
C321 C 0.12899 0.0091 0.76748 0.0
C322 C 0.09017 0.99113 0.73707 0.0
H323 H 0.18307 0.00631 0.83845 0.0
H324 H 0.14019 0.0377 0.7537 0.0
S325 S 0.03987 0.8955 0.77355 0.0
N326 N 0.08415 0.90126 0.8244 0.0
N327 N 0.0396 0.93443 0.73027 0.0
C328 C 0.07694 0.95397 0.7562 0.0
C329 C 0.1013 0.93593 0.80719 0.0
loop_
_geom_bond_atom_site_label_1
_geom_bond_atom_site_label_2
_geom_bond_distance
_geom_bond_site_symmetry_2
_ccdc_geom_bond_type
C0 C1 1.386 . S
C0 C2 1.397 . S
C0 H24 0.931 . S
C1 C0 1.386 . S
C1 C5 1.397 . S
C2 C0 1.397 . S
C2 C3 1.384 . S
C2 H25 0.930 . S
C3 C2 1.384 . S
C3 C4 1.377 . S
C3 C6 1.481 1_556 S
C4 C3 1.377 . S
C4 C5 1.389 . S
C4 H26 0.929 1_556 S
C5 C1 1.397 . S
C5 C4 1.389 . S
C5 H27 0.931 1_565 S
C6 C3 1.481 1_554 S
C6 C7 1.387 . S
C6 C11 1.390 . S
C7 C6 1.387 . S
C7 C8 1.401 . S
C7 H28 0.930 . S
C8 C7 1.401 . S
C8 C9 1.376 . S
C8 C17 1.511 . S
C9 C8 1.376 . S
C9 C10 1.392 . S
C9 H30 0.931 . S
C10 C9 1.392 . S
C10 C11 1.361 . S
C10 C12 1.500 . S
C11 C6 1.390 . S
C11 C10 1.361 . S
C11 H29 0.931 . S
C12 C10 1.500 . S
C12 C13 1.371 . S
C12 C14 1.365 . S
C13 C12 1.371 . S
C13 C23 1.386 . S
C13 H31 0.931 . S
C14 C12 1.365 . S
C14 C15 1.409 . S
C14 H32 0.929 . S
C15 C14 1.409 . S
C15 C16 1.380 . S
C15 H33 0.930 1_565 S
C16 C15 1.380 . S
C16 C23 1.357 . S
C17 C8 1.511 . S
C17 C18 1.341 . S
C17 C19 1.371 . S
C18 C17 1.341 . S
C18 C22 1.394 . S
C18 H34 0.930 . S
C19 C17 1.371 . S
C19 C20 1.392 . S
C19 H35 0.931 . S
C20 C19 1.392 . S
C20 C21 1.331 . S
C20 H38 0.932 . S
C21 C20 1.331 . S
C21 C22 1.336 . S
C22 C18 1.394 . S
C22 C21 1.336 . S
C22 H37 0.929 . S
C23 C13 1.386 . S
C23 C16 1.357 . S
C23 H36 0.928 . S
H24 C0 0.931 . S
H25 C2 0.930 . S
H26 C4 0.929 1_554 S
H27 C5 0.931 1_545 S
H28 C7 0.930 . S
H29 C11 0.931 . S
H30 C9 0.931 . S
H31 C13 0.931 . S
H32 C14 0.929 . S
H33 C15 0.930 1_545 S
H34 C18 0.930 . S
H35 C19 0.931 . S
H36 C23 0.928 . S
H37 C22 0.929 . S
H38 C20 0.932 . S
C39 C40 1.386 . S
C39 C41 1.397 . S
C39 H63 0.931 . S
C40 C39 1.386 . S
C40 C44 1.397 . S
C41 C39 1.397 . S
C41 C42 1.384 . S
C41 H64 0.930 . S
C42 C41 1.384 . S
C42 C43 1.377 . S
C42 C45 1.481 . S
C43 C42 1.377 . S
C43 C44 1.389 . S
C43 H65 0.929 . S
C44 C40 1.397 . S
C44 C43 1.389 . S
C44 H66 0.931 . S
C45 C42 1.481 . S
C45 C46 1.387 . S
C45 C50 1.390 . S
C46 C45 1.387 . S
C46 C47 1.401 . S
C46 H67 0.930 . S
C47 C46 1.401 . S
C47 C48 1.376 . S
C47 C56 1.511 . S
C48 C47 1.376 . S
C48 C49 1.392 . S
C48 H69 0.931 . S
C49 C48 1.392 . S
C49 C50 1.361 . S
C49 C51 1.500 . S
C50 C45 1.390 . S
C50 C49 1.361 . S
C50 H68 0.931 . S
C51 C49 1.500 . S
C51 C52 1.371 . S
C51 C53 1.365 . S
C52 C51 1.371 . S
C52 C62 1.386 . S
C52 H70 0.931 . S
C53 C51 1.365 . S
C53 C54 1.409 . S
C53 H71 0.929 . S
C54 C53 1.409 . S
C54 C55 1.380 . S
C54 H72 0.930 . S
C55 C54 1.380 . S
C55 C62 1.357 . S
C56 C47 1.511 . S
C56 C57 1.341 . S
C56 C58 1.371 . S
C57 C56 1.341 . S
C57 C61 1.394 . S
C57 H73 0.930 . S
C58 C56 1.371 . S
C58 C59 1.392 . S
C58 H74 0.931 . S
C59 C58 1.392 . S
C59 C60 1.331 . S
C59 H77 0.932 . S
C60 C59 1.331 . S
C60 C61 1.336 . S
C61 C57 1.394 . S
C61 C60 1.336 . S
C61 H76 0.929 . S
C62 C52 1.386 . S
C62 C55 1.357 . S
C62 H75 0.928 . S
H63 C39 0.931 . S
H64 C41 0.930 . S
H65 C43 0.929 . S
H66 C44 0.931 . S
H67 C46 0.930 . S
H68 C50 0.931 . S
H69 C48 0.931 . S
H70 C52 0.931 . S
H71 C53 0.929 . S
H72 C54 0.930 . S
H73 C57 0.930 . S
H74 C58 0.931 . S
H75 C62 0.928 . S
H76 C61 0.929 . S
H77 C59 0.932 . S
C78 C79 1.386 . S
C78 C80 1.397 . S
C78 H102 0.931 . S
C79 C78 1.386 . S
C79 C83 1.397 . S
C80 C78 1.397 . S
C80 C81 1.384 . S
C80 H103 0.930 . S
C81 C80 1.384 . S
C81 C82 1.377 . S
C81 C84 1.481 . S
C82 C81 1.377 . S
C82 C83 1.389 . S
C82 H104 0.929 . S
C83 C79 1.397 . S
C83 C82 1.389 . S
C83 H105 0.931 . S
C84 C81 1.481 . S
C84 C85 1.387 . S
C84 C89 1.390 . S
C85 C84 1.387 . S
C85 C86 1.401 1_554 S
C85 H106 0.930 . S
C86 C85 1.401 1_556 S
C86 C87 1.376 . S
C86 C95 1.511 . S
C87 C86 1.376 . S
C87 C88 1.392 . S
C87 H108 0.931 . S
C88 C87 1.392 . S
C88 C89 1.361 1_556 S
C88 C90 1.500 . S
C89 C84 1.390 . S
C89 C88 1.361 1_554 S
C89 H107 0.931 . S
C90 C88 1.500 . S
C90 C91 1.371 . S
C90 C92 1.365 . S
C91 C90 1.371 . S
C91 C101 1.386 . S
C91 H109 0.931 . S
C92 C90 1.365 . S
C92 C93 1.409 . S
C92 H110 0.929 . S
C93 C92 1.409 . S
C93 C94 1.380 . S
C93 H111 0.930 . S
C94 C93 1.380 . S
C94 C101 1.357 . S
C95 C86 1.511 . S
C95 C96 1.341 1_556 S
C95 C97 1.371 . S
C96 C95 1.341 1_554 S
C96 C100 1.394 . S
C96 H112 0.930 . S
C97 C95 1.371 . S
C97 C98 1.392 . S
C97 H113 0.931 . S
C98 C97 1.392 . S
C98 C99 1.331 . S
C98 H116 0.932 . S
C99 C98 1.331 . S
C99 C100 1.336 1_556 S
C100 C96 1.394 . S
C100 C99 1.336 1_554 S
C100 H115 0.929 . S
C101 C91 1.386 . S
C101 C94 1.357 . S
C101 H114 0.928 . S
H102 C78 0.931 . S
H103 C80 0.930 . S
H104 C82 0.929 . S
H105 C83 0.931 . S
H106 C85 0.930 . S
H107 C89 0.931 . S
H108 C87 0.931 . S
H109 C91 0.931 . S
H110 C92 0.929 . S
H111 C93 0.930 . S
H112 C96 0.930 . S
H113 C97 0.931 . S
H114 C101 0.928 . S
H115 C100 0.929 . S
H116 C98 0.932 . S
C117 C118 1.386 . S
C117 C119 1.397 . S
C117 H141 0.931 . S
C118 C117 1.386 . S
C118 C122 1.397 . S
C119 C117 1.397 . S
C119 C120 1.384 . S
C119 H142 0.930 . S
C120 C119 1.384 . S
C120 C121 1.377 . S
C120 C123 1.481 . S
C121 C120 1.377 . S
C121 C122 1.389 . S
C121 H143 0.929 . S
C122 C118 1.397 . S
C122 C121 1.389 . S
C122 H144 0.931 . S
C123 C120 1.481 . S
C123 C124 1.387 . S
C123 C128 1.390 . S
C124 C123 1.387 . S
C124 C125 1.401 . S
C124 H145 0.930 . S
C125 C124 1.401 . S
C125 C126 1.376 . S
C125 C134 1.511 . S
C126 C125 1.376 . S
C126 C127 1.392 . S
C126 H147 0.931 . S
C127 C126 1.392 . S
C127 C128 1.361 . S
C127 C129 1.500 . S
C128 C123 1.390 . S
C128 C127 1.361 . S
C128 H146 0.931 . S
C129 C127 1.500 . S
C129 C130 1.371 . S
C129 C131 1.365 . S
C130 C129 1.371 . S
C130 C140 1.386 . S
C130 H148 0.931 . S
C131 C129 1.365 . S
C131 C132 1.409 . S
C131 H149 0.929 . S
C132 C131 1.409 . S
C132 C133 1.380 . S
C132 H150 0.930 . S
C133 C132 1.380 . S
C133 C140 1.357 . S
C134 C125 1.511 . S
C134 C135 1.341 . S
C134 C136 1.371 . S
C135 C134 1.341 . S
C135 C139 1.394 . S
C135 H151 0.930 . S
C136 C134 1.371 . S
C136 C137 1.392 . S
C136 H152 0.931 . S
C137 C136 1.392 . S
C137 C138 1.331 . S
C137 H155 0.932 . S
C138 C137 1.331 . S
C138 C139 1.336 . S
C139 C135 1.394 . S
C139 C138 1.336 . S
C139 H154 0.929 . S
C140 C130 1.386 . S
C140 C133 1.357 . S
C140 H153 0.928 . S
H141 C117 0.931 . S
H142 C119 0.930 . S
H143 C121 0.929 . S
H144 C122 0.931 . S
H145 C124 0.930 . S
H146 C128 0.931 . S
H147 C126 0.931 . S
H148 C130 0.931 . S
H149 C131 0.929 . S
H150 C132 0.930 . S
H151 C135 0.930 . S
H152 C136 0.931 . S
H153 C140 0.928 . S
H154 C139 0.929 . S
H155 C137 0.932 . S
O156 Mg157 1.990 1_655 S
O156 C170 1.253 . S
Mg157 O156 1.990 1_455 S
Mg157 O160 2.180 . S
Mg157 O161 2.117 . S
Mg157 O175 2.030 . S
O158 Mg159 2.072 1_655 S
O158 C170 1.260 . S
Mg159 O158 2.072 1_455 S
Mg159 O160 2.099 . S
Mg159 O162 2.079 1_545 S
Mg159 O163 2.072 1_455 S
Mg159 O165 2.099 1_445 S
Mg159 O176 2.079 1_545 S
O160 Mg157 2.180 . S
O160 Mg159 2.099 . S
O160 C171 1.279 . S
O161 Mg157 2.117 . S
O161 C171 1.250 . S
O162 Mg159 2.079 1_565 S
O162 C172 1.264 . S
O163 Mg159 2.072 1_655 S
O163 C173 1.260 . S
Mg164 O165 2.180 . S
Mg164 O166 2.030 1_655 S
Mg164 O167 2.001 . S
Mg164 O168 2.117 . S
O165 Mg159 2.099 1_665 S
O165 Mg164 2.180 . S
O165 C174 1.279 . S
O166 Mg164 2.030 1_455 S
O166 C172 1.248 . S
O167 Mg164 2.001 . S
O167 C173 1.242 1_565 S
O168 Mg164 2.117 . S
O168 C174 1.250 . S
C169 O175 1.248 1_565 S
C169 O176 1.264 . S
C170 O156 1.253 . S
C170 O158 1.260 . S
C171 O160 1.279 . S
C171 O161 1.250 . S
C172 O162 1.264 . S
C172 O166 1.248 . S
C173 O163 1.260 . S
C173 O167 1.242 1_545 S
C174 O165 1.279 . S
C174 O168 1.250 . S
O175 Mg157 2.030 . S
O175 C169 1.248 1_545 S
O176 Mg159 2.079 1_565 S
O176 C169 1.264 . S
O177 Mg178 1.990 . S
O177 C191 1.253 . S
Mg178 O177 1.990 . S
Mg178 O181 2.180 . S
Mg178 O182 2.117 . S
Mg178 O196 2.030 . S
O179 Mg180 2.072 . S
O179 C191 1.260 . S
Mg180 O179 2.072 . S
Mg180 O181 2.099 . S
Mg180 O183 2.079 1_554 S
Mg180 O184 2.072 1_554 S
Mg180 O186 2.099 . S
Mg180 O197 2.079 . S
O181 Mg178 2.180 . S
O181 Mg180 2.099 . S
O181 C192 1.279 . S
O182 Mg178 2.117 . S
O182 C192 1.250 . S
O183 Mg180 2.079 1_556 S
O183 C193 1.264 . S
O184 Mg180 2.072 1_556 S
O184 C194 1.260 . S
Mg185 O186 2.180 1_556 S
Mg185 O187 2.030 . S
Mg185 O188 1.990 . S
Mg185 O189 2.117 . S
O186 Mg180 2.099 . S
O186 Mg185 2.180 1_554 S
O186 C195 1.279 . S
O187 Mg185 2.030 . S
O187 C193 1.248 . S
O188 Mg185 1.990 . S
O188 C194 1.253 . S
O189 Mg185 2.117 . S
O189 C195 1.250 1_556 S
C190 O196 1.248 . S
C190 O197 1.264 . S
C191 O177 1.253 . S
C191 O179 1.260 . S
C192 O181 1.279 . S
C192 O182 1.250 . S
C193 O183 1.264 . S
C193 O187 1.248 . S
C194 O184 1.260 . S
C194 O188 1.253 . S
C195 O186 1.279 . S
C195 O189 1.250 1_554 S
O196 Mg178 2.030 . S
O196 C190 1.248 . S
O197 Mg180 2.079 . S
O197 C190 1.264 . S
C198 C199 1.369 . S
C198 C200 1.419 . S
C198 H202 0.930 . S
C199 C198 1.369 . S
C199 C208 1.429 . S
C200 C198 1.419 . S
C200 C201 1.363 . S
C200 H203 0.929 . S
C201 C200 1.363 . S
C201 C207 1.428 . S
H202 C198 0.930 . S
H203 C200 0.929 . S
S204 N205 1.613 . S
S204 N206 1.610 . S
N205 S204 1.613 . S
N205 C208 1.350 . S
N206 S204 1.610 . S
N206 C207 1.351 . S
C207 C201 1.428 . S
C207 N206 1.351 . S
C207 C208 1.434 . S
C208 C199 1.429 . S
C208 N205 1.350 . S
C208 C207 1.434 . S
C209 C210 1.369 . S
C209 C211 1.419 . S
C209 H213 0.930 . S
C210 C209 1.369 . S
C210 C219 1.429 . S
C211 C209 1.419 . S
C211 C212 1.363 . S
C211 H214 0.929 . S
C212 C211 1.363 . S
C212 C218 1.428 . S
H213 C209 0.930 . S
H214 C211 0.929 . S
S215 N216 1.613 . S
S215 N217 1.610 . S
N216 S215 1.613 . S
N216 C219 1.350 1_556 S
N217 S215 1.610 . S
N217 C218 1.351 1_556 S
C218 C212 1.428 . S
C218 N217 1.351 1_554 S
C218 C219 1.434 . S
C219 C210 1.429 . S
C219 N216 1.350 1_554 S
C219 C218 1.434 . S
C220 C221 1.369 . S
C220 C222 1.419 . S
C220 H224 0.930 . S
C221 C220 1.369 . S
C221 C230 1.429 . S
C222 C220 1.419 . S
C222 C223 1.363 . S
C222 H225 0.929 . S
C223 C222 1.363 . S
C223 C229 1.428 . S
H224 C220 0.930 . S
H225 C222 0.929 . S
S226 N227 1.613 1_455 S
S226 N228 1.610 . S
N227 S226 1.613 1_655 S
N227 C230 1.350 . S
N228 S226 1.610 . S
N228 C229 1.351 1_455 S
C229 C223 1.428 . S
C229 N228 1.351 1_655 S
C229 C230 1.434 . S
C230 C221 1.429 . S
C230 N227 1.350 . S
C230 C229 1.434 . S
C231 C232 1.369 . S
C231 C233 1.419 . S
C231 H235 0.930 . S
C232 C231 1.369 . S
C232 C241 1.429 1_556 S
C233 C231 1.419 . S
C233 C234 1.363 1_556 S
C233 H236 0.929 . S
C234 C233 1.363 1_554 S
C234 C240 1.428 . S
H235 C231 0.930 . S
H236 C233 0.929 . S
S237 N238 1.613 . S
S237 N239 1.610 . S
N238 S237 1.613 . S
N238 C241 1.350 . S
N239 S237 1.610 . S
N239 C240 1.351 . S
C240 C234 1.428 . S
C240 N239 1.351 . S
C240 C241 1.434 . S
C241 C232 1.429 1_554 S
C241 N238 1.350 . S
C241 C240 1.434 . S
C242 C243 1.369 . S
C242 C244 1.419 . S
C242 H246 0.930 . S
C243 C242 1.369 . S
C243 C252 1.429 . S
C244 C242 1.419 . S
C244 C245 1.363 . S
C244 H247 0.929 . S
C245 C244 1.363 . S
C245 C251 1.428 . S
H246 C242 0.930 . S
H247 C244 0.929 . S
S248 N249 1.613 . S
S248 N250 1.610 . S
N249 S248 1.613 . S
N249 C252 1.350 . S
N250 S248 1.610 . S
N250 C251 1.351 . S
C251 C245 1.428 . S
C251 N250 1.351 . S
C251 C252 1.434 . S
C252 C243 1.429 . S
C252 N249 1.350 . S
C252 C251 1.434 . S
C253 C254 1.369 . S
C253 C255 1.419 . S
C253 H257 0.930 . S
C254 C253 1.369 . S
C254 C263 1.429 . S
C255 C253 1.419 . S
C255 C256 1.363 . S
C255 H258 0.929 . S
C256 C255 1.363 . S
C256 C262 1.428 . S
H257 C253 0.930 . S
H258 C255 0.929 . S
S259 N260 1.613 . S
S259 N261 1.610 . S
N260 S259 1.613 . S
N260 C263 1.350 . S
N261 S259 1.610 . S
N261 C262 1.351 . S
C262 C256 1.428 . S
C262 N261 1.351 . S
C262 C263 1.434 . S
C263 C254 1.429 . S
C263 N260 1.350 . S
C263 C262 1.434 . S
C264 C265 1.369 . S
C264 C266 1.419 . S
C264 H268 0.930 . S
C265 C264 1.369 . S
C265 C274 1.429 . S
C266 C264 1.419 . S
C266 C267 1.363 . S
C266 H269 0.929 . S
C267 C266 1.363 . S
C267 C273 1.428 . S
H268 C264 0.930 . S
H269 C266 0.929 . S
S270 N271 1.613 . S
S270 N272 1.610 . S
N271 S270 1.613 . S
N271 C274 1.350 1_565 S
N272 S270 1.610 . S
N272 C273 1.351 1_565 S
C273 C267 1.428 . S
C273 N272 1.351 1_545 S
C273 C274 1.434 . S
C274 C265 1.429 . S
C274 N271 1.350 1_545 S
C274 C273 1.434 . S
C275 C276 1.369 . S
C275 C277 1.419 . S
C275 H279 0.930 . S
C276 C275 1.369 . S
C276 C285 1.429 . S
C277 C275 1.419 . S
C277 C278 1.363 . S
C277 H280 0.929 . S
C278 C277 1.363 . S
C278 C284 1.428 . S
H279 C275 0.930 . S
H280 C277 0.929 . S
S281 N282 1.613 . S
S281 N283 1.610 . S
N282 S281 1.613 . S
N282 C285 1.350 . S
N283 S281 1.610 . S
N283 C284 1.351 . S
C284 C278 1.428 . S
C284 N283 1.351 . S
C284 C285 1.434 . S
C285 C276 1.429 . S
C285 N282 1.350 . S
C285 C284 1.434 . S
C286 C287 1.369 . S
C286 C288 1.419 . S
C286 H290 0.930 . S
C287 C286 1.369 . S
C287 C296 1.429 . S
C288 C286 1.419 . S
C288 C289 1.363 . S
C288 H291 0.929 . S
C289 C288 1.363 . S
C289 C295 1.428 . S
H290 C286 0.930 . S
H291 C288 0.929 . S
S292 N293 1.613 . S
S292 N294 1.610 . S
N293 S292 1.613 . S
N293 C296 1.350 . S
N294 S292 1.610 . S
N294 C295 1.351 . S
C295 C289 1.428 . S
C295 N294 1.351 . S
C295 C296 1.434 . S
C296 C287 1.429 . S
C296 N293 1.350 . S
C296 C295 1.434 . S
C297 C298 1.369 . S
C297 C299 1.419 . S
C297 H301 0.930 . S
C298 C297 1.369 . S
C298 C307 1.429 . S
C299 C297 1.419 . S
C299 C300 1.363 . S
C299 H302 0.929 . S
C300 C299 1.363 . S
C300 C306 1.428 . S
H301 C297 0.930 . S
H302 C299 0.929 . S
S303 N304 1.613 . S
S303 N305 1.610 . S
N304 S303 1.613 . S
N304 C307 1.350 . S
N305 S303 1.610 . S
N305 C306 1.351 . S
C306 C300 1.428 . S
C306 N305 1.351 . S
C306 C307 1.434 . S
C307 C298 1.429 . S
C307 N304 1.350 . S
C307 C306 1.434 . S
C308 C309 1.369 . S
C308 C310 1.419 . S
C308 H312 0.930 . S
C309 C308 1.369 . S
C309 C318 1.429 . S
C310 C308 1.419 . S
C310 C311 1.363 . S
C310 H313 0.929 . S
C311 C310 1.363 . S
C311 C317 1.428 . S
H312 C308 0.930 . S
H313 C310 0.929 . S
S314 N315 1.613 . S
S314 N316 1.610 . S
N315 S314 1.613 . S
N315 C318 1.350 . S
N316 S314 1.610 . S
N316 C317 1.351 . S
C317 C311 1.428 . S
C317 N316 1.351 . S
C317 C318 1.434 . S
C318 C309 1.429 . S
C318 N315 1.350 . S
C318 C317 1.434 . S
C319 C320 1.369 1_545 S
C319 C321 1.419 . S
C319 H323 0.930 . S
C320 C319 1.369 1_565 S
C320 C329 1.429 . S
C321 C319 1.419 . S
C321 C322 1.363 1_545 S
C321 H324 0.929 . S
C322 C321 1.363 1_565 S
C322 C328 1.428 . S
H323 C319 0.930 . S
H324 C321 0.929 . S
S325 N326 1.613 . S
S325 N327 1.610 . S
N326 S325 1.613 . S
N326 C329 1.350 . S
N327 S325 1.610 . S
N327 C328 1.351 . S
C328 C322 1.428 . S
C328 N327 1.351 . S
C328 C329 1.434 . S
C329 C320 1.429 . S
C329 N326 1.350 . S
C329 C328 1.434 . S
C201 C171 1.436 . S
C199 C138 1.574 . S
C210 C21 1.558 . S
C212 C195 1.422 . S
C221 C60 1.664 . S
C223 C174 1.503 . S
C232 C99 1.681 . S
C234 C192 1.501 . S
C245 C172 1.682 . S
C243 C16 1.630 . S
C256 C194 1.620 . S
C254 C40 1.621 . S
C265 C79 1.612 . S
C267 C173 1.517 . S
C276 C133 1.611 . S
C278 C193 1.548 . S
C289 C191 1.519 . S
C287 C55 1.608 . S
C300 C170 1.618 . S
C298 C94 1.618 . S
C311 C190 1.684 . S
C309 C118 1.635 . S
C320 C1 1.610 . S
C322 C169 1.548 . S
