# Generated by pormake.
# Topology ftw, (4,12)-cn, num edge types: 1
# Building blocks:
#     Node 0, Type 0, BuildingBlock: NAHDIM_clean_linker_0, # of connection points: 4
#     Node 1, Type 0, BuildingBlock: NAHDIM_clean_linker_0, # of connection points: 4
#     Node 2, Type 0, BuildingBlock: NAHDIM_clean_linker_0, # of connection points: 4
#     Node 3, Type 1, BuildingBlock: EZIPEK_clean_sbu_0, # of connection points: 12
#     Edge 4, Type (0, 1), BuildingBlock: TEMPAE_clean_linker_10, # of connection points: 2
#     Edge 5, Type (0, 1), BuildingBlock: TEMPAE_clean_linker_10, # of connection points: 2
#     Edge 6, Type (0, 1), BuildingBlock: TEMPAE_clean_linker_10, # of connection points: 2
#     Edge 7, Type (0, 1), BuildingBlock: TEMPAE_clean_linker_10, # of connection points: 2
#     Edge 8, Type (0, 1), BuildingBlock: TEMPAE_clean_linker_10, # of connection points: 2
#     Edge 9, Type (0, 1), BuildingBlock: TEMPAE_clean_linker_10, # of connection points: 2
#     Edge 10, Type (0, 1), BuildingBlock: TEMPAE_clean_linker_10, # of connection points: 2
#     Edge 11, Type (0, 1), BuildingBlock: TEMPAE_clean_linker_10, # of connection points: 2
#     Edge 12, Type (0, 1), BuildingBlock: TEMPAE_clean_linker_10, # of connection points: 2
#     Edge 13, Type (0, 1), BuildingBlock: TEMPAE_clean_linker_10, # of connection points: 2
#     Edge 14, Type (0, 1), BuildingBlock: TEMPAE_clean_linker_10, # of connection points: 2
#     Edge 15, Type (0, 1), BuildingBlock: TEMPAE_clean_linker_10, # of connection points: 2
# Relax obj value: 0.006
# Max RMSD: 0.061
# Mean RMSD: 0.048
data_MOF--net-ftw--node1-EZIPEK_clean_sbu_0--node2-NAHDIM_clean_linker_0--edge1-TEMPAE_clean_linker_10
_symmetry_space_group_name_H-M    P1
_symmetry_Int_Tables_number       1
_symmetry_cell_setting            triclinic
loop_
_symmetry_equiv_pos_as_xyz
'x, y, z'
_cell_length_a     33.305699
_cell_length_b     32.839445
_cell_length_c     32.254985
_cell_angle_alpha  90.469596
_cell_angle_beta   89.53943
_cell_angle_gamma 89.566219
loop_
_atom_site_label
_atom_site_type_symbol
_atom_site_fract_x
_atom_site_fract_y
_atom_site_fract_z
_atom_type_partial_charge
C0 C 0.09788 0.74022 0.35879 0.0
C1 C 0.07668 0.71579 0.32488 0.0
C2 C 0.03545 0.66447 0.3606 0.0
C3 C 0.99595 0.65375 0.36989 0.0
C4 C 0.98724 0.61752 0.39055 0.0
C5 C 0.01906 0.59145 0.40226 0.0
C6 C 0.05923 0.60205 0.39312 0.0
C7 C 0.06711 0.63863 0.37249 0.0
C8 C 0.94408 0.60707 0.39993 0.0
C9 C 0.09374 0.57478 0.40538 0.0
C10 C 0.02796 0.29293 0.26473 0.0
C11 C 0.03485 0.32369 0.29781 0.0
C12 C 0.00127 0.38055 0.33308 0.0
C13 C 0.03238 0.38708 0.36155 0.0
C14 C 0.03014 0.41905 0.39049 0.0
C15 C 0.99552 0.44432 0.39189 0.0
C16 C 0.96341 0.43677 0.3645 0.0
C17 C 0.96688 0.40509 0.33519 0.0
C18 C 0.06548 0.42658 0.41858 0.0
C19 C 0.92587 0.46276 0.36553 0.0
C20 C 0.94564 0.35877 0.64517 0.0
C21 C 0.98653 0.3689 0.64287 0.0
C22 C 0.99861 0.40676 0.62754 0.0
C23 C 0.96917 0.43535 0.6152 0.0
C24 C 0.92797 0.42637 0.62037 0.0
C25 C 0.91675 0.3881 0.6354 0.0
C26 C 0.04281 0.41581 0.62346 0.0
C27 C 0.89583 0.45665 0.60859 0.0
C28 C 0.09166 0.7344 0.62264 0.0
C29 C 0.05975 0.72251 0.65478 0.0
C30 C 0.05171 0.64893 0.65815 0.0
C31 C 0.07623 0.61483 0.65161 0.0
C32 C 0.0606 0.5788 0.63486 0.0
C33 C 0.01922 0.57684 0.62543 0.0
C34 C 0.9936 0.61 0.63567 0.0
C35 C 0.01016 0.64586 0.65184 0.0
C36 C 0.08867 0.54369 0.62505 0.0
C37 C 0.94916 0.60836 0.62723 0.0
C38 C 0.01013 0.55312 0.42417 0.0
C39 C 0.00428 0.5181 0.40035 0.0
C40 C 0.9951 0.48102 0.41891 0.0
C41 C 0.98999 0.47902 0.4624 0.0
C42 C 0.97846 0.4428 0.48192 0.0
C43 C 0.97503 0.44089 0.52491 0.0
C44 C 0.98349 0.47501 0.55001 0.0
C45 C 0.9814 0.47312 0.59381 0.0
C46 C 0.99216 0.50693 0.61783 0.0
C47 C 0.00433 0.54308 0.5991 0.0
C48 C 0.00465 0.54621 0.5554 0.0
C49 C 0.01523 0.58273 0.53566 0.0
C50 C 0.01617 0.58534 0.49271 0.0
C51 C 0.00777 0.55122 0.46781 0.0
C52 C 0.99724 0.5141 0.48698 0.0
C53 C 0.99482 0.51185 0.53083 0.0
C54 C 0.92857 0.25647 0.62282 0.0
C55 C 0.95358 0.28482 0.6502 0.0
O56 O 0.04124 0.70009 0.34051 0.0
O57 O 0.06911 0.68431 0.67009 0.0
O58 O 0.93292 0.32118 0.65635 0.0
O59 O 0.00364 0.35148 0.3029 0.0
H60 H 0.0967 0.69072 0.31358 0.0
H61 H 0.12679 0.75237 0.34695 0.0
H62 H 0.10446 0.72045 0.38569 0.0
H63 H 0.0786 0.76603 0.3696 0.0
H64 H 0.97181 0.67402 0.36073 0.0
H65 H 0.09792 0.64677 0.36613 0.0
H66 H 0.93662 0.57741 0.38522 0.0
H67 H 0.92278 0.63061 0.38865 0.0
H68 H 0.93983 0.60373 0.43391 0.0
H69 H 0.1233 0.58719 0.39579 0.0
H70 H 0.09013 0.54419 0.39101 0.0
H71 H 0.09356 0.57075 0.43952 0.0
H72 H 0.06501 0.33823 0.29654 0.0
H73 H 0.05206 0.29863 0.24084 0.0
H74 H 0.00285 0.30511 0.24503 0.0
H75 H 0.0239 0.23808 0.29731 0.0
H76 H 0.05898 0.36799 0.36084 0.0
H77 H 0.94287 0.39962 0.3134 0.0
H78 H 0.05673 0.42016 0.45112 0.0
H79 H 0.07469 0.45897 0.41706 0.0
H80 H 0.0918 0.40707 0.41035 0.0
H81 H 0.90124 0.44896 0.34726 0.0
H82 H 0.93265 0.49311 0.35241 0.0
H83 H 0.91537 0.46748 0.398 0.0
H84 H 0.98182 0.28936 0.63223 0.0
H85 H 0.00917 0.34735 0.65263 0.0
H86 H 0.88527 0.38038 0.63822 0.0
H87 H 0.05031 0.42306 0.59075 0.0
H88 H 0.06199 0.38992 0.63345 0.0
H89 H 0.05012 0.44294 0.64262 0.0
H90 H 0.86544 0.44688 0.61867 0.0
H91 H 0.89585 0.46031 0.5744 0.0
H92 H 0.90223 0.48689 0.62261 0.0
H93 H 0.03083 0.72236 0.63774 0.0
H94 H 0.08609 0.7658 0.61135 0.0
H95 H 0.0903 0.71325 0.59563 0.0
H96 H 0.12229 0.73217 0.63587 0.0
H97 H 0.10811 0.61725 0.6576 0.0
H98 H 0.99065 0.67154 0.6588 0.0
H99 H 0.08975 0.53837 0.59101 0.0
H100 H 0.07726 0.5155 0.63961 0.0
H101 H 0.11966 0.54929 0.63612 0.0
H102 H 0.93254 0.63397 0.64239 0.0
H103 H 0.93659 0.57912 0.63828 0.0
H104 H 0.9442 0.60989 0.59328 0.0
H105 H 0.00788 0.51953 0.36691 0.0
H106 H 0.97199 0.41557 0.4641 0.0
H107 H 0.96622 0.41211 0.53821 0.0
H108 H 0.99172 0.50486 0.65138 0.0
H109 H 0.02281 0.60985 0.55309 0.0
H110 H 0.02434 0.61426 0.4793 0.0
H111 H 0.89747 0.25345 0.63497 0.0
H112 H 0.94288 0.22583 0.62058 0.0
H113 H 0.92667 0.26919 0.59107 0.0
C114 C 0.71811 0.09745 0.65485 0.0
C115 C 0.69991 0.0749 0.69188 0.0
C116 C 0.64875 0.03213 0.65802 0.0
C117 C 0.64069 0.99255 0.6445 0.0
C118 C 0.60624 0.98379 0.6215 0.0
C119 C 0.57902 0.01554 0.61198 0.0
C120 C 0.5864 0.05559 0.62633 0.0
C121 C 0.62123 0.06355 0.64922 0.0
C122 C 0.59923 0.9407 0.60679 0.0
C123 C 0.55774 0.09002 0.61689 0.0
C124 C 0.26731 0.91319 0.6249 0.0
C125 C 0.29201 0.94551 0.64745 0.0
C126 C 0.36519 0.94428 0.64033 0.0
C127 C 0.37152 0.98598 0.63368 0.0
C128 C 0.40748 -0.0004 0.61572 0.0
C129 C 0.43774 0.97099 0.60464 0.0
C130 C 0.43224 0.92924 0.61336 0.0
C131 C 0.39604 0.91648 0.63141 0.0
C132 C 0.41288 0.04445 0.60781 0.0
C133 C 0.4642 0.89802 0.60258 0.0
C134 C 0.38029 0.95166 0.33568 0.0
C135 C 0.38285 0.9923 0.34916 0.0
C136 C 0.41634 0.0058 0.3714 0.0
C137 C 0.44775 0.97802 0.38028 0.0
C138 C 0.44593 0.9375 0.36518 0.0
C139 C 0.41232 0.92499 0.3426 0.0
C140 C 0.41795 0.04952 0.38597 0.0
C141 C 0.4791 0.90722 0.37366 0.0
C142 C 0.75569 0.07803 0.37448 0.0
C143 C 0.7341 0.04845 0.34548 0.0
C144 C 0.6609 0.05097 0.35186 0.0
C145 C 0.63105 0.07983 0.36097 0.0
C146 C 0.59448 0.06833 0.37915 0.0
C147 C 0.58762 0.0268 0.38787 0.0
C148 C 0.61688 0.99717 0.37668 0.0
C149 C 0.65316 0.00953 0.35847 0.0
C150 C 0.56357 0.10058 0.39001 0.0
C151 C 0.61002 0.95252 0.38457 0.0
C152 C 0.54361 0.00697 0.58576 0.0
C153 C 0.50809 0.99478 0.60526 0.0
C154 C 0.4743 0.98442 0.58215 0.0
C155 C 0.47576 0.98621 0.53834 0.0
C156 C 0.44252 0.97533 0.51412 0.0
C157 C 0.4444 0.97675 0.47105 0.0
C158 C 0.4795 0.9894 0.45048 0.0
C159 C 0.48177 0.99081 0.40668 0.0
C160 C 0.51714 0.00348 0.38723 0.0
C161 C 0.55068 0.01454 0.41039 0.0
C162 C 0.54907 0.01316 0.4542 0.0
C163 C 0.58242 0.02373 0.4784 0.0
C164 C 0.5807 0.02182 0.52145 0.0
C165 C 0.54552 0.00943 0.54202 0.0
C166 C 0.51148 0.99889 0.51825 0.0
C167 C 0.5133 0.00063 0.47428 0.0
C168 C 0.28847 0.90827 0.34396 0.0
C169 C 0.30799 0.94627 0.32586 0.0
O170 O 0.68347 0.0383 0.67898 0.0
O171 O 0.69646 0.06413 0.33627 0.0
O172 O 0.34761 0.93735 0.31557 0.0
O173 O 0.32992 0.9298 0.65537 0.0
H174 H 0.67623 0.0942 0.70685 0.0
H175 H 0.69462 0.1049 0.63187 0.0
H176 H 0.74152 0.07837 0.63924 0.0
H177 H 0.73183 0.12646 0.66536 0.0
H178 H 0.66196 0.9685 0.6516 0.0
H179 H 0.62674 0.09434 0.65974 0.0
H180 H 0.56977 0.92995 0.61856 0.0
H181 H 0.62305 0.91935 0.61723 0.0
H182 H 0.59815 0.93985 0.57239 0.0
H183 H 0.56699 0.11924 0.6314 0.0
H184 H 0.52713 0.08237 0.62812 0.0
H185 H 0.55605 0.09418 0.58281 0.0
H186 H 0.29364 0.97185 0.62602 0.0
H187 H 0.23655 0.92493 0.61879 0.0
H188 H 0.26515 0.88494 0.64348 0.0
H189 H 0.28184 0.90544 0.59471 0.0
H190 H 0.34851 0.00793 0.64248 0.0
H191 H 0.39115 0.88448 0.63746 0.0
H192 H 0.44098 0.05514 0.62252 0.0
H193 H 0.38731 0.06306 0.61994 0.0
H194 H 0.41584 0.04962 0.57395 0.0
H195 H 0.45566 0.86683 0.61218 0.0
H196 H 0.49278 0.90624 0.61792 0.0
H197 H 0.46981 0.89791 0.5686 0.0
H198 H 0.3061 0.97031 0.35035 0.0
H199 H 0.35884 0.01352 0.34215 0.0
H200 H 0.41029 0.8939 0.33134 0.0
H201 H 0.41676 0.05063 0.42037 0.0
H202 H 0.39271 0.06808 0.37379 0.0
H203 H 0.44675 0.06341 0.37608 0.0
H204 H 0.47255 0.8765 0.36082 0.0
H205 H 0.48369 0.90468 0.40761 0.0
H206 H 0.50762 0.91811 0.35976 0.0
H207 H 0.73182 0.01924 0.3625 0.0
H208 H 0.78622 0.06631 0.38169 0.0
H209 H 0.73853 0.08125 0.40401 0.0
H210 H 0.75831 0.10861 0.36026 0.0
H211 H 0.63699 0.11164 0.35489 0.0
H212 H 0.67522 0.98675 0.34931 0.0
H213 H 0.55888 0.10155 0.42413 0.0
H214 H 0.53437 0.09281 0.37569 0.0
H215 H 0.57268 0.13131 0.37948 0.0
H216 H 0.63551 0.93318 0.37354 0.0
H217 H 0.58227 0.94257 0.3687 0.0
H218 H 0.60558 0.94754 0.4183 0.0
H219 H 0.50689 0.99286 0.63881 0.0
H220 H 0.41467 0.9654 0.52817 0.0
H221 H 0.41793 0.9678 0.45411 0.0
H222 H 0.51871 0.00434 0.35363 0.0
H223 H 0.61033 0.03348 0.46436 0.0
H224 H 0.60736 0.03021 0.5384 0.0
H225 H 0.28964 0.8826 0.32129 0.0
H226 H 0.25663 0.91468 0.35247 0.0
H227 H 0.30464 0.89892 0.37237 0.0
C228 C 0.64966 0.76732 0.94925 0.0
C229 C 0.67603 0.74122 0.97743 0.0
C230 C 0.6514 0.67276 0.96982 0.0
C231 C 0.6428 0.66146 0.01069 0.0
C232 C 0.61182 0.63405 0.01938 0.0
C233 C 0.58898 0.61784 0.9864 0.0
C234 C 0.59884 0.62785 0.94495 0.0
C235 C 0.63043 0.6549 0.93716 0.0
C236 C 0.60271 0.62335 0.06385 0.0
C237 C 0.5751 0.61113 0.90909 0.0
C238 C 0.30435 0.67474 0.10354 0.0
C239 C 0.32467 0.70519 0.07453 0.0
C240 C 0.37419 0.66354 0.03516 0.0
C241 C 0.38282 0.64665 0.99621 0.0
C242 C 0.41787 0.62366 0.9891 0.0
C243 C 0.44487 0.61714 0.02205 0.0
C244 C 0.43645 0.63413 0.06165 0.0
C245 C 0.40121 0.65726 0.06785 0.0
C246 C 0.42609 0.60636 0.94634 0.0
C247 C 0.46472 0.62776 0.09738 0.0
C248 C 0.37715 0.35671 0.05086 0.0
C249 C 0.38438 0.36655 0.00919 0.0
C250 C 0.41973 0.38653 0.99739 0.0
C251 C 0.44849 0.39642 0.02783 0.0
C252 C 0.44213 0.38472 0.06946 0.0
C253 C 0.40657 0.36468 0.08037 0.0
C254 C 0.42612 0.39765 0.95253 0.0
C255 C 0.47249 0.39428 0.10254 0.0
C256 C 0.754 0.37221 0.90975 0.0
C257 C 0.73247 0.35007 0.94496 0.0
C258 C 0.6596 0.35764 0.94867 0.0
C259 C 0.62831 0.36664 0.92166 0.0
C260 C 0.59331 0.38639 0.93595 0.0
C261 C 0.58942 0.3966 0.97851 0.0
C262 C 0.62004 0.38543 0.00644 0.0
C263 C 0.65488 0.36594 0.99122 0.0
C264 C 0.56091 0.39726 0.90544 0.0
C265 C 0.61622 0.39482 0.05216 0.0
C266 C 0.55295 0.59306 0.99562 0.0
C267 C 0.51719 0.61388 0.00486 0.0
C268 C 0.48212 0.59294 0.01478 0.0
C269 C 0.48261 0.54992 0.01613 0.0
C270 C 0.44815 0.52793 0.02719 0.0
C271 C 0.44876 0.48557 0.02775 0.0
C272 C 0.48374 0.46356 0.01687 0.0
C273 C 0.48441 0.42048 0.01645 0.0
C274 C 0.51937 0.39954 0.00454 0.0
C275 C 0.5541 0.42053 0.9933 0.0
C276 C 0.55437 0.46361 0.99454 0.0
C277 C 0.58911 0.48567 0.9844 0.0
C278 C 0.58893 0.52806 0.98532 0.0
C279 C 0.55379 0.55001 0.99557 0.0
C280 C 0.51847 0.52839 0.00598 0.0
C281 C 0.5189 0.48516 0.00595 0.0
C282 C 0.28173 0.37309 0.08287 0.0
C283 C 0.30432 0.34859 0.04942 0.0
O284 O 0.67881 0.70194 0.96148 0.0
O285 O 0.69377 0.34084 0.93269 0.0
O286 O 0.34246 0.33911 0.06355 0.0
O287 O 0.33949 0.68532 0.03947 0.0
H288 H 0.66144 0.741 0.00862 0.0
H289 H 0.61885 0.75466 0.94817 0.0
H290 H 0.66208 0.76778 0.91718 0.0
H291 H 0.64762 0.79904 0.9614 0.0
H292 H 0.65999 0.67456 0.03579 0.0
H293 H 0.63768 0.66365 0.90567 0.0
H294 H 0.57318 0.63664 0.07304 0.0
H295 H 0.62585 0.63496 0.08546 0.0
H296 H 0.60064 0.58979 0.06716 0.0
H297 H 0.58648 0.62202 0.8787 0.0
H298 H 0.54307 0.6203 0.91254 0.0
H299 H 0.5764 0.57735 0.90919 0.0
H300 H 0.34964 0.7205 0.09108 0.0
H301 H 0.29232 0.69071 0.13155 0.0
H302 H 0.32621 0.65132 0.11381 0.0
H303 H 0.27931 0.65913 0.08751 0.0
H304 H 0.36184 0.65166 0.97121 0.0
H305 H 0.3951 0.67004 0.09825 0.0
H306 H 0.42658 0.57259 0.94766 0.0
H307 H 0.45607 0.61626 0.93519 0.0
H308 H 0.40312 0.61595 0.92355 0.0
H309 H 0.45284 0.64097 0.12687 0.0
H310 H 0.49402 0.6421 0.09021 0.0
H311 H 0.47033 0.5947 0.10174 0.0
H312 H 0.30569 0.36836 0.02162 0.0
H313 H 0.36264 0.35851 0.9858 0.0
H314 H 0.40101 0.35619 0.11229 0.0
H315 H 0.42796 0.43127 0.94973 0.0
H316 H 0.40158 0.38654 0.93236 0.0
H317 H 0.45506 0.38462 0.94113 0.0
H318 H 0.46353 0.38225 0.13333 0.0
H319 H 0.47618 0.42778 0.1052 0.0
H320 H 0.50215 0.38105 0.09367 0.0
H321 H 0.73221 0.37148 0.9719 0.0
H322 H 0.7853 0.37947 0.91876 0.0
H323 H 0.73803 0.40121 0.90306 0.0
H324 H 0.75467 0.35333 0.88101 0.0
H325 H 0.63198 0.35932 0.88901 0.0
H326 H 0.67829 0.3572 0.01256 0.0
H327 H 0.55621 0.43077 0.90538 0.0
H328 H 0.53215 0.38316 0.91506 0.0
H329 H 0.56842 0.38695 0.8734 0.0
H330 H 0.6416 0.38206 0.07018 0.0
H331 H 0.58766 0.3823 0.06446 0.0
H332 H 0.6152 0.42832 0.05702 0.0
H333 H 0.5166 0.64692 0.00412 0.0
H334 H 0.42032 0.54323 0.03559 0.0
H335 H 0.4213 0.47031 0.0365 0.0
H336 H 0.51943 0.3665 0.00359 0.0
H337 H 0.6169 0.47043 0.97576 0.0
H338 H 0.61656 0.54344 0.97741 0.0
H339 H 0.27981 0.35576 0.11225 0.0
H340 H 0.25087 0.3806 0.07234 0.0
H341 H 0.29772 0.40204 0.0891 0.0
C342 C 0.01703 0.11518 0.89882 0.0
C343 C 0.01764 0.11207 0.10035 0.0
C344 C 0.0193 0.91892 0.89475 0.0
C345 C 0.02315 0.91613 0.0954 0.0
C346 C 0.1152 0.91662 0.00093 0.0
C347 C 0.11606 0.11421 0.00092 0.0
C348 C 0.92033 0.91844 0.99347 0.0
C349 C 0.92187 0.11564 0.99647 0.0
C350 C 0.92358 0.01759 0.10092 0.0
C351 C 0.11754 0.00918 0.09398 0.0
C352 C 0.91958 0.02317 0.90032 0.0
C353 C 0.11325 0.01008 0.89331 0.0
Eu354 Eu 0.01903 0.09306 0.99901 0.0
O355 O 0.05554 0.05134 0.03372 0.0
O356 O 0.98296 0.05212 0.96343 0.0
Eu357 Eu 0.0951 0.01558 0.99448 0.0
Eu358 Eu 0.94229 0.01666 -0.00017 0.0
O359 O 0.05443 0.05302 0.9595 0.0
O360 O 0.98357 0.05214 0.03571 0.0
Eu361 Eu 0.01707 0.01666 0.91967 0.0
Eu362 Eu 0.01995 0.0146 0.07468 0.0
O363 O 0.05348 0.97957 0.95912 0.0
O364 O 0.054 0.97989 0.03047 0.0
O365 O 0.98248 0.97859 0.03485 0.0
O366 O 0.98152 0.98023 0.96086 0.0
Eu367 Eu 0.01785 0.93844 0.99565 0.0
O368 O 0.01774 0.12789 0.93829 0.0
O369 O 0.01608 0.1259 0.0615 0.0
O370 O 0.02213 0.90566 0.93364 0.0
O371 O 0.02023 0.90364 0.05605 0.0
O372 O 0.12801 0.95489 0.9972 0.0
O373 O 0.12875 0.07565 0.99668 0.0
O374 O 0.90862 0.95735 0.99593 0.0
O375 O 0.90904 0.0773 0.99926 0.0
O376 O 0.96213 0.01623 0.11173 0.0
O377 O 0.07954 0.00936 0.10738 0.0
O378 O 0.95753 0.02231 0.88668 0.0
O379 O 0.07469 0.01202 0.88266 0.0
O380 O 0.95833 0.90502 0.99368 0.0
O381 O 0.07701 0.90455 0.00065 0.0
O382 O 0.96013 0.1274 0.99619 0.0
O383 O 0.07781 0.12649 0.00226 0.0
O384 O 0.02081 0.07311 0.11102 0.0
O385 O 0.02263 0.95479 0.10825 0.0
O386 O 0.01759 0.07644 0.88621 0.0
O387 O 0.01496 0.95766 0.88348 0.0
O388 O 0.12717 0.01198 0.93202 0.0
O389 O 0.12973 0.01277 0.05467 0.0
O390 O 0.90778 0.02034 0.93981 0.0
O391 O 0.90996 0.01737 0.06208 0.0
C392 C 0.07636 0.2619 0.30521 0.0
C393 C 0.03092 0.28988 0.32376 0.0
C394 C 0.06919 0.23171 0.25911 0.0
C395 C 0.01943 0.22376 0.23883 0.0
C396 C 0.97483 0.24275 0.2651 0.0
C397 C 0.97889 0.27326 0.31157 0.0
C398 C 0.10458 0.21245 0.23803 0.0
C399 C 0.93436 0.23347 0.24824 0.0
C400 C 0.01995 0.18364 0.12856 0.0
C401 C 0.01558 0.14173 0.13515 0.0
C402 C 0.01983 0.21117 0.16216 0.0
C403 C 0.01534 0.19634 0.20295 0.0
C404 C 0.00986 0.15438 0.20971 0.0
C405 C 0.00982 0.12762 0.17578 0.0
C406 C 0.0252 0.25598 0.15414 0.0
C407 C 0.00542 0.13746 0.25291 0.0
H408 H 0.10611 0.26961 0.3158 0.0
H409 H 0.95278 0.28744 0.3259 0.0
H410 H 0.10036 0.17899 0.2366 0.0
H411 H 0.10658 0.22354 0.2057 0.0
H412 H 0.13261 0.2197 0.25481 0.0
H413 H 0.9118 0.25557 0.26054 0.0
H414 H 0.93528 0.23423 0.21386 0.0
H415 H 0.92561 0.20239 0.25776 0.0
H416 H 0.02422 0.19487 0.09735 0.0
H417 H 0.00575 0.09541 0.18138 0.0
H418 H 0.05409 0.26617 0.16746 0.0
H419 H 0.00078 0.27367 0.16974 0.0
H420 H 0.02517 0.26306 0.12052 0.0
H421 H 0.03268 0.14445 0.27115 0.0
H422 H 0.00089 0.10397 0.2528 0.0
H423 H 0.97951 0.15217 0.26901 0.0
C424 C 0.77822 0.00487 0.29858 0.0
C425 C 0.7581 0.04192 0.30591 0.0
C426 C 0.80299 -0.00064 0.26356 0.0
C427 C 0.80808 0.03186 0.23547 0.0
C428 C 0.7871 0.06902 0.24218 0.0
C429 C 0.76226 0.07356 0.27727 0.0
C430 C 0.82466 0.9592 0.25729 0.0
C431 C 0.792 0.10446 0.21308 0.0
C432 C 0.90571 0.0346 0.17436 0.0
C433 C 0.89377 0.0207 0.13512 0.0
C434 C 0.87805 0.03856 0.20712 0.0
C435 C 0.83745 0.02794 0.20069 0.0
C436 C 0.82515 0.01372 0.16125 0.0
C437 C 0.85343 0.01052 0.12881 0.0
C438 C 0.89229 0.05434 0.24857 0.0
C439 C 0.78217 0.00182 0.1534 0.0
H440 H 0.77511 0.98038 0.32068 0.0
H441 H 0.74675 0.10224 0.28293 0.0
H442 H 0.81922 0.94715 0.22561 0.0
H443 H 0.85749 0.96373 0.26027 0.0
H444 H 0.81509 0.93602 0.28016 0.0
H445 H 0.7718 0.13041 0.22136 0.0
H446 H 0.82349 0.11521 0.21385 0.0
H447 H 0.78574 0.09479 0.18076 0.0
H448 H 0.9367 0.04305 0.17944 0.0
H449 H 0.84401 -0.00036 0.09862 0.0
H450 H 0.88691 0.03122 0.27283 0.0
H451 H 0.87499 0.08207 0.2576 0.0
H452 H 0.92475 0.0619 0.24821 0.0
H453 H 0.77315 0.97736 0.17503 0.0
H454 H 0.77753 0.99093 0.1211 0.0
H455 H 0.76193 0.02823 0.15943 0.0
C456 C 0.09856 0.75292 0.26047 0.0
C457 C 0.06764 0.74288 0.28824 0.0
C458 C 0.09162 0.77946 0.22739 0.0
C459 C 0.05261 0.7957 0.22154 0.0
C460 C 0.02107 0.78512 0.24892 0.0
C461 C 0.0291 0.7595 0.28237 0.0
C462 C 0.12618 0.79094 0.19935 0.0
C463 C 0.97895 0.8015 0.24334 0.0
C464 C 0.04043 0.89688 0.16784 0.0
C465 C 0.0295 0.8849 0.1276 0.0
C466 C 0.04861 0.86807 0.19839 0.0
C467 C 0.04528 0.82618 0.18875 0.0
C468 C 0.03401 0.81371 0.14841 0.0
C469 C 0.0265 0.84325 0.11816 0.0
C470 C 0.06073 0.88255 0.24108 0.0
C471 C 0.02958 0.76922 0.13733 0.0
H472 H 0.12841 0.74049 0.26521 0.0
H473 H 0.00503 0.75265 0.30394 0.0
H474 H 0.11941 0.7822 0.16691 0.0
H475 H 0.13037 0.82444 0.20006 0.0
H476 H 0.15481 0.776 0.20839 0.0
H477 H 0.95715 0.78754 0.26515 0.0
H478 H 0.97852 0.83494 0.24847 0.0
H479 H 0.96877 0.79578 0.21116 0.0
H480 H 0.04315 0.92891 0.17556 0.0
H481 H 0.01818 0.83366 0.08719 0.0
H482 H 0.08904 0.86735 0.25054 0.0
H483 H 0.03731 0.87427 0.26408 0.0
H484 H 0.06502 0.91604 0.24255 0.0
H485 H 0.0587 0.75316 0.14121 0.0
H486 H 0.01941 0.76464 0.10492 0.0
H487 H 0.00765 0.7548 0.1586 0.0
C488 C 0.28995 0.93923 0.24997 0.0
C489 C 0.28534 0.96003 0.28791 0.0
C490 C 0.26578 0.94884 0.21592 0.0
C491 C 0.23609 0.97972 0.22008 0.0
C492 C 0.23204 0.00153 0.25793 0.0
C493 C 0.25662 0.99131 0.29144 0.0
C494 C 0.27037 0.92432 0.17636 0.0
C495 C 0.20054 0.03444 0.26364 0.0
C496 C 0.18519 0.02226 0.12433 0.0
C497 C 0.14848 0.00177 0.12542 0.0
C498 C 0.21422 0.01539 0.15494 0.0
C499 C 0.20664 0.9865 0.1864 0.0
C500 C 0.17016 0.96464 0.18648 0.0
C501 C 0.14125 0.97313 0.15645 0.0
C502 C 0.25266 0.03942 0.15406 0.0
C503 C 0.16102 0.93274 0.21862 0.0
H504 H 0.31165 0.91455 0.24737 0.0
H505 H 0.25263 0.00705 0.32088 0.0
H506 H 0.24345 0.90507 0.17208 0.0
H507 H 0.27243 0.94473 0.14921 0.0
H508 H 0.29736 0.90424 0.17669 0.0
H509 H 0.2038 0.05112 0.29351 0.0
H510 H 0.20223 0.0566 0.23791 0.0
H511 H 0.17024 0.02063 0.26287 0.0
H512 H 0.19073 0.04435 0.10018 0.0
H513 H 0.1131 0.95675 0.15683 0.0
H514 H 0.27889 0.01842 0.15277 0.0
H515 H 0.25517 0.05774 0.18298 0.0
H516 H 0.25424 0.06026 0.12714 0.0
H517 H 0.18804 0.91442 0.22621 0.0
H518 H 0.1373 0.91165 0.20788 0.0
H519 H 0.15033 0.94798 0.24753 0.0
C520 C 0.08327 0.78195 0.7008 0.0
C521 C 0.05473 0.75208 0.69091 0.0
C522 C 0.07719 0.80863 0.73451 0.0
C523 C 0.04234 0.80476 0.7595 0.0
C524 C 0.01407 0.77413 0.75047 0.0
C525 C 0.02059 0.7483 0.71627 0.0
C526 C 0.10784 0.84127 0.74313 0.0
C527 C 0.97678 0.7688 0.77678 0.0
C528 C 0.04321 0.85153 0.86739 0.0
C529 C 0.02301 0.88853 0.86093 0.0
C530 C 0.04967 0.82386 0.83462 0.0
C531 C 0.03511 0.83326 0.7947 0.0
C532 C 0.01393 0.87014 0.78821 0.0
C533 C 0.00833 0.89744 0.82137 0.0
C534 C 0.07275 0.78497 0.84251 0.0
C535 C 0.99764 0.881 0.74612 0.0
H536 H 0.11024 0.78508 0.68228 0.0
H537 H 0.99882 0.72495 0.70926 0.0
H538 H 0.0935 0.87176 0.74098 0.0
H539 H 0.1194 0.83826 0.77513 0.0
H540 H 0.13364 0.83992 0.72111 0.0
H541 H 0.95822 0.74284 0.76609 0.0
H542 H 0.9852 0.76365 0.80954 0.0
H543 H 0.95819 0.79696 0.77606 0.0
H544 H 0.05503 0.84468 0.89778 0.0
H545 H 0.99249 0.9259 0.81624 0.0
H546 H 0.10045 0.78416 0.82317 0.0
H547 H 0.05451 0.75825 0.83345 0.0
H548 H 0.08135 0.78184 0.87555 0.0
H549 H 0.0227 0.88333 0.72341 0.0
H550 H 0.98073 0.91029 0.74661 0.0
H551 H 0.97744 0.85665 0.73487 0.0
C552 C 0.26819 0.93062 0.72047 0.0
C553 C 0.27155 0.95819 0.68765 0.0
C554 C 0.24549 0.94039 0.75606 0.0
C555 C 0.22601 0.97879 0.75902 0.0
C556 C 0.23087 0.00745 0.72684 0.0
C557 C 0.25339 0.9967 0.69141 0.0
C558 C 0.24072 0.90885 0.78952 0.0
C559 C 0.2108 0.04881 0.729 0.0
C560 C 0.12954 0.98545 0.82182 0.0
C561 C 0.14247 0.00318 0.85909 0.0
C562 C 0.15651 0.97724 0.78925 0.0
C563 C 0.19745 0.98744 0.79372 0.0
C564 C 0.21078 0.00558 0.83111 0.0
C565 C 0.18314 0.01296 0.86356 0.0
C566 C 0.14116 0.95724 0.75015 0.0
C567 C 0.25417 0.01715 0.83679 0.0
H568 H 0.28226 0.90085 0.71761 0.0
H569 H 0.25597 0.01809 0.66613 0.0
H570 H 0.24729 0.92229 0.82037 0.0
H571 H 0.20917 0.89824 0.79035 0.0
H572 H 0.26072 0.88203 0.78433 0.0
H573 H 0.22088 0.06902 0.70357 0.0
H574 H 0.17778 0.04524 0.7269 0.0
H575 H 0.21712 0.06389 0.75913 0.0
H576 H 0.0983 0.97715 0.81829 0.0
H577 H 0.1933 0.02669 0.89225 0.0
H578 H 0.15719 0.92794 0.74458 0.0
H579 H 0.14721 0.97694 0.72307 0.0
H580 H 0.1084 0.95119 0.7517 0.0
H581 H 0.27362 0.9897 0.83382 0.0
H582 H 0.25957 0.03169 0.86744 0.0
H583 H 0.26349 0.03852 0.81211 0.0
C584 C 0.00269 0.26859 0.70707 0.0
C585 C 0.96347 0.26617 0.69175 0.0
C586 C 0.01321 0.2499 0.74443 0.0
C587 C 0.98399 0.22755 0.76651 0.0
C588 C 0.94384 0.22688 0.75247 0.0
C589 C 0.93386 0.24704 0.71576 0.0
C590 C 0.05599 0.25254 0.75928 0.0
C591 C 0.91189 0.20307 0.77502 0.0
C592 C 0.01768 0.13377 0.82408 0.0
C593 C 0.01309 0.14593 0.86569 0.0
C594 C 0.00921 0.16045 0.79172 0.0
C595 C 0.99632 0.20065 0.801 0.0
C596 C 0.99344 0.21392 0.84283 0.0
C597 C 0.00167 0.18627 0.87479 0.0
C598 C 0.01244 0.14497 0.74754 0.0
C599 C 0.98026 0.25673 0.85392 0.0
H600 H 0.02544 0.28436 0.68933 0.0
H601 H 0.90311 0.24655 0.70518 0.0
H602 H 0.05662 0.26033 0.79282 0.0
H603 H 0.07106 0.22251 0.75523 0.0
H604 H 0.07348 0.27561 0.74196 0.0
H605 H 0.88193 0.20617 0.76044 0.0
H606 H 0.92029 0.17031 0.77533 0.0
H607 H 0.90955 0.21346 0.80775 0.0
H608 H 0.02691 0.10285 0.81655 0.0
H609 H 0.99791 0.19597 0.9068 0.0
H610 H 0.03271 0.16468 0.72923 0.0
H611 H 0.98247 0.1461 0.73278 0.0
H612 H 0.02399 0.11317 0.74562 0.0
H613 H 0.99501 0.27919 0.83342 0.0
H614 H 0.98708 0.26453 0.88669 0.0
H615 H 0.94737 0.25972 0.84956 0.0
C616 C 0.75764 0.03231 0.71915 0.0
C617 C 0.73236 0.06652 0.72342 0.0
C618 C 0.78823 0.02469 0.74773 0.0
C619 C 0.79435 0.05243 0.78085 0.0
C620 C 0.76963 0.08756 0.78479 0.0
C621 C 0.73892 0.09418 0.75599 0.0
C622 C 0.814 0.98692 0.74251 0.0
C623 C 0.77572 0.11817 0.81935 0.0
C624 C 0.84888 0.0153 0.87646 0.0
C625 C 0.8879 0.0294 0.86918 0.0
C626 C 0.8182 0.02233 0.84778 0.0
C627 C 0.82664 0.04459 0.81136 0.0
C628 C 0.86599 0.059 0.80392 0.0
C629 C 0.89624 0.05096 0.8328 0.0
C630 C 0.77676 0.00594 0.85647 0.0
C631 C 0.87603 0.08344 0.76579 0.0
H632 H 0.75341 0.0114 0.69341 0.0
H633 H 0.72003 0.1211 0.75879 0.0
H634 H 0.84591 0.99555 0.7384 0.0
H635 H 0.81207 0.96805 0.77083 0.0
H636 H 0.8049 0.96807 0.71547 0.0
H637 H 0.75411 0.14405 0.8179 0.0
H638 H 0.77226 0.10316 0.84985 0.0
H639 H 0.80666 0.13038 0.81784 0.0
H640 H 0.84237 0.99847 0.90447 0.0
H641 H 0.92624 0.06245 0.82735 0.0
H642 H 0.76733 0.98574 0.83064 0.0
H643 H 0.75474 0.03142 0.85845 0.0
H644 H 0.77537 0.98851 0.88582 0.0
H645 H 0.90843 0.09107 0.76386 0.0
H646 H 0.85834 0.11221 0.76607 0.0
H647 H 0.86772 0.0663 0.73739 0.0
C648 C 0.26045 0.30682 0.00202 0.0
C649 C 0.28192 0.30993 0.03911 0.0
C650 C 0.23645 0.27285 0.99368 0.0
C651 C 0.23348 0.24148 0.02337 0.0
C652 C 0.25605 0.24384 0.06032 0.0
C653 C 0.28005 0.27804 0.06772 0.0
C654 C 0.21295 0.27136 0.95386 0.0
C655 C 0.25342 0.21118 0.09289 0.0
C656 C 0.1358 0.18318 0.02582 0.0
C657 C 0.14659 0.14634 0.00623 0.0
C658 C 0.16393 0.21408 0.0319 0.0
C659 C 0.20386 0.2083 0.0176 0.0
C660 C 0.21507 0.17123 0.99776 0.0
C661 C 0.18632 0.14049 0.99258 0.0
C662 C 0.15086 0.25291 0.05376 0.0
C663 C 0.2573 0.16422 0.98181 0.0
H664 H 0.26171 0.33147 0.97992 0.0
H665 H 0.29648 0.2805 0.0965 0.0
H666 H 0.21765 0.24162 0.93792 0.0
H667 H 0.1804 0.27433 0.96093 0.0
H668 H 0.22154 0.29609 0.9323 0.0
H669 H 0.27541 0.21583 0.11818 0.0
H670 H 0.22278 0.21115 0.10665 0.0
H671 H 0.25872 0.1807 0.07873 0.0
H672 H 0.10533 0.18778 0.03707 0.0
H673 H 0.19484 0.11212 0.97737 0.0
H674 H 0.15501 0.27924 0.03287 0.0
H675 H 0.16975 0.25824 0.08142 0.0
H676 H 0.1189 0.25215 0.06386 0.0
H677 H 0.26508 0.18787 0.95878 0.0
H678 H 0.2612 0.13376 0.96703 0.0
H679 H 0.27893 0.16701 0.00763 0.0
C680 C 0.29073 0.77372 0.08465 0.0
C681 C 0.2945 0.73741 0.06173 0.0
C682 C 0.26189 0.80327 0.07434 0.0
C683 C 0.2362 0.79628 0.04029 0.0
C684 C 0.23969 0.7596 0.01716 0.0
C685 C 0.26844 0.7304 0.02846 0.0
C686 C 0.25858 0.84171 0.1002 0.0
C687 C 0.21283 0.75107 0.98065 0.0
C688 C 0.13666 0.85301 0.03598 0.0
C689 C 0.14579 0.88506 0.00914 0.0
C690 C 0.16591 0.82412 0.04668 0.0
C691 C 0.20499 0.8269 0.0294 0.0
C692 C 0.21419 0.85885 0.00171 0.0
C693 C 0.18455 0.88792 0.99232 0.0
C694 C 0.15516 0.79116 0.07713 0.0
C695 C 0.25531 0.86235 0.98211 0.0
H696 H 0.31024 0.77882 0.1109 0.0
H697 H 0.27052 0.70195 0.01127 0.0
H698 H 0.26289 0.86879 0.08037 0.0
H699 H 0.2281 0.84423 0.11417 0.0
H700 H 0.28103 0.84254 0.12547 0.0
H701 H 0.22041 0.72174 0.96494 0.0
H702 H 0.18104 0.75009 0.99111 0.0
H703 H 0.21531 0.77595 0.95772 0.0
H704 H 0.10689 0.8512 0.04969 0.0
H705 H 0.1916 0.91273 0.97158 0.0
H706 H 0.17414 0.79396 0.10511 0.0
H707 H 0.16124 0.7607 0.06327 0.0
H708 H 0.12311 0.79274 0.08692 0.0
H709 H 0.27821 0.86657 0.00653 0.0
H710 H 0.25721 0.88822 0.96022 0.0
H711 H 0.26306 0.83381 0.9651 0.0
C712 C 0.75622 0.27832 0.92824 0.0
C713 C 0.75492 0.31147 0.95595 0.0
C714 C 0.78044 0.24413 0.93607 0.0
C715 C 0.80374 0.24309 0.97258 0.0
C716 C 0.80119 0.27569 0.00151 0.0
C717 C 0.77698 0.30961 0.99271 0.0
C718 C 0.78253 0.21004 0.90437 0.0
C719 C 0.82539 0.27555 0.0409 0.0
C720 C 0.85185 0.14314 0.00551 0.0
C721 C 0.89135 0.14803 0.99113 0.0
C722 C 0.82286 0.17388 -0.00015 0.0
C723 C 0.83359 0.20987 0.9787 0.0
C724 C 0.87329 0.21463 0.96363 0.0
C725 C 0.90171 0.18381 0.97029 0.0
C726 C 0.78091 0.168 0.01669 0.0
C727 C 0.88577 0.25222 0.94023 0.0
H728 H 0.7392 0.27976 0.89977 0.0
H729 H 0.77607 0.33519 0.01416 0.0
H730 H 0.81284 0.20911 0.88985 0.0
H731 H 0.77777 0.18022 0.91948 0.0
H732 H 0.75992 0.21378 0.87953 0.0
H733 H 0.81708 0.30125 0.06196 0.0
H734 H 0.82108 0.24654 0.05768 0.0
H735 H 0.85781 0.27785 0.03314 0.0
H736 H 0.84373 0.11553 0.02164 0.0
H737 H 0.932 0.18748 0.95841 0.0
H738 H 0.75886 0.16982 0.99116 0.0
H739 H 0.77333 0.19274 0.03912 0.0
H740 H 0.77742 0.13826 0.03244 0.0
H741 H 0.86708 0.25568 0.91214 0.0
H742 H 0.91785 0.25108 0.93054 0.0
H743 H 0.88081 0.27975 0.95982 0.0
C744 C 0.74469 0.75807 0.94791 0.0
C745 C 0.71732 0.75978 0.98119 0.0
C746 C 0.78087 0.77973 0.94927 0.0
C747 C 0.78969 0.80376 0.98466 0.0
C748 C 0.76293 0.80421 0.01897 0.0
C749 C 0.72699 0.78241 0.01672 0.0
C750 C 0.80859 0.7786 0.91202 0.0
C751 C 0.77124 0.82941 0.05729 0.0
C752 C 0.89375 0.8476 0.00195 0.0
C753 C 0.88802 0.88802 0.98944 0.0
C754 C 0.86227 0.81938 -0.00021 0.0
C755 C 0.82449 0.83187 0.98428 0.0
C756 C 0.81906 0.87226 0.97031 0.0
C757 C 0.85077 0.89984 0.97328 0.0
C758 C 0.86905 0.77661 0.01514 0.0
C759 C 0.77944 0.88669 0.953 0.0
H760 H 0.7371 0.7409 0.92026 0.0
H761 H 0.70576 0.78409 0.04234 0.0
H762 H 0.8081 0.80868 0.8966 0.0
H763 H 0.83996 0.77259 0.92167 0.0
H764 H 0.79976 0.75498 0.88905 0.0
H765 H 0.74946 0.82336 0.08273 0.0
H766 H 0.80201 0.82315 0.06867 0.0
H767 H 0.76956 0.86225 0.04959 0.0
H768 H 0.92248 0.8383 0.01445 0.0
H769 H 0.8463 0.93084 0.96284 0.0
H770 H 0.8606 0.75415 0.99092 0.0
H771 H 0.84956 0.77109 0.04256 0.0
H772 H 0.90077 0.77101 0.02398 0.0
H773 H 0.76995 0.86635 0.92732 0.0
H774 H 0.78094 0.91834 0.94121 0.0
H775 H 0.75588 0.88547 0.97746 0.0
loop_
_geom_bond_atom_site_label_1
_geom_bond_atom_site_label_2
_geom_bond_distance
_geom_bond_site_symmetry_2
_ccdc_geom_bond_type
C0 C1 1.560 . S
C0 H61 0.959 . S
C0 H62 0.959 . S
C0 H63 0.960 . S
C1 C0 1.560 . S
C1 O56 1.426 . S
C1 H60 0.980 . S
C2 C3 1.407 . S
C2 C7 1.418 . S
C2 O56 1.334 . S
C3 C2 1.407 . S
C3 C4 1.360 1_455 S
C3 H64 0.929 1_455 S
C4 C3 1.360 1_655 S
C4 C5 1.401 1_655 S
C4 C8 1.527 . S
C5 C4 1.401 1_455 S
C5 C6 1.405 . S
C5 C38 1.587 . S
C6 C5 1.405 . S
C6 C7 1.332 . S
C6 C9 1.496 . S
C7 C2 1.418 . S
C7 C6 1.332 . S
C7 H65 0.929 . S
C8 C4 1.527 . S
C8 H66 0.959 . S
C8 H67 0.961 . S
C8 H68 0.961 . S
C9 C6 1.496 . S
C9 H69 0.960 . S
C9 H70 0.960 . S
C9 H71 0.961 . S
C10 C11 1.517 . S
C10 H73 0.961 1_655 S
C10 H74 0.960 . S
C10 H75 0.959 . S
C11 C10 1.517 . S
C11 O59 1.468 . S
C11 H72 0.980 1_655 S
C12 C13 1.349 1_655 S
C12 C17 1.367 . S
C12 O59 1.408 . S
C13 C12 1.349 1_455 S
C13 C14 1.407 . S
C13 H76 0.930 . S
C14 C13 1.407 . S
C14 C15 1.449 1_455 S
C14 C18 1.535 . S
C15 C14 1.449 1_655 S
C15 C16 1.384 . S
C15 C40 1.553 . S
C16 C15 1.384 . S
C16 C17 1.364 . S
C16 C19 1.450 . S
C17 C12 1.367 . S
C17 C16 1.364 . S
C17 H77 0.931 . S
C18 C14 1.535 . S
C18 H78 0.959 . S
C18 H79 0.961 . S
C18 H80 0.959 . S
C19 C16 1.450 . S
C19 H81 0.960 . S
C19 H82 0.960 . S
C19 H83 0.960 . S
C20 C21 1.309 1_655 S
C20 C25 1.304 . S
C20 O58 1.435 . S
C21 C20 1.309 1_455 S
C21 C22 1.476 . S
C21 H85 0.930 . S
C22 C21 1.476 . S
C22 C23 1.400 1_455 S
C22 C26 1.567 . S
C23 C22 1.400 1_655 S
C23 C24 1.373 . S
C23 C45 1.432 . S
C24 C23 1.373 . S
C24 C25 1.339 . S
C24 C27 1.530 . S
C25 C20 1.304 . S
C25 C24 1.339 . S
C25 H86 0.930 . S
C26 C22 1.567 . S
C26 H87 0.961 . S
C26 H88 0.960 . S
C26 H89 0.958 . S
C27 C24 1.530 . S
C27 H90 0.961 . S
C27 H91 0.960 . S
C27 H92 0.960 . S
C28 C29 1.530 . S
C28 H94 0.961 . S
C28 H95 0.961 . S
C28 H96 0.959 . S
C29 C28 1.530 . S
C29 O57 1.412 . S
C29 H93 0.980 . S
C30 C31 1.288 . S
C30 C35 1.377 . S
C30 O57 1.393 . S
C31 C30 1.288 . S
C31 C32 1.369 . S
C31 H97 0.932 . S
C32 C31 1.369 . S
C32 C33 1.398 . S
C32 C36 1.527 . S
C33 C32 1.398 . S
C33 C34 1.380 1_455 S
C33 C47 1.497 . S
C34 C33 1.380 1_655 S
C34 C35 1.383 1_655 S
C34 C37 1.603 . S
C35 C30 1.377 . S
C35 C34 1.383 1_455 S
C35 H98 0.929 1_455 S
C36 C32 1.527 . S
C36 H99 0.961 . S
C36 H100 0.959 . S
C36 H101 0.959 . S
C37 C34 1.603 . S
C37 H102 0.960 . S
C37 H103 0.962 . S
C37 H104 0.961 . S
C38 C5 1.587 . S
C38 C39 1.360 1_455 S
C38 C51 1.412 . S
C39 C38 1.360 1_655 S
C39 C40 1.365 . S
C39 H105 0.929 . S
C40 C15 1.553 . S
C40 C39 1.365 . S
C40 C41 1.404 . S
C41 C40 1.404 . S
C41 C42 1.395 . S
C41 C52 1.451 . S
C42 C41 1.395 . S
C42 C43 1.322 . S
C42 H106 0.930 . S
C43 C42 1.322 . S
C43 C44 1.459 . S
C43 H107 0.929 . S
C44 C43 1.459 . S
C44 C45 1.445 . S
C44 C53 1.395 . S
C45 C23 1.432 . S
C45 C44 1.445 . S
C45 C46 1.370 1_655 S
C46 C45 1.370 1_455 S
C46 C47 1.438 . S
C46 H108 0.930 . S
C47 C33 1.497 . S
C47 C46 1.438 . S
C47 C48 1.360 . S
C48 C47 1.360 . S
C48 C49 1.401 . S
C48 C53 1.446 1_455 S
C49 C48 1.401 . S
C49 C50 1.347 . S
C49 H109 0.929 . S
C50 C49 1.347 . S
C50 C51 1.455 . S
C50 H110 0.930 . S
C51 C38 1.412 . S
C51 C50 1.455 . S
C51 C52 1.331 1_455 S
C52 C41 1.451 . S
C52 C51 1.331 1_655 S
C52 C53 1.497 . S
C53 C44 1.395 . S
C53 C48 1.446 1_655 S
C53 C52 1.497 . S
C54 C55 1.582 1_655 S
C54 H111 0.962 1_655 S
C54 H112 0.959 . S
C54 H113 0.958 . S
C55 C54 1.582 1_455 S
C55 O58 1.458 1_455 S
C55 H84 0.980 . S
O56 C1 1.426 . S
O56 C2 1.334 . S
O57 C29 1.412 . S
O57 C30 1.393 . S
O58 C20 1.435 . S
O58 C55 1.458 1_655 S
O59 C11 1.468 . S
O59 C12 1.408 . S
H60 C1 0.980 . S
H61 C0 0.959 . S
H62 C0 0.959 . S
H63 C0 0.960 . S
H64 C3 0.929 1_655 S
H65 C7 0.929 . S
H66 C8 0.959 . S
H67 C8 0.961 . S
H68 C8 0.961 . S
H69 C9 0.960 . S
H70 C9 0.960 . S
H71 C9 0.961 . S
H72 C11 0.980 1_455 S
H73 C10 0.961 1_455 S
H74 C10 0.960 . S
H75 C10 0.959 . S
H76 C13 0.930 . S
H77 C17 0.931 . S
H78 C18 0.959 . S
H79 C18 0.961 . S
H80 C18 0.959 . S
H81 C19 0.960 . S
H82 C19 0.960 . S
H83 C19 0.960 . S
H84 C55 0.980 . S
H85 C21 0.930 . S
H86 C25 0.930 . S
H87 C26 0.961 . S
H88 C26 0.960 . S
H89 C26 0.958 . S
H90 C27 0.961 . S
H91 C27 0.960 . S
H92 C27 0.960 . S
H93 C29 0.980 . S
H94 C28 0.961 . S
H95 C28 0.961 . S
H96 C28 0.959 . S
H97 C31 0.932 . S
H98 C35 0.929 1_655 S
H99 C36 0.961 . S
H100 C36 0.959 . S
H101 C36 0.959 . S
H102 C37 0.960 . S
H103 C37 0.962 . S
H104 C37 0.961 . S
H105 C39 0.929 . S
H106 C42 0.930 . S
H107 C43 0.929 . S
H108 C46 0.930 . S
H109 C49 0.929 . S
H110 C50 0.930 . S
H111 C54 0.962 1_455 S
H112 C54 0.959 . S
H113 C54 0.958 . S
C114 C115 1.560 . S
C114 H175 0.959 . S
C114 H176 0.959 . S
C114 H177 0.960 . S
C115 C114 1.560 . S
C115 O170 1.426 . S
C115 H174 0.980 . S
C116 C117 1.407 1_545 S
C116 C121 1.418 . S
C116 O170 1.334 . S
C117 C116 1.407 1_565 S
C117 C118 1.360 . S
C117 H178 0.929 . S
C118 C117 1.360 . S
C118 C119 1.401 1_565 S
C118 C122 1.527 . S
C119 C118 1.401 1_545 S
C119 C120 1.405 . S
C119 C152 1.587 1_545 S
C120 C119 1.405 . S
C120 C121 1.332 . S
C120 C123 1.496 . S
C121 C116 1.418 . S
C121 C120 1.332 . S
C121 H179 0.929 . S
C122 C118 1.527 . S
C122 H180 0.959 . S
C122 H181 0.961 . S
C122 H182 0.961 . S
C123 C120 1.496 . S
C123 H183 0.960 . S
C123 H184 0.960 . S
C123 H185 0.961 . S
C124 C125 1.517 . S
C124 H187 0.961 1_565 S
C124 H188 0.960 . S
C124 H189 0.959 . S
C125 C124 1.517 . S
C125 O173 1.468 . S
C125 H186 0.980 1_565 S
C126 C127 1.349 1_565 S
C126 C131 1.367 . S
C126 O173 1.408 . S
C127 C126 1.349 1_545 S
C127 C128 1.407 . S
C127 H190 0.930 . S
C128 C127 1.407 . S
C128 C129 1.449 1_545 S
C128 C132 1.535 . S
C129 C128 1.449 1_565 S
C129 C130 1.384 . S
C129 C154 1.553 . S
C130 C129 1.384 . S
C130 C131 1.364 . S
C130 C133 1.450 . S
C131 C126 1.367 . S
C131 C130 1.364 . S
C131 H191 0.931 . S
C132 C128 1.535 . S
C132 H192 0.959 . S
C132 H193 0.961 . S
C132 H194 0.959 . S
C133 C130 1.450 . S
C133 H195 0.960 . S
C133 H196 0.960 . S
C133 H197 0.960 . S
C134 C135 1.309 1_565 S
C134 C139 1.304 . S
C134 O172 1.435 . S
C135 C134 1.309 1_545 S
C135 C136 1.476 . S
C135 H199 0.930 . S
C136 C135 1.476 . S
C136 C137 1.400 1_545 S
C136 C140 1.567 . S
C137 C136 1.400 1_565 S
C137 C138 1.373 . S
C137 C159 1.432 . S
C138 C137 1.373 . S
C138 C139 1.339 . S
C138 C141 1.530 . S
C139 C134 1.304 . S
C139 C138 1.339 . S
C139 H200 0.930 . S
C140 C136 1.567 . S
C140 H201 0.961 . S
C140 H202 0.960 . S
C140 H203 0.958 . S
C141 C138 1.530 . S
C141 H204 0.961 . S
C141 H205 0.960 . S
C141 H206 0.960 . S
C142 C143 1.530 . S
C142 H208 0.961 . S
C142 H209 0.961 . S
C142 H210 0.959 . S
C143 C142 1.530 . S
C143 O171 1.412 . S
C143 H207 0.980 . S
C144 C145 1.288 . S
C144 C149 1.377 1_545 S
C144 O171 1.393 . S
C145 C144 1.288 . S
C145 C146 1.369 . S
C145 H211 0.932 . S
C146 C145 1.369 . S
C146 C147 1.398 . S
C146 C150 1.527 . S
C147 C146 1.398 . S
C147 C148 1.380 1_545 S
C147 C161 1.497 . S
C148 C147 1.380 1_565 S
C148 C149 1.383 . S
C148 C151 1.603 . S
C149 C144 1.377 1_565 S
C149 C148 1.383 . S
C149 H212 0.929 . S
C150 C146 1.527 . S
C150 H213 0.961 . S
C150 H214 0.959 . S
C150 H215 0.959 . S
C151 C148 1.603 . S
C151 H216 0.960 . S
C151 H217 0.962 . S
C151 H218 0.961 . S
C152 C119 1.587 1_565 S
C152 C153 1.360 . S
C152 C165 1.412 . S
C153 C152 1.360 . S
C153 C154 1.365 . S
C153 H219 0.929 . S
C154 C129 1.553 . S
C154 C153 1.365 . S
C154 C155 1.404 . S
C155 C154 1.404 . S
C155 C156 1.395 . S
C155 C166 1.451 . S
C156 C155 1.395 . S
C156 C157 1.322 . S
C156 H220 0.930 . S
C157 C156 1.322 . S
C157 C158 1.459 . S
C157 H221 0.929 . S
C158 C157 1.459 . S
C158 C159 1.445 . S
C158 C167 1.395 . S
C159 C137 1.432 . S
C159 C158 1.445 . S
C159 C160 1.371 . S
C160 C159 1.371 . S
C160 C161 1.437 1_565 S
C160 H222 0.930 1_565 S
C161 C147 1.497 . S
C161 C160 1.437 1_545 S
C161 C162 1.363 . S
C162 C161 1.363 . S
C162 C163 1.404 . S
C162 C167 1.440 1_545 S
C163 C162 1.404 . S
C163 C164 1.347 . S
C163 H223 0.929 . S
C164 C163 1.347 . S
C164 C165 1.455 1_545 S
C164 H224 0.930 . S
C165 C152 1.412 . S
C165 C164 1.455 1_565 S
C165 C166 1.331 . S
C166 C155 1.451 . S
C166 C165 1.331 . S
C166 C167 1.497 . S
C167 C158 1.395 . S
C167 C162 1.440 1_565 S
C167 C166 1.497 . S
C168 C169 1.582 1_565 S
C168 H225 0.962 . S
C168 H226 0.959 . S
C168 H227 0.958 . S
C169 C168 1.582 1_545 S
C169 O172 1.458 1_545 S
C169 H198 0.980 . S
O170 C115 1.426 . S
O170 C116 1.334 . S
O171 C143 1.412 . S
O171 C144 1.393 . S
O172 C134 1.435 . S
O172 C169 1.458 1_565 S
O173 C125 1.468 . S
O173 C126 1.408 . S
H174 C115 0.980 . S
H175 C114 0.959 . S
H176 C114 0.959 . S
H177 C114 0.960 . S
H178 C117 0.929 . S
H179 C121 0.929 . S
H180 C122 0.959 . S
H181 C122 0.961 . S
H182 C122 0.961 . S
H183 C123 0.960 . S
H184 C123 0.960 . S
H185 C123 0.961 . S
H186 C125 0.980 1_545 S
H187 C124 0.961 1_545 S
H188 C124 0.960 . S
H189 C124 0.959 . S
H190 C127 0.930 . S
H191 C131 0.931 . S
H192 C132 0.959 . S
H193 C132 0.961 . S
H194 C132 0.959 . S
H195 C133 0.960 . S
H196 C133 0.960 . S
H197 C133 0.960 . S
H198 C169 0.980 . S
H199 C135 0.930 . S
H200 C139 0.930 . S
H201 C140 0.961 . S
H202 C140 0.960 . S
H203 C140 0.958 . S
H204 C141 0.961 . S
H205 C141 0.960 . S
H206 C141 0.960 . S
H207 C143 0.980 . S
H208 C142 0.961 . S
H209 C142 0.961 . S
H210 C142 0.959 . S
H211 C145 0.932 . S
H212 C149 0.929 . S
H213 C150 0.961 . S
H214 C150 0.959 . S
H215 C150 0.959 . S
H216 C151 0.960 . S
H217 C151 0.962 . S
H218 C151 0.961 . S
H219 C153 0.929 . S
H220 C156 0.930 . S
H221 C157 0.929 . S
H222 C160 0.930 1_545 S
H223 C163 0.929 . S
H224 C164 0.930 . S
H225 C168 0.962 . S
H226 C168 0.959 . S
H227 C168 0.958 . S
C228 C229 1.560 . S
C228 H289 0.959 . S
C228 H290 0.959 . S
C228 H291 0.960 . S
C229 C228 1.560 . S
C229 O284 1.426 . S
C229 H288 0.980 . S
C230 C231 1.407 1_556 S
C230 C235 1.418 . S
C230 O284 1.334 . S
C231 C230 1.407 1_554 S
C231 C232 1.360 . S
C231 H292 0.929 . S
C232 C231 1.360 . S
C232 C233 1.401 . S
C232 C236 1.527 . S
C233 C232 1.401 . S
C233 C234 1.405 1_554 S
C233 C266 1.587 . S
C234 C233 1.405 1_556 S
C234 C235 1.332 . S
C234 C237 1.496 . S
C235 C230 1.418 . S
C235 C234 1.332 . S
C235 H293 0.929 . S
C236 C232 1.527 . S
C236 H294 0.959 . S
C236 H295 0.961 . S
C236 H296 0.961 . S
C237 C234 1.496 . S
C237 H297 0.960 . S
C237 H298 0.960 . S
C237 H299 0.961 . S
C238 C239 1.517 . S
C238 H301 0.961 . S
C238 H302 0.960 . S
C238 H303 0.959 . S
C239 C238 1.517 . S
C239 O287 1.468 . S
C239 H300 0.980 . S
C240 C241 1.349 . S
C240 C245 1.367 . S
C240 O287 1.408 . S
C241 C240 1.349 . S
C241 C242 1.407 . S
C241 H304 0.930 1_554 S
C242 C241 1.407 . S
C242 C243 1.449 . S
C242 C246 1.535 1_554 S
C243 C242 1.449 . S
C243 C244 1.384 . S
C243 C268 1.553 . S
C244 C243 1.384 . S
C244 C245 1.364 . S
C244 C247 1.450 . S
C245 C240 1.367 . S
C245 C244 1.364 . S
C245 H305 0.931 . S
C246 C242 1.535 1_556 S
C246 H306 0.959 . S
C246 H307 0.961 . S
C246 H308 0.959 . S
C247 C244 1.450 . S
C247 H309 0.960 . S
C247 H310 0.960 . S
C247 H311 0.960 . S
C248 C249 1.288 1_554 S
C248 C253 1.304 . S
C248 O286 1.435 . S
C249 C248 1.288 1_556 S
C249 C250 1.479 . S
C249 H313 0.946 . S
C250 C249 1.479 . S
C250 C251 1.400 1_556 S
C250 C254 1.567 . S
C251 C250 1.400 1_554 S
C251 C252 1.373 . S
C251 C273 1.432 . S
C252 C251 1.373 . S
C252 C253 1.339 . S
C252 C255 1.530 . S
C253 C248 1.304 . S
C253 C252 1.339 . S
C253 H314 0.930 . S
C254 C250 1.567 . S
C254 H315 0.961 . S
C254 H316 0.960 . S
C254 H317 0.958 . S
C255 C252 1.530 . S
C255 H318 0.961 . S
C255 H319 0.960 . S
C255 H320 0.960 . S
C256 C257 1.530 . S
C256 H322 0.961 . S
C256 H323 0.961 . S
C256 H324 0.959 . S
C257 C256 1.530 . S
C257 O285 1.412 . S
C257 H321 0.980 1_556 S
C258 C259 1.288 . S
C258 C263 1.377 1_556 S
C258 O285 1.393 . S
C259 C258 1.288 . S
C259 C260 1.369 . S
C259 H325 0.932 . S
C260 C259 1.369 . S
C260 C261 1.426 . S
C260 C264 1.527 . S
C261 C260 1.426 . S
C261 C262 1.359 1_556 S
C261 C275 1.492 1_556 S
C262 C261 1.359 1_554 S
C262 C263 1.383 . S
C262 C265 1.603 . S
C263 C258 1.377 1_554 S
C263 C262 1.383 . S
C263 H326 0.929 . S
C264 C260 1.527 . S
C264 H327 0.961 . S
C264 H328 0.959 . S
C264 H329 0.959 . S
C265 C262 1.603 . S
C265 H330 0.960 . S
C265 H331 0.962 . S
C265 H332 0.961 . S
C266 C233 1.587 . S
C266 C267 1.360 . S
C266 C279 1.412 . S
C267 C266 1.360 . S
C267 C268 1.365 . S
C267 H333 0.929 . S
C268 C243 1.553 . S
C268 C267 1.365 . S
C268 C269 1.404 . S
C269 C268 1.404 . S
C269 C270 1.395 . S
C269 C280 1.451 . S
C270 C269 1.395 . S
C270 C271 1.322 . S
C270 H334 0.930 . S
C271 C270 1.322 . S
C271 C272 1.459 . S
C271 H335 0.929 . S
C272 C271 1.459 . S
C272 C273 1.445 . S
C272 C281 1.395 . S
C273 C251 1.432 . S
C273 C272 1.445 . S
C273 C274 1.370 . S
C274 C273 1.370 . S
C274 C275 1.438 . S
C274 H336 0.930 . S
C275 C261 1.492 1_554 S
C275 C274 1.438 . S
C275 C276 1.360 . S
C276 C275 1.360 . S
C276 C277 1.401 . S
C276 C281 1.446 . S
C277 C276 1.401 . S
C277 C278 1.347 . S
C277 H337 0.929 . S
C278 C277 1.347 . S
C278 C279 1.455 . S
C278 H338 0.930 . S
C279 C266 1.412 . S
C279 C278 1.455 . S
C279 C280 1.331 . S
C280 C269 1.451 . S
C280 C279 1.331 . S
C280 C281 1.497 . S
C281 C272 1.395 . S
C281 C276 1.446 . S
C281 C280 1.497 . S
C282 C283 1.582 . S
C282 H339 0.962 . S
C282 H340 0.959 . S
C282 H341 0.958 . S
C283 C282 1.582 . S
C283 O286 1.458 . S
C283 H312 0.980 . S
O284 C229 1.426 . S
O284 C230 1.334 . S
O285 C257 1.412 . S
O285 C258 1.393 . S
O286 C248 1.435 . S
O286 C283 1.458 . S
O287 C239 1.468 . S
O287 C240 1.408 . S
H288 C229 0.980 . S
H289 C228 0.959 . S
H290 C228 0.959 . S
H291 C228 0.960 . S
H292 C231 0.929 . S
H293 C235 0.929 . S
H294 C236 0.959 . S
H295 C236 0.961 . S
H296 C236 0.961 . S
H297 C237 0.960 . S
H298 C237 0.960 . S
H299 C237 0.961 . S
H300 C239 0.980 . S
H301 C238 0.961 . S
H302 C238 0.960 . S
H303 C238 0.959 . S
H304 C241 0.930 1_556 S
H305 C245 0.931 . S
H306 C246 0.959 . S
H307 C246 0.961 . S
H308 C246 0.959 . S
H309 C247 0.960 . S
H310 C247 0.960 . S
H311 C247 0.960 . S
H312 C283 0.980 . S
H313 C249 0.946 . S
H314 C253 0.930 . S
H315 C254 0.961 . S
H316 C254 0.960 . S
H317 C254 0.958 . S
H318 C255 0.961 . S
H319 C255 0.960 . S
H320 C255 0.960 . S
H321 C257 0.980 1_554 S
H322 C256 0.961 . S
H323 C256 0.961 . S
H324 C256 0.959 . S
H325 C259 0.932 . S
H326 C263 0.929 . S
H327 C264 0.961 . S
H328 C264 0.959 . S
H329 C264 0.959 . S
H330 C265 0.960 . S
H331 C265 0.962 . S
H332 C265 0.961 . S
H333 C267 0.929 . S
H334 C270 0.930 . S
H335 C271 0.929 . S
H336 C274 0.930 . S
H337 C277 0.929 . S
H338 C278 0.930 . S
H339 C282 0.962 . S
H340 C282 0.959 . S
H341 C282 0.958 . S
C342 O368 1.283 . S
C342 O386 1.283 . S
C343 O369 1.283 . S
C343 O384 1.283 . S
C344 O370 1.283 . S
C344 O387 1.283 . S
C345 O371 1.283 . S
C345 O385 1.283 . S
C346 O372 1.283 . S
C346 O381 1.283 . S
C347 O373 1.283 1_554 S
C347 O383 1.283 . S
C348 O374 1.283 . S
C348 O380 1.283 1_554 S
C349 O375 1.283 . S
C349 O382 1.283 . S
C350 O376 1.283 . S
C350 O391 1.283 . S
C351 O377 1.283 . S
C351 O389 1.283 . S
C352 O378 1.283 . S
C352 O390 1.283 . S
C353 O379 1.283 . S
C353 O388 1.283 . S
Eu354 O355 2.376 . S
Eu354 O356 2.364 1_454 S
Eu354 O359 2.364 1_554 S
Eu354 O360 2.376 1_455 S
Eu354 O368 2.353 1_554 S
Eu354 O369 2.373 . S
Eu354 O382 2.363 1_455 S
Eu354 O383 2.363 . S
O355 Eu354 2.376 . S
O355 Eu357 2.368 1_554 S
O355 Eu362 2.370 . S
O356 Eu354 2.364 1_656 S
O356 Eu358 2.364 1_556 S
O356 Eu361 2.370 1_655 S
Eu357 O355 2.368 1_556 S
Eu357 O359 2.372 . S
Eu357 O363 2.372 1_545 S
Eu357 O364 2.368 1_546 S
Eu357 O372 2.363 1_545 S
Eu357 O373 2.363 . S
Eu357 O388 2.367 . S
Eu357 O389 2.359 1_556 S
Eu358 O356 2.364 1_554 S
Eu358 O360 2.376 . S
Eu358 O365 2.376 1_545 S
Eu358 O366 2.364 1_544 S
Eu358 O374 2.363 1_545 S
Eu358 O375 2.363 . S
Eu358 O390 2.353 1_554 S
Eu358 O391 2.373 . S
O359 Eu354 2.364 1_556 S
O359 Eu357 2.372 . S
O359 Eu361 2.370 . S
O360 Eu354 2.376 1_655 S
O360 Eu358 2.376 . S
O360 Eu362 2.370 1_655 S
Eu361 O356 2.370 1_455 S
Eu361 O359 2.370 . S
Eu361 O363 2.370 1_545 S
Eu361 O366 2.370 1_445 S
Eu361 O378 2.363 1_455 S
Eu361 O379 2.363 . S
Eu361 O386 2.363 . S
Eu361 O387 2.363 1_545 S
Eu362 O355 2.370 . S
Eu362 O360 2.370 1_455 S
Eu362 O364 2.370 1_545 S
Eu362 O365 2.370 1_445 S
Eu362 O376 2.363 1_455 S
Eu362 O377 2.363 . S
Eu362 O384 2.363 . S
Eu362 O385 2.363 1_545 S
O363 Eu357 2.372 1_565 S
O363 Eu361 2.370 1_565 S
O363 Eu367 2.373 . S
O364 Eu357 2.368 1_564 S
O364 Eu362 2.370 1_565 S
O364 Eu367 2.368 1_554 S
O365 Eu358 2.376 1_565 S
O365 Eu362 2.370 1_665 S
O365 Eu367 2.368 1_654 S
O366 Eu358 2.364 1_566 S
O366 Eu361 2.370 1_665 S
O366 Eu367 2.373 1_655 S
Eu367 O363 2.373 . S
Eu367 O364 2.368 1_556 S
Eu367 O365 2.368 1_456 S
Eu367 O366 2.373 1_455 S
Eu367 O370 2.367 . S
Eu367 O371 2.359 1_556 S
Eu367 O380 2.363 1_455 S
Eu367 O381 2.363 . S
O368 C342 1.283 . S
O368 Eu354 2.353 1_556 S
O369 C343 1.283 . S
O369 Eu354 2.373 . S
O370 C344 1.283 . S
O370 Eu367 2.367 . S
O371 C345 1.283 . S
O371 Eu367 2.359 1_554 S
O372 C346 1.283 . S
O372 Eu357 2.363 1_565 S
O373 C347 1.283 1_556 S
O373 Eu357 2.363 . S
O374 C348 1.283 . S
O374 Eu358 2.363 1_565 S
O375 C349 1.283 . S
O375 Eu358 2.363 . S
O376 C350 1.283 . S
O376 Eu362 2.363 1_655 S
O377 C351 1.283 . S
O377 Eu362 2.363 . S
O378 C352 1.283 . S
O378 Eu361 2.363 1_655 S
O379 C353 1.283 . S
O379 Eu361 2.363 . S
O380 C348 1.283 1_556 S
O380 Eu367 2.363 1_655 S
O381 C346 1.283 . S
O381 Eu367 2.363 . S
O382 C349 1.283 . S
O382 Eu354 2.363 1_655 S
O383 C347 1.283 . S
O383 Eu354 2.363 . S
O384 C343 1.283 . S
O384 Eu362 2.363 . S
O385 C345 1.283 . S
O385 Eu362 2.363 1_565 S
O386 C342 1.283 . S
O386 Eu361 2.363 . S
O387 C344 1.283 . S
O387 Eu361 2.363 1_565 S
O388 C353 1.283 . S
O388 Eu357 2.367 . S
O389 C351 1.283 . S
O389 Eu357 2.359 1_554 S
O390 C352 1.283 . S
O390 Eu358 2.353 1_556 S
O391 C350 1.283 . S
O391 Eu358 2.373 . S
C392 C393 1.391 . S
C392 C394 1.394 . S
C392 H408 0.931 . S
C393 C392 1.391 . S
C393 C397 1.376 1_455 S
C394 C392 1.394 . S
C394 C395 1.369 . S
C394 C398 1.531 . S
C395 C394 1.369 . S
C395 C396 1.410 1_455 S
C395 C403 1.503 . S
C396 C395 1.410 1_655 S
C396 C397 1.392 . S
C396 C399 1.511 . S
C397 C393 1.376 1_655 S
C397 C396 1.392 . S
C397 H409 0.929 . S
C398 C394 1.531 . S
C398 H410 0.960 . S
C398 H411 0.962 . S
C398 H412 0.960 . S
C399 C396 1.511 . S
C399 H413 0.961 . S
C399 H414 0.961 . S
C399 H415 0.961 . S
C400 C401 1.370 . S
C400 C402 1.363 . S
C400 H416 0.931 . S
C401 C400 1.370 . S
C401 C405 1.408 . S
C402 C400 1.363 . S
C402 C403 1.370 . S
C402 C406 1.524 . S
C403 C395 1.503 . S
C403 C402 1.370 . S
C403 C404 1.403 . S
C404 C403 1.403 . S
C404 C405 1.404 . S
C404 C407 1.539 1_455 S
C405 C401 1.408 . S
C405 C404 1.404 . S
C405 H417 0.932 . S
C406 C402 1.524 . S
C406 H418 0.956 . S
C406 H419 0.961 . S
C406 H420 0.961 . S
C407 C404 1.539 1_655 S
C407 H421 0.958 1_655 S
C407 H422 0.961 . S
C407 H423 0.960 . S
H408 C392 0.931 . S
H409 C397 0.929 . S
H410 C398 0.960 . S
H411 C398 0.962 . S
H412 C398 0.960 . S
H413 C399 0.961 . S
H414 C399 0.961 . S
H415 C399 0.961 . S
H416 C400 0.931 . S
H417 C405 0.932 . S
H418 C406 0.956 . S
H419 C406 0.961 . S
H420 C406 0.961 . S
H421 C407 0.958 1_455 S
H422 C407 0.961 . S
H423 C407 0.960 . S
C424 C425 1.391 1_565 S
C424 C426 1.394 . S
C424 H440 0.931 . S
C425 C424 1.391 1_545 S
C425 C429 1.376 . S
C426 C424 1.394 . S
C426 C427 1.369 1_565 S
C426 C430 1.531 . S
C427 C426 1.369 1_545 S
C427 C428 1.410 . S
C427 C435 1.503 . S
C428 C427 1.410 . S
C428 C429 1.392 . S
C428 C431 1.511 . S
C429 C425 1.376 . S
C429 C428 1.392 . S
C429 H441 0.929 . S
C430 C426 1.531 . S
C430 H442 0.960 . S
C430 H443 0.962 . S
C430 H444 0.960 . S
C431 C428 1.511 . S
C431 H445 0.961 . S
C431 H446 0.961 . S
C431 H447 0.961 . S
C432 C433 1.370 . S
C432 C434 1.363 . S
C432 H448 0.931 . S
C433 C432 1.370 . S
C433 C437 1.408 . S
C434 C432 1.363 . S
C434 C435 1.370 . S
C434 C438 1.524 . S
C435 C427 1.503 . S
C435 C434 1.370 . S
C435 C436 1.403 1_545 S
C436 C435 1.403 1_565 S
C436 C437 1.404 1_565 S
C436 C439 1.539 . S
C437 C433 1.408 . S
C437 C436 1.404 1_545 S
C437 H449 0.930 1_545 S
C438 C434 1.524 . S
C438 H450 0.956 . S
C438 H451 0.961 . S
C438 H452 0.961 . S
C439 C436 1.539 . S
C439 H453 0.958 . S
C439 H454 0.961 . S
C439 H455 0.960 . S
H440 C424 0.931 . S
H441 C429 0.929 . S
H442 C430 0.960 . S
H443 C430 0.962 . S
H444 C430 0.960 . S
H445 C431 0.961 . S
H446 C431 0.961 . S
H447 C431 0.961 . S
H448 C432 0.931 . S
H449 C437 0.930 1_565 S
H450 C438 0.956 . S
H451 C438 0.961 . S
H452 C438 0.961 . S
H453 C439 0.958 . S
H454 C439 0.961 . S
H455 C439 0.960 . S
C456 C457 1.391 . S
C456 C458 1.394 . S
C456 H472 0.931 . S
C457 C456 1.391 . S
C457 C461 1.376 1_455 S
C458 C456 1.394 . S
C458 C459 1.369 . S
C458 C462 1.531 . S
C459 C458 1.369 . S
C459 C460 1.410 1_455 S
C459 C467 1.503 . S
C460 C459 1.410 1_655 S
C460 C461 1.392 . S
C460 C463 1.511 . S
C461 C457 1.376 1_655 S
C461 C460 1.392 . S
C461 H473 0.929 . S
C462 C458 1.531 . S
C462 H474 0.960 . S
C462 H475 0.962 . S
C462 H476 0.960 . S
C463 C460 1.511 . S
C463 H477 0.961 . S
C463 H478 0.961 . S
C463 H479 0.961 . S
C464 C465 1.370 . S
C464 C466 1.363 . S
C464 H480 0.931 . S
C465 C464 1.370 . S
C465 C469 1.408 1_455 S
C466 C464 1.363 . S
C466 C467 1.370 . S
C466 C470 1.524 . S
C467 C459 1.503 . S
C467 C466 1.370 . S
C467 C468 1.403 1_455 S
C468 C467 1.403 1_655 S
C468 C469 1.404 . S
C468 C471 1.539 . S
C469 C465 1.408 1_655 S
C469 C468 1.404 . S
C469 H481 0.930 . S
C470 C466 1.524 . S
C470 H482 0.956 . S
C470 H483 0.961 . S
C470 H484 0.961 . S
C471 C468 1.539 . S
C471 H485 0.958 . S
C471 H486 0.961 . S
C471 H487 0.960 . S
H472 C456 0.931 . S
H473 C461 0.929 . S
H474 C462 0.960 . S
H475 C462 0.962 . S
H476 C462 0.960 . S
H477 C463 0.961 . S
H478 C463 0.961 . S
H479 C463 0.961 . S
H480 C464 0.931 . S
H481 C469 0.930 . S
H482 C470 0.956 . S
H483 C470 0.961 . S
H484 C470 0.961 . S
H485 C471 0.958 . S
H486 C471 0.961 . S
H487 C471 0.960 . S
C488 C489 1.391 . S
C488 C490 1.394 . S
C488 H504 0.931 . S
C489 C488 1.391 . S
C489 C493 1.376 . S
C490 C488 1.394 . S
C490 C491 1.369 . S
C490 C494 1.531 . S
C491 C490 1.369 . S
C491 C492 1.410 . S
C491 C499 1.503 . S
C492 C491 1.410 . S
C492 C493 1.392 . S
C492 C495 1.511 . S
C493 C489 1.376 . S
C493 C492 1.392 . S
C493 H505 0.929 . S
C494 C490 1.531 . S
C494 H506 0.960 1_545 S
C494 H507 0.962 . S
C494 H508 0.960 1_545 S
C495 C492 1.511 . S
C495 H509 0.961 . S
C495 H510 0.961 . S
C495 H511 0.961 1_545 S
C496 C497 1.370 . S
C496 C498 1.363 . S
C496 H512 0.931 . S
C497 C496 1.370 . S
C497 C501 1.408 1_545 S
C498 C496 1.363 . S
C498 C499 1.370 . S
C498 C502 1.524 . S
C499 C491 1.503 . S
C499 C498 1.370 . S
C499 C500 1.403 1_545 S
C500 C499 1.403 1_565 S
C500 C501 1.404 . S
C500 C503 1.539 . S
C501 C497 1.408 1_565 S
C501 C500 1.404 . S
C501 H513 0.930 . S
C502 C498 1.524 . S
C502 H514 0.956 . S
C502 H515 0.961 . S
C502 H516 0.961 . S
C503 C500 1.539 . S
C503 H517 0.958 . S
C503 H518 0.961 . S
C503 H519 0.960 . S
H504 C488 0.931 . S
H505 C493 0.929 . S
H506 C494 0.960 1_565 S
H507 C494 0.962 . S
H508 C494 0.960 1_565 S
H509 C495 0.961 . S
H510 C495 0.961 . S
H511 C495 0.961 1_565 S
H512 C496 0.931 . S
H513 C501 0.930 . S
H514 C502 0.956 . S
H515 C502 0.961 . S
H516 C502 0.961 . S
H517 C503 0.958 . S
H518 C503 0.961 . S
H519 C503 0.960 . S
C520 C521 1.391 . S
C520 C522 1.394 . S
C520 H536 0.931 . S
C521 C520 1.391 . S
C521 C525 1.376 1_455 S
C522 C520 1.394 . S
C522 C523 1.369 . S
C522 C526 1.531 . S
C523 C522 1.369 . S
C523 C524 1.410 1_455 S
C523 C531 1.503 . S
C524 C523 1.410 1_655 S
C524 C525 1.392 . S
C524 C527 1.511 . S
C525 C521 1.376 1_655 S
C525 C524 1.392 . S
C525 H537 0.929 . S
C526 C522 1.531 . S
C526 H538 0.960 . S
C526 H539 0.962 . S
C526 H540 0.960 . S
C527 C524 1.511 . S
C527 H541 0.961 . S
C527 H542 0.961 . S
C527 H543 0.961 . S
C528 C529 1.370 . S
C528 C530 1.363 . S
C528 H544 0.931 . S
C529 C528 1.370 . S
C529 C533 1.408 1_455 S
C530 C528 1.363 . S
C530 C531 1.370 . S
C530 C534 1.524 . S
C531 C523 1.503 . S
C531 C530 1.370 . S
C531 C532 1.403 1_455 S
C532 C531 1.403 1_655 S
C532 C533 1.404 . S
C532 C535 1.539 . S
C533 C529 1.408 1_655 S
C533 C532 1.404 . S
C533 H545 0.930 . S
C534 C530 1.524 . S
C534 H546 0.956 . S
C534 H547 0.961 . S
C534 H548 0.961 . S
C535 C532 1.539 . S
C535 H549 0.958 . S
C535 H550 0.961 . S
C535 H551 0.960 . S
H536 C520 0.931 . S
H537 C525 0.929 . S
H538 C526 0.960 . S
H539 C526 0.962 . S
H540 C526 0.960 . S
H541 C527 0.961 . S
H542 C527 0.961 . S
H543 C527 0.961 . S
H544 C528 0.931 . S
H545 C533 0.930 . S
H546 C534 0.956 . S
H547 C534 0.961 . S
H548 C534 0.961 . S
H549 C535 0.958 . S
H550 C535 0.961 . S
H551 C535 0.960 . S
C552 C553 1.391 1_565 S
C552 C554 1.394 . S
C552 H568 0.931 . S
C553 C552 1.391 1_545 S
C553 C557 1.376 . S
C554 C552 1.394 . S
C554 C555 1.369 1_565 S
C554 C558 1.531 . S
C555 C554 1.369 1_545 S
C555 C556 1.410 . S
C555 C563 1.503 . S
C556 C555 1.410 . S
C556 C557 1.392 . S
C556 C559 1.511 . S
C557 C553 1.376 . S
C557 C556 1.392 . S
C557 H569 0.929 . S
C558 C554 1.531 . S
C558 H570 0.960 . S
C558 H571 0.962 . S
C558 H572 0.960 . S
C559 C556 1.511 . S
C559 H573 0.961 . S
C559 H574 0.961 . S
C559 H575 0.961 . S
C560 C561 1.370 1_565 S
C560 C562 1.363 . S
C560 H576 0.931 . S
C561 C560 1.370 1_545 S
C561 C565 1.408 . S
C562 C560 1.363 . S
C562 C563 1.370 1_565 S
C562 C566 1.524 . S
C563 C555 1.503 . S
C563 C562 1.370 1_545 S
C563 C564 1.403 . S
C564 C563 1.403 . S
C564 C565 1.404 . S
C564 C567 1.539 . S
C565 C561 1.408 . S
C565 C564 1.404 . S
C565 H577 0.930 . S
C566 C562 1.524 . S
C566 H578 0.956 . S
C566 H579 0.961 . S
C566 H580 0.961 . S
C567 C564 1.539 . S
C567 H581 0.958 . S
C567 H582 0.961 . S
C567 H583 0.960 . S
H568 C552 0.931 . S
H569 C557 0.929 . S
H570 C558 0.960 . S
H571 C558 0.962 . S
H572 C558 0.960 . S
H573 C559 0.961 . S
H574 C559 0.961 . S
H575 C559 0.961 . S
H576 C560 0.931 . S
H577 C565 0.930 . S
H578 C566 0.956 . S
H579 C566 0.961 . S
H580 C566 0.961 . S
H581 C567 0.958 . S
H582 C567 0.961 . S
H583 C567 0.960 . S
C584 C585 1.391 . S
C584 C586 1.394 . S
C584 H600 0.931 . S
C585 C584 1.391 . S
C585 C589 1.376 . S
C586 C584 1.394 . S
C586 C587 1.369 . S
C586 C590 1.531 . S
C587 C586 1.369 . S
C587 C588 1.410 1_455 S
C587 C595 1.503 . S
C588 C587 1.410 1_655 S
C588 C589 1.392 1_655 S
C588 C591 1.511 . S
C589 C585 1.376 . S
C589 C588 1.392 1_455 S
C589 H601 0.929 1_455 S
C590 C586 1.531 . S
C590 H602 0.960 . S
C590 H603 0.962 . S
C590 H604 0.960 . S
C591 C588 1.511 . S
C591 H605 0.961 . S
C591 H606 0.961 . S
C591 H607 0.961 . S
C592 C593 1.370 . S
C592 C594 1.363 . S
C592 H608 0.931 . S
C593 C592 1.370 . S
C593 C597 1.408 1_455 S
C594 C592 1.363 . S
C594 C595 1.370 . S
C594 C598 1.524 . S
C595 C587 1.503 . S
C595 C594 1.370 . S
C595 C596 1.403 1_455 S
C596 C595 1.403 1_655 S
C596 C597 1.404 . S
C596 C599 1.539 . S
C597 C593 1.408 1_655 S
C597 C596 1.404 . S
C597 H609 0.930 . S
C598 C594 1.524 . S
C598 H610 0.956 . S
C598 H611 0.961 . S
C598 H612 0.961 . S
C599 C596 1.539 . S
C599 H613 0.958 . S
C599 H614 0.961 . S
C599 H615 0.960 . S
H600 C584 0.931 . S
H601 C589 0.929 1_655 S
H602 C590 0.960 . S
H603 C590 0.962 . S
H604 C590 0.960 . S
H605 C591 0.961 . S
H606 C591 0.961 . S
H607 C591 0.961 . S
H608 C592 0.931 . S
H609 C597 0.930 . S
H610 C598 0.956 . S
H611 C598 0.961 . S
H612 C598 0.961 . S
H613 C599 0.958 . S
H614 C599 0.961 . S
H615 C599 0.960 . S
C616 C617 1.391 . S
C616 C618 1.394 . S
C616 H632 0.931 1_545 S
C617 C616 1.391 . S
C617 C621 1.376 . S
C618 C616 1.394 . S
C618 C619 1.369 . S
C618 C622 1.531 1_545 S
C619 C618 1.369 . S
C619 C620 1.410 . S
C619 C627 1.503 . S
C620 C619 1.410 . S
C620 C621 1.392 . S
C620 C623 1.511 . S
C621 C617 1.376 . S
C621 C620 1.392 . S
C621 H633 0.929 . S
C622 C618 1.531 1_565 S
C622 H634 0.960 . S
C622 H635 0.962 . S
C622 H636 0.960 . S
C623 C620 1.511 . S
C623 H637 0.961 . S
C623 H638 0.961 . S
C623 H639 0.961 . S
C624 C625 1.370 1_565 S
C624 C626 1.363 . S
C624 H640 0.931 . S
C625 C624 1.370 1_545 S
C625 C629 1.408 . S
C626 C624 1.363 . S
C626 C627 1.370 1_565 S
C626 C630 1.524 . S
C627 C619 1.503 . S
C627 C626 1.370 1_545 S
C627 C628 1.403 . S
C628 C627 1.403 . S
C628 C629 1.404 . S
C628 C631 1.539 . S
C629 C625 1.408 . S
C629 C628 1.404 . S
C629 H641 0.930 . S
C630 C626 1.524 . S
C630 H642 0.956 . S
C630 H643 0.961 . S
C630 H644 0.961 . S
C631 C628 1.539 . S
C631 H645 0.958 . S
C631 H646 0.961 . S
C631 H647 0.960 . S
H632 C616 0.931 1_565 S
H633 C621 0.929 . S
H634 C622 0.960 . S
H635 C622 0.962 . S
H636 C622 0.960 . S
H637 C623 0.961 . S
H638 C623 0.961 . S
H639 C623 0.961 . S
H640 C624 0.931 . S
H641 C629 0.930 . S
H642 C630 0.956 . S
H643 C630 0.961 . S
H644 C630 0.961 . S
H645 C631 0.958 . S
H646 C631 0.961 . S
H647 C631 0.960 . S
C648 C649 1.391 . S
C648 C650 1.394 . S
C648 H664 0.931 . S
C649 C648 1.391 . S
C649 C653 1.376 . S
C650 C648 1.394 . S
C650 C651 1.369 . S
C650 C654 1.531 . S
C651 C650 1.369 . S
C651 C652 1.410 . S
C651 C659 1.503 . S
C652 C651 1.410 . S
C652 C653 1.392 . S
C652 C655 1.511 1_556 S
C653 C649 1.376 . S
C653 C652 1.392 . S
C653 H665 0.929 1_556 S
C654 C650 1.531 . S
C654 H666 0.960 . S
C654 H667 0.962 . S
C654 H668 0.960 . S
C655 C652 1.511 1_554 S
C655 H669 0.961 . S
C655 H670 0.961 . S
C655 H671 0.961 1_554 S
C656 C657 1.370 1_554 S
C656 C658 1.363 . S
C656 H672 0.931 . S
C657 C656 1.370 1_556 S
C657 C661 1.408 . S
C658 C656 1.363 . S
C658 C659 1.370 1_554 S
C658 C662 1.524 . S
C659 C651 1.503 . S
C659 C658 1.370 1_556 S
C659 C660 1.403 . S
C660 C659 1.403 . S
C660 C661 1.404 . S
C660 C663 1.539 . S
C661 C657 1.408 . S
C661 C660 1.404 . S
C661 H673 0.930 . S
C662 C658 1.524 . S
C662 H674 0.956 . S
C662 H675 0.961 . S
C662 H676 0.961 . S
C663 C660 1.539 . S
C663 H677 0.958 . S
C663 H678 0.961 . S
C663 H679 0.960 . S
H664 C648 0.931 . S
H665 C653 0.929 1_554 S
H666 C654 0.960 . S
H667 C654 0.962 . S
H668 C654 0.960 . S
H669 C655 0.961 . S
H670 C655 0.961 . S
H671 C655 0.961 1_556 S
H672 C656 0.931 . S
H673 C661 0.930 . S
H674 C662 0.956 . S
H675 C662 0.961 . S
H676 C662 0.961 . S
H677 C663 0.958 . S
H678 C663 0.961 . S
H679 C663 0.960 . S
C680 C681 1.391 . S
C680 C682 1.394 1_554 S
C680 H696 0.931 . S
C681 C680 1.391 . S
C681 C685 1.376 1_554 S
C682 C680 1.394 1_556 S
C682 C683 1.369 . S
C682 C686 1.531 . S
C683 C682 1.369 . S
C683 C684 1.410 . S
C683 C691 1.503 . S
C684 C683 1.410 . S
C684 C685 1.392 . S
C684 C687 1.511 . S
C685 C681 1.376 1_556 S
C685 C684 1.392 . S
C685 H697 0.929 . S
C686 C682 1.531 . S
C686 H698 0.960 . S
C686 H699 0.962 1_556 S
C686 H700 0.960 . S
C687 C684 1.511 . S
C687 H701 0.962 1_556 S
C687 H702 0.961 . S
C687 H703 0.961 . S
C688 C689 1.370 1_554 S
C688 C690 1.363 . S
C688 H704 0.931 . S
C689 C688 1.370 1_556 S
C689 C693 1.408 . S
C690 C688 1.363 . S
C690 C691 1.370 1_554 S
C690 C694 1.524 . S
C691 C683 1.503 . S
C691 C690 1.370 1_556 S
C691 C692 1.403 . S
C692 C691 1.403 . S
C692 C693 1.404 . S
C692 C695 1.539 . S
C693 C689 1.408 . S
C693 C692 1.404 . S
C693 H705 0.930 . S
C694 C690 1.524 . S
C694 H706 0.956 . S
C694 H707 0.961 . S
C694 H708 0.961 . S
C695 C692 1.539 . S
C695 H709 0.958 . S
C695 H710 0.961 . S
C695 H711 0.960 . S
H696 C680 0.931 . S
H697 C685 0.929 . S
H698 C686 0.960 . S
H699 C686 0.962 1_554 S
H700 C686 0.960 . S
H701 C687 0.962 1_554 S
H702 C687 0.961 . S
H703 C687 0.961 . S
H704 C688 0.931 . S
H705 C693 0.930 . S
H706 C694 0.956 . S
H707 C694 0.961 . S
H708 C694 0.961 . S
H709 C695 0.958 . S
H710 C695 0.961 . S
H711 C695 0.960 . S
C712 C713 1.391 1_556 S
C712 C714 1.394 . S
C712 H728 0.931 . S
C713 C712 1.391 1_554 S
C713 C717 1.376 . S
C714 C712 1.394 . S
C714 C715 1.369 . S
C714 C718 1.531 . S
C715 C714 1.369 . S
C715 C716 1.410 1_556 S
C715 C723 1.503 . S
C716 C715 1.410 1_554 S
C716 C717 1.392 . S
C716 C719 1.511 . S
C717 C713 1.376 . S
C717 C716 1.392 . S
C717 H729 0.929 . S
C718 C714 1.531 . S
C718 H730 0.960 . S
C718 H731 0.962 1_556 S
C718 H732 0.960 . S
C719 C716 1.511 . S
C719 H733 0.961 . S
C719 H734 0.961 . S
C719 H735 0.961 1_554 S
C720 C721 1.374 . S
C720 C722 1.363 . S
C720 H736 0.931 . S
C721 C720 1.374 . S
C721 C725 1.404 1_554 S
C722 C720 1.363 . S
C722 C723 1.370 1_554 S
C722 C726 1.524 . S
C723 C715 1.503 . S
C723 C722 1.370 1_556 S
C723 C724 1.403 . S
C724 C723 1.403 . S
C724 C725 1.404 . S
C724 C727 1.539 . S
C725 C721 1.404 1_556 S
C725 C724 1.404 . S
C725 H737 0.930 . S
C726 C722 1.524 . S
C726 H738 0.956 . S
C726 H739 0.961 . S
C726 H740 0.961 . S
C727 C724 1.539 . S
C727 H741 0.958 . S
C727 H742 0.961 . S
C727 H743 0.960 . S
H728 C712 0.931 . S
H729 C717 0.929 . S
H730 C718 0.960 . S
H731 C718 0.962 1_554 S
H732 C718 0.960 . S
H733 C719 0.961 . S
H734 C719 0.961 . S
H735 C719 0.961 1_556 S
H736 C720 0.931 . S
H737 C725 0.930 . S
H738 C726 0.956 . S
H739 C726 0.961 . S
H740 C726 0.961 . S
H741 C727 0.958 . S
H742 C727 0.961 . S
H743 C727 0.960 . S
C744 C745 1.391 . S
C744 C746 1.394 . S
C744 H760 0.931 . S
C745 C744 1.391 . S
C745 C749 1.376 1_556 S
C746 C744 1.394 . S
C746 C747 1.369 . S
C746 C750 1.531 . S
C747 C746 1.369 . S
C747 C748 1.410 1_556 S
C747 C755 1.503 . S
C748 C747 1.410 1_554 S
C748 C749 1.392 . S
C748 C751 1.511 . S
C749 C745 1.376 1_554 S
C749 C748 1.392 . S
C749 H761 0.929 . S
C750 C746 1.531 . S
C750 H762 0.960 . S
C750 H763 0.962 . S
C750 H764 0.960 . S
C751 C748 1.511 . S
C751 H765 0.961 . S
C751 H766 0.961 . S
C751 H767 0.961 . S
C752 C753 1.370 1_554 S
C752 C754 1.363 . S
C752 H768 0.931 . S
C753 C752 1.370 1_556 S
C753 C757 1.408 . S
C754 C752 1.363 . S
C754 C755 1.370 1_554 S
C754 C758 1.524 . S
C755 C747 1.503 . S
C755 C754 1.370 1_556 S
C755 C756 1.403 . S
C756 C755 1.403 . S
C756 C757 1.404 . S
C756 C759 1.539 . S
C757 C753 1.408 . S
C757 C756 1.404 . S
C757 H769 0.930 . S
C758 C754 1.524 . S
C758 H770 0.956 . S
C758 H771 0.961 . S
C758 H772 0.961 . S
C759 C756 1.539 . S
C759 H773 0.958 . S
C759 H774 0.961 . S
C759 H775 0.960 . S
H760 C744 0.931 . S
H761 C749 0.929 . S
H762 C750 0.960 . S
H763 C750 0.962 . S
H764 C750 0.960 . S
H765 C751 0.961 . S
H766 C751 0.961 . S
H767 C751 0.961 . S
H768 C752 0.931 . S
H769 C757 0.930 . S
H770 C758 0.956 . S
H771 C758 0.961 . S
H772 C758 0.961 . S
H773 C759 0.958 . S
H774 C759 0.961 . S
H775 C759 0.960 . S
C401 C343 1.501 . S
C393 C11 0.915 1_455 S
C433 C350 1.479 . S
C425 C143 1.262 . S
C465 C345 1.270 . S
C457 C1 0.950 . S
C497 C351 1.610 . S
C489 C169 1.145 . S
C521 C29 1.157 . S
C529 C344 1.383 . S
C561 C353 1.593 . S
C553 C125 0.919 1_545 S
C585 C55 1.120 . S
C593 C342 1.520 . S
C617 C115 1.054 . S
C625 C352 1.361 . S
C649 C283 1.357 1_556 S
C657 C347 1.709 1_556 S
C681 C239 1.038 . S
C689 C346 1.696 . S
C721 C349 1.573 . S
C713 C257 1.232 1_554 S
C753 C348 1.457 1_556 S
C745 C229 1.031 . S
