# Generated by pormake.
# Topology pyr, (3,6)-cn, num edge types: 1
# Building blocks:
#     Node 0, Type 0, BuildingBlock: KAKCAD_clean_linker_0, # of connection points: 3
#     Node 1, Type 0, BuildingBlock: KAKCAD_clean_linker_0, # of connection points: 3
#     Node 2, Type 0, BuildingBlock: KAKCAD_clean_linker_0, # of connection points: 3
#     Node 3, Type 0, BuildingBlock: KAKCAD_clean_linker_0, # of connection points: 3
#     Node 4, Type 0, BuildingBlock: KAKCAD_clean_linker_0, # of connection points: 3
#     Node 5, Type 0, BuildingBlock: KAKCAD_clean_linker_0, # of connection points: 3
#     Node 6, Type 0, BuildingBlock: KAKCAD_clean_linker_0, # of connection points: 3
#     Node 7, Type 0, BuildingBlock: KAKCAD_clean_linker_0, # of connection points: 3
#     Node 8, Type 1, BuildingBlock: FUNLAD_clean_sbu_0, # of connection points: 6
#     Node 9, Type 1, BuildingBlock: FUNLAD_clean_sbu_0, # of connection points: 6
#     Node 10, Type 1, BuildingBlock: FUNLAD_clean_sbu_0, # of connection points: 6
#     Node 11, Type 1, BuildingBlock: FUNLAD_clean_sbu_0, # of connection points: 6
#     Edge 12, Type (0, 1), BuildingBlock: ZUJKAS_clean_linker_0, # of connection points: 2
#     Edge 13, Type (0, 1), BuildingBlock: ZUJKAS_clean_linker_0, # of connection points: 2
#     Edge 14, Type (0, 1), BuildingBlock: ZUJKAS_clean_linker_0, # of connection points: 2
#     Edge 15, Type (0, 1), BuildingBlock: ZUJKAS_clean_linker_0, # of connection points: 2
#     Edge 16, Type (0, 1), BuildingBlock: ZUJKAS_clean_linker_0, # of connection points: 2
#     Edge 17, Type (0, 1), BuildingBlock: ZUJKAS_clean_linker_0, # of connection points: 2
#     Edge 18, Type (0, 1), BuildingBlock: ZUJKAS_clean_linker_0, # of connection points: 2
#     Edge 19, Type (0, 1), BuildingBlock: ZUJKAS_clean_linker_0, # of connection points: 2
#     Edge 20, Type (0, 1), BuildingBlock: ZUJKAS_clean_linker_0, # of connection points: 2
#     Edge 21, Type (0, 1), BuildingBlock: ZUJKAS_clean_linker_0, # of connection points: 2
#     Edge 22, Type (0, 1), BuildingBlock: ZUJKAS_clean_linker_0, # of connection points: 2
#     Edge 23, Type (0, 1), BuildingBlock: ZUJKAS_clean_linker_0, # of connection points: 2
#     Edge 24, Type (0, 1), BuildingBlock: ZUJKAS_clean_linker_0, # of connection points: 2
#     Edge 25, Type (0, 1), BuildingBlock: ZUJKAS_clean_linker_0, # of connection points: 2
#     Edge 26, Type (0, 1), BuildingBlock: ZUJKAS_clean_linker_0, # of connection points: 2
#     Edge 27, Type (0, 1), BuildingBlock: ZUJKAS_clean_linker_0, # of connection points: 2
#     Edge 28, Type (0, 1), BuildingBlock: ZUJKAS_clean_linker_0, # of connection points: 2
#     Edge 29, Type (0, 1), BuildingBlock: ZUJKAS_clean_linker_0, # of connection points: 2
#     Edge 30, Type (0, 1), BuildingBlock: ZUJKAS_clean_linker_0, # of connection points: 2
#     Edge 31, Type (0, 1), BuildingBlock: ZUJKAS_clean_linker_0, # of connection points: 2
#     Edge 32, Type (0, 1), BuildingBlock: ZUJKAS_clean_linker_0, # of connection points: 2
#     Edge 33, Type (0, 1), BuildingBlock: ZUJKAS_clean_linker_0, # of connection points: 2
#     Edge 34, Type (0, 1), BuildingBlock: ZUJKAS_clean_linker_0, # of connection points: 2
#     Edge 35, Type (0, 1), BuildingBlock: ZUJKAS_clean_linker_0, # of connection points: 2
# Relax obj value: 0.038
# Max RMSD: 0.054
# Mean RMSD: 0.025
data_MOF--net-pry--node1-FUNLAD_clean_sbu_0--node2-KAKCAD_clean_linker_0--edge1-ZUJKAS_clean_linker_0
_symmetry_space_group_name_H-M    P1
_symmetry_Int_Tables_number       1
_symmetry_cell_setting            triclinic
loop_
_symmetry_equiv_pos_as_xyz
'x, y, z'
_cell_length_a     55.118763
_cell_length_b     57.552179
_cell_length_c     57.883666
_cell_angle_alpha  90.321883
_cell_angle_beta   89.983266
_cell_angle_gamma 86.654241
loop_
_atom_site_label
_atom_site_type_symbol
_atom_site_fract_x
_atom_site_fract_y
_atom_site_fract_z
_atom_type_partial_charge
C0 C 0.10332 0.13892 0.24285 0.0
C1 C 0.11891 0.13085 0.26072 0.0
C2 C 0.11259 0.14928 0.22305 0.0
C3 C 0.13773 0.15154 0.22046 0.0
C4 C 0.15329 0.14349 0.23834 0.0
C5 C 0.14401 0.1334 0.25822 0.0
C6 C 0.14785 0.16188 0.19909 0.0
C7 C 0.13696 0.18239 0.1894 0.0
C8 C 0.14693 0.19248 0.16964 0.0
C9 C 0.16775 0.18144 0.15937 0.0
C10 C 0.17876 0.16078 0.16848 0.0
C11 C 0.16868 0.15125 0.18842 0.0
C12 C 0.20075 0.14923 0.1571 0.0
C13 C 0.2029 0.1486 0.13285 0.0
C14 C 0.21991 0.13895 0.17032 0.0
C15 C 0.24064 0.1285 0.15961 0.0
C16 C 0.24286 0.12813 0.13539 0.0
C17 C 0.13593 0.21464 0.15967 0.0
C18 C 0.11059 0.21848 0.15744 0.0
C19 C 0.15086 0.23193 0.15166 0.0
C20 C 0.14081 0.25227 0.14141 0.0
C21 C 0.1155 0.25601 0.13883 0.0
C22 C 0.10051 0.23885 0.14709 0.0
C23 C 0.22367 0.13827 0.12217 0.0
H24 H 0.08388 0.13743 0.24426 0.0
H25 H 0.1001 0.15515 0.20957 0.0
H26 H 0.17272 0.14512 0.23704 0.0
H27 H 0.15658 0.12724 0.27152 0.0
H28 H 0.1212 0.19091 0.19771 0.0
H29 H 0.17669 0.13514 0.19538 0.0
H30 H 0.17547 0.18904 0.14416 0.0
H31 H 0.18838 0.15587 0.12203 0.0
H32 H 0.21914 0.13936 0.18901 0.0
H33 H 0.25518 0.12111 0.17035 0.0
H34 H 0.09852 0.20552 0.16327 0.0
H35 H 0.17043 0.22977 0.15333 0.0
H36 H 0.22455 0.13797 0.10347 0.0
H37 H 0.08094 0.24119 0.14567 0.0
H38 H 0.153 0.2649 0.1351 0.0
C39 C 0.36427 0.8899 0.75638 0.0
C40 C 0.38946 0.89057 0.76004 0.0
C41 C 0.35519 0.87968 0.7364 0.0
C42 C 0.37102 0.86982 0.71945 0.0
C43 C 0.39622 0.8703 0.72317 0.0
C44 C 0.40532 0.88054 0.74318 0.0
C45 C 0.36118 0.8593 0.69795 0.0
C46 C 0.34078 0.87003 0.68679 0.0
C47 C 0.33096 0.86023 0.66678 0.0
C48 C 0.3419 0.83934 0.65793 0.0
C49 C 0.36236 0.8283 0.66863 0.0
C50 C 0.37194 0.83849 0.68859 0.0
C51 C 0.37351 0.80607 0.65885 0.0
C52 C 0.35875 0.78867 0.65065 0.0
C53 C 0.39889 0.8023 0.65701 0.0
C54 C 0.4092 0.78185 0.64685 0.0
C55 C 0.39439 0.76458 0.63839 0.0
C56 C 0.30924 0.87169 0.65512 0.0
C57 C 0.28988 0.88207 0.66812 0.0
C58 C 0.30751 0.87205 0.63085 0.0
C59 C 0.28691 0.88222 0.61992 0.0
C60 C 0.26751 0.89244 0.63292 0.0
C61 C 0.26932 0.89236 0.65716 0.0
C62 C 0.36903 0.76823 0.64059 0.0
H63 H 0.35148 0.89701 0.76914 0.0
H64 H 0.33569 0.87927 0.73438 0.0
H65 H 0.40897 0.86316 0.71038 0.0
H66 H 0.42481 0.88098 0.74521 0.0
H67 H 0.33286 0.8864 0.69342 0.0
H68 H 0.38733 0.82981 0.69724 0.0
H69 H 0.33442 0.83158 0.64261 0.0
H70 H 0.33915 0.79082 0.65203 0.0
H71 H 0.41081 0.81538 0.663 0.0
H72 H 0.4288 0.77954 0.6457 0.0
H73 H 0.29036 0.88185 0.68682 0.0
H74 H 0.32222 0.86466 0.62023 0.0
H75 H 0.35702 0.75546 0.63411 0.0
H76 H 0.25459 0.89982 0.66772 0.0
H77 H 0.2863 0.8823 0.60121 0.0
C78 C 0.69504 0.46682 0.95423 0.0
C79 C 0.71267 0.44896 0.95939 0.0
C80 C 0.67105 0.4616 0.94958 0.0
C81 C 0.66424 0.43846 0.95023 0.0
C82 C 0.6818 0.42071 0.95588 0.0
C83 C 0.70572 0.4259 0.9604 0.0
C84 C 0.63936 0.43242 0.9437 0.0
C85 C 0.62853 0.4416 0.92349 0.0
C86 C 0.60666 0.43334 0.91522 0.0
C87 C 0.59537 0.41614 0.92776 0.0
C88 C 0.6061 0.40649 0.94778 0.0
C89 C 0.62775 0.41525 0.95598 0.0
C90 C 0.59682 0.38492 0.95765 0.0
C91 C 0.57176 0.38148 0.95815 0.0
C92 C 0.61324 0.36636 0.96375 0.0
C93 C 0.60494 0.34451 0.96866 0.0
C94 C 0.58006 0.34059 0.96731 0.0
C95 C 0.59719 0.44044 0.89212 0.0
C96 C 0.5978 0.46359 0.88456 0.0
C97 C 0.58846 0.42365 0.87697 0.0
C98 C 0.58053 0.4298 0.85488 0.0
C99 C 0.58138 0.45282 0.84724 0.0
C100 C 0.59005 0.46971 0.86228 0.0
C101 C 0.56346 0.3595 0.96285 0.0
H102 H 0.69993 0.48474 0.95321 0.0
H103 H 0.65787 0.47561 0.94531 0.0
H104 H 0.67722 0.40266 0.95618 0.0
H105 H 0.71885 0.41181 0.96459 0.0
H106 H 0.63807 0.45393 0.91331 0.0
H107 H 0.63613 0.40803 0.97149 0.0
H108 H 0.5789 0.40924 0.92107 0.0
H109 H 0.5586 0.39552 0.95392 0.0
H110 H 0.63267 0.36821 0.96337 0.0
H111 H 0.61816 0.33042 0.97258 0.0
H112 H 0.60431 0.47694 0.89585 0.0
H113 H 0.58839 0.40553 0.88189 0.0
H114 H 0.54416 0.35708 0.96171 0.0
H115 H 0.59079 0.48762 0.8568 0.0
H116 H 0.57444 0.41632 0.84349 0.0
C117 C 0.90495 0.55978 0.34969 0.0
C118 C 0.92959 0.55964 0.34349 0.0
C119 C 0.89767 0.56456 0.37236 0.0
C120 C 0.9149 0.56913 0.38946 0.0
C121 C 0.9397 0.56761 0.38356 0.0
C122 C 0.94698 0.56292 0.36078 0.0
C123 C 0.90663 0.57806 0.41245 0.0
C124 C 0.88586 0.56975 0.42286 0.0
C125 C 0.87476 0.58141 0.44183 0.0
C126 C 0.8857 0.6007 0.45141 0.0
C127 C 0.90687 0.60891 0.44159 0.0
C128 C 0.91726 0.59739 0.42222 0.0
C129 C 0.91629 0.63133 0.44924 0.0
C130 C 0.90014 0.65072 0.45333 0.0
C131 C 0.94143 0.63417 0.45018 0.0
C132 C 0.95022 0.65614 0.45411 0.0
C133 C 0.93403 0.67568 0.45724 0.0
C134 C 0.85011 0.57554 0.44942 0.0
C135 C 0.83248 0.57067 0.43281 0.0
C136 C 0.84342 0.57636 0.47287 0.0
C137 C 0.81947 0.57287 0.47947 0.0
C138 C 0.80177 0.56858 0.46272 0.0
C139 C 0.80868 0.56714 0.43938 0.0
C140 C 0.90891 0.67264 0.45732 0.0
H141 H 0.89115 0.55688 0.33683 0.0
H142 H 0.8784 0.56585 0.37614 0.0
H143 H 0.95342 0.57081 0.3964 0.0
H144 H 0.96612 0.56295 0.35653 0.0
H145 H 0.87762 0.55476 0.41548 0.0
H146 H 0.93249 0.60469 0.41359 0.0
H147 H 0.87701 0.61014 0.46571 0.0
H148 H 0.88067 0.64925 0.45228 0.0
H149 H 0.95431 0.61949 0.44732 0.0
H150 H 0.96967 0.6579 0.4543 0.0
H151 H 0.83682 0.57031 0.41456 0.0
H152 H 0.85661 0.57996 0.48609 0.0
H153 H 0.89596 0.6874 0.45934 0.0
H154 H 0.79559 0.56347 0.42609 0.0
H155 H 0.81467 0.57415 0.4976 0.0
C156 C 0.89278 0.8655 0.75817 0.0
C157 C 0.89184 0.88988 0.75558 0.0
C158 C 0.88362 0.85531 0.7781 0.0
C159 C 0.87329 0.86916 0.79611 0.0
C160 C 0.87258 0.89352 0.7936 0.0
C161 C 0.88162 0.9037 0.77366 0.0
C162 C 0.86304 0.85837 0.81728 0.0
C163 C 0.87431 0.83805 0.82707 0.0
C164 C 0.86493 0.82817 0.8472 0.0
C165 C 0.84383 0.83871 0.85738 0.0
C166 C 0.83209 0.8588 0.84788 0.0
C167 C 0.84187 0.86847 0.82788 0.0
C168 C 0.80962 0.86962 0.85893 0.0
C169 C 0.7913 0.85571 0.86702 0.0
C170 C 0.80645 0.8939 0.86179 0.0
C171 C 0.78564 0.90397 0.87268 0.0
C172 C 0.76733 0.89005 0.88092 0.0
C173 C 0.87705 0.80693 0.85785 0.0
C174 C 0.88442 0.78742 0.8443 0.0
C175 C 0.88057 0.80573 0.88189 0.0
C176 C 0.89081 0.78548 0.89217 0.0
C177 C 0.89763 0.76566 0.87876 0.0
C178 C 0.89446 0.76703 0.85461 0.0
C179 C 0.77044 0.86577 0.87779 0.0
H180 H 0.90077 0.8542 0.74485 0.0
H181 H 0.88434 0.83651 0.77919 0.0
H182 H 0.86514 0.90486 0.80715 0.0
H183 H 0.88024 0.92248 0.77233 0.0
H184 H 0.89084 0.83027 0.81948 0.0
H185 H 0.83254 0.88362 0.82022 0.0
H186 H 0.83651 0.8312 0.87284 0.0
H187 H 0.79294 0.83699 0.86479 0.0
H188 H 0.82032 0.90512 0.85603 0.0
H189 H 0.78417 0.92267 0.87504 0.0
H190 H 0.88176 0.78768 0.82576 0.0
H191 H 0.87547 0.82057 0.89281 0.0
H192 H 0.7566 0.85446 0.88343 0.0
H193 H 0.89914 0.75214 0.84365 0.0
H194 H 0.89346 0.78547 0.9107 0.0
C195 C 0.62815 0.11418 0.27527 0.0
C196 C 0.61756 0.12806 0.25758 0.0
C197 C 0.63739 0.12431 0.29523 0.0
C198 C 0.6365 0.14866 0.29811 0.0
C199 C 0.62576 0.16256 0.28051 0.0
C200 C 0.61641 0.15241 0.26056 0.0
C201 C 0.64713 0.15942 0.31916 0.0
C202 C 0.66878 0.14961 0.32892 0.0
C203 C 0.67905 0.15936 0.34872 0.0
C204 C 0.66748 0.1794 0.35869 0.0
C205 C 0.64579 0.1896 0.34943 0.0
C206 C 0.63579 0.17945 0.32961 0.0
C207 C 0.63373 0.21079 0.36062 0.0
C208 C 0.63355 0.2133 0.38483 0.0
C209 C 0.62289 0.22895 0.34729 0.0
C210 C 0.61254 0.24917 0.35786 0.0
C211 C 0.6128 0.25186 0.38208 0.0
C212 C 0.70173 0.14851 0.35918 0.0
C213 C 0.70505 0.12418 0.36127 0.0
C214 C 0.72001 0.16238 0.3676 0.0
C215 C 0.74094 0.15223 0.37801 0.0
C216 C 0.74416 0.12791 0.38032 0.0
C217 C 0.72597 0.11403 0.37172 0.0
C218 C 0.62336 0.23354 0.39538 0.0
H219 H 0.62968 0.09541 0.2736 0.0
H220 H 0.64518 0.11296 0.30849 0.0
H221 H 0.62491 0.18136 0.28194 0.0
H222 H 0.60813 0.16372 0.24753 0.0
H223 H 0.67806 0.13461 0.32076 0.0
H224 H 0.61879 0.18677 0.32269 0.0
H225 H 0.67541 0.18704 0.37385 0.0
H226 H 0.64131 0.19959 0.39576 0.0
H227 H 0.62281 0.22779 0.32861 0.0
H228 H 0.60428 0.26268 0.347 0.0
H229 H 0.69128 0.11296 0.35518 0.0
H230 H 0.71821 0.18115 0.36606 0.0
H231 H 0.62423 0.23494 0.41401 0.0
H232 H 0.72794 0.09524 0.37293 0.0
H233 H 0.75442 0.1635 0.38461 0.0
C234 C 0.30954 0.56613 0.08418 0.0
C235 C 0.30202 0.57111 0.06146 0.0
C236 C 0.33333 0.56947 0.09108 0.0
C237 C 0.35023 0.57776 0.0754 0.0
C238 C 0.34286 0.58238 0.05255 0.0
C239 C 0.31899 0.57905 0.04564 0.0
C240 C 0.37504 0.58266 0.08334 0.0
C241 C 0.38744 0.5677 0.09905 0.0
C242 C 0.40946 0.57369 0.10897 0.0
C243 C 0.41959 0.59441 0.10228 0.0
C244 C 0.4074 0.60972 0.0868 0.0
C245 C 0.38527 0.60356 0.07716 0.0
C246 C 0.41632 0.63324 0.08291 0.0
C247 C 0.4253 0.64593 0.10156 0.0
C248 C 0.41499 0.64362 0.06099 0.0
C249 C 0.42222 0.66629 0.05788 0.0
C250 C 0.43091 0.67903 0.07665 0.0
C251 C 0.41996 0.56052 0.12889 0.0
C252 C 0.40476 0.55438 0.14707 0.0
C253 C 0.44526 0.55689 0.13142 0.0
C254 C 0.45517 0.5488 0.1523 0.0
C255 C 0.43997 0.54423 0.17106 0.0
C256 C 0.41464 0.54636 0.16793 0.0
C257 C 0.43261 0.66846 0.09844 0.0
H258 H 0.29702 0.55966 0.0967 0.0
H259 H 0.33827 0.56608 0.1089 0.0
H260 H 0.3555 0.58868 0.04005 0.0
H261 H 0.3137 0.58318 0.02805 0.0
H262 H 0.37958 0.55168 0.10415 0.0
H263 H 0.37517 0.61577 0.06608 0.0
H264 H 0.43636 0.59932 0.11021 0.0
H265 H 0.42616 0.63869 0.11879 0.0
H266 H 0.40825 0.63425 0.04626 0.0
H267 H 0.42049 0.67401 0.0409 0.0
H268 H 0.38521 0.55729 0.14581 0.0
H269 H 0.4574 0.56122 0.11757 0.0
H270 H 0.43954 0.67765 0.11319 0.0
H271 H 0.40238 0.54331 0.18206 0.0
H272 H 0.47475 0.54693 0.15405 0.0
C273 C 0.09587 0.34637 0.54905 0.0
C274 C 0.07084 0.34406 0.55211 0.0
C275 C 0.10603 0.36759 0.55336 0.0
C276 C 0.09139 0.38705 0.56072 0.0
C277 C 0.06615 0.38506 0.5626 0.0
C278 C 0.05598 0.36374 0.55842 0.0
C279 C 0.10289 0.4083 0.56893 0.0
C280 C 0.12366 0.41599 0.55791 0.0
C281 C 0.13728 0.43325 0.56805 0.0
C282 C 0.12921 0.44361 0.58894 0.0
C283 C 0.10822 0.43647 0.59992 0.0
C284 C 0.09509 0.41897 0.58972 0.0
C285 C 0.10162 0.44499 0.62343 0.0
C286 C 0.11952 0.44578 0.64064 0.0
C287 C 0.07722 0.4504 0.62936 0.0
C288 C 0.07076 0.4557 0.65221 0.0
C289 C 0.08857 0.4556 0.6696 0.0
C290 C 0.16138 0.43845 0.55848 0.0
C291 C 0.17734 0.42025 0.55035 0.0
C292 C 0.16946 0.46117 0.55917 0.0
C293 C 0.19327 0.46541 0.55284 0.0
C294 C 0.20948 0.44703 0.54559 0.0
C295 C 0.20105 0.42451 0.5439 0.0
C296 C 0.11307 0.451 0.66347 0.0
H297 H 0.10786 0.33145 0.54455 0.0
H298 H 0.12558 0.36831 0.55216 0.0
H299 H 0.05434 0.39981 0.56796 0.0
H300 H 0.03658 0.36252 0.56062 0.0
H301 H 0.1297 0.40794 0.54179 0.0
H302 H 0.07984 0.41239 0.59895 0.0
H303 H 0.13989 0.45646 0.5973 0.0
H304 H 0.13843 0.44129 0.63668 0.0
H305 H 0.06308 0.45011 0.61638 0.0
H306 H 0.05177 0.45956 0.65631 0.0
H307 H 0.17188 0.40248 0.54985 0.0
H308 H 0.15755 0.4756 0.56512 0.0
H309 H 0.12721 0.45043 0.67648 0.0
H310 H 0.21293 0.41003 0.53801 0.0
H311 H 0.19921 0.48295 0.55447 0.0
C312 C 0.02703 0.024 0.4668 0.0
N313 N 0.01353 0.05762 0.53035 0.0
C314 C 0.03593 0.06598 0.52767 0.0
C315 C 0.03995 0.0889 0.53366 0.0
C316 C 0.02069 0.1035 0.54226 0.0
C317 C 0.99808 0.09408 0.546 0.0
C318 C 0.99488 0.07093 0.5399 0.0
Zn319 Zn 0.00772 0.02594 0.51625 0.0
C320 C 0.96058 0.02696 0.49022 0.0
N321 N 0.99652 0.96083 0.48419 0.0
C322 C 0.01507 0.94735 0.4747 0.0
C323 C 0.97402 0.95269 0.48676 0.0
C324 C 0.96972 0.92989 0.48058 0.0
C325 C 0.98883 0.91511 0.47197 0.0
C326 C 0.01162 0.92428 0.46846 0.0
Zn327 Zn 1.00241 0.99253 0.49825 0.0
O328 O 0.02492 0.03652 0.48497 0.0
C329 C 0.04955 0.99154 0.52428 0.0
O330 O 0.0191 1.00366 0.46705 0.0
H331 H 0.95954 0.96361 0.49447 0.0
H332 H 0.05048 0.05515 0.51997 0.0
H333 H 0.03283 0.95419 0.47285 0.0
O334 O 0.04172 0.01216 0.52935 0.0
O335 O 0.03686 0.97929 0.51114 0.0
H336 H 0.97722 0.06392 0.54183 0.0
O337 O 0.98567 0.98177 0.52969 0.0
O338 O 0.99059 0.01497 0.54729 0.0
O339 O 0.96819 1.00619 0.48554 0.0
O340 O 0.9735 0.03936 0.50299 0.0
C341 C 0.98315 0.99445 0.54771 0.0
H342 H 0.05781 0.09531 0.53092 0.0
H343 H 0.98271 0.10476 0.55247 0.0
H344 H 0.95172 0.92372 0.48313 0.0
H345 H 0.02691 0.91348 0.46199 0.0
C346 C 0.54946 0.99101 0.99082 0.0
N347 N 0.51292 0.05696 0.98501 0.0
C348 C 0.53521 0.06566 0.98731 0.0
C349 C 0.53893 0.08839 0.98065 0.0
C350 C 0.51949 0.10238 0.97169 0.0
C351 C 0.49691 0.09268 0.96862 0.0
C352 C 0.49403 0.06974 0.97536 0.0
Zn353 Zn 0.50748 0.02554 0.9994 0.0
C354 C 0.48278 0.99363 0.96822 0.0
N355 N 0.49681 0.96091 0.03175 0.0
C356 C 0.51501 0.94856 0.0429 0.0
C357 C 0.47463 0.95219 0.02872 0.0
C358 C 0.47024 0.92997 0.03646 0.0
C359 C 0.48883 0.91652 0.0475 0.0
C360 C 0.51139 0.92618 0.05097 0.0
Zn361 Zn 0.50253 0.99223 0.01726 0.0
O362 O 0.54154 0.01163 0.98604 0.0
C363 C 0.52729 0.02419 0.04842 0.0
O364 O 0.53689 0.97875 1.00397 0.0
H365 H 0.46046 0.96225 0.01968 0.0
H366 H 0.54989 0.05529 0.99525 0.0
H367 H 0.53251 0.95587 0.0451 0.0
O368 O 0.52481 0.03668 0.03041 0.0
O369 O 0.51961 1.00377 0.04807 0.0
H370 H 0.47648 0.06244 0.97368 0.0
O371 O 0.46834 1.00607 0.03049 0.0
O372 O 0.47328 0.03903 0.0129 0.0
O373 O 0.48548 0.98104 0.98614 0.0
O374 O 0.49019 0.01415 0.96867 0.0
C375 C 0.46058 0.02676 0.02588 0.0
H376 H 0.55653 0.09531 0.98361 0.0
H377 H 0.48153 0.10289 0.96161 0.0
H378 H 0.4527 0.92311 0.03305 0.0
H379 H 0.52614 0.91648 0.05959 0.0
C380 C 0.52296 0.466 0.49271 0.0
N381 N 0.5198 0.49292 0.56043 0.0
C382 C 0.51384 0.47209 0.56913 0.0
C383 C 0.51957 0.46631 0.592 0.0
C384 C 0.53156 0.48212 0.60592 0.0
C385 C 0.53759 0.50338 0.59635 0.0
C386 C 0.53156 0.50842 0.57351 0.0
Zn387 Zn 0.51085 0.50252 0.52759 0.0
C388 C 0.55247 0.52468 0.50478 0.0
N389 N 0.49331 0.52554 0.45966 0.0
C390 C 0.48188 0.50985 0.44653 0.0
C391 C 0.50002 0.54599 0.45067 0.0
C392 C 0.49578 0.55102 0.42736 0.0
C393 C 0.4845 0.53483 0.41329 0.0
C394 C 0.4773 0.51415 0.42326 0.0
Zn395 Zn 0.50194 0.51607 0.49263 0.0
O396 O 0.52313 0.469 0.51451 0.0
C397 C 0.4603 0.49394 0.51548 0.0
O398 O 0.51519 0.48272 0.47993 0.0
H399 H 0.50911 0.55819 0.46146 0.0
H400 H 0.5045 0.46004 0.55839 0.0
H401 H 0.47687 0.49361 0.45394 0.0
O402 O 0.47545 0.49095 0.53188 0.0
O403 O 0.46679 0.50376 0.49706 0.0
H404 H 0.53604 0.52492 0.5663 0.0
O405 O 0.48896 0.54932 0.5057 0.0
O406 O 0.49828 0.53611 0.54021 0.0
O407 O 0.53709 0.52828 0.48867 0.0
O408 O 0.54623 0.5142 0.52289 0.0
C409 C 0.48984 0.55259 0.52744 0.0
H410 H 0.51477 0.44964 0.59866 0.0
H411 H 0.54643 0.51627 0.60654 0.0
H412 H 0.50143 0.56727 0.42039 0.0
H413 H 0.46897 0.50098 0.41302 0.0
C414 C 0.99269 0.55321 0.98794 0.0
N415 N 0.99321 0.52777 0.05599 0.0
C416 C 1.0002 0.54831 0.06477 0.0
C417 C 0.99483 0.55446 0.08768 0.0
C418 C 0.98203 0.53936 0.10151 0.0
C419 C 0.97465 0.51853 0.0918 0.0
C420 C 0.9805 0.51303 0.06895 0.0
Zn421 Zn 1.00306 0.51717 0.02356 0.0
C422 C 0.96224 0.49516 0.99937 0.0
N423 N 0.02358 0.49248 0.95665 0.0
C424 C 0.03587 0.50752 0.94366 0.0
C425 C 0.01763 0.4715 0.94807 0.0
C426 C 0.02381 0.46512 0.92539 0.0
C427 C 0.03626 0.4805 0.91152 0.0
C428 C 0.04237 0.50188 0.921 0.0
Zn429 Zn 0.01352 0.50307 0.98903 0.0
O430 O 0.99104 0.55026 0.00965 0.0
C431 C 0.05429 0.52531 0.01304 0.0
O432 O 1.00154 0.53651 0.97548 0.0
H433 H 0.00786 0.45983 0.95874 0.0
H434 H 0.0103 0.55975 0.05412 0.0
H435 H 0.04032 0.52415 0.95076 0.0
O436 O 0.03834 0.52897 0.02869 0.0
O437 O 0.04867 0.51479 0.99464 0.0
H438 H 0.97533 0.49668 0.06171 0.0
O439 O 0.02531 0.46982 1.00303 0.0
O440 O 0.01518 0.48388 0.03716 0.0
O441 O 0.97822 0.49146 0.98375 0.0
O442 O 0.9679 0.50542 0.01791 0.0
C443 C 0.0238 0.46703 0.02478 0.0
H444 H 1.00069 0.57077 0.09451 0.0
H445 H 0.9651 0.50622 0.10198 0.0
H446 H 0.01892 0.44839 0.91879 0.0
H447 H 0.05155 0.51445 0.91083 0.0
H448 H 0.08424 0.09851 0.2633 0.0
H449 H 0.0688 0.07987 0.29795 0.0
H450 H 0.11602 0.11907 0.3405 0.0
H451 H 0.13156 0.1378 0.30601 0.0
H452 H 0.10088 0.05402 0.33495 0.0
H453 H 0.04323 0.13012 0.36686 0.0
H454 H 0.05153 0.12653 0.33679 0.0
H455 H 0.07358 0.13525 0.35738 0.0
C456 C 0.09122 0.10331 0.28004 0.0
C457 C 0.10914 0.11971 0.28182 0.0
C458 C 0.08247 0.09253 0.29982 0.0
C459 C 0.09117 0.09815 0.32183 0.0
C460 C 0.10897 0.11454 0.32371 0.0
H461 H 0.05239 0.06327 0.46263 0.0
H462 H 0.06858 0.07998 0.42751 0.0
C463 C 0.11792 0.12514 0.30394 0.0
C464 C 0.08183 0.08676 0.34285 0.0
H465 H 0.04642 0.09706 0.39071 0.0
C466 C 0.08889 0.06335 0.34714 0.0
C467 C 0.06638 0.09902 0.3588 0.0
C468 C 0.05803 0.1241 0.35482 0.0
C469 C 0.0813 0.052 0.36718 0.0
C470 C 0.06554 0.06417 0.3831 0.0
C471 C 0.05844 0.08761 0.37864 0.0
C472 C 0.05642 0.05317 0.40459 0.0
C473 C 0.09095 0.02732 0.37142 0.0
C474 C 0.04408 0.03245 0.40365 0.0
C475 C 0.03508 0.02263 0.42385 0.0
C476 C 0.03777 0.03355 0.44545 0.0
C477 C 0.05 0.05434 0.44633 0.0
C478 C 0.05924 0.06397 0.4262 0.0
H479 H 0.10819 0.02322 0.36189 0.0
H480 H 0.09424 0.02414 0.39009 0.0
H481 H 0.07746 0.01514 0.36521 0.0
H482 H 0.04097 0.02405 0.38723 0.0
H483 H 0.02551 1.00678 0.42246 0.0
H484 H 0.4289 0.87595 0.78646 0.0
H485 H 0.44416 0.89405 0.82154 0.0
H486 H 0.38724 0.94845 0.81705 0.0
H487 H 0.37197 0.93063 0.7819 0.0
H488 H 0.46084 0.93822 0.82886 0.0
H489 H 0.37983 0.92509 0.8831 0.0
H490 H 0.38501 0.91038 0.85577 0.0
H491 H 0.37316 0.94014 0.85656 0.0
C492 C 0.4197 0.89186 0.79281 0.0
C493 C 0.39906 0.9017 0.78134 0.0
C494 C 0.4284 0.90214 0.81295 0.0
C495 C 0.41663 0.92241 0.8222 0.0
C496 C 0.3963 0.93251 0.81061 0.0
H497 H 0.47648 0.01461 0.92593 0.0
H498 H 0.46034 0.99786 0.89051 0.0
C499 C 0.38758 0.92225 0.79047 0.0
C500 C 0.42579 0.93313 0.84378 0.0
H501 H 0.40965 0.94858 0.89908 0.0
C502 C 0.44965 0.94047 0.84422 0.0
C503 C 0.41131 0.93583 0.86395 0.0
C504 C 0.38598 0.92726 0.865 0.0
C505 C 0.4593 0.95068 0.86411 0.0
C506 C 0.44459 0.95395 0.88407 0.0
C507 C 0.42084 0.94633 0.88373 0.0
C508 C 0.45377 0.96453 0.90571 0.0
C509 C 0.48535 0.95741 0.86373 0.0
C510 C 0.45478 0.95169 0.92627 0.0
C511 C 0.46387 0.96126 0.94659 0.0
C512 C 0.47202 0.984 0.94686 0.0
C513 C 0.47047 0.99704 0.92635 0.0
C514 C 0.4614 0.98742 0.90602 0.0
H515 H 0.49582 0.94862 0.84944 0.0
H516 H 0.48572 0.97648 0.86118 0.0
H517 H 0.49457 0.95301 0.88033 0.0
H518 H 0.44889 0.93406 0.92653 0.0
H519 H 0.46471 0.9507 0.96203 0.0
H520 H 0.60591 0.47817 0.81616 0.0
H521 H 0.59633 0.48412 0.77517 0.0
H522 H 0.53185 0.44591 0.78301 0.0
H523 H 0.54114 0.44013 0.824 0.0
H524 H 0.59078 0.44541 0.74315 0.0
H525 H 0.50878 0.50633 0.74781 0.0
H526 H 0.53022 0.50285 0.77132 0.0
H527 H 0.50861 0.48125 0.76618 0.0
C528 C 0.58942 0.4715 0.80924 0.0
C529 C 0.57426 0.45868 0.82322 0.0
C530 C 0.58407 0.47478 0.78585 0.0
C531 C 0.56333 0.46556 0.7762 0.0
C532 C 0.54778 0.45337 0.79025 0.0
H533 H 0.50293 0.46189 0.63785 0.0
H534 H 0.51133 0.45604 0.679 0.0
C535 C 0.55319 0.44996 0.81358 0.0
C536 C 0.55881 0.46727 0.75112 0.0
H537 H 0.51903 0.49027 0.7111 0.0
C538 C 0.57518 0.4553 0.73608 0.0
C539 C 0.5383 0.47998 0.74211 0.0
C540 C 0.52051 0.49351 0.75762 0.0
C541 C 0.57141 0.45548 0.71212 0.0
C542 C 0.55102 0.46842 0.70304 0.0
C543 C 0.53461 0.48032 0.71814 0.0
C544 C 0.54672 0.47042 0.67789 0.0
C545 C 0.589 0.44142 0.69683 0.0
C546 C 0.56389 0.48031 0.66368 0.0
C547 C 0.55928 0.48342 0.64017 0.0
C548 C 0.53725 0.47697 0.63048 0.0
C549 C 0.5202 0.46676 0.64472 0.0
C550 C 0.52488 0.46358 0.66825 0.0
H551 H 0.59901 0.42734 0.70661 0.0
H552 H 0.57948 0.43351 0.68211 0.0
H553 H 0.60256 0.45301 0.68979 0.0
H554 H 0.58067 0.48611 0.67085 0.0
H555 H 0.57289 0.49112 0.62963 0.0
H556 H 0.90702 0.58091 0.30679 0.0
H557 H 0.91837 0.57794 0.26611 0.0
H558 H 0.98041 0.53233 0.28364 0.0
H559 H 0.96871 0.53461 0.32453 0.0
H560 H 0.96171 0.58973 0.2449 0.0
H561 H 0.94486 0.49596 0.23369 0.0
H562 H 0.93377 0.51277 0.25832 0.0
H563 H 0.96519 0.50268 0.25675 0.0
C564 C 0.92288 0.56994 0.302 0.0
C565 C 0.93678 0.55771 0.31884 0.0
C566 C 0.92946 0.56847 0.27877 0.0
C567 C 0.95005 0.55474 0.2719 0.0
C568 C 0.96425 0.54276 0.28862 0.0
H569 H 0.01326 0.55602 0.13345 0.0
H570 H 0.00638 0.56106 0.17503 0.0
C571 C 0.95765 0.54421 0.31195 0.0
C572 C 0.95639 0.55304 0.24712 0.0
H573 H 0.96022 0.51528 0.20147 0.0
C574 C 0.96153 0.57346 0.23537 0.0
C575 C 0.95582 0.53181 0.23481 0.0
C576 C 0.94943 0.50955 0.24642 0.0
C577 C 0.96596 0.57323 0.21151 0.0
C578 C 0.96553 0.55197 0.19923 0.0
C579 C 0.9606 0.53153 0.21102 0.0
C580 C 0.96933 0.55056 0.17398 0.0
C581 C 0.97032 0.59582 0.1995 0.0
C582 C 0.95077 0.54299 0.15972 0.0
C583 C 0.95465 0.54009 0.13604 0.0
C584 C 0.9772 0.54461 0.12622 0.0
C585 C 0.99559 0.55273 0.14048 0.0
C586 C 0.9917 0.55558 0.16422 0.0
H587 H 0.96467 0.61118 0.21035 0.0
H588 H 0.99 0.59654 0.19573 0.0
H589 H 0.96034 0.59705 0.18285 0.0
H590 H 0.93336 0.53908 0.16697 0.0
H591 H 0.94007 0.53406 0.12544 0.0
H592 H 0.26786 0.14465 0.09852 0.0
H593 H 0.30416 0.12687 0.07958 0.0
H594 H 0.30499 0.0698 0.12751 0.0
H595 H 0.26846 0.08727 0.14636 0.0
H596 H 0.35076 0.11481 0.10023 0.0
H597 H 0.30838 0.03773 0.06304 0.0
H598 H 0.2907 0.06325 0.073 0.0
H599 H 0.30343 0.04258 0.09343 0.0
C600 C 0.27559 0.12818 0.1049 0.0
C601 C 0.26511 0.11735 0.12392 0.0
C602 C 0.29645 0.11811 0.09413 0.0
C603 C 0.30715 0.09686 0.10193 0.0
C604 C 0.29686 0.08604 0.12097 0.0
H605 H 0.43175 0.00715 0.05817 0.0
H606 H 0.39493 0.02444 0.0765 0.0
C607 C 0.27609 0.09618 0.13187 0.0
C608 C 0.32935 0.08628 0.09042 0.0
H609 H 0.35104 0.03882 0.05932 0.0
C610 C 0.35082 0.09823 0.0912 0.0
C611 C 0.32945 0.0646 0.07875 0.0
C612 C 0.30675 0.0513 0.07677 0.0
C613 C 0.37248 0.08894 0.08101 0.0
C614 C 0.37256 0.06732 0.06911 0.0
C615 C 0.35104 0.05537 0.06837 0.0
C616 C 0.39479 0.05674 0.05751 0.0
C617 C 0.39523 0.10209 0.08367 0.0
C618 C 0.40682 0.06887 0.04034 0.0
C619 C 0.42801 0.05907 0.02992 0.0
C620 C 0.43749 0.03676 0.03619 0.0
C621 C 0.42502 0.02437 0.05292 0.0
C622 C 0.40393 0.03425 0.06344 0.0
H623 H 0.3939 0.1143 0.09861 0.0
H624 H 0.41148 0.09001 0.08604 0.0
H625 H 0.3979 0.11249 0.06789 0.0
H626 H 0.39982 0.08595 0.03496 0.0
H627 H 0.43698 0.06904 0.01697 0.0
H628 H 0.24301 0.87518 0.59598 0.0
H629 H 0.20676 0.89246 0.57677 0.0
H630 H 0.20533 0.95039 0.62437 0.0
H631 H 0.24181 0.93341 0.64348 0.0
H632 H 0.16007 0.90462 0.59752 0.0
H633 H 0.20206 0.98113 0.55954 0.0
H634 H 0.21985 0.95585 0.56964 0.0
H635 H 0.20712 0.9769 0.58994 0.0
C636 C 0.23515 0.89173 0.60222 0.0
C637 C 0.24541 0.90296 0.62122 0.0
C638 C 0.21435 0.90151 0.59129 0.0
C639 C 0.2035 0.92284 0.59895 0.0
C640 C 0.2136 0.93407 0.61796 0.0
H641 H 0.07852 0.01135 0.55645 0.0
H642 H 0.11558 0.99426 0.57427 0.0
C643 C 0.23432 0.92423 0.629 0.0
C644 C 0.1813 0.93306 0.58739 0.0
H645 H 0.15936 0.97992 0.55616 0.0
C646 C 0.1599 0.92103 0.58838 0.0
C647 C 0.18112 0.95452 0.57557 0.0
C648 C 0.20378 0.96783 0.57338 0.0
C649 C 0.13818 0.93009 0.57827 0.0
C650 C 0.138 0.95152 0.56629 0.0
C651 C 0.15947 0.96351 0.56528 0.0
C652 C 0.11567 0.96194 0.55498 0.0
C653 C 0.11549 0.91693 0.58112 0.0
C654 C 0.10357 0.94969 0.53783 0.0
C655 C 0.08225 0.95936 0.5277 0.0
C656 C 0.07273 0.98164 0.53428 0.0
C657 C 0.08528 0.99414 0.55099 0.0
C658 C 0.1065 0.98439 0.5612 0.0
H659 H 0.11699 0.90479 0.59597 0.0
H660 H 0.09926 0.92902 0.58374 0.0
H661 H 0.11262 0.90647 0.5653 0.0
H662 H 0.1106 0.93261 0.53226 0.0
H663 H 0.07319 0.94932 0.51475 0.0
H664 H 0.75305 0.42552 0.94184 0.0
H665 H 0.79564 0.43325 0.94893 0.0
H666 H 0.77313 0.49178 0.9922 0.0
H667 H 0.73035 0.48407 0.9854 0.0
H668 H 0.81578 0.48773 0.94482 0.0
H669 H 0.82457 0.43689 0.02645 0.0
H670 H 0.80471 0.42833 1.00348 0.0
H671 H 0.79687 0.45398 0.02015 0.0
C672 C 0.75716 0.43996 0.95298 0.0
C673 C 0.73839 0.45413 0.96319 0.0
C674 C 0.78144 0.4444 0.95688 0.0
C675 C 0.78733 0.46299 0.97111 0.0
C676 C 0.76876 0.47735 0.98116 0.0
H677 H 0.92319 0.5043 0.02766 0.0
H678 H 0.88089 0.4962 0.02029 0.0
C679 C 0.74442 0.47299 0.97719 0.0
C680 C 0.81299 0.46724 0.97556 0.0
H681 H 0.85927 0.45489 0.01341 0.0
C682 C 0.82539 0.4806 0.95978 0.0
C683 C 0.82519 0.45791 0.99513 0.0
C684 C 0.81232 0.44342 0.01239 0.0
C685 C 0.84988 0.48506 0.9632 0.0
C686 C 0.86229 0.47543 0.98264 0.0
C687 C 0.84975 0.46212 0.99846 0.0
C688 C 0.88811 0.47948 0.98723 0.0
C689 C 0.86208 0.50047 0.94626 0.0
C690 C 0.90626 0.47227 0.9713 0.0
C691 C 0.93048 0.47698 0.97539 0.0
C692 C 0.93696 0.48876 0.99561 0.0
C693 C 0.91881 0.49525 0.01188 0.0
C694 C 0.89462 0.49064 0.00771 0.0
H695 H 0.8486 0.51119 0.93601 0.0
H696 H 0.87424 0.51226 0.9553 0.0
H697 H 0.87323 0.48944 0.93403 0.0
H698 H 0.90167 0.46313 0.95564 0.0
H699 H 0.94406 0.47159 0.96261 0.0
H700 H 0.78396 0.54477 0.4994 0.0
H701 H 0.7412 0.53922 0.50853 0.0
H702 H 0.71887 0.58109 0.44991 0.0
H703 H 0.76133 0.5871 0.4409 0.0
H704 H 0.70012 0.57528 0.51541 0.0
H705 H 0.68897 0.51596 0.44043 0.0
H706 H 0.71838 0.52195 0.45206 0.0
H707 H 0.70226 0.54304 0.43419 0.0
C708 C 0.76993 0.55303 0.48864 0.0
C709 C 0.77602 0.56612 0.46925 0.0
C710 C 0.74557 0.54978 0.49383 0.0
C711 C 0.72704 0.55949 0.47967 0.0
C712 C 0.73301 0.57316 0.46079 0.0
H713 H 0.57164 0.54855 0.46904 0.0
H714 H 0.61385 0.55857 0.46414 0.0
C715 C 0.75726 0.57647 0.45563 0.0
C716 C 0.7014 0.55489 0.48412 0.0
H717 H 0.65351 0.52759 0.46142 0.0
C718 C 0.68988 0.56478 0.50372 0.0
C719 C 0.68823 0.54126 0.46871 0.0
C720 C 0.70006 0.52975 0.44773 0.0
C721 C 0.66521 0.56176 0.5081 0.0
C722 C 0.65202 0.5481 0.49268 0.0
C723 C 0.66366 0.53814 0.47314 0.0
C724 C 0.6262 0.54352 0.49656 0.0
C725 C 0.65337 0.57367 0.52885 0.0
C726 C 0.6192 0.53176 0.51641 0.0
C727 C 0.59511 0.52609 0.51931 0.0
C728 C 0.57763 0.53187 0.50226 0.0
C729 C 0.58466 0.54386 0.48248 0.0
C730 C 0.60875 0.54959 0.47965 0.0
H731 H 0.66379 0.58846 0.53499 0.0
H732 H 0.6345 0.58024 0.52487 0.0
H733 H 0.65264 0.56099 0.54317 0.0
H734 H 0.63249 0.52644 0.52941 0.0
H735 H 0.59032 0.51676 0.53469 0.0
H736 H 0.12996 0.30078 0.14295 0.0
H737 H 0.11354 0.33572 0.12322 0.0
H738 H 0.06087 0.29529 0.08869 0.0
H739 H 0.07723 0.26021 0.10829 0.0
H740 H 0.11067 0.34542 0.07695 0.0
H741 H 0.01823 0.34903 0.11515 0.0
H742 H 0.04299 0.33061 0.12651 0.0
H743 H 0.02684 0.32184 0.10123 0.0
C744 C 0.11492 0.29924 0.13111 0.0
C745 C 0.10493 0.27756 0.12732 0.0
C746 C 0.10548 0.31931 0.11988 0.0
C747 C 0.08573 0.3183 0.10465 0.0
C748 C 0.07573 0.2967 0.10075 0.0
H749 H 0.04341 0.4271 1.00394 0.0
H750 H 0.05814 0.39082 0.02256 0.0
C751 C 0.08514 0.27661 0.11201 0.0
C752 C 0.07605 0.33975 0.09251 0.0
H753 H 0.02484 0.37538 0.08472 0.0
C754 C 0.09189 0.35196 0.07866 0.0
C755 C 0.05162 0.34852 0.0949 0.0
C756 C 0.03396 0.33698 0.11041 0.0
C757 C 0.08399 0.37248 0.06706 0.0
C758 C 0.0594 0.38093 0.06899 0.0
C759 C 0.04361 0.36883 0.08299 0.0
C760 C 0.04993 0.40276 0.05738 0.0
C761 C 0.10224 0.38525 0.05332 0.0
C762 C 0.03972 0.4214 0.07058 0.0
C763 C 0.03111 0.4421 0.05997 0.0
C764 C 0.0324 0.44468 0.03582 0.0
C765 C 0.04226 0.42583 0.02256 0.0
C766 C 0.05084 0.40509 0.03322 0.0
H767 H 0.12121 0.38002 0.05838 0.0
H768 H 0.10015 0.38113 0.0347 0.0
H769 H 0.09929 0.40438 0.05563 0.0
H770 H 0.03868 0.42006 0.08921 0.0
H771 H 0.0236 0.45617 0.07078 0.0
H772 H 0.60199 0.30147 0.94808 0.0
H773 H 0.58842 0.26194 0.94886 0.0
H774 H 0.52555 0.28547 0.98875 0.0
H775 H 0.53929 0.32529 0.98852 0.0
H776 H 0.57847 0.23536 0.99029 0.0
H777 H 0.4988 0.24899 0.9317 0.0
H778 H 0.52321 0.26862 0.93248 0.0
H779 H 0.50129 0.2691 0.95541 0.0
C780 C 0.58546 0.29827 0.95735 0.0
C781 C 0.57183 0.31652 0.96844 0.0
C782 C 0.57764 0.2757 0.95757 0.0
C783 C 0.55592 0.27093 0.96866 0.0
C784 C 0.54221 0.28897 0.97982 0.0
H785 H 0.48852 0.13897 0.98434 0.0
H786 H 0.49615 0.18041 0.98281 0.0
C787 C 0.55008 0.31164 0.97968 0.0
C788 C 0.54821 0.24681 0.96892 0.0
H789 H 0.50661 0.21121 0.94658 0.0
C790 C 0.56272 0.23005 0.98082 0.0
C791 C 0.52762 0.24011 0.95658 0.0
C792 C 0.51182 0.25754 0.94316 0.0
C793 C 0.55725 0.20659 0.98065 0.0
C794 C 0.53704 0.19972 0.96777 0.0
C795 C 0.52219 0.21657 0.95626 0.0
C796 C 0.53118 0.17505 0.96615 0.0
C797 C 0.57302 0.18942 0.99445 0.0
C798 C 0.54793 0.15849 0.95644 0.0
C799 C 0.54364 0.13486 0.95727 0.0
C800 C 0.5224 0.12744 0.96763 0.0
C801 C 0.50497 0.14419 0.97609 0.0
C802 C 0.50934 0.16783 0.97534 0.0
H803 H 0.5835 0.19824 0.00798 0.0
H804 H 0.56191 0.17637 1.00286 0.0
H805 H 0.5862 0.18005 0.9827 0.0
H806 H 0.56465 0.16382 0.94879 0.0
H807 H 0.5572 0.12234 0.9503 0.0
H808 H 0.91839 0.7111 0.48628 0.0
H809 H 0.93043 0.75134 0.48602 0.0
H810 H 0.98188 0.73424 0.43153 0.0
H811 H 0.96986 0.69395 0.43155 0.0
H812 H 0.99988 0.76274 0.46714 0.0
H813 H 0.91056 0.79718 0.43397 0.0
H814 H 0.90835 0.77976 0.45944 0.0
H815 H 0.91997 0.76661 0.43311 0.0
C816 C 0.93228 0.7159 0.47426 0.0
C817 C 0.94305 0.69941 0.45882 0.0
C818 C 0.93911 0.73887 0.47411 0.0
C819 C 0.95668 0.74579 0.45844 0.0
C820 C 0.96819 0.72921 0.44366 0.0
H821 H 0.00677 0.88661 0.43683 0.0
H822 H 1.00082 0.84496 0.43151 0.0
C823 C 0.96139 0.7062 0.4438 0.0
C824 C 0.96263 0.77046 0.45727 0.0
H825 H 0.93702 0.82514 0.44869 0.0
C826 C 0.98627 0.7764 0.46283 0.0
C827 C 0.94484 0.78814 0.45137 0.0
C828 C 0.91957 0.78264 0.4439 0.0
C829 C 0.99226 0.79977 0.46374 0.0
C830 C 0.97415 0.81742 0.45884 0.0
C831 C 0.95078 0.81145 0.45251 0.0
C832 C 0.97849 0.84227 0.462 0.0
C833 C 0.01753 0.80558 0.47085 0.0
C834 C 0.96781 0.85434 0.48081 0.0
C835 C 0.97127 0.87792 0.48398 0.0
C836 C 0.98528 0.89 0.46823 0.0
C837 C 0.99603 0.87778 0.44935 0.0
C838 C 0.99264 0.85406 0.44625 0.0
H839 H 0.02893 0.78988 0.47591 0.0
H840 H 0.02651 0.81411 0.45627 0.0
H841 H 0.01659 0.81804 0.48558 0.0
H842 H 0.9569 0.84544 0.49315 0.0
H843 H 0.96319 0.88662 0.499 0.0
H844 H 0.38039 0.71979 0.64277 0.0
H845 H 0.39742 0.68465 0.62339 0.0
H846 H 0.44975 0.72511 0.58881 0.0
H847 H 0.43278 0.76037 0.60806 0.0
H848 H 0.40089 0.67437 0.57696 0.0
H849 H 0.49268 0.6724 0.61646 0.0
H850 H 0.4675 0.69066 0.62744 0.0
H851 H 0.48389 0.69928 0.60234 0.0
C852 C 0.39548 0.72127 0.63099 0.0
C853 C 0.40523 0.74298 0.62707 0.0
C854 C 0.40526 0.70111 0.61997 0.0
C855 C 0.42509 0.70212 0.60484 0.0
C856 C 0.43482 0.72375 0.60079 0.0
H857 H 0.4706 0.59189 0.50576 0.0
H858 H 0.45514 0.62849 0.52374 0.0
C859 C 0.42508 0.74393 0.61185 0.0
C860 C 0.43516 0.6806 0.59298 0.0
H861 H 0.48683 0.64536 0.58618 0.0
C862 C 0.41968 0.66803 0.57898 0.0
C863 C 0.45963 0.67215 0.59579 0.0
C864 C 0.47687 0.68417 0.61148 0.0
C865 C 0.42799 0.64738 0.56763 0.0
C866 C 0.4526 0.63922 0.57002 0.0
C867 C 0.46804 0.65172 0.58414 0.0
C868 C 0.46245 0.61725 0.55881 0.0
C869 C 0.41015 0.63416 0.5537 0.0
C870 C 0.47235 0.59895 0.57243 0.0
C871 C 0.48136 0.57811 0.5622 0.0
C872 C 0.48078 0.57507 0.53806 0.0
C873 C 0.4712 0.59356 0.52439 0.0
C874 C 0.46221 0.61446 0.53467 0.0
H875 H 0.39104 0.63941 0.55831 0.0
H876 H 0.41268 0.63782 0.53508 0.0
H877 H 0.41317 0.61511 0.5563 0.0
H878 H 0.47284 0.60069 0.59107 0.0
H879 H 0.48865 0.56431 0.5733 0.0
H880 H 0.91571 0.93048 0.75171 0.0
H881 H 0.92975 0.94896 0.71665 0.0
H882 H 0.90486 0.89226 0.67573 0.0
H883 H 0.88963 0.87424 0.71052 0.0
H884 H 0.96328 0.93485 0.68513 0.0
H885 H 0.87415 0.94679 0.64132 0.0
H886 H 0.8769 0.93858 0.67128 0.0
H887 H 0.88173 0.91705 0.6488 0.0
C888 C 0.9128 0.92206 0.73525 0.0
C889 C 0.90124 0.90087 0.73412 0.0
C890 C 0.92107 0.93261 0.71516 0.0
C891 C 0.918 0.92232 0.69336 0.0
C892 C 0.90695 0.90093 0.69219 0.0
H893 H 0.96265 0.95257 0.5531 0.0
H894 H 0.94698 0.93592 0.58852 0.0
C895 C 0.89855 0.89042 0.71225 0.0
C896 C 0.92682 0.93371 0.672 0.0
H897 H 0.90905 0.95357 0.6186 0.0
C898 C 0.95135 0.93909 0.67067 0.0
C899 C 0.91132 0.93934 0.65304 0.0
C900 C 0.88451 0.93537 0.65371 0.0
C901 C 0.96087 0.94936 0.65084 0.0
C902 C 0.94543 0.9547 0.63181 0.0
C903 C 0.92091 0.94944 0.63314 0.0
C904 C 0.9545 0.96534 0.61022 0.0
C905 C 0.98754 0.95388 0.65017 0.0
C906 C 0.96358 0.98767 0.61044 0.0
C907 C 0.97248 0.99734 0.59013 0.0
C908 C 0.97252 0.98488 0.56912 0.0
C909 C 0.963 0.96268 0.56892 0.0
C910 C 0.954 0.9531 0.58919 0.0
H911 H 0.99794 0.94416 0.66383 0.0
H912 H 0.99553 0.94896 0.63309 0.0
H913 H 0.98975 0.97273 0.65295 0.0
H914 H 0.96379 0.99764 0.62636 0.0
H915 H 0.97961 0.01447 0.59096 0.0
H916 H 0.61976 0.14371 0.21279 0.0
H917 H 0.60417 0.12581 0.17783 0.0
H918 H 0.57944 0.06911 0.21824 0.0
H919 H 0.59385 0.08742 0.25341 0.0
H920 H 0.61654 0.08428 0.15776 0.0
H921 H 0.5191 0.08681 0.18179 0.0
H922 H 0.54099 0.10262 0.19772 0.0
H923 H 0.53842 0.07201 0.2026 0.0
C924 C 0.6106 0.12765 0.21437 0.0
C925 C 0.60798 0.11717 0.2361 0.0
C926 C 0.60187 0.11731 0.19427 0.0
C927 C 0.59024 0.09626 0.19534 0.0
C928 C 0.58783 0.0856 0.21693 0.0
H929 H 0.53064 1.00452 0.09153 0.0
H930 H 0.54677 0.02144 0.12691 0.0
C931 C 0.59643 0.09598 0.23706 0.0
C932 C 0.58125 0.08519 0.17382 0.0
H933 H 0.53066 0.06463 0.14836 0.0
C934 C 0.59773 0.0801 0.15569 0.0
C935 C 0.55669 0.07967 0.17102 0.0
C936 C 0.53771 0.08575 0.18921 0.0
C937 C 0.59044 0.06941 0.13509 0.0
C938 C 0.56594 0.06381 0.13238 0.0
C939 C 0.54947 0.06881 0.15049 0.0
C940 C 0.5569 0.05323 0.11069 0.0
C941 C 0.60913 0.06382 0.11653 0.0
C942 C 0.55711 0.06549 0.08979 0.0
C943 C 0.54785 0.05591 0.06956 0.0
C944 C 0.53813 0.03381 0.06974 0.0
C945 C 0.53808 0.0215 0.09069 0.0
C946 C 0.54724 0.03118 0.11097 0.0
H947 H 0.62796 0.06387 0.12339 0.0
H948 H 0.60645 0.04654 0.10859 0.0
H949 H 0.60717 0.07712 0.10276 0.0
H950 H 0.56409 0.08269 0.0892 0.0
H951 H 0.54811 0.06595 0.0538 0.0
H952 H 0.47754 0.56538 0.1916 0.0
H953 H 0.49038 0.56261 0.23188 0.0
H954 H 0.43707 0.51214 0.24435 0.0
H955 H 0.42489 0.51399 0.20383 0.0
H956 H 0.46116 0.57485 0.26791 0.0
H957 H 0.49543 0.48309 0.27768 0.0
H958 H 0.49087 0.49651 0.24978 0.0
H959 H 0.46562 0.48553 0.26521 0.0
C960 C 0.46912 0.55307 0.20268 0.0
C961 C 0.45018 0.53988 0.19447 0.0
C962 C 0.47633 0.55168 0.22577 0.0
C963 C 0.46482 0.53705 0.24107 0.0
C964 C 0.44654 0.52323 0.23276 0.0
H965 H 0.44538 0.52515 0.38661 0.0
H966 H 0.44218 0.52706 0.34452 0.0
C967 C 0.4394 0.5245 0.20964 0.0
C968 C 0.4702 0.53792 0.2661 0.0
H969 H 0.48488 0.50392 0.31275 0.0
C970 C 0.46673 0.55941 0.27765 0.0
C971 C 0.47746 0.51775 0.27877 0.0
C972 C 0.4828 0.49447 0.26718 0.0
C973 C 0.46945 0.56107 0.30168 0.0
C974 C 0.47577 0.54077 0.31435 0.0
C975 C 0.47987 0.51941 0.30283 0.0
C976 C 0.47731 0.54117 0.33975 0.0
C977 C 0.46483 0.58429 0.31357 0.0
C978 C 0.49802 0.54881 0.35082 0.0
C979 C 0.50002 0.54757 0.37486 0.0
C980 C 0.48132 0.53864 0.38812 0.0
C981 C 0.46025 0.53176 0.37688 0.0
C982 C 0.45834 0.53291 0.35288 0.0
H983 H 0.45879 0.59826 0.30134 0.0
H984 H 0.45075 0.58293 0.32714 0.0
H985 H 0.48173 0.58933 0.32222 0.0
H986 H 0.51285 0.55516 0.34083 0.0
H987 H 0.51659 0.55274 0.38296 0.0
H988 H 0.11158 0.48016 0.70292 0.0
H989 H 0.10193 0.48271 0.74413 0.0
H990 H 0.03984 0.44176 0.73308 0.0
H991 H 0.04991 0.43827 0.69206 0.0
H992 H 0.06068 0.50063 0.76634 0.0
H993 H 0.07626 0.40623 0.78429 0.0
H994 H 0.08589 0.41925 0.75778 0.0
H995 H 0.05463 0.41283 0.76174 0.0
C996 C 0.09597 0.47155 0.70928 0.0
C997 C 0.08162 0.45888 0.69423 0.0
C998 C 0.09041 0.47313 0.73279 0.0
C999 C 0.07046 0.46204 0.74168 0.0
C1000 C 0.05563 0.45002 0.72663 0.0
H1001 H 0.00769 0.46002 0.87945 0.0
H1002 H 0.01602 0.4544 0.83815 0.0
C1003 C 0.06122 0.44834 0.70313 0.0
C1004 C 0.06513 0.46322 0.76672 0.0
H1005 H 0.05982 0.42986 0.81489 0.0
C1006 C 0.06055 0.48518 0.77697 0.0
C1007 C 0.065 0.44297 0.7805 0.0
C1008 C 0.07093 0.41899 0.77061 0.0
C1009 C 0.05564 0.48744 0.80065 0.0
C1010 C 0.05553 0.46724 0.81439 0.0
C1011 C 0.05989 0.44526 0.80418 0.0
C1012 C 0.05138 0.46877 0.83953 0.0
C1013 C 0.05042 0.5114 0.81086 0.0
C1014 C 0.06887 0.47803 0.85391 0.0
C1015 C 0.0643 0.48105 0.87746 0.0
C1016 C 0.04211 0.47491 0.88703 0.0
C1017 C 0.02502 0.46475 0.87266 0.0
C1018 C 0.02967 0.46165 0.84907 0.0
H1019 H 0.04658 0.52472 0.79731 0.0
H1020 H 0.03467 0.51148 0.82284 0.0
H1021 H 0.06644 0.51646 0.82091 0.0
H1022 H 0.08589 0.48327 0.84681 0.0
H1023 H 0.07803 0.48848 0.88814 0.0
H1024 H 0.74163 0.93125 0.87091 0.0
H1025 H 0.7058 0.94878 0.89065 0.0
H1026 H 0.70601 0.89019 0.93674 0.0
H1027 H 0.74248 0.87309 0.91788 0.0
H1028 H 0.6608 0.93322 0.89537 0.0
H1029 H 0.70103 0.94335 0.9823 0.0
H1030 H 0.71931 0.9364 0.95706 0.0
H1031 H 0.70395 0.91397 0.9717 0.0
C1032 C 0.73436 0.92224 0.8855 0.0
C1033 C 0.7452 0.90074 0.8928 0.0
C1034 C 0.7137 0.93223 0.89668 0.0
C1035 C 0.70335 0.92106 0.91549 0.0
C1036 C 0.7139 0.89948 0.92264 0.0
H1037 H 0.57286 0.94841 0.99895 0.0
H1038 H 0.6101 0.93172 0.98068 0.0
C1039 C 0.73463 0.88952 0.91156 0.0
C1040 C 0.68115 0.93165 0.92713 0.0
H1041 H 0.65803 0.94961 0.97959 0.0
C1042 C 0.66028 0.93693 0.91376 0.0
C1043 C 0.68036 0.93652 0.95117 0.0
C1044 C 0.70242 0.93249 0.96637 0.0
C1045 C 0.63864 0.9465 0.92377 0.0
C1046 C 0.63783 0.9512 0.9478 0.0
C1047 C 0.65864 0.94594 0.96119 0.0
C1048 C 0.61555 0.96166 0.95928 0.0
C1049 C 0.61663 0.95109 0.90862 0.0
C1050 C 0.60645 0.98422 0.95366 0.0
C1051 C 0.58523 0.99386 0.96414 0.0
C1052 C 0.57261 0.98114 0.9805 0.0
C1053 C 0.58203 0.95868 0.98639 0.0
C1054 C 0.60334 0.94911 0.97598 0.0
H1055 H 0.61847 0.94168 0.89184 0.0
H1056 H 0.59993 0.94582 0.91742 0.0
H1057 H 0.61435 0.97 0.905 0.0
H1058 H 0.61577 0.99439 0.94112 0.0
H1059 H 0.5786 0.01122 0.95922 0.0
H1060 H 0.79138 0.14031 0.37647 0.0
H1061 H 0.82744 0.1229 0.39576 0.0
H1062 H 0.78345 0.0734 0.42907 0.0
H1063 H 0.74714 0.09116 0.41044 0.0
H1064 H 0.81582 0.0931 0.45913 0.0
H1065 H 0.86312 0.0607 0.37964 0.0
H1066 H 0.85444 0.09126 0.3792 0.0
H1067 H 0.83138 0.07042 0.37992 0.0
C1068 C 0.7893 0.12581 0.38801 0.0
C1069 C 0.76629 0.11711 0.3918 0.0
C1070 C 0.81002 0.1157 0.39883 0.0
C1071 C 0.80825 0.09659 0.41359 0.0
C1072 C 0.7853 0.08801 0.41762 0.0
H1073 H 0.92883 1.00515 0.46219 0.0
H1074 H 0.89142 0.0218 0.44462 0.0
C1075 C 0.76458 0.09809 0.4068 0.0
C1076 C 0.83022 0.08578 0.42512 0.0
H1077 H 0.88593 0.05859 0.41446 0.0
C1078 C 0.83113 0.0855 0.44937 0.0
C1079 C 0.85008 0.07558 0.41239 0.0
C1080 C 0.84971 0.07425 0.38635 0.0
C1081 C 0.85149 0.07567 0.46122 0.0
C1082 C 0.87166 0.06614 0.44848 0.0
C1083 C 0.87057 0.06607 0.42423 0.0
C1084 C 0.894 0.05596 0.45991 0.0
C1085 C 0.85102 0.07522 0.48727 0.0
C1086 C 0.908 0.06962 0.47432 0.0
C1087 C 0.9294 0.06013 0.48446 0.0
C1088 C 0.93736 0.0368 0.48027 0.0
C1089 C 0.92325 0.02316 0.46585 0.0
C1090 C 0.90186 0.03266 0.45574 0.0
H1091 H 0.83218 0.07736 0.49411 0.0
H1092 H 0.85965 0.05867 0.49393 0.0
H1093 H 0.86131 0.08978 0.49408 0.0
H1094 H 0.90261 0.08776 0.47743 0.0
H1095 H 0.93988 0.07119 0.49534 0.0
H1096 H 0.26089 0.58315 0.08614 0.0
H1097 H 0.21887 0.57671 0.07568 0.0
H1098 H 0.24302 0.54724 0.01037 0.0
H1099 H 0.28527 0.55287 0.02104 0.0
H1100 H 0.19113 0.5931 0.03804 0.0
H1101 H 0.20279 0.4965 0.03793 0.0
H1102 H 0.22499 0.51475 0.05033 0.0
H1103 H 0.2235 0.51076 0.01956 0.0
C1104 C 0.2573 0.57508 0.06964 0.0
C1105 C 0.27644 0.56824 0.05453 0.0
C1106 C 0.23327 0.5716 0.06362 0.0
C1107 C 0.22791 0.56119 0.04242 0.0
C1108 C 0.24685 0.55494 0.02699 0.0
H1109 H 0.09256 0.51904 0.98328 0.0
H1110 H 0.13445 0.52936 0.98945 0.0
C1111 C 0.27094 0.55838 0.03301 0.0
C1112 C 0.20246 0.55667 0.0367 0.0
H1113 H 0.1646 0.51301 0.02604 0.0
C1114 C 0.18529 0.57561 0.0354 0.0
C1115 C 0.19497 0.53381 0.03333 0.0
C1116 C 0.21244 0.51274 0.03554 0.0
C1117 C 0.16077 0.57229 0.03062 0.0
C1118 C 0.15329 0.54943 0.02739 0.0
C1119 C 0.17049 0.53052 0.02848 0.0
C1120 C 0.12761 0.5446 0.02324 0.0
C1121 C 0.14313 0.59325 0.02882 0.0
C1122 C 0.10994 0.54976 0.04025 0.0
C1123 C 0.08596 0.54385 0.03682 0.0
C1124 C 0.07933 0.53259 0.01635 0.0
C1125 C 0.09707 0.5277 0.99925 0.0
C1126 C 0.12101 0.53358 1.00272 0.0
H1127 H 0.15263 0.60951 0.02603 0.0
H1128 H 0.13009 0.59109 0.01446 0.0
H1129 H 0.13261 0.59525 0.04513 0.0
H1130 H 0.1148 0.55789 0.05638 0.0
H1131 H 0.07275 0.54779 0.05034 0.0
H1132 H 0.24927 0.41928 0.55786 0.0
H1133 H 0.29204 0.42633 0.55175 0.0
H1134 H 0.27152 0.49103 0.51787 0.0
H1135 H 0.22851 0.48392 0.52344 0.0
H1136 H 0.31702 0.43471 0.5085 0.0
H1137 H 0.31863 0.50809 0.57139 0.0
H1138 H 0.29493 0.4877 0.57123 0.0
H1139 H 0.29498 0.51029 0.54997 0.0
C1140 C 0.25378 0.43485 0.54877 0.0
C1141 C 0.23544 0.45103 0.5411 0.0
C1142 C 0.27824 0.4389 0.54544 0.0
C1143 C 0.28484 0.45928 0.53459 0.0
C1144 C 0.2667 0.47535 0.52659 0.0
H1145 H 0.42492 0.4946 0.48245 0.0
H1146 H 0.38261 0.48491 0.48707 0.0
C1147 C 0.24218 0.47127 0.52983 0.0
C1148 C 0.3108 0.46372 0.53183 0.0
H1149 H 0.3544 0.49954 0.54961 0.0
C1150 C 0.32524 0.44888 0.51745 0.0
C1151 C 0.32141 0.48203 0.54381 0.0
C1152 C 0.30681 0.49788 0.56013 0.0
C1153 C 0.35007 0.45211 0.51446 0.0
C1154 C 0.36056 0.47072 0.52605 0.0
C1155 C 0.3462 0.48535 0.54069 0.0
C1156 C 0.3864 0.4755 0.52306 0.0
C1157 C 0.36499 0.43547 0.49915 0.0
C1158 C 0.40243 0.47354 0.54186 0.0
C1159 C 0.42664 0.47903 0.5393 0.0
C1160 C 0.4351 0.48684 0.51795 0.0
C1161 C 0.41898 0.48862 0.49912 0.0
C1162 C 0.39484 0.48299 0.50167 0.0
H1163 H 0.35556 0.41928 0.49562 0.0
H1164 H 0.36832 0.444 0.4824 0.0
H1165 H 0.38289 0.43075 0.50717 0.0
H1166 H 0.39615 0.46786 0.55852 0.0
H1167 H 0.43858 0.47755 0.55415 0.0
H1168 H 0.93296 0.73367 0.86246 0.0
H1169 H 0.9485 0.69757 0.88066 0.0
H1170 H 0.90185 0.71221 0.93938 0.0
H1171 H 0.88517 0.7475 0.92079 0.0
H1172 H 0.97294 0.68973 0.91986 0.0
H1173 H 0.88601 0.64663 0.92605 0.0
H1174 H 0.88909 0.67261 0.90928 0.0
H1175 H 0.8846 0.67452 0.94007 0.0
C1176 C 0.92562 0.72906 0.87906 0.0
C1177 C 0.90761 0.74366 0.88998 0.0
C1178 C 0.93473 0.70844 0.88957 0.0
C1179 C 0.92609 0.70181 0.91127 0.0
C1180 C 0.90844 0.71651 0.9224 0.0
H1181 H 0.96617 0.58996 0.00787 0.0
H1182 H 0.95065 0.6261 0.98938 0.0
C1183 C 0.89918 0.73701 0.91184 0.0
C1184 C 0.93594 0.67988 0.9225 0.0
H1185 H 0.91936 0.62927 0.94728 0.0
C1186 C 0.9612 0.67647 0.92569 0.0
C1187 C 0.92071 0.66242 0.93014 0.0
C1188 C 0.89364 0.66408 0.92601 0.0
C1189 C 0.97151 0.65644 0.93663 0.0
C1190 C 0.95624 0.63924 0.94456 0.0
C1191 C 0.93103 0.64256 0.94136 0.0
C1192 C 0.96612 0.61749 0.95586 0.0
C1193 C 0.99867 0.65394 0.93999 0.0
C1194 C 0.97987 0.60056 0.94315 0.0
C1195 C 0.98862 0.57982 0.95361 0.0
C1196 C 0.98391 0.57557 0.97709 0.0
C1197 C 0.97025 0.59266 0.98982 0.0
C1198 C 0.96131 0.61332 0.97926 0.0
H1199 H 0.00741 0.67057 0.93698 0.0
H1200 H 1.00314 0.64781 0.95773 0.0
H1201 H 0.00655 0.64076 0.92762 0.0
H1202 H 0.98358 0.60326 0.92502 0.0
H1203 H 0.99902 0.56707 0.94324 0.0
H1204 H 0.42133 0.71567 0.10612 0.0
H1205 H 0.43307 0.7557 0.10194 0.0
H1206 H 0.46684 0.73802 0.0365 0.0
H1207 H 0.45569 0.69765 0.04074 0.0
H1208 H 0.48284 0.77108 0.09461 0.0
H1209 H 0.4172 0.79535 0.02445 0.0
H1210 H 0.41358 0.77071 0.04308 0.0
H1211 H 0.43582 0.7689 0.02041 0.0
C1212 C 0.4315 0.72018 0.09094 0.0
C1213 C 0.43766 0.70343 0.07379 0.0
C1214 C 0.43807 0.74308 0.08856 0.0
C1215 C 0.45068 0.74972 0.0689 0.0
C1216 C 0.45687 0.73317 0.05169 0.0
H1217 H 0.52045 0.87833 0.04266 0.0
H1218 H 0.51229 0.83763 0.04963 0.0
C1219 C 0.4504 0.71019 0.0541 0.0
C1220 C 0.4573 0.77406 0.06649 0.0
H1221 H 0.44409 0.82368 0.03595 0.0
C1222 C 0.47447 0.78261 0.08176 0.0
C1223 C 0.44608 0.78897 0.04985 0.0
C1224 C 0.427 0.78069 0.03356 0.0
C1225 C 0.48086 0.80582 0.08069 0.0
C1226 C 0.4698 0.82067 0.06392 0.0
C1227 C 0.45255 0.81213 0.04874 0.0
C1228 C 0.47562 0.84527 0.0619 0.0
C1229 C 0.49904 0.81447 0.09771 0.0
C1230 C 0.45774 0.86293 0.06675 0.0
C1231 C 0.46238 0.88618 0.06299 0.0
C1232 C 0.48492 0.89214 0.05406 0.0
C1233 C 0.50304 0.87437 0.04986 0.0
C1234 C 0.4984 0.85111 0.05374 0.0
H1235 H 0.50262 0.80205 0.1121 0.0
H1236 H 0.51646 0.81688 0.08866 0.0
H1237 H 0.4925 0.83159 0.10502 0.0
H1238 H 0.44005 0.85868 0.0731 0.0
H1239 H 0.44817 0.89947 0.06672 0.0
H1240 H 0.03902 0.32491 0.5817 0.0
H1241 H 0.02722 0.28454 0.58225 0.0
H1242 H 0.0688 0.27003 0.52019 0.0
H1243 H 0.08057 0.31036 0.51941 0.0
H1244 H 1.00424 0.25586 0.54842 0.0
H1245 H 0.09878 0.22429 0.56903 0.0
H1246 H 0.08828 0.25449 0.57178 0.0
H1247 H 0.09624 0.24242 0.54389 0.0
C1248 C 0.04521 0.31326 0.56789 0.0
C1249 C 0.0609 0.32072 0.55061 0.0
C1250 C 0.03856 0.2902 0.56831 0.0
C1251 C 0.04756 0.2743 0.55153 0.0
C1252 C 0.0621 0.282 0.53356 0.0
H1253 H 0.04489 0.13206 0.51414 0.0
H1254 H 0.05005 0.17356 0.5189 0.0
C1255 C 0.06878 0.305 0.53313 0.0
C1256 C 0.04275 0.24939 0.55327 0.0
H1257 H 0.07146 0.19554 0.55835 0.0
C1258 C 0.01883 0.24263 0.55084 0.0
C1259 C 0.06187 0.2323 0.55671 0.0
C1260 C 0.08771 0.23869 0.56073 0.0
C1261 C 0.01371 0.21901 0.55058 0.0
C1262 C 0.033 0.20192 0.55308 0.0
C1263 C 0.05676 0.20875 0.55634 0.0
C1264 C 0.02933 0.17683 0.5506 0.0
C1265 C 0.98793 0.21242 0.54668 0.0
C1266 C 0.0161 0.16493 0.56701 0.0
C1267 C 0.01329 0.14103 0.56447 0.0
C1268 C 0.0238 0.12874 0.54553 0.0
C1269 C 0.037 0.14086 0.52918 0.0
C1270 C 0.03981 0.16462 0.53176 0.0
H1271 H 0.97575 0.2276 0.54161 0.0
H1272 H 0.98735 0.19883 0.53302 0.0
H1273 H 0.98079 0.20509 0.56284 0.0
H1274 H 0.00818 0.17406 0.58186 0.0
H1275 H 1.00318 0.13214 0.57743 0.0
H1276 H 0.58809 0.25659 0.4234 0.0
H1277 H 0.57281 0.29251 0.44259 0.0
H1278 H 0.59797 0.33269 0.38577 0.0
H1279 H 0.61419 0.297 0.36674 0.0
H1280 H 0.60563 0.33699 0.45027 0.0
H1281 H 0.51986 0.34951 0.39982 0.0
H1282 H 0.53429 0.32095 0.40471 0.0
H1283 H 0.54756 0.34038 0.38491 0.0
C1284 C 0.59067 0.27303 0.41501 0.0
C1285 C 0.60251 0.27373 0.39344 0.0
C1286 C 0.58175 0.29355 0.42599 0.0
C1287 C 0.58422 0.31522 0.41557 0.0
C1288 C 0.59577 0.3161 0.39403 0.0
H1289 H 0.53112 0.45657 0.44695 0.0
H1290 H 0.54641 0.42 0.42923 0.0
C1291 C 0.60487 0.29561 0.3831 0.0
C1292 C 0.57497 0.33696 0.42734 0.0
H1293 H 0.52809 0.37846 0.42713 0.0
C1294 C 0.58865 0.34608 0.44532 0.0
C1295 C 0.55293 0.34879 0.42069 0.0
C1296 C 0.53762 0.33951 0.40153 0.0
C1297 C 0.58106 0.36699 0.45661 0.0
C1298 C 0.55877 0.37877 0.45017 0.0
C1299 C 0.54509 0.36949 0.43218 0.0
C1300 C 0.5496 0.40103 0.46137 0.0
C1301 C 0.59742 0.37661 0.47477 0.0
C1302 C 0.546 0.40266 0.4854 0.0
C1303 C 0.53747 0.42372 0.49567 0.0
C1304 C 0.53197 0.44352 0.48207 0.0
C1305 C 0.53517 0.44171 0.45799 0.0
C1306 C 0.54391 0.42075 0.44779 0.0
H1307 H 0.61648 0.36947 0.47283 0.0
H1308 H 0.59723 0.39589 0.47395 0.0
H1309 H 0.59098 0.37167 0.49212 0.0
H1310 H 0.54958 0.38758 0.49624 0.0
H1311 H 0.535 0.42443 0.51423 0.0
loop_
_geom_bond_atom_site_label_1
_geom_bond_atom_site_label_2
_geom_bond_distance
_geom_bond_site_symmetry_2
_ccdc_geom_bond_type
C0 C1 1.386 . S
C0 C2 1.397 . S
C0 H24 0.931 . S
C1 C0 1.386 . S
C1 C5 1.397 . S
C2 C0 1.397 . S
C2 C3 1.384 . S
C2 H25 0.930 . S
C3 C2 1.384 . S
C3 C4 1.377 . S
C3 C6 1.481 . S
C4 C3 1.377 . S
C4 C5 1.389 . S
C4 H26 0.929 . S
C5 C1 1.397 . S
C5 C4 1.389 . S
C5 H27 0.931 . S
C6 C3 1.481 . S
C6 C7 1.387 . S
C6 C11 1.390 . S
C7 C6 1.387 . S
C7 C8 1.401 . S
C7 H28 0.930 . S
C8 C7 1.401 . S
C8 C9 1.376 . S
C8 C17 1.511 . S
C9 C8 1.376 . S
C9 C10 1.392 . S
C9 H30 0.931 . S
C10 C9 1.392 . S
C10 C11 1.361 . S
C10 C12 1.500 . S
C11 C6 1.390 . S
C11 C10 1.361 . S
C11 H29 0.931 . S
C12 C10 1.500 . S
C12 C13 1.371 . S
C12 C14 1.365 . S
C13 C12 1.371 . S
C13 C23 1.386 . S
C13 H31 0.931 . S
C14 C12 1.365 . S
C14 C15 1.409 . S
C14 H32 0.929 . S
C15 C14 1.409 . S
C15 C16 1.380 . S
C15 H33 0.930 . S
C16 C15 1.380 . S
C16 C23 1.357 . S
C17 C8 1.511 . S
C17 C18 1.341 . S
C17 C19 1.371 . S
C18 C17 1.341 . S
C18 C22 1.394 . S
C18 H34 0.930 . S
C19 C17 1.371 . S
C19 C20 1.392 . S
C19 H35 0.931 . S
C20 C19 1.392 . S
C20 C21 1.331 . S
C20 H38 0.932 . S
C21 C20 1.331 . S
C21 C22 1.336 . S
C22 C18 1.394 . S
C22 C21 1.336 . S
C22 H37 0.929 . S
C23 C13 1.386 . S
C23 C16 1.357 . S
C23 H36 0.928 . S
H24 C0 0.931 . S
H25 C2 0.930 . S
H26 C4 0.929 . S
H27 C5 0.931 . S
H28 C7 0.930 . S
H29 C11 0.931 . S
H30 C9 0.931 . S
H31 C13 0.931 . S
H32 C14 0.929 . S
H33 C15 0.930 . S
H34 C18 0.930 . S
H35 C19 0.931 . S
H36 C23 0.928 . S
H37 C22 0.929 . S
H38 C20 0.932 . S
C39 C40 1.386 . S
C39 C41 1.397 . S
C39 H63 0.931 . S
C40 C39 1.386 . S
C40 C44 1.397 . S
C41 C39 1.397 . S
C41 C42 1.384 . S
C41 H64 0.930 . S
C42 C41 1.384 . S
C42 C43 1.377 . S
C42 C45 1.481 . S
C43 C42 1.377 . S
C43 C44 1.389 . S
C43 H65 0.929 . S
C44 C40 1.397 . S
C44 C43 1.389 . S
C44 H66 0.931 . S
C45 C42 1.481 . S
C45 C46 1.387 . S
C45 C50 1.390 . S
C46 C45 1.387 . S
C46 C47 1.401 . S
C46 H67 0.930 . S
C47 C46 1.401 . S
C47 C48 1.376 . S
C47 C56 1.511 . S
C48 C47 1.376 . S
C48 C49 1.392 . S
C48 H69 0.931 . S
C49 C48 1.392 . S
C49 C50 1.361 . S
C49 C51 1.500 . S
C50 C45 1.390 . S
C50 C49 1.361 . S
C50 H68 0.931 . S
C51 C49 1.500 . S
C51 C52 1.371 . S
C51 C53 1.365 . S
C52 C51 1.371 . S
C52 C62 1.386 . S
C52 H70 0.931 . S
C53 C51 1.365 . S
C53 C54 1.409 . S
C53 H71 0.929 . S
C54 C53 1.409 . S
C54 C55 1.380 . S
C54 H72 0.930 . S
C55 C54 1.380 . S
C55 C62 1.357 . S
C56 C47 1.511 . S
C56 C57 1.341 . S
C56 C58 1.371 . S
C57 C56 1.341 . S
C57 C61 1.394 . S
C57 H73 0.930 . S
C58 C56 1.371 . S
C58 C59 1.392 . S
C58 H74 0.931 . S
C59 C58 1.392 . S
C59 C60 1.331 . S
C59 H77 0.932 . S
C60 C59 1.331 . S
C60 C61 1.336 . S
C61 C57 1.394 . S
C61 C60 1.336 . S
C61 H76 0.929 . S
C62 C52 1.386 . S
C62 C55 1.357 . S
C62 H75 0.928 . S
H63 C39 0.931 . S
H64 C41 0.930 . S
H65 C43 0.929 . S
H66 C44 0.931 . S
H67 C46 0.930 . S
H68 C50 0.931 . S
H69 C48 0.931 . S
H70 C52 0.931 . S
H71 C53 0.929 . S
H72 C54 0.930 . S
H73 C57 0.930 . S
H74 C58 0.931 . S
H75 C62 0.928 . S
H76 C61 0.929 . S
H77 C59 0.932 . S
C78 C79 1.386 . S
C78 C80 1.397 . S
C78 H102 0.931 . S
C79 C78 1.386 . S
C79 C83 1.397 . S
C80 C78 1.397 . S
C80 C81 1.384 . S
C80 H103 0.930 . S
C81 C80 1.384 . S
C81 C82 1.377 . S
C81 C84 1.481 . S
C82 C81 1.377 . S
C82 C83 1.389 . S
C82 H104 0.929 . S
C83 C79 1.397 . S
C83 C82 1.389 . S
C83 H105 0.931 . S
C84 C81 1.481 . S
C84 C85 1.387 . S
C84 C89 1.390 . S
C85 C84 1.387 . S
C85 C86 1.401 . S
C85 H106 0.930 . S
C86 C85 1.401 . S
C86 C87 1.376 . S
C86 C95 1.511 . S
C87 C86 1.376 . S
C87 C88 1.392 . S
C87 H108 0.931 . S
C88 C87 1.392 . S
C88 C89 1.361 . S
C88 C90 1.500 . S
C89 C84 1.390 . S
C89 C88 1.361 . S
C89 H107 0.931 . S
C90 C88 1.500 . S
C90 C91 1.371 . S
C90 C92 1.365 . S
C91 C90 1.371 . S
C91 C101 1.386 . S
C91 H109 0.931 . S
C92 C90 1.365 . S
C92 C93 1.409 . S
C92 H110 0.929 . S
C93 C92 1.409 . S
C93 C94 1.380 . S
C93 H111 0.930 . S
C94 C93 1.380 . S
C94 C101 1.357 . S
C95 C86 1.511 . S
C95 C96 1.341 . S
C95 C97 1.371 . S
C96 C95 1.341 . S
C96 C100 1.394 . S
C96 H112 0.930 . S
C97 C95 1.371 . S
C97 C98 1.392 . S
C97 H113 0.931 . S
C98 C97 1.392 . S
C98 C99 1.331 . S
C98 H116 0.932 . S
C99 C98 1.331 . S
C99 C100 1.336 . S
C100 C96 1.394 . S
C100 C99 1.336 . S
C100 H115 0.929 . S
C101 C91 1.386 . S
C101 C94 1.357 . S
C101 H114 0.928 . S
H102 C78 0.931 . S
H103 C80 0.930 . S
H104 C82 0.929 . S
H105 C83 0.931 . S
H106 C85 0.930 . S
H107 C89 0.931 . S
H108 C87 0.931 . S
H109 C91 0.931 . S
H110 C92 0.929 . S
H111 C93 0.930 . S
H112 C96 0.930 . S
H113 C97 0.931 . S
H114 C101 0.928 . S
H115 C100 0.929 . S
H116 C98 0.932 . S
C117 C118 1.386 . S
C117 C119 1.397 . S
C117 H141 0.931 . S
C118 C117 1.386 . S
C118 C122 1.397 . S
C119 C117 1.397 . S
C119 C120 1.384 . S
C119 H142 0.930 . S
C120 C119 1.384 . S
C120 C121 1.377 . S
C120 C123 1.481 . S
C121 C120 1.377 . S
C121 C122 1.389 . S
C121 H143 0.929 . S
C122 C118 1.397 . S
C122 C121 1.389 . S
C122 H144 0.931 . S
C123 C120 1.481 . S
C123 C124 1.387 . S
C123 C128 1.390 . S
C124 C123 1.387 . S
C124 C125 1.401 . S
C124 H145 0.930 . S
C125 C124 1.401 . S
C125 C126 1.376 . S
C125 C134 1.511 . S
C126 C125 1.376 . S
C126 C127 1.392 . S
C126 H147 0.931 . S
C127 C126 1.392 . S
C127 C128 1.361 . S
C127 C129 1.500 . S
C128 C123 1.390 . S
C128 C127 1.361 . S
C128 H146 0.931 . S
C129 C127 1.500 . S
C129 C130 1.371 . S
C129 C131 1.365 . S
C130 C129 1.371 . S
C130 C140 1.386 . S
C130 H148 0.931 . S
C131 C129 1.365 . S
C131 C132 1.409 . S
C131 H149 0.929 . S
C132 C131 1.409 . S
C132 C133 1.380 . S
C132 H150 0.930 . S
C133 C132 1.380 . S
C133 C140 1.357 . S
C134 C125 1.511 . S
C134 C135 1.341 . S
C134 C136 1.371 . S
C135 C134 1.341 . S
C135 C139 1.394 . S
C135 H151 0.930 . S
C136 C134 1.371 . S
C136 C137 1.392 . S
C136 H152 0.931 . S
C137 C136 1.392 . S
C137 C138 1.331 . S
C137 H155 0.932 . S
C138 C137 1.331 . S
C138 C139 1.336 . S
C139 C135 1.394 . S
C139 C138 1.336 . S
C139 H154 0.929 . S
C140 C130 1.386 . S
C140 C133 1.357 . S
C140 H153 0.928 . S
H141 C117 0.931 . S
H142 C119 0.930 . S
H143 C121 0.929 . S
H144 C122 0.931 . S
H145 C124 0.930 . S
H146 C128 0.931 . S
H147 C126 0.931 . S
H148 C130 0.931 . S
H149 C131 0.929 . S
H150 C132 0.930 . S
H151 C135 0.930 . S
H152 C136 0.931 . S
H153 C140 0.928 . S
H154 C139 0.929 . S
H155 C137 0.932 . S
C156 C157 1.386 . S
C156 C158 1.397 . S
C156 H180 0.931 . S
C157 C156 1.386 . S
C157 C161 1.397 . S
C158 C156 1.397 . S
C158 C159 1.384 . S
C158 H181 0.930 . S
C159 C158 1.384 . S
C159 C160 1.377 . S
C159 C162 1.481 . S
C160 C159 1.377 . S
C160 C161 1.389 . S
C160 H182 0.929 . S
C161 C157 1.397 . S
C161 C160 1.389 . S
C161 H183 0.931 . S
C162 C159 1.481 . S
C162 C163 1.387 . S
C162 C167 1.390 . S
C163 C162 1.387 . S
C163 C164 1.401 . S
C163 H184 0.930 . S
C164 C163 1.401 . S
C164 C165 1.376 . S
C164 C173 1.511 . S
C165 C164 1.376 . S
C165 C166 1.392 . S
C165 H186 0.931 . S
C166 C165 1.392 . S
C166 C167 1.361 . S
C166 C168 1.500 . S
C167 C162 1.390 . S
C167 C166 1.361 . S
C167 H185 0.931 . S
C168 C166 1.500 . S
C168 C169 1.371 . S
C168 C170 1.365 . S
C169 C168 1.371 . S
C169 C179 1.386 . S
C169 H187 0.931 . S
C170 C168 1.365 . S
C170 C171 1.409 . S
C170 H188 0.929 . S
C171 C170 1.409 . S
C171 C172 1.380 . S
C171 H189 0.930 . S
C172 C171 1.380 . S
C172 C179 1.357 . S
C173 C164 1.511 . S
C173 C174 1.341 . S
C173 C175 1.371 . S
C174 C173 1.341 . S
C174 C178 1.394 . S
C174 H190 0.930 . S
C175 C173 1.371 . S
C175 C176 1.392 . S
C175 H191 0.931 . S
C176 C175 1.392 . S
C176 C177 1.331 . S
C176 H194 0.932 . S
C177 C176 1.331 . S
C177 C178 1.336 . S
C178 C174 1.394 . S
C178 C177 1.336 . S
C178 H193 0.929 . S
C179 C169 1.386 . S
C179 C172 1.357 . S
C179 H192 0.928 . S
H180 C156 0.931 . S
H181 C158 0.930 . S
H182 C160 0.929 . S
H183 C161 0.931 . S
H184 C163 0.930 . S
H185 C167 0.931 . S
H186 C165 0.931 . S
H187 C169 0.931 . S
H188 C170 0.929 . S
H189 C171 0.930 . S
H190 C174 0.930 . S
H191 C175 0.931 . S
H192 C179 0.928 . S
H193 C178 0.929 . S
H194 C176 0.932 . S
C195 C196 1.386 . S
C195 C197 1.397 . S
C195 H219 0.931 . S
C196 C195 1.386 . S
C196 C200 1.397 . S
C197 C195 1.397 . S
C197 C198 1.384 . S
C197 H220 0.930 . S
C198 C197 1.384 . S
C198 C199 1.377 . S
C198 C201 1.481 . S
C199 C198 1.377 . S
C199 C200 1.389 . S
C199 H221 0.929 . S
C200 C196 1.397 . S
C200 C199 1.389 . S
C200 H222 0.931 . S
C201 C198 1.481 . S
C201 C202 1.387 . S
C201 C206 1.390 . S
C202 C201 1.387 . S
C202 C203 1.401 . S
C202 H223 0.930 . S
C203 C202 1.401 . S
C203 C204 1.376 . S
C203 C212 1.511 . S
C204 C203 1.376 . S
C204 C205 1.392 . S
C204 H225 0.931 . S
C205 C204 1.392 . S
C205 C206 1.361 . S
C205 C207 1.500 . S
C206 C201 1.390 . S
C206 C205 1.361 . S
C206 H224 0.931 . S
C207 C205 1.500 . S
C207 C208 1.371 . S
C207 C209 1.365 . S
C208 C207 1.371 . S
C208 C218 1.386 . S
C208 H226 0.931 . S
C209 C207 1.365 . S
C209 C210 1.409 . S
C209 H227 0.929 . S
C210 C209 1.409 . S
C210 C211 1.380 . S
C210 H228 0.930 . S
C211 C210 1.380 . S
C211 C218 1.357 . S
C212 C203 1.511 . S
C212 C213 1.341 . S
C212 C214 1.371 . S
C213 C212 1.341 . S
C213 C217 1.394 . S
C213 H229 0.930 . S
C214 C212 1.371 . S
C214 C215 1.392 . S
C214 H230 0.931 . S
C215 C214 1.392 . S
C215 C216 1.331 . S
C215 H233 0.932 . S
C216 C215 1.331 . S
C216 C217 1.336 . S
C217 C213 1.394 . S
C217 C216 1.336 . S
C217 H232 0.929 . S
C218 C208 1.386 . S
C218 C211 1.357 . S
C218 H231 0.928 . S
H219 C195 0.931 . S
H220 C197 0.930 . S
H221 C199 0.929 . S
H222 C200 0.931 . S
H223 C202 0.930 . S
H224 C206 0.931 . S
H225 C204 0.931 . S
H226 C208 0.931 . S
H227 C209 0.929 . S
H228 C210 0.930 . S
H229 C213 0.930 . S
H230 C214 0.931 . S
H231 C218 0.928 . S
H232 C217 0.929 . S
H233 C215 0.932 . S
C234 C235 1.386 . S
C234 C236 1.397 . S
C234 H258 0.931 . S
C235 C234 1.386 . S
C235 C239 1.397 . S
C236 C234 1.397 . S
C236 C237 1.384 . S
C236 H259 0.930 . S
C237 C236 1.384 . S
C237 C238 1.377 . S
C237 C240 1.481 . S
C238 C237 1.377 . S
C238 C239 1.389 . S
C238 H260 0.929 . S
C239 C235 1.397 . S
C239 C238 1.389 . S
C239 H261 0.931 . S
C240 C237 1.481 . S
C240 C241 1.387 . S
C240 C245 1.390 . S
C241 C240 1.387 . S
C241 C242 1.401 . S
C241 H262 0.930 . S
C242 C241 1.401 . S
C242 C243 1.376 . S
C242 C251 1.511 . S
C243 C242 1.376 . S
C243 C244 1.392 . S
C243 H264 0.931 . S
C244 C243 1.392 . S
C244 C245 1.361 . S
C244 C246 1.500 . S
C245 C240 1.390 . S
C245 C244 1.361 . S
C245 H263 0.931 . S
C246 C244 1.500 . S
C246 C247 1.371 . S
C246 C248 1.365 . S
C247 C246 1.371 . S
C247 C257 1.386 . S
C247 H265 0.931 . S
C248 C246 1.365 . S
C248 C249 1.409 . S
C248 H266 0.929 . S
C249 C248 1.409 . S
C249 C250 1.380 . S
C249 H267 0.930 . S
C250 C249 1.380 . S
C250 C257 1.357 . S
C251 C242 1.511 . S
C251 C252 1.341 . S
C251 C253 1.371 . S
C252 C251 1.341 . S
C252 C256 1.394 . S
C252 H268 0.930 . S
C253 C251 1.371 . S
C253 C254 1.392 . S
C253 H269 0.931 . S
C254 C253 1.392 . S
C254 C255 1.331 . S
C254 H272 0.932 . S
C255 C254 1.331 . S
C255 C256 1.336 . S
C256 C252 1.394 . S
C256 C255 1.336 . S
C256 H271 0.929 . S
C257 C247 1.386 . S
C257 C250 1.357 . S
C257 H270 0.928 . S
H258 C234 0.931 . S
H259 C236 0.930 . S
H260 C238 0.929 . S
H261 C239 0.931 . S
H262 C241 0.930 . S
H263 C245 0.931 . S
H264 C243 0.931 . S
H265 C247 0.931 . S
H266 C248 0.929 . S
H267 C249 0.930 . S
H268 C252 0.930 . S
H269 C253 0.931 . S
H270 C257 0.928 . S
H271 C256 0.929 . S
H272 C254 0.932 . S
C273 C274 1.386 . S
C273 C275 1.397 . S
C273 H297 0.931 . S
C274 C273 1.386 . S
C274 C278 1.397 . S
C275 C273 1.397 . S
C275 C276 1.384 . S
C275 H298 0.930 . S
C276 C275 1.384 . S
C276 C277 1.377 . S
C276 C279 1.481 . S
C277 C276 1.377 . S
C277 C278 1.389 . S
C277 H299 0.929 . S
C278 C274 1.397 . S
C278 C277 1.389 . S
C278 H300 0.931 . S
C279 C276 1.481 . S
C279 C280 1.387 . S
C279 C284 1.390 . S
C280 C279 1.387 . S
C280 C281 1.401 . S
C280 H301 0.930 . S
C281 C280 1.401 . S
C281 C282 1.376 . S
C281 C290 1.511 . S
C282 C281 1.376 . S
C282 C283 1.392 . S
C282 H303 0.931 . S
C283 C282 1.392 . S
C283 C284 1.361 . S
C283 C285 1.500 . S
C284 C279 1.390 . S
C284 C283 1.361 . S
C284 H302 0.931 . S
C285 C283 1.500 . S
C285 C286 1.371 . S
C285 C287 1.365 . S
C286 C285 1.371 . S
C286 C296 1.386 . S
C286 H304 0.931 . S
C287 C285 1.365 . S
C287 C288 1.409 . S
C287 H305 0.929 . S
C288 C287 1.409 . S
C288 C289 1.380 . S
C288 H306 0.930 . S
C289 C288 1.380 . S
C289 C296 1.357 . S
C290 C281 1.511 . S
C290 C291 1.341 . S
C290 C292 1.371 . S
C291 C290 1.341 . S
C291 C295 1.394 . S
C291 H307 0.930 . S
C292 C290 1.371 . S
C292 C293 1.392 . S
C292 H308 0.931 . S
C293 C292 1.392 . S
C293 C294 1.331 . S
C293 H311 0.932 . S
C294 C293 1.331 . S
C294 C295 1.336 . S
C295 C291 1.394 . S
C295 C294 1.336 . S
C295 H310 0.929 . S
C296 C286 1.386 . S
C296 C289 1.357 . S
C296 H309 0.928 . S
H297 C273 0.931 . S
H298 C275 0.930 . S
H299 C277 0.929 . S
H300 C278 0.931 . S
H301 C280 0.930 . S
H302 C284 0.931 . S
H303 C282 0.931 . S
H304 C286 0.931 . S
H305 C287 0.929 . S
H306 C288 0.930 . S
H307 C291 0.930 . S
H308 C292 0.931 . S
H309 C296 0.928 . S
H310 C295 0.929 . S
H311 C293 0.932 . S
C312 O328 1.251 . S
C312 O330 1.254 1_545 S
N313 C314 1.333 . S
N313 C318 1.307 . S
N313 Zn319 2.020 . S
C314 N313 1.333 . S
C314 C315 1.379 . S
C314 H332 0.952 . S
C315 C314 1.379 . S
C315 C316 1.390 . S
C315 H342 0.949 . S
C316 C315 1.390 . S
C316 C317 1.357 . S
C317 C316 1.357 . S
C317 C318 1.370 . S
C317 H343 0.950 . S
C318 N313 1.307 . S
C318 C317 1.370 . S
C318 H336 0.948 1_455 S
Zn319 N313 2.020 . S
Zn319 O328 2.039 . S
Zn319 O334 2.034 . S
Zn319 O338 2.025 1_455 S
Zn319 O340 2.024 1_455 S
C320 O339 1.246 1_545 S
C320 O340 1.249 . S
N321 C322 1.307 . S
N321 C323 1.333 . S
N321 Zn327 2.020 . S
C322 N321 1.307 . S
C322 C326 1.370 . S
C322 H333 0.948 1_655 S
C323 N321 1.333 . S
C323 C324 1.379 . S
C323 H331 0.952 . S
C324 C323 1.379 . S
C324 C325 1.390 . S
C324 H344 0.949 . S
C325 C324 1.390 . S
C325 C326 1.357 . S
C326 C322 1.370 . S
C326 C325 1.357 . S
C326 H345 0.954 . S
Zn327 N321 2.020 . S
Zn327 O330 2.025 1_655 S
Zn327 O335 2.024 1_655 S
Zn327 O337 2.039 . S
Zn327 O339 2.034 . S
O328 C312 1.251 . S
O328 Zn319 2.039 . S
C329 O334 1.246 1_565 S
C329 O335 1.249 . S
O330 C312 1.254 1_565 S
O330 Zn327 2.025 1_455 S
H331 C323 0.952 . S
H332 C314 0.952 . S
H333 C322 0.948 1_455 S
O334 Zn319 2.034 . S
O334 C329 1.246 1_545 S
O335 Zn327 2.024 1_455 S
O335 C329 1.249 . S
H336 C318 0.948 1_655 S
O337 Zn327 2.039 . S
O337 C341 1.251 . S
O338 Zn319 2.025 1_655 S
O338 C341 1.254 1_545 S
O339 C320 1.246 1_565 S
O339 Zn327 2.034 . S
O340 Zn319 2.024 1_655 S
O340 C320 1.249 . S
C341 O337 1.251 . S
C341 O338 1.254 1_565 S
H342 C315 0.949 . S
H343 C317 0.950 . S
H344 C324 0.949 . S
H345 C326 0.954 . S
C346 O362 1.251 1_565 S
C346 O364 1.254 . S
N347 C348 1.333 . S
N347 C352 1.307 . S
N347 Zn353 2.020 . S
C348 N347 1.333 . S
C348 C349 1.379 . S
C348 H366 0.952 . S
C349 C348 1.379 . S
C349 C350 1.390 . S
C349 H376 0.949 . S
C350 C349 1.390 . S
C350 C351 1.357 . S
C351 C350 1.357 . S
C351 C352 1.370 . S
C351 H377 0.950 . S
C352 N347 1.307 . S
C352 C351 1.370 . S
C352 H370 0.948 . S
Zn353 N347 2.020 . S
Zn353 O362 2.039 . S
Zn353 O368 2.034 1_556 S
Zn353 O372 2.025 1_556 S
Zn353 O374 2.024 . S
C354 O373 1.246 . S
C354 O374 1.249 1_565 S
N355 C356 1.307 . S
N355 C357 1.333 . S
N355 Zn361 2.020 . S
C356 N355 1.307 . S
C356 C360 1.370 . S
C356 H367 0.948 . S
C357 N355 1.333 . S
C357 C358 1.379 . S
C357 H365 0.952 . S
C358 C357 1.379 . S
C358 C359 1.390 . S
C358 H378 0.949 . S
C359 C358 1.390 . S
C359 C360 1.357 . S
C360 C356 1.370 . S
C360 C359 1.357 . S
C360 H379 0.950 . S
Zn361 N355 2.020 . S
Zn361 O364 2.025 1_554 S
Zn361 O369 2.024 . S
Zn361 O371 2.039 . S
Zn361 O373 2.034 1_554 S
O362 C346 1.251 1_545 S
O362 Zn353 2.039 . S
C363 O368 1.246 . S
C363 O369 1.249 1_545 S
O364 C346 1.254 . S
O364 Zn361 2.025 1_556 S
H365 C357 0.952 . S
H366 C348 0.952 . S
H367 C356 0.948 . S
O368 Zn353 2.034 1_554 S
O368 C363 1.246 . S
O369 Zn361 2.024 . S
O369 C363 1.249 1_565 S
H370 C352 0.948 . S
O371 Zn361 2.039 . S
O371 C375 1.251 1_565 S
O372 Zn353 2.025 1_554 S
O372 C375 1.254 . S
O373 C354 1.246 . S
O373 Zn361 2.034 1_556 S
O374 Zn353 2.024 . S
O374 C354 1.249 1_545 S
C375 O371 1.251 1_545 S
C375 O372 1.254 . S
H376 C349 0.949 . S
H377 C351 0.950 . S
H378 C358 0.949 . S
H379 C360 0.950 . S
C380 O396 1.251 . S
C380 O398 1.254 . S
N381 C382 1.333 . S
N381 C386 1.307 . S
N381 Zn387 2.020 . S
C382 N381 1.333 . S
C382 C383 1.379 . S
C382 H400 0.952 . S
C383 C382 1.379 . S
C383 C384 1.390 . S
C383 H410 0.949 . S
C384 C383 1.390 . S
C384 C385 1.357 . S
C385 C384 1.357 . S
C385 C386 1.370 . S
C385 H411 0.950 . S
C386 N381 1.307 . S
C386 C385 1.370 . S
C386 H404 0.948 . S
Zn387 N381 2.020 . S
Zn387 O396 2.039 . S
Zn387 O402 2.034 . S
Zn387 O406 2.025 . S
Zn387 O408 2.024 . S
C388 O407 1.246 . S
C388 O408 1.249 . S
N389 C390 1.307 . S
N389 C391 1.333 . S
N389 Zn395 2.020 . S
C390 N389 1.307 . S
C390 C394 1.370 . S
C390 H401 0.948 . S
C391 N389 1.333 . S
C391 C392 1.379 . S
C391 H399 0.952 . S
C392 C391 1.379 . S
C392 C393 1.390 . S
C392 H412 0.949 . S
C393 C392 1.390 . S
C393 C394 1.357 . S
C394 C390 1.370 . S
C394 C393 1.357 . S
C394 H413 0.950 . S
Zn395 N389 2.020 . S
Zn395 O398 2.025 . S
Zn395 O403 2.024 . S
Zn395 O405 2.039 . S
Zn395 O407 2.034 . S
O396 C380 1.251 . S
O396 Zn387 2.039 . S
C397 O402 1.246 . S
C397 O403 1.249 . S
O398 C380 1.254 . S
O398 Zn395 2.025 . S
H399 C391 0.952 . S
H400 C382 0.952 . S
H401 C390 0.948 . S
O402 Zn387 2.034 . S
O402 C397 1.246 . S
O403 Zn395 2.024 . S
O403 C397 1.249 . S
H404 C386 0.948 . S
O405 Zn395 2.039 . S
O405 C409 1.251 . S
O406 Zn387 2.025 . S
O406 C409 1.254 . S
O407 C388 1.246 . S
O407 Zn395 2.034 . S
O408 Zn387 2.024 . S
O408 C388 1.249 . S
C409 O405 1.251 . S
C409 O406 1.254 . S
H410 C383 0.949 . S
H411 C385 0.950 . S
H412 C392 0.949 . S
H413 C394 0.950 . S
C414 O430 1.251 1_556 S
C414 O432 1.254 . S
N415 C416 1.333 . S
N415 C420 1.307 . S
N415 Zn421 2.020 . S
C416 N415 1.333 . S
C416 C417 1.379 . S
C416 H434 0.952 . S
C417 C416 1.379 . S
C417 C418 1.390 . S
C417 H444 0.949 . S
C418 C417 1.390 . S
C418 C419 1.357 . S
C419 C418 1.357 . S
C419 C420 1.370 . S
C419 H445 0.950 . S
C420 N415 1.307 . S
C420 C419 1.370 . S
C420 H438 0.948 . S
Zn421 N415 2.020 . S
Zn421 O430 2.039 . S
Zn421 O436 2.034 1_655 S
Zn421 O440 2.025 1_655 S
Zn421 O442 2.024 . S
C422 O441 1.246 . S
C422 O442 1.249 1_556 S
N423 C424 1.307 . S
N423 C425 1.333 . S
N423 Zn429 2.020 . S
C424 N423 1.307 . S
C424 C428 1.370 . S
C424 H435 0.948 . S
C425 N423 1.333 . S
C425 C426 1.379 . S
C425 H433 0.952 . S
C426 C425 1.379 . S
C426 C427 1.390 . S
C426 H446 0.949 . S
C427 C426 1.390 . S
C427 C428 1.357 . S
C428 C424 1.370 . S
C428 C427 1.357 . S
C428 H447 0.950 . S
Zn429 N423 2.020 . S
Zn429 O432 2.025 1_455 S
Zn429 O437 2.024 . S
Zn429 O439 2.039 . S
Zn429 O441 2.034 1_455 S
O430 C414 1.251 1_554 S
O430 Zn421 2.039 . S
C431 O436 1.246 . S
C431 O437 1.249 1_554 S
O432 C414 1.254 . S
O432 Zn429 2.025 1_655 S
H433 C425 0.952 . S
H434 C416 0.952 . S
H435 C424 0.948 . S
O436 Zn421 2.034 1_455 S
O436 C431 1.246 . S
O437 Zn429 2.024 . S
O437 C431 1.249 1_556 S
H438 C420 0.948 . S
O439 Zn429 2.039 . S
O439 C443 1.251 1_556 S
O440 Zn421 2.025 1_455 S
O440 C443 1.254 . S
O441 C422 1.246 . S
O441 Zn429 2.034 1_655 S
O442 Zn421 2.024 . S
O442 C422 1.249 1_554 S
C443 O439 1.251 1_554 S
C443 O440 1.254 . S
H444 C417 0.949 . S
H445 C419 0.950 . S
H446 C426 0.949 . S
H447 C428 0.950 . S
H448 C456 0.929 . S
H449 C458 0.930 . S
H450 C460 0.930 . S
H451 C463 0.929 . S
H452 C466 0.930 . S
H453 C468 0.960 . S
H454 C468 0.960 . S
H455 C468 0.960 . S
C456 H448 0.929 . S
C456 C457 1.377 . S
C456 C458 1.384 . S
C457 C456 1.377 . S
C457 C463 1.390 . S
C458 H449 0.930 . S
C458 C456 1.384 . S
C458 C459 1.372 . S
C459 C458 1.372 . S
C459 C460 1.400 . S
C459 C464 1.490 . S
C460 H450 0.930 . S
C460 C459 1.400 . S
C460 C463 1.386 . S
H461 C477 0.930 . S
H462 C478 0.931 . S
C463 H451 0.929 . S
C463 C457 1.390 . S
C463 C460 1.386 . S
C464 C459 1.490 . S
C464 C466 1.395 . S
C464 C467 1.403 . S
H465 C471 0.930 . S
C466 H452 0.930 . S
C466 C464 1.395 . S
C466 C469 1.403 . S
C467 C464 1.403 . S
C467 C468 1.524 . S
C467 C471 1.400 . S
C468 H453 0.960 . S
C468 H454 0.960 . S
C468 H455 0.960 . S
C468 C467 1.524 . S
C469 C466 1.403 . S
C469 C470 1.392 . S
C469 C473 1.495 . S
C470 C469 1.392 . S
C470 C471 1.385 . S
C470 C472 1.478 . S
C471 H465 0.930 . S
C471 C467 1.400 . S
C471 C470 1.385 . S
C472 C470 1.478 . S
C472 C474 1.381 . S
C472 C478 1.383 . S
C473 C469 1.495 . S
C473 H479 0.955 1_545 S
C473 H480 0.961 1_545 S
C473 H481 0.960 . S
C474 C472 1.381 . S
C474 C475 1.394 . S
C474 H482 0.919 1_455 S
C475 C474 1.394 . S
C475 C476 1.383 . S
C475 H483 0.929 1_455 S
C476 C475 1.383 . S
C476 C477 1.377 . S
C477 H461 0.930 . S
C477 C476 1.377 . S
C477 C478 1.379 . S
C478 H462 0.931 . S
C478 C472 1.383 . S
C478 C477 1.379 . S
H479 C473 0.955 1_565 S
H480 C473 0.961 1_565 S
H481 C473 0.960 . S
H482 C474 0.919 1_655 S
H483 C475 0.929 1_655 S
H484 C492 0.929 . S
H485 C494 0.930 . S
H486 C496 0.930 . S
H487 C499 0.929 . S
H488 C502 0.930 . S
H489 C504 0.960 . S
H490 C504 0.960 . S
H491 C504 0.960 . S
C492 H484 0.929 . S
C492 C493 1.377 . S
C492 C494 1.384 . S
C493 C492 1.377 . S
C493 C499 1.390 . S
C494 H485 0.930 . S
C494 C492 1.384 . S
C494 C495 1.372 . S
C495 C494 1.372 . S
C495 C496 1.400 . S
C495 C500 1.490 . S
C496 H486 0.930 . S
C496 C495 1.400 . S
C496 C499 1.386 . S
H497 C513 0.930 1_545 S
H498 C514 0.931 . S
C499 H487 0.929 . S
C499 C493 1.390 . S
C499 C496 1.386 . S
C500 C495 1.490 . S
C500 C502 1.395 . S
C500 C503 1.403 . S
H501 C507 0.930 . S
C502 H488 0.930 . S
C502 C500 1.395 . S
C502 C505 1.403 . S
C503 C500 1.403 . S
C503 C504 1.524 . S
C503 C507 1.400 . S
C504 H489 0.960 . S
C504 H490 0.960 . S
C504 H491 0.960 . S
C504 C503 1.524 . S
C505 C502 1.403 . S
C505 C506 1.392 . S
C505 C509 1.495 . S
C506 C505 1.392 . S
C506 C507 1.385 . S
C506 C508 1.478 . S
C507 H501 0.930 . S
C507 C503 1.400 . S
C507 C506 1.385 . S
C508 C506 1.478 . S
C508 C510 1.381 . S
C508 C514 1.383 . S
C509 C505 1.495 . S
C509 H515 0.959 . S
C509 H516 0.961 . S
C509 H517 0.960 . S
C510 C508 1.381 . S
C510 C511 1.394 . S
C510 H518 0.930 . S
C511 C510 1.394 . S
C511 C512 1.383 . S
C511 H519 0.929 . S
C512 C511 1.383 . S
C512 C513 1.377 . S
C513 H497 0.930 1_565 S
C513 C512 1.377 . S
C513 C514 1.379 . S
C514 H498 0.931 . S
C514 C508 1.383 . S
C514 C513 1.379 . S
H515 C509 0.959 . S
H516 C509 0.961 . S
H517 C509 0.960 . S
H518 C510 0.930 . S
H519 C511 0.929 . S
H520 C528 0.929 . S
H521 C530 0.930 . S
H522 C532 0.930 . S
H523 C535 0.929 . S
H524 C538 0.930 . S
H525 C540 0.960 . S
H526 C540 0.960 . S
H527 C540 0.960 . S
C528 H520 0.929 . S
C528 C529 1.377 . S
C528 C530 1.384 . S
C529 C528 1.377 . S
C529 C535 1.390 . S
C530 H521 0.930 . S
C530 C528 1.384 . S
C530 C531 1.372 . S
C531 C530 1.372 . S
C531 C532 1.400 . S
C531 C536 1.490 . S
C532 H522 0.930 . S
C532 C531 1.400 . S
C532 C535 1.386 . S
H533 C549 0.930 . S
H534 C550 0.931 . S
C535 H523 0.929 . S
C535 C529 1.390 . S
C535 C532 1.386 . S
C536 C531 1.490 . S
C536 C538 1.395 . S
C536 C539 1.403 . S
H537 C543 0.930 . S
C538 H524 0.930 . S
C538 C536 1.395 . S
C538 C541 1.403 . S
C539 C536 1.403 . S
C539 C540 1.524 . S
C539 C543 1.400 . S
C540 H525 0.960 . S
C540 H526 0.960 . S
C540 H527 0.960 . S
C540 C539 1.524 . S
C541 C538 1.403 . S
C541 C542 1.392 . S
C541 C545 1.495 . S
C542 C541 1.392 . S
C542 C543 1.385 . S
C542 C544 1.478 . S
C543 H537 0.930 . S
C543 C539 1.400 . S
C543 C542 1.385 . S
C544 C542 1.478 . S
C544 C546 1.381 . S
C544 C550 1.383 . S
C545 C541 1.495 . S
C545 H551 0.959 . S
C545 H552 0.961 . S
C545 H553 0.960 . S
C546 C544 1.381 . S
C546 C547 1.394 . S
C546 H554 0.930 . S
C547 C546 1.394 . S
C547 C548 1.383 . S
C547 H555 0.929 . S
C548 C547 1.383 . S
C548 C549 1.377 . S
C549 H533 0.930 . S
C549 C548 1.377 . S
C549 C550 1.379 . S
C550 H534 0.931 . S
C550 C544 1.383 . S
C550 C549 1.379 . S
H551 C545 0.959 . S
H552 C545 0.961 . S
H553 C545 0.960 . S
H554 C546 0.930 . S
H555 C547 0.929 . S
H556 C564 0.929 . S
H557 C566 0.930 . S
H558 C568 0.930 . S
H559 C571 0.929 . S
H560 C574 0.930 . S
H561 C576 0.960 . S
H562 C576 0.960 . S
H563 C576 0.960 . S
C564 H556 0.929 . S
C564 C565 1.377 . S
C564 C566 1.384 . S
C565 C564 1.377 . S
C565 C571 1.390 . S
C566 H557 0.930 . S
C566 C564 1.384 . S
C566 C567 1.372 . S
C567 C566 1.372 . S
C567 C568 1.400 . S
C567 C572 1.490 . S
C568 H558 0.930 . S
C568 C567 1.400 . S
C568 C571 1.386 . S
H569 C585 0.930 . S
H570 C586 0.931 . S
C571 H559 0.929 . S
C571 C565 1.390 . S
C571 C568 1.386 . S
C572 C567 1.490 . S
C572 C574 1.395 . S
C572 C575 1.403 . S
H573 C579 0.930 . S
C574 H560 0.930 . S
C574 C572 1.395 . S
C574 C577 1.403 . S
C575 C572 1.403 . S
C575 C576 1.524 . S
C575 C579 1.400 . S
C576 H561 0.960 . S
C576 H562 0.960 . S
C576 H563 0.960 . S
C576 C575 1.524 . S
C577 C574 1.403 . S
C577 C578 1.392 . S
C577 C581 1.495 . S
C578 C577 1.392 . S
C578 C579 1.385 . S
C578 C580 1.478 . S
C579 H573 0.930 . S
C579 C575 1.400 . S
C579 C578 1.385 . S
C580 C578 1.478 . S
C580 C582 1.381 . S
C580 C586 1.383 . S
C581 C577 1.495 . S
C581 H587 0.959 . S
C581 H588 0.961 . S
C581 H589 0.960 . S
C582 C580 1.381 . S
C582 C583 1.394 . S
C582 H590 0.930 . S
C583 C582 1.394 . S
C583 C584 1.383 . S
C583 H591 0.929 . S
C584 C583 1.383 . S
C584 C585 1.377 . S
C585 H569 0.930 . S
C585 C584 1.377 . S
C585 C586 1.379 . S
C586 H570 0.931 . S
C586 C580 1.383 . S
C586 C585 1.379 . S
H587 C581 0.959 . S
H588 C581 0.961 . S
H589 C581 0.960 . S
H590 C582 0.930 . S
H591 C583 0.929 . S
H592 C600 0.929 . S
H593 C602 0.930 . S
H594 C604 0.930 . S
H595 C607 0.929 . S
H596 C610 0.930 . S
H597 C612 0.960 . S
H598 C612 0.960 . S
H599 C612 0.960 . S
C600 H592 0.929 . S
C600 C601 1.377 . S
C600 C602 1.384 . S
C601 C600 1.377 . S
C601 C607 1.390 . S
C602 H593 0.930 . S
C602 C600 1.384 . S
C602 C603 1.372 . S
C603 C602 1.372 . S
C603 C604 1.400 . S
C603 C608 1.490 . S
C604 H594 0.930 . S
C604 C603 1.400 . S
C604 C607 1.386 . S
H605 C621 0.930 1_565 S
H606 C622 0.931 . S
C607 H595 0.929 . S
C607 C601 1.390 . S
C607 C604 1.386 . S
C608 C603 1.490 . S
C608 C610 1.395 . S
C608 C611 1.403 . S
H609 C615 0.930 . S
C610 H596 0.930 . S
C610 C608 1.395 . S
C610 C613 1.403 . S
C611 C608 1.403 . S
C611 C612 1.524 . S
C611 C615 1.400 . S
C612 H597 0.960 . S
C612 H598 0.960 . S
C612 H599 0.960 . S
C612 C611 1.524 . S
C613 C610 1.403 . S
C613 C614 1.392 . S
C613 C617 1.495 . S
C614 C613 1.392 . S
C614 C615 1.385 . S
C614 C616 1.478 . S
C615 H609 0.930 . S
C615 C611 1.400 . S
C615 C614 1.385 . S
C616 C614 1.478 . S
C616 C618 1.381 . S
C616 C622 1.383 . S
C617 C613 1.495 . S
C617 H623 0.959 . S
C617 H624 0.961 . S
C617 H625 0.960 . S
C618 C616 1.381 . S
C618 C619 1.394 . S
C618 H626 0.930 . S
C619 C618 1.394 . S
C619 C620 1.383 . S
C619 H627 0.929 . S
C620 C619 1.383 . S
C620 C621 1.377 . S
C621 H605 0.930 1_545 S
C621 C620 1.377 . S
C621 C622 1.379 . S
C622 H606 0.931 . S
C622 C616 1.383 . S
C622 C621 1.379 . S
H623 C617 0.959 . S
H624 C617 0.961 . S
H625 C617 0.960 . S
H626 C618 0.930 . S
H627 C619 0.929 . S
H628 C636 0.929 . S
H629 C638 0.930 . S
H630 C640 0.930 . S
H631 C643 0.929 . S
H632 C646 0.930 . S
H633 C648 0.960 . S
H634 C648 0.960 . S
H635 C648 0.960 . S
C636 H628 0.929 . S
C636 C637 1.377 . S
C636 C638 1.384 . S
C637 C636 1.377 . S
C637 C643 1.390 . S
C638 H629 0.930 . S
C638 C636 1.384 . S
C638 C639 1.372 . S
C639 C638 1.372 . S
C639 C640 1.400 . S
C639 C644 1.490 . S
C640 H630 0.930 . S
C640 C639 1.400 . S
C640 C643 1.386 . S
H641 C657 0.930 1_545 S
H642 C658 0.931 . S
C643 H631 0.929 . S
C643 C637 1.390 . S
C643 C640 1.386 . S
C644 C639 1.490 . S
C644 C646 1.395 . S
C644 C647 1.403 . S
H645 C651 0.930 . S
C646 H632 0.930 . S
C646 C644 1.395 . S
C646 C649 1.403 . S
C647 C644 1.403 . S
C647 C648 1.524 . S
C647 C651 1.400 . S
C648 H633 0.960 . S
C648 H634 0.960 . S
C648 H635 0.960 . S
C648 C647 1.524 . S
C649 C646 1.403 . S
C649 C650 1.392 . S
C649 C653 1.495 . S
C650 C649 1.392 . S
C650 C651 1.385 . S
C650 C652 1.478 . S
C651 H645 0.930 . S
C651 C647 1.400 . S
C651 C650 1.385 . S
C652 C650 1.478 . S
C652 C654 1.381 . S
C652 C658 1.383 . S
C653 C649 1.495 . S
C653 H659 0.959 . S
C653 H660 0.961 . S
C653 H661 0.960 . S
C654 C652 1.381 . S
C654 C655 1.394 . S
C654 H662 0.930 . S
C655 C654 1.394 . S
C655 C656 1.383 . S
C655 H663 0.929 . S
C656 C655 1.383 . S
C656 C657 1.377 . S
C657 H641 0.930 1_565 S
C657 C656 1.377 . S
C657 C658 1.379 . S
C658 H642 0.931 . S
C658 C652 1.383 . S
C658 C657 1.379 . S
H659 C653 0.959 . S
H660 C653 0.961 . S
H661 C653 0.960 . S
H662 C654 0.930 . S
H663 C655 0.929 . S
H664 C672 0.929 . S
H665 C674 0.930 . S
H666 C676 0.930 . S
H667 C679 0.929 . S
H668 C682 0.930 . S
H669 C684 0.960 1_554 S
H670 C684 0.960 . S
H671 C684 0.957 1_554 S
C672 H664 0.929 . S
C672 C673 1.377 . S
C672 C674 1.384 . S
C673 C672 1.377 . S
C673 C679 1.390 . S
C674 H665 0.930 . S
C674 C672 1.384 . S
C674 C675 1.372 . S
C675 C674 1.372 . S
C675 C676 1.400 . S
C675 C680 1.490 . S
C676 H666 0.930 . S
C676 C675 1.400 . S
C676 C679 1.386 . S
H677 C693 0.930 . S
H678 C694 0.931 . S
C679 H667 0.929 . S
C679 C673 1.390 . S
C679 C676 1.386 . S
C680 C675 1.490 . S
C680 C682 1.395 . S
C680 C683 1.403 . S
H681 C687 0.930 . S
C682 H668 0.930 . S
C682 C680 1.395 . S
C682 C685 1.403 . S
C683 C680 1.403 . S
C683 C684 1.524 . S
C683 C687 1.400 . S
C684 H669 0.960 1_556 S
C684 H670 0.960 . S
C684 H671 0.957 1_556 S
C684 C683 1.524 . S
C685 C682 1.403 . S
C685 C686 1.392 . S
C685 C689 1.495 . S
C686 C685 1.392 . S
C686 C687 1.385 . S
C686 C688 1.478 . S
C687 H681 0.930 . S
C687 C683 1.400 . S
C687 C686 1.385 . S
C688 C686 1.478 . S
C688 C690 1.381 . S
C688 C694 1.383 . S
C689 C685 1.495 . S
C689 H695 0.959 . S
C689 H696 0.961 . S
C689 H697 0.960 . S
C690 C688 1.381 . S
C690 C691 1.394 . S
C690 H698 0.930 . S
C691 C690 1.394 . S
C691 C692 1.383 . S
C691 H699 0.929 . S
C692 C691 1.383 . S
C692 C693 1.377 . S
C693 H677 0.930 . S
C693 C692 1.377 . S
C693 C694 1.379 . S
C694 H678 0.931 . S
C694 C688 1.383 . S
C694 C693 1.379 . S
H695 C689 0.959 . S
H696 C689 0.961 . S
H697 C689 0.960 . S
H698 C690 0.930 . S
H699 C691 0.929 . S
H700 C708 0.929 . S
H701 C710 0.930 . S
H702 C712 0.930 . S
H703 C715 0.929 . S
H704 C718 0.930 . S
H705 C720 0.960 . S
H706 C720 0.960 . S
H707 C720 0.960 . S
C708 H700 0.929 . S
C708 C709 1.377 . S
C708 C710 1.384 . S
C709 C708 1.377 . S
C709 C715 1.390 . S
C710 H701 0.930 . S
C710 C708 1.384 . S
C710 C711 1.372 . S
C711 C710 1.372 . S
C711 C712 1.400 . S
C711 C716 1.490 . S
C712 H702 0.930 . S
C712 C711 1.400 . S
C712 C715 1.386 . S
H713 C729 0.930 . S
H714 C730 0.931 . S
C715 H703 0.929 . S
C715 C709 1.390 . S
C715 C712 1.386 . S
C716 C711 1.490 . S
C716 C718 1.395 . S
C716 C719 1.403 . S
H717 C723 0.930 . S
C718 H704 0.930 . S
C718 C716 1.395 . S
C718 C721 1.403 . S
C719 C716 1.403 . S
C719 C720 1.524 . S
C719 C723 1.400 . S
C720 H705 0.960 . S
C720 H706 0.960 . S
C720 H707 0.960 . S
C720 C719 1.524 . S
C721 C718 1.403 . S
C721 C722 1.392 . S
C721 C725 1.495 . S
C722 C721 1.392 . S
C722 C723 1.385 . S
C722 C724 1.478 . S
C723 H717 0.930 . S
C723 C719 1.400 . S
C723 C722 1.385 . S
C724 C722 1.478 . S
C724 C726 1.381 . S
C724 C730 1.383 . S
C725 C721 1.495 . S
C725 H731 0.959 . S
C725 H732 0.961 . S
C725 H733 0.960 . S
C726 C724 1.381 . S
C726 C727 1.394 . S
C726 H734 0.930 . S
C727 C726 1.394 . S
C727 C728 1.383 . S
C727 H735 0.929 . S
C728 C727 1.383 . S
C728 C729 1.377 . S
C729 H713 0.930 . S
C729 C728 1.377 . S
C729 C730 1.379 . S
C730 H714 0.931 . S
C730 C724 1.383 . S
C730 C729 1.379 . S
H731 C725 0.959 . S
H732 C725 0.961 . S
H733 C725 0.960 . S
H734 C726 0.930 . S
H735 C727 0.929 . S
H736 C744 0.929 . S
H737 C746 0.930 . S
H738 C748 0.930 . S
H739 C751 0.929 . S
H740 C754 0.930 . S
H741 C756 0.960 1_655 S
H742 C756 0.960 . S
H743 C756 0.960 . S
C744 H736 0.929 . S
C744 C745 1.377 . S
C744 C746 1.384 . S
C745 C744 1.377 . S
C745 C751 1.390 . S
C746 H737 0.930 . S
C746 C744 1.384 . S
C746 C747 1.372 . S
C747 C746 1.372 . S
C747 C748 1.400 . S
C747 C752 1.490 . S
C748 H738 0.930 . S
C748 C747 1.400 . S
C748 C751 1.386 . S
H749 C765 0.930 1_556 S
H750 C766 0.931 . S
C751 H739 0.929 . S
C751 C745 1.390 . S
C751 C748 1.386 . S
C752 C747 1.490 . S
C752 C754 1.395 . S
C752 C755 1.403 . S
H753 C759 0.930 . S
C754 H740 0.930 . S
C754 C752 1.395 . S
C754 C757 1.403 . S
C755 C752 1.403 . S
C755 C756 1.524 . S
C755 C759 1.400 . S
C756 H741 0.960 1_455 S
C756 H742 0.960 . S
C756 H743 0.960 . S
C756 C755 1.524 . S
C757 C754 1.403 . S
C757 C758 1.392 . S
C757 C761 1.495 . S
C758 C757 1.392 . S
C758 C759 1.385 . S
C758 C760 1.478 . S
C759 H753 0.930 . S
C759 C755 1.400 . S
C759 C758 1.385 . S
C760 C758 1.478 . S
C760 C762 1.381 . S
C760 C766 1.383 . S
C761 C757 1.495 . S
C761 H767 0.959 . S
C761 H768 0.961 . S
C761 H769 0.960 . S
C762 C760 1.381 . S
C762 C763 1.394 . S
C762 H770 0.930 . S
C763 C762 1.394 . S
C763 C764 1.383 . S
C763 H771 0.929 . S
C764 C763 1.383 . S
C764 C765 1.377 . S
C765 H749 0.930 1_554 S
C765 C764 1.377 . S
C765 C766 1.379 . S
C766 H750 0.931 . S
C766 C760 1.383 . S
C766 C765 1.379 . S
H767 C761 0.959 . S
H768 C761 0.961 . S
H769 C761 0.960 . S
H770 C762 0.930 . S
H771 C763 0.929 . S
H772 C780 0.929 . S
H773 C782 0.930 . S
H774 C784 0.930 . S
H775 C787 0.929 . S
H776 C790 0.930 . S
H777 C792 0.960 . S
H778 C792 0.960 . S
H779 C792 0.960 . S
C780 H772 0.929 . S
C780 C781 1.377 . S
C780 C782 1.384 . S
C781 C780 1.377 . S
C781 C787 1.390 . S
C782 H773 0.930 . S
C782 C780 1.384 . S
C782 C783 1.372 . S
C783 C782 1.372 . S
C783 C784 1.400 . S
C783 C788 1.490 . S
C784 H774 0.930 . S
C784 C783 1.400 . S
C784 C787 1.386 . S
H785 C801 0.930 . S
H786 C802 0.931 . S
C787 H775 0.929 . S
C787 C781 1.390 . S
C787 C784 1.386 . S
C788 C783 1.490 . S
C788 C790 1.395 . S
C788 C791 1.403 . S
H789 C795 0.930 . S
C790 H776 0.930 . S
C790 C788 1.395 . S
C790 C793 1.403 . S
C791 C788 1.403 . S
C791 C792 1.524 . S
C791 C795 1.400 . S
C792 H777 0.960 . S
C792 H778 0.960 . S
C792 H779 0.960 . S
C792 C791 1.524 . S
C793 C790 1.403 . S
C793 C794 1.392 . S
C793 C797 1.495 . S
C794 C793 1.392 . S
C794 C795 1.385 . S
C794 C796 1.478 . S
C795 H789 0.930 . S
C795 C791 1.400 . S
C795 C794 1.385 . S
C796 C794 1.478 . S
C796 C798 1.381 . S
C796 C802 1.383 . S
C797 C793 1.495 . S
C797 H803 0.959 . S
C797 H804 0.961 . S
C797 H805 0.960 . S
C798 C796 1.381 . S
C798 C799 1.394 . S
C798 H806 0.930 . S
C799 C798 1.394 . S
C799 C800 1.383 . S
C799 H807 0.929 . S
C800 C799 1.383 . S
C800 C801 1.377 . S
C801 H785 0.930 . S
C801 C800 1.377 . S
C801 C802 1.379 . S
C802 H786 0.931 . S
C802 C796 1.383 . S
C802 C801 1.379 . S
H803 C797 0.959 . S
H804 C797 0.961 . S
H805 C797 0.960 . S
H806 C798 0.930 . S
H807 C799 0.929 . S
H808 C816 0.929 . S
H809 C818 0.930 . S
H810 C820 0.930 . S
H811 C823 0.929 . S
H812 C826 0.930 . S
H813 C828 0.960 . S
H814 C828 0.960 . S
H815 C828 0.960 . S
C816 H808 0.929 . S
C816 C817 1.377 . S
C816 C818 1.384 . S
C817 C816 1.377 . S
C817 C823 1.390 . S
C818 H809 0.930 . S
C818 C816 1.384 . S
C818 C819 1.372 . S
C819 C818 1.372 . S
C819 C820 1.400 . S
C819 C824 1.490 . S
C820 H810 0.930 . S
C820 C819 1.400 . S
C820 C823 1.386 . S
H821 C837 0.930 . S
H822 C838 0.931 . S
C823 H811 0.929 . S
C823 C817 1.390 . S
C823 C820 1.386 . S
C824 C819 1.490 . S
C824 C826 1.395 . S
C824 C827 1.403 . S
H825 C831 0.930 . S
C826 H812 0.930 . S
C826 C824 1.395 . S
C826 C829 1.403 . S
C827 C824 1.403 . S
C827 C828 1.524 . S
C827 C831 1.400 . S
C828 H813 0.960 . S
C828 H814 0.960 . S
C828 H815 0.960 . S
C828 C827 1.524 . S
C829 C826 1.403 . S
C829 C830 1.392 . S
C829 C833 1.495 . S
C830 C829 1.392 . S
C830 C831 1.385 . S
C830 C832 1.478 . S
C831 H825 0.930 . S
C831 C827 1.400 . S
C831 C830 1.385 . S
C832 C830 1.478 . S
C832 C834 1.381 . S
C832 C838 1.383 . S
C833 C829 1.495 . S
C833 H839 0.959 . S
C833 H840 0.973 . S
C833 H841 0.960 . S
C834 C832 1.381 . S
C834 C835 1.394 . S
C834 H842 0.930 . S
C835 C834 1.394 . S
C835 C836 1.383 . S
C835 H843 0.929 . S
C836 C835 1.383 . S
C836 C837 1.377 . S
C837 H821 0.930 . S
C837 C836 1.377 . S
C837 C838 1.379 . S
C838 H822 0.931 . S
C838 C832 1.383 . S
C838 C837 1.379 . S
H839 C833 0.959 . S
H840 C833 0.973 . S
H841 C833 0.960 . S
H842 C834 0.930 . S
H843 C835 0.929 . S
H844 C852 0.929 . S
H845 C854 0.930 . S
H846 C856 0.930 . S
H847 C859 0.929 . S
H848 C862 0.930 . S
H849 C864 0.960 . S
H850 C864 0.960 . S
H851 C864 0.960 . S
C852 H844 0.929 . S
C852 C853 1.377 . S
C852 C854 1.384 . S
C853 C852 1.377 . S
C853 C859 1.390 . S
C854 H845 0.930 . S
C854 C852 1.384 . S
C854 C855 1.372 . S
C855 C854 1.372 . S
C855 C856 1.400 . S
C855 C860 1.490 . S
C856 H846 0.930 . S
C856 C855 1.400 . S
C856 C859 1.386 . S
H857 C873 0.930 . S
H858 C874 0.931 . S
C859 H847 0.929 . S
C859 C853 1.390 . S
C859 C856 1.386 . S
C860 C855 1.490 . S
C860 C862 1.395 . S
C860 C863 1.403 . S
H861 C867 0.930 . S
C862 H848 0.930 . S
C862 C860 1.395 . S
C862 C865 1.403 . S
C863 C860 1.403 . S
C863 C864 1.524 . S
C863 C867 1.400 . S
C864 H849 0.960 . S
C864 H850 0.960 . S
C864 H851 0.960 . S
C864 C863 1.524 . S
C865 C862 1.403 . S
C865 C866 1.392 . S
C865 C869 1.495 . S
C866 C865 1.392 . S
C866 C867 1.385 . S
C866 C868 1.478 . S
C867 H861 0.930 . S
C867 C863 1.400 . S
C867 C866 1.385 . S
C868 C866 1.478 . S
C868 C870 1.381 . S
C868 C874 1.383 . S
C869 C865 1.495 . S
C869 H875 0.959 . S
C869 H876 0.961 . S
C869 H877 0.960 . S
C870 C868 1.381 . S
C870 C871 1.394 . S
C870 H878 0.930 . S
C871 C870 1.394 . S
C871 C872 1.383 . S
C871 H879 0.929 . S
C872 C871 1.383 . S
C872 C873 1.377 . S
C873 H857 0.930 . S
C873 C872 1.377 . S
C873 C874 1.379 . S
C874 H858 0.931 . S
C874 C868 1.383 . S
C874 C873 1.379 . S
H875 C869 0.959 . S
H876 C869 0.961 . S
H877 C869 0.960 . S
H878 C870 0.930 . S
H879 C871 0.929 . S
H880 C888 0.929 . S
H881 C890 0.930 . S
H882 C892 0.930 . S
H883 C895 0.929 . S
H884 C898 0.930 . S
H885 C900 0.960 . S
H886 C900 0.960 . S
H887 C900 0.960 . S
C888 H880 0.929 . S
C888 C889 1.377 . S
C888 C890 1.384 . S
C889 C888 1.377 . S
C889 C895 1.390 . S
C890 H881 0.930 . S
C890 C888 1.384 . S
C890 C891 1.372 . S
C891 C890 1.372 . S
C891 C892 1.400 . S
C891 C896 1.490 . S
C892 H882 0.930 . S
C892 C891 1.400 . S
C892 C895 1.386 . S
H893 C909 0.930 . S
H894 C910 0.931 . S
C895 H883 0.929 . S
C895 C889 1.390 . S
C895 C892 1.386 . S
C896 C891 1.490 . S
C896 C898 1.395 . S
C896 C899 1.403 . S
H897 C903 0.930 . S
C898 H884 0.930 . S
C898 C896 1.395 . S
C898 C901 1.403 . S
C899 C896 1.403 . S
C899 C900 1.524 . S
C899 C903 1.400 . S
C900 H885 0.960 . S
C900 H886 0.960 . S
C900 H887 0.960 . S
C900 C899 1.524 . S
C901 C898 1.403 . S
C901 C902 1.392 . S
C901 C905 1.495 1_655 S
C902 C901 1.392 . S
C902 C903 1.385 . S
C902 C904 1.478 . S
C903 H897 0.930 . S
C903 C899 1.400 . S
C903 C902 1.385 . S
C904 C902 1.478 . S
C904 C906 1.381 . S
C904 C910 1.383 . S
C905 C901 1.495 1_455 S
C905 H911 0.959 . S
C905 H912 0.962 . S
C905 H913 0.960 . S
C906 C904 1.381 . S
C906 C907 1.394 . S
C906 H914 0.930 . S
C907 C906 1.394 . S
C907 C908 1.383 . S
C907 H915 0.929 1_655 S
C908 C907 1.383 . S
C908 C909 1.377 . S
C909 H893 0.930 . S
C909 C908 1.377 . S
C909 C910 1.379 . S
C910 H894 0.931 . S
C910 C904 1.383 . S
C910 C909 1.379 . S
H911 C905 0.959 . S
H912 C905 0.962 . S
H913 C905 0.960 . S
H914 C906 0.930 . S
H915 C907 0.929 1_455 S
H916 C924 0.929 . S
H917 C926 0.930 . S
H918 C928 0.930 . S
H919 C931 0.929 . S
H920 C934 0.930 . S
H921 C936 0.960 . S
H922 C936 0.960 . S
H923 C936 0.960 . S
C924 H916 0.929 . S
C924 C925 1.377 . S
C924 C926 1.384 . S
C925 C924 1.377 . S
C925 C931 1.390 . S
C926 H917 0.930 . S
C926 C924 1.384 . S
C926 C927 1.372 . S
C927 C926 1.372 . S
C927 C928 1.400 . S
C927 C932 1.490 . S
C928 H918 0.930 . S
C928 C927 1.400 . S
C928 C931 1.386 . S
H929 C945 0.930 . S
H930 C946 0.931 . S
C931 H919 0.929 . S
C931 C925 1.390 . S
C931 C928 1.386 . S
C932 C927 1.490 . S
C932 C934 1.395 . S
C932 C935 1.403 . S
H933 C939 0.930 . S
C934 H920 0.930 . S
C934 C932 1.395 . S
C934 C937 1.403 . S
C935 C932 1.403 . S
C935 C936 1.524 . S
C935 C939 1.400 . S
C936 H921 0.960 . S
C936 H922 0.960 . S
C936 H923 0.960 . S
C936 C935 1.524 . S
C937 C934 1.403 . S
C937 C938 1.392 . S
C937 C941 1.495 . S
C938 C937 1.392 . S
C938 C939 1.385 . S
C938 C940 1.478 . S
C939 H933 0.930 . S
C939 C935 1.400 . S
C939 C938 1.385 . S
C940 C938 1.478 . S
C940 C942 1.381 . S
C940 C946 1.383 . S
C941 C937 1.495 . S
C941 H947 0.959 . S
C941 H948 0.961 . S
C941 H949 0.960 . S
C942 C940 1.381 . S
C942 C943 1.394 . S
C942 H950 0.930 . S
C943 C942 1.394 . S
C943 C944 1.383 . S
C943 H951 0.929 . S
C944 C943 1.383 . S
C944 C945 1.377 . S
C945 H929 0.930 . S
C945 C944 1.377 . S
C945 C946 1.379 . S
C946 H930 0.931 . S
C946 C940 1.383 . S
C946 C945 1.379 . S
H947 C941 0.959 . S
H948 C941 0.961 . S
H949 C941 0.960 . S
H950 C942 0.930 . S
H951 C943 0.929 . S
H952 C960 0.929 . S
H953 C962 0.930 . S
H954 C964 0.930 . S
H955 C967 0.929 . S
H956 C970 0.930 . S
H957 C972 0.960 . S
H958 C972 0.960 . S
H959 C972 0.960 . S
C960 H952 0.929 . S
C960 C961 1.377 . S
C960 C962 1.384 . S
C961 C960 1.377 . S
C961 C967 1.390 . S
C962 H953 0.930 . S
C962 C960 1.384 . S
C962 C963 1.372 . S
C963 C962 1.372 . S
C963 C964 1.400 . S
C963 C968 1.490 . S
C964 H954 0.930 . S
C964 C963 1.400 . S
C964 C967 1.386 . S
H965 C981 0.930 . S
H966 C982 0.931 . S
C967 H955 0.929 . S
C967 C961 1.390 . S
C967 C964 1.386 . S
C968 C963 1.490 . S
C968 C970 1.395 . S
C968 C971 1.403 . S
H969 C975 0.930 . S
C970 H956 0.930 . S
C970 C968 1.395 . S
C970 C973 1.403 . S
C971 C968 1.403 . S
C971 C972 1.524 . S
C971 C975 1.400 . S
C972 H957 0.960 . S
C972 H958 0.960 . S
C972 H959 0.960 . S
C972 C971 1.524 . S
C973 C970 1.403 . S
C973 C974 1.392 . S
C973 C977 1.495 . S
C974 C973 1.392 . S
C974 C975 1.385 . S
C974 C976 1.478 . S
C975 H969 0.930 . S
C975 C971 1.400 . S
C975 C974 1.385 . S
C976 C974 1.478 . S
C976 C978 1.381 . S
C976 C982 1.383 . S
C977 C973 1.495 . S
C977 H983 0.959 . S
C977 H984 0.961 . S
C977 H985 0.960 . S
C978 C976 1.381 . S
C978 C979 1.394 . S
C978 H986 0.930 . S
C979 C978 1.394 . S
C979 C980 1.383 . S
C979 H987 0.929 . S
C980 C979 1.383 . S
C980 C981 1.377 . S
C981 H965 0.930 . S
C981 C980 1.377 . S
C981 C982 1.379 . S
C982 H966 0.931 . S
C982 C976 1.383 . S
C982 C981 1.379 . S
H983 C977 0.959 . S
H984 C977 0.961 . S
H985 C977 0.960 . S
H986 C978 0.930 . S
H987 C979 0.929 . S
H988 C996 0.929 . S
H989 C998 0.930 . S
H990 C1000 0.930 . S
H991 C1003 0.929 . S
H992 C1006 0.930 . S
H993 C1008 0.960 . S
H994 C1008 0.960 . S
H995 C1008 0.960 . S
C996 H988 0.929 . S
C996 C997 1.377 . S
C996 C998 1.384 . S
C997 C996 1.377 . S
C997 C1003 1.390 . S
C998 H989 0.930 . S
C998 C996 1.384 . S
C998 C999 1.372 . S
C999 C998 1.372 . S
C999 C1000 1.400 . S
C999 C1004 1.490 . S
C1000 H990 0.930 . S
C1000 C999 1.400 . S
C1000 C1003 1.386 . S
H1001 C1017 0.930 . S
H1002 C1018 0.931 . S
C1003 H991 0.929 . S
C1003 C997 1.390 . S
C1003 C1000 1.386 . S
C1004 C999 1.490 . S
C1004 C1006 1.395 . S
C1004 C1007 1.403 . S
H1005 C1011 0.930 . S
C1006 H992 0.930 . S
C1006 C1004 1.395 . S
C1006 C1009 1.403 . S
C1007 C1004 1.403 . S
C1007 C1008 1.524 . S
C1007 C1011 1.400 . S
C1008 H993 0.960 . S
C1008 H994 0.960 . S
C1008 H995 0.960 . S
C1008 C1007 1.524 . S
C1009 C1006 1.403 . S
C1009 C1010 1.392 . S
C1009 C1013 1.495 . S
C1010 C1009 1.392 . S
C1010 C1011 1.385 . S
C1010 C1012 1.478 . S
C1011 H1005 0.930 . S
C1011 C1007 1.400 . S
C1011 C1010 1.385 . S
C1012 C1010 1.478 . S
C1012 C1014 1.381 . S
C1012 C1018 1.383 . S
C1013 C1009 1.495 . S
C1013 H1019 0.959 . S
C1013 H1020 0.961 . S
C1013 H1021 0.960 . S
C1014 C1012 1.381 . S
C1014 C1015 1.394 . S
C1014 H1022 0.930 . S
C1015 C1014 1.394 . S
C1015 C1016 1.383 . S
C1015 H1023 0.929 . S
C1016 C1015 1.383 . S
C1016 C1017 1.377 . S
C1017 H1001 0.930 . S
C1017 C1016 1.377 . S
C1017 C1018 1.379 . S
C1018 H1002 0.931 . S
C1018 C1012 1.383 . S
C1018 C1017 1.379 . S
H1019 C1013 0.959 . S
H1020 C1013 0.961 . S
H1021 C1013 0.960 . S
H1022 C1014 0.930 . S
H1023 C1015 0.929 . S
H1024 C1032 0.929 . S
H1025 C1034 0.930 . S
H1026 C1036 0.930 . S
H1027 C1039 0.929 . S
H1028 C1042 0.930 . S
H1029 C1044 0.960 . S
H1030 C1044 0.960 . S
H1031 C1044 0.960 . S
C1032 H1024 0.929 . S
C1032 C1033 1.377 . S
C1032 C1034 1.384 . S
C1033 C1032 1.377 . S
C1033 C1039 1.390 . S
C1034 H1025 0.930 . S
C1034 C1032 1.384 . S
C1034 C1035 1.372 . S
C1035 C1034 1.372 . S
C1035 C1036 1.400 . S
C1035 C1040 1.490 . S
C1036 H1026 0.930 . S
C1036 C1035 1.400 . S
C1036 C1039 1.386 . S
H1037 C1053 0.930 . S
H1038 C1054 0.931 . S
C1039 H1027 0.929 . S
C1039 C1033 1.390 . S
C1039 C1036 1.386 . S
C1040 C1035 1.490 . S
C1040 C1042 1.395 . S
C1040 C1043 1.403 . S
H1041 C1047 0.930 . S
C1042 H1028 0.930 . S
C1042 C1040 1.395 . S
C1042 C1045 1.403 . S
C1043 C1040 1.403 . S
C1043 C1044 1.524 . S
C1043 C1047 1.400 . S
C1044 H1029 0.960 . S
C1044 H1030 0.960 . S
C1044 H1031 0.960 . S
C1044 C1043 1.524 . S
C1045 C1042 1.403 . S
C1045 C1046 1.392 . S
C1045 C1049 1.495 . S
C1046 C1045 1.392 . S
C1046 C1047 1.385 . S
C1046 C1048 1.478 . S
C1047 H1041 0.930 . S
C1047 C1043 1.400 . S
C1047 C1046 1.385 . S
C1048 C1046 1.478 . S
C1048 C1050 1.381 . S
C1048 C1054 1.383 . S
C1049 C1045 1.495 . S
C1049 H1055 0.959 . S
C1049 H1056 0.961 . S
C1049 H1057 0.960 . S
C1050 C1048 1.381 . S
C1050 C1051 1.394 . S
C1050 H1058 0.930 . S
C1051 C1050 1.394 . S
C1051 C1052 1.383 . S
C1051 H1059 0.929 1_565 S
C1052 C1051 1.383 . S
C1052 C1053 1.377 . S
C1053 H1037 0.930 . S
C1053 C1052 1.377 . S
C1053 C1054 1.379 . S
C1054 H1038 0.931 . S
C1054 C1048 1.383 . S
C1054 C1053 1.379 . S
H1055 C1049 0.959 . S
H1056 C1049 0.961 . S
H1057 C1049 0.960 . S
H1058 C1050 0.930 . S
H1059 C1051 0.929 1_545 S
H1060 C1068 0.929 . S
H1061 C1070 0.930 . S
H1062 C1072 0.930 . S
H1063 C1075 0.929 . S
H1064 C1078 0.930 . S
H1065 C1080 0.960 . S
H1066 C1080 0.960 . S
H1067 C1080 0.960 . S
C1068 H1060 0.929 . S
C1068 C1069 1.377 . S
C1068 C1070 1.384 . S
C1069 C1068 1.377 . S
C1069 C1075 1.390 . S
C1070 H1061 0.930 . S
C1070 C1068 1.384 . S
C1070 C1071 1.372 . S
C1071 C1070 1.372 . S
C1071 C1072 1.400 . S
C1071 C1076 1.490 . S
C1072 H1062 0.930 . S
C1072 C1071 1.400 . S
C1072 C1075 1.386 . S
H1073 C1089 0.930 1_565 S
H1074 C1090 0.931 . S
C1075 H1063 0.929 . S
C1075 C1069 1.390 . S
C1075 C1072 1.386 . S
C1076 C1071 1.490 . S
C1076 C1078 1.395 . S
C1076 C1079 1.403 . S
H1077 C1083 0.930 . S
C1078 H1064 0.930 . S
C1078 C1076 1.395 . S
C1078 C1081 1.403 . S
C1079 C1076 1.403 . S
C1079 C1080 1.524 . S
C1079 C1083 1.400 . S
C1080 H1065 0.960 . S
C1080 H1066 0.960 . S
C1080 H1067 0.960 . S
C1080 C1079 1.524 . S
C1081 C1078 1.403 . S
C1081 C1082 1.392 . S
C1081 C1085 1.495 . S
C1082 C1081 1.392 . S
C1082 C1083 1.385 . S
C1082 C1084 1.478 . S
C1083 H1077 0.930 . S
C1083 C1079 1.400 . S
C1083 C1082 1.385 . S
C1084 C1082 1.478 . S
C1084 C1086 1.381 . S
C1084 C1090 1.383 . S
C1085 C1081 1.495 . S
C1085 H1091 0.959 . S
C1085 H1092 0.961 . S
C1085 H1093 0.960 . S
C1086 C1084 1.381 . S
C1086 C1087 1.394 . S
C1086 H1094 0.930 . S
C1087 C1086 1.394 . S
C1087 C1088 1.383 . S
C1087 H1095 0.929 . S
C1088 C1087 1.383 . S
C1088 C1089 1.377 . S
C1089 H1073 0.930 1_545 S
C1089 C1088 1.377 . S
C1089 C1090 1.379 . S
C1090 H1074 0.931 . S
C1090 C1084 1.383 . S
C1090 C1089 1.379 . S
H1091 C1085 0.959 . S
H1092 C1085 0.961 . S
H1093 C1085 0.960 . S
H1094 C1086 0.930 . S
H1095 C1087 0.929 . S
H1096 C1104 0.929 . S
H1097 C1106 0.930 . S
H1098 C1108 0.930 . S
H1099 C1111 0.929 . S
H1100 C1114 0.930 . S
H1101 C1116 0.960 . S
H1102 C1116 0.960 . S
H1103 C1116 0.960 . S
C1104 H1096 0.929 . S
C1104 C1105 1.377 . S
C1104 C1106 1.384 . S
C1105 C1104 1.377 . S
C1105 C1111 1.390 . S
C1106 H1097 0.930 . S
C1106 C1104 1.384 . S
C1106 C1107 1.372 . S
C1107 C1106 1.372 . S
C1107 C1108 1.400 . S
C1107 C1112 1.490 . S
C1108 H1098 0.930 . S
C1108 C1107 1.400 . S
C1108 C1111 1.386 . S
H1109 C1125 0.930 1_556 S
H1110 C1126 0.931 1_556 S
C1111 H1099 0.929 . S
C1111 C1105 1.390 . S
C1111 C1108 1.386 . S
C1112 C1107 1.490 . S
C1112 C1114 1.395 . S
C1112 C1115 1.403 . S
H1113 C1119 0.930 . S
C1114 H1100 0.930 . S
C1114 C1112 1.395 . S
C1114 C1117 1.403 . S
C1115 C1112 1.403 . S
C1115 C1116 1.524 . S
C1115 C1119 1.400 . S
C1116 H1101 0.960 . S
C1116 H1102 0.960 . S
C1116 H1103 0.960 . S
C1116 C1115 1.524 . S
C1117 C1114 1.403 . S
C1117 C1118 1.392 . S
C1117 C1121 1.495 . S
C1118 C1117 1.392 . S
C1118 C1119 1.385 . S
C1118 C1120 1.478 . S
C1119 H1113 0.930 . S
C1119 C1115 1.400 . S
C1119 C1118 1.385 . S
C1120 C1118 1.478 . S
C1120 C1122 1.381 . S
C1120 C1126 1.383 . S
C1121 C1117 1.495 . S
C1121 H1127 0.959 . S
C1121 H1128 0.961 . S
C1121 H1129 0.960 . S
C1122 C1120 1.381 . S
C1122 C1123 1.394 . S
C1122 H1130 0.930 . S
C1123 C1122 1.394 . S
C1123 C1124 1.383 . S
C1123 H1131 0.929 . S
C1124 C1123 1.383 . S
C1124 C1125 1.377 . S
C1125 H1109 0.930 1_554 S
C1125 C1124 1.377 . S
C1125 C1126 1.379 . S
C1126 H1110 0.931 1_554 S
C1126 C1120 1.383 . S
C1126 C1125 1.379 . S
H1127 C1121 0.959 . S
H1128 C1121 0.961 . S
H1129 C1121 0.960 . S
H1130 C1122 0.930 . S
H1131 C1123 0.929 . S
H1132 C1140 0.929 . S
H1133 C1142 0.930 . S
H1134 C1144 0.930 . S
H1135 C1147 0.929 . S
H1136 C1150 0.930 . S
H1137 C1152 0.960 . S
H1138 C1152 0.960 . S
H1139 C1152 0.960 . S
C1140 H1132 0.929 . S
C1140 C1141 1.377 . S
C1140 C1142 1.384 . S
C1141 C1140 1.377 . S
C1141 C1147 1.390 . S
C1142 H1133 0.930 . S
C1142 C1140 1.384 . S
C1142 C1143 1.372 . S
C1143 C1142 1.372 . S
C1143 C1144 1.400 . S
C1143 C1148 1.490 . S
C1144 H1134 0.930 . S
C1144 C1143 1.400 . S
C1144 C1147 1.386 . S
H1145 C1161 0.930 . S
H1146 C1162 0.931 . S
C1147 H1135 0.929 . S
C1147 C1141 1.390 . S
C1147 C1144 1.386 . S
C1148 C1143 1.490 . S
C1148 C1150 1.395 . S
C1148 C1151 1.403 . S
H1149 C1155 0.930 . S
C1150 H1136 0.930 . S
C1150 C1148 1.395 . S
C1150 C1153 1.403 . S
C1151 C1148 1.403 . S
C1151 C1152 1.524 . S
C1151 C1155 1.400 . S
C1152 H1137 0.960 . S
C1152 H1138 0.960 . S
C1152 H1139 0.960 . S
C1152 C1151 1.524 . S
C1153 C1150 1.403 . S
C1153 C1154 1.392 . S
C1153 C1157 1.495 . S
C1154 C1153 1.392 . S
C1154 C1155 1.385 . S
C1154 C1156 1.478 . S
C1155 H1149 0.930 . S
C1155 C1151 1.400 . S
C1155 C1154 1.385 . S
C1156 C1154 1.478 . S
C1156 C1158 1.381 . S
C1156 C1162 1.383 . S
C1157 C1153 1.495 . S
C1157 H1163 0.959 . S
C1157 H1164 0.961 . S
C1157 H1165 0.960 . S
C1158 C1156 1.381 . S
C1158 C1159 1.394 . S
C1158 H1166 0.930 . S
C1159 C1158 1.394 . S
C1159 C1160 1.383 . S
C1159 H1167 0.929 . S
C1160 C1159 1.383 . S
C1160 C1161 1.377 . S
C1161 H1145 0.930 . S
C1161 C1160 1.377 . S
C1161 C1162 1.379 . S
C1162 H1146 0.931 . S
C1162 C1156 1.383 . S
C1162 C1161 1.379 . S
H1163 C1157 0.959 . S
H1164 C1157 0.961 . S
H1165 C1157 0.960 . S
H1166 C1158 0.930 . S
H1167 C1159 0.929 . S
H1168 C1176 0.929 . S
H1169 C1178 0.930 . S
H1170 C1180 0.930 . S
H1171 C1183 0.929 . S
H1172 C1186 0.930 . S
H1173 C1188 0.960 . S
H1174 C1188 0.960 . S
H1175 C1188 0.960 . S
C1176 H1168 0.929 . S
C1176 C1177 1.377 . S
C1176 C1178 1.384 . S
C1177 C1176 1.377 . S
C1177 C1183 1.390 . S
C1178 H1169 0.930 . S
C1178 C1176 1.384 . S
C1178 C1179 1.372 . S
C1179 C1178 1.372 . S
C1179 C1180 1.400 . S
C1179 C1184 1.490 . S
C1180 H1170 0.930 . S
C1180 C1179 1.400 . S
C1180 C1183 1.386 . S
H1181 C1197 0.930 1_554 S
H1182 C1198 0.931 . S
C1183 H1171 0.929 . S
C1183 C1177 1.390 . S
C1183 C1180 1.386 . S
C1184 C1179 1.490 . S
C1184 C1186 1.395 . S
C1184 C1187 1.403 . S
H1185 C1191 0.930 . S
C1186 H1172 0.930 . S
C1186 C1184 1.395 . S
C1186 C1189 1.403 . S
C1187 C1184 1.403 . S
C1187 C1188 1.524 . S
C1187 C1191 1.400 . S
C1188 H1173 0.960 . S
C1188 H1174 0.960 . S
C1188 H1175 0.960 . S
C1188 C1187 1.524 . S
C1189 C1186 1.403 . S
C1189 C1190 1.392 . S
C1189 C1193 1.495 1_655 S
C1190 C1189 1.392 . S
C1190 C1191 1.385 . S
C1190 C1192 1.478 . S
C1191 H1185 0.930 . S
C1191 C1187 1.400 . S
C1191 C1190 1.385 . S
C1192 C1190 1.478 . S
C1192 C1194 1.381 . S
C1192 C1198 1.383 . S
C1193 C1189 1.495 1_455 S
C1193 H1199 0.959 . S
C1193 H1200 0.961 . S
C1193 H1201 0.960 . S
C1194 C1192 1.381 . S
C1194 C1195 1.394 . S
C1194 H1202 0.930 . S
C1195 C1194 1.394 . S
C1195 C1196 1.383 . S
C1195 H1203 0.929 . S
C1196 C1195 1.383 . S
C1196 C1197 1.377 . S
C1197 H1181 0.930 1_556 S
C1197 C1196 1.377 . S
C1197 C1198 1.379 . S
C1198 H1182 0.931 . S
C1198 C1192 1.383 . S
C1198 C1197 1.379 . S
H1199 C1193 0.959 . S
H1200 C1193 0.961 . S
H1201 C1193 0.960 . S
H1202 C1194 0.930 . S
H1203 C1195 0.929 . S
H1204 C1212 0.929 . S
H1205 C1214 0.930 . S
H1206 C1216 0.930 . S
H1207 C1219 0.929 . S
H1208 C1222 0.930 . S
H1209 C1224 0.960 . S
H1210 C1224 0.960 . S
H1211 C1224 0.960 . S
C1212 H1204 0.929 . S
C1212 C1213 1.377 . S
C1212 C1214 1.384 . S
C1213 C1212 1.377 . S
C1213 C1219 1.390 . S
C1214 H1205 0.930 . S
C1214 C1212 1.384 . S
C1214 C1215 1.372 . S
C1215 C1214 1.372 . S
C1215 C1216 1.400 . S
C1215 C1220 1.490 . S
C1216 H1206 0.930 . S
C1216 C1215 1.400 . S
C1216 C1219 1.386 . S
H1217 C1233 0.930 . S
H1218 C1234 0.931 . S
C1219 H1207 0.929 . S
C1219 C1213 1.390 . S
C1219 C1216 1.386 . S
C1220 C1215 1.490 . S
C1220 C1222 1.395 . S
C1220 C1223 1.403 . S
H1221 C1227 0.930 . S
C1222 H1208 0.930 . S
C1222 C1220 1.395 . S
C1222 C1225 1.403 . S
C1223 C1220 1.403 . S
C1223 C1224 1.524 . S
C1223 C1227 1.400 . S
C1224 H1209 0.960 . S
C1224 H1210 0.960 . S
C1224 H1211 0.960 . S
C1224 C1223 1.524 . S
C1225 C1222 1.403 . S
C1225 C1226 1.392 . S
C1225 C1229 1.495 . S
C1226 C1225 1.392 . S
C1226 C1227 1.385 . S
C1226 C1228 1.478 . S
C1227 H1221 0.930 . S
C1227 C1223 1.400 . S
C1227 C1226 1.385 . S
C1228 C1226 1.478 . S
C1228 C1230 1.381 . S
C1228 C1234 1.383 . S
C1229 C1225 1.495 . S
C1229 H1235 0.959 . S
C1229 H1236 0.961 . S
C1229 H1237 0.960 . S
C1230 C1228 1.381 . S
C1230 C1231 1.394 . S
C1230 H1238 0.930 . S
C1231 C1230 1.394 . S
C1231 C1232 1.383 . S
C1231 H1239 0.929 . S
C1232 C1231 1.383 . S
C1232 C1233 1.377 . S
C1233 H1217 0.930 . S
C1233 C1232 1.377 . S
C1233 C1234 1.379 . S
C1234 H1218 0.931 . S
C1234 C1228 1.383 . S
C1234 C1233 1.379 . S
H1235 C1229 0.959 . S
H1236 C1229 0.961 . S
H1237 C1229 0.960 . S
H1238 C1230 0.930 . S
H1239 C1231 0.929 . S
H1240 C1248 0.929 . S
H1241 C1250 0.930 . S
H1242 C1252 0.930 . S
H1243 C1255 0.929 . S
H1244 C1258 0.930 . S
H1245 C1260 0.960 . S
H1246 C1260 0.960 . S
H1247 C1260 0.960 . S
C1248 H1240 0.929 . S
C1248 C1249 1.377 . S
C1248 C1250 1.384 . S
C1249 C1248 1.377 . S
C1249 C1255 1.390 . S
C1250 H1241 0.930 . S
C1250 C1248 1.384 . S
C1250 C1251 1.372 . S
C1251 C1250 1.372 . S
C1251 C1252 1.400 . S
C1251 C1256 1.490 . S
C1252 H1242 0.930 . S
C1252 C1251 1.400 . S
C1252 C1255 1.386 . S
H1253 C1269 0.930 . S
H1254 C1270 0.931 . S
C1255 H1243 0.929 . S
C1255 C1249 1.390 . S
C1255 C1252 1.386 . S
C1256 C1251 1.490 . S
C1256 C1258 1.395 . S
C1256 C1259 1.403 . S
H1257 C1263 0.930 . S
C1258 H1244 0.930 . S
C1258 C1256 1.395 . S
C1258 C1261 1.403 . S
C1259 C1256 1.403 . S
C1259 C1260 1.524 . S
C1259 C1263 1.400 . S
C1260 H1245 0.960 . S
C1260 H1246 0.960 . S
C1260 H1247 0.960 . S
C1260 C1259 1.524 . S
C1261 C1258 1.403 . S
C1261 C1262 1.392 . S
C1261 C1265 1.495 . S
C1262 C1261 1.392 . S
C1262 C1263 1.385 . S
C1262 C1264 1.478 . S
C1263 H1257 0.930 . S
C1263 C1259 1.400 . S
C1263 C1262 1.385 . S
C1264 C1262 1.478 . S
C1264 C1266 1.381 . S
C1264 C1270 1.383 . S
C1265 C1261 1.495 . S
C1265 H1271 0.971 . S
C1265 H1272 0.961 . S
C1265 H1273 0.960 . S
C1266 C1264 1.381 . S
C1266 C1267 1.394 . S
C1266 H1274 0.930 . S
C1267 C1266 1.394 . S
C1267 C1268 1.383 . S
C1267 H1275 0.929 . S
C1268 C1267 1.383 . S
C1268 C1269 1.377 . S
C1269 H1253 0.930 . S
C1269 C1268 1.377 . S
C1269 C1270 1.379 . S
C1270 H1254 0.931 . S
C1270 C1264 1.383 . S
C1270 C1269 1.379 . S
H1271 C1265 0.971 . S
H1272 C1265 0.961 . S
H1273 C1265 0.960 . S
H1274 C1266 0.930 . S
H1275 C1267 0.929 . S
H1276 C1284 0.929 . S
H1277 C1286 0.930 . S
H1278 C1288 0.930 . S
H1279 C1291 0.929 . S
H1280 C1294 0.930 . S
H1281 C1296 0.960 . S
H1282 C1296 0.960 . S
H1283 C1296 0.960 . S
C1284 H1276 0.929 . S
C1284 C1285 1.377 . S
C1284 C1286 1.384 . S
C1285 C1284 1.377 . S
C1285 C1291 1.390 . S
C1286 H1277 0.930 . S
C1286 C1284 1.384 . S
C1286 C1287 1.372 . S
C1287 C1286 1.372 . S
C1287 C1288 1.400 . S
C1287 C1292 1.490 . S
C1288 H1278 0.930 . S
C1288 C1287 1.400 . S
C1288 C1291 1.386 . S
H1289 C1305 0.930 . S
H1290 C1306 0.931 . S
C1291 H1279 0.929 . S
C1291 C1285 1.390 . S
C1291 C1288 1.386 . S
C1292 C1287 1.490 . S
C1292 C1294 1.395 . S
C1292 C1295 1.403 . S
H1293 C1299 0.930 . S
C1294 H1280 0.930 . S
C1294 C1292 1.395 . S
C1294 C1297 1.403 . S
C1295 C1292 1.403 . S
C1295 C1296 1.524 . S
C1295 C1299 1.400 . S
C1296 H1281 0.960 . S
C1296 H1282 0.960 . S
C1296 H1283 0.960 . S
C1296 C1295 1.524 . S
C1297 C1294 1.403 . S
C1297 C1298 1.392 . S
C1297 C1301 1.495 . S
C1298 C1297 1.392 . S
C1298 C1299 1.385 . S
C1298 C1300 1.478 . S
C1299 H1293 0.930 . S
C1299 C1295 1.400 . S
C1299 C1298 1.385 . S
C1300 C1298 1.478 . S
C1300 C1302 1.381 . S
C1300 C1306 1.383 . S
C1301 C1297 1.495 . S
C1301 H1307 0.959 . S
C1301 H1308 0.961 . S
C1301 H1309 0.960 . S
C1302 C1300 1.381 . S
C1302 C1303 1.394 . S
C1302 H1310 0.930 . S
C1303 C1302 1.394 . S
C1303 C1304 1.383 . S
C1303 H1311 0.929 . S
C1304 C1303 1.383 . S
C1304 C1305 1.377 . S
C1305 H1289 0.930 . S
C1305 C1304 1.377 . S
C1305 C1306 1.379 . S
C1306 H1290 0.931 . S
C1306 C1300 1.383 . S
C1306 C1305 1.379 . S
H1307 C1301 0.959 . S
H1308 C1301 0.961 . S
H1309 C1301 0.960 . S
H1310 C1302 0.930 . S
H1311 C1303 0.929 . S
C457 C1 2.338 . S
C476 C312 2.344 . S
C493 C40 2.273 . S
C512 C354 2.288 . S
C548 C384 0.989 . S
C529 C99 0.977 . S
C565 C118 1.027 . S
C584 C418 1.048 . S
C620 C375 1.892 . S
C601 C16 1.879 . S
C656 C329 1.877 . S
C637 C60 1.860 . S
C692 C422 1.380 . S
C673 C79 1.361 . S
C728 C388 1.378 . S
C709 C138 1.370 . S
C745 C21 2.219 . S
C764 C443 2.227 . S
C800 C350 1.123 . S
C781 C94 1.116 . S
C817 C133 1.095 . S
C836 C325 1.102 . S
C853 C55 2.179 . S
C872 C409 2.190 . S
C908 C341 2.348 . S
C889 C157 2.339 . S
C925 C196 2.278 . S
C944 C363 2.284 . S
C961 C255 0.969 . S
C980 C393 0.989 . S
C997 C289 1.023 . S
C1016 C427 1.008 . S
C1033 C172 1.882 . S
C1052 C346 1.890 . S
C1088 C320 1.869 . S
C1069 C216 1.870 . S
C1124 C431 1.371 . S
C1105 C235 1.358 . S
C1160 C397 1.379 . S
C1141 C294 1.363 . S
C1177 C177 2.209 . S
C1196 C414 2.220 . S
C1232 C359 1.135 . S
C1213 C250 1.122 . S
C1268 C316 1.107 . S
C1249 C274 1.092 . S
C1285 C211 2.174 . S
C1304 C380 2.185 . S
