# Generated by pormake.
# Topology bwt, (3,3)-cn, num edge types: 1
# Building blocks:
#     Node 0, Type 0, BuildingBlock: WUSLED_clean_sbu_0, # of connection points: 3
#     Node 1, Type 0, BuildingBlock: WUSLED_clean_sbu_0, # of connection points: 3
#     Node 2, Type 0, BuildingBlock: WUSLED_clean_sbu_0, # of connection points: 3
#     Node 3, Type 0, BuildingBlock: WUSLED_clean_sbu_0, # of connection points: 3
#     Node 4, Type 0, BuildingBlock: WUSLED_clean_sbu_0, # of connection points: 3
#     Node 5, Type 0, BuildingBlock: WUSLED_clean_sbu_0, # of connection points: 3
#     Node 6, Type 0, BuildingBlock: WUSLED_clean_sbu_0, # of connection points: 3
#     Node 7, Type 0, BuildingBlock: WUSLED_clean_sbu_0, # of connection points: 3
#     Node 8, Type 0, BuildingBlock: WUSLED_clean_sbu_0, # of connection points: 3
#     Node 9, Type 0, BuildingBlock: WUSLED_clean_sbu_0, # of connection points: 3
#     Node 10, Type 0, BuildingBlock: WUSLED_clean_sbu_0, # of connection points: 3
#     Node 11, Type 0, BuildingBlock: WUSLED_clean_sbu_0, # of connection points: 3
#     Node 12, Type 0, BuildingBlock: WUSLED_clean_sbu_0, # of connection points: 3
#     Node 13, Type 0, BuildingBlock: WUSLED_clean_sbu_0, # of connection points: 3
#     Node 14, Type 0, BuildingBlock: WUSLED_clean_sbu_0, # of connection points: 3
#     Node 15, Type 0, BuildingBlock: WUSLED_clean_sbu_0, # of connection points: 3
#     Node 16, Type 0, BuildingBlock: WUSLED_clean_sbu_0, # of connection points: 3
#     Node 17, Type 0, BuildingBlock: WUSLED_clean_sbu_0, # of connection points: 3
#     Node 18, Type 0, BuildingBlock: WUSLED_clean_sbu_0, # of connection points: 3
#     Node 19, Type 0, BuildingBlock: WUSLED_clean_sbu_0, # of connection points: 3
#     Node 20, Type 0, BuildingBlock: WUSLED_clean_sbu_0, # of connection points: 3
#     Node 21, Type 0, BuildingBlock: WUSLED_clean_sbu_0, # of connection points: 3
#     Node 22, Type 0, BuildingBlock: WUSLED_clean_sbu_0, # of connection points: 3
#     Node 23, Type 0, BuildingBlock: WUSLED_clean_sbu_0, # of connection points: 3
#     Node 24, Type 1, BuildingBlock: BETDAH_clean_linker_0, # of connection points: 3
#     Node 25, Type 1, BuildingBlock: BETDAH_clean_linker_0, # of connection points: 3
#     Node 26, Type 1, BuildingBlock: BETDAH_clean_linker_0, # of connection points: 3
#     Node 27, Type 1, BuildingBlock: BETDAH_clean_linker_0, # of connection points: 3
#     Node 28, Type 1, BuildingBlock: BETDAH_clean_linker_0, # of connection points: 3
#     Node 29, Type 1, BuildingBlock: BETDAH_clean_linker_0, # of connection points: 3
#     Node 30, Type 1, BuildingBlock: BETDAH_clean_linker_0, # of connection points: 3
#     Node 31, Type 1, BuildingBlock: BETDAH_clean_linker_0, # of connection points: 3
#     Node 32, Type 1, BuildingBlock: BETDAH_clean_linker_0, # of connection points: 3
#     Node 33, Type 1, BuildingBlock: BETDAH_clean_linker_0, # of connection points: 3
#     Node 34, Type 1, BuildingBlock: BETDAH_clean_linker_0, # of connection points: 3
#     Node 35, Type 1, BuildingBlock: BETDAH_clean_linker_0, # of connection points: 3
#     Node 36, Type 1, BuildingBlock: BETDAH_clean_linker_0, # of connection points: 3
#     Node 37, Type 1, BuildingBlock: BETDAH_clean_linker_0, # of connection points: 3
#     Node 38, Type 1, BuildingBlock: BETDAH_clean_linker_0, # of connection points: 3
#     Node 39, Type 1, BuildingBlock: BETDAH_clean_linker_0, # of connection points: 3
#     Node 40, Type 1, BuildingBlock: BETDAH_clean_linker_0, # of connection points: 3
#     Node 41, Type 1, BuildingBlock: BETDAH_clean_linker_0, # of connection points: 3
#     Node 42, Type 1, BuildingBlock: BETDAH_clean_linker_0, # of connection points: 3
#     Node 43, Type 1, BuildingBlock: BETDAH_clean_linker_0, # of connection points: 3
#     Node 44, Type 1, BuildingBlock: BETDAH_clean_linker_0, # of connection points: 3
#     Node 45, Type 1, BuildingBlock: BETDAH_clean_linker_0, # of connection points: 3
#     Node 46, Type 1, BuildingBlock: BETDAH_clean_linker_0, # of connection points: 3
#     Node 47, Type 1, BuildingBlock: BETDAH_clean_linker_0, # of connection points: 3
#     Edge 48, Type (0, 1), BuildingBlock: OJICUG_clean_linker_0, # of connection points: 2
#     Edge 49, Type (0, 1), BuildingBlock: OJICUG_clean_linker_0, # of connection points: 2
#     Edge 50, Type (0, 1), BuildingBlock: OJICUG_clean_linker_0, # of connection points: 2
#     Edge 51, Type (0, 1), BuildingBlock: OJICUG_clean_linker_0, # of connection points: 2
#     Edge 52, Type (0, 1), BuildingBlock: OJICUG_clean_linker_0, # of connection points: 2
#     Edge 53, Type (0, 1), BuildingBlock: OJICUG_clean_linker_0, # of connection points: 2
#     Edge 54, Type (0, 1), BuildingBlock: OJICUG_clean_linker_0, # of connection points: 2
#     Edge 55, Type (0, 1), BuildingBlock: OJICUG_clean_linker_0, # of connection points: 2
#     Edge 56, Type (0, 1), BuildingBlock: OJICUG_clean_linker_0, # of connection points: 2
#     Edge 57, Type (0, 1), BuildingBlock: OJICUG_clean_linker_0, # of connection points: 2
#     Edge 58, Type (0, 1), BuildingBlock: OJICUG_clean_linker_0, # of connection points: 2
#     Edge 59, Type (0, 1), BuildingBlock: OJICUG_clean_linker_0, # of connection points: 2
#     Edge 60, Type (0, 1), BuildingBlock: OJICUG_clean_linker_0, # of connection points: 2
#     Edge 61, Type (0, 1), BuildingBlock: OJICUG_clean_linker_0, # of connection points: 2
#     Edge 62, Type (0, 1), BuildingBlock: OJICUG_clean_linker_0, # of connection points: 2
#     Edge 63, Type (0, 1), BuildingBlock: OJICUG_clean_linker_0, # of connection points: 2
#     Edge 64, Type (0, 1), BuildingBlock: OJICUG_clean_linker_0, # of connection points: 2
#     Edge 65, Type (0, 1), BuildingBlock: OJICUG_clean_linker_0, # of connection points: 2
#     Edge 66, Type (0, 1), BuildingBlock: OJICUG_clean_linker_0, # of connection points: 2
#     Edge 67, Type (0, 1), BuildingBlock: OJICUG_clean_linker_0, # of connection points: 2
#     Edge 68, Type (0, 1), BuildingBlock: OJICUG_clean_linker_0, # of connection points: 2
#     Edge 69, Type (0, 1), BuildingBlock: OJICUG_clean_linker_0, # of connection points: 2
#     Edge 70, Type (0, 1), BuildingBlock: OJICUG_clean_linker_0, # of connection points: 2
#     Edge 71, Type (0, 1), BuildingBlock: OJICUG_clean_linker_0, # of connection points: 2
#     Edge 72, Type (0, 1), BuildingBlock: OJICUG_clean_linker_0, # of connection points: 2
#     Edge 73, Type (0, 1), BuildingBlock: OJICUG_clean_linker_0, # of connection points: 2
#     Edge 74, Type (0, 1), BuildingBlock: OJICUG_clean_linker_0, # of connection points: 2
#     Edge 75, Type (0, 1), BuildingBlock: OJICUG_clean_linker_0, # of connection points: 2
#     Edge 76, Type (0, 1), BuildingBlock: OJICUG_clean_linker_0, # of connection points: 2
#     Edge 77, Type (0, 1), BuildingBlock: OJICUG_clean_linker_0, # of connection points: 2
#     Edge 78, Type (0, 1), BuildingBlock: OJICUG_clean_linker_0, # of connection points: 2
#     Edge 79, Type (0, 1), BuildingBlock: OJICUG_clean_linker_0, # of connection points: 2
#     Edge 80, Type (0, 1), BuildingBlock: OJICUG_clean_linker_0, # of connection points: 2
#     Edge 81, Type (0, 1), BuildingBlock: OJICUG_clean_linker_0, # of connection points: 2
#     Edge 82, Type (0, 1), BuildingBlock: OJICUG_clean_linker_0, # of connection points: 2
#     Edge 83, Type (0, 1), BuildingBlock: OJICUG_clean_linker_0, # of connection points: 2
#     Edge 84, Type (0, 1), BuildingBlock: OJICUG_clean_linker_0, # of connection points: 2
#     Edge 85, Type (0, 1), BuildingBlock: OJICUG_clean_linker_0, # of connection points: 2
#     Edge 86, Type (0, 1), BuildingBlock: OJICUG_clean_linker_0, # of connection points: 2
#     Edge 87, Type (0, 1), BuildingBlock: OJICUG_clean_linker_0, # of connection points: 2
#     Edge 88, Type (0, 1), BuildingBlock: OJICUG_clean_linker_0, # of connection points: 2
#     Edge 89, Type (0, 1), BuildingBlock: OJICUG_clean_linker_0, # of connection points: 2
#     Edge 90, Type (0, 1), BuildingBlock: OJICUG_clean_linker_0, # of connection points: 2
#     Edge 91, Type (0, 1), BuildingBlock: OJICUG_clean_linker_0, # of connection points: 2
#     Edge 92, Type (0, 1), BuildingBlock: OJICUG_clean_linker_0, # of connection points: 2
#     Edge 93, Type (0, 1), BuildingBlock: OJICUG_clean_linker_0, # of connection points: 2
#     Edge 94, Type (0, 1), BuildingBlock: OJICUG_clean_linker_0, # of connection points: 2
#     Edge 95, Type (0, 1), BuildingBlock: OJICUG_clean_linker_0, # of connection points: 2
#     Edge 96, Type (0, 1), BuildingBlock: OJICUG_clean_linker_0, # of connection points: 2
#     Edge 97, Type (0, 1), BuildingBlock: OJICUG_clean_linker_0, # of connection points: 2
#     Edge 98, Type (0, 1), BuildingBlock: OJICUG_clean_linker_0, # of connection points: 2
#     Edge 99, Type (0, 1), BuildingBlock: OJICUG_clean_linker_0, # of connection points: 2
#     Edge 100, Type (0, 1), BuildingBlock: OJICUG_clean_linker_0, # of connection points: 2
#     Edge 101, Type (0, 1), BuildingBlock: OJICUG_clean_linker_0, # of connection points: 2
#     Edge 102, Type (0, 1), BuildingBlock: OJICUG_clean_linker_0, # of connection points: 2
#     Edge 103, Type (0, 1), BuildingBlock: OJICUG_clean_linker_0, # of connection points: 2
#     Edge 104, Type (0, 1), BuildingBlock: OJICUG_clean_linker_0, # of connection points: 2
#     Edge 105, Type (0, 1), BuildingBlock: OJICUG_clean_linker_0, # of connection points: 2
#     Edge 106, Type (0, 1), BuildingBlock: OJICUG_clean_linker_0, # of connection points: 2
#     Edge 107, Type (0, 1), BuildingBlock: OJICUG_clean_linker_0, # of connection points: 2
#     Edge 108, Type (0, 1), BuildingBlock: OJICUG_clean_linker_0, # of connection points: 2
#     Edge 109, Type (0, 1), BuildingBlock: OJICUG_clean_linker_0, # of connection points: 2
#     Edge 110, Type (0, 1), BuildingBlock: OJICUG_clean_linker_0, # of connection points: 2
#     Edge 111, Type (0, 1), BuildingBlock: OJICUG_clean_linker_0, # of connection points: 2
#     Edge 112, Type (0, 1), BuildingBlock: OJICUG_clean_linker_0, # of connection points: 2
#     Edge 113, Type (0, 1), BuildingBlock: OJICUG_clean_linker_0, # of connection points: 2
#     Edge 114, Type (0, 1), BuildingBlock: OJICUG_clean_linker_0, # of connection points: 2
#     Edge 115, Type (0, 1), BuildingBlock: OJICUG_clean_linker_0, # of connection points: 2
#     Edge 116, Type (0, 1), BuildingBlock: OJICUG_clean_linker_0, # of connection points: 2
#     Edge 117, Type (0, 1), BuildingBlock: OJICUG_clean_linker_0, # of connection points: 2
#     Edge 118, Type (0, 1), BuildingBlock: OJICUG_clean_linker_0, # of connection points: 2
#     Edge 119, Type (0, 1), BuildingBlock: OJICUG_clean_linker_0, # of connection points: 2
# Relax obj value: 0.116
# Max RMSD: 0.176
# Mean RMSD: 0.087
data_MOF--net-bwt--node1-WUSLED_clean_sbu_0--node2-BETDAH_clean_linker_0--edge1-OJICUG_clean_linker_0
_symmetry_space_group_name_H-M    P1
_symmetry_Int_Tables_number       1
_symmetry_cell_setting            triclinic
loop_
_symmetry_equiv_pos_as_xyz
'x, y, z'
_cell_length_a     54.24957
_cell_length_b     54.248653
_cell_length_c     54.24599
_cell_angle_alpha  95.134486
_cell_angle_beta   95.139836
_cell_angle_gamma 95.163778
loop_
_atom_site_label
_atom_site_type_symbol
_atom_site_fract_x
_atom_site_fract_y
_atom_site_fract_z
_atom_type_partial_charge
C0 C 0.36693 0.6395 0.34915 0.0
C1 C 0.38615 0.63664 0.36748 0.0
C2 C 0.41703 0.64448 0.33842 0.0
C3 C 0.41094 0.6391 0.36217 0.0
C4 C 0.39764 0.6471 0.32004 0.0
C5 C 0.37279 0.64462 0.32538 0.0
U6 U 0.32012 0.62145 0.39303 0.0
O7 O 0.29035 0.64138 0.40818 0.0
O8 O 0.28138 0.60452 0.38745 0.0
C9 C 0.2728 0.62388 0.39893 0.0
C10 C 0.34093 0.6379 0.3551 0.0
C11 C 0.25002 0.63229 0.387 0.0
C12 C 0.22599 0.64598 0.35162 0.0
C13 C 0.24848 0.63919 0.36263 0.0
C14 C 0.20673 0.63949 0.38943 0.0
C15 C 0.20475 0.64598 0.36484 0.0
C16 C 0.22912 0.63275 0.40034 0.0
C17 C 0.34339 0.59257 0.45103 0.0
C18 C 0.3163 0.57027 0.47666 0.0
C19 C 0.35615 0.59069 0.49485 0.0
C20 C 0.36104 0.59839 0.4717 0.0
C21 C 0.33349 0.57696 0.49773 0.0
C22 C 0.32111 0.57815 0.45358 0.0
C23 C 0.34791 0.60278 0.42741 0.0
O24 O 0.32988 0.61524 0.35452 0.0
O25 O 0.33692 0.65239 0.37477 0.0
O26 O 0.34589 0.6267 0.42724 0.0
O27 O 0.33734 0.58961 0.40705 0.0
H28 H 0.38197 0.63267 0.38597 0.0
H29 H 0.42536 0.63655 0.37657 0.0
H30 H 0.40168 0.65153 0.30167 0.0
H31 H 0.35821 0.64707 0.31107 0.0
H32 H 0.2252 0.65108 0.33274 0.0
H33 H 0.26451 0.63905 0.35209 0.0
H34 H 0.19074 0.6388 0.40004 0.0
H35 H 0.22997 0.62741 0.41916 0.0
H36 H 0.29883 0.55941 0.47809 0.0
H37 H 0.36968 0.59649 0.51069 0.0
H38 H 0.3783 0.60957 0.47008 0.0
H39 H 0.30715 0.57344 0.4379 0.0
C40 C 0.14267 0.32318 0.74447 0.0
C41 C 0.12865 0.34294 0.73921 0.0
C42 C 0.09199 0.31381 0.72576 0.0
C43 C 0.10363 0.33829 0.72989 0.0
C44 C 0.10584 0.2941 0.73171 0.0
C45 C 0.131 0.29876 0.74084 0.0
U46 U 0.2002 0.35775 0.78424 0.0
O47 O 0.23422 0.34268 0.79972 0.0
O48 O 0.23648 0.37087 0.77306 0.0
C49 C 0.24853 0.356 0.78653 0.0
C50 C 0.16965 0.32749 0.75243 0.0
C51 C 0.26872 0.34413 0.77516 0.0
C52 C 0.29203 0.33672 0.73941 0.0
C53 C 0.26983 0.34171 0.74928 0.0
C54 C 0.31153 0.33433 0.78096 0.0
C55 C 0.31345 0.33417 0.75527 0.0
C56 C 0.28938 0.33932 0.79079 0.0
C57 C 0.19982 0.4109 0.83255 0.0
C58 C 0.24049 0.42882 0.85152 0.0
C59 C 0.20335 0.44448 0.86594 0.0
C60 C 0.18862 0.42741 0.84842 0.0
C61 C 0.22951 0.44532 0.86775 0.0
C62 C 0.22583 0.41186 0.83415 0.0
C63 C 0.18486 0.39229 0.81449 0.0
O64 O 0.18122 0.34825 0.74667 0.0
O65 O 0.17681 0.32207 0.77496 0.0
O66 O 0.18564 0.36914 0.81969 0.0
O67 O 0.18785 0.39509 0.7911 0.0
H68 H 0.13706 0.36198 0.742 0.0
H69 H 0.09333 0.35393 0.72598 0.0
H70 H 0.0974 0.27508 0.72875 0.0
H71 H 0.14147 0.28322 0.74472 0.0
H72 H 0.29294 0.33684 0.71955 0.0
H73 H 0.25412 0.34533 0.7368 0.0
H74 H 0.32762 0.33209 0.7936 0.0
H75 H 0.28893 0.34112 0.8108 0.0
H76 H 0.26049 0.42843 0.8527 0.0
H77 H 0.19428 0.45696 0.87809 0.0
H78 H 0.16855 0.42695 0.84742 0.0
H79 H 0.23484 0.39917 0.82214 0.0
C80 C 0.75271 0.9845 0.66308 0.0
C81 C 0.77047 0.98142 0.6461 0.0
C82 C 0.80321 0.98396 0.68022 0.0
C83 C 0.7955 0.98118 0.65458 0.0
C84 C 0.78534 0.98739 0.69717 0.0
C85 C 0.76025 0.98761 0.68863 0.0
U86 U 0.7031 0.97582 0.60914 0.0
O87 O 0.66576 0.95562 0.60433 0.0
O88 O 0.67021 0.99576 0.60081 0.0
C89 C 0.65468 0.97605 0.60241 0.0
C90 C 0.72635 0.98387 0.65402 0.0
C91 C 0.63519 0.97993 0.61915 0.0
C92 C 0.61943 0.97766 0.6595 0.0
C93 C 0.63767 0.97306 0.64352 0.0
C94 C 0.59609 0.99621 0.627 0.0
C95 C 0.59851 0.9895 0.65152 0.0
C96 C 0.61426 0.99141 0.61097 0.0
C97 C 0.72415 0.96182 0.54381 0.0
C98 C 0.71564 0.93183 0.5072 0.0
C99 C 0.7226 0.97575 0.50229 0.0
C100 C 0.72602 0.98106 0.52814 0.0
C101 C 0.71747 0.95106 0.49154 0.0
C102 C 0.71902 0.93713 0.53302 0.0
C103 C 0.72896 0.96736 0.57115 0.0
O104 O 0.72085 0.00187 0.64042 0.0
O105 O 0.71594 0.96189 0.64442 0.0
O106 O 0.721 0.94988 0.58467 0.0
O107 O 0.72526 0.98984 0.58039 0.0
H108 H 0.76493 0.97904 0.62626 0.0
H109 H 0.80883 0.97888 0.64104 0.0
H110 H 0.79067 0.98934 0.71702 0.0
H111 H 0.74671 0.98993 0.70196 0.0
H112 H 0.62176 0.97192 0.67811 0.0
H113 H 0.65379 0.96429 0.65027 0.0
H114 H 0.58047 0.00573 0.62034 0.0
H115 H 0.61214 0.99701 0.59228 0.0
H116 H 0.71145 0.91263 0.49949 0.0
H117 H 0.72447 0.99096 0.49072 0.0
H118 H 0.7304 1.00025 0.53582 0.0
H119 H 0.71777 0.92181 0.54449 0.0
C120 C 0.73496 0.97053 0.31372 0.0
C121 C 0.71088 0.95576 0.28643 0.0
C122 C 0.6637 0.97392 0.31819 0.0
C123 C 0.6755 0.95738 0.28858 0.0
C124 C 0.6878 0.98899 0.34582 0.0
C125 C 0.72368 0.98733 0.34341 0.0
U126 U 0.77737 0.97376 0.26513 0.0
O127 O 0.80973 0.99967 0.26019 0.0
O128 O 0.81286 0.95937 0.25802 0.0
C129 C 0.82439 0.98177 0.25794 0.0
C130 C 0.76111 0.97264 0.30901 0.0
C131 C 0.84884 0.98647 0.27221 0.0
C132 C 0.87742 0.98103 0.30789 0.0
C133 C 0.85324 0.97854 0.29598 0.0
C134 C 0.89256 1.00052 0.2729 0.0
C135 C 0.89742 0.99153 0.29619 0.0
C136 C 0.86848 0.99799 0.26104 0.0
C137 C 0.74437 0.96769 0.19885 0.0
C138 C 0.74669 0.9897 0.16184 0.0
C139 C 0.7386 0.94482 0.15767 0.0
C140 C 0.7397 0.94511 0.18356 0.0
C141 C 0.74183 0.96715 0.14655 0.0
C142 C 0.74793 0.98999 0.18769 0.0
C143 C 0.7443 0.96784 0.22615 0.0
O144 O 0.76808 0.95292 0.29662 0.0
O145 O 0.76829 0.99343 0.29996 0.0
O146 O 0.75068 0.98932 0.23942 0.0
O147 O 0.75375 0.94916 0.23617 0.0
H148 H 0.71723 0.94721 0.26968 0.0
H149 H 0.66255 0.94924 0.27308 0.0
H150 H 0.68161 0.99899 0.3619 0.0
H151 H 0.7371 0.99656 0.35803 0.0
H152 H 0.88057 0.97414 0.32593 0.0
H153 H 0.83816 0.96978 0.30494 0.0
H154 H 0.90754 0.00833 0.26317 0.0
H155 H 0.86533 0.00424 0.24269 0.0
H156 H 0.74954 0.00719 0.1538 0.0
H157 H 0.73458 0.92719 0.14635 0.0
H158 H 0.73658 0.92767 0.19161 0.0
H159 H 0.75144 0.00776 0.19884 0.0
C160 C 0.35829 0.37394 0.64313 0.0
C161 C 0.36731 0.3902 0.62656 0.0
C162 C 0.34868 0.42441 0.64771 0.0
C163 C 0.36246 0.41517 0.62875 0.0
C164 C 0.34 0.40803 0.66449 0.0
C165 C 0.34482 0.38306 0.66223 0.0
U166 U 0.4003 0.32498 0.62427 0.0
O167 O 0.41468 0.29531 0.645 0.0
O168 O 0.39307 0.28592 0.60863 0.0
C169 C 0.40467 0.27756 0.62804 0.0
C170 C 0.36388 0.34781 0.64148 0.0
C171 C 0.39254 0.25519 0.63707 0.0
C172 C 0.35648 0.23128 0.64966 0.0
C173 C 0.36786 0.25371 0.6431 0.0
C174 C 0.39456 0.21199 0.64487 0.0
C175 C 0.36962 0.21 0.6503 0.0
C176 C 0.40585 0.23432 0.63837 0.0
C177 C 0.45856 0.34356 0.59452 0.0
C178 C 0.49221 0.31702 0.59455 0.0
C179 C 0.49247 0.35144 0.56899 0.0
C180 C 0.46996 0.35764 0.57747 0.0
C181 C 0.50391 0.33108 0.5775 0.0
C182 C 0.46971 0.32308 0.60281 0.0
C183 C 0.4353 0.35036 0.604 0.0
O184 O 0.36227 0.33614 0.61896 0.0
O185 O 0.38384 0.34376 0.65541 0.0
O186 O 0.43481 0.35 0.62812 0.0
O187 O 0.41476 0.33978 0.59123 0.0
H188 H 0.37828 0.38365 0.61202 0.0
H189 H 0.36986 0.4273 0.61582 0.0
H190 H 0.3291 0.41436 0.67915 0.0
H191 H 0.33801 0.37085 0.67542 0.0
H192 H 0.33734 0.23052 0.65398 0.0
H193 H 0.35732 0.2697 0.64226 0.0
H194 H 0.40517 0.196 0.64469 0.0
H195 H 0.42489 0.2351 0.63368 0.0
H196 H 0.50073 0.30166 0.60209 0.0
H197 H 0.50089 0.36258 0.55579 0.0
H198 H 0.46153 0.37348 0.57085 0.0
H199 H 0.46122 0.312 0.61603 0.0
C200 C 0.31169 0.73253 0.96863 0.0
C201 C 0.28664 0.70588 0.95443 0.0
C202 C 0.32446 0.66295 0.97176 0.0
C203 C 0.2929 0.67133 0.95595 0.0
C204 C 0.34983 0.68964 0.98637 0.0
C205 C 0.34326 0.72468 0.98479 0.0
U206 U 0.25865 0.76983 0.96583 0.0
O207 O 0.24825 0.80082 0.99043 0.0
O208 O 0.25033 0.80466 0.95062 0.0
C209 C 0.24683 0.81556 0.97252 0.0
C210 C 0.30438 0.75781 0.96999 0.0
C211 C 0.25901 0.84082 0.97875 0.0
C212 C 0.29507 0.87119 0.98135 0.0
C213 C 0.28445 0.84653 0.97679 0.0
C214 C 0.25507 0.88428 0.99069 0.0
C215 C 0.28037 0.89038 0.988 0.0
C216 C 0.24452 0.85972 0.98611 0.0
C217 C 0.19557 0.73181 0.95308 0.0
C218 C 0.15707 0.75116 0.95502 0.0
C219 C 0.15599 0.70642 0.94636 0.0
C220 C 0.18194 0.70849 0.94775 0.0
C221 C 0.14327 0.7277 0.95032 0.0
C222 C 0.18304 0.75319 0.95641 0.0
C223 C 0.22281 0.73351 0.95591 0.0
O224 O 0.29344 0.76394 0.94911 0.0
O225 O 0.29227 0.76344 0.98926 0.0
O226 O 0.23323 0.74079 0.9785 0.0
O227 O 0.23386 0.7444 0.9386 0.0
H228 H 0.26889 0.71027 0.94619 0.0
H229 H 0.27843 0.65688 0.94856 0.0
H230 H 0.36714 0.6853 0.99567 0.0
H231 H 0.35676 0.73947 0.99352 0.0
H232 H 0.31465 0.87529 0.97932 0.0
H233 H 0.29592 0.83203 0.97129 0.0
H234 H 0.24311 0.8986 0.99533 0.0
H235 H 0.22484 0.85556 0.9877 0.0
H236 H 0.14786 0.76785 0.95846 0.0
H237 H 0.14588 0.68814 0.94242 0.0
H238 H 0.19139 0.69183 0.94503 0.0
H239 H 0.19337 0.77136 0.96058 0.0
C240 C 0.74473 0.14596 0.31749 0.0
C241 C 0.76119 0.12746 0.31875 0.0
C242 C 0.72693 0.09529 0.30571 0.0
C243 C 0.75238 0.10236 0.31281 0.0
C244 C 0.71061 0.11394 0.30424 0.0
C245 C 0.71945 0.13901 0.31 0.0
U246 U 0.7859 0.20052 0.35567 0.0
O247 O 0.80254 0.23523 0.34286 0.0
O248 O 0.77566 0.23654 0.37087 0.0
C249 C 0.78951 0.24918 0.35672 0.0
C250 C 0.75328 0.17256 0.32386 0.0
C251 C 0.77856 0.26997 0.34554 0.0
C252 C 0.74331 0.29394 0.33815 0.0
C253 C 0.75275 0.27153 0.34311 0.0
C254 C 0.78515 0.31279 0.33589 0.0
C255 C 0.75952 0.31512 0.33561 0.0
C256 C 0.79456 0.29043 0.34088 0.0
C257 C 0.83415 0.19522 0.40803 0.0
C258 C 0.85213 0.23384 0.43167 0.0
C259 C 0.87145 0.19579 0.4366 0.0
C260 C 0.85293 0.18272 0.41939 0.0
C261 C 0.87141 0.22159 0.44274 0.0
C262 C 0.83378 0.22082 0.41447 0.0
C263 C 0.81561 0.18215 0.38859 0.0
O264 O 0.74792 0.18234 0.34556 0.0
O265 O 0.77589 0.17995 0.3188 0.0
O266 O 0.82088 0.1844 0.36565 0.0
O267 O 0.79238 0.18555 0.39181 0.0
H268 H 0.78077 0.13236 0.32459 0.0
H269 H 0.76537 0.08843 0.31453 0.0
H270 H 0.69095 0.10913 0.29872 0.0
H271 H 0.70646 0.15301 0.3088 0.0
H272 H 0.7235 0.29515 0.33821 0.0
H273 H 0.73999 0.25597 0.34656 0.0
H274 H 0.79806 0.32868 0.33367 0.0
H275 H 0.81452 0.28962 0.34264 0.0
H276 H 0.85177 0.25373 0.43551 0.0
H277 H 0.88598 0.1858 0.44484 0.0
H278 H 0.85356 0.16298 0.41461 0.0
H279 H 0.81957 0.23088 0.40572 0.0
C280 C 0.66389 0.75678 0.9953 0.0
C281 C 0.64839 0.77607 0.99413 0.0
C282 C 0.68459 0.80639 0.99614 0.0
C283 C 0.65865 0.80067 0.99461 0.0
C284 C 0.70004 0.78698 0.99772 0.0
C285 C 0.68974 0.76235 0.99731 0.0
U286 U 0.60764 0.7098 0.98117 0.0
O287 O 0.603 0.67315 0.95942 0.0
O288 O 0.59583 0.67631 0.99871 0.0
C289 C 0.59861 0.66133 0.97893 0.0
C290 C 0.65308 0.73082 0.99307 0.0
C291 C 0.61442 0.64127 0.98337 0.0
C292 C 0.65253 0.6273 0.00174 0.0
C293 C 0.63747 0.64638 0.99765 0.0
C294 C 0.62187 0.59781 0.97691 0.0
C295 C 0.64494 0.60276 0.99141 0.0
C296 C 0.60673 0.61693 0.97296 0.0
C297 C 0.54431 0.7334 0.96423 0.0
C298 C 0.50896 0.72245 0.93301 0.0
C299 C 0.50204 0.73362 0.97589 0.0
C300 C 0.5277 0.7374 0.9823 0.0
C301 C 0.49239 0.72601 0.9512 0.0
C302 C 0.53465 0.72612 0.93944 0.0
C303 C 0.57148 0.73753 0.97129 0.0
O304 O 0.63776 0.72534 0.00968 0.0
O305 O 0.6446 0.72172 0.97033 0.0
O306 O 0.5859 0.72967 0.9546 0.0
O307 O 0.57908 0.73287 0.99397 0.0
H308 H 0.62835 0.77202 0.99234 0.0
H309 H 0.64622 0.81512 0.99297 0.0
H310 H 0.72009 0.79083 0.99914 0.0
H311 H 0.70194 0.74763 0.99817 0.0
H312 H 0.66995 0.63175 0.01333 0.0
H313 H 0.64378 0.66513 0.00573 0.0
H314 H 0.6156 0.57923 0.96839 0.0
H315 H 0.58907 0.61273 0.9617 0.0
H316 H 0.50208 0.71641 0.91387 0.0
H317 H 0.48972 0.73688 0.99024 0.0
H318 H 0.53454 0.74346 1.00146 0.0
H319 H 0.54688 0.72315 0.92497 0.0
C320 C 0.65149 0.36054 0.377 0.0
C321 C 0.63424 0.36837 0.39311 0.0
C322 C 0.65675 0.35135 0.42753 0.0
C323 C 0.63676 0.36368 0.41809 0.0
C324 C 0.67442 0.34424 0.41148 0.0
C325 C 0.67177 0.34876 0.38641 0.0
U326 U 0.62823 0.40036 0.32814 0.0
O327 O 0.647 0.41659 0.29808 0.0
O328 O 0.61202 0.39233 0.28935 0.0
C329 C 0.63024 0.40553 0.28064 0.0
C330 C 0.64911 0.36569 0.35074 0.0
C331 C 0.63935 0.39492 0.25762 0.0
C332 C 0.64932 0.35989 0.23028 0.0
C333 C 0.64374 0.3698 0.25372 0.0
C334 C 0.64708 0.4003 0.21493 0.0
C335 C 0.65035 0.37494 0.21046 0.0
C336 C 0.64167 0.41015 0.23826 0.0
C337 C 0.59384 0.45508 0.34827 0.0
C338 C 0.5853 0.48547 0.31928 0.0
C339 C 0.57322 0.49128 0.36119 0.0
C340 C 0.58273 0.46899 0.36646 0.0
C341 C 0.57483 0.50006 0.33767 0.0
C342 C 0.59466 0.46319 0.32453 0.0
C343 C 0.60581 0.43294 0.35442 0.0
O344 O 0.62648 0.36217 0.3392 0.0
O345 O 0.66128 0.38657 0.34636 0.0
O346 O 0.62995 0.43479 0.35305 0.0
O347 O 0.5945 0.41162 0.344 0.0
H348 H 0.6188 0.37811 0.38636 0.0
H349 H 0.62313 0.36985 0.43009 0.0
H350 H 0.68999 0.33465 0.41815 0.0
H351 H 0.68553 0.34302 0.37436 0.0
H352 H 0.65164 0.34026 0.22734 0.0
H353 H 0.64203 0.35774 0.26847 0.0
H354 H 0.64807 0.41241 0.20014 0.0
H355 H 0.63841 0.42959 0.24093 0.0
H356 H 0.58741 0.49179 0.30114 0.0
H357 H 0.56501 0.50184 0.37568 0.0
H358 H 0.58191 0.4629 0.38488 0.0
H359 H 0.60332 0.45268 0.31031 0.0
C360 C 0.96763 0.31619 0.73345 0.0
C361 C 0.95317 0.29007 0.70796 0.0
C362 C 0.96959 0.32575 0.66297 0.0
C363 C 0.95411 0.29474 0.67297 0.0
C364 C 0.98442 0.35221 0.68848 0.0
C365 C 0.98346 0.34724 0.72399 0.0
U366 U 0.96898 0.26468 0.77269 0.0
O367 O 0.99511 0.25677 0.80369 0.0
O368 O 0.9552 0.25666 0.80824 0.0
C369 C 0.97762 0.25467 0.81884 0.0
C370 C 0.97004 0.30979 0.75905 0.0
C371 C 0.98367 0.26756 0.84379 0.0
C372 C 0.98506 0.30412 0.87329 0.0
C373 C 0.98098 0.29293 0.84882 0.0
C374 C 0.99539 0.26483 0.88749 0.0
C375 C 0.99191 0.29005 0.89294 0.0
C376 C 0.99131 0.25373 0.86313 0.0
C377 C 0.95892 0.19969 0.73818 0.0
C378 C 0.97844 0.16214 0.74591 0.0
C379 C 0.93504 0.15912 0.72988 0.0
C380 C 0.93653 0.18502 0.72998 0.0
C381 C 0.95601 0.14735 0.73784 0.0
C382 C 0.97986 0.18797 0.74619 0.0
C383 C 0.96015 0.22703 0.73824 0.0
O384 O 0.94995 0.29797 0.76593 0.0
O385 O 0.99023 0.29906 0.76473 0.0
O386 O 0.98221 0.23937 0.74398 0.0
O387 O 0.94238 0.2377 0.74875 0.0
H388 H 0.94527 0.27255 0.71327 0.0
H389 H 0.94671 0.27965 0.65919 0.0
H390 H 0.99363 0.36919 0.68324 0.0
H391 H 0.99246 0.36128 0.73814 0.0
H392 H 0.98244 0.32362 0.87689 0.0
H393 H 0.9752 0.30387 0.83396 0.0
H394 H 1.0002 0.25332 0.90217 0.0
H395 H 0.99344 0.2341 0.85948 0.0
H396 H 0.99513 0.15375 0.75162 0.0
H397 H 0.91743 0.14836 0.72374 0.0
H398 H 0.92013 0.19361 0.72369 0.0
H399 H 0.99745 0.19867 0.75256 0.0
C400 C 0.3223 0.74184 0.14459 0.0
C401 C 0.3417 0.73637 0.13012 0.0
C402 C 0.31193 0.72373 0.0938 0.0
C403 C 0.33655 0.72736 0.10507 0.0
C404 C 0.29258 0.72987 0.10807 0.0
C405 C 0.29772 0.73868 0.13329 0.0
U406 U 0.35577 0.78311 0.20168 0.0
O407 O 0.34105 0.79564 0.23697 0.0
O408 O 0.37242 0.77268 0.23698 0.0
C409 C 0.35675 0.78377 0.25022 0.0
C410 C 0.32715 0.74943 0.17164 0.0
C411 C 0.34729 0.76995 0.27012 0.0
C412 C 0.34124 0.73101 0.28868 0.0
C413 C 0.34388 0.74386 0.26767 0.0
C414 C 0.34317 0.77016 0.31436 0.0
C415 C 0.342 0.74406 0.31241 0.0
C416 C 0.34587 0.78298 0.29338 0.0
C417 C 0.40433 0.8357 0.20002 0.0
C418 C 0.42016 0.85741 0.24018 0.0
C419 C 0.44067 0.86603 0.20358 0.0
C420 C 0.4233 0.84868 0.189 0.0
C421 C 0.43937 0.87048 0.22941 0.0
C422 C 0.40295 0.84018 0.22569 0.0
C423 C 0.38651 0.81661 0.18542 0.0
O424 O 0.34902 0.74549 0.18229 0.0
O425 O 0.31983 0.77094 0.17962 0.0
O426 O 0.36294 0.81958 0.18745 0.0
O427 O 0.39167 0.79367 0.18761 0.0
H428 H 0.36086 0.73875 0.13819 0.0
H429 H 0.35193 0.7233 0.09444 0.0
H430 H 0.27345 0.72729 0.09992 0.0
H431 H 0.28243 0.74268 0.14408 0.0
H432 H 0.34 0.71088 0.28655 0.0
H433 H 0.34484 0.73342 0.24986 0.0
H434 H 0.34399 0.78078 0.33236 0.0
H435 H 0.34859 0.80312 0.29565 0.0
H436 H 0.41813 0.86073 0.25984 0.0
H437 H 0.45525 0.87572 0.1947 0.0
H438 H 0.42477 0.84529 0.16923 0.0
H439 H 0.3885 0.83027 0.23458 0.0
C440 C 0.97765 0.66815 0.75483 0.0
C441 C 0.97267 0.65224 0.77315 0.0
C442 C 0.9775 0.6876 0.80473 0.0
C443 C 0.97259 0.66187 0.79788 0.0
C444 C 0.98274 0.70345 0.78629 0.0
C445 C 0.98277 0.69377 0.76149 0.0
U446 U 0.96968 0.61244 0.70702 0.0
O447 O 0.95007 0.60641 0.66942 0.0
O448 O 0.99021 0.60313 0.67476 0.0
C449 C 0.97072 0.60415 0.65878 0.0
C450 C 0.97731 0.65797 0.72881 0.0
C451 C 0.97488 0.6201 0.63869 0.0
C452 C 0.97228 0.65949 0.621 0.0
C453 C 0.96744 0.64427 0.63981 0.0
C454 C 0.9922 0.62665 0.59977 0.0
C455 C 0.98493 0.65097 0.60083 0.0
C456 C 0.98716 0.61137 0.61851 0.0
C457 C 0.95567 0.54792 0.72969 0.0
C458 C 0.92603 0.51101 0.72127 0.0
C459 C 0.97003 0.50661 0.7285 0.0
C460 C 0.97508 0.53248 0.73183 0.0
C461 C 0.94545 0.49558 0.72318 0.0
C462 C 0.93107 0.53687 0.72457 0.0
C463 C 0.96096 0.57534 0.73395 0.0
O464 O 0.99543 0.64424 0.72416 0.0
O465 O 0.95545 0.64797 0.71843 0.0
O466 O 0.94351 0.5885 0.72524 0.0
O467 O 0.98349 0.5846 0.73046 0.0
H468 H 0.9688 0.63237 0.76829 0.0
H469 H 0.96887 0.64914 0.81168 0.0
H470 H 0.98637 0.72335 0.79094 0.0
H471 H 0.98662 0.70627 0.74752 0.0
H472 H 0.9661 0.67795 0.62228 0.0
H473 H 0.95804 0.65146 0.65532 0.0
H474 H 0.00234 0.61959 0.58478 0.0
H475 H 0.9932 0.59283 0.61743 0.0
H476 H 0.90691 0.50311 0.71695 0.0
H477 H 0.98537 0.49523 0.73046 0.0
H478 H 0.9942 0.54036 0.73623 0.0
H479 H 0.91563 0.54817 0.72313 0.0
C480 C 0.63377 0.36413 0.64657 0.0
C481 C 0.61481 0.36373 0.6271 0.0
C482 C 0.58332 0.35873 0.65607 0.0
C483 C 0.58985 0.36106 0.63182 0.0
C484 C 0.60248 0.35999 0.67564 0.0
C485 C 0.62748 0.36264 0.6709 0.0
U486 U 0.68206 0.37562 0.60207 0.0
O487 O 0.72136 0.39092 0.60712 0.0
O488 O 0.71108 0.35268 0.59013 0.0
C489 C 0.72923 0.36998 0.59824 0.0
C490 C 0.65992 0.36465 0.64126 0.0
C491 C 0.75078 0.36165 0.61248 0.0
C492 C 0.77062 0.34704 0.6497 0.0
C493 C 0.74935 0.35384 0.63632 0.0
C494 C 0.7946 0.35517 0.61521 0.0
C495 C 0.79362 0.34794 0.63941 0.0
C496 C 0.7734 0.36192 0.60192 0.0
C497 C 0.66144 0.39845 0.53989 0.0
C498 C 0.6896 0.41751 0.51312 0.0
C499 C 0.64905 0.3982 0.49567 0.0
C500 C 0.64379 0.39206 0.51928 0.0
C501 C 0.67212 0.41087 0.49226 0.0
C502 C 0.68439 0.41121 0.53663 0.0
C503 C 0.65592 0.39125 0.56451 0.0
O504 O 0.66412 0.34795 0.62349 0.0
O505 O 0.67133 0.38675 0.63947 0.0
O506 O 0.66649 0.40611 0.58377 0.0
O507 O 0.65697 0.36762 0.5675 0.0
H508 H 0.61932 0.36481 0.60814 0.0
H509 H 0.57567 0.36005 0.61636 0.0
H510 H 0.59818 0.3587 0.69462 0.0
H511 H 0.64188 0.36294 0.68615 0.0
H512 H 0.76913 0.34139 0.66819 0.0
H513 H 0.73193 0.35336 0.64468 0.0
H514 H 0.81198 0.35662 0.60682 0.0
H515 H 0.77482 0.36788 0.58351 0.0
H516 H 0.7074 0.4276 0.51132 0.0
H517 H 0.63533 0.3924 0.48 0.0
H518 H 0.62605 0.38197 0.5214 0.0
H519 H 0.6984 0.41624 0.55223 0.0
C520 C 0.86668 0.663 0.27522 0.0
C521 C 0.88273 0.6738 0.25932 0.0
C522 C 0.91839 0.67281 0.28992 0.0
C523 C 0.90824 0.67872 0.26662 0.0
C524 C 0.90223 0.66214 0.30584 0.0
C525 C 0.87669 0.65739 0.2986 0.0
U526 U 0.81205 0.6299 0.23155 0.0
O527 O 0.77643 0.61096 0.23907 0.0
O528 O 0.77672 0.6432 0.21725 0.0
C529 C 0.76319 0.62643 0.2276 0.0
C530 C 0.8396 0.65744 0.26787 0.0
C531 C 0.74175 0.63469 0.23984 0.0
C532 C 0.71984 0.64119 0.27669 0.0
C533 C 0.74187 0.63753 0.26582 0.0
C534 C 0.69773 0.64069 0.23581 0.0
C535 C 0.69733 0.64201 0.26178 0.0
C536 C 0.71972 0.63703 0.22499 0.0
C537 C 0.82295 0.58702 0.17566 0.0
C538 C 0.7885 0.56012 0.15303 0.0
C539 C 0.82666 0.56846 0.13386 0.0
C540 C 0.83694 0.58337 0.15537 0.0
C541 C 0.80222 0.55686 0.13238 0.0
C542 C 0.79872 0.57515 0.17441 0.0
C543 C 0.83316 0.60408 0.19754 0.0
O544 O 0.83074 0.66625 0.24742 0.0
O545 O 0.83031 0.63454 0.26988 0.0
O546 O 0.82902 0.59623 0.21916 0.0
O547 O 0.82914 0.62748 0.19617 0.0
H548 H 0.87565 0.67846 0.24119 0.0
H549 H 0.91998 0.68733 0.25402 0.0
H550 H 0.90934 0.65701 0.32376 0.0
H551 H 0.86475 0.6491 0.31123 0.0
H552 H 0.72026 0.64252 0.29677 0.0
H553 H 0.7587 0.63591 0.27766 0.0
H554 H 0.68076 0.64097 0.22374 0.0
H555 H 0.71922 0.6348 0.20489 0.0
H556 H 0.76949 0.55184 0.15232 0.0
H557 H 0.83769 0.56624 0.11828 0.0
H558 H 0.85565 0.59244 0.15599 0.0
H559 H 0.78749 0.57795 0.18978 0.0
C560 C 0.24344 0.99072 0.3595 0.0
C561 C 0.2263 0.97082 0.36361 0.0
C562 C 0.19226 0.99168 0.3455 0.0
C563 C 0.20099 0.9713 0.35663 0.0
C564 C 0.20957 0.01058 0.3396 0.0
C565 C 0.23494 0.01005 0.34646 0.0
U566 U 0.2867 0.00178 0.41815 0.0
O567 O 0.32011 0.98472 0.43131 0.0
O568 O 0.32212 0.02493 0.42811 0.0
C569 C 0.3345 0.00565 0.43198 0.0
C570 C 0.26929 0.99306 0.37133 0.0
C571 C 0.35681 0.00388 0.4188 0.0
C572 C 0.37839 0.00839 0.38194 0.0
C573 C 0.3575 0.01135 0.39474 0.0
C574 C 0.39807 0.99033 0.41703 0.0
C575 C 0.39873 0.9976 0.39286 0.0
C576 C 0.37726 0.99354 0.42994 0.0
C577 C 0.26035 0.01318 0.47902 0.0
C578 C 0.2896 0.01941 0.51601 0.0
C579 C 0.24718 0.02958 0.51826 0.0
C580 C 0.24178 0.02187 0.49288 0.0
C581 C 0.27125 0.02867 0.53 0.0
C582 C 0.28421 0.01179 0.49075 0.0
C583 C 0.25568 0.00746 0.45203 0.0
O584 O 0.27754 0.01544 0.38181 0.0
O585 O 0.27517 0.97532 0.38515 0.0
O586 O 0.26164 0.98557 0.44342 0.0
O587 O 0.26364 0.02555 0.4393 0.0
H588 H 0.2322 0.95542 0.37329 0.0
H589 H 0.18813 0.95615 0.36086 0.0
H590 H 0.20343 0.02656 0.33104 0.0
H591 H 0.24777 0.0255 0.34286 0.0
H592 H 0.37831 0.01382 0.36319 0.0
H593 H 0.34175 0.01909 0.38569 0.0
H594 H 0.41358 0.98206 0.42587 0.0
H595 H 0.37696 0.98759 0.44846 0.0
H596 H 0.30842 0.0189 0.52436 0.0
H597 H 0.23264 0.03648 0.52862 0.0
H598 H 0.22331 0.02319 0.484 0.0
H599 H 0.29886 0.00543 0.48019 0.0
C600 C 0.28531 0.0028 0.74254 0.0
C601 C 0.29769 0.02688 0.7478 0.0
C602 C 0.3374 0.00959 0.75441 0.0
C603 C 0.3235 0.03022 0.75368 0.0
C604 C 0.32469 0.98558 0.75099 0.0
C605 C 0.29896 0.98224 0.74498 0.0
U606 U 0.21386 0.00412 0.74192 0.0
O607 O 0.18518 0.97592 0.72294 0.0
O608 O 0.18766 0.01391 0.71179 0.0
C609 C 0.17469 0.99204 0.70976 0.0
C610 C 0.2593 0.99864 0.73111 0.0
C611 C 0.14788 0.99271 0.71129 0.0
C612 C 0.10661 0.99517 0.69098 0.0
C613 C 0.13203 0.99356 0.68961 0.0
C614 C 0.11261 0.99463 0.73575 0.0
C615 C 0.09667 0.99585 0.71408 0.0
C616 C 0.13804 0.99321 0.73438 0.0
C617 C 0.22348 0.02923 0.81049 0.0
C618 C 0.22689 0.03778 0.85533 0.0
C619 C 0.26408 0.03428 0.8341 0.0
C620 C 0.24945 0.03001 0.81126 0.0
C621 C 0.25291 0.03764 0.85647 0.0
C622 C 0.21235 0.03362 0.83253 0.0
C623 C 0.20758 0.02182 0.78726 0.0
O624 O 0.24492 0.98085 0.73913 0.0
O625 O 0.2479 0.01844 0.72678 0.0
O626 O 0.21056 0.036 0.76911 0.0
O627 O 0.20576 0.99793 0.77992 0.0
H628 H 0.28772 0.04316 0.74612 0.0
H629 H 0.3327 0.04896 0.75652 0.0
H630 H 0.33478 0.96924 0.75103 0.0
H631 H 0.28997 0.96349 0.74072 0.0
H632 H 0.09472 0.99591 0.67397 0.0
H633 H 0.13935 0.99322 0.67165 0.0
H634 H 0.10553 0.99547 0.75382 0.0
H635 H 0.15008 0.9928 0.75136 0.0
H636 H 0.21758 0.03984 0.87213 0.0
H637 H 0.28406 0.03432 0.83429 0.0
H638 H 0.25831 0.02659 0.79432 0.0
H639 H 0.19229 0.0329 0.83221 0.0
C640 C 0.65185 0.63691 0.36317 0.0
C641 C 0.63322 0.61875 0.36792 0.0
C642 C 0.66115 0.58646 0.362 0.0
C643 C 0.63785 0.59378 0.36738 0.0
C644 C 0.68001 0.60488 0.358 0.0
C645 C 0.67538 0.62991 0.35862 0.0
U646 U 0.60771 0.68526 0.37411 0.0
O647 O 0.61281 0.72499 0.38756 0.0
O648 O 0.59379 0.71294 0.35041 0.0
C649 C 0.60257 0.73181 0.36666 0.0
C650 C 0.64624 0.6628 0.36174 0.0
C651 C 0.61586 0.75308 0.35682 0.0
C652 C 0.65305 0.77383 0.34301 0.0
C653 C 0.6402 0.75242 0.35015 0.0
C654 C 0.61699 0.79633 0.3483 0.0
C655 C 0.64176 0.79624 0.34249 0.0
C656 C 0.60422 0.77498 0.35536 0.0
C657 C 0.54913 0.66436 0.40389 0.0
C658 C 0.51569 0.69067 0.40879 0.0
C659 C 0.51353 0.65038 0.42491 0.0
C660 C 0.53655 0.64637 0.4164 0.0
C661 C 0.5026 0.67245 0.42091 0.0
C662 C 0.53877 0.68668 0.40041 0.0
C663 C 0.57294 0.65956 0.39447 0.0
O664 O 0.62716 0.66549 0.34584 0.0
O665 O 0.64602 0.67601 0.38324 0.0
O666 O 0.59271 0.67168 0.4073 0.0
O667 O 0.5735 0.65963 0.3703 0.0
H668 H 0.61493 0.62383 0.37156 0.0
H669 H 0.62314 0.58016 0.37105 0.0
H670 H 0.69807 0.59987 0.35351 0.0
H671 H 0.68992 0.64366 0.35478 0.0
H672 H 0.67199 0.77299 0.33842 0.0
H673 H 0.64944 0.73558 0.35107 0.0
H674 H 0.60778 0.81324 0.34861 0.0
H675 H 0.58544 0.77583 0.3605 0.0
H676 H 0.50775 0.70767 0.40487 0.0
H677 H 0.50429 0.63612 0.43454 0.0
H678 H 0.54446 0.62912 0.41942 0.0
H679 H 0.54829 0.70077 0.39076 0.0
C680 C 0.74516 0.28665 0.98283 0.0
C681 C 0.75215 0.29711 0.00739 0.0
C682 C 0.75089 0.33878 0.99419 0.0
C683 C 0.75501 0.32294 0.01301 0.0
C684 C 0.74551 0.32817 0.96942 0.0
C685 C 0.74266 0.30238 0.96385 0.0
U686 U 0.7502 0.21649 0.98765 0.0
O687 O 0.73963 0.18543 0.9585 0.0
O688 O 0.71946 0.18844 0.99181 0.0
C689 C 0.72351 0.17451 0.97173 0.0
C690 C 0.73706 0.25994 0.977 0.0
C691 C 0.72671 0.14834 0.97513 0.0
C692 C 0.72237 0.1049 0.95856 0.0
C693 C 0.71928 0.12981 0.95552 0.0
C694 C 0.7404 0.11686 1.0009 0.0
C695 C 0.73283 0.09809 0.98137 0.0
C696 C 0.73755 0.14172 0.99775 0.0
C697 C 0.81357 0.23219 0.02574 0.0
C698 C 0.85762 0.23827 0.03948 0.0
C699 C 0.83516 0.27378 0.03129 0.0
C700 C 0.81321 0.25794 0.02517 0.0
C701 C 0.85784 0.26402 0.03769 0.0
C702 C 0.83569 0.22256 0.03361 0.0
C703 C 0.79224 0.2148 0.01512 0.0
O704 O 0.75072 0.24681 0.96302 0.0
O705 O 0.72897 0.24826 0.99536 0.0
O706 O 0.77099 0.21712 0.0246 0.0
O707 O 0.78992 0.21143 0.99072 0.0
H708 H 0.75424 0.28536 0.02242 0.0
H709 H 0.75948 0.33049 0.03222 0.0
H710 H 0.74176 0.33967 0.95447 0.0
H711 H 0.73702 0.29471 0.94483 0.0
H712 H 0.71667 0.09102 0.943 0.0
H713 H 0.71112 0.13462 0.93783 0.0
H714 H 0.7481 0.11236 0.01887 0.0
H715 H 0.74367 0.15574 0.01311 0.0
H716 H 0.87466 0.22991 0.04387 0.0
H717 H 0.83452 0.29353 0.03007 0.0
H718 H 0.79625 0.26564 0.01897 0.0
H719 H 0.8363 0.20267 0.0339 0.0
C720 C 0.27688 0.87171 0.66463 0.0
C721 C 0.2609 0.888 0.6749 0.0
C722 C 0.29191 0.92338 0.67417 0.0
C723 C 0.26836 0.91349 0.67968 0.0
C724 C 0.30789 0.90699 0.66402 0.0
C725 C 0.30049 0.88147 0.6594 0.0
U726 U 0.2333 0.81687 0.63172 0.0
O727 O 0.24085 0.78087 0.61369 0.0
O728 O 0.21854 0.78198 0.64558 0.0
C729 C 0.22907 0.76806 0.62928 0.0
C730 C 0.26941 0.84464 0.65936 0.0
C731 C 0.24118 0.74687 0.6383 0.0
C732 C 0.2781 0.72549 0.64644 0.0
C733 C 0.26715 0.74734 0.64222 0.0
C734 C 0.23726 0.7029 0.64444 0.0
C735 C 0.26328 0.70282 0.64674 0.0
C736 C 0.22636 0.72472 0.64024 0.0
C737 C 0.17806 0.82719 0.58769 0.0
C738 C 0.15539 0.79236 0.56132 0.0
C739 C 0.13643 0.83079 0.56867 0.0
C740 C 0.1579 0.84123 0.58353 0.0
C741 C 0.13483 0.80613 0.55764 0.0
C742 C 0.17675 0.80275 0.57632 0.0
C743 C 0.19981 0.83759 0.60484 0.0
O744 O 0.24873 0.83606 0.66797 0.0
O745 O 0.2717 0.83499 0.63666 0.0
O746 O 0.22153 0.83313 0.59742 0.0
O747 O 0.19808 0.83414 0.62833 0.0
H748 H 0.24259 0.88112 0.67926 0.0
H749 H 0.2557 0.92541 0.6879 0.0
H750 H 0.32602 0.9139 0.6592 0.0
H751 H 0.31319 0.86934 0.65153 0.0
H752 H 0.2982 0.72614 0.6485 0.0
H753 H 0.27895 0.76429 0.64094 0.0
H754 H 0.22527 0.68581 0.64429 0.0
H755 H 0.20628 0.72398 0.63719 0.0
H756 H 0.15458 0.7732 0.55346 0.0
H757 H 0.12093 0.84186 0.56609 0.0
H758 H 0.15857 0.8601 0.5922 0.0
H759 H 0.19202 0.79149 0.57951 0.0
C760 C 0.36014 0.2341 0.99909 0.0
C761 C 0.37557 0.21505 0.99494 0.0
C762 C 0.3424 0.18426 0.00232 0.0
C763 C 0.36676 0.19037 0.99643 0.0
C764 C 0.3269 0.20338 0.00636 0.0
C765 C 0.33573 0.22818 0.00472 0.0
U766 U 0.41674 0.27928 0.00557 0.0
O767 O 0.42793 0.31123 0.9854 0.0
O768 O 0.42583 0.31636 0.02579 0.0
C769 C 0.4287 0.3271 0.0053 0.0
C770 C 0.37038 0.26007 0.99934 0.0
C771 C 0.41493 0.34884 0.00199 0.0
C772 C 0.37851 0.37105 0.00699 0.0
C773 C 0.39159 0.35051 0.01098 0.0
C774 C 0.41178 0.3883 0.98474 0.0
C775 C 0.38841 0.39002 0.99366 0.0
C776 C 0.42497 0.36789 0.98897 0.0
C777 C 0.47905 0.25533 0.01761 0.0
C778 C 0.51573 0.28491 0.02102 0.0
C779 C 0.51876 0.24386 0.03476 0.0
C780 C 0.49337 0.23776 0.02769 0.0
C781 C 0.53012 0.26764 0.03181 0.0
C782 C 0.4904 0.27882 0.01404 0.0
C783 C 0.45203 0.25003 0.01278 0.0
O784 O 0.38132 0.26996 0.02101 0.0
O785 O 0.38341 0.26476 0.98068 0.0
O786 O 0.44258 0.25416 0.99052 0.0
O787 O 0.43965 0.25901 0.03072 0.0
H788 H 0.39464 0.21932 0.99101 0.0
H789 H 0.3793 0.17614 0.9937 0.0
H790 H 0.30801 0.19916 0.01085 0.0
H791 H 0.32369 0.24273 0.00822 0.0
H792 H 0.3604 0.37183 0.01382 0.0
H793 H 0.38337 0.33584 0.02086 0.0
H794 H 0.41988 0.40278 0.97456 0.0
H795 H 0.44293 0.36686 0.98186 0.0
H796 H 0.52381 0.3035 0.01889 0.0
H797 H 0.52943 0.23014 0.04286 0.0
H798 H 0.48479 0.21959 0.03067 0.0
H799 H 0.4795 0.29271 0.00656 0.0
C800 C 0.36652 0.64512 0.63793 0.0
C801 C 0.36678 0.626 0.61873 0.0
C802 C 0.36334 0.65571 0.58782 0.0
C803 C 0.36525 0.63125 0.59391 0.0
C804 C 0.36377 0.6749 0.60719 0.0
C805 C 0.3654 0.66964 0.63205 0.0
U806 U 0.37577 0.59946 0.68549 0.0
O807 O 0.38995 0.60354 0.72507 0.0
O808 O 0.35171 0.58718 0.71353 0.0
C809 C 0.36859 0.59483 0.7322 0.0
C810 C 0.36603 0.63929 0.66386 0.0
C811 C 0.35993 0.60905 0.75358 0.0
C812 C 0.34554 0.6465 0.77318 0.0
C813 C 0.35228 0.63293 0.75199 0.0
C814 C 0.35338 0.61212 0.79741 0.0
C815 C 0.34637 0.63639 0.79628 0.0
C816 C 0.36005 0.59864 0.77629 0.0
C817 C 0.39872 0.5376 0.66386 0.0
C818 C 0.39796 0.50315 0.68946 0.0
C819 C 0.41904 0.50086 0.65192 0.0
C820 C 0.41248 0.52453 0.64738 0.0
C821 C 0.41184 0.48982 0.67303 0.0
C822 C 0.39156 0.52682 0.68497 0.0
C823 C 0.39209 0.5625 0.65902 0.0
O824 O 0.34893 0.62152 0.66719 0.0
O825 O 0.38775 0.63709 0.67588 0.0
O826 O 0.40685 0.5811 0.671 0.0
O827 O 0.36842 0.56571 0.65936 0.0
H828 H 0.36755 0.6069 0.62291 0.0
H829 H 0.36476 0.61607 0.57944 0.0
H830 H 0.36257 0.69396 0.6031 0.0
H831 H 0.36513 0.68461 0.64662 0.0
H832 H 0.34004 0.66503 0.77155 0.0
H833 H 0.35196 0.64121 0.73453 0.0
H834 H 0.35474 0.60386 0.81486 0.0
H835 H 0.36593 0.58022 0.77784 0.0
H836 H 0.39155 0.49512 0.70559 0.0
H837 H 0.43 0.49139 0.63903 0.0
H838 H 0.41826 0.53267 0.63104 0.0
H839 H 0.38083 0.53665 0.69787 0.0
C840 C 0.9986 0.74243 0.28518 0.0
C841 C 0.02284 0.74727 0.29725 0.0
C842 C 0.0062 0.7525 0.33745 0.0
C843 C 0.02658 0.75225 0.32315 0.0
C844 C 0.98203 0.74959 0.32509 0.0
C845 C 0.9783 0.74447 0.29927 0.0
U846 U 1.00104 0.74203 0.21373 0.0
O847 O 0.97201 0.72504 0.18484 0.0
O848 O 0.00872 0.71094 0.18749 0.0
C849 C 0.98705 0.7105 0.17441 0.0
C850 C 0.99394 0.73164 0.25899 0.0
C851 C 0.98814 0.71197 0.14766 0.0
C852 C 0.98606 0.69147 0.1058 0.0
C853 C 0.98445 0.69023 0.13125 0.0
C854 C 0.99473 0.7363 0.11295 0.0
C855 C 0.99131 0.71452 0.0964 0.0
C856 C 0.99325 0.73502 0.13839 0.0
C857 C 0.03097 0.8093 0.22298 0.0
C858 C 0.04445 0.85332 0.22506 0.0
C859 C 0.03296 0.83514 0.26216 0.0
C860 C 0.0282 0.81178 0.24852 0.0
C861 C 0.04035 0.85626 0.25033 0.0
C862 C 0.03977 0.83001 0.2115 0.0
C863 C 0.02225 0.78612 0.20747 0.0
O864 O 0.97732 0.74137 0.24465 0.0
O865 O 0.01336 0.72568 0.24772 0.0
O866 O 0.03488 0.76695 0.21098 0.0
O867 O 0.99804 0.7805 0.20538 0.0
H868 H 0.03891 0.74591 0.28691 0.0
H869 H 0.04543 0.75475 0.33207 0.0
H870 H 0.96588 0.74929 0.33547 0.0
H871 H 0.95944 0.74052 0.29048 0.0
H872 H 0.98315 0.67441 0.09347 0.0
H873 H 0.98048 0.6723 0.13814 0.0
H874 H 0.99915 0.75427 0.10632 0.0
H875 H 0.99631 0.75199 0.15087 0.0
H876 H 0.05037 0.86923 0.21556 0.0
H877 H 0.02944 0.8369 0.28155 0.0
H878 H 0.02129 0.79592 0.25761 0.0
H879 H 0.04199 0.82835 0.19178 0.0
C880 C 0.66376 0.27927 0.87392 0.0
C881 C 0.65062 0.26597 0.89043 0.0
C882 C 0.67297 0.29215 0.92579 0.0
C883 C 0.65517 0.27234 0.91612 0.0
C884 C 0.68614 0.30535 0.9091 0.0
C885 C 0.68156 0.29895 0.8834 0.0
U886 U 0.63085 0.23685 0.81917 0.0
O887 O 0.61322 0.24448 0.78302 0.0
O888 O 0.64465 0.22158 0.78443 0.0
C889 C 0.62864 0.2323 0.77035 0.0
C890 C 0.65909 0.27258 0.84688 0.0
C891 C 0.63784 0.24389 0.7489 0.0
C892 C 0.6444 0.27987 0.72574 0.0
C893 C 0.64017 0.26977 0.74805 0.0
C894 C 0.6456 0.23848 0.70537 0.0
C895 C 0.64631 0.26427 0.70391 0.0
C896 C 0.64136 0.22842 0.72764 0.0
C897 C 0.58609 0.18219 0.8299 0.0
C898 C 0.55944 0.15934 0.79539 0.0
C899 C 0.56778 0.14032 0.83363 0.0
C900 C 0.58247 0.16194 0.84395 0.0
C901 C 0.5564 0.13867 0.80911 0.0
C902 C 0.57428 0.18086 0.80564 0.0
C903 C 0.6034 0.20392 0.84006 0.0
O904 O 0.66722 0.25154 0.83873 0.0
O905 O 0.63654 0.27523 0.83707 0.0
O906 O 0.59628 0.22567 0.83528 0.0
O907 O 0.62685 0.20184 0.83673 0.0
H908 H 0.6368 0.25069 0.88343 0.0
H909 H 0.64449 0.26196 0.92838 0.0
H910 H 0.70022 0.32044 0.9159 0.0
H911 H 0.69197 0.30933 0.87092 0.0
H912 H 0.64523 0.29986 0.72535 0.0
H913 H 0.63764 0.28211 0.76426 0.0
H914 H 0.64673 0.22589 0.68894 0.0
H915 H 0.63953 0.20838 0.72788 0.0
H916 H 0.55127 0.15849 0.77633 0.0
H917 H 0.56569 0.12472 0.84467 0.0
H918 H 0.5915 0.16262 0.86267 0.0
H919 H 0.57707 0.1962 0.79437 0.0
C920 C 0.99289 0.35825 0.23611 0.0
C921 C 0.98341 0.37227 0.21757 0.0
C922 C 0.99858 0.34473 0.18584 0.0
C923 C 0.98609 0.36548 0.19267 0.0
C924 C 0.00697 0.32996 0.20429 0.0
C925 C 0.0042 0.33675 0.22932 0.0
U926 U 1.00046 0.41448 0.28149 0.0
O927 O 0.98286 0.42506 0.31535 0.0
O928 O 0.0234 0.42415 0.31706 0.0
C929 C 0.00391 0.42615 0.32962 0.0
C930 C 0.99426 0.36816 0.26232 0.0
C931 C 0.00298 0.41162 0.35111 0.0
C932 C 0.01038 0.37424 0.37094 0.0
C933 C 0.01248 0.38838 0.35083 0.0
C934 C 0.98912 0.40634 0.39173 0.0
C935 C 0.99843 0.38293 0.39152 0.0
C936 C 0.99145 0.42057 0.37171 0.0
C937 C 0.00925 0.47675 0.25662 0.0
C938 C 0.01512 0.51349 0.2862 0.0
C939 C 0.02409 0.51654 0.24351 0.0
C940 C 0.01697 0.49108 0.23798 0.0
C941 C 0.02355 0.52792 0.26779 0.0
C942 C 0.00808 0.48811 0.28067 0.0
C943 C 0.0045 0.4497 0.25167 0.0
O944 O 0.01614 0.37947 0.27109 0.0
O945 O 0.97563 0.38063 0.26847 0.0
O946 O 0.98298 0.44005 0.25763 0.0
O947 O 0.02324 0.43761 0.25922 0.0
H948 H 0.97487 0.38913 0.22238 0.0
H949 H 0.97906 0.37696 0.17881 0.0
H950 H 0.01678 0.31393 0.19953 0.0
H951 H 0.01191 0.32591 0.24343 0.0
H952 H 0.01806 0.35648 0.37031 0.0
H953 H 0.0213 0.38103 0.33499 0.0
H954 H 0.97943 0.41342 0.40705 0.0
H955 H 0.98383 0.43838 0.3721 0.0
H956 H 0.01489 0.52158 0.30516 0.0
H957 H 0.03032 0.52724 0.22892 0.0
H958 H 0.0181 0.48249 0.21936 0.0
H959 H 0.00245 0.47718 0.29536 0.0
H960 H 0.29928 0.61166 0.59221 0.0
H961 H 0.32143 0.54127 0.61094 0.0
H962 H 0.29887 0.59307 0.66763 0.0
C963 C 0.3024 0.59879 0.60609 0.0
C964 C 0.29851 0.6056 0.63087 0.0
C965 C 0.31062 0.57576 0.59882 0.0
C966 C 0.31483 0.55895 0.61659 0.0
C967 C 0.31005 0.56499 0.64145 0.0
C968 C 0.30186 0.58827 0.64838 0.0
N969 N 0.31352 0.54836 0.66002 0.0
C970 C 0.32156 0.52481 0.6559 0.0
H971 H 0.30985 0.45204 0.94134 0.0
H972 H 0.29463 0.528 0.95746 0.0
H973 H 0.35037 0.49713 0.00369 0.0
C974 C 0.31376 0.46973 0.95265 0.0
C975 C 0.33191 0.47225 0.973 0.0
C976 C 0.30005 0.48959 0.94715 0.0
C977 C 0.30514 0.51259 0.9617 0.0
C978 C 0.32352 0.51524 0.98215 0.0
C979 C 0.3363 0.49492 0.98793 0.0
N980 N 0.32943 0.53779 0.99769 0.0
C981 C 0.32802 0.5612 0.98959 0.0
H982 H 0.69356 0.88799 0.38843 0.0
H983 H 0.70909 0.96367 0.37636 0.0
H984 H 0.68625 0.90863 0.3136 0.0
C985 C 0.69551 0.90199 0.37548 0.0
C986 C 0.68974 0.89522 0.34994 0.0
C987 C 0.70225 0.92675 0.3847 0.0
C988 C 0.70361 0.94503 0.36806 0.0
C989 C 0.69807 0.93892 0.34199 0.0
C990 C 0.69102 0.91374 0.33334 0.0
N991 N 0.69843 0.957 0.32341 0.0
C992 C 0.70052 0.99131 0.30728 0.0
H993 H 0.74111 0.01093 0.04408 0.0
H994 H 0.72996 0.93126 0.02921 0.0
H995 H 0.73119 0.97735 0.96866 0.0
C996 C 0.73818 0.99437 0.031 0.0
C997 C 0.73635 0.9969 0.00544 0.0
C998 C 0.73568 0.97078 0.03981 0.0
C999 C 0.73203 0.9495 0.02258 0.0
C1000 C 0.73057 0.95186 0.99683 0.0
C1001 C 0.73262 0.97557 0.98847 0.0
N1002 N 0.72678 0.93089 0.97881 0.0
C1003 C 0.72054 0.90677 0.9844 0.0
H1004 H 0.59439 0.29561 0.60758 0.0
H1005 H 0.61826 0.32108 0.54036 0.0
H1006 H 0.67182 0.29808 0.59514 0.0
C1007 C 0.60932 0.29943 0.59603 0.0
C1008 C 0.63384 0.29615 0.60466 0.0
C1009 C 0.6037 0.30844 0.57303 0.0
C1010 C 0.62273 0.31366 0.55789 0.0
C1011 C 0.64735 0.30922 0.56555 0.0
C1012 C 0.65272 0.3005 0.58892 0.0
N1013 N 0.6672 0.31398 0.55063 0.0
C1014 C 0.66433 0.32254 0.52719 0.0
H1015 H 0.04713 0.71915 0.00163 0.0
H1016 H 0.02381 0.72855 0.92549 0.0
H1017 H 0.97043 0.72744 0.97957 0.0
C1018 C 0.03249 0.72128 0.98723 0.0
C1019 C 0.00809 0.7226 0.9935 0.0
C1020 C 0.03838 0.72359 0.96282 0.0
C1021 C 0.0194 0.72695 0.9444 0.0
C1022 C 0.99481 0.72827 0.95045 0.0
C1023 C 0.98942 0.72654 0.97505 0.0
N1024 N 0.97509 0.7311 0.93221 0.0
C1025 C 0.976 0.72453 0.907 0.0
H1026 H 0.94911 0.29979 0.44987 0.0
H1027 H 0.95962 0.28585 0.52673 0.0
H1028 H 0.00803 0.34171 0.49877 0.0
C1029 C 0.95946 0.30385 0.46805 0.0
C1030 C 0.97915 0.32281 0.4719 0.0
C1031 C 0.95253 0.29026 0.48756 0.0
C1032 C 0.96492 0.29623 0.51155 0.0
C1033 C 0.98505 0.31496 0.51543 0.0
C1034 C 0.99224 0.32769 0.49555 0.0
N1035 N 0.9993 0.32088 0.5387 0.0
C1036 C 0.98944 0.32154 0.56142 0.0
H1037 H 0.39064 0.69499 0.88608 0.0
H1038 H 0.37723 0.71435 0.96072 0.0
H1039 H 0.31602 0.6836 0.90669 0.0
C1040 C 0.37747 0.69693 0.89987 0.0
C1041 C 0.3522 0.68921 0.89321 0.0
C1042 C 0.38622 0.70552 0.92438 0.0
C1043 C 0.36933 0.70694 0.94241 0.0
C1044 C 0.34364 0.69886 0.93657 0.0
C1045 C 0.33545 0.69014 0.91163 0.0
N1046 N 0.32515 0.69781 0.95477 0.0
C1047 C 0.30989 0.69779 0.98956 0.0
H1048 H 0.6046 0.59015 0.30199 0.0
H1049 H 0.53552 0.61321 0.32307 0.0
H1050 H 0.58877 0.66613 0.29682 0.0
C1051 C 0.59255 0.6049 0.30433 0.0
C1052 C 0.6001 0.62897 0.29854 0.0
C1053 C 0.5696 0.59938 0.31341 0.0
C1054 C 0.55323 0.61774 0.31595 0.0
C1055 C 0.55993 0.64182 0.30938 0.0
C1056 C 0.58345 0.64736 0.30102 0.0
N1057 N 0.54364 0.66089 0.31122 0.0
C1058 C 0.51916 0.65699 0.31695 0.0
H1059 H 0.00277 0.05157 0.72951 0.0
H1060 H 0.92508 0.02644 0.72631 0.0
H1061 H 0.97889 0.97327 0.71803 0.0
C1062 C 0.98802 0.03643 0.72747 0.0
C1063 C 0.99383 0.01185 0.72332 0.0
C1064 C 0.96333 0.04177 0.7287 0.0
C1065 C 0.94416 0.02225 0.7255 0.0
C1066 C 0.94984 0.9974 0.72198 0.0
C1067 C 0.97467 0.99238 0.72122 0.0
N1068 N 0.93112 0.97705 0.719 0.0
C1069 C 0.90607 0.97939 0.71301 0.0
H1070 H 0.4554 0.9429 0.31389 0.0
H1071 H 0.52564 0.96059 0.2852 0.0
H1072 H 0.50213 0.00878 0.34414 0.0
C1073 C 0.47267 0.9548 0.31449 0.0
C1074 C 0.47683 0.97628 0.33124 0.0
C1075 C 0.48994 0.94917 0.29759 0.0
C1076 C 0.51217 0.96479 0.29817 0.0
C1077 C 0.51661 0.9862 0.31532 0.0
C1078 C 0.49866 0.99212 0.33122 0.0
N1079 N 0.53867 0.0025 0.3167 0.0
C1080 C 0.56202 0.99413 0.31607 0.0
H1081 H 0.88343 0.3924 0.69622 0.0
H1082 H 0.959 0.38058 0.7125 0.0
H1083 H 0.90495 0.31812 0.68523 0.0
C1084 C 0.89752 0.3795 0.6978 0.0
C1085 C 0.89108 0.35412 0.69059 0.0
C1086 C 0.92212 0.38874 0.70536 0.0
C1087 C 0.94054 0.37224 0.70621 0.0
C1088 C 0.93482 0.34633 0.69905 0.0
C1089 C 0.90979 0.33768 0.69125 0.0
N1090 N 0.95317 0.32801 0.69814 0.0
C1091 C 0.98801 0.31285 0.69842 0.0
H1092 H 0.71582 0.3914 0.3928 0.0
H1093 H 0.67869 0.45759 0.38554 0.0
H1094 H 0.71088 0.42291 0.32301 0.0
C1095 C 0.71016 0.40607 0.38186 0.0
C1096 C 0.7154 0.4054 0.35705 0.0
C1097 C 0.69676 0.42461 0.39232 0.0
C1098 C 0.68892 0.4431 0.3776 0.0
C1099 C 0.69424 0.44267 0.35256 0.0
C1100 C 0.70709 0.4235 0.34233 0.0
N1101 N 0.68672 0.46092 0.33703 0.0
C1102 C 0.68016 0.48412 0.34564 0.0
H1103 H 0.73057 0.55151 0.04317 0.0
H1104 H 0.74821 0.47559 0.04041 0.0
H1105 H 0.6879 0.49569 0.9915 0.0
C1106 C 0.72734 0.53245 0.03477 0.0
C1107 C 0.70767 0.52587 0.01612 0.0
C1108 C 0.74196 0.51447 0.04374 0.0
C1109 C 0.73707 0.48955 0.03346 0.0
C1110 C 0.71764 0.48287 0.01432 0.0
C1111 C 0.70296 0.50102 0.00605 0.0
N1112 N 0.71185 0.45817 0.00305 0.0
C1113 C 0.72583 0.43837 0.00681 0.0
H1114 H 0.31226 0.10859 0.61662 0.0
H1115 H 0.30305 0.03863 0.64725 0.0
H1116 H 0.33937 0.10286 0.69283 0.0
C1117 C 0.31416 0.09784 0.63246 0.0
C1118 C 0.32613 0.10923 0.65526 0.0
C1119 C 0.30598 0.07236 0.62943 0.0
C1120 C 0.30966 0.0582 0.64956 0.0
C1121 C 0.32196 0.06902 0.67239 0.0
C1122 C 0.32999 0.09455 0.67518 0.0
N1123 N 0.32694 0.05445 0.6925 0.0
C1124 C 0.32112 0.02876 0.69042 0.0
H1125 H 0.29303 0.98728 0.94391 0.0
H1126 H 0.30284 0.06457 0.97116 0.0
H1127 H 0.31305 0.00883 0.02184 0.0
C1128 C 0.29834 0.00172 0.95907 0.0
C1129 C 0.30379 0.995 0.9832 0.0
C1130 C 0.29792 0.02675 0.95454 0.0
C1131 C 0.30331 0.04526 0.97458 0.0
C1132 C 0.30885 0.03881 0.99894 0.0
C1133 C 0.30895 0.01371 0.00307 0.0
N1134 N 0.31392 0.05707 0.01966 0.0
C1135 C 0.31734 0.08235 0.01712 0.0
H1136 H 0.40569 0.70369 0.39687 0.0
H1137 H 0.39093 0.67375 0.4651 0.0
H1138 H 0.33088 0.6971 0.41803 0.0
C1139 C 0.39242 0.69847 0.40975 0.0
C1140 C 0.36714 0.7015 0.40441 0.0
C1141 C 0.40093 0.68831 0.43135 0.0
C1142 C 0.38423 0.68179 0.44851 0.0
C1143 C 0.35892 0.68557 0.44396 0.0
C1144 C 0.35051 0.69507 0.42179 0.0
N1145 N 0.34132 0.6796 0.46093 0.0
C1146 C 0.34757 0.67452 0.48527 0.0
H1147 H 0.94563 0.3044 0.98898 0.0
H1148 H 0.97226 0.31545 0.06649 0.0
H1149 H 0.02348 0.32407 0.01104 0.0
C1150 C 0.96066 0.30989 0.00352 0.0
C1151 C 0.9849 0.31502 0.99695 0.0
C1152 C 0.95585 0.30999 0.02854 0.0
C1153 C 0.97581 0.31543 0.04717 0.0
C1154 C 1.0003 0.3204 0.04081 0.0
C1155 C 0.00462 0.32024 0.01578 0.0
N1156 N 0.02103 0.32499 0.05907 0.0
C1157 C 0.01861 0.32748 0.08436 0.0
H1158 H 0.04521 0.7341 0.55144 0.0
H1159 H 0.04054 0.75638 0.47723 0.0
H1160 H 0.98667 0.70016 0.49696 0.0
C1161 C 0.03564 0.73259 0.53286 0.0
C1162 C 0.0148 0.7152 0.52649 0.0
C1163 C 0.04491 0.74757 0.51531 0.0
C1164 C 0.03337 0.74488 0.49082 0.0
C1165 C 0.01218 0.72774 0.48429 0.0
C1166 C 0.0031 0.71312 0.50216 0.0
N1167 N 0.99914 0.72469 0.46017 0.0
C1168 C 0.00642 0.73593 0.4396 0.0
H1169 H 0.61495 0.31624 0.10953 0.0
H1170 H 0.64779 0.3 0.0416 0.0
H1171 H 0.6917 0.34132 0.10454 0.0
C1172 C 0.63104 0.31709 0.09902 0.0
C1173 C 0.6536 0.32965 0.11013 0.0
C1174 C 0.62884 0.30637 0.07432 0.0
C1175 C 0.64953 0.30836 0.06064 0.0
C1176 C 0.67227 0.32106 0.07135 0.0
C1177 C 0.67432 0.33127 0.09629 0.0
N1178 N 0.69292 0.32448 0.05714 0.0
C1179 C 0.69098 0.31848 0.03147 0.0
H1180 H 0.39339 0.39192 0.71303 0.0
H1181 H 0.45726 0.38047 0.67355 0.0
H1182 H 0.41846 0.31903 0.704 0.0
C1183 C 0.40672 0.37972 0.70646 0.0
C1184 C 0.40396 0.35454 0.71051 0.0
C1185 C 0.42565 0.3891 0.69295 0.0
C1186 C 0.4426 0.3732 0.684 0.0
C1187 C 0.44025 0.34786 0.6883 0.0
C1188 C 0.42057 0.33858 0.70109 0.0
N1189 N 0.45696 0.33111 0.67964 0.0
C1190 C 0.48077 0.33842 0.67374 0.0
H1191 H 0.99151 0.94291 0.29563 0.0
H1192 H 0.06945 0.96476 0.31314 0.0
H1193 H 0.01594 0.01404 0.33618 0.0
C1194 C 0.00636 0.95635 0.30456 0.0
C1195 C 1.00063 0.97882 0.31654 0.0
C1196 C 0.03108 0.95126 0.3033 0.0
C1197 C 0.05037 0.96874 0.3144 0.0
C1198 C 0.04489 0.99161 0.32614 0.0
C1199 C 0.02006 0.99646 0.32713 0.0
N1200 N 0.06385 0.01031 0.33659 0.0
C1201 C 0.08896 0.00704 0.33737 0.0
H1202 H 0.5506 0.04939 0.73618 0.0
H1203 H 0.47763 0.0426 0.76135 0.0
H1204 H 0.49712 0.98872 0.70508 0.0
C1205 C 0.53236 0.03924 0.73545 0.0
C1206 C 0.52609 0.01802 0.71854 0.0
C1207 C 0.5151 0.04809 0.75102 0.0
C1208 C 0.49097 0.03578 0.74936 0.0
C1209 C 0.48459 0.01419 0.73274 0.0
C1210 C 0.50219 0.00548 0.7176 0.0
N1211 N 0.46095 1.0003 0.73092 0.0
C1212 C 0.44012 0.00798 0.74138 0.0
H1213 H 0.10315 0.61438 0.30834 0.0
H1214 H 0.03325 0.64524 0.30046 0.0
H1215 H 0.09803 0.69044 0.33631 0.0
C1216 C 0.09248 0.63025 0.31056 0.0
C1217 C 0.10406 0.65291 0.32261 0.0
C1218 C 0.06694 0.62735 0.30272 0.0
C1219 C 0.05289 0.64749 0.30678 0.0
C1220 C 0.06394 0.67026 0.31907 0.0
C1221 C 0.08954 0.67288 0.32685 0.0
N1222 N 0.04958 0.69047 0.32427 0.0
C1223 C 0.02389 0.68865 0.31851 0.0
C1224 C 0.16351 0.66391 0.36641 0.0
C1225 C 0.18015 0.6511 0.35278 0.0
H1226 H 0.12652 0.67457 0.36765 0.0
C1227 C 0.17227 0.6414 0.32815 0.0
H1228 H 0.16908 0.67202 0.38528 0.0
C1229 C 0.14797 0.6432 0.31793 0.0
C1230 C 0.13088 0.65467 0.33209 0.0
H1231 H 0.18445 0.63132 0.31711 0.0
H1232 H 0.14231 0.63487 0.29915 0.0
C1233 C 0.13917 0.66566 0.3562 0.0
C1234 C 0.34199 0.32273 0.72272 0.0
C1235 C 0.33825 0.33552 0.74561 0.0
H1236 H 0.36634 0.31827 0.69384 0.0
C1237 C 0.35769 0.35218 0.75808 0.0
H1238 H 0.32737 0.30974 0.71274 0.0
C1239 C 0.37971 0.35714 0.74724 0.0
C1240 C 0.38292 0.34537 0.72383 0.0
H1241 H 0.35532 0.36262 0.77554 0.0
H1242 H 0.39384 0.37106 0.75663 0.0
C1243 C 0.36428 0.32748 0.71199 0.0
C1244 C 0.5872 0.00379 0.69404 0.0
C1245 C 0.57972 0.99558 0.66894 0.0
H1246 H 0.57622 0.01668 0.72943 0.0
C1247 C 0.55428 0.99388 0.66052 0.0
H1248 H 0.60664 0.00562 0.70116 0.0
C1249 C 0.53683 1.00074 0.67668 0.0
C1250 C 0.5444 0.00936 0.70167 0.0
H1251 H 0.54779 0.9873 0.6414 0.0
H1252 H 0.51749 0.99983 0.6694 0.0
C1253 C 0.56976 0.01048 0.71021 0.0
C1254 C 0.93082 0.96858 0.31563 0.0
C1255 C 0.92353 0.99052 0.30649 0.0
H1256 H 0.96107 0.94789 0.32643 0.0
C1257 C 0.94187 0.01001 0.30421 0.0
H1258 H 0.9172 0.95315 0.31747 0.0
C1259 C 0.96706 0.00684 0.30905 0.0
C1260 C 0.97432 0.98414 0.31626 0.0
H1261 H 0.93678 0.02728 0.29756 0.0
H1262 H 0.9808 0.02158 0.30565 0.0
C1263 C 0.95596 0.96544 0.32049 0.0
C1264 C 0.33276 0.17763 0.64424 0.0
C1265 C 0.35715 0.18535 0.65481 0.0
H1266 H 0.30365 0.14784 0.63661 0.0
C1267 C 0.37023 0.16849 0.66787 0.0
H1268 H 0.32213 0.18997 0.63393 0.0
C1269 C 0.35975 0.14412 0.66906 0.0
C1270 C 0.3359 0.13602 0.65727 0.0
H1271 H 0.38889 0.17391 0.67664 0.0
H1272 H 0.37084 0.13134 0.67821 0.0
C1273 C 0.32226 0.15332 0.64552 0.0
C1274 C 0.28303 0.93429 0.00782 0.0
C1275 C 0.29048 0.91689 0.98986 0.0
H1276 H 0.2814 0.97273 0.01981 0.0
C1277 C 0.30534 0.92543 0.97185 0.0
H1278 H 0.2719 0.92825 0.02219 0.0
C1279 C 0.31104 0.95087 0.97069 0.0
C1280 C 0.30196 0.9683 0.98747 0.0
H1281 H 0.31131 0.91255 0.95767 0.0
H1282 H 0.32165 0.95694 0.95596 0.0
C1283 C 0.2887 0.95977 0.00663 0.0
C1284 C 0.72737 0.34405 0.32415 0.0
C1285 C 0.75025 0.3401 0.33682 0.0
H1286 H 0.69858 0.36855 0.32012 0.0
C1287 C 0.76299 0.35947 0.35337 0.0
H1288 H 0.71719 0.3295 0.31121 0.0
C1289 C 0.75233 0.38155 0.3585 0.0
C1290 C 0.72885 0.38488 0.34699 0.0
H1291 H 0.78046 0.35696 0.36373 0.0
H1292 H 0.7618 0.39553 0.37253 0.0
C1293 C 0.71681 0.3664 0.32908 0.0
C1294 C 0.65039 0.55879 1.00051 0.0
C1295 C 0.66094 0.58246 0.99612 0.0
H1296 H 0.65692 0.52236 0.01029 0.0
C1297 C 0.68698 0.58684 0.99708 0.0
H1298 H 0.63044 0.55485 1.00026 0.0
C1299 C 0.70211 0.56831 0.00307 0.0
C1300 C 0.69156 0.54489 0.00801 0.0
H1301 H 0.69574 0.60465 0.99327 0.0
H1302 H 0.72212 0.57232 0.00393 0.0
C1303 C 0.66554 0.54018 0.0063 0.0
C1304 C 0.63604 0.36989 0.16505 0.0
C1305 C 0.65252 0.36404 0.18468 0.0
H1306 H 0.62366 0.36367 0.12623 0.0
C1307 C 0.67032 0.34747 0.17942 0.0
H1308 H 0.62193 0.38236 0.1685 0.0
C1309 C 0.67145 0.33691 0.15499 0.0
C1310 C 0.65448 0.34239 0.13559 0.0
H1311 H 0.68331 0.3427 0.19418 0.0
H1312 H 0.68505 0.32393 0.15137 0.0
C1313 C 0.63693 0.35912 0.14086 0.0
C1314 C 0.01097 0.29383 0.93715 0.0
C1315 C 0.99311 0.30061 0.91924 0.0
H1316 H 0.02229 0.29291 0.9758 0.0
C1317 C 0.97456 0.31513 0.9271 0.0
H1318 H 0.02574 0.283 0.93164 0.0
C1319 C 0.97282 0.32115 0.95239 0.0
C1320 C 0.98951 0.31269 0.97034 0.0
H1321 H 0.96044 0.32057 0.91381 0.0
H1322 H 0.95775 0.33155 0.95793 0.0
C1323 C 0.00915 0.29975 0.96246 0.0
C1324 C 0.36296 0.71339 0.3364 0.0
C1325 C 0.34553 0.73097 0.3352 0.0
H1326 H 0.38352 0.69071 0.35894 0.0
C1327 C 0.33394 0.73773 0.35666 0.0
H1328 H 0.37258 0.70805 0.3204 0.0
C1329 C 0.34023 0.72761 0.37901 0.0
C1330 C 0.3585 0.71081 0.3804 0.0
H1331 H 0.32042 0.75126 0.35629 0.0
H1332 H 0.33154 0.73372 0.39539 0.0
C1333 C 0.36944 0.7036 0.35868 0.0
C1334 C 0.99056 0.65824 0.55636 0.0
C1335 C 0.99129 0.66763 0.58148 0.0
H1336 H 0.9976 0.66571 0.51942 0.0
C1337 C 0.99883 0.69303 0.58811 0.0
H1338 H 0.98451 0.63886 0.55051 0.0
C1339 C 0.00583 0.70852 0.5702 0.0
C1340 C 0.00572 0.69901 0.5452 0.0
H1341 H 0.9999 0.7009 0.60728 0.0
H1342 H 0.01151 0.72798 0.57601 0.0
C1343 C 0.99774 0.67372 0.53846 0.0
C1344 C 0.82152 0.35391 0.67943 0.0
C1345 C 0.81706 0.34389 0.65445 0.0
H1346 H 0.8485 0.36433 0.71075 0.0
C1347 C 0.83637 0.33281 0.64326 0.0
H1348 H 0.80723 0.36267 0.68869 0.0
C1349 C 0.86016 0.33391 0.65596 0.0
C1350 C 0.86508 0.3461 0.68007 0.0
H1351 H 0.83344 0.32444 0.62422 0.0
H1352 H 0.8751 0.32698 0.64621 0.0
C1353 C 0.84524 0.35496 0.69209 0.0
C1354 C 0.65356 0.65427 0.26367 0.0
C1355 C 0.67316 0.64124 0.2729 0.0
H1356 H 0.61517 0.6607 0.26434 0.0
C1357 C 0.66884 0.62547 0.29153 0.0
H1358 H 0.65629 0.66668 0.24937 0.0
C1359 C 0.64542 0.6221 0.30007 0.0
C1360 C 0.6255 0.63445 0.29043 0.0
H1361 H 0.68328 0.61482 0.29886 0.0
H1362 H 0.64292 0.60937 0.31406 0.0
C1363 C 0.63001 0.65099 0.2724 0.0
C1364 C 0.42888 0.96925 0.37717 0.0
C1365 C 0.41999 0.99281 0.3785 0.0
H1366 H 0.45393 0.94558 0.36106 0.0
C1367 C 0.43068 0.01127 0.36507 0.0
H1368 H 0.4208 0.95464 0.3872 0.0
C1369 C 0.44966 0.00612 0.3502 0.0
C1370 C 0.45802 0.98232 0.3483 0.0
H1371 H 0.42422 0.02962 0.36592 0.0
H1372 H 0.4573 0.0205 0.33963 0.0
C1373 C 0.44764 0.96402 0.3621 0.0
C1374 C 0.05868 0.01681 0.70259 0.0
C1375 C 0.06999 0.99898 0.71572 0.0
H1376 H 0.02572 0.03472 0.69468 0.0
C1377 C 0.05586 0.98482 0.73092 0.0
H1378 H 0.06915 0.02815 0.69092 0.0
C1379 C 0.03094 0.9886 0.73309 0.0
C1380 C 0.01985 0.00683 0.72035 0.0
H1381 H 0.06408 0.97082 0.74112 0.0
H1382 H 0.02052 0.97768 0.74515 0.0
C1383 C 0.03391 0.02074 0.70494 0.0
C1384 C 0.68081 0.82557 0.35009 0.0
C1385 C 0.65632 0.82011 0.33881 0.0
H1386 H 0.71088 0.85366 0.36179 0.0
C1387 C 0.64498 0.83886 0.32691 0.0
H1388 H 0.69017 0.81176 0.35953 0.0
C1389 C 0.6569 0.86305 0.32838 0.0
C1390 C 0.68037 0.86891 0.34176 0.0
H1391 H 0.62634 0.83519 0.31758 0.0
H1392 H 0.64695 0.87752 0.32074 0.0
C1393 C 0.69268 0.84966 0.3515 0.0
C1394 C 0.75541 0.06483 1.0004 0.0
C1395 C 0.73513 0.07154 0.98525 0.0
H1396 H 0.77167 0.03587 0.01861 0.0
C1397 C 0.7164 0.05284 0.975 0.0
H1398 H 0.77049 0.07857 0.00811 0.0
C1399 C 0.71744 0.02829 0.98061 0.0
C1400 C 0.73704 0.022 0.99679 0.0
H1401 H 0.70037 0.05731 0.9635 0.0
H1402 H 0.70231 0.01444 0.97325 0.0
C1403 C 0.75623 0.04037 0.00628 0.0
C1404 C 0.26493 0.6588 0.65835 0.0
C1405 C 0.27461 0.67878 0.64603 0.0
H1406 H 0.26491 0.61997 0.6634 0.0
C1407 C 0.29362 0.67485 0.63063 0.0
H1408 H 0.25037 0.66126 0.67049 0.0
C1409 C 0.30183 0.65136 0.62659 0.0
C1410 C 0.29146 0.63105 0.6379 0.0
H1411 H 0.30132 0.68959 0.62054 0.0
H1412 H 0.31583 0.64897 0.61385 0.0
C1413 C 0.27337 0.63518 0.65442 0.0
C1414 C 0.36305 0.42405 0.00762 0.0
C1415 C 0.37413 0.41126 0.98854 0.0
H1416 H 0.34102 0.45359 0.01763 0.0
C1417 C 0.37129 0.41868 0.96439 0.0
H1418 H 0.36509 0.41874 0.02643 0.0
C1419 C 0.35746 0.43843 0.95935 0.0
C1420 C 0.34645 0.45128 0.97843 0.0
H1421 H 0.37949 0.40898 0.94931 0.0
H1422 H 0.35556 0.44382 0.94057 0.0
C1423 C 0.34945 0.44402 0.00264 0.0
C1424 C 0.35262 0.67669 0.82376 0.0
C1425 C 0.34251 0.65171 0.81963 0.0
H1426 H 0.36296 0.70838 0.85029 0.0
C1427 C 0.33143 0.64084 0.83912 0.0
H1428 H 0.36142 0.6857 0.80934 0.0
C1429 C 0.33247 0.6539 0.86275 0.0
C1430 C 0.34463 0.67805 0.86732 0.0
H1431 H 0.323 0.62181 0.83645 0.0
H1432 H 0.32543 0.64444 0.87782 0.0
C1433 C 0.35362 0.68969 0.84731 0.0
C1434 C 0.0081 0.69889 0.05706 0.0
C1435 C 0.99424 0.71579 0.0696 0.0
H1436 H 0.02315 0.68772 0.02314 0.0
C1437 C 0.98401 0.73436 0.0566 0.0
H1438 H 0.01639 0.68451 0.06662 0.0
C1439 C 0.98795 0.73625 0.03168 0.0
C1440 C 0.00238 0.71974 0.01938 0.0
H1441 H 0.97306 0.74751 0.06574 0.0
H1442 H 0.98028 0.75103 0.02224 0.0
C1443 C 0.01217 0.70088 0.03225 0.0
C1444 C 0.65971 0.26496 0.66044 0.0
C1445 C 0.64581 0.2744 0.67925 0.0
H1446 H 0.66699 0.26439 0.62211 0.0
C1447 C 0.62938 0.29213 0.67363 0.0
H1448 H 0.67264 0.25136 0.66421 0.0
C1449 C 0.62614 0.29945 0.64968 0.0
C1450 C 0.63929 0.28946 0.63056 0.0
H1451 H 0.61808 0.29958 0.68744 0.0
H1452 H 0.61278 0.31263 0.64607 0.0
C1453 C 0.65659 0.27252 0.63636 0.0
C1454 C 0.99666 0.37823 0.43695 0.0
C1455 C 0.99491 0.36733 0.41228 0.0
H1456 H 0.99265 0.37288 0.47496 0.0
C1457 C 0.98898 0.34147 0.40751 0.0
H1458 H 1.00155 0.39803 0.44134 0.0
C1459 C 0.98447 0.32693 0.42689 0.0
C1460 C 0.98555 0.33793 0.45147 0.0
H1461 H 0.9872 0.33247 0.38871 0.0
H1462 H 0.97999 0.30706 0.42256 0.0
C1463 C 0.99191 0.36373 0.45629 0.0
C1464 C 0.30255 0.57497 0.52923 0.0
C1465 C 0.32676 0.57196 0.52295 0.0
H1466 H 0.27841 0.57785 0.5582 0.0
C1467 C 0.34473 0.56647 0.54154 0.0
H1468 H 0.28828 0.57952 0.51559 0.0
C1469 C 0.33898 0.56561 0.56615 0.0
C1470 C 0.31524 0.57037 0.57252 0.0
H1471 H 0.36346 0.56372 0.53727 0.0
H1472 H 0.35349 0.56287 0.58042 0.0
C1473 C 0.29687 0.57413 0.55369 0.0
C1474 C 0.23888 0.46459 0.91197 0.0
C1475 C 0.24551 0.4619 0.88744 0.0
H1476 H 0.25122 0.47616 0.95034 0.0
C1477 C 0.26891 0.47279 0.88253 0.0
H1478 H 0.22116 0.45629 0.9165 0.0
C1479 C 0.28606 0.48406 0.90195 0.0
C1480 C 0.28001 0.48505 0.92656 0.0
H1481 H 0.27447 0.47148 0.86381 0.0
H1482 H 0.3046 0.4906 0.89792 0.0
C1483 C 0.25603 0.47603 0.93137 0.0
C1484 C 0.72464 0.92494 0.45275 0.0
C1485 C 0.71417 0.94532 0.46408 0.0
H1486 H 0.72945 0.90338 0.4188 0.0
C1487 C 0.70032 0.95997 0.44904 0.0
H1488 H 0.73577 0.91355 0.46378 0.0
C1489 C 0.69672 0.95415 0.42327 0.0
C1490 C 0.70695 0.93358 0.41198 0.0
H1491 H 0.69177 0.97561 0.45723 0.0
H1492 H 0.68543 0.96541 0.41224 0.0
C1493 C 0.72107 0.91914 0.42699 0.0
C1494 C 0.72596 0.98466 0.10777 0.0
C1495 C 0.73952 0.96714 0.11909 0.0
H1496 H 0.71357 0.99907 0.07395 0.0
C1497 C 0.75094 0.94996 0.10405 0.0
H1498 H 0.71649 0.99778 0.11881 0.0
C1499 C 0.74941 0.95078 0.07824 0.0
C1500 C 0.73633 0.96875 0.067 0.0
H1501 H 0.76161 0.93631 0.1123 0.0
H1502 H 0.759 0.9378 0.06718 0.0
C1503 C 0.72431 0.9854 0.08206 0.0
C1504 C 0.54765 0.3441 0.56831 0.0
C1505 C 0.52859 0.32509 0.57 0.0
H1506 H 0.58683 0.35347 0.56721 0.0
C1507 C 0.53412 0.3002 0.56719 0.0
H1508 H 0.54412 0.36347 0.57047 0.0
C1509 C 0.55856 0.29461 0.56567 0.0
C1510 C 0.57787 0.31374 0.56641 0.0
H1511 H 0.51978 0.28505 0.56758 0.0
H1512 H 0.56264 0.27542 0.56561 0.0
C1513 C 0.57213 0.33843 0.56638 0.0
C1514 C 0.10108 0.74243 0.94073 0.0
C1515 C 0.11588 0.7253 0.95121 0.0
H1516 H 0.06484 0.7552 0.93601 0.0
C1517 C 0.10453 0.70651 0.96384 0.0
H1518 H 0.10926 0.75695 0.93066 0.0
C1519 C 0.07918 0.70542 0.96674 0.0
C1520 C 0.06457 0.72309 0.95708 0.0
H1521 H 0.11541 0.69315 0.97233 0.0
H1522 H 0.07108 0.69104 0.97704 0.0
C1523 C 0.07563 0.74128 0.94356 0.0
C1524 C 0.88828 0.25648 0.47548 0.0
C1525 C 0.89246 0.23629 0.45866 0.0
H1526 H 0.90442 0.28934 0.49847 0.0
C1527 C 0.91712 0.23202 0.455 0.0
H1528 H 0.86952 0.26012 0.47893 0.0
C1529 C 0.93695 0.24862 0.46631 0.0
C1530 C 0.93258 0.26964 0.48173 0.0
H1531 H 0.92105 0.21687 0.44201 0.0
H1532 H 0.95563 0.24592 0.46176 0.0
C1533 C 0.90819 0.27303 0.48692 0.0
C1534 C 0.45398 0.72963 0.92277 0.0
C1535 C 0.46513 0.72138 0.94454 0.0
H1536 H 0.42023 0.73154 0.89956 0.0
C1537 C 0.45012 0.70831 0.95979 0.0
H1538 H 0.46504 0.74 0.9108 0.0
C1539 C 0.42455 0.70338 0.95333 0.0
C1540 C 0.41335 0.71155 0.93153 0.0
H1541 H 0.45823 0.70137 0.97647 0.0
H1542 H 0.41363 0.69268 0.96517 0.0
C1543 C 0.42834 0.7248 0.91635 0.0
C1544 C 0.5582 0.52996 0.30894 0.0
C1545 C 0.56789 0.52526 0.33284 0.0
H1546 H 0.55092 0.55764 0.28406 0.0
C1547 C 0.57358 0.54541 0.35133 0.0
H1548 H 0.55309 0.51489 0.2944 0.0
C1549 C 0.57155 0.56976 0.3455 0.0
C1550 C 0.56399 0.57436 0.32111 0.0
H1551 H 0.58137 0.54263 0.36984 0.0
H1552 H 0.57768 0.58508 0.35954 0.0
C1553 C 0.55655 0.55435 0.30306 0.0
C1554 C 0.96872 0.10872 0.75563 0.0
C1555 C 0.95497 0.11978 0.73711 0.0
H1556 H 0.98199 0.07523 0.76741 0.0
C1557 C 0.94159 0.10434 0.71719 0.0
H1558 H 0.9787 0.1199 0.77157 0.0
C1559 C 0.94305 0.07862 0.71517 0.0
C1560 C 0.95811 0.06798 0.73289 0.0
H1561 H 0.93095 0.1122 0.7025 0.0
H1562 H 0.93353 0.06724 0.6991 0.0
C1563 C 0.97044 0.08313 0.75341 0.0
C1564 C 0.46419 0.91255 0.23711 0.0
C1565 C 0.45715 0.88924 0.24526 0.0
H1566 H 0.48077 0.94995 0.24752 0.0
C1567 C 0.46522 0.88487 0.26974 0.0
H1568 H 0.45823 0.9166 0.21844 0.0
C1569 C 0.4779 0.90397 0.28631 0.0
C1570 C 0.4832 0.92773 0.27866 0.0
H1571 H 0.46071 0.86697 0.27648 0.0
H1572 H 0.48233 0.9006 0.30552 0.0
C1573 C 0.47716 0.93163 0.2537 0.0
C1574 C 0.95504 0.45353 0.70557 0.0
C1575 C 0.94004 0.4681 0.71947 0.0
H1576 H 0.96098 0.41715 0.68996 0.0
C1577 C 0.91955 0.45626 0.7294 0.0
H1578 H 0.97075 0.4621 0.69738 0.0
C1579 C 0.91398 0.43049 0.7252 0.0
C1580 C 0.92877 0.41598 0.71098 0.0
H1581 H 0.90787 0.46692 0.74054 0.0
H1582 H 0.89809 0.4219 0.7331 0.0
C1583 C 0.94946 0.42776 0.70135 0.0
C1584 C 0.70272 0.41376 0.4604 0.0
C1585 C 0.67851 0.41612 0.46697 0.0
H1586 H 0.72758 0.41544 0.43213 0.0
C1587 C 0.66058 0.4229 0.44906 0.0
H1588 H 0.71693 0.40815 0.47346 0.0
C1589 C 0.66664 0.42668 0.42501 0.0
C1590 C 0.69075 0.42373 0.41843 0.0
H1591 H 0.6418 0.4251 0.45354 0.0
H1592 H 0.65227 0.43103 0.41135 0.0
C1593 C 0.70878 0.41768 0.43655 0.0
C1594 C 0.77455 0.5211 0.10883 0.0
C1595 C 0.79015 0.54327 0.10875 0.0
H1596 H 0.74731 0.49422 0.08796 0.0
C1597 C 0.79223 0.55377 0.08618 0.0
H1598 H 0.77278 0.51245 0.12591 0.0
C1599 C 0.77773 0.54334 0.06457 0.0
C1600 C 0.761 0.52209 0.06501 0.0
H1601 H 0.80393 0.57091 0.08551 0.0
H1602 H 0.77871 0.55257 0.04772 0.0
C1603 C 0.76018 0.51052 0.0871 0.0
C1604 C 0.26996 0.06131 0.56552 0.0
C1605 C 0.27785 0.03858 0.55635 0.0
H1606 H 0.27244 0.08973 0.59596 0.0
C1607 C 0.29369 0.0263 0.57197 0.0
H1608 H 0.25791 0.07132 0.55386 0.0
C1609 C 0.3023 0.03701 0.59586 0.0
C1610 C 0.29515 0.06018 0.60476 0.0
H1611 H 0.29985 0.00861 0.56553 0.0
H1612 H 0.31526 0.02748 0.60702 0.0
C1613 C 0.27853 0.07201 0.5895 0.0
C1614 C 0.26161 0.05316 0.90182 0.0
C1615 C 0.26773 0.0384 0.881 0.0
H1616 H 0.26624 0.061 0.94142 0.0
C1617 C 0.28636 0.02226 0.88436 0.0
H1618 H 0.24766 0.06612 0.89982 0.0
C1619 C 0.29732 0.01966 0.90815 0.0
C1620 C 0.28981 0.033 0.92915 0.0
H1621 H 0.29149 0.0105 0.86883 0.0
H1622 H 0.31097 0.0064 0.9102 0.0
C1623 C 0.27248 0.05045 0.92565 0.0
C1624 C 0.47055 0.69978 0.43551 0.0
C1625 C 0.4771 0.67592 0.42797 0.0
H1626 H 0.44098 0.72234 0.44271 0.0
C1627 C 0.45852 0.6557 0.42537 0.0
H1628 H 0.48437 0.71572 0.43828 0.0
C1629 C 0.43385 0.65949 0.4288 0.0
C1630 C 0.42726 0.68355 0.43457 0.0
H1631 H 0.46266 0.63711 0.41923 0.0
H1632 H 0.41966 0.64388 0.42523 0.0
C1633 C 0.44582 0.70359 0.43848 0.0
C1634 C 0.90253 0.27476 0.05523 0.0
C1635 C 0.88202 0.27974 0.03929 0.0
H1636 H 0.94196 0.28014 0.06422 0.0
C1637 C 0.88567 0.29775 0.02251 0.0
H1638 H 0.90034 0.26144 0.06879 0.0
C1639 C 0.90946 0.30896 0.02035 0.0
C1640 C 0.93026 0.30222 0.03465 0.0
H1641 H 0.87046 0.30209 0.00983 0.0
H1642 H 0.9117 0.32204 0.00656 0.0
C1643 C 0.92641 0.28575 0.05284 0.0
C1644 C 0.11097 0.77806 0.52228 0.0
C1645 C 0.11113 0.79397 0.5443 0.0
H1646 H 0.08949 0.75115 0.49541 0.0
C1647 C 0.08865 0.79652 0.55482 0.0
H1648 H 0.128 0.77588 0.51366 0.0
C1649 C 0.06681 0.7824 0.54446 0.0
C1650 C 0.06691 0.76562 0.5232 0.0
H1651 H 0.08818 0.80841 0.57188 0.0
H1652 H 0.04999 0.78384 0.55363 0.0
C1653 C 0.08897 0.7641 0.51172 0.0
C1654 C 0.57195 0.28989 0.02803 0.0
C1655 C 0.55638 0.27521 0.04149 0.0
H1656 H 0.60696 0.31138 0.02792 0.0
C1657 C 0.56548 0.26941 0.06514 0.0
H1658 H 0.56554 0.29445 0.00966 0.0
C1659 C 0.58929 0.27892 0.07552 0.0
C1660 C 0.60449 0.29439 0.06245 0.0
H1661 H 0.55385 0.25832 0.07607 0.0
H1662 H 0.59565 0.2745 0.09397 0.0
C1663 C 0.59576 0.29938 0.0384 0.0
C1664 C 0.4236 0.45851 0.70239 0.0
C1665 C 0.4184 0.46445 0.67785 0.0
H1666 H 0.43019 0.42993 0.7263 0.0
C1667 C 0.41855 0.44568 0.65816 0.0
H1668 H 0.42435 0.47254 0.71801 0.0
C1669 C 0.42267 0.42137 0.66299 0.0
C1670 C 0.42641 0.41536 0.68756 0.0
H1671 H 0.41437 0.44942 0.63904 0.0
H1672 H 0.42154 0.407 0.6476 0.0
C1673 C 0.42731 0.4342 0.70718 0.0
C1674 C 0.0517 0.88729 0.28795 0.0
C1675 C 0.04075 0.88152 0.26336 0.0
H1676 H 0.05764 0.91441 0.31986 0.0
C1677 C 0.02835 0.8996 0.25162 0.0
H1678 H 0.06143 0.8737 0.29738 0.0
C1679 C 0.02604 0.92256 0.26445 0.0
C1680 C 0.03629 0.92805 0.2892 0.0
H1681 H 0.01945 0.89561 0.23282 0.0
H1682 H 0.0157 0.93587 0.25521 0.0
C1683 C 0.04967 0.91052 0.30072 0.0
C1684 C 0.5547 0.09262 0.79917 0.0
C1685 C 0.54347 0.11477 0.79699 0.0
H1686 H 0.55428 0.05409 0.78632 0.0
C1687 C 0.52112 0.11413 0.78149 0.0
H1688 H 0.57203 0.09254 0.81074 0.0
C1689 C 0.51084 0.09197 0.76763 0.0
C1690 C 0.52296 0.07026 0.76882 0.0
H1691 H 0.51198 0.1309 0.77958 0.0
H1692 H 0.49419 0.09211 0.75504 0.0
C1693 C 0.54462 0.07065 0.78514 0.0
C1694 C 0.05561 0.56383 0.2661 0.0
C1695 C 0.03323 0.55431 0.27449 0.0
H1696 H 0.0837 0.59452 0.26823 0.0
C1697 C 0.02119 0.56962 0.29085 0.0
H1698 H 0.06545 0.55241 0.25366 0.0
C1699 C 0.0318 0.59357 0.29944 0.0
C1700 C 0.05466 0.60277 0.2918 0.0
H1701 H 0.00379 0.56289 0.29742 0.0
H1702 H 0.02251 0.60452 0.31278 0.0
C1703 C 0.06623 0.58782 0.27468 0.0
C1704 C 0.45061 0.63738 0.31013 0.0
C1705 C 0.4435 0.64746 0.33295 0.0
H1706 H 0.48054 0.63239 0.28729 0.0
C1707 C 0.4619 0.66049 0.3505 0.0
H1708 H 0.437 0.627 0.29634 0.0
C1709 C 0.48672 0.66348 0.34523 0.0
C1710 C 0.49361 0.65342 0.32249 0.0
H1711 H 0.45706 0.66876 0.36812 0.0
H1712 H 0.5005 0.67385 0.35879 0.0
C1713 C 0.47549 0.6403 0.30498 0.0
C1714 C 0.05673 0.32229 0.69563 0.0
C1715 C 0.06546 0.30927 0.71536 0.0
H1716 H 0.02526 0.33256 0.67388 0.0
C1717 C 0.04832 0.29335 0.72599 0.0
H1718 H 0.06952 0.33408 0.68652 0.0
C1719 C 0.02276 0.29243 0.71858 0.0
C1720 C 0.01402 0.30744 0.70062 0.0
H1721 H 0.05449 0.28278 0.74099 0.0
H1722 H 0.00982 0.28098 0.72779 0.0
C1723 C 0.03131 0.32127 0.68827 0.0
C1724 C 0.84161 0.99935 0.70895 0.0
C1725 C 0.82974 0.98275 0.6891 0.0
H1726 H 0.87562 0.01132 0.7321 0.0
C1727 C 0.84345 0.96495 0.67761 0.0
H1728 H 0.83162 0.01341 0.71802 0.0
C1729 C 0.86848 0.96389 0.68562 0.0
C1730 C 0.88019 0.98055 0.70523 0.0
H1731 H 0.83478 0.95166 0.66255 0.0
H1732 H 0.87869 0.95004 0.67646 0.0
C1733 C 0.86672 0.99827 0.71693 0.0
C1734 C 0.62197 0.97551 0.29539 0.0
C1735 C 0.63708 0.97747 0.31809 0.0
H1736 H 0.58596 0.97927 0.27707 0.0
C1737 C 0.62675 0.98408 0.34026 0.0
H1738 H 0.62935 0.9711 0.27787 0.0
C1739 C 0.60182 0.98897 0.33965 0.0
C1740 C 0.58704 0.98731 0.31689 0.0
H1741 H 0.63786 0.98562 0.35802 0.0
H1742 H 0.59421 0.99443 0.35689 0.0
C1743 C 0.59712 0.98038 0.29481 0.0
C1744 C 0.33684 0.46276 0.62827 0.0
C1745 C 0.34293 0.45086 0.64974 0.0
H1746 H 0.32521 0.49575 0.61344 0.0
C1747 C 0.34271 0.46424 0.67318 0.0
H1748 H 0.33651 0.45299 0.60992 0.0
C1749 C 0.33595 0.48857 0.67508 0.0
C1750 C 0.32953 0.50008 0.65364 0.0
H1751 H 0.3478 0.45593 0.6901 0.0
H1752 H 0.33568 0.49838 0.69335 0.0
C1753 C 0.33021 0.48717 0.63022 0.0
C1754 C 0.34435 0.62993 0.9934 0.0
C1755 C 0.32761 0.63659 0.97447 0.0
H1756 H 0.35728 0.60026 0.01317 0.0
C1757 C 0.31224 0.61779 0.9594 0.0
H1758 H 0.35642 0.6439 0.00533 0.0
C1759 C 0.31268 0.59289 0.96399 0.0
C1760 C 0.3286 0.58651 0.9836 0.0
H1761 H 0.29962 0.62219 0.94421 0.0
H1762 H 0.3003 0.57873 0.95254 0.0
C1763 C 0.34476 0.60501 0.998 0.0
C1764 C 0.69593 0.05997 0.31257 0.0
C1765 C 0.71727 0.06851 0.3017 0.0
H1766 H 0.67333 0.02855 0.32208 0.0
C1767 C 0.73019 0.05103 0.28865 0.0
H1768 H 0.68547 0.07289 0.32268 0.0
C1769 C 0.723 0.02551 0.28815 0.0
C1770 C 0.70321 0.01705 0.3011 0.0
H1771 H 0.74631 0.05705 0.27949 0.0
H1772 H 0.7336 0.01242 0.27862 0.0
C1773 C 0.68898 0.03448 0.31226 0.0
C1774 C 0.68544 0.85243 0.00749 0.0
C1775 C 0.69529 0.83235 0.99479 0.0
H1776 H 0.6861 0.89213 0.01415 0.0
C1777 C 0.71458 0.83733 0.97971 0.0
H1778 H 0.67078 0.8492 0.01946 0.0
C1779 C 0.72331 0.86183 0.97681 0.0
C1780 C 0.71296 0.88165 0.98901 0.0
H1781 H 0.72234 0.82232 0.96944 0.0
H1782 H 0.73774 0.86527 0.9646 0.0
C1783 C 0.69424 0.87692 0.00459 0.0
C1784 C 0.68165 0.34802 0.46838 0.0
C1785 C 0.65861 0.34509 0.45375 0.0
H1786 H 0.70135 0.34338 0.50358 0.0
C1787 C 0.63736 0.3354 0.46412 0.0
H1788 H 0.69828 0.35571 0.46105 0.0
C1789 C 0.63919 0.32832 0.48834 0.0
C1790 C 0.66223 0.33095 0.50265 0.0
H1791 H 0.6194 0.33269 0.45329 0.0
H1792 H 0.62264 0.32045 0.4957 0.0
C1793 C 0.6834 0.34109 0.49268 0.0
C1794 C 0.95738 0.31106 0.61828 0.0
C1795 C 0.97237 0.32738 0.63638 0.0
H1796 H 0.95119 0.29635 0.57987 0.0
C1797 C 0.9916 0.34324 0.62894 0.0
H1798 H 0.94198 0.29907 0.62327 0.0
C1799 C 0.99668 0.34172 0.60407 0.0
C1800 C 0.98249 0.32449 0.58639 0.0
H1801 H 0.00348 0.35598 0.64236 0.0
H1802 H 0.01218 0.35347 0.5988 0.0
C1803 C 0.96247 0.30956 0.59342 0.0
C1804 C 0.29114 0.72486 0.05042 0.0
C1805 C 0.3069 0.71367 0.06721 0.0
H1806 H 0.27864 0.72744 0.0121 0.0
C1807 C 0.31942 0.69374 0.05805 0.0
H1808 H 0.28094 0.74002 0.05693 0.0
C1809 C 0.31815 0.68675 0.03254 0.0
C1810 C 0.30454 0.69966 0.0156 0.0
H1811 H 0.33109 0.68421 0.07057 0.0
H1812 H 0.32913 0.67223 0.02615 0.0
C1813 C 0.28995 0.71782 0.02476 0.0
C1814 C 0.99513 0.71644 0.84234 0.0
C1815 C 0.9769 0.69776 0.831 0.0
H1816 H 0.00915 0.73959 0.87581 0.0
C1817 C 0.95815 0.68857 0.84505 0.0
H1818 H 0.00994 0.72371 0.83209 0.0
C1819 C 0.9578 0.69762 0.86993 0.0
C1820 C 0.97614 0.716 0.88113 0.0
H1821 H 0.94365 0.67446 0.83679 0.0
H1822 H 0.94327 0.69017 0.88044 0.0
C1823 C 0.99477 0.72545 0.86729 0.0
C1824 C 0.5498 0.33735 0.67799 0.0
C1825 C 0.55671 0.35398 0.66075 0.0
H1826 H 0.52005 0.3195 0.6955 0.0
C1827 C 0.53791 0.3654 0.64765 0.0
H1828 H 0.5636 0.32775 0.68797 0.0
C1829 C 0.51292 0.36039 0.65186 0.0
C1830 C 0.50637 0.34393 0.66919 0.0
H1831 H 0.5425 0.37839 0.63433 0.0
H1832 H 0.49876 0.36936 0.64161 0.0
C1833 C 0.52488 0.33244 0.68218 0.0
C1834 C 0.96287 0.67334 0.27976 0.0
C1835 C 0.94572 0.67732 0.29738 0.0
H1836 H 1.00128 0.6739 0.27287 0.0
C1837 C 0.95496 0.68526 0.32222 0.0
H1838 H 0.95655 0.66684 0.26058 0.0
C1839 C 0.98061 0.68896 0.3292 0.0
C1840 C 0.99743 0.68507 0.31146 0.0
H1841 H 0.9424 0.68887 0.33624 0.0
H1842 H 0.98727 0.69504 0.34841 0.0
C1843 C 0.98847 0.67718 0.28676 0.0
C1844 C 0.15429 0.00396 0.32125 0.0
C1845 C 0.16523 0.9944 0.34242 0.0
H1846 H 0.12098 0.01547 0.30308 0.0
C1847 C 0.15042 0.98874 0.36157 0.0
H1848 H 0.16518 0.00834 0.30615 0.0
C1849 C 0.12534 0.9928 0.35974 0.0
C1850 C 0.1147 0.00261 0.33881 0.0
H1851 H 0.15836 0.98182 0.37833 0.0
H1852 H 0.11433 0.98854 0.37481 0.0
C1853 C 0.12912 0.008 0.31945 0.0
C1854 C 0.37674 0.02955 0.74065 0.0
C1855 C 0.36501 0.01272 0.75528 0.0
H1856 H 0.41026 0.04121 0.72484 0.0
C1857 C 0.37955 0.99675 0.768 0.0
H1858 H 0.36611 0.04187 0.73032 0.0
C1859 C 0.40482 0.99644 0.76478 0.0
C1860 C 0.41593 0.01215 0.74893 0.0
H1861 H 0.37116 0.98376 0.7796 0.0
H1862 H 0.41533 0.98303 0.77365 0.0
C1863 C 0.402 0.02918 0.73742 0.0
C1864 C 0.68826 0.5518 0.36861 0.0
C1865 C 0.66542 0.55964 0.35952 0.0
H1866 H 0.71068 0.52129 0.37149 0.0
C1867 C 0.64695 0.54172 0.34716 0.0
H1868 H 0.70275 0.56503 0.37845 0.0
C1869 C 0.65151 0.51675 0.34339 0.0
C1870 C 0.6745 0.50924 0.35199 0.0
H1871 H 0.62929 0.54711 0.3396 0.0
H1872 H 0.63737 0.50345 0.33312 0.0
C1873 C 0.69275 0.5268 0.36485 0.0
C1874 C 0.75689 0.38327 0.98432 0.0
C1875 C 0.74908 0.36582 1.00042 0.0
H1876 H 0.75569 0.42048 0.97405 0.0
C1877 C 0.73664 0.37398 0.0209 0.0
H1878 H 0.76683 0.37774 0.96861 0.0
C1879 C 0.73044 0.39846 0.02402 0.0
C1880 C 0.73686 0.4152 0.00693 0.0
H1881 H 0.73012 0.36108 0.03356 0.0
H1882 H 0.71944 0.40387 0.03896 0.0
C1883 C 0.75073 0.40776 0.98751 0.0
C1884 C 0.32434 0.95975 0.68706 0.0
C1885 C 0.29957 0.95067 0.67862 0.0
H1886 H 0.35062 0.99191 0.69739 0.0
C1887 C 0.28219 0.96795 0.67417 0.0
H1888 H 0.33817 0.94708 0.69104 0.0
C1889 C 0.28935 0.99352 0.67812 0.0
C1890 C 0.31396 0.00233 0.68658 0.0
H1891 H 0.26309 0.96176 0.66726 0.0
H1892 H 0.27562 0.00643 0.67453 0.0
C1893 C 0.33148 0.98537 0.69087 0.0
C1894 C 0.32113 0.15184 0.02554 0.0
C1895 C 0.33383 0.15803 0.00509 0.0
H1896 H 0.30599 0.12245 0.04551 0.0
C1897 C 0.33982 0.13884 0.98814 0.0
H1898 H 0.3165 0.16623 0.03903 0.0
C1899 C 0.33398 0.114 0.99199 0.0
C1900 C 0.32201 0.10799 0.01276 0.0
H1901 H 0.34932 0.14303 0.97206 0.0
H1902 H 0.33919 0.09951 0.97895 0.0
C1903 C 0.31529 0.12692 0.02937 0.0
C1904 C 0.37386 0.64993 0.54349 0.0
C1905 C 0.35988 0.66098 0.56136 0.0
H1906 H 0.38117 0.64607 0.50509 0.0
C1907 C 0.34205 0.67672 0.55367 0.0
H1908 H 0.38783 0.63784 0.54886 0.0
C1909 C 0.33819 0.68119 0.5287 0.0
C1910 C 0.35215 0.67012 0.51103 0.0
H1911 H 0.33072 0.6852 0.56688 0.0
H1912 H 0.32417 0.69317 0.52316 0.0
C1913 C 0.37011 0.65461 0.51852 0.0
C1914 C 0.99408 0.76459 0.38028 0.0
C1915 C 0.00975 0.75236 0.36497 0.0
H1916 H 0.98104 0.76903 0.4165 0.0
C1917 C 0.02673 0.73731 0.3758 0.0
H1918 H 0.98097 0.77648 0.37261 0.0
C1919 C 0.02682 0.73323 0.4009 0.0
C1920 C 0.01011 0.74429 0.4156 0.0
H1921 H 0.03883 0.72734 0.36456 0.0
H1922 H 0.03898 0.72037 0.40844 0.0
C1923 C 0.99423 0.76051 0.4054 0.0
C1924 C 0.67851 0.28047 0.96972 0.0
C1925 C 0.67772 0.299 0.95315 0.0
H1926 H 0.68363 0.27234 0.00778 0.0
C1927 C 0.68147 0.32414 0.96296 0.0
H1928 H 0.676 0.26096 0.96284 0.0
C1929 C 0.68594 0.33053 0.98866 0.0
C1930 C 0.68696 0.31195 0.00494 0.0
H1931 H 0.68064 0.33889 0.95081 0.0
H1932 H 0.68851 0.34998 0.99577 0.0
C1933 C 0.68308 0.28692 0.9954 0.0
C1934 C 0.013 0.35963 0.14683 0.0
C1935 C 0.00431 0.33978 0.15979 0.0
H1936 H 0.02448 0.371 0.11244 0.0
C1937 C 1.00127 0.31551 0.14771 0.0
H1938 H 0.01596 0.37846 0.15579 0.0
C1939 C 0.00633 0.31132 0.12292 0.0
C1940 C 0.01466 0.3313 0.11015 0.0
H1941 H 0.99452 0.29991 0.15723 0.0
H1942 H 0.00345 0.29259 0.11367 0.0
C1943 C 0.01808 0.3554 0.12217 0.0
loop_
_geom_bond_atom_site_label_1
_geom_bond_atom_site_label_2
_geom_bond_distance
_geom_bond_site_symmetry_2
_ccdc_geom_bond_type
C0 C1 1.264 . S
C0 C5 1.479 . S
C0 C10 1.465 . S
C1 C0 1.264 . S
C1 C3 1.339 . S
C1 H28 0.931 . S
C2 C3 1.395 . S
C2 C4 1.320 . S
C3 C1 1.339 . S
C3 C2 1.395 . S
C3 H29 0.929 . S
C4 C2 1.320 . S
C4 C5 1.405 . S
C4 H30 0.930 . S
C5 C0 1.479 . S
C5 C4 1.405 . S
C5 H31 0.931 . S
U6 O7 2.454 . S
U6 O8 2.458 . S
U6 C9 2.984 . S
U6 C10 2.847 . S
U6 C23 2.882 . S
U6 O24 2.441 . S
U6 O25 2.420 . S
U6 O26 2.455 . S
U6 O27 2.449 . S
O7 U6 2.454 . S
O7 C9 1.353 . S
O8 U6 2.458 . S
O8 C9 1.286 . S
C9 U6 2.984 . S
C9 O7 1.353 . S
C9 O8 1.286 . S
C9 C11 1.363 . S
C10 C0 1.465 . S
C10 U6 2.847 . S
C10 O24 1.249 . S
C10 O25 1.202 . S
C11 C9 1.363 . S
C11 C13 1.408 . S
C11 C16 1.342 . S
C12 C13 1.310 . S
C12 C15 1.461 . S
C12 H32 0.932 . S
C13 C11 1.408 . S
C13 C12 1.310 . S
C13 H33 0.930 . S
C14 C15 1.474 . S
C14 C16 1.285 . S
C14 H34 0.929 . S
C15 C12 1.461 . S
C15 C14 1.474 . S
C16 C11 1.342 . S
C16 C14 1.285 . S
C16 H35 0.930 . S
C17 C20 1.424 . S
C17 C22 1.245 . S
C17 C23 1.428 . S
C18 C21 1.260 . S
C18 C22 1.477 . S
C18 H36 0.932 . S
C19 C20 1.384 . S
C19 C21 1.479 . S
C19 H37 0.929 . S
C20 C17 1.424 . S
C20 C19 1.384 . S
C20 H38 0.928 . S
C21 C18 1.260 . S
C21 C19 1.479 . S
C22 C17 1.245 . S
C22 C18 1.477 . S
C22 H39 0.932 . S
C23 U6 2.882 . S
C23 C17 1.428 . S
C23 O26 1.301 . S
C23 O27 1.282 . S
O24 U6 2.441 . S
O24 C10 1.249 . S
O25 U6 2.420 . S
O25 C10 1.202 . S
O26 U6 2.455 . S
O26 C23 1.301 . S
O27 U6 2.449 . S
O27 C23 1.282 . S
H28 C1 0.931 . S
H29 C3 0.929 . S
H30 C4 0.930 . S
H31 C5 0.931 . S
H32 C12 0.932 . S
H33 C13 0.930 . S
H34 C14 0.929 . S
H35 C16 0.930 . S
H36 C18 0.932 . S
H37 C19 0.929 . S
H38 C20 0.928 . S
H39 C22 0.932 . S
C40 C41 1.264 . S
C40 C45 1.479 . S
C40 C50 1.465 . S
C41 C40 1.264 . S
C41 C43 1.339 . S
C41 H68 0.931 . S
C42 C43 1.395 . S
C42 C44 1.320 . S
C43 C41 1.339 . S
C43 C42 1.395 . S
C43 H69 0.929 . S
C44 C42 1.320 . S
C44 C45 1.405 . S
C44 H70 0.930 . S
C45 C40 1.479 . S
C45 C44 1.405 . S
C45 H71 0.931 . S
U46 O47 2.454 . S
U46 O48 2.458 . S
U46 C49 2.984 . S
U46 C50 2.847 . S
U46 C63 2.882 . S
U46 O64 2.441 . S
U46 O65 2.420 . S
U46 O66 2.455 . S
U46 O67 2.449 . S
O47 U46 2.454 . S
O47 C49 1.353 . S
O48 U46 2.458 . S
O48 C49 1.286 . S
C49 U46 2.984 . S
C49 O47 1.353 . S
C49 O48 1.286 . S
C49 C51 1.363 . S
C50 C40 1.465 . S
C50 U46 2.847 . S
C50 O64 1.249 . S
C50 O65 1.202 . S
C51 C49 1.363 . S
C51 C53 1.408 . S
C51 C56 1.342 . S
C52 C53 1.310 . S
C52 C55 1.461 . S
C52 H72 0.932 . S
C53 C51 1.408 . S
C53 C52 1.310 . S
C53 H73 0.930 . S
C54 C55 1.474 . S
C54 C56 1.285 . S
C54 H74 0.929 . S
C55 C52 1.461 . S
C55 C54 1.474 . S
C56 C51 1.342 . S
C56 C54 1.285 . S
C56 H75 0.930 . S
C57 C60 1.424 . S
C57 C62 1.245 . S
C57 C63 1.428 . S
C58 C61 1.260 . S
C58 C62 1.477 . S
C58 H76 0.932 . S
C59 C60 1.384 . S
C59 C61 1.479 . S
C59 H77 0.929 . S
C60 C57 1.424 . S
C60 C59 1.384 . S
C60 H78 0.928 . S
C61 C58 1.260 . S
C61 C59 1.479 . S
C62 C57 1.245 . S
C62 C58 1.477 . S
C62 H79 0.932 . S
C63 U46 2.882 . S
C63 C57 1.428 . S
C63 O66 1.301 . S
C63 O67 1.282 . S
O64 U46 2.441 . S
O64 C50 1.249 . S
O65 U46 2.420 . S
O65 C50 1.202 . S
O66 U46 2.455 . S
O66 C63 1.301 . S
O67 U46 2.449 . S
O67 C63 1.282 . S
H68 C41 0.931 . S
H69 C43 0.929 . S
H70 C44 0.930 . S
H71 C45 0.931 . S
H72 C52 0.932 . S
H73 C53 0.930 . S
H74 C54 0.929 . S
H75 C56 0.930 . S
H76 C58 0.932 . S
H77 C59 0.929 . S
H78 C60 0.928 . S
H79 C62 0.932 . S
C80 C81 1.264 . S
C80 C85 1.479 . S
C80 C90 1.465 . S
C81 C80 1.264 . S
C81 C83 1.339 . S
C81 H108 0.931 . S
C82 C83 1.395 . S
C82 C84 1.320 . S
C83 C81 1.339 . S
C83 C82 1.395 . S
C83 H109 0.929 . S
C84 C82 1.320 . S
C84 C85 1.405 . S
C84 H110 0.925 1_565 S
C85 C80 1.479 . S
C85 C84 1.405 . S
C85 H111 0.931 . S
U86 O87 2.454 . S
U86 O88 2.458 . S
U86 C89 2.984 . S
U86 C90 2.847 . S
U86 C103 2.882 . S
U86 O104 2.441 . S
U86 O105 2.420 . S
U86 O106 2.455 . S
U86 O107 2.449 . S
O87 U86 2.454 . S
O87 C89 1.353 . S
O88 U86 2.458 . S
O88 C89 1.286 . S
C89 U86 2.984 . S
C89 O87 1.353 . S
C89 O88 1.286 . S
C89 C91 1.363 . S
C90 C80 1.465 . S
C90 U86 2.847 . S
C90 O104 1.249 . S
C90 O105 1.202 . S
C91 C89 1.363 . S
C91 C93 1.408 . S
C91 C96 1.342 . S
C92 C93 1.310 . S
C92 C95 1.462 . S
C92 H112 0.932 . S
C93 C91 1.408 . S
C93 C92 1.310 . S
C93 H113 0.930 . S
C94 C95 1.473 1_545 S
C94 C96 1.284 1_545 S
C94 H114 0.932 . S
C95 C92 1.462 . S
C95 C94 1.473 1_565 S
C96 C91 1.342 . S
C96 C94 1.284 1_565 S
C96 H115 0.936 . S
C97 C100 1.424 . S
C97 C102 1.245 . S
C97 C103 1.428 . S
C98 C101 1.260 . S
C98 C102 1.477 . S
C98 H116 0.932 . S
C99 C100 1.384 . S
C99 C101 1.479 . S
C99 H117 0.929 . S
C100 C97 1.424 . S
C100 C99 1.384 . S
C100 H118 0.928 . S
C101 C98 1.260 . S
C101 C99 1.479 . S
C102 C97 1.245 . S
C102 C98 1.477 . S
C102 H119 0.932 . S
C103 U86 2.882 . S
C103 C97 1.428 . S
C103 O106 1.301 . S
C103 O107 1.282 . S
O104 U86 2.441 . S
O104 C90 1.249 . S
O105 U86 2.420 . S
O105 C90 1.202 . S
O106 U86 2.455 . S
O106 C103 1.301 . S
O107 U86 2.449 . S
O107 C103 1.282 . S
H108 C81 0.931 . S
H109 C83 0.929 . S
H110 C84 0.925 1_545 S
H111 C85 0.931 . S
H112 C92 0.932 . S
H113 C93 0.930 . S
H114 C94 0.932 . S
H115 C96 0.936 . S
H116 C98 0.932 . S
H117 C99 0.929 . S
H118 C100 0.928 . S
H119 C102 0.932 . S
C120 C121 1.264 . S
C120 C125 1.479 . S
C120 C130 1.465 . S
C121 C120 1.264 . S
C121 C123 1.339 . S
C121 H148 0.931 . S
C122 C123 1.395 . S
C122 C124 1.320 . S
C123 C121 1.339 . S
C123 C122 1.395 . S
C123 H149 0.929 . S
C124 C122 1.320 . S
C124 C125 1.405 . S
C124 H150 0.930 . S
C125 C120 1.479 . S
C125 C124 1.405 . S
C125 H151 0.931 . S
U126 O127 2.454 . S
U126 O128 2.458 . S
U126 C129 2.984 . S
U126 C130 2.847 . S
U126 C143 2.882 . S
U126 O144 2.441 . S
U126 O145 2.420 . S
U126 O146 2.455 . S
U126 O147 2.449 . S
O127 U126 2.454 . S
O127 C129 1.353 . S
O128 U126 2.458 . S
O128 C129 1.286 . S
C129 U126 2.984 . S
C129 O127 1.353 . S
C129 O128 1.286 . S
C129 C131 1.363 . S
C130 C120 1.465 . S
C130 U126 2.847 . S
C130 O144 1.249 . S
C130 O145 1.202 . S
C131 C129 1.363 . S
C131 C133 1.408 . S
C131 C136 1.342 . S
C132 C133 1.310 . S
C132 C135 1.461 . S
C132 H152 0.932 . S
C133 C131 1.408 . S
C133 C132 1.310 . S
C133 H153 0.930 . S
C134 C135 1.474 . S
C134 C136 1.285 . S
C134 H154 0.929 . S
C135 C132 1.461 . S
C135 C134 1.474 . S
C136 C131 1.342 . S
C136 C134 1.285 . S
C136 H155 0.930 . S
C137 C140 1.424 . S
C137 C142 1.245 . S
C137 C143 1.428 1_565 S
C138 C141 1.260 . S
C138 C142 1.477 . S
C138 H156 0.932 . S
C139 C140 1.384 . S
C139 C141 1.479 . S
C139 H157 0.929 . S
C140 C137 1.424 . S
C140 C139 1.384 . S
C140 H158 0.928 . S
C141 C138 1.260 . S
C141 C139 1.479 . S
C142 C137 1.245 . S
C142 C138 1.477 . S
C142 H159 0.932 . S
C143 U126 2.882 . S
C143 C137 1.428 1_545 S
C143 O146 1.301 . S
C143 O147 1.282 . S
O144 U126 2.441 . S
O144 C130 1.249 . S
O145 U126 2.420 . S
O145 C130 1.202 . S
O146 U126 2.455 . S
O146 C143 1.301 . S
O147 U126 2.449 . S
O147 C143 1.282 . S
H148 C121 0.931 . S
H149 C123 0.929 . S
H150 C124 0.930 . S
H151 C125 0.931 . S
H152 C132 0.932 . S
H153 C133 0.930 . S
H154 C134 0.929 . S
H155 C136 0.930 . S
H156 C138 0.932 . S
H157 C139 0.929 . S
H158 C140 0.928 . S
H159 C142 0.932 . S
C160 C161 1.264 . S
C160 C165 1.479 . S
C160 C170 1.465 . S
C161 C160 1.264 . S
C161 C163 1.339 . S
C161 H188 0.931 . S
C162 C163 1.395 . S
C162 C164 1.320 . S
C163 C161 1.339 . S
C163 C162 1.395 . S
C163 H189 0.929 . S
C164 C162 1.320 . S
C164 C165 1.405 . S
C164 H190 0.930 . S
C165 C160 1.479 . S
C165 C164 1.405 . S
C165 H191 0.931 . S
U166 O167 2.454 . S
U166 O168 2.458 . S
U166 C169 2.984 . S
U166 C170 2.847 . S
U166 C183 2.882 . S
U166 O184 2.441 . S
U166 O185 2.420 . S
U166 O186 2.455 . S
U166 O187 2.449 . S
O167 U166 2.454 . S
O167 C169 1.353 . S
O168 U166 2.458 . S
O168 C169 1.286 . S
C169 U166 2.984 . S
C169 O167 1.353 . S
C169 O168 1.286 . S
C169 C171 1.363 . S
C170 C160 1.465 . S
C170 U166 2.847 . S
C170 O184 1.249 . S
C170 O185 1.202 . S
C171 C169 1.363 . S
C171 C173 1.408 . S
C171 C176 1.342 . S
C172 C173 1.310 . S
C172 C175 1.461 . S
C172 H192 0.932 . S
C173 C171 1.408 . S
C173 C172 1.310 . S
C173 H193 0.930 . S
C174 C175 1.474 . S
C174 C176 1.285 . S
C174 H194 0.929 . S
C175 C172 1.461 . S
C175 C174 1.474 . S
C176 C171 1.342 . S
C176 C174 1.285 . S
C176 H195 0.930 . S
C177 C180 1.424 . S
C177 C182 1.245 . S
C177 C183 1.428 . S
C178 C181 1.260 . S
C178 C182 1.477 . S
C178 H196 0.932 . S
C179 C180 1.384 . S
C179 C181 1.479 . S
C179 H197 0.929 . S
C180 C177 1.424 . S
C180 C179 1.384 . S
C180 H198 0.928 . S
C181 C178 1.260 . S
C181 C179 1.479 . S
C182 C177 1.245 . S
C182 C178 1.477 . S
C182 H199 0.932 . S
C183 U166 2.882 . S
C183 C177 1.428 . S
C183 O186 1.301 . S
C183 O187 1.282 . S
O184 U166 2.441 . S
O184 C170 1.249 . S
O185 U166 2.420 . S
O185 C170 1.202 . S
O186 U166 2.455 . S
O186 C183 1.301 . S
O187 U166 2.449 . S
O187 C183 1.282 . S
H188 C161 0.931 . S
H189 C163 0.929 . S
H190 C164 0.930 . S
H191 C165 0.931 . S
H192 C172 0.932 . S
H193 C173 0.930 . S
H194 C174 0.929 . S
H195 C176 0.930 . S
H196 C178 0.932 . S
H197 C179 0.929 . S
H198 C180 0.928 . S
H199 C182 0.932 . S
C200 C201 1.264 . S
C200 C205 1.479 . S
C200 C210 1.465 . S
C201 C200 1.264 . S
C201 C203 1.339 . S
C201 H228 0.931 . S
C202 C203 1.395 . S
C202 C204 1.320 . S
C203 C201 1.339 . S
C203 C202 1.395 . S
C203 H229 0.929 . S
C204 C202 1.320 . S
C204 C205 1.405 . S
C204 H230 0.930 . S
C205 C200 1.479 . S
C205 C204 1.405 . S
C205 H231 0.931 . S
U206 O207 2.454 . S
U206 O208 2.458 . S
U206 C209 2.984 . S
U206 C210 2.847 . S
U206 C223 2.882 . S
U206 O224 2.441 . S
U206 O225 2.420 . S
U206 O226 2.455 . S
U206 O227 2.449 . S
O207 U206 2.454 . S
O207 C209 1.353 . S
O208 U206 2.458 . S
O208 C209 1.286 . S
C209 U206 2.984 . S
C209 O207 1.353 . S
C209 O208 1.286 . S
C209 C211 1.363 . S
C210 C200 1.465 . S
C210 U206 2.847 . S
C210 O224 1.249 . S
C210 O225 1.202 . S
C211 C209 1.363 . S
C211 C213 1.408 . S
C211 C216 1.342 . S
C212 C213 1.310 . S
C212 C215 1.461 . S
C212 H232 0.932 . S
C213 C211 1.408 . S
C213 C212 1.310 . S
C213 H233 0.930 . S
C214 C215 1.474 . S
C214 C216 1.285 . S
C214 H234 0.929 . S
C215 C212 1.461 . S
C215 C214 1.474 . S
C216 C211 1.342 . S
C216 C214 1.285 . S
C216 H235 0.930 . S
C217 C220 1.424 . S
C217 C222 1.245 . S
C217 C223 1.428 1_556 S
C218 C221 1.260 . S
C218 C222 1.477 . S
C218 H236 0.932 . S
C219 C220 1.384 . S
C219 C221 1.479 . S
C219 H237 0.929 . S
C220 C217 1.424 . S
C220 C219 1.384 . S
C220 H238 0.928 . S
C221 C218 1.260 . S
C221 C219 1.479 . S
C222 C217 1.245 . S
C222 C218 1.477 . S
C222 H239 0.932 . S
C223 U206 2.882 . S
C223 C217 1.428 1_554 S
C223 O226 1.301 . S
C223 O227 1.282 . S
O224 U206 2.441 . S
O224 C210 1.249 . S
O225 U206 2.420 . S
O225 C210 1.202 . S
O226 U206 2.455 . S
O226 C223 1.301 . S
O227 U206 2.449 . S
O227 C223 1.282 . S
H228 C201 0.931 . S
H229 C203 0.929 . S
H230 C204 0.930 . S
H231 C205 0.931 . S
H232 C212 0.932 . S
H233 C213 0.930 . S
H234 C214 0.929 . S
H235 C216 0.930 . S
H236 C218 0.932 . S
H237 C219 0.929 . S
H238 C220 0.928 . S
H239 C222 0.932 . S
C240 C241 1.264 . S
C240 C245 1.479 . S
C240 C250 1.465 . S
C241 C240 1.264 . S
C241 C243 1.339 . S
C241 H268 0.931 . S
C242 C243 1.395 . S
C242 C244 1.320 . S
C243 C241 1.339 . S
C243 C242 1.395 . S
C243 H269 0.929 . S
C244 C242 1.320 . S
C244 C245 1.405 . S
C244 H270 0.930 . S
C245 C240 1.479 . S
C245 C244 1.405 . S
C245 H271 0.931 . S
U246 O247 2.454 . S
U246 O248 2.458 . S
U246 C249 2.984 . S
U246 C250 2.847 . S
U246 C263 2.882 . S
U246 O264 2.441 . S
U246 O265 2.420 . S
U246 O266 2.455 . S
U246 O267 2.449 . S
O247 U246 2.454 . S
O247 C249 1.353 . S
O248 U246 2.458 . S
O248 C249 1.286 . S
C249 U246 2.984 . S
C249 O247 1.353 . S
C249 O248 1.286 . S
C249 C251 1.363 . S
C250 C240 1.465 . S
C250 U246 2.847 . S
C250 O264 1.249 . S
C250 O265 1.202 . S
C251 C249 1.363 . S
C251 C253 1.408 . S
C251 C256 1.342 . S
C252 C253 1.310 . S
C252 C255 1.461 . S
C252 H272 0.932 . S
C253 C251 1.408 . S
C253 C252 1.310 . S
C253 H273 0.930 . S
C254 C255 1.474 . S
C254 C256 1.285 . S
C254 H274 0.929 . S
C255 C252 1.461 . S
C255 C254 1.474 . S
C256 C251 1.342 . S
C256 C254 1.285 . S
C256 H275 0.930 . S
C257 C260 1.424 . S
C257 C262 1.245 . S
C257 C263 1.428 . S
C258 C261 1.260 . S
C258 C262 1.477 . S
C258 H276 0.932 . S
C259 C260 1.384 . S
C259 C261 1.479 . S
C259 H277 0.929 . S
C260 C257 1.424 . S
C260 C259 1.384 . S
C260 H278 0.928 . S
C261 C258 1.260 . S
C261 C259 1.479 . S
C262 C257 1.245 . S
C262 C258 1.477 . S
C262 H279 0.932 . S
C263 U246 2.882 . S
C263 C257 1.428 . S
C263 O266 1.301 . S
C263 O267 1.282 . S
O264 U246 2.441 . S
O264 C250 1.249 . S
O265 U246 2.420 . S
O265 C250 1.202 . S
O266 U246 2.455 . S
O266 C263 1.301 . S
O267 U246 2.449 . S
O267 C263 1.282 . S
H268 C241 0.931 . S
H269 C243 0.929 . S
H270 C244 0.930 . S
H271 C245 0.931 . S
H272 C252 0.932 . S
H273 C253 0.930 . S
H274 C254 0.929 . S
H275 C256 0.930 . S
H276 C258 0.932 . S
H277 C259 0.929 . S
H278 C260 0.928 . S
H279 C262 0.932 . S
C280 C281 1.264 . S
C280 C285 1.479 . S
C280 C290 1.465 . S
C281 C280 1.264 . S
C281 C283 1.339 . S
C281 H308 0.931 . S
C282 C283 1.395 . S
C282 C284 1.320 . S
C283 C281 1.339 . S
C283 C282 1.395 . S
C283 H309 0.929 . S
C284 C282 1.320 . S
C284 C285 1.405 . S
C284 H310 0.925 1_556 S
C285 C280 1.479 . S
C285 C284 1.405 . S
C285 H311 0.931 . S
U286 O287 2.454 . S
U286 O288 2.458 . S
U286 C289 2.984 . S
U286 C290 2.847 . S
U286 C303 2.882 . S
U286 O304 2.441 . S
U286 O305 2.420 . S
U286 O306 2.455 . S
U286 O307 2.449 . S
O287 U286 2.454 . S
O287 C289 1.353 . S
O288 U286 2.458 . S
O288 C289 1.286 . S
C289 U286 2.984 . S
C289 O287 1.353 . S
C289 O288 1.286 . S
C289 C291 1.363 . S
C290 C280 1.465 . S
C290 U286 2.847 . S
C290 O304 1.249 . S
C290 O305 1.202 . S
C291 C289 1.363 . S
C291 C293 1.408 . S
C291 C296 1.342 . S
C292 C293 1.310 . S
C292 C295 1.462 . S
C292 H312 0.932 . S
C293 C291 1.408 . S
C293 C292 1.310 . S
C293 H313 0.930 . S
C294 C295 1.473 1_554 S
C294 C296 1.284 1_554 S
C294 H314 0.932 . S
C295 C292 1.462 . S
C295 C294 1.473 1_556 S
C296 C291 1.342 . S
C296 C294 1.284 1_556 S
C296 H315 0.936 . S
C297 C300 1.424 . S
C297 C302 1.245 . S
C297 C303 1.428 . S
C298 C301 1.260 . S
C298 C302 1.477 . S
C298 H316 0.932 . S
C299 C300 1.384 . S
C299 C301 1.479 . S
C299 H317 0.929 . S
C300 C297 1.424 . S
C300 C299 1.384 . S
C300 H318 0.928 . S
C301 C298 1.260 . S
C301 C299 1.479 . S
C302 C297 1.245 . S
C302 C298 1.477 . S
C302 H319 0.932 . S
C303 U286 2.882 . S
C303 C297 1.428 . S
C303 O306 1.301 . S
C303 O307 1.282 . S
O304 U286 2.441 . S
O304 C290 1.249 . S
O305 U286 2.420 . S
O305 C290 1.202 . S
O306 U286 2.455 . S
O306 C303 1.301 . S
O307 U286 2.449 . S
O307 C303 1.282 . S
H308 C281 0.931 . S
H309 C283 0.929 . S
H310 C284 0.925 1_554 S
H311 C285 0.931 . S
H312 C292 0.932 . S
H313 C293 0.930 . S
H314 C294 0.932 . S
H315 C296 0.936 . S
H316 C298 0.932 . S
H317 C299 0.929 . S
H318 C300 0.928 . S
H319 C302 0.932 . S
C320 C321 1.264 . S
C320 C325 1.479 . S
C320 C330 1.465 . S
C321 C320 1.264 . S
C321 C323 1.339 . S
C321 H348 0.931 . S
C322 C323 1.395 . S
C322 C324 1.320 . S
C323 C321 1.339 . S
C323 C322 1.395 . S
C323 H349 0.929 . S
C324 C322 1.320 . S
C324 C325 1.405 . S
C324 H350 0.930 . S
C325 C320 1.479 . S
C325 C324 1.405 . S
C325 H351 0.931 . S
U326 O327 2.454 . S
U326 O328 2.458 . S
U326 C329 2.984 . S
U326 C330 2.847 . S
U326 C343 2.882 . S
U326 O344 2.441 . S
U326 O345 2.420 . S
U326 O346 2.455 . S
U326 O347 2.449 . S
O327 U326 2.454 . S
O327 C329 1.353 . S
O328 U326 2.458 . S
O328 C329 1.286 . S
C329 U326 2.984 . S
C329 O327 1.353 . S
C329 O328 1.286 . S
C329 C331 1.363 . S
C330 C320 1.465 . S
C330 U326 2.847 . S
C330 O344 1.249 . S
C330 O345 1.202 . S
C331 C329 1.363 . S
C331 C333 1.408 . S
C331 C336 1.342 . S
C332 C333 1.310 . S
C332 C335 1.461 . S
C332 H352 0.932 . S
C333 C331 1.408 . S
C333 C332 1.310 . S
C333 H353 0.930 . S
C334 C335 1.474 . S
C334 C336 1.285 . S
C334 H354 0.929 . S
C335 C332 1.461 . S
C335 C334 1.474 . S
C336 C331 1.342 . S
C336 C334 1.285 . S
C336 H355 0.930 . S
C337 C340 1.424 . S
C337 C342 1.245 . S
C337 C343 1.428 . S
C338 C341 1.260 . S
C338 C342 1.477 . S
C338 H356 0.932 . S
C339 C340 1.384 . S
C339 C341 1.479 . S
C339 H357 0.929 . S
C340 C337 1.424 . S
C340 C339 1.384 . S
C340 H358 0.928 . S
C341 C338 1.260 . S
C341 C339 1.479 . S
C342 C337 1.245 . S
C342 C338 1.477 . S
C342 H359 0.932 . S
C343 U326 2.882 . S
C343 C337 1.428 . S
C343 O346 1.301 . S
C343 O347 1.282 . S
O344 U326 2.441 . S
O344 C330 1.249 . S
O345 U326 2.420 . S
O345 C330 1.202 . S
O346 U326 2.455 . S
O346 C343 1.301 . S
O347 U326 2.449 . S
O347 C343 1.282 . S
H348 C321 0.931 . S
H349 C323 0.929 . S
H350 C324 0.930 . S
H351 C325 0.931 . S
H352 C332 0.932 . S
H353 C333 0.930 . S
H354 C334 0.929 . S
H355 C336 0.930 . S
H356 C338 0.932 . S
H357 C339 0.929 . S
H358 C340 0.928 . S
H359 C342 0.932 . S
C360 C361 1.264 . S
C360 C365 1.479 . S
C360 C370 1.465 . S
C361 C360 1.264 . S
C361 C363 1.339 . S
C361 H388 0.931 . S
C362 C363 1.395 . S
C362 C364 1.320 . S
C363 C361 1.339 . S
C363 C362 1.395 . S
C363 H389 0.929 . S
C364 C362 1.320 . S
C364 C365 1.405 . S
C364 H390 0.930 . S
C365 C360 1.479 . S
C365 C364 1.405 . S
C365 H391 0.931 . S
U366 O367 2.454 . S
U366 O368 2.458 . S
U366 C369 2.984 . S
U366 C370 2.847 . S
U366 C383 2.882 . S
U366 O384 2.441 . S
U366 O385 2.420 . S
U366 O386 2.455 . S
U366 O387 2.449 . S
O367 U366 2.454 . S
O367 C369 1.353 . S
O368 U366 2.458 . S
O368 C369 1.286 . S
C369 U366 2.984 . S
C369 O367 1.353 . S
C369 O368 1.286 . S
C369 C371 1.363 . S
C370 C360 1.465 . S
C370 U366 2.847 . S
C370 O384 1.249 . S
C370 O385 1.202 . S
C371 C369 1.363 . S
C371 C373 1.408 . S
C371 C376 1.342 . S
C372 C373 1.310 . S
C372 C375 1.461 . S
C372 H392 0.932 . S
C373 C371 1.408 . S
C373 C372 1.310 . S
C373 H393 0.930 . S
C374 C375 1.474 . S
C374 C376 1.285 . S
C374 H394 0.929 . S
C375 C372 1.461 . S
C375 C374 1.474 . S
C376 C371 1.342 . S
C376 C374 1.285 . S
C376 H395 0.930 . S
C377 C380 1.424 . S
C377 C382 1.245 . S
C377 C383 1.428 1_655 S
C378 C381 1.260 . S
C378 C382 1.477 . S
C378 H396 0.932 . S
C379 C380 1.384 . S
C379 C381 1.479 . S
C379 H397 0.929 . S
C380 C377 1.424 . S
C380 C379 1.384 . S
C380 H398 0.928 . S
C381 C378 1.260 . S
C381 C379 1.479 . S
C382 C377 1.245 . S
C382 C378 1.477 . S
C382 H399 0.932 . S
C383 U366 2.882 . S
C383 C377 1.428 1_455 S
C383 O386 1.301 . S
C383 O387 1.282 . S
O384 U366 2.441 . S
O384 C370 1.249 . S
O385 U366 2.420 . S
O385 C370 1.202 . S
O386 U366 2.455 . S
O386 C383 1.301 . S
O387 U366 2.449 . S
O387 C383 1.282 . S
H388 C361 0.931 . S
H389 C363 0.929 . S
H390 C364 0.930 . S
H391 C365 0.931 . S
H392 C372 0.932 . S
H393 C373 0.930 . S
H394 C374 0.929 . S
H395 C376 0.930 . S
H396 C378 0.932 . S
H397 C379 0.929 . S
H398 C380 0.928 . S
H399 C382 0.932 . S
C400 C401 1.264 . S
C400 C405 1.479 . S
C400 C410 1.465 . S
C401 C400 1.264 . S
C401 C403 1.339 . S
C401 H428 0.931 . S
C402 C403 1.395 . S
C402 C404 1.320 . S
C403 C401 1.339 . S
C403 C402 1.395 . S
C403 H429 0.929 . S
C404 C402 1.320 . S
C404 C405 1.405 . S
C404 H430 0.930 . S
C405 C400 1.479 . S
C405 C404 1.405 . S
C405 H431 0.931 . S
U406 O407 2.454 . S
U406 O408 2.458 . S
U406 C409 2.984 . S
U406 C410 2.847 . S
U406 C423 2.882 . S
U406 O424 2.441 . S
U406 O425 2.420 . S
U406 O426 2.455 . S
U406 O427 2.449 . S
O407 U406 2.454 . S
O407 C409 1.353 . S
O408 U406 2.458 . S
O408 C409 1.286 . S
C409 U406 2.984 . S
C409 O407 1.353 . S
C409 O408 1.286 . S
C409 C411 1.363 . S
C410 C400 1.465 . S
C410 U406 2.847 . S
C410 O424 1.249 . S
C410 O425 1.202 . S
C411 C409 1.363 . S
C411 C413 1.408 . S
C411 C416 1.342 . S
C412 C413 1.310 . S
C412 C415 1.461 . S
C412 H432 0.932 . S
C413 C411 1.408 . S
C413 C412 1.310 . S
C413 H433 0.930 . S
C414 C415 1.474 . S
C414 C416 1.285 . S
C414 H434 0.929 . S
C415 C412 1.461 . S
C415 C414 1.474 . S
C416 C411 1.342 . S
C416 C414 1.285 . S
C416 H435 0.930 . S
C417 C420 1.424 . S
C417 C422 1.245 . S
C417 C423 1.428 . S
C418 C421 1.260 . S
C418 C422 1.477 . S
C418 H436 0.932 . S
C419 C420 1.384 . S
C419 C421 1.479 . S
C419 H437 0.929 . S
C420 C417 1.424 . S
C420 C419 1.384 . S
C420 H438 0.928 . S
C421 C418 1.260 . S
C421 C419 1.479 . S
C422 C417 1.245 . S
C422 C418 1.477 . S
C422 H439 0.932 . S
C423 U406 2.882 . S
C423 C417 1.428 . S
C423 O426 1.301 . S
C423 O427 1.282 . S
O424 U406 2.441 . S
O424 C410 1.249 . S
O425 U406 2.420 . S
O425 C410 1.202 . S
O426 U406 2.455 . S
O426 C423 1.301 . S
O427 U406 2.449 . S
O427 C423 1.282 . S
H428 C401 0.931 . S
H429 C403 0.929 . S
H430 C404 0.930 . S
H431 C405 0.931 . S
H432 C412 0.932 . S
H433 C413 0.930 . S
H434 C414 0.929 . S
H435 C416 0.930 . S
H436 C418 0.932 . S
H437 C419 0.929 . S
H438 C420 0.928 . S
H439 C422 0.932 . S
C440 C441 1.264 . S
C440 C445 1.479 . S
C440 C450 1.465 . S
C441 C440 1.264 . S
C441 C443 1.339 . S
C441 H468 0.931 . S
C442 C443 1.395 . S
C442 C444 1.320 . S
C443 C441 1.339 . S
C443 C442 1.395 . S
C443 H469 0.929 . S
C444 C442 1.320 . S
C444 C445 1.405 . S
C444 H470 0.925 1_655 S
C445 C440 1.479 . S
C445 C444 1.405 . S
C445 H471 0.931 . S
U446 O447 2.454 . S
U446 O448 2.458 . S
U446 C449 2.984 . S
U446 C450 2.847 . S
U446 C463 2.882 . S
U446 O464 2.441 . S
U446 O465 2.420 . S
U446 O466 2.455 . S
U446 O467 2.449 . S
O447 U446 2.454 . S
O447 C449 1.353 . S
O448 U446 2.458 . S
O448 C449 1.286 . S
C449 U446 2.984 . S
C449 O447 1.353 . S
C449 O448 1.286 . S
C449 C451 1.363 . S
C450 C440 1.465 . S
C450 U446 2.847 . S
C450 O464 1.249 . S
C450 O465 1.202 . S
C451 C449 1.363 . S
C451 C453 1.408 . S
C451 C456 1.342 . S
C452 C453 1.310 . S
C452 C455 1.462 . S
C452 H472 0.932 . S
C453 C451 1.408 . S
C453 C452 1.310 . S
C453 H473 0.930 . S
C454 C455 1.473 1_455 S
C454 C456 1.284 1_455 S
C454 H474 0.932 . S
C455 C452 1.462 . S
C455 C454 1.473 1_655 S
C456 C451 1.342 . S
C456 C454 1.284 1_655 S
C456 H475 0.936 . S
C457 C460 1.424 . S
C457 C462 1.245 . S
C457 C463 1.428 . S
C458 C461 1.260 . S
C458 C462 1.477 . S
C458 H476 0.932 . S
C459 C460 1.384 . S
C459 C461 1.479 . S
C459 H477 0.929 . S
C460 C457 1.424 . S
C460 C459 1.384 . S
C460 H478 0.928 . S
C461 C458 1.260 . S
C461 C459 1.479 . S
C462 C457 1.245 . S
C462 C458 1.477 . S
C462 H479 0.932 . S
C463 U446 2.882 . S
C463 C457 1.428 . S
C463 O466 1.301 . S
C463 O467 1.282 . S
O464 U446 2.441 . S
O464 C450 1.249 . S
O465 U446 2.420 . S
O465 C450 1.202 . S
O466 U446 2.455 . S
O466 C463 1.301 . S
O467 U446 2.449 . S
O467 C463 1.282 . S
H468 C441 0.931 . S
H469 C443 0.929 . S
H470 C444 0.925 1_455 S
H471 C445 0.931 . S
H472 C452 0.932 . S
H473 C453 0.930 . S
H474 C454 0.932 . S
H475 C456 0.936 . S
H476 C458 0.932 . S
H477 C459 0.929 . S
H478 C460 0.928 . S
H479 C462 0.932 . S
C480 C481 1.264 . S
C480 C485 1.479 . S
C480 C490 1.465 . S
C481 C480 1.264 . S
C481 C483 1.339 . S
C481 H508 0.931 . S
C482 C483 1.395 . S
C482 C484 1.320 . S
C483 C481 1.339 . S
C483 C482 1.395 . S
C483 H509 0.929 . S
C484 C482 1.320 . S
C484 C485 1.405 . S
C484 H510 0.930 . S
C485 C480 1.479 . S
C485 C484 1.405 . S
C485 H511 0.931 . S
U486 O487 2.454 . S
U486 O488 2.458 . S
U486 C489 2.984 . S
U486 C490 2.847 . S
U486 C503 2.882 . S
U486 O504 2.441 . S
U486 O505 2.420 . S
U486 O506 2.455 . S
U486 O507 2.449 . S
O487 U486 2.454 . S
O487 C489 1.353 . S
O488 U486 2.458 . S
O488 C489 1.286 . S
C489 U486 2.984 . S
C489 O487 1.353 . S
C489 O488 1.286 . S
C489 C491 1.363 . S
C490 C480 1.465 . S
C490 U486 2.847 . S
C490 O504 1.249 . S
C490 O505 1.202 . S
C491 C489 1.363 . S
C491 C493 1.408 . S
C491 C496 1.342 . S
C492 C493 1.310 . S
C492 C495 1.461 . S
C492 H512 0.932 . S
C493 C491 1.408 . S
C493 C492 1.310 . S
C493 H513 0.930 . S
C494 C495 1.474 . S
C494 C496 1.285 . S
C494 H514 0.929 . S
C495 C492 1.461 . S
C495 C494 1.474 . S
C496 C491 1.342 . S
C496 C494 1.285 . S
C496 H515 0.930 . S
C497 C500 1.424 . S
C497 C502 1.245 . S
C497 C503 1.428 . S
C498 C501 1.260 . S
C498 C502 1.477 . S
C498 H516 0.932 . S
C499 C500 1.384 . S
C499 C501 1.479 . S
C499 H517 0.929 . S
C500 C497 1.424 . S
C500 C499 1.384 . S
C500 H518 0.928 . S
C501 C498 1.260 . S
C501 C499 1.479 . S
C502 C497 1.245 . S
C502 C498 1.477 . S
C502 H519 0.932 . S
C503 U486 2.882 . S
C503 C497 1.428 . S
C503 O506 1.301 . S
C503 O507 1.282 . S
O504 U486 2.441 . S
O504 C490 1.249 . S
O505 U486 2.420 . S
O505 C490 1.202 . S
O506 U486 2.455 . S
O506 C503 1.301 . S
O507 U486 2.449 . S
O507 C503 1.282 . S
H508 C481 0.931 . S
H509 C483 0.929 . S
H510 C484 0.930 . S
H511 C485 0.931 . S
H512 C492 0.932 . S
H513 C493 0.930 . S
H514 C494 0.929 . S
H515 C496 0.930 . S
H516 C498 0.932 . S
H517 C499 0.929 . S
H518 C500 0.928 . S
H519 C502 0.932 . S
C520 C521 1.264 . S
C520 C525 1.479 . S
C520 C530 1.465 . S
C521 C520 1.264 . S
C521 C523 1.339 . S
C521 H548 0.931 . S
C522 C523 1.395 . S
C522 C524 1.320 . S
C523 C521 1.339 . S
C523 C522 1.395 . S
C523 H549 0.929 . S
C524 C522 1.320 . S
C524 C525 1.405 . S
C524 H550 0.930 . S
C525 C520 1.479 . S
C525 C524 1.405 . S
C525 H551 0.931 . S
U526 O527 2.454 . S
U526 O528 2.458 . S
U526 C529 2.984 . S
U526 C530 2.847 . S
U526 C543 2.882 . S
U526 O544 2.441 . S
U526 O545 2.420 . S
U526 O546 2.455 . S
U526 O547 2.449 . S
O527 U526 2.454 . S
O527 C529 1.353 . S
O528 U526 2.458 . S
O528 C529 1.286 . S
C529 U526 2.984 . S
C529 O527 1.353 . S
C529 O528 1.286 . S
C529 C531 1.363 . S
C530 C520 1.465 . S
C530 U526 2.847 . S
C530 O544 1.249 . S
C530 O545 1.202 . S
C531 C529 1.363 . S
C531 C533 1.408 . S
C531 C536 1.342 . S
C532 C533 1.310 . S
C532 C535 1.461 . S
C532 H552 0.932 . S
C533 C531 1.408 . S
C533 C532 1.310 . S
C533 H553 0.930 . S
C534 C535 1.474 . S
C534 C536 1.285 . S
C534 H554 0.929 . S
C535 C532 1.461 . S
C535 C534 1.474 . S
C536 C531 1.342 . S
C536 C534 1.285 . S
C536 H555 0.930 . S
C537 C540 1.424 . S
C537 C542 1.245 . S
C537 C543 1.428 . S
C538 C541 1.260 . S
C538 C542 1.477 . S
C538 H556 0.932 . S
C539 C540 1.384 . S
C539 C541 1.479 . S
C539 H557 0.929 . S
C540 C537 1.424 . S
C540 C539 1.384 . S
C540 H558 0.928 . S
C541 C538 1.260 . S
C541 C539 1.479 . S
C542 C537 1.245 . S
C542 C538 1.477 . S
C542 H559 0.932 . S
C543 U526 2.882 . S
C543 C537 1.428 . S
C543 O546 1.301 . S
C543 O547 1.282 . S
O544 U526 2.441 . S
O544 C530 1.249 . S
O545 U526 2.420 . S
O545 C530 1.202 . S
O546 U526 2.455 . S
O546 C543 1.301 . S
O547 U526 2.449 . S
O547 C543 1.282 . S
H548 C521 0.931 . S
H549 C523 0.929 . S
H550 C524 0.930 . S
H551 C525 0.931 . S
H552 C532 0.932 . S
H553 C533 0.930 . S
H554 C534 0.929 . S
H555 C536 0.930 . S
H556 C538 0.932 . S
H557 C539 0.929 . S
H558 C540 0.928 . S
H559 C542 0.932 . S
C560 C561 1.264 . S
C560 C565 1.479 . S
C560 C570 1.465 . S
C561 C560 1.264 . S
C561 C563 1.339 . S
C561 H588 0.931 . S
C562 C563 1.395 . S
C562 C564 1.320 . S
C563 C561 1.339 . S
C563 C562 1.395 . S
C563 H589 0.929 . S
C564 C562 1.320 . S
C564 C565 1.405 . S
C564 H590 0.919 1_565 S
C565 C560 1.479 . S
C565 C564 1.405 . S
C565 H591 0.931 . S
U566 O567 2.454 . S
U566 O568 2.458 . S
U566 C569 2.984 . S
U566 C570 2.847 . S
U566 C583 2.882 . S
U566 O584 2.441 . S
U566 O585 2.420 . S
U566 O586 2.455 . S
U566 O587 2.449 . S
O567 U566 2.454 . S
O567 C569 1.353 . S
O568 U566 2.458 . S
O568 C569 1.286 . S
C569 U566 2.984 . S
C569 O567 1.353 . S
C569 O568 1.286 . S
C569 C571 1.363 . S
C570 C560 1.465 . S
C570 U566 2.847 . S
C570 O584 1.249 . S
C570 O585 1.202 . S
C571 C569 1.363 . S
C571 C573 1.408 . S
C571 C576 1.342 . S
C572 C573 1.310 . S
C572 C575 1.460 . S
C572 H592 0.932 . S
C573 C571 1.408 . S
C573 C572 1.310 . S
C573 H593 0.930 . S
C574 C575 1.475 1_545 S
C574 C576 1.285 1_545 S
C574 H594 0.930 . S
C575 C572 1.460 . S
C575 C574 1.475 1_565 S
C576 C571 1.342 . S
C576 C574 1.285 1_565 S
C576 H595 0.930 . S
C577 C580 1.424 . S
C577 C582 1.245 . S
C577 C583 1.428 . S
C578 C581 1.260 . S
C578 C582 1.477 . S
C578 H596 0.932 . S
C579 C580 1.384 . S
C579 C581 1.479 . S
C579 H597 0.929 . S
C580 C577 1.424 . S
C580 C579 1.384 . S
C580 H598 0.928 . S
C581 C578 1.260 . S
C581 C579 1.479 . S
C582 C577 1.245 . S
C582 C578 1.477 . S
C582 H599 0.932 . S
C583 U566 2.882 . S
C583 C577 1.428 . S
C583 O586 1.301 . S
C583 O587 1.282 . S
O584 U566 2.441 . S
O584 C570 1.249 . S
O585 U566 2.420 . S
O585 C570 1.202 . S
O586 U566 2.455 . S
O586 C583 1.301 . S
O587 U566 2.449 . S
O587 C583 1.282 . S
H588 C561 0.931 . S
H589 C563 0.929 . S
H590 C564 0.919 1_545 S
H591 C565 0.931 . S
H592 C572 0.932 . S
H593 C573 0.930 . S
H594 C574 0.930 . S
H595 C576 0.930 . S
H596 C578 0.932 . S
H597 C579 0.929 . S
H598 C580 0.928 . S
H599 C582 0.932 . S
C600 C601 1.264 . S
C600 C605 1.479 1_545 S
C600 C610 1.465 . S
C601 C600 1.264 . S
C601 C603 1.339 1_545 S
C601 H628 0.931 . S
C602 C603 1.395 . S
C602 C604 1.320 . S
C603 C601 1.339 1_565 S
C603 C602 1.395 . S
C603 H629 0.929 1_565 S
C604 C602 1.320 . S
C604 C605 1.405 . S
C604 H630 0.930 . S
C605 C600 1.479 1_565 S
C605 C604 1.405 . S
C605 H631 0.931 . S
U606 O607 2.454 1_545 S
U606 O608 2.458 . S
U606 C609 2.988 . S
U606 C610 2.847 . S
U606 C623 2.882 . S
U606 O624 2.441 . S
U606 O625 2.420 . S
U606 O626 2.455 . S
U606 O627 2.449 . S
O607 U606 2.454 1_565 S
O607 C609 1.350 1_565 S
O608 U606 2.458 . S
O608 C609 1.290 . S
C609 U606 2.988 . S
C609 O607 1.350 1_545 S
C609 O608 1.290 . S
C609 C611 1.361 1_545 S
C610 C600 1.465 . S
C610 U606 2.847 . S
C610 O624 1.249 . S
C610 O625 1.202 . S
C611 C609 1.361 1_565 S
C611 C613 1.408 . S
C611 C616 1.342 . S
C612 C613 1.310 . S
C612 C615 1.461 . S
C612 H632 0.932 . S
C613 C611 1.408 . S
C613 C612 1.310 . S
C613 H633 0.930 . S
C614 C615 1.474 . S
C614 C616 1.285 . S
C614 H634 0.929 . S
C615 C612 1.461 . S
C615 C614 1.474 . S
C616 C611 1.342 . S
C616 C614 1.285 . S
C616 H635 0.933 . S
C617 C620 1.424 . S
C617 C622 1.245 . S
C617 C623 1.428 . S
C618 C621 1.260 . S
C618 C622 1.477 . S
C618 H636 0.932 . S
C619 C620 1.384 . S
C619 C621 1.479 . S
C619 H637 0.929 . S
C620 C617 1.424 . S
C620 C619 1.384 . S
C620 H638 0.928 . S
C621 C618 1.260 . S
C621 C619 1.479 . S
C622 C617 1.245 . S
C622 C618 1.477 . S
C622 H639 0.932 . S
C623 U606 2.882 . S
C623 C617 1.428 . S
C623 O626 1.301 . S
C623 O627 1.282 . S
O624 U606 2.441 . S
O624 C610 1.249 . S
O625 U606 2.420 . S
O625 C610 1.202 . S
O626 U606 2.455 . S
O626 C623 1.301 . S
O627 U606 2.449 . S
O627 C623 1.282 . S
H628 C601 0.931 . S
H629 C603 0.929 1_545 S
H630 C604 0.930 . S
H631 C605 0.931 . S
H632 C612 0.932 . S
H633 C613 0.930 . S
H634 C614 0.929 . S
H635 C616 0.933 . S
H636 C618 0.932 . S
H637 C619 0.929 . S
H638 C620 0.928 . S
H639 C622 0.932 . S
C640 C641 1.264 . S
C640 C645 1.479 . S
C640 C650 1.465 . S
C641 C640 1.264 . S
C641 C643 1.339 . S
C641 H668 0.931 . S
C642 C643 1.395 . S
C642 C644 1.320 . S
C643 C641 1.339 . S
C643 C642 1.395 . S
C643 H669 0.929 . S
C644 C642 1.320 . S
C644 C645 1.405 . S
C644 H670 0.930 . S
C645 C640 1.479 . S
C645 C644 1.405 . S
C645 H671 0.931 . S
U646 O647 2.454 . S
U646 O648 2.458 . S
U646 C649 2.984 . S
U646 C650 2.847 . S
U646 C663 2.882 . S
U646 O664 2.441 . S
U646 O665 2.420 . S
U646 O666 2.455 . S
U646 O667 2.449 . S
O647 U646 2.454 . S
O647 C649 1.353 . S
O648 U646 2.458 . S
O648 C649 1.286 . S
C649 U646 2.984 . S
C649 O647 1.353 . S
C649 O648 1.286 . S
C649 C651 1.363 . S
C650 C640 1.465 . S
C650 U646 2.847 . S
C650 O664 1.249 . S
C650 O665 1.202 . S
C651 C649 1.363 . S
C651 C653 1.408 . S
C651 C656 1.342 . S
C652 C653 1.310 . S
C652 C655 1.461 . S
C652 H672 0.932 . S
C653 C651 1.408 . S
C653 C652 1.310 . S
C653 H673 0.930 . S
C654 C655 1.474 . S
C654 C656 1.285 . S
C654 H674 0.929 . S
C655 C652 1.461 . S
C655 C654 1.474 . S
C656 C651 1.342 . S
C656 C654 1.285 . S
C656 H675 0.930 . S
C657 C660 1.424 . S
C657 C662 1.245 . S
C657 C663 1.428 . S
C658 C661 1.260 . S
C658 C662 1.477 . S
C658 H676 0.932 . S
C659 C660 1.384 . S
C659 C661 1.479 . S
C659 H677 0.929 . S
C660 C657 1.424 . S
C660 C659 1.384 . S
C660 H678 0.928 . S
C661 C658 1.260 . S
C661 C659 1.479 . S
C662 C657 1.245 . S
C662 C658 1.477 . S
C662 H679 0.932 . S
C663 U646 2.882 . S
C663 C657 1.428 . S
C663 O666 1.301 . S
C663 O667 1.282 . S
O664 U646 2.441 . S
O664 C650 1.249 . S
O665 U646 2.420 . S
O665 C650 1.202 . S
O666 U646 2.455 . S
O666 C663 1.301 . S
O667 U646 2.449 . S
O667 C663 1.282 . S
H668 C641 0.931 . S
H669 C643 0.929 . S
H670 C644 0.930 . S
H671 C645 0.931 . S
H672 C652 0.932 . S
H673 C653 0.930 . S
H674 C654 0.929 . S
H675 C656 0.930 . S
H676 C658 0.932 . S
H677 C659 0.929 . S
H678 C660 0.928 . S
H679 C662 0.932 . S
C680 C681 1.264 . S
C680 C685 1.479 1_554 S
C680 C690 1.465 . S
C681 C680 1.264 . S
C681 C683 1.339 1_554 S
C681 H708 0.931 . S
C682 C683 1.395 . S
C682 C684 1.320 . S
C683 C681 1.339 1_556 S
C683 C682 1.395 . S
C683 H709 0.929 1_556 S
C684 C682 1.320 . S
C684 C685 1.405 . S
C684 H710 0.930 . S
C685 C680 1.479 1_556 S
C685 C684 1.405 . S
C685 H711 0.931 . S
U686 O687 2.454 1_554 S
U686 O688 2.458 . S
U686 C689 2.988 . S
U686 C690 2.847 . S
U686 C703 2.882 . S
U686 O704 2.441 . S
U686 O705 2.420 . S
U686 O706 2.455 . S
U686 O707 2.449 . S
O687 U686 2.454 1_556 S
O687 C689 1.350 1_556 S
O688 U686 2.458 . S
O688 C689 1.290 . S
C689 U686 2.988 . S
C689 O687 1.350 1_554 S
C689 O688 1.290 . S
C689 C691 1.361 1_554 S
C690 C680 1.465 . S
C690 U686 2.847 . S
C690 O704 1.249 . S
C690 O705 1.202 . S
C691 C689 1.361 1_556 S
C691 C693 1.408 . S
C691 C696 1.342 . S
C692 C693 1.310 . S
C692 C695 1.461 . S
C692 H712 0.932 . S
C693 C691 1.408 . S
C693 C692 1.310 . S
C693 H713 0.930 . S
C694 C695 1.474 . S
C694 C696 1.285 . S
C694 H714 0.929 . S
C695 C692 1.461 . S
C695 C694 1.474 . S
C696 C691 1.342 . S
C696 C694 1.285 . S
C696 H715 0.933 . S
C697 C700 1.424 . S
C697 C702 1.245 . S
C697 C703 1.428 . S
C698 C701 1.260 . S
C698 C702 1.477 . S
C698 H716 0.932 . S
C699 C700 1.384 . S
C699 C701 1.479 . S
C699 H717 0.929 . S
C700 C697 1.424 . S
C700 C699 1.384 . S
C700 H718 0.928 . S
C701 C698 1.260 . S
C701 C699 1.479 . S
C702 C697 1.245 . S
C702 C698 1.477 . S
C702 H719 0.932 . S
C703 U686 2.882 . S
C703 C697 1.428 . S
C703 O706 1.301 . S
C703 O707 1.282 . S
O704 U686 2.441 . S
O704 C690 1.249 . S
O705 U686 2.420 . S
O705 C690 1.202 . S
O706 U686 2.455 . S
O706 C703 1.301 . S
O707 U686 2.449 . S
O707 C703 1.282 . S
H708 C681 0.931 . S
H709 C683 0.929 1_554 S
H710 C684 0.930 . S
H711 C685 0.931 . S
H712 C692 0.932 . S
H713 C693 0.930 . S
H714 C694 0.929 . S
H715 C696 0.933 . S
H716 C698 0.932 . S
H717 C699 0.929 . S
H718 C700 0.928 . S
H719 C702 0.932 . S
C720 C721 1.264 . S
C720 C725 1.479 . S
C720 C730 1.465 . S
C721 C720 1.264 . S
C721 C723 1.339 . S
C721 H748 0.931 . S
C722 C723 1.395 . S
C722 C724 1.320 . S
C723 C721 1.339 . S
C723 C722 1.395 . S
C723 H749 0.929 . S
C724 C722 1.320 . S
C724 C725 1.405 . S
C724 H750 0.930 . S
C725 C720 1.479 . S
C725 C724 1.405 . S
C725 H751 0.931 . S
U726 O727 2.454 . S
U726 O728 2.458 . S
U726 C729 2.984 . S
U726 C730 2.847 . S
U726 C743 2.882 . S
U726 O744 2.441 . S
U726 O745 2.420 . S
U726 O746 2.455 . S
U726 O747 2.449 . S
O727 U726 2.454 . S
O727 C729 1.353 . S
O728 U726 2.458 . S
O728 C729 1.286 . S
C729 U726 2.984 . S
C729 O727 1.353 . S
C729 O728 1.286 . S
C729 C731 1.363 . S
C730 C720 1.465 . S
C730 U726 2.847 . S
C730 O744 1.249 . S
C730 O745 1.202 . S
C731 C729 1.363 . S
C731 C733 1.408 . S
C731 C736 1.342 . S
C732 C733 1.310 . S
C732 C735 1.461 . S
C732 H752 0.932 . S
C733 C731 1.408 . S
C733 C732 1.310 . S
C733 H753 0.930 . S
C734 C735 1.474 . S
C734 C736 1.285 . S
C734 H754 0.929 . S
C735 C732 1.461 . S
C735 C734 1.474 . S
C736 C731 1.342 . S
C736 C734 1.285 . S
C736 H755 0.930 . S
C737 C740 1.424 . S
C737 C742 1.245 . S
C737 C743 1.428 . S
C738 C741 1.260 . S
C738 C742 1.477 . S
C738 H756 0.932 . S
C739 C740 1.384 . S
C739 C741 1.479 . S
C739 H757 0.929 . S
C740 C737 1.424 . S
C740 C739 1.384 . S
C740 H758 0.928 . S
C741 C738 1.260 . S
C741 C739 1.479 . S
C742 C737 1.245 . S
C742 C738 1.477 . S
C742 H759 0.932 . S
C743 U726 2.882 . S
C743 C737 1.428 . S
C743 O746 1.301 . S
C743 O747 1.282 . S
O744 U726 2.441 . S
O744 C730 1.249 . S
O745 U726 2.420 . S
O745 C730 1.202 . S
O746 U726 2.455 . S
O746 C743 1.301 . S
O747 U726 2.449 . S
O747 C743 1.282 . S
H748 C721 0.931 . S
H749 C723 0.929 . S
H750 C724 0.930 . S
H751 C725 0.931 . S
H752 C732 0.932 . S
H753 C733 0.930 . S
H754 C734 0.929 . S
H755 C736 0.930 . S
H756 C738 0.932 . S
H757 C739 0.929 . S
H758 C740 0.928 . S
H759 C742 0.932 . S
C760 C761 1.264 . S
C760 C765 1.479 . S
C760 C770 1.465 . S
C761 C760 1.264 . S
C761 C763 1.339 . S
C761 H788 0.931 . S
C762 C763 1.395 . S
C762 C764 1.320 . S
C763 C761 1.339 . S
C763 C762 1.395 . S
C763 H789 0.929 . S
C764 C762 1.320 . S
C764 C765 1.405 . S
C764 H790 0.919 1_556 S
C765 C760 1.479 . S
C765 C764 1.405 . S
C765 H791 0.931 . S
U766 O767 2.454 . S
U766 O768 2.458 . S
U766 C769 2.984 . S
U766 C770 2.847 . S
U766 C783 2.882 . S
U766 O784 2.441 . S
U766 O785 2.420 . S
U766 O786 2.455 . S
U766 O787 2.449 . S
O767 U766 2.454 . S
O767 C769 1.353 . S
O768 U766 2.458 . S
O768 C769 1.286 . S
C769 U766 2.984 . S
C769 O767 1.353 . S
C769 O768 1.286 . S
C769 C771 1.363 . S
C770 C760 1.465 . S
C770 U766 2.847 . S
C770 O784 1.249 . S
C770 O785 1.202 . S
C771 C769 1.363 . S
C771 C773 1.408 . S
C771 C776 1.342 . S
C772 C773 1.310 . S
C772 C775 1.460 . S
C772 H792 0.932 . S
C773 C771 1.408 . S
C773 C772 1.310 . S
C773 H793 0.930 . S
C774 C775 1.475 1_554 S
C774 C776 1.285 1_554 S
C774 H794 0.930 . S
C775 C772 1.460 . S
C775 C774 1.475 1_556 S
C776 C771 1.342 . S
C776 C774 1.285 1_556 S
C776 H795 0.930 . S
C777 C780 1.424 . S
C777 C782 1.245 . S
C777 C783 1.428 . S
C778 C781 1.260 . S
C778 C782 1.477 . S
C778 H796 0.932 . S
C779 C780 1.384 . S
C779 C781 1.479 . S
C779 H797 0.929 . S
C780 C777 1.424 . S
C780 C779 1.384 . S
C780 H798 0.928 . S
C781 C778 1.260 . S
C781 C779 1.479 . S
C782 C777 1.245 . S
C782 C778 1.477 . S
C782 H799 0.932 . S
C783 U766 2.882 . S
C783 C777 1.428 . S
C783 O786 1.301 . S
C783 O787 1.282 . S
O784 U766 2.441 . S
O784 C770 1.249 . S
O785 U766 2.420 . S
O785 C770 1.202 . S
O786 U766 2.455 . S
O786 C783 1.301 . S
O787 U766 2.449 . S
O787 C783 1.282 . S
H788 C761 0.931 . S
H789 C763 0.929 . S
H790 C764 0.919 1_554 S
H791 C765 0.931 . S
H792 C772 0.932 . S
H793 C773 0.930 . S
H794 C774 0.930 . S
H795 C776 0.930 . S
H796 C778 0.932 . S
H797 C779 0.929 . S
H798 C780 0.928 . S
H799 C782 0.932 . S
C800 C801 1.264 . S
C800 C805 1.479 . S
C800 C810 1.465 . S
C801 C800 1.264 . S
C801 C803 1.339 . S
C801 H828 0.931 . S
C802 C803 1.395 . S
C802 C804 1.320 . S
C803 C801 1.339 . S
C803 C802 1.395 . S
C803 H829 0.929 . S
C804 C802 1.320 . S
C804 C805 1.405 . S
C804 H830 0.930 . S
C805 C800 1.479 . S
C805 C804 1.405 . S
C805 H831 0.931 . S
U806 O807 2.454 . S
U806 O808 2.458 . S
U806 C809 2.984 . S
U806 C810 2.847 . S
U806 C823 2.882 . S
U806 O824 2.441 . S
U806 O825 2.420 . S
U806 O826 2.455 . S
U806 O827 2.449 . S
O807 U806 2.454 . S
O807 C809 1.353 . S
O808 U806 2.458 . S
O808 C809 1.286 . S
C809 U806 2.984 . S
C809 O807 1.353 . S
C809 O808 1.286 . S
C809 C811 1.363 . S
C810 C800 1.465 . S
C810 U806 2.847 . S
C810 O824 1.249 . S
C810 O825 1.202 . S
C811 C809 1.363 . S
C811 C813 1.408 . S
C811 C816 1.342 . S
C812 C813 1.310 . S
C812 C815 1.461 . S
C812 H832 0.932 . S
C813 C811 1.408 . S
C813 C812 1.310 . S
C813 H833 0.930 . S
C814 C815 1.474 . S
C814 C816 1.285 . S
C814 H834 0.929 . S
C815 C812 1.461 . S
C815 C814 1.474 . S
C816 C811 1.342 . S
C816 C814 1.285 . S
C816 H835 0.930 . S
C817 C820 1.424 . S
C817 C822 1.245 . S
C817 C823 1.428 . S
C818 C821 1.260 . S
C818 C822 1.477 . S
C818 H836 0.932 . S
C819 C820 1.384 . S
C819 C821 1.479 . S
C819 H837 0.929 . S
C820 C817 1.424 . S
C820 C819 1.384 . S
C820 H838 0.928 . S
C821 C818 1.260 . S
C821 C819 1.479 . S
C822 C817 1.245 . S
C822 C818 1.477 . S
C822 H839 0.932 . S
C823 U806 2.882 . S
C823 C817 1.428 . S
C823 O826 1.301 . S
C823 O827 1.282 . S
O824 U806 2.441 . S
O824 C810 1.249 . S
O825 U806 2.420 . S
O825 C810 1.202 . S
O826 U806 2.455 . S
O826 C823 1.301 . S
O827 U806 2.449 . S
O827 C823 1.282 . S
H828 C801 0.931 . S
H829 C803 0.929 . S
H830 C804 0.930 . S
H831 C805 0.931 . S
H832 C812 0.932 . S
H833 C813 0.930 . S
H834 C814 0.929 . S
H835 C816 0.930 . S
H836 C818 0.932 . S
H837 C819 0.929 . S
H838 C820 0.928 . S
H839 C822 0.932 . S
C840 C841 1.264 . S
C840 C845 1.479 1_455 S
C840 C850 1.465 . S
C841 C840 1.264 . S
C841 C843 1.339 1_455 S
C841 H868 0.931 . S
C842 C843 1.395 . S
C842 C844 1.320 . S
C843 C841 1.339 1_655 S
C843 C842 1.395 . S
C843 H869 0.929 1_655 S
C844 C842 1.320 . S
C844 C845 1.405 . S
C844 H870 0.930 . S
C845 C840 1.479 1_655 S
C845 C844 1.405 . S
C845 H871 0.931 . S
U846 O847 2.454 1_455 S
U846 O848 2.458 . S
U846 C849 2.988 . S
U846 C850 2.847 . S
U846 C863 2.882 . S
U846 O864 2.441 . S
U846 O865 2.420 . S
U846 O866 2.455 . S
U846 O867 2.449 . S
O847 U846 2.454 1_655 S
O847 C849 1.350 1_655 S
O848 U846 2.458 . S
O848 C849 1.290 . S
C849 U846 2.988 . S
C849 O847 1.350 1_455 S
C849 O848 1.290 . S
C849 C851 1.361 1_455 S
C850 C840 1.465 . S
C850 U846 2.847 . S
C850 O864 1.249 . S
C850 O865 1.202 . S
C851 C849 1.361 1_655 S
C851 C853 1.408 . S
C851 C856 1.342 . S
C852 C853 1.310 . S
C852 C855 1.461 . S
C852 H872 0.932 . S
C853 C851 1.408 . S
C853 C852 1.310 . S
C853 H873 0.930 . S
C854 C855 1.474 . S
C854 C856 1.285 . S
C854 H874 0.929 . S
C855 C852 1.461 . S
C855 C854 1.474 . S
C856 C851 1.342 . S
C856 C854 1.285 . S
C856 H875 0.933 . S
C857 C860 1.424 . S
C857 C862 1.245 . S
C857 C863 1.428 . S
C858 C861 1.260 . S
C858 C862 1.477 . S
C858 H876 0.932 . S
C859 C860 1.384 . S
C859 C861 1.479 . S
C859 H877 0.929 . S
C860 C857 1.424 . S
C860 C859 1.384 . S
C860 H878 0.928 . S
C861 C858 1.260 . S
C861 C859 1.479 . S
C862 C857 1.245 . S
C862 C858 1.477 . S
C862 H879 0.932 . S
C863 U846 2.882 . S
C863 C857 1.428 . S
C863 O866 1.301 . S
C863 O867 1.282 . S
O864 U846 2.441 . S
O864 C850 1.249 . S
O865 U846 2.420 . S
O865 C850 1.202 . S
O866 U846 2.455 . S
O866 C863 1.301 . S
O867 U846 2.449 . S
O867 C863 1.282 . S
H868 C841 0.931 . S
H869 C843 0.929 1_455 S
H870 C844 0.930 . S
H871 C845 0.931 . S
H872 C852 0.932 . S
H873 C853 0.930 . S
H874 C854 0.929 . S
H875 C856 0.933 . S
H876 C858 0.932 . S
H877 C859 0.929 . S
H878 C860 0.928 . S
H879 C862 0.932 . S
C880 C881 1.264 . S
C880 C885 1.479 . S
C880 C890 1.465 . S
C881 C880 1.264 . S
C881 C883 1.339 . S
C881 H908 0.931 . S
C882 C883 1.395 . S
C882 C884 1.320 . S
C883 C881 1.339 . S
C883 C882 1.395 . S
C883 H909 0.929 . S
C884 C882 1.320 . S
C884 C885 1.405 . S
C884 H910 0.930 . S
C885 C880 1.479 . S
C885 C884 1.405 . S
C885 H911 0.931 . S
U886 O887 2.454 . S
U886 O888 2.458 . S
U886 C889 2.984 . S
U886 C890 2.847 . S
U886 C903 2.882 . S
U886 O904 2.441 . S
U886 O905 2.420 . S
U886 O906 2.455 . S
U886 O907 2.449 . S
O887 U886 2.454 . S
O887 C889 1.353 . S
O888 U886 2.458 . S
O888 C889 1.286 . S
C889 U886 2.984 . S
C889 O887 1.353 . S
C889 O888 1.286 . S
C889 C891 1.363 . S
C890 C880 1.465 . S
C890 U886 2.847 . S
C890 O904 1.249 . S
C890 O905 1.202 . S
C891 C889 1.363 . S
C891 C893 1.408 . S
C891 C896 1.342 . S
C892 C893 1.310 . S
C892 C895 1.461 . S
C892 H912 0.932 . S
C893 C891 1.408 . S
C893 C892 1.310 . S
C893 H913 0.930 . S
C894 C895 1.474 . S
C894 C896 1.285 . S
C894 H914 0.929 . S
C895 C892 1.461 . S
C895 C894 1.474 . S
C896 C891 1.342 . S
C896 C894 1.285 . S
C896 H915 0.930 . S
C897 C900 1.424 . S
C897 C902 1.245 . S
C897 C903 1.428 . S
C898 C901 1.260 . S
C898 C902 1.477 . S
C898 H916 0.932 . S
C899 C900 1.384 . S
C899 C901 1.479 . S
C899 H917 0.929 . S
C900 C897 1.424 . S
C900 C899 1.384 . S
C900 H918 0.928 . S
C901 C898 1.260 . S
C901 C899 1.479 . S
C902 C897 1.245 . S
C902 C898 1.477 . S
C902 H919 0.932 . S
C903 U886 2.882 . S
C903 C897 1.428 . S
C903 O906 1.301 . S
C903 O907 1.282 . S
O904 U886 2.441 . S
O904 C890 1.249 . S
O905 U886 2.420 . S
O905 C890 1.202 . S
O906 U886 2.455 . S
O906 C903 1.301 . S
O907 U886 2.449 . S
O907 C903 1.282 . S
H908 C881 0.931 . S
H909 C883 0.929 . S
H910 C884 0.930 . S
H911 C885 0.931 . S
H912 C892 0.932 . S
H913 C893 0.930 . S
H914 C894 0.929 . S
H915 C896 0.930 . S
H916 C898 0.932 . S
H917 C899 0.929 . S
H918 C900 0.928 . S
H919 C902 0.932 . S
C920 C921 1.264 . S
C920 C925 1.479 . S
C920 C930 1.465 . S
C921 C920 1.264 . S
C921 C923 1.339 . S
C921 H948 0.931 . S
C922 C923 1.395 . S
C922 C924 1.320 . S
C923 C921 1.339 . S
C923 C922 1.395 . S
C923 H949 0.929 . S
C924 C922 1.320 . S
C924 C925 1.405 . S
C924 H950 0.919 1_655 S
C925 C920 1.479 . S
C925 C924 1.405 . S
C925 H951 0.931 . S
U926 O927 2.454 . S
U926 O928 2.458 . S
U926 C929 2.984 . S
U926 C930 2.847 . S
U926 C943 2.882 . S
U926 O944 2.441 . S
U926 O945 2.420 . S
U926 O946 2.455 . S
U926 O947 2.449 . S
O927 U926 2.454 . S
O927 C929 1.353 . S
O928 U926 2.458 . S
O928 C929 1.286 . S
C929 U926 2.984 . S
C929 O927 1.353 . S
C929 O928 1.286 . S
C929 C931 1.363 . S
C930 C920 1.465 . S
C930 U926 2.847 . S
C930 O944 1.249 . S
C930 O945 1.202 . S
C931 C929 1.363 . S
C931 C933 1.408 . S
C931 C936 1.342 . S
C932 C933 1.310 . S
C932 C935 1.460 . S
C932 H952 0.932 . S
C933 C931 1.408 . S
C933 C932 1.310 . S
C933 H953 0.930 . S
C934 C935 1.475 1_455 S
C934 C936 1.285 1_455 S
C934 H954 0.930 . S
C935 C932 1.460 . S
C935 C934 1.475 1_655 S
C936 C931 1.342 . S
C936 C934 1.285 1_655 S
C936 H955 0.930 . S
C937 C940 1.424 . S
C937 C942 1.245 . S
C937 C943 1.428 . S
C938 C941 1.260 . S
C938 C942 1.477 . S
C938 H956 0.932 . S
C939 C940 1.384 . S
C939 C941 1.479 . S
C939 H957 0.929 . S
C940 C937 1.424 . S
C940 C939 1.384 . S
C940 H958 0.928 . S
C941 C938 1.260 . S
C941 C939 1.479 . S
C942 C937 1.245 . S
C942 C938 1.477 . S
C942 H959 0.932 . S
C943 U926 2.882 . S
C943 C937 1.428 . S
C943 O946 1.301 . S
C943 O947 1.282 . S
O944 U926 2.441 . S
O944 C930 1.249 . S
O945 U926 2.420 . S
O945 C930 1.202 . S
O946 U926 2.455 . S
O946 C943 1.301 . S
O947 U926 2.449 . S
O947 C943 1.282 . S
H948 C921 0.931 . S
H949 C923 0.929 . S
H950 C924 0.919 1_455 S
H951 C925 0.931 . S
H952 C932 0.932 . S
H953 C933 0.930 . S
H954 C934 0.930 . S
H955 C936 0.930 . S
H956 C938 0.932 . S
H957 C939 0.929 . S
H958 C940 0.928 . S
H959 C942 0.932 . S
H960 C963 0.929 . S
H961 C966 0.929 . S
H962 C968 0.930 . S
C963 H960 0.929 . S
C963 C964 1.398 . S
C963 C965 1.396 . S
C964 C963 1.398 . S
C964 C968 1.407 . S
C965 C963 1.396 . S
C965 C966 1.394 . S
C966 H961 0.929 . S
C966 C965 1.394 . S
C966 C967 1.382 . S
C967 C966 1.382 . S
C967 C968 1.392 . S
C967 N969 1.420 . S
C968 H962 0.930 . S
C968 C964 1.407 . S
C968 C967 1.392 . S
N969 C967 1.420 . S
N969 C970 1.244 . S
C970 N969 1.244 . S
H971 C974 0.929 . S
H972 C977 0.929 . S
H973 C979 0.930 . S
C974 H971 0.929 . S
C974 C975 1.398 1_556 S
C974 C976 1.396 . S
C975 C974 1.398 1_554 S
C975 C979 1.407 . S
C976 C974 1.396 . S
C976 C977 1.394 . S
C977 H972 0.929 . S
C977 C976 1.394 . S
C977 C978 1.382 1_556 S
C978 C977 1.382 1_554 S
C978 C979 1.392 . S
C978 N980 1.420 . S
C979 H973 0.930 . S
C979 C975 1.407 . S
C979 C978 1.392 . S
N980 C978 1.420 . S
N980 C981 1.244 . S
C981 N980 1.244 . S
H982 C985 0.929 . S
H983 C988 0.929 . S
H984 C990 0.930 . S
C985 H982 0.929 . S
C985 C986 1.398 . S
C985 C987 1.396 . S
C986 C985 1.398 . S
C986 C990 1.407 . S
C987 C985 1.396 . S
C987 C988 1.394 1_565 S
C988 H983 0.929 . S
C988 C987 1.394 1_545 S
C988 C989 1.382 . S
C989 C988 1.382 . S
C989 C990 1.392 1_545 S
C989 N991 1.420 . S
C990 H984 0.930 . S
C990 C986 1.407 . S
C990 C989 1.392 1_565 S
N991 C989 1.420 . S
N991 C992 1.244 . S
C992 N991 1.244 . S
H993 C996 0.929 . S
H994 C999 0.929 . S
H995 C1001 0.930 . S
C996 H993 0.929 . S
C996 C997 1.398 1_554 S
C996 C998 1.396 . S
C997 C996 1.398 1_556 S
C997 C1001 1.407 . S
C998 C996 1.396 . S
C998 C999 1.394 . S
C999 H994 0.929 . S
C999 C998 1.394 . S
C999 C1000 1.382 1_554 S
C1000 C999 1.382 1_556 S
C1000 C1001 1.392 . S
C1000 N1002 1.420 . S
C1001 H995 0.930 . S
C1001 C997 1.407 . S
C1001 C1000 1.392 . S
N1002 C1000 1.420 . S
N1002 C1003 1.244 . S
C1003 N1002 1.244 . S
H1004 C1007 0.929 . S
H1005 C1010 0.929 . S
H1006 C1012 0.930 . S
C1007 H1004 0.929 . S
C1007 C1008 1.398 . S
C1007 C1009 1.396 . S
C1008 C1007 1.398 . S
C1008 C1012 1.407 . S
C1009 C1007 1.396 . S
C1009 C1010 1.394 . S
C1010 H1005 0.929 . S
C1010 C1009 1.394 . S
C1010 C1011 1.382 . S
C1011 C1010 1.382 . S
C1011 C1012 1.392 . S
C1011 N1013 1.420 . S
C1012 H1006 0.930 . S
C1012 C1008 1.407 . S
C1012 C1011 1.392 . S
N1013 C1011 1.420 . S
N1013 C1014 1.244 . S
C1014 N1013 1.244 . S
H1015 C1018 0.929 . S
H1016 C1021 0.929 . S
H1017 C1023 0.930 . S
C1018 H1015 0.929 . S
C1018 C1019 1.398 1_455 S
C1018 C1020 1.396 . S
C1019 C1018 1.398 1_655 S
C1019 C1023 1.407 . S
C1020 C1018 1.396 . S
C1020 C1021 1.394 . S
C1021 H1016 0.929 . S
C1021 C1020 1.394 . S
C1021 C1022 1.382 1_455 S
C1022 C1021 1.382 1_655 S
C1022 C1023 1.392 . S
C1022 N1024 1.420 . S
C1023 H1017 0.930 . S
C1023 C1019 1.407 . S
C1023 C1022 1.392 . S
N1024 C1022 1.420 . S
N1024 C1025 1.244 . S
C1025 N1024 1.244 . S
H1026 C1029 0.929 . S
H1027 C1032 0.929 . S
H1028 C1034 0.930 . S
C1029 H1026 0.929 . S
C1029 C1030 1.398 1_655 S
C1029 C1031 1.396 . S
C1030 C1029 1.398 1_455 S
C1030 C1034 1.407 . S
C1031 C1029 1.396 . S
C1031 C1032 1.394 . S
C1032 H1027 0.929 . S
C1032 C1031 1.394 . S
C1032 C1033 1.382 1_655 S
C1033 C1032 1.382 1_455 S
C1033 C1034 1.392 . S
C1033 N1035 1.420 . S
C1034 H1028 0.930 . S
C1034 C1030 1.407 . S
C1034 C1033 1.392 . S
N1035 C1033 1.420 . S
N1035 C1036 1.244 . S
C1036 N1035 1.244 . S
H1037 C1040 0.929 . S
H1038 C1043 0.929 . S
H1039 C1045 0.930 . S
C1040 H1037 0.929 . S
C1040 C1041 1.398 . S
C1040 C1042 1.396 . S
C1041 C1040 1.398 . S
C1041 C1045 1.407 . S
C1042 C1040 1.396 . S
C1042 C1043 1.394 1_556 S
C1043 H1038 0.929 . S
C1043 C1042 1.394 1_554 S
C1043 C1044 1.382 . S
C1044 C1043 1.382 . S
C1044 C1045 1.392 1_554 S
C1044 N1046 1.420 . S
C1045 H1039 0.930 . S
C1045 C1041 1.407 . S
C1045 C1044 1.392 1_556 S
N1046 C1044 1.420 . S
N1046 C1047 1.244 . S
C1047 N1046 1.244 . S
H1048 C1051 0.929 . S
H1049 C1054 0.929 . S
H1050 C1056 0.930 . S
C1051 H1048 0.929 . S
C1051 C1052 1.398 . S
C1051 C1053 1.396 . S
C1052 C1051 1.398 . S
C1052 C1056 1.407 . S
C1053 C1051 1.396 . S
C1053 C1054 1.394 . S
C1054 H1049 0.929 . S
C1054 C1053 1.394 . S
C1054 C1055 1.382 . S
C1055 C1054 1.382 . S
C1055 C1056 1.392 . S
C1055 N1057 1.420 . S
C1056 H1050 0.930 . S
C1056 C1052 1.407 . S
C1056 C1055 1.392 . S
N1057 C1055 1.420 . S
N1057 C1058 1.244 . S
C1058 N1057 1.244 . S
H1059 C1062 0.929 . S
H1060 C1065 0.929 . S
H1061 C1067 0.930 . S
C1062 H1059 0.929 . S
C1062 C1063 1.398 1_545 S
C1062 C1064 1.396 . S
C1063 C1062 1.398 1_565 S
C1063 C1067 1.407 . S
C1064 C1062 1.396 . S
C1064 C1065 1.394 . S
C1065 H1060 0.929 . S
C1065 C1064 1.394 . S
C1065 C1066 1.382 1_545 S
C1066 C1065 1.382 1_565 S
C1066 C1067 1.392 . S
C1066 N1068 1.420 . S
C1067 H1061 0.930 . S
C1067 C1063 1.407 . S
C1067 C1066 1.392 . S
N1068 C1066 1.420 . S
N1068 C1069 1.244 . S
C1069 N1068 1.244 . S
H1070 C1073 0.929 . S
H1071 C1076 0.929 . S
H1072 C1078 0.930 . S
C1073 H1070 0.929 . S
C1073 C1074 1.398 1_565 S
C1073 C1075 1.396 . S
C1074 C1073 1.398 1_545 S
C1074 C1078 1.407 . S
C1075 C1073 1.396 . S
C1075 C1076 1.394 . S
C1076 H1071 0.929 . S
C1076 C1075 1.394 . S
C1076 C1077 1.382 1_565 S
C1077 C1076 1.382 1_545 S
C1077 C1078 1.392 . S
C1077 N1079 1.420 . S
C1078 H1072 0.930 . S
C1078 C1074 1.407 . S
C1078 C1077 1.392 . S
N1079 C1077 1.420 . S
N1079 C1080 1.244 . S
C1080 N1079 1.244 . S
H1081 C1084 0.929 . S
H1082 C1087 0.929 . S
H1083 C1089 0.930 . S
C1084 H1081 0.929 . S
C1084 C1085 1.398 . S
C1084 C1086 1.396 . S
C1085 C1084 1.398 . S
C1085 C1089 1.407 . S
C1086 C1084 1.396 . S
C1086 C1087 1.394 1_655 S
C1087 H1082 0.929 . S
C1087 C1086 1.394 1_455 S
C1087 C1088 1.382 . S
C1088 C1087 1.382 . S
C1088 C1089 1.392 1_455 S
C1088 N1090 1.420 . S
C1089 H1083 0.930 . S
C1089 C1085 1.407 . S
C1089 C1088 1.392 1_655 S
N1090 C1088 1.420 . S
N1090 C1091 1.244 . S
C1091 N1090 1.244 . S
H1092 C1095 0.929 . S
H1093 C1098 0.929 . S
H1094 C1100 0.930 . S
C1095 H1092 0.929 . S
C1095 C1096 1.398 . S
C1095 C1097 1.396 . S
C1096 C1095 1.398 . S
C1096 C1100 1.407 . S
C1097 C1095 1.396 . S
C1097 C1098 1.394 . S
C1098 H1093 0.929 . S
C1098 C1097 1.394 . S
C1098 C1099 1.382 . S
C1099 C1098 1.382 . S
C1099 C1100 1.392 . S
C1099 N1101 1.420 . S
C1100 H1094 0.930 . S
C1100 C1096 1.407 . S
C1100 C1099 1.392 . S
N1101 C1099 1.420 . S
N1101 C1102 1.244 . S
C1102 N1101 1.244 . S
H1103 C1106 0.929 . S
H1104 C1109 0.929 . S
H1105 C1111 0.930 . S
C1106 H1103 0.929 . S
C1106 C1107 1.398 1_554 S
C1106 C1108 1.396 . S
C1107 C1106 1.398 1_556 S
C1107 C1111 1.407 . S
C1108 C1106 1.396 . S
C1108 C1109 1.394 . S
C1109 H1104 0.929 . S
C1109 C1108 1.394 . S
C1109 C1110 1.382 1_554 S
C1110 C1109 1.382 1_556 S
C1110 C1111 1.392 . S
C1110 N1112 1.420 . S
C1111 H1105 0.930 . S
C1111 C1107 1.407 . S
C1111 C1110 1.392 . S
N1112 C1110 1.420 . S
N1112 C1113 1.244 . S
C1113 N1112 1.244 . S
H1114 C1117 0.929 . S
H1115 C1120 0.929 . S
H1116 C1122 0.930 . S
C1117 H1114 0.929 . S
C1117 C1118 1.398 . S
C1117 C1119 1.396 . S
C1118 C1117 1.398 . S
C1118 C1122 1.407 . S
C1119 C1117 1.396 . S
C1119 C1120 1.394 1_545 S
C1120 H1115 0.929 . S
C1120 C1119 1.394 1_565 S
C1120 C1121 1.382 . S
C1121 C1120 1.382 . S
C1121 C1122 1.392 1_565 S
C1121 N1123 1.420 . S
C1122 H1116 0.930 . S
C1122 C1118 1.407 . S
C1122 C1121 1.392 1_545 S
N1123 C1121 1.420 . S
N1123 C1124 1.244 . S
C1124 N1123 1.244 . S
H1125 C1128 0.929 . S
H1126 C1131 0.929 . S
H1127 C1133 0.930 . S
C1128 H1125 0.929 . S
C1128 C1129 1.398 1_556 S
C1128 C1130 1.396 . S
C1129 C1128 1.398 1_554 S
C1129 C1133 1.407 . S
C1130 C1128 1.396 . S
C1130 C1131 1.394 . S
C1131 H1126 0.929 . S
C1131 C1130 1.394 . S
C1131 C1132 1.382 1_556 S
C1132 C1131 1.382 1_554 S
C1132 C1133 1.392 . S
C1132 N1134 1.420 . S
C1133 H1127 0.930 . S
C1133 C1129 1.407 . S
C1133 C1132 1.392 . S
N1134 C1132 1.420 . S
N1134 C1135 1.244 . S
C1135 N1134 1.244 . S
H1136 C1139 0.929 . S
H1137 C1142 0.929 . S
H1138 C1144 0.930 . S
C1139 H1136 0.929 . S
C1139 C1140 1.398 . S
C1139 C1141 1.396 . S
C1140 C1139 1.398 . S
C1140 C1144 1.407 . S
C1141 C1139 1.396 . S
C1141 C1142 1.394 . S
C1142 H1137 0.929 . S
C1142 C1141 1.394 . S
C1142 C1143 1.382 . S
C1143 C1142 1.382 . S
C1143 C1144 1.392 . S
C1143 N1145 1.420 . S
C1144 H1138 0.930 . S
C1144 C1140 1.407 . S
C1144 C1143 1.392 . S
N1145 C1143 1.420 . S
N1145 C1146 1.244 . S
C1146 N1145 1.244 . S
H1147 C1150 0.929 . S
H1148 C1153 0.929 . S
H1149 C1155 0.930 . S
C1150 H1147 0.929 . S
C1150 C1151 1.398 1_655 S
C1150 C1152 1.396 . S
C1151 C1150 1.398 1_455 S
C1151 C1155 1.407 . S
C1152 C1150 1.396 . S
C1152 C1153 1.394 . S
C1153 H1148 0.929 . S
C1153 C1152 1.394 . S
C1153 C1154 1.382 1_655 S
C1154 C1153 1.382 1_455 S
C1154 C1155 1.392 . S
C1154 N1156 1.420 . S
C1155 H1149 0.930 . S
C1155 C1151 1.407 . S
C1155 C1154 1.392 . S
N1156 C1154 1.420 . S
N1156 C1157 1.244 . S
C1157 N1156 1.244 . S
H1158 C1161 0.929 . S
H1159 C1164 0.929 . S
H1160 C1166 0.930 . S
C1161 H1158 0.929 . S
C1161 C1162 1.398 1_455 S
C1161 C1163 1.396 . S
C1162 C1161 1.398 1_655 S
C1162 C1166 1.407 . S
C1163 C1161 1.396 . S
C1163 C1164 1.394 . S
C1164 H1159 0.929 . S
C1164 C1163 1.394 . S
C1164 C1165 1.382 1_455 S
C1165 C1164 1.382 1_655 S
C1165 C1166 1.392 . S
C1165 N1167 1.420 . S
C1166 H1160 0.930 . S
C1166 C1162 1.407 . S
C1166 C1165 1.392 . S
N1167 C1165 1.420 . S
N1167 C1168 1.244 . S
C1168 N1167 1.244 . S
H1169 C1172 0.929 . S
H1170 C1175 0.929 . S
H1171 C1177 0.930 . S
C1172 H1169 0.929 . S
C1172 C1173 1.398 . S
C1172 C1174 1.396 . S
C1173 C1172 1.398 . S
C1173 C1177 1.407 . S
C1174 C1172 1.396 . S
C1174 C1175 1.394 1_554 S
C1175 H1170 0.929 . S
C1175 C1174 1.394 1_556 S
C1175 C1176 1.382 . S
C1176 C1175 1.382 . S
C1176 C1177 1.392 1_556 S
C1176 N1178 1.420 . S
C1177 H1171 0.930 . S
C1177 C1173 1.407 . S
C1177 C1176 1.392 1_554 S
N1178 C1176 1.420 . S
N1178 C1179 1.244 . S
C1179 N1178 1.244 . S
H1180 C1183 0.929 . S
H1181 C1186 0.929 . S
H1182 C1188 0.930 . S
C1183 H1180 0.929 . S
C1183 C1184 1.398 . S
C1183 C1185 1.396 . S
C1184 C1183 1.398 . S
C1184 C1188 1.407 . S
C1185 C1183 1.396 . S
C1185 C1186 1.394 . S
C1186 H1181 0.929 . S
C1186 C1185 1.394 . S
C1186 C1187 1.382 . S
C1187 C1186 1.382 . S
C1187 C1188 1.392 . S
C1187 N1189 1.420 . S
C1188 H1182 0.930 . S
C1188 C1184 1.407 . S
C1188 C1187 1.392 . S
N1189 C1187 1.420 . S
N1189 C1190 1.244 . S
C1190 N1189 1.244 . S
H1191 C1194 0.929 . S
H1192 C1197 0.929 . S
H1193 C1199 0.930 . S
C1194 H1191 0.929 . S
C1194 C1195 1.398 1_565 S
C1194 C1196 1.396 . S
C1195 C1194 1.398 1_545 S
C1195 C1199 1.407 . S
C1196 C1194 1.396 . S
C1196 C1197 1.394 . S
C1197 H1192 0.929 . S
C1197 C1196 1.394 . S
C1197 C1198 1.382 1_565 S
C1198 C1197 1.382 1_545 S
C1198 C1199 1.392 . S
C1198 N1200 1.420 . S
C1199 H1193 0.930 . S
C1199 C1195 1.407 . S
C1199 C1198 1.392 . S
N1200 C1198 1.420 . S
N1200 C1201 1.244 . S
C1201 N1200 1.244 . S
H1202 C1205 0.929 . S
H1203 C1208 0.929 . S
H1204 C1210 0.930 . S
C1205 H1202 0.929 . S
C1205 C1206 1.398 1_545 S
C1205 C1207 1.396 . S
C1206 C1205 1.398 1_565 S
C1206 C1210 1.407 . S
C1207 C1205 1.396 . S
C1207 C1208 1.394 . S
C1208 H1203 0.929 . S
C1208 C1207 1.394 . S
C1208 C1209 1.382 1_545 S
C1209 C1208 1.382 1_565 S
C1209 C1210 1.392 . S
C1209 N1211 1.420 . S
C1210 H1204 0.930 . S
C1210 C1206 1.407 . S
C1210 C1209 1.392 . S
N1211 C1209 1.420 . S
N1211 C1212 1.244 . S
C1212 N1211 1.244 . S
H1213 C1216 0.929 . S
H1214 C1219 0.929 . S
H1215 C1221 0.930 . S
C1216 H1213 0.929 . S
C1216 C1217 1.398 . S
C1216 C1218 1.396 . S
C1217 C1216 1.398 . S
C1217 C1221 1.407 . S
C1218 C1216 1.396 . S
C1218 C1219 1.394 1_455 S
C1219 H1214 0.929 . S
C1219 C1218 1.394 1_655 S
C1219 C1220 1.382 . S
C1220 C1219 1.382 . S
C1220 C1221 1.392 1_655 S
C1220 N1222 1.420 . S
C1221 H1215 0.930 . S
C1221 C1217 1.407 . S
C1221 C1220 1.392 1_455 S
N1222 C1220 1.420 . S
N1222 C1223 1.244 . S
C1223 N1222 1.244 . S
C1224 C1225 1.387 . S
C1224 H1228 0.950 . S
C1224 C1233 1.390 . S
C1225 C1224 1.387 . S
C1225 C1227 1.387 . S
H1226 C1233 0.950 . S
C1227 C1225 1.387 . S
C1227 C1229 1.390 . S
C1227 H1231 0.950 . S
H1228 C1224 0.950 . S
C1229 C1227 1.390 . S
C1229 C1230 1.387 . S
C1229 H1232 0.950 . S
C1230 C1229 1.387 . S
C1230 C1233 1.387 . S
H1231 C1227 0.950 . S
H1232 C1229 0.950 . S
C1233 C1224 1.390 . S
C1233 H1226 0.950 . S
C1233 C1230 1.387 . S
C1234 C1235 1.387 . S
C1234 H1238 0.950 . S
C1234 C1243 1.390 . S
C1235 C1234 1.387 . S
C1235 C1237 1.387 . S
H1236 C1243 0.950 . S
C1237 C1235 1.387 . S
C1237 C1239 1.390 . S
C1237 H1241 0.950 . S
H1238 C1234 0.950 . S
C1239 C1237 1.390 . S
C1239 C1240 1.387 . S
C1239 H1242 0.950 . S
C1240 C1239 1.387 . S
C1240 C1243 1.387 . S
H1241 C1237 0.950 . S
H1242 C1239 0.950 . S
C1243 C1234 1.390 . S
C1243 H1236 0.950 . S
C1243 C1240 1.387 . S
C1244 C1245 1.387 1_545 S
C1244 H1248 0.950 . S
C1244 C1253 1.390 1_545 S
C1245 C1244 1.387 1_565 S
C1245 C1247 1.387 . S
H1246 C1253 0.950 . S
C1247 C1245 1.387 . S
C1247 C1249 1.390 . S
C1247 H1251 0.950 . S
H1248 C1244 0.950 . S
C1249 C1247 1.390 . S
C1249 C1250 1.387 . S
C1249 H1252 0.950 . S
C1250 C1249 1.387 . S
C1250 C1253 1.387 . S
H1251 C1247 0.950 . S
H1252 C1249 0.950 . S
C1253 C1244 1.390 1_565 S
C1253 H1246 0.950 . S
C1253 C1250 1.387 . S
C1254 C1255 1.387 1_565 S
C1254 H1258 0.950 . S
C1254 C1263 1.390 . S
C1255 C1254 1.387 1_545 S
C1255 C1257 1.387 . S
H1256 C1263 0.950 1_455 S
C1257 C1255 1.387 . S
C1257 C1259 1.390 . S
C1257 H1261 0.950 . S
H1258 C1254 0.950 . S
C1259 C1257 1.390 . S
C1259 C1260 1.387 1_655 S
C1259 H1262 0.950 1_655 S
C1260 C1259 1.387 1_455 S
C1260 C1263 1.387 1_445 S
H1261 C1257 0.950 . S
H1262 C1259 0.950 1_455 S
C1263 C1254 1.390 . S
C1263 H1256 0.950 1_655 S
C1263 C1260 1.387 1_665 S
C1264 C1265 1.387 . S
C1264 H1268 0.950 . S
C1264 C1273 1.390 . S
C1265 C1264 1.387 . S
C1265 C1267 1.387 . S
H1266 C1273 0.950 . S
C1267 C1265 1.387 . S
C1267 C1269 1.390 . S
C1267 H1271 0.950 . S
H1268 C1264 0.950 . S
C1269 C1267 1.390 . S
C1269 C1270 1.387 . S
C1269 H1272 0.950 . S
C1270 C1269 1.387 . S
C1270 C1273 1.387 . S
H1271 C1267 0.950 . S
H1272 C1269 0.950 . S
C1273 C1264 1.390 . S
C1273 H1266 0.950 . S
C1273 C1270 1.387 . S
C1274 C1275 1.387 . S
C1274 H1278 0.950 . S
C1274 C1283 1.390 . S
C1275 C1274 1.387 . S
C1275 C1277 1.387 1_554 S
H1276 C1283 0.950 1_545 S
C1277 C1275 1.387 1_556 S
C1277 C1279 1.390 . S
C1277 H1281 0.950 . S
H1278 C1274 0.950 . S
C1279 C1277 1.390 . S
C1279 C1280 1.387 1_566 S
C1279 H1282 0.950 1_565 S
C1280 C1279 1.387 1_544 S
C1280 C1283 1.387 1_545 S
H1281 C1277 0.950 . S
H1282 C1279 0.950 1_545 S
C1283 C1274 1.390 . S
C1283 H1276 0.950 1_565 S
C1283 C1280 1.387 1_565 S
C1284 C1285 1.387 . S
C1284 H1288 0.950 . S
C1284 C1293 1.390 . S
C1285 C1284 1.387 . S
C1285 C1287 1.387 . S
H1286 C1293 0.950 . S
C1287 C1285 1.387 . S
C1287 C1289 1.390 . S
C1287 H1291 0.950 . S
H1288 C1284 0.950 . S
C1289 C1287 1.390 . S
C1289 C1290 1.387 . S
C1289 H1292 0.950 . S
C1290 C1289 1.387 . S
C1290 C1293 1.387 . S
H1291 C1287 0.950 . S
H1292 C1289 0.950 . S
C1293 C1284 1.390 . S
C1293 H1286 0.950 . S
C1293 C1290 1.387 . S
C1294 C1295 1.387 1_554 S
C1294 H1298 0.950 . S
C1294 C1303 1.390 . S
C1295 C1294 1.387 1_556 S
C1295 C1297 1.387 . S
H1296 C1303 0.950 . S
C1297 C1295 1.387 . S
C1297 C1299 1.390 . S
C1297 H1301 0.950 . S
H1298 C1294 0.950 . S
C1299 C1297 1.390 . S
C1299 C1300 1.387 . S
C1299 H1302 0.950 . S
C1300 C1299 1.387 . S
C1300 C1303 1.387 1_556 S
H1301 C1297 0.950 . S
H1302 C1299 0.950 . S
C1303 C1294 1.390 . S
C1303 H1296 0.950 . S
C1303 C1300 1.387 1_554 S
C1304 C1305 1.387 . S
C1304 H1308 0.950 . S
C1304 C1313 1.390 . S
C1305 C1304 1.387 . S
C1305 C1307 1.387 . S
H1306 C1313 0.950 . S
C1307 C1305 1.387 . S
C1307 C1309 1.390 . S
C1307 H1311 0.950 . S
H1308 C1304 0.950 . S
C1309 C1307 1.390 . S
C1309 C1310 1.387 . S
C1309 H1312 0.950 . S
C1310 C1309 1.387 . S
C1310 C1313 1.387 . S
H1311 C1307 0.950 . S
H1312 C1309 0.950 . S
C1313 C1304 1.390 . S
C1313 H1306 0.950 . S
C1313 C1310 1.387 . S
C1314 C1315 1.387 . S
C1314 H1318 0.950 . S
C1314 C1323 1.436 . S
C1315 C1314 1.387 . S
C1315 C1317 1.387 1_455 S
H1316 C1323 0.928 1_554 S
C1317 C1315 1.387 1_655 S
C1317 C1319 1.390 . S
C1317 H1321 0.950 . S
H1318 C1314 0.950 . S
C1319 C1317 1.390 . S
C1319 C1320 1.387 1_656 S
C1319 H1322 0.930 1_556 S
C1320 C1319 1.387 1_454 S
C1320 C1323 1.365 1_554 S
H1321 C1317 0.950 . S
H1322 C1319 0.930 1_554 S
C1323 C1314 1.436 . S
C1323 H1316 0.928 1_556 S
C1323 C1320 1.365 1_556 S
C1324 C1325 1.387 . S
C1324 H1328 0.950 . S
C1324 C1333 1.390 . S
C1325 C1324 1.387 . S
C1325 C1327 1.387 . S
H1326 C1333 0.950 . S
C1327 C1325 1.387 . S
C1327 C1329 1.390 . S
C1327 H1331 0.950 . S
H1328 C1324 0.950 . S
C1329 C1327 1.390 . S
C1329 C1330 1.387 . S
C1329 H1332 0.950 . S
C1330 C1329 1.387 . S
C1330 C1333 1.387 . S
H1331 C1327 0.950 . S
H1332 C1329 0.950 . S
C1333 C1324 1.390 . S
C1333 H1326 0.950 . S
C1333 C1330 1.387 . S
C1334 C1335 1.387 . S
C1334 H1338 0.950 . S
C1334 C1343 1.390 . S
C1335 C1334 1.387 . S
C1335 C1337 1.387 . S
H1336 C1343 0.950 . S
C1337 C1335 1.387 . S
C1337 C1339 1.390 . S
C1337 H1341 0.950 1_655 S
H1338 C1334 0.950 . S
C1339 C1337 1.390 . S
C1339 C1340 1.387 . S
C1339 H1342 0.950 . S
C1340 C1339 1.387 . S
C1340 C1343 1.387 . S
H1341 C1337 0.950 1_455 S
H1342 C1339 0.950 . S
C1343 C1334 1.390 . S
C1343 H1336 0.950 . S
C1343 C1340 1.387 . S
C1344 C1345 1.387 . S
C1344 H1348 0.950 . S
C1344 C1353 1.390 . S
C1345 C1344 1.387 . S
C1345 C1347 1.387 . S
H1346 C1353 0.950 . S
C1347 C1345 1.387 . S
C1347 C1349 1.390 . S
C1347 H1351 0.950 . S
H1348 C1344 0.950 . S
C1349 C1347 1.390 . S
C1349 C1350 1.387 . S
C1349 H1352 0.950 . S
C1350 C1349 1.387 . S
C1350 C1353 1.387 . S
H1351 C1347 0.950 . S
H1352 C1349 0.950 . S
C1353 C1344 1.390 . S
C1353 H1346 0.950 . S
C1353 C1350 1.387 . S
C1354 C1355 1.387 . S
C1354 H1358 0.950 . S
C1354 C1363 1.390 . S
C1355 C1354 1.387 . S
C1355 C1357 1.387 . S
H1356 C1363 0.950 . S
C1357 C1355 1.387 . S
C1357 C1359 1.390 . S
C1357 H1361 0.950 . S
H1358 C1354 0.950 . S
C1359 C1357 1.390 . S
C1359 C1360 1.387 . S
C1359 H1362 0.950 . S
C1360 C1359 1.387 . S
C1360 C1363 1.387 . S
H1361 C1357 0.950 . S
H1362 C1359 0.950 . S
C1363 C1354 1.390 . S
C1363 H1356 0.950 . S
C1363 C1360 1.387 . S
C1364 C1365 1.387 . S
C1364 H1368 0.950 . S
C1364 C1373 1.390 . S
C1365 C1364 1.387 . S
C1365 C1367 1.387 . S
H1366 C1373 0.950 . S
C1367 C1365 1.387 . S
C1367 C1369 1.390 . S
C1367 H1371 0.950 . S
H1368 C1364 0.950 . S
C1369 C1367 1.390 . S
C1369 C1370 1.387 . S
C1369 H1372 0.950 . S
C1370 C1369 1.387 . S
C1370 C1373 1.387 . S
H1371 C1367 0.950 . S
H1372 C1369 0.950 . S
C1373 C1364 1.390 . S
C1373 H1366 0.950 . S
C1373 C1370 1.387 . S
C1374 C1375 1.387 1_545 S
C1374 H1378 0.950 . S
C1374 C1383 1.390 . S
C1375 C1374 1.387 1_565 S
C1375 C1377 1.387 . S
H1376 C1383 0.950 1_655 S
C1377 C1375 1.387 . S
C1377 C1379 1.390 . S
C1377 H1381 0.950 . S
H1378 C1374 0.950 . S
C1379 C1377 1.390 . S
C1379 C1380 1.387 1_455 S
C1379 H1382 0.950 1_455 S
C1380 C1379 1.387 1_655 S
C1380 C1383 1.387 1_665 S
H1381 C1377 0.950 . S
H1382 C1379 0.950 1_655 S
C1383 C1374 1.390 . S
C1383 H1376 0.950 1_455 S
C1383 C1380 1.387 1_445 S
C1384 C1385 1.387 . S
C1384 H1388 0.950 . S
C1384 C1393 1.390 . S
C1385 C1384 1.387 . S
C1385 C1387 1.387 . S
H1386 C1393 0.950 . S
C1387 C1385 1.387 . S
C1387 C1389 1.390 . S
C1387 H1391 0.950 . S
H1388 C1384 0.950 . S
C1389 C1387 1.390 . S
C1389 C1390 1.387 . S
C1389 H1392 0.950 . S
C1390 C1389 1.387 . S
C1390 C1393 1.387 . S
H1391 C1387 0.950 . S
H1392 C1389 0.950 . S
C1393 C1384 1.390 . S
C1393 H1386 0.950 . S
C1393 C1390 1.387 . S
C1394 C1395 1.387 . S
C1394 H1398 0.950 . S
C1394 C1403 1.390 . S
C1395 C1394 1.387 . S
C1395 C1397 1.387 1_556 S
H1396 C1403 0.950 1_565 S
C1397 C1395 1.387 1_554 S
C1397 C1399 1.390 . S
C1397 H1401 0.950 . S
H1398 C1394 0.950 . S
C1399 C1397 1.390 . S
C1399 C1400 1.387 1_544 S
C1399 H1402 0.950 1_545 S
C1400 C1399 1.387 1_566 S
C1400 C1403 1.387 1_565 S
H1401 C1397 0.950 . S
H1402 C1399 0.950 1_565 S
C1403 C1394 1.390 . S
C1403 H1396 0.950 1_545 S
C1403 C1400 1.387 1_545 S
C1404 C1405 1.387 . S
C1404 H1408 0.950 . S
C1404 C1413 1.390 . S
C1405 C1404 1.387 . S
C1405 C1407 1.387 . S
H1406 C1413 0.950 . S
C1407 C1405 1.387 . S
C1407 C1409 1.390 . S
C1407 H1411 0.950 . S
H1408 C1404 0.950 . S
C1409 C1407 1.390 . S
C1409 C1410 1.387 . S
C1409 H1412 0.950 . S
C1410 C1409 1.387 . S
C1410 C1413 1.387 . S
H1411 C1407 0.950 . S
H1412 C1409 0.950 . S
C1413 C1404 1.390 . S
C1413 H1406 0.950 . S
C1413 C1410 1.387 . S
C1414 C1415 1.387 1_556 S
C1414 H1418 0.950 . S
C1414 C1423 1.393 . S
C1415 C1414 1.387 1_554 S
C1415 C1417 1.387 . S
H1416 C1423 0.954 . S
C1417 C1415 1.387 . S
C1417 C1419 1.390 . S
C1417 H1421 0.950 . S
H1418 C1414 0.950 . S
C1419 C1417 1.390 . S
C1419 C1420 1.387 . S
C1419 H1422 0.950 . S
C1420 C1419 1.387 . S
C1420 C1423 1.381 1_554 S
H1421 C1417 0.950 . S
H1422 C1419 0.950 . S
C1423 C1414 1.393 . S
C1423 H1416 0.954 . S
C1423 C1420 1.381 1_556 S
C1424 C1425 1.387 . S
C1424 H1428 0.950 . S
C1424 C1433 1.390 . S
C1425 C1424 1.387 . S
C1425 C1427 1.387 . S
H1426 C1433 0.950 . S
C1427 C1425 1.387 . S
C1427 C1429 1.390 . S
C1427 H1431 0.950 . S
H1428 C1424 0.950 . S
C1429 C1427 1.390 . S
C1429 C1430 1.387 . S
C1429 H1432 0.950 . S
C1430 C1429 1.387 . S
C1430 C1433 1.387 . S
H1431 C1427 0.950 . S
H1432 C1429 0.950 . S
C1433 C1424 1.390 . S
C1433 H1426 0.950 . S
C1433 C1430 1.387 . S
C1434 C1435 1.387 1_455 S
C1434 H1438 0.950 . S
C1434 C1443 1.390 . S
C1435 C1434 1.387 1_655 S
C1435 C1437 1.387 . S
H1436 C1443 0.950 1_556 S
C1437 C1435 1.387 . S
C1437 C1439 1.390 . S
C1437 H1441 0.950 . S
H1438 C1434 0.950 . S
C1439 C1437 1.390 . S
C1439 C1440 1.387 1_554 S
C1439 H1442 0.950 1_554 S
C1440 C1439 1.387 1_556 S
C1440 C1443 1.387 1_656 S
H1441 C1437 0.950 . S
H1442 C1439 0.950 1_556 S
C1443 C1434 1.390 . S
C1443 H1436 0.950 1_554 S
C1443 C1440 1.387 1_454 S
C1444 C1445 1.387 . S
C1444 H1448 0.950 . S
C1444 C1453 1.390 . S
C1445 C1444 1.387 . S
C1445 C1447 1.387 . S
H1446 C1453 0.950 . S
C1447 C1445 1.387 . S
C1447 C1449 1.390 . S
C1447 H1451 0.950 . S
H1448 C1444 0.950 . S
C1449 C1447 1.390 . S
C1449 C1450 1.387 . S
C1449 H1452 0.950 . S
C1450 C1449 1.387 . S
C1450 C1453 1.387 . S
H1451 C1447 0.950 . S
H1452 C1449 0.950 . S
C1453 C1444 1.390 . S
C1453 H1446 0.950 . S
C1453 C1450 1.387 . S
C1454 C1455 1.387 . S
C1454 H1458 0.950 . S
C1454 C1463 1.390 . S
C1455 C1454 1.387 . S
C1455 C1457 1.387 1_455 S
H1456 C1463 0.950 . S
C1457 C1455 1.387 1_655 S
C1457 C1459 1.390 1_655 S
C1457 H1461 0.950 . S
H1458 C1454 0.950 . S
C1459 C1457 1.390 1_455 S
C1459 C1460 1.387 . S
C1459 H1462 0.950 . S
C1460 C1459 1.387 . S
C1460 C1463 1.387 . S
H1461 C1457 0.950 . S
H1462 C1459 0.950 . S
C1463 C1454 1.390 . S
C1463 H1456 0.950 . S
C1463 C1460 1.387 . S
C1464 C1465 1.387 . S
C1464 H1468 0.950 . S
C1464 C1473 1.390 . S
C1465 C1464 1.387 . S
C1465 C1467 1.387 . S
H1466 C1473 0.950 . S
C1467 C1465 1.387 . S
C1467 C1469 1.390 . S
C1467 H1471 0.950 . S
H1468 C1464 0.950 . S
C1469 C1467 1.390 . S
C1469 C1470 1.387 . S
C1469 H1472 0.950 . S
C1470 C1469 1.387 . S
C1470 C1473 1.387 . S
H1471 C1467 0.950 . S
H1472 C1469 0.950 . S
C1473 C1464 1.390 . S
C1473 H1466 0.950 . S
C1473 C1470 1.387 . S
C1474 C1475 1.387 . S
C1474 H1478 0.950 . S
C1474 C1483 1.390 . S
C1475 C1474 1.387 . S
C1475 C1477 1.387 . S
H1476 C1483 0.950 1_554 S
C1477 C1475 1.387 . S
C1477 C1479 1.390 . S
C1477 H1481 0.950 . S
H1478 C1474 0.950 . S
C1479 C1477 1.390 . S
C1479 C1480 1.387 . S
C1479 H1482 0.950 . S
C1480 C1479 1.387 . S
C1480 C1483 1.387 . S
H1481 C1477 0.950 . S
H1482 C1479 0.950 . S
C1483 C1474 1.390 . S
C1483 H1476 0.950 1_556 S
C1483 C1480 1.387 . S
C1484 C1485 1.387 . S
C1484 H1488 0.950 . S
C1484 C1493 1.390 . S
C1485 C1484 1.387 . S
C1485 C1487 1.388 1_565 S
H1486 C1493 0.950 . S
C1487 C1485 1.388 1_545 S
C1487 C1489 1.390 . S
C1487 H1491 0.950 . S
H1488 C1484 0.950 . S
C1489 C1487 1.390 . S
C1489 C1490 1.387 1_545 S
C1489 H1492 0.950 . S
C1490 C1489 1.387 1_565 S
C1490 C1493 1.387 . S
H1491 C1487 0.950 . S
H1492 C1489 0.950 . S
C1493 C1484 1.390 . S
C1493 H1486 0.950 . S
C1493 C1490 1.387 . S
C1494 C1495 1.387 . S
C1494 H1498 0.950 . S
C1494 C1503 1.390 . S
C1495 C1494 1.387 . S
C1495 C1497 1.387 . S
H1496 C1503 0.950 . S
C1497 C1495 1.387 . S
C1497 C1499 1.390 . S
C1497 H1501 0.950 . S
H1498 C1494 0.950 . S
C1499 C1497 1.390 . S
C1499 C1500 1.387 . S
C1499 H1502 0.950 . S
C1500 C1499 1.387 . S
C1500 C1503 1.387 . S
H1501 C1497 0.950 . S
H1502 C1499 0.950 . S
C1503 C1494 1.390 . S
C1503 H1496 0.950 . S
C1503 C1500 1.387 . S
C1504 C1505 1.387 . S
C1504 H1508 0.950 . S
C1504 C1513 1.390 . S
C1505 C1504 1.387 . S
C1505 C1507 1.387 . S
H1506 C1513 0.950 . S
C1507 C1505 1.387 . S
C1507 C1509 1.390 . S
C1507 H1511 0.950 . S
H1508 C1504 0.950 . S
C1509 C1507 1.390 . S
C1509 C1510 1.387 . S
C1509 H1512 0.950 . S
C1510 C1509 1.387 . S
C1510 C1513 1.387 . S
H1511 C1507 0.950 . S
H1512 C1509 0.950 . S
C1513 C1504 1.390 . S
C1513 H1506 0.950 . S
C1513 C1510 1.387 . S
C1514 C1515 1.387 . S
C1514 H1518 0.950 . S
C1514 C1523 1.390 . S
C1515 C1514 1.387 . S
C1515 C1517 1.387 . S
H1516 C1523 0.950 . S
C1517 C1515 1.387 . S
C1517 C1519 1.390 . S
C1517 H1521 0.950 . S
H1518 C1514 0.950 . S
C1519 C1517 1.390 . S
C1519 C1520 1.387 . S
C1519 H1522 0.950 . S
C1520 C1519 1.387 . S
C1520 C1523 1.387 . S
H1521 C1517 0.950 . S
H1522 C1519 0.950 . S
C1523 C1514 1.390 . S
C1523 H1516 0.950 . S
C1523 C1520 1.387 . S
C1524 C1525 1.387 . S
C1524 H1528 0.950 . S
C1524 C1533 1.390 . S
C1525 C1524 1.387 . S
C1525 C1527 1.387 . S
H1526 C1533 0.950 . S
C1527 C1525 1.387 . S
C1527 C1529 1.390 . S
C1527 H1531 0.950 . S
H1528 C1524 0.950 . S
C1529 C1527 1.390 . S
C1529 C1530 1.387 . S
C1529 H1532 0.950 . S
C1530 C1529 1.387 . S
C1530 C1533 1.387 . S
H1531 C1527 0.950 . S
H1532 C1529 0.950 . S
C1533 C1524 1.390 . S
C1533 H1526 0.950 . S
C1533 C1530 1.387 . S
C1534 C1535 1.388 . S
C1534 H1538 0.950 . S
C1534 C1543 1.390 . S
C1535 C1534 1.388 . S
C1535 C1537 1.387 1_556 S
H1536 C1543 0.950 . S
C1537 C1535 1.387 1_554 S
C1537 C1539 1.390 . S
C1537 H1541 0.950 . S
H1538 C1534 0.950 . S
C1539 C1537 1.390 . S
C1539 C1540 1.387 1_554 S
C1539 H1542 0.950 . S
C1540 C1539 1.387 1_556 S
C1540 C1543 1.387 . S
H1541 C1537 0.950 . S
H1542 C1539 0.950 . S
C1543 C1534 1.390 . S
C1543 H1536 0.950 . S
C1543 C1540 1.387 . S
C1544 C1545 1.387 . S
C1544 H1548 0.950 . S
C1544 C1553 1.390 . S
C1545 C1544 1.387 . S
C1545 C1547 1.387 . S
H1546 C1553 0.950 . S
C1547 C1545 1.387 . S
C1547 C1549 1.390 . S
C1547 H1551 0.950 . S
H1548 C1544 0.950 . S
C1549 C1547 1.390 . S
C1549 C1550 1.387 . S
C1549 H1552 0.950 . S
C1550 C1549 1.387 . S
C1550 C1553 1.387 . S
H1551 C1547 0.950 . S
H1552 C1549 0.950 . S
C1553 C1544 1.390 . S
C1553 H1546 0.950 . S
C1553 C1550 1.387 . S
C1554 C1555 1.387 . S
C1554 H1558 0.950 . S
C1554 C1563 1.390 . S
C1555 C1554 1.387 . S
C1555 C1557 1.387 . S
H1556 C1563 0.950 . S
C1557 C1555 1.387 . S
C1557 C1559 1.390 . S
C1557 H1561 0.950 . S
H1558 C1554 0.950 . S
C1559 C1557 1.390 . S
C1559 C1560 1.387 . S
C1559 H1562 0.950 . S
C1560 C1559 1.387 . S
C1560 C1563 1.387 . S
H1561 C1557 0.950 . S
H1562 C1559 0.950 . S
C1563 C1554 1.390 . S
C1563 H1556 0.950 . S
C1563 C1560 1.387 . S
C1564 C1565 1.387 . S
C1564 H1568 0.950 . S
C1564 C1573 1.390 . S
C1565 C1564 1.387 . S
C1565 C1567 1.387 . S
H1566 C1573 0.950 1_545 S
C1567 C1565 1.387 . S
C1567 C1569 1.390 . S
C1567 H1571 0.950 . S
H1568 C1564 0.950 . S
C1569 C1567 1.390 . S
C1569 C1570 1.387 . S
C1569 H1572 0.950 . S
C1570 C1569 1.387 . S
C1570 C1573 1.387 . S
H1571 C1567 0.950 . S
H1572 C1569 0.950 . S
C1573 C1564 1.390 . S
C1573 H1566 0.950 1_565 S
C1573 C1570 1.387 . S
C1574 C1575 1.387 1_455 S
C1574 H1578 0.950 . S
C1574 C1583 1.390 . S
C1575 C1574 1.387 1_655 S
C1575 C1577 1.388 . S
H1576 C1583 0.950 . S
C1577 C1575 1.388 . S
C1577 C1579 1.390 . S
C1577 H1581 0.950 . S
H1578 C1574 0.950 . S
C1579 C1577 1.390 . S
C1579 C1580 1.387 . S
C1579 H1582 0.950 . S
C1580 C1579 1.387 . S
C1580 C1583 1.387 1_655 S
H1581 C1577 0.950 . S
H1582 C1579 0.950 . S
C1583 C1574 1.390 . S
C1583 H1576 0.950 . S
C1583 C1580 1.387 1_455 S
C1584 C1585 1.387 . S
C1584 H1588 0.950 . S
C1584 C1593 1.390 . S
C1585 C1584 1.387 . S
C1585 C1587 1.387 . S
H1586 C1593 0.950 . S
C1587 C1585 1.387 . S
C1587 C1589 1.390 . S
C1587 H1591 0.950 . S
H1588 C1584 0.950 . S
C1589 C1587 1.390 . S
C1589 C1590 1.387 . S
C1589 H1592 0.950 . S
C1590 C1589 1.387 . S
C1590 C1593 1.387 . S
H1591 C1587 0.950 . S
H1592 C1589 0.950 . S
C1593 C1584 1.390 . S
C1593 H1586 0.950 . S
C1593 C1590 1.387 . S
C1594 C1595 1.387 . S
C1594 H1598 0.950 . S
C1594 C1603 1.390 . S
C1595 C1594 1.387 . S
C1595 C1597 1.387 . S
H1596 C1603 0.950 . S
C1597 C1595 1.387 . S
C1597 C1599 1.390 . S
C1597 H1601 0.950 . S
H1598 C1594 0.950 . S
C1599 C1597 1.390 . S
C1599 C1600 1.387 . S
C1599 H1602 0.950 1_554 S
C1600 C1599 1.387 . S
C1600 C1603 1.387 . S
H1601 C1597 0.950 . S
H1602 C1599 0.950 1_556 S
C1603 C1594 1.390 . S
C1603 H1596 0.950 . S
C1603 C1600 1.387 . S
C1604 C1605 1.387 . S
C1604 H1608 0.950 . S
C1604 C1613 1.390 . S
C1605 C1604 1.387 . S
C1605 C1607 1.387 1_545 S
H1606 C1613 0.950 . S
C1607 C1605 1.387 1_565 S
C1607 C1609 1.390 . S
C1607 H1611 0.950 . S
H1608 C1604 0.950 . S
C1609 C1607 1.390 . S
C1609 C1610 1.387 1_565 S
C1609 H1612 0.950 . S
C1610 C1609 1.387 1_545 S
C1610 C1613 1.387 . S
H1611 C1607 0.950 . S
H1612 C1609 0.950 . S
C1613 C1604 1.390 . S
C1613 H1606 0.950 . S
C1613 C1610 1.387 . S
C1614 C1615 1.387 . S
C1614 H1618 0.950 . S
C1614 C1623 1.390 . S
C1615 C1614 1.387 . S
C1615 C1617 1.387 . S
H1616 C1623 0.950 . S
C1617 C1615 1.387 . S
C1617 C1619 1.390 . S
C1617 H1621 0.950 . S
H1618 C1614 0.950 . S
C1619 C1617 1.390 . S
C1619 C1620 1.387 . S
C1619 H1622 0.950 . S
C1620 C1619 1.387 . S
C1620 C1623 1.387 . S
H1621 C1617 0.950 . S
H1622 C1619 0.950 . S
C1623 C1614 1.390 . S
C1623 H1616 0.950 . S
C1623 C1620 1.387 . S
C1624 C1625 1.387 . S
C1624 H1628 0.950 . S
C1624 C1633 1.390 . S
C1625 C1624 1.387 . S
C1625 C1627 1.387 . S
H1626 C1633 0.950 . S
C1627 C1625 1.387 . S
C1627 C1629 1.390 . S
C1627 H1631 0.950 . S
H1628 C1624 0.950 . S
C1629 C1627 1.390 . S
C1629 C1630 1.387 . S
C1629 H1632 0.950 . S
C1630 C1629 1.387 . S
C1630 C1633 1.387 . S
H1631 C1627 0.950 . S
H1632 C1629 0.950 . S
C1633 C1624 1.390 . S
C1633 H1626 0.950 . S
C1633 C1630 1.387 . S
C1634 C1635 1.387 . S
C1634 H1638 0.950 . S
C1634 C1643 1.390 . S
C1635 C1634 1.387 . S
C1635 C1637 1.387 . S
H1636 C1643 0.950 . S
C1637 C1635 1.387 . S
C1637 C1639 1.390 . S
C1637 H1641 0.950 . S
H1638 C1634 0.950 . S
C1639 C1637 1.390 . S
C1639 C1640 1.387 . S
C1639 H1642 0.950 . S
C1640 C1639 1.387 . S
C1640 C1643 1.387 . S
H1641 C1637 0.950 . S
H1642 C1639 0.950 . S
C1643 C1634 1.390 . S
C1643 H1636 0.950 . S
C1643 C1640 1.387 . S
C1644 C1645 1.387 . S
C1644 H1648 0.950 . S
C1644 C1653 1.390 . S
C1645 C1644 1.387 . S
C1645 C1647 1.387 . S
H1646 C1653 0.950 . S
C1647 C1645 1.387 . S
C1647 C1649 1.390 . S
C1647 H1651 0.950 . S
H1648 C1644 0.950 . S
C1649 C1647 1.390 . S
C1649 C1650 1.387 . S
C1649 H1652 0.950 1_455 S
C1650 C1649 1.387 . S
C1650 C1653 1.387 . S
H1651 C1647 0.950 . S
H1652 C1649 0.950 1_655 S
C1653 C1644 1.390 . S
C1653 H1646 0.950 . S
C1653 C1650 1.387 . S
C1654 C1655 1.388 1_556 S
C1654 H1658 0.950 . S
C1654 C1663 1.390 . S
C1655 C1654 1.388 1_554 S
C1655 C1657 1.387 . S
H1656 C1663 0.950 . S
C1657 C1655 1.387 . S
C1657 C1659 1.390 . S
C1657 H1661 0.950 . S
H1658 C1654 0.950 . S
C1659 C1657 1.390 . S
C1659 C1660 1.387 . S
C1659 H1662 0.950 . S
C1660 C1659 1.387 . S
C1660 C1663 1.387 1_554 S
H1661 C1657 0.950 . S
H1662 C1659 0.950 . S
C1663 C1654 1.390 . S
C1663 H1656 0.950 . S
C1663 C1660 1.387 1_556 S
C1664 C1665 1.387 . S
C1664 H1668 0.950 . S
C1664 C1673 1.390 . S
C1665 C1664 1.387 . S
C1665 C1667 1.387 . S
H1666 C1673 0.950 . S
C1667 C1665 1.387 . S
C1667 C1669 1.390 . S
C1667 H1671 0.950 . S
H1668 C1664 0.950 . S
C1669 C1667 1.390 . S
C1669 C1670 1.387 . S
C1669 H1672 0.950 . S
C1670 C1669 1.387 . S
C1670 C1673 1.387 . S
H1671 C1667 0.950 . S
H1672 C1669 0.950 . S
C1673 C1664 1.390 . S
C1673 H1666 0.950 . S
C1673 C1670 1.387 . S
C1674 C1675 1.387 . S
C1674 H1678 0.950 . S
C1674 C1683 1.390 . S
C1675 C1674 1.387 . S
C1675 C1677 1.387 . S
H1676 C1683 0.950 . S
C1677 C1675 1.387 . S
C1677 C1679 1.390 . S
C1677 H1681 0.950 . S
H1678 C1674 0.950 . S
C1679 C1677 1.390 . S
C1679 C1680 1.387 . S
C1679 H1682 0.950 . S
C1680 C1679 1.387 . S
C1680 C1683 1.387 . S
H1681 C1677 0.950 . S
H1682 C1679 0.950 . S
C1683 C1674 1.390 . S
C1683 H1676 0.950 . S
C1683 C1680 1.387 . S
C1684 C1685 1.387 . S
C1684 H1688 0.950 . S
C1684 C1693 1.390 . S
C1685 C1684 1.387 . S
C1685 C1687 1.387 . S
H1686 C1693 0.950 1_565 S
C1687 C1685 1.387 . S
C1687 C1689 1.390 . S
C1687 H1691 0.950 . S
H1688 C1684 0.950 . S
C1689 C1687 1.390 . S
C1689 C1690 1.387 . S
C1689 H1692 0.950 . S
C1690 C1689 1.387 . S
C1690 C1693 1.387 . S
H1691 C1687 0.950 . S
H1692 C1689 0.950 . S
C1693 C1684 1.390 . S
C1693 H1686 0.950 1_545 S
C1693 C1690 1.387 . S
C1694 C1695 1.390 . S
C1694 H1698 0.950 . S
C1694 C1703 1.390 . S
C1695 C1694 1.390 . S
C1695 C1697 1.385 1_455 S
H1696 C1703 0.950 . S
C1697 C1695 1.385 1_655 S
C1697 C1699 1.390 . S
C1697 H1701 0.950 . S
H1698 C1694 0.950 . S
C1699 C1697 1.390 . S
C1699 C1700 1.387 1_655 S
C1699 H1702 0.950 . S
C1700 C1699 1.387 1_455 S
C1700 C1703 1.387 . S
H1701 C1697 0.950 . S
H1702 C1699 0.950 . S
C1703 C1694 1.390 . S
C1703 H1696 0.950 . S
C1703 C1700 1.387 . S
C1704 C1705 1.387 . S
C1704 H1708 0.950 . S
C1704 C1713 1.390 . S
C1705 C1704 1.387 . S
C1705 C1707 1.387 . S
H1706 C1713 0.950 . S
C1707 C1705 1.387 . S
C1707 C1709 1.390 . S
C1707 H1711 0.950 . S
H1708 C1704 0.950 . S
C1709 C1707 1.390 . S
C1709 C1710 1.387 . S
C1709 H1712 0.950 . S
C1710 C1709 1.387 . S
C1710 C1713 1.387 . S
H1711 C1707 0.950 . S
H1712 C1709 0.950 . S
C1713 C1704 1.390 . S
C1713 H1706 0.950 . S
C1713 C1710 1.387 . S
C1714 C1715 1.387 . S
C1714 H1718 0.950 . S
C1714 C1723 1.390 . S
C1715 C1714 1.387 . S
C1715 C1717 1.387 . S
H1716 C1723 0.950 . S
C1717 C1715 1.387 . S
C1717 C1719 1.390 . S
C1717 H1721 0.950 . S
H1718 C1714 0.950 . S
C1719 C1717 1.390 . S
C1719 C1720 1.387 . S
C1719 H1722 0.950 . S
C1720 C1719 1.387 . S
C1720 C1723 1.387 . S
H1721 C1717 0.950 . S
H1722 C1719 0.950 . S
C1723 C1714 1.390 . S
C1723 H1716 0.950 . S
C1723 C1720 1.387 . S
C1724 C1725 1.387 1_545 S
C1724 H1728 0.950 . S
C1724 C1733 1.390 . S
C1725 C1724 1.387 1_565 S
C1725 C1727 1.387 . S
H1726 C1733 0.950 . S
C1727 C1725 1.387 . S
C1727 C1729 1.390 . S
C1727 H1731 0.950 . S
H1728 C1724 0.950 . S
C1729 C1727 1.390 . S
C1729 C1730 1.387 . S
C1729 H1732 0.950 . S
C1730 C1729 1.387 . S
C1730 C1733 1.387 1_565 S
H1731 C1727 0.950 . S
H1732 C1729 0.950 . S
C1733 C1724 1.390 . S
C1733 H1726 0.950 . S
C1733 C1730 1.387 1_545 S
C1734 C1735 1.387 . S
C1734 H1738 0.950 . S
C1734 C1743 1.390 . S
C1735 C1734 1.387 . S
C1735 C1737 1.379 1_545 S
H1736 C1743 0.950 . S
C1737 C1735 1.379 1_565 S
C1737 C1739 1.390 . S
C1737 H1741 0.959 . S
H1738 C1734 0.950 . S
C1739 C1737 1.390 . S
C1739 C1740 1.387 1_565 S
C1739 H1742 0.950 . S
C1740 C1739 1.387 1_545 S
C1740 C1743 1.387 . S
H1741 C1737 0.959 . S
H1742 C1739 0.950 . S
C1743 C1734 1.390 . S
C1743 H1736 0.950 . S
C1743 C1740 1.387 . S
C1744 C1745 1.387 . S
C1744 H1748 0.950 . S
C1744 C1753 1.390 . S
C1745 C1744 1.387 . S
C1745 C1747 1.387 . S
H1746 C1753 0.950 . S
C1747 C1745 1.387 . S
C1747 C1749 1.390 . S
C1747 H1751 0.950 . S
H1748 C1744 0.950 . S
C1749 C1747 1.390 . S
C1749 C1750 1.387 . S
C1749 H1752 0.950 . S
C1750 C1749 1.387 . S
C1750 C1753 1.387 . S
H1751 C1747 0.950 . S
H1752 C1749 0.950 . S
C1753 C1744 1.390 . S
C1753 H1746 0.950 . S
C1753 C1750 1.387 . S
C1754 C1755 1.387 . S
C1754 H1758 0.950 . S
C1754 C1763 1.390 . S
C1755 C1754 1.387 . S
C1755 C1757 1.387 1_554 S
H1756 C1763 0.950 . S
C1757 C1755 1.387 1_556 S
C1757 C1759 1.390 . S
C1757 H1761 0.950 . S
H1758 C1754 0.950 . S
C1759 C1757 1.390 . S
C1759 C1760 1.387 1_556 S
C1759 H1762 0.950 . S
C1760 C1759 1.387 1_554 S
C1760 C1763 1.387 . S
H1761 C1757 0.950 . S
H1762 C1759 0.950 . S
C1763 C1754 1.390 . S
C1763 H1756 0.950 . S
C1763 C1760 1.387 . S
C1764 C1765 1.387 . S
C1764 H1768 0.950 . S
C1764 C1773 1.390 . S
C1765 C1764 1.387 . S
C1765 C1767 1.387 . S
H1766 C1773 0.950 . S
C1767 C1765 1.387 . S
C1767 C1769 1.390 . S
C1767 H1771 0.950 . S
H1768 C1764 0.950 . S
C1769 C1767 1.390 . S
C1769 C1770 1.387 . S
C1769 H1772 0.950 . S
C1770 C1769 1.387 . S
C1770 C1773 1.387 . S
H1771 C1767 0.950 . S
H1772 C1769 0.950 . S
C1773 C1764 1.390 . S
C1773 H1766 0.950 . S
C1773 C1770 1.387 . S
C1774 C1775 1.387 1_554 S
C1774 H1778 0.950 . S
C1774 C1783 1.390 . S
C1775 C1774 1.387 1_556 S
C1775 C1777 1.387 . S
H1776 C1783 0.950 . S
C1777 C1775 1.387 . S
C1777 C1779 1.390 . S
C1777 H1781 0.950 . S
H1778 C1774 0.950 . S
C1779 C1777 1.390 . S
C1779 C1780 1.387 . S
C1779 H1782 0.950 . S
C1780 C1779 1.387 . S
C1780 C1783 1.387 1_556 S
H1781 C1777 0.950 . S
H1782 C1779 0.950 . S
C1783 C1774 1.390 . S
C1783 H1776 0.950 . S
C1783 C1780 1.387 1_554 S
C1784 C1785 1.387 . S
C1784 H1788 0.950 . S
C1784 C1793 1.390 . S
C1785 C1784 1.387 . S
C1785 C1787 1.387 . S
H1786 C1793 0.950 . S
C1787 C1785 1.387 . S
C1787 C1789 1.390 . S
C1787 H1791 0.950 . S
H1788 C1784 0.950 . S
C1789 C1787 1.390 . S
C1789 C1790 1.387 . S
C1789 H1792 0.950 . S
C1790 C1789 1.387 . S
C1790 C1793 1.387 . S
H1791 C1787 0.950 . S
H1792 C1789 0.950 . S
C1793 C1784 1.390 . S
C1793 H1786 0.950 . S
C1793 C1790 1.387 . S
C1794 C1795 1.387 . S
C1794 H1798 0.950 1_455 S
C1794 C1803 1.390 . S
C1795 C1794 1.387 . S
C1795 C1797 1.387 . S
H1796 C1803 0.936 1_655 S
C1797 C1795 1.387 . S
C1797 C1799 1.390 . S
C1797 H1801 0.950 . S
H1798 C1794 0.950 1_655 S
C1799 C1797 1.390 . S
C1799 C1800 1.387 . S
C1799 H1802 0.950 . S
C1800 C1799 1.387 . S
C1800 C1803 1.403 . S
H1801 C1797 0.950 . S
H1802 C1799 0.950 . S
C1803 C1794 1.390 . S
C1803 H1796 0.936 1_455 S
C1803 C1800 1.403 . S
C1804 C1805 1.387 . S
C1804 H1808 0.950 . S
C1804 C1813 1.390 . S
C1805 C1804 1.387 . S
C1805 C1807 1.387 . S
H1806 C1813 0.950 . S
C1807 C1805 1.387 . S
C1807 C1809 1.390 . S
C1807 H1811 0.950 . S
H1808 C1804 0.950 . S
C1809 C1807 1.390 . S
C1809 C1810 1.387 . S
C1809 H1812 0.950 . S
C1810 C1809 1.387 . S
C1810 C1813 1.387 . S
H1811 C1807 0.950 . S
H1812 C1809 0.950 . S
C1813 C1804 1.390 . S
C1813 H1806 0.950 . S
C1813 C1810 1.387 . S
C1814 C1815 1.388 . S
C1814 H1818 0.945 1_655 S
C1814 C1823 1.395 . S
C1815 C1814 1.388 . S
C1815 C1817 1.387 . S
H1816 C1823 0.950 . S
C1817 C1815 1.387 . S
C1817 C1819 1.390 . S
C1817 H1821 0.950 . S
H1818 C1814 0.945 1_455 S
C1819 C1817 1.390 . S
C1819 C1820 1.387 . S
C1819 H1822 0.950 . S
C1820 C1819 1.387 . S
C1820 C1823 1.387 . S
H1821 C1817 0.950 . S
H1822 C1819 0.950 . S
C1823 C1814 1.395 . S
C1823 H1816 0.950 . S
C1823 C1820 1.387 . S
C1824 C1825 1.387 . S
C1824 H1828 0.950 . S
C1824 C1833 1.390 . S
C1825 C1824 1.387 . S
C1825 C1827 1.387 . S
H1826 C1833 0.950 . S
C1827 C1825 1.387 . S
C1827 C1829 1.390 . S
C1827 H1831 0.950 . S
H1828 C1824 0.950 . S
C1829 C1827 1.390 . S
C1829 C1830 1.387 . S
C1829 H1832 0.950 . S
C1830 C1829 1.387 . S
C1830 C1833 1.387 . S
H1831 C1827 0.950 . S
H1832 C1829 0.950 . S
C1833 C1824 1.390 . S
C1833 H1826 0.950 . S
C1833 C1830 1.387 . S
C1834 C1835 1.387 . S
C1834 H1838 0.950 . S
C1834 C1843 1.390 . S
C1835 C1834 1.387 . S
C1835 C1837 1.387 . S
H1836 C1843 0.950 . S
C1837 C1835 1.387 . S
C1837 C1839 1.390 . S
C1837 H1841 0.950 . S
H1838 C1834 0.950 . S
C1839 C1837 1.390 . S
C1839 C1840 1.387 . S
C1839 H1842 0.950 . S
C1840 C1839 1.387 . S
C1840 C1843 1.387 . S
H1841 C1837 0.950 . S
H1842 C1839 0.950 . S
C1843 C1834 1.390 . S
C1843 H1836 0.950 . S
C1843 C1840 1.387 . S
C1844 C1845 1.387 1_565 S
C1844 H1848 0.950 . S
C1844 C1853 1.384 1_565 S
C1845 C1844 1.387 1_545 S
C1845 C1847 1.387 . S
H1846 C1853 0.945 1_565 S
C1847 C1845 1.387 . S
C1847 C1849 1.390 . S
C1847 H1851 0.950 . S
H1848 C1844 0.950 . S
C1849 C1847 1.390 . S
C1849 C1850 1.387 . S
C1849 H1852 0.950 . S
C1850 C1849 1.387 . S
C1850 C1853 1.400 . S
H1851 C1847 0.950 . S
H1852 C1849 0.950 . S
C1853 C1844 1.384 1_545 S
C1853 H1846 0.945 1_545 S
C1853 C1850 1.400 . S
C1854 C1855 1.387 1_545 S
C1854 H1858 0.950 . S
C1854 C1863 1.390 . S
C1855 C1854 1.387 1_565 S
C1855 C1857 1.387 . S
H1856 C1863 0.950 . S
C1857 C1855 1.387 . S
C1857 C1859 1.390 . S
C1857 H1861 0.950 . S
H1858 C1854 0.950 . S
C1859 C1857 1.390 . S
C1859 C1860 1.387 . S
C1859 H1862 0.950 . S
C1860 C1859 1.387 . S
C1860 C1863 1.387 1_565 S
H1861 C1857 0.950 . S
H1862 C1859 0.950 . S
C1863 C1854 1.390 . S
C1863 H1856 0.950 . S
C1863 C1860 1.387 1_545 S
C1864 C1865 1.387 . S
C1864 H1868 0.950 . S
C1864 C1873 1.390 . S
C1865 C1864 1.387 . S
C1865 C1867 1.387 . S
H1866 C1873 0.950 . S
C1867 C1865 1.387 . S
C1867 C1869 1.390 . S
C1867 H1871 0.950 . S
H1868 C1864 0.950 . S
C1869 C1867 1.390 . S
C1869 C1870 1.387 . S
C1869 H1872 0.950 . S
C1870 C1869 1.387 . S
C1870 C1873 1.387 . S
H1871 C1867 0.950 . S
H1872 C1869 0.950 . S
C1873 C1864 1.390 . S
C1873 H1866 0.950 . S
C1873 C1870 1.387 . S
C1874 C1875 1.387 . S
C1874 H1878 0.950 . S
C1874 C1883 1.390 . S
C1875 C1874 1.387 . S
C1875 C1877 1.387 1_556 S
H1876 C1883 0.950 . S
C1877 C1875 1.387 1_554 S
C1877 C1879 1.390 . S
C1877 H1881 0.950 . S
H1878 C1874 0.950 . S
C1879 C1877 1.390 . S
C1879 C1880 1.387 1_554 S
C1879 H1882 0.950 . S
C1880 C1879 1.387 1_556 S
C1880 C1883 1.387 . S
H1881 C1877 0.950 . S
H1882 C1879 0.950 . S
C1883 C1874 1.390 . S
C1883 H1876 0.950 . S
C1883 C1880 1.387 . S
C1884 C1885 1.387 . S
C1884 H1888 0.950 . S
C1884 C1893 1.390 . S
C1885 C1884 1.387 . S
C1885 C1887 1.387 . S
H1886 C1893 0.950 . S
C1887 C1885 1.387 . S
C1887 C1889 1.390 . S
C1887 H1891 0.950 . S
H1888 C1884 0.950 . S
C1889 C1887 1.390 . S
C1889 C1890 1.387 . S
C1889 H1892 0.950 . S
C1890 C1889 1.387 . S
C1890 C1893 1.387 . S
H1891 C1887 0.950 . S
H1892 C1889 0.950 . S
C1893 C1884 1.390 . S
C1893 H1886 0.950 . S
C1893 C1890 1.387 . S
C1894 C1895 1.387 . S
C1894 H1898 0.950 . S
C1894 C1903 1.390 . S
C1895 C1894 1.387 . S
C1895 C1897 1.387 1_554 S
H1896 C1903 0.950 . S
C1897 C1895 1.387 1_556 S
C1897 C1899 1.390 1_556 S
C1897 H1901 0.950 . S
H1898 C1894 0.950 . S
C1899 C1897 1.390 1_554 S
C1899 C1900 1.387 . S
C1899 H1902 0.950 1_554 S
C1900 C1899 1.387 . S
C1900 C1903 1.387 . S
H1901 C1897 0.950 . S
H1902 C1899 0.950 1_556 S
C1903 C1894 1.390 . S
C1903 H1896 0.950 . S
C1903 C1900 1.387 . S
C1904 C1905 1.387 . S
C1904 H1908 0.950 . S
C1904 C1913 1.390 . S
C1905 C1904 1.387 . S
C1905 C1907 1.387 . S
H1906 C1913 0.950 . S
C1907 C1905 1.387 . S
C1907 C1909 1.390 . S
C1907 H1911 0.950 . S
H1908 C1904 0.950 . S
C1909 C1907 1.390 . S
C1909 C1910 1.387 . S
C1909 H1912 0.950 . S
C1910 C1909 1.387 . S
C1910 C1913 1.387 . S
H1911 C1907 0.950 . S
H1912 C1909 0.950 . S
C1913 C1904 1.390 . S
C1913 H1906 0.950 . S
C1913 C1910 1.387 . S
C1914 C1915 1.387 . S
C1914 H1918 0.950 . S
C1914 C1923 1.390 . S
C1915 C1914 1.387 . S
C1915 C1917 1.387 1_655 S
H1916 C1923 0.950 . S
C1917 C1915 1.387 1_455 S
C1917 C1919 1.390 . S
C1917 H1921 0.950 . S
H1918 C1914 0.950 . S
C1919 C1917 1.390 . S
C1919 C1920 1.387 1_455 S
C1919 H1922 0.950 . S
C1920 C1919 1.387 1_655 S
C1920 C1923 1.387 . S
H1921 C1917 0.950 . S
H1922 C1919 0.950 . S
C1923 C1914 1.390 . S
C1923 H1916 0.950 . S
C1923 C1920 1.387 . S
C1924 C1925 1.387 . S
C1924 H1928 0.950 . S
C1924 C1933 1.390 . S
C1925 C1924 1.387 . S
C1925 C1927 1.387 . S
H1926 C1933 0.950 . S
C1927 C1925 1.387 . S
C1927 C1929 1.390 . S
C1927 H1931 0.950 . S
H1928 C1924 0.950 . S
C1929 C1927 1.390 . S
C1929 C1930 1.387 . S
C1929 H1932 0.950 . S
C1930 C1929 1.387 . S
C1930 C1933 1.387 . S
H1931 C1927 0.950 . S
H1932 C1929 0.950 . S
C1933 C1924 1.390 . S
C1933 H1926 0.950 . S
C1933 C1930 1.387 . S
C1934 C1935 1.387 . S
C1934 H1938 0.950 . S
C1934 C1943 1.390 . S
C1935 C1934 1.387 . S
C1935 C1937 1.387 1_455 S
H1936 C1943 0.950 . S
C1937 C1935 1.387 1_655 S
C1937 C1939 1.390 . S
C1937 H1941 0.950 . S
H1938 C1934 0.950 . S
C1939 C1937 1.390 . S
C1939 C1940 1.387 1_655 S
C1939 H1942 0.950 . S
C1940 C1939 1.387 1_455 S
C1940 C1943 1.387 . S
H1941 C1937 0.950 . S
H1942 C1939 0.950 . S
C1943 C1934 1.390 . S
C1943 H1936 0.950 . S
C1943 C1940 1.387 . S
C1230 C1217 1.716 . S
C1225 C15 1.774 . S
C1240 C1184 1.754 . S
C1235 C55 1.613 . S
C1250 C1206 0.968 . S
C1245 C95 1.092 . S
C1260 C1195 1.610 . S
C1255 C135 1.600 . S
C1270 C1118 1.715 . S
C1265 C175 1.775 . S
C1275 C215 1.597 . S
C1280 C1129 1.608 . S
C1290 C1096 1.754 . S
C1285 C255 1.613 . S
C1295 C295 1.094 . S
C1300 C1107 0.974 . S
C1310 C1173 1.716 . S
C1305 C335 1.774 . S
C1315 C375 1.597 . S
C1320 C1151 1.608 . S
C1325 C415 1.613 . S
C1330 C1140 1.755 . S
C1340 C1162 0.973 . S
C1335 C455 1.093 . S
C1350 C1085 1.707 . S
C1345 C495 1.772 . S
C1355 C535 1.601 . S
C1360 C1052 1.749 . S
C1370 C1074 0.968 . S
C1365 C575 1.093 1_545 S
C1375 C615 1.598 . S
C1380 C1063 1.581 . S
C1390 C986 1.706 . S
C1385 C655 1.772 . S
C1400 C997 1.583 . S
C1395 C695 1.601 . S
C1405 C735 1.600 . S
C1410 C964 1.749 . S
C1415 C775 1.095 1_554 S
C1420 C975 0.972 . S
C1425 C815 1.767 . S
C1430 C1041 1.713 . S
C1435 C855 1.598 . S
C1440 C1019 1.581 . S
C1450 C1008 1.749 . S
C1445 C895 1.601 . S
C1455 C935 1.094 1_455 S
C1460 C1030 0.969 . S
C1470 C965 1.615 . S
C1465 C21 1.679 . S
C1480 C976 1.837 . S
C1475 C61 1.941 . S
C1485 C101 0.962 . S
C1490 C987 0.970 . S
C1495 C141 1.074 . S
C1500 C998 1.051 . S
C1510 C1009 1.613 . S
C1505 C181 1.679 . S
C1515 C221 1.075 . S
C1520 C1020 1.051 . S
C1530 C1031 1.840 . S
C1525 C261 1.942 . S
C1540 C1042 0.970 . S
C1535 C301 0.962 . S
C1550 C1053 1.615 . S
C1545 C341 1.679 . S
C1555 C381 1.075 . S
C1560 C1064 1.052 . S
C1565 C421 1.942 . S
C1570 C1075 1.836 . S
C1575 C461 0.964 . S
C1580 C1086 0.970 . S
C1585 C501 1.616 . S
C1590 C1097 1.614 . S
C1595 C541 1.736 . S
C1600 C1108 1.851 . S
C1605 C581 0.968 1_545 S
C1610 C1119 0.970 . S
C1615 C621 1.053 . S
C1620 C1130 1.052 . S
C1625 C661 1.616 . S
C1630 C1141 1.614 . S
C1640 C1152 1.057 . S
C1635 C701 1.048 . S
C1650 C1163 1.853 . S
C1645 C741 1.734 . S
C1660 C1174 0.969 . S
C1655 C781 0.966 1_554 S
C1670 C1185 1.614 . S
C1665 C821 1.616 . S
C1675 C861 1.056 . S
C1680 C1196 1.055 . S
C1685 C901 1.736 . S
C1690 C1207 1.853 . S
C1695 C941 0.968 1_455 S
C1700 C1218 0.970 . S
C1705 C2 1.645 . S
C1710 C1058 1.635 . S
C1720 C1091 1.807 . S
C1715 C42 1.815 . S
C1725 C82 1.568 . S
C1730 C1069 1.506 . S
C1740 C1080 1.692 . S
C1735 C122 1.640 . S
C1745 C162 1.645 . S
C1750 C970 1.634 . S
C1755 C202 1.641 . S
C1760 C981 1.693 . S
C1765 C242 1.819 . S
C1770 C992 1.803 . S
C1775 C282 1.566 . S
C1780 C1003 1.503 . S
C1790 C1014 1.635 . S
C1785 C322 1.646 . S
C1800 C1036 1.692 . S
C1795 C362 1.639 . S
C1805 C402 1.818 . S
C1810 C1047 1.802 . S
C1815 C442 1.568 . S
C1820 C1025 1.506 . S
C1830 C1190 1.638 . S
C1825 C482 1.621 . S
C1840 C1223 1.801 . S
C1835 C522 1.706 . S
C1845 C562 1.615 1_545 S
C1850 C1201 1.496 . S
C1860 C1212 1.702 . S
C1855 C602 1.635 . S
C1865 C642 1.621 . S
C1870 C1102 1.638 . S
C1875 C682 1.631 . S
C1880 C1113 1.702 . S
C1885 C722 1.713 . S
C1890 C1124 1.797 . S
C1900 C1135 1.496 . S
C1895 C762 1.615 1_554 S
C1910 C1146 1.638 . S
C1905 C802 1.620 . S
C1920 C1168 1.702 . S
C1915 C842 1.631 . S
C1925 C882 1.711 . S
C1930 C1179 1.798 . S
C1940 C1157 1.499 . S
C1935 C922 1.616 1_455 S
