# Generated by pormake.
# Topology zzz, (3,6)-cn, num edge types: 1
# Building blocks:
#     Node 0, Type 0, BuildingBlock: MIDCAF_clean_linker_0, # of connection points: 3
#     Node 1, Type 0, BuildingBlock: MIDCAF_clean_linker_0, # of connection points: 3
#     Node 2, Type 0, BuildingBlock: MIDCAF_clean_linker_0, # of connection points: 3
#     Node 3, Type 0, BuildingBlock: MIDCAF_clean_linker_0, # of connection points: 3
#     Node 4, Type 0, BuildingBlock: MIDCAF_clean_linker_0, # of connection points: 3
#     Node 5, Type 0, BuildingBlock: MIDCAF_clean_linker_0, # of connection points: 3
#     Node 6, Type 0, BuildingBlock: MIDCAF_clean_linker_0, # of connection points: 3
#     Node 7, Type 0, BuildingBlock: MIDCAF_clean_linker_0, # of connection points: 3
#     Node 8, Type 1, BuildingBlock: CUWYAW_clean_sbu_0, # of connection points: 6
#     Node 9, Type 1, BuildingBlock: CUWYAW_clean_sbu_0, # of connection points: 6
#     Node 10, Type 1, BuildingBlock: CUWYAW_clean_sbu_0, # of connection points: 6
#     Node 11, Type 1, BuildingBlock: CUWYAW_clean_sbu_0, # of connection points: 6
#     Edge 12, Type (0, 1), BuildingBlock: UVAHIK_clean_linker_0, # of connection points: 2
#     Edge 13, Type (0, 1), BuildingBlock: UVAHIK_clean_linker_0, # of connection points: 2
#     Edge 14, Type (0, 1), BuildingBlock: UVAHIK_clean_linker_0, # of connection points: 2
#     Edge 15, Type (0, 1), BuildingBlock: UVAHIK_clean_linker_0, # of connection points: 2
#     Edge 16, Type (0, 1), BuildingBlock: UVAHIK_clean_linker_0, # of connection points: 2
#     Edge 17, Type (0, 1), BuildingBlock: UVAHIK_clean_linker_0, # of connection points: 2
#     Edge 18, Type (0, 1), BuildingBlock: UVAHIK_clean_linker_0, # of connection points: 2
#     Edge 19, Type (0, 1), BuildingBlock: UVAHIK_clean_linker_0, # of connection points: 2
#     Edge 20, Type (0, 1), BuildingBlock: UVAHIK_clean_linker_0, # of connection points: 2
#     Edge 21, Type (0, 1), BuildingBlock: UVAHIK_clean_linker_0, # of connection points: 2
#     Edge 22, Type (0, 1), BuildingBlock: UVAHIK_clean_linker_0, # of connection points: 2
#     Edge 23, Type (0, 1), BuildingBlock: UVAHIK_clean_linker_0, # of connection points: 2
#     Edge 24, Type (0, 1), BuildingBlock: UVAHIK_clean_linker_0, # of connection points: 2
#     Edge 25, Type (0, 1), BuildingBlock: UVAHIK_clean_linker_0, # of connection points: 2
#     Edge 26, Type (0, 1), BuildingBlock: UVAHIK_clean_linker_0, # of connection points: 2
#     Edge 27, Type (0, 1), BuildingBlock: UVAHIK_clean_linker_0, # of connection points: 2
#     Edge 28, Type (0, 1), BuildingBlock: UVAHIK_clean_linker_0, # of connection points: 2
#     Edge 29, Type (0, 1), BuildingBlock: UVAHIK_clean_linker_0, # of connection points: 2
#     Edge 30, Type (0, 1), BuildingBlock: UVAHIK_clean_linker_0, # of connection points: 2
#     Edge 31, Type (0, 1), BuildingBlock: UVAHIK_clean_linker_0, # of connection points: 2
#     Edge 32, Type (0, 1), BuildingBlock: UVAHIK_clean_linker_0, # of connection points: 2
#     Edge 33, Type (0, 1), BuildingBlock: UVAHIK_clean_linker_0, # of connection points: 2
#     Edge 34, Type (0, 1), BuildingBlock: UVAHIK_clean_linker_0, # of connection points: 2
#     Edge 35, Type (0, 1), BuildingBlock: UVAHIK_clean_linker_0, # of connection points: 2
# Relax obj value: 0.396
# Max RMSD: 0.254
# Mean RMSD: 0.230
data_MOF--net-zzz--node1-CUWYAW_clean_sbu_0--node2-MIDCAF_clean_linker_0--edge1-UVAHIK_clean_linker_0
_symmetry_space_group_name_H-M    P1
_symmetry_Int_Tables_number       1
_symmetry_cell_setting            triclinic
loop_
_symmetry_equiv_pos_as_xyz
'x, y, z'
_cell_length_a     72.786304
_cell_length_b     72.686183
_cell_length_c     23.548106
_cell_angle_alpha  89.902183
_cell_angle_beta   90.039817
_cell_angle_gamma 89.923041
loop_
_atom_site_label
_atom_site_type_symbol
_atom_site_fract_x
_atom_site_fract_y
_atom_site_fract_z
_atom_type_partial_charge
C0 C 0.78806 0.5426 0.39208 0.0
C1 C 0.78927 0.52803 0.4312 0.0
C2 C 0.77488 0.51508 0.43308 0.0
C3 C 0.76017 0.51613 0.39446 0.0
H4 H 0.6917 0.54397 0.29651 0.0
H5 H 0.65988 0.5431 0.26214 0.0
H6 H 0.67191 0.49253 0.17285 0.0
H7 H 0.70299 0.49323 0.20891 0.0
H8 H 0.73148 0.51695 0.09919 0.0
H9 H 0.74761 0.51147 0.01024 0.0
H10 H 0.79881 0.52669 0.09014 0.0
H11 H 0.78278 0.53241 0.1788 0.0
H12 H 0.77376 0.55415 0.32094 0.0
H13 H 0.79895 0.5527 0.38898 0.0
H14 H 0.77535 0.50375 0.46297 0.0
H15 H 0.74988 0.50538 0.39452 0.0
N16 N 0.72945 0.52487 0.30549 0.0
N17 N 0.72832 0.52263 0.20582 0.0
N18 N 0.75621 0.52881 0.25042 0.0
C19 C 0.71964 0.52221 0.25666 0.0
C20 C 0.74652 0.52596 0.20213 0.0
C21 C 0.74791 0.52826 0.30206 0.0
C22 C 0.6997 0.5186 0.25565 0.0
C23 C 0.68713 0.53224 0.27199 0.0
C24 C 0.66902 0.53188 0.25124 0.0
C25 C 0.66325 0.51793 0.21356 0.0
C26 C 0.67553 0.50343 0.20201 0.0
C27 C 0.69347 0.50378 0.2228 0.0
C28 C 0.75588 0.5249 0.14648 0.0
C29 C 0.74614 0.51942 0.09768 0.0
C30 C 0.75535 0.51621 0.04667 0.0
C31 C 0.77445 0.51856 0.0433 0.0
C32 C 0.78403 0.52496 0.0912 0.0
C33 C 0.77485 0.5281 0.14224 0.0
C34 C 0.7598 0.52997 0.35277 0.0
C35 C 0.77361 0.54346 0.35307 0.0
C36 C 0.97007 0.79169 0.35787 0.0
C37 C 0.98212 0.79229 0.4045 0.0
C38 C 0.99395 0.77724 0.414 0.0
C39 C 0.99439 0.76239 0.37592 0.0
H40 H 0.01474 0.69531 0.27149 0.0
H41 H 0.0165 0.66379 0.23541 0.0
H42 H 0.96364 0.67091 0.15452 0.0
H43 H 0.96187 0.70207 0.19197 0.0
H44 H 0.01986 0.73215 0.1041 0.0
H45 H 0.03446 0.74754 0.02336 0.0
H46 H 1.00689 0.79813 0.06769 0.0
H47 H 0.99248 0.78295 0.14845 0.0
H48 H 0.96226 0.77762 0.28166 0.0
H49 H 0.96094 0.80311 0.34894 0.0
H50 H 1.00335 0.77729 0.44969 0.0
H51 H 1.00437 0.7515 0.38227 0.0
N52 N 0.98587 0.73151 0.28267 0.0
N53 N 0.99615 0.72921 0.18805 0.0
N54 N 0.99306 0.75812 0.22999 0.0
C55 C 0.99014 0.72104 0.23637 0.0
C56 C 0.99769 0.74771 0.18455 0.0
C57 C 0.98727 0.75023 0.27907 0.0
C58 C 0.98802 0.70092 0.23532 0.0
C59 C 1.00311 0.6897 0.24859 0.0
C60 C 1.00423 0.67178 0.22698 0.0
C61 C 0.99037 0.66486 0.19104 0.0
C62 C 0.97452 0.67561 0.18232 0.0
C63 C 0.97341 0.69348 0.20404 0.0
C64 C 1.00511 0.7564 0.13278 0.0
C65 C 0.01672 0.74649 0.09608 0.0
C66 C 0.02511 0.75526 0.05004 0.0
C67 C 0.02172 0.77395 0.03932 0.0
C68 C 0.00955 0.78363 0.07465 0.0
C69 C 1.00143 0.77499 0.12114 0.0
C70 C 0.9832 0.7625 0.32734 0.0
C71 C 0.97077 0.77707 0.3194 0.0
C72 C 0.71585 0.97429 0.36163 0.0
C73 C 0.71739 0.98598 0.40888 0.0
C74 C 0.73395 0.99578 0.41631 0.0
C75 C 0.74828 0.99435 0.37633 0.0
H76 H 0.81806 0.97178 0.2845 0.0
H77 H 0.8498 0.97559 0.25198 0.0
H78 H 0.83343 0.02406 0.15782 0.0
H79 H 0.80225 0.02044 0.19199 0.0
H80 H 0.78153 0.98353 0.07835 0.0
H81 H 0.76742 0.98236 0.9845 0.0
H82 H 0.71566 0.96722 0.06124 0.0
H83 H 0.72972 0.96794 0.15426 0.0
H84 H 0.72794 0.96399 0.28584 0.0
H85 H 0.70332 0.96674 0.35341 0.0
H86 H 0.73575 1.00477 0.45249 0.0
H87 H 0.76057 1.00254 0.38208 0.0
N88 N 0.77746 0.98906 0.28611 0.0
N89 N 0.78181 0.98527 0.18761 0.0
N90 N 0.75331 0.97883 0.22766 0.0
C91 C 0.78857 0.98982 0.23935 0.0
C92 C 0.76425 0.97966 0.18134 0.0
C93 C 0.75961 0.98344 0.28007 0.0
C94 C 0.80782 0.99596 0.2413 0.0
C95 C 0.82159 0.98379 0.25952 0.0
C96 C 0.83968 0.9858 0.23979 0.0
C97 C 0.84423 0.99992 0.20107 0.0
C98 C 0.8307 0.0131 0.1878 0.0
C99 C 0.81273 0.01111 0.20763 0.0
C100 C 0.75666 0.97616 0.12405 0.0
C101 C 0.76722 0.97957 0.0751 0.0
C102 C 0.75916 0.97895 0.02125 0.0
C103 C 0.7404 0.97484 0.01529 0.0
C104 C 0.73021 0.97021 0.06399 0.0
C105 C 0.73824 0.97082 0.11767 0.0
C106 C 0.74626 0.98318 0.32801 0.0
C107 C 0.73003 0.97285 0.32219 0.0
C108 C 0.51323 0.74042 0.03883 0.0
C109 C 0.5071 0.75134 0.99328 0.0
C110 C 0.50334 0.77003 1.00263 0.0
C111 C 0.50535 0.77756 0.05686 0.0
H112 H 0.48115 0.82007 0.20883 0.0
H113 H 0.48059 0.85167 0.1755 0.0
H114 H 0.53897 0.85598 0.20717 0.0
H115 H 0.53939 0.82382 0.23828 0.0
H116 H 0.5248 0.77162 0.36975 0.0
H117 H 0.52444 0.74727 0.44278 0.0
H118 H 0.493 0.71263 0.33014 0.0
H119 H 0.49335 0.73655 0.25843 0.0
H120 H 0.51936 0.73896 0.12749 0.0
H121 H 0.51597 0.72589 0.03301 0.0
H122 H 0.49859 0.77873 0.96819 0.0
H123 H 0.50202 0.79195 0.06298 0.0
N124 N 0.51154 0.79237 0.16952 0.0
N125 N 0.511 0.78801 0.26872 0.0
N126 N 0.51103 0.76263 0.2067 0.0
C127 C 0.51144 0.79949 0.22265 0.0
C128 C 0.51075 0.76937 0.26051 0.0
C129 C 0.5115 0.77399 0.16111 0.0
C130 C 0.51023 0.81965 0.22712 0.0
C131 C 0.49367 0.82809 0.21127 0.0
C132 C 0.49343 0.84627 0.19176 0.0
C133 C 0.50981 0.85649 0.18753 0.0
C134 C 0.52614 0.84849 0.20854 0.0
C135 C 0.52636 0.83018 0.22765 0.0
C136 C 0.50919 0.75601 0.30819 0.0
C137 C 0.5176 0.75889 0.36121 0.0
C138 C 0.5175 0.74491 0.40276 0.0
C139 C 0.50865 0.72799 0.39238 0.0
C140 C 0.49974 0.72551 0.34005 0.0
C141 C 0.50008 0.73924 0.29862 0.0
C142 C 0.51085 0.76645 0.10287 0.0
C143 C 0.515 0.74786 0.09308 0.0
C144 C 0.23408 0.5165 0.97643 0.0
C145 C 0.23295 0.50166 0.93839 0.0
C146 C 0.24695 0.4882 0.93995 0.0
C147 C 0.26113 0.48912 0.98058 0.0
H148 H 0.32977 0.51451 0.0712 0.0
H149 H 0.36158 0.51369 0.1057 0.0
H150 H 0.34725 0.46931 0.21978 0.0
H151 H 0.31597 0.47002 0.18442 0.0
H152 H 0.29048 0.51724 0.27142 0.0
H153 H 0.27498 0.52583 0.35992 0.0
H154 H 0.2225 0.51419 0.28251 0.0
H155 H 0.23777 0.50582 0.19439 0.0
H156 H 0.24787 0.5285 0.04731 0.0
H157 H 0.22353 0.52702 0.97738 0.0
H158 H 0.24665 0.47667 0.91092 0.0
H159 H 0.27114 0.4781 0.98288 0.0
N160 N 0.29118 0.49756 0.07156 0.0
N161 N 0.29231 0.50122 0.17101 0.0
N162 N 0.26493 0.50679 0.12257 0.0
C163 C 0.3008 0.49691 0.12151 0.0
C164 C 0.27442 0.50616 0.17191 0.0
C165 C 0.27303 0.50255 0.07238 0.0
C166 C 0.3205 0.49222 0.12485 0.0
C167 C 0.33376 0.50401 0.10152 0.0
C168 C 0.35189 0.50372 0.12212 0.0
C169 C 0.35702 0.49164 0.16638 0.0
C170 C 0.34404 0.47871 0.18547 0.0
C171 C 0.32602 0.47906 0.1651 0.0
C172 C 0.26532 0.51088 0.22595 0.0
C173 C 0.27564 0.51642 0.2735 0.0
C174 C 0.26683 0.52138 0.32398 0.0
C175 C 0.24762 0.52051 0.32794 0.0
C176 C 0.23737 0.51474 0.2807 0.0
C177 C 0.24611 0.51009 0.23014 0.0
C178 C 0.26142 0.50341 0.02066 0.0
C179 C 0.24805 0.51733 0.0169 0.0
C180 C 0.05174 0.23074 0.96174 0.0
C181 C 0.03502 0.23057 0.93192 0.0
C182 C 0.02266 0.24529 0.93993 0.0
C183 C 0.02669 0.25947 0.97859 0.0
H184 H 0.01157 0.31724 0.08708 0.0
H185 H 1.00298 0.34772 0.12324 0.0
H186 H 0.05954 0.35728 0.17101 0.0
H187 H 0.06789 0.32735 0.13397 0.0
H188 H 0.05359 0.28878 0.26114 0.0
H189 H 0.05729 0.27236 0.35079 0.0
H190 H 0.07551 0.22416 0.25988 0.0
H191 H 0.07174 0.24044 0.17007 0.0
H192 H 0.0683 0.24387 0.02467 0.0
H193 H 0.0615 0.21957 0.95731 0.0
H194 H 0.0097 0.24561 0.91733 0.0
H195 H 0.01664 0.27022 0.98572 0.0
N196 N 0.0413 0.28958 0.05853 0.0
N197 N 0.0521 0.29252 0.15239 0.0
N198 N 0.0535 0.26402 0.10743 0.0
C199 C 0.04475 0.30024 0.10509 0.0
C200 C 0.05639 0.27444 0.15418 0.0
C201 C 0.04608 0.27137 0.05951 0.0
C202 C 0.04039 0.32004 0.10761 0.0
C203 C 0.02221 0.3263 0.1029 0.0
C204 C 0.01729 0.34363 0.1245 0.0
C205 C 0.0305 0.35494 0.15103 0.0
C206 C 0.04896 0.3492 0.1506 0.0
C207 C 0.0538 0.33197 0.12933 0.0
C208 C 0.06207 0.26579 0.20833 0.0
C209 C 0.05882 0.27483 0.2602 0.0
C210 C 0.06091 0.26546 0.31161 0.0
C211 C 0.06658 0.247 0.31216 0.0
C212 C 0.07126 0.23845 0.26069 0.0
C213 C 0.06894 0.24772 0.20921 0.0
C214 C 0.04298 0.25894 0.01058 0.0
C215 C 0.05561 0.24465 1.00068 0.0
C216 C 0.2738 1.00372 0.94978 0.0
C217 C 0.27983 0.02195 0.94298 0.0
C218 C 0.2707 0.03598 0.97314 0.0
C219 C 0.25657 0.0317 0.01158 0.0
H220 H 0.18501 0.01905 0.0786 0.0
H221 H 0.15492 0.02674 0.11984 0.0
H222 H 0.18038 0.0327 0.28454 0.0
H223 H 0.21005 0.02497 0.24356 0.0
H224 H 0.23175 0.98279 0.26649 0.0
H225 H 0.24884 0.96281 0.33111 0.0
H226 H 0.28296 0.9448 0.19186 0.0
H227 H 0.2659 0.96456 0.12722 0.0
H228 H 0.25645 0.98513 0.99544 0.0
H229 H 0.28059 0.99254 0.92779 0.0
H230 H 0.27494 0.05018 0.96852 0.0
H231 H 0.25051 0.04262 0.03666 0.0
N232 N 0.22528 0.01719 0.08832 0.0
N233 N 0.22399 0.99879 0.17071 0.0
N234 N 0.24743 0.99416 0.10473 0.0
C235 C 0.2168 0.01242 0.13797 0.0
C236 C 0.23921 0.98951 0.15425 0.0
C237 C 0.24074 1.00795 0.07172 0.0
C238 C 0.19981 0.02148 0.15794 0.0
C239 C 0.18417 0.02264 0.12315 0.0
C240 C 0.16696 0.02684 0.1469 0.0
C241 C 0.16522 0.03025 0.20558 0.0
C242 C 0.18118 0.03037 0.23919 0.0
C243 C 0.19821 0.02589 0.21575 0.0
C244 C 0.24765 0.9755 0.1918 0.0
C245 C 0.24265 0.97429 0.24939 0.0
C246 C 0.25245 0.96288 0.28649 0.0
C247 C 0.26728 0.95232 0.26661 0.0
C248 C 0.27148 0.95263 0.20839 0.0
C249 C 0.26181 0.96413 0.17142 0.0
C250 C 0.25156 0.0133 0.02114 0.0
C251 C 0.25995 0.99945 0.98863 0.0
C252 C 0.4552 0.27838 0.21589 0.0
C253 C 0.46077 0.27106 0.26846 0.0
C254 C 0.46618 0.25252 0.27131 0.0
C255 C 0.4675 0.24201 0.22184 0.0
H256 H 0.51328 0.20303 0.11788 0.0
H257 H 0.51797 0.17306 0.16192 0.0
H258 H 0.46786 0.15346 0.08443 0.0
H259 H 0.46314 0.18379 0.04129 0.0
H260 H 0.50824 0.24779 0.95459 0.0
H261 H 0.51401 0.27413 0.89154 0.0
H262 H 0.45758 0.29141 0.91155 0.0
H263 H 0.45199 0.26531 0.97395 0.0
H264 H 0.45314 0.27437 0.12637 0.0
H265 H 0.45109 0.29265 0.21198 0.0
H266 H 0.47032 0.24644 0.31136 0.0
H267 H 0.47274 0.22809 0.22511 0.0
N268 N 0.47479 0.22282 0.11682 0.0
N269 N 0.48343 0.22459 0.02049 0.0
N270 N 0.47009 0.25005 0.06643 0.0
C271 C 0.4818 0.21473 0.06972 0.0
C272 C 0.4773 0.24238 0.01891 0.0
C273 C 0.46887 0.24045 0.11557 0.0
C274 C 0.48806 0.19556 0.07539 0.0
C275 C 0.5038 0.19201 0.108 0.0
C276 C 0.50639 0.17481 0.13353 0.0
C277 C 0.49315 0.16083 0.1275 0.0
C278 C 0.47819 0.16397 0.09071 0.0
C279 C 0.47563 0.18122 0.06509 0.0
C280 C 0.47965 0.25447 0.96882 0.0
C281 C 0.49696 0.25685 0.94357 0.0
C282 C 0.50029 0.27207 0.90816 0.0
C283 C 0.4863 0.28502 0.89685 0.0
C284 C 0.46865 0.2817 0.91876 0.0
C285 C 0.46542 0.26672 0.95457 0.0
C286 C 0.46354 0.24992 0.16862 0.0
C287 C 0.45656 0.26792 0.16653 0.0
C288 C 0.97221 0.03796 0.55597 0.0
Eu289 Eu 0.98596 0.01801 0.63634 0.0
C290 C 0.97779 0.05684 0.53983 0.0
C291 C 0.96986 0.07213 0.56713 0.0
C292 C 0.97817 0.08941 0.56389 0.0
C293 C 0.99454 0.09172 0.53321 0.0
C294 C 1.00154 0.07684 0.5019 0.0
C295 C 0.9932 0.0596 0.50491 0.0
C296 C 0.96944 1.00685 0.73363 0.0
C297 C 0.00753 0.04716 0.71918 0.0
C298 C 0.02467 0.9882 0.82595 0.0
Eu299 Eu 0.01217 1.00361 0.7347 0.0
C300 C 0.03562 0.9714 0.83314 0.0
C301 C 0.04594 0.96845 0.8825 0.0
C302 C 0.05578 0.95204 0.88951 0.0
C303 C 0.05529 0.9383 0.84734 0.0
C304 C 0.04537 0.94172 0.79712 0.0
C305 C 0.03577 0.95814 0.78996 0.0
C306 C 0.03142 0.00817 0.63582 0.0
C307 C 0.99418 0.97488 0.64194 0.0
O308 O 0.98428 0.02489 0.54637 0.0
O309 O 0.96447 0.03639 0.606 0.0
O310 O 0.96243 1.00443 0.68336 0.0
O311 O 0.98429 0.01571 0.73024 0.0
O312 O 1.00021 0.04376 0.66876 0.0
O313 O 0.01133 0.03386 0.75586 0.0
O314 O 0.00789 0.98559 0.80705 0.0
O315 O 0.03312 1.00186 0.8006 0.0
O316 O 0.03875 1.0021 0.68241 0.0
O317 O 0.01474 0.01104 0.64534 0.0
O318 O 1.00073 0.97756 0.69396 0.0
O319 O 0.9893 0.98864 0.60813 0.0
H320 H 0.95789 0.07053 0.59397 0.0
H321 H 0.97241 0.10067 0.58817 0.0
H322 H 0.01384 0.07837 0.47646 0.0
H323 H 0.99948 0.04823 0.48243 0.0
H324 H 0.04618 0.9787 0.91585 0.0
H325 H 0.06349 0.95 0.92834 0.0
H326 H 0.04435 0.93142 0.7641 0.0
H327 H 0.02807 0.96028 0.75113 0.0
C328 C 0.48385 0.98093 0.54292 0.0
Eu329 Eu 0.49264 1.00088 0.63014 0.0
C330 C 0.46802 0.96931 0.52955 0.0
C331 C 0.46775 0.95899 0.47945 0.0
C332 C 0.45217 0.94878 0.46507 0.0
C333 C 0.43662 0.9488 0.50062 0.0
C334 C 0.43725 0.95874 0.5518 0.0
C335 C 0.45283 0.9689 0.56614 0.0
C336 C 0.4949 0.98806 0.73777 0.0
C337 C 0.46193 0.0219 0.70558 0.0
C338 C 0.52051 0.04153 0.81534 0.0
Eu339 Eu 0.50564 0.02923 0.72347 0.0
C340 C 0.53911 0.03693 0.83495 0.0
C341 C 0.55114 0.05097 0.85173 0.0
C342 C 0.57009 0.04772 0.85361 0.0
C343 C 0.57719 0.03044 0.8381 0.0
C344 C 0.56501 0.01611 0.8251 0.0
C345 C 0.54617 0.01933 0.82352 0.0
C346 C 0.49859 0.04712 0.62337 0.0
C347 C 0.5363 0.01086 0.64132 0.0
O348 O 0.48034 0.99859 0.54635 0.0
O349 O 0.49442 0.97499 0.58412 0.0
O350 O 0.48208 0.98339 0.70238 0.0
O351 O 0.50628 0.99877 0.71435 0.0
O352 O 0.46551 0.01341 0.65693 0.0
O353 O 0.47506 0.0276 0.74052 0.0
O354 O 0.50844 0.0281 0.81574 0.0
O355 O 0.52035 0.05088 0.76782 0.0
O356 O 0.50341 0.05544 0.66974 0.0
O357 O 0.49711 0.03028 0.63424 0.0
O358 O 0.53295 0.01989 0.68883 0.0
O359 O 0.52305 1.00362 0.60987 0.0
H360 H 0.47944 0.95909 0.451 0.0
H361 H 0.45218 0.9411 0.4257 0.0
H362 H 0.42544 0.95929 0.5797 0.0
H363 H 0.45287 0.97681 0.60511 0.0
H364 H 0.54601 0.06473 0.85955 0.0
H365 H 0.57922 0.059 0.86382 0.0
H366 H 0.57009 1.00257 0.814 0.0
H367 H 0.53725 0.00835 0.8094 0.0
C368 C 0.5407 0.48878 0.55674 0.0
Eu369 Eu 0.52511 0.50598 0.64002 0.0
C370 C 0.53578 0.4708 0.53318 0.0
C371 C 0.54925 0.45918 0.51029 0.0
C372 C 0.54481 0.44106 0.49563 0.0
C373 C 0.52694 0.43437 0.50469 0.0
C374 C 0.51341 0.44622 0.52615 0.0
C375 C 0.51778 0.46427 0.54014 0.0
C376 C 0.54033 0.51685 0.73948 0.0
C377 C 0.50455 0.4744 0.71912 0.0
C378 C 0.48511 0.5334 0.82716 0.0
Eu379 Eu 0.49737 0.51724 0.73755 0.0
C380 C 0.47701 0.55189 0.82943 0.0
C381 C 0.46679 0.55849 0.78287 0.0
C382 C 0.46433 0.57737 0.77485 0.0
C383 C 0.47226 0.58988 0.81285 0.0
C384 C 0.48112 0.58323 0.86185 0.0
C385 C 0.48344 0.56435 0.87014 0.0
C386 C 0.47897 0.51278 0.63708 0.0
C387 C 0.51384 0.54844 0.64902 0.0
O388 O 0.52857 0.5019 0.54907 0.0
O389 O 0.54696 0.48818 0.60883 0.0
O390 O 0.54752 0.52028 0.69004 0.0
O391 O 0.52607 0.50716 0.73395 0.0
O392 O 0.51252 0.47891 0.67033 0.0
O393 O 0.49901 0.48693 0.75615 0.0
O394 O 0.50252 0.53352 0.81297 0.0
O395 O 0.47563 0.5207 0.80041 0.0
O396 O 0.47097 0.51701 0.68454 0.0
O397 O 0.49584 0.51103 0.6468 0.0
O398 O 0.50646 0.54455 0.69911 0.0
O399 O 0.52056 0.53556 0.61516 0.0
H400 H 0.56326 0.46395 0.50534 0.0
H401 H 0.55544 0.43213 0.47899 0.0
H402 H 0.49947 0.44147 0.53264 0.0
H403 H 0.50718 0.47295 0.55813 0.0
H404 H 0.46198 0.5492 0.75019 0.0
H405 H 0.45752 0.58219 0.73669 0.0
H406 H 0.48717 0.59267 0.89208 0.0
H407 H 0.49159 0.55957 0.90579 0.0
C408 C 0.02945 0.53695 0.54651 0.0
Eu409 Eu 0.018 0.51877 0.63428 0.0
C410 C 0.04867 0.54178 0.5342 0.0
C411 C 0.05348 0.55997 0.52067 0.0
C412 C 0.07197 0.56536 0.52103 0.0
C413 C 0.08572 0.55267 0.53603 0.0
C414 C 0.08092 0.53434 0.54702 0.0
C415 C 0.06261 0.52893 0.54584 0.0
C416 C 0.01557 0.53482 0.73812 0.0
C417 C 0.04907 0.50007 0.70979 0.0
C418 C 0.99348 0.47711 0.81438 0.0
Eu419 Eu 1.00503 0.49413 0.72463 0.0
C420 C 0.97414 0.47513 0.8312 0.0
C421 C 0.96692 0.45772 0.8442 0.0
C422 C 0.94786 0.45512 0.84667 0.0
C423 C 0.93594 0.46987 0.83516 0.0
C424 C 0.9432 0.48742 0.8253 0.0
C425 C 0.96209 0.49006 0.82347 0.0
C426 C 1.00696 0.47801 0.6209 0.0
C427 C 0.97412 0.5126 0.64844 0.0
O428 O 0.02541 0.51941 0.54457 0.0
O429 O 0.02266 0.54499 0.59143 0.0
O430 O 0.0292 0.5371 0.70359 0.0
O431 O 1.00372 0.5243 0.71654 0.0
O432 O 0.04545 0.50703 0.65932 0.0
O433 O 0.03564 0.49565 0.74505 0.0
O434 O 1.00015 0.49383 0.81599 0.0
O435 O 0.99778 0.46853 0.76753 0.0
O436 O 0.9937 0.47548 0.65665 0.0
O437 O 0.01899 0.48851 0.64178 0.0
O438 O 0.97776 0.50646 0.69993 0.0
O439 O 0.98757 0.51632 0.6125 0.0
H440 H 0.04293 0.57015 0.5123 0.0
H441 H 0.07545 0.57955 0.51193 0.0
H442 H 0.09136 0.52423 0.55744 0.0
H443 H 0.05937 0.5148 0.55652 0.0
H444 H 0.97597 0.44599 0.84952 0.0
H445 H 0.94246 0.44149 0.85483 0.0
H446 H 0.93421 0.49906 0.81752 0.0
H447 H 0.96719 0.50363 0.81295 0.0
C448 C 0.14389 0.04402 0.27828 0.0
C449 C 0.14688 0.03156 0.23354 0.0
C450 C 0.12799 0.04294 0.31156 0.0
C451 C 0.09523 0.00816 0.36007 0.0
H452 H 0.07072 0.04954 0.43122 0.0
C453 C 0.05849 1.00215 0.57446 0.0
C454 C 0.04142 0.01079 0.5818 0.0
C455 C 0.06869 1.00491 0.525 0.0
C456 C 0.07726 0.03784 0.41116 0.0
H457 H 0.13492 0.00885 0.18685 0.0
H458 H 0.10711 1.00709 0.2445 0.0
H459 H 0.0929 0.05497 0.35475 0.0
H460 H 0.02166 0.02931 0.54363 0.0
H461 H 0.03971 0.03444 0.45662 0.0
H462 H 0.08005 0.99108 0.41739 0.0
C463 C 0.11717 0.01759 0.25419 0.0
C464 C 0.09007 0.04095 0.36771 0.0
C465 C 0.13303 0.01874 0.2207 0.0
C466 C 0.03468 0.02232 0.53857 0.0
C467 C 0.04507 0.02534 0.48913 0.0
C468 C 0.08259 1.00508 0.4037 0.0
C469 C 0.11472 0.02931 0.30112 0.0
C470 C 0.09947 0.02615 0.34234 0.0
C471 C 0.06219 0.0166 0.48184 0.0
C472 C 0.07374 0.01989 0.43062 0.0
H473 H 0.15422 0.05416 0.28898 0.0
H474 H 0.12663 0.05213 0.34745 0.0
H475 H 0.10231 0.99643 0.34201 0.0
H476 H 0.06406 0.99325 0.6072 0.0
H477 H 0.08193 0.99819 0.52116 0.0
C478 C 0.47758 0.13799 0.19188 0.0
C479 C 0.49373 0.14433 0.16542 0.0
C480 C 0.47834 0.12453 0.23444 0.0
C481 C 0.48292 0.09122 0.31291 0.0
H482 H 0.52111 0.09982 0.42454 0.0
C483 C 0.49334 0.0463 0.5174 0.0
C484 C 0.49678 0.05626 0.56736 0.0
C485 C 0.49294 0.05528 0.46451 0.0
C486 C 0.51035 0.09722 0.39379 0.0
H487 H 0.52323 0.14041 0.16061 0.0
H488 H 0.52455 0.11697 0.2349 0.0
H489 H 0.52061 0.11787 0.33744 0.0
H490 H 0.5022 0.08342 0.60128 0.0
H491 H 0.50151 0.09898 0.50975 0.0
H492 H 0.4724 0.07088 0.37057 0.0
C493 C 0.51131 0.12267 0.22331 0.0
C494 C 0.51019 0.10743 0.34344 0.0
C495 C 0.51055 0.1361 0.18063 0.0
C496 C 0.49955 0.07534 0.56354 0.0
C497 C 0.49928 0.08425 0.51098 0.0
C498 C 0.48315 0.08089 0.36331 0.0
C499 C 0.49527 0.11708 0.25186 0.0
C500 C 0.49632 0.10479 0.30267 0.0
C501 C 0.4962 0.07434 0.46068 0.0
C502 C 0.49667 0.08404 0.40485 0.0
H503 H 0.4644 0.14416 0.1821 0.0
H504 H 0.46573 0.12073 0.25582 0.0
H505 H 0.47212 0.08873 0.28222 0.0
H506 H 0.49132 0.03158 0.51904 0.0
H507 H 0.49059 0.04724 0.42651 0.0
C508 C 0.38114 0.5118 0.21111 0.0
C509 C 0.37464 0.49405 0.19838 0.0
C510 C 0.39546 0.51433 0.25006 0.0
C511 C 0.43152 0.49001 0.33598 0.0
H512 H 0.42163 0.52932 0.44274 0.0
C513 C 0.47857 0.50627 0.53164 0.0
C514 C 0.46925 0.51043 0.58225 0.0
C515 C 0.46887 0.50456 0.48026 0.0
C516 C 0.42461 0.51823 0.41347 0.0
H517 H 0.37936 0.46497 0.21347 0.0
H518 H 0.40388 0.4694 0.28248 0.0
H519 H 0.40214 0.52574 0.35994 0.0
H520 H 0.44247 0.51579 0.6189 0.0
H521 H 0.42566 0.5127 0.53032 0.0
H522 H 0.45362 0.48213 0.39145 0.0
C523 C 0.39799 0.48141 0.26215 0.0
C524 C 0.41355 0.51633 0.36531 0.0
C525 C 0.38374 0.47886 0.22289 0.0
C526 C 0.45009 0.51268 0.58059 0.0
C527 C 0.44045 0.51103 0.5296 0.0
C528 C 0.44263 0.49193 0.3844 0.0
C529 C 0.40362 0.49921 0.27777 0.0
C530 C 0.41665 0.50205 0.32618 0.0
C531 C 0.44968 0.50712 0.47857 0.0
C532 C 0.43908 0.50587 0.42434 0.0
H533 H 0.37449 0.52388 0.19361 0.0
H534 H 0.39968 0.52824 0.25994 0.0
H535 H 0.43447 0.47897 0.30655 0.0
H536 H 0.49331 0.50452 0.53164 0.0
H537 H 0.47643 0.50161 0.44174 0.0
C538 C 0.03675 0.38651 0.19151 0.0
C539 C 0.02504 0.37119 0.18613 0.0
C540 C 0.03355 0.3999 0.2331 0.0
C541 C 0.01033 0.40425 0.37233 0.0
H542 H 0.02334 0.45579 0.35892 0.0
C543 C 0.99462 0.4555 0.55105 0.0
C544 C 0.0086 0.46777 0.56684 0.0
C545 C 0.99613 0.44504 0.5016 0.0
C546 C 0.01978 0.4414 0.36337 0.0
H547 H 0.99999 0.35881 0.21825 0.0
H548 H 0.99398 0.38247 0.28853 0.0
H549 H 0.02578 0.43567 0.27599 0.0
H550 H 0.03492 0.47915 0.54231 0.0
H551 H 0.03761 0.46075 0.45527 0.0
H552 H 1.00432 0.40991 0.45942 0.0
C553 C 1.00602 0.38384 0.26186 0.0
C554 C 0.02117 0.42985 0.31585 0.0
C555 C 0.00929 0.37039 0.22064 0.0
C556 C 0.02396 0.46974 0.53123 0.0
C557 C 0.02544 0.45928 0.48133 0.0
C558 C 0.00885 0.41577 0.41951 0.0
C559 C 0.01846 0.39841 0.27015 0.0
C560 C 0.01643 0.4111 0.31968 0.0
C561 C 0.01164 0.4466 0.46644 0.0
C562 C 0.01351 0.43449 0.41571 0.0
H563 H 0.04884 0.3878 0.16505 0.0
H564 H 0.04345 0.41088 0.23798 0.0
H565 H 1.00704 0.38982 0.37762 0.0
H566 H 0.98252 0.45379 0.57731 0.0
H567 H 0.9851 0.43566 0.49094 0.0
C568 C 0.86919 0.98265 0.14939 0.0
C569 C 0.86181 0.9995 0.16805 0.0
C570 C 0.88355 0.9822 0.10991 0.0
C571 C 0.91794 0.01163 0.03318 0.0
H572 H 0.91259 0.97424 0.91722 0.0
C573 C 0.96725 1.00792 0.83998 0.0
C574 C 0.95931 1.00362 0.78725 0.0
C575 C 0.95714 1.006 0.89028 0.0
C576 C 0.91425 0.98488 0.94892 0.0
H577 H 0.865 0.02913 0.16267 0.0
H578 H 0.88938 0.02837 0.09234 0.0
H579 H 0.89223 0.9741 0.99865 0.0
H580 H 0.93466 0.99373 0.74588 0.0
H581 H 0.91688 0.99084 0.83288 0.0
H582 H 0.93929 0.023 0.98154 0.0
C583 C 0.88424 0.01543 0.10857 0.0
C584 C 0.90273 0.98461 0.99642 0.0
C585 C 0.87002 0.01588 0.1486 0.0
C586 C 0.94119 0.99707 0.7859 0.0
C587 C 0.93103 0.9953 0.83602 0.0
C588 C 0.92937 0.01199 0.98531 0.0
C589 C 0.89085 0.99857 0.08732 0.0
C590 C 0.90423 0.9981 0.03904 0.0
C591 C 0.93879 0.99987 0.88899 0.0
C592 C 0.92753 0.99876 0.94206 0.0
H593 H 0.86324 0.9697 0.16276 0.0
H594 H 0.88855 0.96893 0.09585 0.0
H595 H 0.91975 0.0221 0.06531 0.0
H596 H 0.98122 0.01299 0.84233 0.0
H597 H 0.96372 0.00938 0.93017 0.0
C598 C 0.49467 0.88596 0.15405 0.0
C599 C 0.51009 0.87422 0.15483 0.0
C600 C 0.4937 0.90078 0.11607 0.0
C601 C 0.52027 0.93153 0.0224 0.0
H602 H 0.47684 0.93054 0.92725 0.0
C603 C 0.51486 0.97375 0.81282 0.0
C604 C 0.49738 0.97899 0.79345 0.0
C605 C 0.51674 0.96293 0.86192 0.0
C606 C 0.4889 0.93144 0.95399 0.0
H607 H 0.53702 0.86977 0.11739 0.0
H608 H 0.53552 0.89599 0.05305 0.0
H609 H 0.47963 0.90901 0.00561 0.0
H610 H 0.46827 0.97793 0.81127 0.0
H611 H 0.47146 0.9601 0.89832 0.0
H612 H 0.52946 0.95416 0.9715 0.0
C613 C 0.52413 0.89355 0.08169 0.0
C614 C 0.49051 0.91894 0.99893 0.0
C615 C 0.52501 0.87854 0.11902 0.0
C616 C 0.4819 0.97395 0.82523 0.0
C617 C 0.48377 0.96352 0.87486 0.0
C618 C 0.51852 0.94432 0.97796 0.0
C619 C 0.50825 0.90449 0.07858 0.0
C620 C 0.50626 0.91872 0.03337 0.0
C621 C 0.50117 0.95734 0.8932 0.0
C622 C 0.50285 0.94438 0.94266 0.0
H623 H 0.48307 0.88343 0.18171 0.0
H624 H 0.48137 0.90916 0.11521 0.0
H625 H 0.53254 0.93172 0.04843 0.0
H626 H 0.52698 0.97716 0.78838 0.0
H627 H 0.53036 0.95834 0.87379 0.0
C628 C 0.6396 0.53676 0.16053 0.0
C629 C 0.64576 0.51952 0.18024 0.0
C630 C 0.62534 0.53803 0.12072 0.0
C631 C 0.58972 0.51008 0.04281 0.0
H632 H 0.59645 0.54787 0.92855 0.0
C633 C 0.54207 0.51433 0.84578 0.0
C634 C 0.55009 0.51965 0.79406 0.0
C635 C 0.55181 0.51602 0.89688 0.0
C636 C 0.59442 0.53707 0.9596 0.0
H637 H 0.64037 0.49018 0.17662 0.0
H638 H 0.61647 0.49227 0.10535 0.0
H639 H 0.61645 0.54711 0.01058 0.0
H640 H 0.5746 0.5309 0.75533 0.0
H641 H 0.59187 0.53308 0.84338 0.0
H642 H 0.56854 0.49925 0.98962 0.0
C643 C 0.62239 0.50494 0.121 0.0
C644 C 0.60574 0.53685 0.00767 0.0
C645 C 0.6364 0.50369 0.16158 0.0
C646 C 0.56798 0.52681 0.79455 0.0
C647 C 0.57784 0.5282 0.8454 0.0
C648 C 0.5786 0.5101 0.99419 0.0
C649 C 0.61698 0.5221 0.09861 0.0
C650 C 0.60375 0.52322 0.04981 0.0
C651 C 0.56997 0.52274 0.89745 0.0
C652 C 0.58093 0.52346 0.95137 0.0
H653 H 0.64641 0.54931 0.17338 0.0
H654 H 0.62127 0.55156 0.10608 0.0
H655 H 0.58741 0.49955 0.07454 0.0
H656 H 0.52832 0.50866 0.84675 0.0
H657 H 0.54507 0.51196 0.93588 0.0
C658 C 0.01084 0.64488 0.13127 0.0
C659 C 0.99353 0.64799 0.15608 0.0
C660 C 0.01333 0.63087 0.0914 0.0
C661 C 0.99303 0.58852 0.02965 0.0
H662 H 0.0205 0.60362 0.89653 0.0
C663 C 0.99643 0.54535 0.82094 0.0
C664 C 0.01312 0.54554 0.79097 0.0
C665 C 0.99399 0.5566 0.86876 0.0
C666 C 0.01303 0.59901 0.93366 0.0
H667 H 0.96552 0.63794 0.16047 0.0
H668 H 0.96985 0.61358 0.09022 0.0
H669 H 0.01663 0.62492 0.97486 0.0
H670 H 0.04059 0.55694 0.78895 0.0
H671 H 0.03654 0.57618 0.87247 0.0
H672 H 0.98942 0.56254 0.98791 0.0
C673 C 0.98151 0.62201 0.10187 0.0
C674 C 0.0108 0.61128 0.97872 0.0
C675 C 0.979 0.63608 0.14186 0.0
C676 C 0.02749 0.55667 0.81077 0.0
C677 C 0.02511 0.5678 0.85852 0.0
C678 C 0.99533 0.57616 0.98444 0.0
C679 C 0.99859 0.61958 0.07498 0.0
C680 C 1.00087 0.6062 0.02747 0.0
C681 C 0.00823 0.56821 0.88761 0.0
C682 C 1.00546 0.58122 0.93594 0.0
H683 H 0.02234 0.65384 0.14039 0.0
H684 H 0.02676 0.62919 0.07231 0.0
H685 H 0.98537 0.58414 0.06667 0.0
H686 H 0.98512 0.53686 0.80665 0.0
H687 H 0.98078 0.55661 0.88985 0.0
C688 C 0.07855 0.22314 0.37965 0.0
C689 C 0.06483 0.23578 0.36429 0.0
C690 C 0.07506 0.20974 0.42088 0.0
C691 C 0.03885 0.19235 0.52153 0.0
H692 H 0.05403 0.14522 0.4606 0.0
C693 C 0.99575 0.12622 0.53099 0.0
C694 C 1.00485 0.10924 0.53585 0.0
C695 C 1.00578 0.14259 0.52918 0.0
C696 C 0.04996 0.15823 0.47917 0.0
H697 H 0.03722 0.24523 0.38257 0.0
H698 H 0.03085 0.22165 0.45262 0.0
H699 H 0.06781 0.17308 0.4243 0.0
H700 H 0.03137 0.09616 0.54793 0.0
H701 H 0.04889 0.12473 0.54377 0.0
H702 H 0.01993 0.17719 0.57345 0.0
C703 C 0.0445 0.22219 0.43441 0.0
C704 C 0.05795 0.1743 0.45849 0.0
C705 C 0.04811 0.23573 0.39394 0.0
C706 C 0.02405 0.10902 0.54235 0.0
C707 C 0.03406 0.12535 0.54048 0.0
C708 C 0.03068 0.17621 0.54178 0.0
C709 C 0.05762 0.2085 0.44652 0.0
C710 C 0.05205 0.19162 0.47789 0.0
C711 C 0.02507 0.14225 0.53227 0.0
C712 C 0.03577 0.15905 0.5194 0.0
H713 H 0.09165 0.22306 0.3578 0.0
H714 H 0.08567 0.19973 0.43028 0.0
H715 H 0.03424 0.20542 0.53832 0.0
H716 H 0.98096 0.1268 0.52606 0.0
H717 H 0.9985 0.15541 0.52223 0.0
C718 C 0.28647 0.95262 0.3544 0.0
C719 C 0.27993 0.94302 0.30682 0.0
C720 C 0.30126 0.94581 0.38571 0.0
C721 C 0.34216 0.9179 0.3597 0.0
H722 H 0.35323 0.93306 0.51366 0.0
C723 C 0.41319 0.94194 0.42599 0.0
C724 C 0.41926 0.93992 0.48227 0.0
C725 C 0.39584 0.93576 0.40987 0.0
C726 C 0.35036 0.9283 0.47103 0.0
H727 H 0.28251 0.9179 0.25811 0.0
H728 H 0.3082 0.90575 0.31359 0.0
H729 H 0.32154 0.93321 0.48075 0.0
H730 H 0.41232 0.92876 0.56499 0.0
H731 H 0.38188 0.91791 0.53671 0.0
H732 H 0.37099 0.91326 0.34971 0.0
C733 C 0.30221 0.9188 0.32578 0.0
C734 C 0.33218 0.9286 0.45192 0.0
C735 C 0.28748 0.92571 0.2941 0.0
C736 C 0.40791 0.93076 0.52147 0.0
C737 C 0.3905 0.92453 0.50529 0.0
C738 C 0.36029 0.91742 0.37897 0.0
C739 C 0.3098 0.92917 0.37039 0.0
C740 C 0.32799 0.9243 0.39515 0.0
C741 C 0.3841 0.92735 0.44959 0.0
C742 C 0.36471 0.92352 0.43389 0.0
H743 H 0.28108 0.96609 0.36493 0.0
H744 H 0.30682 0.95435 0.4192 0.0
H745 H 0.33955 0.91452 0.31568 0.0
H746 H 0.42144 0.94919 0.39494 0.0
H747 H 0.39127 0.93852 0.36692 0.0
C748 C 0.48045 0.28291 0.34725 0.0
C749 C 0.46377 0.28363 0.3171 0.0
C750 C 0.48576 0.29754 0.38185 0.0
C751 C 0.48083 0.34659 0.37711 0.0
H752 H 0.50841 0.3468 0.51812 0.0
C753 C 0.52611 0.40752 0.4387 0.0
C754 C 0.52211 0.41509 0.49201 0.0
C755 C 0.51939 0.39017 0.42427 0.0
C756 C 0.5007 0.34687 0.47876 0.0
H757 H 0.43857 0.29911 0.30521 0.0
H758 H 0.44797 0.3248 0.36524 0.0
H759 H 0.49339 0.31835 0.48632 0.0
H760 H 0.5091 0.41017 0.5734 0.0
H761 H 0.49753 0.37967 0.54833 0.0
H762 H 0.48839 0.37486 0.36858 0.0
C763 C 0.45702 0.31303 0.36131 0.0
C764 C 0.49213 0.33068 0.4607 0.0
C765 C 0.45167 0.29835 0.32698 0.0
C766 C 0.51222 0.40463 0.53183 0.0
C767 C 0.50571 0.38719 0.51768 0.0
C768 C 0.48957 0.36262 0.39466 0.0
C769 C 0.4745 0.31314 0.38665 0.0
C770 C 0.48214 0.33043 0.40962 0.0
C771 C 0.50879 0.38006 0.46321 0.0
C772 C 0.4997 0.36287 0.44534 0.0
H773 H 0.49016 0.27183 0.34031 0.0
H774 H 0.49933 0.29732 0.40077 0.0
H775 H 0.4735 0.34671 0.33704 0.0
H776 H 0.53368 0.41535 0.40732 0.0
H777 H 0.52206 0.38483 0.38214 0.0
C778 C 0.224 0.51499 0.40224 0.0
C779 C 0.23792 0.52619 0.38007 0.0
C780 C 0.2123 0.52165 0.44417 0.0
C781 C 0.19185 0.56518 0.48251 0.0
H782 H 0.16443 0.53306 0.58273 0.0
C783 C 0.1142 0.56588 0.49372 0.0
C784 C 0.10517 0.55814 0.54045 0.0
C785 C 0.13332 0.56744 0.4938 0.0
C786 C 0.17205 0.54256 0.5563 0.0
H787 H 0.25158 0.55254 0.38713 0.0
H788 H 0.23098 0.56432 0.46095 0.0
H789 H 0.19491 0.52411 0.55201 0.0
H790 H 0.10851 0.54777 0.62614 0.0
H791 H 0.14187 0.55105 0.6272 0.0
H792 H 0.16876 0.58339 0.48545 0.0
C793 C 0.22907 0.55042 0.44558 0.0
C794 C 0.18951 0.53728 0.53819 0.0
C795 C 0.2409 0.54366 0.40367 0.0
C796 C 0.1153 0.55355 0.58925 0.0
C797 C 0.13437 0.55537 0.58972 0.0
C798 C 0.17444 0.57057 0.50113 0.0
C799 C 0.21423 0.53971 0.46471 0.0
C800 C 0.19906 0.54795 0.4982 0.0
C801 C 0.1437 0.56148 0.54096 0.0
C802 C 0.16387 0.55876 0.53531 0.0
H803 H 0.22157 0.50139 0.38498 0.0
H804 H 0.20091 0.51307 0.4573 0.0
H805 H 0.19886 0.57379 0.45187 0.0
H806 H 0.10663 0.56945 0.45561 0.0
H807 H 0.13997 0.57202 0.45517 0.0
C808 C 0.02261 0.79614 0.95848 0.0
C809 C 0.03192 0.78398 0.99477 0.0
C810 C 0.0324 0.80857 0.92508 0.0
C811 C 0.07344 0.83532 0.94045 0.0
H812 H 0.05553 0.85747 0.80114 0.0
C813 C 0.06183 0.91152 0.91134 0.0
C814 C 0.06336 0.91977 0.85754 0.0
C815 C 0.06597 0.89295 0.91873 0.0
C816 C 0.06113 0.85129 0.83931 0.0
H817 H 0.0587 0.77414 0.02139 0.0
H818 H 0.07589 0.79606 0.9631 0.0
H819 H 0.04706 0.8259 0.82437 0.0
H820 H 0.07231 0.91534 0.77064 0.0
H821 H 0.0789 0.88262 0.78338 0.0
H822 H 0.08644 0.86115 0.95727 0.0
C823 C 0.06103 0.79596 0.96053 0.0
C824 C 0.05616 0.83326 0.85278 0.0
C825 C 0.05121 0.78338 0.99361 0.0
C826 C 0.07052 0.90931 0.81234 0.0
C827 C 0.07443 0.89062 0.81961 0.0
C828 C 0.07835 0.85337 0.92709 0.0
C829 C 0.05169 0.80917 0.92775 0.0
C830 C 0.06142 0.82548 0.90497 0.0
C831 C 0.07157 0.88214 0.87244 0.0
C832 C 0.07139 0.86184 0.87796 0.0
H833 H 0.00773 0.79673 0.95837 0.0
H834 H 0.02477 0.81867 0.90074 0.0
H835 H 0.07769 0.82975 0.98108 0.0
H836 H 0.05618 0.91901 0.94701 0.0
H837 H 0.06338 0.88675 0.95983 0.0
C838 C 0.71574 0.96676 0.94547 0.0
C839 C 0.73069 0.97791 0.96063 0.0
C840 C 0.70319 0.9727 0.90458 0.0
C841 C 0.68554 0.01733 0.86024 0.0
H842 H 0.64878 0.98636 0.78975 0.0
C843 C 0.60929 0.03334 0.87507 0.0
C844 C 0.59721 0.02746 0.83248 0.0
C845 C 0.62801 0.02938 0.87123 0.0
C846 C 0.65903 0.99538 0.80801 0.0
H847 H 0.74567 1.00276 0.93891 0.0
H848 H 0.72421 0.01269 0.86588 0.0
H849 H 0.67912 0.97388 0.80958 0.0
H850 H 0.59527 0.01389 0.75075 0.0
H851 H 0.62803 1.00717 0.7436 0.0
H852 H 0.66538 0.03872 0.85953 0.0
C853 C 0.72177 0.9997 0.88716 0.0
C854 C 0.6764 0.98814 0.81991 0.0
C855 C 0.73421 0.99387 0.92863 0.0
C856 C 0.60428 0.01828 0.78472 0.0
C857 C 0.62303 0.01445 0.7806 0.0
C858 C 0.66828 0.02461 0.84776 0.0
C859 C 0.70547 0.98982 0.87749 0.0
C860 C 0.6895 0.99872 0.84915 0.0
C861 C 0.63506 0.01963 0.82439 0.0
C862 C 0.6545 0.01341 0.8245 0.0
H863 H 0.71293 0.95413 0.96834 0.0
H864 H 0.69087 0.96462 0.89835 0.0
H865 H 0.69519 0.02596 0.88284 0.0
H866 H 0.60417 0.04037 0.9124 0.0
H867 H 0.6368 0.03328 0.90631 0.0
C868 C 0.51556 0.72986 0.91485 0.0
C869 C 0.50317 0.74264 0.93783 0.0
C870 C 0.51021 0.71851 0.87015 0.0
C871 C 0.46845 0.6958 0.82995 0.0
H872 H 0.50174 0.67008 0.72906 0.0
C873 C 0.45754 0.61962 0.78262 0.0
C874 C 0.47327 0.60963 0.79834 0.0
C875 C 0.45871 0.63857 0.77256 0.0
C876 C 0.49214 0.67724 0.75639 0.0
H877 H 0.47616 0.75488 0.92865 0.0
H878 H 0.46677 0.73498 0.85028 0.0
H879 H 0.50903 0.70133 0.75975 0.0
H880 H 0.50272 0.61105 0.81079 0.0
H881 H 0.50478 0.64395 0.79433 0.0
H882 H 0.45236 0.67128 0.83062 0.0
C883 C 0.48057 0.73367 0.8671 0.0
C884 C 0.4963 0.69511 0.77388 0.0
C885 C 0.48597 0.7451 0.91175 0.0
C886 C 0.49032 0.61857 0.80015 0.0
C887 C 0.49153 0.63737 0.78958 0.0
C888 C 0.46432 0.67794 0.81258 0.0
C889 C 0.49232 0.71965 0.84774 0.0
C890 C 0.48509 0.70409 0.81377 0.0
C891 C 0.47568 0.6477 0.77725 0.0
C892 C 0.47675 0.66806 0.77872 0.0
H893 H 0.52899 0.72788 0.93376 0.0
H894 H 0.51959 0.7078 0.85665 0.0
H895 H 0.45951 0.70227 0.86081 0.0
H896 H 0.44428 0.61292 0.78027 0.0
H897 H 0.44629 0.64618 0.76293 0.0
C898 C 0.79975 0.52301 0.97285 0.0
C899 C 0.78474 0.51268 0.99223 0.0
C900 C 0.81168 0.51575 0.93239 0.0
C901 C 0.82901 0.47075 0.8924 0.0
H902 H 0.86034 0.50077 0.7971 0.0
C903 C 0.9062 0.46055 0.87903 0.0
C904 C 0.91589 0.4673 0.83212 0.0
C905 C 0.88706 0.46167 0.88024 0.0
C906 C 0.85157 0.49192 0.82222 0.0
H907 H 0.76955 0.48727 0.98107 0.0
H908 H 0.79025 0.47471 0.90949 0.0
H909 H 0.83087 0.51273 0.8278 0.0
H910 H 0.91347 0.4787 0.74738 0.0
H911 H 0.87998 0.48018 0.74863 0.0
H912 H 0.84992 0.4501 0.88797 0.0
C913 C 0.79294 0.48831 0.92627 0.0
C914 C 0.83472 0.49891 0.84039 0.0
C915 C 0.781 0.49558 0.96688 0.0
C916 C 0.90619 0.47366 0.78439 0.0
C917 C 0.88706 0.47456 0.78523 0.0
C918 C 0.84579 0.46368 0.87379 0.0
C919 C 0.80882 0.498 0.91033 0.0
C920 C 0.82375 0.48882 0.87824 0.0
C921 C 0.87731 0.46938 0.8342 0.0
C922 C 0.8577 0.47458 0.84109 0.0
H923 H 0.80279 0.53634 0.99106 0.0
H924 H 0.82384 0.52356 0.92154 0.0
H925 H 0.8209 0.46256 0.92153 0.0
H926 H 0.91347 0.45564 0.91628 0.0
H927 H 0.88006 0.45773 0.91895 0.0
C928 C 0.04349 0.20553 0.86279 0.0
C929 C 0.03015 0.2142 0.8968 0.0
C930 C 0.03987 0.18858 0.83692 0.0
C931 C 0.01094 0.14757 0.85713 0.0
H932 H 0.03035 0.13306 0.71053 0.0
C933 C 0.01553 0.07129 0.79156 0.0
C934 C 0.01076 0.06666 0.73553 0.0
C935 C 0.01747 0.08972 0.80766 0.0
C936 C 0.02472 0.13691 0.75139 0.0
H937 H 1.00222 0.21213 0.92798 0.0
H938 H 0.9958 0.18271 0.88216 0.0
H939 H 0.03337 0.16495 0.74198 0.0
H940 H 1.00488 0.07791 0.65206 0.0
H941 H 0.00813 0.11002 0.6802 0.0
H942 H 1.00224 0.11963 0.86664 0.0
C943 C 0.00918 0.18893 0.87614 0.0
C944 C 0.02658 0.15517 0.76963 0.0
C945 C 0.01277 0.20593 0.90184 0.0
C946 C 0.00842 0.08095 0.69569 0.0
C947 C 0.01041 0.09939 0.71175 0.0
C948 C 0.00915 0.12933 0.83905 0.0
C949 C 0.02284 0.1798 0.84451 0.0
C950 C 0.01983 0.16071 0.82297 0.0
C951 C 0.01474 0.10404 0.76817 0.0
C952 C 0.01618 0.12368 0.78623 0.0
H953 H 0.05696 0.21161 0.85753 0.0
H954 H 0.05076 0.18197 0.81313 0.0
H955 H 1.00576 0.15124 0.8987 0.0
H956 H 0.01751 0.06069 0.82337 0.0
H957 H 0.02116 0.09275 0.85121 0.0
C958 C 0.29986 0.01666 0.85726 0.0
C959 C 0.29672 0.02576 0.90903 0.0
C960 C 0.31681 0.01815 0.8295 0.0
C961 C 0.36087 0.04462 0.82672 0.0
H962 H 0.38025 0.99933 0.76371 0.0
C963 C 0.43793 0.03442 0.7721 0.0
C964 C 0.44241 0.02439 0.72295 0.0
C965 C 0.41967 0.0359 0.79032 0.0
C966 C 0.37497 0.01218 0.78034 0.0
H967 H 0.30887 0.04402 0.97124 0.0
H968 H 0.33842 0.04652 0.92326 0.0
H969 H 0.3493 0.99987 0.80265 0.0
H970 H 0.43097 0.00828 0.65396 0.0
H971 H 0.39918 0.0109 0.68569 0.0
H972 H 0.38681 0.05676 0.80545 0.0
C973 C 0.32771 0.03843 0.90347 0.0
C974 C 0.35715 0.01251 0.80265 0.0
C975 C 0.31071 0.03702 0.93106 0.0
C976 C 0.42809 0.01613 0.69199 0.0
C977 C 0.40984 0.01752 0.71041 0.0
C978 C 0.37874 0.04426 0.80461 0.0
C979 C 0.33115 0.02868 0.85292 0.0
C980 C 0.34985 0.02871 0.8265 0.0
C981 C 0.40539 0.0273 0.76009 0.0
C982 C 0.38608 0.02799 0.78143 0.0
H983 H 0.2893 0.00807 0.83872 0.0
H984 H 0.31874 0.01079 0.79001 0.0
H985 H 0.35567 0.05742 0.84388 0.0
H986 H 0.44855 0.04097 0.79712 0.0
H987 H 0.4168 0.04337 0.82908 0.0
C988 C 0.47755 0.31076 0.82994 0.0
C989 C 0.49029 0.30288 0.8679 0.0
C990 C 0.48004 0.32867 0.8092 0.0
C991 C 0.50241 0.37234 0.84843 0.0
H992 H 0.49003 0.38722 0.69489 0.0
C993 C 0.49478 0.44896 0.78537 0.0
C994 C 0.50237 0.45451 0.73317 0.0
C995 C 0.49352 0.43027 0.79956 0.0
C996 C 0.49364 0.38329 0.73786 0.0
H997 H 0.51596 0.3076 0.91226 0.0
H998 H 0.52041 0.33869 0.87556 0.0
H999 H 0.48846 0.35473 0.72151 0.0
H1000 H 0.51445 0.44451 0.65476 0.0
H1001 H 0.51228 0.41203 0.67965 0.0
H1002 H 0.50764 0.40082 0.86486 0.0
C1003 C 0.50839 0.33107 0.86225 0.0
C1004 C 0.4926 0.36467 0.75324 0.0
C1005 C 0.50596 0.31312 0.88271 0.0
C1006 C 0.50842 0.44083 0.69522 0.0
C1007 C 0.50711 0.42214 0.70936 0.0
C1008 C 0.50332 0.39094 0.83319 0.0
C1009 C 0.49527 0.33923 0.82616 0.0
C1010 C 0.49695 0.35895 0.80879 0.0
C1011 C 0.49977 0.4166 0.7619 0.0
C1012 C 0.49889 0.3967 0.77777 0.0
H1013 H 0.46539 0.30322 0.81732 0.0
H1014 H 0.46961 0.33451 0.78169 0.0
H1015 H 0.50565 0.3685 0.89175 0.0
H1016 H 0.48994 0.45904 0.81569 0.0
H1017 H 0.48756 0.42651 0.84007 0.0
C1018 C 0.20776 0.48254 0.89414 0.0
C1019 C 0.21634 0.49972 0.90131 0.0
C1020 C 0.1907 0.48118 0.86669 0.0
C1021 C 0.15691 0.50766 0.77761 0.0
H1022 H 0.1219 0.47386 0.84443 0.0
C1023 C 0.08295 0.50058 0.68864 0.0
C1024 C 0.06858 0.49795 0.72776 0.0
C1025 C 0.10135 0.49955 0.70597 0.0
C1026 C 0.13141 0.48351 0.82545 0.0
H1027 H 0.21407 0.5288 0.88147 0.0
H1028 H 0.18428 0.52656 0.83558 0.0
H1029 H 0.15325 0.47461 0.87976 0.0
H1030 H 0.06242 0.49213 0.81602 0.0
H1031 H 0.09437 0.49072 0.84652 0.0
H1032 H 0.13483 0.51721 0.72522 0.0
C1033 C 0.19071 0.51402 0.85062 0.0
C1034 C 0.14958 0.48372 0.84516 0.0
C1035 C 0.20779 0.51535 0.87768 0.0
C1036 C 0.07311 0.49407 0.78458 0.0
C1037 C 0.09151 0.49318 0.80203 0.0
C1038 C 0.1387 0.50755 0.7582 0.0
C1039 C 0.18168 0.49698 0.84579 0.0
C1040 C 0.16259 0.49592 0.82193 0.0
C1041 C 0.10594 0.49599 0.76306 0.0
C1042 C 0.1256 0.49558 0.78216 0.0
H1043 H 0.21381 0.4702 0.91197 0.0
H1044 H 0.18443 0.46775 0.86284 0.0
H1045 H 0.16651 0.51708 0.75793 0.0
H1046 H 0.08002 0.50348 0.64445 0.0
H1047 H 0.11197 0.50148 0.67435 0.0
C1048 C 1.00075 0.81747 0.44936 0.0
C1049 C 0.98351 0.80941 0.43906 0.0
C1050 C 1.00205 0.83476 0.47525 0.0
C1051 C 0.97735 0.86846 0.56407 0.0
H1052 H 0.00815 0.90446 0.48843 0.0
C1053 C 0.99396 0.94062 0.65831 0.0
C1054 C 0.99248 0.95566 0.6208 0.0
C1055 C 0.99271 0.92252 0.63821 0.0
C1056 C 0.99946 0.89458 0.50999 0.0
H1057 H 0.95416 0.81289 0.45006 0.0
H1058 H 0.95646 0.84296 0.49629 0.0
H1059 H 1.00648 0.87307 0.45169 0.0
H1060 H 0.9886 0.96332 0.53251 0.0
H1061 H 0.98669 0.93176 0.49751 0.0
H1062 H 0.97038 0.89002 0.62247 0.0
C1063 C 0.96896 0.83593 0.48399 0.0
C1064 C 0.99863 0.87655 0.48925 0.0
C1065 C 0.96764 0.81875 0.45732 0.0
C1066 C 0.98974 0.95211 0.56269 0.0
C1067 C 0.98876 0.93401 0.54252 0.0
C1068 C 0.9784 0.88644 0.58536 0.0
C1069 C 0.98616 0.84431 0.49217 0.0
C1070 C 0.98748 0.86329 0.51581 0.0
C1071 C 0.99023 0.919 0.58001 0.0
C1072 C 0.98936 0.89975 0.55829 0.0
H1073 H 0.01323 0.81075 0.43526 0.0
H1074 H 0.01551 0.84077 0.4814 0.0
H1075 H 0.96869 0.85855 0.5856 0.0
H1076 H 0.99608 0.9428 0.70333 0.0
H1077 H 0.99403 0.91125 0.66811 0.0
C1078 C 0.69664 1.00589 0.46953 0.0
C1079 C 0.7012 0.98849 0.44747 0.0
C1080 C 0.68009 0.00861 0.49897 0.0
C1081 C 0.63975 0.9831 0.56227 0.0
H1082 H 0.61471 0.02952 0.53728 0.0
C1083 C 0.561 0.99423 0.58705 0.0
C1084 C 0.55575 0.00864 0.62336 0.0
C1085 C 0.57944 0.99196 0.57132 0.0
C1086 C 0.62162 0.01654 0.54489 0.0
H1087 H 0.69232 0.96003 0.44327 0.0
H1088 H 0.66335 0.9649 0.49092 0.0
H1089 H 0.6458 0.02524 0.50112 0.0
H1090 H 0.56578 0.03207 0.6712 0.0
H1091 H 0.59784 0.02849 0.64168 0.0
H1092 H 0.61495 0.9742 0.60325 0.0
C1093 C 0.67254 0.97652 0.48671 0.0
C1094 C 0.63955 0.01408 0.52459 0.0
C1095 C 0.68917 0.97375 0.45825 0.0
C1096 C 0.56934 0.02083 0.6431 0.0
C1097 C 0.58769 0.01883 0.62618 0.0
C1098 C 0.62168 0.98545 0.58137 0.0
C1099 C 0.66751 0.99407 0.50665 0.0
C1100 C 0.64888 0.99723 0.53238 0.0
C1101 C 0.59293 1.00431 0.59044 0.0
C1102 C 0.61239 1.00213 0.57246 0.0
H1103 H 0.70547 0.01763 0.46213 0.0
H1104 H 0.67705 0.02226 0.51477 0.0
H1105 H 0.64648 0.9701 0.57076 0.0
H1106 H 0.55092 0.98454 0.57139 0.0
H1107 H 0.58313 0.9807 0.54347 0.0
C1108 C 0.49364 0.70148 0.4432 0.0
C1109 C 0.50929 0.71241 0.43386 0.0
C1110 C 0.49472 0.68531 0.47543 0.0
C1111 C 0.52827 0.64975 0.51778 0.0
H1112 H 0.48796 0.63173 0.60987 0.0
C1113 C 0.52142 0.57286 0.57671 0.0
C1114 C 0.51437 0.56805 0.63029 0.0
C1115 C 0.52154 0.59123 0.55856 0.0
C1116 C 0.49946 0.63657 0.58482 0.0
H1117 H 0.53823 0.71524 0.45347 0.0
H1118 H 0.5401 0.68711 0.51044 0.0
H1119 H 0.48688 0.66293 0.5717 0.0
H1120 H 0.50203 0.57906 0.70704 0.0
H1121 H 0.50243 0.61103 0.67561 0.0
H1122 H 0.5409 0.62348 0.53098 0.0
C1123 C 0.527 0.69094 0.4921 0.0
C1124 C 0.49874 0.65445 0.56241 0.0
C1125 C 0.52589 0.7072 0.45999 0.0
C1126 C 0.50754 0.58217 0.6654 0.0
C1127 C 0.50767 0.60056 0.64724 0.0
C1128 C 0.52898 0.63189 0.5401 0.0
C1129 C 0.51151 0.67956 0.49922 0.0
C1130 C 0.51301 0.6612 0.52781 0.0
C1131 C 0.51465 0.60536 0.59347 0.0
C1132 C 0.51445 0.6249 0.57314 0.0
H1133 H 0.48058 0.70518 0.4242 0.0
H1134 H 0.48251 0.67691 0.47952 0.0
H1135 H 0.53945 0.65436 0.49102 0.0
H1136 H 0.52671 0.56241 0.54832 0.0
H1137 H 0.52673 0.59428 0.51651 0.0
C1138 C 0.81513 0.5082 0.4674 0.0
C1139 C 0.80642 0.52548 0.46518 0.0
C1140 C 0.83254 0.50627 0.49216 0.0
C1141 C 0.86626 0.52839 0.58841 0.0
H1142 H 0.90221 0.50148 0.49974 0.0
C1143 C 0.95018 0.51836 0.57325 0.0
C1144 C 0.95462 0.51467 0.63027 0.0
C1145 C 0.93181 0.51941 0.55568 0.0
C1146 C 0.89236 0.50909 0.52495 0.0
H1147 H 0.80885 0.55408 0.48993 0.0
H1148 H 0.83916 0.55067 0.53361 0.0
H1149 H 0.87048 0.50343 0.4667 0.0
H1150 H 0.94307 0.50945 0.71367 0.0
H1151 H 0.91107 0.5114 0.68306 0.0
H1152 H 0.88825 0.53417 0.64644 0.0
C1153 C 0.83255 0.53862 0.51598 0.0
C1154 C 0.87411 0.51004 0.50633 0.0
C1155 C 0.81521 0.5406 0.49068 0.0
C1156 C 0.94019 0.51233 0.66943 0.0
C1157 C 0.92182 0.51353 0.65194 0.0
C1158 C 0.8845 0.52727 0.60739 0.0
C1159 C 0.84162 0.52152 0.51587 0.0
C1160 C 0.86084 0.51982 0.53756 0.0
C1161 C 0.91738 0.51694 0.59473 0.0
C1162 C 0.89783 0.51775 0.5756 0.0
H1163 H 0.80886 0.49631 0.44769 0.0
H1164 H 0.83905 0.49286 0.49193 0.0
H1165 H 0.85636 0.53594 0.61365 0.0
H1166 H 0.9609 0.52021 0.54187 0.0
H1167 H 0.92889 0.52227 0.51143 0.0
loop_
_geom_bond_atom_site_label_1
_geom_bond_atom_site_label_2
_geom_bond_distance
_geom_bond_site_symmetry_2
_ccdc_geom_bond_type
C0 C1 1.384 . S
C0 H13 0.947 . S
C0 C35 1.382 . S
C1 C0 1.384 . S
C1 C2 1.378 . S
C2 C1 1.378 . S
C2 C3 1.378 . S
C2 H14 0.952 . S
C3 C2 1.378 . S
C3 H15 0.950 . S
C3 C34 1.383 . S
H4 C23 0.947 . S
H5 C24 0.946 . S
H6 C26 0.953 . S
H7 C27 0.945 . S
H8 C29 0.952 . S
H9 C30 0.949 . S
H10 C32 0.950 . S
H11 C33 0.948 . S
H12 C35 0.951 . S
H13 C0 0.947 . S
H14 C2 0.952 . S
H15 C3 0.950 . S
N16 C19 1.382 . S
N16 C21 1.363 . S
N17 C19 1.371 . S
N17 C20 1.372 . S
N18 C20 1.361 . S
N18 C21 1.377 . S
C19 N16 1.382 . S
C19 N17 1.371 . S
C19 C22 1.480 . S
C20 N17 1.372 . S
C20 N18 1.361 . S
C20 C28 1.457 . S
C21 N16 1.363 . S
C21 N18 1.377 . S
C21 C34 1.479 . S
C22 C19 1.480 . S
C22 C23 1.383 . S
C22 C27 1.385 . S
C23 H4 0.947 . S
C23 C22 1.383 . S
C23 C24 1.388 . S
C24 H5 0.946 . S
C24 C23 1.388 . S
C24 C25 1.384 . S
C25 C24 1.384 . S
C25 C26 1.377 . S
C26 H6 0.953 . S
C26 C25 1.377 . S
C26 C27 1.369 . S
C27 H7 0.945 . S
C27 C22 1.385 . S
C27 C26 1.369 . S
C28 C20 1.457 . S
C28 C29 1.372 . S
C28 C33 1.364 . S
C29 H8 0.952 . S
C29 C28 1.372 . S
C29 C30 1.389 . S
C30 H9 0.949 . S
C30 C29 1.389 . S
C30 C31 1.387 . S
C31 C30 1.387 . S
C31 C32 1.372 . S
C32 H10 0.950 . S
C32 C31 1.372 . S
C32 C33 1.379 . S
C33 H11 0.948 . S
C33 C28 1.364 . S
C33 C32 1.379 . S
C34 C3 1.383 . S
C34 C21 1.479 . S
C34 C35 1.398 . S
C35 C0 1.382 . S
C35 H12 0.951 . S
C35 C34 1.398 . S
C36 C37 1.381 1_655 S
C36 H49 0.948 . S
C36 C71 1.382 1_655 S
C37 C36 1.381 1_455 S
C37 C38 1.387 . S
C38 C37 1.387 . S
C38 C39 1.378 . S
C38 H50 0.952 . S
C39 C38 1.378 . S
C39 H51 0.950 . S
C39 C70 1.383 . S
H40 C59 0.947 . S
H41 C60 0.952 . S
H42 C62 0.953 . S
H43 C63 0.945 . S
H44 C65 0.949 1_655 S
H45 C66 0.956 . S
H46 C68 0.950 . S
H47 C69 0.948 . S
H48 C71 0.952 1_655 S
H49 C36 0.948 . S
H50 C38 0.952 . S
H51 C39 0.950 . S
N52 C55 1.382 . S
N52 C57 1.363 . S
N53 C55 1.371 . S
N53 C56 1.372 . S
N54 C56 1.361 . S
N54 C57 1.377 . S
C55 N52 1.382 . S
C55 N53 1.371 . S
C55 C58 1.480 . S
C56 N53 1.372 . S
C56 N54 1.361 . S
C56 C64 1.457 . S
C57 N52 1.363 . S
C57 N54 1.377 . S
C57 C70 1.479 . S
C58 C55 1.480 . S
C58 C59 1.383 . S
C58 C63 1.385 . S
C59 H40 0.947 . S
C59 C58 1.383 . S
C59 C60 1.386 1_455 S
C60 H41 0.952 . S
C60 C59 1.386 1_655 S
C60 C61 1.381 1_655 S
C61 C60 1.381 1_455 S
C61 C62 1.377 . S
C62 H42 0.953 . S
C62 C61 1.377 . S
C62 C63 1.369 . S
C63 H43 0.945 . S
C63 C58 1.385 . S
C63 C62 1.369 . S
C64 C56 1.457 . S
C64 C65 1.376 . S
C64 C69 1.364 . S
C65 H44 0.949 1_455 S
C65 C64 1.376 . S
C65 C66 1.387 1_455 S
C66 H45 0.956 . S
C66 C65 1.387 1_655 S
C66 C67 1.383 1_655 S
C67 C66 1.383 1_455 S
C67 C68 1.372 . S
C68 H46 0.950 . S
C68 C67 1.372 . S
C68 C69 1.379 . S
C69 H47 0.948 . S
C69 C64 1.364 . S
C69 C68 1.379 . S
C70 C39 1.383 . S
C70 C57 1.479 . S
C70 C71 1.398 . S
C71 C36 1.382 1_455 S
C71 H48 0.952 1_455 S
C71 C70 1.398 . S
C72 C73 1.381 1_565 S
C72 H85 0.948 . S
C72 C107 1.382 1_565 S
C73 C72 1.381 1_545 S
C73 C74 1.387 . S
C74 C73 1.387 . S
C74 C75 1.378 . S
C74 H86 0.952 . S
C75 C74 1.378 . S
C75 H87 0.950 . S
C75 C106 1.383 . S
H76 C95 0.947 . S
H77 C96 0.952 . S
H78 C98 0.953 . S
H79 C99 0.945 . S
H80 C101 0.949 1_565 S
H81 C102 0.956 . S
H82 C104 0.950 . S
H83 C105 0.948 . S
H84 C107 0.952 1_565 S
H85 C72 0.948 . S
H86 C74 0.952 . S
H87 C75 0.950 . S
N88 C91 1.382 . S
N88 C93 1.363 . S
N89 C91 1.371 . S
N89 C92 1.372 . S
N90 C92 1.361 . S
N90 C93 1.377 . S
C91 N88 1.382 . S
C91 N89 1.371 . S
C91 C94 1.480 . S
C92 N89 1.372 . S
C92 N90 1.361 . S
C92 C100 1.457 . S
C93 N88 1.363 . S
C93 N90 1.377 . S
C93 C106 1.479 . S
C94 C91 1.480 . S
C94 C95 1.383 . S
C94 C99 1.385 . S
C95 H76 0.947 . S
C95 C94 1.383 . S
C95 C96 1.386 1_545 S
C96 H77 0.952 . S
C96 C95 1.386 1_565 S
C96 C97 1.381 1_565 S
C97 C96 1.381 1_545 S
C97 C98 1.377 . S
C98 H78 0.953 . S
C98 C97 1.377 . S
C98 C99 1.369 . S
C99 H79 0.945 . S
C99 C94 1.385 . S
C99 C98 1.369 . S
C100 C92 1.457 . S
C100 C101 1.376 . S
C100 C105 1.364 . S
C101 H80 0.949 1_545 S
C101 C100 1.376 . S
C101 C102 1.386 1_545 S
C102 H81 0.956 . S
C102 C101 1.386 1_565 S
C102 C103 1.383 1_565 S
C103 C102 1.383 1_545 S
C103 C104 1.372 . S
C104 H82 0.950 . S
C104 C103 1.372 . S
C104 C105 1.379 . S
C105 H83 0.948 . S
C105 C100 1.364 . S
C105 C104 1.379 . S
C106 C75 1.383 . S
C106 C93 1.479 . S
C106 C107 1.398 . S
C107 C72 1.382 1_545 S
C107 H84 0.952 1_545 S
C107 C106 1.398 . S
C108 C109 1.384 . S
C108 H121 0.947 . S
C108 C143 1.382 . S
C109 C108 1.384 . S
C109 C110 1.378 . S
C110 C109 1.378 . S
C110 C111 1.378 . S
C110 H122 0.952 . S
C111 C110 1.378 . S
C111 H123 0.950 . S
C111 C142 1.383 . S
H112 C131 0.947 . S
H113 C132 0.946 . S
H114 C134 0.953 . S
H115 C135 0.945 . S
H116 C137 0.952 . S
H117 C138 0.949 . S
H118 C140 0.950 . S
H119 C141 0.948 . S
H120 C143 0.951 . S
H121 C108 0.947 . S
H122 C110 0.952 . S
H123 C111 0.950 . S
N124 C127 1.382 . S
N124 C129 1.363 . S
N125 C127 1.371 . S
N125 C128 1.372 . S
N126 C128 1.361 . S
N126 C129 1.377 . S
C127 N124 1.382 . S
C127 N125 1.371 . S
C127 C130 1.480 . S
C128 N125 1.372 . S
C128 N126 1.361 . S
C128 C136 1.457 . S
C129 N124 1.363 . S
C129 N126 1.377 . S
C129 C142 1.479 . S
C130 C127 1.480 . S
C130 C131 1.383 . S
C130 C135 1.385 . S
C131 H112 0.947 . S
C131 C130 1.383 . S
C131 C132 1.388 . S
C132 H113 0.946 . S
C132 C131 1.388 . S
C132 C133 1.384 . S
C133 C132 1.384 . S
C133 C134 1.377 . S
C134 H114 0.953 . S
C134 C133 1.377 . S
C134 C135 1.369 . S
C135 H115 0.945 . S
C135 C130 1.385 . S
C135 C134 1.369 . S
C136 C128 1.457 . S
C136 C137 1.372 . S
C136 C141 1.364 . S
C137 H116 0.952 . S
C137 C136 1.372 . S
C137 C138 1.389 . S
C138 H117 0.949 . S
C138 C137 1.389 . S
C138 C139 1.387 . S
C139 C138 1.387 . S
C139 C140 1.372 . S
C140 H118 0.950 . S
C140 C139 1.372 . S
C140 C141 1.379 . S
C141 H119 0.948 . S
C141 C136 1.364 . S
C141 C140 1.379 . S
C142 C111 1.383 . S
C142 C129 1.479 . S
C142 C143 1.398 . S
C143 C108 1.382 . S
C143 H120 0.951 . S
C143 C142 1.398 . S
C144 C145 1.384 . S
C144 H157 0.947 . S
C144 C179 1.382 . S
C145 C144 1.384 . S
C145 C146 1.378 . S
C146 C145 1.378 . S
C146 C147 1.378 . S
C146 H158 0.952 . S
C147 C146 1.378 . S
C147 H159 0.950 . S
C147 C178 1.383 . S
H148 C167 0.947 1_556 S
H149 C168 0.946 . S
H150 C170 0.953 . S
H151 C171 0.945 . S
H152 C173 0.952 . S
H153 C174 0.949 . S
H154 C176 0.950 . S
H155 C177 0.948 . S
H156 C179 0.951 . S
H157 C144 0.947 . S
H158 C146 0.952 . S
H159 C147 0.950 . S
N160 C163 1.382 . S
N160 C165 1.363 1_554 S
N161 C163 1.371 . S
N161 C164 1.372 . S
N162 C164 1.361 . S
N162 C165 1.377 1_554 S
C163 N160 1.382 . S
C163 N161 1.371 . S
C163 C166 1.480 . S
C164 N161 1.372 . S
C164 N162 1.361 . S
C164 C172 1.457 . S
C165 N160 1.363 1_556 S
C165 N162 1.377 1_556 S
C165 C178 1.479 . S
C166 C163 1.480 . S
C166 C167 1.383 . S
C166 C171 1.385 . S
C167 H148 0.947 1_554 S
C167 C166 1.383 . S
C167 C168 1.388 . S
C168 H149 0.946 . S
C168 C167 1.388 . S
C168 C169 1.384 . S
C169 C168 1.384 . S
C169 C170 1.377 . S
C170 H150 0.953 . S
C170 C169 1.377 . S
C170 C171 1.369 . S
C171 H151 0.945 . S
C171 C166 1.385 . S
C171 C170 1.369 . S
C172 C164 1.457 . S
C172 C173 1.372 . S
C172 C177 1.364 . S
C173 H152 0.952 . S
C173 C172 1.372 . S
C173 C174 1.389 . S
C174 H153 0.949 . S
C174 C173 1.389 . S
C174 C175 1.387 . S
C175 C174 1.387 . S
C175 C176 1.372 . S
C176 H154 0.950 . S
C176 C175 1.372 . S
C176 C177 1.379 . S
C177 H155 0.948 . S
C177 C172 1.364 . S
C177 C176 1.379 . S
C178 C147 1.383 . S
C178 C165 1.479 . S
C178 C179 1.398 . S
C179 C144 1.382 . S
C179 H156 0.951 . S
C179 C178 1.398 . S
C180 C181 1.384 . S
C180 H193 0.948 1_455 S
C180 C215 1.382 . S
C181 C180 1.384 . S
C181 C182 1.378 . S
C182 C181 1.378 . S
C182 C183 1.378 . S
C182 H194 0.952 . S
C183 C182 1.378 . S
C183 H195 0.950 . S
C183 C214 1.383 . S
H184 C203 0.947 1_556 S
H185 C204 0.948 . S
H186 C206 0.953 . S
H187 C207 0.945 . S
H188 C209 0.947 1_655 S
H189 C210 0.954 . S
H190 C212 0.950 . S
H191 C213 0.948 . S
H192 C215 0.950 1_655 S
H193 C180 0.948 1_655 S
H194 C182 0.952 . S
H195 C183 0.950 . S
N196 C199 1.382 . S
N196 C201 1.363 1_554 S
N197 C199 1.371 . S
N197 C200 1.372 . S
N198 C200 1.361 . S
N198 C201 1.377 1_554 S
C199 N196 1.382 . S
C199 N197 1.371 . S
C199 C202 1.480 . S
C200 N197 1.372 . S
C200 N198 1.361 . S
C200 C208 1.457 . S
C201 N196 1.363 1_556 S
C201 N198 1.377 1_556 S
C201 C214 1.479 . S
C202 C199 1.480 . S
C202 C203 1.383 . S
C202 C207 1.385 . S
C203 H184 0.947 1_554 S
C203 C202 1.383 . S
C203 C204 1.387 1_455 S
C204 H185 0.948 . S
C204 C203 1.387 1_655 S
C204 C205 1.383 1_655 S
C205 C204 1.383 1_455 S
C205 C206 1.377 . S
C206 H186 0.953 . S
C206 C205 1.377 . S
C206 C207 1.369 . S
C207 H187 0.945 . S
C207 C202 1.385 . S
C207 C206 1.369 . S
C208 C200 1.457 . S
C208 C209 1.379 . S
C208 C213 1.364 . S
C209 H188 0.947 1_455 S
C209 C208 1.379 . S
C209 C210 1.387 1_455 S
C210 H189 0.954 . S
C210 C209 1.387 1_655 S
C210 C211 1.384 1_655 S
C211 C210 1.384 1_455 S
C211 C212 1.372 . S
C212 H190 0.950 . S
C212 C211 1.372 . S
C212 C213 1.379 . S
C213 H191 0.948 . S
C213 C208 1.364 . S
C213 C212 1.379 . S
C214 C183 1.383 . S
C214 C201 1.479 . S
C214 C215 1.399 . S
C215 C180 1.382 . S
C215 H192 0.950 1_455 S
C215 C214 1.399 . S
C216 C217 1.384 . S
C216 H229 0.948 1_545 S
C216 C251 1.382 . S
C217 C216 1.384 . S
C217 C218 1.378 . S
C218 C217 1.378 . S
C218 C219 1.378 . S
C218 H230 0.952 . S
C219 C218 1.378 . S
C219 H231 0.950 . S
C219 C250 1.383 . S
H220 C239 0.947 1_556 S
H221 C240 0.948 . S
H222 C242 0.953 . S
H223 C243 0.945 . S
H224 C245 0.947 1_565 S
H225 C246 0.953 . S
H226 C248 0.950 . S
H227 C249 0.948 . S
H228 C251 0.950 1_565 S
H229 C216 0.948 1_565 S
H230 C218 0.952 . S
H231 C219 0.950 . S
N232 C235 1.382 . S
N232 C237 1.363 1_554 S
N233 C235 1.371 . S
N233 C236 1.372 . S
N234 C236 1.361 . S
N234 C237 1.377 1_554 S
C235 N232 1.382 . S
C235 N233 1.371 . S
C235 C238 1.480 . S
C236 N233 1.372 . S
C236 N234 1.361 . S
C236 C244 1.457 . S
C237 N232 1.363 1_556 S
C237 N234 1.377 1_556 S
C237 C250 1.479 . S
C238 C235 1.480 . S
C238 C239 1.383 . S
C238 C243 1.385 . S
C239 H220 0.947 1_554 S
C239 C238 1.383 . S
C239 C240 1.387 1_545 S
C240 H221 0.948 . S
C240 C239 1.387 1_565 S
C240 C241 1.383 1_565 S
C241 C240 1.383 1_545 S
C241 C242 1.377 . S
C242 H222 0.953 . S
C242 C241 1.377 . S
C242 C243 1.369 . S
C243 H223 0.945 . S
C243 C238 1.385 . S
C243 C242 1.369 . S
C244 C236 1.457 . S
C244 C245 1.379 . S
C244 C249 1.364 . S
C245 H224 0.947 1_545 S
C245 C244 1.379 . S
C245 C246 1.387 1_545 S
C246 H225 0.953 . S
C246 C245 1.387 1_565 S
C246 C247 1.384 1_565 S
C247 C246 1.384 1_545 S
C247 C248 1.372 . S
C248 H226 0.950 . S
C248 C247 1.372 . S
C248 C249 1.379 . S
C249 H227 0.948 . S
C249 C244 1.364 . S
C249 C248 1.379 . S
C250 C219 1.383 . S
C250 C237 1.479 . S
C250 C251 1.399 . S
C251 C216 1.382 . S
C251 H228 0.950 1_545 S
C251 C250 1.399 . S
C252 C253 1.384 . S
C252 H265 0.947 . S
C252 C287 1.382 . S
C253 C252 1.384 . S
C253 C254 1.378 . S
C254 C253 1.378 . S
C254 C255 1.378 . S
C254 H266 0.952 . S
C255 C254 1.378 . S
C255 H267 0.950 . S
C255 C286 1.383 . S
H256 C275 0.947 . S
H257 C276 0.946 . S
H258 C278 0.953 . S
H259 C279 0.945 1_556 S
H260 C281 0.952 . S
H261 C282 0.949 . S
H262 C284 0.950 . S
H263 C285 0.948 . S
H264 C287 0.951 . S
H265 C252 0.947 . S
H266 C254 0.952 . S
H267 C255 0.950 . S
N268 C271 1.382 . S
N268 C273 1.363 . S
N269 C271 1.371 . S
N269 C272 1.372 1_554 S
N270 C272 1.361 1_554 S
N270 C273 1.377 . S
C271 N268 1.382 . S
C271 N269 1.371 . S
C271 C274 1.480 . S
C272 N269 1.372 1_556 S
C272 N270 1.361 1_556 S
C272 C280 1.457 . S
C273 N268 1.363 . S
C273 N270 1.377 . S
C273 C286 1.479 . S
C274 C271 1.480 . S
C274 C275 1.383 . S
C274 C279 1.385 . S
C275 H256 0.947 . S
C275 C274 1.383 . S
C275 C276 1.388 . S
C276 H257 0.946 . S
C276 C275 1.388 . S
C276 C277 1.384 . S
C277 C276 1.384 . S
C277 C278 1.377 . S
C278 H258 0.953 . S
C278 C277 1.377 . S
C278 C279 1.369 . S
C279 H259 0.945 1_554 S
C279 C274 1.385 . S
C279 C278 1.369 . S
C280 C272 1.457 . S
C280 C281 1.372 . S
C280 C285 1.364 . S
C281 H260 0.952 . S
C281 C280 1.372 . S
C281 C282 1.389 . S
C282 H261 0.949 . S
C282 C281 1.389 . S
C282 C283 1.387 . S
C283 C282 1.387 . S
C283 C284 1.372 . S
C284 H262 0.950 . S
C284 C283 1.372 . S
C284 C285 1.379 . S
C285 H263 0.948 . S
C285 C280 1.364 . S
C285 C284 1.379 . S
C286 C255 1.383 . S
C286 C273 1.479 . S
C286 C287 1.398 . S
C287 C252 1.382 . S
C287 H264 0.951 . S
C287 C286 1.398 . S
C288 Eu289 2.835 . S
C288 C290 1.500 . S
C288 O308 1.257 . S
C288 O309 1.260 . S
Eu289 C288 2.835 . S
Eu289 O308 2.473 . S
Eu289 O309 2.480 . S
Eu289 O310 2.430 . S
Eu289 O311 2.670 1_545 S
Eu289 O312 2.394 . S
Eu289 O317 2.355 1_655 S
Eu289 O319 2.374 1_545 S
C290 C288 1.500 . S
C290 C291 1.377 . S
C290 C295 1.377 . S
C291 C290 1.377 . S
C291 C292 1.395 . S
C291 H320 0.931 . S
C292 C291 1.395 . S
C292 C293 1.383 . S
C292 H321 0.931 . S
C293 C292 1.383 . S
C293 C294 1.394 . S
C294 C293 1.394 . S
C294 C295 1.378 . S
C294 H322 0.931 1_655 S
C295 C290 1.377 . S
C295 C294 1.378 . S
C295 H323 0.931 1_655 S
C296 O310 1.281 . S
C296 O311 1.254 1_545 S
C297 O312 1.251 1_455 S
C297 O313 1.251 . S
C298 Eu299 2.835 . S
C298 C300 1.500 . S
C298 O314 1.257 . S
C298 O315 1.260 . S
Eu299 C298 2.835 . S
Eu299 O311 2.355 1_455 S
Eu299 O313 2.374 1_565 S
Eu299 O314 2.473 . S
Eu299 O315 2.480 . S
Eu299 O316 2.430 . S
Eu299 O317 2.670 1_565 S
Eu299 O318 2.394 . S
C300 C298 1.500 . S
C300 C301 1.377 . S
C300 C305 1.377 . S
C301 C300 1.377 . S
C301 C302 1.395 . S
C301 H324 0.931 . S
C302 C301 1.395 . S
C302 C303 1.383 . S
C302 H325 0.931 . S
C303 C302 1.383 . S
C303 C304 1.394 . S
C304 C303 1.394 . S
C304 C305 1.378 . S
C304 H326 0.931 1_455 S
C305 C300 1.377 . S
C305 C304 1.378 . S
C305 H327 0.931 1_455 S
C306 O316 1.274 . S
C306 O317 1.259 1_565 S
C307 O318 1.251 1_655 S
C307 O319 1.251 . S
O308 C288 1.257 . S
O308 Eu289 2.473 . S
O309 C288 1.260 . S
O309 Eu289 2.480 . S
O310 Eu289 2.430 . S
O310 C296 1.281 . S
O311 Eu289 2.670 1_565 S
O311 C296 1.254 1_565 S
O311 Eu299 2.355 1_655 S
O312 Eu289 2.394 . S
O312 C297 1.251 1_655 S
O313 C297 1.251 . S
O313 Eu299 2.374 1_545 S
O314 C298 1.257 . S
O314 Eu299 2.473 . S
O315 C298 1.260 . S
O315 Eu299 2.480 . S
O316 Eu299 2.430 . S
O316 C306 1.274 . S
O317 Eu289 2.355 1_455 S
O317 Eu299 2.670 1_545 S
O317 C306 1.259 1_545 S
O318 Eu299 2.394 . S
O318 C307 1.251 1_455 S
O319 Eu289 2.374 1_565 S
O319 C307 1.251 . S
H320 C291 0.931 . S
H321 C292 0.931 . S
H322 C294 0.931 1_455 S
H323 C295 0.931 1_455 S
H324 C301 0.931 . S
H325 C302 0.931 . S
H326 C304 0.931 1_655 S
H327 C305 0.931 1_655 S
C328 Eu329 2.835 . S
C328 C330 1.500 . S
C328 O348 1.257 . S
C328 O349 1.260 . S
Eu329 C328 2.835 . S
Eu329 O348 2.473 . S
Eu329 O349 2.480 . S
Eu329 O350 2.430 . S
Eu329 O351 2.670 . S
Eu329 O352 2.394 . S
Eu329 O357 2.355 1_565 S
Eu329 O359 2.374 . S
C330 C328 1.500 . S
C330 C331 1.377 . S
C330 C335 1.377 . S
C331 C330 1.377 . S
C331 C332 1.395 . S
C331 H360 0.931 . S
C332 C331 1.395 . S
C332 C333 1.383 . S
C332 H361 0.931 . S
C333 C332 1.383 . S
C333 C334 1.394 . S
C334 C333 1.394 . S
C334 C335 1.378 . S
C334 H362 0.931 1_565 S
C335 C330 1.377 . S
C335 C334 1.378 . S
C335 H363 0.931 1_565 S
C336 O350 1.259 . S
C336 O351 1.270 . S
C337 O352 1.251 1_545 S
C337 O353 1.251 . S
C338 Eu339 2.835 . S
C338 C340 1.500 . S
C338 O354 1.257 . S
C338 O355 1.260 . S
Eu339 C338 2.835 . S
Eu339 O351 2.355 1_545 S
Eu339 O353 2.374 . S
Eu339 O354 2.473 . S
Eu339 O355 2.480 . S
Eu339 O356 2.430 . S
Eu339 O357 2.670 . S
Eu339 O358 2.394 . S
C340 C338 1.500 . S
C340 C341 1.377 . S
C340 C345 1.377 . S
C341 C340 1.377 . S
C341 C342 1.395 . S
C341 H364 0.931 . S
C342 C341 1.395 . S
C342 C343 1.383 . S
C342 H365 0.931 . S
C343 C342 1.383 . S
C343 C344 1.394 . S
C344 C343 1.394 . S
C344 C345 1.378 . S
C344 H366 0.931 1_545 S
C345 C340 1.377 . S
C345 C344 1.378 . S
C345 H367 0.931 1_545 S
C346 O356 1.259 . S
C346 O357 1.270 . S
C347 O358 1.251 1_565 S
C347 O359 1.251 . S
O348 C328 1.257 . S
O348 Eu329 2.473 . S
O349 C328 1.260 . S
O349 Eu329 2.480 . S
O350 Eu329 2.430 . S
O350 C336 1.259 . S
O351 Eu329 2.670 . S
O351 C336 1.270 . S
O351 Eu339 2.355 1_565 S
O352 Eu329 2.394 . S
O352 C337 1.251 1_565 S
O353 C337 1.251 . S
O353 Eu339 2.374 . S
O354 C338 1.257 . S
O354 Eu339 2.473 . S
O355 C338 1.260 . S
O355 Eu339 2.480 . S
O356 Eu339 2.430 . S
O356 C346 1.259 . S
O357 Eu329 2.355 1_545 S
O357 Eu339 2.670 . S
O357 C346 1.270 . S
O358 Eu339 2.394 . S
O358 C347 1.251 1_545 S
O359 Eu329 2.374 . S
O359 C347 1.251 . S
H360 C331 0.931 . S
H361 C332 0.931 . S
H362 C334 0.931 1_545 S
H363 C335 0.931 1_545 S
H364 C341 0.931 . S
H365 C342 0.931 . S
H366 C344 0.931 1_565 S
H367 C345 0.931 1_565 S
C368 Eu369 2.835 . S
C368 C370 1.500 . S
C368 O388 1.257 . S
C368 O389 1.260 . S
Eu369 C368 2.835 . S
Eu369 O388 2.473 . S
Eu369 O389 2.480 . S
Eu369 O390 2.430 . S
Eu369 O391 2.670 . S
Eu369 O392 2.394 . S
Eu369 O397 2.355 . S
Eu369 O399 2.374 . S
C370 C368 1.500 . S
C370 C371 1.377 . S
C370 C375 1.377 . S
C371 C370 1.377 . S
C371 C372 1.395 . S
C371 H400 0.931 . S
C372 C371 1.395 . S
C372 C373 1.383 . S
C372 H401 0.931 . S
C373 C372 1.383 . S
C373 C374 1.394 . S
C374 C373 1.394 . S
C374 C375 1.378 . S
C374 H402 0.931 . S
C375 C370 1.377 . S
C375 C374 1.378 . S
C375 H403 0.931 . S
C376 O390 1.259 . S
C376 O391 1.270 . S
C377 O392 1.251 . S
C377 O393 1.251 . S
C378 Eu379 2.835 . S
C378 C380 1.500 . S
C378 O394 1.257 . S
C378 O395 1.260 . S
Eu379 C378 2.835 . S
Eu379 O391 2.355 . S
Eu379 O393 2.374 . S
Eu379 O394 2.473 . S
Eu379 O395 2.480 . S
Eu379 O396 2.430 . S
Eu379 O397 2.670 . S
Eu379 O398 2.394 . S
C380 C378 1.500 . S
C380 C381 1.377 . S
C380 C385 1.377 . S
C381 C380 1.377 . S
C381 C382 1.395 . S
C381 H404 0.931 . S
C382 C381 1.395 . S
C382 C383 1.383 . S
C382 H405 0.931 . S
C383 C382 1.383 . S
C383 C384 1.394 . S
C384 C383 1.394 . S
C384 C385 1.378 . S
C384 H406 0.931 . S
C385 C380 1.377 . S
C385 C384 1.378 . S
C385 H407 0.931 . S
C386 O396 1.259 . S
C386 O397 1.270 . S
C387 O398 1.251 . S
C387 O399 1.251 . S
O388 C368 1.257 . S
O388 Eu369 2.473 . S
O389 C368 1.260 . S
O389 Eu369 2.480 . S
O390 Eu369 2.430 . S
O390 C376 1.259 . S
O391 Eu369 2.670 . S
O391 C376 1.270 . S
O391 Eu379 2.355 . S
O392 Eu369 2.394 . S
O392 C377 1.251 . S
O393 C377 1.251 . S
O393 Eu379 2.374 . S
O394 C378 1.257 . S
O394 Eu379 2.473 . S
O395 C378 1.260 . S
O395 Eu379 2.480 . S
O396 Eu379 2.430 . S
O396 C386 1.259 . S
O397 Eu369 2.355 . S
O397 Eu379 2.670 . S
O397 C386 1.270 . S
O398 Eu379 2.394 . S
O398 C387 1.251 . S
O399 Eu369 2.374 . S
O399 C387 1.251 . S
H400 C371 0.931 . S
H401 C372 0.931 . S
H402 C374 0.931 . S
H403 C375 0.931 . S
H404 C381 0.931 . S
H405 C382 0.931 . S
H406 C384 0.931 . S
H407 C385 0.931 . S
C408 Eu409 2.835 . S
C408 C410 1.500 . S
C408 O428 1.257 . S
C408 O429 1.260 . S
Eu409 C408 2.835 . S
Eu409 O428 2.473 . S
Eu409 O429 2.480 . S
Eu409 O430 2.430 . S
Eu409 O431 2.670 1_455 S
Eu409 O432 2.394 . S
Eu409 O437 2.355 . S
Eu409 O439 2.374 1_455 S
C410 C408 1.500 . S
C410 C411 1.377 . S
C410 C415 1.377 . S
C411 C410 1.377 . S
C411 C412 1.395 . S
C411 H440 0.931 . S
C412 C411 1.395 . S
C412 C413 1.383 . S
C412 H441 0.931 . S
C413 C412 1.383 . S
C413 C414 1.394 . S
C414 C413 1.394 . S
C414 C415 1.378 . S
C414 H442 0.931 . S
C415 C410 1.377 . S
C415 C414 1.378 . S
C415 H443 0.931 . S
C416 O430 1.276 . S
C416 O431 1.258 1_455 S
C417 O432 1.251 . S
C417 O433 1.251 . S
C418 Eu419 2.835 . S
C418 C420 1.500 . S
C418 O434 1.257 . S
C418 O435 1.260 . S
Eu419 C418 2.835 . S
Eu419 O431 2.355 . S
Eu419 O433 2.374 1_655 S
Eu419 O434 2.473 . S
Eu419 O435 2.480 . S
Eu419 O436 2.430 . S
Eu419 O437 2.670 1_655 S
Eu419 O438 2.394 . S
C420 C418 1.500 . S
C420 C421 1.377 . S
C420 C425 1.377 . S
C421 C420 1.377 . S
C421 C422 1.395 . S
C421 H444 0.931 . S
C422 C421 1.395 . S
C422 C423 1.383 . S
C422 H445 0.931 . S
C423 C422 1.383 . S
C423 C424 1.394 . S
C424 C423 1.394 . S
C424 C425 1.378 . S
C424 H446 0.931 . S
C425 C420 1.377 . S
C425 C424 1.378 . S
C425 H447 0.931 . S
C426 O436 1.269 . S
C426 O437 1.263 1_655 S
C427 O438 1.251 . S
C427 O439 1.251 . S
O428 C408 1.257 . S
O428 Eu409 2.473 . S
O429 C408 1.260 . S
O429 Eu409 2.480 . S
O430 Eu409 2.430 . S
O430 C416 1.276 . S
O431 Eu409 2.670 1_655 S
O431 C416 1.258 1_655 S
O431 Eu419 2.355 . S
O432 Eu409 2.394 . S
O432 C417 1.251 . S
O433 C417 1.251 . S
O433 Eu419 2.374 1_455 S
O434 C418 1.257 . S
O434 Eu419 2.473 . S
O435 C418 1.260 . S
O435 Eu419 2.480 . S
O436 Eu419 2.430 . S
O436 C426 1.269 . S
O437 Eu409 2.355 . S
O437 Eu419 2.670 1_455 S
O437 C426 1.263 1_455 S
O438 Eu419 2.394 . S
O438 C427 1.251 . S
O439 Eu409 2.374 1_655 S
O439 C427 1.251 . S
H440 C411 0.931 . S
H441 C412 0.931 . S
H442 C414 0.931 . S
H443 C415 0.931 . S
H444 C421 0.931 . S
H445 C422 0.931 . S
H446 C424 0.931 . S
H447 C425 0.931 . S
C448 C449 1.352 . S
C448 C450 1.327 . S
C448 H473 0.950 . S
C449 C448 1.352 . S
C449 C465 1.346 1_545 S
C450 C448 1.327 . S
C450 C469 1.438 . S
C450 H474 0.950 . S
C451 C468 1.574 . S
C451 C470 1.354 1_565 S
C451 H475 0.949 . S
H452 C456 0.949 . S
C453 C454 1.319 1_565 S
C453 C455 1.327 . S
C453 H476 0.950 . S
C454 C453 1.319 1_545 S
C454 C466 1.379 . S
C455 C453 1.327 . S
C455 C471 1.406 1_565 S
C455 H477 0.950 . S
C456 H452 0.949 . S
C456 C464 1.574 . S
C456 C472 1.389 . S
H457 C465 0.950 . S
H458 C463 0.950 . S
H459 C464 0.949 . S
H460 C466 0.950 . S
H461 C467 0.950 . S
H462 C468 0.949 . S
C463 H458 0.950 . S
C463 C465 1.327 . S
C463 C469 1.419 1_565 S
C464 C456 1.574 . S
C464 H459 0.949 . S
C464 C470 1.383 . S
C465 C449 1.346 1_565 S
C465 H457 0.950 . S
C465 C463 1.327 . S
C466 C454 1.379 . S
C466 H460 0.950 . S
C466 C467 1.327 . S
C467 H461 0.950 . S
C467 C466 1.327 . S
C467 C471 1.451 . S
C468 C451 1.574 . S
C468 H462 0.949 . S
C468 C472 1.348 1_565 S
C469 C450 1.438 . S
C469 C463 1.419 1_545 S
C469 C470 1.523 . S
C470 C451 1.354 1_545 S
C470 C464 1.383 . S
C470 C469 1.523 . S
C471 C455 1.406 1_545 S
C471 C467 1.451 . S
C471 C472 1.523 . S
C472 C456 1.389 . S
C472 C468 1.348 1_545 S
C472 C471 1.523 . S
H473 C448 0.950 . S
H474 C450 0.950 . S
H475 C451 0.949 . S
H476 C453 0.950 . S
H477 C455 0.950 . S
C478 C479 1.349 . S
C478 C480 1.327 . S
C478 H503 0.950 . S
C479 C478 1.349 . S
C479 C495 1.349 . S
C480 C478 1.327 . S
C480 C499 1.429 . S
C480 H504 0.950 . S
C481 C498 1.574 . S
C481 C500 1.368 . S
C481 H505 0.949 . S
H482 C486 0.949 . S
C483 C484 1.349 . S
C483 C485 1.327 . S
C483 H506 0.950 . S
C484 C483 1.349 . S
C484 C496 1.349 . S
C485 C483 1.327 . S
C485 C501 1.429 . S
C485 H507 0.950 . S
C486 H482 0.949 . S
C486 C494 1.574 . S
C486 C502 1.368 . S
H487 C495 0.950 . S
H488 C493 0.950 . S
H489 C494 0.949 . S
H490 C496 0.950 . S
H491 C497 0.950 . S
H492 C498 0.949 . S
C493 H488 0.950 . S
C493 C495 1.327 . S
C493 C499 1.429 . S
C494 C486 1.574 . S
C494 H489 0.949 . S
C494 C500 1.368 . S
C495 C479 1.349 . S
C495 H487 0.950 . S
C495 C493 1.327 . S
C496 C484 1.349 . S
C496 H490 0.950 . S
C496 C497 1.327 . S
C497 H491 0.950 . S
C497 C496 1.327 . S
C497 C501 1.429 . S
C498 C481 1.574 . S
C498 H492 0.949 . S
C498 C502 1.368 . S
C499 C480 1.429 . S
C499 C493 1.429 . S
C499 C500 1.523 . S
C500 C481 1.368 . S
C500 C494 1.368 . S
C500 C499 1.523 . S
C501 C485 1.429 . S
C501 C497 1.429 . S
C501 C502 1.523 . S
C502 C486 1.368 . S
C502 C498 1.368 . S
C502 C501 1.523 . S
H503 C478 0.950 . S
H504 C480 0.950 . S
H505 C481 0.949 . S
H506 C483 0.950 . S
H507 C485 0.950 . S
C508 C509 1.349 . S
C508 C510 1.327 . S
C508 H533 0.950 . S
C509 C508 1.349 . S
C509 C525 1.349 . S
C510 C508 1.327 . S
C510 C529 1.429 . S
C510 H534 0.950 . S
C511 C528 1.574 . S
C511 C530 1.368 . S
C511 H535 0.949 . S
H512 C516 0.949 . S
C513 C514 1.349 . S
C513 C515 1.327 . S
C513 H536 0.950 . S
C514 C513 1.349 . S
C514 C526 1.349 . S
C515 C513 1.327 . S
C515 C531 1.429 . S
C515 H537 0.950 . S
C516 H512 0.949 . S
C516 C524 1.574 . S
C516 C532 1.368 . S
H517 C525 0.950 . S
H518 C523 0.950 . S
H519 C524 0.949 . S
H520 C526 0.950 . S
H521 C527 0.950 . S
H522 C528 0.949 . S
C523 H518 0.950 . S
C523 C525 1.327 . S
C523 C529 1.429 . S
C524 C516 1.574 . S
C524 H519 0.949 . S
C524 C530 1.368 . S
C525 C509 1.349 . S
C525 H517 0.950 . S
C525 C523 1.327 . S
C526 C514 1.349 . S
C526 H520 0.950 . S
C526 C527 1.327 . S
C527 H521 0.950 . S
C527 C526 1.327 . S
C527 C531 1.429 . S
C528 C511 1.574 . S
C528 H522 0.949 . S
C528 C532 1.368 . S
C529 C510 1.429 . S
C529 C523 1.429 . S
C529 C530 1.523 . S
C530 C511 1.368 . S
C530 C524 1.368 . S
C530 C529 1.523 . S
C531 C515 1.429 . S
C531 C527 1.429 . S
C531 C532 1.523 . S
C532 C516 1.368 . S
C532 C528 1.368 . S
C532 C531 1.523 . S
H533 C508 0.950 . S
H534 C510 0.950 . S
H535 C511 0.949 . S
H536 C513 0.950 . S
H537 C515 0.950 . S
C538 C539 1.351 . S
C538 C540 1.327 . S
C538 H563 0.950 . S
C539 C538 1.351 . S
C539 C555 1.347 1_455 S
C540 C538 1.327 . S
C540 C559 1.436 . S
C540 H564 0.950 . S
C541 C558 1.574 . S
C541 C560 1.358 1_655 S
C541 H565 0.949 . S
H542 C546 0.949 . S
C543 C544 1.327 1_655 S
C543 C545 1.327 . S
C543 H566 0.950 . S
C544 C543 1.327 1_455 S
C544 C556 1.372 . S
C545 C543 1.327 . S
C545 C561 1.412 1_655 S
C545 H567 0.950 . S
C546 H542 0.949 . S
C546 C554 1.574 . S
C546 C562 1.384 . S
H547 C555 0.950 . S
H548 C553 0.950 . S
H549 C554 0.949 . S
H550 C556 0.950 . S
H551 C557 0.950 . S
H552 C558 0.949 . S
C553 H548 0.950 . S
C553 C555 1.327 . S
C553 C559 1.422 1_655 S
C554 C546 1.574 . S
C554 H549 0.949 . S
C554 C560 1.379 . S
C555 C539 1.347 1_655 S
C555 H547 0.950 . S
C555 C553 1.327 . S
C556 C544 1.372 . S
C556 H550 0.950 . S
C556 C557 1.327 . S
C557 H551 0.950 . S
C557 C556 1.327 . S
C557 C561 1.446 . S
C558 C541 1.574 . S
C558 H552 0.949 . S
C558 C562 1.353 1_655 S
C559 C540 1.436 . S
C559 C553 1.422 1_455 S
C559 C560 1.523 . S
C560 C541 1.358 1_455 S
C560 C554 1.379 . S
C560 C559 1.523 . S
C561 C545 1.412 1_455 S
C561 C557 1.446 . S
C561 C562 1.523 . S
C562 C546 1.384 . S
C562 C558 1.353 1_455 S
C562 C561 1.523 . S
H563 C538 0.950 . S
H564 C540 0.950 . S
H565 C541 0.949 . S
H566 C543 0.950 . S
H567 C545 0.950 . S
C568 C569 1.352 1_565 S
C568 C570 1.327 . S
C568 H593 0.950 . S
C569 C568 1.352 1_545 S
C569 C585 1.345 . S
C570 C568 1.327 . S
C570 C589 1.428 . S
C570 H594 0.950 . S
C571 C588 1.574 1_554 S
C571 C590 1.365 1_545 S
C571 H595 0.949 . S
H572 C576 0.949 . S
C573 C574 1.330 1_545 S
C573 C575 1.327 . S
C573 H596 0.950 . S
C574 C573 1.330 1_565 S
C574 C586 1.368 . S
C575 C573 1.327 . S
C575 C591 1.416 1_545 S
C575 H597 0.950 . S
C576 H572 0.949 . S
C576 C584 1.574 . S
C576 C592 1.378 . S
H577 C585 0.950 . S
H578 C583 0.950 . S
H579 C584 0.951 . S
H580 C586 0.950 . S
H581 C587 0.950 . S
H582 C588 0.949 . S
C583 H578 0.950 . S
C583 C585 1.327 . S
C583 C589 1.429 1_545 S
C584 C576 1.574 . S
C584 H579 0.951 . S
C584 C590 1.372 1_556 S
C585 C569 1.345 . S
C585 H577 0.950 . S
C585 C583 1.327 . S
C586 C574 1.368 . S
C586 H580 0.950 . S
C586 C587 1.327 . S
C587 H581 0.950 . S
C587 C586 1.327 . S
C587 C591 1.441 . S
C588 C571 1.574 1_556 S
C588 H582 0.949 . S
C588 C592 1.359 1_545 S
C589 C570 1.428 . S
C589 C583 1.429 1_565 S
C589 C590 1.523 . S
C590 C571 1.365 1_565 S
C590 C584 1.372 1_554 S
C590 C589 1.523 . S
C591 C575 1.416 1_565 S
C591 C587 1.441 . S
C591 C592 1.523 . S
C592 C576 1.378 . S
C592 C588 1.359 1_565 S
C592 C591 1.523 . S
H593 C568 0.950 . S
H594 C570 0.950 . S
H595 C571 0.949 . S
H596 C573 0.950 . S
H597 C575 0.950 . S
C598 C599 1.349 . S
C598 C600 1.327 . S
C598 H623 0.950 . S
C599 C598 1.349 . S
C599 C615 1.349 . S
C600 C598 1.327 . S
C600 C619 1.429 . S
C600 H624 0.950 . S
C601 C618 1.574 1_554 S
C601 C620 1.368 . S
C601 H625 0.949 . S
H602 C606 0.949 . S
C603 C604 1.349 . S
C603 C605 1.327 . S
C603 H626 0.950 . S
C604 C603 1.349 . S
C604 C616 1.349 . S
C605 C603 1.327 . S
C605 C621 1.429 . S
C605 H627 0.950 . S
C606 H602 0.949 . S
C606 C614 1.574 . S
C606 C622 1.368 . S
H607 C615 0.950 . S
H608 C613 0.950 . S
H609 C614 0.949 . S
H610 C616 0.950 . S
H611 C617 0.950 . S
H612 C618 0.949 . S
C613 H608 0.950 . S
C613 C615 1.327 . S
C613 C619 1.429 . S
C614 C606 1.574 . S
C614 H609 0.949 . S
C614 C620 1.368 1_556 S
C615 C599 1.349 . S
C615 H607 0.950 . S
C615 C613 1.327 . S
C616 C604 1.349 . S
C616 H610 0.950 . S
C616 C617 1.327 . S
C617 H611 0.950 . S
C617 C616 1.327 . S
C617 C621 1.429 . S
C618 C601 1.574 1_556 S
C618 H612 0.949 . S
C618 C622 1.368 . S
C619 C600 1.429 . S
C619 C613 1.429 . S
C619 C620 1.523 . S
C620 C601 1.368 . S
C620 C614 1.368 1_554 S
C620 C619 1.523 . S
C621 C605 1.429 . S
C621 C617 1.429 . S
C621 C622 1.523 . S
C622 C606 1.368 . S
C622 C618 1.368 . S
C622 C621 1.523 . S
H623 C598 0.950 . S
H624 C600 0.950 . S
H625 C601 0.949 . S
H626 C603 0.950 . S
H627 C605 0.950 . S
C628 C629 1.349 . S
C628 C630 1.327 . S
C628 H653 0.950 . S
C629 C628 1.349 . S
C629 C645 1.349 . S
C630 C628 1.327 . S
C630 C649 1.429 . S
C630 H654 0.950 . S
C631 C648 1.574 1_554 S
C631 C650 1.368 . S
C631 H655 0.949 . S
H632 C636 0.949 . S
C633 C634 1.349 . S
C633 C635 1.327 . S
C633 H656 0.950 . S
C634 C633 1.349 . S
C634 C646 1.349 . S
C635 C633 1.327 . S
C635 C651 1.429 . S
C635 H657 0.950 . S
C636 H632 0.949 . S
C636 C644 1.574 . S
C636 C652 1.368 . S
H637 C645 0.950 . S
H638 C643 0.950 . S
H639 C644 0.950 . S
H640 C646 0.950 . S
H641 C647 0.950 . S
H642 C648 0.949 . S
C643 H638 0.950 . S
C643 C645 1.327 . S
C643 C649 1.429 . S
C644 C636 1.574 . S
C644 H639 0.950 . S
C644 C650 1.368 1_556 S
C645 C629 1.349 . S
C645 H637 0.950 . S
C645 C643 1.327 . S
C646 C634 1.349 . S
C646 H640 0.950 . S
C646 C647 1.327 . S
C647 H641 0.950 . S
C647 C646 1.327 . S
C647 C651 1.429 . S
C648 C631 1.574 1_556 S
C648 H642 0.949 . S
C648 C652 1.368 . S
C649 C630 1.429 . S
C649 C643 1.429 . S
C649 C650 1.523 . S
C650 C631 1.368 . S
C650 C644 1.368 1_554 S
C650 C649 1.523 . S
C651 C635 1.429 . S
C651 C647 1.429 . S
C651 C652 1.523 . S
C652 C636 1.368 . S
C652 C648 1.368 . S
C652 C651 1.523 . S
H653 C628 0.950 . S
H654 C630 0.950 . S
H655 C631 0.949 . S
H656 C633 0.950 . S
H657 C635 0.950 . S
C658 C659 1.348 1_455 S
C658 C660 1.327 . S
C658 H683 0.950 . S
C659 C658 1.348 1_655 S
C659 C675 1.350 . S
C660 C658 1.327 . S
C660 C679 1.426 1_455 S
C660 H684 0.950 . S
C661 C678 1.574 1_554 S
C661 C680 1.372 . S
C661 H685 0.949 . S
H662 C666 0.949 . S
C663 C664 1.357 . S
C663 C665 1.327 . S
C663 H686 0.950 . S
C664 C663 1.357 . S
C664 C676 1.343 1_655 S
C665 C663 1.327 . S
C665 C681 1.434 . S
C665 H687 0.950 . S
C666 H662 0.949 . S
C666 C674 1.574 . S
C666 C682 1.364 1_455 S
H667 C675 0.950 . S
H668 C673 0.950 . S
H669 C674 0.949 . S
H670 C676 0.950 . S
H671 C677 0.950 . S
H672 C678 0.949 . S
C673 H668 0.950 . S
C673 C675 1.327 . S
C673 C679 1.431 . S
C674 C666 1.574 . S
C674 H669 0.949 . S
C674 C680 1.365 1_456 S
C675 C659 1.350 . S
C675 H667 0.950 . S
C675 C673 1.327 . S
C676 C664 1.343 1_455 S
C676 H670 0.950 . S
C676 C677 1.327 . S
C677 H671 0.950 . S
C677 C676 1.327 . S
C677 C681 1.424 1_455 S
C678 C661 1.574 1_556 S
C678 H672 0.949 . S
C678 C682 1.374 . S
C679 C660 1.426 1_655 S
C679 C673 1.431 . S
C679 C680 1.523 . S
C680 C661 1.372 . S
C680 C674 1.365 1_654 S
C680 C679 1.523 . S
C681 C665 1.434 . S
C681 C677 1.424 1_655 S
C681 C682 1.523 . S
C682 C666 1.364 1_655 S
C682 C678 1.374 . S
C682 C681 1.523 . S
H683 C658 0.950 . S
H684 C660 0.950 . S
H685 C661 0.949 . S
H686 C663 0.950 . S
H687 C665 0.950 . S
C688 C689 1.349 . S
C688 C690 1.327 . S
C688 H713 0.950 . S
C689 C688 1.349 . S
C689 C705 1.349 1_455 S
C690 C688 1.327 . S
C690 C709 1.429 1_455 S
C690 H714 0.950 . S
C691 C708 1.574 . S
C691 C710 1.368 . S
C691 H715 0.949 . S
H692 C696 0.949 . S
C693 C694 1.349 . S
C693 C695 1.327 . S
C693 H716 0.950 . S
C694 C693 1.349 . S
C694 C706 1.349 . S
C695 C693 1.327 . S
C695 C711 1.429 . S
C695 H717 0.950 . S
C696 H692 0.949 . S
C696 C704 1.574 . S
C696 C712 1.368 1_455 S
H697 C705 0.950 . S
H698 C703 0.950 . S
H699 C704 0.949 . S
H700 C706 0.950 1_455 S
H701 C707 0.950 1_455 S
H702 C708 0.949 . S
C703 H698 0.950 . S
C703 C705 1.327 . S
C703 C709 1.429 . S
C704 C696 1.574 . S
C704 H699 0.949 . S
C704 C710 1.368 1_455 S
C705 C689 1.349 1_655 S
C705 H697 0.950 . S
C705 C703 1.327 . S
C706 C694 1.349 . S
C706 H700 0.950 1_655 S
C706 C707 1.327 . S
C707 H701 0.950 1_655 S
C707 C706 1.327 . S
C707 C711 1.429 . S
C708 C691 1.574 . S
C708 H702 0.949 . S
C708 C712 1.368 . S
C709 C690 1.429 1_655 S
C709 C703 1.429 . S
C709 C710 1.523 . S
C710 C691 1.368 . S
C710 C704 1.368 1_655 S
C710 C709 1.523 . S
C711 C695 1.429 . S
C711 C707 1.429 . S
C711 C712 1.523 . S
C712 C696 1.368 1_655 S
C712 C708 1.368 . S
C712 C711 1.523 . S
H713 C688 0.950 . S
H714 C690 0.950 . S
H715 C691 0.949 . S
H716 C693 0.950 . S
H717 C695 0.950 . S
C718 C719 1.349 . S
C718 C720 1.327 . S
C718 H743 0.950 . S
C719 C718 1.349 . S
C719 C735 1.349 1_545 S
C720 C718 1.327 . S
C720 C739 1.429 1_545 S
C720 H744 0.950 . S
C721 C738 1.574 . S
C721 C740 1.368 . S
C721 H745 0.949 . S
H722 C726 0.949 . S
C723 C724 1.349 . S
C723 C725 1.327 . S
C723 H746 0.950 . S
C724 C723 1.349 . S
C724 C736 1.349 . S
C725 C723 1.327 . S
C725 C741 1.429 . S
C725 H747 0.950 . S
C726 H722 0.949 . S
C726 C734 1.574 . S
C726 C742 1.368 1_545 S
H727 C735 0.950 . S
H728 C733 0.950 . S
H729 C734 0.949 . S
H730 C736 0.964 . S
H731 C737 0.950 1_545 S
H732 C738 0.949 . S
C733 H728 0.950 . S
C733 C735 1.327 . S
C733 C739 1.429 . S
C734 C726 1.574 . S
C734 H729 0.949 . S
C734 C740 1.368 1_545 S
C735 C719 1.349 1_565 S
C735 H727 0.950 . S
C735 C733 1.327 . S
C736 C724 1.349 . S
C736 H730 0.964 . S
C736 C737 1.327 . S
C737 H731 0.950 1_565 S
C737 C736 1.327 . S
C737 C741 1.429 . S
C738 C721 1.574 . S
C738 H732 0.949 . S
C738 C742 1.368 . S
C739 C720 1.429 1_565 S
C739 C733 1.429 . S
C739 C740 1.523 . S
C740 C721 1.368 . S
C740 C734 1.368 1_565 S
C740 C739 1.523 . S
C741 C725 1.429 . S
C741 C737 1.429 . S
C741 C742 1.523 . S
C742 C726 1.368 1_565 S
C742 C738 1.368 . S
C742 C741 1.523 . S
H743 C718 0.950 . S
H744 C720 0.950 . S
H745 C721 0.949 . S
H746 C723 0.950 . S
H747 C725 0.950 . S
C748 C749 1.349 . S
C748 C750 1.327 . S
C748 H773 0.950 . S
C749 C748 1.349 . S
C749 C765 1.349 . S
C750 C748 1.327 . S
C750 C769 1.429 . S
C750 H774 0.950 . S
C751 C768 1.574 . S
C751 C770 1.368 . S
C751 H775 0.949 . S
H752 C756 0.949 . S
C753 C754 1.349 . S
C753 C755 1.327 . S
C753 H776 0.950 . S
C754 C753 1.349 . S
C754 C766 1.349 . S
C755 C753 1.327 . S
C755 C771 1.429 . S
C755 H777 0.950 . S
C756 H752 0.949 . S
C756 C764 1.574 . S
C756 C772 1.368 . S
H757 C765 0.950 . S
H758 C763 0.950 . S
H759 C764 0.949 . S
H760 C766 0.950 . S
H761 C767 0.950 . S
H762 C768 0.949 . S
C763 H758 0.950 . S
C763 C765 1.327 . S
C763 C769 1.429 . S
C764 C756 1.574 . S
C764 H759 0.949 . S
C764 C770 1.368 . S
C765 C749 1.349 . S
C765 H757 0.950 . S
C765 C763 1.327 . S
C766 C754 1.349 . S
C766 H760 0.950 . S
C766 C767 1.327 . S
C767 H761 0.950 . S
C767 C766 1.327 . S
C767 C771 1.429 . S
C768 C751 1.574 . S
C768 H762 0.949 . S
C768 C772 1.368 . S
C769 C750 1.429 . S
C769 C763 1.429 . S
C769 C770 1.523 . S
C770 C751 1.368 . S
C770 C764 1.368 . S
C770 C769 1.523 . S
C771 C755 1.429 . S
C771 C767 1.429 . S
C771 C772 1.523 . S
C772 C756 1.368 . S
C772 C768 1.368 . S
C772 C771 1.523 . S
H773 C748 0.950 . S
H774 C750 0.950 . S
H775 C751 0.949 . S
H776 C753 0.950 . S
H777 C755 0.950 . S
C778 C779 1.349 . S
C778 C780 1.327 . S
C778 H803 0.950 . S
C779 C778 1.349 . S
C779 C795 1.349 . S
C780 C778 1.327 . S
C780 C799 1.429 . S
C780 H804 0.950 . S
C781 C798 1.574 . S
C781 C800 1.368 . S
C781 H805 0.949 . S
H782 C786 0.949 . S
C783 C784 1.349 . S
C783 C785 1.327 . S
C783 H806 0.950 . S
C784 C783 1.349 . S
C784 C796 1.349 . S
C785 C783 1.327 . S
C785 C801 1.429 . S
C785 H807 0.950 . S
C786 H782 0.949 . S
C786 C794 1.574 . S
C786 C802 1.368 . S
H787 C795 0.950 . S
H788 C793 0.950 . S
H789 C794 0.949 . S
H790 C796 0.950 . S
H791 C797 0.950 . S
H792 C798 0.949 . S
C793 H788 0.950 . S
C793 C795 1.327 . S
C793 C799 1.429 . S
C794 C786 1.574 . S
C794 H789 0.949 . S
C794 C800 1.368 . S
C795 C779 1.349 . S
C795 H787 0.950 . S
C795 C793 1.327 . S
C796 C784 1.349 . S
C796 H790 0.950 . S
C796 C797 1.327 . S
C797 H791 0.950 . S
C797 C796 1.327 . S
C797 C801 1.429 . S
C798 C781 1.574 . S
C798 H792 0.949 . S
C798 C802 1.368 . S
C799 C780 1.429 . S
C799 C793 1.429 . S
C799 C800 1.523 . S
C800 C781 1.368 . S
C800 C794 1.368 . S
C800 C799 1.523 . S
C801 C785 1.429 . S
C801 C797 1.429 . S
C801 C802 1.523 . S
C802 C786 1.368 . S
C802 C798 1.368 . S
C802 C801 1.523 . S
H803 C778 0.950 . S
H804 C780 0.950 . S
H805 C781 0.949 . S
H806 C783 0.950 . S
H807 C785 0.950 . S
C808 C809 1.349 . S
C808 C810 1.327 . S
C808 H833 0.950 . S
C809 C808 1.349 . S
C809 C825 1.349 1_655 S
C810 C808 1.327 . S
C810 C829 1.429 1_655 S
C810 H834 0.950 . S
C811 C828 1.574 1_554 S
C811 C830 1.368 . S
C811 H835 0.949 . S
H812 C816 0.949 . S
C813 C814 1.349 . S
C813 C815 1.327 . S
C813 H836 0.950 . S
C814 C813 1.349 . S
C814 C826 1.349 . S
C815 C813 1.327 . S
C815 C831 1.429 . S
C815 H837 0.950 . S
C816 H812 0.949 . S
C816 C824 1.574 . S
C816 C832 1.368 1_655 S
H817 C825 0.950 . S
H818 C823 0.950 . S
H819 C824 0.949 . S
H820 C826 0.950 1_655 S
H821 C827 0.950 1_655 S
H822 C828 0.949 . S
C823 H818 0.950 . S
C823 C825 1.327 . S
C823 C829 1.429 . S
C824 C816 1.574 . S
C824 H819 0.949 . S
C824 C830 1.368 1_656 S
C825 C809 1.349 1_455 S
C825 H817 0.950 . S
C825 C823 1.327 . S
C826 C814 1.349 . S
C826 H820 0.950 1_455 S
C826 C827 1.327 . S
C827 H821 0.950 1_455 S
C827 C826 1.327 . S
C827 C831 1.429 . S
C828 C811 1.574 1_556 S
C828 H822 0.949 . S
C828 C832 1.368 . S
C829 C810 1.429 1_455 S
C829 C823 1.429 . S
C829 C830 1.523 . S
C830 C811 1.368 . S
C830 C824 1.368 1_454 S
C830 C829 1.523 . S
C831 C815 1.429 . S
C831 C827 1.429 . S
C831 C832 1.523 . S
C832 C816 1.368 1_455 S
C832 C828 1.368 . S
C832 C831 1.523 . S
H833 C808 0.950 . S
H834 C810 0.950 . S
H835 C811 0.949 . S
H836 C813 0.950 . S
H837 C815 0.950 . S
C838 C839 1.349 . S
C838 C840 1.327 . S
C838 H863 0.950 . S
C839 C838 1.349 . S
C839 C855 1.349 1_565 S
C840 C838 1.327 . S
C840 C859 1.429 1_565 S
C840 H864 0.950 . S
C841 C858 1.574 1_554 S
C841 C860 1.368 . S
C841 H865 0.949 . S
H842 C846 0.949 . S
C843 C844 1.349 . S
C843 C845 1.327 . S
C843 H866 0.950 . S
C844 C843 1.349 . S
C844 C856 1.349 . S
C845 C843 1.327 . S
C845 C861 1.429 . S
C845 H867 0.950 . S
C846 H842 0.949 . S
C846 C854 1.574 . S
C846 C862 1.368 1_565 S
H847 C855 0.950 . S
H848 C853 0.950 . S
H849 C854 0.949 . S
H850 C856 0.993 . S
H851 C857 0.950 1_565 S
H852 C858 0.949 . S
C853 H848 0.950 . S
C853 C855 1.327 . S
C853 C859 1.429 . S
C854 C846 1.574 . S
C854 H849 0.949 . S
C854 C860 1.368 1_566 S
C855 C839 1.349 1_545 S
C855 H847 0.950 . S
C855 C853 1.327 . S
C856 C844 1.349 . S
C856 H850 0.993 . S
C856 C857 1.327 . S
C857 H851 0.950 1_545 S
C857 C856 1.327 . S
C857 C861 1.429 . S
C858 C841 1.574 1_556 S
C858 H852 0.949 . S
C858 C862 1.368 . S
C859 C840 1.429 1_545 S
C859 C853 1.429 . S
C859 C860 1.523 . S
C860 C841 1.368 . S
C860 C854 1.368 1_544 S
C860 C859 1.523 . S
C861 C845 1.429 . S
C861 C857 1.429 . S
C861 C862 1.523 . S
C862 C846 1.368 1_545 S
C862 C858 1.368 . S
C862 C861 1.523 . S
H863 C838 0.950 . S
H864 C840 0.950 . S
H865 C841 0.949 . S
H866 C843 0.950 . S
H867 C845 0.950 . S
C868 C869 1.349 . S
C868 C870 1.327 . S
C868 H893 0.950 . S
C869 C868 1.349 . S
C869 C885 1.349 . S
C870 C868 1.327 . S
C870 C889 1.429 . S
C870 H894 0.950 1_554 S
C871 C888 1.574 . S
C871 C890 1.368 . S
C871 H895 0.949 . S
H872 C876 0.949 . S
C873 C874 1.349 . S
C873 C875 1.327 . S
C873 H896 0.950 . S
C874 C873 1.349 . S
C874 C886 1.349 . S
C875 C873 1.327 . S
C875 C891 1.429 . S
C875 H897 0.950 . S
C876 H872 0.949 . S
C876 C884 1.574 . S
C876 C892 1.368 . S
H877 C885 0.950 . S
H878 C883 0.950 . S
H879 C884 0.949 . S
H880 C886 0.950 . S
H881 C887 0.950 . S
H882 C888 0.949 . S
C883 H878 0.950 . S
C883 C885 1.327 . S
C883 C889 1.429 . S
C884 C876 1.574 . S
C884 H879 0.949 . S
C884 C890 1.368 1_556 S
C885 C869 1.349 . S
C885 H877 0.950 . S
C885 C883 1.327 . S
C886 C874 1.349 . S
C886 H880 0.950 . S
C886 C887 1.327 . S
C887 H881 0.950 . S
C887 C886 1.327 . S
C887 C891 1.429 . S
C888 C871 1.574 . S
C888 H882 0.949 . S
C888 C892 1.368 1_554 S
C889 C870 1.429 . S
C889 C883 1.429 . S
C889 C890 1.523 . S
C890 C871 1.368 . S
C890 C884 1.368 1_554 S
C890 C889 1.523 . S
C891 C875 1.429 . S
C891 C887 1.429 . S
C891 C892 1.523 . S
C892 C876 1.368 . S
C892 C888 1.368 1_556 S
C892 C891 1.523 . S
H893 C868 0.950 . S
H894 C870 0.950 1_556 S
H895 C871 0.949 . S
H896 C873 0.950 . S
H897 C875 0.950 . S
C898 C899 1.349 . S
C898 C900 1.327 . S
C898 H923 0.950 . S
C899 C898 1.349 . S
C899 C915 1.349 . S
C900 C898 1.327 . S
C900 C919 1.429 . S
C900 H924 0.950 . S
C901 C918 1.574 1_554 S
C901 C920 1.368 . S
C901 H925 0.949 . S
H902 C906 0.949 . S
C903 C904 1.349 . S
C903 C905 1.327 . S
C903 H926 0.950 . S
C904 C903 1.349 . S
C904 C916 1.349 . S
C905 C903 1.327 . S
C905 C921 1.429 . S
C905 H927 0.950 . S
C906 H902 0.949 . S
C906 C914 1.574 . S
C906 C922 1.368 . S
H907 C915 0.950 . S
H908 C913 0.950 . S
H909 C914 0.949 . S
H910 C916 0.950 . S
H911 C917 0.950 . S
H912 C918 0.949 . S
C913 H908 0.950 . S
C913 C915 1.327 . S
C913 C919 1.429 . S
C914 C906 1.574 . S
C914 H909 0.949 . S
C914 C920 1.368 1_556 S
C915 C899 1.349 . S
C915 H907 0.950 . S
C915 C913 1.327 . S
C916 C904 1.349 . S
C916 H910 0.950 . S
C916 C917 1.327 . S
C917 H911 0.950 . S
C917 C916 1.327 . S
C917 C921 1.429 . S
C918 C901 1.574 1_556 S
C918 H912 0.949 . S
C918 C922 1.368 . S
C919 C900 1.429 . S
C919 C913 1.429 . S
C919 C920 1.523 . S
C920 C901 1.368 . S
C920 C914 1.368 1_554 S
C920 C919 1.523 . S
C921 C905 1.429 . S
C921 C917 1.429 . S
C921 C922 1.523 . S
C922 C906 1.368 . S
C922 C918 1.368 . S
C922 C921 1.523 . S
H923 C898 0.950 . S
H924 C900 0.950 . S
H925 C901 0.949 . S
H926 C903 0.950 . S
H927 C905 0.950 . S
C928 C929 1.349 . S
C928 C930 1.327 . S
C928 H953 0.950 . S
C929 C928 1.349 . S
C929 C945 1.349 1_455 S
C930 C928 1.327 . S
C930 C949 1.429 . S
C930 H954 0.950 . S
C931 C948 1.574 . S
C931 C950 1.368 1_655 S
C931 H955 0.949 . S
H932 C936 0.949 . S
C933 C934 1.349 1_655 S
C933 C935 1.327 . S
C933 H956 0.950 . S
C934 C933 1.349 1_455 S
C934 C946 1.349 . S
C935 C933 1.327 . S
C935 C951 1.429 1_655 S
C935 H957 0.950 . S
C936 H932 0.949 . S
C936 C944 1.574 . S
C936 C952 1.368 . S
H937 C945 0.950 . S
H938 C943 0.950 . S
H939 C944 0.949 . S
H940 C946 0.950 . S
H941 C947 0.950 . S
H942 C948 0.949 . S
C943 H938 0.950 . S
C943 C945 1.327 . S
C943 C949 1.429 1_655 S
C944 C936 1.574 . S
C944 H939 0.949 . S
C944 C950 1.368 . S
C945 C929 1.349 1_655 S
C945 H937 0.950 . S
C945 C943 1.327 . S
C946 C934 1.349 . S
C946 H940 0.950 . S
C946 C947 1.327 . S
C947 H941 0.950 . S
C947 C946 1.327 . S
C947 C951 1.429 . S
C948 C931 1.574 . S
C948 H942 0.949 . S
C948 C952 1.368 1_655 S
C949 C930 1.429 . S
C949 C943 1.429 1_455 S
C949 C950 1.523 . S
C950 C931 1.368 1_455 S
C950 C944 1.368 . S
C950 C949 1.523 . S
C951 C935 1.429 1_455 S
C951 C947 1.429 . S
C951 C952 1.523 . S
C952 C936 1.368 . S
C952 C948 1.368 1_455 S
C952 C951 1.523 . S
H953 C928 0.950 . S
H954 C930 0.950 . S
H955 C931 0.949 . S
H956 C933 0.950 . S
H957 C935 0.950 . S
C958 C959 1.349 1_565 S
C958 C960 1.327 . S
C958 H983 0.950 . S
C959 C958 1.349 1_545 S
C959 C975 1.349 . S
C960 C958 1.327 . S
C960 C979 1.429 1_565 S
C960 H984 0.950 . S
C961 C978 1.574 . S
C961 C980 1.368 . S
C961 H985 0.949 . S
H962 C966 0.949 . S
C963 C964 1.349 . S
C963 C965 1.327 . S
C963 H986 0.950 . S
C964 C963 1.349 . S
C964 C976 1.349 1_545 S
C965 C963 1.327 . S
C965 C981 1.429 . S
C965 H987 0.950 . S
C966 H962 0.949 . S
C966 C974 1.574 . S
C966 C982 1.368 1_565 S
H967 C975 0.950 . S
H968 C973 0.950 . S
H969 C974 0.949 . S
H970 C976 0.950 . S
H971 C977 0.950 . S
H972 C978 0.949 . S
C973 H968 0.950 . S
C973 C975 1.327 . S
C973 C979 1.429 . S
C974 C966 1.574 . S
C974 H969 0.949 . S
C974 C980 1.368 1_565 S
C975 C959 1.349 . S
C975 H967 0.950 . S
C975 C973 1.327 . S
C976 C964 1.349 1_565 S
C976 H970 0.950 . S
C976 C977 1.327 . S
C977 H971 0.950 . S
C977 C976 1.327 . S
C977 C981 1.429 1_565 S
C978 C961 1.574 . S
C978 H972 0.949 . S
C978 C982 1.368 . S
C979 C960 1.429 1_545 S
C979 C973 1.429 . S
C979 C980 1.523 . S
C980 C961 1.368 . S
C980 C974 1.368 1_545 S
C980 C979 1.523 . S
C981 C965 1.429 . S
C981 C977 1.429 1_545 S
C981 C982 1.523 . S
C982 C966 1.368 1_545 S
C982 C978 1.368 . S
C982 C981 1.523 . S
H983 C958 0.950 . S
H984 C960 0.950 . S
H985 C961 0.949 . S
H986 C963 0.950 . S
H987 C965 0.950 . S
C988 C989 1.349 . S
C988 C990 1.327 . S
C988 H1013 0.950 . S
C989 C988 1.349 . S
C989 C1005 1.349 . S
C990 C988 1.327 . S
C990 C1009 1.429 . S
C990 H1014 0.950 . S
C991 C1008 1.574 . S
C991 C1010 1.368 . S
C991 H1015 0.949 . S
H992 C996 0.949 . S
C993 C994 1.349 . S
C993 C995 1.327 . S
C993 H1016 0.950 . S
C994 C993 1.349 . S
C994 C1006 1.349 . S
C995 C993 1.327 . S
C995 C1011 1.429 . S
C995 H1017 0.950 . S
C996 H992 0.949 . S
C996 C1004 1.574 . S
C996 C1012 1.368 . S
H997 C1005 0.950 . S
H998 C1003 0.950 . S
H999 C1004 0.949 . S
H1000 C1006 0.950 . S
H1001 C1007 0.950 . S
H1002 C1008 0.949 . S
C1003 H998 0.950 . S
C1003 C1005 1.327 . S
C1003 C1009 1.429 . S
C1004 C996 1.574 . S
C1004 H999 0.949 . S
C1004 C1010 1.368 . S
C1005 C989 1.349 . S
C1005 H997 0.950 . S
C1005 C1003 1.327 . S
C1006 C994 1.349 . S
C1006 H1000 0.950 . S
C1006 C1007 1.327 . S
C1007 H1001 0.950 . S
C1007 C1006 1.327 . S
C1007 C1011 1.429 . S
C1008 C991 1.574 . S
C1008 H1002 0.949 . S
C1008 C1012 1.368 . S
C1009 C990 1.429 . S
C1009 C1003 1.429 . S
C1009 C1010 1.523 . S
C1010 C991 1.368 . S
C1010 C1004 1.368 . S
C1010 C1009 1.523 . S
C1011 C995 1.429 . S
C1011 C1007 1.429 . S
C1011 C1012 1.523 . S
C1012 C996 1.368 . S
C1012 C1008 1.368 . S
C1012 C1011 1.523 . S
H1013 C988 0.950 . S
H1014 C990 0.950 . S
H1015 C991 0.949 . S
H1016 C993 0.950 . S
H1017 C995 0.950 . S
C1018 C1019 1.349 . S
C1018 C1020 1.327 . S
C1018 H1043 0.950 . S
C1019 C1018 1.349 . S
C1019 C1035 1.349 . S
C1020 C1018 1.327 . S
C1020 C1039 1.429 . S
C1020 H1044 0.950 . S
C1021 C1038 1.574 . S
C1021 C1040 1.368 . S
C1021 H1045 0.949 . S
H1022 C1026 0.949 . S
C1023 C1024 1.349 . S
C1023 C1025 1.327 . S
C1023 H1046 0.950 . S
C1024 C1023 1.349 . S
C1024 C1036 1.349 . S
C1025 C1023 1.327 . S
C1025 C1041 1.429 . S
C1025 H1047 0.950 . S
C1026 H1022 0.949 . S
C1026 C1034 1.574 . S
C1026 C1042 1.368 . S
H1027 C1035 0.950 . S
H1028 C1033 0.950 . S
H1029 C1034 0.949 . S
H1030 C1036 0.950 . S
H1031 C1037 0.950 . S
H1032 C1038 0.949 . S
C1033 H1028 0.950 . S
C1033 C1035 1.327 . S
C1033 C1039 1.429 . S
C1034 C1026 1.574 . S
C1034 H1029 0.949 . S
C1034 C1040 1.368 . S
C1035 C1019 1.349 . S
C1035 H1027 0.950 . S
C1035 C1033 1.327 . S
C1036 C1024 1.349 . S
C1036 H1030 0.950 . S
C1036 C1037 1.327 . S
C1037 H1031 0.950 . S
C1037 C1036 1.327 . S
C1037 C1041 1.429 . S
C1038 C1021 1.574 . S
C1038 H1032 0.949 . S
C1038 C1042 1.368 . S
C1039 C1020 1.429 . S
C1039 C1033 1.429 . S
C1039 C1040 1.523 . S
C1040 C1021 1.368 . S
C1040 C1034 1.368 . S
C1040 C1039 1.523 . S
C1041 C1025 1.429 . S
C1041 C1037 1.429 . S
C1041 C1042 1.523 . S
C1042 C1026 1.368 . S
C1042 C1038 1.368 . S
C1042 C1041 1.523 . S
H1043 C1018 0.950 . S
H1044 C1020 0.950 . S
H1045 C1021 0.949 . S
H1046 C1023 0.950 . S
H1047 C1025 0.950 . S
C1048 C1049 1.349 1_455 S
C1048 C1050 1.327 . S
C1048 H1073 0.950 . S
C1049 C1048 1.349 1_655 S
C1049 C1065 1.349 . S
C1050 C1048 1.327 . S
C1050 C1069 1.429 1_455 S
C1050 H1074 0.950 . S
C1051 C1068 1.574 . S
C1051 C1070 1.368 . S
C1051 H1075 0.949 . S
H1052 C1056 0.949 . S
C1053 C1054 1.349 . S
C1053 C1055 1.327 . S
C1053 H1076 0.950 . S
C1054 C1053 1.349 . S
C1054 C1066 1.349 1_655 S
C1055 C1053 1.327 . S
C1055 C1071 1.429 . S
C1055 H1077 0.950 . S
C1056 H1052 0.949 . S
C1056 C1064 1.574 . S
C1056 C1072 1.368 1_455 S
H1057 C1065 0.950 . S
H1058 C1063 0.950 . S
H1059 C1064 0.949 . S
H1060 C1066 0.950 . S
H1061 C1067 0.950 . S
H1062 C1068 0.949 . S
C1063 H1058 0.950 . S
C1063 C1065 1.327 . S
C1063 C1069 1.429 . S
C1064 C1056 1.574 . S
C1064 H1059 0.949 . S
C1064 C1070 1.368 1_455 S
C1065 C1049 1.349 . S
C1065 H1057 0.950 . S
C1065 C1063 1.327 . S
C1066 C1054 1.349 1_455 S
C1066 H1060 0.950 . S
C1066 C1067 1.327 . S
C1067 H1061 0.950 . S
C1067 C1066 1.327 . S
C1067 C1071 1.429 1_455 S
C1068 C1051 1.574 . S
C1068 H1062 0.949 . S
C1068 C1072 1.368 . S
C1069 C1050 1.429 1_655 S
C1069 C1063 1.429 . S
C1069 C1070 1.523 . S
C1070 C1051 1.368 . S
C1070 C1064 1.368 1_655 S
C1070 C1069 1.523 . S
C1071 C1055 1.429 . S
C1071 C1067 1.429 1_655 S
C1071 C1072 1.523 . S
C1072 C1056 1.368 1_655 S
C1072 C1068 1.368 . S
C1072 C1071 1.523 . S
H1073 C1048 0.950 . S
H1074 C1050 0.950 . S
H1075 C1051 0.949 . S
H1076 C1053 0.950 . S
H1077 C1055 0.950 . S
C1078 C1079 1.294 1_545 S
C1078 C1080 1.327 . S
C1078 H1103 0.950 . S
C1079 C1078 1.294 1_565 S
C1079 C1095 1.407 . S
C1080 C1078 1.327 . S
C1080 C1099 1.429 1_545 S
C1080 H1104 0.950 . S
C1081 C1098 1.574 . S
C1081 C1100 1.368 . S
C1081 H1105 0.949 . S
H1082 C1086 0.949 . S
C1083 C1084 1.349 . S
C1083 C1085 1.327 . S
C1083 H1106 0.950 . S
C1084 C1083 1.349 . S
C1084 C1096 1.349 1_565 S
C1085 C1083 1.327 . S
C1085 C1101 1.429 . S
C1085 H1107 0.950 . S
C1086 H1082 0.949 . S
C1086 C1094 1.574 . S
C1086 C1102 1.368 1_545 S
H1087 C1095 0.950 . S
H1088 C1093 0.950 . S
H1089 C1094 0.949 . S
H1090 C1096 0.950 . S
H1091 C1097 0.950 . S
H1092 C1098 0.949 . S
C1093 H1088 0.950 . S
C1093 C1095 1.327 . S
C1093 C1099 1.429 . S
C1094 C1086 1.574 . S
C1094 H1089 0.949 . S
C1094 C1100 1.368 1_545 S
C1095 C1079 1.407 . S
C1095 H1087 0.950 . S
C1095 C1093 1.327 . S
C1096 C1084 1.349 1_545 S
C1096 H1090 0.950 . S
C1096 C1097 1.327 . S
C1097 H1091 0.950 . S
C1097 C1096 1.327 . S
C1097 C1101 1.429 1_545 S
C1098 C1081 1.574 . S
C1098 H1092 0.949 . S
C1098 C1102 1.368 . S
C1099 C1080 1.429 1_565 S
C1099 C1093 1.429 . S
C1099 C1100 1.523 . S
C1100 C1081 1.368 . S
C1100 C1094 1.368 1_565 S
C1100 C1099 1.523 . S
C1101 C1085 1.429 . S
C1101 C1097 1.429 1_565 S
C1101 C1102 1.523 . S
C1102 C1086 1.368 1_565 S
C1102 C1098 1.368 . S
C1102 C1101 1.523 . S
H1103 C1078 0.950 . S
H1104 C1080 0.950 . S
H1105 C1081 0.949 . S
H1106 C1083 0.950 . S
H1107 C1085 0.950 . S
C1108 C1109 1.349 . S
C1108 C1110 1.327 . S
C1108 H1133 0.950 . S
C1109 C1108 1.349 . S
C1109 C1125 1.349 . S
C1110 C1108 1.327 . S
C1110 C1129 1.429 . S
C1110 H1134 0.950 . S
C1111 C1128 1.574 . S
C1111 C1130 1.368 . S
C1111 H1135 0.949 . S
H1112 C1116 0.949 . S
C1113 C1114 1.349 . S
C1113 C1115 1.327 . S
C1113 H1136 0.950 . S
C1114 C1113 1.349 . S
C1114 C1126 1.349 . S
C1115 C1113 1.327 . S
C1115 C1131 1.429 . S
C1115 H1137 0.950 . S
C1116 H1112 0.949 . S
C1116 C1124 1.574 . S
C1116 C1132 1.368 . S
H1117 C1125 0.950 . S
H1118 C1123 0.950 . S
H1119 C1124 0.949 . S
H1120 C1126 0.950 . S
H1121 C1127 0.950 . S
H1122 C1128 0.949 . S
C1123 H1118 0.950 . S
C1123 C1125 1.327 . S
C1123 C1129 1.429 . S
C1124 C1116 1.574 . S
C1124 H1119 0.949 . S
C1124 C1130 1.368 . S
C1125 C1109 1.349 . S
C1125 H1117 0.950 . S
C1125 C1123 1.327 . S
C1126 C1114 1.349 . S
C1126 H1120 0.950 . S
C1126 C1127 1.327 . S
C1127 H1121 0.950 . S
C1127 C1126 1.327 . S
C1127 C1131 1.429 . S
C1128 C1111 1.574 . S
C1128 H1122 0.949 . S
C1128 C1132 1.368 . S
C1129 C1110 1.429 . S
C1129 C1123 1.429 . S
C1129 C1130 1.523 . S
C1130 C1111 1.368 . S
C1130 C1124 1.368 . S
C1130 C1129 1.523 . S
C1131 C1115 1.429 . S
C1131 C1127 1.429 . S
C1131 C1132 1.523 . S
C1132 C1116 1.368 . S
C1132 C1128 1.368 . S
C1132 C1131 1.523 . S
H1133 C1108 0.950 . S
H1134 C1110 0.950 . S
H1135 C1111 0.949 . S
H1136 C1113 0.950 . S
H1137 C1115 0.950 . S
C1138 C1139 1.349 . S
C1138 C1140 1.327 . S
C1138 H1163 0.950 . S
C1139 C1138 1.349 . S
C1139 C1155 1.349 . S
C1140 C1138 1.327 . S
C1140 C1159 1.429 . S
C1140 H1164 0.950 . S
C1141 C1158 1.574 . S
C1141 C1160 1.368 . S
C1141 H1165 0.949 . S
H1142 C1146 0.949 . S
C1143 C1144 1.349 . S
C1143 C1145 1.327 . S
C1143 H1166 0.950 . S
C1144 C1143 1.349 . S
C1144 C1156 1.349 . S
C1145 C1143 1.327 . S
C1145 C1161 1.429 . S
C1145 H1167 0.950 . S
C1146 H1142 0.949 . S
C1146 C1154 1.574 . S
C1146 C1162 1.368 . S
H1147 C1155 0.950 . S
H1148 C1153 0.950 . S
H1149 C1154 0.949 . S
H1150 C1156 0.950 . S
H1151 C1157 0.950 . S
H1152 C1158 0.949 . S
C1153 H1148 0.950 . S
C1153 C1155 1.327 . S
C1153 C1159 1.429 . S
C1154 C1146 1.574 . S
C1154 H1149 0.949 . S
C1154 C1160 1.368 . S
C1155 C1139 1.349 . S
C1155 H1147 0.950 . S
C1155 C1153 1.327 . S
C1156 C1144 1.349 . S
C1156 H1150 0.950 . S
C1156 C1157 1.327 . S
C1157 H1151 0.950 . S
C1157 C1156 1.327 . S
C1157 C1161 1.429 . S
C1158 C1141 1.574 . S
C1158 H1152 0.949 . S
C1158 C1162 1.368 . S
C1159 C1140 1.429 . S
C1159 C1153 1.429 . S
C1159 C1160 1.523 . S
C1160 C1141 1.368 . S
C1160 C1154 1.368 . S
C1160 C1159 1.523 . S
C1161 C1145 1.429 . S
C1161 C1157 1.429 . S
C1161 C1162 1.523 . S
C1162 C1146 1.368 . S
C1162 C1158 1.368 . S
C1162 C1161 1.523 . S
H1163 C1138 0.950 . S
H1164 C1140 0.950 . S
H1165 C1141 0.949 . S
H1166 C1143 0.950 . S
H1167 C1145 0.950 . S
C449 C241 1.916 . S
C454 C306 2.075 1_545 S
C484 C346 2.096 . S
C479 C277 1.974 . S
C514 C386 2.085 . S
C509 C169 1.920 . S
C544 C426 2.091 1_455 S
C539 C205 1.928 . S
C574 C296 2.080 1_565 S
C569 C97 1.922 . S
C599 C133 1.978 . S
C604 C336 2.100 . S
C629 C25 1.921 . S
C634 C376 2.084 . S
C659 C61 1.928 1_655 S
C664 C416 2.091 1_655 S
C694 C293 0.225 . S
C689 C211 0.245 . S
C724 C333 0.225 . S
C719 C247 0.243 . S
C754 C373 0.220 . S
C749 C253 0.249 . S
C779 C175 0.243 . S
C784 C413 0.222 . S
C809 C67 0.324 1_655 S
C814 C303 0.213 . S
C844 C343 0.225 . S
C839 C103 0.314 1_565 S
C874 C383 0.220 . S
C869 C109 0.166 . S
C899 C31 0.320 . S
C904 C423 0.226 . S
C929 C181 2.542 . S
C934 C297 2.799 . S
C959 C217 2.523 . S
C964 C337 2.787 . S
C994 C377 2.793 . S
C989 C283 2.468 . S
C1024 C417 2.791 . S
C1019 C145 2.520 . S
C1049 C37 2.544 1_655 S
C1054 C307 2.814 . S
C1084 C347 2.788 . S
C1079 C73 2.524 1_565 S
C1114 C387 2.793 . S
C1109 C139 2.460 . S
C1139 C1 2.532 . S
C1144 C427 2.797 . S
