# Generated by pormake.
# Topology pyr, (3,6)-cn, num edge types: 1
# Building blocks:
#     Node 0, Type 0, BuildingBlock: VETTIZ_charged_linker_0, # of connection points: 3
#     Node 1, Type 0, BuildingBlock: VETTIZ_charged_linker_0, # of connection points: 3
#     Node 2, Type 0, BuildingBlock: VETTIZ_charged_linker_0, # of connection points: 3
#     Node 3, Type 0, BuildingBlock: VETTIZ_charged_linker_0, # of connection points: 3
#     Node 4, Type 0, BuildingBlock: VETTIZ_charged_linker_0, # of connection points: 3
#     Node 5, Type 0, BuildingBlock: VETTIZ_charged_linker_0, # of connection points: 3
#     Node 6, Type 0, BuildingBlock: VETTIZ_charged_linker_0, # of connection points: 3
#     Node 7, Type 0, BuildingBlock: VETTIZ_charged_linker_0, # of connection points: 3
#     Node 8, Type 1, BuildingBlock: FUNLAD_clean_sbu_0, # of connection points: 6
#     Node 9, Type 1, BuildingBlock: FUNLAD_clean_sbu_0, # of connection points: 6
#     Node 10, Type 1, BuildingBlock: FUNLAD_clean_sbu_0, # of connection points: 6
#     Node 11, Type 1, BuildingBlock: FUNLAD_clean_sbu_0, # of connection points: 6
#     Edge 12, Type (0, 1), BuildingBlock: XUDNAN_clean_linker_2, # of connection points: 2
#     Edge 13, Type (0, 1), BuildingBlock: XUDNAN_clean_linker_2, # of connection points: 2
#     Edge 14, Type (0, 1), BuildingBlock: XUDNAN_clean_linker_2, # of connection points: 2
#     Edge 15, Type (0, 1), BuildingBlock: XUDNAN_clean_linker_2, # of connection points: 2
#     Edge 16, Type (0, 1), BuildingBlock: XUDNAN_clean_linker_2, # of connection points: 2
#     Edge 17, Type (0, 1), BuildingBlock: XUDNAN_clean_linker_2, # of connection points: 2
#     Edge 18, Type (0, 1), BuildingBlock: XUDNAN_clean_linker_2, # of connection points: 2
#     Edge 19, Type (0, 1), BuildingBlock: XUDNAN_clean_linker_2, # of connection points: 2
#     Edge 20, Type (0, 1), BuildingBlock: XUDNAN_clean_linker_2, # of connection points: 2
#     Edge 21, Type (0, 1), BuildingBlock: XUDNAN_clean_linker_2, # of connection points: 2
#     Edge 22, Type (0, 1), BuildingBlock: XUDNAN_clean_linker_2, # of connection points: 2
#     Edge 23, Type (0, 1), BuildingBlock: XUDNAN_clean_linker_2, # of connection points: 2
#     Edge 24, Type (0, 1), BuildingBlock: XUDNAN_clean_linker_2, # of connection points: 2
#     Edge 25, Type (0, 1), BuildingBlock: XUDNAN_clean_linker_2, # of connection points: 2
#     Edge 26, Type (0, 1), BuildingBlock: XUDNAN_clean_linker_2, # of connection points: 2
#     Edge 27, Type (0, 1), BuildingBlock: XUDNAN_clean_linker_2, # of connection points: 2
#     Edge 28, Type (0, 1), BuildingBlock: XUDNAN_clean_linker_2, # of connection points: 2
#     Edge 29, Type (0, 1), BuildingBlock: XUDNAN_clean_linker_2, # of connection points: 2
#     Edge 30, Type (0, 1), BuildingBlock: XUDNAN_clean_linker_2, # of connection points: 2
#     Edge 31, Type (0, 1), BuildingBlock: XUDNAN_clean_linker_2, # of connection points: 2
#     Edge 32, Type (0, 1), BuildingBlock: XUDNAN_clean_linker_2, # of connection points: 2
#     Edge 33, Type (0, 1), BuildingBlock: XUDNAN_clean_linker_2, # of connection points: 2
#     Edge 34, Type (0, 1), BuildingBlock: XUDNAN_clean_linker_2, # of connection points: 2
#     Edge 35, Type (0, 1), BuildingBlock: XUDNAN_clean_linker_2, # of connection points: 2
# Relax obj value: 0.056
# Max RMSD: 0.063
# Mean RMSD: 0.027
data_MOF--net-pry--node1-FUNLAD_clean_sbu_0--node2-VETTIZ_charged_linker_0--edge1-XUDNAN_clean_linker_2
_symmetry_space_group_name_H-M    P1
_symmetry_Int_Tables_number       1
_symmetry_cell_setting            triclinic
loop_
_symmetry_equiv_pos_as_xyz
'x, y, z'
_cell_length_a     43.837821
_cell_length_b     46.322974
_cell_length_c     46.658565
_cell_angle_alpha  90.115928
_cell_angle_beta   90.090102
_cell_angle_gamma 85.556603
loop_
_atom_site_label
_atom_site_type_symbol
_atom_site_fract_x
_atom_site_fract_y
_atom_site_fract_z
_atom_type_partial_charge
C0 C 0.13297 0.11402 0.26333 0.0
C1 C 0.10723 0.12272 0.28038 0.0
C2 C 0.09099 0.14947 0.27373 0.0
C3 C 0.12505 0.15722 0.23336 0.0
C4 C 0.14139 0.13137 0.24026 0.0
C5 C 0.16815 0.12477 0.22037 0.0
H6 H 0.24918 0.15974 0.10303 0.0
C7 C 0.13955 0.16964 0.2075 0.0
C8 C 0.16493 0.15039 0.19995 0.0
H9 H 0.26986 0.08762 0.16044 0.0
H10 H 0.22483 0.10234 0.18843 0.0
H11 H 0.23714 0.20481 0.15105 0.0
H12 H 0.17635 0.15672 0.10104 0.0
H13 H 0.15919 0.19216 0.10367 0.0
H14 H 0.19617 0.18601 0.08689 0.0
H15 H 0.2262 0.21529 0.1153 0.0
H16 H 0.20434 0.22835 0.14612 0.0
C17 C 0.19795 0.12451 0.23824 0.0
C18 C 0.16366 0.09588 0.20481 0.0
C19 C 0.09665 0.26565 0.16094 0.0
C20 C 0.10594 0.28144 0.13675 0.0
C21 C 0.13158 0.26971 0.12117 0.0
C22 C 0.14735 0.24342 0.129 0.0
C23 C 0.13796 0.22811 0.15301 0.0
C24 C 0.11297 0.23912 0.16864 0.0
C25 C 0.10678 0.21943 0.19368 0.0
C26 C 0.13232 0.19512 0.19049 0.0
C27 C 0.1504 0.20054 0.16646 0.0
C28 C 0.11 0.23664 0.22176 0.0
C29 C 0.07481 0.20822 0.18943 0.0
C30 C 0.24451 0.14708 0.12176 0.0
C31 C 0.26379 0.12243 0.12932 0.0
C32 C 0.25564 0.10652 0.15364 0.0
C33 C 0.2295 0.11531 0.17014 0.0
C34 C 0.21108 0.14047 0.16255 0.0
C35 C 0.21894 0.1558 0.13867 0.0
C36 C 0.19789 0.18261 0.13409 0.0
C37 C 0.17585 0.18097 0.15904 0.0
C38 C 0.18333 0.15614 0.17566 0.0
C39 C 0.21719 0.20926 0.13652 0.0
C40 C 0.18158 0.17954 0.10485 0.0
H41 H 0.08606 0.18647 0.24645 0.0
H42 H 0.14651 0.094 0.26789 0.0
H43 H 0.1394 0.09494 0.19806 0.0
H44 H 0.17721 0.09309 0.18496 0.0
H45 H 0.16962 0.07711 0.21908 0.0
H46 H 0.19582 0.14119 0.25546 0.0
H47 H 0.20327 0.10314 0.24862 0.0
H48 H 0.21785 0.12999 0.22543 0.0
H49 H 0.07704 0.2736 0.17353 0.0
H50 H 0.14015 0.2812 0.10307 0.0
H51 H 0.16657 0.23617 0.116 0.0
H52 H 0.13045 0.2494 0.22086 0.0
H53 H 0.08961 0.252 0.22535 0.0
H54 H 0.11337 0.22254 0.24069 0.0
H55 H 0.07165 0.20152 0.16678 0.0
H56 H 0.07137 0.18893 0.20247 0.0
H57 H 0.0565 0.22536 0.19462 0.0
H58 H 0.07102 0.15688 0.28612 0.0
C59 C 0.09964 0.1666 0.25044 0.0
C60 C 0.26529 0.88031 0.6187 0.0
C61 C 0.24931 0.90712 0.62551 0.0
C62 C 0.2586 0.92191 0.65019 0.0
C63 C 0.29932 0.88412 0.65963 0.0
C64 C 0.29011 0.86951 0.63569 0.0
C65 C 0.31014 0.84213 0.63022 0.0
H66 H 0.43194 0.74969 0.6649 0.0
C67 C 0.32645 0.86712 0.67216 0.0
C68 C 0.33292 0.84257 0.65483 0.0
H69 H 0.36807 0.74407 0.59456 0.0
H70 H 0.34115 0.78843 0.60972 0.0
H71 H 0.43693 0.82185 0.66217 0.0
H72 H 0.37842 0.77084 0.71311 0.0
H73 H 0.39504 0.79696 0.73444 0.0
H74 H 0.41922 0.7684 0.71799 0.0
H75 H 0.45223 0.79605 0.6882 0.0
H76 H 0.43765 0.83184 0.69875 0.0
C77 C 0.32581 0.84506 0.60069 0.0
C78 C 0.28996 0.81621 0.63256 0.0
C79 C 0.37686 0.90472 0.76187 0.0
C80 C 0.40228 0.89507 0.77887 0.0
C81 C 0.41811 0.8683 0.77155 0.0
C82 C 0.4094 0.85215 0.74744 0.0
C83 C 0.38437 0.8626 0.73032 0.0
C84 C 0.36842 0.8884 0.73805 0.0
C85 C 0.34232 0.89656 0.7179 0.0
C86 C 0.34505 0.87164 0.69664 0.0
C87 C 0.36985 0.85158 0.70368 0.0
C88 C 0.3483 0.92574 0.70357 0.0
C89 C 0.31213 0.89718 0.73517 0.0
C90 C 0.41209 0.75787 0.65275 0.0
C91 C 0.40261 0.74287 0.62804 0.0
C92 C 0.37669 0.75497 0.61308 0.0
C93 C 0.36072 0.78083 0.62217 0.0
C94 C 0.37034 0.79531 0.64675 0.0
C95 C 0.39565 0.78385 0.66171 0.0
C96 C 0.40197 0.80226 0.68773 0.0
C97 C 0.37652 0.82671 0.68565 0.0
C98 C 0.3581 0.82234 0.66145 0.0
C99 C 0.43396 0.81359 0.68428 0.0
C100 C 0.39872 0.78374 0.71489 0.0
H101 H 0.28923 0.92314 0.68547 0.0
H102 H 0.25878 0.8678 0.60037 0.0
H103 H 0.27244 0.82007 0.64966 0.0
H104 H 0.30305 0.79584 0.63876 0.0
H105 H 0.2777 0.81274 0.61214 0.0
H106 H 0.33035 0.86795 0.59637 0.0
H107 H 0.31117 0.83783 0.58302 0.0
H108 H 0.34853 0.83303 0.59944 0.0
H109 H 0.36372 0.92485 0.76688 0.0
H110 H 0.43783 0.86023 0.78398 0.0
H111 H 0.42272 0.83227 0.74281 0.0
H112 H 0.37319 0.92729 0.69986 0.0
H113 H 0.34002 0.94436 0.71726 0.0
H114 H 0.33777 0.92833 0.68212 0.0
H115 H 0.31301 0.87924 0.75105 0.0
H116 H 0.29201 0.89389 0.72165 0.0
H117 H 0.30798 0.91787 0.74712 0.0
H118 H 0.24728 0.94268 0.65604 0.0
C119 C 0.28329 0.91059 0.66721 0.0
C120 C 0.58561 0.34101 0.98062 0.0
C121 C 0.55726 0.33399 0.96953 0.0
C122 C 0.54232 0.35233 0.94898 0.0
C123 C 0.58544 0.38196 0.94842 0.0
C124 C 0.59921 0.36501 0.96981 0.0
C125 C 0.63038 0.37407 0.97755 0.0
H126 H 0.74629 0.4577 0.94969 0.0
C127 C 0.60687 0.40337 0.93987 0.0
C128 C 0.63301 0.39927 0.95722 0.0
H129 H 0.74426 0.38767 1.01082 0.0
H130 H 0.69159 0.38222 0.99905 0.0
H131 H 0.68127 0.48844 0.96066 0.0
H132 H 0.71232 0.4221 0.90041 0.0
H133 H 0.68934 0.44857 0.8819 0.0
H134 H 0.72359 0.45851 0.89908 0.0
H135 H 0.70086 0.49685 0.92836 0.0
H136 H 0.65981 0.49516 0.9292 0.0
C137 C 0.62963 0.38402 1.00925 0.0
C138 C 0.65427 0.34841 0.97092 0.0
C139 C 0.59006 0.4576 0.84667 0.0
C140 C 0.60835 0.47599 0.83153 0.0
C141 C 0.63236 0.4884 0.84606 0.0
C142 C 0.6402 0.48001 0.87408 0.0
C143 C 0.6241 0.45875 0.88748 0.0
C144 C 0.5983 0.44932 0.87458 0.0
C145 C 0.58339 0.42748 0.89254 0.0
C146 C 0.60595 0.42377 0.91723 0.0
C147 C 0.63008 0.44166 0.91376 0.0
C148 C 0.5517 0.44107 0.90244 0.0
C149 C 0.58212 0.39929 0.87472 0.0
C150 C 0.73472 0.44095 0.9604 0.0
C151 C 0.74974 0.42308 0.9812 0.0
C152 C 0.73331 0.40205 0.99498 0.0
C153 C 0.7027 0.39874 0.98796 0.0
C154 C 0.68839 0.41623 0.96653 0.0
C155 C 0.70438 0.43693 0.9532 0.0
C156 C 0.68628 0.45226 0.92963 0.0
C157 C 0.65645 0.43777 0.93144 0.0
C158 C 0.6579 0.41663 0.95301 0.0
C159 C 0.68189 0.48494 0.93706 0.0
C160 C 0.70362 0.4453 0.90118 0.0
H161 H 0.5441 0.38915 0.92237 0.0
H162 H 0.59788 0.32717 0.99616 0.0
H163 H 0.64668 0.3351 0.95275 0.0
H164 H 0.67656 0.35547 0.96393 0.0
H165 H 0.65788 0.33389 0.98974 0.0
H166 H 0.60756 0.39648 0.01428 0.0
H167 H 0.63206 0.36515 0.02396 0.0
H168 H 0.64745 0.39882 0.01438 0.0
H169 H 0.57124 0.4479 0.83631 0.0
H170 H 0.6461 0.50349 0.83524 0.0
H171 H 0.65951 0.4892 0.88363 0.0
H172 H 0.55058 0.46515 0.90212 0.0
H173 H 0.53308 0.43428 0.88836 0.0
H174 H 0.54663 0.43552 0.92493 0.0
H175 H 0.60426 0.39394 0.86356 0.0
H176 H 0.57818 0.38014 0.88774 0.0
H177 H 0.56384 0.4017 0.85819 0.0
H178 H 0.52028 0.34755 0.94043 0.0
C179 C 0.55616 0.37643 0.93854 0.0
C180 C 0.95682 0.66827 0.47563 0.0
C181 C 0.94433 0.68662 0.49729 0.0
C182 C 0.91716 0.67971 0.51095 0.0
C183 C 0.91331 0.63915 0.47859 0.0
C184 C 0.94085 0.64505 0.46641 0.0
C185 C 0.94901 0.62621 0.44096 0.0
H186 H 0.90655 0.53151 0.34183 0.0
C187 C 0.90083 0.61576 0.46167 0.0
C188 C 0.92172 0.60808 0.43969 0.0
H189 H 0.98793 0.57836 0.34388 0.0
H190 H 0.97429 0.59719 0.39078 0.0
H191 H 0.90789 0.5124 0.41073 0.0
H192 H 0.86285 0.58259 0.36264 0.0
H193 H 0.83621 0.57107 0.38729 0.0
H194 H 0.85169 0.54618 0.36039 0.0
H195 H 0.87576 0.50754 0.38783 0.0
H196 H 0.87078 0.51866 0.42476 0.0
C197 C 0.97892 0.60755 0.44803 0.0
C198 C 0.95095 0.64603 0.41425 0.0
C199 C 0.79478 0.58461 0.48332 0.0
C200 C 0.77649 0.56471 0.47023 0.0
C201 C 0.7883 0.54819 0.44679 0.0
C202 C 0.81774 0.55165 0.43638 0.0
C203 C 0.83549 0.57206 0.44933 0.0
C204 C 0.82408 0.58788 0.47261 0.0
C205 C 0.84612 0.60864 0.48358 0.0
C206 C 0.87271 0.60257 0.46311 0.0
C207 C 0.8662 0.58134 0.44294 0.0
C208 C 0.85495 0.60013 0.51475 0.0
C209 C 0.83091 0.63981 0.48021 0.0
C210 C 0.92165 0.54532 0.35282 0.0
C211 C 0.94828 0.55358 0.33949 0.0
C212 C 0.96726 0.57193 0.35395 0.0
C213 C 0.95921 0.58287 0.38106 0.0
C214 C 0.93152 0.57593 0.39347 0.0
C215 C 0.91354 0.55698 0.37968 0.0
C216 C 0.8842 0.55329 0.39547 0.0
C217 C 0.88734 0.5736 0.4207 0.0
C218 C 0.91505 0.58674 0.41932 0.0
C219 C 0.88433 0.52131 0.40513 0.0
C220 C 0.85716 0.56357 0.37555 0.0
H221 H 0.88061 0.65231 0.51239 0.0
H222 H 0.97784 0.6728 0.46493 0.0
H223 H 0.93642 0.66666 0.4168 0.0
H224 H 0.94217 0.63636 0.39451 0.0
H225 H 0.97477 0.65172 0.4105 0.0
H226 H 0.97908 0.60038 0.47078 0.0
H227 H 0.99927 0.62001 0.44473 0.0
H228 H 0.98163 0.58735 0.43534 0.0
H229 H 0.78627 0.59781 0.50121 0.0
H230 H 0.77485 0.53236 0.43666 0.0
H231 H 0.82541 0.5385 0.41846 0.0
H232 H 0.85697 0.57618 0.5173 0.0
H233 H 0.83738 0.60914 0.53015 0.0
H234 H 0.87751 0.60711 0.52115 0.0
H235 H 0.81651 0.64168 0.46054 0.0
H236 H 0.84759 0.65624 0.47751 0.0
H237 H 0.81593 0.64592 0.49878 0.0
H238 H 0.90694 0.69357 0.52762 0.0
C239 C 0.90168 0.65594 0.50181 0.0
C240 C 0.89204 0.76231 0.88497 0.0
C241 C 0.91753 0.74582 0.87351 0.0
C242 C 0.93161 0.75685 0.8489 0.0
C243 C 0.89424 0.79869 0.84711 0.0
C244 C 0.8809 0.78831 0.87154 0.0
C245 C 0.85356 0.80755 0.8809 0.0
H246 H 0.74837 0.91995 0.85814 0.0
C247 C 0.87609 0.82591 0.83798 0.0
C248 C 0.8522 0.83094 0.85797 0.0
H249 H 0.75567 0.85954 0.92887 0.0
H250 H 0.80222 0.83725 0.90968 0.0
H251 H 0.77083 0.87469 0.80771 0.0
H252 H 0.82146 0.93134 0.85968 0.0
H253 H 0.83703 0.93137 0.82506 0.0
H254 H 0.79766 0.9447 0.83054 0.0
H255 H 0.76664 0.91343 0.80451 0.0
H256 H 0.79611 0.89205 0.78541 0.0
C257 C 0.82524 0.78948 0.87974 0.0
C258 C 0.86053 0.81986 0.91098 0.0
C259 C 0.90528 0.88396 0.74901 0.0
C260 C 0.89248 0.91009 0.73664 0.0
C261 C 0.86509 0.92297 0.74854 0.0
C262 C 0.85122 0.91099 0.77239 0.0
C263 C 0.86467 0.88564 0.78512 0.0
C264 C 0.8911 0.87225 0.77331 0.0
C265 C 0.90198 0.84543 0.79022 0.0
C266 C 0.8783 0.84546 0.81432 0.0
C267 C 0.85633 0.8692 0.81104 0.0
C268 C 0.90054 0.81886 0.77035 0.0
C269 C 0.93436 0.8495 0.80193 0.0
C270 C 0.7602 0.90208 0.86955 0.0
C271 C 0.74749 0.89108 0.89478 0.0
C272 C 0.7641 0.868 0.90901 0.0
C273 C 0.79143 0.85504 0.89785 0.0
C274 C 0.80304 0.86512 0.87204 0.0
C275 C 0.78802 0.88875 0.85864 0.0
C276 C 0.80506 0.89702 0.83203 0.0
C277 C 0.832 0.87392 0.83137 0.0
C278 C 0.83035 0.85516 0.85482 0.0
C279 C 0.78365 0.89442 0.80591 0.0
C280 C 0.81578 0.92777 0.83675 0.0
H281 H 0.93197 0.78985 0.81712 0.0
H282 H 0.88029 0.75477 0.90358 0.0
H283 H 0.88554 0.8211 0.91432 0.0
H284 H 0.85069 0.8424 0.91395 0.0
H285 H 0.85216 0.80609 0.9283 0.0
H286 H 0.82628 0.77502 0.86063 0.0
H287 H 0.82408 0.77561 0.89904 0.0
H288 H 0.8034 0.80281 0.87754 0.0
H289 H 0.92637 0.87351 0.74064 0.0
H290 H 0.85447 0.94281 0.7395 0.0
H291 H 0.83061 0.92224 0.78025 0.0
H292 H 0.87894 0.82047 0.7577 0.0
H293 H 0.91996 0.81737 0.75502 0.0
H294 H 0.90054 0.79832 0.78224 0.0
H295 H 0.93556 0.87179 0.81056 0.0
H296 H 0.94083 0.83481 0.81988 0.0
H297 H 0.9518 0.84616 0.78475 0.0
H298 H 0.95164 0.74526 0.83967 0.0
C299 C 0.9202 0.78295 0.83575 0.0
C300 C 0.74777 0.12999 0.38373 0.0
C301 C 0.76086 0.10244 0.37529 0.0
C302 C 0.74504 0.0871 0.35437 0.0
C303 C 0.70631 0.12712 0.34902 0.0
C304 C 0.72049 0.14164 0.37059 0.0
C305 C 0.70281 0.16991 0.37789 0.0
H306 H 0.57859 0.26534 0.35971 0.0
C307 C 0.67888 0.14542 0.33922 0.0
C308 C 0.67644 0.17037 0.35645 0.0
H309 H 0.65026 0.26572 0.42337 0.0
H310 H 0.67641 0.22373 0.40176 0.0
H311 H 0.57253 0.19509 0.35808 0.0
H312 H 0.62791 0.24687 0.305 0.0
H313 H 0.61102 0.22111 0.28368 0.0
H314 H 0.58698 0.24882 0.30172 0.0
H315 H 0.55607 0.22248 0.33421 0.0
H316 H 0.56791 0.18676 0.32138 0.0
C317 C 0.69158 0.16809 0.40934 0.0
C318 C 0.72375 0.19471 0.37218 0.0
C319 C 0.61999 0.11497 0.25084 0.0
C320 C 0.59601 0.12866 0.23449 0.0
C321 C 0.58192 0.15521 0.2447 0.0
C322 C 0.59179 0.16811 0.27016 0.0
C323 C 0.6165 0.15473 0.28571 0.0
C324 C 0.63005 0.12848 0.27599 0.0
C325 C 0.65681 0.11788 0.2945 0.0
C326 C 0.65758 0.14223 0.31647 0.0
C327 C 0.63366 0.16382 0.31155 0.0
C328 C 0.64932 0.08899 0.30857 0.0
C329 C 0.68584 0.11552 0.27551 0.0
C330 C 0.60012 0.25647 0.36863 0.0
C331 C 0.61226 0.26889 0.39352 0.0
C332 C 0.64029 0.25658 0.40446 0.0
C333 C 0.65541 0.23197 0.39194 0.0
C334 C 0.64252 0.21896 0.36806 0.0
C335 C 0.61563 0.2314 0.35631 0.0
C336 C 0.60603 0.21426 0.33047 0.0
C337 C 0.63051 0.1888 0.32991 0.0
C338 C 0.6519 0.19197 0.35204 0.0
C339 C 0.57384 0.20414 0.33609 0.0
C340 C 0.6078 0.23368 0.3037 0.0
H341 H 0.70794 0.08645 0.32522 0.0
H342 H 0.7586 0.14253 0.39988 0.0
H343 H 0.73689 0.19066 0.352 0.0
H344 H 0.71087 0.21593 0.36916 0.0
H345 H 0.74048 0.19651 0.38988 0.0
H346 H 0.68936 0.14529 0.41598 0.0
H347 H 0.70772 0.17748 0.42448 0.0
H348 H 0.66843 0.17889 0.4125 0.0
H349 H 0.63167 0.09487 0.24347 0.0
H350 H 0.56344 0.1663 0.23262 0.0
H351 H 0.5801 0.1883 0.27655 0.0
H352 H 0.62425 0.08812 0.31168 0.0
H353 H 0.65739 0.07013 0.2951 0.0
H354 H 0.65915 0.08622 0.33033 0.0
H355 H 0.68628 0.13476 0.26133 0.0
H356 H 0.70729 0.11489 0.28792 0.0
H357 H 0.68643 0.09597 0.26163 0.0
H358 H 0.75317 0.06536 0.34809 0.0
C359 C 0.71829 0.09928 0.34115 0.0
C360 C 0.42192 0.5687 0.17761 0.0
C361 C 0.40225 0.55284 0.19426 0.0
C362 C 0.37331 0.54753 0.18289 0.0
C363 C 0.38323 0.57499 0.14044 0.0
C364 C 0.41178 0.57988 0.15107 0.0
C365 C 0.42809 0.60016 0.13232 0.0
H366 H 0.41957 0.69688 0.02407 0.0
C367 C 0.37833 0.5917 0.1138 0.0
C368 C 0.40444 0.6066 0.10885 0.0
H369 H 0.49398 0.67852 0.08382 0.0
H370 H 0.46819 0.63869 0.10339 0.0
H371 H 0.36835 0.69344 0.06701 0.0
H372 H 0.4075 0.62701 1.01036 0.0
H373 H 0.36753 0.62551 1.00984 0.0
H374 H 0.384 0.65785 0.99775 0.0
H375 H 0.36087 0.69388 0.02917 0.0
H376 H 0.33811 0.67466 0.0537 0.0
C377 C 0.43384 0.62743 0.1503 0.0
C378 C 0.45744 0.58358 0.12055 0.0
C379 C 0.27508 0.59371 0.06498 0.0
C380 C 0.26196 0.60991 0.04222 0.0
C381 C 0.27981 0.62808 0.02636 0.0
C382 C 0.3106 0.63052 0.03367 0.0
C383 C 0.32324 0.61496 0.05735 0.0
C384 C 0.30555 0.59666 0.07226 0.0
C385 C 0.32195 0.5829 0.09758 0.0
C386 C 0.35262 0.59572 0.09538 0.0
C387 C 0.35328 0.61453 0.07191 0.0
C388 C 0.30419 0.59294 0.12515 0.0
C389 C 0.32495 0.5497 0.09275 0.0
C390 C 0.43073 0.68379 0.04083 0.0
C391 C 0.45878 0.69083 0.0525 0.0
C392 C 0.47223 0.67362 0.07471 0.0
C393 C 0.45717 0.65063 0.08608 0.0
C394 C 0.42813 0.64515 0.07548 0.0
C395 C 0.41579 0.66107 0.05266 0.0
C396 C 0.38432 0.65293 0.04476 0.0
C397 C 0.37954 0.62988 0.06696 0.0
C398 C 0.40518 0.62557 0.08503 0.0
C399 C 0.36157 0.68002 0.04859 0.0
C400 C 0.38561 0.64031 0.014 0.0
H401 H 0.34161 0.55347 0.14898 0.0
H402 H 0.44443 0.57307 0.18525 0.0
H403 H 0.45317 0.56081 0.11523 0.0
H404 H 0.46545 0.59282 0.10037 0.0
H405 H 0.47622 0.58297 0.13661 0.0
H406 H 0.41497 0.6325 0.16588 0.0
H407 H 0.45548 0.6242 0.16269 0.0
H408 H 0.43438 0.64724 0.13731 0.0
H409 H 0.26146 0.57991 0.07763 0.0
H410 H 0.26974 0.64078 1.00879 0.0
H411 H 0.3231 0.64501 0.02115 0.0
H412 H 0.29011 0.61369 0.12177 0.0
H413 H 0.28849 0.57664 0.13215 0.0
H414 H 0.31953 0.59763 0.14314 0.0
H415 H 0.33042 0.54447 0.06996 0.0
H416 H 0.34377 0.53855 0.10523 0.0
H417 H 0.30324 0.54004 0.09804 0.0
H418 H 0.35706 0.53618 0.19512 0.0
C419 C 0.36399 0.55808 0.15604 0.0
C420 C 0.05078 0.35582 0.57535 0.0
C421 C 0.06219 0.33213 0.55862 0.0
C422 C 0.08959 0.33436 0.54317 0.0
C423 C 0.09585 0.3811 0.56484 0.0
C424 C 0.06825 0.37959 0.57878 0.0
C425 C 0.06223 0.40355 0.60028 0.0
H426 H 0.12442 0.49636 0.68761 0.0
C427 C 0.11046 0.40642 0.57617 0.0
C428 C 0.09085 0.4197 0.59697 0.0
H429 H 0.03164 0.47025 0.68904 0.0
H430 H 0.03936 0.4482 0.64245 0.0
H431 H 0.11915 0.51786 0.62207 0.0
H432 H 0.15854 0.44165 0.66403 0.0
H433 H 0.18525 0.45299 0.63905 0.0
H434 H 0.17217 0.47714 0.66718 0.0
H435 H 0.158 0.51554 0.63427 0.0
H436 H 0.14809 0.50406 0.59861 0.0
C437 C 0.03307 0.42228 0.59113 0.0
C438 C 0.06011 0.38934 0.63024 0.0
C439 C 0.2191 0.42439 0.54633 0.0
C440 C 0.23943 0.44444 0.55586 0.0
C441 C 0.22935 0.46561 0.57615 0.0
C442 C 0.19986 0.4663 0.58749 0.0
C443 C 0.18025 0.44542 0.57877 0.0
C444 C 0.18961 0.42532 0.55806 0.0
C445 C 0.16537 0.40488 0.55162 0.0
C446 C 0.13982 0.41654 0.5715 0.0
C447 C 0.14905 0.43988 0.58766 0.0
C448 C 0.15608 0.40849 0.51975 0.0
C449 C 0.17814 0.37378 0.55985 0.0
C450 C 0.1053 0.48658 0.67794 0.0
C451 C 0.07782 0.484 0.69298 0.0
C452 C 0.05365 0.47135 0.67879 0.0
C453 C 0.05809 0.4586 0.65169 0.0
C454 C 0.08698 0.45838 0.63872 0.0
C455 C 0.10923 0.47395 0.65089 0.0
C456 C 0.13776 0.47323 0.63305 0.0
C457 C 0.12987 0.45246 0.60946 0.0
C458 C 0.10042 0.44326 0.61331 0.0
C459 C 0.14118 0.50421 0.62147 0.0
C460 C 0.16502 0.46075 0.65165 0.0
H461 H 0.12732 0.35889 0.53432 0.0
H462 H 0.02951 0.35523 0.58701 0.0
H463 H 0.07864 0.37174 0.633 0.0
H464 H 0.06284 0.40422 0.64824 0.0
H465 H 0.03787 0.37969 0.63292 0.0
H466 H 0.03019 0.42226 0.56743 0.0
H467 H 0.01222 0.41405 0.60065 0.0
H468 H 0.03409 0.44536 0.59694 0.0
H469 H 0.22625 0.40787 0.53076 0.0
H470 H 0.24436 0.4817 0.5833 0.0
H471 H 0.19375 0.48266 0.60314 0.0
H472 H 0.15358 0.4318 0.51382 0.0
H473 H 0.17372 0.39756 0.50552 0.0
H474 H 0.13375 0.40007 0.51494 0.0
H475 H 0.19632 0.37409 0.57649 0.0
H476 H 0.16064 0.36094 0.56959 0.0
H477 H 0.18824 0.36191 0.541 0.0
H478 H 0.09922 0.31653 0.5302 0.0
C479 C 0.10623 0.35886 0.54592 0.0
C480 C 0.03053 0.02489 0.45397 0.0
N481 N 0.00912 0.07276 0.52923 0.0
C482 C 0.03516 0.08575 0.52333 0.0
C483 C 0.03742 0.11474 0.53038 0.0
C484 C 0.01274 0.13039 0.54384 0.0
C485 C 0.98647 0.11625 0.55043 0.0
C486 C 0.98507 0.08726 0.54273 0.0
Zn487 Zn 1.00535 0.03174 0.51519 0.0
C488 C 0.94691 0.02669 0.48193 0.0
N489 N 0.99766 0.9461 0.48556 0.0
C490 C 0.02217 0.92807 0.47746 0.0
C491 C 0.97042 0.93567 0.49238 0.0
C492 C 0.96786 0.90602 0.49395 0.0
C493 C 0.99345 0.88701 0.48813 0.0
C494 C 0.02048 0.89805 0.47849 0.0
Zn495 Zn 1.00235 0.98759 0.49809 0.0
O496 O 0.026 0.04282 0.47455 0.0
C497 C 0.06155 0.99182 0.52919 0.0
O498 O 0.02322 0.99896 0.45761 0.0
H499 H 0.95137 0.95028 0.49914 0.0
H500 H 0.054 0.07373 0.51265 0.0
H501 H 0.04368 0.93684 0.47243 0.0
O502 O 0.05051 0.01779 0.53329 0.0
O503 O 0.04607 0.97473 0.51494 0.0
H504 H 0.96452 0.0765 0.547 0.0
O505 O 0.98171 0.97654 0.53935 0.0
O506 O 0.98468 0.02051 0.55536 0.0
O507 O 0.95904 1.00094 0.48005 0.0
O508 O 0.96048 0.04504 0.49665 0.0
C509 C 0.97735 0.9948 0.55964 0.0
H510 H 0.05823 0.12484 0.52533 0.0
H511 H 0.96692 0.1277 0.56066 0.0
H512 H 0.94668 0.89801 0.50136 0.0
H513 H 0.04061 0.88374 0.47391 0.0
C514 C 0.55953 0.98636 0.98356 0.0
N515 N 0.51746 0.07078 0.9747 0.0
C516 C 0.54516 0.08077 0.98059 0.0
C517 C 0.54885 0.1103 0.9794 0.0
C518 C 0.52394 0.12947 0.97166 0.0
C519 C 0.49669 0.1184 0.96256 0.0
C520 C 0.49383 0.08863 0.96442 0.0
Zn521 Zn 0.50923 0.03188 0.99183 0.0
C522 C 0.47639 0.99436 0.95305 0.0
N523 N 0.49107 0.9545 0.03405 0.0
C524 C 0.51456 0.93814 0.04657 0.0
C525 C 0.46459 0.94293 0.02663 0.0
C526 C 0.46221 0.91323 0.02887 0.0
C527 C 0.48714 0.89551 0.03923 0.0
C528 C 0.51296 0.90829 0.04956 0.0
Zn529 Zn 0.49866 0.99343 0.01661 0.0
O530 O 0.55226 0.01214 0.9753 0.0
C531 C 0.53164 0.03302 0.05442 0.0
O532 O 0.54195 0.97476 1.00111 0.0
H533 H 0.44631 0.95633 0.0166 0.0
H534 H 0.56353 0.06624 0.98892 0.0
H535 H 0.53552 0.9478 0.05195 0.0
O536 O 0.53081 0.04506 0.02998 0.0
O537 O 0.51994 1.00872 0.05679 0.0
H538 H 0.47195 0.08019 0.96012 0.0
O539 O 0.45515 0.01222 0.0319 0.0
O540 O 0.46626 0.05108 1.00878 0.0
O541 O 0.47775 0.97912 0.97587 0.0
O542 O 0.48727 0.01903 0.95374 0.0
C543 C 0.4482 0.0385 0.02516 0.0
H544 H 0.57024 0.11827 0.9864 0.0
H545 H 0.47704 0.13275 0.95655 0.0
H546 H 0.44188 0.90396 0.0209 0.0
H547 H 0.53261 0.8951 0.05758 0.0
C548 C 0.53162 0.4489 0.49284 0.0
N549 N 0.52679 0.48405 0.57556 0.0
C550 C 0.52236 0.45844 0.58859 0.0
C551 C 0.53429 0.45269 0.61604 0.0
C552 C 0.55113 0.47342 0.62948 0.0
C553 C 0.5549 0.49965 0.61577 0.0
C554 C 0.5423 0.50465 0.58882 0.0
Zn555 Zn 0.51234 0.49423 0.5352 0.0
C556 C 0.56366 0.5249 0.50591 0.0
N557 N 0.4879 0.52192 0.4512 0.0
C558 C 0.47817 0.49851 0.43726 0.0
C559 C 0.4858 0.54854 0.43868 0.0
C560 C 0.47311 0.55217 0.4111 0.0
C561 C 0.46288 0.52807 0.39644 0.0
C562 C 0.46643 0.50094 0.40979 0.0
Zn563 Zn 0.50282 0.51247 0.49201 0.0
O564 O 0.52942 0.45294 0.51974 0.0
C565 C 0.45176 0.48123 0.52092 0.0
O566 O 0.52342 0.46996 0.47629 0.0
H567 H 0.49332 0.56698 0.45024 0.0
H568 H 0.5099 0.44243 0.57762 0.0
H569 H 0.47882 0.47766 0.44756 0.0
O570 O 0.46947 0.478 0.54243 0.0
O571 O 0.46052 0.49431 0.4989 0.0
H572 H 0.5453 0.52502 0.57837 0.0
O573 O 0.48317 0.55502 0.50954 0.0
O574 O 0.49498 0.53505 0.55085 0.0
O575 O 0.54521 0.53015 0.4852 0.0
O576 O 0.55528 0.51063 0.52731 0.0
C577 C 0.48418 0.557 0.53689 0.0
H578 H 0.531 0.43225 0.62636 0.0
H579 H 0.56753 0.51615 0.62585 0.0
H580 H 0.47076 0.57358 0.40173 0.0
H581 H 0.45999 0.48146 0.39929 0.0
C582 C 0.98125 0.56653 0.98422 0.0
N583 N 0.97586 0.54033 0.072 0.0
C584 C 0.9865 0.56208 0.08799 0.0
C585 C 0.98144 0.56318 0.11762 0.0
C586 C 0.96485 0.54197 0.13062 0.0
C587 C 0.95116 0.5221 0.11307 0.0
C588 C 0.95747 0.52125 0.08395 0.0
Zn589 Zn 0.99509 0.52836 0.03303 0.0
C590 C 0.95404 0.48865 1.00182 0.0
N591 N 0.03634 0.49391 0.95705 0.0
C592 C 0.04925 0.51639 0.94439 0.0
C593 C 0.03598 0.46779 0.9437 0.0
C594 C 0.0484 0.46396 0.9161 0.0
C595 C 0.06104 0.48734 0.90235 0.0
C596 C 0.06145 0.51367 0.91714 0.0
Zn597 Zn 0.01571 0.50524 0.99506 0.0
O598 O 0.97587 0.56742 1.01109 0.0
C599 C 0.05719 0.54446 0.02682 0.0
O600 O 0.99599 0.54402 0.97409 0.0
H601 H 0.02546 0.45022 0.95409 0.0
H602 H 1.00095 0.57724 0.07835 0.0
H603 H 0.04912 0.53716 0.95494 0.0
O604 O 0.03419 0.54975 0.04289 0.0
O605 O 0.05557 0.52655 1.00637 0.0
H606 H 0.94961 0.50359 0.07173 0.0
O607 O 0.03441 0.46662 0.01659 0.0
O608 O 0.01464 0.48906 0.05439 0.0
O609 O 0.97608 0.48355 0.98443 0.0
O610 O 0.95646 0.50659 0.0221 0.0
C611 C 0.02919 0.46675 0.04345 0.0
H612 H 0.99228 0.57909 0.13033 0.0
H613 H 0.93736 0.50593 0.122 0.0
H614 H 0.04766 0.44321 0.90553 0.0
H615 H 0.06986 0.53269 0.90737 0.0
H616 H 0.08397 0.13771 0.33483 0.0
H617 H 0.10651 0.06346 0.27983 0.0
H618 H 0.09016 0.03106 0.31773 0.0
H619 H 0.10925 0.10302 0.40131 0.0
H620 H 0.07883 0.12048 0.42256 0.0
H621 H 0.09216 0.13817 0.39112 0.0
H622 H 0.03706 0.1428 0.37075 0.0
H623 H 0.02358 0.12517 0.40216 0.0
H624 H 0.01639 0.11083 0.36706 0.0
H625 H 0.07026 1.0061 0.3616 0.0
H626 H 0.04972 0.99092 0.40802 0.0
H627 H 0.04055 0.08062 0.43582 0.0
C628 C 0.08535 0.11465 0.33065 0.0
C629 C 0.09687 0.10336 0.30403 0.0
C630 C 0.09838 0.07289 0.29992 0.0
C631 C 0.08891 0.0542 0.32137 0.0
C632 C 0.0779 0.06597 0.34726 0.0
C633 C 0.07614 0.09551 0.35206 0.0
C634 C 0.06366 0.10241 0.38203 0.0
C635 C 0.08739 0.11688 0.40034 0.0
C636 C 0.03337 0.12143 0.38039 0.0
C637 C 0.05858 0.07223 0.3932 0.0
C638 C 0.06686 0.05154 0.37271 0.0
C639 C 0.06383 0.02217 0.37779 0.0
C640 C 0.05208 0.01371 0.40435 0.0
C641 C 0.04351 0.03437 0.42592 0.0
C642 C 0.04699 0.0641 0.42004 0.0
H643 H 0.42336 0.87965 0.83413 0.0
H644 H 0.40576 0.95368 0.77794 0.0
H645 H 0.42138 0.98597 0.81626 0.0
H646 H 0.39621 0.91596 0.89948 0.0
H647 H 0.42523 0.89832 0.92221 0.0
H648 H 0.4129 0.88032 0.89043 0.0
H649 H 0.46882 0.87412 0.87244 0.0
H650 H 0.4813 0.89199 0.90424 0.0
H651 H 0.49049 0.90549 0.86935 0.0
H652 H 0.43935 1.01082 0.85993 0.0
H653 H 0.4586 0.02675 0.90644 0.0
H654 H 0.46456 0.93792 0.93672 0.0
C655 C 0.42294 0.90264 0.82986 0.0
C656 C 0.4129 0.91397 0.80278 0.0
C657 C 0.41269 0.9443 0.7984 0.0
C658 C 0.42172 0.96292 0.82009 0.0
C659 C 0.43104 0.95121 0.84646 0.0
C660 C 0.43177 0.92179 0.85157 0.0
C661 C 0.44271 0.9152 0.88217 0.0
C662 C 0.41777 0.90164 0.8996 0.0
C663 C 0.47261 0.89553 0.88203 0.0
C664 C 0.44805 0.94546 0.89327 0.0
C665 C 0.44119 0.96578 0.87212 0.0
C666 C 0.4447 0.99508 0.87666 0.0
C667 C 0.45572 1.00395 0.9033 0.0
C668 C 0.46309 0.98378 0.92557 0.0
C669 C 0.4589 0.95404 0.92039 0.0
H670 H 0.55546 0.48035 0.79923 0.0
H671 H 0.65458 0.47554 0.79237 0.0
H672 H 0.65046 0.47223 0.73994 0.0
H673 H 0.54408 0.4281 0.74515 0.0
H674 H 0.50941 0.44647 0.7313 0.0
H675 H 0.51962 0.45073 0.7684 0.0
H676 H 0.51695 0.5065 0.76234 0.0
H677 H 0.5061 0.50243 0.7254 0.0
H678 H 0.53886 0.52191 0.73436 0.0
H679 H 0.63612 0.46771 0.68875 0.0
H680 H 0.61162 0.46661 0.64099 0.0
H681 H 0.5222 0.47157 0.68092 0.0
C682 C 0.5763 0.47883 0.78671 0.0
C683 C 0.60533 0.47844 0.79999 0.0
C684 C 0.63203 0.47659 0.78275 0.0
C685 C 0.62998 0.47428 0.75294 0.0
C686 C 0.6011 0.47371 0.7407 0.0
C687 C 0.5747 0.47625 0.75693 0.0
C688 C 0.54652 0.47472 0.73836 0.0
C689 C 0.52888 0.44844 0.74628 0.0
C690 C 0.5259 0.50308 0.74022 0.0
C691 C 0.56127 0.47091 0.70917 0.0
C692 C 0.5928 0.4703 0.71107 0.0
C693 C 0.61148 0.46796 0.68695 0.0
C694 C 0.59748 0.46714 0.66004 0.0
C695 C 0.56527 0.46843 0.65768 0.0
C696 C 0.54694 0.46979 0.68246 0.0
H697 H 0.95365 0.5903 0.29498 0.0
H698 H 0.95523 0.49924 0.3166 0.0
H699 H 0.9622 0.48641 0.26528 0.0
H700 H 0.90933 0.58544 0.23206 0.0
H701 H 0.92861 0.61207 0.21235 0.0
H702 H 0.9268 0.61397 0.25085 0.0
H703 H 0.98593 0.61303 0.25349 0.0
H704 H 0.98794 0.61126 0.21495 0.0
H705 H 0.00889 0.58402 0.23629 0.0
H706 H 0.968 0.48382 0.21225 0.0
H707 H 0.96967 0.49097 0.16017 0.0
H708 H 0.96029 0.58425 0.1726 0.0
C709 C 0.95611 0.56767 0.28884 0.0
C710 C 0.95449 0.54562 0.30945 0.0
C711 C 0.95677 0.51627 0.3009 0.0
C712 C 0.96075 0.50886 0.27194 0.0
C713 C 0.96199 0.53116 0.25204 0.0
C714 C 0.95956 0.55996 0.26005 0.0
C715 C 0.95944 0.57975 0.23425 0.0
C716 C 0.92925 0.59893 0.23227 0.0
C717 C 0.98721 0.59809 0.23478 0.0
C718 C 0.96205 0.55755 0.21041 0.0
C719 C 0.96381 0.5297 0.22121 0.0
C720 C 0.96637 0.50551 0.2035 0.0
C721 C 0.96694 0.50986 0.1739 0.0
C722 C 0.96442 0.53822 0.16218 0.0
C723 C 0.96224 0.56234 0.18082 0.0
H724 H 0.29336 0.06753 0.11846 0.0
H725 H 0.30099 0.15909 0.10224 0.0
H726 H 0.34645 0.14704 0.0728 0.0
H727 H 0.37554 0.04982 0.12552 0.0
H728 H 0.37472 0.01479 0.10876 0.0
H729 H 0.34168 0.03021 0.1279 0.0
H730 H 0.30834 0.02466 0.08269 0.0
H731 H 0.34132 1.0094 0.06335 0.0
H732 H 0.3192 0.0407 0.04942 0.0
H733 H 0.39068 0.12574 0.04407 0.0
H734 H 0.4334 0.0967 0.0213 0.0
H735 H 0.40092 0.01861 0.05796 0.0
C736 C 0.30461 0.08513 0.10894 0.0
C737 C 0.2926 0.11438 0.11241 0.0
C738 C 0.30853 0.13648 0.09935 0.0
C739 C 0.33477 0.12988 0.08267 0.0
C740 C 0.34555 0.10101 0.07934 0.0
C741 C 0.3313 0.07895 0.09238 0.0
C742 C 0.34853 0.04979 0.08593 0.0
C743 C 0.36085 0.0353 0.11368 0.0
C744 C 0.32812 0.02997 0.06937 0.0
C745 C 0.37451 0.05901 0.06719 0.0
C746 C 0.37207 0.08868 0.06354 0.0
C747 C 0.39291 0.10249 0.0469 0.0
C748 C 0.41713 0.0857 0.03392 0.0
C749 C 0.42078 0.05525 0.0377 0.0
C750 C 0.39892 0.04179 0.05456 0.0
H751 H 0.1961 0.9413 0.64015 0.0
H752 H 0.24505 0.90269 0.56686 0.0
H753 H 0.20354 0.92163 0.53514 0.0
H754 H 0.12063 0.92912 0.61671 0.0
H755 H 0.10327 0.96333 0.62935 0.0
H756 H 0.13693 0.94694 0.64683 0.0
H757 H 0.16469 0.99352 0.63845 0.0
H758 H 0.13109 1.01005 0.62091 0.0
H759 H 0.16739 1.00758 0.60263 0.0
H760 H 0.15574 0.94191 0.51126 0.0
H761 H 0.10527 0.96431 0.49647 0.0
H762 H 0.08775 0.99398 0.5835 0.0
C763 C 0.19838 0.93708 0.61741 0.0
C764 C 0.22404 0.91988 0.60635 0.0
C765 C 0.22554 0.9149 0.57632 0.0
C766 C 0.20211 0.9259 0.55793 0.0
C767 C 0.17721 0.94238 0.56955 0.0
C768 C 0.17522 0.94825 0.59853 0.0
C769 C 0.1457 0.9666 0.60525 0.0
C770 C 0.12544 0.95053 0.62575 0.0
C771 C 0.15264 0.9962 0.61754 0.0
C772 C 0.13131 0.96974 0.57557 0.0
C773 C 0.14999 0.95543 0.55538 0.0
C774 C 0.14116 0.95357 0.52678 0.0
C775 C 0.11245 0.96638 0.51857 0.0
C776 C 0.09288 0.98137 0.53865 0.0
C777 C 0.10261 0.98334 0.56753 0.0
H778 H 0.79606 0.43739 0.9451 0.0
H779 H 0.77713 0.4173 0.03401 0.0
H780 H 0.83027 0.42519 0.04665 0.0
H781 H 0.87688 0.40807 0.94351 0.0
H782 H 0.88846 0.43735 0.92167 0.0
H783 H 0.85033 0.42566 0.91834 0.0
H784 H 0.82756 0.47797 0.92848 0.0
H785 H 0.86553 0.48981 0.93175 0.0
H786 H 0.83858 0.49616 0.96064 0.0
H787 H 0.88261 0.4399 0.05106 0.0
H788 H 0.93109 0.463 0.04757 0.0
H789 H 0.9166 0.4763 0.95643 0.0
C790 C 0.80304 0.43449 0.96724 0.0
C791 C 0.78228 0.42646 0.98851 0.0
C792 C 0.79261 0.42273 0.01715 0.0
C793 C 0.82279 0.42726 0.02459 0.0
C794 C 0.84239 0.43558 1.0032 0.0
C795 C 0.83301 0.43929 0.97513 0.0
C796 C 0.85782 0.45114 0.95693 0.0
C797 C 0.86903 0.42924 0.93374 0.0
C798 C 0.8467 0.48051 0.94368 0.0
C799 C 0.88224 0.45447 0.97945 0.0
C800 C 0.87291 0.44481 1.00585 0.0
C801 C 0.89033 0.44726 0.0305 0.0
C802 C 0.91768 0.4606 0.02833 0.0
C803 C 0.9273 0.47146 1.00178 0.0
C804 C 0.90983 0.46772 0.97684 0.0
H805 H 0.72412 0.5594 0.43883 0.0
H806 H 0.75846 0.56161 0.52608 0.0
H807 H 0.70668 0.5552 0.54438 0.0
H808 H 0.64969 0.59735 0.45288 0.0
H809 H 0.62974 0.57528 0.42836 0.0
H810 H 0.66919 0.58162 0.42193 0.0
H811 H 0.68339 0.52628 0.4203 0.0
H812 H 0.644 0.51979 0.42659 0.0
H813 H 0.67345 0.50416 0.45011 0.0
H814 H 0.65271 0.54567 0.55322 0.0
H815 H 0.5991 0.53341 0.55236 0.0
H816 H 0.59882 0.53776 0.4594 0.0
C817 C 0.72072 0.55851 0.46178 0.0
C818 C 0.74528 0.5611 0.48107 0.0
C819 C 0.73989 0.56008 0.51096 0.0
C820 C 0.7106 0.55637 0.52154 0.0
C821 C 0.68695 0.55386 0.50196 0.0
C822 C 0.69159 0.55492 0.47273 0.0
C823 C 0.66233 0.55074 0.45639 0.0
C824 C 0.65214 0.57787 0.43886 0.0
C825 C 0.66602 0.52363 0.43722 0.0
C826 C 0.64066 0.54664 0.48104 0.0
C827 C 0.65541 0.54866 0.50711 0.0
C828 C 0.6408 0.54429 0.53298 0.0
C829 C 0.61038 0.53727 0.53224 0.0
C830 C 0.59482 0.53477 0.5058 0.0
C831 C 0.61004 0.53997 0.4799 0.0
H832 H 0.09772 0.30458 0.08183 0.0
H833 H 0.07867 0.32477 0.17128 0.0
H834 H 0.0565 0.3733 0.15713 0.0
H835 H 0.12145 0.37432 0.06295 0.0
H836 H 0.10474 0.3744 0.02762 0.0
H837 H 0.11733 0.34061 0.04449 0.0
H838 H 0.06336 0.32251 0.0379 0.0
H839 H 0.05062 0.35621 0.0209 0.0
H840 H 0.0305 0.34392 0.05167 0.0
H841 H 0.03787 0.42096 0.13313 0.0
H842 H 0.02357 0.46263 0.10178 0.0
H843 H 0.05646 0.41253 0.02781 0.0
C844 C 0.08908 0.3191 0.09864 0.0
C845 C 0.09022 0.31035 0.12792 0.0
C846 C 0.07786 0.33032 0.14876 0.0
C847 C 0.06539 0.3582 0.1409 0.0
C848 C 0.06529 0.36615 0.11201 0.0
C849 C 0.07673 0.3471 0.09119 0.0
C850 C 0.07448 0.36116 0.06167 0.0
C851 C 0.1064 0.36271 0.04841 0.0
C852 C 0.05349 0.34498 0.04187 0.0
C853 C 0.06015 0.39122 0.06909 0.0
C854 C 0.05494 0.39358 0.09827 0.0
C855 C 0.04189 0.41923 0.11029 0.0
C856 C 0.03386 0.44291 0.09219 0.0
C857 C 0.0389 0.44121 0.06214 0.0
C858 C 0.05235 0.41481 0.05061 0.0
H859 H 0.53405 0.29511 0.93304 0.0
H860 H 0.55501 0.30918 0.02267 0.0
H861 H 0.54376 0.25895 0.03352 0.0
H862 H 0.47171 0.24508 0.94545 0.0
H863 H 0.48338 0.22337 0.91469 0.0
H864 H 0.48835 0.26164 0.91487 0.0
H865 H 0.546 0.25058 0.90396 0.0
H866 H 0.5414 0.21235 0.90423 0.0
H867 H 0.56904 0.22713 0.92763 0.0
H868 H 0.53824 0.20609 0.03331 0.0
H869 H 0.53492 0.15416 0.02274 0.0
H870 H 0.51572 0.17442 0.93355 0.0
C871 C 0.53508 0.288 0.95514 0.0
C872 C 0.54524 0.30603 0.97707 0.0
C873 C 0.54734 0.29564 1.00557 0.0
C874 C 0.54087 0.26723 0.01194 0.0
C875 C 0.53202 0.24968 0.98961 0.0
C876 C 0.52863 0.25975 0.96185 0.0
C877 C 0.52134 0.23576 0.9414 0.0
C878 C 0.48928 0.24183 0.92834 0.0
C879 C 0.54592 0.2312 0.91794 0.0
C880 C 0.52235 0.2104 0.96183 0.0
C881 C 0.52834 0.21899 0.98957 0.0
C882 C 0.53292 0.19918 0.01183 0.0
C883 C 0.53126 0.1698 1.0056 0.0
C884 C 0.52504 0.16061 0.9774 0.0
C885 C 0.52013 0.18114 0.95532 0.0
H886 H 0.96509 0.72356 0.45772 0.0
H887 H 0.95176 0.71353 0.54922 0.0
H888 H 0.96857 0.76269 0.55721 0.0
H889 H 0.03309 0.76653 0.46248 0.0
H890 H 0.02064 0.78849 0.43217 0.0
H891 H 0.0112 0.75136 0.43421 0.0
H892 H 0.95373 0.76806 0.42844 0.0
H893 H 0.9629 0.80516 0.42658 0.0
H894 H 0.93618 0.79436 0.45309 0.0
H895 H 0.98076 0.81444 0.55446 0.0
H896 H 0.98813 0.86514 0.5413 0.0
H897 H 0.99524 0.84063 0.45179 0.0
C898 C 0.96671 0.73122 0.47957 0.0
C899 C 0.95746 0.71459 0.50292 0.0
C900 C 0.95874 0.72594 0.53105 0.0
C901 C 0.96844 0.75371 0.53578 0.0
C902 C 0.97696 0.76965 0.51217 0.0
C903 C 0.9764 0.75873 0.48464 0.0
C904 C 0.98425 0.781 0.4627 0.0
C905 C 0.01408 0.77126 0.44697 0.0
C906 C 0.95768 0.78752 0.44147 0.0
C907 C 0.98845 0.80654 0.48211 0.0
C908 C 0.9844 0.79946 0.5106 0.0
C909 C 0.98461 0.82007 0.53233 0.0
C910 C 0.98871 0.84871 0.5247 0.0
C911 C 0.9926 0.85632 0.49566 0.0
C912 C 0.99299 0.83498 0.47416 0.0
H913 H 0.41012 0.71978 0.57252 0.0
H914 H 0.43046 0.69972 0.66183 0.0
H915 H 0.45398 0.65204 0.64738 0.0
H916 H 0.38939 0.64842 0.55314 0.0
H917 H 0.40609 0.64869 0.51787 0.0
H918 H 0.39213 0.68223 0.53461 0.0
H919 H 0.44513 0.70227 0.52809 0.0
H920 H 0.45926 0.6688 0.51129 0.0
H921 H 0.47872 0.68216 0.54209 0.0
H922 H 0.47369 0.60599 0.62429 0.0
H923 H 0.48929 0.56419 0.59434 0.0
H924 H 0.4559 0.61117 0.51854 0.0
C925 C 0.4194 0.70543 0.58917 0.0
C926 C 0.41837 0.71416 0.61857 0.0
C927 C 0.43131 0.69438 0.63925 0.0
C928 C 0.44457 0.66693 0.63123 0.0
C929 C 0.44486 0.65909 0.60233 0.0
C930 C 0.43269 0.67769 0.58152 0.0
C931 C 0.43562 0.66332 0.55198 0.0
C932 C 0.40392 0.6605 0.53861 0.0
C933 C 0.45589 0.68014 0.53219 0.0
C934 C 0.45118 0.63366 0.55952 0.0
C935 C 0.45621 0.63199 0.58877 0.0
C936 C 0.46988 0.60711 0.60139 0.0
C937 C 0.47866 0.58328 0.58392 0.0
C938 C 0.47395 0.58388 0.55373 0.0
C939 C 0.45996 0.60973 0.5414 0.0
H940 H 0.91403 0.89011 0.68273 0.0
H941 H 0.90557 0.96639 0.73707 0.0
H942 H 0.92631 0.99524 0.69844 0.0
H943 H 0.98543 0.90729 0.64659 0.0
H944 H 0.97406 0.8941 0.61212 0.0
H945 H 0.95994 0.87863 0.64446 0.0
H946 H 0.90437 0.89021 0.62681 0.0
H947 H 0.91837 0.90588 0.59454 0.0
H948 H 0.89171 0.92687 0.61716 0.0
H949 H 0.94608 0.01689 0.65377 0.0
H950 H 0.96508 0.0297 0.60621 0.0
H951 H 0.96137 0.94048 0.57852 0.0
C952 C 0.91702 0.91277 0.68658 0.0
C953 C 0.90804 0.92589 0.7132 0.0
C954 C 0.91201 0.95577 0.71703 0.0
C955 C 0.92385 0.9724 0.69513 0.0
C956 C 0.93181 0.95914 0.66908 0.0
C957 C 0.92876 0.92998 0.66461 0.0
C958 C 0.93849 0.92161 0.63404 0.0
C959 C 0.96613 0.89907 0.63433 0.0
C960 C 0.91163 0.91048 0.61715 0.0
C961 C 0.94728 0.95059 0.62219 0.0
C962 C 0.94323 0.97183 0.64294 0.0
C963 C 0.94943 1.00038 0.6374 0.0
C964 C 0.96023 1.00749 0.61013 0.0
C965 C 0.96486 0.98629 0.58826 0.0
C966 C 0.95813 0.95735 0.59457 0.0
H967 H 0.57879 0.07372 0.21838 0.0
H968 H 0.59487 0.15834 0.18449 0.0
H969 H 0.58216 0.14191 0.13596 0.0
H970 H 0.60789 0.031 0.15683 0.0
H971 H 0.57874 1.00565 0.15814 0.0
H972 H 0.59022 0.02318 0.19051 0.0
H973 H 0.53407 0.04217 0.19984 0.0
H974 H 0.52241 0.02464 0.16754 0.0
H975 H 0.51323 0.06293 0.17251 0.0
H976 H 0.56886 0.11717 0.0913 0.0
H977 H 0.55155 0.08696 0.05254 0.0
H978 H 0.53991 0.01732 0.11299 0.0
C979 C 0.57972 0.08867 0.20066 0.0
C980 C 0.58791 0.11748 0.20537 0.0
C981 C 0.58854 0.13637 0.18159 0.0
C982 C 0.58147 0.12715 0.15386 0.0
C983 C 0.57337 0.09889 0.14991 0.0
C984 C 0.57207 0.07989 0.17256 0.0
C985 C 0.56128 0.05105 0.16199 0.0
C986 C 0.58601 0.02625 0.16718 0.0
C987 C 0.53094 0.04483 0.17633 0.0
C988 C 0.55685 0.05691 0.12993 0.0
C989 C 0.56439 0.08464 0.12371 0.0
C990 C 0.56276 0.09547 0.09595 0.0
C991 C 0.55286 0.07786 0.07392 0.0
C992 C 0.54413 0.04942 0.07927 0.0
C993 C 0.54636 0.03881 0.10791 0.0
H994 H 0.4392 0.57903 0.23343 0.0
H995 H 0.38476 0.50495 0.22308 0.0
H996 H 0.39134 0.4939 0.27414 0.0
H997 H 0.49472 0.54005 0.28159 0.0
H998 H 0.50084 0.57212 0.3021 0.0
H999 H 0.49084 0.57511 0.2647 0.0
H1000 H 0.44482 0.61116 0.27783 0.0
H1001 H 0.45423 0.60777 0.31533 0.0
H1002 H 0.41665 0.60038 0.30295 0.0
H1003 H 0.39836 0.49421 0.32664 0.0
H1004 H 0.41656 0.49721 0.37608 0.0
H1005 H 0.47496 0.56473 0.3514 0.0
C1006 C 0.42913 0.56008 0.24152 0.0
C1007 C 0.41049 0.54353 0.22404 0.0
C1008 C 0.39791 0.51893 0.236 0.0
C1009 C 0.40169 0.51226 0.26504 0.0
C1010 C 0.41906 0.52971 0.28172 0.0
C1011 C 0.43357 0.55241 0.2703 0.0
C1012 C 0.45268 0.56639 0.29282 0.0
C1013 C 0.48679 0.56322 0.28483 0.0
C1014 C 0.44141 0.59832 0.2975 0.0
C1015 C 0.44614 0.54818 0.31874 0.0
C1016 C 0.4261 0.52766 0.31181 0.0
C1017 C 0.41494 0.50945 0.33219 0.0
C1018 C 0.42568 0.51123 0.36024 0.0
C1019 C 0.44835 0.5303 0.36758 0.0
C1020 C 0.45799 0.54965 0.34659 0.0
H1021 H 0.04507 0.45791 0.73495 0.0
H1022 H 0.10671 0.52609 0.72243 0.0
H1023 H 0.11304 0.52977 0.77457 0.0
H1024 H 0.00684 0.49395 0.79709 0.0
H1025 H 1.00079 0.45995 0.81408 0.0
H1026 H 1.00188 0.46227 0.77558 0.0
H1027 H 0.04464 0.42036 0.77487 0.0
H1028 H 0.04441 0.41858 0.81343 0.0
H1029 H 0.07945 0.42401 0.79473 0.0
H1030 H 0.11769 0.52178 0.82726 0.0
H1031 H 0.10878 0.51387 0.87851 0.0
H1032 H 0.03703 0.45768 0.8572 0.0
C1033 C 0.05928 0.47425 0.74289 0.0
C1034 C 0.07617 0.49101 0.72415 0.0
C1035 C 0.09452 0.51199 0.73602 0.0
C1036 C 0.09821 0.51439 0.76569 0.0
C1037 C 0.08255 0.49642 0.7833 0.0
C1038 C 0.06243 0.47768 0.77247 0.0
C1039 C 0.04676 0.46231 0.7963 0.0
C1040 C 0.01201 0.4701 0.79573 0.0
C1041 C 0.05428 0.42936 0.79472 0.0
C1042 C 0.06157 0.47516 0.82221 0.0
C1043 C 0.08273 0.49416 0.81409 0.0
C1044 C 0.10048 0.50769 0.83396 0.0
C1045 C 0.09514 0.50307 0.86304 0.0
C1046 C 0.07141 0.48596 0.87204 0.0
C1047 C 0.05523 0.47097 0.85122 0.0
H1048 H 0.72067 0.94795 0.90084 0.0
H1049 H 0.70344 0.85788 0.91418 0.0
H1050 H 0.65498 0.873 0.93799 0.0
H1051 H 0.68942 0.97539 0.96713 0.0
H1052 H 0.6713 1.00847 0.95265 0.0
H1053 H 0.70477 0.99125 0.93553 0.0
H1054 H 0.67528 0.98942 0.88757 0.0
H1055 H 0.64179 1.00688 0.90448 0.0
H1056 H 0.63951 0.97269 0.8864 0.0
H1057 H 0.61073 0.89661 0.96359 0.0
H1058 H 0.56915 0.92783 0.98513 0.0
H1059 H 0.61053 1.00394 0.95378 0.0
C1060 C 0.70645 0.93146 0.90841 0.0
C1061 C 0.71646 0.90159 0.90605 0.0
C1062 C 0.69696 0.88082 0.91629 0.0
C1063 C 0.66918 0.88919 0.92979 0.0
C1064 C 0.66051 0.91856 0.93268 0.0
C1065 C 0.67812 0.93951 0.9219 0.0
C1066 C 0.66277 0.96962 0.92803 0.0
C1067 C 0.68329 0.98722 0.94696 0.0
C1068 C 0.65434 0.9856 0.89994 0.0
C1069 C 0.63417 0.96213 0.94421 0.0
C1070 C 0.6337 0.93247 0.94669 0.0
C1071 C 0.61063 0.91988 0.96152 0.0
C1072 C 0.5871 0.93793 0.97387 0.0
C1073 C 0.58629 0.96848 0.97123 0.0
C1074 C 0.6103 0.98071 0.9561 0.0
H1075 H 0.78735 0.11032 0.42957 0.0
H1076 H 0.80423 0.06603 0.34812 0.0
H1077 H 0.85133 0.04195 0.36752 0.0
H1078 H 0.86821 0.12321 0.44126 0.0
H1079 H 0.86635 0.11848 0.47954 0.0
H1080 H 0.83275 0.13199 0.45999 0.0
H1081 H 0.80294 0.09072 0.48068 0.0
H1082 H 0.83649 0.07696 0.50015 0.0
H1083 H 0.81782 0.05364 0.47587 0.0
H1084 H 0.89476 0.01993 0.39564 0.0
H1085 H 0.93641 1.00577 0.42926 0.0
H1086 H 0.89731 0.06767 0.49162 0.0
C1087 C 0.80098 0.09581 0.41561 0.0
C1088 C 0.79091 0.08959 0.38735 0.0
C1089 C 0.81006 0.07044 0.37015 0.0
C1090 C 0.83731 0.05676 0.38088 0.0
C1091 C 0.84603 0.06281 0.40879 0.0
C1092 C 0.82893 0.0823 0.42582 0.0
C1093 C 0.84464 0.08548 0.45477 0.0
C1094 C 0.85352 0.11665 0.45914 0.0
C1095 C 0.82425 0.07614 0.47932 0.0
C1096 C 0.87294 0.06443 0.45129 0.0
C1097 C 0.8728 0.05142 0.42462 0.0
C1098 C 0.89533 0.0302 0.41646 0.0
C1099 C 0.91885 0.02217 0.43585 0.0
C1100 C 0.92029 0.03556 0.46311 0.0
C1101 C 0.897 0.05718 0.47088 0.0
H1102 H 0.23356 0.57101 1.00998 0.0
H1103 H 0.21703 0.64573 0.06526 0.0
H1104 H 0.16157 0.63876 0.06532 0.0
H1105 H 0.16042 0.58226 0.96796 0.0
H1106 H 0.15653 0.54387 0.96573 0.0
H1107 H 0.19403 0.55726 0.96705 0.0
H1108 H 0.20735 0.52459 1.01104 0.0
H1109 H 0.16978 0.51152 1.01023 0.0
H1110 H 0.18336 0.52793 0.04241 0.0
H1111 H 0.10976 0.61965 0.06473 0.0
H1112 H 0.06358 0.59274 0.05944 0.0
H1113 H 0.11363 0.53116 1.0032 0.0
C1114 C 0.21796 0.58644 0.02114 0.0
C1115 C 0.22901 0.60924 0.03712 0.0
C1116 C 0.2085 0.62857 0.05241 0.0
C1117 C 0.17714 0.62467 0.05267 0.0
C1118 C 0.16688 0.60145 0.03733 0.0
C1119 C 0.18656 0.58297 0.02139 0.0
C1120 C 0.16994 0.55877 1.00817 0.0
C1121 C 0.17024 0.56067 0.97527 0.0
C1122 C 0.18341 0.52895 0.0186 0.0
C1123 C 0.13812 0.56596 0.01995 0.0
C1124 C 0.13682 0.59067 0.03668 0.0
C1125 C 0.11032 0.60058 0.05126 0.0
C1126 C 0.08431 0.58503 0.04831 0.0
C1127 C 0.08502 0.55996 0.03082 0.0
C1128 C 0.11232 0.55041 0.0165 0.0
H1129 H 0.29146 0.44872 0.58727 0.0
H1130 H 0.25884 0.43875 0.50025 0.0
H1131 H 0.31143 0.44225 0.48212 0.0
H1132 H 0.34103 0.50166 0.57271 0.0
H1133 H 0.37033 0.48867 0.5977 0.0
H1134 H 0.33112 0.48167 0.60402 0.0
H1135 H 0.34659 0.42658 0.60665 0.0
H1136 H 0.38596 0.43342 0.60044 0.0
H1137 H 0.36733 0.40897 0.57732 0.0
H1138 H 0.36554 0.45307 0.47332 0.0
H1139 H 0.41824 0.46815 0.47427 0.0
H1140 H 0.41604 0.47013 0.56725 0.0
C1141 C 0.29549 0.44691 0.56441 0.0
C1142 C 0.27119 0.44353 0.54508 0.0
C1143 C 0.27726 0.44106 0.51537 0.0
C1144 C 0.30699 0.44309 0.50493 0.0
C1145 C 0.33031 0.44717 0.52455 0.0
C1146 C 0.32497 0.44872 0.55369 0.0
C1147 C 0.35356 0.45492 0.57012 0.0
C1148 C 0.34871 0.48342 0.58712 0.0
C1149 C 0.36398 0.42945 0.58979 0.0
C1150 C 0.37563 0.4576 0.54557 0.0
C1151 C 0.36179 0.45286 0.51948 0.0
C1152 C 0.37679 0.45631 0.49361 0.0
C1153 C 0.40664 0.46503 0.49439 0.0
C1154 C 0.42119 0.47011 0.52087 0.0
C1155 C 0.40563 0.46589 0.54676 0.0
H1156 H 0.91952 0.72781 0.93101 0.0
H1157 H 0.93972 0.69696 0.84459 0.0
H1158 H 0.95724 0.64916 0.86381 0.0
H1159 H 0.98374 0.68801 0.96574 0.0
H1160 H 0.96275 0.67973 0.99749 0.0
H1161 H 0.95179 0.71202 0.97732 0.0
H1162 H 0.89684 0.69591 0.97223 0.0
H1163 H 0.90765 0.66353 0.99236 0.0
H1164 H 0.89115 0.66087 0.95713 0.0
H1165 H 0.97255 0.60451 0.89156 0.0
H1166 H 0.98553 0.56568 0.9261 0.0
H1167 H 0.95533 0.62304 0.996 0.0
C1168 C 0.92749 0.71101 0.91606 0.0
C1169 C 0.92841 0.71671 0.88605 0.0
C1170 C 0.9393 0.69382 0.86756 0.0
C1171 C 0.9491 0.66632 0.8783 0.0
C1172 C 0.94796 0.66155 0.90776 0.0
C1173 C 0.93747 0.68317 0.92649 0.0
C1174 C 0.93887 0.67192 0.95729 0.0
C1175 C 0.96058 0.68894 0.97554 0.0
C1176 C 0.90671 0.67314 0.97053 0.0
C1177 C 0.95179 0.64066 0.95287 0.0
C1178 C 0.95675 0.63535 0.92402 0.0
C1179 C 0.96872 0.60844 0.91419 0.0
C1180 C 0.97605 0.5864 0.93418 0.0
C1181 C 0.97152 0.59091 0.96406 0.0
C1182 C 0.95899 0.61861 0.97343 0.0
H1183 H 0.47964 0.73217 0.08759 0.0
H1184 H 0.46502 0.71162 0.99812 0.0
H1185 H 0.4763 0.76121 0.98468 0.0
H1186 H 0.44299 0.79928 0.0868 0.0
H1187 H 0.46845 0.81652 0.11063 0.0
H1188 H 0.46506 0.77818 0.11311 0.0
H1189 H 0.5235 0.76818 0.10597 0.0
H1190 H 0.52725 0.80661 0.104 0.0
H1191 H 0.54163 0.78321 0.07536 0.0
H1192 H 0.48023 0.8142 0.98184 0.0
H1193 H 0.4808 0.86696 0.98927 0.0
H1194 H 0.49448 0.85333 0.08042 0.0
C1195 C 0.48013 0.73773 0.06508 0.0
C1196 C 0.47168 0.71807 0.04384 0.0
C1197 C 0.47146 0.72642 0.01467 0.0
C1198 C 0.47793 0.75447 1.00686 0.0
C1199 C 0.48488 0.77373 0.02844 0.0
C1200 C 0.48656 0.76563 0.05693 0.0
C1201 C 0.49167 0.79123 0.07616 0.0
C1202 C 0.46548 0.79661 0.09794 0.0
C1203 C 0.52288 0.78706 0.09126 0.0
C1204 C 0.49129 0.8152 0.05415 0.0
C1205 C 0.48759 0.80455 0.02674 0.0
C1206 C 0.48381 0.82273 1.00308 0.0
C1207 C 0.48389 0.85259 1.00752 0.0
C1208 C 0.48776 0.86391 0.03537 0.0
C1209 C 0.49191 0.845 0.05891 0.0
H1210 H 0.05832 0.29086 0.51614 0.0
H1211 H 0.03466 0.30903 0.60518 0.0
H1212 H 0.01494 0.26113 0.60943 0.0
H1213 H 0.99534 0.2456 0.49925 0.0
H1214 H 0.01946 0.22074 0.47787 0.0
H1215 H 0.02755 0.25823 0.48033 0.0
H1216 H 0.08259 0.24265 0.49766 0.0
H1217 H 0.07462 0.20519 0.49542 0.0
H1218 H 0.08795 0.21964 0.52866 0.0
H1219 H 1.00166 0.20987 0.60566 0.0
H1220 H 0.99702 0.15829 0.59399 0.0
H1221 H 0.0322 0.17232 0.50869 0.0
C1222 C 0.04875 0.28497 0.53647 0.0
C1223 C 0.04768 0.30416 0.56011 0.0
C1224 C 0.03492 0.29533 0.58635 0.0
C1225 C 0.02384 0.26796 0.58913 0.0
C1226 C 0.02585 0.24945 0.56561 0.0
C1227 C 0.03801 0.25753 0.53979 0.0
C1228 C 0.03992 0.23266 0.51863 0.0
C1229 C 0.01933 0.23974 0.49247 0.0
C1230 C 0.07325 0.22457 0.50957 0.0
C1231 C 0.02759 0.20923 0.53684 0.0
C1232 C 0.01917 0.21947 0.56373 0.0
C1233 C 0.0079 0.20163 0.58459 0.0
C1234 C 1.00531 0.17244 0.57779 0.0
C1235 C 0.01432 0.16143 0.55052 0.0
C1236 C 0.02537 0.18017 0.52979 0.0
H1237 H 0.59298 0.32583 0.37766 0.0
H1238 H 0.59439 0.26544 0.44862 0.0
H1239 H 0.57308 0.30436 0.4805 0.0
H1240 H 0.61557 0.38604 0.41793 0.0
H1241 H 0.59103 0.4132 0.39977 0.0
H1242 H 0.60419 0.38038 0.38132 0.0
H1243 H 0.54825 0.36992 0.37027 0.0
H1244 H 0.53493 0.40287 0.38848 0.0
H1245 H 0.5212 0.36885 0.39924 0.0
H1246 H 0.55575 0.34971 0.50593 0.0
H1247 H 0.53968 0.39869 0.52312 0.0
H1248 H 0.54748 0.43196 0.43668 0.0
C1249 C 0.58807 0.32078 0.39974 0.0
C1250 C 0.59522 0.2924 0.4106 0.0
C1251 C 0.58906 0.28686 0.4398 0.0
C1252 C 0.57699 0.30889 0.45812 0.0
C1253 C 0.57096 0.33668 0.44712 0.0
C1254 C 0.57591 0.34279 0.41858 0.0
C1255 C 0.56812 0.375 0.4129 0.0
C1256 C 0.59642 0.3895 0.40235 0.0
C1257 C 0.54154 0.37942 0.39145 0.0
C1258 C 0.55849 0.38589 0.44271 0.0
C1259 C 0.56043 0.36324 0.462 0.0
C1260 C 0.55386 0.36758 0.49096 0.0
C1261 C 0.54484 0.39567 0.50057 0.0
C1262 C 0.54217 0.41948 0.48142 0.0
C1263 C 0.5491 0.41434 0.45195 0.0
loop_
_geom_bond_atom_site_label_1
_geom_bond_atom_site_label_2
_geom_bond_distance
_geom_bond_site_symmetry_2
_ccdc_geom_bond_type
C0 C1 1.391 . S
C0 C4 1.391 . S
C0 H42 0.948 . S
C1 C0 1.391 . S
C1 C2 1.391 . S
C2 C1 1.391 . S
C2 H58 0.947 . S
C2 C59 1.392 . S
C3 C4 1.391 . S
C3 C7 1.397 . S
C3 C59 1.419 . S
C4 C0 1.391 . S
C4 C3 1.391 . S
C4 C5 1.399 . S
C5 C4 1.399 . S
C5 C8 1.396 . S
C5 C17 1.453 . S
C5 C18 1.684 . S
H6 C30 0.948 . S
C7 C3 1.397 . S
C7 C8 1.394 . S
C7 C26 1.723 . S
C8 C5 1.396 . S
C8 C7 1.394 . S
C8 C38 1.723 . S
H9 C32 0.947 . S
H10 C33 0.948 . S
H11 C39 0.982 . S
H12 C40 0.979 . S
H13 C40 0.980 . S
H14 C40 0.983 . S
H15 C39 0.979 . S
H16 C39 0.977 . S
C17 C5 1.453 . S
C17 H46 0.982 . S
C17 H47 0.979 . S
C17 H48 0.977 . S
C18 C5 1.684 . S
C18 H43 0.979 . S
C18 H44 0.980 . S
C18 H45 0.983 . S
C19 C20 1.391 . S
C19 C24 1.391 . S
C19 H49 0.948 . S
C20 C19 1.391 . S
C20 C21 1.391 . S
C21 C20 1.391 . S
C21 C22 1.392 . S
C21 H50 0.947 . S
C22 C21 1.392 . S
C22 C23 1.419 . S
C22 H51 0.948 . S
C23 C22 1.419 . S
C23 C24 1.391 . S
C23 C27 1.397 . S
C24 C19 1.391 . S
C24 C23 1.391 . S
C24 C25 1.399 . S
C25 C24 1.399 . S
C25 C26 1.396 . S
C25 C28 1.453 . S
C25 C29 1.684 . S
C26 C7 1.723 . S
C26 C25 1.396 . S
C26 C27 1.394 . S
C27 C23 1.397 . S
C27 C26 1.394 . S
C27 C37 1.723 . S
C28 C25 1.453 . S
C28 H52 0.982 . S
C28 H53 0.979 . S
C28 H54 0.977 . S
C29 C25 1.684 . S
C29 H55 0.979 . S
C29 H56 0.980 . S
C29 H57 0.983 . S
C30 H6 0.948 . S
C30 C31 1.391 . S
C30 C35 1.391 . S
C31 C30 1.391 . S
C31 C32 1.391 . S
C32 H9 0.947 . S
C32 C31 1.391 . S
C32 C33 1.392 . S
C33 H10 0.948 . S
C33 C32 1.392 . S
C33 C34 1.419 . S
C34 C33 1.419 . S
C34 C35 1.391 . S
C34 C38 1.397 . S
C35 C30 1.391 . S
C35 C34 1.391 . S
C35 C36 1.399 . S
C36 C35 1.399 . S
C36 C37 1.396 . S
C36 C39 1.453 . S
C36 C40 1.684 . S
C37 C27 1.723 . S
C37 C36 1.396 . S
C37 C38 1.394 . S
C38 C8 1.723 . S
C38 C34 1.397 . S
C38 C37 1.394 . S
C39 H11 0.982 . S
C39 H15 0.979 . S
C39 H16 0.977 . S
C39 C36 1.453 . S
C40 H12 0.979 . S
C40 H13 0.980 . S
C40 H14 0.983 . S
C40 C36 1.684 . S
H41 C59 0.948 . S
H42 C0 0.948 . S
H43 C18 0.979 . S
H44 C18 0.980 . S
H45 C18 0.983 . S
H46 C17 0.982 . S
H47 C17 0.979 . S
H48 C17 0.977 . S
H49 C19 0.948 . S
H50 C21 0.947 . S
H51 C22 0.948 . S
H52 C28 0.982 . S
H53 C28 0.979 . S
H54 C28 0.977 . S
H55 C29 0.979 . S
H56 C29 0.980 . S
H57 C29 0.983 . S
H58 C2 0.947 . S
C59 C2 1.392 . S
C59 C3 1.419 . S
C59 H41 0.948 . S
C60 C61 1.391 . S
C60 C64 1.391 . S
C60 H102 0.948 . S
C61 C60 1.391 . S
C61 C62 1.391 . S
C62 C61 1.391 . S
C62 H118 0.947 . S
C62 C119 1.392 . S
C63 C64 1.391 . S
C63 C67 1.397 . S
C63 C119 1.419 . S
C64 C60 1.391 . S
C64 C63 1.391 . S
C64 C65 1.399 . S
C65 C64 1.399 . S
C65 C68 1.396 . S
C65 C77 1.453 . S
C65 C78 1.684 . S
H66 C90 0.948 . S
C67 C63 1.397 . S
C67 C68 1.394 . S
C67 C86 1.723 . S
C68 C65 1.396 . S
C68 C67 1.394 . S
C68 C98 1.723 . S
H69 C92 0.947 . S
H70 C93 0.948 . S
H71 C99 0.982 . S
H72 C100 0.979 . S
H73 C100 0.980 . S
H74 C100 0.983 . S
H75 C99 0.979 . S
H76 C99 0.977 . S
C77 C65 1.453 . S
C77 H106 0.982 . S
C77 H107 0.979 . S
C77 H108 0.977 . S
C78 C65 1.684 . S
C78 H103 0.979 . S
C78 H104 0.980 . S
C78 H105 0.983 . S
C79 C80 1.391 . S
C79 C84 1.391 . S
C79 H109 0.948 . S
C80 C79 1.391 . S
C80 C81 1.391 . S
C81 C80 1.391 . S
C81 C82 1.392 . S
C81 H110 0.947 . S
C82 C81 1.392 . S
C82 C83 1.419 . S
C82 H111 0.948 . S
C83 C82 1.419 . S
C83 C84 1.391 . S
C83 C87 1.397 . S
C84 C79 1.391 . S
C84 C83 1.391 . S
C84 C85 1.399 . S
C85 C84 1.399 . S
C85 C86 1.396 . S
C85 C88 1.453 . S
C85 C89 1.684 . S
C86 C67 1.723 . S
C86 C85 1.396 . S
C86 C87 1.394 . S
C87 C83 1.397 . S
C87 C86 1.394 . S
C87 C97 1.723 . S
C88 C85 1.453 . S
C88 H112 0.982 . S
C88 H113 0.979 . S
C88 H114 0.977 . S
C89 C85 1.684 . S
C89 H115 0.979 . S
C89 H116 0.980 . S
C89 H117 0.983 . S
C90 H66 0.948 . S
C90 C91 1.391 . S
C90 C95 1.391 . S
C91 C90 1.391 . S
C91 C92 1.391 . S
C92 H69 0.947 . S
C92 C91 1.391 . S
C92 C93 1.392 . S
C93 H70 0.948 . S
C93 C92 1.392 . S
C93 C94 1.419 . S
C94 C93 1.419 . S
C94 C95 1.391 . S
C94 C98 1.397 . S
C95 C90 1.391 . S
C95 C94 1.391 . S
C95 C96 1.399 . S
C96 C95 1.399 . S
C96 C97 1.396 . S
C96 C99 1.453 . S
C96 C100 1.684 . S
C97 C87 1.723 . S
C97 C96 1.396 . S
C97 C98 1.394 . S
C98 C68 1.723 . S
C98 C94 1.397 . S
C98 C97 1.394 . S
C99 H71 0.982 . S
C99 H75 0.979 . S
C99 H76 0.977 . S
C99 C96 1.453 . S
C100 H72 0.979 . S
C100 H73 0.980 . S
C100 H74 0.983 . S
C100 C96 1.684 . S
H101 C119 0.948 . S
H102 C60 0.948 . S
H103 C78 0.979 . S
H104 C78 0.980 . S
H105 C78 0.983 . S
H106 C77 0.982 . S
H107 C77 0.979 . S
H108 C77 0.977 . S
H109 C79 0.948 . S
H110 C81 0.947 . S
H111 C82 0.948 . S
H112 C88 0.982 . S
H113 C88 0.979 . S
H114 C88 0.977 . S
H115 C89 0.979 . S
H116 C89 0.980 . S
H117 C89 0.983 . S
H118 C62 0.947 . S
C119 C62 1.392 . S
C119 C63 1.419 . S
C119 H101 0.948 . S
C120 C121 1.391 . S
C120 C124 1.391 . S
C120 H162 0.948 . S
C121 C120 1.391 . S
C121 C122 1.391 . S
C122 C121 1.391 . S
C122 H178 0.947 . S
C122 C179 1.392 . S
C123 C124 1.391 . S
C123 C127 1.397 . S
C123 C179 1.419 . S
C124 C120 1.391 . S
C124 C123 1.391 . S
C124 C125 1.399 . S
C125 C124 1.399 . S
C125 C128 1.396 . S
C125 C137 1.453 . S
C125 C138 1.684 . S
H126 C150 0.948 . S
C127 C123 1.397 . S
C127 C128 1.394 . S
C127 C146 1.723 . S
C128 C125 1.396 . S
C128 C127 1.394 . S
C128 C158 1.723 . S
H129 C152 0.947 . S
H130 C153 0.948 . S
H131 C159 0.982 . S
H132 C160 0.979 . S
H133 C160 0.980 . S
H134 C160 0.983 . S
H135 C159 0.979 . S
H136 C159 0.977 . S
C137 C125 1.453 . S
C137 H166 0.982 . S
C137 H167 0.979 . S
C137 H168 0.977 . S
C138 C125 1.684 . S
C138 H163 0.979 . S
C138 H164 0.980 . S
C138 H165 0.983 . S
C139 C140 1.391 . S
C139 C144 1.391 . S
C139 H169 0.948 . S
C140 C139 1.391 . S
C140 C141 1.391 . S
C141 C140 1.391 . S
C141 C142 1.392 . S
C141 H170 0.947 . S
C142 C141 1.392 . S
C142 C143 1.419 . S
C142 H171 0.948 . S
C143 C142 1.419 . S
C143 C144 1.391 . S
C143 C147 1.397 . S
C144 C139 1.391 . S
C144 C143 1.391 . S
C144 C145 1.399 . S
C145 C144 1.399 . S
C145 C146 1.396 . S
C145 C148 1.453 . S
C145 C149 1.684 . S
C146 C127 1.723 . S
C146 C145 1.396 . S
C146 C147 1.394 . S
C147 C143 1.397 . S
C147 C146 1.394 . S
C147 C157 1.723 . S
C148 C145 1.453 . S
C148 H172 0.982 . S
C148 H173 0.979 . S
C148 H174 0.977 . S
C149 C145 1.684 . S
C149 H175 0.979 . S
C149 H176 0.980 . S
C149 H177 0.983 . S
C150 H126 0.948 . S
C150 C151 1.391 . S
C150 C155 1.391 . S
C151 C150 1.391 . S
C151 C152 1.391 . S
C152 H129 0.947 . S
C152 C151 1.391 . S
C152 C153 1.392 . S
C153 H130 0.948 . S
C153 C152 1.392 . S
C153 C154 1.419 . S
C154 C153 1.419 . S
C154 C155 1.391 . S
C154 C158 1.397 . S
C155 C150 1.391 . S
C155 C154 1.391 . S
C155 C156 1.399 . S
C156 C155 1.399 . S
C156 C157 1.396 . S
C156 C159 1.453 . S
C156 C160 1.684 . S
C157 C147 1.723 . S
C157 C156 1.396 . S
C157 C158 1.394 . S
C158 C128 1.723 . S
C158 C154 1.397 . S
C158 C157 1.394 . S
C159 H131 0.982 . S
C159 H135 0.979 . S
C159 H136 0.977 . S
C159 C156 1.453 . S
C160 H132 0.979 . S
C160 H133 0.980 . S
C160 H134 0.983 . S
C160 C156 1.684 . S
H161 C179 0.948 . S
H162 C120 0.948 . S
H163 C138 0.979 . S
H164 C138 0.980 . S
H165 C138 0.983 . S
H166 C137 0.982 . S
H167 C137 0.979 . S
H168 C137 0.977 . S
H169 C139 0.948 . S
H170 C141 0.947 . S
H171 C142 0.948 . S
H172 C148 0.982 . S
H173 C148 0.979 . S
H174 C148 0.977 . S
H175 C149 0.979 . S
H176 C149 0.980 . S
H177 C149 0.983 . S
H178 C122 0.947 . S
C179 C122 1.392 . S
C179 C123 1.419 . S
C179 H161 0.948 . S
C180 C181 1.391 . S
C180 C184 1.391 . S
C180 H222 0.948 . S
C181 C180 1.391 . S
C181 C182 1.391 . S
C182 C181 1.391 . S
C182 H238 0.947 . S
C182 C239 1.392 . S
C183 C184 1.391 . S
C183 C187 1.397 . S
C183 C239 1.419 . S
C184 C180 1.391 . S
C184 C183 1.391 . S
C184 C185 1.399 . S
C185 C184 1.399 . S
C185 C188 1.396 . S
C185 C197 1.453 . S
C185 C198 1.684 . S
H186 C210 0.948 . S
C187 C183 1.397 . S
C187 C188 1.394 . S
C187 C206 1.723 . S
C188 C185 1.396 . S
C188 C187 1.394 . S
C188 C218 1.723 . S
H189 C212 0.947 . S
H190 C213 0.948 . S
H191 C219 0.982 . S
H192 C220 0.979 . S
H193 C220 0.980 . S
H194 C220 0.983 . S
H195 C219 0.979 . S
H196 C219 0.977 . S
C197 C185 1.453 . S
C197 H226 0.982 . S
C197 H227 0.979 . S
C197 H228 0.977 . S
C198 C185 1.684 . S
C198 H223 0.979 . S
C198 H224 0.980 . S
C198 H225 0.983 . S
C199 C200 1.391 . S
C199 C204 1.391 . S
C199 H229 0.948 . S
C200 C199 1.391 . S
C200 C201 1.391 . S
C201 C200 1.391 . S
C201 C202 1.392 . S
C201 H230 0.947 . S
C202 C201 1.392 . S
C202 C203 1.419 . S
C202 H231 0.948 . S
C203 C202 1.419 . S
C203 C204 1.391 . S
C203 C207 1.397 . S
C204 C199 1.391 . S
C204 C203 1.391 . S
C204 C205 1.399 . S
C205 C204 1.399 . S
C205 C206 1.396 . S
C205 C208 1.453 . S
C205 C209 1.684 . S
C206 C187 1.723 . S
C206 C205 1.396 . S
C206 C207 1.394 . S
C207 C203 1.397 . S
C207 C206 1.394 . S
C207 C217 1.723 . S
C208 C205 1.453 . S
C208 H232 0.982 . S
C208 H233 0.979 . S
C208 H234 0.977 . S
C209 C205 1.684 . S
C209 H235 0.979 . S
C209 H236 0.980 . S
C209 H237 0.983 . S
C210 H186 0.948 . S
C210 C211 1.391 . S
C210 C215 1.391 . S
C211 C210 1.391 . S
C211 C212 1.391 . S
C212 H189 0.947 . S
C212 C211 1.391 . S
C212 C213 1.392 . S
C213 H190 0.948 . S
C213 C212 1.392 . S
C213 C214 1.419 . S
C214 C213 1.419 . S
C214 C215 1.391 . S
C214 C218 1.397 . S
C215 C210 1.391 . S
C215 C214 1.391 . S
C215 C216 1.399 . S
C216 C215 1.399 . S
C216 C217 1.396 . S
C216 C219 1.453 . S
C216 C220 1.684 . S
C217 C207 1.723 . S
C217 C216 1.396 . S
C217 C218 1.394 . S
C218 C188 1.723 . S
C218 C214 1.397 . S
C218 C217 1.394 . S
C219 H191 0.982 . S
C219 H195 0.979 . S
C219 H196 0.977 . S
C219 C216 1.453 . S
C220 H192 0.979 . S
C220 H193 0.980 . S
C220 H194 0.983 . S
C220 C216 1.684 . S
H221 C239 0.948 . S
H222 C180 0.948 . S
H223 C198 0.979 . S
H224 C198 0.980 . S
H225 C198 0.983 . S
H226 C197 0.982 . S
H227 C197 0.979 . S
H228 C197 0.977 . S
H229 C199 0.948 . S
H230 C201 0.947 . S
H231 C202 0.948 . S
H232 C208 0.982 . S
H233 C208 0.979 . S
H234 C208 0.977 . S
H235 C209 0.979 . S
H236 C209 0.980 . S
H237 C209 0.983 . S
H238 C182 0.947 . S
C239 C182 1.392 . S
C239 C183 1.419 . S
C239 H221 0.948 . S
C240 C241 1.391 . S
C240 C244 1.391 . S
C240 H282 0.948 . S
C241 C240 1.391 . S
C241 C242 1.391 . S
C242 C241 1.391 . S
C242 H298 0.947 . S
C242 C299 1.392 . S
C243 C244 1.391 . S
C243 C247 1.397 . S
C243 C299 1.419 . S
C244 C240 1.391 . S
C244 C243 1.391 . S
C244 C245 1.399 . S
C245 C244 1.399 . S
C245 C248 1.396 . S
C245 C257 1.453 . S
C245 C258 1.684 . S
H246 C270 0.948 . S
C247 C243 1.397 . S
C247 C248 1.394 . S
C247 C266 1.723 . S
C248 C245 1.396 . S
C248 C247 1.394 . S
C248 C278 1.723 . S
H249 C272 0.947 . S
H250 C273 0.948 . S
H251 C279 0.982 . S
H252 C280 0.979 . S
H253 C280 0.980 . S
H254 C280 0.983 . S
H255 C279 0.979 . S
H256 C279 0.977 . S
C257 C245 1.453 . S
C257 H286 0.982 . S
C257 H287 0.979 . S
C257 H288 0.977 . S
C258 C245 1.684 . S
C258 H283 0.979 . S
C258 H284 0.980 . S
C258 H285 0.983 . S
C259 C260 1.391 . S
C259 C264 1.391 . S
C259 H289 0.948 . S
C260 C259 1.391 . S
C260 C261 1.391 . S
C261 C260 1.391 . S
C261 C262 1.392 . S
C261 H290 0.947 . S
C262 C261 1.392 . S
C262 C263 1.419 . S
C262 H291 0.948 . S
C263 C262 1.419 . S
C263 C264 1.391 . S
C263 C267 1.397 . S
C264 C259 1.391 . S
C264 C263 1.391 . S
C264 C265 1.399 . S
C265 C264 1.399 . S
C265 C266 1.396 . S
C265 C268 1.453 . S
C265 C269 1.684 . S
C266 C247 1.723 . S
C266 C265 1.396 . S
C266 C267 1.394 . S
C267 C263 1.397 . S
C267 C266 1.394 . S
C267 C277 1.723 . S
C268 C265 1.453 . S
C268 H292 0.982 . S
C268 H293 0.979 . S
C268 H294 0.977 . S
C269 C265 1.684 . S
C269 H295 0.979 . S
C269 H296 0.980 . S
C269 H297 0.983 . S
C270 H246 0.948 . S
C270 C271 1.391 . S
C270 C275 1.391 . S
C271 C270 1.391 . S
C271 C272 1.391 . S
C272 H249 0.947 . S
C272 C271 1.391 . S
C272 C273 1.392 . S
C273 H250 0.948 . S
C273 C272 1.392 . S
C273 C274 1.419 . S
C274 C273 1.419 . S
C274 C275 1.391 . S
C274 C278 1.397 . S
C275 C270 1.391 . S
C275 C274 1.391 . S
C275 C276 1.399 . S
C276 C275 1.399 . S
C276 C277 1.396 . S
C276 C279 1.453 . S
C276 C280 1.684 . S
C277 C267 1.723 . S
C277 C276 1.396 . S
C277 C278 1.394 . S
C278 C248 1.723 . S
C278 C274 1.397 . S
C278 C277 1.394 . S
C279 H251 0.982 . S
C279 H255 0.979 . S
C279 H256 0.977 . S
C279 C276 1.453 . S
C280 H252 0.979 . S
C280 H253 0.980 . S
C280 H254 0.983 . S
C280 C276 1.684 . S
H281 C299 0.948 . S
H282 C240 0.948 . S
H283 C258 0.979 . S
H284 C258 0.980 . S
H285 C258 0.983 . S
H286 C257 0.982 . S
H287 C257 0.979 . S
H288 C257 0.977 . S
H289 C259 0.948 . S
H290 C261 0.947 . S
H291 C262 0.948 . S
H292 C268 0.982 . S
H293 C268 0.979 . S
H294 C268 0.977 . S
H295 C269 0.979 . S
H296 C269 0.980 . S
H297 C269 0.983 . S
H298 C242 0.947 . S
C299 C242 1.392 . S
C299 C243 1.419 . S
C299 H281 0.948 . S
C300 C301 1.391 . S
C300 C304 1.391 . S
C300 H342 0.948 . S
C301 C300 1.391 . S
C301 C302 1.391 . S
C302 C301 1.391 . S
C302 H358 0.947 . S
C302 C359 1.392 . S
C303 C304 1.391 . S
C303 C307 1.397 . S
C303 C359 1.419 . S
C304 C300 1.391 . S
C304 C303 1.391 . S
C304 C305 1.399 . S
C305 C304 1.399 . S
C305 C308 1.396 . S
C305 C317 1.453 . S
C305 C318 1.684 . S
H306 C330 0.948 . S
C307 C303 1.397 . S
C307 C308 1.394 . S
C307 C326 1.723 . S
C308 C305 1.396 . S
C308 C307 1.394 . S
C308 C338 1.723 . S
H309 C332 0.947 . S
H310 C333 0.948 . S
H311 C339 0.982 . S
H312 C340 0.979 . S
H313 C340 0.980 . S
H314 C340 0.983 . S
H315 C339 0.979 . S
H316 C339 0.977 . S
C317 C305 1.453 . S
C317 H346 0.982 . S
C317 H347 0.979 . S
C317 H348 0.977 . S
C318 C305 1.684 . S
C318 H343 0.979 . S
C318 H344 0.980 . S
C318 H345 0.983 . S
C319 C320 1.391 . S
C319 C324 1.391 . S
C319 H349 0.948 . S
C320 C319 1.391 . S
C320 C321 1.391 . S
C321 C320 1.391 . S
C321 C322 1.392 . S
C321 H350 0.947 . S
C322 C321 1.392 . S
C322 C323 1.419 . S
C322 H351 0.948 . S
C323 C322 1.419 . S
C323 C324 1.391 . S
C323 C327 1.397 . S
C324 C319 1.391 . S
C324 C323 1.391 . S
C324 C325 1.399 . S
C325 C324 1.399 . S
C325 C326 1.396 . S
C325 C328 1.453 . S
C325 C329 1.684 . S
C326 C307 1.723 . S
C326 C325 1.396 . S
C326 C327 1.394 . S
C327 C323 1.397 . S
C327 C326 1.394 . S
C327 C337 1.723 . S
C328 C325 1.453 . S
C328 H352 0.982 . S
C328 H353 0.979 . S
C328 H354 0.977 . S
C329 C325 1.684 . S
C329 H355 0.979 . S
C329 H356 0.980 . S
C329 H357 0.983 . S
C330 H306 0.948 . S
C330 C331 1.391 . S
C330 C335 1.391 . S
C331 C330 1.391 . S
C331 C332 1.391 . S
C332 H309 0.947 . S
C332 C331 1.391 . S
C332 C333 1.392 . S
C333 H310 0.948 . S
C333 C332 1.392 . S
C333 C334 1.419 . S
C334 C333 1.419 . S
C334 C335 1.391 . S
C334 C338 1.397 . S
C335 C330 1.391 . S
C335 C334 1.391 . S
C335 C336 1.399 . S
C336 C335 1.399 . S
C336 C337 1.396 . S
C336 C339 1.453 . S
C336 C340 1.684 . S
C337 C327 1.723 . S
C337 C336 1.396 . S
C337 C338 1.394 . S
C338 C308 1.723 . S
C338 C334 1.397 . S
C338 C337 1.394 . S
C339 H311 0.982 . S
C339 H315 0.979 . S
C339 H316 0.977 . S
C339 C336 1.453 . S
C340 H312 0.979 . S
C340 H313 0.980 . S
C340 H314 0.983 . S
C340 C336 1.684 . S
H341 C359 0.948 . S
H342 C300 0.948 . S
H343 C318 0.979 . S
H344 C318 0.980 . S
H345 C318 0.983 . S
H346 C317 0.982 . S
H347 C317 0.979 . S
H348 C317 0.977 . S
H349 C319 0.948 . S
H350 C321 0.947 . S
H351 C322 0.948 . S
H352 C328 0.982 . S
H353 C328 0.979 . S
H354 C328 0.977 . S
H355 C329 0.979 . S
H356 C329 0.980 . S
H357 C329 0.983 . S
H358 C302 0.947 . S
C359 C302 1.392 . S
C359 C303 1.419 . S
C359 H341 0.948 . S
C360 C361 1.391 . S
C360 C364 1.391 . S
C360 H402 0.948 . S
C361 C360 1.391 . S
C361 C362 1.391 . S
C362 C361 1.391 . S
C362 H418 0.947 . S
C362 C419 1.392 . S
C363 C364 1.391 . S
C363 C367 1.397 . S
C363 C419 1.419 . S
C364 C360 1.391 . S
C364 C363 1.391 . S
C364 C365 1.399 . S
C365 C364 1.399 . S
C365 C368 1.396 . S
C365 C377 1.453 . S
C365 C378 1.684 . S
H366 C390 0.948 . S
C367 C363 1.397 . S
C367 C368 1.394 . S
C367 C386 1.723 . S
C368 C365 1.396 . S
C368 C367 1.394 . S
C368 C398 1.723 . S
H369 C392 0.947 . S
H370 C393 0.948 . S
H371 C399 0.982 . S
H372 C400 0.979 . S
H373 C400 0.980 . S
H374 C400 0.983 . S
H375 C399 0.979 . S
H376 C399 0.977 . S
C377 C365 1.453 . S
C377 H406 0.982 . S
C377 H407 0.979 . S
C377 H408 0.977 . S
C378 C365 1.684 . S
C378 H403 0.979 . S
C378 H404 0.980 . S
C378 H405 0.983 . S
C379 C380 1.391 . S
C379 C384 1.391 . S
C379 H409 0.948 . S
C380 C379 1.391 . S
C380 C381 1.391 . S
C381 C380 1.391 . S
C381 C382 1.392 . S
C381 H410 0.947 . S
C382 C381 1.392 . S
C382 C383 1.419 . S
C382 H411 0.948 . S
C383 C382 1.419 . S
C383 C384 1.391 . S
C383 C387 1.397 . S
C384 C379 1.391 . S
C384 C383 1.391 . S
C384 C385 1.399 . S
C385 C384 1.399 . S
C385 C386 1.396 . S
C385 C388 1.453 . S
C385 C389 1.684 . S
C386 C367 1.723 . S
C386 C385 1.396 . S
C386 C387 1.394 . S
C387 C383 1.397 . S
C387 C386 1.394 . S
C387 C397 1.723 . S
C388 C385 1.453 . S
C388 H412 0.982 . S
C388 H413 0.979 . S
C388 H414 0.977 . S
C389 C385 1.684 . S
C389 H415 0.979 . S
C389 H416 0.980 . S
C389 H417 0.983 . S
C390 H366 0.948 . S
C390 C391 1.391 . S
C390 C395 1.391 . S
C391 C390 1.391 . S
C391 C392 1.391 . S
C392 H369 0.947 . S
C392 C391 1.391 . S
C392 C393 1.392 . S
C393 H370 0.948 . S
C393 C392 1.392 . S
C393 C394 1.419 . S
C394 C393 1.419 . S
C394 C395 1.391 . S
C394 C398 1.397 . S
C395 C390 1.391 . S
C395 C394 1.391 . S
C395 C396 1.399 . S
C396 C395 1.399 . S
C396 C397 1.396 . S
C396 C399 1.453 . S
C396 C400 1.684 . S
C397 C387 1.723 . S
C397 C396 1.396 . S
C397 C398 1.394 . S
C398 C368 1.723 . S
C398 C394 1.397 . S
C398 C397 1.394 . S
C399 H371 0.982 . S
C399 H375 0.979 . S
C399 H376 0.977 . S
C399 C396 1.453 . S
C400 H372 0.979 . S
C400 H373 0.980 . S
C400 H374 0.983 . S
C400 C396 1.684 . S
H401 C419 0.948 . S
H402 C360 0.948 . S
H403 C378 0.979 . S
H404 C378 0.980 . S
H405 C378 0.983 . S
H406 C377 0.982 . S
H407 C377 0.979 . S
H408 C377 0.977 . S
H409 C379 0.948 . S
H410 C381 0.947 . S
H411 C382 0.948 . S
H412 C388 0.982 . S
H413 C388 0.979 . S
H414 C388 0.977 . S
H415 C389 0.979 . S
H416 C389 0.980 . S
H417 C389 0.983 . S
H418 C362 0.947 . S
C419 C362 1.392 . S
C419 C363 1.419 . S
C419 H401 0.948 . S
C420 C421 1.391 . S
C420 C424 1.391 . S
C420 H462 0.948 . S
C421 C420 1.391 . S
C421 C422 1.391 . S
C422 C421 1.391 . S
C422 H478 0.947 . S
C422 C479 1.392 . S
C423 C424 1.391 . S
C423 C427 1.397 . S
C423 C479 1.419 . S
C424 C420 1.391 . S
C424 C423 1.391 . S
C424 C425 1.399 . S
C425 C424 1.399 . S
C425 C428 1.396 . S
C425 C437 1.453 . S
C425 C438 1.684 . S
H426 C450 0.948 . S
C427 C423 1.397 . S
C427 C428 1.394 . S
C427 C446 1.723 . S
C428 C425 1.396 . S
C428 C427 1.394 . S
C428 C458 1.723 . S
H429 C452 0.947 . S
H430 C453 0.948 . S
H431 C459 0.982 . S
H432 C460 0.979 . S
H433 C460 0.980 . S
H434 C460 0.983 . S
H435 C459 0.979 . S
H436 C459 0.977 . S
C437 C425 1.453 . S
C437 H466 0.982 . S
C437 H467 0.979 . S
C437 H468 0.977 . S
C438 C425 1.684 . S
C438 H463 0.979 . S
C438 H464 0.980 . S
C438 H465 0.983 . S
C439 C440 1.391 . S
C439 C444 1.391 . S
C439 H469 0.948 . S
C440 C439 1.391 . S
C440 C441 1.391 . S
C441 C440 1.391 . S
C441 C442 1.392 . S
C441 H470 0.947 . S
C442 C441 1.392 . S
C442 C443 1.419 . S
C442 H471 0.948 . S
C443 C442 1.419 . S
C443 C444 1.391 . S
C443 C447 1.397 . S
C444 C439 1.391 . S
C444 C443 1.391 . S
C444 C445 1.399 . S
C445 C444 1.399 . S
C445 C446 1.396 . S
C445 C448 1.453 . S
C445 C449 1.684 . S
C446 C427 1.723 . S
C446 C445 1.396 . S
C446 C447 1.394 . S
C447 C443 1.397 . S
C447 C446 1.394 . S
C447 C457 1.723 . S
C448 C445 1.453 . S
C448 H472 0.982 . S
C448 H473 0.979 . S
C448 H474 0.977 . S
C449 C445 1.684 . S
C449 H475 0.979 . S
C449 H476 0.980 . S
C449 H477 0.983 . S
C450 H426 0.948 . S
C450 C451 1.391 . S
C450 C455 1.391 . S
C451 C450 1.391 . S
C451 C452 1.391 . S
C452 H429 0.947 . S
C452 C451 1.391 . S
C452 C453 1.392 . S
C453 H430 0.948 . S
C453 C452 1.392 . S
C453 C454 1.419 . S
C454 C453 1.419 . S
C454 C455 1.391 . S
C454 C458 1.397 . S
C455 C450 1.391 . S
C455 C454 1.391 . S
C455 C456 1.399 . S
C456 C455 1.399 . S
C456 C457 1.396 . S
C456 C459 1.453 . S
C456 C460 1.684 . S
C457 C447 1.723 . S
C457 C456 1.396 . S
C457 C458 1.394 . S
C458 C428 1.723 . S
C458 C454 1.397 . S
C458 C457 1.394 . S
C459 H431 0.982 . S
C459 H435 0.979 . S
C459 H436 0.977 . S
C459 C456 1.453 . S
C460 H432 0.979 . S
C460 H433 0.980 . S
C460 H434 0.983 . S
C460 C456 1.684 . S
H461 C479 0.948 . S
H462 C420 0.948 . S
H463 C438 0.979 . S
H464 C438 0.980 . S
H465 C438 0.983 . S
H466 C437 0.982 . S
H467 C437 0.979 . S
H468 C437 0.977 . S
H469 C439 0.948 . S
H470 C441 0.947 . S
H471 C442 0.948 . S
H472 C448 0.982 . S
H473 C448 0.979 . S
H474 C448 0.977 . S
H475 C449 0.979 . S
H476 C449 0.980 . S
H477 C449 0.983 . S
H478 C422 0.947 . S
C479 C422 1.392 . S
C479 C423 1.419 . S
C479 H461 0.948 . S
C480 O496 1.251 . S
C480 O498 1.254 1_545 S
N481 C482 1.333 . S
N481 C486 1.307 . S
N481 Zn487 2.020 . S
C482 N481 1.333 . S
C482 C483 1.379 . S
C482 H500 0.952 . S
C483 C482 1.379 . S
C483 C484 1.390 . S
C483 H510 0.949 . S
C484 C483 1.390 . S
C484 C485 1.357 . S
C485 C484 1.357 . S
C485 C486 1.370 . S
C485 H511 0.950 . S
C486 N481 1.307 . S
C486 C485 1.370 . S
C486 H504 0.948 1_455 S
Zn487 N481 2.020 . S
Zn487 O496 2.039 . S
Zn487 O502 2.034 . S
Zn487 O506 2.025 1_455 S
Zn487 O508 2.024 1_455 S
C488 O507 1.246 1_545 S
C488 O508 1.249 . S
N489 C490 1.307 . S
N489 C491 1.333 . S
N489 Zn495 2.020 . S
C490 N489 1.307 . S
C490 C494 1.370 . S
C490 H501 0.948 1_655 S
C491 N489 1.333 . S
C491 C492 1.379 . S
C491 H499 0.952 . S
C492 C491 1.379 . S
C492 C493 1.390 . S
C492 H512 0.949 . S
C493 C492 1.390 . S
C493 C494 1.357 . S
C494 C490 1.370 . S
C494 C493 1.357 . S
C494 H513 0.950 . S
Zn495 N489 2.020 . S
Zn495 O498 2.025 1_655 S
Zn495 O503 2.024 1_655 S
Zn495 O505 2.039 . S
Zn495 O507 2.034 . S
O496 C480 1.251 . S
O496 Zn487 2.039 . S
C497 O502 1.246 1_565 S
C497 O503 1.249 . S
O498 C480 1.254 1_565 S
O498 Zn495 2.025 1_455 S
H499 C491 0.952 . S
H500 C482 0.952 . S
H501 C490 0.948 1_455 S
O502 Zn487 2.034 . S
O502 C497 1.246 1_545 S
O503 Zn495 2.024 1_455 S
O503 C497 1.249 . S
H504 C486 0.948 1_655 S
O505 Zn495 2.039 . S
O505 C509 1.251 . S
O506 Zn487 2.025 1_655 S
O506 C509 1.254 1_545 S
O507 C488 1.246 1_565 S
O507 Zn495 2.034 . S
O508 Zn487 2.024 1_655 S
O508 C488 1.249 . S
C509 O505 1.251 . S
C509 O506 1.254 1_565 S
H510 C483 0.949 . S
H511 C485 0.950 . S
H512 C492 0.949 . S
H513 C494 0.950 . S
C514 O530 1.251 1_565 S
C514 O532 1.254 . S
N515 C516 1.333 . S
N515 C520 1.307 . S
N515 Zn521 2.020 . S
C516 N515 1.333 . S
C516 C517 1.379 . S
C516 H534 0.952 . S
C517 C516 1.379 . S
C517 C518 1.390 . S
C517 H544 0.949 . S
C518 C517 1.390 . S
C518 C519 1.357 . S
C519 C518 1.357 . S
C519 C520 1.370 . S
C519 H545 0.950 . S
C520 N515 1.307 . S
C520 C519 1.370 . S
C520 H538 0.948 . S
Zn521 N515 2.020 . S
Zn521 O530 2.039 . S
Zn521 O536 2.034 1_556 S
Zn521 O540 2.025 1_556 S
Zn521 O542 2.024 . S
C522 O541 1.246 . S
C522 O542 1.249 1_565 S
N523 C524 1.307 . S
N523 C525 1.333 . S
N523 Zn529 2.020 . S
C524 N523 1.307 . S
C524 C528 1.370 . S
C524 H535 0.948 . S
C525 N523 1.333 . S
C525 C526 1.379 . S
C525 H533 0.952 . S
C526 C525 1.379 . S
C526 C527 1.390 . S
C526 H546 0.949 . S
C527 C526 1.390 . S
C527 C528 1.357 . S
C528 C524 1.370 . S
C528 C527 1.357 . S
C528 H547 0.950 . S
Zn529 N523 2.020 . S
Zn529 O532 2.025 1_554 S
Zn529 O537 2.024 . S
Zn529 O539 2.039 . S
Zn529 O541 2.034 1_554 S
O530 C514 1.251 1_545 S
O530 Zn521 2.039 . S
C531 O536 1.246 . S
C531 O537 1.249 1_545 S
O532 C514 1.254 . S
O532 Zn529 2.025 1_556 S
H533 C525 0.952 . S
H534 C516 0.952 . S
H535 C524 0.948 . S
O536 Zn521 2.034 1_554 S
O536 C531 1.246 . S
O537 Zn529 2.024 . S
O537 C531 1.249 1_565 S
H538 C520 0.948 . S
O539 Zn529 2.039 . S
O539 C543 1.251 1_565 S
O540 Zn521 2.025 1_554 S
O540 C543 1.254 . S
O541 C522 1.246 . S
O541 Zn529 2.034 1_556 S
O542 Zn521 2.024 . S
O542 C522 1.249 1_545 S
C543 O539 1.251 1_545 S
C543 O540 1.254 . S
H544 C517 0.949 . S
H545 C519 0.950 . S
H546 C526 0.949 . S
H547 C528 0.950 . S
C548 O564 1.251 . S
C548 O566 1.254 . S
N549 C550 1.333 . S
N549 C554 1.307 . S
N549 Zn555 2.020 . S
C550 N549 1.333 . S
C550 C551 1.379 . S
C550 H568 0.952 . S
C551 C550 1.379 . S
C551 C552 1.390 . S
C551 H578 0.949 . S
C552 C551 1.390 . S
C552 C553 1.357 . S
C553 C552 1.357 . S
C553 C554 1.370 . S
C553 H579 0.950 . S
C554 N549 1.307 . S
C554 C553 1.370 . S
C554 H572 0.948 . S
Zn555 N549 2.020 . S
Zn555 O564 2.039 . S
Zn555 O570 2.034 . S
Zn555 O574 2.025 . S
Zn555 O576 2.024 . S
C556 O575 1.246 . S
C556 O576 1.249 . S
N557 C558 1.307 . S
N557 C559 1.333 . S
N557 Zn563 2.020 . S
C558 N557 1.307 . S
C558 C562 1.370 . S
C558 H569 0.948 . S
C559 N557 1.333 . S
C559 C560 1.379 . S
C559 H567 0.952 . S
C560 C559 1.379 . S
C560 C561 1.390 . S
C560 H580 0.949 . S
C561 C560 1.390 . S
C561 C562 1.357 . S
C562 C558 1.370 . S
C562 C561 1.357 . S
C562 H581 0.950 . S
Zn563 N557 2.020 . S
Zn563 O566 2.025 . S
Zn563 O571 2.024 . S
Zn563 O573 2.039 . S
Zn563 O575 2.034 . S
O564 C548 1.251 . S
O564 Zn555 2.039 . S
C565 O570 1.246 . S
C565 O571 1.249 . S
O566 C548 1.254 . S
O566 Zn563 2.025 . S
H567 C559 0.952 . S
H568 C550 0.952 . S
H569 C558 0.948 . S
O570 Zn555 2.034 . S
O570 C565 1.246 . S
O571 Zn563 2.024 . S
O571 C565 1.249 . S
H572 C554 0.948 . S
O573 Zn563 2.039 . S
O573 C577 1.251 . S
O574 Zn555 2.025 . S
O574 C577 1.254 . S
O575 C556 1.246 . S
O575 Zn563 2.034 . S
O576 Zn555 2.024 . S
O576 C556 1.249 . S
C577 O573 1.251 . S
C577 O574 1.254 . S
H578 C551 0.949 . S
H579 C553 0.950 . S
H580 C560 0.949 . S
H581 C562 0.950 . S
C582 O598 1.251 1_556 S
C582 O600 1.254 . S
N583 C584 1.333 . S
N583 C588 1.307 . S
N583 Zn589 2.020 . S
C584 N583 1.333 . S
C584 C585 1.379 . S
C584 H602 0.952 . S
C585 C584 1.379 . S
C585 C586 1.390 . S
C585 H612 0.949 . S
C586 C585 1.390 . S
C586 C587 1.357 . S
C587 C586 1.357 . S
C587 C588 1.370 . S
C587 H613 0.950 . S
C588 N583 1.307 . S
C588 C587 1.370 . S
C588 H606 0.948 . S
Zn589 N583 2.020 . S
Zn589 O598 2.039 . S
Zn589 O604 2.034 1_655 S
Zn589 O608 2.025 1_655 S
Zn589 O610 2.024 . S
C590 O609 1.246 . S
C590 O610 1.249 1_556 S
N591 C592 1.307 . S
N591 C593 1.333 . S
N591 Zn597 2.020 . S
C592 N591 1.307 . S
C592 C596 1.370 . S
C592 H603 0.948 . S
C593 N591 1.333 . S
C593 C594 1.379 . S
C593 H601 0.952 . S
C594 C593 1.379 . S
C594 C595 1.390 . S
C594 H614 0.949 . S
C595 C594 1.390 . S
C595 C596 1.357 . S
C596 C592 1.370 . S
C596 C595 1.357 . S
C596 H615 0.950 . S
Zn597 N591 2.020 . S
Zn597 O600 2.025 1_455 S
Zn597 O605 2.024 . S
Zn597 O607 2.039 . S
Zn597 O609 2.034 1_455 S
O598 C582 1.251 1_554 S
O598 Zn589 2.039 . S
C599 O604 1.246 . S
C599 O605 1.249 1_554 S
O600 C582 1.254 . S
O600 Zn597 2.025 1_655 S
H601 C593 0.952 . S
H602 C584 0.952 . S
H603 C592 0.948 . S
O604 Zn589 2.034 1_455 S
O604 C599 1.246 . S
O605 Zn597 2.024 . S
O605 C599 1.249 1_556 S
H606 C588 0.948 . S
O607 Zn597 2.039 . S
O607 C611 1.251 1_556 S
O608 Zn589 2.025 1_455 S
O608 C611 1.254 . S
O609 C590 1.246 . S
O609 Zn597 2.034 1_655 S
O610 Zn589 2.024 . S
O610 C590 1.249 1_554 S
C611 O607 1.251 1_554 S
C611 O608 1.254 . S
H612 C585 0.949 . S
H613 C587 0.950 . S
H614 C594 0.949 . S
H615 C596 0.950 . S
H616 C628 0.930 . S
H617 C630 0.930 . S
H618 C631 0.930 . S
H619 C635 0.959 . S
H620 C635 0.959 . S
H621 C635 0.961 . S
H622 C636 0.960 . S
H623 C636 0.961 . S
H624 C636 0.959 . S
H625 C639 0.929 1_565 S
H626 C640 0.931 1_565 S
H627 C642 0.930 . S
C628 H616 0.930 . S
C628 C629 1.399 . S
C628 C633 1.399 . S
C629 C628 1.399 . S
C629 C630 1.376 . S
C630 H617 0.930 . S
C630 C629 1.376 . S
C630 C631 1.388 . S
C631 H618 0.930 . S
C631 C630 1.388 . S
C631 C632 1.390 . S
C632 C631 1.390 . S
C632 C633 1.394 . S
C632 C638 1.465 . S
C633 C628 1.399 . S
C633 C632 1.394 . S
C633 C634 1.516 . S
C634 C633 1.516 . S
C634 C635 1.502 . S
C634 C636 1.561 . S
C634 C637 1.526 . S
C635 H619 0.959 . S
C635 H620 0.959 . S
C635 H621 0.961 . S
C635 C634 1.502 . S
C636 H622 0.960 . S
C636 H623 0.961 . S
C636 H624 0.959 . S
C636 C634 1.561 . S
C637 C634 1.526 . S
C637 C638 1.396 . S
C637 C642 1.390 . S
C638 C632 1.465 . S
C638 C637 1.396 . S
C638 C639 1.399 . S
C639 H625 0.929 1_545 S
C639 C638 1.399 . S
C639 C640 1.385 . S
C640 H626 0.931 1_545 S
C640 C639 1.385 . S
C640 C641 1.389 . S
C641 C640 1.389 . S
C641 C642 1.387 . S
C642 H627 0.930 . S
C642 C637 1.390 . S
C642 C641 1.387 . S
H643 C655 0.930 . S
H644 C657 0.930 . S
H645 C658 0.930 . S
H646 C662 0.959 . S
H647 C662 0.959 . S
H648 C662 0.961 . S
H649 C663 0.960 . S
H650 C663 0.961 . S
H651 C663 0.959 . S
H652 C666 0.929 1_545 S
H653 C667 0.931 1_545 S
H654 C669 0.930 . S
C655 H643 0.930 . S
C655 C656 1.399 . S
C655 C660 1.399 . S
C656 C655 1.399 . S
C656 C657 1.376 . S
C657 H644 0.930 . S
C657 C656 1.376 . S
C657 C658 1.388 . S
C658 H645 0.930 . S
C658 C657 1.388 . S
C658 C659 1.390 . S
C659 C658 1.390 . S
C659 C660 1.394 . S
C659 C665 1.465 . S
C660 C655 1.399 . S
C660 C659 1.394 . S
C660 C661 1.516 . S
C661 C660 1.516 . S
C661 C662 1.502 . S
C661 C663 1.561 . S
C661 C664 1.526 . S
C662 H646 0.959 . S
C662 H647 0.959 . S
C662 H648 0.961 . S
C662 C661 1.502 . S
C663 H649 0.960 . S
C663 H650 0.961 . S
C663 H651 0.959 . S
C663 C661 1.561 . S
C664 C661 1.526 . S
C664 C665 1.396 . S
C664 C669 1.390 . S
C665 C659 1.465 . S
C665 C664 1.396 . S
C665 C666 1.399 . S
C666 H652 0.929 1_565 S
C666 C665 1.399 . S
C666 C667 1.385 . S
C667 H653 0.931 1_565 S
C667 C666 1.385 . S
C667 C668 1.389 . S
C668 C667 1.389 . S
C668 C669 1.387 . S
C669 H654 0.930 . S
C669 C664 1.390 . S
C669 C668 1.387 . S
H670 C682 0.930 . S
H671 C684 0.930 . S
H672 C685 0.930 . S
H673 C689 0.959 . S
H674 C689 0.959 . S
H675 C689 0.961 . S
H676 C690 0.960 . S
H677 C690 0.961 . S
H678 C690 0.959 . S
H679 C693 0.929 . S
H680 C694 0.931 . S
H681 C696 0.930 . S
C682 H670 0.930 . S
C682 C683 1.399 . S
C682 C687 1.399 . S
C683 C682 1.399 . S
C683 C684 1.376 . S
C684 H671 0.930 . S
C684 C683 1.376 . S
C684 C685 1.388 . S
C685 H672 0.930 . S
C685 C684 1.388 . S
C685 C686 1.390 . S
C686 C685 1.390 . S
C686 C687 1.394 . S
C686 C692 1.465 . S
C687 C682 1.399 . S
C687 C686 1.394 . S
C687 C688 1.516 . S
C688 C687 1.516 . S
C688 C689 1.502 . S
C688 C690 1.561 . S
C688 C691 1.526 . S
C689 H673 0.959 . S
C689 H674 0.959 . S
C689 H675 0.961 . S
C689 C688 1.502 . S
C690 H676 0.960 . S
C690 H677 0.961 . S
C690 H678 0.959 . S
C690 C688 1.561 . S
C691 C688 1.526 . S
C691 C692 1.396 . S
C691 C696 1.390 . S
C692 C686 1.465 . S
C692 C691 1.396 . S
C692 C693 1.399 . S
C693 H679 0.929 . S
C693 C692 1.399 . S
C693 C694 1.385 . S
C694 H680 0.931 . S
C694 C693 1.385 . S
C694 C695 1.389 . S
C695 C694 1.389 . S
C695 C696 1.387 . S
C696 H681 0.930 . S
C696 C691 1.390 . S
C696 C695 1.387 . S
H697 C709 0.930 . S
H698 C711 0.930 . S
H699 C712 0.930 . S
H700 C716 0.959 . S
H701 C716 0.959 . S
H702 C716 0.961 . S
H703 C717 0.960 . S
H704 C717 0.961 . S
H705 C717 0.959 . S
H706 C720 0.929 . S
H707 C721 0.931 . S
H708 C723 0.930 . S
C709 H697 0.930 . S
C709 C710 1.399 . S
C709 C714 1.399 . S
C710 C709 1.399 . S
C710 C711 1.376 . S
C711 H698 0.930 . S
C711 C710 1.376 . S
C711 C712 1.388 . S
C712 H699 0.930 . S
C712 C711 1.388 . S
C712 C713 1.390 . S
C713 C712 1.390 . S
C713 C714 1.394 . S
C713 C719 1.465 . S
C714 C709 1.399 . S
C714 C713 1.394 . S
C714 C715 1.516 . S
C715 C714 1.516 . S
C715 C716 1.502 . S
C715 C717 1.561 . S
C715 C718 1.526 . S
C716 H700 0.959 . S
C716 H701 0.959 . S
C716 H702 0.961 . S
C716 C715 1.502 . S
C717 H703 0.960 . S
C717 H704 0.961 . S
C717 H705 0.959 . S
C717 C715 1.561 . S
C718 C715 1.526 . S
C718 C719 1.396 . S
C718 C723 1.390 . S
C719 C713 1.465 . S
C719 C718 1.396 . S
C719 C720 1.399 . S
C720 H706 0.929 . S
C720 C719 1.399 . S
C720 C721 1.385 . S
C721 H707 0.931 . S
C721 C720 1.385 . S
C721 C722 1.389 . S
C722 C721 1.389 . S
C722 C723 1.387 . S
C723 H708 0.930 . S
C723 C718 1.390 . S
C723 C722 1.387 . S
H724 C736 0.930 . S
H725 C738 0.930 . S
H726 C739 0.930 . S
H727 C743 0.959 . S
H728 C743 0.959 . S
H729 C743 0.961 . S
H730 C744 0.960 . S
H731 C744 0.961 . S
H732 C744 0.959 . S
H733 C747 0.927 1_556 S
H734 C748 0.931 1_556 S
H735 C750 0.930 . S
C736 H724 0.930 . S
C736 C737 1.399 . S
C736 C741 1.399 . S
C737 C736 1.399 . S
C737 C738 1.376 . S
C738 H725 0.930 . S
C738 C737 1.376 . S
C738 C739 1.388 . S
C739 H726 0.930 . S
C739 C738 1.388 . S
C739 C740 1.390 . S
C740 C739 1.390 . S
C740 C741 1.394 . S
C740 C746 1.465 . S
C741 C736 1.399 . S
C741 C740 1.394 . S
C741 C742 1.516 . S
C742 C741 1.516 . S
C742 C743 1.502 . S
C742 C744 1.561 1_545 S
C742 C745 1.526 . S
C743 H727 0.959 . S
C743 H728 0.959 . S
C743 H729 0.961 . S
C743 C742 1.502 . S
C744 H730 0.960 . S
C744 H731 0.961 . S
C744 H732 0.959 . S
C744 C742 1.561 1_565 S
C745 C742 1.526 . S
C745 C746 1.396 . S
C745 C750 1.390 . S
C746 C740 1.465 . S
C746 C745 1.396 . S
C746 C747 1.399 . S
C747 H733 0.927 1_554 S
C747 C746 1.399 . S
C747 C748 1.385 . S
C748 H734 0.931 1_554 S
C748 C747 1.385 . S
C748 C749 1.389 . S
C749 C748 1.389 . S
C749 C750 1.387 . S
C750 H735 0.930 . S
C750 C745 1.390 . S
C750 C749 1.387 . S
H751 C763 0.930 . S
H752 C765 0.930 . S
H753 C766 0.930 . S
H754 C770 0.959 . S
H755 C770 0.959 . S
H756 C770 0.961 . S
H757 C771 0.960 . S
H758 C771 0.961 . S
H759 C771 0.959 . S
H760 C774 0.929 . S
H761 C775 0.931 . S
H762 C777 0.930 . S
C763 H751 0.930 . S
C763 C764 1.399 . S
C763 C768 1.399 . S
C764 C763 1.399 . S
C764 C765 1.376 . S
C765 H752 0.930 . S
C765 C764 1.376 . S
C765 C766 1.388 . S
C766 H753 0.930 . S
C766 C765 1.388 . S
C766 C767 1.390 . S
C767 C766 1.390 . S
C767 C768 1.394 . S
C767 C773 1.465 . S
C768 C763 1.399 . S
C768 C767 1.394 . S
C768 C769 1.516 . S
C769 C768 1.516 . S
C769 C770 1.502 . S
C769 C771 1.561 . S
C769 C772 1.526 . S
C770 H754 0.959 . S
C770 H755 0.959 . S
C770 H756 0.961 . S
C770 C769 1.502 . S
C771 H757 0.960 . S
C771 H758 0.961 . S
C771 H759 0.959 . S
C771 C769 1.561 . S
C772 C769 1.526 . S
C772 C773 1.396 . S
C772 C777 1.390 . S
C773 C767 1.465 . S
C773 C772 1.396 . S
C773 C774 1.399 . S
C774 H760 0.929 . S
C774 C773 1.399 . S
C774 C775 1.385 . S
C775 H761 0.931 . S
C775 C774 1.385 . S
C775 C776 1.389 . S
C776 C775 1.389 . S
C776 C777 1.387 . S
C777 H762 0.930 . S
C777 C772 1.390 . S
C777 C776 1.387 . S
H778 C790 0.930 . S
H779 C792 0.930 . S
H780 C793 0.930 1_554 S
H781 C797 0.959 . S
H782 C797 0.959 . S
H783 C797 0.961 . S
H784 C798 0.960 . S
H785 C798 0.961 . S
H786 C798 0.959 . S
H787 C801 0.929 . S
H788 C802 0.931 . S
H789 C804 0.930 . S
C790 H778 0.930 . S
C790 C791 1.399 . S
C790 C795 1.399 . S
C791 C790 1.399 . S
C791 C792 1.376 . S
C792 H779 0.930 . S
C792 C791 1.376 . S
C792 C793 1.388 . S
C793 H780 0.930 1_556 S
C793 C792 1.388 . S
C793 C794 1.390 . S
C794 C793 1.390 . S
C794 C795 1.394 . S
C794 C800 1.465 . S
C795 C790 1.399 . S
C795 C794 1.394 . S
C795 C796 1.516 . S
C796 C795 1.516 . S
C796 C797 1.502 . S
C796 C798 1.561 . S
C796 C799 1.526 . S
C797 H781 0.959 . S
C797 H782 0.959 . S
C797 H783 0.961 . S
C797 C796 1.502 . S
C798 H784 0.960 . S
C798 H785 0.961 . S
C798 H786 0.959 . S
C798 C796 1.561 . S
C799 C796 1.526 . S
C799 C800 1.396 . S
C799 C804 1.390 . S
C800 C794 1.465 . S
C800 C799 1.396 . S
C800 C801 1.399 1_556 S
C801 H787 0.929 . S
C801 C800 1.399 1_554 S
C801 C802 1.385 . S
C802 H788 0.931 . S
C802 C801 1.385 . S
C802 C803 1.389 1_554 S
C803 C802 1.389 1_556 S
C803 C804 1.387 . S
C804 H789 0.930 . S
C804 C799 1.390 . S
C804 C803 1.387 . S
H805 C817 0.930 . S
H806 C819 0.930 . S
H807 C820 0.930 . S
H808 C824 0.959 . S
H809 C824 0.959 . S
H810 C824 0.961 . S
H811 C825 0.960 . S
H812 C825 0.961 . S
H813 C825 0.959 . S
H814 C828 0.929 . S
H815 C829 0.931 . S
H816 C831 0.930 . S
C817 H805 0.930 . S
C817 C818 1.399 . S
C817 C822 1.399 . S
C818 C817 1.399 . S
C818 C819 1.376 . S
C819 H806 0.930 . S
C819 C818 1.376 . S
C819 C820 1.388 . S
C820 H807 0.930 . S
C820 C819 1.388 . S
C820 C821 1.390 . S
C821 C820 1.390 . S
C821 C822 1.394 . S
C821 C827 1.465 . S
C822 C817 1.399 . S
C822 C821 1.394 . S
C822 C823 1.516 . S
C823 C822 1.516 . S
C823 C824 1.502 . S
C823 C825 1.561 . S
C823 C826 1.526 . S
C824 H808 0.959 . S
C824 H809 0.959 . S
C824 H810 0.961 . S
C824 C823 1.502 . S
C825 H811 0.960 . S
C825 H812 0.961 . S
C825 H813 0.959 . S
C825 C823 1.561 . S
C826 C823 1.526 . S
C826 C827 1.396 . S
C826 C831 1.390 . S
C827 C821 1.465 . S
C827 C826 1.396 . S
C827 C828 1.399 . S
C828 H814 0.929 . S
C828 C827 1.399 . S
C828 C829 1.385 . S
C829 H815 0.931 . S
C829 C828 1.385 . S
C829 C830 1.389 . S
C830 C829 1.389 . S
C830 C831 1.387 . S
C831 H816 0.930 . S
C831 C826 1.390 . S
C831 C830 1.387 . S
H832 C844 0.930 . S
H833 C846 0.930 . S
H834 C847 0.930 . S
H835 C851 0.943 1_554 S
H836 C851 0.983 . S
H837 C851 0.969 . S
H838 C852 0.960 . S
H839 C852 0.961 . S
H840 C852 0.959 1_554 S
H841 C855 0.929 . S
H842 C856 0.931 . S
H843 C858 0.930 1_556 S
C844 H832 0.930 . S
C844 C845 1.399 . S
C844 C849 1.399 . S
C845 C844 1.399 . S
C845 C846 1.376 . S
C846 H833 0.930 . S
C846 C845 1.376 . S
C846 C847 1.388 . S
C847 H834 0.930 . S
C847 C846 1.388 . S
C847 C848 1.390 . S
C848 C847 1.390 . S
C848 C849 1.394 . S
C848 C854 1.465 . S
C849 C844 1.399 . S
C849 C848 1.394 . S
C849 C850 1.516 . S
C850 C849 1.516 . S
C850 C851 1.486 1_554 S
C850 C852 1.561 1_554 S
C850 C853 1.526 . S
C851 H835 0.943 1_556 S
C851 H836 0.983 . S
C851 H837 0.969 . S
C851 C850 1.486 1_556 S
C852 H838 0.960 . S
C852 H839 0.961 . S
C852 H840 0.959 1_556 S
C852 C850 1.561 1_556 S
C853 C850 1.526 . S
C853 C854 1.396 . S
C853 C858 1.390 . S
C854 C848 1.465 . S
C854 C853 1.396 . S
C854 C855 1.399 . S
C855 H841 0.929 . S
C855 C854 1.399 . S
C855 C856 1.385 . S
C856 H842 0.931 . S
C856 C855 1.385 . S
C856 C857 1.389 . S
C857 C856 1.389 . S
C857 C858 1.387 . S
C858 H843 0.930 1_554 S
C858 C853 1.390 . S
C858 C857 1.387 . S
H859 C871 0.930 . S
H860 C873 0.930 . S
H861 C874 0.930 1_554 S
H862 C878 0.959 . S
H863 C878 0.959 . S
H864 C878 0.961 . S
H865 C879 0.960 . S
H866 C879 0.961 . S
H867 C879 0.959 . S
H868 C882 0.929 1_554 S
H869 C883 0.909 1_554 S
H870 C885 0.930 . S
C871 H859 0.930 . S
C871 C872 1.399 . S
C871 C876 1.399 . S
C872 C871 1.399 . S
C872 C873 1.376 . S
C873 H860 0.930 . S
C873 C872 1.376 . S
C873 C874 1.388 . S
C874 H861 0.930 1_556 S
C874 C873 1.388 . S
C874 C875 1.390 . S
C875 C874 1.390 . S
C875 C876 1.394 . S
C875 C881 1.465 . S
C876 C871 1.399 . S
C876 C875 1.394 . S
C876 C877 1.516 . S
C877 C876 1.516 . S
C877 C878 1.502 . S
C877 C879 1.561 . S
C877 C880 1.526 . S
C878 H862 0.959 . S
C878 H863 0.959 . S
C878 H864 0.961 . S
C878 C877 1.502 . S
C879 H865 0.960 . S
C879 H866 0.961 . S
C879 H867 0.959 . S
C879 C877 1.561 . S
C880 C877 1.526 . S
C880 C881 1.396 . S
C880 C885 1.390 . S
C881 C875 1.465 . S
C881 C880 1.396 . S
C881 C882 1.399 . S
C882 H868 0.929 1_556 S
C882 C881 1.399 . S
C882 C883 1.385 . S
C883 H869 0.909 1_556 S
C883 C882 1.385 . S
C883 C884 1.389 . S
C884 C883 1.389 . S
C884 C885 1.387 . S
C885 H870 0.930 . S
C885 C880 1.390 . S
C885 C884 1.387 . S
H886 C898 0.930 . S
H887 C900 0.930 . S
H888 C901 0.930 . S
H889 C905 0.959 . S
H890 C905 0.959 . S
H891 C905 0.961 . S
H892 C906 0.960 . S
H893 C906 0.961 . S
H894 C906 0.959 . S
H895 C909 0.929 . S
H896 C910 0.931 . S
H897 C912 0.930 . S
C898 H886 0.930 . S
C898 C899 1.399 . S
C898 C903 1.399 . S
C899 C898 1.399 . S
C899 C900 1.376 . S
C900 H887 0.930 . S
C900 C899 1.376 . S
C900 C901 1.388 . S
C901 H888 0.930 . S
C901 C900 1.388 . S
C901 C902 1.390 . S
C902 C901 1.390 . S
C902 C903 1.394 . S
C902 C908 1.465 . S
C903 C898 1.399 . S
C903 C902 1.394 . S
C903 C904 1.516 . S
C904 C903 1.516 . S
C904 C905 1.502 . S
C904 C906 1.561 . S
C904 C907 1.526 . S
C905 H889 0.959 . S
C905 H890 0.959 . S
C905 H891 0.961 . S
C905 C904 1.502 . S
C906 H892 0.960 . S
C906 H893 0.961 . S
C906 H894 0.959 . S
C906 C904 1.561 . S
C907 C904 1.526 . S
C907 C908 1.396 . S
C907 C912 1.390 . S
C908 C902 1.465 . S
C908 C907 1.396 . S
C908 C909 1.399 . S
C909 H895 0.929 . S
C909 C908 1.399 . S
C909 C910 1.385 . S
C910 H896 0.931 . S
C910 C909 1.385 . S
C910 C911 1.389 . S
C911 C910 1.389 . S
C911 C912 1.387 . S
C912 H897 0.930 . S
C912 C907 1.390 . S
C912 C911 1.387 . S
H913 C925 0.930 . S
H914 C927 0.930 . S
H915 C928 0.930 . S
H916 C932 0.959 . S
H917 C932 0.959 . S
H918 C932 0.961 . S
H919 C933 0.960 . S
H920 C933 0.961 . S
H921 C933 0.959 . S
H922 C936 0.929 . S
H923 C937 0.931 . S
H924 C939 0.930 . S
C925 H913 0.930 . S
C925 C926 1.399 . S
C925 C930 1.399 . S
C926 C925 1.399 . S
C926 C927 1.376 . S
C927 H914 0.930 . S
C927 C926 1.376 . S
C927 C928 1.388 . S
C928 H915 0.930 . S
C928 C927 1.388 . S
C928 C929 1.390 . S
C929 C928 1.390 . S
C929 C930 1.394 . S
C929 C935 1.465 . S
C930 C925 1.399 . S
C930 C929 1.394 . S
C930 C931 1.516 . S
C931 C930 1.516 . S
C931 C932 1.502 . S
C931 C933 1.561 . S
C931 C934 1.526 . S
C932 H916 0.959 . S
C932 H917 0.959 . S
C932 H918 0.961 . S
C932 C931 1.502 . S
C933 H919 0.960 . S
C933 H920 0.961 . S
C933 H921 0.959 . S
C933 C931 1.561 . S
C934 C931 1.526 . S
C934 C935 1.396 . S
C934 C939 1.390 . S
C935 C929 1.465 . S
C935 C934 1.396 . S
C935 C936 1.399 . S
C936 H922 0.929 . S
C936 C935 1.399 . S
C936 C937 1.385 . S
C937 H923 0.931 . S
C937 C936 1.385 . S
C937 C938 1.389 . S
C938 C937 1.389 . S
C938 C939 1.387 . S
C939 H924 0.930 . S
C939 C934 1.390 . S
C939 C938 1.387 . S
H940 C952 0.930 . S
H941 C954 0.930 . S
H942 C955 0.930 . S
H943 C959 0.963 . S
H944 C959 0.961 . S
H945 C959 0.961 . S
H946 C960 0.960 . S
H947 C960 0.961 . S
H948 C960 0.959 . S
H949 C963 0.929 1_545 S
H950 C964 0.931 1_545 S
H951 C966 0.930 . S
C952 H940 0.930 . S
C952 C953 1.399 . S
C952 C957 1.399 . S
C953 C952 1.399 . S
C953 C954 1.376 . S
C954 H941 0.930 . S
C954 C953 1.376 . S
C954 C955 1.388 . S
C955 H942 0.930 . S
C955 C954 1.388 . S
C955 C956 1.390 . S
C956 C955 1.390 . S
C956 C957 1.394 . S
C956 C962 1.465 . S
C957 C952 1.399 . S
C957 C956 1.394 . S
C957 C958 1.516 . S
C958 C957 1.516 . S
C958 C959 1.496 1_655 S
C958 C960 1.561 . S
C958 C961 1.526 . S
C959 H943 0.963 . S
C959 H944 0.961 . S
C959 H945 0.961 . S
C959 C958 1.496 1_455 S
C960 H946 0.960 . S
C960 H947 0.961 . S
C960 H948 0.959 . S
C960 C958 1.561 . S
C961 C958 1.526 . S
C961 C962 1.396 . S
C961 C966 1.390 . S
C962 C956 1.465 . S
C962 C961 1.396 . S
C962 C963 1.399 . S
C963 H949 0.929 1_565 S
C963 C962 1.399 . S
C963 C964 1.385 . S
C964 H950 0.931 1_565 S
C964 C963 1.385 . S
C964 C965 1.389 . S
C965 C964 1.389 . S
C965 C966 1.387 . S
C966 H951 0.930 . S
C966 C961 1.390 . S
C966 C965 1.387 . S
H967 C979 0.930 . S
H968 C981 0.930 . S
H969 C982 0.930 . S
H970 C986 0.959 . S
H971 C986 0.959 1_565 S
H972 C986 0.961 1_565 S
H973 C987 0.960 . S
H974 C987 0.961 . S
H975 C987 0.959 . S
H976 C990 0.929 . S
H977 C991 0.931 . S
H978 C993 0.930 1_565 S
C979 H967 0.930 . S
C979 C980 1.399 . S
C979 C984 1.399 . S
C980 C979 1.399 . S
C980 C981 1.376 . S
C981 H968 0.930 . S
C981 C980 1.376 . S
C981 C982 1.388 . S
C982 H969 0.930 . S
C982 C981 1.388 . S
C982 C983 1.390 . S
C983 C982 1.390 . S
C983 C984 1.394 . S
C983 C989 1.465 . S
C984 C979 1.399 . S
C984 C983 1.394 . S
C984 C985 1.516 . S
C985 C984 1.516 . S
C985 C986 1.502 . S
C985 C987 1.561 1_545 S
C985 C988 1.526 . S
C986 H970 0.959 . S
C986 H971 0.959 1_545 S
C986 H972 0.961 1_545 S
C986 C985 1.502 . S
C987 H973 0.960 . S
C987 H974 0.961 . S
C987 H975 0.959 . S
C987 C985 1.561 1_565 S
C988 C985 1.526 . S
C988 C989 1.396 . S
C988 C993 1.390 . S
C989 C983 1.465 . S
C989 C988 1.396 . S
C989 C990 1.399 . S
C990 H976 0.929 . S
C990 C989 1.399 . S
C990 C991 1.385 . S
C991 H977 0.931 . S
C991 C990 1.385 . S
C991 C992 1.389 . S
C992 C991 1.389 . S
C992 C993 1.387 . S
C993 H978 0.930 1_545 S
C993 C988 1.390 . S
C993 C992 1.387 . S
H994 C1006 0.930 . S
H995 C1008 0.930 . S
H996 C1009 0.930 . S
H997 C1013 0.959 . S
H998 C1013 0.959 . S
H999 C1013 0.961 . S
H1000 C1014 0.960 . S
H1001 C1014 0.961 . S
H1002 C1014 0.959 . S
H1003 C1017 0.929 . S
H1004 C1018 0.931 . S
H1005 C1020 0.930 . S
C1006 H994 0.930 . S
C1006 C1007 1.399 . S
C1006 C1011 1.399 . S
C1007 C1006 1.399 . S
C1007 C1008 1.376 . S
C1008 H995 0.930 . S
C1008 C1007 1.376 . S
C1008 C1009 1.388 . S
C1009 H996 0.930 . S
C1009 C1008 1.388 . S
C1009 C1010 1.390 . S
C1010 C1009 1.390 . S
C1010 C1011 1.394 . S
C1010 C1016 1.465 . S
C1011 C1006 1.399 . S
C1011 C1010 1.394 . S
C1011 C1012 1.516 . S
C1012 C1011 1.516 . S
C1012 C1013 1.502 . S
C1012 C1014 1.561 . S
C1012 C1015 1.526 . S
C1013 H997 0.959 . S
C1013 H998 0.959 . S
C1013 H999 0.961 . S
C1013 C1012 1.502 . S
C1014 H1000 0.960 . S
C1014 H1001 0.961 . S
C1014 H1002 0.959 . S
C1014 C1012 1.561 . S
C1015 C1012 1.526 . S
C1015 C1016 1.396 . S
C1015 C1020 1.390 . S
C1016 C1010 1.465 . S
C1016 C1015 1.396 . S
C1016 C1017 1.399 . S
C1017 H1003 0.929 . S
C1017 C1016 1.399 . S
C1017 C1018 1.385 . S
C1018 H1004 0.931 . S
C1018 C1017 1.385 . S
C1018 C1019 1.389 . S
C1019 C1018 1.389 . S
C1019 C1020 1.387 . S
C1020 H1005 0.930 . S
C1020 C1015 1.390 . S
C1020 C1019 1.387 . S
H1021 C1033 0.930 . S
H1022 C1035 0.930 . S
H1023 C1036 0.930 . S
H1024 C1040 0.959 . S
H1025 C1040 0.959 . S
H1026 C1040 0.961 . S
H1027 C1041 0.960 . S
H1028 C1041 0.961 . S
H1029 C1041 0.959 . S
H1030 C1044 0.929 . S
H1031 C1045 0.931 . S
H1032 C1047 0.930 . S
C1033 H1021 0.930 . S
C1033 C1034 1.399 . S
C1033 C1038 1.399 . S
C1034 C1033 1.399 . S
C1034 C1035 1.376 . S
C1035 H1022 0.930 . S
C1035 C1034 1.376 . S
C1035 C1036 1.388 . S
C1036 H1023 0.930 . S
C1036 C1035 1.388 . S
C1036 C1037 1.390 . S
C1037 C1036 1.390 . S
C1037 C1038 1.394 . S
C1037 C1043 1.465 . S
C1038 C1033 1.399 . S
C1038 C1037 1.394 . S
C1038 C1039 1.516 . S
C1039 C1038 1.516 . S
C1039 C1040 1.502 . S
C1039 C1041 1.561 . S
C1039 C1042 1.526 . S
C1040 H1024 0.959 . S
C1040 H1025 0.959 . S
C1040 H1026 0.961 . S
C1040 C1039 1.502 . S
C1041 H1027 0.960 . S
C1041 H1028 0.961 . S
C1041 H1029 0.959 . S
C1041 C1039 1.561 . S
C1042 C1039 1.526 . S
C1042 C1043 1.396 . S
C1042 C1047 1.390 . S
C1043 C1037 1.465 . S
C1043 C1042 1.396 . S
C1043 C1044 1.399 . S
C1044 H1030 0.929 . S
C1044 C1043 1.399 . S
C1044 C1045 1.385 . S
C1045 H1031 0.931 . S
C1045 C1044 1.385 . S
C1045 C1046 1.389 . S
C1046 C1045 1.389 . S
C1046 C1047 1.387 . S
C1047 H1032 0.930 . S
C1047 C1042 1.390 . S
C1047 C1046 1.387 . S
H1048 C1060 0.930 . S
H1049 C1062 0.930 . S
H1050 C1063 0.930 . S
H1051 C1067 0.977 . S
H1052 C1067 0.959 . S
H1053 C1067 0.961 . S
H1054 C1068 0.960 . S
H1055 C1068 0.961 . S
H1056 C1068 0.959 1_565 S
H1057 C1071 0.929 . S
H1058 C1072 0.931 . S
H1059 C1074 0.930 1_545 S
C1060 H1048 0.930 . S
C1060 C1061 1.399 . S
C1060 C1065 1.399 . S
C1061 C1060 1.399 . S
C1061 C1062 1.376 . S
C1062 H1049 0.930 . S
C1062 C1061 1.376 . S
C1062 C1063 1.388 . S
C1063 H1050 0.930 . S
C1063 C1062 1.388 . S
C1063 C1064 1.390 . S
C1064 C1063 1.390 . S
C1064 C1065 1.394 . S
C1064 C1070 1.465 . S
C1065 C1060 1.399 . S
C1065 C1064 1.394 . S
C1065 C1066 1.516 . S
C1066 C1065 1.516 . S
C1066 C1067 1.502 1_565 S
C1066 C1068 1.561 1_565 S
C1066 C1069 1.526 . S
C1067 H1051 0.977 . S
C1067 H1052 0.959 . S
C1067 H1053 0.961 . S
C1067 C1066 1.502 1_545 S
C1068 H1054 0.960 . S
C1068 H1055 0.961 . S
C1068 H1056 0.959 1_545 S
C1068 C1066 1.561 1_545 S
C1069 C1066 1.526 . S
C1069 C1070 1.396 . S
C1069 C1074 1.390 . S
C1070 C1064 1.465 . S
C1070 C1069 1.396 . S
C1070 C1071 1.399 . S
C1071 H1057 0.929 . S
C1071 C1070 1.399 . S
C1071 C1072 1.385 . S
C1072 H1058 0.931 . S
C1072 C1071 1.385 . S
C1072 C1073 1.389 . S
C1073 C1072 1.389 . S
C1073 C1074 1.387 . S
C1074 H1059 0.930 1_565 S
C1074 C1069 1.390 . S
C1074 C1073 1.387 . S
H1075 C1087 0.930 . S
H1076 C1089 0.930 . S
H1077 C1090 0.930 . S
H1078 C1094 0.959 . S
H1079 C1094 0.959 . S
H1080 C1094 0.961 . S
H1081 C1095 0.960 . S
H1082 C1095 0.961 . S
H1083 C1095 0.959 . S
H1084 C1098 0.929 . S
H1085 C1099 0.931 . S
H1086 C1101 0.930 . S
C1087 H1075 0.930 . S
C1087 C1088 1.399 . S
C1087 C1092 1.399 . S
C1088 C1087 1.399 . S
C1088 C1089 1.376 . S
C1089 H1076 0.930 . S
C1089 C1088 1.376 . S
C1089 C1090 1.388 . S
C1090 H1077 0.930 . S
C1090 C1089 1.388 . S
C1090 C1091 1.390 . S
C1091 C1090 1.390 . S
C1091 C1092 1.394 . S
C1091 C1097 1.465 . S
C1092 C1087 1.399 . S
C1092 C1091 1.394 . S
C1092 C1093 1.516 . S
C1093 C1092 1.516 . S
C1093 C1094 1.502 . S
C1093 C1095 1.561 . S
C1093 C1096 1.526 . S
C1094 H1078 0.959 . S
C1094 H1079 0.959 . S
C1094 H1080 0.961 . S
C1094 C1093 1.502 . S
C1095 H1081 0.960 . S
C1095 H1082 0.961 . S
C1095 H1083 0.959 . S
C1095 C1093 1.561 . S
C1096 C1093 1.526 . S
C1096 C1097 1.396 . S
C1096 C1101 1.390 . S
C1097 C1091 1.465 . S
C1097 C1096 1.396 . S
C1097 C1098 1.399 . S
C1098 H1084 0.929 . S
C1098 C1097 1.399 . S
C1098 C1099 1.385 . S
C1099 H1085 0.931 . S
C1099 C1098 1.385 . S
C1099 C1100 1.389 . S
C1100 C1099 1.389 . S
C1100 C1101 1.387 . S
C1101 H1086 0.930 . S
C1101 C1096 1.390 . S
C1101 C1100 1.387 . S
H1102 C1114 0.930 . S
H1103 C1116 0.930 . S
H1104 C1117 0.930 . S
H1105 C1121 0.959 1_554 S
H1106 C1121 0.959 . S
H1107 C1121 0.961 . S
H1108 C1122 0.960 . S
H1109 C1122 0.961 . S
H1110 C1122 0.959 . S
H1111 C1125 0.929 . S
H1112 C1126 0.931 . S
H1113 C1128 0.930 1_556 S
C1114 H1102 0.930 . S
C1114 C1115 1.399 . S
C1114 C1119 1.399 . S
C1115 C1114 1.399 . S
C1115 C1116 1.376 . S
C1116 H1103 0.930 . S
C1116 C1115 1.376 . S
C1116 C1117 1.388 . S
C1117 H1104 0.930 . S
C1117 C1116 1.388 . S
C1117 C1118 1.390 . S
C1118 C1117 1.390 . S
C1118 C1119 1.394 . S
C1118 C1124 1.465 . S
C1119 C1114 1.399 . S
C1119 C1118 1.394 . S
C1119 C1120 1.516 . S
C1120 C1119 1.516 . S
C1120 C1121 1.502 1_554 S
C1120 C1122 1.561 1_554 S
C1120 C1123 1.526 . S
C1121 H1105 0.959 1_556 S
C1121 H1106 0.959 . S
C1121 H1107 0.961 . S
C1121 C1120 1.502 1_556 S
C1122 H1108 0.960 . S
C1122 H1109 0.961 . S
C1122 H1110 0.959 . S
C1122 C1120 1.561 1_556 S
C1123 C1120 1.526 . S
C1123 C1124 1.396 . S
C1123 C1128 1.390 . S
C1124 C1118 1.465 . S
C1124 C1123 1.396 . S
C1124 C1125 1.399 . S
C1125 H1111 0.929 . S
C1125 C1124 1.399 . S
C1125 C1126 1.385 . S
C1126 H1112 0.931 . S
C1126 C1125 1.385 . S
C1126 C1127 1.389 . S
C1127 C1126 1.389 . S
C1127 C1128 1.387 . S
C1128 H1113 0.930 1_554 S
C1128 C1123 1.390 . S
C1128 C1127 1.387 . S
H1129 C1141 0.930 . S
H1130 C1143 0.930 . S
H1131 C1144 0.930 . S
H1132 C1148 0.959 . S
H1133 C1148 0.959 . S
H1134 C1148 0.961 . S
H1135 C1149 0.960 . S
H1136 C1149 0.961 . S
H1137 C1149 0.959 . S
H1138 C1152 0.929 . S
H1139 C1153 0.931 . S
H1140 C1155 0.930 . S
C1141 H1129 0.930 . S
C1141 C1142 1.399 . S
C1141 C1146 1.399 . S
C1142 C1141 1.399 . S
C1142 C1143 1.376 . S
C1143 H1130 0.930 . S
C1143 C1142 1.376 . S
C1143 C1144 1.388 . S
C1144 H1131 0.930 . S
C1144 C1143 1.388 . S
C1144 C1145 1.390 . S
C1145 C1144 1.390 . S
C1145 C1146 1.394 . S
C1145 C1151 1.465 . S
C1146 C1141 1.399 . S
C1146 C1145 1.394 . S
C1146 C1147 1.516 . S
C1147 C1146 1.516 . S
C1147 C1148 1.502 . S
C1147 C1149 1.561 . S
C1147 C1150 1.526 . S
C1148 H1132 0.959 . S
C1148 H1133 0.959 . S
C1148 H1134 0.961 . S
C1148 C1147 1.502 . S
C1149 H1135 0.960 . S
C1149 H1136 0.961 . S
C1149 H1137 0.959 . S
C1149 C1147 1.561 . S
C1150 C1147 1.526 . S
C1150 C1151 1.396 . S
C1150 C1155 1.390 . S
C1151 C1145 1.465 . S
C1151 C1150 1.396 . S
C1151 C1152 1.399 . S
C1152 H1138 0.929 . S
C1152 C1151 1.399 . S
C1152 C1153 1.385 . S
C1153 H1139 0.931 . S
C1153 C1152 1.385 . S
C1153 C1154 1.389 . S
C1154 C1153 1.389 . S
C1154 C1155 1.387 . S
C1155 H1140 0.930 . S
C1155 C1150 1.390 . S
C1155 C1154 1.387 . S
H1156 C1168 0.930 . S
H1157 C1170 0.930 . S
H1158 C1171 0.930 . S
H1159 C1175 0.959 . S
H1160 C1175 0.959 . S
H1161 C1175 0.961 . S
H1162 C1176 0.960 . S
H1163 C1176 0.961 1_554 S
H1164 C1176 0.959 . S
H1165 C1179 0.929 . S
H1166 C1180 0.931 . S
H1167 C1182 0.930 1_554 S
C1168 H1156 0.930 . S
C1168 C1169 1.399 . S
C1168 C1173 1.399 . S
C1169 C1168 1.399 . S
C1169 C1170 1.376 . S
C1170 H1157 0.930 . S
C1170 C1169 1.376 . S
C1170 C1171 1.388 . S
C1171 H1158 0.930 . S
C1171 C1170 1.388 . S
C1171 C1172 1.390 . S
C1172 C1171 1.390 . S
C1172 C1173 1.394 . S
C1172 C1178 1.465 . S
C1173 C1168 1.399 . S
C1173 C1172 1.394 . S
C1173 C1174 1.516 . S
C1174 C1173 1.516 . S
C1174 C1175 1.502 1_556 S
C1174 C1176 1.561 . S
C1174 C1177 1.526 . S
C1175 H1159 0.959 . S
C1175 H1160 0.959 . S
C1175 H1161 0.961 . S
C1175 C1174 1.502 1_554 S
C1176 H1162 0.960 . S
C1176 H1163 0.961 1_556 S
C1176 H1164 0.959 . S
C1176 C1174 1.561 . S
C1177 C1174 1.526 . S
C1177 C1178 1.396 . S
C1177 C1182 1.390 . S
C1178 C1172 1.465 . S
C1178 C1177 1.396 . S
C1178 C1179 1.399 . S
C1179 H1165 0.929 . S
C1179 C1178 1.399 . S
C1179 C1180 1.385 . S
C1180 H1166 0.931 . S
C1180 C1179 1.385 . S
C1180 C1181 1.389 . S
C1181 C1180 1.389 . S
C1181 C1182 1.387 . S
C1182 H1167 0.930 1_556 S
C1182 C1177 1.390 . S
C1182 C1181 1.387 . S
H1183 C1195 0.930 . S
H1184 C1197 0.930 . S
H1185 C1198 0.947 . S
H1186 C1202 0.959 . S
H1187 C1202 0.959 . S
H1188 C1202 0.961 . S
H1189 C1203 0.960 . S
H1190 C1203 0.961 . S
H1191 C1203 0.959 . S
H1192 C1206 0.929 1_556 S
H1193 C1207 0.931 . S
H1194 C1209 0.930 . S
C1195 H1183 0.930 . S
C1195 C1196 1.399 . S
C1195 C1200 1.399 . S
C1196 C1195 1.399 . S
C1196 C1197 1.376 . S
C1197 H1184 0.930 . S
C1197 C1196 1.376 . S
C1197 C1198 1.388 . S
C1198 H1185 0.947 . S
C1198 C1197 1.388 . S
C1198 C1199 1.390 . S
C1199 C1198 1.390 . S
C1199 C1200 1.394 . S
C1199 C1205 1.465 . S
C1200 C1195 1.399 . S
C1200 C1199 1.394 . S
C1200 C1201 1.516 . S
C1201 C1200 1.516 . S
C1201 C1202 1.502 . S
C1201 C1203 1.561 . S
C1201 C1204 1.526 . S
C1202 H1186 0.959 . S
C1202 H1187 0.959 . S
C1202 H1188 0.961 . S
C1202 C1201 1.502 . S
C1203 H1189 0.960 . S
C1203 H1190 0.961 . S
C1203 H1191 0.959 . S
C1203 C1201 1.561 . S
C1204 C1201 1.526 . S
C1204 C1205 1.396 . S
C1204 C1209 1.390 . S
C1205 C1199 1.465 . S
C1205 C1204 1.396 . S
C1205 C1206 1.399 . S
C1206 H1192 0.929 1_554 S
C1206 C1205 1.399 . S
C1206 C1207 1.385 . S
C1207 H1193 0.931 . S
C1207 C1206 1.385 . S
C1207 C1208 1.389 . S
C1208 C1207 1.389 . S
C1208 C1209 1.387 . S
C1209 H1194 0.930 . S
C1209 C1204 1.390 . S
C1209 C1208 1.387 . S
H1210 C1222 0.930 . S
H1211 C1224 0.930 . S
H1212 C1225 0.930 . S
H1213 C1229 0.959 . S
H1214 C1229 0.959 . S
H1215 C1229 0.961 . S
H1216 C1230 0.960 . S
H1217 C1230 0.961 . S
H1218 C1230 0.959 . S
H1219 C1233 0.929 . S
H1220 C1234 0.931 . S
H1221 C1236 0.930 . S
C1222 H1210 0.930 . S
C1222 C1223 1.399 . S
C1222 C1227 1.399 . S
C1223 C1222 1.399 . S
C1223 C1224 1.376 . S
C1224 H1211 0.930 . S
C1224 C1223 1.376 . S
C1224 C1225 1.388 . S
C1225 H1212 0.930 . S
C1225 C1224 1.388 . S
C1225 C1226 1.390 . S
C1226 C1225 1.390 . S
C1226 C1227 1.394 . S
C1226 C1232 1.465 . S
C1227 C1222 1.399 . S
C1227 C1226 1.394 . S
C1227 C1228 1.516 . S
C1228 C1227 1.516 . S
C1228 C1229 1.502 . S
C1228 C1230 1.561 . S
C1228 C1231 1.526 . S
C1229 H1213 0.959 . S
C1229 H1214 0.959 . S
C1229 H1215 0.961 . S
C1229 C1228 1.502 . S
C1230 H1216 0.960 . S
C1230 H1217 0.961 . S
C1230 H1218 0.959 . S
C1230 C1228 1.561 . S
C1231 C1228 1.526 . S
C1231 C1232 1.396 . S
C1231 C1236 1.390 . S
C1232 C1226 1.465 . S
C1232 C1231 1.396 . S
C1232 C1233 1.399 . S
C1233 H1219 0.929 . S
C1233 C1232 1.399 . S
C1233 C1234 1.385 . S
C1234 H1220 0.931 . S
C1234 C1233 1.385 . S
C1234 C1235 1.389 . S
C1235 C1234 1.389 . S
C1235 C1236 1.387 . S
C1236 H1221 0.930 . S
C1236 C1231 1.390 . S
C1236 C1235 1.387 . S
H1237 C1249 0.930 . S
H1238 C1251 0.930 . S
H1239 C1252 0.930 . S
H1240 C1256 0.959 . S
H1241 C1256 0.959 . S
H1242 C1256 0.961 . S
H1243 C1257 0.960 . S
H1244 C1257 0.961 . S
H1245 C1257 0.959 . S
H1246 C1260 0.929 . S
H1247 C1261 0.931 . S
H1248 C1263 0.930 . S
C1249 H1237 0.930 . S
C1249 C1250 1.399 . S
C1249 C1254 1.399 . S
C1250 C1249 1.399 . S
C1250 C1251 1.376 . S
C1251 H1238 0.930 . S
C1251 C1250 1.376 . S
C1251 C1252 1.388 . S
C1252 H1239 0.930 . S
C1252 C1251 1.388 . S
C1252 C1253 1.390 . S
C1253 C1252 1.390 . S
C1253 C1254 1.394 . S
C1253 C1259 1.465 . S
C1254 C1249 1.399 . S
C1254 C1253 1.394 . S
C1254 C1255 1.516 . S
C1255 C1254 1.516 . S
C1255 C1256 1.502 . S
C1255 C1257 1.561 . S
C1255 C1258 1.526 . S
C1256 H1240 0.959 . S
C1256 H1241 0.959 . S
C1256 H1242 0.961 . S
C1256 C1255 1.502 . S
C1257 H1243 0.960 . S
C1257 H1244 0.961 . S
C1257 H1245 0.959 . S
C1257 C1255 1.561 . S
C1258 C1255 1.526 . S
C1258 C1259 1.396 . S
C1258 C1263 1.390 . S
C1259 C1253 1.465 . S
C1259 C1258 1.396 . S
C1259 C1260 1.399 . S
C1260 H1246 0.929 . S
C1260 C1259 1.399 . S
C1260 C1261 1.385 . S
C1261 H1247 0.931 . S
C1261 C1260 1.385 . S
C1261 C1262 1.389 . S
C1262 C1261 1.389 . S
C1262 C1263 1.387 . S
C1263 H1248 0.930 . S
C1263 C1258 1.390 . S
C1263 C1262 1.387 . S
C629 C1 2.309 . S
C641 C480 2.320 . S
C656 C80 2.246 . S
C668 C522 2.293 . S
C695 C552 1.017 . S
C683 C140 0.963 . S
C710 C211 1.072 . S
C722 C586 1.038 . S
C749 C543 1.866 . S
C737 C31 1.866 . S
C776 C497 1.853 . S
C764 C61 1.832 . S
C803 C590 1.363 . S
C791 C151 1.318 . S
C830 C556 1.430 . S
C818 C200 1.369 . S
C845 C20 2.202 . S
C857 C611 2.212 . S
C884 C518 1.127 . S
C872 C121 1.147 . S
C899 C181 1.117 . S
C911 C493 1.156 . S
C926 C91 2.132 . S
C938 C577 2.188 . S
C965 C509 2.325 . S
C953 C260 2.279 . S
C980 C320 2.215 . S
C992 C531 2.290 . S
C1007 C361 0.998 . S
C1019 C561 0.991 . S
C1034 C451 1.074 . S
C1046 C595 1.053 . S
C1061 C271 1.823 . S
C1073 C514 1.873 . S
C1100 C488 1.866 . S
C1088 C301 1.799 . S
C1127 C599 1.387 . S
C1115 C380 1.382 . S
C1154 C565 1.428 . S
C1142 C440 1.402 . S
C1169 C241 2.198 . S
C1181 C582 2.217 . S
C1208 C527 1.123 . S
C1196 C391 1.149 . S
C1235 C484 1.173 . S
C1223 C421 1.067 . S
C1250 C331 2.113 . S
C1262 C548 2.193 . S
