# Generated by pormake.
# Topology anh, (6,3)-cn, num edge types: 1
# Building blocks:
#     Node 0, Type 0, BuildingBlock: BETDAH_clean_sbu_0, # of connection points: 6
#     Node 1, Type 0, BuildingBlock: BETDAH_clean_sbu_0, # of connection points: 6
#     Node 2, Type 0, BuildingBlock: BETDAH_clean_sbu_0, # of connection points: 6
#     Node 3, Type 1, BuildingBlock: QEWDON_clean_linker_0, # of connection points: 3
#     Node 4, Type 1, BuildingBlock: QEWDON_clean_linker_0, # of connection points: 3
#     Node 5, Type 1, BuildingBlock: QEWDON_clean_linker_0, # of connection points: 3
#     Node 6, Type 1, BuildingBlock: QEWDON_clean_linker_0, # of connection points: 3
#     Node 7, Type 1, BuildingBlock: QEWDON_clean_linker_0, # of connection points: 3
#     Node 8, Type 1, BuildingBlock: QEWDON_clean_linker_0, # of connection points: 3
#     Edge 9, Type (0, 1), BuildingBlock: UVAHIK_clean_linker_0, # of connection points: 2
#     Edge 10, Type (0, 1), BuildingBlock: UVAHIK_clean_linker_0, # of connection points: 2
#     Edge 11, Type (0, 1), BuildingBlock: UVAHIK_clean_linker_0, # of connection points: 2
#     Edge 12, Type (0, 1), BuildingBlock: UVAHIK_clean_linker_0, # of connection points: 2
#     Edge 13, Type (0, 1), BuildingBlock: UVAHIK_clean_linker_0, # of connection points: 2
#     Edge 14, Type (0, 1), BuildingBlock: UVAHIK_clean_linker_0, # of connection points: 2
#     Edge 15, Type (0, 1), BuildingBlock: UVAHIK_clean_linker_0, # of connection points: 2
#     Edge 16, Type (0, 1), BuildingBlock: UVAHIK_clean_linker_0, # of connection points: 2
#     Edge 17, Type (0, 1), BuildingBlock: UVAHIK_clean_linker_0, # of connection points: 2
#     Edge 18, Type (0, 1), BuildingBlock: UVAHIK_clean_linker_0, # of connection points: 2
#     Edge 19, Type (0, 1), BuildingBlock: UVAHIK_clean_linker_0, # of connection points: 2
#     Edge 20, Type (0, 1), BuildingBlock: UVAHIK_clean_linker_0, # of connection points: 2
#     Edge 21, Type (0, 1), BuildingBlock: UVAHIK_clean_linker_0, # of connection points: 2
#     Edge 22, Type (0, 1), BuildingBlock: UVAHIK_clean_linker_0, # of connection points: 2
#     Edge 23, Type (0, 1), BuildingBlock: UVAHIK_clean_linker_0, # of connection points: 2
#     Edge 24, Type (0, 1), BuildingBlock: UVAHIK_clean_linker_0, # of connection points: 2
#     Edge 25, Type (0, 1), BuildingBlock: UVAHIK_clean_linker_0, # of connection points: 2
#     Edge 26, Type (0, 1), BuildingBlock: UVAHIK_clean_linker_0, # of connection points: 2
# Relax obj value: 0.109
# Max RMSD: 0.161
# Mean RMSD: 0.125
data_MOF--net-anh--node1-BETDAH_clean_sbu_0--node2-QEWDON_clean_linker_0--edge1-UVAHIK_clean_linker_0
_symmetry_space_group_name_H-M    P1
_symmetry_Int_Tables_number       1
_symmetry_cell_setting            triclinic
loop_
_symmetry_equiv_pos_as_xyz
'x, y, z'
_cell_length_a     40.947524
_cell_length_b     48.661368
_cell_length_c     62.165085
_cell_angle_alpha  96.35174
_cell_angle_beta   91.638038
_cell_angle_gamma 127.82317
loop_
_atom_site_label
_atom_site_type_symbol
_atom_site_fract_x
_atom_site_fract_y
_atom_site_fract_z
_atom_type_partial_charge
Ho0 Ho 0.10225 0.53261 0.14747 0.0
Ho1 Ho 1.05628 0.55889 0.16714 0.0
C2 C 0.15023 0.61784 0.16056 0.0
C3 C 0.14698 0.52319 0.12439 0.0
C4 C 0.1921 0.54344 0.12498 0.0
C5 C 0.20852 0.53318 0.10961 0.0
C6 C 0.25152 0.55144 0.11096 0.0
C7 C 0.27858 0.58016 0.12774 0.0
C8 C 0.26191 0.59098 0.14269 0.0
C9 C 0.21899 0.57272 0.14133 0.0
C10 C 0.10258 0.53711 0.19107 0.0
C11 C 1.00928 0.4748 0.15469 0.0
C12 C 1.0121 0.56853 0.19058 0.0
C13 C 0.97402 0.54475 0.20053 0.0
C14 C 0.96464 0.51424 0.2073 0.0
C15 C 0.92536 0.48902 0.21344 0.0
C16 C 0.89503 0.49405 0.21299 0.0
C17 C 0.90564 0.52569 0.20739 0.0
C18 C 0.94475 0.55073 0.2012 0.0
C19 C 1.05793 0.55546 0.12362 0.0
O20 O 0.14937 0.59218 0.14985 0.0
O21 O 0.11886 0.61135 0.17076 0.0
O22 O 0.13144 0.50813 0.14149 0.0
O23 O 0.13234 0.53901 0.11837 0.0
O24 O 0.10178 0.51323 0.17893 0.0
O25 O 0.10634 0.55855 0.17975 0.0
O26 O 1.01376 0.50024 0.16822 0.0
O27 O 1.03721 0.48189 0.14136 0.0
O28 O 1.0073 0.56367 0.16925 0.0
O29 O 1.04541 0.57337 0.19866 0.0
O30 O 1.06012 0.58003 0.13596 0.0
O31 O 1.05261 0.53324 0.13477 0.0
H32 H 0.18807 0.51063 0.09689 0.0
H33 H 0.26341 0.54222 0.09937 0.0
H34 H 0.28201 0.61321 0.15564 0.0
H35 H 0.20673 0.58102 0.1533 0.0
H36 H 0.98703 0.50926 0.20702 0.0
H37 H 0.91827 0.46509 0.2178 0.0
H38 H 0.8829 0.53023 0.20642 0.0
H39 H 0.95141 0.57403 0.19594 0.0
Ho40 Ho 0.64398 0.06621 0.48861 0.0
Ho41 Ho 0.5868 0.08451 0.47759 0.0
C42 C 0.54339 0.0041 0.47749 0.0
C43 C 0.67913 0.04216 0.50479 0.0
C44 C 0.66772 0.00754 0.5073 0.0
C45 C 0.63047 0.98178 0.51525 0.0
C46 C 0.62062 0.94918 0.5174 0.0
C47 C 0.64762 0.94169 0.51146 0.0
C48 C 0.68476 0.96754 0.50348 0.0
C49 C 0.69472 1.00014 0.50149 0.0
C50 C 0.63323 0.06992 0.44632 0.0
C51 C 0.68801 0.14665 0.48728 0.0
C52 C 0.55222 0.10957 0.46231 0.0
C53 C 0.56102 0.14401 0.46623 0.0
C54 C 0.54426 0.1528 0.45102 0.0
C55 C 0.55169 0.18518 0.45488 0.0
C56 C 0.57591 0.20933 0.47411 0.0
C57 C 0.59315 0.20047 0.48916 0.0
C58 C 0.58592 0.1682 0.4852 0.0
C59 C 0.59743 0.08091 0.51988 0.0
O60 O 0.5788 0.01493 0.4883 0.0
O61 O 0.54092 0.02595 0.46807 0.0
O62 O 0.68133 0.04876 0.48484 0.0
O63 O 0.66164 0.05292 0.5164 0.0
O64 O 0.66806 0.07983 0.45614 0.0
O65 O 0.60549 0.05664 0.45889 0.0
O66 O 0.6515 0.13605 0.47828 0.0
O67 O 0.69214 0.12494 0.49561 0.0
O68 O 0.5401 0.09207 0.47868 0.0
O69 O 0.57965 0.10881 0.45263 0.0
O70 O 0.56283 0.07124 0.50998 0.0
O71 O 0.6253 0.09426 0.50737 0.0
H72 H 0.60895 0.98673 0.51974 0.0
H73 H 0.59158 0.92965 0.52339 0.0
H74 H 0.70641 0.96271 0.49901 0.0
H75 H 0.72363 0.01966 0.49537 0.0
H76 H 0.52527 0.13454 0.43619 0.0
H77 H 0.53853 0.19132 0.44274 0.0
H78 H 0.6115 0.21811 0.50425 0.0
H79 H 0.59933 0.16191 0.4971 0.0
Ho80 Ho 0.65617 0.589 0.83869 0.0
Ho81 Ho 0.59666 0.51058 0.84042 0.0
C82 C 0.55672 0.54977 0.8422 0.0
C83 C 0.6934 0.6517 0.82945 0.0
C84 C 0.68284 0.6747 0.82502 0.0
C85 C 0.64514 0.66134 0.81284 0.0
C86 C 0.63616 0.68396 0.80884 0.0
C87 C 0.66458 0.72031 0.81707 0.0
C88 C 0.70212 0.73337 0.8294 0.0
C89 C 0.71115 0.7108 0.83327 0.0
C90 C 0.65155 0.57098 0.87851 0.0
C91 C 0.69689 0.55008 0.83753 0.0
C92 C 0.56257 0.44855 0.84988 0.0
C93 C 0.57254 0.42414 0.8465 0.0
C94 C 0.5593 0.3991 0.86029 0.0
C95 C 0.5688 0.37589 0.85728 0.0
C96 C 0.59165 0.37723 0.84033 0.0
C97 C 0.60525 0.40277 0.8267 0.0
C98 C 0.59593 0.42607 0.82982 0.0
C99 C 0.60024 0.52787 0.8005 0.0
O100 O 0.59181 0.57587 0.83536 0.0
O101 O 0.55325 0.52301 0.84849 0.0
O102 O 0.69142 0.64507 0.84938 0.0
O103 O 0.67842 0.62392 0.81476 0.0
O104 O 0.68604 0.59647 0.87213 0.0
O105 O 0.62149 0.55762 0.86399 0.0
O106 O 0.65975 0.52178 0.84093 0.0
O107 O 0.70291 0.57926 0.8343 0.0
O108 O 0.55042 0.454 0.83226 0.0
O109 O 0.58925 0.47764 0.86366 0.0
O110 O 0.56637 0.5019 0.80704 0.0
O111 O 0.63086 0.54177 0.81485 0.0
H112 H 0.6227 0.63348 0.80637 0.0
H113 H 0.60716 0.67298 0.7991 0.0
H114 H 0.72437 0.761 0.83639 0.0
H115 H 0.74028 0.72157 0.84282 0.0
H116 H 0.54164 0.39752 0.87342 0.0
H117 H 0.55847 0.35708 0.86835 0.0
H118 H 0.62247 0.40439 0.81335 0.0
H119 H 0.60677 0.44546 0.8191 0.0
H120 H 0.59238 0.08611 0.20611 0.0
C121 C 0.56858 0.05804 0.20086 0.0
C122 C 0.54837 0.03631 0.21669 0.0
C123 C 0.5566 0.0438 0.17843 0.0
H124 H 0.50042 0.98343 0.2223 0.0
C125 C 0.51596 1.00024 0.21009 0.0
C126 C 0.50372 0.98538 0.18799 0.0
C127 C 0.52481 0.00706 0.17229 0.0
C128 C 0.57521 0.06716 0.16138 0.0
H129 H 0.51551 0.99523 0.15524 0.0
C130 C 0.61692 0.09859 0.16466 0.0
C131 C 0.63359 0.12016 0.14836 0.0
C132 C 0.5506 0.05838 0.14163 0.0
H133 H 0.51806 0.03546 0.1387 0.0
C134 C 0.56724 0.07945 0.12544 0.0
H135 H 0.63673 0.10609 0.1796 0.0
C136 C 0.60843 0.11003 0.1287 0.0
H137 H 0.62036 0.12631 0.11601 0.0
H138 H 0.5479 0.07227 0.11037 0.0
H139 H 0.57323 0.57416 0.56738 0.0
C140 C 0.58062 0.55773 0.55978 0.0
C141 C 0.59713 0.54618 0.57293 0.0
C142 C 0.57207 0.54703 0.53703 0.0
H143 H 0.61612 0.51357 0.57332 0.0
C144 C 0.6053 0.52387 0.56313 0.0
C145 C 0.59639 0.51244 0.54051 0.0
C146 C 0.58045 0.52461 0.52757 0.0
C147 C 0.55182 0.55718 0.52326 0.0
H148 H 0.57418 0.51625 0.51006 0.0
C149 C 0.56356 0.59146 0.52698 0.0
C150 C 0.54381 0.60061 0.51396 0.0
C151 C 0.51988 0.53213 0.50639 0.0
H152 H 0.50941 0.50536 0.50338 0.0
C153 C 0.50049 0.5411 0.49339 0.0
H154 H 0.58795 0.61094 0.54 0.0
C155 C 0.51235 0.57503 0.49705 0.0
H156 H 0.49713 0.58133 0.48644 0.0
H157 H 0.47609 0.52162 0.4804 0.0
H158 H 0.14074 0.54687 0.88787 0.0
C159 C 0.11744 0.54852 0.88115 0.0
C160 C 0.09611 0.55461 0.89568 0.0
C161 C 0.10841 0.54407 0.85835 0.0
H162 H 1.04754 0.55912 0.89901 0.0
C163 C 0.06413 0.55493 0.88755 0.0
C164 C 1.05211 0.54872 0.86511 0.0
C165 C 0.07552 0.54467 0.85056 0.0
C166 C 0.13168 0.53692 0.84299 0.0
H167 H 0.06727 0.54136 0.83329 0.0
C168 C 0.17194 0.54664 0.8494 0.0
C169 C 0.1922 0.53889 0.8346 0.0
C170 C 0.11277 0.51886 0.8216 0.0
H171 H 0.08173 0.50923 0.81593 0.0
C172 C 0.13295 0.5118 0.80703 0.0
H173 H 0.1881 0.5607 0.86555 0.0
C174 C 0.17219 0.52179 0.81337 0.0
H175 H 0.18668 0.51542 0.80171 0.0
H176 H 0.11772 0.49797 0.79068 0.0
H177 H 0.06304 0.54897 0.43265 0.0
C178 C 0.09286 0.57475 0.43748 0.0
C179 C 0.11484 0.59482 0.42123 0.0
C180 C 0.10838 0.58852 0.45977 0.0
H181 H 0.16963 0.64449 0.41485 0.0
C182 C 0.15238 0.62903 0.42733 0.0
C183 C 0.16848 0.64343 0.44929 0.0
C184 C 0.14698 0.62275 0.46536 0.0
C185 C 0.08369 0.56816 0.47722 0.0
H186 H 0.16012 0.63384 0.48227 0.0
C187 C 1.0568 0.53081 0.47397 0.0
C188 C 1.03394 0.51232 0.49065 0.0
C189 C 0.08629 0.58626 0.49737 0.0
H190 H 0.1049 0.61468 0.50038 0.0
C191 C 0.06416 0.56798 0.51395 0.0
H192 H 1.05402 0.51597 0.45874 0.0
C193 C 1.03833 0.53132 0.51069 0.0
H194 H 1.02086 0.5177 0.5237 0.0
H195 H 0.06663 0.58234 0.52933 0.0
H196 H 0.60027 0.01586 0.75099 0.0
C197 C 0.60885 0.04061 0.75931 0.0
C198 C 0.6241 0.06865 0.74763 0.0
C199 C 0.6028 0.04388 0.78133 0.0
H200 H 0.6429 0.12104 0.74886 0.0
C201 C 0.63338 0.10017 0.75816 0.0
C202 C 0.62689 0.10375 0.78 0.0
C203 C 0.61259 0.07581 0.79157 0.0
C204 C 0.58287 0.01319 0.79318 0.0
H205 H 0.60824 0.07876 0.80854 0.0
C206 C 0.59303 0.99012 0.79082 0.0
C207 C 0.57325 0.96089 0.80194 0.0
C208 C 0.55255 0.00646 0.80674 0.0
H209 H 0.54319 0.02305 0.80853 0.0
C210 C 0.53332 0.9779 0.81792 0.0
H211 H 0.6161 0.99481 0.78033 0.0
C212 C 0.54359 0.95533 0.81563 0.0
H213 H 0.52848 0.93363 0.82477 0.0
H214 H 0.51022 0.97316 0.82839 0.0
H215 H 0.62823 0.5462 0.10941 0.0
C216 C 0.6257 0.52423 0.11407 0.0
C217 C 0.62269 0.4998 0.09796 0.0
C218 C 0.62668 0.52123 0.13625 0.0
H219 H 0.61862 0.45305 0.09236 0.0
C220 C 0.61967 0.47155 0.10439 0.0
C221 C 0.61965 0.46772 0.12648 0.0
C222 C 0.62292 0.49255 0.14224 0.0
C223 C 0.63358 0.549 0.15316 0.0
H224 H 0.62396 0.49017 0.15934 0.0
C225 C 0.61386 0.56397 0.14982 0.0
C226 C 0.62115 0.59105 0.16533 0.0
C227 C 0.66067 0.56134 0.17248 0.0
H228 H 0.67695 0.55081 0.17541 0.0
C229 C 0.66772 0.58801 0.18806 0.0
H230 H 0.59199 0.55397 0.13531 0.0
C231 C 0.64808 0.60282 0.18456 0.0
H232 H 0.65423 0.62367 0.19676 0.0
H233 H 0.68871 0.59739 0.20283 0.0
C234 C 0.34346 0.60348 0.15155 0.0
C235 C 0.3235 0.59679 0.1307 0.0
C236 C 0.38421 0.61498 0.1542 0.0
C237 C 0.45386 0.60779 0.12344 0.0
H238 H 0.53142 0.66508 0.17595 0.0
C239 C 0.59574 0.61343 0.14079 0.0
C240 C 0.59937 0.60593 0.16151 0.0
C241 C 0.57062 0.62293 0.13628 0.0
C242 C 0.51013 0.64914 0.16116 0.0
H243 H 0.33148 0.59923 0.09647 0.0
H244 H 0.40301 0.61959 0.1011 0.0
H245 H 0.47105 0.66328 0.16888 0.0
H246 H 0.58151 0.6044 0.1941 0.0
H247 H 0.53729 0.62069 0.1862 0.0
H248 H 0.49179 0.59253 0.11608 0.0
C249 C 0.38681 0.61531 0.11535 0.0
C250 C 0.47559 0.64808 0.15712 0.0
C251 C 0.3459 0.60364 0.11268 0.0
C252 C 0.57945 0.61021 0.17802 0.0
C253 C 0.55422 0.61965 0.1735 0.0
C254 C 0.48837 0.60893 0.12744 0.0
C255 C 0.40599 0.62015 0.13606 0.0
C256 C 0.44639 0.62652 0.13854 0.0
C257 C 0.54857 0.62507 0.15239 0.0
C258 C 0.51621 0.62879 0.14665 0.0
H259 H 0.32685 0.59803 0.16572 0.0
H260 H 0.39772 0.61787 0.17033 0.0
H261 H 0.43171 0.59048 0.10915 0.0
H262 H 0.61145 0.61101 0.12788 0.0
H263 H 0.56742 0.62754 0.11997 0.0
C264 C 0.72358 0.20484 0.47441 0.0
C265 C 0.72522 0.1838 0.4875 0.0
C266 C 0.7589 0.23944 0.47385 0.0
C267 C 0.85752 0.3142 0.5056 0.0
H268 H 0.88896 0.34692 0.45013 0.0
C269 C 1.00578 0.45476 0.50252 0.0
C270 C 1.00403 0.47323 0.4873 0.0
C271 C 0.97426 0.41852 0.50132 0.0
C272 C 0.88043 0.33845 0.4658 0.0
H273 H 0.7653 0.18293 0.5105 0.0
H274 H 0.82682 0.24371 0.50983 0.0
H275 H 0.82844 0.28602 0.45089 0.0
H276 H 0.96862 0.46825 0.45856 0.0
H277 H 0.91278 0.40516 0.45673 0.0
H278 H 0.90818 0.36662 0.52066 0.0
C279 C 0.79814 0.23321 0.49991 0.0
C280 C 0.84578 0.30345 0.4662 0.0
C281 C 0.76294 0.19838 0.50024 0.0
C282 C 0.97091 0.45452 0.47035 0.0
C283 C 0.93893 0.4183 0.46934 0.0
C284 C 0.89178 0.34929 0.50523 0.0
C285 C 0.79657 0.25403 0.48659 0.0
C286 C 0.83392 0.29097 0.48611 0.0
C287 C 0.9397 0.39989 0.4851 0.0
C288 C 0.90381 0.36202 0.48533 0.0
H289 H 0.69511 0.19448 0.46433 0.0
H290 H 0.7566 0.25495 0.46362 0.0
H291 H 0.84882 0.30547 0.52121 0.0
H292 H 1.03118 0.46858 0.51566 0.0
H293 H 0.97675 0.40528 0.51339 0.0
C294 C 0.61436 0.73365 0.81338 0.0
C295 C 0.65505 0.74453 0.81311 0.0
C296 C 0.60575 0.75679 0.81043 0.0
C297 C 0.64859 0.84147 0.79087 0.0
H298 H 0.57013 0.83878 0.8259 0.0
C299 C 0.62462 0.94844 0.79985 0.0
C300 C 0.58324 0.93607 0.79964 0.0
C301 C 0.63385 0.92505 0.7998 0.0
C302 C 0.59181 0.83964 0.81583 0.0
H303 H 0.71834 0.78822 0.80885 0.0
H304 H 0.70362 0.82887 0.80454 0.0
H305 H 0.5852 0.79817 0.82929 0.0
H306 H 0.51897 0.8891 0.79774 0.0
H307 H 0.53512 0.84861 0.7979 0.0
H308 H 0.65567 0.88364 0.77782 0.0
C309 C 0.67819 0.80226 0.80671 0.0
C310 C 0.60038 0.81625 0.81772 0.0
C311 C 0.68675 0.77904 0.80951 0.0
C312 C 0.55126 0.89966 0.79846 0.0
C313 C 0.56049 0.87642 0.79853 0.0
C314 C 0.64024 0.86512 0.78913 0.0
C315 C 0.63762 0.79154 0.8073 0.0
C316 C 0.6287 0.81666 0.80518 0.0
C317 C 0.60191 0.88889 0.79962 0.0
C318 C 0.61153 0.86428 0.80149 0.0
H319 H 0.5892 0.70743 0.8163 0.0
H320 H 0.57399 0.74736 0.81063 0.0
H321 H 0.6702 0.84231 0.78077 0.0
H322 H 0.65 0.97632 0.8009 0.0
H323 H 0.66611 0.93544 0.80073 0.0
C324 C 0.83141 0.43063 0.20442 0.0
C325 C 0.85092 0.46506 0.21528 0.0
C326 C 0.78793 0.40626 0.20044 0.0
C327 C 0.69263 0.40176 0.2046 0.0
H328 H 0.67687 0.37124 0.14239 0.0
C329 C 0.59874 0.42189 0.15007 0.0
C330 C 0.62173 0.44071 0.13362 0.0
C331 C 0.60763 0.40243 0.1601 0.0
C332 C 0.68051 0.37949 0.15978 0.0
H333 H 0.84043 0.49878 0.23387 0.0
H334 H 0.76569 0.45783 0.226 0.0
H335 H 0.73147 0.37882 0.165 0.0
H336 H 0.66966 0.4517 0.11359 0.0
H337 H 0.68605 0.41909 0.13119 0.0
H338 H 0.64544 0.40716 0.19882 0.0
C339 C 0.78297 0.44885 0.22046 0.0
C340 C 0.71164 0.38331 0.17298 0.0
C341 C 0.82625 0.47286 0.22477 0.0
C342 C 0.65119 0.43728 0.12611 0.0
C343 C 0.6604 0.41823 0.13624 0.0
C344 C 0.66238 0.39903 0.19128 0.0
C345 C 0.7633 0.41619 0.20679 0.0
C346 C 0.72057 0.39761 0.19529 0.0
C347 C 0.64012 0.40188 0.15407 0.0
C348 C 0.65854 0.39082 0.16846 0.0
H349 H 0.84949 0.42347 0.19716 0.0
H350 H 0.77397 0.38083 0.1907 0.0
H351 H 0.69692 0.41086 0.2219 0.0
H352 H 0.57531 0.42366 0.15591 0.0
H353 H 0.59065 0.38953 0.17339 0.0
C354 C 0.46851 0.95427 0.46356 0.0
C355 C 0.50577 0.9667 0.47584 0.0
C356 C 0.43265 0.91938 0.46247 0.0
C357 C 0.39592 0.83066 0.47096 0.0
H358 H 0.28917 0.81186 0.47084 0.0
C359 C 0.23982 0.6901 0.47021 0.0
C360 C 0.20693 0.68064 0.45514 0.0
C361 C 0.27661 0.72506 0.47467 0.0
C362 C 0.31871 0.81663 0.47075 0.0
H363 H 0.53445 0.95189 0.49653 0.0
H364 H 0.47172 0.89111 0.49481 0.0
H365 H 0.35283 0.87247 0.47471 0.0
H366 H 0.18626 0.7006 0.43351 0.0
H367 H 0.25009 0.76123 0.44119 0.0
H368 H 0.36148 0.7746 0.4669 0.0
C369 C 0.47038 0.90827 0.4858 0.0
C370 C 0.35526 0.85141 0.4729 0.0
C371 C 0.50635 0.94322 0.48686 0.0
C372 C 0.21121 0.70698 0.44504 0.0
C373 C 0.24766 0.74182 0.4496 0.0
C374 C 0.35928 0.79579 0.46888 0.0
C375 C 0.43296 0.89595 0.47369 0.0
C376 C 0.39433 0.8589 0.47267 0.0
C377 C 0.28096 0.7513 0.46435 0.0
C378 C 0.32019 0.78836 0.46841 0.0
H379 H 0.46689 0.97149 0.45477 0.0
H380 H 0.40469 0.9107 0.45264 0.0
H381 H 0.42538 0.83537 0.47053 0.0
H382 H 0.23745 0.67034 0.47818 0.0
H383 H 0.30159 0.73159 0.48623 0.0
C384 C 0.63862 0.36211 0.82984 0.0
C385 C 0.60053 0.35169 0.83662 0.0
C386 C 0.64624 0.33775 0.82569 0.0
C387 C 0.61235 0.25155 0.83724 0.0
H388 H 0.65499 0.2469 0.78322 0.0
C389 C 0.59904 0.1303 0.80157 0.0
C390 C 0.63054 0.13494 0.78988 0.0
C391 C 0.59999 0.15891 0.80917 0.0
C392 C 0.64382 0.2482 0.79858 0.0
H393 H 0.54056 0.30718 0.84422 0.0
H394 H 0.55421 0.26505 0.83737 0.0
H395 H 0.64824 0.29299 0.79299 0.0
H396 H 0.68856 0.17356 0.77766 0.0
H397 H 0.69064 0.22378 0.79124 0.0
H398 H 0.60777 0.20678 0.84287 0.0
C399 C 0.57831 0.29216 0.83546 0.0
C400 C 0.63984 0.27459 0.80414 0.0
C401 C 0.57054 0.3164 0.83943 0.0
C402 C 0.66365 0.1691 0.78646 0.0
C403 C 0.66472 0.19783 0.79418 0.0
C404 C 0.61661 0.22533 0.83178 0.0
C405 C 0.61612 0.30249 0.82841 0.0
C406 C 0.6234 0.27619 0.82335 0.0
C407 C 0.63258 0.19301 0.80537 0.0
C408 C 0.6317 0.2229 0.81218 0.0
H409 H 0.66275 0.38917 0.82787 0.0
H410 H 0.67585 0.34658 0.8205 0.0
H411 H 0.60023 0.25247 0.85234 0.0
H412 H 0.57266 0.10426 0.80412 0.0
H413 H 0.57427 0.15399 0.81734 0.0
C414 C 0.64306 0.8892 0.49664 0.0
C415 C 0.63725 0.90705 0.51348 0.0
C416 C 0.63416 0.85696 0.49862 0.0
C417 C 0.57563 0.78223 0.52949 0.0
H418 H 0.64527 0.761 0.50499 0.0
C419 C 0.52541 0.6414 0.51547 0.0
C420 C 0.55594 0.63672 0.51763 0.0
C421 C 0.53667 0.67515 0.51721 0.0
C422 C 0.62579 0.7666 0.51221 0.0
H423 H 0.61775 0.90516 0.54568 0.0
H424 H 0.60274 0.84909 0.54933 0.0
H425 H 0.66284 0.81842 0.50387 0.0
H426 H 0.62235 0.66416 0.52401 0.0
H427 H 0.64196 0.72314 0.52773 0.0
H428 H 0.5391 0.73066 0.53826 0.0
C429 C 0.61347 0.85966 0.53438 0.0
C430 C 0.63552 0.79942 0.51126 0.0
C431 C 0.6221 0.89183 0.53233 0.0
C432 C 0.59799 0.66675 0.52236 0.0
C433 C 0.60927 0.7006 0.52422 0.0
C434 C 0.56604 0.74947 0.53057 0.0
C435 C 0.61949 0.84184 0.51757 0.0
C436 C 0.61025 0.80751 0.51961 0.0
C437 C 0.57877 0.70522 0.52134 0.0
C438 C 0.59068 0.74103 0.52168 0.0
H439 H 0.65407 0.89998 0.48178 0.0
H440 H 0.63828 0.84368 0.48512 0.0
H441 H 0.55525 0.78735 0.53596 0.0
H442 H 0.49266 0.6189 0.51218 0.0
H443 H 0.51229 0.67754 0.51467 0.0
C444 C 0.77431 0.57996 0.8405 0.0
C445 C 0.73273 0.54884 0.83744 0.0
C446 C 0.80788 0.57879 0.84131 0.0
C447 C 0.83288 0.51651 0.84738 0.0
H448 H 0.94077 0.59371 0.83323 0.0
C449 C 0.97903 0.52712 0.86952 0.0
C450 C 1.01379 0.54503 0.85784 0.0
C451 C 0.9448 0.52648 0.86508 0.0
C452 C 0.91084 0.57156 0.83699 0.0
H453 H 0.69438 0.49186 0.83219 0.0
H454 H 0.75208 0.4896 0.83251 0.0
H455 H 0.88227 0.59462 0.8287 0.0
H456 H 1.03795 0.57494 0.83128 0.0
H457 H 0.97731 0.57269 0.8228 0.0
H458 H 0.86066 0.49258 0.85463 0.0
C459 C 0.75935 0.51525 0.83517 0.0
C460 C 0.87703 0.57237 0.83475 0.0
C461 C 0.72584 0.51647 0.83477 0.0
C462 C 1.01199 0.5609 0.84069 0.0
C463 C 0.97723 0.55999 0.83605 0.0
C464 C 0.8664 0.51546 0.84929 0.0
C465 C 0.80121 0.54639 0.83871 0.0
C466 C 0.83737 0.54505 0.84018 0.0
C467 C 0.94311 0.54311 0.84839 0.0
C468 C 0.90636 0.54323 0.84453 0.0
H469 H 0.78105 0.60545 0.8428 0.0
H470 H 0.83913 0.60355 0.84448 0.0
H471 H 0.80356 0.49497 0.85208 0.0
H472 H 0.97849 0.5139 0.88259 0.0
H473 H 0.92014 0.51362 0.87536 0.0
C474 C 0.18941 0.68256 0.17283 0.0
C475 C 0.18757 0.65507 0.16122 0.0
C476 C 0.22394 0.71772 0.17318 0.0
C477 C 0.33506 0.77528 0.16459 0.0
H478 H 0.31649 0.84423 0.16301 0.0
C479 C 0.46956 0.925 0.16645 0.0
C480 C 0.46752 0.94748 0.18158 0.0
C481 C 0.43569 0.88896 0.16146 0.0
C482 C 0.32221 0.82531 0.16353 0.0
H483 H 0.22106 0.64318 0.14096 0.0
H484 H 0.28132 0.70473 0.14144 0.0
H485 H 0.2571 0.78189 0.15905 0.0
H486 H 0.42807 0.95015 0.20274 0.0
H487 H 0.36924 0.88761 0.19405 0.0
H488 H 0.40036 0.81904 0.16924 0.0
C489 C 0.25606 0.69897 0.15043 0.0
C490 C 0.28817 0.78956 0.16133 0.0
C491 C 0.22141 0.66367 0.15009 0.0
C492 C 0.4307 0.93341 0.19117 0.0
C493 C 0.39685 0.89763 0.18604 0.0
C494 C 0.36921 0.81114 0.1667 0.0
C495 C 0.25761 0.72644 0.16188 0.0
C496 C 0.29409 0.76413 0.16231 0.0
C497 C 0.39898 0.8749 0.17124 0.0
C498 C 0.36312 0.8366 0.16665 0.0
H499 H 0.16411 0.67704 0.1817 0.0
H500 H 0.22438 0.7381 0.18254 0.0
H501 H 0.34079 0.75645 0.16556 0.0
H502 H 0.49764 0.93515 0.15888 0.0
H503 H 0.43814 0.87211 0.14991 0.0
C504 C 0.62055 0.2742 0.48924 0.0
C505 C 0.58231 0.24316 0.47873 0.0
C506 C 0.62586 0.30554 0.49436 0.0
C507 C 0.58336 0.3506 0.48033 0.0
H508 H 0.63156 0.40308 0.53892 0.0
C509 C 0.56746 0.45587 0.51592 0.0
C510 C 0.60007 0.48527 0.53075 0.0
C511 C 0.56891 0.42862 0.50816 0.0
C512 C 0.61875 0.38919 0.52235 0.0
H513 H 0.51971 0.22105 0.46542 0.0
H514 H 0.52931 0.27582 0.47401 0.0
H515 H 0.62761 0.35138 0.52791 0.0
H516 H 0.66053 0.50976 0.54843 0.0
H517 H 0.66354 0.46247 0.53456 0.0
H518 H 0.57445 0.3883 0.4747 0.0
C519 C 0.55526 0.2759 0.47812 0.0
C520 C 0.61638 0.35946 0.51608 0.0
C521 C 0.54982 0.2445 0.47315 0.0
C522 C 0.63475 0.48726 0.53718 0.0
C523 C 0.63635 0.46008 0.52929 0.0
C524 C 0.58601 0.38048 0.48654 0.0
C525 C 0.59321 0.3067 0.48894 0.0
C526 C 0.59815 0.33956 0.4951 0.0
C527 C 0.60315 0.43014 0.51492 0.0
C528 C 0.6032 0.3999 0.50774 0.0
H529 H 0.64652 0.27436 0.49344 0.0
H530 H 0.65564 0.32897 0.50248 0.0
H531 H 0.56971 0.33609 0.46394 0.0
H532 H 0.53998 0.45325 0.51094 0.0
H533 H 0.54243 0.40577 0.49744 0.0
C534 C 0.51995 0.57507 0.83316 0.0
C535 C 0.5207 0.55077 0.8431 0.0
C536 C 0.48586 0.57552 0.83377 0.0
C537 C 0.37376 0.52117 0.84617 0.0
H538 H 0.38999 0.60807 0.84421 0.0
C539 C 0.23842 0.53012 0.85561 0.0
C540 C 0.23369 0.54732 0.84051 0.0
C541 C 0.27442 0.53229 0.85765 0.0
C542 C 0.38472 0.58346 0.84468 0.0
H543 H 0.48566 0.50822 0.86188 0.0
H544 H 0.42744 0.50968 0.86359 0.0
H545 H 0.44958 0.60817 0.84425 0.0
H546 H 0.26386 0.58103 0.81616 0.0
H547 H 0.32684 0.5858 0.82016 0.0
H548 H 0.30887 0.49673 0.84694 0.0
C549 C 0.4525 0.52789 0.85468 0.0
C550 C 0.41913 0.58342 0.84456 0.0
C551 C 0.48635 0.5272 0.85386 0.0
C552 C 0.2667 0.56789 0.82819 0.0
C553 C 0.30288 0.57053 0.83047 0.0
C554 C 0.33947 0.52135 0.84656 0.0
C555 C 0.45133 0.55193 0.84455 0.0
C556 C 0.4144 0.55221 0.84514 0.0
C557 C 0.30703 0.55211 0.84485 0.0
C558 C 0.34424 0.55243 0.84565 0.0
H559 H 0.54557 0.59358 0.82461 0.0
H560 H 0.48647 0.59413 0.82537 0.0
H561 H 0.36797 0.49629 0.84619 0.0
H562 H 0.21336 0.51354 0.86506 0.0
H563 H 0.27643 0.51796 0.86905 0.0
C564 C 0.94486 0.42927 0.17056 0.0
C565 C 0.97218 0.43769 0.15471 0.0
C566 C 0.91007 0.39432 0.17079 0.0
C567 C 0.83895 0.30814 0.13546 0.0
H568 H 0.81034 0.27103 0.18984 0.0
C569 C 0.70305 0.16212 0.13553 0.0
C570 C 0.6766 0.15402 0.15175 0.0
C571 C 0.74121 0.19577 0.13702 0.0
C572 C 0.81759 0.28103 0.17453 0.0
H573 H 0.98416 0.41575 0.12664 0.0
H574 H 0.92332 0.35478 0.12698 0.0
H575 H 0.87207 0.33185 0.18998 0.0
H576 H 0.66989 0.17436 0.18263 0.0
H577 H 0.73623 0.23352 0.18512 0.0
H578 H 0.78419 0.25794 0.11999 0.0
C579 C 0.92881 0.37532 0.1392 0.0
C580 C 0.85303 0.3159 0.17462 0.0
C581 C 0.96379 0.41027 0.13906 0.0
C582 C 0.68989 0.17983 0.16999 0.0
C583 C 0.72794 0.21373 0.17138 0.0
C584 C 0.80339 0.27344 0.13538 0.0
C585 C 0.90158 0.36694 0.15508 0.0
C586 C 0.86414 0.32983 0.15507 0.0
C587 C 0.75368 0.22239 0.15464 0.0
C588 C 0.79221 0.25931 0.15489 0.0
H589 H 0.95032 0.44964 0.18289 0.0
H590 H 0.88946 0.38882 0.18309 0.0
H591 H 0.84625 0.31824 0.12018 0.0
H592 H 0.69374 0.14255 0.1214 0.0
H593 H 0.76062 0.20106 0.12412 0.0
C594 C 0.07672 0.58416 0.09029 0.0
C595 C 0.06506 0.55551 0.10047 0.0
C596 C 0.08476 0.58472 0.06856 0.0
C597 C 0.06491 0.52622 0.01778 0.0
H598 H 0.15328 0.6144 -0.00037 0.0
C599 C 0.10273 0.53259 0.92888 0.0
C600 C 0.10478 0.55859 0.91963 0.0
C601 C 0.10369 0.53326 0.95149 0.0
C602 C 0.12846 0.58958 0.00445 0.0
H603 H 1.05212 0.50475 0.09592 0.0
H604 H 0.06691 0.50593 0.05814 0.0
H605 H 0.14229 0.61296 0.03799 0.0
H606 H 0.11194 0.60673 0.92669 0.0
H607 H 0.11392 0.60812 0.96608 0.0
H608 H 1.05092 0.50295 0.98419 0.0
C609 C 0.06941 0.52784 0.06678 0.0
C610 C 0.122 0.58876 0.02642 0.0
C611 C 1.06117 0.52724 0.08847 0.0
C612 C 0.11021 0.58633 0.93344 0.0
C613 C 0.11153 0.58719 0.95599 0.0
C614 C 0.07153 0.52702 -0.00417 0.0
C615 C 0.08139 0.55663 0.05653 0.0
C616 C 0.08974 0.55717 0.03333 0.0
C617 C 0.10714 0.56015 0.96524 0.0
C618 C 0.10301 0.55879 0.98886 0.0
H619 H 0.07983 0.60627 0.09915 0.0
H620 H 0.09315 0.60701 0.06111 0.0
H621 H 1.03942 0.50151 0.0224 0.0
H622 H 0.09825 0.51079 0.91857 0.0
H623 H 0.10069 0.51228 0.95816 0.0
C624 C 0.58669 0.05919 0.41418 0.0
C625 C 0.62629 0.07209 0.42336 0.0
C626 C 0.57965 0.06023 0.39227 0.0
C627 C 0.63255 0.10111 0.34467 0.0
H628 H 0.53073 0.01702 0.3119 0.0
C629 C 0.60154 0.06918 0.24987 0.0
C630 C 0.56031 0.05054 0.24032 0.0
C631 C 0.61104 0.07681 0.27262 0.0
C632 C 0.559 0.04099 0.32084 0.0
H633 H 0.68983 0.09685 0.41707 0.0
H634 H 0.67744 0.09814 0.37862 0.0
H635 H 0.54434 0.0203 0.35071 0.0
H636 H 0.49739 0.0279 0.2468 0.0
H637 H 0.51398 0.04181 0.28637 0.0
H638 H 0.64736 0.12145 0.3145 0.0
C639 C 0.65192 0.08763 0.38839 0.0
C640 C 0.56683 0.04284 0.34314 0.0
C641 C 0.65896 0.08665 0.41036 0.0
C642 C 0.52934 0.04186 0.2538 0.0
C643 C 0.53882 0.04964 0.27644 0.0
C644 C 0.62469 0.09924 0.32226 0.0
C645 C 0.61204 0.07406 0.37903 0.0
C646 C 0.60369 0.07287 0.35536 0.0
C647 C 0.57945 0.06604 0.28614 0.0
C648 C 0.58778 0.06912 0.31009 0.0
H649 H 0.56098 0.048 0.42387 0.0
H650 H 0.54873 0.05007 0.38568 0.0
H651 H 0.66107 0.12477 0.35366 0.0
H652 H 0.62591 0.07601 0.2398 0.0
H653 H 0.64263 0.08938 0.27956 0.0
C654 C 0.56628 0.52515 0.7657 0.0
C655 C 0.60269 0.53692 0.77846 0.0
C656 C 0.56752 0.53157 0.7443 0.0
C657 C 0.63949 0.58293 0.70398 0.0
H658 H 0.54503 0.50685 0.66262 0.0
C659 C 0.63776 0.56439 0.6097 0.0
C660 C 0.60183 0.55413 0.59706 0.0
C661 C 0.63987 0.56746 0.63243 0.0
C662 C 0.5714 0.52852 0.67401 0.0
H663 H 0.6692 0.56548 0.77926 0.0
H664 H 0.6713 0.57549 0.74147 0.0
H665 H 0.54499 0.50183 0.70102 0.0
H666 H 0.54049 0.54005 0.59832 0.0
H667 H 0.54406 0.54517 0.63801 0.0
H668 H 0.66645 0.6087 0.67641 0.0
C669 C 0.64184 0.56201 0.74807 0.0
C670 C 0.57138 0.52576 0.6961 0.0
C671 C 0.64067 0.55611 0.76968 0.0
C672 C 0.56871 0.5483 0.60764 0.0
C673 C 0.57061 0.55094 0.63032 0.0
C674 C 0.63974 0.58543 0.68174 0.0
C675 C 0.6051 0.5493 0.73497 0.0
C676 C 0.60533 0.55294 0.71145 0.0
C677 C 0.60584 0.55984 0.64289 0.0
C678 C 0.6056 0.55825 0.66657 0.0
H679 H 0.53669 0.51075 0.77224 0.0
H680 H 0.53879 0.52228 0.73502 0.0
H681 H 0.66596 0.60459 0.71529 0.0
H682 H 0.6638 0.56916 0.60193 0.0
H683 H 0.66731 0.57419 0.64172 0.0
C684 C 0.64196 0.09549 0.55437 0.0
C685 C 0.60246 0.07586 0.54231 0.0
C686 C 0.64586 0.0917 0.5761 0.0
C687 C 0.58249 0.05861 0.6223 0.0
H688 H 0.67843 0.07135 0.64929 0.0
C689 C 0.59059 0.03496 0.70998 0.0
C690 C 0.62572 0.06402 0.7238 0.0
C691 C 0.5894 0.03328 0.68736 0.0
C692 C 0.65148 0.06771 0.6419 0.0
H693 H 0.53634 0.03556 0.54287 0.0
H694 H 0.54301 0.02766 0.58022 0.0
H695 H 0.67267 0.07393 0.61039 0.0
H696 H 0.68802 0.11302 0.72486 0.0
H697 H 0.68618 0.10977 0.68518 0.0
H698 H 0.56108 0.05185 0.65371 0.0
C699 C 0.57101 0.04714 0.57346 0.0
C700 C 0.64825 0.06941 0.61966 0.0
C701 C 0.56713 0.05145 0.55197 0.0
C702 C 0.66054 0.09038 0.71454 0.0
C703 C 0.65956 0.08845 0.69188 0.0
C704 C 0.58542 0.05633 0.64435 0.0
C705 C 0.61032 0.06774 0.58604 0.0
C706 C 0.61374 0.06504 0.60957 0.0
C707 C 0.62351 0.0604 0.67811 0.0
C708 C 0.61998 0.06102 0.6544 0.0
H709 H 0.66969 0.11448 0.54722 0.0
H710 H 0.67662 0.1083 0.58525 0.0
H711 H 0.55601 0.05606 0.61541 0.0
H712 H 0.56319 0.01444 0.71667 0.0
H713 H 0.56133 0.01126 0.67707 0.0
C714 C 0.6823 0.57051 0.91362 0.0
C715 C 0.64735 0.56058 0.90023 0.0
C716 C 0.67816 0.56098 0.93438 0.0
C717 C 0.61909 0.5457 0.97925 0.0
H718 H 0.65478 0.49353 -0.00188 0.0
C719 C 0.64959 0.53899 0.06916 0.0
C720 C 0.62461 0.50482 0.07464 0.0
C721 C 0.65082 0.5439 0.04743 0.0
C722 C 0.64463 0.50801 0.99296 0.0
H723 H 0.58073 0.53283 0.89777 0.0
H724 H 0.57383 0.51732 0.93443 0.0
H725 H 0.66039 0.50578 0.96049 0.0
H726 H 0.58174 0.44902 0.06114 0.0
H727 H 0.58577 0.4579 0.02304 0.0
H728 H 0.60477 0.54908 0.01189 0.0
C729 C 0.60421 0.53202 0.92873 0.0
C730 C 0.64799 0.51512 0.97159 0.0
C731 C 0.60818 0.54085 0.90783 0.0
C732 C 0.60174 0.47569 0.05764 0.0
C733 C 0.60377 0.48068 0.03583 0.0
C734 C 0.61664 0.53931 0.00073 0.0
C735 C 0.63917 0.54207 0.94217 0.0
C736 C 0.63519 0.53398 0.9646 0.0
C737 C 0.628 0.51483 0.03062 0.0
C738 C 0.62937 0.52042 0.00772 0.0
H739 H 0.71277 0.58557 0.90804 0.0
H740 H 0.70554 0.56912 0.94455 0.0
H741 H 0.60923 0.56044 0.9742 0.0
H742 H 0.66867 0.56211 0.08163 0.0
H743 H 0.67009 0.57048 0.0437 0.0
C744 C 0.10446 0.56753 0.22668 0.0
C745 C 0.09741 0.53796 0.21445 0.0
C746 C 0.09835 0.56803 0.24866 0.0
C747 C 0.0969 0.52979 0.29649 0.0
H748 H 1.04455 0.56922 0.32014 0.0
C749 C 0.08658 0.54719 0.38879 0.0
C750 C 0.09929 0.58065 0.3977 0.0
C751 C 0.07789 0.53623 0.36616 0.0
C752 C 1.05934 0.55822 0.31382 0.0
H753 H 0.07906 0.4859 0.21556 0.0
H754 H 0.0689 0.48694 0.25419 0.0
H755 H 1.04703 0.56169 0.28092 0.0
H756 H 0.10996 0.62778 0.3901 0.0
H757 H 0.09553 0.60909 0.35083 0.0
H758 H 0.11059 0.52748 0.3294 0.0
C759 C 0.07896 0.50966 0.24673 0.0
C760 C 1.06077 0.55393 0.29135 0.0
C761 C 0.08477 0.50907 0.22466 0.0
C762 C 0.10076 0.60203 0.38367 0.0
C763 C 0.09204 0.59111 0.36114 0.0
C764 C 0.09567 0.53426 0.31899 0.0
C765 C 0.08551 0.53911 0.25894 0.0
C766 C 0.08035 0.54037 0.28249 0.0
C767 C 0.0815 0.55846 0.35204 0.0
C768 C 0.07769 0.54925 0.32798 0.0
H769 H 0.11499 0.59042 0.21929 0.0
H770 H 0.10447 0.59139 0.25772 0.0
H771 H 0.11248 0.51952 0.29017 0.0
H772 H 0.08524 0.53019 0.39923 0.0
H773 H 0.06929 0.51071 0.35969 0.0
loop_
_geom_bond_atom_site_label_1
_geom_bond_atom_site_label_2
_geom_bond_distance
_geom_bond_site_symmetry_2
_ccdc_geom_bond_type
Ho0 C3 2.811 . S
Ho0 O20 2.322 . S
Ho0 O22 2.378 . S
Ho0 O23 2.524 . S
Ho0 O24 2.381 . S
Ho0 O25 2.669 . S
Ho0 O27 2.330 1_455 S
Ho0 O31 2.305 . S
Ho1 C12 2.811 1_455 S
Ho1 O21 2.346 . S
Ho1 O25 2.305 . S
Ho1 O26 2.322 1_455 S
Ho1 O28 2.378 1_455 S
Ho1 O29 2.524 1_455 S
Ho1 O30 2.381 . S
Ho1 O31 2.669 . S
C2 O20 1.259 . S
C2 O21 1.268 . S
C3 Ho0 2.811 . S
C3 C4 1.488 . S
C3 O22 1.215 . S
C3 O23 1.289 . S
C4 C3 1.488 . S
C4 C5 1.348 . S
C4 C9 1.413 . S
C5 C4 1.348 . S
C5 C6 1.442 . S
C5 H32 0.930 . S
C6 C5 1.442 . S
C6 C7 1.381 . S
C6 H33 0.931 . S
C7 C6 1.381 . S
C7 C8 1.321 . S
C8 C7 1.321 . S
C8 C9 1.403 . S
C8 H34 0.934 . S
C9 C4 1.413 . S
C9 C8 1.403 . S
C9 H35 0.930 . S
C10 O24 1.275 . S
C10 O25 1.256 . S
C11 O26 1.259 . S
C11 O27 1.288 . S
C12 Ho1 2.811 1_655 S
C12 C13 1.488 . S
C12 O28 1.215 . S
C12 O29 1.289 . S
C13 C12 1.488 . S
C13 C14 1.348 . S
C13 C18 1.413 . S
C14 C13 1.348 . S
C14 C15 1.442 . S
C14 H36 0.930 . S
C15 C14 1.442 . S
C15 C16 1.381 . S
C15 H37 0.931 . S
C16 C15 1.381 . S
C16 C17 1.321 . S
C17 C16 1.321 . S
C17 C18 1.403 . S
C17 H38 0.934 . S
C18 C13 1.413 . S
C18 C17 1.403 . S
C18 H39 0.930 . S
C19 O30 1.275 . S
C19 O31 1.256 . S
O20 Ho0 2.322 . S
O20 C2 1.259 . S
O21 Ho1 2.346 . S
O21 C2 1.268 . S
O22 Ho0 2.378 . S
O22 C3 1.215 . S
O23 Ho0 2.524 . S
O23 C3 1.289 . S
O24 Ho0 2.381 . S
O24 C10 1.275 . S
O25 Ho0 2.669 . S
O25 Ho1 2.305 . S
O25 C10 1.256 . S
O26 Ho1 2.322 1_655 S
O26 C11 1.259 . S
O27 Ho0 2.330 1_655 S
O27 C11 1.288 . S
O28 Ho1 2.378 1_655 S
O28 C12 1.215 . S
O29 Ho1 2.524 1_655 S
O29 C12 1.289 . S
O30 Ho1 2.381 . S
O30 C19 1.275 . S
O31 Ho0 2.305 . S
O31 Ho1 2.669 . S
O31 C19 1.256 . S
H32 C5 0.930 . S
H33 C6 0.931 . S
H34 C8 0.934 . S
H35 C9 0.930 . S
H36 C14 0.930 . S
H37 C15 0.931 . S
H38 C17 0.934 . S
H39 C18 0.930 . S
Ho40 C43 2.811 1_545 S
Ho40 O60 2.322 1_545 S
Ho40 O62 2.378 1_545 S
Ho40 O63 2.524 1_545 S
Ho40 O64 2.381 . S
Ho40 O65 2.669 . S
Ho40 O67 2.346 . S
Ho40 O71 2.305 . S
Ho41 C52 2.811 . S
Ho41 O61 2.346 . S
Ho41 O65 2.305 . S
Ho41 O66 2.322 . S
Ho41 O68 2.378 . S
Ho41 O69 2.524 . S
Ho41 O70 2.381 . S
Ho41 O71 2.669 . S
C42 O60 1.259 . S
C42 O61 1.268 1_565 S
C43 Ho40 2.811 1_565 S
C43 C44 1.488 . S
C43 O62 1.215 . S
C43 O63 1.289 . S
C44 C43 1.488 . S
C44 C45 1.348 . S
C44 C49 1.413 . S
C45 C44 1.348 . S
C45 C46 1.442 . S
C45 H72 0.930 . S
C46 C45 1.442 . S
C46 C47 1.381 . S
C46 H73 0.931 . S
C47 C46 1.381 . S
C47 C48 1.321 . S
C48 C47 1.321 . S
C48 C49 1.403 . S
C48 H74 0.934 . S
C49 C44 1.413 . S
C49 C48 1.403 . S
C49 H75 0.930 . S
C50 O64 1.275 . S
C50 O65 1.256 . S
C51 O66 1.259 . S
C51 O67 1.268 . S
C52 Ho41 2.811 . S
C52 C53 1.488 . S
C52 O68 1.215 . S
C52 O69 1.289 . S
C53 C52 1.488 . S
C53 C54 1.348 . S
C53 C58 1.413 . S
C54 C53 1.348 . S
C54 C55 1.442 . S
C54 H76 0.930 . S
C55 C54 1.442 . S
C55 C56 1.381 . S
C55 H77 0.931 . S
C56 C55 1.381 . S
C56 C57 1.321 . S
C57 C56 1.321 . S
C57 C58 1.403 . S
C57 H78 0.934 . S
C58 C53 1.413 . S
C58 C57 1.403 . S
C58 H79 0.930 . S
C59 O70 1.275 . S
C59 O71 1.256 . S
O60 Ho40 2.322 1_565 S
O60 C42 1.259 . S
O61 Ho41 2.346 . S
O61 C42 1.268 1_545 S
O62 Ho40 2.378 1_565 S
O62 C43 1.215 . S
O63 Ho40 2.524 1_565 S
O63 C43 1.289 . S
O64 Ho40 2.381 . S
O64 C50 1.275 . S
O65 Ho40 2.669 . S
O65 Ho41 2.305 . S
O65 C50 1.256 . S
O66 Ho41 2.322 . S
O66 C51 1.259 . S
O67 Ho40 2.346 . S
O67 C51 1.268 . S
O68 Ho41 2.378 . S
O68 C52 1.215 . S
O69 Ho41 2.524 . S
O69 C52 1.289 . S
O70 Ho41 2.381 . S
O70 C59 1.275 . S
O71 Ho40 2.305 . S
O71 Ho41 2.669 . S
O71 C59 1.256 . S
H72 C45 0.930 . S
H73 C46 0.931 . S
H74 C48 0.934 . S
H75 C49 0.930 . S
H76 C54 0.930 . S
H77 C55 0.931 . S
H78 C57 0.934 . S
H79 C58 0.930 . S
Ho80 C83 2.811 . S
Ho80 O100 2.322 . S
Ho80 O102 2.378 . S
Ho80 O103 2.524 . S
Ho80 O104 2.381 . S
Ho80 O105 2.669 . S
Ho80 O107 2.346 . S
Ho80 O111 2.305 . S
Ho81 C92 2.811 . S
Ho81 O101 2.346 . S
Ho81 O105 2.305 . S
Ho81 O106 2.322 . S
Ho81 O108 2.378 . S
Ho81 O109 2.524 . S
Ho81 O110 2.381 . S
Ho81 O111 2.669 . S
C82 O100 1.259 . S
C82 O101 1.268 . S
C83 Ho80 2.811 . S
C83 C84 1.488 . S
C83 O102 1.215 . S
C83 O103 1.289 . S
C84 C83 1.488 . S
C84 C85 1.348 . S
C84 C89 1.413 . S
C85 C84 1.348 . S
C85 C86 1.442 . S
C85 H112 0.930 . S
C86 C85 1.442 . S
C86 C87 1.381 . S
C86 H113 0.931 . S
C87 C86 1.381 . S
C87 C88 1.321 . S
C88 C87 1.321 . S
C88 C89 1.403 . S
C88 H114 0.934 . S
C89 C84 1.413 . S
C89 C88 1.403 . S
C89 H115 0.930 . S
C90 O104 1.275 . S
C90 O105 1.256 . S
C91 O106 1.259 . S
C91 O107 1.268 . S
C92 Ho81 2.811 . S
C92 C93 1.488 . S
C92 O108 1.215 . S
C92 O109 1.289 . S
C93 C92 1.488 . S
C93 C94 1.348 . S
C93 C98 1.413 . S
C94 C93 1.348 . S
C94 C95 1.442 . S
C94 H116 0.930 . S
C95 C94 1.442 . S
C95 C96 1.381 . S
C95 H117 0.931 . S
C96 C95 1.381 . S
C96 C97 1.321 . S
C97 C96 1.321 . S
C97 C98 1.403 . S
C97 H118 0.934 . S
C98 C93 1.413 . S
C98 C97 1.403 . S
C98 H119 0.930 . S
C99 O110 1.275 . S
C99 O111 1.256 . S
O100 Ho80 2.322 . S
O100 C82 1.259 . S
O101 Ho81 2.346 . S
O101 C82 1.268 . S
O102 Ho80 2.378 . S
O102 C83 1.215 . S
O103 Ho80 2.524 . S
O103 C83 1.289 . S
O104 Ho80 2.381 . S
O104 C90 1.275 . S
O105 Ho80 2.669 . S
O105 Ho81 2.305 . S
O105 C90 1.256 . S
O106 Ho81 2.322 . S
O106 C91 1.259 . S
O107 Ho80 2.346 . S
O107 C91 1.268 . S
O108 Ho81 2.378 . S
O108 C92 1.215 . S
O109 Ho81 2.524 . S
O109 C92 1.289 . S
O110 Ho81 2.381 . S
O110 C99 1.275 . S
O111 Ho80 2.305 . S
O111 Ho81 2.669 . S
O111 C99 1.256 . S
H112 C85 0.930 . S
H113 C86 0.931 . S
H114 C88 0.934 . S
H115 C89 0.930 . S
H116 C94 0.930 . S
H117 C95 0.931 . S
H118 C97 0.934 . S
H119 C98 0.930 . S
H120 C121 0.949 . S
C121 H120 0.949 . S
C121 C122 1.395 . S
C121 C123 1.391 . S
C122 C121 1.395 . S
C122 C125 1.390 . S
C123 C121 1.391 . S
C123 C127 1.387 . S
C123 C128 1.491 . S
H124 C125 0.938 1_565 S
C125 C122 1.390 . S
C125 H124 0.938 1_545 S
C125 C126 1.378 . S
C126 C125 1.378 . S
C126 C127 1.409 . S
C127 C123 1.387 . S
C127 C126 1.409 . S
C127 H129 0.951 . S
C128 C123 1.491 . S
C128 C130 1.382 . S
C128 C132 1.404 . S
H129 C127 0.951 . S
C130 C128 1.382 . S
C130 C131 1.390 . S
C130 H135 0.949 . S
C131 C130 1.390 . S
C131 C136 1.399 . S
C132 C128 1.404 . S
C132 H133 0.950 . S
C132 C134 1.375 . S
H133 C132 0.950 . S
C134 C132 1.375 . S
C134 C136 1.382 . S
C134 H138 0.950 . S
H135 C130 0.949 . S
C136 C131 1.399 . S
C136 C134 1.382 . S
C136 H137 0.952 . S
H137 C136 0.952 . S
H138 C134 0.950 . S
H139 C140 0.949 . S
C140 H139 0.949 . S
C140 C141 1.395 . S
C140 C142 1.391 . S
C141 C140 1.395 . S
C141 C144 1.390 . S
C142 C140 1.391 . S
C142 C146 1.387 . S
C142 C147 1.491 . S
H143 C144 0.950 . S
C144 C141 1.390 . S
C144 H143 0.950 . S
C144 C145 1.378 . S
C145 C144 1.378 . S
C145 C146 1.409 . S
C146 C142 1.387 . S
C146 C145 1.409 . S
C146 H148 0.951 . S
C147 C142 1.491 . S
C147 C149 1.382 . S
C147 C151 1.404 . S
H148 C146 0.951 . S
C149 C147 1.382 . S
C149 C150 1.390 . S
C149 H154 0.949 . S
C150 C149 1.390 . S
C150 C155 1.399 . S
C151 C147 1.404 . S
C151 H152 0.950 . S
C151 C153 1.375 . S
H152 C151 0.950 . S
C153 C151 1.375 . S
C153 C155 1.382 . S
C153 H157 0.950 . S
H154 C149 0.949 . S
C155 C150 1.399 . S
C155 C153 1.382 . S
C155 H156 0.952 . S
H156 C155 0.952 . S
H157 C153 0.950 . S
H158 C159 0.949 . S
C159 H158 0.949 . S
C159 C160 1.395 . S
C159 C161 1.391 . S
C160 C159 1.395 . S
C160 C163 1.390 . S
C161 C159 1.391 . S
C161 C165 1.387 . S
C161 C166 1.491 . S
H162 C163 0.950 . S
C163 C160 1.390 . S
C163 H162 0.950 . S
C163 C164 1.378 . S
C164 C163 1.378 . S
C164 C165 1.409 . S
C165 C161 1.387 . S
C165 C164 1.409 . S
C165 H167 0.951 . S
C166 C161 1.491 . S
C166 C168 1.382 . S
C166 C170 1.404 . S
H167 C165 0.951 . S
C168 C166 1.382 . S
C168 C169 1.390 . S
C168 H173 0.949 . S
C169 C168 1.390 . S
C169 C174 1.399 . S
C170 C166 1.404 . S
C170 H171 0.950 . S
C170 C172 1.375 . S
H171 C170 0.950 . S
C172 C170 1.375 . S
C172 C174 1.382 . S
C172 H176 0.950 . S
H173 C168 0.949 . S
C174 C169 1.399 . S
C174 C172 1.382 . S
C174 H175 0.952 . S
H175 C174 0.952 . S
H176 C172 0.950 . S
H177 C178 0.949 . S
C178 H177 0.949 . S
C178 C179 1.395 1_655 S
C178 C180 1.391 1_655 S
C179 C178 1.395 1_455 S
C179 C182 1.390 . S
C180 C178 1.391 1_455 S
C180 C184 1.387 . S
C180 C185 1.491 1_455 S
H181 C182 0.950 . S
C182 C179 1.390 . S
C182 H181 0.950 . S
C182 C183 1.378 . S
C183 C182 1.378 . S
C183 C184 1.409 . S
C184 C180 1.387 . S
C184 C183 1.409 . S
C184 H186 0.951 . S
C185 C180 1.491 1_655 S
C185 C187 1.382 . S
C185 C189 1.404 . S
H186 C184 0.951 . S
C187 C185 1.382 . S
C187 C188 1.390 . S
C187 H192 0.949 . S
C188 C187 1.390 . S
C188 C193 1.399 . S
C189 C185 1.404 . S
C189 H190 0.950 . S
C189 C191 1.375 . S
H190 C189 0.950 . S
C191 C189 1.375 . S
C191 C193 1.382 . S
C191 H195 0.950 . S
H192 C187 0.949 . S
C193 C188 1.399 . S
C193 C191 1.382 . S
C193 H194 0.952 . S
H194 C193 0.952 . S
H195 C191 0.950 . S
H196 C197 0.949 . S
C197 H196 0.949 . S
C197 C198 1.395 . S
C197 C199 1.391 . S
C198 C197 1.395 . S
C198 C201 1.390 . S
C199 C197 1.391 . S
C199 C203 1.387 . S
C199 C204 1.491 . S
H200 C201 0.950 . S
C201 C198 1.390 . S
C201 H200 0.950 . S
C201 C202 1.378 . S
C202 C201 1.378 . S
C202 C203 1.409 . S
C203 C199 1.387 . S
C203 C202 1.409 . S
C203 H205 0.951 . S
C204 C199 1.491 . S
C204 C206 1.382 1_545 S
C204 C208 1.404 1_545 S
H205 C203 0.951 . S
C206 C204 1.382 1_565 S
C206 C207 1.390 . S
C206 H211 0.949 . S
C207 C206 1.390 . S
C207 C212 1.399 . S
C208 C204 1.404 1_565 S
C208 H209 0.950 1_565 S
C208 C210 1.375 . S
H209 C208 0.950 1_545 S
C210 C208 1.375 . S
C210 C212 1.382 . S
C210 H214 0.950 . S
H211 C206 0.949 . S
C212 C207 1.399 . S
C212 C210 1.382 . S
C212 H213 0.952 . S
H213 C212 0.952 . S
H214 C210 0.950 . S
H215 C216 0.949 . S
C216 H215 0.949 . S
C216 C217 1.395 . S
C216 C218 1.391 . S
C217 C216 1.395 . S
C217 C220 1.390 . S
C218 C216 1.391 . S
C218 C222 1.387 . S
C218 C223 1.491 . S
H219 C220 0.950 . S
C220 C217 1.390 . S
C220 H219 0.950 . S
C220 C221 1.378 . S
C221 C220 1.378 . S
C221 C222 1.409 . S
C222 C218 1.387 . S
C222 C221 1.409 . S
C222 H224 0.951 . S
C223 C218 1.491 . S
C223 C225 1.382 . S
C223 C227 1.404 . S
H224 C222 0.951 . S
C225 C223 1.382 . S
C225 C226 1.390 . S
C225 H230 0.949 . S
C226 C225 1.390 . S
C226 C231 1.399 . S
C227 C223 1.404 . S
C227 H228 0.950 . S
C227 C229 1.375 . S
H228 C227 0.950 . S
C229 C227 1.375 . S
C229 C231 1.382 . S
C229 H233 0.950 . S
H230 C225 0.949 . S
C231 C226 1.399 . S
C231 C229 1.382 . S
C231 H232 0.952 . S
H232 C231 0.952 . S
H233 C229 0.950 . S
C234 C235 1.349 . S
C234 C236 1.327 . S
C234 H259 0.950 . S
C235 C234 1.349 . S
C235 C251 1.349 . S
C236 C234 1.327 . S
C236 C255 1.429 . S
C236 H260 0.950 . S
C237 C254 1.574 . S
C237 C256 1.368 . S
C237 H261 0.949 . S
H238 C242 0.949 . S
C239 C240 1.349 . S
C239 C241 1.327 . S
C239 H262 0.950 . S
C240 C239 1.349 . S
C240 C252 1.349 . S
C241 C239 1.327 . S
C241 C257 1.429 . S
C241 H263 0.950 . S
C242 H238 0.949 . S
C242 C250 1.574 . S
C242 C258 1.368 . S
H243 C251 0.950 . S
H244 C249 0.950 . S
H245 C250 0.949 . S
H246 C252 0.950 . S
H247 C253 0.950 . S
H248 C254 0.949 . S
C249 H244 0.950 . S
C249 C251 1.327 . S
C249 C255 1.429 . S
C250 C242 1.574 . S
C250 H245 0.949 . S
C250 C256 1.368 . S
C251 C235 1.349 . S
C251 H243 0.950 . S
C251 C249 1.327 . S
C252 C240 1.349 . S
C252 H246 0.950 . S
C252 C253 1.327 . S
C253 H247 0.950 . S
C253 C252 1.327 . S
C253 C257 1.429 . S
C254 C237 1.574 . S
C254 H248 0.949 . S
C254 C258 1.368 . S
C255 C236 1.429 . S
C255 C249 1.429 . S
C255 C256 1.523 . S
C256 C237 1.368 . S
C256 C250 1.368 . S
C256 C255 1.523 . S
C257 C241 1.429 . S
C257 C253 1.429 . S
C257 C258 1.523 . S
C258 C242 1.368 . S
C258 C254 1.368 . S
C258 C257 1.523 . S
H259 C234 0.950 . S
H260 C236 0.950 . S
H261 C237 0.949 . S
H262 C239 0.950 . S
H263 C241 0.950 . S
C264 C265 1.349 . S
C264 C266 1.327 . S
C264 H289 0.950 . S
C265 C264 1.349 . S
C265 C281 1.349 . S
C266 C264 1.327 . S
C266 C285 1.429 . S
C266 H290 0.950 . S
C267 C284 1.574 . S
C267 C286 1.368 . S
C267 H291 0.949 . S
H268 C272 0.949 . S
C269 C270 1.349 . S
C269 C271 1.327 . S
C269 H292 0.950 . S
C270 C269 1.349 . S
C270 C282 1.349 . S
C271 C269 1.327 . S
C271 C287 1.429 . S
C271 H293 0.950 . S
C272 H268 0.949 . S
C272 C280 1.574 . S
C272 C288 1.368 . S
H273 C281 0.950 . S
H274 C279 0.950 . S
H275 C280 0.949 . S
H276 C282 0.950 . S
H277 C283 0.950 . S
H278 C284 0.949 . S
C279 H274 0.950 . S
C279 C281 1.327 . S
C279 C285 1.429 . S
C280 C272 1.574 . S
C280 H275 0.949 . S
C280 C286 1.368 . S
C281 C265 1.349 . S
C281 H273 0.950 . S
C281 C279 1.327 . S
C282 C270 1.349 . S
C282 H276 0.950 . S
C282 C283 1.327 . S
C283 H277 0.950 . S
C283 C282 1.327 . S
C283 C287 1.429 . S
C284 C267 1.574 . S
C284 H278 0.949 . S
C284 C288 1.368 . S
C285 C266 1.429 . S
C285 C279 1.429 . S
C285 C286 1.523 . S
C286 C267 1.368 . S
C286 C280 1.368 . S
C286 C285 1.523 . S
C287 C271 1.429 . S
C287 C283 1.429 . S
C287 C288 1.523 . S
C288 C272 1.368 . S
C288 C284 1.368 . S
C288 C287 1.523 . S
H289 C264 0.950 . S
H290 C266 0.950 . S
H291 C267 0.949 . S
H292 C269 0.950 . S
H293 C271 0.950 . S
C294 C295 1.349 . S
C294 C296 1.327 . S
C294 H319 0.950 . S
C295 C294 1.349 . S
C295 C311 1.349 . S
C296 C294 1.327 . S
C296 C315 1.429 . S
C296 H320 0.950 . S
C297 C314 1.574 . S
C297 C316 1.368 . S
C297 H321 0.949 . S
H298 C302 0.949 . S
C299 C300 1.349 . S
C299 C301 1.327 . S
C299 H322 0.950 . S
C300 C299 1.349 . S
C300 C312 1.349 . S
C301 C299 1.327 . S
C301 C317 1.429 . S
C301 H323 0.950 . S
C302 H298 0.949 . S
C302 C310 1.574 . S
C302 C318 1.368 . S
H303 C311 0.950 . S
H304 C309 0.950 . S
H305 C310 0.949 . S
H306 C312 0.950 . S
H307 C313 0.950 . S
H308 C314 0.949 . S
C309 H304 0.950 . S
C309 C311 1.327 . S
C309 C315 1.429 . S
C310 C302 1.574 . S
C310 H305 0.949 . S
C310 C316 1.368 . S
C311 C295 1.349 . S
C311 H303 0.950 . S
C311 C309 1.327 . S
C312 C300 1.349 . S
C312 H306 0.950 . S
C312 C313 1.327 . S
C313 H307 0.950 . S
C313 C312 1.327 . S
C313 C317 1.429 . S
C314 C297 1.574 . S
C314 H308 0.949 . S
C314 C318 1.368 . S
C315 C296 1.429 . S
C315 C309 1.429 . S
C315 C316 1.523 . S
C316 C297 1.368 . S
C316 C310 1.368 . S
C316 C315 1.523 . S
C317 C301 1.429 . S
C317 C313 1.429 . S
C317 C318 1.523 . S
C318 C302 1.368 . S
C318 C314 1.368 . S
C318 C317 1.523 . S
H319 C294 0.950 . S
H320 C296 0.950 . S
H321 C297 0.949 . S
H322 C299 0.950 . S
H323 C301 0.950 . S
C324 C325 1.349 . S
C324 C326 1.327 . S
C324 H349 0.950 . S
C325 C324 1.349 . S
C325 C341 1.349 . S
C326 C324 1.327 . S
C326 C345 1.429 . S
C326 H350 0.950 . S
C327 C344 1.574 . S
C327 C346 1.368 . S
C327 H351 0.949 . S
H328 C332 0.949 . S
C329 C330 1.349 . S
C329 C331 1.327 . S
C329 H352 0.950 . S
C330 C329 1.349 . S
C330 C342 1.349 . S
C331 C329 1.327 . S
C331 C347 1.429 . S
C331 H353 0.950 . S
C332 H328 0.949 . S
C332 C340 1.574 . S
C332 C348 1.368 . S
H333 C341 0.950 . S
H334 C339 0.950 . S
H335 C340 0.949 . S
H336 C342 0.950 . S
H337 C343 0.950 . S
H338 C344 0.949 . S
C339 H334 0.950 . S
C339 C341 1.327 . S
C339 C345 1.429 . S
C340 C332 1.574 . S
C340 H335 0.949 . S
C340 C346 1.368 . S
C341 C325 1.349 . S
C341 H333 0.950 . S
C341 C339 1.327 . S
C342 C330 1.349 . S
C342 H336 0.950 . S
C342 C343 1.327 . S
C343 H337 0.950 . S
C343 C342 1.327 . S
C343 C347 1.429 . S
C344 C327 1.574 . S
C344 H338 0.949 . S
C344 C348 1.368 . S
C345 C326 1.429 . S
C345 C339 1.429 . S
C345 C346 1.523 . S
C346 C327 1.368 . S
C346 C340 1.368 . S
C346 C345 1.523 . S
C347 C331 1.429 . S
C347 C343 1.429 . S
C347 C348 1.523 . S
C348 C332 1.368 . S
C348 C344 1.368 . S
C348 C347 1.523 . S
H349 C324 0.950 . S
H350 C326 0.950 . S
H351 C327 0.949 . S
H352 C329 0.950 . S
H353 C331 0.950 . S
C354 C355 1.349 . S
C354 C356 1.327 . S
C354 H379 0.950 . S
C355 C354 1.349 . S
C355 C371 1.349 . S
C356 C354 1.327 . S
C356 C375 1.429 . S
C356 H380 0.950 . S
C357 C374 1.574 . S
C357 C376 1.368 . S
C357 H381 0.949 . S
H358 C362 0.949 . S
C359 C360 1.349 . S
C359 C361 1.327 . S
C359 H382 0.950 . S
C360 C359 1.349 . S
C360 C372 1.349 . S
C361 C359 1.327 . S
C361 C377 1.429 . S
C361 H383 0.950 . S
C362 H358 0.949 . S
C362 C370 1.574 . S
C362 C378 1.368 . S
H363 C371 0.950 . S
H364 C369 0.950 . S
H365 C370 0.949 . S
H366 C372 0.950 . S
H367 C373 0.950 . S
H368 C374 0.949 . S
C369 H364 0.950 . S
C369 C371 1.327 . S
C369 C375 1.429 . S
C370 C362 1.574 . S
C370 H365 0.949 . S
C370 C376 1.368 . S
C371 C355 1.349 . S
C371 H363 0.950 . S
C371 C369 1.327 . S
C372 C360 1.349 . S
C372 H366 0.950 . S
C372 C373 1.327 . S
C373 H367 0.950 . S
C373 C372 1.327 . S
C373 C377 1.429 . S
C374 C357 1.574 . S
C374 H368 0.949 . S
C374 C378 1.368 . S
C375 C356 1.429 . S
C375 C369 1.429 . S
C375 C376 1.523 . S
C376 C357 1.368 . S
C376 C370 1.368 . S
C376 C375 1.523 . S
C377 C361 1.429 . S
C377 C373 1.429 . S
C377 C378 1.523 . S
C378 C362 1.368 . S
C378 C374 1.368 . S
C378 C377 1.523 . S
H379 C354 0.950 . S
H380 C356 0.950 . S
H381 C357 0.949 . S
H382 C359 0.950 . S
H383 C361 0.950 . S
C384 C385 1.349 . S
C384 C386 1.327 . S
C384 H409 0.950 . S
C385 C384 1.349 . S
C385 C401 1.349 . S
C386 C384 1.327 . S
C386 C405 1.429 . S
C386 H410 0.950 . S
C387 C404 1.574 . S
C387 C406 1.368 . S
C387 H411 0.949 . S
H388 C392 0.949 . S
C389 C390 1.349 . S
C389 C391 1.327 . S
C389 H412 0.950 . S
C390 C389 1.349 . S
C390 C402 1.349 . S
C391 C389 1.327 . S
C391 C407 1.429 . S
C391 H413 0.950 . S
C392 H388 0.949 . S
C392 C400 1.574 . S
C392 C408 1.368 . S
H393 C401 0.950 . S
H394 C399 0.950 . S
H395 C400 0.949 . S
H396 C402 0.950 . S
H397 C403 0.950 . S
H398 C404 0.949 . S
C399 H394 0.950 . S
C399 C401 1.327 . S
C399 C405 1.429 . S
C400 C392 1.574 . S
C400 H395 0.949 . S
C400 C406 1.368 . S
C401 C385 1.349 . S
C401 H393 0.950 . S
C401 C399 1.327 . S
C402 C390 1.349 . S
C402 H396 0.950 . S
C402 C403 1.327 . S
C403 H397 0.950 . S
C403 C402 1.327 . S
C403 C407 1.429 . S
C404 C387 1.574 . S
C404 H398 0.949 . S
C404 C408 1.368 . S
C405 C386 1.429 . S
C405 C399 1.429 . S
C405 C406 1.523 . S
C406 C387 1.368 . S
C406 C400 1.368 . S
C406 C405 1.523 . S
C407 C391 1.429 . S
C407 C403 1.429 . S
C407 C408 1.523 . S
C408 C392 1.368 . S
C408 C404 1.368 . S
C408 C407 1.523 . S
H409 C384 0.950 . S
H410 C386 0.950 . S
H411 C387 0.949 . S
H412 C389 0.950 . S
H413 C391 0.950 . S
C414 C415 1.349 . S
C414 C416 1.327 . S
C414 H439 0.950 . S
C415 C414 1.349 . S
C415 C431 1.349 . S
C416 C414 1.327 . S
C416 C435 1.429 . S
C416 H440 0.950 . S
C417 C434 1.574 . S
C417 C436 1.368 . S
C417 H441 0.949 . S
H418 C422 0.949 . S
C419 C420 1.349 . S
C419 C421 1.327 . S
C419 H442 0.950 . S
C420 C419 1.349 . S
C420 C432 1.349 . S
C421 C419 1.327 . S
C421 C437 1.429 . S
C421 H443 0.950 . S
C422 H418 0.949 . S
C422 C430 1.574 . S
C422 C438 1.368 . S
H423 C431 0.950 . S
H424 C429 0.950 . S
H425 C430 0.949 . S
H426 C432 0.950 . S
H427 C433 0.950 . S
H428 C434 0.949 . S
C429 H424 0.950 . S
C429 C431 1.327 . S
C429 C435 1.429 . S
C430 C422 1.574 . S
C430 H425 0.949 . S
C430 C436 1.368 . S
C431 C415 1.349 . S
C431 H423 0.950 . S
C431 C429 1.327 . S
C432 C420 1.349 . S
C432 H426 0.950 . S
C432 C433 1.327 . S
C433 H427 0.950 . S
C433 C432 1.327 . S
C433 C437 1.429 . S
C434 C417 1.574 . S
C434 H428 0.949 . S
C434 C438 1.368 . S
C435 C416 1.429 . S
C435 C429 1.429 . S
C435 C436 1.523 . S
C436 C417 1.368 . S
C436 C430 1.368 . S
C436 C435 1.523 . S
C437 C421 1.429 . S
C437 C433 1.429 . S
C437 C438 1.523 . S
C438 C422 1.368 . S
C438 C434 1.368 . S
C438 C437 1.523 . S
H439 C414 0.950 . S
H440 C416 0.950 . S
H441 C417 0.949 . S
H442 C419 0.950 . S
H443 C421 0.950 . S
C444 C445 1.349 . S
C444 C446 1.327 . S
C444 H469 0.950 . S
C445 C444 1.349 . S
C445 C461 1.349 . S
C446 C444 1.327 . S
C446 C465 1.429 . S
C446 H470 0.950 . S
C447 C464 1.574 . S
C447 C466 1.368 . S
C447 H471 0.949 . S
H448 C452 0.949 . S
C449 C450 1.349 . S
C449 C451 1.327 . S
C449 H472 0.950 . S
C450 C449 1.349 . S
C450 C462 1.349 . S
C451 C449 1.327 . S
C451 C467 1.429 . S
C451 H473 0.950 . S
C452 H448 0.949 . S
C452 C460 1.574 . S
C452 C468 1.368 . S
H453 C461 0.950 . S
H454 C459 0.950 . S
H455 C460 0.949 . S
H456 C462 0.950 . S
H457 C463 0.950 . S
H458 C464 0.949 . S
C459 H454 0.950 . S
C459 C461 1.327 . S
C459 C465 1.429 . S
C460 C452 1.574 . S
C460 H455 0.949 . S
C460 C466 1.368 . S
C461 C445 1.349 . S
C461 H453 0.950 . S
C461 C459 1.327 . S
C462 C450 1.349 . S
C462 H456 0.950 . S
C462 C463 1.327 . S
C463 H457 0.950 . S
C463 C462 1.327 . S
C463 C467 1.429 . S
C464 C447 1.574 . S
C464 H458 0.949 . S
C464 C468 1.368 . S
C465 C446 1.429 . S
C465 C459 1.429 . S
C465 C466 1.523 . S
C466 C447 1.368 . S
C466 C460 1.368 . S
C466 C465 1.523 . S
C467 C451 1.429 . S
C467 C463 1.429 . S
C467 C468 1.523 . S
C468 C452 1.368 . S
C468 C464 1.368 . S
C468 C467 1.523 . S
H469 C444 0.950 . S
H470 C446 0.950 . S
H471 C447 0.949 . S
H472 C449 0.950 . S
H473 C451 0.950 . S
C474 C475 1.349 . S
C474 C476 1.327 . S
C474 H499 0.950 . S
C475 C474 1.349 . S
C475 C491 1.349 . S
C476 C474 1.327 . S
C476 C495 1.429 . S
C476 H500 0.950 . S
C477 C494 1.574 . S
C477 C496 1.368 . S
C477 H501 0.949 . S
H478 C482 0.949 . S
C479 C480 1.349 . S
C479 C481 1.327 . S
C479 H502 0.950 . S
C480 C479 1.349 . S
C480 C492 1.349 . S
C481 C479 1.327 . S
C481 C497 1.429 . S
C481 H503 0.950 . S
C482 H478 0.949 . S
C482 C490 1.574 . S
C482 C498 1.368 . S
H483 C491 0.950 . S
H484 C489 0.950 . S
H485 C490 0.949 . S
H486 C492 0.950 . S
H487 C493 0.950 . S
H488 C494 0.949 . S
C489 H484 0.950 . S
C489 C491 1.327 . S
C489 C495 1.429 . S
C490 C482 1.574 . S
C490 H485 0.949 . S
C490 C496 1.368 . S
C491 C475 1.349 . S
C491 H483 0.950 . S
C491 C489 1.327 . S
C492 C480 1.349 . S
C492 H486 0.950 . S
C492 C493 1.327 . S
C493 H487 0.950 . S
C493 C492 1.327 . S
C493 C497 1.429 . S
C494 C477 1.574 . S
C494 H488 0.949 . S
C494 C498 1.368 . S
C495 C476 1.429 . S
C495 C489 1.429 . S
C495 C496 1.523 . S
C496 C477 1.368 . S
C496 C490 1.368 . S
C496 C495 1.523 . S
C497 C481 1.429 . S
C497 C493 1.429 . S
C497 C498 1.523 . S
C498 C482 1.368 . S
C498 C494 1.368 . S
C498 C497 1.523 . S
H499 C474 0.950 . S
H500 C476 0.950 . S
H501 C477 0.949 . S
H502 C479 0.950 . S
H503 C481 0.950 . S
C504 C505 1.349 . S
C504 C506 1.327 . S
C504 H529 0.950 . S
C505 C504 1.349 . S
C505 C521 1.349 . S
C506 C504 1.327 . S
C506 C525 1.429 . S
C506 H530 0.950 . S
C507 C524 1.574 . S
C507 C526 1.368 . S
C507 H531 0.949 . S
H508 C512 0.949 . S
C509 C510 1.349 . S
C509 C511 1.327 . S
C509 H532 0.950 . S
C510 C509 1.349 . S
C510 C522 1.349 . S
C511 C509 1.327 . S
C511 C527 1.429 . S
C511 H533 0.950 . S
C512 H508 0.949 . S
C512 C520 1.574 . S
C512 C528 1.368 . S
H513 C521 0.950 . S
H514 C519 0.950 . S
H515 C520 0.949 . S
H516 C522 0.950 . S
H517 C523 0.950 . S
H518 C524 0.949 . S
C519 H514 0.950 . S
C519 C521 1.327 . S
C519 C525 1.429 . S
C520 C512 1.574 . S
C520 H515 0.949 . S
C520 C526 1.368 . S
C521 C505 1.349 . S
C521 H513 0.950 . S
C521 C519 1.327 . S
C522 C510 1.349 . S
C522 H516 0.950 . S
C522 C523 1.327 . S
C523 H517 0.950 . S
C523 C522 1.327 . S
C523 C527 1.429 . S
C524 C507 1.574 . S
C524 H518 0.949 . S
C524 C528 1.368 . S
C525 C506 1.429 . S
C525 C519 1.429 . S
C525 C526 1.523 . S
C526 C507 1.368 . S
C526 C520 1.368 . S
C526 C525 1.523 . S
C527 C511 1.429 . S
C527 C523 1.429 . S
C527 C528 1.523 . S
C528 C512 1.368 . S
C528 C524 1.368 . S
C528 C527 1.523 . S
H529 C504 0.950 . S
H530 C506 0.950 . S
H531 C507 0.949 . S
H532 C509 0.950 . S
H533 C511 0.950 . S
C534 C535 1.349 . S
C534 C536 1.327 . S
C534 H559 0.950 . S
C535 C534 1.349 . S
C535 C551 1.349 . S
C536 C534 1.327 . S
C536 C555 1.429 . S
C536 H560 0.950 . S
C537 C554 1.574 . S
C537 C556 1.368 . S
C537 H561 0.949 . S
H538 C542 0.949 . S
C539 C540 1.349 . S
C539 C541 1.327 . S
C539 H562 0.950 . S
C540 C539 1.349 . S
C540 C552 1.349 . S
C541 C539 1.327 . S
C541 C557 1.429 . S
C541 H563 0.950 . S
C542 H538 0.949 . S
C542 C550 1.574 . S
C542 C558 1.368 . S
H543 C551 0.950 . S
H544 C549 0.950 . S
H545 C550 0.949 . S
H546 C552 0.950 . S
H547 C553 0.950 . S
H548 C554 0.949 . S
C549 H544 0.950 . S
C549 C551 1.327 . S
C549 C555 1.429 . S
C550 C542 1.574 . S
C550 H545 0.949 . S
C550 C556 1.368 . S
C551 C535 1.349 . S
C551 H543 0.950 . S
C551 C549 1.327 . S
C552 C540 1.349 . S
C552 H546 0.950 . S
C552 C553 1.327 . S
C553 H547 0.950 . S
C553 C552 1.327 . S
C553 C557 1.429 . S
C554 C537 1.574 . S
C554 H548 0.949 . S
C554 C558 1.368 . S
C555 C536 1.429 . S
C555 C549 1.429 . S
C555 C556 1.523 . S
C556 C537 1.368 . S
C556 C550 1.368 . S
C556 C555 1.523 . S
C557 C541 1.429 . S
C557 C553 1.429 . S
C557 C558 1.523 . S
C558 C542 1.368 . S
C558 C554 1.368 . S
C558 C557 1.523 . S
H559 C534 0.950 . S
H560 C536 0.950 . S
H561 C537 0.949 . S
H562 C539 0.950 . S
H563 C541 0.950 . S
C564 C565 1.349 . S
C564 C566 1.327 . S
C564 H589 0.950 . S
C565 C564 1.349 . S
C565 C581 1.349 . S
C566 C564 1.327 . S
C566 C585 1.429 . S
C566 H590 0.950 . S
C567 C584 1.574 . S
C567 C586 1.368 . S
C567 H591 0.949 . S
H568 C572 0.949 . S
C569 C570 1.349 . S
C569 C571 1.327 . S
C569 H592 0.950 . S
C570 C569 1.349 . S
C570 C582 1.349 . S
C571 C569 1.327 . S
C571 C587 1.429 . S
C571 H593 0.950 . S
C572 H568 0.949 . S
C572 C580 1.574 . S
C572 C588 1.368 . S
H573 C581 0.950 . S
H574 C579 0.950 . S
H575 C580 0.949 . S
H576 C582 0.950 . S
H577 C583 0.950 . S
H578 C584 0.949 . S
C579 H574 0.950 . S
C579 C581 1.327 . S
C579 C585 1.429 . S
C580 C572 1.574 . S
C580 H575 0.949 . S
C580 C586 1.368 . S
C581 C565 1.349 . S
C581 H573 0.950 . S
C581 C579 1.327 . S
C582 C570 1.349 . S
C582 H576 0.950 . S
C582 C583 1.327 . S
C583 H577 0.950 . S
C583 C582 1.327 . S
C583 C587 1.429 . S
C584 C567 1.574 . S
C584 H578 0.949 . S
C584 C588 1.368 . S
C585 C566 1.429 . S
C585 C579 1.429 . S
C585 C586 1.523 . S
C586 C567 1.368 . S
C586 C580 1.368 . S
C586 C585 1.523 . S
C587 C571 1.429 . S
C587 C583 1.429 . S
C587 C588 1.523 . S
C588 C572 1.368 . S
C588 C584 1.368 . S
C588 C587 1.523 . S
H589 C564 0.950 . S
H590 C566 0.950 . S
H591 C567 0.949 . S
H592 C569 0.950 . S
H593 C571 0.950 . S
C594 C595 1.349 . S
C594 C596 1.327 . S
C594 H619 0.950 . S
C595 C594 1.349 . S
C595 C611 1.349 . S
C596 C594 1.327 . S
C596 C615 1.429 . S
C596 H620 0.950 . S
C597 C614 1.574 1_554 S
C597 C616 1.368 . S
C597 H621 0.949 1_455 S
H598 C602 0.922 1_556 S
C599 C600 1.349 . S
C599 C601 1.327 . S
C599 H622 0.950 . S
C600 C599 1.349 . S
C600 C612 1.349 . S
C601 C599 1.327 . S
C601 C617 1.429 . S
C601 H623 0.950 . S
C602 H598 0.922 1_554 S
C602 C610 1.574 . S
C602 C618 1.368 1_554 S
H603 C611 0.950 1_655 S
H604 C609 0.950 1_655 S
H605 C610 0.949 . S
H606 C612 0.950 . S
H607 C613 0.950 . S
H608 C614 0.951 . S
C609 H604 0.950 1_455 S
C609 C611 1.327 . S
C609 C615 1.429 . S
C610 C602 1.574 . S
C610 H605 0.949 . S
C610 C616 1.368 . S
C611 C595 1.349 . S
C611 H603 0.950 1_455 S
C611 C609 1.327 . S
C612 C600 1.349 . S
C612 H606 0.950 . S
C612 C613 1.327 . S
C613 H607 0.950 . S
C613 C612 1.327 . S
C613 C617 1.429 . S
C614 C597 1.574 1_556 S
C614 H608 0.951 . S
C614 C618 1.368 . S
C615 C596 1.429 . S
C615 C609 1.429 . S
C615 C616 1.523 . S
C616 C597 1.368 . S
C616 C610 1.368 . S
C616 C615 1.523 . S
C617 C601 1.429 . S
C617 C613 1.429 . S
C617 C618 1.523 . S
C618 C602 1.368 1_556 S
C618 C614 1.368 . S
C618 C617 1.523 . S
H619 C594 0.950 . S
H620 C596 0.950 . S
H621 C597 0.949 1_655 S
H622 C599 0.950 . S
H623 C601 0.950 . S
C624 C625 1.349 . S
C624 C626 1.327 . S
C624 H649 0.950 1_545 S
C625 C624 1.349 . S
C625 C641 1.349 . S
C626 C624 1.327 . S
C626 C645 1.429 . S
C626 H650 0.950 1_545 S
C627 C644 1.574 . S
C627 C646 1.368 . S
C627 H651 0.949 . S
H628 C632 0.949 . S
C629 C630 1.349 . S
C629 C631 1.327 . S
C629 H652 0.950 . S
C630 C629 1.349 . S
C630 C642 1.349 . S
C631 C629 1.327 . S
C631 C647 1.429 . S
C631 H653 0.950 . S
C632 H628 0.949 . S
C632 C640 1.574 . S
C632 C648 1.368 . S
H633 C641 0.950 . S
H634 C639 0.950 . S
H635 C640 0.954 . S
H636 C642 0.950 . S
H637 C643 0.950 . S
H638 C644 0.949 . S
C639 H634 0.950 . S
C639 C641 1.327 . S
C639 C645 1.429 . S
C640 C632 1.574 . S
C640 H635 0.954 . S
C640 C646 1.368 . S
C641 C625 1.349 . S
C641 H633 0.950 . S
C641 C639 1.327 . S
C642 C630 1.349 . S
C642 H636 0.950 . S
C642 C643 1.327 . S
C643 H637 0.950 . S
C643 C642 1.327 . S
C643 C647 1.429 . S
C644 C627 1.574 . S
C644 H638 0.949 . S
C644 C648 1.368 . S
C645 C626 1.429 . S
C645 C639 1.429 . S
C645 C646 1.523 . S
C646 C627 1.368 . S
C646 C640 1.368 . S
C646 C645 1.523 . S
C647 C631 1.429 . S
C647 C643 1.429 . S
C647 C648 1.523 . S
C648 C632 1.368 . S
C648 C644 1.368 . S
C648 C647 1.523 . S
H649 C624 0.950 1_565 S
H650 C626 0.950 1_565 S
H651 C627 0.949 . S
H652 C629 0.950 . S
H653 C631 0.950 . S
C654 C655 1.349 . S
C654 C656 1.327 . S
C654 H679 0.950 . S
C655 C654 1.349 . S
C655 C671 1.349 . S
C656 C654 1.327 . S
C656 C675 1.429 . S
C656 H680 0.950 . S
C657 C674 1.574 . S
C657 C676 1.368 . S
C657 H681 0.949 . S
H658 C662 0.949 . S
C659 C660 1.349 . S
C659 C661 1.327 . S
C659 H682 0.950 . S
C660 C659 1.349 . S
C660 C672 1.349 . S
C661 C659 1.327 . S
C661 C677 1.429 . S
C661 H683 0.950 . S
C662 H658 0.949 . S
C662 C670 1.574 . S
C662 C678 1.368 . S
H663 C671 0.950 . S
H664 C669 0.950 . S
H665 C670 0.949 . S
H666 C672 0.950 . S
H667 C673 0.950 . S
H668 C674 0.949 . S
C669 H664 0.950 . S
C669 C671 1.327 . S
C669 C675 1.429 . S
C670 C662 1.574 . S
C670 H665 0.949 . S
C670 C676 1.368 . S
C671 C655 1.349 . S
C671 H663 0.950 . S
C671 C669 1.327 . S
C672 C660 1.349 . S
C672 H666 0.950 . S
C672 C673 1.327 . S
C673 H667 0.950 . S
C673 C672 1.327 . S
C673 C677 1.429 . S
C674 C657 1.574 . S
C674 H668 0.949 . S
C674 C678 1.368 . S
C675 C656 1.429 . S
C675 C669 1.429 . S
C675 C676 1.523 . S
C676 C657 1.368 . S
C676 C670 1.368 . S
C676 C675 1.523 . S
C677 C661 1.429 . S
C677 C673 1.429 . S
C677 C678 1.523 . S
C678 C662 1.368 . S
C678 C674 1.368 . S
C678 C677 1.523 . S
H679 C654 0.950 . S
H680 C656 0.950 . S
H681 C657 0.949 . S
H682 C659 0.950 . S
H683 C661 0.950 . S
C684 C685 1.349 . S
C684 C686 1.327 . S
C684 H709 0.950 . S
C685 C684 1.349 . S
C685 C701 1.349 . S
C686 C684 1.327 . S
C686 C705 1.429 . S
C686 H710 0.950 . S
C687 C704 1.574 . S
C687 C706 1.368 . S
C687 H711 0.949 . S
H688 C692 0.949 . S
C689 C690 1.349 . S
C689 C691 1.327 . S
C689 H712 0.950 . S
C690 C689 1.349 . S
C690 C702 1.349 . S
C691 C689 1.327 . S
C691 C707 1.429 . S
C691 H713 0.950 . S
C692 H688 0.949 . S
C692 C700 1.574 . S
C692 C708 1.368 . S
H693 C701 0.950 . S
H694 C699 0.950 . S
H695 C700 0.949 . S
H696 C702 0.950 . S
H697 C703 0.950 . S
H698 C704 0.949 . S
C699 H694 0.950 . S
C699 C701 1.327 . S
C699 C705 1.429 . S
C700 C692 1.574 . S
C700 H695 0.949 . S
C700 C706 1.368 . S
C701 C685 1.349 . S
C701 H693 0.950 . S
C701 C699 1.327 . S
C702 C690 1.349 . S
C702 H696 0.950 . S
C702 C703 1.327 . S
C703 H697 0.950 . S
C703 C702 1.327 . S
C703 C707 1.429 . S
C704 C687 1.574 . S
C704 H698 0.949 . S
C704 C708 1.368 . S
C705 C686 1.429 . S
C705 C699 1.429 . S
C705 C706 1.523 . S
C706 C687 1.368 . S
C706 C700 1.368 . S
C706 C705 1.523 . S
C707 C691 1.429 . S
C707 C703 1.429 . S
C707 C708 1.523 . S
C708 C692 1.368 . S
C708 C704 1.368 . S
C708 C707 1.523 . S
H709 C684 0.950 . S
H710 C686 0.950 . S
H711 C687 0.949 . S
H712 C689 0.950 . S
H713 C691 0.950 . S
C714 C715 1.349 . S
C714 C716 1.327 . S
C714 H739 0.950 . S
C715 C714 1.349 . S
C715 C731 1.349 . S
C716 C714 1.327 . S
C716 C735 1.429 . S
C716 H740 0.950 . S
C717 C734 1.526 1_556 S
C717 C736 1.368 . S
C717 H741 0.949 . S
H718 C722 0.938 1_554 S
C719 C720 1.349 . S
C719 C721 1.327 . S
C719 H742 0.950 . S
C720 C719 1.349 . S
C720 C732 1.349 . S
C721 C719 1.327 . S
C721 C737 1.429 . S
C721 H743 0.950 . S
C722 H718 0.938 1_556 S
C722 C730 1.591 . S
C722 C738 1.363 1_556 S
H723 C731 0.950 . S
H724 C729 0.950 . S
H725 C730 0.949 . S
H726 C732 0.950 . S
H727 C733 0.950 . S
H728 C734 0.973 . S
C729 H724 0.950 . S
C729 C731 1.327 . S
C729 C735 1.429 . S
C730 C722 1.591 . S
C730 H725 0.949 . S
C730 C736 1.368 . S
C731 C715 1.349 . S
C731 H723 0.950 . S
C731 C729 1.327 . S
C732 C720 1.349 . S
C732 H726 0.950 . S
C732 C733 1.327 . S
C733 H727 0.950 . S
C733 C732 1.327 . S
C733 C737 1.429 . S
C734 C717 1.526 1_554 S
C734 H728 0.973 . S
C734 C738 1.391 . S
C735 C716 1.429 . S
C735 C729 1.429 . S
C735 C736 1.523 . S
C736 C717 1.368 . S
C736 C730 1.368 . S
C736 C735 1.523 . S
C737 C721 1.429 . S
C737 C733 1.429 . S
C737 C738 1.523 . S
C738 C722 1.363 1_554 S
C738 C734 1.391 . S
C738 C737 1.523 . S
H739 C714 0.950 . S
H740 C716 0.950 . S
H741 C717 0.949 . S
H742 C719 0.950 . S
H743 C721 0.950 . S
C744 C745 1.349 . S
C744 C746 1.327 . S
C744 H769 0.950 . S
C745 C744 1.349 . S
C745 C761 1.349 . S
C746 C744 1.327 . S
C746 C765 1.429 . S
C746 H770 0.950 . S
C747 C764 1.574 . S
C747 C766 1.368 . S
C747 H771 0.949 . S
H748 C752 0.949 . S
C749 C750 1.349 . S
C749 C751 1.327 . S
C749 H772 0.950 . S
C750 C749 1.349 . S
C750 C762 1.349 . S
C751 C749 1.327 . S
C751 C767 1.429 . S
C751 H773 0.950 . S
C752 H748 0.949 . S
C752 C760 1.574 . S
C752 C768 1.368 . S
H753 C761 0.950 . S
H754 C759 0.950 . S
H755 C760 0.949 . S
H756 C762 0.950 . S
H757 C763 0.950 . S
H758 C764 0.949 . S
C759 H754 0.950 . S
C759 C761 1.327 . S
C759 C765 1.429 . S
C760 C752 1.574 . S
C760 H755 0.949 . S
C760 C766 1.368 . S
C761 C745 1.349 . S
C761 H753 0.950 . S
C761 C759 1.327 . S
C762 C750 1.349 . S
C762 H756 0.950 . S
C762 C763 1.327 . S
C763 H757 0.950 . S
C763 C762 1.327 . S
C763 C767 1.429 . S
C764 C747 1.574 . S
C764 H758 0.949 . S
C764 C768 1.368 . S
C765 C746 1.429 . S
C765 C759 1.429 . S
C765 C766 1.523 . S
C766 C747 1.368 . S
C766 C760 1.368 . S
C766 C765 1.523 . S
C767 C751 1.429 . S
C767 C763 1.429 . S
C767 C768 1.523 . S
C768 C752 1.368 . S
C768 C764 1.368 . S
C768 C767 1.523 . S
H769 C744 0.950 . S
H770 C746 0.950 . S
H771 C747 0.949 . S
H772 C749 0.950 . S
H773 C751 0.950 . S
C235 C7 0.644 . S
C240 C226 0.675 . S
C265 C51 1.993 . S
C270 C188 1.926 . S
C295 C87 1.276 . S
C300 C207 1.222 . S
C325 C16 0.186 . S
C330 C221 0.209 . S
C360 C183 1.848 . S
C355 C42 1.875 . S
C390 C202 1.089 . S
C385 C96 1.102 . S
C415 C47 1.333 . S
C420 C150 1.262 . S
C445 C91 3.031 . S
C450 C164 2.999 1_655 S
C475 C2 1.884 . S
C480 C126 1.866 1_565 S
C510 C145 1.078 . S
C505 C56 1.089 . S
C540 C169 3.025 . S
C535 C82 3.085 . S
C565 C11 1.999 . S
C570 C131 1.938 . S
C600 C160 1.708 . S
C595 C19 1.696 . S
C625 C50 1.486 . S
C630 C122 1.538 . S
C655 C99 1.566 . S
C660 C141 1.576 . S
C690 C198 1.570 . S
C685 C59 1.577 . S
C720 C217 1.404 . S
C715 C90 1.380 . S
C745 C10 1.456 . S
C750 C179 1.494 . S
