# Generated by pormake.
# Topology pth, (4,4)-cn, num edge types: 1
# Building blocks:
#     Node 0, Type 0, BuildingBlock: TATPOV_clean_sbu_0, # of connection points: 4
#     Node 1, Type 0, BuildingBlock: TATPOV_clean_sbu_0, # of connection points: 4
#     Node 2, Type 0, BuildingBlock: TATPOV_clean_sbu_0, # of connection points: 4
#     Node 3, Type 1, BuildingBlock: NAWXER_clean_linker_0, # of connection points: 4
#     Node 4, Type 1, BuildingBlock: NAWXER_clean_linker_0, # of connection points: 4
#     Node 5, Type 1, BuildingBlock: NAWXER_clean_linker_0, # of connection points: 4
#     Edge 6, Type (0, 1), BuildingBlock: FUNLAD_clean_linker_0, # of connection points: 2
#     Edge 7, Type (0, 1), BuildingBlock: FUNLAD_clean_linker_0, # of connection points: 2
#     Edge 8, Type (0, 1), BuildingBlock: FUNLAD_clean_linker_0, # of connection points: 2
#     Edge 9, Type (0, 1), BuildingBlock: FUNLAD_clean_linker_0, # of connection points: 2
#     Edge 10, Type (0, 1), BuildingBlock: FUNLAD_clean_linker_0, # of connection points: 2
#     Edge 11, Type (0, 1), BuildingBlock: FUNLAD_clean_linker_0, # of connection points: 2
#     Edge 12, Type (0, 1), BuildingBlock: FUNLAD_clean_linker_0, # of connection points: 2
#     Edge 13, Type (0, 1), BuildingBlock: FUNLAD_clean_linker_0, # of connection points: 2
#     Edge 14, Type (0, 1), BuildingBlock: FUNLAD_clean_linker_0, # of connection points: 2
#     Edge 15, Type (0, 1), BuildingBlock: FUNLAD_clean_linker_0, # of connection points: 2
#     Edge 16, Type (0, 1), BuildingBlock: FUNLAD_clean_linker_0, # of connection points: 2
#     Edge 17, Type (0, 1), BuildingBlock: FUNLAD_clean_linker_0, # of connection points: 2
# Relax obj value: 0.037
# Max RMSD: 0.160
# Mean RMSD: 0.080
data_MOF--net-pth--node1-TATPOV_clean_sbu_0--node2-NAWXER_clean_linker_0--edge1-FUNLAD_clean_linker_0
_symmetry_space_group_name_H-M    P1
_symmetry_Int_Tables_number       1
_symmetry_cell_setting            triclinic
loop_
_symmetry_equiv_pos_as_xyz
'x, y, z'
_cell_length_a     33.134765
_cell_length_b     32.817945
_cell_length_c     72.989665
_cell_angle_alpha  92.604564
_cell_angle_beta   92.136362
_cell_angle_gamma 120.9258
loop_
_atom_site_label
_atom_site_type_symbol
_atom_site_fract_x
_atom_site_fract_y
_atom_site_fract_z
_atom_type_partial_charge
Zn0 Zn 0.14303 0.01841 0.03637 0.0
Zn1 Zn 0.09335 0.05447 0.05128 0.0
O2 O 0.10134 0.01741 0.07174 0.0
O3 O 0.14425 0.99024 0.06026 0.0
O4 O 0.06473 0.08922 0.06341 0.0
O5 O 0.19541 0.0836 0.03055 0.0
O6 O 0.15181 0.11047 0.04145 0.0
C7 C 0.12184 0.99371 0.07333 0.0
C8 C 0.04856 0.98236 0.01856 0.0
O9 O 0.04556 0.00973 0.03067 0.0
O10 O 0.08577 0.98035 0.01818 0.0
C11 C 0.03892 0.07595 0.07694 0.0
O12 O 0.02677 0.03482 0.08347 0.0
C13 C 0.18866 0.11776 0.03383 0.0
Zn14 Zn 0.13834 0.10215 0.36167 0.0
Zn15 Zn 0.06179 0.07298 0.38122 0.0
O16 O 0.11519 0.08659 0.40042 0.0
O17 O 0.1784 0.112 0.38485 0.0
O18 O 0.00748 0.05854 0.39662 0.0
O19 O 0.1321 0.15568 0.35235 0.0
O20 O 0.06733 0.12816 0.36705 0.0
C21 C 0.15902 0.10156 0.39994 0.0
C22 C 0.06041 0.00462 0.35165 0.0
O23 O 0.03986 0.01271 0.36448 0.0
O24 O 0.10143 0.03663 0.34794 0.0
C25 C -0.00279 0.03307 0.41026 0.0
O26 O 0.02173 0.01308 0.41433 0.0
C27 C 0.09627 0.15755 0.35644 0.0
Zn28 Zn 0.08411 0.94649 0.7388 0.0
Zn29 Zn 0.04078 0.98217 0.71871 0.0
O30 O 0.08374 0.97564 0.70061 0.0
O31 O 0.11787 0.94473 0.71653 0.0
O32 O 0.00163 0.00066 0.70341 0.0
O33 O 0.02174 0.8897 0.74436 0.0
O34 O 0.98806 0.92137 0.72876 0.0
C35 C 0.11215 0.9604 0.70172 0.0
C36 C 0.10392 0.04066 0.75253 0.0
O37 O 0.0773 0.03674 0.73866 0.0
O38 O 0.11179 0.00746 0.75543 0.0
C39 C 0.01245 0.02157 0.68858 0.0
O40 O 0.05406 0.03556 0.68244 0.0
C41 C 0.98478 0.88863 0.73845 0.0
C42 C 0.9368 0.35053 0.24116 0.0
C43 C 0.97265 0.37036 0.25549 0.0
C44 C 0.92979 0.38017 0.2299 0.0
C45 C 0.95848 0.42991 0.23292 0.0
C46 C 0.0004 0.42009 0.25866 0.0
C47 C 0.99323 0.44948 0.24756 0.0
C48 C 0.95349 0.46284 0.22123 0.0
C49 C -0.00099 0.38045 0.18516 0.0
C50 C 0.96476 0.35243 0.17083 0.0
C51 C -0.0035 0.41615 0.1953 0.0
C52 C 0.95954 0.42429 0.19136 0.0
C53 C 0.92813 0.36113 0.1668 0.0
C54 C 0.92578 0.397 0.1769 0.0
C55 C 0.95648 0.46189 0.20198 0.0
C56 C 0.0313 0.6652 0.19056 0.0
C57 C 0.01088 0.66385 0.17317 0.0
C58 C 0.01447 0.62394 0.19986 0.0
C59 C 0.97634 0.58039 0.19213 0.0
C60 C 0.97277 0.62021 0.16537 0.0
C61 C 0.9559 0.57871 0.17472 0.0
C62 C 0.96044 0.53655 0.20186 0.0
C63 C 0.92161 0.62771 0.23479 0.0
C64 C 0.94665 0.64574 0.25206 0.0
C65 C 0.92289 0.59122 0.22469 0.0
C66 C 0.94973 0.57254 0.23158 0.0
C67 C 0.97218 0.62583 0.25916 0.0
C68 C 0.97353 0.5895 0.24905 0.0
C69 C 0.95304 0.53514 0.22081 0.0
H70 H 0.91488 0.31226 0.23845 0.0
H71 H 0.9022 0.36433 0.21887 0.0
H72 H 0.02771 0.43634 0.2698 0.0
H73 H 0.01556 0.48775 0.25023 0.0
H74 H 0.02751 0.37447 0.18866 0.0
H75 H 0.02344 0.43744 0.2062 0.0
H76 H 0.90164 0.34062 0.15567 0.0
H77 H 0.89731 0.40315 0.17353 0.0
H78 H 0.06048 0.69824 0.197 0.0
H79 H 0.03184 0.62598 0.21304 0.0
H80 H 0.95673 0.61793 0.15186 0.0
H81 H 0.92698 0.54536 0.16838 0.0
H82 H 0.90105 0.64183 0.22909 0.0
H83 H 0.90304 0.57776 0.21148 0.0
H84 H 0.99236 0.63933 0.27231 0.0
H85 H 0.9943 0.57553 0.25471 0.0
N86 N 0.9511 0.49901 0.22982 0.0
N87 N 0.96047 0.49915 0.19301 0.0
C88 C 0.71022 0.07199 0.51907 0.0
C89 C 0.69411 0.03787 0.50399 0.0
C90 C 0.67829 0.07347 0.53069 0.0
C91 C 0.62974 0.04041 0.52759 0.0
C92 C 0.64541 0.00532 0.50081 0.0
C93 C 0.61359 0.00675 0.51244 0.0
C94 C 0.59511 0.0412 0.5396 0.0
C95 C 0.68809 0.00831 0.57473 0.0
C96 C 0.71496 0.04454 0.5887 0.0
C97 C 0.64998 0.0067 0.56508 0.0
C98 C 0.6382 0.04138 0.56919 0.0
C99 C 0.70255 0.07873 0.59294 0.0
C100 C 0.66431 0.07692 0.58336 0.0
C101 C 0.5986 0.04088 0.55895 0.0
C102 C 0.40259 0.98476 0.57665 0.0
C103 C 0.41088 0.01069 0.59363 0.0
C104 C 0.43986 0.99432 0.56581 0.0
C105 C 0.48621 0.0302 0.57166 0.0
C106 C 0.45729 0.04663 0.59948 0.0
C107 C 0.4947 0.056 0.58865 0.0
C108 C 0.52582 0.03883 0.56044 0.0
C109 C 0.44826 0.09392 0.52857 0.0
C110 C 0.42555 0.06817 0.51174 0.0
C111 C 0.47957 0.08496 0.53835 0.0
C112 C 0.48867 0.04996 0.53152 0.0
C113 C 0.43443 0.0329 0.50498 0.0
C114 C 0.46603 0.02418 0.51471 0.0
C115 C 0.52411 0.04256 0.54127 0.0
H116 H 0.74743 0.09813 0.52169 0.0
H117 H 0.69151 0.10069 0.54198 0.0
H118 H 0.63188 0.97832 0.48943 0.0
H119 H 0.57626 0.98109 0.50973 0.0
H120 H 0.69688 0.98155 0.57113 0.0
H121 H 0.62977 0.97846 0.55439 0.0
H122 H 0.7221 0.10659 0.60382 0.0
H123 H 0.65549 0.10374 0.58685 0.0
H124 H 0.36722 0.957 0.57175 0.0
H125 H 0.43249 0.97307 0.55297 0.0
H126 H 0.4648 0.06676 0.61262 0.0
H127 H 0.53024 0.08344 0.59352 0.0
H128 H 0.44201 0.1212 0.53413 0.0
H129 H 0.49747 0.10618 0.55106 0.0
H130 H 0.41794 0.01297 0.49191 0.0
H131 H 0.47294 -0.0026 0.50909 0.0
N132 N 0.55823 0.04253 0.53153 0.0
N133 N 0.56356 0.03922 0.56864 0.0
C134 C 0.37231 0.4072 0.85987 0.0
C135 C 0.34789 0.41638 0.84606 0.0
C136 C 0.41141 0.44467 0.87004 0.0
C137 C 0.42642 0.49209 0.86682 0.0
C138 C 0.36279 0.46389 0.84295 0.0
C139 C 0.4018 0.50137 0.8532 0.0
C140 C 0.47031 0.53194 0.8762 0.0
C141 C 0.37356 0.46112 0.92206 0.0
C142 C 0.39232 0.44281 0.93466 0.0
C143 C 0.40172 0.49154 0.90905 0.0
C144 C 0.44895 0.50389 0.90841 0.0
C145 C 0.43957 0.4552 0.93381 0.0
C146 C 0.46758 0.48563 0.92094 0.0
C147 C 0.48054 0.53735 0.89545 0.0
C148 C 0.66193 0.72771 0.90575 0.0
C149 C 0.68592 0.71728 0.91926 0.0
C150 C 0.61987 0.69126 0.89672 0.0
C151 C 0.60108 0.64391 0.90116 0.0
C152 C 0.66685 0.66992 0.92374 0.0
C153 C 0.62459 0.63364 0.91488 0.0
C154 C 0.55638 0.60497 0.89192 0.0
C155 C 0.66346 0.64726 0.85076 0.0
C156 C 0.6569 0.66889 0.83568 0.0
C157 C 0.62786 0.62437 0.86268 0.0
C158 C 0.58502 0.62305 0.85998 0.0
C159 C 0.61344 0.66634 0.83262 0.0
C160 C 0.57768 0.64338 0.84466 0.0
C161 C 0.54736 0.59799 0.87265 0.0
H162 H 0.36239 0.371 0.86231 0.0
H163 H 0.43082 0.43646 0.87997 0.0
H164 H 0.34456 0.4721 0.83248 0.0
H165 H 0.41314 0.53769 0.85033 0.0
H166 H 0.33745 0.45267 0.92247 0.0
H167 H 0.38687 0.50595 0.89972 0.0
H168 H 0.45495 0.441 0.94299 0.0
H169 H 0.50393 0.49463 0.92067 0.0
H170 H 0.67597 0.76395 0.90205 0.0
H171 H 0.60184 0.70007 0.88638 0.0
H172 H 0.68435 0.66103 0.93427 0.0
H173 H 0.61053 0.5974 0.91859 0.0
H174 H 0.69598 0.6474 0.8532 0.0
H175 H 0.6337 0.60718 0.87394 0.0
H176 H 0.60737 0.68265 0.82111 0.0
H177 H 0.54456 0.64202 0.84215 0.0
N178 N 0.50433 0.56233 0.86552 0.0
N179 N 0.52301 0.57394 0.90253 0.0
C180 C 0.00173 0.09682 0.10223 0.0
C181 C 0.02679 0.10892 0.08628 0.0
C182 C 0.9939 0.12974 0.11186 0.0
C183 C 0.01083 0.17544 0.10566 0.0
C184 C 0.03502 0.18704 0.08954 0.0
C185 C 0.04274 0.15419 0.07991 0.0
C186 C 0.00695 0.21307 0.11616 0.0
C187 C 0.97474 0.20429 0.12852 0.0
C188 C 0.97291 0.24294 0.1392 0.0
C189 C 0.92967 0.23416 0.14531 0.0
C190 C 0.9269 0.26971 0.15548 0.0
C191 C 0.96754 0.31462 0.16 0.0
H192 H 0.04793 0.29544 0.13993 0.0
C193 C 0.01097 0.32315 0.15414 0.0
C194 C 0.01369 0.28775 0.14388 0.0
H195 H 0.04289 0.35742 0.15736 0.0
H196 H 0.98921 0.06236 0.10757 0.0
H197 H 0.97608 0.11969 0.12445 0.0
H198 H 0.04864 0.22199 0.08448 0.0
H199 H 0.0622 0.16479 0.06769 0.0
H200 H 0.03108 0.24964 0.11312 0.0
H201 H 0.94753 0.16784 0.1304 0.0
H202 H 0.89785 0.19979 0.1421 0.0
H203 H 0.89304 0.26183 0.16003 0.0
C204 C 0.93626 0.05302 0.41837 0.0
C205 C 0.96006 0.02879 0.4221 0.0
C206 C 0.90297 0.05123 0.43002 0.0
C207 C 0.89227 0.02469 0.44561 0.0
C208 C 0.91593 0.00034 0.44928 0.0
C209 C 0.94934 0.00219 0.43763 0.0
C210 C 0.85853 0.02355 0.45879 0.0
C211 C 0.82435 0.03281 0.4543 0.0
C212 C 0.7914 0.03323 0.4675 0.0
C213 C 0.74867 0.02769 0.46053 0.0
C214 C 0.71714 0.02909 0.47235 0.0
C215 C 0.72779 0.03646 0.49147 0.0
H216 H 0.83546 0.04693 0.49259 0.0
C217 C 0.77079 0.04254 0.49848 0.0
C218 C 0.80233 0.04105 0.48665 0.0
H219 H 0.77996 0.04813 0.51315 0.0
H220 H 0.94397 0.07423 0.40662 0.0
H221 H 0.88686 0.07185 0.42695 0.0
H222 H 0.90872 0.97994 0.46126 0.0
H223 H 0.96716 0.98326 0.44095 0.0
H224 H 0.86127 0.01321 0.47249 0.0
H225 H 0.81881 0.03872 0.44015 0.0
H226 H 0.73957 0.02225 0.44584 0.0
H227 H 0.68469 0.02508 0.46647 0.0
C228 C 0.93502 0.81887 0.75658 0.0
C229 C 0.93832 0.85247 0.74451 0.0
C230 C 0.89284 0.78964 0.76458 0.0
C231 C 0.85309 0.79357 0.76076 0.0
C232 C 0.85532 0.82456 0.74768 0.0
C233 C 0.8976 0.85394 0.73968 0.0
C234 C 0.8098 0.76754 0.77085 0.0
C235 C 0.8119 0.75895 0.78864 0.0
C236 C 0.77072 0.73698 0.80008 0.0
C237 C 0.7794 0.74354 0.81926 0.0
C238 C 0.74237 0.72241 0.83073 0.0
C239 C 0.6956 0.69374 0.8233 0.0
H240 H 0.71564 0.70202 0.77786 0.0
C241 C 0.68661 0.68759 0.80409 0.0
C242 C 0.72381 0.70885 0.79256 0.0
H243 H 0.65097 0.66516 0.79797 0.0
H244 H 0.96547 0.81625 0.76038 0.0
H245 H 0.89178 0.76472 0.77406 0.0
H246 H 0.82497 0.82771 0.74429 0.0
H247 H 0.89878 0.8791 0.73029 0.0
H248 H 0.77662 0.75967 0.76405 0.0
H249 H 0.84619 0.77131 0.79564 0.0
H250 H 0.8151 0.76506 0.82545 0.0
H251 H 0.75043 0.72842 0.84548 0.0
C252 C 0.13486 0.93664 0.09045 0.0
C253 C 0.11432 0.96482 0.0893 0.0
C254 C 0.12169 0.90307 0.10354 0.0
C255 C 0.08788 0.89715 0.11596 0.0
C256 C 0.06902 0.9269 0.11536 0.0
C257 C 0.0822 0.96052 0.10224 0.0
C258 C 0.06833 0.85766 0.12845 0.0
C259 C 0.09021 0.83426 0.13326 0.0
C260 C 0.06857 0.79145 0.14401 0.0
C261 C 0.0983 0.77933 0.15333 0.0
C262 C 0.07954 0.73811 0.16282 0.0
C263 C 0.03046 0.70768 0.16307 0.0
H264 H 0.99519 0.76813 0.1367 0.0
C265 C 0.00057 0.71948 0.15363 0.0
C266 C 0.01937 0.76091 0.14418 0.0
H267 H 0.96261 0.69678 0.1536 0.0
H268 H 0.1596 0.93886 0.08067 0.0
H269 H 0.13644 0.88037 0.10312 0.0
H270 H 0.04285 0.92311 0.12471 0.0
H271 H 0.0656 0.98157 0.10173 0.0
H272 H 0.03447 0.84751 0.13375 0.0
H273 H 0.12592 0.84712 0.12946 0.0
H274 H 0.13627 0.80175 0.15321 0.0
H275 H 0.10355 0.72963 0.1697 0.0
C276 C 0.23575 0.12339 0.41646 0.0
C277 C 0.18667 0.10288 0.4166 0.0
C278 C 0.2614 0.11974 0.43124 0.0
C279 C 0.23852 0.09551 0.44655 0.0
C280 C 0.18968 0.07618 0.44692 0.0
C281 C 0.16402 0.08014 0.43217 0.0
C282 C 0.26384 0.086 0.4614 0.0
C283 C 0.31058 0.11385 0.46564 0.0
C284 C 0.33728 0.10123 0.47864 0.0
C285 C 0.38029 0.13774 0.48722 0.0
C286 C 0.40834 0.12703 0.49833 0.0
C287 C 0.39427 0.07944 0.50087 0.0
H288 H 0.29053 0.02437 0.47463 0.0
C289 C 0.35107 0.04284 0.49241 0.0
C290 C 0.32279 0.05357 0.48141 0.0
H291 H 0.33931 0.00585 0.49417 0.0
H292 H 0.25428 0.14104 0.40466 0.0
H293 H 0.29872 0.13402 0.43015 0.0
H294 H 0.17115 0.05704 0.45848 0.0
H295 H 0.1262 0.06374 0.43268 0.0
H296 H 0.24315 0.05483 0.46897 0.0
H297 H 0.33041 0.14747 0.45939 0.0
H298 H 0.39255 0.1747 0.48512 0.0
H299 H 0.44176 0.15598 0.50448 0.0
C300 C 0.12161 0.12326 0.76197 0.0
C301 C 0.126 0.08386 0.76544 0.0
C302 C 0.14355 0.16421 0.77413 0.0
C303 C 0.17036 0.16646 0.79 0.0
C304 C 0.17365 0.12663 0.79364 0.0
C305 C 0.152 0.08596 0.78149 0.0
C306 C 0.19569 0.20934 0.80314 0.0
C307 C 0.20998 0.2539 0.79863 0.0
C308 C 0.24152 0.29659 0.81125 0.0
C309 C 0.273 0.33937 0.80372 0.0
C310 C 0.30655 0.37883 0.81506 0.0
C311 C 0.30904 0.3764 0.83422 0.0
H312 H 0.21727 0.26334 0.83688 0.0
C313 C 0.27582 0.33445 0.84184 0.0
C314 C 0.24223 0.29502 0.8305 0.0
H315 H 0.27614 0.33192 0.85659 0.0
H316 H 0.10145 0.12261 0.74981 0.0
H317 H 0.13904 0.19365 0.7711 0.0
H318 H 0.19376 0.12719 0.8058 0.0
H319 H 0.15585 0.05618 0.7847 0.0
H320 H 0.20682 0.2042 0.81658 0.0
H321 H 0.20279 0.25985 0.78468 0.0
H322 H 0.27293 0.34171 0.78896 0.0
H323 H 0.33178 0.41055 0.80875 0.0
C324 C 0.98659 0.04661 0.66062 0.0
C325 C 0.97655 0.02596 0.67757 0.0
C326 C 0.9514 0.04748 0.64971 0.0
C327 C 0.90543 0.02776 0.65559 0.0
C328 C 0.89571 0.00772 0.67262 0.0
C329 C 0.93083 0.00703 0.68353 0.0
C330 C 0.86602 0.02494 0.64406 0.0
C331 C 0.87193 0.05427 0.63074 0.0
C332 C 0.83155 0.05072 0.61966 0.0
C333 C 0.83589 0.09203 0.61288 0.0
C334 C 0.79814 0.09004 0.60278 0.0
C335 C 0.75547 0.04647 0.59899 0.0
H336 H 0.78504 0.97408 0.62002 0.0
C337 C 0.75159 0.00487 0.6053 0.0
C338 C 0.78919 0.00692 0.61552 0.0
H339 H 0.71916 0.97079 0.60261 0.0
H340 H 0.02137 0.06122 0.65557 0.0
H341 H 0.96008 0.06223 0.63648 0.0
H342 H 0.86062 0.9921 0.67747 0.0
H343 H 0.92175 0.99073 0.69649 0.0
H344 H 0.83046 -0.00125 0.64728 0.0
H345 H 0.907 0.08357 0.62858 0.0
H346 H 0.86832 0.1261 0.61566 0.0
H347 H 0.80243 0.12258 0.59785 0.0
C348 C 0.96794 0.95549 0.0041 0.0
C349 C 0.00814 0.95137 0.00522 0.0
C350 C 0.92917 0.92466 0.99195 0.0
C351 C 0.92992 0.88906 0.98072 0.0
C352 C 0.97011 0.88514 0.98183 0.0
C353 C 0.00891 0.91612 0.99382 0.0
C354 C 0.88862 0.85343 0.96856 0.0
C355 C 0.85627 0.86187 0.96087 0.0
C356 C 0.81399 0.82532 0.94921 0.0
C357 C 0.7757 0.83209 0.94646 0.0
C358 C 0.73439 0.79756 0.93637 0.0
C359 C 0.73058 0.75548 0.92885 0.0
H360 H 0.83985 0.77797 0.94187 0.0
C361 C 0.76933 0.74935 0.93101 0.0
C362 C 0.81074 0.78399 0.94091 0.0
H363 H 0.76763 0.71767 0.92497 0.0
H364 H 0.96616 0.98212 0.01277 0.0
H365 H 0.8983 0.92793 0.99185 0.0
H366 H 0.97143 0.8578 0.97344 0.0
H367 H 0.03919 0.91176 0.99436 0.0
H368 H 0.88544 0.81909 0.96597 0.0
H369 H 0.86004 0.89652 0.96355 0.0
H370 H 0.77732 0.86374 0.95248 0.0
H371 H 0.70496 0.80313 0.9349 0.0
C372 C 0.05776 0.9512 0.32556 0.0
C373 C 0.03672 0.95799 0.34084 0.0
C374 C 0.03624 0.90739 0.31534 0.0
C375 C 0.99293 0.86921 0.32009 0.0
C376 C 0.97201 0.87573 0.33545 0.0
C377 C 0.99349 0.91983 0.34566 0.0
C378 C 0.97088 0.82158 0.30998 0.0
C379 C 0.97704 0.81602 0.29209 0.0
C380 C 0.96252 0.76952 0.28214 0.0
C381 C 0.96226 0.76713 0.26288 0.0
C382 C 0.95514 0.7262 0.25304 0.0
C383 C 0.94837 0.68677 0.26229 0.0
H384 H 0.95468 0.72975 0.30619 0.0
C385 C 0.94676 0.68837 0.28151 0.0
C386 C 0.95389 0.72931 0.29136 0.0
H387 H 0.94115 0.65833 0.289 0.0
H388 H 0.09119 0.97969 0.32151 0.0
H389 H 0.05441 0.90332 0.30403 0.0
H390 H 0.939 0.84667 0.33955 0.0
H391 H 0.97648 0.92383 0.35742 0.0
H392 H 0.94935 0.79073 0.31755 0.0
H393 H 0.99474 0.84735 0.28432 0.0
H394 H 0.96916 0.79764 0.25542 0.0
H395 H 0.95712 0.72632 0.23826 0.0
C396 C 0.17056 0.94479 0.68715 0.0
C397 C 0.14134 0.96414 0.68625 0.0
C398 C 0.20166 0.9521 0.67356 0.0
C399 C 0.20418 0.97884 0.65864 0.0
C400 C 0.17441 -0.00252 0.65756 0.0
C401 C 0.14305 0.98995 0.67114 0.0
C402 C 0.23975 0.99069 0.64482 0.0
C403 C 0.25824 0.96344 0.64078 0.0
C404 C 0.29641 0.9767 0.62808 0.0
C405 C 0.3011 0.94047 0.61939 0.0
C406 C 0.3379 0.95153 0.60806 0.0
C407 C 0.37131 -0.0008 0.60538 0.0
H408 H 0.32817 0.05347 0.63226 0.0
C409 C 0.3669 0.03557 0.61416 0.0
C410 C 0.3298 0.02449 0.62538 0.0
H411 H 0.39209 0.07262 0.61232 0.0
H412 H 0.17036 0.92494 0.69864 0.0
H413 H 0.22489 0.93826 0.67523 0.0
H414 H 0.17587 0.0185 0.6463 0.0
H415 H 0.12122 0.00558 0.67007 0.0
H416 H 0.25036 0.02252 0.63759 0.0
H417 H 0.24422 0.92926 0.64664 0.0
H418 H 0.27626 0.90343 0.62142 0.0
H419 H 0.34076 0.92274 0.60169 0.0
C420 C 0.20612 0.19785 0.02513 0.0
C421 C 0.22078 0.16482 0.02697 0.0
C422 C 0.23336 0.23942 0.01627 0.0
C423 C 0.27602 0.24894 0.00922 0.0
C424 C 0.29209 0.21749 0.01207 0.0
C425 C 0.26453 0.17555 0.02069 0.0
C426 C 0.30384 0.29059 -0.00159 0.0
C427 C 0.28342 0.3067 0.98684 0.0
C428 C 0.31071 0.3441 0.9742 0.0
C429 C 0.28983 0.3421 0.95683 0.0
C430 C 0.31584 0.37476 0.94409 0.0
C431 C 0.36312 0.41051 0.9486 0.0
H432 H 0.3739 0.38465 0.99253 0.0
C433 C 0.38312 0.41393 0.96638 0.0
C434 C 0.35729 0.38106 0.97902 0.0
H435 H 0.41899 0.4419 0.97051 0.0
H436 H 0.1727 0.19079 0.02991 0.0
H437 H 0.2207 0.26372 0.01476 0.0
H438 H 0.32515 0.22439 0.00695 0.0
H439 H 0.27697 0.15101 0.02201 0.0
H440 H 0.34161 0.30498 -0.00145 0.0
H441 H 0.24519 0.28882 0.98525 0.0
H442 H 0.25381 0.31417 0.95286 0.0
H443 H 0.29937 0.37094 0.93052 0.0
C444 C 0.04009 0.18346 0.34672 0.0
C445 C 0.08594 0.19103 0.3475 0.0
C446 C 0.029 0.21158 0.33631 0.0
C447 C 0.06372 0.24805 0.32663 0.0
C448 C 0.11003 0.25722 0.32824 0.0
C449 C 0.12098 0.22873 0.33841 0.0
C450 C 0.05308 0.277 0.31459 0.0
C451 C 0.01125 0.25971 0.30498 0.0
C452 C 0.0019 0.28748 0.29172 0.0
C453 C 0.9551 0.27482 0.28714 0.0
C454 C 0.9452 0.30085 0.27498 0.0
C455 C 0.98203 0.33997 0.26716 0.0
H456 H 0.07485 0.33501 0.28556 0.0
C457 C 0.02864 0.35144 0.27116 0.0
C458 C 0.0385 0.3254 0.2832 0.0
H459 H 0.05762 0.38071 0.26495 0.0
H460 H 0.01236 0.1548 0.35363 0.0
H461 H 0.99327 0.20456 0.33584 0.0
H462 H 0.13753 0.28551 0.3211 0.0
H463 H 0.15671 0.2357 0.33886 0.0
H464 H 0.08181 0.31289 0.31295 0.0
H465 H 0.98265 0.22377 0.30675 0.0
H466 H 0.92617 0.2453 0.29326 0.0
H467 H 0.90893 0.29124 0.27212 0.0
loop_
_geom_bond_atom_site_label_1
_geom_bond_atom_site_label_2
_geom_bond_distance
_geom_bond_site_symmetry_2
_ccdc_geom_bond_type
Zn0 O3 2.031 1_545 S
Zn0 O5 2.049 . S
Zn0 O10 2.067 1_545 S
Zn1 O2 1.962 . S
Zn1 O4 1.986 . S
Zn1 O6 1.996 . S
Zn1 O9 1.943 . S
O2 Zn1 1.962 . S
O2 C7 1.254 1_545 S
O3 Zn0 2.031 1_565 S
O3 C7 1.269 . S
O4 Zn1 1.986 . S
O4 C11 1.262 . S
O5 Zn0 2.049 . S
O5 C13 1.260 . S
O6 Zn1 1.996 . S
O6 C13 1.257 . S
C7 O2 1.254 1_565 S
C7 O3 1.269 . S
C8 O9 1.249 1_565 S
C8 O10 1.270 . S
O9 Zn1 1.943 . S
O9 C8 1.249 1_545 S
O10 Zn0 2.067 1_565 S
O10 C8 1.270 . S
C11 O4 1.262 . S
C11 O12 1.232 . S
O12 C11 1.232 . S
C13 O5 1.260 . S
C13 O6 1.257 . S
Zn14 O17 2.031 . S
Zn14 O19 2.049 . S
Zn14 O24 2.067 . S
Zn15 O16 1.962 . S
Zn15 O18 1.986 1_455 S
Zn15 O20 1.996 . S
Zn15 O23 1.943 1_455 S
O16 Zn15 1.962 . S
O16 C21 1.254 . S
O17 Zn14 2.031 . S
O17 C21 1.269 . S
O18 Zn15 1.986 1_655 S
O18 C25 1.262 . S
O19 Zn14 2.049 . S
O19 C27 1.260 . S
O20 Zn15 1.996 . S
O20 C27 1.257 . S
C21 O16 1.254 . S
C21 O17 1.269 . S
C22 O23 1.249 1_455 S
C22 O24 1.270 . S
O23 Zn15 1.943 1_655 S
O23 C22 1.249 1_655 S
O24 Zn14 2.067 . S
O24 C22 1.270 . S
C25 O18 1.262 . S
C25 O26 1.232 . S
O26 C25 1.232 . S
C27 O19 1.260 . S
C27 O20 1.257 . S
Zn28 O31 2.031 1_565 S
Zn28 O33 2.049 . S
Zn28 O38 2.067 1_565 S
Zn29 O30 1.962 1_545 S
Zn29 O32 1.986 1_445 S
Zn29 O34 1.996 1_445 S
Zn29 O37 1.943 . S
O30 Zn29 1.962 1_565 S
O30 C35 1.254 . S
O31 Zn28 2.031 1_545 S
O31 C35 1.269 1_545 S
O32 Zn29 1.986 1_665 S
O32 C39 1.262 1_565 S
O33 Zn28 2.049 . S
O33 C41 1.260 1_455 S
O34 Zn29 1.996 1_665 S
O34 C41 1.257 . S
C35 O30 1.254 . S
C35 O31 1.269 1_565 S
C36 O37 1.249 . S
C36 O38 1.270 . S
O37 Zn29 1.943 . S
O37 C36 1.249 . S
O38 Zn28 2.067 1_545 S
O38 C36 1.270 . S
C39 O32 1.262 1_545 S
C39 O40 1.232 1_655 S
O40 C39 1.232 1_455 S
C41 O33 1.260 1_655 S
C41 O34 1.257 . S
C42 C43 1.384 . S
C42 C44 1.384 . S
C42 H70 0.931 1_455 S
C43 C42 1.384 . S
C43 C46 1.382 . S
C44 C42 1.384 . S
C44 C45 1.381 . S
C44 H71 0.930 1_455 S
C45 C44 1.381 . S
C45 C47 1.381 . S
C45 C48 1.487 . S
C46 C43 1.382 . S
C46 C47 1.387 . S
C46 H72 0.930 . S
C47 C45 1.381 . S
C47 C46 1.387 . S
C47 H73 0.931 . S
C48 C45 1.487 . S
C48 C55 1.399 . S
C48 N86 1.343 . S
C49 C50 1.384 . S
C49 C51 1.384 . S
C49 H74 0.931 . S
C50 C49 1.384 . S
C50 C53 1.382 . S
C51 C49 1.384 . S
C51 C52 1.381 . S
C51 H75 0.930 . S
C52 C51 1.381 . S
C52 C54 1.381 . S
C52 C55 1.487 . S
C53 C50 1.382 . S
C53 C54 1.387 . S
C53 H76 0.930 1_455 S
C54 C52 1.381 . S
C54 C53 1.387 . S
C54 H77 0.931 1_455 S
C55 C48 1.399 . S
C55 C52 1.487 . S
C55 N87 1.343 . S
C56 C57 1.384 . S
C56 C58 1.384 . S
C56 H78 0.931 . S
C57 C56 1.384 . S
C57 C60 1.382 . S
C58 C56 1.384 . S
C58 C59 1.381 . S
C58 H79 0.930 . S
C59 C58 1.381 . S
C59 C61 1.381 . S
C59 C62 1.487 . S
C60 C57 1.382 . S
C60 C61 1.387 . S
C60 H80 0.930 1_455 S
C61 C59 1.381 . S
C61 C60 1.387 . S
C61 H81 0.931 1_455 S
C62 C59 1.487 . S
C62 C69 1.399 . S
C62 N87 1.343 . S
C63 C64 1.384 . S
C63 C65 1.384 . S
C63 H82 0.931 1_455 S
C64 C63 1.384 . S
C64 C67 1.382 . S
C65 C63 1.384 . S
C65 C66 1.381 . S
C65 H83 0.930 1_455 S
C66 C65 1.381 . S
C66 C68 1.381 . S
C66 C69 1.487 . S
C67 C64 1.382 . S
C67 C68 1.387 . S
C67 H84 0.930 . S
C68 C66 1.381 . S
C68 C67 1.387 . S
C68 H85 0.931 . S
C69 C62 1.399 . S
C69 C66 1.487 . S
C69 N86 1.343 . S
H70 C42 0.931 1_655 S
H71 C44 0.930 1_655 S
H72 C46 0.930 . S
H73 C47 0.931 . S
H74 C49 0.931 . S
H75 C51 0.930 . S
H76 C53 0.930 1_655 S
H77 C54 0.931 1_655 S
H78 C56 0.931 . S
H79 C58 0.930 . S
H80 C60 0.930 1_655 S
H81 C61 0.931 1_655 S
H82 C63 0.931 1_655 S
H83 C65 0.930 1_655 S
H84 C67 0.930 . S
H85 C68 0.931 . S
N86 C48 1.343 . S
N86 C69 1.343 . S
N87 C55 1.343 . S
N87 C62 1.343 . S
C88 C89 1.384 . S
C88 C90 1.384 . S
C88 H116 0.931 . S
C89 C88 1.384 . S
C89 C92 1.382 . S
C90 C88 1.384 . S
C90 C91 1.381 . S
C90 H117 0.930 . S
C91 C90 1.381 . S
C91 C93 1.381 . S
C91 C94 1.487 . S
C92 C89 1.382 . S
C92 C93 1.387 . S
C92 H118 0.930 1_545 S
C93 C91 1.381 . S
C93 C92 1.387 . S
C93 H119 0.931 1_545 S
C94 C91 1.487 . S
C94 C101 1.399 . S
C94 N132 1.343 . S
C95 C96 1.389 . S
C95 C97 1.390 . S
C95 H120 0.920 1_545 S
C96 C95 1.389 . S
C96 C99 1.382 . S
C97 C95 1.390 . S
C97 C98 1.381 . S
C97 H121 0.930 1_545 S
C98 C97 1.381 . S
C98 C100 1.381 . S
C98 C101 1.487 . S
C99 C96 1.382 . S
C99 C100 1.387 . S
C99 H122 0.930 . S
C100 C98 1.381 . S
C100 C99 1.387 . S
C100 H123 0.931 . S
C101 C94 1.399 . S
C101 C98 1.487 . S
C101 N133 1.343 . S
C102 C103 1.390 . S
C102 C104 1.381 . S
C102 H124 0.929 1_545 S
C103 C102 1.390 . S
C103 C106 1.382 . S
C104 C102 1.381 . S
C104 C105 1.381 . S
C104 H125 0.930 1_545 S
C105 C104 1.381 . S
C105 C107 1.381 . S
C105 C108 1.487 . S
C106 C103 1.382 . S
C106 C107 1.387 . S
C106 H126 0.930 . S
C107 C105 1.381 . S
C107 C106 1.387 . S
C107 H127 0.931 . S
C108 C105 1.487 . S
C108 C115 1.399 . S
C108 N133 1.343 . S
C109 C110 1.384 . S
C109 C111 1.384 . S
C109 H128 0.931 . S
C110 C109 1.384 . S
C110 C113 1.382 . S
C111 C109 1.384 . S
C111 C112 1.381 . S
C111 H129 0.930 . S
C112 C111 1.381 . S
C112 C114 1.381 . S
C112 C115 1.487 . S
C113 C110 1.382 . S
C113 C114 1.387 . S
C113 H130 0.930 1_545 S
C114 C112 1.381 . S
C114 C113 1.387 . S
C114 H131 0.931 1_545 S
C115 C108 1.399 . S
C115 C112 1.487 . S
C115 N132 1.343 . S
H116 C88 0.931 . S
H117 C90 0.930 . S
H118 C92 0.930 1_565 S
H119 C93 0.931 1_565 S
H120 C95 0.920 1_565 S
H121 C97 0.930 1_565 S
H122 C99 0.930 . S
H123 C100 0.931 . S
H124 C102 0.929 1_565 S
H125 C104 0.930 1_565 S
H126 C106 0.930 . S
H127 C107 0.931 . S
H128 C109 0.931 . S
H129 C111 0.930 . S
H130 C113 0.930 1_565 S
H131 C114 0.931 1_565 S
N132 C94 1.343 . S
N132 C115 1.343 . S
N133 C101 1.343 . S
N133 C108 1.343 . S
C134 C135 1.384 . S
C134 C136 1.384 . S
C134 H162 0.931 . S
C135 C134 1.384 . S
C135 C138 1.382 . S
C136 C134 1.384 . S
C136 C137 1.381 . S
C136 H163 0.930 . S
C137 C136 1.381 . S
C137 C139 1.381 . S
C137 C140 1.487 . S
C138 C135 1.382 . S
C138 C139 1.387 . S
C138 H164 0.930 . S
C139 C137 1.381 . S
C139 C138 1.387 . S
C139 H165 0.931 . S
C140 C137 1.487 . S
C140 C147 1.399 . S
C140 N178 1.343 . S
C141 C142 1.384 . S
C141 C143 1.384 . S
C141 H166 0.931 . S
C142 C141 1.384 . S
C142 C145 1.382 . S
C143 C141 1.384 . S
C143 C144 1.381 . S
C143 H167 0.930 . S
C144 C143 1.381 . S
C144 C146 1.381 . S
C144 C147 1.487 . S
C145 C142 1.382 . S
C145 C146 1.387 . S
C145 H168 0.930 . S
C146 C144 1.381 . S
C146 C145 1.387 . S
C146 H169 0.931 . S
C147 C140 1.399 . S
C147 C144 1.487 . S
C147 N179 1.343 . S
C148 C149 1.384 . S
C148 C150 1.384 . S
C148 H170 0.931 . S
C149 C148 1.384 . S
C149 C152 1.382 . S
C150 C148 1.384 . S
C150 C151 1.381 . S
C150 H171 0.930 . S
C151 C150 1.381 . S
C151 C153 1.381 . S
C151 C154 1.487 . S
C152 C149 1.382 . S
C152 C153 1.387 . S
C152 H172 0.930 . S
C153 C151 1.381 . S
C153 C152 1.387 . S
C153 H173 0.931 . S
C154 C151 1.487 . S
C154 C161 1.399 . S
C154 N179 1.343 . S
C155 C156 1.384 . S
C155 C157 1.384 . S
C155 H174 0.931 . S
C156 C155 1.384 . S
C156 C159 1.382 . S
C157 C155 1.384 . S
C157 C158 1.381 . S
C157 H175 0.930 . S
C158 C157 1.381 . S
C158 C160 1.381 . S
C158 C161 1.487 . S
C159 C156 1.382 . S
C159 C160 1.387 . S
C159 H176 0.930 . S
C160 C158 1.381 . S
C160 C159 1.387 . S
C160 H177 0.931 . S
C161 C154 1.399 . S
C161 C158 1.487 . S
C161 N178 1.343 . S
H162 C134 0.931 . S
H163 C136 0.930 . S
H164 C138 0.930 . S
H165 C139 0.931 . S
H166 C141 0.931 . S
H167 C143 0.930 . S
H168 C145 0.930 . S
H169 C146 0.931 . S
H170 C148 0.931 . S
H171 C150 0.930 . S
H172 C152 0.930 . S
H173 C153 0.931 . S
H174 C155 0.931 . S
H175 C157 0.930 . S
H176 C159 0.930 . S
H177 C160 0.931 . S
N178 C140 1.343 . S
N178 C161 1.343 . S
N179 C147 1.343 . S
N179 C154 1.343 . S
C180 C181 1.386 . S
C180 C182 1.383 . S
C180 H196 0.951 1_455 S
C181 C180 1.386 . S
C181 C185 1.383 . S
C182 C180 1.383 . S
C182 C183 1.402 . S
C182 H197 0.951 1_455 S
C183 C182 1.402 . S
C183 C184 1.375 . S
C183 C186 1.481 . S
C184 C183 1.375 . S
C184 C185 1.367 . S
C184 H198 0.951 . S
C185 C181 1.383 . S
C185 C184 1.367 . S
C185 H199 0.950 . S
C186 C183 1.481 . S
C186 C187 1.297 . S
C186 H200 0.950 . S
C187 C186 1.297 . S
C187 C188 1.479 . S
C187 H201 0.950 1_455 S
C188 C187 1.479 . S
C188 C189 1.383 . S
C188 C194 1.404 . S
C189 C188 1.383 . S
C189 C190 1.366 . S
C189 H202 0.945 1_455 S
C190 C189 1.366 . S
C190 C191 1.392 . S
C190 H203 0.951 1_455 S
C191 C190 1.392 . S
C191 C193 1.384 . S
H192 C194 0.949 . S
C193 C191 1.384 . S
C193 C194 1.385 . S
C193 H195 0.950 . S
C194 C188 1.404 . S
C194 H192 0.949 . S
C194 C193 1.385 . S
H195 C193 0.950 . S
H196 C180 0.951 1_655 S
H197 C182 0.951 1_655 S
H198 C184 0.951 . S
H199 C185 0.950 . S
H200 C186 0.950 . S
H201 C187 0.950 1_655 S
H202 C189 0.945 1_655 S
H203 C190 0.951 1_655 S
C204 C205 1.386 . S
C204 C206 1.383 . S
C204 H220 0.951 1_545 S
C205 C204 1.386 . S
C205 C209 1.383 . S
C206 C204 1.383 . S
C206 C207 1.402 . S
C206 H221 0.954 1_545 S
C207 C206 1.402 . S
C207 C208 1.375 . S
C207 C210 1.481 . S
C208 C207 1.375 . S
C208 C209 1.367 . S
C208 H222 0.951 . S
C209 C205 1.383 . S
C209 C208 1.367 . S
C209 H223 0.950 . S
C210 C207 1.481 . S
C210 C211 1.297 . S
C210 H224 0.950 . S
C211 C210 1.297 . S
C211 C212 1.479 . S
C211 H225 0.950 1_545 S
C212 C211 1.479 . S
C212 C213 1.375 . S
C212 C218 1.404 . S
C213 C212 1.375 . S
C213 C214 1.369 . S
C213 H226 0.950 1_545 S
C214 C213 1.369 . S
C214 C215 1.392 . S
C214 H227 0.951 . S
C215 C214 1.392 . S
C215 C217 1.384 . S
H216 C218 0.949 . S
C217 C215 1.384 . S
C217 C218 1.385 . S
C217 H219 0.950 . S
C218 C212 1.404 . S
C218 H216 0.949 . S
C218 C217 1.385 . S
H219 C217 0.950 . S
H220 C204 0.951 1_565 S
H221 C206 0.954 1_565 S
H222 C208 0.951 . S
H223 C209 0.950 . S
H224 C210 0.950 . S
H225 C211 0.950 1_565 S
H226 C213 0.950 1_565 S
H227 C214 0.951 . S
C228 C229 1.386 . S
C228 C230 1.383 . S
C228 H244 0.951 . S
C229 C228 1.386 . S
C229 C233 1.383 . S
C230 C228 1.383 . S
C230 C231 1.402 . S
C230 H245 0.951 . S
C231 C230 1.402 . S
C231 C232 1.375 . S
C231 C234 1.481 . S
C232 C231 1.375 . S
C232 C233 1.367 . S
C232 H246 0.951 . S
C233 C229 1.383 . S
C233 C232 1.367 . S
C233 H247 0.950 . S
C234 C231 1.481 . S
C234 C235 1.297 . S
C234 H248 0.950 . S
C235 C234 1.297 . S
C235 C236 1.479 . S
C235 H249 0.950 . S
C236 C235 1.479 . S
C236 C237 1.375 . S
C236 C242 1.404 . S
C237 C236 1.375 . S
C237 C238 1.369 . S
C237 H250 0.950 . S
C238 C237 1.369 . S
C238 C239 1.392 . S
C238 H251 0.951 . S
C239 C238 1.392 . S
C239 C241 1.384 . S
H240 C242 0.949 . S
C241 C239 1.384 . S
C241 C242 1.385 . S
C241 H243 0.950 . S
C242 C236 1.404 . S
C242 H240 0.949 . S
C242 C241 1.385 . S
H243 C241 0.950 . S
H244 C228 0.951 . S
H245 C230 0.951 . S
H246 C232 0.951 . S
H247 C233 0.950 . S
H248 C234 0.950 . S
H249 C235 0.950 . S
H250 C237 0.950 . S
H251 C238 0.951 . S
C252 C253 1.386 . S
C252 C254 1.383 . S
C252 H268 0.951 . S
C253 C252 1.386 . S
C253 C257 1.383 . S
C254 C252 1.383 . S
C254 C255 1.402 . S
C254 H269 0.951 . S
C255 C254 1.402 . S
C255 C256 1.375 . S
C255 C258 1.481 . S
C256 C255 1.375 . S
C256 C257 1.367 . S
C256 H270 0.951 . S
C257 C253 1.383 . S
C257 C256 1.367 . S
C257 H271 0.950 . S
C258 C255 1.481 . S
C258 C259 1.297 . S
C258 H272 0.950 . S
C259 C258 1.297 . S
C259 C260 1.479 . S
C259 H273 0.950 . S
C260 C259 1.479 . S
C260 C261 1.375 . S
C260 C266 1.404 . S
C261 C260 1.375 . S
C261 C262 1.369 . S
C261 H274 0.950 . S
C262 C261 1.369 . S
C262 C263 1.392 . S
C262 H275 0.951 . S
C263 C262 1.392 . S
C263 C265 1.384 . S
H264 C266 0.949 . S
C265 C263 1.384 . S
C265 C266 1.385 . S
C265 H267 0.950 . S
C266 C260 1.404 . S
C266 H264 0.949 . S
C266 C265 1.385 . S
H267 C265 0.950 . S
H268 C252 0.951 . S
H269 C254 0.951 . S
H270 C256 0.951 . S
H271 C257 0.950 . S
H272 C258 0.950 . S
H273 C259 0.950 . S
H274 C261 0.950 . S
H275 C262 0.951 . S
C276 C277 1.386 . S
C276 C278 1.383 . S
C276 H292 0.951 . S
C277 C276 1.386 . S
C277 C281 1.383 . S
C278 C276 1.383 . S
C278 C279 1.402 . S
C278 H293 0.951 . S
C279 C278 1.402 . S
C279 C280 1.375 . S
C279 C282 1.481 . S
C280 C279 1.375 . S
C280 C281 1.367 . S
C280 H294 0.951 1_545 S
C281 C277 1.383 . S
C281 C280 1.367 . S
C281 H295 0.950 1_545 S
C282 C279 1.481 . S
C282 C283 1.297 . S
C282 H296 0.950 . S
C283 C282 1.297 . S
C283 C284 1.479 . S
C283 H297 0.950 . S
C284 C283 1.479 . S
C284 C285 1.375 . S
C284 C290 1.404 . S
C285 C284 1.375 . S
C285 C286 1.369 . S
C285 H298 0.950 . S
C286 C285 1.369 . S
C286 C287 1.392 . S
C286 H299 0.951 . S
C287 C286 1.392 . S
C287 C289 1.384 . S
H288 C290 0.949 1_565 S
C289 C287 1.384 . S
C289 C290 1.385 . S
C289 H291 0.950 1_545 S
C290 C284 1.404 . S
C290 H288 0.949 1_545 S
C290 C289 1.385 . S
H291 C289 0.950 1_565 S
H292 C276 0.951 . S
H293 C278 0.951 . S
H294 C280 0.951 1_565 S
H295 C281 0.950 1_565 S
H296 C282 0.950 . S
H297 C283 0.950 . S
H298 C285 0.950 . S
H299 C286 0.951 . S
C300 C301 1.386 . S
C300 C302 1.383 . S
C300 H316 0.951 . S
C301 C300 1.386 . S
C301 C305 1.383 . S
C302 C300 1.383 . S
C302 C303 1.402 . S
C302 H317 0.951 . S
C303 C302 1.402 . S
C303 C304 1.375 . S
C303 C306 1.481 . S
C304 C303 1.375 . S
C304 C305 1.367 . S
C304 H318 0.951 . S
C305 C301 1.383 . S
C305 C304 1.367 . S
C305 H319 0.950 . S
C306 C303 1.481 . S
C306 C307 1.297 . S
C306 H320 0.950 . S
C307 C306 1.297 . S
C307 C308 1.479 . S
C307 H321 0.950 . S
C308 C307 1.479 . S
C308 C309 1.375 . S
C308 C314 1.404 . S
C309 C308 1.375 . S
C309 C310 1.369 . S
C309 H322 0.950 . S
C310 C309 1.369 . S
C310 C311 1.392 . S
C310 H323 0.951 . S
C311 C310 1.392 . S
C311 C313 1.384 . S
H312 C314 0.949 . S
C313 C311 1.384 . S
C313 C314 1.385 . S
C313 H315 0.950 . S
C314 C308 1.404 . S
C314 H312 0.949 . S
C314 C313 1.385 . S
H315 C313 0.950 . S
H316 C300 0.951 . S
H317 C302 0.951 . S
H318 C304 0.951 . S
H319 C305 0.950 . S
H320 C306 0.950 . S
H321 C307 0.950 . S
H322 C309 0.950 . S
H323 C310 0.951 . S
C324 C325 1.386 . S
C324 C326 1.383 . S
C324 H340 0.951 . S
C325 C324 1.386 . S
C325 C329 1.383 1_545 S
C326 C324 1.383 . S
C326 C327 1.402 . S
C326 H341 0.951 . S
C327 C326 1.402 . S
C327 C328 1.375 1_545 S
C327 C330 1.481 . S
C328 C327 1.375 1_565 S
C328 C329 1.367 . S
C328 H342 0.951 . S
C329 C325 1.383 1_565 S
C329 C328 1.367 . S
C329 H343 0.950 . S
C330 C327 1.481 . S
C330 C331 1.297 . S
C330 H344 0.950 1_545 S
C331 C330 1.297 . S
C331 C332 1.479 . S
C331 H345 0.950 . S
C332 C331 1.479 . S
C332 C333 1.375 . S
C332 C338 1.404 1_545 S
C333 C332 1.375 . S
C333 C334 1.369 . S
C333 H346 0.950 . S
C334 C333 1.369 . S
C334 C335 1.392 . S
C334 H347 0.951 . S
C335 C334 1.392 . S
C335 C337 1.384 1_545 S
H336 C338 0.949 . S
C337 C335 1.384 1_565 S
C337 C338 1.385 . S
C337 H339 0.950 . S
C338 C332 1.404 1_565 S
C338 H336 0.949 . S
C338 C337 1.385 . S
H339 C337 0.950 . S
H340 C324 0.951 . S
H341 C326 0.951 . S
H342 C328 0.951 . S
H343 C329 0.950 . S
H344 C330 0.950 1_565 S
H345 C331 0.950 . S
H346 C333 0.950 . S
H347 C334 0.951 . S
C348 C349 1.386 . S
C348 C350 1.383 1_554 S
C348 H364 0.951 . S
C349 C348 1.386 . S
C349 C353 1.383 . S
C350 C348 1.383 1_556 S
C350 C351 1.402 . S
C350 H365 0.951 . S
C351 C350 1.402 . S
C351 C352 1.375 1_556 S
C351 C354 1.481 . S
C352 C351 1.375 1_554 S
C352 C353 1.367 . S
C352 H366 0.951 . S
C353 C349 1.383 . S
C353 C352 1.367 . S
C353 H367 0.950 1_655 S
C354 C351 1.481 . S
C354 C355 1.297 . S
C354 H368 0.950 . S
C355 C354 1.297 . S
C355 C356 1.479 . S
C355 H369 0.950 . S
C356 C355 1.479 . S
C356 C357 1.375 . S
C356 C362 1.404 . S
C357 C356 1.375 . S
C357 C358 1.369 . S
C357 H370 0.950 . S
C358 C357 1.369 . S
C358 C359 1.392 . S
C358 H371 0.951 . S
C359 C358 1.392 . S
C359 C361 1.384 . S
H360 C362 0.949 . S
C361 C359 1.384 . S
C361 C362 1.385 . S
C361 H363 0.950 . S
C362 C356 1.404 . S
C362 H360 0.949 . S
C362 C361 1.385 . S
H363 C361 0.950 . S
H364 C348 0.951 . S
H365 C350 0.951 . S
H366 C352 0.951 . S
H367 C353 0.950 1_455 S
H368 C354 0.950 . S
H369 C355 0.950 . S
H370 C357 0.950 . S
H371 C358 0.951 . S
C372 C373 1.386 . S
C372 C374 1.383 . S
C372 H388 0.951 . S
C373 C372 1.386 . S
C373 C377 1.383 . S
C374 C372 1.383 . S
C374 C375 1.402 . S
C374 H389 0.951 . S
C375 C374 1.402 . S
C375 C376 1.375 . S
C375 C378 1.481 . S
C376 C375 1.375 . S
C376 C377 1.367 . S
C376 H390 0.951 . S
C377 C373 1.383 . S
C377 C376 1.367 . S
C377 H391 0.950 . S
C378 C375 1.481 . S
C378 C379 1.297 . S
C378 H392 0.950 . S
C379 C378 1.297 . S
C379 C380 1.479 . S
C379 H393 0.950 . S
C380 C379 1.479 . S
C380 C381 1.375 . S
C380 C386 1.404 . S
C381 C380 1.375 . S
C381 C382 1.369 . S
C381 H394 0.950 . S
C382 C381 1.369 . S
C382 C383 1.392 . S
C382 H395 0.951 . S
C383 C382 1.392 . S
C383 C385 1.384 . S
H384 C386 0.949 . S
C385 C383 1.384 . S
C385 C386 1.385 . S
C385 H387 0.950 . S
C386 C380 1.404 . S
C386 H384 0.949 . S
C386 C385 1.385 . S
H387 C385 0.950 . S
H388 C372 0.951 . S
H389 C374 0.951 . S
H390 C376 0.951 . S
H391 C377 0.950 . S
H392 C378 0.950 . S
H393 C379 0.950 . S
H394 C381 0.950 . S
H395 C382 0.951 . S
C396 C397 1.386 1_565 S
C396 C398 1.383 . S
C396 H412 0.951 . S
C397 C396 1.386 1_545 S
C397 C401 1.383 . S
C398 C396 1.383 . S
C398 C399 1.402 1_565 S
C398 H413 0.951 . S
C399 C398 1.402 1_545 S
C399 C400 1.375 . S
C399 C402 1.481 . S
C400 C399 1.375 . S
C400 C401 1.367 . S
C400 H414 0.951 . S
C401 C397 1.383 . S
C401 C400 1.367 . S
C401 H415 0.950 . S
C402 C399 1.481 . S
C402 C403 1.297 1_545 S
C402 H416 0.950 . S
C403 C402 1.297 1_565 S
C403 C404 1.479 1_565 S
C403 H417 0.950 . S
C404 C403 1.479 1_545 S
C404 C405 1.375 1_545 S
C404 C410 1.404 . S
C405 C404 1.375 1_565 S
C405 C406 1.369 . S
C405 H418 0.950 . S
C406 C405 1.369 . S
C406 C407 1.392 1_565 S
C406 H419 0.951 . S
C407 C406 1.392 1_545 S
C407 C409 1.384 . S
H408 C410 0.949 . S
C409 C407 1.384 . S
C409 C410 1.385 . S
C409 H411 0.950 . S
C410 C404 1.404 . S
C410 H408 0.949 . S
C410 C409 1.385 . S
H411 C409 0.950 . S
H412 C396 0.951 . S
H413 C398 0.951 . S
H414 C400 0.951 . S
H415 C401 0.950 . S
H416 C402 0.950 . S
H417 C403 0.950 . S
H418 C405 0.950 . S
H419 C406 0.951 . S
C420 C421 1.386 . S
C420 C422 1.383 1_554 S
C420 H436 0.951 . S
C421 C420 1.386 . S
C421 C425 1.383 . S
C422 C420 1.383 1_556 S
C422 C423 1.402 1_556 S
C422 H437 0.951 . S
C423 C422 1.402 1_554 S
C423 C424 1.375 . S
C423 C426 1.481 1_554 S
C424 C423 1.375 . S
C424 C425 1.367 . S
C424 H438 0.951 . S
C425 C421 1.383 . S
C425 C424 1.367 . S
C425 H439 0.950 . S
C426 C423 1.481 1_556 S
C426 C427 1.297 . S
C426 H440 0.950 . S
C427 C426 1.297 . S
C427 C428 1.479 . S
C427 H441 0.950 . S
C428 C427 1.479 . S
C428 C429 1.375 . S
C428 C434 1.404 . S
C429 C428 1.375 . S
C429 C430 1.369 . S
C429 H442 0.950 . S
C430 C429 1.369 . S
C430 C431 1.392 . S
C430 H443 0.951 . S
C431 C430 1.392 . S
C431 C433 1.384 . S
H432 C434 0.949 . S
C433 C431 1.384 . S
C433 C434 1.385 . S
C433 H435 0.950 . S
C434 C428 1.404 . S
C434 H432 0.949 . S
C434 C433 1.385 . S
H435 C433 0.950 . S
H436 C420 0.951 . S
H437 C422 0.951 . S
H438 C424 0.951 . S
H439 C425 0.950 . S
H440 C426 0.950 . S
H441 C427 0.950 . S
H442 C429 0.950 . S
H443 C430 0.951 . S
C444 C445 1.386 . S
C444 C446 1.383 . S
C444 H460 0.951 1_455 S
C445 C444 1.386 . S
C445 C449 1.383 . S
C446 C444 1.383 . S
C446 C447 1.402 . S
C446 H461 0.951 1_455 S
C447 C446 1.402 . S
C447 C448 1.375 . S
C447 C450 1.481 . S
C448 C447 1.375 . S
C448 C449 1.367 . S
C448 H462 0.951 . S
C449 C445 1.383 . S
C449 C448 1.367 . S
C449 H463 0.950 . S
C450 C447 1.481 . S
C450 C451 1.297 . S
C450 H464 0.950 . S
C451 C450 1.297 . S
C451 C452 1.479 . S
C451 H465 0.950 . S
C452 C451 1.479 . S
C452 C453 1.375 1_455 S
C452 C458 1.404 . S
C453 C452 1.375 1_655 S
C453 C454 1.369 . S
C453 H466 0.950 . S
C454 C453 1.369 . S
C454 C455 1.392 1_655 S
C454 H467 0.951 . S
C455 C454 1.392 1_455 S
C455 C457 1.384 . S
H456 C458 0.949 . S
C457 C455 1.384 . S
C457 C458 1.385 . S
C457 H459 0.950 . S
C458 C452 1.404 . S
C458 H456 0.949 . S
C458 C457 1.385 . S
H459 C457 0.950 . S
H460 C444 0.951 1_655 S
H461 C446 0.951 1_655 S
H462 C448 0.951 . S
H463 C449 0.950 . S
H464 C450 0.950 . S
H465 C451 0.950 . S
H466 C453 0.950 . S
H467 C454 0.951 . S
C191 C50 1.292 . S
C181 C11 1.278 . S
C205 C25 1.355 . S
C215 C89 1.359 . S
C229 C41 1.383 . S
C239 C156 1.406 . S
C253 C7 1.340 . S
C263 C57 1.327 . S
C287 C110 1.392 . S
C277 C21 1.400 . S
C301 C36 1.409 . S
C311 C135 1.424 . S
C335 C96 1.361 . S
C325 C39 1.345 . S
C349 C8 1.345 1_655 S
C359 C149 1.426 . S
C383 C64 1.481 . S
C373 C22 1.434 1_565 S
C407 C103 1.386 . S
C397 C35 1.398 1_545 S
C431 C142 1.414 . S
C421 C13 1.367 . S
C445 C27 1.397 . S
C455 C43 1.459 . S
