# Generated by pormake.
# Topology nom, (4,4)-cn, num edge types: 1
# Building blocks:
#     Node 0, Type 0, BuildingBlock: MUDLON_clean_linker_0, # of connection points: 4
#     Node 1, Type 0, BuildingBlock: MUDLON_clean_linker_0, # of connection points: 4
#     Node 2, Type 0, BuildingBlock: MUDLON_clean_linker_0, # of connection points: 4
#     Node 3, Type 0, BuildingBlock: MUDLON_clean_linker_0, # of connection points: 4
#     Node 4, Type 0, BuildingBlock: MUDLON_clean_linker_0, # of connection points: 4
#     Node 5, Type 0, BuildingBlock: MUDLON_clean_linker_0, # of connection points: 4
#     Node 6, Type 1, BuildingBlock: CEKHIL_clean_sbu_0, # of connection points: 4
#     Node 7, Type 1, BuildingBlock: CEKHIL_clean_sbu_0, # of connection points: 4
#     Node 8, Type 1, BuildingBlock: CEKHIL_clean_sbu_0, # of connection points: 4
#     Node 9, Type 1, BuildingBlock: CEKHIL_clean_sbu_0, # of connection points: 4
#     Node 10, Type 1, BuildingBlock: CEKHIL_clean_sbu_0, # of connection points: 4
#     Node 11, Type 1, BuildingBlock: CEKHIL_clean_sbu_0, # of connection points: 4
#     Edge 12, Type (0, 1), BuildingBlock: KIFKEQ_clean_linker_1, # of connection points: 2
#     Edge 13, Type (0, 1), BuildingBlock: KIFKEQ_clean_linker_1, # of connection points: 2
#     Edge 14, Type (0, 1), BuildingBlock: KIFKEQ_clean_linker_1, # of connection points: 2
#     Edge 15, Type (0, 1), BuildingBlock: KIFKEQ_clean_linker_1, # of connection points: 2
#     Edge 16, Type (0, 1), BuildingBlock: KIFKEQ_clean_linker_1, # of connection points: 2
#     Edge 17, Type (0, 1), BuildingBlock: KIFKEQ_clean_linker_1, # of connection points: 2
#     Edge 18, Type (0, 1), BuildingBlock: KIFKEQ_clean_linker_1, # of connection points: 2
#     Edge 19, Type (0, 1), BuildingBlock: KIFKEQ_clean_linker_1, # of connection points: 2
#     Edge 20, Type (0, 1), BuildingBlock: KIFKEQ_clean_linker_1, # of connection points: 2
#     Edge 21, Type (0, 1), BuildingBlock: KIFKEQ_clean_linker_1, # of connection points: 2
#     Edge 22, Type (0, 1), BuildingBlock: KIFKEQ_clean_linker_1, # of connection points: 2
#     Edge 23, Type (0, 1), BuildingBlock: KIFKEQ_clean_linker_1, # of connection points: 2
#     Edge 24, Type (0, 1), BuildingBlock: KIFKEQ_clean_linker_1, # of connection points: 2
#     Edge 25, Type (0, 1), BuildingBlock: KIFKEQ_clean_linker_1, # of connection points: 2
#     Edge 26, Type (0, 1), BuildingBlock: KIFKEQ_clean_linker_1, # of connection points: 2
#     Edge 27, Type (0, 1), BuildingBlock: KIFKEQ_clean_linker_1, # of connection points: 2
#     Edge 28, Type (0, 1), BuildingBlock: KIFKEQ_clean_linker_1, # of connection points: 2
#     Edge 29, Type (0, 1), BuildingBlock: KIFKEQ_clean_linker_1, # of connection points: 2
#     Edge 30, Type (0, 1), BuildingBlock: KIFKEQ_clean_linker_1, # of connection points: 2
#     Edge 31, Type (0, 1), BuildingBlock: KIFKEQ_clean_linker_1, # of connection points: 2
#     Edge 32, Type (0, 1), BuildingBlock: KIFKEQ_clean_linker_1, # of connection points: 2
#     Edge 33, Type (0, 1), BuildingBlock: KIFKEQ_clean_linker_1, # of connection points: 2
#     Edge 34, Type (0, 1), BuildingBlock: KIFKEQ_clean_linker_1, # of connection points: 2
#     Edge 35, Type (0, 1), BuildingBlock: KIFKEQ_clean_linker_1, # of connection points: 2
# Relax obj value: 0.008
# Max RMSD: 0.105
# Mean RMSD: 0.066
data_MOF--net-nom--node1-CEKHIL_clean_sbu_0--node2-MUDLON_clean_linker_0--edge1-KIFKEQ_clean_linker_1
_symmetry_space_group_name_H-M    P1
_symmetry_Int_Tables_number       1
_symmetry_cell_setting            triclinic
loop_
_symmetry_equiv_pos_as_xyz
'x, y, z'
_cell_length_a     61.605626
_cell_length_b     61.97532
_cell_length_c     61.593612
_cell_angle_alpha  90.398054
_cell_angle_beta   89.793465
_cell_angle_gamma 121.52184
loop_
_atom_site_label
_atom_site_type_symbol
_atom_site_fract_x
_atom_site_fract_y
_atom_site_fract_z
_atom_type_partial_charge
H0 H 0.12316 0.54043 0.31024 0.0
N1 N 0.1022 0.55422 0.34072 0.0
H2 H 0.16037 0.56816 0.28794 0.0
H3 H 0.12436 0.60551 0.33684 0.0
H4 H 0.16211 0.63341 0.31551 0.0
H5 H 0.09786 0.58624 0.36893 0.0
H6 H 0.11812 0.59989 0.40444 0.0
H7 H 0.125 0.53498 0.36279 0.0
H8 H 0.14559 0.54869 0.39835 0.0
H9 H 0.06709 0.50616 0.33396 0.0
H10 H 0.07831 0.58081 0.33503 0.0
H11 H 0.02252 0.48813 0.32417 0.0
H12 H 0.03334 0.56293 0.32646 0.0
H13 H 0.90573 0.43325 0.2795 0.0
H14 H 0.88884 0.42078 0.24256 0.0
H15 H 0.90042 0.49502 0.2325 0.0
H16 H 0.91737 0.50728 0.26934 0.0
H17 H 0.90938 0.51436 0.30509 0.0
H18 H 0.87199 0.51064 0.32329 0.0
H19 H 0.84928 0.43529 0.3441 0.0
H20 H 0.88606 0.43883 0.32515 0.0
H21 H 0.93899 0.4585 0.32688 0.0
H22 H 0.98336 0.47866 0.33827 0.0
H23 H 1.00214 0.54367 0.29881 0.0
N24 N 0.91885 0.47638 0.29982 0.0
H25 H 0.95725 0.52373 0.28861 0.0
C26 C 0.12113 0.57082 0.3253 0.0
C27 C 0.13126 0.5607 0.31098 0.0
C28 C 0.15269 0.57662 0.29848 0.0
C29 C 0.16461 0.6031 0.30023 0.0
C30 C 0.15342 0.61315 0.31362 0.0
C31 C 0.13181 0.59717 0.32597 0.0
C32 C 0.10993 0.55951 0.36314 0.0
C33 C 0.10775 0.57754 0.37534 0.0
C34 C 0.11955 0.5855 0.39563 0.0
C35 C 0.1337 0.57558 0.40413 0.0
C36 C 0.13468 0.55658 0.39238 0.0
C37 C 0.12295 0.54871 0.37208 0.0
C38 C 0.07592 0.54466 0.3355 0.0
C39 C 0.05975 0.51859 0.33237 0.0
C40 C 0.0342 0.50834 0.32695 0.0
C41 C 0.02406 0.52398 0.32477 0.0
C42 C 0.04042 0.55028 0.32784 0.0
C43 C 0.06616 0.56055 0.33302 0.0
C44 C 0.91272 0.47106 0.27716 0.0
C45 C 0.90512 0.44695 0.2691 0.0
C46 C 0.89551 0.43991 0.24803 0.0
C47 C 0.89314 0.45689 0.23468 0.0
C48 C 0.90173 0.48144 0.2425 0.0
C49 C 0.91155 0.48852 0.26353 0.0
C50 C 0.90012 0.47665 0.31357 0.0
C51 C 0.89644 0.49717 0.31372 0.0
C52 C 0.87517 0.49505 0.32415 0.0
C53 C 0.85774 0.47264 0.33501 0.0
C54 C 0.86251 0.45284 0.336 0.0
C55 C 0.88343 0.4548 0.32522 0.0
C56 C 0.94496 0.48945 0.30674 0.0
C57 C 0.95272 0.47719 0.32088 0.0
C58 C 0.97816 0.4887 0.32718 0.0
C59 C 0.9966 0.51269 0.31919 0.0
C60 C 0.98856 0.52528 0.30542 0.0
C61 C 0.96291 0.51382 0.29937 0.0
H62 H 0.48639 0.89302 0.46969 0.0
N63 N 0.47615 0.92482 0.4503 0.0
H64 H 0.45711 0.8556 0.49113 0.0
H65 H 0.4291 0.91281 0.46506 0.0
H66 H 0.3994 0.87484 0.48562 0.0
H67 H 0.43202 0.9098 0.42758 0.0
H68 H 0.4215 0.89102 0.39164 0.0
H69 H 0.50649 0.91946 0.42285 0.0
H70 H 0.49556 0.89971 0.38659 0.0
H71 H 0.51333 0.95614 0.47685 0.0
H72 H 0.45356 0.95112 0.43677 0.0
H73 H 0.52452 0.99845 0.48879 0.0
H74 H 0.46531 0.99341 0.44765 0.0
H75 H 0.569 0.12385 0.50964 0.0
H76 H 0.5885 0.14326 0.54418 0.0
H77 H 0.51413 0.10538 0.57442 0.0
H78 H 0.49467 0.08723 0.53918 0.0
H79 H 0.49769 0.12514 0.49881 0.0
H80 H 0.51421 0.16484 0.47922 0.0
H81 H 0.572 0.15441 0.44997 0.0
H82 H 0.55574 0.11512 0.47003 0.0
H83 H 0.55248 0.08232 0.4926 0.0
H84 H 0.54295 0.0413 0.47863 0.0
H85 H 0.46277 0.0156 0.47755 0.0
N86 N 0.51787 0.09657 0.50093 0.0
H87 H 0.47279 0.05715 0.49048 0.0
C88 C 0.45988 0.90548 0.46556 0.0
C89 C 0.46765 0.88947 0.4736 0.0
C90 C 0.45095 0.86817 0.48577 0.0
C91 C 0.426 0.86231 0.48977 0.0
C92 C 0.4185 0.8789 0.48253 0.0
C93 C 0.43543 0.90053 0.47076 0.0
C94 C 0.47047 0.91673 0.4279 0.0
C95 C 0.44649 0.90864 0.41866 0.0
C96 C 0.44036 0.8977 0.39801 0.0
C97 C 0.45774 0.89401 0.38628 0.0
C98 C 0.48182 0.90237 0.3953 0.0
C99 C 0.48813 0.91378 0.41588 0.0
C100 C 0.48276 0.95026 0.45582 0.0
C101 C 0.50287 0.96428 0.47038 0.0
C102 C 0.50933 0.98855 0.47706 0.0
C103 C 0.49585 0.99949 0.4692 0.0
C104 C 0.47588 0.98552 0.45436 0.0
C105 C 0.46925 0.96115 0.4479 0.0
C106 C 0.53025 0.10433 0.52178 0.0
C107 C 0.55688 0.11945 0.5237 0.0
C108 C 0.56806 0.13046 0.54364 0.0
C109 C 0.55292 0.12624 0.56218 0.0
C110 C 0.52638 0.10964 0.56043 0.0
C111 C 0.51521 0.09896 0.54039 0.0
C112 C 0.52529 0.11706 0.48592 0.0
C113 C 0.51354 0.13116 0.48775 0.0
C114 C 0.52303 0.15385 0.47653 0.0
C115 C 0.54458 0.16295 0.46312 0.0
C116 C 0.55563 0.14815 0.46044 0.0
C117 C 0.54612 0.12545 0.47175 0.0
C118 C 0.51326 0.07285 0.49236 0.0
C119 C 0.53292 0.06799 0.48907 0.0
C120 C 0.52737 0.04434 0.48128 0.0
C121 C 0.50205 0.025 0.47688 0.0
C122 C 0.48253 0.03007 0.48028 0.0
C123 C 0.48815 0.05375 0.48782 0.0
H124 H 0.46981 0.59041 0.65447 0.0
N125 N 0.45723 0.54486 0.66829 0.0
H126 H 0.44308 0.60155 0.63431 0.0
H127 H 0.41187 0.51144 0.64937 0.0
H128 H 0.38516 0.52211 0.62829 0.0
H129 H 0.41443 0.51354 0.69111 0.0
H130 H 0.40513 0.52056 0.72844 0.0
H131 H 0.48978 0.57961 0.69613 0.0
H132 H 0.48091 0.58673 0.73338 0.0
H133 H 0.50614 0.56603 0.65855 0.0
H134 H 0.43601 0.4941 0.66345 0.0
H135 H 0.52882 0.5448 0.64879 0.0
H136 H 0.45809 0.47239 0.65241 0.0
H137 H 0.59866 0.47806 0.60884 0.0
H138 H 0.60463 0.4661 0.57233 0.0
H139 H 0.52304 0.42245 0.56334 0.0
H140 H 0.51732 0.43462 0.59989 0.0
H141 H 0.51868 0.41114 0.63051 0.0
H142 H 0.52304 0.37842 0.64824 0.0
H143 H 0.59316 0.43625 0.67798 0.0
H144 H 0.58897 0.46894 0.65975 0.0
H145 H 0.56078 0.50431 0.61389 0.0
H146 H 0.53542 0.52317 0.62126 0.0
H147 H 0.48728 0.46113 0.66407 0.0
N148 N 0.55497 0.4618 0.62963 0.0
H149 H 0.51167 0.44158 0.65561 0.0
C150 C 0.44291 0.5502 0.65323 0.0
C151 C 0.45157 0.57545 0.64836 0.0
C152 C 0.43622 0.58171 0.63675 0.0
C153 C 0.41182 0.56274 0.62962 0.0
C154 C 0.40365 0.53726 0.63377 0.0
C155 C 0.41901 0.53105 0.64558 0.0
C156 C 0.45277 0.54618 0.69099 0.0
C157 C 0.4291 0.52925 0.70044 0.0
C158 C 0.4238 0.53336 0.72168 0.0
C159 C 0.44226 0.55424 0.73381 0.0
C160 C 0.46639 0.57031 0.72458 0.0
C161 C 0.47151 0.56634 0.70333 0.0
C162 C 0.46948 0.53166 0.66139 0.0
C163 C 0.49561 0.54559 0.65709 0.0
C164 C 0.50845 0.53335 0.65135 0.0
C165 C 0.49532 0.50676 0.64952 0.0
C166 C 0.46893 0.49282 0.65381 0.0
C167 C 0.45616 0.50517 0.65985 0.0
C168 C 0.55766 0.45718 0.60707 0.0
C169 C 0.58214 0.46632 0.59878 0.0
C170 C 0.58548 0.4595 0.57794 0.0
C171 C 0.56429 0.44319 0.56503 0.0
C172 C 0.53971 0.43478 0.57304 0.0
C173 C 0.53641 0.44179 0.59386 0.0
C174 C 0.55374 0.44258 0.64364 0.0
C175 C 0.53477 0.41684 0.64111 0.0
C176 C 0.53728 0.39813 0.65123 0.0
C177 C 0.55857 0.4048 0.66429 0.0
C178 C 0.57648 0.43056 0.6681 0.0
C179 C 0.57411 0.44924 0.65775 0.0
C180 C 0.53836 0.47142 0.63393 0.0
C181 C 0.54452 0.49455 0.62462 0.0
C182 C 0.53011 0.50548 0.62909 0.0
C183 C 0.50936 0.4939 0.64351 0.0
C184 C 0.50289 0.47051 0.65267 0.0
C185 C 0.5171 0.45931 0.64788 0.0
H186 H 0.1322 0.56088 0.79905 0.0
N187 N 0.099 0.511 0.78854 0.0
H188 H 0.17103 0.57751 0.81996 0.0
H189 H 0.11256 0.48466 0.8129 0.0
H190 H 0.15112 0.50121 0.83498 0.0
H191 H 0.11806 0.49439 0.75871 0.0
H192 H 0.13958 0.51536 0.72496 0.0
H193 H 0.09941 0.5515 0.77033 0.0
H194 H 0.12045 0.57235 0.73648 0.0
H195 H 0.08935 0.54265 0.8129 0.0
H196 H 0.05383 0.47044 0.77996 0.0
H197 H 0.04761 0.53405 0.82442 0.0
H198 H 0.01185 0.46185 0.79126 0.0
H199 H 0.91183 0.50014 0.86222 0.0
H200 H 0.89142 0.48492 0.8976 0.0
H201 H 0.90535 0.42352 0.89363 0.0
H202 H 0.92539 0.43871 0.85816 0.0
H203 H 0.91168 0.42919 0.82097 0.0
H204 H 0.87147 0.39998 0.80254 0.0
H205 H 0.85283 0.45808 0.8017 0.0
H206 H 0.89342 0.48752 0.81966 0.0
H207 H 0.96998 0.49525 0.86012 0.0
H208 H 0.01165 0.50371 0.84905 0.0
H209 H 0.98411 0.47999 0.78373 0.0
N210 N 0.92734 0.47733 0.83507 0.0
H211 H 0.94262 0.47184 0.79441 0.0
C212 C 0.11947 0.52137 0.80421 0.0
C213 C 0.13588 0.54765 0.80707 0.0
C214 C 0.15816 0.5572 0.81923 0.0
C215 C 0.16448 0.54075 0.82905 0.0
C216 C 0.14719 0.51447 0.82728 0.0
C217 C 0.12498 0.50494 0.81491 0.0
C218 C 0.10714 0.52127 0.76704 0.0
C219 C 0.11801 0.51107 0.75363 0.0
C220 C 0.13028 0.52308 0.73436 0.0
C221 C 0.13195 0.54568 0.72812 0.0
C222 C 0.11985 0.55519 0.74101 0.0
C223 C 0.10756 0.54313 0.76028 0.0
C224 C 0.07479 0.50695 0.7957 0.0
C225 C 0.07268 0.52488 0.80821 0.0
C226 C 0.04874 0.51993 0.81485 0.0
C227 C 0.02647 0.49723 0.80882 0.0
C228 C 0.02865 0.47957 0.79607 0.0
C229 C 0.05256 0.48438 0.78967 0.0
C230 C 0.92007 0.47062 0.85752 0.0
C231 C 0.91099 0.48376 0.86927 0.0
C232 C 0.89934 0.47501 0.88947 0.0
C233 C 0.89648 0.45282 0.89834 0.0
C234 C 0.90681 0.4404 0.88706 0.0
C235 C 0.91844 0.44916 0.86685 0.0
C236 C 0.90571 0.46075 0.82148 0.0
C237 C 0.89924 0.43585 0.81641 0.0
C238 C 0.8763 0.41918 0.80588 0.0
C239 C 0.85915 0.42685 0.80082 0.0
C240 C 0.86578 0.45177 0.80551 0.0
C241 C 0.88894 0.46859 0.81559 0.0
C242 C 0.95185 0.48081 0.82871 0.0
C243 C 0.9724 0.49107 0.84351 0.0
C244 C 0.99651 0.49633 0.83712 0.0
C245 C 1.00099 0.49197 0.81564 0.0
C246 C 0.98101 0.48278 0.80058 0.0
C247 C 0.95701 0.47782 0.80687 0.0
H248 H 0.54084 0.13623 0.96179 0.0
N249 N 0.5494 0.0994 0.95283 0.0
H250 H 0.56901 0.17584 0.9813 0.0
H251 H 0.59085 0.1094 0.97753 0.0
H252 H 0.61887 0.14879 0.99719 0.0
H253 H 0.59783 0.12223 0.93638 0.0
H254 H 0.61154 0.14149 0.90103 0.0
H255 H 0.51962 0.09395 0.91932 0.0
H256 H 0.53305 0.11193 0.88296 0.0
H257 H 0.51137 0.06705 0.97815 0.0
H258 H 0.57614 0.07621 0.94265 0.0
H259 H 0.50146 0.02523 0.99033 0.0
H260 H 0.56609 0.03451 0.95443 0.0
H261 H 0.47195 0.92207 0.02052 0.0
H262 H 0.45253 0.89997 0.05435 0.0
H263 H 0.52016 0.89828 0.06896 0.0
H264 H 0.5393 0.92004 0.03476 0.0
H265 H 0.5411 0.90911 0.98816 0.0
H266 H 0.52232 0.86893 0.96854 0.0
H267 H 0.44977 0.86438 0.96799 0.0
H268 H 0.46945 0.90555 0.98584 0.0
H269 H 0.51679 0.96888 0.02762 0.0
H270 H 0.52315 0.00855 0.01456 0.0
H271 H 0.53094 0.98837 0.94913 0.0
N272 N 0.51735 0.93149 0.00356 0.0
H273 H 0.5241 0.94824 0.96188 0.0
C274 C 0.56355 0.11979 0.96819 0.0
C275 C 0.55749 0.1386 0.96998 0.0
C276 C 0.57369 0.16125 0.98093 0.0
C277 C 0.59623 0.16544 0.99054 0.0
C278 C 0.60154 0.14598 0.99001 0.0
C279 C 0.58545 0.12339 0.97882 0.0
C280 C 0.55758 0.1068 0.93066 0.0
C281 C 0.58348 0.1196 0.92481 0.0
C282 C 0.59131 0.13052 0.90435 0.0
C283 C 0.57347 0.12855 0.889 0.0
C284 C 0.54743 0.11439 0.89446 0.0
C285 C 0.53963 0.10378 0.91513 0.0
C286 C 0.54422 0.07475 0.9593 0.0
C287 C 0.52333 0.05999 0.97289 0.0
C288 C 0.51776 0.0362 0.97987 0.0
C289 C 0.5329 0.02655 0.97319 0.0
C290 C 0.55386 0.0413 0.95955 0.0
C291 C 0.55963 0.06525 0.95282 0.0
C292 C 0.50719 0.92274 0.0251 0.0
C293 C 0.48275 0.91727 0.03111 0.0
C294 C 0.47172 0.90475 0.05055 0.0
C295 C 0.48475 0.89722 0.06426 0.0
C296 C 0.50953 0.90357 0.05862 0.0
C297 C 0.5206 0.91622 0.03924 0.0
C298 C 0.50667 0.91011 0.9888 0.0
C299 C 0.52133 0.89967 0.98326 0.0
C300 C 0.51037 0.87646 0.97235 0.0
C301 C 0.48424 0.86284 0.96715 0.0
C302 C 0.46991 0.87414 0.97162 0.0
C303 C 0.48108 0.89766 0.9821 0.0
C304 C 0.51813 0.95407 0.99572 0.0
C305 C 0.51874 0.97211 0.0103 0.0
C306 C 0.52268 0.99517 0.00287 0.0
C307 C 0.52722 0.00143 0.9808 0.0
C308 C 0.5273 0.98397 0.96623 0.0
C309 C 0.52299 0.96074 0.97359 0.0
H310 H 0.56186 0.43045 0.15229 0.0
N311 N 0.56832 0.47508 0.16198 0.0
H312 H 0.59327 0.42224 0.13621 0.0
H313 H 0.61243 0.51042 0.14218 0.0
H314 H 0.64404 0.50229 0.12563 0.0
H315 H 0.61298 0.499 0.18474 0.0
H316 H 0.61877 0.48956 0.22168 0.0
H317 H 0.53168 0.45053 0.19133 0.0
H318 H 0.53693 0.4429 0.22921 0.0
H319 H 0.53119 0.45988 0.13315 0.0
H320 H 0.58305 0.52365 0.17286 0.0
H321 H 0.50926 0.48155 0.12269 0.0
H322 H 0.56041 0.54515 0.16348 0.0
H323 H 0.42464 0.54543 0.11251 0.0
H324 H 0.41594 0.55746 0.07757 0.0
H325 H 0.494 0.58636 0.05821 0.0
H326 H 0.50283 0.57599 0.09377 0.0
H327 H 0.50013 0.60779 0.12505 0.0
H328 H 0.49379 0.63852 0.14448 0.0
H329 H 0.43629 0.5784 0.18426 0.0
H330 H 0.44199 0.54768 0.16391 0.0
H331 H 0.45439 0.50834 0.13366 0.0
H332 H 0.48071 0.49032 0.14025 0.0
H333 H 0.54831 0.56517 0.13695 0.0
N334 N 0.46933 0.55637 0.12806 0.0
H335 H 0.52147 0.58305 0.13121 0.0
C336 C 0.58482 0.47092 0.14834 0.0
C337 C 0.57946 0.44613 0.14596 0.0
C338 C 0.59745 0.44152 0.13695 0.0
C339 C 0.62109 0.46168 0.12992 0.0
C340 C 0.62588 0.48647 0.1309 0.0
C341 C 0.60787 0.49111 0.14023 0.0
C342 C 0.57186 0.47469 0.18507 0.0
C343 C 0.59629 0.48682 0.19437 0.0
C344 C 0.59953 0.48159 0.21575 0.0
C345 C 0.57836 0.46479 0.2285 0.0
C346 C 0.55381 0.45502 0.21974 0.0
C347 C 0.55066 0.45963 0.19816 0.0
C348 C 0.55844 0.49 0.15391 0.0
C349 C 0.53794 0.47872 0.13943 0.0
C350 C 0.52527 0.49104 0.13371 0.0
C351 C 0.53262 0.51488 0.14266 0.0
C352 C 0.5542 0.52684 0.15625 0.0
C353 C 0.56712 0.51455 0.16173 0.0
C354 C 0.46424 0.55962 0.10585 0.0
C355 C 0.43971 0.55399 0.10053 0.0
C356 C 0.43479 0.56082 0.08043 0.0
C357 C 0.45429 0.57313 0.06491 0.0
C358 C 0.4786 0.5775 0.06985 0.0
C359 C 0.48364 0.57117 0.09019 0.0
C360 C 0.47115 0.57536 0.14286 0.0
C361 C 0.48666 0.60134 0.13833 0.0
C362 C 0.48302 0.61893 0.14953 0.0
C363 C 0.46407 0.61087 0.16562 0.0
C364 C 0.45053 0.58518 0.17155 0.0
C365 C 0.45396 0.56762 0.16017 0.0
C366 C 0.4859 0.54687 0.13187 0.0
C367 C 0.47489 0.52079 0.13437 0.0
C368 C 0.49005 0.51056 0.13792 0.0
C369 C 0.51676 0.52623 0.13883 0.0
C370 C 0.52784 0.55254 0.13646 0.0
C371 C 0.51253 0.5628 0.13307 0.0
Co372 Co 0.6377 0.38083 0.39449 0.0
O373 O 0.66225 0.38237 0.37412 0.0
O374 O 0.66967 0.41259 0.39776 0.0
C375 C 0.62361 0.34115 0.4061 0.0
O376 O 0.61792 0.38586 0.41852 0.0
Co377 Co 0.57983 0.34173 0.38943 0.0
O378 O 0.57681 0.35441 0.41826 0.0
C379 C 0.606 0.38478 0.35937 0.0
C380 C 0.67819 0.40446 0.3824 0.0
C381 C 0.59538 0.37434 0.42675 0.0
O382 O 0.62546 0.39575 0.37206 0.0
O383 O 0.58723 0.36218 0.3623 0.0
O384 O 0.64428 0.36024 0.41418 0.0
O385 O 0.61343 0.34642 0.39034 0.0
Co386 Co 0.28439 0.6513 0.56777 0.0
O387 O 0.31012 0.65333 0.58676 0.0
O388 O 0.2848 0.62025 0.56604 0.0
C389 C 0.30941 0.69003 0.55322 0.0
O390 O 0.25675 0.64272 0.54523 0.0
Co391 Co 0.26518 0.68831 0.57228 0.0
O392 O 0.24843 0.67391 0.54399 0.0
C393 C 0.24721 0.64608 0.60317 0.0
C394 C 0.30355 0.6309 0.57984 0.0
C395 C 0.2457 0.65338 0.5366 0.0
O396 O 0.25844 0.63705 0.59201 0.0
O397 O 0.24922 0.66723 0.59883 0.0
O398 O 0.31018 0.67076 0.54583 0.0
O399 O 0.29511 0.68575 0.57001 0.0
Co400 Co 0.64593 0.27762 0.725 0.0
O401 O 0.64634 0.30114 0.70446 0.0
O402 O 0.61392 0.27639 0.72598 0.0
C403 C 0.68455 0.3047 0.73945 0.0
O404 O 0.63855 0.25185 0.74879 0.0
Co405 Co 0.68525 0.26076 0.7227 0.0
O406 O 0.66932 0.24261 0.74996 0.0
C407 C 0.64219 0.23893 0.69192 0.0
C408 C 0.62359 0.29397 0.71129 0.0
C409 C 0.64886 0.24038 0.75722 0.0
O410 O 0.63257 0.25038 0.70184 0.0
O411 O 0.66374 0.24189 0.69689 0.0
O412 O 0.6646 0.305 0.74585 0.0
O413 O 0.68101 0.28962 0.72342 0.0
Co414 Co 0.3851 0.64424 0.89684 0.0
O415 O 0.3622 0.64484 0.87596 0.0
O416 O 0.3523 0.61323 0.8984 0.0
C417 C 0.40031 0.68382 0.9097 0.0
O418 O 0.40252 0.63685 0.92126 0.0
Co419 Co 0.44365 0.68104 0.89514 0.0
O420 O 0.44274 0.66947 0.92525 0.0
C421 C 0.41873 0.63743 0.86471 0.0
C422 C 0.34513 0.62272 0.8833 0.0
C423 C 0.42368 0.64869 0.93178 0.0
O424 O 0.3973 0.62883 0.87458 0.0
O425 O 0.43876 0.65864 0.86958 0.0
O426 O 0.3787 0.66512 0.91667 0.0
O427 O 0.41094 0.67839 0.89428 0.0
Co428 Co 0.75085 0.37682 0.06573 0.0
O429 O 0.72675 0.37523 0.08652 0.0
O430 O 0.7518 0.40861 0.06631 0.0
C431 C 0.72373 0.33887 0.05027 0.0
O432 O 0.77706 0.38508 0.04176 0.0
Co433 Co 0.76785 0.33785 0.06623 0.0
O434 O 0.78351 0.35277 0.03783 0.0
C435 C 0.78775 0.37842 0.09937 0.0
C436 C 0.73374 0.39806 0.08072 0.0
C437 C 0.78685 0.37388 0.03165 0.0
O438 O 0.77787 0.38923 0.08905 0.0
O439 O 0.78416 0.35682 0.09383 0.0
O440 O 0.72359 0.35893 0.04455 0.0
O441 O 0.7388 0.34198 0.06613 0.0
Co442 Co 0.37902 0.7434 0.22263 0.0
O443 O 0.37702 0.71841 0.20267 0.0
O444 O 0.41001 0.74269 0.22393 0.0
C445 C 0.33992 0.71844 0.23709 0.0
O446 O 0.38785 0.77027 0.2459 0.0
Co447 Co 0.34245 0.76337 0.21976 0.0
O448 O 0.35704 0.77925 0.24832 0.0
C449 C 0.38478 0.7813 0.18843 0.0
C450 C 0.39948 0.72462 0.20954 0.0
C451 C 0.37757 0.78142 0.2552 0.0
O452 O 0.39372 0.76988 0.19917 0.0
O453 O 0.36356 0.77939 0.19307 0.0
O454 O 0.35915 0.71717 0.24391 0.0
O455 O 0.34443 0.73321 0.22077 0.0
H456 H 0.20424 0.59543 0.29558 0.0
H457 H 0.18211 0.64947 0.28124 0.0
H458 H 0.24588 0.62359 0.27993 0.0
H459 H 0.22451 0.67843 0.26668 0.0
H460 H 0.29534 0.71265 0.22246 0.0
H461 H 0.25261 0.68488 0.23697 0.0
H462 H 0.28407 0.6623 0.28838 0.0
H463 H 0.32657 0.68938 0.27343 0.0
C464 C 0.20814 0.61324 0.28892 0.0
C465 C 0.18967 0.62006 0.28962 0.0
C466 C 0.23226 0.62963 0.28027 0.0
C467 C 0.23872 0.65345 0.27225 0.0
C468 C 0.22016 0.66018 0.2726 0.0
C469 C 0.19591 0.64367 0.28116 0.0
C470 C 0.29309 0.70182 0.23692 0.0
C471 C 0.31427 0.70306 0.24673 0.0
C472 C 0.26861 0.68598 0.2453 0.0
C473 C 0.26481 0.67115 0.26375 0.0
C474 C 0.28618 0.67299 0.27387 0.0
C475 C 0.31059 0.68867 0.26541 0.0
H476 H 0.59532 0.19883 0.45929 0.0
H477 H 0.52054 0.18516 0.44486 0.0
H478 H 0.61459 0.24151 0.44492 0.0
H479 H 0.53973 0.22825 0.43155 0.0
H480 H 0.58279 0.29834 0.38961 0.0
H481 H 0.56426 0.25511 0.4023 0.0
H482 H 0.61968 0.28169 0.45413 0.0
H483 H 0.63872 0.32499 0.44094 0.0
C484 C 0.58298 0.20483 0.45289 0.0
C485 C 0.55635 0.1885 0.4532 0.0
C486 C 0.59403 0.22947 0.44496 0.0
C487 C 0.57874 0.23842 0.4372 0.0
C488 C 0.55213 0.22195 0.43721 0.0
C489 C 0.54109 0.19729 0.44506 0.0
C490 C 0.59102 0.29497 0.40373 0.0
C491 C 0.6122 0.31506 0.4143 0.0
C492 C 0.5803 0.27017 0.41107 0.0
C493 C 0.59042 0.26486 0.42926 0.0
C494 C 0.61162 0.28503 0.43988 0.0
C495 C 0.62243 0.30987 0.43244 0.0
H496 H 0.42433 0.60159 0.60127 0.0
H497 H 0.36002 0.5402 0.63471 0.0
H498 H 0.39716 0.6166 0.58845 0.0
H499 H 0.33274 0.5548 0.62104 0.0
H500 H 0.29056 0.58148 0.57433 0.0
H501 H 0.31583 0.56289 0.58454 0.0
H502 H 0.37449 0.63522 0.61003 0.0
H503 H 0.34936 0.65364 0.60023 0.0
C504 C 0.40441 0.59117 0.6058 0.0
C505 C 0.39453 0.56983 0.61931 0.0
C506 C 0.38884 0.59973 0.59835 0.0
C507 C 0.36292 0.58697 0.60391 0.0
C508 C 0.35264 0.56489 0.61641 0.0
C509 C 0.36831 0.5565 0.62415 0.0
C510 C 0.3088 0.59333 0.58219 0.0
C511 C 0.31796 0.619 0.5865 0.0
C512 C 0.3232 0.58269 0.58805 0.0
C513 C 0.34719 0.59771 0.59788 0.0
C514 C 0.35622 0.62331 0.60221 0.0
C515 C 0.34171 0.63378 0.59673 0.0
H516 H 0.81338 0.41441 0.8177 0.0
H517 H 0.84777 0.39781 0.7642 0.0
H518 H 0.77122 0.38369 0.80386 0.0
H519 H 0.8056 0.36807 0.74936 0.0
H520 H 0.72633 0.30021 0.73741 0.0
H521 H 0.76838 0.32877 0.75288 0.0
H522 H 0.74218 0.37695 0.77724 0.0
H523 H 0.69998 0.34756 0.76296 0.0
C524 C 0.8118 0.40435 0.80275 0.0
C525 C 0.8337 0.40849 0.79191 0.0
C526 C 0.78764 0.38683 0.7947 0.0
C527 C 0.78478 0.37339 0.77532 0.0
C528 C 0.80689 0.37765 0.7645 0.0
C529 C 0.83108 0.39483 0.77285 0.0
C530 C 0.72963 0.31684 0.74624 0.0
C531 C 0.70991 0.32163 0.74908 0.0
C532 C 0.7538 0.33338 0.75496 0.0
C533 C 0.7589 0.35534 0.76637 0.0
C534 C 0.73901 0.36004 0.76905 0.0
C535 C 0.71477 0.34325 0.76072 0.0
H536 H 0.44391 0.83863 0.93847 0.0
H537 H 0.49581 0.82663 0.9762 0.0
H538 H 0.42269 0.79481 0.92569 0.0
H539 H 0.47547 0.78355 0.96225 0.0
H540 H 0.45027 0.72116 0.90767 0.0
H541 H 0.4702 0.76436 0.92178 0.0
H542 H 0.3974 0.74849 0.9457 0.0
H543 H 0.37741 0.70484 0.93207 0.0
C544 C 0.45084 0.82681 0.9441 0.0
C545 C 0.47178 0.83646 0.95835 0.0
C546 C 0.4387 0.80174 0.93668 0.0
C547 C 0.44753 0.78595 0.94299 0.0
C548 C 0.46848 0.79549 0.95701 0.0
C549 C 0.48028 0.82032 0.96479 0.0
C550 C 0.43852 0.72681 0.91604 0.0
C551 C 0.4123 0.70965 0.91884 0.0
C552 C 0.44994 0.7515 0.92412 0.0
C553 C 0.43528 0.75967 0.93472 0.0
C554 C 0.40904 0.7426 0.93746 0.0
C555 C 0.39768 0.71767 0.9298 0.0
H556 H 0.64773 0.4732 0.09164 0.0
H557 H 0.63974 0.43888 0.15414 0.0
H558 H 0.67756 0.46024 0.08038 0.0
H559 H 0.67012 0.42692 0.1435 0.0
H560 H 0.6936 0.37799 0.10842 0.0
H561 H 0.66893 0.39597 0.12042 0.0
H562 H 0.71858 0.46427 0.08458 0.0
H563 H 0.743 0.44564 0.07182 0.0
C564 C 0.65276 0.46329 0.10304 0.0
C565 C 0.64122 0.45663 0.12358 0.0
C566 C 0.6699 0.45597 0.09669 0.0
C567 C 0.67597 0.44214 0.11091 0.0
C568 C 0.66538 0.43686 0.13189 0.0
C569 C 0.64808 0.44382 0.13806 0.0
C570 C 0.69947 0.39694 0.10319 0.0
C571 C 0.72032 0.4104 0.0892 0.0
C572 C 0.68536 0.40737 0.11021 0.0
C573 C 0.69182 0.43172 0.10364 0.0
C574 C 0.71293 0.4454 0.08982 0.0
C575 C 0.72704 0.43482 0.08265 0.0
H576 H 0.43025 0.84383 0.52857 0.0
H577 H 0.38022 0.82586 0.47363 0.0
H578 H 0.40045 0.80214 0.54417 0.0
H579 H 0.35076 0.784 0.48896 0.0
H580 H 0.3303 0.70232 0.51271 0.0
H581 H 0.35732 0.74481 0.49762 0.0
H582 H 0.35101 0.77762 0.55754 0.0
H583 H 0.32345 0.73517 0.57247 0.0
C584 C 0.4128 0.83099 0.51996 0.0
C585 C 0.40737 0.83799 0.50002 0.0
C586 C 0.3958 0.80726 0.52886 0.0
C587 C 0.37342 0.78998 0.51769 0.0
C588 C 0.36794 0.79703 0.49781 0.0
C589 C 0.38466 0.82095 0.48915 0.0
C590 C 0.33454 0.71861 0.52257 0.0
C591 C 0.3248 0.7155 0.54373 0.0
C592 C 0.34989 0.74284 0.51393 0.0
C593 C 0.35621 0.76436 0.52649 0.0
C594 C 0.34644 0.76127 0.54761 0.0
C595 C 0.33062 0.73703 0.55607 0.0
H596 H 0.55642 0.36651 0.64064 0.0
H597 H 0.57274 0.39926 0.70503 0.0
H598 H 0.56908 0.33688 0.65185 0.0
H599 H 0.58527 0.3694 0.71629 0.0
H600 H 0.5849 0.29574 0.73139 0.0
H601 H 0.56599 0.32036 0.72043 0.0
H602 H 0.61344 0.34528 0.66322 0.0
H603 H 0.63262 0.32115 0.67429 0.0
C604 C 0.56222 0.36702 0.65732 0.0
C605 C 0.56356 0.38515 0.67199 0.0
C606 C 0.56964 0.3502 0.66366 0.0
C607 C 0.57818 0.35091 0.68491 0.0
C608 C 0.57858 0.36835 0.69986 0.0
C609 C 0.57156 0.38549 0.6934 0.0
C610 C 0.59104 0.30624 0.71635 0.0
C611 C 0.61024 0.30656 0.70369 0.0
C612 C 0.58034 0.32042 0.71017 0.0
C613 C 0.58828 0.3347 0.69101 0.0
C614 C 0.60684 0.33428 0.67799 0.0
C615 C 0.61787 0.32055 0.68437 0.0
H616 H 0.1916 0.58422 0.85348 0.0
H617 H 0.19522 0.52089 0.82816 0.0
H618 H 0.2351 0.60337 0.86689 0.0
H619 H 0.23831 0.53971 0.84237 0.0
H620 H 0.3073 0.57355 0.89029 0.0
H621 H 0.26277 0.55261 0.87868 0.0
H622 H 0.27826 0.62156 0.84775 0.0
H623 H 0.3227 0.64241 0.85912 0.0
C624 C 0.20155 0.57429 0.85083 0.0
C625 C 0.18983 0.55104 0.83955 0.0
C626 C 0.22645 0.58526 0.85858 0.0
C627 C 0.2401 0.57309 0.85553 0.0
C628 C 0.22814 0.54941 0.84508 0.0
C629 C 0.20335 0.53858 0.83706 0.0
C630 C 0.30119 0.58418 0.88093 0.0
C631 C 0.31848 0.6096 0.87559 0.0
C632 C 0.27575 0.57219 0.87428 0.0
C633 C 0.26707 0.58554 0.86247 0.0
C634 C 0.28439 0.61093 0.85707 0.0
C635 C 0.30986 0.62278 0.86344 0.0
H636 H 0.62115 0.17696 0.02958 0.0
H637 H 0.61422 0.21094 0.97117 0.0
H638 H 0.65237 0.21892 0.04377 0.0
H639 H 0.64601 0.25268 0.98477 0.0
H640 H 0.68301 0.32542 0.02413 0.0
H641 H 0.65222 0.28351 0.01021 0.0
H642 H 0.69446 0.25363 0.04009 0.0
H643 H 0.72462 0.29552 0.05486 0.0
C644 C 0.62646 0.19344 0.01975 0.0
C645 C 0.61508 0.19076 0.99941 0.0
C646 C 0.64447 0.21748 0.02778 0.0
C647 C 0.65176 0.23933 0.01547 0.0
C648 C 0.64052 0.23645 0.99496 0.0
C649 C 0.62231 0.2125 0.98712 0.0
C650 C 0.68579 0.30992 0.02762 0.0
C651 C 0.70621 0.31374 0.04058 0.0
C652 C 0.66817 0.28584 0.01955 0.0
C653 C 0.67076 0.26503 0.02398 0.0
C654 C 0.69154 0.26904 0.03665 0.0
C655 C 0.70898 0.2931 0.04497 0.0
H656 H 0.49436 0.66149 0.17638 0.0
H657 H 0.41579 0.60003 0.1735 0.0
H658 H 0.48039 0.69062 0.18644 0.0
H659 H 0.40208 0.62867 0.18444 0.0
H660 H 0.38303 0.68887 0.17767 0.0
H661 H 0.40018 0.66267 0.16769 0.0
H662 H 0.45986 0.7014 0.21541 0.0
H663 H 0.44291 0.72817 0.22511 0.0
C664 C 0.47417 0.65413 0.1781 0.0
C665 C 0.45624 0.62836 0.17413 0.0
C666 C 0.46618 0.67078 0.18402 0.0
C667 C 0.4401 0.66203 0.18599 0.0
C668 C 0.4223 0.63616 0.18267 0.0
C669 C 0.43023 0.6196 0.17675 0.0
C670 C 0.39993 0.69198 0.18593 0.0
C671 C 0.41151 0.71048 0.20228 0.0
C672 C 0.40967 0.67682 0.18032 0.0
C673 C 0.43116 0.67965 0.191 0.0
C674 C 0.44333 0.69879 0.20683 0.0
C675 C 0.43359 0.71407 0.21241 0.0
H676 H 0.82349 0.47975 0.31355 0.0
H677 H 0.83671 0.45568 0.3751 0.0
H678 H 0.78037 0.46701 0.32522 0.0
H679 H 0.79367 0.44324 0.38688 0.0
H680 H 0.71942 0.44135 0.40471 0.0
H681 H 0.76435 0.46222 0.39401 0.0
H682 H 0.7422 0.42105 0.33329 0.0
H683 H 0.6975 0.39985 0.34409 0.0
C684 C 0.81738 0.47234 0.32978 0.0
C685 C 0.83337 0.46867 0.34345 0.0
C686 C 0.7927 0.46491 0.33637 0.0
C687 C 0.78374 0.4541 0.35691 0.0
C688 C 0.8002 0.45169 0.37103 0.0
C689 C 0.82473 0.45869 0.36428 0.0
C690 C 0.72418 0.43702 0.38898 0.0
C691 C 0.70502 0.41894 0.37525 0.0
C692 C 0.74983 0.44887 0.38293 0.0
C693 C 0.75666 0.44325 0.36283 0.0
C694 C 0.73742 0.42588 0.34879 0.0
C695 C 0.71188 0.41367 0.35502 0.0
H696 H 0.13947 0.55018 0.43782 0.0
H697 H 0.16292 0.62531 0.41578 0.0
H698 H 0.16604 0.56831 0.47014 0.0
H699 H 0.18961 0.64341 0.44778 0.0
H700 H 0.21493 0.66709 0.51712 0.0
H701 H 0.18704 0.64751 0.4861 0.0
H702 H 0.21019 0.59277 0.48143 0.0
H703 H 0.23774 0.61202 0.51301 0.0
C704 C 0.15033 0.57056 0.43987 0.0
C705 C 0.14891 0.58629 0.42432 0.0
C706 C 0.16564 0.58096 0.45834 0.0
C707 C 0.17995 0.60734 0.46163 0.0
C708 C 0.17847 0.623 0.44604 0.0
C709 C 0.16312 0.61262 0.42767 0.0
C710 C 0.21414 0.65088 0.50954 0.0
C711 C 0.22871 0.64122 0.51759 0.0
C712 C 0.19818 0.6397 0.49163 0.0
C713 C 0.19643 0.61862 0.48115 0.0
C714 C 0.21084 0.6088 0.48926 0.0
C715 C 0.22677 0.61994 0.50729 0.0
H716 H 0.59954 0.14011 0.57958 0.0
H717 H 0.53302 0.14502 0.5914 0.0
H718 H 0.62025 0.16697 0.61091 0.0
H719 H 0.55287 0.17004 0.62384 0.0
H720 H 0.60661 0.23896 0.66542 0.0
H721 H 0.5844 0.21071 0.63488 0.0
H722 H 0.62177 0.1695 0.64852 0.0
H723 H 0.64486 0.19856 0.67817 0.0
C724 C 0.58919 0.14669 0.58894 0.0
C725 C 0.56461 0.14042 0.58274 0.0
C726 C 0.60096 0.16185 0.6072 0.0
C727 C 0.58832 0.17083 0.62003 0.0
C728 C 0.56343 0.16391 0.61421 0.0
C729 C 0.55181 0.14908 0.59575 0.0
C730 C 0.61 0.22382 0.66186 0.0
C731 C 0.62764 0.22113 0.67405 0.0
C732 C 0.59714 0.20747 0.64443 0.0
C733 C 0.6013 0.18776 0.63905 0.0
C734 C 0.61848 0.18476 0.65173 0.0
C735 C 0.63165 0.20136 0.66886 0.0
H736 H 0.47111 0.56904 0.77074 0.0
H737 H 0.39952 0.55459 0.74512 0.0
H738 H 0.46379 0.58582 0.80406 0.0
H739 H 0.39232 0.57169 0.77831 0.0
H740 H 0.38085 0.59221 0.84722 0.0
H741 H 0.38473 0.568 0.81754 0.0
H742 H 0.46484 0.62447 0.8121 0.0
H743 H 0.46121 0.64824 0.84175 0.0
C744 C 0.4537 0.56925 0.77234 0.0
C745 C 0.43601 0.56072 0.75525 0.0
C746 C 0.44953 0.57893 0.79138 0.0
C747 C 0.42765 0.58047 0.79372 0.0
C748 C 0.40927 0.57062 0.77712 0.0
C749 C 0.4134 0.56081 0.75809 0.0
C750 C 0.39932 0.59936 0.83976 0.0
C751 C 0.42069 0.62224 0.84691 0.0
C752 C 0.40151 0.58552 0.82271 0.0
C753 C 0.42513 0.5942 0.81253 0.0
C754 C 0.44646 0.61694 0.81983 0.0
C755 C 0.44429 0.63074 0.83676 0.0
H756 H 0.86161 0.40308 0.90634 0.0
H757 H 0.8963 0.47742 0.9356 0.0
H758 H 0.83532 0.3847 0.93844 0.0
H759 H 0.86991 0.45893 0.96791 0.0
H760 H 0.79878 0.41861 0.0121 0.0
H761 H 0.82558 0.43809 0.98018 0.0
H762 H 0.83915 0.3765 0.97595 0.0
H763 H 0.81214 0.35683 0.00734 0.0
C764 C 0.86392 0.41548 0.91977 0.0
C765 C 0.88125 0.44171 0.91845 0.0
C766 C 0.84878 0.40493 0.93819 0.0
C767 C 0.85054 0.42031 0.95581 0.0
C768 C 0.86784 0.44658 0.95452 0.0
C769 C 0.88302 0.45716 0.93604 0.0
C770 C 0.80746 0.40921 0.00434 0.0
C771 C 0.80316 0.38607 0.01231 0.0
C772 C 0.82296 0.42047 0.98612 0.0
C773 C 0.83446 0.40882 0.97545 0.0
C774 C 0.83027 0.3858 0.98353 0.0
C775 C 0.81483 0.37457 0.00166 0.0
H776 H 0.45543 0.90316 0.09436 0.0
H777 H 0.48465 0.85525 0.07764 0.0
H778 H 0.43216 0.87553 0.12476 0.0
H779 H 0.4612 0.82747 0.10784 0.0
H780 H 0.43325 0.79539 0.17588 0.0
H781 H 0.45861 0.82438 0.14689 0.0
H782 H 0.39589 0.83377 0.13055 0.0
H783 H 0.37081 0.80541 0.15976 0.0
C784 C 0.45685 0.88671 0.09718 0.0
C785 C 0.47187 0.8814 0.0836 0.0
C786 C 0.44347 0.87082 0.11455 0.0
C787 C 0.44467 0.84917 0.11868 0.0
C788 C 0.4601 0.84415 0.10533 0.0
C789 C 0.47356 0.86009 0.08801 0.0
C790 C 0.42484 0.8036 0.16609 0.0
C791 C 0.39998 0.79808 0.17025 0.0
C792 C 0.43937 0.82017 0.14941 0.0
C793 C 0.42936 0.83155 0.13646 0.0
C794 C 0.40441 0.82577 0.14047 0.0
C795 C 0.38993 0.80931 0.15716 0.0
H796 H 0.54796 0.41782 0.24642 0.0
H797 H 0.617 0.48989 0.2588 0.0
H798 H 0.55511 0.40089 0.27878 0.0
H799 H 0.62555 0.47183 0.29019 0.0
H800 H 0.62238 0.43521 0.35627 0.0
H801 H 0.61533 0.45618 0.32592 0.0
H802 H 0.5808 0.38608 0.28928 0.0
H803 H 0.58644 0.36516 0.31991 0.0
C804 C 0.5646 0.43028 0.25607 0.0
C805 C 0.5819 0.45537 0.24968 0.0
C806 C 0.56905 0.42026 0.27451 0.0
C807 C 0.59131 0.43468 0.28689 0.0
C808 C 0.60821 0.46007 0.28108 0.0
C809 C 0.60346 0.47034 0.26281 0.0
C810 C 0.6134 0.42447 0.34162 0.0
C811 C 0.60464 0.39853 0.34048 0.0
C812 C 0.60939 0.43644 0.3242 0.0
C813 C 0.59697 0.42275 0.30521 0.0
C814 C 0.58952 0.39709 0.30386 0.0
C815 C 0.59299 0.38509 0.32135 0.0
H816 H 0.46226 0.85416 0.37391 0.0
H817 H 0.43478 0.90161 0.35194 0.0
H818 H 0.44401 0.82731 0.34177 0.0
H819 H 0.41713 0.8753 0.31951 0.0
H820 H 0.36056 0.80587 0.28072 0.0
H821 H 0.38198 0.83401 0.31128 0.0
H822 H 0.44582 0.82391 0.30299 0.0
H823 H 0.42402 0.79508 0.27267 0.0
C824 C 0.45282 0.85916 0.36192 0.0
C825 C 0.4498 0.87986 0.36544 0.0
C826 C 0.44235 0.84379 0.34351 0.0
C827 C 0.4288 0.84894 0.32816 0.0
C828 C 0.42687 0.87039 0.33125 0.0
C829 C 0.43712 0.88558 0.34973 0.0
C830 C 0.37915 0.80957 0.28538 0.0
C831 C 0.39054 0.79818 0.27416 0.0
C832 C 0.39156 0.82593 0.30284 0.0
C833 C 0.41577 0.83147 0.3095 0.0
C834 C 0.42711 0.81993 0.29841 0.0
C835 C 0.41463 0.80345 0.28096 0.0
H836 H 0.53824 0.39473 0.54956 0.0
H837 H 0.59874 0.47026 0.53298 0.0
H838 H 0.54572 0.37851 0.51608 0.0
H839 H 0.60599 0.45416 0.49917 0.0
H840 H 0.63049 0.41215 0.45334 0.0
H841 H 0.62255 0.42906 0.4862 0.0
H842 H 0.54155 0.37796 0.47769 0.0
H843 H 0.54948 0.36052 0.44528 0.0
C844 C 0.55285 0.40794 0.53854 0.0
C845 C 0.56785 0.43378 0.54388 0.0
C846 C 0.55716 0.39865 0.51932 0.0
C847 C 0.57649 0.415 0.50487 0.0
C848 C 0.59124 0.44094 0.51008 0.0
C849 C 0.58702 0.45021 0.5294 0.0
C850 C 0.61098 0.40451 0.45847 0.0
C851 C 0.59064 0.38488 0.44667 0.0
C852 C 0.60641 0.41434 0.47726 0.0
C853 C 0.58139 0.4049 0.48465 0.0
C854 C 0.56108 0.38542 0.47272 0.0
C855 C 0.56564 0.37548 0.45404 0.0
H856 H 0.13552 0.52747 0.68833 0.0
H857 H 0.16492 0.59673 0.72533 0.0
H858 H 0.16348 0.55141 0.65813 0.0
H859 H 0.19279 0.62055 0.69529 0.0
H860 H 0.21931 0.65822 0.62954 0.0
H861 H 0.19093 0.63361 0.65891 0.0
H862 H 0.20869 0.57554 0.64831 0.0
H863 H 0.23689 0.6 0.61842 0.0
C864 C 0.14796 0.54779 0.69003 0.0
C865 C 0.14785 0.5602 0.7092 0.0
C866 C 0.16404 0.56149 0.67276 0.0
C867 C 0.18038 0.5879 0.67428 0.0
C868 C 0.18015 0.60029 0.69342 0.0
C869 C 0.16409 0.58662 0.71063 0.0
C870 C 0.2173 0.64024 0.63342 0.0
C871 C 0.2305 0.63116 0.62155 0.0
C872 C 0.20105 0.62616 0.65038 0.0
C873 C 0.19756 0.60262 0.65602 0.0
C874 C 0.21073 0.59347 0.64421 0.0
C875 C 0.22704 0.60759 0.62717 0.0
H876 H 0.5527 0.15153 0.86623 0.0
H877 H 0.61449 0.13757 0.86411 0.0
H878 H 0.56865 0.17641 0.83334 0.0
H879 H 0.63179 0.16442 0.83263 0.0
H880 H 0.64887 0.19761 0.76624 0.0
H881 H 0.62825 0.1686 0.79616 0.0
H882 H 0.60032 0.21542 0.82029 0.0
H883 H 0.61969 0.24353 0.78929 0.0
C884 C 0.5696 0.15359 0.85874 0.0
C885 C 0.58228 0.14248 0.86802 0.0
C886 C 0.57908 0.16836 0.84002 0.0
C887 C 0.60173 0.17278 0.83025 0.0
C888 C 0.61413 0.16129 0.83936 0.0
C889 C 0.60439 0.14614 0.85778 0.0
C890 C 0.63826 0.20165 0.77794 0.0
C891 C 0.63605 0.22293 0.77555 0.0
C892 C 0.62652 0.18507 0.79524 0.0
C893 C 0.61277 0.18966 0.81098 0.0
C894 C 0.61038 0.21093 0.80841 0.0
C895 C 0.62165 0.22722 0.79074 0.0
H896 H 0.48775 0.61623 0.04257 0.0
H897 H 0.41023 0.55242 0.04059 0.0
H898 H 0.48 0.63306 0.01024 0.0
H899 H 0.40173 0.5707 0.0095 0.0
H900 H 0.40005 0.59845 0.94154 0.0
H901 H 0.40762 0.57936 0.97278 0.0
H902 H 0.46062 0.65405 0.9985 0.0
H903 H 0.45417 0.67286 0.96658 0.0
C904 C 0.46904 0.60564 0.03525 0.0
C905 C 0.44967 0.58284 0.04439 0.0
C906 C 0.4644 0.61567 0.01686 0.0
C907 C 0.44008 0.60356 0.00728 0.0
C908 C 0.42078 0.58057 0.01621 0.0
C909 C 0.42557 0.57024 0.03436 0.0
C910 C 0.41324 0.61071 0.95396 0.0
C911 C 0.42665 0.63713 0.95158 0.0
C912 C 0.41753 0.59979 0.97196 0.0
C913 C 0.43495 0.61506 0.98825 0.0
C914 C 0.44766 0.64156 0.98609 0.0
C915 C 0.44379 0.65242 0.96787 0.0
H916 H 0.89994 0.42951 0.20329 0.0
H917 H 0.85681 0.46468 0.21793 0.0
H918 H 0.87605 0.41243 0.16963 0.0
H919 H 0.8325 0.44721 0.18453 0.0
H920 H 0.80546 0.42678 0.11431 0.0
H921 H 0.83297 0.44788 0.14557 0.0
H922 H 0.83416 0.38021 0.15927 0.0
H923 H 0.80748 0.3595 0.12787 0.0
C924 C 0.88536 0.4336 0.19928 0.0
C925 C 0.8802 0.44836 0.21329 0.0
C926 C 0.87157 0.42375 0.18004 0.0
C927 C 0.85212 0.4282 0.17443 0.0
C928 C 0.84751 0.44362 0.18816 0.0
C929 C 0.86144 0.45363 0.20733 0.0
C930 C 0.81165 0.41644 0.12397 0.0
C931 C 0.80426 0.39143 0.11848 0.0
C932 C 0.82736 0.42851 0.14196 0.0
C933 C 0.83594 0.41582 0.15492 0.0
C934 C 0.82842 0.3908 0.14943 0.0
C935 C 0.81289 0.37882 0.13145 0.0
loop_
_geom_bond_atom_site_label_1
_geom_bond_atom_site_label_2
_geom_bond_distance
_geom_bond_site_symmetry_2
_ccdc_geom_bond_type
H0 C27 0.929 . S
N1 C26 1.433 . S
N1 C32 1.435 . S
N1 C38 1.423 . S
H2 C28 0.930 . S
H3 C31 0.931 . S
H4 C30 0.929 . S
H5 C33 0.930 . S
H6 C34 0.932 . S
H7 C37 0.929 . S
H8 C36 0.931 . S
H9 C39 0.929 . S
H10 C43 0.932 . S
H11 C40 0.931 . S
H12 C42 0.929 . S
H13 C45 0.929 . S
H14 C46 0.930 . S
H15 C48 0.929 . S
H16 C49 0.931 . S
H17 C51 0.930 . S
H18 C52 0.932 . S
H19 C54 0.931 . S
H20 C55 0.929 . S
H21 C57 0.929 . S
H22 C58 0.931 . S
H23 C60 0.929 . S
N24 C44 1.433 . S
N24 C50 1.435 . S
N24 C56 1.423 . S
H25 C61 0.932 . S
C26 N1 1.433 . S
C26 C27 1.363 . S
C26 C31 1.370 . S
C27 H0 0.929 . S
C27 C26 1.363 . S
C27 C28 1.385 . S
C28 H2 0.930 . S
C28 C27 1.385 . S
C28 C29 1.357 . S
C29 C28 1.357 . S
C29 C30 1.406 . S
C30 H4 0.929 . S
C30 C29 1.406 . S
C30 C31 1.391 . S
C31 H3 0.931 . S
C31 C26 1.370 . S
C31 C30 1.391 . S
C32 N1 1.435 . S
C32 C33 1.358 . S
C32 C37 1.371 . S
C33 H5 0.930 . S
C33 C32 1.358 . S
C33 C34 1.405 . S
C34 H6 0.932 . S
C34 C33 1.405 . S
C34 C35 1.383 . S
C35 C34 1.383 . S
C35 C36 1.393 . S
C36 H8 0.931 . S
C36 C35 1.393 . S
C36 C37 1.382 . S
C37 H7 0.929 . S
C37 C32 1.371 . S
C37 C36 1.382 . S
C38 N1 1.423 . S
C38 C39 1.362 . S
C38 C43 1.388 . S
C39 H9 0.929 . S
C39 C38 1.362 . S
C39 C40 1.376 . S
C40 H11 0.931 . S
C40 C39 1.376 . S
C40 C41 1.396 . S
C41 C40 1.396 . S
C41 C42 1.348 . S
C41 C59 1.472 1_455 S
C42 H12 0.929 . S
C42 C41 1.348 . S
C42 C43 1.443 . S
C43 H10 0.932 . S
C43 C38 1.388 . S
C43 C42 1.443 . S
C44 N24 1.433 . S
C44 C45 1.363 . S
C44 C49 1.370 . S
C45 H13 0.929 . S
C45 C44 1.363 . S
C45 C46 1.385 . S
C46 H14 0.930 . S
C46 C45 1.385 . S
C46 C47 1.357 . S
C47 C46 1.357 . S
C47 C48 1.406 . S
C48 H15 0.929 . S
C48 C47 1.406 . S
C48 C49 1.391 . S
C49 H16 0.931 . S
C49 C44 1.370 . S
C49 C48 1.391 . S
C50 N24 1.435 . S
C50 C51 1.358 . S
C50 C55 1.371 . S
C51 H17 0.930 . S
C51 C50 1.358 . S
C51 C52 1.405 . S
C52 H18 0.932 . S
C52 C51 1.405 . S
C52 C53 1.383 . S
C53 C52 1.383 . S
C53 C54 1.393 . S
C54 H19 0.931 . S
C54 C53 1.393 . S
C54 C55 1.382 . S
C55 H20 0.929 . S
C55 C50 1.371 . S
C55 C54 1.382 . S
C56 N24 1.423 . S
C56 C57 1.362 . S
C56 C61 1.388 . S
C57 H21 0.929 . S
C57 C56 1.362 . S
C57 C58 1.376 . S
C58 H22 0.931 . S
C58 C57 1.376 . S
C58 C59 1.396 . S
C59 C41 1.472 1_655 S
C59 C58 1.396 . S
C59 C60 1.348 . S
C60 H23 0.929 . S
C60 C59 1.348 . S
C60 C61 1.443 . S
C61 H25 0.932 . S
C61 C56 1.388 . S
C61 C60 1.443 . S
H62 C89 0.929 . S
N63 C88 1.433 . S
N63 C94 1.435 . S
N63 C100 1.423 . S
H64 C90 0.930 . S
H65 C93 0.931 . S
H66 C92 0.929 . S
H67 C95 0.930 . S
H68 C96 0.932 . S
H69 C99 0.929 . S
H70 C98 0.931 . S
H71 C101 0.929 . S
H72 C105 0.932 . S
H73 C102 0.931 . S
H74 C104 0.929 1_545 S
H75 C107 0.929 . S
H76 C108 0.930 . S
H77 C110 0.929 . S
H78 C111 0.931 . S
H79 C113 0.930 . S
H80 C114 0.932 . S
H81 C116 0.931 . S
H82 C117 0.929 . S
H83 C119 0.929 . S
H84 C120 0.931 . S
H85 C122 0.929 . S
N86 C106 1.433 . S
N86 C112 1.435 . S
N86 C118 1.423 . S
H87 C123 0.932 . S
C88 N63 1.433 . S
C88 C89 1.363 . S
C88 C93 1.370 . S
C89 H62 0.929 . S
C89 C88 1.363 . S
C89 C90 1.385 . S
C90 H64 0.930 . S
C90 C89 1.385 . S
C90 C91 1.357 . S
C91 C90 1.357 . S
C91 C92 1.406 . S
C92 H66 0.929 . S
C92 C91 1.406 . S
C92 C93 1.391 . S
C93 H65 0.931 . S
C93 C88 1.370 . S
C93 C92 1.391 . S
C94 N63 1.435 . S
C94 C95 1.358 . S
C94 C99 1.371 . S
C95 H67 0.930 . S
C95 C94 1.358 . S
C95 C96 1.405 . S
C96 H68 0.932 . S
C96 C95 1.405 . S
C96 C97 1.383 . S
C97 C96 1.383 . S
C97 C98 1.393 . S
C98 H70 0.931 . S
C98 C97 1.393 . S
C98 C99 1.382 . S
C99 H69 0.929 . S
C99 C94 1.371 . S
C99 C98 1.382 . S
C100 N63 1.423 . S
C100 C101 1.362 . S
C100 C105 1.388 . S
C101 H71 0.929 . S
C101 C100 1.362 . S
C101 C102 1.376 . S
C102 H73 0.931 . S
C102 C101 1.376 . S
C102 C103 1.396 1_565 S
C103 C102 1.396 1_545 S
C103 C104 1.348 1_545 S
C103 C121 1.472 . S
C104 H74 0.929 1_565 S
C104 C103 1.348 1_565 S
C104 C105 1.443 . S
C105 H72 0.932 . S
C105 C100 1.388 . S
C105 C104 1.443 . S
C106 N86 1.433 . S
C106 C107 1.363 . S
C106 C111 1.370 . S
C107 H75 0.929 . S
C107 C106 1.363 . S
C107 C108 1.385 . S
C108 H76 0.930 . S
C108 C107 1.385 . S
C108 C109 1.357 . S
C109 C108 1.357 . S
C109 C110 1.406 . S
C110 H77 0.929 . S
C110 C109 1.406 . S
C110 C111 1.391 . S
C111 H78 0.931 . S
C111 C106 1.370 . S
C111 C110 1.391 . S
C112 N86 1.435 . S
C112 C113 1.358 . S
C112 C117 1.371 . S
C113 H79 0.930 . S
C113 C112 1.358 . S
C113 C114 1.405 . S
C114 H80 0.932 . S
C114 C113 1.405 . S
C114 C115 1.383 . S
C115 C114 1.383 . S
C115 C116 1.393 . S
C116 H81 0.931 . S
C116 C115 1.393 . S
C116 C117 1.382 . S
C117 H82 0.929 . S
C117 C112 1.371 . S
C117 C116 1.382 . S
C118 N86 1.423 . S
C118 C119 1.362 . S
C118 C123 1.388 . S
C119 H83 0.929 . S
C119 C118 1.362 . S
C119 C120 1.376 . S
C120 H84 0.931 . S
C120 C119 1.376 . S
C120 C121 1.396 . S
C121 C103 1.472 . S
C121 C120 1.396 . S
C121 C122 1.348 . S
C122 H85 0.929 . S
C122 C121 1.348 . S
C122 C123 1.443 . S
C123 H87 0.932 . S
C123 C118 1.388 . S
C123 C122 1.443 . S
H124 C151 0.929 . S
N125 C150 1.433 . S
N125 C156 1.435 . S
N125 C162 1.423 . S
H126 C152 0.930 . S
H127 C155 0.931 . S
H128 C154 0.929 . S
H129 C157 0.930 . S
H130 C158 0.932 . S
H131 C161 0.929 . S
H132 C160 0.931 . S
H133 C163 0.929 . S
H134 C167 0.932 . S
H135 C164 0.931 . S
H136 C166 0.929 . S
H137 C169 0.929 . S
H138 C170 0.930 . S
H139 C172 0.929 . S
H140 C173 0.931 . S
H141 C175 0.930 . S
H142 C176 0.932 . S
H143 C178 0.931 . S
H144 C179 0.929 . S
H145 C181 0.929 . S
H146 C182 0.931 . S
H147 C184 0.929 . S
N148 C168 1.433 . S
N148 C174 1.435 . S
N148 C180 1.423 . S
H149 C185 0.932 . S
C150 N125 1.433 . S
C150 C151 1.363 . S
C150 C155 1.370 . S
C151 H124 0.929 . S
C151 C150 1.363 . S
C151 C152 1.385 . S
C152 H126 0.930 . S
C152 C151 1.385 . S
C152 C153 1.357 . S
C153 C152 1.357 . S
C153 C154 1.406 . S
C154 H128 0.929 . S
C154 C153 1.406 . S
C154 C155 1.391 . S
C155 H127 0.931 . S
C155 C150 1.370 . S
C155 C154 1.391 . S
C156 N125 1.435 . S
C156 C157 1.358 . S
C156 C161 1.371 . S
C157 H129 0.930 . S
C157 C156 1.358 . S
C157 C158 1.405 . S
C158 H130 0.932 . S
C158 C157 1.405 . S
C158 C159 1.383 . S
C159 C158 1.383 . S
C159 C160 1.393 . S
C160 H132 0.931 . S
C160 C159 1.393 . S
C160 C161 1.382 . S
C161 H131 0.929 . S
C161 C156 1.371 . S
C161 C160 1.382 . S
C162 N125 1.423 . S
C162 C163 1.362 . S
C162 C167 1.388 . S
C163 H133 0.929 . S
C163 C162 1.362 . S
C163 C164 1.376 . S
C164 H135 0.931 . S
C164 C163 1.376 . S
C164 C165 1.396 . S
C165 C164 1.396 . S
C165 C166 1.348 . S
C165 C183 1.472 . S
C166 H136 0.929 . S
C166 C165 1.348 . S
C166 C167 1.443 . S
C167 H134 0.932 . S
C167 C162 1.388 . S
C167 C166 1.443 . S
C168 N148 1.433 . S
C168 C169 1.363 . S
C168 C173 1.370 . S
C169 H137 0.929 . S
C169 C168 1.363 . S
C169 C170 1.385 . S
C170 H138 0.930 . S
C170 C169 1.385 . S
C170 C171 1.357 . S
C171 C170 1.357 . S
C171 C172 1.406 . S
C172 H139 0.929 . S
C172 C171 1.406 . S
C172 C173 1.391 . S
C173 H140 0.931 . S
C173 C168 1.370 . S
C173 C172 1.391 . S
C174 N148 1.435 . S
C174 C175 1.358 . S
C174 C179 1.371 . S
C175 H141 0.930 . S
C175 C174 1.358 . S
C175 C176 1.405 . S
C176 H142 0.932 . S
C176 C175 1.405 . S
C176 C177 1.383 . S
C177 C176 1.383 . S
C177 C178 1.393 . S
C178 H143 0.931 . S
C178 C177 1.393 . S
C178 C179 1.382 . S
C179 H144 0.929 . S
C179 C174 1.371 . S
C179 C178 1.382 . S
C180 N148 1.423 . S
C180 C181 1.362 . S
C180 C185 1.388 . S
C181 H145 0.929 . S
C181 C180 1.362 . S
C181 C182 1.376 . S
C182 H146 0.931 . S
C182 C181 1.376 . S
C182 C183 1.396 . S
C183 C165 1.472 . S
C183 C182 1.396 . S
C183 C184 1.348 . S
C184 H147 0.929 . S
C184 C183 1.348 . S
C184 C185 1.443 . S
C185 H149 0.932 . S
C185 C180 1.388 . S
C185 C184 1.443 . S
H186 C213 0.929 . S
N187 C212 1.433 . S
N187 C218 1.435 . S
N187 C224 1.423 . S
H188 C214 0.930 . S
H189 C217 0.931 . S
H190 C216 0.929 . S
H191 C219 0.930 . S
H192 C220 0.932 . S
H193 C223 0.929 . S
H194 C222 0.931 . S
H195 C225 0.929 . S
H196 C229 0.932 . S
H197 C226 0.931 . S
H198 C228 0.929 . S
H199 C231 0.929 . S
H200 C232 0.930 . S
H201 C234 0.929 . S
H202 C235 0.931 . S
H203 C237 0.930 . S
H204 C238 0.932 . S
H205 C240 0.931 . S
H206 C241 0.929 . S
H207 C243 0.929 . S
H208 C244 0.943 . S
H209 C246 0.929 . S
N210 C230 1.433 . S
N210 C236 1.435 . S
N210 C242 1.423 . S
H211 C247 0.932 . S
C212 N187 1.433 . S
C212 C213 1.363 . S
C212 C217 1.370 . S
C213 H186 0.929 . S
C213 C212 1.363 . S
C213 C214 1.385 . S
C214 H188 0.930 . S
C214 C213 1.385 . S
C214 C215 1.357 . S
C215 C214 1.357 . S
C215 C216 1.406 . S
C216 H190 0.929 . S
C216 C215 1.406 . S
C216 C217 1.391 . S
C217 H189 0.931 . S
C217 C212 1.370 . S
C217 C216 1.391 . S
C218 N187 1.435 . S
C218 C219 1.358 . S
C218 C223 1.371 . S
C219 H191 0.930 . S
C219 C218 1.358 . S
C219 C220 1.405 . S
C220 H192 0.932 . S
C220 C219 1.405 . S
C220 C221 1.383 . S
C221 C220 1.383 . S
C221 C222 1.393 . S
C222 H194 0.931 . S
C222 C221 1.393 . S
C222 C223 1.382 . S
C223 H193 0.929 . S
C223 C218 1.371 . S
C223 C222 1.382 . S
C224 N187 1.423 . S
C224 C225 1.362 . S
C224 C229 1.388 . S
C225 H195 0.929 . S
C225 C224 1.362 . S
C225 C226 1.376 . S
C226 H197 0.931 . S
C226 C225 1.376 . S
C226 C227 1.396 . S
C227 C226 1.396 . S
C227 C228 1.348 . S
C227 C245 1.472 1_455 S
C228 H198 0.929 . S
C228 C227 1.348 . S
C228 C229 1.443 . S
C229 H196 0.932 . S
C229 C224 1.388 . S
C229 C228 1.443 . S
C230 N210 1.433 . S
C230 C231 1.363 . S
C230 C235 1.370 . S
C231 H199 0.929 . S
C231 C230 1.363 . S
C231 C232 1.385 . S
C232 H200 0.930 . S
C232 C231 1.385 . S
C232 C233 1.357 . S
C233 C232 1.357 . S
C233 C234 1.406 . S
C234 H201 0.929 . S
C234 C233 1.406 . S
C234 C235 1.391 . S
C235 H202 0.931 . S
C235 C230 1.370 . S
C235 C234 1.391 . S
C236 N210 1.435 . S
C236 C237 1.358 . S
C236 C241 1.371 . S
C237 H203 0.930 . S
C237 C236 1.358 . S
C237 C238 1.405 . S
C238 H204 0.932 . S
C238 C237 1.405 . S
C238 C239 1.383 . S
C239 C238 1.383 . S
C239 C240 1.393 . S
C240 H205 0.931 . S
C240 C239 1.393 . S
C240 C241 1.382 . S
C241 H206 0.929 . S
C241 C236 1.371 . S
C241 C240 1.382 . S
C242 N210 1.423 . S
C242 C243 1.362 . S
C242 C247 1.388 . S
C243 H207 0.929 . S
C243 C242 1.362 . S
C243 C244 1.376 . S
C244 H208 0.943 . S
C244 C243 1.376 . S
C244 C245 1.396 . S
C245 C227 1.472 1_655 S
C245 C244 1.396 . S
C245 C246 1.348 . S
C246 H209 0.929 . S
C246 C245 1.348 . S
C246 C247 1.443 . S
C247 H211 0.932 . S
C247 C242 1.388 . S
C247 C246 1.443 . S
H248 C275 0.929 . S
N249 C274 1.433 . S
N249 C280 1.435 . S
N249 C286 1.423 . S
H250 C276 0.930 . S
H251 C279 0.931 . S
H252 C278 0.929 . S
H253 C281 0.930 . S
H254 C282 0.932 . S
H255 C285 0.929 . S
H256 C284 0.931 . S
H257 C287 0.929 . S
H258 C291 0.932 . S
H259 C288 0.931 . S
H260 C290 0.929 . S
H261 C293 0.929 . S
H262 C294 0.930 . S
H263 C296 0.929 . S
H264 C297 0.931 . S
H265 C299 0.930 1_554 S
H266 C300 0.932 . S
H267 C302 0.931 . S
H268 C303 0.929 . S
H269 C305 0.929 . S
H270 C306 0.931 1_554 S
H271 C308 0.929 . S
N272 C292 1.433 . S
N272 C298 1.435 1_554 S
N272 C304 1.423 1_554 S
H273 C309 0.932 . S
C274 N249 1.433 . S
C274 C275 1.363 . S
C274 C279 1.370 . S
C275 H248 0.929 . S
C275 C274 1.363 . S
C275 C276 1.385 . S
C276 H250 0.930 . S
C276 C275 1.385 . S
C276 C277 1.357 1_556 S
C277 C276 1.357 1_554 S
C277 C278 1.406 . S
C278 H252 0.929 . S
C278 C277 1.406 . S
C278 C279 1.391 1_554 S
C279 H251 0.931 . S
C279 C274 1.370 . S
C279 C278 1.391 1_556 S
C280 N249 1.435 . S
C280 C281 1.358 . S
C280 C285 1.371 . S
C281 H253 0.930 . S
C281 C280 1.358 . S
C281 C282 1.405 . S
C282 H254 0.932 . S
C282 C281 1.405 . S
C282 C283 1.383 . S
C283 C282 1.383 . S
C283 C284 1.393 . S
C284 H256 0.931 . S
C284 C283 1.393 . S
C284 C285 1.382 . S
C285 H255 0.929 . S
C285 C280 1.371 . S
C285 C284 1.382 . S
C286 N249 1.423 . S
C286 C287 1.362 . S
C286 C291 1.388 . S
C287 H257 0.929 . S
C287 C286 1.362 . S
C287 C288 1.376 . S
C288 H259 0.931 . S
C288 C287 1.376 . S
C288 C289 1.396 . S
C289 C288 1.396 . S
C289 C290 1.348 . S
C289 C307 1.472 1_545 S
C290 H260 0.929 . S
C290 C289 1.348 . S
C290 C291 1.443 . S
C291 H258 0.932 . S
C291 C286 1.388 . S
C291 C290 1.443 . S
C292 N272 1.433 . S
C292 C293 1.363 . S
C292 C297 1.370 . S
C293 H261 0.929 . S
C293 C292 1.363 . S
C293 C294 1.385 . S
C294 H262 0.930 . S
C294 C293 1.385 . S
C294 C295 1.357 . S
C295 C294 1.357 . S
C295 C296 1.406 . S
C296 H263 0.929 . S
C296 C295 1.406 . S
C296 C297 1.391 . S
C297 H264 0.931 . S
C297 C292 1.370 . S
C297 C296 1.391 . S
C298 N272 1.435 1_556 S
C298 C299 1.358 . S
C298 C303 1.371 . S
C299 H265 0.930 1_556 S
C299 C298 1.358 . S
C299 C300 1.405 . S
C300 H266 0.932 . S
C300 C299 1.405 . S
C300 C301 1.383 . S
C301 C300 1.383 . S
C301 C302 1.393 . S
C302 H267 0.931 . S
C302 C301 1.393 . S
C302 C303 1.382 . S
C303 H268 0.929 . S
C303 C298 1.371 . S
C303 C302 1.382 . S
C304 N272 1.423 1_556 S
C304 C305 1.362 1_556 S
C304 C309 1.388 . S
C305 H269 0.929 . S
C305 C304 1.362 1_554 S
C305 C306 1.376 1_554 S
C306 H270 0.931 1_556 S
C306 C305 1.376 1_556 S
C306 C307 1.396 . S
C307 C289 1.472 1_565 S
C307 C306 1.396 . S
C307 C308 1.348 . S
C308 H271 0.929 . S
C308 C307 1.348 . S
C308 C309 1.443 . S
C309 H273 0.932 . S
C309 C304 1.388 . S
C309 C308 1.443 . S
H310 C337 0.929 . S
N311 C336 1.433 . S
N311 C342 1.435 . S
N311 C348 1.423 . S
H312 C338 0.930 . S
H313 C341 0.931 . S
H314 C340 0.929 . S
H315 C343 0.930 . S
H316 C344 0.932 . S
H317 C347 0.929 . S
H318 C346 0.931 . S
H319 C349 0.929 . S
H320 C353 0.932 . S
H321 C350 0.931 . S
H322 C352 0.929 . S
H323 C355 0.929 . S
H324 C356 0.930 . S
H325 C358 0.929 . S
H326 C359 0.931 . S
H327 C361 0.930 . S
H328 C362 0.932 . S
H329 C364 0.931 . S
H330 C365 0.929 . S
H331 C367 0.929 . S
H332 C368 0.931 . S
H333 C370 0.929 . S
N334 C354 1.433 . S
N334 C360 1.435 . S
N334 C366 1.423 . S
H335 C371 0.932 . S
C336 N311 1.433 . S
C336 C337 1.363 . S
C336 C341 1.370 . S
C337 H310 0.929 . S
C337 C336 1.363 . S
C337 C338 1.385 . S
C338 H312 0.930 . S
C338 C337 1.385 . S
C338 C339 1.357 . S
C339 C338 1.357 . S
C339 C340 1.406 . S
C340 H314 0.929 . S
C340 C339 1.406 . S
C340 C341 1.391 . S
C341 H313 0.931 . S
C341 C336 1.370 . S
C341 C340 1.391 . S
C342 N311 1.435 . S
C342 C343 1.358 . S
C342 C347 1.371 . S
C343 H315 0.930 . S
C343 C342 1.358 . S
C343 C344 1.405 . S
C344 H316 0.932 . S
C344 C343 1.405 . S
C344 C345 1.383 . S
C345 C344 1.383 . S
C345 C346 1.393 . S
C346 H318 0.931 . S
C346 C345 1.393 . S
C346 C347 1.382 . S
C347 H317 0.929 . S
C347 C342 1.371 . S
C347 C346 1.382 . S
C348 N311 1.423 . S
C348 C349 1.362 . S
C348 C353 1.388 . S
C349 H319 0.929 . S
C349 C348 1.362 . S
C349 C350 1.376 . S
C350 H321 0.931 . S
C350 C349 1.376 . S
C350 C351 1.396 . S
C351 C350 1.396 . S
C351 C352 1.348 . S
C351 C369 1.472 . S
C352 H322 0.929 . S
C352 C351 1.348 . S
C352 C353 1.443 . S
C353 H320 0.932 . S
C353 C348 1.388 . S
C353 C352 1.443 . S
C354 N334 1.433 . S
C354 C355 1.363 . S
C354 C359 1.370 . S
C355 H323 0.929 . S
C355 C354 1.363 . S
C355 C356 1.385 . S
C356 H324 0.930 . S
C356 C355 1.385 . S
C356 C357 1.357 . S
C357 C356 1.357 . S
C357 C358 1.406 . S
C358 H325 0.929 . S
C358 C357 1.406 . S
C358 C359 1.391 . S
C359 H326 0.931 . S
C359 C354 1.370 . S
C359 C358 1.391 . S
C360 N334 1.435 . S
C360 C361 1.358 . S
C360 C365 1.371 . S
C361 H327 0.930 . S
C361 C360 1.358 . S
C361 C362 1.405 . S
C362 H328 0.932 . S
C362 C361 1.405 . S
C362 C363 1.383 . S
C363 C362 1.383 . S
C363 C364 1.393 . S
C364 H329 0.931 . S
C364 C363 1.393 . S
C364 C365 1.382 . S
C365 H330 0.929 . S
C365 C360 1.371 . S
C365 C364 1.382 . S
C366 N334 1.423 . S
C366 C367 1.362 . S
C366 C371 1.388 . S
C367 H331 0.929 . S
C367 C366 1.362 . S
C367 C368 1.376 . S
C368 H332 0.931 . S
C368 C367 1.376 . S
C368 C369 1.396 . S
C369 C351 1.472 . S
C369 C368 1.396 . S
C369 C370 1.348 . S
C370 H333 0.929 . S
C370 C369 1.348 . S
C370 C371 1.443 . S
C371 H335 0.932 . S
C371 C366 1.388 . S
C371 C370 1.443 . S
Co372 O373 2.216 . S
Co372 O374 2.091 . S
Co372 O376 2.004 . S
Co372 O382 2.021 . S
Co372 O384 2.137 . S
Co372 O385 2.244 . S
O373 Co372 2.216 . S
O373 C380 1.247 . S
O374 Co372 2.091 . S
O374 C380 1.261 . S
C375 O384 1.247 . S
C375 O385 1.272 . S
O376 Co372 2.004 . S
O376 C381 1.259 . S
Co377 O378 2.061 . S
Co377 O383 2.052 . S
Co377 O385 2.135 . S
O378 Co377 2.061 . S
O378 C381 1.235 . S
C379 O382 1.238 . S
C379 O383 1.241 . S
C380 O373 1.247 . S
C380 O374 1.261 . S
C381 O376 1.259 . S
C381 O378 1.235 . S
O382 Co372 2.021 . S
O382 C379 1.238 . S
O383 Co377 2.052 . S
O383 C379 1.241 . S
O384 Co372 2.137 . S
O384 C375 1.247 . S
O385 Co372 2.244 . S
O385 C375 1.272 . S
O385 Co377 2.135 . S
Co386 O387 2.216 . S
Co386 O388 2.091 . S
Co386 O390 2.004 . S
Co386 O396 2.021 . S
Co386 O398 2.137 . S
Co386 O399 2.244 . S
O387 Co386 2.216 . S
O387 C394 1.247 . S
O388 Co386 2.091 . S
O388 C394 1.261 . S
C389 O398 1.247 . S
C389 O399 1.272 . S
O390 Co386 2.004 . S
O390 C395 1.259 . S
Co391 O392 2.061 . S
Co391 O397 2.052 . S
Co391 O399 2.135 . S
O392 Co391 2.061 . S
O392 C395 1.235 . S
C393 O396 1.238 . S
C393 O397 1.241 . S
C394 O387 1.247 . S
C394 O388 1.261 . S
C395 O390 1.259 . S
C395 O392 1.235 . S
O396 Co386 2.021 . S
O396 C393 1.238 . S
O397 Co391 2.052 . S
O397 C393 1.241 . S
O398 Co386 2.137 . S
O398 C389 1.247 . S
O399 Co386 2.244 . S
O399 C389 1.272 . S
O399 Co391 2.135 . S
Co400 O401 2.216 . S
Co400 O402 2.091 . S
Co400 O404 2.004 . S
Co400 O410 2.021 . S
Co400 O412 2.137 . S
Co400 O413 2.244 . S
O401 Co400 2.216 . S
O401 C408 1.247 . S
O402 Co400 2.091 . S
O402 C408 1.261 . S
C403 O412 1.247 . S
C403 O413 1.272 . S
O404 Co400 2.004 . S
O404 C409 1.259 . S
Co405 O406 2.061 . S
Co405 O411 2.052 . S
Co405 O413 2.135 . S
O406 Co405 2.061 . S
O406 C409 1.235 . S
C407 O410 1.238 . S
C407 O411 1.241 . S
C408 O401 1.247 . S
C408 O402 1.261 . S
C409 O404 1.259 . S
C409 O406 1.235 . S
O410 Co400 2.021 . S
O410 C407 1.238 . S
O411 Co405 2.052 . S
O411 C407 1.241 . S
O412 Co400 2.137 . S
O412 C403 1.247 . S
O413 Co400 2.244 . S
O413 C403 1.272 . S
O413 Co405 2.135 . S
Co414 O415 2.216 . S
Co414 O416 2.091 . S
Co414 O418 2.004 . S
Co414 O424 2.021 . S
Co414 O426 2.137 . S
Co414 O427 2.244 . S
O415 Co414 2.216 . S
O415 C422 1.247 . S
O416 Co414 2.091 . S
O416 C422 1.261 . S
C417 O426 1.247 . S
C417 O427 1.272 . S
O418 Co414 2.004 . S
O418 C423 1.259 . S
Co419 O420 2.061 . S
Co419 O425 2.052 . S
Co419 O427 2.135 . S
O420 Co419 2.061 . S
O420 C423 1.235 . S
C421 O424 1.238 . S
C421 O425 1.241 . S
C422 O415 1.247 . S
C422 O416 1.261 . S
C423 O418 1.259 . S
C423 O420 1.235 . S
O424 Co414 2.021 . S
O424 C421 1.238 . S
O425 Co419 2.052 . S
O425 C421 1.241 . S
O426 Co414 2.137 . S
O426 C417 1.247 . S
O427 Co414 2.244 . S
O427 C417 1.272 . S
O427 Co419 2.135 . S
Co428 O429 2.216 . S
Co428 O430 2.091 . S
Co428 O432 2.004 . S
Co428 O438 2.021 . S
Co428 O440 2.137 . S
Co428 O441 2.244 . S
O429 Co428 2.216 . S
O429 C436 1.247 . S
O430 Co428 2.091 . S
O430 C436 1.261 . S
C431 O440 1.247 . S
C431 O441 1.272 . S
O432 Co428 2.004 . S
O432 C437 1.259 . S
Co433 O434 2.061 . S
Co433 O439 2.052 . S
Co433 O441 2.135 . S
O434 Co433 2.061 . S
O434 C437 1.235 . S
C435 O438 1.238 . S
C435 O439 1.241 . S
C436 O429 1.247 . S
C436 O430 1.261 . S
C437 O432 1.259 . S
C437 O434 1.235 . S
O438 Co428 2.021 . S
O438 C435 1.238 . S
O439 Co433 2.052 . S
O439 C435 1.241 . S
O440 Co428 2.137 . S
O440 C431 1.247 . S
O441 Co428 2.244 . S
O441 C431 1.272 . S
O441 Co433 2.135 . S
Co442 O443 2.216 . S
Co442 O444 2.091 . S
Co442 O446 2.004 . S
Co442 O452 2.021 . S
Co442 O454 2.137 . S
Co442 O455 2.244 . S
O443 Co442 2.216 . S
O443 C450 1.247 . S
O444 Co442 2.091 . S
O444 C450 1.261 . S
C445 O454 1.247 . S
C445 O455 1.272 . S
O446 Co442 2.004 . S
O446 C451 1.259 . S
Co447 O448 2.061 . S
Co447 O453 2.052 . S
Co447 O455 2.135 . S
O448 Co447 2.061 . S
O448 C451 1.235 . S
C449 O452 1.238 . S
C449 O453 1.241 . S
C450 O443 1.247 . S
C450 O444 1.261 . S
C451 O446 1.259 . S
C451 O448 1.235 . S
O452 Co442 2.021 . S
O452 C449 1.238 . S
O453 Co447 2.052 . S
O453 C449 1.241 . S
O454 Co442 2.137 . S
O454 C445 1.247 . S
O455 Co442 2.244 . S
O455 C445 1.272 . S
O455 Co447 2.135 . S
H456 C464 0.950 . S
H457 C469 0.950 . S
H458 C466 0.950 . S
H459 C468 0.950 . S
H460 C470 0.950 . S
H461 C472 0.950 . S
H462 C474 0.950 . S
H463 C475 0.950 . S
C464 H456 0.950 . S
C464 C465 1.386 . S
C464 C466 1.391 . S
C465 C464 1.386 . S
C465 C469 1.393 . S
C466 H458 0.950 . S
C466 C464 1.391 . S
C466 C467 1.400 . S
C467 C466 1.400 . S
C467 C468 1.398 . S
C467 C473 1.491 . S
C468 H459 0.950 . S
C468 C467 1.398 . S
C468 C469 1.391 . S
C469 H457 0.950 . S
C469 C465 1.393 . S
C469 C468 1.391 . S
C470 H460 0.950 . S
C470 C471 1.386 . S
C470 C472 1.391 . S
C471 C470 1.386 . S
C471 C475 1.393 . S
C472 H461 0.950 . S
C472 C470 1.391 . S
C472 C473 1.400 . S
C473 C467 1.491 . S
C473 C472 1.400 . S
C473 C474 1.398 . S
C474 H462 0.950 . S
C474 C473 1.398 . S
C474 C475 1.391 . S
C475 H463 0.950 . S
C475 C471 1.393 . S
C475 C474 1.391 . S
H476 C484 0.950 . S
H477 C489 0.950 . S
H478 C486 0.950 . S
H479 C488 0.950 . S
H480 C490 0.950 . S
H481 C492 0.950 . S
H482 C494 0.950 . S
H483 C495 0.950 . S
C484 H476 0.950 . S
C484 C485 1.386 . S
C484 C486 1.391 . S
C485 C484 1.386 . S
C485 C489 1.393 . S
C486 H478 0.950 . S
C486 C484 1.391 . S
C486 C487 1.400 . S
C487 C486 1.400 . S
C487 C488 1.398 . S
C487 C493 1.491 . S
C488 H479 0.950 . S
C488 C487 1.398 . S
C488 C489 1.391 . S
C489 H477 0.950 . S
C489 C485 1.393 . S
C489 C488 1.391 . S
C490 H480 0.950 . S
C490 C491 1.386 . S
C490 C492 1.391 . S
C491 C490 1.386 . S
C491 C495 1.393 . S
C492 H481 0.950 . S
C492 C490 1.391 . S
C492 C493 1.400 . S
C493 C487 1.491 . S
C493 C492 1.400 . S
C493 C494 1.398 . S
C494 H482 0.950 . S
C494 C493 1.398 . S
C494 C495 1.391 . S
C495 H483 0.950 . S
C495 C491 1.393 . S
C495 C494 1.391 . S
H496 C504 0.950 . S
H497 C509 0.950 . S
H498 C506 0.950 . S
H499 C508 0.950 . S
H500 C510 0.950 . S
H501 C512 0.950 . S
H502 C514 0.950 . S
H503 C515 0.950 . S
C504 H496 0.950 . S
C504 C505 1.386 . S
C504 C506 1.391 . S
C505 C504 1.386 . S
C505 C509 1.393 . S
C506 H498 0.950 . S
C506 C504 1.391 . S
C506 C507 1.400 . S
C507 C506 1.400 . S
C507 C508 1.398 . S
C507 C513 1.491 . S
C508 H499 0.950 . S
C508 C507 1.398 . S
C508 C509 1.391 . S
C509 H497 0.950 . S
C509 C505 1.393 . S
C509 C508 1.391 . S
C510 H500 0.950 . S
C510 C511 1.386 . S
C510 C512 1.391 . S
C511 C510 1.386 . S
C511 C515 1.393 . S
C512 H501 0.950 . S
C512 C510 1.391 . S
C512 C513 1.400 . S
C513 C507 1.491 . S
C513 C512 1.400 . S
C513 C514 1.398 . S
C514 H502 0.950 . S
C514 C513 1.398 . S
C514 C515 1.391 . S
C515 H503 0.950 . S
C515 C511 1.393 . S
C515 C514 1.391 . S
H516 C524 0.950 . S
H517 C529 0.950 . S
H518 C526 0.950 . S
H519 C528 0.950 . S
H520 C530 0.950 . S
H521 C532 0.950 . S
H522 C534 0.950 . S
H523 C535 0.950 . S
C524 H516 0.950 . S
C524 C525 1.386 . S
C524 C526 1.391 . S
C525 C524 1.386 . S
C525 C529 1.393 . S
C526 H518 0.950 . S
C526 C524 1.391 . S
C526 C527 1.400 . S
C527 C526 1.400 . S
C527 C528 1.398 . S
C527 C533 1.491 . S
C528 H519 0.950 . S
C528 C527 1.398 . S
C528 C529 1.391 . S
C529 H517 0.950 . S
C529 C525 1.393 . S
C529 C528 1.391 . S
C530 H520 0.950 . S
C530 C531 1.386 . S
C530 C532 1.391 . S
C531 C530 1.386 . S
C531 C535 1.393 . S
C532 H521 0.950 . S
C532 C530 1.391 . S
C532 C533 1.400 . S
C533 C527 1.491 . S
C533 C532 1.400 . S
C533 C534 1.398 . S
C534 H522 0.950 . S
C534 C533 1.398 . S
C534 C535 1.391 . S
C535 H523 0.950 . S
C535 C531 1.393 . S
C535 C534 1.391 . S
H536 C544 0.950 . S
H537 C549 0.950 . S
H538 C546 0.950 . S
H539 C548 0.950 . S
H540 C550 0.950 . S
H541 C552 0.950 . S
H542 C554 0.950 . S
H543 C555 0.950 . S
C544 H536 0.950 . S
C544 C545 1.386 . S
C544 C546 1.391 . S
C545 C544 1.386 . S
C545 C549 1.393 . S
C546 H538 0.950 . S
C546 C544 1.391 . S
C546 C547 1.400 . S
C547 C546 1.400 . S
C547 C548 1.398 . S
C547 C553 1.491 . S
C548 H539 0.950 . S
C548 C547 1.398 . S
C548 C549 1.391 . S
C549 H537 0.950 . S
C549 C545 1.393 . S
C549 C548 1.391 . S
C550 H540 0.950 . S
C550 C551 1.386 . S
C550 C552 1.391 . S
C551 C550 1.386 . S
C551 C555 1.393 . S
C552 H541 0.950 . S
C552 C550 1.391 . S
C552 C553 1.400 . S
C553 C547 1.491 . S
C553 C552 1.400 . S
C553 C554 1.398 . S
C554 H542 0.950 . S
C554 C553 1.398 . S
C554 C555 1.391 . S
C555 H543 0.950 . S
C555 C551 1.393 . S
C555 C554 1.391 . S
H556 C564 0.950 . S
H557 C569 0.950 . S
H558 C566 0.950 . S
H559 C568 0.950 . S
H560 C570 0.950 . S
H561 C572 0.950 . S
H562 C574 0.950 . S
H563 C575 0.950 . S
C564 H556 0.950 . S
C564 C565 1.386 . S
C564 C566 1.391 . S
C565 C564 1.386 . S
C565 C569 1.393 . S
C566 H558 0.950 . S
C566 C564 1.391 . S
C566 C567 1.400 . S
C567 C566 1.400 . S
C567 C568 1.398 . S
C567 C573 1.491 . S
C568 H559 0.950 . S
C568 C567 1.398 . S
C568 C569 1.391 . S
C569 H557 0.950 . S
C569 C565 1.393 . S
C569 C568 1.391 . S
C570 H560 0.950 . S
C570 C571 1.386 . S
C570 C572 1.391 . S
C571 C570 1.386 . S
C571 C575 1.393 . S
C572 H561 0.950 . S
C572 C570 1.391 . S
C572 C573 1.400 . S
C573 C567 1.491 . S
C573 C572 1.400 . S
C573 C574 1.398 . S
C574 H562 0.950 . S
C574 C573 1.398 . S
C574 C575 1.391 . S
C575 H563 0.950 . S
C575 C571 1.393 . S
C575 C574 1.391 . S
H576 C584 0.950 . S
H577 C589 0.950 . S
H578 C586 0.950 . S
H579 C588 0.950 . S
H580 C590 0.950 . S
H581 C592 0.950 . S
H582 C594 0.950 . S
H583 C595 0.950 . S
C584 H576 0.950 . S
C584 C585 1.386 . S
C584 C586 1.391 . S
C585 C584 1.386 . S
C585 C589 1.393 . S
C586 H578 0.950 . S
C586 C584 1.391 . S
C586 C587 1.400 . S
C587 C586 1.400 . S
C587 C588 1.398 . S
C587 C593 1.491 . S
C588 H579 0.950 . S
C588 C587 1.398 . S
C588 C589 1.391 . S
C589 H577 0.950 . S
C589 C585 1.393 . S
C589 C588 1.391 . S
C590 H580 0.950 . S
C590 C591 1.386 . S
C590 C592 1.391 . S
C591 C590 1.386 . S
C591 C595 1.393 . S
C592 H581 0.950 . S
C592 C590 1.391 . S
C592 C593 1.400 . S
C593 C587 1.491 . S
C593 C592 1.400 . S
C593 C594 1.398 . S
C594 H582 0.950 . S
C594 C593 1.398 . S
C594 C595 1.391 . S
C595 H583 0.950 . S
C595 C591 1.393 . S
C595 C594 1.391 . S
H596 C604 0.950 . S
H597 C609 0.950 . S
H598 C606 0.950 . S
H599 C608 0.950 . S
H600 C610 0.950 . S
H601 C612 0.950 . S
H602 C614 0.950 . S
H603 C615 0.950 . S
C604 H596 0.950 . S
C604 C605 1.386 . S
C604 C606 1.391 . S
C605 C604 1.386 . S
C605 C609 1.393 . S
C606 H598 0.950 . S
C606 C604 1.391 . S
C606 C607 1.400 . S
C607 C606 1.400 . S
C607 C608 1.398 . S
C607 C613 1.491 . S
C608 H599 0.950 . S
C608 C607 1.398 . S
C608 C609 1.391 . S
C609 H597 0.950 . S
C609 C605 1.393 . S
C609 C608 1.391 . S
C610 H600 0.950 . S
C610 C611 1.386 . S
C610 C612 1.391 . S
C611 C610 1.386 . S
C611 C615 1.393 . S
C612 H601 0.950 . S
C612 C610 1.391 . S
C612 C613 1.400 . S
C613 C607 1.491 . S
C613 C612 1.400 . S
C613 C614 1.398 . S
C614 H602 0.950 . S
C614 C613 1.398 . S
C614 C615 1.391 . S
C615 H603 0.950 . S
C615 C611 1.393 . S
C615 C614 1.391 . S
H616 C624 0.950 . S
H617 C629 0.950 . S
H618 C626 0.950 . S
H619 C628 0.950 . S
H620 C630 0.950 . S
H621 C632 0.950 . S
H622 C634 0.950 . S
H623 C635 0.950 . S
C624 H616 0.950 . S
C624 C625 1.386 . S
C624 C626 1.391 . S
C625 C624 1.386 . S
C625 C629 1.393 . S
C626 H618 0.950 . S
C626 C624 1.391 . S
C626 C627 1.400 . S
C627 C626 1.400 . S
C627 C628 1.398 . S
C627 C633 1.491 . S
C628 H619 0.950 . S
C628 C627 1.398 . S
C628 C629 1.391 . S
C629 H617 0.950 . S
C629 C625 1.393 . S
C629 C628 1.391 . S
C630 H620 0.950 . S
C630 C631 1.386 . S
C630 C632 1.391 . S
C631 C630 1.386 . S
C631 C635 1.393 . S
C632 H621 0.950 . S
C632 C630 1.391 . S
C632 C633 1.400 . S
C633 C627 1.491 . S
C633 C632 1.400 . S
C633 C634 1.398 . S
C634 H622 0.950 . S
C634 C633 1.398 . S
C634 C635 1.391 . S
C635 H623 0.950 . S
C635 C631 1.393 . S
C635 C634 1.391 . S
H636 C644 0.950 . S
H637 C649 0.950 1_556 S
H638 C646 0.950 . S
H639 C648 0.950 . S
H640 C650 0.950 . S
H641 C652 0.950 . S
H642 C654 0.950 . S
H643 C655 0.950 . S
C644 H636 0.950 . S
C644 C645 1.386 . S
C644 C646 1.391 . S
C645 C644 1.386 . S
C645 C649 1.393 . S
C646 H638 0.950 . S
C646 C644 1.391 . S
C646 C647 1.400 . S
C647 C646 1.400 . S
C647 C648 1.398 . S
C647 C653 1.491 . S
C648 H639 0.950 . S
C648 C647 1.398 . S
C648 C649 1.391 . S
C649 H637 0.950 1_554 S
C649 C645 1.393 . S
C649 C648 1.391 . S
C650 H640 0.950 . S
C650 C651 1.386 . S
C650 C652 1.391 . S
C651 C650 1.386 . S
C651 C655 1.393 . S
C652 H641 0.950 . S
C652 C650 1.391 . S
C652 C653 1.400 . S
C653 C647 1.491 . S
C653 C652 1.400 . S
C653 C654 1.398 . S
C654 H642 0.950 . S
C654 C653 1.398 . S
C654 C655 1.391 . S
C655 H643 0.950 . S
C655 C651 1.393 . S
C655 C654 1.391 . S
H656 C664 0.950 . S
H657 C669 0.950 . S
H658 C666 0.950 . S
H659 C668 0.950 . S
H660 C670 0.950 . S
H661 C672 0.950 . S
H662 C674 0.950 . S
H663 C675 0.950 . S
C664 H656 0.950 . S
C664 C665 1.386 . S
C664 C666 1.391 . S
C665 C664 1.386 . S
C665 C669 1.393 . S
C666 H658 0.950 . S
C666 C664 1.391 . S
C666 C667 1.400 . S
C667 C666 1.400 . S
C667 C668 1.398 . S
C667 C673 1.491 . S
C668 H659 0.950 . S
C668 C667 1.398 . S
C668 C669 1.391 . S
C669 H657 0.950 . S
C669 C665 1.393 . S
C669 C668 1.391 . S
C670 H660 0.950 . S
C670 C671 1.386 . S
C670 C672 1.391 . S
C671 C670 1.386 . S
C671 C675 1.393 . S
C672 H661 0.950 . S
C672 C670 1.391 . S
C672 C673 1.400 . S
C673 C667 1.491 . S
C673 C672 1.400 . S
C673 C674 1.398 . S
C674 H662 0.950 . S
C674 C673 1.398 . S
C674 C675 1.391 . S
C675 H663 0.950 . S
C675 C671 1.393 . S
C675 C674 1.391 . S
H676 C684 0.950 . S
H677 C689 0.950 . S
H678 C686 0.950 . S
H679 C688 0.950 . S
H680 C690 0.950 . S
H681 C692 0.950 . S
H682 C694 0.950 . S
H683 C695 0.950 . S
C684 H676 0.950 . S
C684 C685 1.386 . S
C684 C686 1.391 . S
C685 C684 1.386 . S
C685 C689 1.393 . S
C686 H678 0.950 . S
C686 C684 1.391 . S
C686 C687 1.400 . S
C687 C686 1.400 . S
C687 C688 1.398 . S
C687 C693 1.491 . S
C688 H679 0.950 . S
C688 C687 1.398 . S
C688 C689 1.391 . S
C689 H677 0.950 . S
C689 C685 1.393 . S
C689 C688 1.391 . S
C690 H680 0.950 . S
C690 C691 1.386 . S
C690 C692 1.391 . S
C691 C690 1.386 . S
C691 C695 1.393 . S
C692 H681 0.950 . S
C692 C690 1.391 . S
C692 C693 1.400 . S
C693 C687 1.491 . S
C693 C692 1.400 . S
C693 C694 1.398 . S
C694 H682 0.950 . S
C694 C693 1.398 . S
C694 C695 1.391 . S
C695 H683 0.950 . S
C695 C691 1.393 . S
C695 C694 1.391 . S
H696 C704 0.950 . S
H697 C709 0.950 . S
H698 C706 0.950 . S
H699 C708 0.950 . S
H700 C710 0.950 . S
H701 C712 0.950 . S
H702 C714 0.950 . S
H703 C715 0.950 . S
C704 H696 0.950 . S
C704 C705 1.386 . S
C704 C706 1.391 . S
C705 C704 1.386 . S
C705 C709 1.393 . S
C706 H698 0.950 . S
C706 C704 1.391 . S
C706 C707 1.400 . S
C707 C706 1.400 . S
C707 C708 1.398 . S
C707 C713 1.491 . S
C708 H699 0.950 . S
C708 C707 1.398 . S
C708 C709 1.391 . S
C709 H697 0.950 . S
C709 C705 1.393 . S
C709 C708 1.391 . S
C710 H700 0.950 . S
C710 C711 1.386 . S
C710 C712 1.391 . S
C711 C710 1.386 . S
C711 C715 1.393 . S
C712 H701 0.950 . S
C712 C710 1.391 . S
C712 C713 1.400 . S
C713 C707 1.491 . S
C713 C712 1.400 . S
C713 C714 1.398 . S
C714 H702 0.950 . S
C714 C713 1.398 . S
C714 C715 1.391 . S
C715 H703 0.950 . S
C715 C711 1.393 . S
C715 C714 1.391 . S
H716 C724 0.950 . S
H717 C729 0.950 . S
H718 C726 0.950 . S
H719 C728 0.950 . S
H720 C730 0.950 . S
H721 C732 0.950 . S
H722 C734 0.950 . S
H723 C735 0.950 . S
C724 H716 0.950 . S
C724 C725 1.386 . S
C724 C726 1.391 . S
C725 C724 1.386 . S
C725 C729 1.393 . S
C726 H718 0.950 . S
C726 C724 1.391 . S
C726 C727 1.400 . S
C727 C726 1.400 . S
C727 C728 1.398 . S
C727 C733 1.491 . S
C728 H719 0.950 . S
C728 C727 1.398 . S
C728 C729 1.391 . S
C729 H717 0.950 . S
C729 C725 1.393 . S
C729 C728 1.391 . S
C730 H720 0.950 . S
C730 C731 1.386 . S
C730 C732 1.391 . S
C731 C730 1.386 . S
C731 C735 1.393 . S
C732 H721 0.950 . S
C732 C730 1.391 . S
C732 C733 1.400 . S
C733 C727 1.491 . S
C733 C732 1.400 . S
C733 C734 1.398 . S
C734 H722 0.950 . S
C734 C733 1.398 . S
C734 C735 1.391 . S
C735 H723 0.950 . S
C735 C731 1.393 . S
C735 C734 1.391 . S
H736 C744 0.950 . S
H737 C749 0.950 . S
H738 C746 0.950 . S
H739 C748 0.950 . S
H740 C750 0.950 . S
H741 C752 0.950 . S
H742 C754 0.950 . S
H743 C755 0.950 . S
C744 H736 0.950 . S
C744 C745 1.386 . S
C744 C746 1.391 . S
C745 C744 1.386 . S
C745 C749 1.393 . S
C746 H738 0.950 . S
C746 C744 1.391 . S
C746 C747 1.400 . S
C747 C746 1.400 . S
C747 C748 1.398 . S
C747 C753 1.491 . S
C748 H739 0.950 . S
C748 C747 1.398 . S
C748 C749 1.391 . S
C749 H737 0.950 . S
C749 C745 1.393 . S
C749 C748 1.391 . S
C750 H740 0.950 . S
C750 C751 1.386 . S
C750 C752 1.391 . S
C751 C750 1.386 . S
C751 C755 1.393 . S
C752 H741 0.950 . S
C752 C750 1.391 . S
C752 C753 1.400 . S
C753 C747 1.491 . S
C753 C752 1.400 . S
C753 C754 1.398 . S
C754 H742 0.950 . S
C754 C753 1.398 . S
C754 C755 1.391 . S
C755 H743 0.950 . S
C755 C751 1.393 . S
C755 C754 1.391 . S
H756 C764 0.950 . S
H757 C769 0.950 . S
H758 C766 0.950 . S
H759 C768 0.950 . S
H760 C770 0.950 . S
H761 C772 0.950 . S
H762 C774 0.950 . S
H763 C775 0.950 . S
C764 H756 0.950 . S
C764 C765 1.386 . S
C764 C766 1.391 . S
C765 C764 1.386 . S
C765 C769 1.393 . S
C766 H758 0.950 . S
C766 C764 1.391 . S
C766 C767 1.400 . S
C767 C766 1.400 . S
C767 C768 1.398 . S
C767 C773 1.491 . S
C768 H759 0.950 . S
C768 C767 1.398 . S
C768 C769 1.391 . S
C769 H757 0.950 . S
C769 C765 1.393 . S
C769 C768 1.391 . S
C770 H760 0.950 . S
C770 C771 1.386 1_556 S
C770 C772 1.391 . S
C771 C770 1.386 1_554 S
C771 C775 1.393 . S
C772 H761 0.950 . S
C772 C770 1.391 . S
C772 C773 1.400 . S
C773 C767 1.491 . S
C773 C772 1.400 . S
C773 C774 1.398 . S
C774 H762 0.950 . S
C774 C773 1.398 . S
C774 C775 1.391 1_556 S
C775 H763 0.950 . S
C775 C771 1.393 . S
C775 C774 1.391 1_554 S
H776 C784 0.950 . S
H777 C789 0.950 . S
H778 C786 0.950 . S
H779 C788 0.950 . S
H780 C790 0.950 . S
H781 C792 0.950 . S
H782 C794 0.950 . S
H783 C795 0.950 . S
C784 H776 0.950 . S
C784 C785 1.386 . S
C784 C786 1.391 . S
C785 C784 1.386 . S
C785 C789 1.393 . S
C786 H778 0.950 . S
C786 C784 1.391 . S
C786 C787 1.400 . S
C787 C786 1.400 . S
C787 C788 1.398 . S
C787 C793 1.491 . S
C788 H779 0.950 . S
C788 C787 1.398 . S
C788 C789 1.391 . S
C789 H777 0.950 . S
C789 C785 1.393 . S
C789 C788 1.391 . S
C790 H780 0.950 . S
C790 C791 1.386 . S
C790 C792 1.391 . S
C791 C790 1.386 . S
C791 C795 1.393 . S
C792 H781 0.950 . S
C792 C790 1.391 . S
C792 C793 1.400 . S
C793 C787 1.491 . S
C793 C792 1.400 . S
C793 C794 1.398 . S
C794 H782 0.950 . S
C794 C793 1.398 . S
C794 C795 1.391 . S
C795 H783 0.950 . S
C795 C791 1.393 . S
C795 C794 1.391 . S
H796 C804 0.950 . S
H797 C809 0.950 . S
H798 C806 0.950 . S
H799 C808 0.950 . S
H800 C810 0.950 . S
H801 C812 0.950 . S
H802 C814 0.950 . S
H803 C815 0.950 . S
C804 H796 0.950 . S
C804 C805 1.386 . S
C804 C806 1.391 . S
C805 C804 1.386 . S
C805 C809 1.393 . S
C806 H798 0.950 . S
C806 C804 1.391 . S
C806 C807 1.400 . S
C807 C806 1.400 . S
C807 C808 1.398 . S
C807 C813 1.491 . S
C808 H799 0.950 . S
C808 C807 1.398 . S
C808 C809 1.391 . S
C809 H797 0.950 . S
C809 C805 1.393 . S
C809 C808 1.391 . S
C810 H800 0.950 . S
C810 C811 1.386 . S
C810 C812 1.391 . S
C811 C810 1.386 . S
C811 C815 1.393 . S
C812 H801 0.950 . S
C812 C810 1.391 . S
C812 C813 1.400 . S
C813 C807 1.491 . S
C813 C812 1.400 . S
C813 C814 1.398 . S
C814 H802 0.950 . S
C814 C813 1.398 . S
C814 C815 1.391 . S
C815 H803 0.950 . S
C815 C811 1.393 . S
C815 C814 1.391 . S
H816 C824 0.950 . S
H817 C829 0.950 . S
H818 C826 0.950 . S
H819 C828 0.950 . S
H820 C830 0.950 . S
H821 C832 0.950 . S
H822 C834 0.950 . S
H823 C835 0.950 . S
C824 H816 0.950 . S
C824 C825 1.386 . S
C824 C826 1.391 . S
C825 C824 1.386 . S
C825 C829 1.393 . S
C826 H818 0.950 . S
C826 C824 1.391 . S
C826 C827 1.400 . S
C827 C826 1.400 . S
C827 C828 1.398 . S
C827 C833 1.491 . S
C828 H819 0.950 . S
C828 C827 1.398 . S
C828 C829 1.391 . S
C829 H817 0.950 . S
C829 C825 1.393 . S
C829 C828 1.391 . S
C830 H820 0.950 . S
C830 C831 1.386 . S
C830 C832 1.391 . S
C831 C830 1.386 . S
C831 C835 1.393 . S
C832 H821 0.950 . S
C832 C830 1.391 . S
C832 C833 1.400 . S
C833 C827 1.491 . S
C833 C832 1.400 . S
C833 C834 1.398 . S
C834 H822 0.950 . S
C834 C833 1.398 . S
C834 C835 1.391 . S
C835 H823 0.950 . S
C835 C831 1.393 . S
C835 C834 1.391 . S
H836 C844 0.950 . S
H837 C849 0.950 . S
H838 C846 0.950 . S
H839 C848 0.950 . S
H840 C850 0.950 . S
H841 C852 0.950 . S
H842 C854 0.950 . S
H843 C855 0.950 . S
C844 H836 0.950 . S
C844 C845 1.386 . S
C844 C846 1.391 . S
C845 C844 1.386 . S
C845 C849 1.393 . S
C846 H838 0.950 . S
C846 C844 1.391 . S
C846 C847 1.400 . S
C847 C846 1.400 . S
C847 C848 1.398 . S
C847 C853 1.491 . S
C848 H839 0.950 . S
C848 C847 1.398 . S
C848 C849 1.391 . S
C849 H837 0.950 . S
C849 C845 1.393 . S
C849 C848 1.391 . S
C850 H840 0.950 . S
C850 C851 1.386 . S
C850 C852 1.391 . S
C851 C850 1.386 . S
C851 C855 1.393 . S
C852 H841 0.950 . S
C852 C850 1.391 . S
C852 C853 1.400 . S
C853 C847 1.491 . S
C853 C852 1.400 . S
C853 C854 1.398 . S
C854 H842 0.950 . S
C854 C853 1.398 . S
C854 C855 1.391 . S
C855 H843 0.950 . S
C855 C851 1.393 . S
C855 C854 1.391 . S
H856 C864 0.950 . S
H857 C869 0.950 . S
H858 C866 0.950 . S
H859 C868 0.950 . S
H860 C870 0.950 . S
H861 C872 0.950 . S
H862 C874 0.950 . S
H863 C875 0.950 . S
C864 H856 0.950 . S
C864 C865 1.386 . S
C864 C866 1.391 . S
C865 C864 1.386 . S
C865 C869 1.393 . S
C866 H858 0.950 . S
C866 C864 1.391 . S
C866 C867 1.400 . S
C867 C866 1.400 . S
C867 C868 1.398 . S
C867 C873 1.491 . S
C868 H859 0.950 . S
C868 C867 1.398 . S
C868 C869 1.391 . S
C869 H857 0.950 . S
C869 C865 1.393 . S
C869 C868 1.391 . S
C870 H860 0.950 . S
C870 C871 1.386 . S
C870 C872 1.391 . S
C871 C870 1.386 . S
C871 C875 1.393 . S
C872 H861 0.950 . S
C872 C870 1.391 . S
C872 C873 1.400 . S
C873 C867 1.491 . S
C873 C872 1.400 . S
C873 C874 1.398 . S
C874 H862 0.950 . S
C874 C873 1.398 . S
C874 C875 1.391 . S
C875 H863 0.950 . S
C875 C871 1.393 . S
C875 C874 1.391 . S
H876 C884 0.950 . S
H877 C889 0.950 . S
H878 C886 0.950 . S
H879 C888 0.950 . S
H880 C890 0.950 . S
H881 C892 0.950 . S
H882 C894 0.950 . S
H883 C895 0.950 . S
C884 H876 0.950 . S
C884 C885 1.386 . S
C884 C886 1.391 . S
C885 C884 1.386 . S
C885 C889 1.393 . S
C886 H878 0.950 . S
C886 C884 1.391 . S
C886 C887 1.400 . S
C887 C886 1.400 . S
C887 C888 1.398 . S
C887 C893 1.491 . S
C888 H879 0.950 . S
C888 C887 1.398 . S
C888 C889 1.391 . S
C889 H877 0.950 . S
C889 C885 1.393 . S
C889 C888 1.391 . S
C890 H880 0.950 . S
C890 C891 1.386 . S
C890 C892 1.391 . S
C891 C890 1.386 . S
C891 C895 1.393 . S
C892 H881 0.950 . S
C892 C890 1.391 . S
C892 C893 1.400 . S
C893 C887 1.491 . S
C893 C892 1.400 . S
C893 C894 1.398 . S
C894 H882 0.950 . S
C894 C893 1.398 . S
C894 C895 1.391 . S
C895 H883 0.950 . S
C895 C891 1.393 . S
C895 C894 1.391 . S
H896 C904 0.950 . S
H897 C909 0.950 . S
H898 C906 0.950 . S
H899 C908 0.950 1_556 S
H900 C910 0.950 . S
H901 C912 0.950 . S
H902 C914 0.950 . S
H903 C915 0.950 . S
C904 H896 0.950 . S
C904 C905 1.386 . S
C904 C906 1.391 . S
C905 C904 1.386 . S
C905 C909 1.393 . S
C906 H898 0.950 . S
C906 C904 1.391 . S
C906 C907 1.400 . S
C907 C906 1.400 . S
C907 C908 1.398 . S
C907 C913 1.491 1_554 S
C908 H899 0.950 1_554 S
C908 C907 1.398 . S
C908 C909 1.391 . S
C909 H897 0.950 . S
C909 C905 1.393 . S
C909 C908 1.391 . S
C910 H900 0.950 . S
C910 C911 1.386 . S
C910 C912 1.391 . S
C911 C910 1.386 . S
C911 C915 1.393 . S
C912 H901 0.950 . S
C912 C910 1.391 . S
C912 C913 1.400 . S
C913 C907 1.491 1_556 S
C913 C912 1.400 . S
C913 C914 1.398 . S
C914 H902 0.950 . S
C914 C913 1.398 . S
C914 C915 1.391 . S
C915 H903 0.950 . S
C915 C911 1.393 . S
C915 C914 1.391 . S
H916 C924 0.950 . S
H917 C929 0.950 . S
H918 C926 0.950 . S
H919 C928 0.950 . S
H920 C930 0.950 . S
H921 C932 0.950 . S
H922 C934 0.950 . S
H923 C935 0.950 . S
C924 H916 0.950 . S
C924 C925 1.386 . S
C924 C926 1.391 . S
C925 C924 1.386 . S
C925 C929 1.393 . S
C926 H918 0.950 . S
C926 C924 1.391 . S
C926 C927 1.400 . S
C927 C926 1.400 . S
C927 C928 1.398 . S
C927 C933 1.491 . S
C928 H919 0.950 . S
C928 C927 1.398 . S
C928 C929 1.391 . S
C929 H917 0.950 . S
C929 C925 1.393 . S
C929 C928 1.391 . S
C930 H920 0.950 . S
C930 C931 1.386 . S
C930 C932 1.391 . S
C931 C930 1.386 . S
C931 C935 1.393 . S
C932 H921 0.950 . S
C932 C930 1.391 . S
C932 C933 1.400 . S
C933 C927 1.491 . S
C933 C932 1.400 . S
C933 C934 1.398 . S
C934 H922 0.950 . S
C934 C933 1.398 . S
C934 C935 1.391 . S
C935 H923 0.950 . S
C935 C931 1.393 . S
C935 C934 1.391 . S
C471 C445 1.687 . S
C465 C29 1.590 . S
C485 C115 1.555 . S
C491 C375 1.571 . S
C505 C153 1.626 . S
C511 C394 1.715 . S
C525 C239 1.550 . S
C531 C403 1.559 . S
C551 C417 1.611 . S
C545 C301 1.595 . S
C565 C339 1.842 . S
C571 C436 1.962 . S
C585 C91 1.578 . S
C591 C389 1.672 . S
C605 C177 1.558 . S
C611 C408 1.582 . S
C625 C215 1.603 . S
C631 C422 1.684 . S
C651 C431 1.921 . S
C645 C277 1.792 . S
C671 C450 1.623 . S
C665 C363 1.587 . S
C691 C380 1.582 . S
C685 C53 1.564 . S
C705 C35 1.539 . S
C711 C395 1.554 . S
C725 C109 1.398 . S
C731 C407 1.494 . S
C751 C421 1.445 . S
C745 C159 1.447 . S
C765 C233 1.617 . S
C771 C437 1.707 . S
C791 C449 1.512 . S
C785 C295 1.410 . S
C811 C379 1.387 . S
C805 C345 1.396 . S
C831 C451 1.474 . S
C825 C97 1.458 . S
C845 C171 1.439 . S
C851 C381 1.528 . S
C871 C393 1.565 . S
C865 C221 1.569 . S
C885 C283 1.407 . S
C891 C409 1.421 . S
C905 C357 1.450 . S
C911 C423 1.554 . S
C925 C47 1.597 . S
C931 C435 1.697 . S
