# Generated by pormake.
# Topology pyr, (3,6)-cn, num edge types: 1
# Building blocks:
#     Node 0, Type 0, BuildingBlock: MIDCAF_clean_linker_0, # of connection points: 3
#     Node 1, Type 0, BuildingBlock: MIDCAF_clean_linker_0, # of connection points: 3
#     Node 2, Type 0, BuildingBlock: MIDCAF_clean_linker_0, # of connection points: 3
#     Node 3, Type 0, BuildingBlock: MIDCAF_clean_linker_0, # of connection points: 3
#     Node 4, Type 0, BuildingBlock: MIDCAF_clean_linker_0, # of connection points: 3
#     Node 5, Type 0, BuildingBlock: MIDCAF_clean_linker_0, # of connection points: 3
#     Node 6, Type 0, BuildingBlock: MIDCAF_clean_linker_0, # of connection points: 3
#     Node 7, Type 0, BuildingBlock: MIDCAF_clean_linker_0, # of connection points: 3
#     Node 8, Type 1, BuildingBlock: BETDEL_clean_sbu_0, # of connection points: 6
#     Node 9, Type 1, BuildingBlock: BETDEL_clean_sbu_0, # of connection points: 6
#     Node 10, Type 1, BuildingBlock: BETDEL_clean_sbu_0, # of connection points: 6
#     Node 11, Type 1, BuildingBlock: BETDEL_clean_sbu_0, # of connection points: 6
#     Edge 12, Type (0, 1), BuildingBlock: OJICUG_clean_linker_0, # of connection points: 2
#     Edge 13, Type (0, 1), BuildingBlock: OJICUG_clean_linker_0, # of connection points: 2
#     Edge 14, Type (0, 1), BuildingBlock: OJICUG_clean_linker_0, # of connection points: 2
#     Edge 15, Type (0, 1), BuildingBlock: OJICUG_clean_linker_0, # of connection points: 2
#     Edge 16, Type (0, 1), BuildingBlock: OJICUG_clean_linker_0, # of connection points: 2
#     Edge 17, Type (0, 1), BuildingBlock: OJICUG_clean_linker_0, # of connection points: 2
#     Edge 18, Type (0, 1), BuildingBlock: OJICUG_clean_linker_0, # of connection points: 2
#     Edge 19, Type (0, 1), BuildingBlock: OJICUG_clean_linker_0, # of connection points: 2
#     Edge 20, Type (0, 1), BuildingBlock: OJICUG_clean_linker_0, # of connection points: 2
#     Edge 21, Type (0, 1), BuildingBlock: OJICUG_clean_linker_0, # of connection points: 2
#     Edge 22, Type (0, 1), BuildingBlock: OJICUG_clean_linker_0, # of connection points: 2
#     Edge 23, Type (0, 1), BuildingBlock: OJICUG_clean_linker_0, # of connection points: 2
#     Edge 24, Type (0, 1), BuildingBlock: OJICUG_clean_linker_0, # of connection points: 2
#     Edge 25, Type (0, 1), BuildingBlock: OJICUG_clean_linker_0, # of connection points: 2
#     Edge 26, Type (0, 1), BuildingBlock: OJICUG_clean_linker_0, # of connection points: 2
#     Edge 27, Type (0, 1), BuildingBlock: OJICUG_clean_linker_0, # of connection points: 2
#     Edge 28, Type (0, 1), BuildingBlock: OJICUG_clean_linker_0, # of connection points: 2
#     Edge 29, Type (0, 1), BuildingBlock: OJICUG_clean_linker_0, # of connection points: 2
#     Edge 30, Type (0, 1), BuildingBlock: OJICUG_clean_linker_0, # of connection points: 2
#     Edge 31, Type (0, 1), BuildingBlock: OJICUG_clean_linker_0, # of connection points: 2
#     Edge 32, Type (0, 1), BuildingBlock: OJICUG_clean_linker_0, # of connection points: 2
#     Edge 33, Type (0, 1), BuildingBlock: OJICUG_clean_linker_0, # of connection points: 2
#     Edge 34, Type (0, 1), BuildingBlock: OJICUG_clean_linker_0, # of connection points: 2
#     Edge 35, Type (0, 1), BuildingBlock: OJICUG_clean_linker_0, # of connection points: 2
# Relax obj value: 0.033
# Max RMSD: 0.093
# Mean RMSD: 0.040
data_MOF--net-pyr--node1-BETDEL_clean_sbu_0--node2-MIDCAF_clean_linker_0--edge1-OJICUG_clean_linker_0
_symmetry_space_group_name_H-M    P1
_symmetry_Int_Tables_number       1
_symmetry_cell_setting            triclinic
loop_
_symmetry_equiv_pos_as_xyz
'x, y, z'
_cell_length_a     34.862387
_cell_length_b     36.394904
_cell_length_c     33.617387
_cell_angle_alpha  91.764228
_cell_angle_beta   89.521865
_cell_angle_gamma 95.954123
loop_
_atom_site_label
_atom_site_type_symbol
_atom_site_fract_x
_atom_site_fract_y
_atom_site_fract_z
_atom_type_partial_charge
C0 C 0.12075 0.11418 0.2311 0.0
C1 C 0.13731 0.09589 0.26174 0.0
C2 C 0.17762 0.10044 0.26648 0.0
C3 C 0.20063 0.12441 0.24244 0.0
H4 H 0.31649 0.16283 0.20632 0.0
H5 H 0.37365 0.13712 0.17995 0.0
H6 H 0.36209 0.19292 0.06991 0.0
H7 H 0.30491 0.21894 0.09626 0.0
H8 H 0.23325 0.27575 0.09587 0.0
H9 H 0.19671 0.32359 0.0693 0.0
H10 H 0.10411 0.2936 0.15205 0.0
H11 H 0.14011 0.24687 0.17877 0.0
H12 H 0.12987 0.15309 0.18492 0.0
H13 H 0.0899 0.11061 0.22617 0.0
H14 H 0.19124 0.08706 0.29012 0.0
H15 H 0.23141 0.12853 0.24771 0.0
N16 N 0.24504 0.1716 0.18541 0.0
N17 N 0.24807 0.22543 0.14805 0.0
N18 N 0.18962 0.20116 0.17638 0.0
C19 C 0.26583 0.19759 0.16367 0.0
C20 C 0.20989 0.22756 0.15503 0.0
C21 C 0.20682 0.17313 0.19148 0.0
C22 C 0.30585 0.19211 0.15291 0.0
C23 C 0.32696 0.17067 0.17702 0.0
C24 C 0.35981 0.15618 0.1621 0.0
C25 C 0.37166 0.16265 0.12277 0.0
C26 C 0.35313 0.18741 0.10027 0.0
C27 C 0.32053 0.20234 0.11539 0.0
C28 C 0.18958 0.25752 0.13934 0.0
C29 C 0.20523 0.27967 0.10848 0.0
C30 C 0.18428 0.30676 0.09311 0.0
C31 C 0.14773 0.31222 0.10879 0.0
C32 C 0.13242 0.29026 0.13977 0.0
C33 C 0.15305 0.26328 0.15487 0.0
C34 C 0.18362 0.14455 0.21371 0.0
C35 C 0.14365 0.13849 0.20751 0.0
C36 C 0.14374 0.87256 0.64656 0.0
C37 C 0.15078 0.8775 0.60583 0.0
C38 C 0.17973 0.85908 0.58689 0.0
C39 C 0.202 0.83693 0.60861 0.0
H40 H 0.24888 0.71968 0.62361 0.0
H41 H 0.28641 0.67052 0.59907 0.0
H42 H 0.3809 0.71374 0.67536 0.0
H43 H 0.34272 0.76108 0.70115 0.0
H44 H 0.30753 0.79095 0.78827 0.0
H45 H 0.33704 0.82566 0.84507 0.0
H46 H 0.26861 0.91522 0.82331 0.0
H47 H 0.23912 0.88075 0.76614 0.0
H48 H 0.16133 0.84894 0.70012 0.0
H49 H 0.12169 0.88656 0.66188 0.0
H50 H 0.18552 0.86231 0.55541 0.0
H51 H 0.2249 0.82397 0.59355 0.0
N52 N 0.2428 0.78748 0.65875 0.0
N53 N 0.27803 0.78756 0.71798 0.0
N54 N 0.23191 0.82918 0.71145 0.0
C55 C 0.27 0.77328 0.68087 0.0
C56 C 0.2591 0.81538 0.73358 0.0
C57 C 0.22348 0.8154 0.67417 0.0
C58 C 0.29271 0.74409 0.66445 0.0
C59 C 0.27766 0.71848 0.63507 0.0
C60 C 0.29932 0.6904 0.62093 0.0
C61 C 0.33681 0.68778 0.63534 0.0
C62 C 0.35187 0.71397 0.66427 0.0
C63 C 0.33001 0.74146 0.67887 0.0
C64 C 0.27147 0.83333 0.77214 0.0
C65 C 0.29818 0.81775 0.79594 0.0
C66 C 0.31491 0.83751 0.82873 0.0
C67 C 0.30541 0.87329 0.8383 0.0
C68 C 0.27678 0.88785 0.81623 0.0
C69 C 0.25983 0.868 0.78357 0.0
C70 C 0.19623 0.83355 0.64981 0.0
C71 C 0.16647 0.85111 0.66841 0.0
C72 C 0.62405 0.21149 0.91228 0.0
C73 C 0.58936 0.19436 0.89615 0.0
C74 C 0.57276 0.21134 0.86435 0.0
C75 C 0.58981 0.24485 0.84972 0.0
H76 H 0.5848 0.32108 0.75714 0.0
H77 H 0.55656 0.352 0.70269 0.0
H78 H 0.62021 0.45525 0.73959 0.0
H79 H 0.64878 0.42443 0.7939 0.0
H80 H 0.71394 0.42301 0.86558 0.0
H81 H 0.77358 0.4519 0.89466 0.0
H82 H 0.81006 0.34383 0.91418 0.0
H83 H 0.74909 0.31524 0.88747 0.0
H84 H 0.66753 0.25754 0.91133 0.0
H85 H 0.63754 0.19953 0.937 0.0
H86 H 0.54645 0.1987 0.8506 0.0
H87 H 0.57585 0.25709 0.82549 0.0
N88 N 0.62346 0.31689 0.82365 0.0
N89 N 0.67151 0.367 0.82867 0.0
N90 N 0.67479 0.31536 0.86816 0.0
C91 C 0.63836 0.35093 0.81174 0.0
C92 C 0.69004 0.34932 0.85666 0.0
C93 C 0.64134 0.29899 0.85211 0.0
C94 C 0.6193 0.37013 0.77992 0.0
C95 C 0.59262 0.35042 0.75391 0.0
C96 C 0.57653 0.36811 0.72254 0.0
C97 C 0.58619 0.40609 0.71672 0.0
C98 C 0.61195 0.42604 0.7434 0.0
C99 C 0.62851 0.40825 0.77439 0.0
C100 C 0.7267 0.36683 0.87422 0.0
C101 C 0.73471 0.40546 0.87619 0.0
C102 C 0.76926 0.42203 0.89265 0.0
C103 C 0.79733 0.40044 0.90675 0.0
C104 C 0.7892 0.36166 0.90451 0.0
C105 C 0.75421 0.34512 0.88888 0.0
C106 C 0.62408 0.2624 0.86638 0.0
C107 C 0.64116 0.24501 0.89762 0.0
C108 C 0.72852 0.63082 0.4343 0.0
C109 C 0.70012 0.60585 0.4159 0.0
C110 C 0.70652 0.59385 0.37633 0.0
C111 C 0.73982 0.60757 0.35541 0.0
H112 H 0.81332 0.59195 0.25443 0.0
H113 H 0.83981 0.56087 0.19696 0.0
H114 H 0.94339 0.63699 0.20431 0.0
H115 H 0.91627 0.66889 0.26091 0.0
H116 H 0.91666 0.74253 0.32153 0.0
H117 H 0.94586 0.80136 0.35047 0.0
H118 H 0.8524 0.80115 0.43561 0.0
H119 H 0.82391 0.7427 0.40772 0.0
H120 H 0.7821 0.66434 0.4287 0.0
H121 H 0.72536 0.63993 0.46502 0.0
H122 H 0.68527 0.57477 0.36107 0.0
H123 H 0.74345 0.59854 0.32474 0.0
N124 N 0.81507 0.63506 0.31788 0.0
N125 N 0.86405 0.68452 0.313 0.0
N126 N 0.81886 0.68408 0.36494 0.0
C127 C 0.8467 0.65144 0.29859 0.0
C128 C 0.85003 0.70115 0.34614 0.0
C129 C 0.80117 0.65122 0.35133 0.0
C130 C 0.86259 0.63298 0.26264 0.0
C131 C 0.8417 0.60222 0.24377 0.0
C132 C 0.85708 0.58418 0.21077 0.0
C133 C 0.89401 0.59608 0.19578 0.0
C134 C 0.91467 0.62718 0.21439 0.0
C135 C 0.89915 0.64542 0.24719 0.0
C136 C 0.86801 0.73749 0.36234 0.0
C137 C 0.90237 0.75507 0.34642 0.0
C138 C 0.91902 0.78893 0.3629 0.0
C139 C 0.90171 0.80596 0.39568 0.0
C140 C 0.86707 0.7886 0.41101 0.0
C141 C 0.85057 0.75495 0.39471 0.0
C142 C 0.76723 0.6338 0.37353 0.0
C143 C 0.76134 0.64473 0.41341 0.0
C144 C 0.65908 0.86951 0.84327 0.0
C145 C 0.64324 0.86121 0.88072 0.0
C146 C 0.65535 0.83168 0.90153 0.0
C147 C 0.6858 0.81305 0.88675 0.0
H148 H 0.77664 0.75238 0.92744 0.0
H149 H 0.8154 0.71441 0.96698 0.0
H150 H 0.89 0.70084 0.86547 0.0
H151 H 0.852 0.73854 0.82652 0.0
H152 H 0.88007 0.83583 0.80959 0.0
H153 H 0.92254 0.87903 0.77162 0.0
H154 H 0.82374 0.91315 0.71103 0.0
H155 H 0.78116 0.8711 0.75033 0.0
H156 H 0.7021 0.85924 0.80025 0.0
H157 H 0.64969 0.89197 0.82664 0.0
H158 H 0.64333 0.82494 0.93055 0.0
H159 H 0.69659 0.79222 0.90474 0.0
N160 N 0.75696 0.78429 0.85977 0.0
N161 N 0.81581 0.79732 0.82614 0.0
N162 N 0.76482 0.83204 0.81407 0.0
C163 C 0.79369 0.77659 0.85211 0.0
C164 C 0.80166 0.82508 0.80712 0.0
C165 C 0.74218 0.81178 0.84014 0.0
C166 C 0.8117 0.74872 0.87416 0.0
C167 C 0.80093 0.74065 0.91355 0.0
C168 C 0.82317 0.71922 0.93618 0.0
C169 C 0.85629 0.70573 0.91953 0.0
C170 C 0.8654 0.71199 0.87944 0.0
C171 C 0.84342 0.73328 0.85704 0.0
C172 C 0.82732 0.84993 0.78265 0.0
C173 C 0.86743 0.8525 0.78807 0.0
C174 C 0.89179 0.8773 0.76638 0.0
C175 C 0.87656 0.89963 0.73841 0.0
C176 C 0.83638 0.89697 0.733 0.0
C177 C 0.81198 0.87256 0.75514 0.0
C178 C 0.70425 0.82382 0.85098 0.0
C179 C 0.68912 0.85078 0.82835 0.0
C180 C 0.7393 0.13421 0.19469 0.0
C181 C 0.70775 0.14695 0.17548 0.0
C182 C 0.69422 0.18009 0.18934 0.0
C183 C 0.71023 0.1988 0.22305 0.0
H184 H 0.66793 0.25239 0.31992 0.0
H185 H 0.62992 0.29975 0.34598 0.0
H186 H 0.72637 0.34546 0.41837 0.0
H187 H 0.76381 0.29624 0.39357 0.0
H188 H 0.78994 0.19226 0.42266 0.0
H189 H 0.83029 0.15418 0.45986 0.0
H190 H 0.89019 0.12781 0.35153 0.0
H191 H 0.84959 0.16525 0.31419 0.0
H192 H 0.77857 0.14151 0.24354 0.0
H193 H 0.7508 0.10908 0.18432 0.0
H194 H 0.66974 0.19055 0.17556 0.0
H195 H 0.6979 0.22341 0.23372 0.0
N196 N 0.73346 0.22858 0.29986 0.0
N197 N 0.76937 0.22752 0.35846 0.0
N198 N 0.7801 0.18722 0.30437 0.0
C199 C 0.74175 0.242 0.33721 0.0
C200 C 0.78878 0.20011 0.34195 0.0
C201 C 0.75249 0.20137 0.28309 0.0
C202 C 0.71895 0.27067 0.3546 0.0
C203 C 0.68107 0.27253 0.34146 0.0
C204 C 0.65932 0.30003 0.35619 0.0
C205 C 0.67505 0.32703 0.38395 0.0
C206 C 0.713 0.325 0.39736 0.0
C207 C 0.73459 0.29688 0.3831 0.0
C208 C 0.81651 0.18164 0.36549 0.0
C209 C 0.81215 0.17885 0.40691 0.0
C210 C 0.835 0.15687 0.42814 0.0
C211 C 0.86315 0.13795 0.40846 0.0
C212 C 0.86879 0.14221 0.36741 0.0
C213 C 0.84547 0.16355 0.34608 0.0
C214 C 0.74008 0.18476 0.24388 0.0
C215 C 0.75533 0.15292 0.22854 0.0
C216 C 0.24556 0.59936 0.12174 0.0
C217 C 0.2182 0.62149 0.10722 0.0
C218 C 0.22671 0.66022 0.11025 0.0
C219 C 0.26137 0.67617 0.12722 0.0
H220 H 0.34094 0.77879 0.14585 0.0
H221 H 0.37079 0.83761 0.12243 0.0
H222 H 0.4826 0.79592 0.1264 0.0
H223 H 0.45261 0.7386 0.15309 0.0
H224 H 0.4504 0.67533 0.23487 0.0
H225 H 0.47679 0.64283 0.28965 0.0
H226 H 0.367 0.57805 0.30386 0.0
H227 H 0.34074 0.60986 0.24931 0.0
H228 H 0.29989 0.59728 0.15033 0.0
H229 H 0.24102 0.56952 0.11908 0.0
H230 H 0.20638 0.67841 0.10014 0.0
H231 H 0.26691 0.70601 0.12919 0.0
N232 N 0.34148 0.70385 0.14971 0.0
N233 N 0.39332 0.69883 0.19298 0.0
N234 N 0.34209 0.65165 0.18879 0.0
C235 C 0.37595 0.71813 0.1653 0.0
C236 C 0.37619 0.66569 0.20532 0.0
C237 C 0.32464 0.67038 0.16093 0.0
C238 C 0.39446 0.75416 0.15156 0.0
C239 C 0.37198 0.78251 0.14202 0.0
C240 C 0.38924 0.81625 0.12809 0.0
C241 C 0.42949 0.82227 0.12211 0.0
C242 C 0.45178 0.7934 0.13142 0.0
C243 C 0.43457 0.76014 0.14653 0.0
C244 C 0.39335 0.64539 0.23757 0.0
C245 C 0.43195 0.65403 0.24953 0.0
C246 C 0.44716 0.63528 0.28077 0.0
C247 C 0.42393 0.60797 0.3012 0.0
C248 C 0.38556 0.59915 0.28897 0.0
C249 C 0.37058 0.61736 0.25747 0.0
C250 C 0.28806 0.65386 0.14241 0.0
C251 C 0.27968 0.6153 0.1395 0.0
C252 C 0.14539 0.23031 0.6047 0.0
C253 C 0.11032 0.21296 0.61896 0.0
C254 C 0.09185 0.23022 0.65085 0.0
C255 C 0.10777 0.26436 0.66737 0.0
H256 H 0.10043 0.34398 0.76263 0.0
H257 H 0.07105 0.37681 0.81753 0.0
H258 H 0.15368 0.47185 0.80024 0.0
H259 H 0.1828 0.43942 0.7453 0.0
H260 H 0.26551 0.42176 0.6892 0.0
H261 H 0.3244 0.44451 0.65341 0.0
H262 H 0.28432 0.37959 0.5493 0.0
H263 H 0.2269 0.35613 0.58516 0.0
H264 H 0.18819 0.27644 0.60879 0.0
H265 H 0.16095 0.21759 0.58086 0.0
H266 H 0.06467 0.21777 0.66248 0.0
H267 H 0.09256 0.27712 0.69145 0.0
N268 N 0.14466 0.33594 0.70056 0.0
N269 N 0.19268 0.38619 0.69491 0.0
N270 N 0.19077 0.33598 0.64949 0.0
C271 C 0.16104 0.36972 0.71418 0.0
C272 C 0.20756 0.36943 0.66236 0.0
C273 C 0.1596 0.31882 0.66819 0.0
C274 C 0.14398 0.38897 0.74907 0.0
C275 C 0.1125 0.37183 0.77056 0.0
C276 C 0.09573 0.3906 0.80231 0.0
C277 C 0.10976 0.42714 0.81332 0.0
C278 C 0.14166 0.44397 0.79232 0.0
C279 C 0.15854 0.42519 0.76079 0.0
C280 C 0.24169 0.38669 0.64032 0.0
C281 C 0.26928 0.41262 0.65858 0.0
C282 C 0.30301 0.42573 0.63797 0.0
C283 C 0.30966 0.41344 0.59853 0.0
C284 C 0.28102 0.38887 0.57993 0.0
C285 C 0.24779 0.37554 0.60054 0.0
C286 C 0.14253 0.28198 0.65239 0.0
C287 C 0.16117 0.2642 0.62104 0.0
Dy288 Dy 0.03009 0.01744 0.46996 0.0
C289 C 0.96231 0.98047 0.61891 0.0
C290 C 0.05544 0.03323 0.39524 0.0
Dy291 Dy 0.98597 0.99973 0.5446 0.0
O292 O 0.07047 0.01106 0.41862 0.0
O293 O 0.02662 0.047 0.4127 0.0
O294 O 0.08469 1.00615 0.49978 0.0
O295 O 0.0325 0.97507 0.5141 0.0
C296 C 0.06793 0.9807 0.52213 0.0
C297 C 0.94769 0.03602 0.49229 0.0
O298 O 0.02686 0.04834 0.5659 0.0
O299 O 0.04775 0.06999 0.50451 0.0
O300 O 0.94541 1.00218 0.59649 0.0
O301 O 0.99224 0.9695 0.60084 0.0
O302 O 0.93112 0.01097 0.51528 0.0
O303 O 0.98315 0.04188 0.50021 0.0
O304 O 0.98805 0.96969 0.44849 0.0
O305 O 0.96815 0.94746 0.50984 0.0
C306 C 0.0456 0.07404 0.54379 0.0
C307 C 0.96957 0.94381 0.47054 0.0
Dy308 Dy 0.5429 0.02141 0.03142 0.0
C309 C 0.41265 0.95928 0.94177 0.0
C310 C 0.60421 0.06002 0.06903 0.0
Dy311 Dy 0.47289 0.99564 0.9831 0.0
O312 O 0.59181 0.02581 0.07493 0.0
O313 O 0.58309 0.07332 0.0425 0.0
O314 O 0.54209 0.96636 0.05906 0.0
O315 O 0.4894 0.98554 0.04406 0.0
C316 C 0.50506 0.95827 0.05673 0.0
C317 C 0.5111 0.05937 0.9597 0.0
O318 O 0.44426 0.02892 0.02852 0.0
O319 O 0.50061 0.05925 0.05505 0.0
O320 O 0.43465 0.98757 0.92947 0.0
O321 O 0.42356 0.95059 0.97673 0.0
O322 O 0.47389 0.05225 0.95869 0.0
O323 O 0.52636 0.03135 0.97073 0.0
O324 O 0.57036 0.99124 0.98209 0.0
O325 O 0.51426 0.95556 0.96359 0.0
C326 C 0.46265 0.05551 0.05094 0.0
C327 C 0.55223 0.9622 0.96314 0.0
Dy328 Dy 0.52371 0.47475 0.48158 0.0
C329 C 0.43653 0.58225 0.57191 0.0
C330 C 0.57609 0.43392 0.44586 0.0
Dy331 Dy 0.48879 0.54136 0.53595 0.0
O332 O 0.54308 0.43955 0.4304 0.0
O333 O 0.58049 0.45101 0.48027 0.0
O334 O 0.47075 0.43292 0.49035 0.0
O335 O 0.47366 0.48528 0.51548 0.0
C336 C 0.45271 0.45524 0.51318 0.0
C337 C 0.55924 0.56141 0.50356 0.0
O338 O 0.50708 0.50366 0.58284 0.0
O339 O 0.54414 0.46597 0.54343 0.0
O340 O 0.46888 0.57537 0.58792 0.0
O341 O 0.43276 0.56643 0.53681 0.0
O342 O 0.54086 0.58377 0.52598 0.0
O343 O 0.53893 0.53096 0.50209 0.0
O344 O 0.50636 0.51317 0.43505 0.0
O345 O 0.46611 0.54764 0.47432 0.0
C346 C 0.53123 0.4776 0.57854 0.0
C347 C 0.48022 0.53735 0.43922 0.0
Dy348 Dy 0.01612 0.47602 0.02663 0.0
C349 C 0.95524 0.6087 0.98504 0.0
C350 C 0.05311 0.41896 0.05125 0.0
Dy351 Dy 0.99585 0.54969 0.99064 0.0
O352 O 0.03788 0.4426 0.07453 0.0
O353 O 0.04724 0.42576 0.01421 0.0
O354 O 0.96603 0.47836 0.06874 0.0
O355 O 0.99659 0.52762 0.05011 0.0
C356 C 0.96788 0.51427 0.07011 0.0
C357 C 0.03296 0.51103 0.9352 0.0
O358 O 0.04972 0.57167 0.023 0.0
O359 O 0.06978 0.51465 0.03864 0.0
O360 O 0.99079 0.60789 0.97302 0.0
O361 O 0.94223 0.57743 1.00018 0.0
O362 O 0.02163 0.54337 0.92897 0.0
O363 O 0.02399 0.50261 0.97042 0.0
O364 O 0.96605 0.45268 0.9896 0.0
O365 O 0.94439 0.50925 0.97485 0.0
C366 C 0.07547 0.55128 0.03755 0.0
C367 C 0.94021 0.47252 0.97438 0.0
C368 C 0.07931 0.09064 0.30602 0.0
C369 C 0.11251 0.0757 0.29145 0.0
H370 H 0.03483 0.0884 0.35032 0.0
C371 C 0.12379 0.04376 0.30848 0.0
H372 H 0.07009 0.1155 0.29392 0.0
C373 C 0.10385 0.02863 0.34123 0.0
C374 C 0.07222 0.04507 0.35713 0.0
H375 H 0.14882 0.03126 0.29742 0.0
H376 H 0.1141 1.00499 0.35501 0.0
C377 C 0.05922 0.07531 0.3385 0.0
C378 C 0.34382 0.93267 0.85764 0.0
C379 C 0.32873 0.89685 0.86773 0.0
H380 H 0.38241 0.98039 0.87327 0.0
C381 C 0.3393 0.88274 0.90407 0.0
H382 H 0.33664 0.94408 0.8296 0.0
C383 C 0.36552 0.90367 0.92919 0.0
C384 C 0.38187 0.93874 0.91801 0.0
H385 H 0.32796 0.85525 0.91261 0.0
H386 H 0.37403 0.8919 0.95656 0.0
C387 C 0.37026 0.95334 0.88246 0.0
C388 C 0.55628 0.45893 0.68596 0.0
C389 C 0.57093 0.42436 0.68184 0.0
H390 H 0.53165 0.5027 0.65687 0.0
C391 C 0.57182 0.4075 0.64373 0.0
H392 H 0.55506 0.47256 0.71498 0.0
C393 C 0.55895 0.42488 0.61053 0.0
C394 C 0.54427 0.45944 0.61448 0.0
H395 H 0.58325 0.3811 0.63941 0.0
H396 H 0.56042 0.41102 0.58166 0.0
C397 C 0.54273 0.47611 0.65271 0.0
C398 C 0.93581 0.59406 0.13366 0.0
C399 C 0.91135 0.57548 0.16187 0.0
H400 H 0.97266 0.58948 0.08254 0.0
C401 C 0.90442 0.53669 0.15804 0.0
H402 H 0.94141 0.62389 0.13501 0.0
C403 C 0.92185 0.51711 0.12753 0.0
C404 C 0.94701 0.53564 0.10014 0.0
H405 H 0.88635 0.52115 0.17932 0.0
H406 H 0.91634 0.48726 0.12606 0.0
C407 C 0.9535 0.57438 0.10327 0.0
C408 C 0.38384 0.11714 0.06921 0.0
C409 C 0.39726 0.13792 0.10306 0.0
H410 H 0.39371 0.07432 0.02679 0.0
C411 C 0.43258 0.13157 0.11994 0.0
H412 H 0.35628 0.12103 0.05616 0.0
C413 C 0.45422 0.10479 0.10297 0.0
C414 C 0.4402 0.08343 0.06964 0.0
H415 H 0.44317 0.14708 0.14633 0.0
H416 H 0.48146 0.10033 0.11632 0.0
C417 C 0.40495 0.09 0.05283 0.0
C418 C 0.14945 0.93176 0.56213 0.0
C419 C 0.12936 0.90344 0.58383 0.0
H420 H 0.14573 0.97896 0.52636 0.0
C421 C 0.08891 0.90099 0.58559 0.0
H422 H 0.18067 0.93448 0.56071 0.0
C423 C 0.06889 0.92615 0.56557 0.0
C424 C 0.089 0.9547 0.54419 0.0
H425 H 0.07278 0.87934 0.60207 0.0
H426 H 0.03769 0.92311 0.56668 0.0
C427 C 0.12947 0.95734 0.54276 0.0
C428 C 0.8542 0.40159 0.95369 0.0
C429 C 0.83475 0.41832 0.92355 0.0
H430 H 0.90285 0.4052 0.99292 0.0
C431 C 0.85136 0.4526 0.90976 0.0
H432 H 0.84233 0.37562 0.96581 0.0
C433 C 0.8855 0.46999 0.92626 0.0
C434 C 0.90466 0.45326 0.95632 0.0
H435 H 0.83824 0.46612 0.88592 0.0
H436 H 0.89714 0.49649 0.9151 0.0
C437 C 0.88892 0.41865 0.96952 0.0
C438 C 0.64542 0.55746 0.43377 0.0
C439 C 0.66365 0.59379 0.43784 0.0
H440 H 0.59801 0.51866 0.45128 0.0
C441 C 0.64677 0.61896 0.46351 0.0
H442 H 0.65756 0.53723 0.41448 0.0
C443 C 0.61322 0.60809 0.48494 0.0
C444 C 0.5953 0.57185 0.48115 0.0
H445 H 0.65923 0.64739 0.46679 0.0
H446 H 0.60114 0.62829 0.50436 0.0
C447 C 0.61153 0.54664 0.45516 0.0
C448 C 0.1198 0.34372 0.05227 0.0
C449 C 0.12505 0.34061 0.09336 0.0
H450 H 0.09204 0.37094 0.0065 0.0
C451 C 0.1066 0.36344 0.12014 0.0
H452 H 0.13349 0.32614 0.03109 0.0
C453 C 0.08278 0.38851 0.10622 0.0
C454 C 0.07707 0.39131 0.06527 0.0
H455 H 0.11055 0.36185 0.15196 0.0
H456 H 0.06897 0.40581 0.1276 0.0
C457 C 0.09584 0.36894 0.03828 0.0
C458 C 0.52944 0.15463 0.91674 0.0
C459 C 0.56986 0.1596 0.91307 0.0
H460 H 0.47961 0.11949 0.93442 0.0
C461 C 0.59112 0.13126 0.92591 0.0
H462 H 0.51206 0.17602 0.90807 0.0
C463 C 0.57234 0.09869 0.94143 0.0
C464 C 0.53192 0.0938 0.94447 0.0
H465 H 0.62226 0.13393 0.92335 0.0
H466 H 0.58939 0.07725 0.95068 0.0
C467 C 0.51079 0.12224 0.93217 0.0
C468 C 0.93695 0.87015 0.39133 0.0
C469 C 0.91959 0.84136 0.41449 0.0
H470 H 0.96592 0.92508 0.39058 0.0
C471 C 0.9188 0.84681 0.45613 0.0
H472 H 0.93776 0.86713 0.3592 0.0
C473 C 0.93457 0.88009 0.47408 0.0
C474 C 0.95179 0.90894 0.45099 0.0
H475 H 0.90633 0.82512 0.47506 0.0
H476 H 0.93349 0.883 0.50622 0.0
C477 C 0.95283 0.90353 0.40935 0.0
C478 C 0.35814 0.64638 0.5797 0.0
C479 C 0.36065 0.65863 0.6198 0.0
H480 H 0.37986 0.61233 0.53344 0.0
C481 C 0.3873 0.64377 0.64453 0.0
H482 H 0.33856 0.65744 0.55948 0.0
C483 C 0.41173 0.61858 0.62919 0.0
C484 C 0.40949 0.60707 0.58906 0.0
H485 H 0.38951 0.65169 0.67579 0.0
H486 H 0.43245 0.60822 0.64871 0.0
C487 C 0.38205 0.62067 0.56463 0.0
C488 C 0.93661 0.91159 0.69763 0.0
C489 C 0.90242 0.92391 0.71307 0.0
H490 H 0.98303 0.92063 0.65598 0.0
C491 C 0.89157 0.9581 0.70136 0.0
H492 H 0.94568 0.88527 0.70576 0.0
C493 C 0.91266 0.97798 0.67228 0.0
C494 C 0.94519 0.96422 0.655 0.0
H495 H 0.86596 0.96881 0.71354 0.0
H496 H 0.90255 1.00322 0.66208 0.0
C497 C 0.95798 0.93177 0.669 0.0
C498 C 0.66964 0.14036 0.11196 0.0
C499 C 0.68611 0.12395 0.14418 0.0
H500 H 0.63074 0.1328 0.0626 0.0
C501 C 0.67821 0.08563 0.14878 0.0
H502 H 0.67558 0.16972 0.10728 0.0
C503 C 0.65284 0.06459 0.1231 0.0
C504 C 0.63477 0.08142 0.0924 0.0
H505 H 0.68995 0.07214 0.17352 0.0
H506 H 0.64615 0.0354 0.12836 0.0
C507 C 0.64412 0.11926 0.08631 0.0
C508 C 0.47441 0.57453 0.33469 0.0
C509 C 0.43882 0.5896 0.33618 0.0
H510 H 0.51517 0.5455 0.3657 0.0
C511 C 0.41701 0.58683 0.37152 0.0
H512 H 0.49178 0.57607 0.30781 0.0
C513 C 0.43049 0.56977 0.40463 0.0
C514 C 0.46591 0.55442 0.40322 0.0
H515 H 0.38964 0.59839 0.37377 0.0
H516 H 0.41293 0.56849 0.43139 0.0
C517 C 0.48764 0.55678 0.36773 0.0
C518 C 0.07719 0.43165 0.88099 0.0
C519 C 0.09047 0.44827 0.84538 0.0
H520 H 0.0488 0.43834 0.93747 0.0
C521 C 0.08476 0.48553 0.84024 0.0
H522 H 0.0812 0.40307 0.88611 0.0
C523 C 0.06633 0.50555 0.86959 0.0
C524 C 0.05325 0.48908 0.90515 0.0
H525 H 0.09394 0.49918 0.81307 0.0
H526 H 0.06224 0.53409 0.86428 0.0
C527 C 0.05892 0.4519 0.91062 0.0
C528 C 0.63321 0.92411 0.90597 0.0
C529 C 0.61877 0.88687 0.90039 0.0
H530 H 0.62345 0.97719 0.9307 0.0
C531 C 0.58213 0.87447 0.91505 0.0
H532 H 0.66168 0.93404 0.8952 0.0
C533 C 0.56002 0.89927 0.93483 0.0
C534 C 0.57477 0.93645 0.94098 0.0
H535 H 0.57071 0.84577 0.91113 0.0
H536 H 0.53178 0.88919 0.94608 0.0
C537 C 0.61152 0.94866 0.92642 0.0
C538 C 0.86552 0.08462 0.45326 0.0
C539 C 0.88511 0.11217 0.43015 0.0
H540 H 0.86995 0.0384 0.49025 0.0
C541 C 0.92548 0.11413 0.42699 0.0
H542 H 0.83437 0.08224 0.45578 0.0
C543 C 0.94592 0.08932 0.44711 0.0
C544 C 0.92627 0.06162 0.47002 0.0
H545 H 0.94124 0.13518 0.40939 0.0
H546 H 0.97707 0.09193 0.44487 0.0
C547 C 0.88587 0.0594 0.47272 0.0
C548 C 0.1639 0.56984 0.10275 0.0
C549 C 0.18107 0.60407 0.08942 0.0
H550 H 0.11784 0.52644 0.09663 0.0
C551 C 0.16243 0.62112 0.05891 0.0
H552 H 0.17632 0.55613 0.12689 0.0
C553 C 0.12787 0.60438 0.04233 0.0
C554 C 0.11155 0.56983 0.0552 0.0
H555 H 0.17476 0.64713 0.04722 0.0
H556 H 0.11438 0.61812 0.01886 0.0
C557 C 0.12999 0.5528 0.08556 0.0
C558 C 0.36567 0.46076 0.58148 0.0
C559 C 0.34659 0.4248 0.57698 0.0
H560 H 0.41425 0.49858 0.56497 0.0
C561 C 0.36312 0.39934 0.55135 0.0
H562 H 0.35384 0.48122 0.60071 0.0
C563 C 0.3972 0.40956 0.53045 0.0
C564 C 0.41602 0.44541 0.53478 0.0
H565 H 0.35001 0.37115 0.54772 0.0
H566 H 0.40903 0.38916 0.51111 0.0
C567 C 0.40008 0.47089 0.56067 0.0
C568 C 0.92202 0.69239 0.93934 0.0
C569 C 0.88178 0.68506 0.94318 0.0
H570 H 0.97713 0.67382 0.9501 0.0
C571 C 0.86642 0.65565 0.96639 0.0
H572 H 0.93458 0.71547 0.92231 0.0
C573 C 0.89084 0.63207 0.98263 0.0
C574 C 0.9308 0.63766 0.97575 0.0
H575 H 0.83552 0.6495 0.96985 0.0
H576 H 0.87823 0.60826 0.99848 0.0
C577 C 0.94636 0.66878 0.9554 0.0
C578 C 0.42785 0.88023 0.08154 0.0
C579 C 0.44815 0.85814 0.10615 0.0
H580 H 0.4292 0.92966 0.04799 0.0
C581 C 0.48683 0.87065 0.11514 0.0
H582 H 0.39829 0.87182 0.07314 0.0
C583 C 0.50489 0.903 0.099 0.0
C584 C 0.48465 0.92468 0.07435 0.0
H585 H 0.50349 0.85571 0.13492 0.0
H586 H 0.53485 0.91121 0.10621 0.0
C587 C 0.44571 0.91335 0.06643 0.0
C588 C 0.07539 0.14864 0.62296 0.0
C589 C 0.09326 0.17731 0.6 0.0
H590 H 0.0468 0.09358 0.62353 0.0
C591 C 0.09541 0.17147 0.55846 0.0
H592 H 0.07354 0.15195 0.65502 0.0
C593 C 0.08042 0.13793 0.54042 0.0
C594 C 0.06267 0.1092 0.56334 0.0
H595 H 0.10835 0.19305 0.53966 0.0
H596 H 0.08251 0.13471 0.50837 0.0
C597 C 0.06033 0.115 0.60487 0.0
C598 C 0.65494 0.37017 0.43865 0.0
C599 C 0.65149 0.35659 0.39905 0.0
H600 H 0.6341 0.40559 0.48418 0.0
C601 C 0.62421 0.37056 0.37437 0.0
H602 H 0.6751 0.35988 0.45881 0.0
C603 C 0.59999 0.39609 0.38934 0.0
C604 C 0.6031 0.40889 0.42902 0.0
H605 H 0.62129 0.36165 0.34343 0.0
H606 H 0.57873 0.40569 0.36991 0.0
C607 C 0.63124 0.39625 0.45333 0.0
loop_
_geom_bond_atom_site_label_1
_geom_bond_atom_site_label_2
_geom_bond_distance
_geom_bond_site_symmetry_2
_ccdc_geom_bond_type
C0 C1 1.384 . S
C0 H13 0.947 . S
C0 C35 1.382 . S
C1 C0 1.384 . S
C1 C2 1.378 . S
C2 C1 1.378 . S
C2 C3 1.378 . S
C2 H14 0.952 . S
C3 C2 1.378 . S
C3 H15 0.950 . S
C3 C34 1.383 . S
H4 C23 0.947 . S
H5 C24 0.946 . S
H6 C26 0.953 . S
H7 C27 0.945 . S
H8 C29 0.952 . S
H9 C30 0.949 . S
H10 C32 0.950 . S
H11 C33 0.948 . S
H12 C35 0.951 . S
H13 C0 0.947 . S
H14 C2 0.952 . S
H15 C3 0.950 . S
N16 C19 1.382 . S
N16 C21 1.363 . S
N17 C19 1.371 . S
N17 C20 1.372 . S
N18 C20 1.361 . S
N18 C21 1.377 . S
C19 N16 1.382 . S
C19 N17 1.371 . S
C19 C22 1.480 . S
C20 N17 1.372 . S
C20 N18 1.361 . S
C20 C28 1.457 . S
C21 N16 1.363 . S
C21 N18 1.377 . S
C21 C34 1.479 . S
C22 C19 1.480 . S
C22 C23 1.383 . S
C22 C27 1.385 . S
C23 H4 0.947 . S
C23 C22 1.383 . S
C23 C24 1.388 . S
C24 H5 0.946 . S
C24 C23 1.388 . S
C24 C25 1.384 . S
C25 C24 1.384 . S
C25 C26 1.377 . S
C26 H6 0.953 . S
C26 C25 1.377 . S
C26 C27 1.369 . S
C27 H7 0.945 . S
C27 C22 1.385 . S
C27 C26 1.369 . S
C28 C20 1.457 . S
C28 C29 1.372 . S
C28 C33 1.364 . S
C29 H8 0.952 . S
C29 C28 1.372 . S
C29 C30 1.389 . S
C30 H9 0.949 . S
C30 C29 1.389 . S
C30 C31 1.387 . S
C31 C30 1.387 . S
C31 C32 1.372 . S
C32 H10 0.950 . S
C32 C31 1.372 . S
C32 C33 1.379 . S
C33 H11 0.948 . S
C33 C28 1.364 . S
C33 C32 1.379 . S
C34 C3 1.383 . S
C34 C21 1.479 . S
C34 C35 1.398 . S
C35 C0 1.382 . S
C35 H12 0.951 . S
C35 C34 1.398 . S
C36 C37 1.384 . S
C36 H49 0.947 . S
C36 C71 1.382 . S
C37 C36 1.384 . S
C37 C38 1.378 . S
C38 C37 1.378 . S
C38 C39 1.378 . S
C38 H50 0.952 . S
C39 C38 1.378 . S
C39 H51 0.950 . S
C39 C70 1.383 . S
H40 C59 0.947 . S
H41 C60 0.946 . S
H42 C62 0.953 . S
H43 C63 0.945 . S
H44 C65 0.952 . S
H45 C66 0.949 . S
H46 C68 0.950 . S
H47 C69 0.948 . S
H48 C71 0.951 . S
H49 C36 0.947 . S
H50 C38 0.952 . S
H51 C39 0.950 . S
N52 C55 1.382 . S
N52 C57 1.363 . S
N53 C55 1.371 . S
N53 C56 1.372 . S
N54 C56 1.361 . S
N54 C57 1.377 . S
C55 N52 1.382 . S
C55 N53 1.371 . S
C55 C58 1.480 . S
C56 N53 1.372 . S
C56 N54 1.361 . S
C56 C64 1.457 . S
C57 N52 1.363 . S
C57 N54 1.377 . S
C57 C70 1.479 . S
C58 C55 1.480 . S
C58 C59 1.383 . S
C58 C63 1.385 . S
C59 H40 0.947 . S
C59 C58 1.383 . S
C59 C60 1.388 . S
C60 H41 0.946 . S
C60 C59 1.388 . S
C60 C61 1.384 . S
C61 C60 1.384 . S
C61 C62 1.377 . S
C62 H42 0.953 . S
C62 C61 1.377 . S
C62 C63 1.369 . S
C63 H43 0.945 . S
C63 C58 1.385 . S
C63 C62 1.369 . S
C64 C56 1.457 . S
C64 C65 1.372 . S
C64 C69 1.364 . S
C65 H44 0.952 . S
C65 C64 1.372 . S
C65 C66 1.389 . S
C66 H45 0.949 . S
C66 C65 1.389 . S
C66 C67 1.387 . S
C67 C66 1.387 . S
C67 C68 1.372 . S
C68 H46 0.950 . S
C68 C67 1.372 . S
C68 C69 1.379 . S
C69 H47 0.948 . S
C69 C64 1.364 . S
C69 C68 1.379 . S
C70 C39 1.383 . S
C70 C57 1.479 . S
C70 C71 1.398 . S
C71 C36 1.382 . S
C71 H48 0.951 . S
C71 C70 1.398 . S
C72 C73 1.384 . S
C72 H85 0.947 . S
C72 C107 1.382 . S
C73 C72 1.384 . S
C73 C74 1.378 . S
C74 C73 1.378 . S
C74 C75 1.378 . S
C74 H86 0.952 . S
C75 C74 1.378 . S
C75 H87 0.950 . S
C75 C106 1.383 . S
H76 C95 0.947 . S
H77 C96 0.946 . S
H78 C98 0.953 . S
H79 C99 0.945 . S
H80 C101 0.952 . S
H81 C102 0.949 . S
H82 C104 0.950 . S
H83 C105 0.948 . S
H84 C107 0.951 . S
H85 C72 0.947 . S
H86 C74 0.952 . S
H87 C75 0.950 . S
N88 C91 1.382 . S
N88 C93 1.363 . S
N89 C91 1.371 . S
N89 C92 1.372 . S
N90 C92 1.361 . S
N90 C93 1.377 . S
C91 N88 1.382 . S
C91 N89 1.371 . S
C91 C94 1.480 . S
C92 N89 1.372 . S
C92 N90 1.361 . S
C92 C100 1.457 . S
C93 N88 1.363 . S
C93 N90 1.377 . S
C93 C106 1.479 . S
C94 C91 1.480 . S
C94 C95 1.383 . S
C94 C99 1.385 . S
C95 H76 0.947 . S
C95 C94 1.383 . S
C95 C96 1.388 . S
C96 H77 0.946 . S
C96 C95 1.388 . S
C96 C97 1.384 . S
C97 C96 1.384 . S
C97 C98 1.377 . S
C98 H78 0.953 . S
C98 C97 1.377 . S
C98 C99 1.369 . S
C99 H79 0.945 . S
C99 C94 1.385 . S
C99 C98 1.369 . S
C100 C92 1.457 . S
C100 C101 1.372 . S
C100 C105 1.364 . S
C101 H80 0.952 . S
C101 C100 1.372 . S
C101 C102 1.389 . S
C102 H81 0.949 . S
C102 C101 1.389 . S
C102 C103 1.387 . S
C103 C102 1.387 . S
C103 C104 1.372 . S
C104 H82 0.950 . S
C104 C103 1.372 . S
C104 C105 1.379 . S
C105 H83 0.948 . S
C105 C100 1.364 . S
C105 C104 1.379 . S
C106 C75 1.383 . S
C106 C93 1.479 . S
C106 C107 1.398 . S
C107 C72 1.382 . S
C107 H84 0.951 . S
C107 C106 1.398 . S
C108 C109 1.384 . S
C108 H121 0.947 . S
C108 C143 1.382 . S
C109 C108 1.384 . S
C109 C110 1.378 . S
C110 C109 1.378 . S
C110 C111 1.378 . S
C110 H122 0.952 . S
C111 C110 1.378 . S
C111 H123 0.950 . S
C111 C142 1.383 . S
H112 C131 0.947 . S
H113 C132 0.946 . S
H114 C134 0.953 . S
H115 C135 0.945 . S
H116 C137 0.952 . S
H117 C138 0.949 . S
H118 C140 0.950 . S
H119 C141 0.948 . S
H120 C143 0.951 . S
H121 C108 0.947 . S
H122 C110 0.952 . S
H123 C111 0.950 . S
N124 C127 1.382 . S
N124 C129 1.363 . S
N125 C127 1.371 . S
N125 C128 1.372 . S
N126 C128 1.361 . S
N126 C129 1.377 . S
C127 N124 1.382 . S
C127 N125 1.371 . S
C127 C130 1.480 . S
C128 N125 1.372 . S
C128 N126 1.361 . S
C128 C136 1.457 . S
C129 N124 1.363 . S
C129 N126 1.377 . S
C129 C142 1.479 . S
C130 C127 1.480 . S
C130 C131 1.383 . S
C130 C135 1.385 . S
C131 H112 0.947 . S
C131 C130 1.383 . S
C131 C132 1.388 . S
C132 H113 0.946 . S
C132 C131 1.388 . S
C132 C133 1.384 . S
C133 C132 1.384 . S
C133 C134 1.377 . S
C134 H114 0.953 . S
C134 C133 1.377 . S
C134 C135 1.369 . S
C135 H115 0.945 . S
C135 C130 1.385 . S
C135 C134 1.369 . S
C136 C128 1.457 . S
C136 C137 1.372 . S
C136 C141 1.364 . S
C137 H116 0.952 . S
C137 C136 1.372 . S
C137 C138 1.389 . S
C138 H117 0.949 . S
C138 C137 1.389 . S
C138 C139 1.387 . S
C139 C138 1.387 . S
C139 C140 1.372 . S
C140 H118 0.950 . S
C140 C139 1.372 . S
C140 C141 1.379 . S
C141 H119 0.948 . S
C141 C136 1.364 . S
C141 C140 1.379 . S
C142 C111 1.383 . S
C142 C129 1.479 . S
C142 C143 1.398 . S
C143 C108 1.382 . S
C143 H120 0.951 . S
C143 C142 1.398 . S
C144 C145 1.384 . S
C144 H157 0.947 . S
C144 C179 1.382 . S
C145 C144 1.384 . S
C145 C146 1.378 . S
C146 C145 1.378 . S
C146 C147 1.378 . S
C146 H158 0.952 . S
C147 C146 1.378 . S
C147 H159 0.950 . S
C147 C178 1.383 . S
H148 C167 0.947 . S
H149 C168 0.946 . S
H150 C170 0.953 . S
H151 C171 0.945 . S
H152 C173 0.952 . S
H153 C174 0.949 . S
H154 C176 0.950 . S
H155 C177 0.948 . S
H156 C179 0.951 . S
H157 C144 0.947 . S
H158 C146 0.952 . S
H159 C147 0.950 . S
N160 C163 1.382 . S
N160 C165 1.363 . S
N161 C163 1.371 . S
N161 C164 1.372 . S
N162 C164 1.361 . S
N162 C165 1.377 . S
C163 N160 1.382 . S
C163 N161 1.371 . S
C163 C166 1.480 . S
C164 N161 1.372 . S
C164 N162 1.361 . S
C164 C172 1.457 . S
C165 N160 1.363 . S
C165 N162 1.377 . S
C165 C178 1.479 . S
C166 C163 1.480 . S
C166 C167 1.383 . S
C166 C171 1.385 . S
C167 H148 0.947 . S
C167 C166 1.383 . S
C167 C168 1.388 . S
C168 H149 0.946 . S
C168 C167 1.388 . S
C168 C169 1.384 . S
C169 C168 1.384 . S
C169 C170 1.377 . S
C170 H150 0.953 . S
C170 C169 1.377 . S
C170 C171 1.369 . S
C171 H151 0.945 . S
C171 C166 1.385 . S
C171 C170 1.369 . S
C172 C164 1.457 . S
C172 C173 1.372 . S
C172 C177 1.364 . S
C173 H152 0.952 . S
C173 C172 1.372 . S
C173 C174 1.389 . S
C174 H153 0.949 . S
C174 C173 1.389 . S
C174 C175 1.387 . S
C175 C174 1.387 . S
C175 C176 1.372 . S
C176 H154 0.950 . S
C176 C175 1.372 . S
C176 C177 1.379 . S
C177 H155 0.948 . S
C177 C172 1.364 . S
C177 C176 1.379 . S
C178 C147 1.383 . S
C178 C165 1.479 . S
C178 C179 1.398 . S
C179 C144 1.382 . S
C179 H156 0.951 . S
C179 C178 1.398 . S
C180 C181 1.384 . S
C180 H193 0.947 . S
C180 C215 1.382 . S
C181 C180 1.384 . S
C181 C182 1.378 . S
C182 C181 1.378 . S
C182 C183 1.378 . S
C182 H194 0.952 . S
C183 C182 1.378 . S
C183 H195 0.950 . S
C183 C214 1.383 . S
H184 C203 0.947 . S
H185 C204 0.946 . S
H186 C206 0.953 . S
H187 C207 0.945 . S
H188 C209 0.952 . S
H189 C210 0.949 . S
H190 C212 0.950 . S
H191 C213 0.948 . S
H192 C215 0.951 . S
H193 C180 0.947 . S
H194 C182 0.952 . S
H195 C183 0.950 . S
N196 C199 1.382 . S
N196 C201 1.363 . S
N197 C199 1.371 . S
N197 C200 1.372 . S
N198 C200 1.361 . S
N198 C201 1.377 . S
C199 N196 1.382 . S
C199 N197 1.371 . S
C199 C202 1.480 . S
C200 N197 1.372 . S
C200 N198 1.361 . S
C200 C208 1.457 . S
C201 N196 1.363 . S
C201 N198 1.377 . S
C201 C214 1.479 . S
C202 C199 1.480 . S
C202 C203 1.383 . S
C202 C207 1.385 . S
C203 H184 0.947 . S
C203 C202 1.383 . S
C203 C204 1.388 . S
C204 H185 0.946 . S
C204 C203 1.388 . S
C204 C205 1.384 . S
C205 C204 1.384 . S
C205 C206 1.377 . S
C206 H186 0.953 . S
C206 C205 1.377 . S
C206 C207 1.369 . S
C207 H187 0.945 . S
C207 C202 1.385 . S
C207 C206 1.369 . S
C208 C200 1.457 . S
C208 C209 1.372 . S
C208 C213 1.364 . S
C209 H188 0.952 . S
C209 C208 1.372 . S
C209 C210 1.389 . S
C210 H189 0.949 . S
C210 C209 1.389 . S
C210 C211 1.387 . S
C211 C210 1.387 . S
C211 C212 1.372 . S
C212 H190 0.950 . S
C212 C211 1.372 . S
C212 C213 1.379 . S
C213 H191 0.948 . S
C213 C208 1.364 . S
C213 C212 1.379 . S
C214 C183 1.383 . S
C214 C201 1.479 . S
C214 C215 1.398 . S
C215 C180 1.382 . S
C215 H192 0.951 . S
C215 C214 1.398 . S
C216 C217 1.384 . S
C216 H229 0.947 . S
C216 C251 1.382 . S
C217 C216 1.384 . S
C217 C218 1.378 . S
C218 C217 1.378 . S
C218 C219 1.378 . S
C218 H230 0.952 . S
C219 C218 1.378 . S
C219 H231 0.950 . S
C219 C250 1.383 . S
H220 C239 0.947 . S
H221 C240 0.946 . S
H222 C242 0.953 . S
H223 C243 0.945 . S
H224 C245 0.952 . S
H225 C246 0.949 . S
H226 C248 0.950 . S
H227 C249 0.948 . S
H228 C251 0.951 . S
H229 C216 0.947 . S
H230 C218 0.952 . S
H231 C219 0.950 . S
N232 C235 1.382 . S
N232 C237 1.363 . S
N233 C235 1.371 . S
N233 C236 1.372 . S
N234 C236 1.361 . S
N234 C237 1.377 . S
C235 N232 1.382 . S
C235 N233 1.371 . S
C235 C238 1.480 . S
C236 N233 1.372 . S
C236 N234 1.361 . S
C236 C244 1.457 . S
C237 N232 1.363 . S
C237 N234 1.377 . S
C237 C250 1.479 . S
C238 C235 1.480 . S
C238 C239 1.383 . S
C238 C243 1.385 . S
C239 H220 0.947 . S
C239 C238 1.383 . S
C239 C240 1.388 . S
C240 H221 0.946 . S
C240 C239 1.388 . S
C240 C241 1.384 . S
C241 C240 1.384 . S
C241 C242 1.377 . S
C242 H222 0.953 . S
C242 C241 1.377 . S
C242 C243 1.369 . S
C243 H223 0.945 . S
C243 C238 1.385 . S
C243 C242 1.369 . S
C244 C236 1.457 . S
C244 C245 1.372 . S
C244 C249 1.364 . S
C245 H224 0.952 . S
C245 C244 1.372 . S
C245 C246 1.389 . S
C246 H225 0.949 . S
C246 C245 1.389 . S
C246 C247 1.387 . S
C247 C246 1.387 . S
C247 C248 1.372 . S
C248 H226 0.950 . S
C248 C247 1.372 . S
C248 C249 1.379 . S
C249 H227 0.948 . S
C249 C244 1.364 . S
C249 C248 1.379 . S
C250 C219 1.383 . S
C250 C237 1.479 . S
C250 C251 1.398 . S
C251 C216 1.382 . S
C251 H228 0.951 . S
C251 C250 1.398 . S
C252 C253 1.384 . S
C252 H265 0.947 . S
C252 C287 1.382 . S
C253 C252 1.384 . S
C253 C254 1.378 . S
C254 C253 1.378 . S
C254 C255 1.378 . S
C254 H266 0.952 . S
C255 C254 1.378 . S
C255 H267 0.950 . S
C255 C286 1.383 . S
H256 C275 0.947 . S
H257 C276 0.946 . S
H258 C278 0.953 . S
H259 C279 0.945 . S
H260 C281 0.952 . S
H261 C282 0.949 . S
H262 C284 0.950 . S
H263 C285 0.948 . S
H264 C287 0.951 . S
H265 C252 0.947 . S
H266 C254 0.952 . S
H267 C255 0.950 . S
N268 C271 1.382 . S
N268 C273 1.363 . S
N269 C271 1.371 . S
N269 C272 1.372 . S
N270 C272 1.361 . S
N270 C273 1.377 . S
C271 N268 1.382 . S
C271 N269 1.371 . S
C271 C274 1.480 . S
C272 N269 1.372 . S
C272 N270 1.361 . S
C272 C280 1.457 . S
C273 N268 1.363 . S
C273 N270 1.377 . S
C273 C286 1.479 . S
C274 C271 1.480 . S
C274 C275 1.383 . S
C274 C279 1.385 . S
C275 H256 0.947 . S
C275 C274 1.383 . S
C275 C276 1.388 . S
C276 H257 0.946 . S
C276 C275 1.388 . S
C276 C277 1.384 . S
C277 C276 1.384 . S
C277 C278 1.377 . S
C278 H258 0.953 . S
C278 C277 1.377 . S
C278 C279 1.369 . S
C279 H259 0.945 . S
C279 C274 1.385 . S
C279 C278 1.369 . S
C280 C272 1.457 . S
C280 C281 1.372 . S
C280 C285 1.364 . S
C281 H260 0.952 . S
C281 C280 1.372 . S
C281 C282 1.389 . S
C282 H261 0.949 . S
C282 C281 1.389 . S
C282 C283 1.387 . S
C283 C282 1.387 . S
C283 C284 1.372 . S
C284 H262 0.950 . S
C284 C283 1.372 . S
C284 C285 1.379 . S
C285 H263 0.948 . S
C285 C280 1.364 . S
C285 C284 1.379 . S
C286 C255 1.383 . S
C286 C273 1.479 . S
C286 C287 1.398 . S
C287 C252 1.382 . S
C287 H264 0.951 . S
C287 C286 1.398 . S
Dy288 O292 2.398 . S
Dy288 O293 2.491 . S
Dy288 O294 2.403 1_545 S
Dy288 O295 2.664 1_545 S
Dy288 O299 2.326 . S
Dy288 O303 2.310 1_455 S
Dy288 O304 2.351 1_445 S
C289 O300 1.185 . S
C289 O301 1.355 . S
C290 O292 1.185 . S
C290 O293 1.355 . S
Dy291 O295 2.310 1_655 S
Dy291 O298 2.351 1_665 S
Dy291 O300 2.398 . S
Dy291 O301 2.491 . S
Dy291 O302 2.403 1_565 S
Dy291 O303 2.664 1_565 S
Dy291 O305 2.326 . S
O292 Dy288 2.398 . S
O292 C290 1.185 . S
O293 Dy288 2.491 . S
O293 C290 1.355 . S
O294 Dy288 2.403 1_565 S
O294 C296 1.254 . S
O295 Dy288 2.664 1_565 S
O295 Dy291 2.310 1_455 S
O295 C296 1.268 . S
C296 O294 1.254 . S
C296 O295 1.268 . S
C297 O302 1.254 . S
C297 O303 1.268 . S
O298 Dy291 2.351 1_445 S
O298 C306 1.249 . S
O299 Dy288 2.326 . S
O299 C306 1.267 . S
O300 C289 1.185 . S
O300 Dy291 2.398 . S
O301 C289 1.355 . S
O301 Dy291 2.491 . S
O302 Dy291 2.403 1_545 S
O302 C297 1.254 . S
O303 Dy288 2.310 1_655 S
O303 Dy291 2.664 1_545 S
O303 C297 1.268 . S
O304 Dy288 2.351 1_665 S
O304 C307 1.249 . S
O305 Dy291 2.326 . S
O305 C307 1.267 . S
C306 O298 1.249 . S
C306 O299 1.267 . S
C307 O304 1.249 . S
C307 O305 1.267 . S
Dy308 O312 2.398 . S
Dy308 O313 2.491 . S
Dy308 O314 2.403 1_545 S
Dy308 O315 2.664 1_545 S
Dy308 O319 2.326 . S
Dy308 O323 2.310 1_554 S
Dy308 O324 2.351 1_544 S
C309 O320 1.185 . S
C309 O321 1.355 . S
C310 O312 1.185 . S
C310 O313 1.355 . S
Dy311 O315 2.310 1_546 S
Dy311 O318 2.351 1_556 S
Dy311 O320 2.398 1_545 S
Dy311 O321 2.491 1_545 S
Dy311 O322 2.403 . S
Dy311 O323 2.664 . S
Dy311 O325 2.326 1_545 S
O312 Dy308 2.398 . S
O312 C310 1.185 . S
O313 Dy308 2.491 . S
O313 C310 1.355 . S
O314 Dy308 2.403 1_565 S
O314 C316 1.254 . S
O315 Dy308 2.664 1_565 S
O315 Dy311 2.310 1_564 S
O315 C316 1.268 . S
C316 O314 1.254 . S
C316 O315 1.268 . S
C317 O322 1.254 . S
C317 O323 1.268 . S
O318 Dy311 2.351 1_554 S
O318 C326 1.249 . S
O319 Dy308 2.326 . S
O319 C326 1.267 . S
O320 C309 1.185 . S
O320 Dy311 2.398 1_565 S
O321 C309 1.355 . S
O321 Dy311 2.491 1_565 S
O322 Dy311 2.403 . S
O322 C317 1.254 . S
O323 Dy308 2.310 1_556 S
O323 Dy311 2.664 . S
O323 C317 1.268 . S
O324 Dy308 2.351 1_566 S
O324 C327 1.249 . S
O325 Dy311 2.326 1_565 S
O325 C327 1.267 . S
C326 O318 1.249 . S
C326 O319 1.267 . S
C327 O324 1.249 . S
C327 O325 1.267 . S
Dy328 O332 2.398 . S
Dy328 O333 2.491 . S
Dy328 O334 2.403 . S
Dy328 O335 2.664 . S
Dy328 O339 2.326 . S
Dy328 O343 2.310 . S
Dy328 O344 2.351 . S
C329 O340 1.185 . S
C329 O341 1.355 . S
C330 O332 1.185 . S
C330 O333 1.355 . S
Dy331 O335 2.310 . S
Dy331 O338 2.351 . S
Dy331 O340 2.398 . S
Dy331 O341 2.491 . S
Dy331 O342 2.403 . S
Dy331 O343 2.664 . S
Dy331 O345 2.326 . S
O332 Dy328 2.398 . S
O332 C330 1.185 . S
O333 Dy328 2.491 . S
O333 C330 1.355 . S
O334 Dy328 2.403 . S
O334 C336 1.254 . S
O335 Dy328 2.664 . S
O335 Dy331 2.310 . S
O335 C336 1.268 . S
C336 O334 1.254 . S
C336 O335 1.268 . S
C337 O342 1.254 . S
C337 O343 1.268 . S
O338 Dy331 2.351 . S
O338 C346 1.249 . S
O339 Dy328 2.326 . S
O339 C346 1.267 . S
O340 C329 1.185 . S
O340 Dy331 2.398 . S
O341 C329 1.355 . S
O341 Dy331 2.491 . S
O342 Dy331 2.403 . S
O342 C337 1.254 . S
O343 Dy328 2.310 . S
O343 Dy331 2.664 . S
O343 C337 1.268 . S
O344 Dy328 2.351 . S
O344 C347 1.249 . S
O345 Dy331 2.326 . S
O345 C347 1.267 . S
C346 O338 1.249 . S
C346 O339 1.267 . S
C347 O344 1.249 . S
C347 O345 1.267 . S
Dy348 O352 2.398 . S
Dy348 O353 2.491 . S
Dy348 O354 2.403 1_455 S
Dy348 O355 2.664 1_455 S
Dy348 O359 2.326 . S
Dy348 O363 2.310 1_554 S
Dy348 O364 2.351 1_454 S
C349 O360 1.185 . S
C349 O361 1.355 . S
C350 O352 1.185 . S
C350 O353 1.355 . S
Dy351 O355 2.310 1_556 S
Dy351 O358 2.351 1_656 S
Dy351 O360 2.398 . S
Dy351 O361 2.491 . S
Dy351 O362 2.403 1_655 S
Dy351 O363 2.664 1_655 S
Dy351 O365 2.326 . S
O352 Dy348 2.398 . S
O352 C350 1.185 . S
O353 Dy348 2.491 . S
O353 C350 1.355 . S
O354 Dy348 2.403 1_655 S
O354 C356 1.254 . S
O355 Dy348 2.664 1_655 S
O355 Dy351 2.310 1_554 S
O355 C356 1.268 . S
C356 O354 1.254 . S
C356 O355 1.268 . S
C357 O362 1.254 . S
C357 O363 1.268 . S
O358 Dy351 2.351 1_454 S
O358 C366 1.249 . S
O359 Dy348 2.326 . S
O359 C366 1.267 . S
O360 C349 1.185 . S
O360 Dy351 2.398 . S
O361 C349 1.355 . S
O361 Dy351 2.491 . S
O362 Dy351 2.403 1_455 S
O362 C357 1.254 . S
O363 Dy348 2.310 1_556 S
O363 Dy351 2.664 1_455 S
O363 C357 1.268 . S
O364 Dy348 2.351 1_656 S
O364 C367 1.249 . S
O365 Dy351 2.326 . S
O365 C367 1.267 . S
C366 O358 1.249 . S
C366 O359 1.267 . S
C367 O364 1.249 . S
C367 O365 1.267 . S
C368 C369 1.387 . S
C368 H372 0.950 . S
C368 C377 1.390 . S
C369 C368 1.387 . S
C369 C371 1.387 . S
H370 C377 0.950 . S
C371 C369 1.387 . S
C371 C373 1.390 . S
C371 H375 0.950 . S
H372 C368 0.950 . S
C373 C371 1.390 . S
C373 C374 1.387 . S
C373 H376 0.950 . S
C374 C373 1.387 . S
C374 C377 1.387 . S
H375 C371 0.950 . S
H376 C373 0.950 . S
C377 C368 1.390 . S
C377 H370 0.950 . S
C377 C374 1.387 . S
C378 C379 1.387 . S
C378 H382 0.950 . S
C378 C387 1.390 . S
C379 C378 1.387 . S
C379 C381 1.387 . S
H380 C387 0.950 . S
C381 C379 1.387 . S
C381 C383 1.390 . S
C381 H385 0.950 . S
H382 C378 0.950 . S
C383 C381 1.390 . S
C383 C384 1.387 . S
C383 H386 0.950 . S
C384 C383 1.387 . S
C384 C387 1.387 . S
H385 C381 0.950 . S
H386 C383 0.950 . S
C387 C378 1.390 . S
C387 H380 0.950 . S
C387 C384 1.387 . S
C388 C389 1.387 . S
C388 H392 0.950 . S
C388 C397 1.390 . S
C389 C388 1.387 . S
C389 C391 1.387 . S
H390 C397 0.950 . S
C391 C389 1.387 . S
C391 C393 1.390 . S
C391 H395 0.950 . S
H392 C388 0.950 . S
C393 C391 1.390 . S
C393 C394 1.387 . S
C393 H396 0.950 . S
C394 C393 1.387 . S
C394 C397 1.387 . S
H395 C391 0.950 . S
H396 C393 0.950 . S
C397 C388 1.390 . S
C397 H390 0.950 . S
C397 C394 1.387 . S
C398 C399 1.387 . S
C398 H402 0.950 . S
C398 C407 1.390 . S
C399 C398 1.387 . S
C399 C401 1.387 . S
H400 C407 0.950 . S
C401 C399 1.387 . S
C401 C403 1.390 . S
C401 H405 0.950 . S
H402 C398 0.950 . S
C403 C401 1.390 . S
C403 C404 1.387 . S
C403 H406 0.950 . S
C404 C403 1.387 . S
C404 C407 1.387 . S
H405 C401 0.950 . S
H406 C403 0.950 . S
C407 C398 1.390 . S
C407 H400 0.950 . S
C407 C404 1.387 . S
C408 C409 1.387 . S
C408 H412 0.950 . S
C408 C417 1.390 . S
C409 C408 1.387 . S
C409 C411 1.387 . S
H410 C417 0.950 . S
C411 C409 1.387 . S
C411 C413 1.390 . S
C411 H415 0.950 . S
H412 C408 0.950 . S
C413 C411 1.390 . S
C413 C414 1.387 . S
C413 H416 0.950 . S
C414 C413 1.387 . S
C414 C417 1.387 . S
H415 C411 0.950 . S
H416 C413 0.950 . S
C417 C408 1.390 . S
C417 H410 0.950 . S
C417 C414 1.387 . S
C418 C419 1.387 . S
C418 H422 0.950 . S
C418 C427 1.390 . S
C419 C418 1.387 . S
C419 C421 1.387 . S
H420 C427 0.950 . S
C421 C419 1.387 . S
C421 C423 1.390 . S
C421 H425 0.950 . S
H422 C418 0.950 . S
C423 C421 1.390 . S
C423 C424 1.387 . S
C423 H426 0.950 . S
C424 C423 1.387 . S
C424 C427 1.387 . S
H425 C421 0.950 . S
H426 C423 0.950 . S
C427 C418 1.390 . S
C427 H420 0.950 . S
C427 C424 1.387 . S
C428 C429 1.387 . S
C428 H432 0.950 . S
C428 C437 1.390 . S
C429 C428 1.387 . S
C429 C431 1.387 . S
H430 C437 0.950 . S
C431 C429 1.387 . S
C431 C433 1.390 . S
C431 H435 0.950 . S
H432 C428 0.950 . S
C433 C431 1.390 . S
C433 C434 1.387 . S
C433 H436 0.950 . S
C434 C433 1.387 . S
C434 C437 1.387 . S
H435 C431 0.950 . S
H436 C433 0.950 . S
C437 C428 1.390 . S
C437 H430 0.950 . S
C437 C434 1.387 . S
C438 C439 1.387 . S
C438 H442 0.950 . S
C438 C447 1.390 . S
C439 C438 1.387 . S
C439 C441 1.387 . S
H440 C447 0.950 . S
C441 C439 1.387 . S
C441 C443 1.390 . S
C441 H445 0.950 . S
H442 C438 0.950 . S
C443 C441 1.390 . S
C443 C444 1.387 . S
C443 H446 0.950 . S
C444 C443 1.387 . S
C444 C447 1.387 . S
H445 C441 0.950 . S
H446 C443 0.950 . S
C447 C438 1.390 . S
C447 H440 0.950 . S
C447 C444 1.387 . S
C448 C449 1.387 . S
C448 H452 0.950 . S
C448 C457 1.390 . S
C449 C448 1.387 . S
C449 C451 1.387 . S
H450 C457 0.950 . S
C451 C449 1.387 . S
C451 C453 1.390 . S
C451 H455 0.950 . S
H452 C448 0.950 . S
C453 C451 1.390 . S
C453 C454 1.387 . S
C453 H456 0.950 . S
C454 C453 1.387 . S
C454 C457 1.387 . S
H455 C451 0.950 . S
H456 C453 0.950 . S
C457 C448 1.390 . S
C457 H450 0.950 . S
C457 C454 1.387 . S
C458 C459 1.387 . S
C458 H462 0.950 . S
C458 C467 1.390 . S
C459 C458 1.387 . S
C459 C461 1.387 . S
H460 C467 0.950 . S
C461 C459 1.387 . S
C461 C463 1.390 . S
C461 H465 0.950 . S
H462 C458 0.950 . S
C463 C461 1.390 . S
C463 C464 1.387 . S
C463 H466 0.950 . S
C464 C463 1.387 . S
C464 C467 1.387 . S
H465 C461 0.950 . S
H466 C463 0.950 . S
C467 C458 1.390 . S
C467 H460 0.950 . S
C467 C464 1.387 . S
C468 C469 1.387 . S
C468 H472 0.950 . S
C468 C477 1.390 . S
C469 C468 1.387 . S
C469 C471 1.387 . S
H470 C477 0.950 . S
C471 C469 1.387 . S
C471 C473 1.390 . S
C471 H475 0.950 . S
H472 C468 0.950 . S
C473 C471 1.390 . S
C473 C474 1.387 . S
C473 H476 0.950 . S
C474 C473 1.387 . S
C474 C477 1.387 . S
H475 C471 0.950 . S
H476 C473 0.950 . S
C477 C468 1.390 . S
C477 H470 0.950 . S
C477 C474 1.387 . S
C478 C479 1.387 . S
C478 H482 0.950 . S
C478 C487 1.390 . S
C479 C478 1.387 . S
C479 C481 1.387 . S
H480 C487 0.950 . S
C481 C479 1.387 . S
C481 C483 1.390 . S
C481 H485 0.950 . S
H482 C478 0.950 . S
C483 C481 1.390 . S
C483 C484 1.387 . S
C483 H486 0.950 . S
C484 C483 1.387 . S
C484 C487 1.387 . S
H485 C481 0.950 . S
H486 C483 0.950 . S
C487 C478 1.390 . S
C487 H480 0.950 . S
C487 C484 1.387 . S
C488 C489 1.387 . S
C488 H492 0.950 . S
C488 C497 1.390 . S
C489 C488 1.387 . S
C489 C491 1.387 . S
H490 C497 0.950 . S
C491 C489 1.387 . S
C491 C493 1.390 . S
C491 H495 0.950 . S
H492 C488 0.950 . S
C493 C491 1.390 . S
C493 C494 1.387 . S
C493 H496 0.950 . S
C494 C493 1.387 . S
C494 C497 1.387 . S
H495 C491 0.950 . S
H496 C493 0.950 . S
C497 C488 1.390 . S
C497 H490 0.950 . S
C497 C494 1.387 . S
C498 C499 1.387 . S
C498 H502 0.950 . S
C498 C507 1.390 . S
C499 C498 1.387 . S
C499 C501 1.387 . S
H500 C507 0.950 . S
C501 C499 1.387 . S
C501 C503 1.390 . S
C501 H505 0.950 . S
H502 C498 0.950 . S
C503 C501 1.390 . S
C503 C504 1.387 . S
C503 H506 0.950 . S
C504 C503 1.387 . S
C504 C507 1.387 . S
H505 C501 0.950 . S
H506 C503 0.950 . S
C507 C498 1.390 . S
C507 H500 0.950 . S
C507 C504 1.387 . S
C508 C509 1.387 . S
C508 H512 0.950 . S
C508 C517 1.390 . S
C509 C508 1.387 . S
C509 C511 1.387 . S
H510 C517 0.950 . S
C511 C509 1.387 . S
C511 C513 1.390 . S
C511 H515 0.950 . S
H512 C508 0.950 . S
C513 C511 1.390 . S
C513 C514 1.387 . S
C513 H516 0.950 . S
C514 C513 1.387 . S
C514 C517 1.387 . S
H515 C511 0.950 . S
H516 C513 0.950 . S
C517 C508 1.390 . S
C517 H510 0.950 . S
C517 C514 1.387 . S
C518 C519 1.387 . S
C518 H522 0.950 . S
C518 C527 1.390 . S
C519 C518 1.387 . S
C519 C521 1.387 . S
H520 C527 0.950 . S
C521 C519 1.387 . S
C521 C523 1.390 . S
C521 H525 0.950 . S
H522 C518 0.950 . S
C523 C521 1.390 . S
C523 C524 1.387 . S
C523 H526 0.950 . S
C524 C523 1.387 . S
C524 C527 1.387 . S
H525 C521 0.950 . S
H526 C523 0.950 . S
C527 C518 1.390 . S
C527 H520 0.950 . S
C527 C524 1.387 . S
C528 C529 1.387 . S
C528 H532 0.950 . S
C528 C537 1.390 . S
C529 C528 1.387 . S
C529 C531 1.387 . S
H530 C537 0.950 . S
C531 C529 1.387 . S
C531 C533 1.390 . S
C531 H535 0.950 . S
H532 C528 0.950 . S
C533 C531 1.390 . S
C533 C534 1.387 . S
C533 H536 0.950 . S
C534 C533 1.387 . S
C534 C537 1.387 . S
H535 C531 0.950 . S
H536 C533 0.950 . S
C537 C528 1.390 . S
C537 H530 0.950 . S
C537 C534 1.387 . S
C538 C539 1.387 . S
C538 H542 0.950 . S
C538 C547 1.390 . S
C539 C538 1.387 . S
C539 C541 1.387 . S
H540 C547 0.950 . S
C541 C539 1.387 . S
C541 C543 1.390 . S
C541 H545 0.950 . S
H542 C538 0.950 . S
C543 C541 1.390 . S
C543 C544 1.387 . S
C543 H546 0.950 . S
C544 C543 1.387 . S
C544 C547 1.387 . S
H545 C541 0.950 . S
H546 C543 0.950 . S
C547 C538 1.390 . S
C547 H540 0.950 . S
C547 C544 1.387 . S
C548 C549 1.387 . S
C548 H552 0.950 . S
C548 C557 1.390 . S
C549 C548 1.387 . S
C549 C551 1.387 . S
H550 C557 0.950 . S
C551 C549 1.387 . S
C551 C553 1.390 . S
C551 H555 0.950 . S
H552 C548 0.950 . S
C553 C551 1.390 . S
C553 C554 1.387 . S
C553 H556 0.950 . S
C554 C553 1.387 . S
C554 C557 1.387 . S
H555 C551 0.950 . S
H556 C553 0.950 . S
C557 C548 1.390 . S
C557 H550 0.950 . S
C557 C554 1.387 . S
C558 C559 1.387 . S
C558 H562 0.950 . S
C558 C567 1.390 . S
C559 C558 1.387 . S
C559 C561 1.387 . S
H560 C567 0.950 . S
C561 C559 1.387 . S
C561 C563 1.390 . S
C561 H565 0.950 . S
H562 C558 0.950 . S
C563 C561 1.390 . S
C563 C564 1.387 . S
C563 H566 0.950 . S
C564 C563 1.387 . S
C564 C567 1.387 . S
H565 C561 0.950 . S
H566 C563 0.950 . S
C567 C558 1.390 . S
C567 H560 0.950 . S
C567 C564 1.387 . S
C568 C569 1.387 . S
C568 H572 0.950 . S
C568 C577 1.390 . S
C569 C568 1.387 . S
C569 C571 1.387 . S
H570 C577 0.950 . S
C571 C569 1.387 . S
C571 C573 1.390 . S
C571 H575 0.950 . S
H572 C568 0.950 . S
C573 C571 1.390 . S
C573 C574 1.387 . S
C573 H576 0.950 . S
C574 C573 1.387 . S
C574 C577 1.387 . S
H575 C571 0.950 . S
H576 C573 0.950 . S
C577 C568 1.390 . S
C577 H570 0.950 . S
C577 C574 1.387 . S
C578 C579 1.387 . S
C578 H582 0.950 . S
C578 C587 1.390 . S
C579 C578 1.387 . S
C579 C581 1.387 . S
H580 C587 0.950 . S
C581 C579 1.387 . S
C581 C583 1.390 . S
C581 H585 0.950 . S
H582 C578 0.950 . S
C583 C581 1.390 . S
C583 C584 1.387 . S
C583 H586 0.950 . S
C584 C583 1.387 . S
C584 C587 1.387 . S
H585 C581 0.950 . S
H586 C583 0.950 . S
C587 C578 1.390 . S
C587 H580 0.950 . S
C587 C584 1.387 . S
C588 C589 1.387 . S
C588 H592 0.950 . S
C588 C597 1.390 . S
C589 C588 1.387 . S
C589 C591 1.387 . S
H590 C597 0.950 . S
C591 C589 1.387 . S
C591 C593 1.390 . S
C591 H595 0.950 . S
H592 C588 0.950 . S
C593 C591 1.390 . S
C593 C594 1.387 . S
C593 H596 0.950 . S
C594 C593 1.387 . S
C594 C597 1.387 . S
H595 C591 0.950 . S
H596 C593 0.950 . S
C597 C588 1.390 . S
C597 H590 0.950 . S
C597 C594 1.387 . S
C598 C599 1.387 . S
C598 H602 0.950 . S
C598 C607 1.390 . S
C599 C598 1.387 . S
C599 C601 1.387 . S
H600 C607 0.950 . S
C601 C599 1.387 . S
C601 C603 1.390 . S
C601 H605 0.950 . S
H602 C598 0.950 . S
C603 C601 1.390 . S
C603 C604 1.387 . S
C603 H606 0.950 . S
C604 C603 1.387 . S
C604 C607 1.387 . S
H605 C601 0.950 . S
H606 C603 0.950 . S
C607 C598 1.390 . S
C607 H600 0.950 . S
C607 C604 1.387 . S
C369 C1 1.571 . S
C374 C290 1.605 . S
C379 C67 1.350 . S
C384 C309 1.324 . S
C394 C346 1.748 . S
C389 C97 1.768 . S
C399 C133 1.768 . S
C404 C356 1.699 . S
C414 C326 2.029 . S
C409 C25 1.975 . S
C424 C296 1.386 . S
C419 C37 1.462 . S
C434 C367 1.528 . S
C429 C103 1.561 . S
C444 C337 1.465 . S
C439 C109 1.489 . S
C449 C31 1.740 . S
C454 C350 1.790 . S
C464 C317 1.693 . S
C459 C73 1.751 . S
C469 C139 1.771 . S
C474 C307 1.768 . S
C479 C61 1.250 . S
C484 C329 1.288 . S
C494 C289 1.607 . S
C489 C175 1.507 . S
C499 C181 1.332 . S
C504 C310 1.313 . S
C509 C247 1.797 . S
C514 C347 1.763 . S
C519 C277 1.759 . S
C524 C357 1.690 . S
C529 C145 1.900 . S
C534 C327 2.021 . S
C544 C297 1.390 . S
C539 C211 1.452 . S
C554 C366 1.516 . S
C549 C217 1.543 . S
C564 C336 1.480 . S
C559 C283 1.503 . S
C569 C169 1.664 . S
C574 C349 1.785 . S
C584 C316 1.698 . S
C579 C241 1.761 . S
C594 C306 1.757 . S
C589 C253 1.757 . S
C599 C205 1.277 . S
C604 C330 1.301 . S
