# Generated by pormake.
# Topology pyr, (3,6)-cn, num edge types: 1
# Building blocks:
#     Node 0, Type 0, BuildingBlock: BETDIP_clean_linker_0, # of connection points: 3
#     Node 1, Type 0, BuildingBlock: BETDIP_clean_linker_0, # of connection points: 3
#     Node 2, Type 0, BuildingBlock: BETDIP_clean_linker_0, # of connection points: 3
#     Node 3, Type 0, BuildingBlock: BETDIP_clean_linker_0, # of connection points: 3
#     Node 4, Type 0, BuildingBlock: BETDIP_clean_linker_0, # of connection points: 3
#     Node 5, Type 0, BuildingBlock: BETDIP_clean_linker_0, # of connection points: 3
#     Node 6, Type 0, BuildingBlock: BETDIP_clean_linker_0, # of connection points: 3
#     Node 7, Type 0, BuildingBlock: BETDIP_clean_linker_0, # of connection points: 3
#     Node 8, Type 1, BuildingBlock: JUFBIX_clean_sbu_0, # of connection points: 6
#     Node 9, Type 1, BuildingBlock: JUFBIX_clean_sbu_0, # of connection points: 6
#     Node 10, Type 1, BuildingBlock: JUFBIX_clean_sbu_0, # of connection points: 6
#     Node 11, Type 1, BuildingBlock: JUFBIX_clean_sbu_0, # of connection points: 6
#     Edge 12, Type (0, 1), BuildingBlock: ZUJKAS_clean_linker_0, # of connection points: 2
#     Edge 13, Type (0, 1), BuildingBlock: ZUJKAS_clean_linker_0, # of connection points: 2
#     Edge 14, Type (0, 1), BuildingBlock: ZUJKAS_clean_linker_0, # of connection points: 2
#     Edge 15, Type (0, 1), BuildingBlock: ZUJKAS_clean_linker_0, # of connection points: 2
#     Edge 16, Type (0, 1), BuildingBlock: ZUJKAS_clean_linker_0, # of connection points: 2
#     Edge 17, Type (0, 1), BuildingBlock: ZUJKAS_clean_linker_0, # of connection points: 2
#     Edge 18, Type (0, 1), BuildingBlock: ZUJKAS_clean_linker_0, # of connection points: 2
#     Edge 19, Type (0, 1), BuildingBlock: ZUJKAS_clean_linker_0, # of connection points: 2
#     Edge 20, Type (0, 1), BuildingBlock: ZUJKAS_clean_linker_0, # of connection points: 2
#     Edge 21, Type (0, 1), BuildingBlock: ZUJKAS_clean_linker_0, # of connection points: 2
#     Edge 22, Type (0, 1), BuildingBlock: ZUJKAS_clean_linker_0, # of connection points: 2
#     Edge 23, Type (0, 1), BuildingBlock: ZUJKAS_clean_linker_0, # of connection points: 2
#     Edge 24, Type (0, 1), BuildingBlock: ZUJKAS_clean_linker_0, # of connection points: 2
#     Edge 25, Type (0, 1), BuildingBlock: ZUJKAS_clean_linker_0, # of connection points: 2
#     Edge 26, Type (0, 1), BuildingBlock: ZUJKAS_clean_linker_0, # of connection points: 2
#     Edge 27, Type (0, 1), BuildingBlock: ZUJKAS_clean_linker_0, # of connection points: 2
#     Edge 28, Type (0, 1), BuildingBlock: ZUJKAS_clean_linker_0, # of connection points: 2
#     Edge 29, Type (0, 1), BuildingBlock: ZUJKAS_clean_linker_0, # of connection points: 2
#     Edge 30, Type (0, 1), BuildingBlock: ZUJKAS_clean_linker_0, # of connection points: 2
#     Edge 31, Type (0, 1), BuildingBlock: ZUJKAS_clean_linker_0, # of connection points: 2
#     Edge 32, Type (0, 1), BuildingBlock: ZUJKAS_clean_linker_0, # of connection points: 2
#     Edge 33, Type (0, 1), BuildingBlock: ZUJKAS_clean_linker_0, # of connection points: 2
#     Edge 34, Type (0, 1), BuildingBlock: ZUJKAS_clean_linker_0, # of connection points: 2
#     Edge 35, Type (0, 1), BuildingBlock: ZUJKAS_clean_linker_0, # of connection points: 2
# Relax obj value: 0.132
# Max RMSD: 0.195
# Mean RMSD: 0.130
data_MOF--net-pry--node1-JUFBIX_clean_sbu_0--node2-BETDIP_clean_linker_0--edge1-ZUJKAS_clean_linker_0
_symmetry_space_group_name_H-M    P1
_symmetry_Int_Tables_number       1
_symmetry_cell_setting            triclinic
loop_
_symmetry_equiv_pos_as_xyz
'x, y, z'
_cell_length_a     47.538552
_cell_length_b     44.733022
_cell_length_c     49.213429
_cell_angle_alpha  87.457422
_cell_angle_beta   85.018956
_cell_angle_gamma 97.194129
loop_
_atom_site_label
_atom_site_type_symbol
_atom_site_fract_x
_atom_site_fract_y
_atom_site_fract_z
_atom_type_partial_charge
H0 H 0.15608 0.18218 0.21998 0.0
H1 H 0.22329 0.18758 0.15498 0.0
H2 H 0.22008 0.12217 0.22225 0.0
H3 H 0.20064 0.22041 0.13453 0.0
C4 C 0.18308 0.22669 0.14764 0.0
C5 C 0.17498 0.17389 0.21085 0.0
C6 C 0.18622 0.15023 0.22427 0.0
C7 C 0.18789 0.18755 0.1859 0.0
C8 C 0.21296 0.17746 0.17419 0.0
C9 C 0.22481 0.15379 0.18713 0.0
C10 C 0.21119 0.14034 0.21216 0.0
N11 N 0.17488 0.21134 0.17369 0.0
H12 H 0.40932 0.91343 0.68015 0.0
H13 H 0.40435 0.8394 0.62761 0.0
H14 H 0.4687 0.84832 0.68378 0.0
H15 H 0.35868 0.84633 0.62912 0.0
C16 C 0.35799 0.87032 0.63093 0.0
C17 C 0.4179 0.89369 0.67266 0.0
C18 C 0.44116 0.88326 0.68418 0.0
C19 C 0.40413 0.87773 0.6528 0.0
C20 C 0.41425 0.8515 0.64358 0.0
C21 C 0.43743 0.84071 0.65479 0.0
C22 C 0.45102 0.85685 0.67485 0.0
N23 N 0.37965 0.8883 0.64324 0.0
H24 H 0.73306 0.42068 0.84685 0.0
H25 H 0.65969 0.35354 0.84907 0.0
H26 H 0.72269 0.34473 0.90533 0.0
H27 H 0.63984 0.39497 0.83541 0.0
C28 C 0.65602 0.40485 0.81949 0.0
C29 C 0.72106 0.39977 0.85562 0.0
C30 C 0.73084 0.38418 0.87764 0.0
C31 C 0.69513 0.38923 0.8456 0.0
C32 C 0.67946 0.36214 0.85701 0.0
C33 C 0.6891 0.34603 0.87872 0.0
C34 C 0.7148 0.35727 0.8889 0.0
N35 N 0.6853 0.40605 0.82392 0.0
H36 H 0.92475 0.58167 0.44182 0.0
H37 H 0.99643 0.65016 0.44306 0.0
H38 H 0.92108 0.653 0.49728 0.0
H39 H 1.00554 0.63844 0.40032 0.0
C40 C 0.99532 0.61594 0.39723 0.0
C41 C 0.93491 0.60133 0.45096 0.0
C42 C 0.91953 0.61571 0.47099 0.0
C43 C 0.96239 0.61372 0.44048 0.0
C44 C 0.9753 0.64019 0.45111 0.0
C45 C 0.9604 0.65469 0.47147 0.0
C46 C 0.93273 0.64195 0.4816 0.0
N47 N 0.97506 0.6004 0.4176 0.0
H48 H 0.80975 0.85151 0.91531 0.0
H49 H 0.87935 0.85578 0.85315 0.0
H50 H 0.81429 0.91383 0.84524 0.0
H51 H 0.90163 0.84493 0.89461 0.0
C52 C 0.88619 0.82559 0.90182 0.0
C53 C 0.82051 0.86152 0.89613 0.0
C54 C 0.80908 0.88455 0.88191 0.0
C55 C 0.84592 0.85131 0.88605 0.0
C56 C 0.85981 0.86378 0.86094 0.0
C57 C 0.8485 0.88616 0.84569 0.0
C58 C 0.82314 0.89648 0.85654 0.0
N59 N 0.85662 0.82783 0.90108 0.0
H60 H 0.62867 0.11582 0.38197 0.0
H61 H 0.63697 0.19308 0.43063 0.0
H62 H 0.56624 0.17778 0.38206 0.0
H63 H 0.66431 0.16545 0.45421 0.0
C64 C 0.67527 0.154 0.43829 0.0
C65 C 0.62018 0.13555 0.3896 0.0
C66 C 0.59523 0.1443 0.38016 0.0
C67 C 0.63511 0.15267 0.40803 0.0
C68 C 0.62519 0.17915 0.41696 0.0
C69 C 0.60032 0.18829 0.4077 0.0
C70 C 0.58525 0.1706 0.38954 0.0
N71 N 0.66101 0.14365 0.41565 0.0
H72 H 0.30777 0.6178 0.21606 0.0
H73 H 0.37835 0.68767 0.21784 0.0
H74 H 0.3201 0.69271 0.15636 0.0
H75 H 0.39902 0.6477 0.23354 0.0
C76 C 0.38212 0.63655 0.24818 0.0
C77 C 0.31967 0.63892 0.20766 0.0
C78 C 0.31084 0.65394 0.18481 0.0
C79 C 0.34452 0.65037 0.21911 0.0
C80 C 0.35996 0.67784 0.2083 0.0
C81 C 0.35129 0.6933 0.18569 0.0
C82 C 0.32679 0.68107 0.174 0.0
N83 N 0.35338 0.63409 0.24166 0.0
H84 H 0.02935 0.39676 0.61482 0.0
H85 H 0.10457 0.46016 0.61724 0.0
H86 H 0.10989 0.37778 0.57688 0.0
H87 H 0.07214 0.49209 0.63203 0.0
C88 C 0.059 0.47522 0.64578 0.0
C89 C 0.05189 0.40322 0.60909 0.0
C90 C 0.06778 0.38392 0.59418 0.0
C91 C 0.06492 0.43054 0.61765 0.0
C92 C 0.09417 0.43924 0.61051 0.0
C93 C 0.11044 0.42053 0.59534 0.0
C94 C 0.09707 0.39295 0.58726 0.0
N95 N 0.0487 0.44698 0.63586 0.0
Co96 Co 0.99825 0.01655 0.52721 0.0
C97 C 0.02295 0.96296 0.52436 0.0
Co98 Co 0.04008 0.01832 0.54342 0.0
C99 C 0.94794 0.03345 0.50437 0.0
C100 C 0.94345 0.98697 0.51845 0.0
N101 N 0.96233 0.01232 0.51511 0.0
N102 N 0.92075 0.02231 0.50128 0.0
C103 C 0.91795 0.99302 0.50994 0.0
H104 H 0.95673 0.0569 0.50032 0.0
H105 H 0.94755 0.96571 0.52761 0.0
C106 C 0.01552 0.07189 0.5463 0.0
N107 N 0.07581 0.02225 0.55576 0.0
C108 C 0.08892 1.00088 0.56781 0.0
C109 C 0.0954 0.04699 0.55248 0.0
N110 N 0.11603 0.01122 0.57196 0.0
C111 C 0.12011 0.04031 0.56246 0.0
C112 C 0.04232 0.03539 0.4873 0.0
O113 O 0.99514 0.05722 0.53552 0.0
O114 O 0.03682 0.05886 0.55149 0.0
O115 O 0.05695 0.03159 0.50736 0.0
O116 O 0.01527 0.03 0.49123 0.0
O117 O 0.04316 0.97766 0.53529 0.0
H118 H 0.09231 0.06819 0.54247 0.0
H119 H 0.07896 0.97797 0.57283 0.0
O120 O 1.0017 0.97599 0.51899 0.0
O121 O 0.98142 1.00323 0.56321 0.0
O122 O 0.02299 1.00494 0.57946 0.0
C123 C 0.99596 0.99952 0.58332 0.0
H124 H 0.8986 0.97728 0.51077 0.0
H125 H 0.13996 0.05526 0.56146 0.0
Co126 Co 0.50499 0.01608 1.01501 0.0
C127 C 0.49732 0.97068 0.05643 0.0
Co128 Co 0.52953 0.02661 0.04997 0.0
C129 C 0.49224 0.00665 0.95975 0.0
C130 C 0.45494 0.9986 0.98809 0.0
N131 N 0.48332 0.00696 0.98649 0.0
N132 N 0.47054 0.99845 0.94461 0.0
C133 C 0.447 0.99345 0.96234 0.0
H134 H 0.51424 0.01225 0.95156 0.0
H135 H 0.44098 0.9959 1.00683 0.0
C136 C 0.53718 0.07201 1.00855 0.0
N137 N 0.55124 0.03578 0.07843 0.0
C138 C 0.54267 0.03479 0.10532 0.0
C139 C 0.57937 0.04553 0.07653 0.0
N140 N 0.56435 0.04368 0.12036 0.0
C141 C 0.5875 0.05036 0.10224 0.0
C142 C 0.55892 0.99766 1.00884 0.0
O143 O 0.51975 0.05393 0.99706 0.0
O144 O 0.54418 0.06445 0.03197 0.0
O145 O 0.56037 0.00861 0.03217 0.0
O146 O 0.53607 0.99827 0.99728 0.0
O147 O 0.51476 0.98876 0.0679 0.0
H148 H 0.59305 0.04912 0.05762 0.0
H149 H 0.5208 0.02834 0.11357 0.0
O150 O 0.49032 0.97824 0.033 0.0
O151 O 0.47413 0.03395 0.03289 0.0
O152 O 0.49851 0.04456 0.06768 0.0
C153 C 0.4756 0.045 0.05617 0.0
H154 H 0.42574 0.9856 0.95719 0.0
H155 H 0.60885 0.05815 0.10714 0.0
Co156 Co 0.53635 0.52449 0.52339 0.0
C157 C 0.49128 0.52833 0.49131 0.0
Co158 Co 0.49515 0.50107 0.54212 0.0
C159 C 0.59696 0.53899 0.50931 0.0
C160 C 0.57333 0.57248 0.4935 0.0
N161 N 0.57021 0.54568 0.50779 0.0
N162 N 0.6167 0.56071 0.49673 0.0
C163 C 0.60181 0.58175 0.48665 0.0
H164 H 0.60185 0.51903 0.52023 0.0
H165 H 0.556 0.58479 0.4888 0.0
C166 C 0.54027 0.49748 0.57425 0.0
N167 N 0.46126 0.47984 0.55768 0.0
C168 C 0.43453 0.48668 0.55634 0.0
C169 C 0.45807 0.45279 0.57155 0.0
N170 N 0.41474 0.46487 0.56872 0.0
C171 C 0.42956 0.44355 0.57838 0.0
C172 C 0.5272 0.46559 0.50992 0.0
O173 O 0.55458 0.51297 0.55431 0.0
O174 O 0.51375 0.4898 0.5731 0.0
O175 O 0.50411 0.46599 0.52489 0.0
O176 O 0.54504 0.48937 0.50632 0.0
O177 O 0.47688 0.5126 0.51109 0.0
H178 H 0.47535 0.44019 0.57576 0.0
H179 H 0.42975 0.50716 0.54621 0.0
O180 O 0.51778 0.53587 0.49257 0.0
O181 O 0.52751 0.55946 0.54063 0.0
O182 O 0.48643 0.53634 0.55915 0.0
C183 C 0.50444 0.56002 0.55558 0.0
H184 H 0.6108 0.60246 0.47521 0.0
H185 H 0.42048 0.42226 0.58878 0.0
Co186 Co 0.03672 0.51985 1.0085 0.0
C187 C 0.98161 0.49057 1.0064 0.0
Co188 Co 1.00939 0.51825 0.04741 0.0
C189 C 0.05369 0.50657 0.95276 0.0
C190 C 0.08137 0.54302 0.96654 0.0
N191 N 0.05879 0.5223 0.97502 0.0
N192 N 0.0718 0.51692 0.93075 0.0
C193 C 0.08944 0.5397 0.93945 0.0
H194 H 0.03642 0.48846 0.95233 0.0
H195 H 0.09052 0.5606 0.97873 0.0
C196 C 0.06439 0.54746 0.04973 0.0
N197 N 0.98761 0.51614 0.08077 0.0
C198 C 0.99131 0.53482 0.10131 0.0
C199 C 0.96759 0.49358 0.09133 0.0
N200 N 0.97498 0.52455 0.12443 0.0
C201 C 0.95974 0.49874 0.11815 0.0
C202 C 0.04142 0.46968 0.04214 0.0
O203 O 0.06742 0.54167 0.02472 0.0
O204 O 0.04052 0.53935 0.06325 0.0
O205 O 0.02286 0.48095 0.05735 0.0
O206 O 0.05047 0.48297 0.01902 0.0
O207 O 0.97842 0.49704 0.03126 0.0
H208 H 0.96037 0.47378 0.08074 0.0
H209 H 1.00656 0.55505 0.0997 0.0
O210 O 1.00567 0.49803 0.99294 0.0
O211 O 0.0227 0.55657 0.99823 0.0
O212 O 0.99623 0.55569 0.03715 0.0
C213 C 1.00472 0.56835 1.01366 0.0
H214 H 0.10583 0.55419 0.92673 0.0
H215 H 0.94538 0.48365 0.13238 0.0
H216 H 0.12888 0.13593 0.23918 0.0
H217 H 0.10524 0.11591 0.28355 0.0
H218 H 0.18695 0.11175 0.31422 0.0
H219 H 0.21081 0.13267 0.2701 0.0
H220 H 0.10756 0.06212 0.31304 0.0
H221 H 0.14741 0.15935 0.37155 0.0
H222 H 0.15007 0.16091 0.33469 0.0
H223 H 0.17485 0.14241 0.35285 0.0
C224 C 0.1419 0.13105 0.25541 0.0
C225 C 0.17185 0.13628 0.251 0.0
C226 C 0.1283 0.11938 0.28077 0.0
C227 C 0.14422 0.11277 0.3025 0.0
C228 C 0.17412 0.11721 0.29802 0.0
H229 H 0.09965 0.04724 0.47229 0.0
H230 H 0.1237 0.06491 0.42749 0.0
C231 C 0.18777 0.12886 0.27261 0.0
C232 C 0.12946 0.10118 0.3297 0.0
H233 H 0.12189 0.11695 0.39717 0.0
C234 C 0.11064 0.07416 0.33142 0.0
C235 C 0.13341 0.11684 0.35377 0.0
C236 C 0.15232 0.14663 0.35322 0.0
C237 C 0.09612 0.06213 0.35648 0.0
C238 C 0.09999 0.07784 0.38055 0.0
C239 C 0.11885 0.10484 0.37882 0.0
C240 C 0.08495 0.06659 0.40775 0.0
C241 C 0.0773 0.03229 0.35703 0.0
C242 C 0.05503 0.06185 0.41189 0.0
C243 C 0.04114 0.0516 0.43758 0.0
C244 C 0.05684 0.04608 0.45984 0.0
C245 C 0.08679 0.05114 0.45568 0.0
C246 C 0.10063 0.06131 0.43001 0.0
H247 H 0.08274 0.01931 0.339 0.0
H248 H 0.07904 0.01828 0.37585 0.0
H249 H 0.05481 0.03646 0.35666 0.0
H250 H 0.04236 0.06642 0.3953 0.0
H251 H 0.01808 0.0482 0.44003 0.0
H252 H 0.45672 0.85635 0.73055 0.0
H253 H 0.46852 0.88034 0.77235 0.0
H254 H 0.462 0.96756 0.73425 0.0
H255 H 0.45149 0.94391 0.69174 0.0
H256 H 0.50604 0.96812 0.76969 0.0
H257 H 0.40231 0.91049 0.8179 0.0
H258 H 0.42554 0.88526 0.80381 0.0
H259 H 0.41187 0.91181 0.78155 0.0
C260 C 0.45867 0.88072 0.73068 0.0
C261 C 0.45281 0.8982 0.70788 0.0
C262 C 0.46512 0.89435 0.75471 0.0
C263 C 0.46544 0.92558 0.75649 0.0
C264 C 0.46157 0.94336 0.73328 0.0
H265 H 0.431 0.00693 0.90991 0.0
H266 H 0.43169 0.99329 0.86228 0.0
C267 C 0.45534 0.92978 0.70912 0.0
C268 C 0.46718 0.93922 0.78316 0.0
H269 H 0.43255 0.93691 0.84696 0.0
C270 C 0.48999 0.96143 0.78662 0.0
C271 C 0.44582 0.93085 0.80494 0.0
C272 C 0.41985 0.90852 0.80188 0.0
C273 C 0.49234 0.97503 0.81165 0.0
C274 C 0.47155 0.96573 0.83374 0.0
C275 C 0.44853 0.94391 0.83003 0.0
C276 C 0.47313 0.97782 0.86113 0.0
C277 C 0.51675 0.99948 0.81407 0.0
C278 C 0.49637 0.97405 0.8761 0.0
C279 C 0.49605 0.982 0.90324 0.0
C280 C 0.47228 0.99336 0.91593 0.0
C281 C 0.44942 0.9979 0.90067 0.0
C282 C 0.44987 0.99026 0.87348 0.0
H283 H 0.52551 0.01009 0.79375 0.0
H284 H 0.51005 0.01731 0.82726 0.0
H285 H 0.53412 0.98947 0.82336 0.0
H286 H 0.5142 0.96377 0.86721 0.0
H287 H 0.51378 0.97789 0.91466 0.0
H288 H 0.6889 0.43296 0.77436 0.0
H289 H 0.67194 0.45194 0.73197 0.0
H290 H 0.58519 0.42216 0.76427 0.0
H291 H 0.60194 0.40368 0.80669 0.0
H292 H 0.64013 0.42032 0.69531 0.0
H293 H 0.58154 0.50918 0.73898 0.0
H294 H 0.60682 0.49134 0.75731 0.0
H295 H 0.57103 0.47292 0.75644 0.0
C296 C 0.66622 0.43071 0.77247 0.0
C297 C 0.64665 0.41706 0.79385 0.0
C298 C 0.65658 0.44151 0.74826 0.0
C299 C 0.62728 0.43895 0.74517 0.0
C300 C 0.60783 0.42506 0.76646 0.0
H301 H 0.5153 0.46719 0.62142 0.0
H302 H 0.5383 0.45366 0.66198 0.0
C303 C 0.61742 0.41437 0.7906 0.0
C304 C 0.61686 0.44973 0.71941 0.0
H305 H 0.57108 0.49477 0.69434 0.0
C306 C 0.62532 0.43688 0.69499 0.0
C307 C 0.59757 0.47138 0.71907 0.0
C308 C 0.58892 0.48724 0.74431 0.0
C309 C 0.61409 0.44421 0.67043 0.0
C310 C 0.59415 0.46516 0.67032 0.0
C311 C 0.58622 0.47854 0.69458 0.0
C312 C 0.58064 0.47295 0.6454 0.0
C313 C 0.62285 0.42875 0.645 0.0
C314 C 0.59685 0.48844 0.62273 0.0
C315 C 0.58378 0.49627 0.59952 0.0
C316 C 0.55423 0.48879 0.59862 0.0
C317 C 0.53809 0.47324 0.62141 0.0
C318 C 0.55117 0.46552 0.64462 0.0
H319 H 0.63393 0.40895 0.64968 0.0
H320 H 0.60401 0.42116 0.63403 0.0
H321 H 0.63758 0.44495 0.63107 0.0
H322 H 0.61956 0.49477 0.62311 0.0
H323 H 0.59682 0.50831 0.58234 0.0
H324 H 0.97379 0.5608 0.38021 0.0
H325 H 0.97281 0.54563 0.33311 0.0
H326 H 0.01962 0.63156 0.30399 0.0
H327 H 0.02071 0.64695 0.35118 0.0
H328 H 0.96645 0.6132 0.27945 0.0
H329 H 0.03959 0.52535 0.27837 0.0
H330 H 1.01271 0.52243 0.30678 0.0
H331 H 0.0402 0.55412 0.30303 0.0
C332 C 0.9842 0.57633 0.36383 0.0
C333 C 0.99728 0.60513 0.36928 0.0
C334 C 0.98369 0.56758 0.33696 0.0
C335 C 0.99624 0.58745 0.31518 0.0
C336 C 1.00989 0.61592 0.3206 0.0
H337 H 0.0219 0.55377 0.14373 0.0
H338 H 0.02641 0.57036 0.18993 0.0
C339 C 1.01058 0.62462 0.34748 0.0
C340 C 0.99363 0.57918 0.28669 0.0
H341 H 1.01339 0.52992 0.23986 0.0
C342 C 0.97676 0.59507 0.27071 0.0
C343 C 1.00722 0.5556 0.27547 0.0
C344 C 0.02615 0.53846 0.29165 0.0
C345 C 0.97279 0.58766 0.24378 0.0
C346 C 0.98597 0.56373 0.23273 0.0
C347 C 1.00318 0.54813 0.24857 0.0
C348 C 0.98257 0.55485 0.20453 0.0
C349 C 0.95479 0.60558 0.2272 0.0
C350 C 0.95636 0.54071 0.19752 0.0
C351 C 0.95368 0.53121 0.17107 0.0
C352 C 0.97715 0.53584 0.15122 0.0
C353 C 1.00327 0.55037 0.15834 0.0
C354 C 1.00597 0.55964 0.18479 0.0
H355 H 0.95022 0.62655 0.23703 0.0
H356 H 0.96558 0.61168 0.20641 0.0
H357 H 0.93423 0.59158 0.22495 0.0
H358 H 0.93813 0.53661 0.21263 0.0
H359 H 0.93332 0.52016 0.16613 0.0
H360 H 0.23635 0.09542 0.18226 0.0
H361 H 0.27939 0.07802 0.16097 0.0
H362 H 0.31661 0.1703 0.14194 0.0
H363 H 0.27345 0.18782 0.16289 0.0
H364 H 0.3256 0.13751 0.0992 0.0
H365 H 0.35526 0.07596 0.19021 0.0
H366 H 0.31997 0.06269 0.18207 0.0
H367 H 0.32807 0.10073 0.1923 0.0
C368 C 0.25381 0.11205 0.17383 0.0
C369 C 0.25136 0.14307 0.17445 0.0
C370 C 0.27854 0.10204 0.1617 0.0
C371 C 0.30169 0.12277 0.15022 0.0
C372 C 0.29921 0.15375 0.15068 0.0
H373 H 0.4723 0.07438 0.10411 0.0
H374 H 0.43095 0.09432 0.1264 0.0
C375 C 0.27441 0.16377 0.16262 0.0
C376 C 0.32807 0.11224 0.13699 0.0
H377 H 0.37993 0.06743 0.14752 0.0
C378 C 0.33752 0.1223 0.10987 0.0
C379 C 0.34411 0.09276 0.15088 0.0
C380 C 0.33654 0.08265 0.18056 0.0
C381 C 0.36198 0.11303 0.09617 0.0
C382 C 0.37725 0.09244 0.10964 0.0
C383 C 0.36817 0.08289 0.13696 0.0
C384 C 0.40262 0.08055 0.09581 0.0
C385 C 0.37149 0.12599 0.06754 0.0
C386 C 0.40064 0.06577 0.07128 0.0
C387 C 0.42434 0.05461 0.05836 0.0
C388 C 0.45063 0.05749 0.06981 0.0
C389 C 0.45249 0.07186 0.0946 0.0
C390 C 0.42879 0.08323 0.10742 0.0
H391 H 0.36341 0.14788 0.06357 0.0
H392 H 0.39507 0.1295 0.06377 0.0
H393 H 0.3629 0.11011 0.05269 0.0
H394 H 0.38062 0.06254 0.0622 0.0
H395 H 0.42192 0.04337 0.03949 0.0
H396 H 0.31099 0.84076 0.61191 0.0
H397 H 0.26765 0.86163 0.60096 0.0
H398 H 0.30395 0.94931 0.62343 0.0
H399 H 0.34718 0.92886 0.63404 0.0
H400 H 0.23084 0.89105 0.63635 0.0
H401 H 0.27885 0.96572 0.54697 0.0
H402 H 0.29609 0.93538 0.56067 0.0
H403 H 0.29779 0.97079 0.57679 0.0
C404 C 0.3097 0.86453 0.61429 0.0
C405 C 0.33239 0.8832 0.6237 0.0
C406 C 0.28501 0.87635 0.60812 0.0
C407 C 0.28286 0.90704 0.61108 0.0
C408 C 0.30547 0.92568 0.62055 0.0
H409 H 0.16255 0.03227 0.59668 0.0
H410 H 0.20166 1.00444 0.60735 0.0
C411 C 0.3301 0.91391 0.62672 0.0
C412 C 0.25674 0.91968 0.60498 0.0
H413 H 0.23303 0.97465 0.56616 0.0
C414 C 0.23115 0.90909 0.62081 0.0
C415 C 0.25735 0.94311 0.58463 0.0
C416 C 0.28393 0.95425 0.56609 0.0
C417 C 0.20629 0.92226 0.61753 0.0
C418 C 0.2072 0.94633 0.59778 0.0
C419 C 0.23259 0.95634 0.58148 0.0
C420 C 0.18223 0.962 0.59385 0.0
C421 C 0.17952 0.91109 0.63575 0.0
C422 C 0.15831 0.94715 0.58304 0.0
C423 C 0.13601 0.96303 0.57678 0.0
C424 C 0.13741 0.99406 0.5811 0.0
C425 C 0.16105 0.00854 0.59277 0.0
C426 C 0.1833 0.99266 0.59899 0.0
H427 H 0.18377 0.89632 0.65328 0.0
H428 H 0.16934 0.93036 0.64372 0.0
H429 H 0.16415 0.89791 0.6237 0.0
H430 H 0.15737 0.92358 0.57853 0.0
H431 H 0.11832 0.9513 0.56746 0.0
H432 H 0.73901 0.38862 0.93151 0.0
H433 H 0.78302 0.40612 0.95146 0.0
H434 H 0.82688 0.42348 0.87075 0.0
H435 H 0.78267 0.40624 0.85061 0.0
H436 H 0.83356 0.38296 0.94683 0.0
H437 H 0.84882 0.50224 0.90608 0.0
H438 H 0.81579 0.47775 0.90503 0.0
H439 H 0.84549 0.47504 0.88043 0.0
C440 C 0.75803 0.3962 0.918 0.0
C441 C 0.75742 0.39603 0.88949 0.0
C442 C 0.78314 0.40625 0.92942 0.0
C443 C 0.80818 0.4164 0.91262 0.0
C444 C 0.80767 0.41636 0.88411 0.0
H445 H 0.97986 0.48025 0.95219 0.0
H446 H 0.93857 0.46039 0.92904 0.0
C447 C 0.78244 0.40646 0.87263 0.0
C448 C 0.83488 0.4261 0.92516 0.0
H449 H 0.88599 0.48606 0.92978 0.0
C450 C 0.84501 0.40551 0.94312 0.0
C451 C 0.84982 0.45552 0.92025 0.0
C452 C 0.83935 0.47904 0.9021 0.0
C453 C 0.86967 0.41353 0.95629 0.0
C454 C 0.88443 0.44299 0.95155 0.0
C455 C 0.8746 0.46346 0.9333 0.0
C456 C 0.90971 0.45334 0.96588 0.0
C457 C 0.8799 0.39038 0.97499 0.0
C458 C 0.90713 0.45588 0.99428 0.0
C459 C 0.93066 0.46727 1.0076 0.0
C460 C 0.9572 0.47636 0.99272 0.0
C461 C 0.95978 0.47332 0.9643 0.0
C462 C 0.9362 0.46206 0.951 0.0
H463 H 0.87038 0.36708 0.97138 0.0
H464 H 0.90346 0.39163 0.97224 0.0
H465 H 0.8737 0.39495 0.99652 0.0
H466 H 0.88674 0.44968 1.00606 0.0
H467 H 0.92792 0.46944 0.02948 0.0
H468 H 0.89202 0.5578 0.48041 0.0
H469 H 0.84034 0.54204 0.48617 0.0
H470 H 0.82585 0.63529 0.48282 0.0
H471 H 0.87702 0.6512 0.47646 0.0
H472 H 0.79545 0.55987 0.52688 0.0
H473 H 0.78435 0.59492 0.41913 0.0
H474 H 0.81801 0.58823 0.43107 0.0
H475 H 0.80405 0.62302 0.43752 0.0
C476 C 0.87778 0.5749 0.48108 0.0
C477 C 0.88864 0.60574 0.47796 0.0
C478 C 0.84835 0.56587 0.48448 0.0
C479 C 0.82943 0.58754 0.48457 0.0
C480 C 0.84019 0.61826 0.48256 0.0
H481 H 0.65539 0.61099 0.49124 0.0
H482 H 0.70705 0.61348 0.48852 0.0
C483 C 0.86947 0.62729 0.47922 0.0
C484 C 0.79838 0.57848 0.48551 0.0
H485 H 0.74159 0.58555 0.44896 0.0
C486 C 0.7836 0.565 0.50978 0.0
C487 C 0.78317 0.58512 0.46304 0.0
C488 C 0.79817 0.59838 0.4361 0.0
C489 C 0.7537 0.55948 0.51263 0.0
C490 C 0.73846 0.56738 0.49051 0.0
C491 C 0.75338 0.57969 0.46591 0.0
C492 C 0.70704 0.56517 0.49295 0.0
C493 C 0.73854 0.5466 0.5396 0.0
C494 C 0.68994 0.5371 0.49621 0.0
C495 C 0.66025 0.53556 0.49756 0.0
C496 C 0.64725 0.56208 0.49555 0.0
C497 C 0.6646 0.59011 0.49238 0.0
C498 C 0.69416 0.5916 0.49102 0.0
H499 H 0.75324 0.54622 0.55594 0.0
H500 H 0.7212 0.55993 0.54616 0.0
H501 H 0.72874 0.52312 0.53724 0.0
H502 H 0.69954 0.51642 0.49728 0.0
H503 H 0.64756 0.51362 0.49967 0.0
H504 H 0.13712 0.25007 0.17308 0.0
H505 H 0.1116 0.28982 0.15491 0.0
H506 H 0.16816 0.29834 0.08081 0.0
H507 H 0.1935 0.25841 0.09874 0.0
H508 H 0.13151 0.34957 0.1383 0.0
H509 H 0.09026 0.28867 0.05135 0.0
H510 H 0.1049 0.26988 0.07905 0.0
H511 H 0.12814 0.29079 0.05206 0.0
C512 C 0.14405 0.2603 0.15287 0.0
C513 C 0.16727 0.25094 0.13725 0.0
C514 C 0.12945 0.28307 0.14251 0.0
C515 C 0.13758 0.2968 0.11626 0.0
C516 C 0.16099 0.28769 0.10083 0.0
H517 H 0.08414 0.44185 0.0168 0.0
H518 H 0.1067 0.39992 0.03513 0.0
C519 C 0.17559 0.26498 0.11118 0.0
C520 C 0.12211 0.32113 0.10526 0.0
H521 H 0.08528 0.34089 0.05191 0.0
C522 C 0.12122 0.34757 0.11951 0.0
C523 C 0.10872 0.31865 0.08068 0.0
C524 C 0.10776 0.29037 0.06499 0.0
C525 C 0.10798 0.37178 0.10958 0.0
C526 C 0.09469 0.36936 0.08493 0.0
C527 C 0.09546 0.34285 0.07075 0.0
C528 C 0.0801 0.39415 0.07345 0.0
C529 C 0.10911 0.40012 0.12521 0.0
C530 C 0.05711 0.4045 0.08851 0.0
C531 C 0.04416 0.4285 0.07808 0.0
C532 C 0.05373 0.44263 0.0522 0.0
C533 C 0.07618 0.43159 0.03679 0.0
C534 C 0.08915 0.40759 0.04727 0.0
H535 H 0.12633 0.40155 0.13916 0.0
H536 H 0.11252 0.42058 0.1111 0.0
H537 H 0.08858 0.40009 0.1378 0.0
H538 H 0.04922 0.39409 0.10846 0.0
H539 H 0.02685 0.43622 0.09051 0.0
H540 H 0.67898 0.32768 0.93288 0.0
H541 H 0.65167 0.28087 0.95305 0.0
H542 H 0.63221 0.25424 0.87292 0.0
H543 H 0.66064 0.30032 0.85243 0.0
H544 H 0.59537 0.26017 0.9515 0.0
H545 H 0.66238 0.18021 0.9034 0.0
H546 H 0.67394 0.22022 0.903 0.0
H547 H 0.64955 0.20548 0.87943 0.0
C548 C 0.6693 0.31165 0.91948 0.0
C549 C 0.6722 0.31767 0.891 0.0
C550 C 0.65349 0.28503 0.93107 0.0
C551 C 0.64026 0.26387 0.91446 0.0
C552 C 0.64272 0.26996 0.88608 0.0
H553 H 0.53386 0.09139 0.95551 0.0
H554 H 0.55709 0.1387 0.93203 0.0
C555 C 0.65868 0.29651 0.87443 0.0
C556 C 0.62351 0.23572 0.92701 0.0
H557 H 0.61925 0.15886 0.9286 0.0
C558 C 0.6006 0.23803 0.9465 0.0
C559 C 0.63038 0.20684 0.92043 0.0
C560 C 0.65555 0.20293 0.90062 0.0
C561 C 0.58437 0.21222 0.95959 0.0
C562 C 0.59136 0.18344 0.95311 0.0
C563 C 0.61394 0.18105 0.93336 0.0
C564 C 0.57631 0.15554 0.96753 0.0
C565 C 0.5598 0.21583 0.98021 0.0
C566 C 0.57959 0.14946 0.99518 0.0
C567 C 0.56656 0.12247 1.00859 0.0
C568 C 0.54992 0.10111 0.99457 0.0
C569 C 0.54642 0.10745 0.96691 0.0
C570 C 0.55968 0.13439 0.95345 0.0
H571 H 0.55338 0.23884 0.97858 0.0
H572 H 0.5411 0.19904 0.97754 0.0
H573 H 0.56617 0.21186 1.0011 0.0
H574 H 0.59267 0.16539 1.00626 0.0
H575 H 0.56972 0.11825 0.02989 0.0
H576 H 0.9327 0.70389 0.47863 0.0
H577 H 0.95209 0.7539 0.49103 0.0
H578 H 0.03461 0.72437 0.49529 0.0
H579 H 1.01518 0.67371 0.48312 0.0
H580 H 0.97962 0.77042 0.53862 0.0
H581 H 0.04926 0.80058 0.4417 0.0
H582 H 0.02081 0.7695 0.44468 0.0
H583 H 0.05304 0.76597 0.4603 0.0
C584 C 0.95488 0.70777 0.48263 0.0
C585 C 0.97236 0.68472 0.48008 0.0
C586 C 0.96596 0.73645 0.48954 0.0
C587 C 0.99479 0.74285 0.49388 0.0
C588 C 1.01237 0.71993 0.49167 0.0
H589 H 0.064 0.92696 0.53479 0.0
H590 H 0.06202 0.87248 0.52882 0.0
C591 C 1.00125 0.69106 0.48473 0.0
C592 C 1.00596 0.77379 0.50046 0.0
H593 H 0.04503 0.83888 0.47243 0.0
C594 C 0.99436 0.78525 0.52442 0.0
C595 C 0.02516 0.79303 0.48183 0.0
C596 C 0.03777 0.78188 0.45557 0.0
C597 C 1.00046 0.8158 0.52965 0.0
C598 C 0.01845 0.83531 0.51038 0.0
C599 C 0.0313 0.82366 0.48714 0.0
C600 C 0.02103 0.8683 0.51248 0.0
C601 C 0.98663 0.82746 0.55512 0.0
C602 C 0.99884 0.88375 0.50482 0.0
C603 C 0.99989 0.91464 0.50808 0.0
C604 C 0.02317 0.93068 0.51915 0.0
C605 C 0.04578 0.91523 0.52621 0.0
C606 C 0.04472 0.88419 0.52283 0.0
H607 H 0.97721 0.80885 0.57014 0.0
H608 H 1.0024 0.84286 0.56494 0.0
H609 H 0.96943 0.84055 0.54951 0.0
H610 H 0.98044 0.87174 0.49673 0.0
H611 H 0.98215 0.9258 0.50239 0.0
H612 H 0.49148 0.82773 0.64136 0.0
H613 H 0.50549 0.77942 0.62692 0.0
H614 H 0.41736 0.74018 0.63545 0.0
H615 H 0.40324 0.7881 0.65013 0.0
H616 H 0.45909 0.70478 0.6597 0.0
H617 H 0.48738 0.74479 0.55076 0.0
H618 H 0.50233 0.76791 0.5763 0.0
H619 H 0.46464 0.76366 0.57376 0.0
C620 C 0.47517 0.80871 0.64029 0.0
C621 C 0.44628 0.81165 0.64657 0.0
C622 C 0.48316 0.78128 0.63196 0.0
C623 C 0.46237 0.75651 0.62995 0.0
C624 C 0.43362 0.75918 0.6368 0.0
H625 H 0.45481 0.57216 0.58276 0.0
H626 H 0.44548 0.61967 0.60238 0.0
C627 C 0.42561 0.78657 0.64496 0.0
C628 C 0.47037 0.72782 0.62019 0.0
H629 H 0.49357 0.69474 0.56286 0.0
C630 C 0.46676 0.70249 0.63858 0.0
C631 C 0.48029 0.72516 0.59264 0.0
C632 C 0.48378 0.7517 0.57206 0.0
C633 C 0.47301 0.67435 0.63008 0.0
C634 C 0.48244 0.67153 0.60237 0.0
C635 C 0.48631 0.69702 0.58409 0.0
C636 C 0.48824 0.64236 0.59169 0.0
C637 C 0.46984 0.64806 0.6509 0.0
C638 C 0.51517 0.63965 0.57872 0.0
C639 C 0.52043 0.61277 0.56719 0.0
C640 C 0.49883 0.58808 0.56845 0.0
C641 C 0.47191 0.59074 0.58165 0.0
C642 C 0.46661 0.61777 0.59302 0.0
H643 H 0.47046 0.65576 0.67203 0.0
H644 H 0.44898 0.63418 0.64972 0.0
H645 H 0.48688 0.63353 0.64693 0.0
H646 H 0.53208 0.65844 0.57737 0.0
H647 H 0.54142 0.61142 0.5572 0.0
H648 H 0.85508 0.94466 0.82336 0.0
H649 H 0.87905 0.96422 0.77894 0.0
H650 H 0.90076 0.87566 0.76245 0.0
H651 H 0.8756 0.85562 0.80599 0.0
H652 H 0.93347 0.96774 0.75827 0.0
H653 H 0.86691 0.89615 0.69334 0.0
H654 H 0.8572 0.89869 0.72933 0.0
H655 H 0.88264 0.87424 0.71789 0.0
C656 C 0.86448 0.92917 0.81012 0.0
C657 C 0.86316 0.89843 0.81847 0.0
C658 C 0.87846 0.94049 0.78475 0.0
C659 C 0.89143 0.9214 0.76697 0.0
C660 C 0.89044 0.89082 0.77537 0.0
H661 H 0.01961 0.98175 0.62959 0.0
H662 H 0.99485 0.96329 0.67407 0.0
C663 C 0.87633 0.87945 0.80061 0.0
C664 C 0.90645 0.93353 0.73997 0.0
H665 H 0.90998 0.92288 0.67139 0.0
C666 C 0.92822 0.958 0.73926 0.0
C667 C 0.89945 0.92122 0.71499 0.0
C668 C 0.87508 0.89634 0.71382 0.0
C669 C 0.94339 0.97011 0.71451 0.0
C670 C 0.93719 0.95697 0.68966 0.0
C671 C 0.91511 0.93281 0.69035 0.0
C672 C 0.95265 0.96838 0.66263 0.0
C673 C 0.96545 0.99736 0.71524 0.0
C674 C 0.93733 0.97661 0.64091 0.0
C675 C 0.95141 0.98672 0.61534 0.0
C676 C 0.98127 0.98895 0.61073 0.0
C677 C 0.99665 0.98062 0.63244 0.0
C678 C 0.98248 0.97024 0.65801 0.0
H679 H 0.96171 0.00987 0.73395 0.0
H680 H 0.98683 0.98987 0.71532 0.0
H681 H 0.96555 0.01306 0.69711 0.0
H682 H 0.91435 0.97533 0.64377 0.0
H683 H 0.93881 0.99288 0.59917 0.0
H684 H 0.57657 0.16746 0.3339 0.0
H685 H 0.56083 0.14 0.29514 0.0
H686 H 0.56758 0.05559 0.33845 0.0
H687 H 0.58347 0.08308 0.37749 0.0
H688 H 0.59805 0.06154 0.28959 0.0
H689 H 0.48989 0.08879 0.27604 0.0
H690 H 0.51384 0.12239 0.27955 0.0
H691 H 0.50621 0.09438 0.30756 0.0
C692 C 0.5738 0.14302 0.33556 0.0
C693 C 0.58132 0.1274 0.35868 0.0
C694 C 0.56468 0.12732 0.3134 0.0
C695 C 0.56264 0.09572 0.31405 0.0
C696 C 0.56884 0.07997 0.33763 0.0
H697 H 0.52486 0.01452 0.15908 0.0
H698 H 0.52188 0.02144 0.2083 0.0
C699 C 0.57804 0.09568 0.35981 0.0
C700 C 0.55827 0.07989 0.28871 0.0
H701 H 0.5176 0.07664 0.23486 0.0
C702 C 0.58008 0.06419 0.27794 0.0
C703 C 0.53468 0.083 0.27365 0.0
C704 C 0.5097 0.09779 0.28497 0.0
C705 C 0.58002 0.05357 0.25161 0.0
C706 C 0.5578 0.05922 0.23559 0.0
C707 C 0.53484 0.07277 0.2471 0.0
C708 C 0.55963 0.0542 0.2061 0.0
C709 C 0.60429 0.03739 0.24076 0.0
C710 C 0.5816 0.07068 0.18869 0.0
C711 C 0.58323 0.06704 0.16066 0.0
C712 C 0.56285 0.04688 0.14943 0.0
C713 C 0.54075 0.03043 0.16699 0.0
C714 C 0.53908 0.03419 0.19511 0.0
H715 H 0.61435 0.02676 0.25762 0.0
H716 H 0.59696 0.01971 0.22689 0.0
H717 H 0.62081 0.0539 0.22908 0.0
H718 H 0.59727 0.08677 0.19677 0.0
H719 H 0.60015 0.08056 0.14779 0.0
H720 H 0.43492 0.63924 0.26469 0.0
H721 H 0.44913 0.61929 0.30781 0.0
H722 H 0.36152 0.58533 0.3337 0.0
H723 H 0.34714 0.60515 0.29041 0.0
H724 H 0.42932 0.63433 0.36146 0.0
H725 H 0.40533 0.51166 0.34548 0.0
H726 H 0.40906 0.54005 0.3177 0.0
H727 H 0.37727 0.53436 0.34079 0.0
C728 C 0.41871 0.62737 0.27953 0.0
C729 C 0.38999 0.62365 0.27421 0.0
C730 C 0.42684 0.61605 0.30413 0.0
C731 C 0.40642 0.60061 0.3238 0.0
C732 C 0.37765 0.5968 0.31858 0.0
H733 H 0.43488 0.51738 0.48228 0.0
H734 H 0.41216 0.53522 0.44284 0.0
C735 C 0.36946 0.60823 0.29392 0.0
C736 C 0.41547 0.58935 0.34999 0.0
H737 H 0.42331 0.52502 0.38705 0.0
C738 C 0.42788 0.61044 0.36714 0.0
C739 C 0.41336 0.55819 0.3574 0.0
C740 C 0.40072 0.53462 0.33937 0.0
C741 C 0.43864 0.6012 0.39135 0.0
C742 C 0.43747 0.57002 0.39829 0.0
C743 C 0.42426 0.54891 0.38159 0.0
C744 C 0.4511 0.55893 0.42207 0.0
C745 C 0.45116 0.62494 0.4093 0.0
C746 C 0.48057 0.56591 0.42318 0.0
C747 C 0.49359 0.5558 0.4456 0.0
C748 C 0.47741 0.53831 0.46731 0.0
C749 C 0.44793 0.53087 0.46593 0.0
C750 C 0.43491 0.54103 0.44343 0.0
H751 H 0.44301 0.64683 0.40556 0.0
H752 H 0.4463 0.61771 0.43126 0.0
H753 H 0.47464 0.62867 0.40469 0.0
H754 H 0.49355 0.57915 0.40663 0.0
H755 H 0.51635 0.5618 0.44591 0.0
H756 H 0.03233 0.43589 0.68723 0.0
H757 H 0.03223 0.44216 0.73634 0.0
H758 H 0.08028 0.53049 0.72048 0.0
H759 H 0.08045 0.5244 0.67116 0.0
H760 H 0.08223 0.45263 0.76473 0.0
H761 H 1.01334 0.54368 0.77681 0.0
H762 H 1.01388 0.52086 0.74744 0.0
H763 H 0.04205 0.55103 0.75014 0.0
C764 C 0.04257 0.45683 0.69415 0.0
C765 C 0.05639 0.47977 0.6754 0.0
C766 C 0.04254 0.46031 0.72221 0.0
C767 C 0.05606 0.48684 0.73198 0.0
C768 C 0.06937 0.51002 0.71331 0.0
H769 H 0.11492 0.52043 0.8906 0.0
H770 H 0.11086 0.51123 0.8423 0.0
C771 C 0.0695 0.50651 0.68522 0.0
C772 C 0.05748 0.4896 0.76167 0.0
H773 H 0.03753 0.53087 0.81505 0.0
C774 C 0.07237 0.46964 0.77579 0.0
C775 C 0.04439 0.51166 0.77599 0.0
C776 C 0.02729 0.53292 0.76194 0.0
C777 C 0.07498 0.47153 0.80387 0.0
C778 C 0.06253 0.4941 0.81803 0.0
C779 C 0.04718 0.5137 0.80402 0.0
C780 C 0.06528 0.49792 0.8474 0.0
C781 C 0.09081 0.44927 0.81824 0.0
C782 C 0.041 0.49354 0.86615 0.0
C783 C 0.04325 0.49881 0.89368 0.0
C784 C 0.06984 0.50889 0.9029 0.0
C785 C 0.09418 0.51284 0.88407 0.0
C786 C 0.09192 0.50739 0.85656 0.0
H787 H 0.09355 0.42939 0.80597 0.0
H788 H 0.11226 0.4605 0.82173 0.0
H789 H 0.07945 0.44131 0.83843 0.0
H790 H 0.02024 0.48641 0.8594 0.0
H791 H 0.02403 0.49604 0.90752 0.0
H792 H 0.79537 0.89721 0.93512 0.0
H793 H 0.75231 0.9159 0.9549 0.0
H794 H 0.72012 0.91795 0.87574 0.0
H795 H 0.76302 0.89879 0.85581 0.0
H796 H 0.73054 0.97066 0.94038 0.0
H797 H 0.65356 0.8698 0.92575 0.0
H798 H 0.69152 0.86868 0.92397 0.0
H799 H 0.67603 0.88514 0.89584 0.0
C800 C 0.77903 0.90131 0.92191 0.0
C801 C 0.78272 0.89625 0.89383 0.0
C802 C 0.75445 0.91219 0.93326 0.0
C803 C 0.73271 0.91801 0.91695 0.0
C804 C 0.73634 0.91322 0.88888 0.0
H805 H 0.56597 0.97893 0.95643 0.0
H806 H 0.60792 0.96052 0.93368 0.0
C807 C 0.76105 0.90252 0.87745 0.0
C808 C 0.70663 0.92967 0.92932 0.0
H809 H 0.6345 0.912 0.94341 0.0
C810 C 0.70955 0.95782 0.94106 0.0
C811 C 0.67914 0.91307 0.93008 0.0
C812 C 0.67471 0.88238 0.91845 0.0
C813 C 0.68585 0.9699 0.95328 0.0
C814 C 0.65837 0.95302 0.9546 0.0
C815 C 0.65544 0.92499 0.94256 0.0
C816 C 0.63257 0.96388 0.96865 0.0
C817 C 0.6905 1.00102 0.96408 0.0
C818 C 0.63197 0.9714 0.99612 0.0
C819 C 0.60808 0.98214 1.00912 0.0
C820 C 0.58389 0.98522 0.99515 0.0
C821 C 0.58418 0.97691 0.96786 0.0
C822 C 0.60821 0.96635 0.9548 0.0
H823 H 0.71018 0.01442 0.95397 0.0
H824 H 0.67222 0.01362 0.96106 0.0
H825 H 0.69294 0.99893 0.98628 0.0
H826 H 0.65002 0.9689 1.00763 0.0
H827 H 0.6086 0.98803 0.0302 0.0
H828 H 0.71271 0.13317 0.40057 0.0
H829 H 0.75825 0.11589 0.40838 0.0
H830 H 0.74716 0.13779 0.49282 0.0
H831 H 0.70182 0.15602 0.48488 0.0
H832 H 0.80272 0.15273 0.46995 0.0
H833 H 0.76044 0.03538 0.44895 0.0
H834 H 0.75885 0.06252 0.42135 0.0
H835 H 0.73789 0.06469 0.45327 0.0
C836 C 0.72002 0.13442 0.42077 0.0
C837 C 0.70359 0.14538 0.44233 0.0
C838 C 0.74601 0.12451 0.42519 0.0
C839 C 0.7557 0.12494 0.4513 0.0
C840 C 0.73992 0.13713 0.47255 0.0
H841 H 0.86539 0.01183 0.52056 0.0
H842 H 0.82704 0.03916 0.50734 0.0
C843 C 0.71406 0.1474 0.46805 0.0
C844 C 0.78146 0.11121 0.45684 0.0
H845 H 0.80891 0.04436 0.4568 0.0
C846 C 0.80419 0.12906 0.46704 0.0
C847 C 0.78306 0.08024 0.45327 0.0
C848 C 0.75868 0.05949 0.44386 0.0
C849 C 0.82849 0.11665 0.47398 0.0
C850 C 0.83017 0.08577 0.47009 0.0
C851 C 0.80759 0.06809 0.45956 0.0
C852 C 0.8541 0.07056 0.47859 0.0
C853 C 0.85165 0.13638 0.48628 0.0
C854 C 0.88207 0.07921 0.46681 0.0
C855 C 0.90412 0.06359 0.47443 0.0
C856 C 0.89838 0.03886 0.4936 0.0
C857 C 0.87037 0.03042 0.50537 0.0
C858 C 0.84848 0.04613 0.49796 0.0
H859 H 0.84422 0.15747 0.49357 0.0
H860 H 0.85942 0.12414 0.50367 0.0
H861 H 0.86987 0.14273 0.47057 0.0
H862 H 0.88673 0.09764 0.45141 0.0
H863 H 0.92551 0.07036 0.46494 0.0
H864 H 0.25826 0.63106 0.20965 0.0
H865 H 0.21562 0.6124 0.18751 0.0
H866 H 0.26307 0.63037 0.10851 0.0
H867 H 0.30571 0.64856 0.13041 0.0
H868 H 0.18901 0.64624 0.14741 0.0
H869 H 0.22497 0.54184 0.10736 0.0
H870 H 0.24135 0.56143 0.13444 0.0
H871 H 0.24977 0.5755 0.09955 0.0
C872 C 0.25964 0.63063 0.18759 0.0
C873 C 0.28529 0.64129 0.17175 0.0
C874 C 0.23529 0.62015 0.17499 0.0
C875 C 0.23632 0.61979 0.14642 0.0
C876 C 0.26194 0.63013 0.13061 0.0
H877 H 0.11847 0.56773 0.0271 0.0
H878 H 0.1595 0.58709 0.0509 0.0
C879 C 0.2862 0.64074 0.14314 0.0
C880 C 0.21044 0.60958 0.13292 0.0
H881 H 0.18298 0.55672 0.09116 0.0
C882 C 0.18753 0.62655 0.13525 0.0
C883 C 0.20875 0.584 0.11699 0.0
C884 C 0.23239 0.56443 0.11454 0.0
C885 C 0.16316 0.61902 0.1215 0.0
C886 C 0.1615 0.59348 0.10545 0.0
C887 C 0.18435 0.57638 0.10334 0.0
C888 C 0.13615 0.58377 0.09091 0.0
C889 C 0.13979 0.63896 0.12366 0.0
C890 C 0.10939 0.57561 0.10549 0.0
C891 C 0.08589 0.56474 0.09194 0.0
C892 C 0.08876 0.56148 0.06356 0.0
C893 C 0.11552 0.57004 0.04894 0.0
C894 C 0.139 0.58103 0.06252 0.0
H895 H 0.14766 0.66179 0.13005 0.0
H896 H 0.13043 0.6414 0.1039 0.0
H897 H 0.12264 0.62866 0.13925 0.0
H898 H 0.10681 0.57689 0.12747 0.0
H899 H 0.06564 0.55814 0.10386 0.0
H900 H 0.14826 0.44431 0.62998 0.0
H901 H 0.19991 0.45576 0.62124 0.0
H902 H 0.19543 0.42596 0.53941 0.0
H903 H 0.14353 0.41468 0.5479 0.0
H904 H 0.23542 0.40056 0.56782 0.0
H905 H 0.2485 0.52479 0.57468 0.0
H906 H 0.22749 0.50487 0.6035 0.0
H907 H 0.21469 0.50311 0.5702 0.0
C908 C 0.15815 0.44078 0.60992 0.0
C909 C 0.14174 0.42877 0.58956 0.0
C910 C 0.18769 0.44735 0.60496 0.0
C911 C 0.20143 0.44217 0.57954 0.0
C912 C 0.18518 0.43029 0.55912 0.0
H913 H 0.38392 0.493 0.53372 0.0
H914 H 0.33199 0.48829 0.53471 0.0
C915 C 0.15558 0.42373 0.56404 0.0
C916 C 0.23291 0.44733 0.57501 0.0
H917 H 0.29054 0.50075 0.57728 0.0
C918 C 0.24747 0.42252 0.5696 0.0
C919 C 0.24857 0.47607 0.57704 0.0
C920 C 0.23404 0.50381 0.58141 0.0
C921 C 0.27732 0.42545 0.56719 0.0
C922 C 0.29294 0.45385 0.57065 0.0
C923 C 0.27845 0.47893 0.57498 0.0
C924 C 0.32432 0.45768 0.5706 0.0
C925 C 0.2919 0.3981 0.56107 0.0
C926 C 0.33711 0.44259 0.59084 0.0
C927 C 0.36671 0.44539 0.59047 0.0
C928 C 0.38416 0.46341 0.56988 0.0
C929 C 0.3712 0.47915 0.55001 0.0
C930 C 0.34152 0.47637 0.55044 0.0
H931 H 0.27759 0.38042 0.55204 0.0
H932 H 0.31138 0.4043 0.54679 0.0
H933 H 0.2983 0.38829 0.58034 0.0
H934 H 0.32415 0.42858 0.60692 0.0
H935 H 0.37591 0.43347 0.60639 0.0
H936 H 0.93719 0.82381 0.92191 0.0
H937 H 0.95593 0.78057 0.94248 0.0
H938 H 0.87827 0.72359 0.9306 0.0
H939 H 0.8588 0.76745 0.91148 0.0
H940 H 0.89459 0.70749 0.97697 0.0
H941 H 0.9899 0.71732 0.90307 0.0
H942 H 0.98912 0.75113 0.92111 0.0
H943 H 0.96162 0.74 0.89914 0.0
C944 C 0.92408 0.80205 0.92381 0.0
C945 C 0.8966 0.799 0.91499 0.0
C946 C 0.93494 0.77721 0.93532 0.0
C947 C 0.919 0.74837 0.93741 0.0
C948 C 0.8912 0.74543 0.92909 0.0
H949 H 1.00143 0.58672 0.96064 0.0
H950 H 0.97923 0.62899 0.9431 0.0
C951 C 0.88005 0.77052 0.91813 0.0
C952 C 0.93129 0.7215 0.94837 0.0
H953 H 0.99054 0.68517 0.94296 0.0
C954 C 0.91549 0.7025 0.96935 0.0
C955 C 0.95835 0.71434 0.93821 0.0
C956 C 0.97554 0.73159 0.91395 0.0
C957 C 0.92607 0.67707 0.98063 0.0
C958 C 0.95386 0.671 0.97157 0.0
C959 C 0.96945 0.68982 0.95036 0.0
C960 C 0.96689 0.64476 0.98285 0.0
C961 C 0.90682 0.65655 1.00149 0.0
C962 C 0.96779 0.63925 1.01117 0.0
C963 C 0.97995 0.61445 0.02131 0.0
C964 C 0.9924 0.59519 1.00335 0.0
C965 C 0.99222 0.60121 0.97507 0.0
C966 C 0.97947 0.62547 0.96499 0.0
H967 H 0.88402 0.65841 0.99935 0.0
H968 H 0.91021 0.63259 0.9996 0.0
H969 H 0.9113 0.6632 0.02229 0.0
H970 H 0.95927 0.65422 0.02551 0.0
H971 H 0.97995 0.61059 0.0432 0.0
H972 H 0.33088 0.7446 0.16802 0.0
H973 H 0.35818 0.79113 0.14709 0.0
H974 H 0.43644 0.7542 0.1571 0.0
H975 H 0.40927 0.70714 0.17719 0.0
H976 H 0.39936 0.83129 0.16816 0.0
H977 H 0.44372 0.78016 0.07563 0.0
H978 H 0.41455 0.76091 0.09831 0.0
H979 H 0.45046 0.76247 0.10748 0.0
C980 C 0.35389 0.74625 0.16552 0.0
C981 C 0.3679 0.72207 0.17405 0.0
C982 C 0.36946 0.77293 0.15376 0.0
C983 C 0.39929 0.77592 0.15021 0.0
C984 C 0.4134 0.75214 0.15924 0.0
H985 H 0.50748 0.94735 0.10653 0.0
H986 H 0.48507 0.89981 0.13002 0.0
C987 C 0.39785 0.7254 0.17098 0.0
C988 C 0.41551 0.80398 0.13698 0.0
H989 H 0.46014 0.83151 0.08093 0.0
C990 C 0.41273 0.83138 0.14913 0.0
C991 C 0.43266 0.80398 0.112 0.0
C992 C 0.43541 0.77538 0.0974 0.0
C993 C 0.42662 0.85886 0.13694 0.0
C994 C 0.44409 0.85881 0.11217 0.0
C995 C 0.44692 0.8314 0.10005 0.0
C996 C 0.4585 0.88711 0.09778 0.0
C997 C 0.4218 0.88778 0.15024 0.0
C998 C 0.45157 0.89525 0.07157 0.0
C999 C 0.46445 0.92223 0.05803 0.0
C1000 C 0.48461 0.94155 0.07042 0.0
C1001 C 0.49193 0.93304 0.09648 0.0
C1002 C 0.47904 0.90598 0.11001 0.0
H1003 H 0.40286 0.88456 0.16549 0.0
H1004 H 0.44067 0.89582 0.16097 0.0
H1005 H 0.4189 0.90565 0.13472 0.0
H1006 H 0.43584 0.88092 0.06176 0.0
H1007 H 0.45836 0.92807 0.03796 0.0
H1008 H 0.07866 0.3527 0.54837 0.0
H1009 H 0.06135 0.30037 0.54089 0.0
H1010 H 1.00835 0.29388 0.61719 0.0
H1011 H 0.02717 0.34535 0.62587 0.0
H1012 H 0.03666 0.24865 0.61504 0.0
H1013 H 0.9899 0.25828 0.5168 0.0
H1014 H 0.02602 0.27614 0.51351 0.0
H1015 H 0.99972 0.29075 0.53608 0.0
C1016 C 0.0633 0.3402 0.56358 0.0
C1017 C 0.05448 0.35337 0.5878 0.0
C1018 C 0.05299 0.31037 0.55901 0.0
C1019 C 0.03312 0.29326 0.57823 0.0
C1020 C 0.0235 0.30667 0.60195 0.0
H1021 H 0.97146 0.10587 0.54332 0.0
H1022 H 0.97181 0.15928 0.55302 0.0
C1023 C 0.03413 0.33632 0.60675 0.0
C1024 C 0.0248 0.26056 0.57503 0.0
H1025 H 1.00372 0.20936 0.52899 0.0
C1026 C 0.02898 0.24015 0.59637 0.0
C1027 C 1.01424 0.24928 0.55094 0.0
C1028 C 1.00691 0.26983 0.5282 0.0
C1029 C 0.02432 0.2089 0.59375 0.0
C1030 C 0.0162 0.19771 0.56876 0.0
C1031 C 1.01046 0.21798 0.54797 0.0
C1032 C 0.01547 0.16533 0.56325 0.0
C1033 C 0.0284 0.18823 0.61778 0.0
C1034 C 0.03998 0.15121 0.56537 0.0
C1035 C 0.03976 0.12082 0.56015 0.0
C1036 C 1.01514 0.10397 0.5522 0.0
C1037 C 0.9907 0.11824 0.54955 0.0
C1038 C 0.99088 0.14872 0.55504 0.0
H1039 H 0.02451 0.19908 0.6374 0.0
H1040 H 1.01396 0.16664 0.61835 0.0
H1041 H 0.05073 0.18316 0.61621 0.0
H1042 H 0.05945 0.16379 0.57085 0.0
H1043 H 0.05907 0.11067 0.56204 0.0
H1044 H 0.63284 0.24279 0.40881 0.0
H1045 H 0.61766 0.28995 0.42436 0.0
H1046 H 0.53133 0.24611 0.4405 0.0
H1047 H 0.54645 0.19858 0.42537 0.0
H1048 H 0.57313 0.32257 0.40426 0.0
H1049 H 0.55305 0.28291 0.51391 0.0
H1050 H 0.57449 0.26438 0.48946 0.0
H1051 H 0.53641 0.25899 0.48985 0.0
C1052 C 0.61065 0.24315 0.41585 0.0
C1053 C 0.59084 0.217 0.4162 0.0
C1054 C 0.60202 0.2701 0.4245 0.0
C1055 C 0.5735 0.27127 0.43378 0.0
C1056 C 0.55351 0.24543 0.43364 0.0
H1057 H 0.49152 0.41289 0.5099 0.0
H1058 H 0.50168 0.36619 0.48947 0.0
C1059 C 0.56211 0.21844 0.42487 0.0
C1060 C 0.5649 0.29953 0.44404 0.0
H1061 H 0.54298 0.33183 0.50228 0.0
C1062 C 0.56644 0.32467 0.42566 0.0
C1063 C 0.55625 0.30198 0.47195 0.0
C1064 C 0.55508 0.27576 0.49257 0.0
C1065 C 0.55934 0.35237 0.4345 0.0
C1066 C 0.55111 0.35497 0.46252 0.0
C1067 C 0.5493 0.32969 0.48081 0.0
C1068 C 0.54469 0.3838 0.4735 0.0
C1069 C 0.56036 0.37844 0.41374 0.0
C1070 C 0.56561 0.40908 0.47136 0.0
C1071 C 0.55985 0.43587 0.4829 0.0
C1072 C 0.53318 0.43764 0.49704 0.0
C1073 C 0.51229 0.41224 0.49915 0.0
C1074 C 0.51803 0.38555 0.48748 0.0
H1075 H 0.55909 0.37058 0.39273 0.0
H1076 H 0.54271 0.39199 0.41854 0.0
H1077 H 0.58081 0.39336 0.41402 0.0
H1078 H 0.58656 0.40794 0.4612 0.0
H1079 H 0.57643 0.455 0.4811 0.0
loop_
_geom_bond_atom_site_label_1
_geom_bond_atom_site_label_2
_geom_bond_distance
_geom_bond_site_symmetry_2
_ccdc_geom_bond_type
H0 C5 0.930 . S
H1 C8 0.930 . S
H2 C10 0.930 . S
H3 C4 1.016 . S
C4 H3 1.016 . S
C4 N11 1.286 . S
C5 H0 0.930 . S
C5 C6 1.397 . S
C5 C7 1.361 . S
C6 C5 1.397 . S
C6 C10 1.390 . S
C7 C5 1.361 . S
C7 C8 1.393 . S
C7 N11 1.413 . S
C8 H1 0.930 . S
C8 C7 1.393 . S
C8 C9 1.399 . S
C9 C8 1.399 . S
C9 C10 1.381 . S
C10 H2 0.930 . S
C10 C6 1.390 . S
C10 C9 1.381 . S
N11 C4 1.286 . S
N11 C7 1.413 . S
H12 C17 0.930 . S
H13 C20 0.930 . S
H14 C22 0.930 . S
H15 C16 1.016 . S
C16 H15 1.016 . S
C16 N23 1.286 . S
C17 H12 0.930 . S
C17 C18 1.397 . S
C17 C19 1.361 . S
C18 C17 1.397 . S
C18 C22 1.390 . S
C19 C17 1.361 . S
C19 C20 1.393 . S
C19 N23 1.413 . S
C20 H13 0.930 . S
C20 C19 1.393 . S
C20 C21 1.399 . S
C21 C20 1.399 . S
C21 C22 1.381 . S
C22 H14 0.930 . S
C22 C18 1.390 . S
C22 C21 1.381 . S
N23 C16 1.286 . S
N23 C19 1.413 . S
H24 C29 0.930 . S
H25 C32 0.930 . S
H26 C34 0.930 . S
H27 C28 1.016 . S
C28 H27 1.016 . S
C28 N35 1.286 . S
C29 H24 0.930 . S
C29 C30 1.397 . S
C29 C31 1.361 . S
C30 C29 1.397 . S
C30 C34 1.390 . S
C31 C29 1.361 . S
C31 C32 1.393 . S
C31 N35 1.413 . S
C32 H25 0.930 . S
C32 C31 1.393 . S
C32 C33 1.399 . S
C33 C32 1.399 . S
C33 C34 1.381 . S
C34 H26 0.930 . S
C34 C30 1.390 . S
C34 C33 1.381 . S
N35 C28 1.286 . S
N35 C31 1.413 . S
H36 C41 0.930 . S
H37 C44 0.930 . S
H38 C46 0.930 . S
H39 C40 1.016 . S
C40 H39 1.016 . S
C40 N47 1.286 . S
C41 H36 0.930 . S
C41 C42 1.397 . S
C41 C43 1.361 . S
C42 C41 1.397 . S
C42 C46 1.390 . S
C43 C41 1.361 . S
C43 C44 1.393 . S
C43 N47 1.413 . S
C44 H37 0.930 . S
C44 C43 1.393 . S
C44 C45 1.399 . S
C45 C44 1.399 . S
C45 C46 1.381 . S
C46 H38 0.930 . S
C46 C42 1.390 . S
C46 C45 1.381 . S
N47 C40 1.286 . S
N47 C43 1.413 . S
H48 C53 0.930 . S
H49 C56 0.930 . S
H50 C58 0.930 . S
H51 C52 1.016 . S
C52 H51 1.016 . S
C52 N59 1.286 . S
C53 H48 0.930 . S
C53 C54 1.397 . S
C53 C55 1.361 . S
C54 C53 1.397 . S
C54 C58 1.390 . S
C55 C53 1.361 . S
C55 C56 1.393 . S
C55 N59 1.413 . S
C56 H49 0.930 . S
C56 C55 1.393 . S
C56 C57 1.399 . S
C57 C56 1.399 . S
C57 C58 1.381 . S
C58 H50 0.930 . S
C58 C54 1.390 . S
C58 C57 1.381 . S
N59 C52 1.286 . S
N59 C55 1.413 . S
H60 C65 0.930 . S
H61 C68 0.930 . S
H62 C70 0.930 . S
H63 C64 1.016 . S
C64 H63 1.016 . S
C64 N71 1.286 . S
C65 H60 0.930 . S
C65 C66 1.397 . S
C65 C67 1.361 . S
C66 C65 1.397 . S
C66 C70 1.390 . S
C67 C65 1.361 . S
C67 C68 1.393 . S
C67 N71 1.413 . S
C68 H61 0.930 . S
C68 C67 1.393 . S
C68 C69 1.399 . S
C69 C68 1.399 . S
C69 C70 1.381 . S
C70 H62 0.930 . S
C70 C66 1.390 . S
C70 C69 1.381 . S
N71 C64 1.286 . S
N71 C67 1.413 . S
H72 C77 0.930 . S
H73 C80 0.930 . S
H74 C82 0.930 . S
H75 C76 1.016 . S
C76 H75 1.016 . S
C76 N83 1.286 . S
C77 H72 0.930 . S
C77 C78 1.397 . S
C77 C79 1.361 . S
C78 C77 1.397 . S
C78 C82 1.390 . S
C79 C77 1.361 . S
C79 C80 1.393 . S
C79 N83 1.413 . S
C80 H73 0.930 . S
C80 C79 1.393 . S
C80 C81 1.399 . S
C81 C80 1.399 . S
C81 C82 1.381 . S
C82 H74 0.930 . S
C82 C78 1.390 . S
C82 C81 1.381 . S
N83 C76 1.286 . S
N83 C79 1.413 . S
H84 C89 0.930 . S
H85 C92 0.930 . S
H86 C94 0.930 . S
H87 C88 1.016 . S
C88 H87 1.016 . S
C88 N95 1.286 . S
C89 H84 0.930 . S
C89 C90 1.397 . S
C89 C91 1.361 . S
C90 C89 1.397 . S
C90 C94 1.390 . S
C91 C89 1.361 . S
C91 C92 1.393 . S
C91 N95 1.413 . S
C92 H85 0.930 . S
C92 C91 1.393 . S
C92 C93 1.399 . S
C93 C92 1.399 . S
C93 C94 1.381 . S
C94 H86 0.930 . S
C94 C90 1.390 . S
C94 C93 1.381 . S
N95 C88 1.286 . S
N95 C91 1.413 . S
Co96 N101 2.057 . S
Co96 O113 2.021 . S
Co96 O116 2.062 . S
Co96 O120 2.117 1_545 S
Co96 O121 2.030 . S
C97 O117 1.259 1_655 S
C97 O120 1.258 . S
Co98 N107 2.057 . S
Co98 O114 2.117 1_565 S
Co98 O115 2.020 1_565 S
Co98 O117 2.021 . S
Co98 O122 2.062 . S
C99 N101 1.316 . S
C99 N102 1.347 . S
C99 H104 0.931 . S
C100 N101 1.375 1_565 S
C100 C103 1.350 1_565 S
C100 H105 0.930 . S
N101 Co96 2.057 . S
N101 C99 1.316 . S
N101 C100 1.375 1_545 S
N102 C99 1.347 . S
N102 C103 1.373 . S
C103 C100 1.350 1_545 S
C103 N102 1.373 . S
C103 H124 0.931 1_545 S
H104 C99 0.931 . S
H105 C100 0.930 . S
C106 O113 1.259 1_455 S
C106 O114 1.258 . S
N107 Co98 2.057 . S
N107 C108 1.316 . S
N107 C109 1.375 1_565 S
C108 N107 1.316 . S
C108 N110 1.347 . S
C108 H119 0.931 . S
C109 N107 1.375 1_545 S
C109 C111 1.350 . S
C109 H118 0.930 . S
N110 C108 1.347 . S
N110 C111 1.373 1_565 S
C111 C109 1.350 . S
C111 N110 1.373 1_545 S
C111 H125 0.931 . S
C112 O115 1.256 . S
C112 O116 1.255 1_455 S
O113 Co96 2.021 . S
O113 C106 1.259 1_655 S
O114 Co98 2.117 1_545 S
O114 C106 1.258 . S
O115 Co98 2.020 1_545 S
O115 C112 1.256 . S
O116 Co96 2.062 . S
O116 C112 1.255 1_655 S
O117 C97 1.259 1_455 S
O117 Co98 2.021 . S
H118 C109 0.930 . S
H119 C108 0.931 . S
O120 Co96 2.117 1_565 S
O120 C97 1.258 . S
O121 Co96 2.030 . S
O121 C123 1.240 1_545 S
O122 Co98 2.062 . S
O122 C123 1.255 1_455 S
C123 O121 1.240 1_565 S
C123 O122 1.255 1_655 S
H124 C103 0.931 1_565 S
H125 C111 0.931 . S
Co126 N131 2.057 1_545 S
Co126 O143 2.021 . S
Co126 O146 2.062 . S
Co126 O150 2.117 1_546 S
Co126 O151 2.020 1_556 S
C127 O147 1.259 . S
C127 O150 1.258 . S
Co128 N137 2.057 . S
Co128 O144 2.117 . S
Co128 O145 2.020 . S
Co128 O147 2.021 1_545 S
Co128 O152 2.062 . S
C129 N131 1.316 . S
C129 N132 1.347 . S
C129 H134 0.931 1_565 S
C130 N131 1.375 . S
C130 C133 1.350 . S
C130 H135 0.930 . S
N131 Co126 2.057 1_565 S
N131 C129 1.316 . S
N131 C130 1.375 . S
N132 C129 1.347 . S
N132 C133 1.373 . S
C133 C130 1.350 . S
C133 N132 1.373 . S
C133 H154 0.931 . S
H134 C129 0.931 1_545 S
H135 C130 0.930 . S
C136 O143 1.259 . S
C136 O144 1.258 1_556 S
N137 Co128 2.057 . S
N137 C138 1.316 . S
N137 C139 1.375 . S
C138 N137 1.316 . S
C138 N140 1.347 . S
C138 H149 0.931 . S
C139 N137 1.375 . S
C139 C141 1.350 . S
C139 H148 0.930 . S
N140 C138 1.347 . S
N140 C141 1.373 . S
C141 C139 1.350 . S
C141 N140 1.373 . S
C141 H155 0.931 . S
C142 O145 1.272 . S
C142 O146 1.243 1_554 S
O143 Co126 2.021 . S
O143 C136 1.259 . S
O144 Co128 2.117 . S
O144 C136 1.258 1_554 S
O145 Co128 2.020 . S
O145 C142 1.272 . S
O146 Co126 2.062 . S
O146 C142 1.243 1_556 S
O147 C127 1.259 . S
O147 Co128 2.021 1_565 S
H148 C139 0.930 . S
H149 C138 0.931 . S
O150 Co126 2.117 1_564 S
O150 C127 1.258 . S
O151 Co126 2.020 1_554 S
O151 C153 1.256 . S
O152 Co128 2.062 . S
O152 C153 1.255 . S
C153 O151 1.256 . S
C153 O152 1.255 . S
H154 C133 0.931 . S
H155 C141 0.931 . S
Co156 N161 2.057 . S
Co156 O173 2.021 . S
Co156 O176 2.062 . S
Co156 O180 2.117 . S
Co156 O181 2.020 . S
C157 O177 1.259 . S
C157 O180 1.258 . S
Co158 N167 2.057 . S
Co158 O174 2.117 . S
Co158 O175 2.020 . S
Co158 O177 2.021 . S
Co158 O182 2.062 . S
C159 N161 1.316 . S
C159 N162 1.347 . S
C159 H164 0.931 . S
C160 N161 1.375 . S
C160 C163 1.350 . S
C160 H165 0.930 . S
N161 Co156 2.057 . S
N161 C159 1.316 . S
N161 C160 1.375 . S
N162 C159 1.347 . S
N162 C163 1.373 . S
C163 C160 1.350 . S
C163 N162 1.373 . S
C163 H184 0.931 . S
H164 C159 0.931 . S
H165 C160 0.930 . S
C166 O173 1.259 . S
C166 O174 1.258 . S
N167 Co158 2.057 . S
N167 C168 1.316 . S
N167 C169 1.375 . S
C168 N167 1.316 . S
C168 N170 1.347 . S
C168 H179 0.931 . S
C169 N167 1.375 . S
C169 C171 1.350 . S
C169 H178 0.930 . S
N170 C168 1.347 . S
N170 C171 1.373 . S
C171 C169 1.350 . S
C171 N170 1.373 . S
C171 H185 0.931 . S
C172 O175 1.256 . S
C172 O176 1.255 . S
O173 Co156 2.021 . S
O173 C166 1.259 . S
O174 Co158 2.117 . S
O174 C166 1.258 . S
O175 Co158 2.020 . S
O175 C172 1.256 . S
O176 Co156 2.062 . S
O176 C172 1.255 . S
O177 C157 1.259 . S
O177 Co158 2.021 . S
H178 C169 0.930 . S
H179 C168 0.931 . S
O180 Co156 2.117 . S
O180 C157 1.258 . S
O181 Co156 2.020 . S
O181 C183 1.256 . S
O182 Co158 2.062 . S
O182 C183 1.255 . S
C183 O181 1.256 . S
C183 O182 1.255 . S
H184 C163 0.931 . S
H185 C171 0.931 . S
Co186 N191 2.057 . S
Co186 O203 2.021 . S
Co186 O206 2.062 1_556 S
Co186 O210 2.117 1_455 S
Co186 O211 2.020 . S
C187 O207 1.259 . S
C187 O210 1.258 1_554 S
Co188 N197 2.057 . S
Co188 O204 2.117 1_655 S
Co188 O205 2.020 1_655 S
Co188 O207 2.021 . S
Co188 O212 2.062 . S
C189 N191 1.316 . S
C189 N192 1.347 . S
C189 H194 0.931 . S
C190 N191 1.375 . S
C190 C193 1.350 . S
C190 H195 0.930 1_455 S
N191 Co186 2.057 . S
N191 C189 1.316 . S
N191 C190 1.375 . S
N192 C189 1.347 . S
N192 C193 1.373 . S
C193 C190 1.350 . S
C193 N192 1.373 . S
C193 H214 0.931 . S
H194 C189 0.931 . S
H195 C190 0.930 1_655 S
C196 O203 1.259 1_554 S
C196 O204 1.258 . S
N197 Co188 2.057 . S
N197 C198 1.316 . S
N197 C199 1.375 1_655 S
C198 N197 1.316 . S
C198 N200 1.347 . S
C198 H209 0.931 . S
C199 N197 1.375 1_455 S
C199 C201 1.350 . S
C199 H208 0.930 . S
N200 C198 1.347 . S
N200 C201 1.373 1_655 S
C201 C199 1.350 . S
C201 N200 1.373 1_455 S
C201 H215 0.931 . S
C202 O205 1.256 . S
C202 O206 1.255 . S
O203 Co186 2.021 . S
O203 C196 1.259 1_556 S
O204 Co188 2.117 1_455 S
O204 C196 1.258 . S
O205 Co188 2.020 1_455 S
O205 C202 1.256 . S
O206 Co186 2.062 1_554 S
O206 C202 1.255 . S
O207 C187 1.259 . S
O207 Co188 2.021 . S
H208 C199 0.930 . S
H209 C198 0.931 . S
O210 Co186 2.117 1_655 S
O210 C187 1.258 1_556 S
O211 Co186 2.020 . S
O211 C213 1.241 1_456 S
O212 Co188 2.062 . S
O212 C213 1.272 . S
C213 O211 1.241 1_654 S
C213 O212 1.272 . S
H214 C193 0.931 . S
H215 C201 0.931 . S
H216 C224 0.929 . S
H217 C226 0.930 . S
H218 C228 0.930 . S
H219 C231 0.929 . S
H220 C234 0.930 . S
H221 C236 0.960 . S
H222 C236 0.960 . S
H223 C236 0.960 . S
C224 H216 0.929 . S
C224 C225 1.377 . S
C224 C226 1.384 . S
C225 C224 1.377 . S
C225 C231 1.390 . S
C226 H217 0.930 . S
C226 C224 1.384 . S
C226 C227 1.372 . S
C227 C226 1.372 . S
C227 C228 1.400 . S
C227 C232 1.490 . S
C228 H218 0.930 . S
C228 C227 1.400 . S
C228 C231 1.386 . S
H229 C245 0.930 . S
H230 C246 0.931 . S
C231 H219 0.929 . S
C231 C225 1.390 . S
C231 C228 1.386 . S
C232 C227 1.490 . S
C232 C234 1.395 . S
C232 C235 1.403 . S
H233 C239 0.930 . S
C234 H220 0.930 . S
C234 C232 1.395 . S
C234 C237 1.403 . S
C235 C232 1.403 . S
C235 C236 1.524 . S
C235 C239 1.400 . S
C236 H221 0.960 . S
C236 H222 0.960 . S
C236 H223 0.960 . S
C236 C235 1.524 . S
C237 C234 1.403 . S
C237 C238 1.392 . S
C237 C241 1.495 . S
C238 C237 1.392 . S
C238 C239 1.385 . S
C238 C240 1.478 . S
C239 H233 0.930 . S
C239 C235 1.400 . S
C239 C238 1.385 . S
C240 C238 1.478 . S
C240 C242 1.381 . S
C240 C246 1.383 . S
C241 C237 1.495 . S
C241 H247 0.948 1_455 S
C241 H248 0.961 . S
C241 H249 0.960 1_455 S
C242 C240 1.381 . S
C242 C243 1.394 . S
C242 H250 0.930 . S
C243 C242 1.394 . S
C243 C244 1.383 . S
C243 H251 0.930 . S
C244 C243 1.383 . S
C244 C245 1.377 . S
C245 H229 0.930 . S
C245 C244 1.377 . S
C245 C246 1.379 . S
C246 H230 0.931 . S
C246 C240 1.383 . S
C246 C245 1.379 . S
H247 C241 0.948 1_655 S
H248 C241 0.961 . S
H249 C241 0.960 1_655 S
H250 C242 0.930 . S
H251 C243 0.930 . S
H252 C260 0.929 . S
H253 C262 0.930 . S
H254 C264 0.930 . S
H255 C267 0.929 . S
H256 C270 0.930 . S
H257 C272 0.960 . S
H258 C272 0.960 . S
H259 C272 0.960 . S
C260 H252 0.929 . S
C260 C261 1.377 . S
C260 C262 1.384 . S
C261 C260 1.377 . S
C261 C267 1.390 . S
C262 H253 0.930 . S
C262 C260 1.384 . S
C262 C263 1.372 . S
C263 C262 1.372 . S
C263 C264 1.400 . S
C263 C268 1.490 . S
C264 H254 0.930 . S
C264 C263 1.400 . S
C264 C267 1.386 . S
H265 C281 0.930 1_545 S
H266 C282 0.931 . S
C267 H255 0.929 . S
C267 C261 1.390 . S
C267 C264 1.386 . S
C268 C263 1.490 . S
C268 C270 1.395 . S
C268 C271 1.403 . S
H269 C275 0.930 . S
C270 H256 0.930 . S
C270 C268 1.395 . S
C270 C273 1.403 . S
C271 C268 1.403 . S
C271 C272 1.524 . S
C271 C275 1.400 . S
C272 H257 0.960 . S
C272 H258 0.960 . S
C272 H259 0.960 . S
C272 C271 1.524 . S
C273 C270 1.403 . S
C273 C274 1.392 . S
C273 C277 1.495 . S
C274 C273 1.392 . S
C274 C275 1.385 . S
C274 C276 1.478 . S
C275 H269 0.930 . S
C275 C271 1.400 . S
C275 C274 1.385 . S
C276 C274 1.478 . S
C276 C278 1.381 . S
C276 C282 1.383 . S
C277 C273 1.495 . S
C277 H283 0.959 . S
C277 H284 0.961 . S
C277 H285 0.960 . S
C278 C276 1.381 . S
C278 C279 1.394 . S
C278 H286 0.930 . S
C279 C278 1.394 . S
C279 C280 1.383 . S
C279 H287 0.929 . S
C280 C279 1.383 . S
C280 C281 1.377 . S
C281 H265 0.930 1_565 S
C281 C280 1.377 . S
C281 C282 1.379 . S
C282 H266 0.931 . S
C282 C276 1.383 . S
C282 C281 1.379 . S
H283 C277 0.959 . S
H284 C277 0.961 . S
H285 C277 0.960 . S
H286 C278 0.930 . S
H287 C279 0.929 . S
H288 C296 0.929 . S
H289 C298 0.930 . S
H290 C300 0.930 . S
H291 C303 0.929 . S
H292 C306 0.930 . S
H293 C308 0.960 . S
H294 C308 0.960 . S
H295 C308 0.960 . S
C296 H288 0.929 . S
C296 C297 1.377 . S
C296 C298 1.384 . S
C297 C296 1.377 . S
C297 C303 1.390 . S
C298 H289 0.930 . S
C298 C296 1.384 . S
C298 C299 1.372 . S
C299 C298 1.372 . S
C299 C300 1.400 . S
C299 C304 1.490 . S
C300 H290 0.930 . S
C300 C299 1.400 . S
C300 C303 1.386 . S
H301 C317 0.930 . S
H302 C318 0.931 . S
C303 H291 0.929 . S
C303 C297 1.390 . S
C303 C300 1.386 . S
C304 C299 1.490 . S
C304 C306 1.395 . S
C304 C307 1.403 . S
H305 C311 0.930 . S
C306 H292 0.930 . S
C306 C304 1.395 . S
C306 C309 1.403 . S
C307 C304 1.403 . S
C307 C308 1.524 . S
C307 C311 1.400 . S
C308 H293 0.960 . S
C308 H294 0.960 . S
C308 H295 0.960 . S
C308 C307 1.524 . S
C309 C306 1.403 . S
C309 C310 1.392 . S
C309 C313 1.495 . S
C310 C309 1.392 . S
C310 C311 1.385 . S
C310 C312 1.478 . S
C311 H305 0.930 . S
C311 C307 1.400 . S
C311 C310 1.385 . S
C312 C310 1.478 . S
C312 C314 1.381 . S
C312 C318 1.383 . S
C313 C309 1.495 . S
C313 H319 0.959 . S
C313 H320 0.961 . S
C313 H321 0.960 . S
C314 C312 1.381 . S
C314 C315 1.394 . S
C314 H322 0.930 . S
C315 C314 1.394 . S
C315 C316 1.383 . S
C315 H323 0.929 . S
C316 C315 1.383 . S
C316 C317 1.377 . S
C317 H301 0.930 . S
C317 C316 1.377 . S
C317 C318 1.379 . S
C318 H302 0.931 . S
C318 C312 1.383 . S
C318 C317 1.379 . S
H319 C313 0.959 . S
H320 C313 0.961 . S
H321 C313 0.960 . S
H322 C314 0.930 . S
H323 C315 0.929 . S
H324 C332 0.929 . S
H325 C334 0.930 . S
H326 C336 0.930 . S
H327 C339 0.929 . S
H328 C342 0.930 . S
H329 C344 0.960 . S
H330 C344 0.960 . S
H331 C344 0.960 . S
C332 H324 0.929 . S
C332 C333 1.377 . S
C332 C334 1.384 . S
C333 C332 1.377 . S
C333 C339 1.390 . S
C334 H325 0.930 . S
C334 C332 1.384 . S
C334 C335 1.372 . S
C335 C334 1.372 . S
C335 C336 1.400 . S
C335 C340 1.490 . S
C336 H326 0.930 . S
C336 C335 1.400 . S
C336 C339 1.386 . S
H337 C353 0.938 . S
H338 C354 0.931 . S
C339 H327 0.929 . S
C339 C333 1.390 . S
C339 C336 1.386 . S
C340 C335 1.490 . S
C340 C342 1.395 . S
C340 C343 1.403 . S
H341 C347 0.930 . S
C342 H328 0.930 . S
C342 C340 1.395 . S
C342 C345 1.403 . S
C343 C340 1.403 . S
C343 C344 1.524 . S
C343 C347 1.400 . S
C344 H329 0.960 . S
C344 H330 0.960 . S
C344 H331 0.960 . S
C344 C343 1.524 . S
C345 C342 1.403 . S
C345 C346 1.392 . S
C345 C349 1.495 . S
C346 C345 1.392 . S
C346 C347 1.385 . S
C346 C348 1.478 . S
C347 H341 0.930 . S
C347 C343 1.400 . S
C347 C346 1.385 . S
C348 C346 1.478 . S
C348 C350 1.381 . S
C348 C354 1.383 . S
C349 C345 1.495 . S
C349 H355 0.959 . S
C349 H356 0.961 . S
C349 H357 0.960 . S
C350 C348 1.381 . S
C350 C351 1.394 . S
C350 H358 0.930 . S
C351 C350 1.394 . S
C351 C352 1.383 . S
C351 H359 0.929 . S
C352 C351 1.383 . S
C352 C353 1.377 . S
C353 H337 0.938 . S
C353 C352 1.377 . S
C353 C354 1.379 . S
C354 H338 0.931 . S
C354 C348 1.383 . S
C354 C353 1.379 . S
H355 C349 0.959 . S
H356 C349 0.961 . S
H357 C349 0.960 . S
H358 C350 0.930 . S
H359 C351 0.929 . S
H360 C368 0.929 . S
H361 C370 0.930 . S
H362 C372 0.930 . S
H363 C375 0.929 . S
H364 C378 0.930 . S
H365 C380 0.960 . S
H366 C380 0.960 . S
H367 C380 0.960 . S
C368 H360 0.929 . S
C368 C369 1.377 . S
C368 C370 1.384 . S
C369 C368 1.377 . S
C369 C375 1.390 . S
C370 H361 0.930 . S
C370 C368 1.384 . S
C370 C371 1.372 . S
C371 C370 1.372 . S
C371 C372 1.400 . S
C371 C376 1.490 . S
C372 H362 0.930 . S
C372 C371 1.400 . S
C372 C375 1.386 . S
H373 C389 0.930 . S
H374 C390 0.931 . S
C375 H363 0.929 . S
C375 C369 1.390 . S
C375 C372 1.386 . S
C376 C371 1.490 . S
C376 C378 1.395 . S
C376 C379 1.403 . S
H377 C383 0.930 . S
C378 H364 0.930 . S
C378 C376 1.395 . S
C378 C381 1.403 . S
C379 C376 1.403 . S
C379 C380 1.524 . S
C379 C383 1.400 . S
C380 H365 0.960 . S
C380 H366 0.960 . S
C380 H367 0.960 . S
C380 C379 1.524 . S
C381 C378 1.403 . S
C381 C382 1.392 . S
C381 C385 1.495 . S
C382 C381 1.392 . S
C382 C383 1.385 . S
C382 C384 1.478 . S
C383 H377 0.930 . S
C383 C379 1.400 . S
C383 C382 1.385 . S
C384 C382 1.478 . S
C384 C386 1.381 . S
C384 C390 1.383 . S
C385 C381 1.495 . S
C385 H391 0.959 . S
C385 H392 0.961 . S
C385 H393 0.960 . S
C386 C384 1.381 . S
C386 C387 1.394 . S
C386 H394 0.930 . S
C387 C386 1.394 . S
C387 C388 1.383 . S
C387 H395 0.936 . S
C388 C387 1.383 . S
C388 C389 1.377 . S
C389 H373 0.930 . S
C389 C388 1.377 . S
C389 C390 1.379 . S
C390 H374 0.931 . S
C390 C384 1.383 . S
C390 C389 1.379 . S
H391 C385 0.959 . S
H392 C385 0.961 . S
H393 C385 0.960 . S
H394 C386 0.930 . S
H395 C387 0.936 . S
H396 C404 0.929 . S
H397 C406 0.930 . S
H398 C408 0.930 . S
H399 C411 0.929 . S
H400 C414 0.930 . S
H401 C416 0.960 . S
H402 C416 0.960 . S
H403 C416 0.960 . S
C404 H396 0.929 . S
C404 C405 1.377 . S
C404 C406 1.384 . S
C405 C404 1.377 . S
C405 C411 1.390 . S
C406 H397 0.930 . S
C406 C404 1.384 . S
C406 C407 1.372 . S
C407 C406 1.372 . S
C407 C408 1.400 . S
C407 C412 1.490 . S
C408 H398 0.930 . S
C408 C407 1.400 . S
C408 C411 1.386 . S
H409 C425 0.930 1_545 S
H410 C426 0.931 . S
C411 H399 0.929 . S
C411 C405 1.390 . S
C411 C408 1.386 . S
C412 C407 1.490 . S
C412 C414 1.395 . S
C412 C415 1.403 . S
H413 C419 0.930 . S
C414 H400 0.930 . S
C414 C412 1.395 . S
C414 C417 1.403 . S
C415 C412 1.403 . S
C415 C416 1.524 . S
C415 C419 1.400 . S
C416 H401 0.960 . S
C416 H402 0.960 . S
C416 H403 0.960 . S
C416 C415 1.524 . S
C417 C414 1.403 . S
C417 C418 1.392 . S
C417 C421 1.495 . S
C418 C417 1.392 . S
C418 C419 1.385 . S
C418 C420 1.478 . S
C419 H413 0.930 . S
C419 C415 1.400 . S
C419 C418 1.385 . S
C420 C418 1.478 . S
C420 C422 1.381 . S
C420 C426 1.383 . S
C421 C417 1.495 . S
C421 H427 0.959 . S
C421 H428 0.961 . S
C421 H429 0.960 . S
C422 C420 1.381 . S
C422 C423 1.394 . S
C422 H430 0.930 . S
C423 C422 1.394 . S
C423 C424 1.383 . S
C423 H431 0.929 . S
C424 C423 1.383 . S
C424 C425 1.377 . S
C425 H409 0.930 1_565 S
C425 C424 1.377 . S
C425 C426 1.379 . S
C426 H410 0.931 . S
C426 C420 1.383 . S
C426 C425 1.379 . S
H427 C421 0.959 . S
H428 C421 0.961 . S
H429 C421 0.960 . S
H430 C422 0.930 . S
H431 C423 0.929 . S
H432 C440 0.929 . S
H433 C442 0.930 . S
H434 C444 0.930 . S
H435 C447 0.929 . S
H436 C450 0.930 . S
H437 C452 0.960 . S
H438 C452 0.960 . S
H439 C452 0.960 . S
C440 H432 0.929 . S
C440 C441 1.377 . S
C440 C442 1.384 . S
C441 C440 1.377 . S
C441 C447 1.390 . S
C442 H433 0.930 . S
C442 C440 1.384 . S
C442 C443 1.372 . S
C443 C442 1.372 . S
C443 C444 1.400 . S
C443 C448 1.490 . S
C444 H434 0.930 . S
C444 C443 1.400 . S
C444 C447 1.386 . S
H445 C461 0.930 . S
H446 C462 0.931 . S
C447 H435 0.929 . S
C447 C441 1.390 . S
C447 C444 1.386 . S
C448 C443 1.490 . S
C448 C450 1.395 . S
C448 C451 1.403 . S
H449 C455 0.930 . S
C450 H436 0.930 . S
C450 C448 1.395 . S
C450 C453 1.403 . S
C451 C448 1.403 . S
C451 C452 1.524 . S
C451 C455 1.400 . S
C452 H437 0.960 . S
C452 H438 0.960 . S
C452 H439 0.960 . S
C452 C451 1.524 . S
C453 C450 1.403 . S
C453 C454 1.392 . S
C453 C457 1.495 1_556 S
C454 C453 1.392 . S
C454 C455 1.385 . S
C454 C456 1.478 . S
C455 H449 0.930 . S
C455 C451 1.400 . S
C455 C454 1.385 . S
C456 C454 1.478 . S
C456 C458 1.383 . S
C456 C462 1.383 . S
C457 C453 1.495 1_554 S
C457 H463 0.959 . S
C457 H464 0.961 . S
C457 H465 0.960 . S
C458 C456 1.383 . S
C458 C459 1.394 1_556 S
C458 H466 0.929 1_556 S
C459 C458 1.394 1_554 S
C459 C460 1.383 1_554 S
C459 H467 0.929 . S
C460 C459 1.383 1_556 S
C460 C461 1.377 . S
C461 H445 0.930 . S
C461 C460 1.377 . S
C461 C462 1.379 . S
C462 H446 0.931 . S
C462 C456 1.383 . S
C462 C461 1.379 . S
H463 C457 0.959 . S
H464 C457 0.961 . S
H465 C457 0.960 . S
H466 C458 0.929 1_554 S
H467 C459 0.929 . S
H468 C476 0.929 . S
H469 C478 0.930 . S
H470 C480 0.930 . S
H471 C483 0.929 . S
H472 C486 0.930 . S
H473 C488 0.960 . S
H474 C488 0.960 . S
H475 C488 0.960 . S
C476 H468 0.929 . S
C476 C477 1.377 . S
C476 C478 1.384 . S
C477 C476 1.377 . S
C477 C483 1.390 . S
C478 H469 0.930 . S
C478 C476 1.384 . S
C478 C479 1.372 . S
C479 C478 1.372 . S
C479 C480 1.400 . S
C479 C484 1.490 . S
C480 H470 0.930 . S
C480 C479 1.400 . S
C480 C483 1.386 . S
H481 C497 0.930 . S
H482 C498 0.931 . S
C483 H471 0.929 . S
C483 C477 1.390 . S
C483 C480 1.386 . S
C484 C479 1.490 . S
C484 C486 1.395 . S
C484 C487 1.403 . S
H485 C491 0.930 . S
C486 H472 0.930 . S
C486 C484 1.395 . S
C486 C489 1.403 . S
C487 C484 1.403 . S
C487 C488 1.524 . S
C487 C491 1.400 . S
C488 H473 0.960 . S
C488 H474 0.960 . S
C488 H475 0.960 . S
C488 C487 1.524 . S
C489 C486 1.403 . S
C489 C490 1.392 . S
C489 C493 1.495 . S
C490 C489 1.392 . S
C490 C491 1.385 . S
C490 C492 1.478 . S
C491 H485 0.930 . S
C491 C487 1.400 . S
C491 C490 1.385 . S
C492 C490 1.478 . S
C492 C494 1.381 . S
C492 C498 1.383 . S
C493 C489 1.495 . S
C493 H499 0.959 . S
C493 H500 0.961 . S
C493 H501 0.960 . S
C494 C492 1.381 . S
C494 C495 1.394 . S
C494 H502 0.930 . S
C495 C494 1.394 . S
C495 C496 1.383 . S
C495 H503 0.929 . S
C496 C495 1.383 . S
C496 C497 1.377 . S
C497 H481 0.930 . S
C497 C496 1.377 . S
C497 C498 1.379 . S
C498 H482 0.931 . S
C498 C492 1.383 . S
C498 C497 1.379 . S
H499 C493 0.959 . S
H500 C493 0.961 . S
H501 C493 0.960 . S
H502 C494 0.930 . S
H503 C495 0.929 . S
H504 C512 0.929 . S
H505 C514 0.930 . S
H506 C516 0.930 . S
H507 C519 0.929 . S
H508 C522 0.930 . S
H509 C524 0.959 1_655 S
H510 C524 0.960 . S
H511 C524 0.960 . S
C512 H504 0.929 . S
C512 C513 1.377 . S
C512 C514 1.384 . S
C513 C512 1.377 . S
C513 C519 1.390 . S
C514 H505 0.930 . S
C514 C512 1.384 . S
C514 C515 1.372 . S
C515 C514 1.372 . S
C515 C516 1.400 . S
C515 C520 1.490 . S
C516 H506 0.930 . S
C516 C515 1.400 . S
C516 C519 1.386 . S
H517 C533 0.930 . S
H518 C534 0.931 . S
C519 H507 0.929 . S
C519 C513 1.390 . S
C519 C516 1.386 . S
C520 C515 1.490 . S
C520 C522 1.395 . S
C520 C523 1.403 . S
H521 C527 0.930 . S
C522 H508 0.930 . S
C522 C520 1.395 . S
C522 C525 1.403 . S
C523 C520 1.403 . S
C523 C524 1.524 . S
C523 C527 1.400 . S
C524 H509 0.959 1_455 S
C524 H510 0.960 . S
C524 H511 0.960 . S
C524 C523 1.524 . S
C525 C522 1.403 . S
C525 C526 1.392 . S
C525 C529 1.495 . S
C526 C525 1.392 . S
C526 C527 1.385 . S
C526 C528 1.478 . S
C527 H521 0.930 . S
C527 C523 1.400 . S
C527 C526 1.385 . S
C528 C526 1.478 . S
C528 C530 1.381 . S
C528 C534 1.383 . S
C529 C525 1.495 . S
C529 H535 0.959 . S
C529 H536 0.961 . S
C529 H537 0.960 . S
C530 C528 1.381 . S
C530 C531 1.394 . S
C530 H538 0.930 . S
C531 C530 1.394 . S
C531 C532 1.383 . S
C531 H539 0.929 . S
C532 C531 1.383 . S
C532 C533 1.377 . S
C533 H517 0.930 . S
C533 C532 1.377 . S
C533 C534 1.379 . S
C534 H518 0.931 . S
C534 C528 1.383 . S
C534 C533 1.379 . S
H535 C529 0.959 . S
H536 C529 0.961 . S
H537 C529 0.960 . S
H538 C530 0.930 . S
H539 C531 0.929 . S
H540 C548 0.929 . S
H541 C550 0.930 . S
H542 C552 0.930 . S
H543 C555 0.929 . S
H544 C558 0.930 . S
H545 C560 0.960 . S
H546 C560 0.960 . S
H547 C560 0.960 . S
C548 H540 0.929 . S
C548 C549 1.377 . S
C548 C550 1.384 . S
C549 C548 1.377 . S
C549 C555 1.390 . S
C550 H541 0.930 . S
C550 C548 1.384 . S
C550 C551 1.372 . S
C551 C550 1.372 . S
C551 C552 1.400 . S
C551 C556 1.490 . S
C552 H542 0.930 . S
C552 C551 1.400 . S
C552 C555 1.386 . S
H553 C569 0.930 . S
H554 C570 0.931 . S
C555 H543 0.929 . S
C555 C549 1.390 . S
C555 C552 1.386 . S
C556 C551 1.490 . S
C556 C558 1.395 . S
C556 C559 1.403 . S
H557 C563 0.930 . S
C558 H544 0.930 . S
C558 C556 1.395 . S
C558 C561 1.403 . S
C559 C556 1.403 . S
C559 C560 1.524 . S
C559 C563 1.400 . S
C560 H545 0.960 . S
C560 H546 0.960 . S
C560 H547 0.960 . S
C560 C559 1.524 . S
C561 C558 1.403 . S
C561 C562 1.392 . S
C561 C565 1.495 . S
C562 C561 1.392 . S
C562 C563 1.385 . S
C562 C564 1.478 . S
C563 H557 0.930 . S
C563 C559 1.400 . S
C563 C562 1.385 . S
C564 C562 1.478 . S
C564 C566 1.381 . S
C564 C570 1.383 . S
C565 C561 1.495 . S
C565 H571 0.959 . S
C565 H572 0.961 . S
C565 H573 0.960 . S
C566 C564 1.381 . S
C566 C567 1.394 1_556 S
C566 H574 0.930 1_556 S
C567 C566 1.394 1_554 S
C567 C568 1.383 1_554 S
C567 H575 0.929 . S
C568 C567 1.383 1_556 S
C568 C569 1.377 . S
C569 H553 0.930 . S
C569 C568 1.377 . S
C569 C570 1.379 . S
C570 H554 0.931 . S
C570 C564 1.383 . S
C570 C569 1.379 . S
H571 C565 0.959 . S
H572 C565 0.961 . S
H573 C565 0.960 . S
H574 C566 0.930 1_554 S
H575 C567 0.929 . S
H576 C584 0.929 . S
H577 C586 0.930 . S
H578 C588 0.930 . S
H579 C591 0.929 . S
H580 C594 0.930 . S
H581 C596 0.960 . S
H582 C596 0.960 . S
H583 C596 0.960 . S
C584 H576 0.929 . S
C584 C585 1.377 . S
C584 C586 1.384 . S
C585 C584 1.377 . S
C585 C591 1.390 . S
C586 H577 0.930 . S
C586 C584 1.384 . S
C586 C587 1.372 . S
C587 C586 1.372 . S
C587 C588 1.400 . S
C587 C592 1.490 . S
C588 H578 0.930 . S
C588 C587 1.400 . S
C588 C591 1.386 . S
H589 C605 0.930 1_455 S
H590 C606 0.931 1_455 S
C591 H579 0.929 . S
C591 C585 1.390 . S
C591 C588 1.386 . S
C592 C587 1.490 . S
C592 C594 1.395 . S
C592 C595 1.403 . S
H593 C599 0.930 . S
C594 H580 0.930 . S
C594 C592 1.395 . S
C594 C597 1.403 . S
C595 C592 1.403 . S
C595 C596 1.524 . S
C595 C599 1.400 . S
C596 H581 0.960 . S
C596 H582 0.960 . S
C596 H583 0.960 . S
C596 C595 1.524 . S
C597 C594 1.403 . S
C597 C598 1.392 . S
C597 C601 1.495 . S
C598 C597 1.392 . S
C598 C599 1.385 . S
C598 C600 1.478 . S
C599 H593 0.930 . S
C599 C595 1.400 . S
C599 C598 1.385 . S
C600 C598 1.478 . S
C600 C602 1.381 . S
C600 C606 1.383 . S
C601 C597 1.495 . S
C601 H607 0.959 . S
C601 H608 0.961 . S
C601 H609 0.960 . S
C602 C600 1.381 . S
C602 C603 1.394 . S
C602 H610 0.930 . S
C603 C602 1.394 . S
C603 C604 1.383 . S
C603 H611 0.929 . S
C604 C603 1.383 . S
C604 C605 1.377 . S
C605 H589 0.930 1_655 S
C605 C604 1.377 . S
C605 C606 1.379 . S
C606 H590 0.931 1_655 S
C606 C600 1.383 . S
C606 C605 1.379 . S
H607 C601 0.959 . S
H608 C601 0.961 . S
H609 C601 0.960 . S
H610 C602 0.930 . S
H611 C603 0.929 . S
H612 C620 0.929 . S
H613 C622 0.930 . S
H614 C624 0.930 . S
H615 C627 0.929 . S
H616 C630 0.930 . S
H617 C632 0.960 . S
H618 C632 0.960 . S
H619 C632 0.960 . S
C620 H612 0.929 . S
C620 C621 1.377 . S
C620 C622 1.384 . S
C621 C620 1.377 . S
C621 C627 1.390 . S
C622 H613 0.930 . S
C622 C620 1.384 . S
C622 C623 1.372 . S
C623 C622 1.372 . S
C623 C624 1.400 . S
C623 C628 1.490 . S
C624 H614 0.930 . S
C624 C623 1.400 . S
C624 C627 1.386 . S
H625 C641 0.930 . S
H626 C642 0.931 . S
C627 H615 0.929 . S
C627 C621 1.390 . S
C627 C624 1.386 . S
C628 C623 1.490 . S
C628 C630 1.395 . S
C628 C631 1.403 . S
H629 C635 0.930 . S
C630 H616 0.930 . S
C630 C628 1.395 . S
C630 C633 1.403 . S
C631 C628 1.403 . S
C631 C632 1.524 . S
C631 C635 1.400 . S
C632 H617 0.960 . S
C632 H618 0.960 . S
C632 H619 0.960 . S
C632 C631 1.524 . S
C633 C630 1.403 . S
C633 C634 1.392 . S
C633 C637 1.495 . S
C634 C633 1.392 . S
C634 C635 1.385 . S
C634 C636 1.478 . S
C635 H629 0.930 . S
C635 C631 1.400 . S
C635 C634 1.385 . S
C636 C634 1.478 . S
C636 C638 1.381 . S
C636 C642 1.383 . S
C637 C633 1.495 . S
C637 H643 0.959 . S
C637 H644 0.961 . S
C637 H645 0.960 . S
C638 C636 1.381 . S
C638 C639 1.394 . S
C638 H646 0.930 . S
C639 C638 1.394 . S
C639 C640 1.383 . S
C639 H647 0.929 . S
C640 C639 1.383 . S
C640 C641 1.377 . S
C641 H625 0.930 . S
C641 C640 1.377 . S
C641 C642 1.379 . S
C642 H626 0.931 . S
C642 C636 1.383 . S
C642 C641 1.379 . S
H643 C637 0.959 . S
H644 C637 0.961 . S
H645 C637 0.960 . S
H646 C638 0.930 . S
H647 C639 0.929 . S
H648 C656 0.929 . S
H649 C658 0.930 . S
H650 C660 0.930 . S
H651 C663 0.929 . S
H652 C666 0.930 . S
H653 C668 0.960 . S
H654 C668 0.960 . S
H655 C668 0.960 . S
C656 H648 0.929 . S
C656 C657 1.377 . S
C656 C658 1.384 . S
C657 C656 1.377 . S
C657 C663 1.390 . S
C658 H649 0.930 . S
C658 C656 1.384 . S
C658 C659 1.372 . S
C659 C658 1.372 . S
C659 C660 1.400 . S
C659 C664 1.490 . S
C660 H650 0.930 . S
C660 C659 1.400 . S
C660 C663 1.386 . S
H661 C677 0.930 . S
H662 C678 0.931 . S
C663 H651 0.929 . S
C663 C657 1.390 . S
C663 C660 1.386 . S
C664 C659 1.490 . S
C664 C666 1.395 . S
C664 C667 1.403 . S
H665 C671 0.930 . S
C666 H652 0.930 . S
C666 C664 1.395 . S
C666 C669 1.403 . S
C667 C664 1.403 . S
C667 C668 1.524 . S
C667 C671 1.400 . S
C668 H653 0.960 . S
C668 H654 0.960 . S
C668 H655 0.960 . S
C668 C667 1.524 . S
C669 C666 1.403 . S
C669 C670 1.392 . S
C669 C673 1.495 1_565 S
C670 C669 1.392 . S
C670 C671 1.385 . S
C670 C672 1.478 . S
C671 H665 0.930 . S
C671 C667 1.400 . S
C671 C670 1.385 . S
C672 C670 1.478 . S
C672 C674 1.381 . S
C672 C678 1.383 . S
C673 C669 1.495 1_545 S
C673 H679 0.959 . S
C673 H680 0.961 . S
C673 H681 0.960 . S
C674 C672 1.381 . S
C674 C675 1.394 . S
C674 H682 0.930 1_565 S
C675 C674 1.394 . S
C675 C676 1.383 . S
C675 H683 0.929 1_565 S
C676 C675 1.383 . S
C676 C677 1.377 . S
C677 H661 0.930 . S
C677 C676 1.377 . S
C677 C678 1.379 . S
C678 H662 0.931 . S
C678 C672 1.383 . S
C678 C677 1.379 . S
H679 C673 0.959 . S
H680 C673 0.961 . S
H681 C673 0.960 . S
H682 C674 0.930 1_545 S
H683 C675 0.929 1_545 S
H684 C692 0.929 . S
H685 C694 0.930 . S
H686 C696 0.930 . S
H687 C699 0.929 . S
H688 C702 0.930 . S
H689 C704 0.960 . S
H690 C704 0.960 . S
H691 C704 0.960 . S
C692 H684 0.929 . S
C692 C693 1.377 . S
C692 C694 1.384 . S
C693 C692 1.377 . S
C693 C699 1.390 . S
C694 H685 0.930 . S
C694 C692 1.384 . S
C694 C695 1.372 . S
C695 C694 1.372 . S
C695 C696 1.400 . S
C695 C700 1.490 . S
C696 H686 0.930 . S
C696 C695 1.400 . S
C696 C699 1.386 . S
H697 C713 0.930 . S
H698 C714 0.931 . S
C699 H687 0.929 . S
C699 C693 1.390 . S
C699 C696 1.386 . S
C700 C695 1.490 . S
C700 C702 1.395 . S
C700 C703 1.403 . S
H701 C707 0.930 . S
C702 H688 0.930 . S
C702 C700 1.395 . S
C702 C705 1.403 . S
C703 C700 1.403 . S
C703 C704 1.524 . S
C703 C707 1.400 . S
C704 H689 0.960 . S
C704 H690 0.960 . S
C704 H691 0.960 . S
C704 C703 1.524 . S
C705 C702 1.403 . S
C705 C706 1.392 . S
C705 C709 1.495 . S
C706 C705 1.392 . S
C706 C707 1.385 . S
C706 C708 1.478 . S
C707 H701 0.930 . S
C707 C703 1.400 . S
C707 C706 1.385 . S
C708 C706 1.478 . S
C708 C710 1.381 . S
C708 C714 1.383 . S
C709 C705 1.495 . S
C709 H715 0.959 . S
C709 H716 0.961 . S
C709 H717 0.960 . S
C710 C708 1.381 . S
C710 C711 1.394 . S
C710 H718 0.930 . S
C711 C710 1.394 . S
C711 C712 1.383 . S
C711 H719 0.929 . S
C712 C711 1.383 . S
C712 C713 1.377 . S
C713 H697 0.930 . S
C713 C712 1.377 . S
C713 C714 1.379 . S
C714 H698 0.931 . S
C714 C708 1.383 . S
C714 C713 1.379 . S
H715 C709 0.959 . S
H716 C709 0.961 . S
H717 C709 0.960 . S
H718 C710 0.930 . S
H719 C711 0.929 . S
H720 C728 0.929 . S
H721 C730 0.930 . S
H722 C732 0.930 . S
H723 C735 0.929 . S
H724 C738 0.930 . S
H725 C740 0.960 . S
H726 C740 0.960 . S
H727 C740 0.960 . S
C728 H720 0.929 . S
C728 C729 1.377 . S
C728 C730 1.384 . S
C729 C728 1.377 . S
C729 C735 1.390 . S
C730 H721 0.930 . S
C730 C728 1.384 . S
C730 C731 1.372 . S
C731 C730 1.372 . S
C731 C732 1.400 . S
C731 C736 1.490 . S
C732 H722 0.930 . S
C732 C731 1.400 . S
C732 C735 1.386 . S
H733 C749 0.930 . S
H734 C750 0.931 . S
C735 H723 0.929 . S
C735 C729 1.390 . S
C735 C732 1.386 . S
C736 C731 1.490 . S
C736 C738 1.395 . S
C736 C739 1.403 . S
H737 C743 0.930 . S
C738 H724 0.930 . S
C738 C736 1.395 . S
C738 C741 1.403 . S
C739 C736 1.403 . S
C739 C740 1.524 . S
C739 C743 1.400 . S
C740 H725 0.960 . S
C740 H726 0.960 . S
C740 H727 0.960 . S
C740 C739 1.524 . S
C741 C738 1.403 . S
C741 C742 1.392 . S
C741 C745 1.495 . S
C742 C741 1.392 . S
C742 C743 1.385 . S
C742 C744 1.478 . S
C743 H737 0.930 . S
C743 C739 1.400 . S
C743 C742 1.385 . S
C744 C742 1.478 . S
C744 C746 1.381 . S
C744 C750 1.383 . S
C745 C741 1.495 . S
C745 H751 0.959 . S
C745 H752 0.961 . S
C745 H753 0.960 . S
C746 C744 1.381 . S
C746 C747 1.394 . S
C746 H754 0.930 . S
C747 C746 1.394 . S
C747 C748 1.383 . S
C747 H755 0.929 . S
C748 C747 1.383 . S
C748 C749 1.377 . S
C749 H733 0.930 . S
C749 C748 1.377 . S
C749 C750 1.379 . S
C750 H734 0.931 . S
C750 C744 1.383 . S
C750 C749 1.379 . S
H751 C745 0.959 . S
H752 C745 0.961 . S
H753 C745 0.960 . S
H754 C746 0.930 . S
H755 C747 0.929 . S
H756 C764 0.929 . S
H757 C766 0.930 . S
H758 C768 0.930 . S
H759 C771 0.929 . S
H760 C774 0.930 . S
H761 C776 0.960 . S
H762 C776 0.960 . S
H763 C776 0.960 . S
C764 H756 0.929 . S
C764 C765 1.377 . S
C764 C766 1.384 . S
C765 C764 1.377 . S
C765 C771 1.390 . S
C766 H757 0.930 . S
C766 C764 1.384 . S
C766 C767 1.372 . S
C767 C766 1.372 . S
C767 C768 1.400 . S
C767 C772 1.490 . S
C768 H758 0.930 . S
C768 C767 1.400 . S
C768 C771 1.386 . S
H769 C785 0.930 . S
H770 C786 0.931 . S
C771 H759 0.929 . S
C771 C765 1.390 . S
C771 C768 1.386 . S
C772 C767 1.490 . S
C772 C774 1.395 . S
C772 C775 1.403 . S
H773 C779 0.930 . S
C774 H760 0.930 . S
C774 C772 1.395 . S
C774 C777 1.403 . S
C775 C772 1.403 . S
C775 C776 1.524 . S
C775 C779 1.400 . S
C776 H761 0.960 . S
C776 H762 0.960 . S
C776 H763 0.960 . S
C776 C775 1.524 . S
C777 C774 1.403 . S
C777 C778 1.392 . S
C777 C781 1.495 . S
C778 C777 1.392 . S
C778 C779 1.385 . S
C778 C780 1.478 . S
C779 H773 0.930 . S
C779 C775 1.400 . S
C779 C778 1.385 . S
C780 C778 1.478 . S
C780 C782 1.381 . S
C780 C786 1.383 . S
C781 C777 1.495 . S
C781 H787 0.959 . S
C781 H788 0.961 . S
C781 H789 0.960 . S
C782 C780 1.381 . S
C782 C783 1.394 . S
C782 H790 0.930 . S
C783 C782 1.394 . S
C783 C784 1.383 . S
C783 H791 0.929 . S
C784 C783 1.383 . S
C784 C785 1.377 . S
C785 H769 0.930 . S
C785 C784 1.377 . S
C785 C786 1.379 . S
C786 H770 0.931 . S
C786 C780 1.383 . S
C786 C785 1.379 . S
H787 C781 0.959 . S
H788 C781 0.961 . S
H789 C781 0.960 . S
H790 C782 0.930 . S
H791 C783 0.929 . S
H792 C800 0.929 . S
H793 C802 0.930 . S
H794 C804 0.930 . S
H795 C807 0.929 . S
H796 C810 0.930 . S
H797 C812 0.960 . S
H798 C812 0.960 . S
H799 C812 0.960 . S
C800 H792 0.929 . S
C800 C801 1.377 . S
C800 C802 1.384 . S
C801 C800 1.377 . S
C801 C807 1.390 . S
C802 H793 0.930 . S
C802 C800 1.384 . S
C802 C803 1.372 . S
C803 C802 1.372 . S
C803 C804 1.400 . S
C803 C808 1.490 . S
C804 H794 0.930 . S
C804 C803 1.400 . S
C804 C807 1.386 . S
H805 C821 0.930 . S
H806 C822 0.931 . S
C807 H795 0.929 . S
C807 C801 1.390 . S
C807 C804 1.386 . S
C808 C803 1.490 . S
C808 C810 1.395 . S
C808 C811 1.403 . S
H809 C815 0.930 . S
C810 H796 0.930 . S
C810 C808 1.395 . S
C810 C813 1.403 . S
C811 C808 1.403 . S
C811 C812 1.524 . S
C811 C815 1.400 . S
C812 H797 0.960 . S
C812 H798 0.960 . S
C812 H799 0.960 . S
C812 C811 1.524 . S
C813 C810 1.403 . S
C813 C814 1.392 . S
C813 C817 1.495 1_565 S
C814 C813 1.392 . S
C814 C815 1.385 . S
C814 C816 1.478 . S
C815 H809 0.930 . S
C815 C811 1.400 . S
C815 C814 1.385 . S
C816 C814 1.478 . S
C816 C818 1.381 . S
C816 C822 1.383 . S
C817 C813 1.495 1_545 S
C817 H823 0.959 . S
C817 H824 0.961 . S
C817 H825 0.960 . S
C818 C816 1.381 . S
C818 C819 1.394 1_556 S
C818 H826 0.930 1_556 S
C819 C818 1.394 1_554 S
C819 C820 1.383 1_554 S
C819 H827 0.929 . S
C820 C819 1.383 1_556 S
C820 C821 1.377 . S
C821 H805 0.930 . S
C821 C820 1.377 . S
C821 C822 1.379 . S
C822 H806 0.931 . S
C822 C816 1.383 . S
C822 C821 1.379 . S
H823 C817 0.959 . S
H824 C817 0.961 . S
H825 C817 0.960 . S
H826 C818 0.930 1_554 S
H827 C819 0.929 . S
H828 C836 0.929 . S
H829 C838 0.930 . S
H830 C840 0.930 . S
H831 C843 0.929 . S
H832 C846 0.930 . S
H833 C848 0.960 . S
H834 C848 0.960 . S
H835 C848 0.960 . S
C836 H828 0.929 . S
C836 C837 1.377 . S
C836 C838 1.384 . S
C837 C836 1.377 . S
C837 C843 1.390 . S
C838 H829 0.930 . S
C838 C836 1.384 . S
C838 C839 1.372 . S
C839 C838 1.372 . S
C839 C840 1.400 . S
C839 C844 1.490 . S
C840 H830 0.930 . S
C840 C839 1.400 . S
C840 C843 1.386 . S
H841 C857 0.930 . S
H842 C858 0.931 . S
C843 H831 0.929 . S
C843 C837 1.390 . S
C843 C840 1.386 . S
C844 C839 1.490 . S
C844 C846 1.395 . S
C844 C847 1.403 . S
H845 C851 0.930 . S
C846 H832 0.930 . S
C846 C844 1.395 . S
C846 C849 1.403 . S
C847 C844 1.403 . S
C847 C848 1.524 . S
C847 C851 1.400 . S
C848 H833 0.960 . S
C848 H834 0.960 . S
C848 H835 0.960 . S
C848 C847 1.524 . S
C849 C846 1.403 . S
C849 C850 1.392 . S
C849 C853 1.495 . S
C850 C849 1.392 . S
C850 C851 1.385 . S
C850 C852 1.478 . S
C851 H845 0.930 . S
C851 C847 1.400 . S
C851 C850 1.385 . S
C852 C850 1.478 . S
C852 C854 1.381 . S
C852 C858 1.383 . S
C853 C849 1.495 . S
C853 H859 0.959 . S
C853 H860 0.961 . S
C853 H861 0.960 . S
C854 C852 1.381 . S
C854 C855 1.394 . S
C854 H862 0.930 . S
C855 C854 1.394 . S
C855 C856 1.383 . S
C855 H863 0.929 . S
C856 C855 1.383 . S
C856 C857 1.377 . S
C857 H841 0.930 . S
C857 C856 1.377 . S
C857 C858 1.379 . S
C858 H842 0.931 . S
C858 C852 1.383 . S
C858 C857 1.379 . S
H859 C853 0.959 . S
H860 C853 0.961 . S
H861 C853 0.960 . S
H862 C854 0.930 . S
H863 C855 0.929 . S
H864 C872 0.929 . S
H865 C874 0.930 . S
H866 C876 0.930 . S
H867 C879 0.929 . S
H868 C882 0.930 . S
H869 C884 0.960 . S
H870 C884 0.960 . S
H871 C884 0.960 . S
C872 H864 0.929 . S
C872 C873 1.377 . S
C872 C874 1.384 . S
C873 C872 1.377 . S
C873 C879 1.390 . S
C874 H865 0.930 . S
C874 C872 1.384 . S
C874 C875 1.372 . S
C875 C874 1.372 . S
C875 C876 1.400 . S
C875 C880 1.490 . S
C876 H866 0.930 . S
C876 C875 1.400 . S
C876 C879 1.386 . S
H877 C893 0.930 . S
H878 C894 0.931 . S
C879 H867 0.929 . S
C879 C873 1.390 . S
C879 C876 1.386 . S
C880 C875 1.490 . S
C880 C882 1.395 . S
C880 C883 1.403 . S
H881 C887 0.930 . S
C882 H868 0.930 . S
C882 C880 1.395 . S
C882 C885 1.403 . S
C883 C880 1.403 . S
C883 C884 1.524 . S
C883 C887 1.400 . S
C884 H869 0.960 . S
C884 H870 0.960 . S
C884 H871 0.960 . S
C884 C883 1.524 . S
C885 C882 1.403 . S
C885 C886 1.392 . S
C885 C889 1.495 . S
C886 C885 1.392 . S
C886 C887 1.385 . S
C886 C888 1.478 . S
C887 H881 0.930 . S
C887 C883 1.400 . S
C887 C886 1.385 . S
C888 C886 1.478 . S
C888 C890 1.381 . S
C888 C894 1.383 . S
C889 C885 1.495 . S
C889 H895 0.959 . S
C889 H896 0.961 . S
C889 H897 0.960 . S
C890 C888 1.381 . S
C890 C891 1.394 . S
C890 H898 0.930 . S
C891 C890 1.394 . S
C891 C892 1.383 . S
C891 H899 0.929 . S
C892 C891 1.383 . S
C892 C893 1.377 . S
C893 H877 0.930 . S
C893 C892 1.377 . S
C893 C894 1.379 . S
C894 H878 0.931 . S
C894 C888 1.383 . S
C894 C893 1.379 . S
H895 C889 0.959 . S
H896 C889 0.961 . S
H897 C889 0.960 . S
H898 C890 0.930 . S
H899 C891 0.929 . S
H900 C908 0.929 . S
H901 C910 0.930 . S
H902 C912 0.930 . S
H903 C915 0.929 . S
H904 C918 0.930 . S
H905 C920 0.960 . S
H906 C920 0.960 . S
H907 C920 0.960 . S
C908 H900 0.929 . S
C908 C909 1.377 . S
C908 C910 1.384 . S
C909 C908 1.377 . S
C909 C915 1.390 . S
C910 H901 0.930 . S
C910 C908 1.384 . S
C910 C911 1.372 . S
C911 C910 1.372 . S
C911 C912 1.400 . S
C911 C916 1.490 . S
C912 H902 0.930 . S
C912 C911 1.400 . S
C912 C915 1.386 . S
H913 C929 0.930 . S
H914 C930 0.931 . S
C915 H903 0.929 . S
C915 C909 1.390 . S
C915 C912 1.386 . S
C916 C911 1.490 . S
C916 C918 1.395 . S
C916 C919 1.403 . S
H917 C923 0.930 . S
C918 H904 0.930 . S
C918 C916 1.395 . S
C918 C921 1.403 . S
C919 C916 1.403 . S
C919 C920 1.524 . S
C919 C923 1.400 . S
C920 H905 0.960 . S
C920 H906 0.960 . S
C920 H907 0.960 . S
C920 C919 1.524 . S
C921 C918 1.403 . S
C921 C922 1.392 . S
C921 C925 1.495 . S
C922 C921 1.392 . S
C922 C923 1.385 . S
C922 C924 1.478 . S
C923 H917 0.930 . S
C923 C919 1.400 . S
C923 C922 1.385 . S
C924 C922 1.478 . S
C924 C926 1.381 . S
C924 C930 1.383 . S
C925 C921 1.495 . S
C925 H931 0.959 . S
C925 H932 0.961 . S
C925 H933 0.960 . S
C926 C924 1.381 . S
C926 C927 1.394 . S
C926 H934 0.930 . S
C927 C926 1.394 . S
C927 C928 1.383 . S
C927 H935 0.929 . S
C928 C927 1.383 . S
C928 C929 1.377 . S
C929 H913 0.930 . S
C929 C928 1.377 . S
C929 C930 1.379 . S
C930 H914 0.931 . S
C930 C924 1.383 . S
C930 C929 1.379 . S
H931 C925 0.959 . S
H932 C925 0.961 . S
H933 C925 0.960 . S
H934 C926 0.930 . S
H935 C927 0.929 . S
H936 C944 0.929 . S
H937 C946 0.930 . S
H938 C948 0.930 . S
H939 C951 0.929 . S
H940 C954 0.930 . S
H941 C956 0.960 . S
H942 C956 0.960 . S
H943 C956 0.960 . S
C944 H936 0.929 . S
C944 C945 1.377 . S
C944 C946 1.384 . S
C945 C944 1.377 . S
C945 C951 1.390 . S
C946 H937 0.930 . S
C946 C944 1.384 . S
C946 C947 1.372 . S
C947 C946 1.372 . S
C947 C948 1.400 . S
C947 C952 1.490 . S
C948 H938 0.930 . S
C948 C947 1.400 . S
C948 C951 1.386 . S
H949 C965 0.930 . S
H950 C966 0.931 . S
C951 H939 0.929 . S
C951 C945 1.390 . S
C951 C948 1.386 . S
C952 C947 1.490 . S
C952 C954 1.395 . S
C952 C955 1.403 . S
H953 C959 0.930 . S
C954 H940 0.930 . S
C954 C952 1.395 . S
C954 C957 1.403 . S
C955 C952 1.403 . S
C955 C956 1.524 . S
C955 C959 1.400 . S
C956 H941 0.960 . S
C956 H942 0.960 . S
C956 H943 0.960 . S
C956 C955 1.524 . S
C957 C954 1.403 . S
C957 C958 1.392 . S
C957 C961 1.495 1_556 S
C958 C957 1.392 . S
C958 C959 1.385 . S
C958 C960 1.478 . S
C959 H953 0.930 . S
C959 C955 1.400 . S
C959 C958 1.385 . S
C960 C958 1.478 . S
C960 C962 1.381 . S
C960 C966 1.383 . S
C961 C957 1.495 1_554 S
C961 H967 0.959 . S
C961 H968 0.961 . S
C961 H969 0.960 . S
C962 C960 1.381 . S
C962 C963 1.397 1_655 S
C962 H970 0.930 1_655 S
C963 C962 1.397 1_455 S
C963 C964 1.386 1_455 S
C963 H971 0.924 1_556 S
C964 C963 1.386 1_655 S
C964 C965 1.377 . S
C965 H949 0.930 . S
C965 C964 1.377 . S
C965 C966 1.379 . S
C966 H950 0.931 . S
C966 C960 1.383 . S
C966 C965 1.379 . S
H967 C961 0.959 . S
H968 C961 0.961 . S
H969 C961 0.960 . S
H970 C962 0.930 1_455 S
H971 C963 0.924 1_554 S
H972 C980 0.929 . S
H973 C982 0.930 . S
H974 C984 0.930 . S
H975 C987 0.929 . S
H976 C990 0.930 . S
H977 C992 0.960 . S
H978 C992 0.960 . S
H979 C992 0.960 . S
C980 H972 0.929 . S
C980 C981 1.377 . S
C980 C982 1.384 . S
C981 C980 1.377 . S
C981 C987 1.390 . S
C982 H973 0.930 . S
C982 C980 1.384 . S
C982 C983 1.372 . S
C983 C982 1.372 . S
C983 C984 1.400 . S
C983 C988 1.490 . S
C984 H974 0.930 . S
C984 C983 1.400 . S
C984 C987 1.386 . S
H985 C1001 0.930 . S
H986 C1002 0.931 . S
C987 H975 0.929 . S
C987 C981 1.390 . S
C987 C984 1.386 . S
C988 C983 1.490 . S
C988 C990 1.395 . S
C988 C991 1.403 . S
H989 C995 0.930 . S
C990 H976 0.930 . S
C990 C988 1.395 . S
C990 C993 1.403 . S
C991 C988 1.403 . S
C991 C992 1.524 . S
C991 C995 1.400 . S
C992 H977 0.960 . S
C992 H978 0.960 . S
C992 H979 0.960 . S
C992 C991 1.524 . S
C993 C990 1.403 . S
C993 C994 1.392 . S
C993 C997 1.495 . S
C994 C993 1.392 . S
C994 C995 1.385 . S
C994 C996 1.478 . S
C995 H989 0.930 . S
C995 C991 1.400 . S
C995 C994 1.385 . S
C996 C994 1.478 . S
C996 C998 1.381 . S
C996 C1002 1.383 . S
C997 C993 1.495 . S
C997 H1003 0.959 . S
C997 H1004 0.961 . S
C997 H1005 0.960 . S
C998 C996 1.381 . S
C998 C999 1.394 . S
C998 H1006 0.930 . S
C999 C998 1.394 . S
C999 C1000 1.383 . S
C999 H1007 0.929 . S
C1000 C999 1.383 . S
C1000 C1001 1.377 . S
C1001 H985 0.930 . S
C1001 C1000 1.377 . S
C1001 C1002 1.379 . S
C1002 H986 0.931 . S
C1002 C996 1.383 . S
C1002 C1001 1.379 . S
H1003 C997 0.959 . S
H1004 C997 0.961 . S
H1005 C997 0.960 . S
H1006 C998 0.930 . S
H1007 C999 0.929 . S
H1008 C1016 0.929 . S
H1009 C1018 0.930 . S
H1010 C1020 0.930 . S
H1011 C1023 0.929 . S
H1012 C1026 0.930 . S
H1013 C1028 0.960 . S
H1014 C1028 0.960 . S
H1015 C1028 0.960 . S
C1016 H1008 0.929 . S
C1016 C1017 1.377 . S
C1016 C1018 1.384 . S
C1017 C1016 1.377 . S
C1017 C1023 1.390 . S
C1018 H1009 0.930 . S
C1018 C1016 1.384 . S
C1018 C1019 1.372 . S
C1019 C1018 1.372 . S
C1019 C1020 1.400 . S
C1019 C1024 1.490 . S
C1020 H1010 0.930 . S
C1020 C1019 1.400 . S
C1020 C1023 1.386 . S
H1021 C1037 0.930 1_655 S
H1022 C1038 0.931 . S
C1023 H1011 0.929 . S
C1023 C1017 1.390 . S
C1023 C1020 1.386 . S
C1024 C1019 1.490 . S
C1024 C1026 1.395 . S
C1024 C1027 1.403 . S
H1025 C1031 0.930 . S
C1026 H1012 0.930 . S
C1026 C1024 1.395 . S
C1026 C1029 1.403 . S
C1027 C1024 1.403 . S
C1027 C1028 1.524 . S
C1027 C1031 1.400 . S
C1028 H1013 0.960 . S
C1028 H1014 0.960 . S
C1028 H1015 0.960 . S
C1028 C1027 1.524 . S
C1029 C1026 1.403 . S
C1029 C1030 1.392 . S
C1029 C1033 1.495 . S
C1030 C1029 1.392 . S
C1030 C1031 1.385 . S
C1030 C1032 1.478 . S
C1031 H1025 0.930 . S
C1031 C1027 1.400 . S
C1031 C1030 1.385 . S
C1032 C1030 1.478 . S
C1032 C1034 1.381 . S
C1032 C1038 1.383 . S
C1033 C1029 1.495 . S
C1033 H1039 0.959 . S
C1033 H1040 0.961 . S
C1033 H1041 0.960 . S
C1034 C1032 1.381 . S
C1034 C1035 1.394 . S
C1034 H1042 0.930 . S
C1035 C1034 1.394 . S
C1035 C1036 1.383 . S
C1035 H1043 0.929 . S
C1036 C1035 1.383 . S
C1036 C1037 1.377 . S
C1037 H1021 0.930 1_455 S
C1037 C1036 1.377 . S
C1037 C1038 1.379 . S
C1038 H1022 0.931 . S
C1038 C1032 1.383 . S
C1038 C1037 1.379 . S
H1039 C1033 0.959 . S
H1040 C1033 0.961 . S
H1041 C1033 0.960 . S
H1042 C1034 0.930 . S
H1043 C1035 0.929 . S
H1044 C1052 0.929 . S
H1045 C1054 0.930 . S
H1046 C1056 0.930 . S
H1047 C1059 0.929 . S
H1048 C1062 0.930 . S
H1049 C1064 0.960 . S
H1050 C1064 0.960 . S
H1051 C1064 0.960 . S
C1052 H1044 0.929 . S
C1052 C1053 1.377 . S
C1052 C1054 1.384 . S
C1053 C1052 1.377 . S
C1053 C1059 1.390 . S
C1054 H1045 0.930 . S
C1054 C1052 1.384 . S
C1054 C1055 1.372 . S
C1055 C1054 1.372 . S
C1055 C1056 1.400 . S
C1055 C1060 1.490 . S
C1056 H1046 0.930 . S
C1056 C1055 1.400 . S
C1056 C1059 1.386 . S
H1057 C1073 0.930 . S
H1058 C1074 0.931 . S
C1059 H1047 0.929 . S
C1059 C1053 1.390 . S
C1059 C1056 1.386 . S
C1060 C1055 1.490 . S
C1060 C1062 1.395 . S
C1060 C1063 1.403 . S
H1061 C1067 0.930 . S
C1062 H1048 0.930 . S
C1062 C1060 1.395 . S
C1062 C1065 1.403 . S
C1063 C1060 1.403 . S
C1063 C1064 1.524 . S
C1063 C1067 1.400 . S
C1064 H1049 0.960 . S
C1064 H1050 0.960 . S
C1064 H1051 0.960 . S
C1064 C1063 1.524 . S
C1065 C1062 1.403 . S
C1065 C1066 1.392 . S
C1065 C1069 1.495 . S
C1066 C1065 1.392 . S
C1066 C1067 1.385 . S
C1066 C1068 1.478 . S
C1067 H1061 0.930 . S
C1067 C1063 1.400 . S
C1067 C1066 1.385 . S
C1068 C1066 1.478 . S
C1068 C1070 1.381 . S
C1068 C1074 1.383 . S
C1069 C1065 1.495 . S
C1069 H1075 0.959 . S
C1069 H1076 0.961 . S
C1069 H1077 0.960 . S
C1070 C1068 1.381 . S
C1070 C1071 1.394 . S
C1070 H1078 0.930 . S
C1071 C1070 1.394 . S
C1071 C1072 1.383 . S
C1071 H1079 0.929 . S
C1072 C1071 1.383 . S
C1072 C1073 1.377 . S
C1073 H1057 0.930 . S
C1073 C1072 1.377 . S
C1073 C1074 1.379 . S
C1074 H1058 0.931 . S
C1074 C1068 1.383 . S
C1074 C1073 1.379 . S
H1075 C1069 0.959 . S
H1076 C1069 0.961 . S
H1077 C1069 0.960 . S
H1078 C1070 0.930 . S
H1079 C1071 0.929 . S
C225 C6 2.352 . S
C244 C112 2.356 . S
C261 C18 1.391 . S
C280 N132 1.397 . S
C316 C166 2.001 . S
C297 C28 1.987 . S
C333 C40 0.734 . S
C352 N200 0.788 . S
C388 C153 2.651 . S
C369 C9 2.646 . S
C424 N110 1.134 . S
C405 C16 1.138 . S
C460 C187 1.952 1_556 S
C441 C30 1.954 . S
C496 N162 0.743 . S
C477 C42 0.703 . S
C513 C4 1.784 . S
C532 C202 1.788 . S
C568 C136 1.717 . S
C549 C33 1.716 . S
C585 C45 1.081 . S
C604 C97 1.095 . S
C621 C21 1.737 . S
C640 C183 1.755 . S
C676 C123 2.405 . S
C657 C57 2.404 . S
C693 C66 1.383 . S
C712 N140 1.338 . S
C729 C76 2.045 . S
C748 C157 2.056 . S
C765 C88 0.688 . S
C784 N192 0.709 . S
C801 C54 2.614 . S
C820 C142 2.608 1_566 S
C856 N102 1.185 . S
C837 C64 1.177 . S
C892 C196 1.831 . S
C873 C78 1.817 . S
C928 N170 0.697 . S
C909 C93 0.738 . S
C945 C52 1.719 . S
C964 C213 1.737 1_556 S
C1000 C127 1.731 . S
C981 C81 1.717 . S
C1036 C106 1.090 . S
C1017 C90 1.083 . S
C1053 C69 1.791 . S
C1072 C172 1.800 . S
