# Generated by pormake.
# Topology llj, (12,3)-cn, num edge types: 1
# Building blocks:
#     Node 0, Type 0, BuildingBlock: QEWDON_clean_sbu_0, # of connection points: 12
#     Node 1, Type 0, BuildingBlock: QEWDON_clean_sbu_0, # of connection points: 12
#     Node 2, Type 1, BuildingBlock: BETDAH_clean_linker_0, # of connection points: 3
#     Node 3, Type 1, BuildingBlock: BETDAH_clean_linker_0, # of connection points: 3
#     Node 4, Type 1, BuildingBlock: BETDAH_clean_linker_0, # of connection points: 3
#     Node 5, Type 1, BuildingBlock: BETDAH_clean_linker_0, # of connection points: 3
#     Node 6, Type 1, BuildingBlock: BETDAH_clean_linker_0, # of connection points: 3
#     Node 7, Type 1, BuildingBlock: BETDAH_clean_linker_0, # of connection points: 3
#     Node 8, Type 1, BuildingBlock: BETDAH_clean_linker_0, # of connection points: 3
#     Node 9, Type 1, BuildingBlock: BETDAH_clean_linker_0, # of connection points: 3
#     Edge 10, Type (0, 1), BuildingBlock: XIVTED_clean_linker_0, # of connection points: 2
#     Edge 11, Type (0, 1), BuildingBlock: XIVTED_clean_linker_0, # of connection points: 2
#     Edge 12, Type (0, 1), BuildingBlock: XIVTED_clean_linker_0, # of connection points: 2
#     Edge 13, Type (0, 1), BuildingBlock: XIVTED_clean_linker_0, # of connection points: 2
#     Edge 14, Type (0, 1), BuildingBlock: XIVTED_clean_linker_0, # of connection points: 2
#     Edge 15, Type (0, 1), BuildingBlock: XIVTED_clean_linker_0, # of connection points: 2
#     Edge 16, Type (0, 1), BuildingBlock: XIVTED_clean_linker_0, # of connection points: 2
#     Edge 17, Type (0, 1), BuildingBlock: XIVTED_clean_linker_0, # of connection points: 2
#     Edge 18, Type (0, 1), BuildingBlock: XIVTED_clean_linker_0, # of connection points: 2
#     Edge 19, Type (0, 1), BuildingBlock: XIVTED_clean_linker_0, # of connection points: 2
#     Edge 20, Type (0, 1), BuildingBlock: XIVTED_clean_linker_0, # of connection points: 2
#     Edge 21, Type (0, 1), BuildingBlock: XIVTED_clean_linker_0, # of connection points: 2
#     Edge 22, Type (0, 1), BuildingBlock: XIVTED_clean_linker_0, # of connection points: 2
#     Edge 23, Type (0, 1), BuildingBlock: XIVTED_clean_linker_0, # of connection points: 2
#     Edge 24, Type (0, 1), BuildingBlock: XIVTED_clean_linker_0, # of connection points: 2
#     Edge 25, Type (0, 1), BuildingBlock: XIVTED_clean_linker_0, # of connection points: 2
#     Edge 26, Type (0, 1), BuildingBlock: XIVTED_clean_linker_0, # of connection points: 2
#     Edge 27, Type (0, 1), BuildingBlock: XIVTED_clean_linker_0, # of connection points: 2
#     Edge 28, Type (0, 1), BuildingBlock: XIVTED_clean_linker_0, # of connection points: 2
#     Edge 29, Type (0, 1), BuildingBlock: XIVTED_clean_linker_0, # of connection points: 2
#     Edge 30, Type (0, 1), BuildingBlock: XIVTED_clean_linker_0, # of connection points: 2
#     Edge 31, Type (0, 1), BuildingBlock: XIVTED_clean_linker_0, # of connection points: 2
#     Edge 32, Type (0, 1), BuildingBlock: XIVTED_clean_linker_0, # of connection points: 2
#     Edge 33, Type (0, 1), BuildingBlock: XIVTED_clean_linker_0, # of connection points: 2
# Relax obj value: 0.009
# Max RMSD: 0.099
# Mean RMSD: 0.085
data_MOF--net-llj--node1-QEWDON_clean_sbu_0--node2-BETDAH_clean_linker_0--edge1-XIVTED_clean_linker_0
_symmetry_space_group_name_H-M    P1
_symmetry_Int_Tables_number       1
_symmetry_cell_setting            triclinic
loop_
_symmetry_equiv_pos_as_xyz
'x, y, z'
_cell_length_a     39.585086
_cell_length_b     39.596335
_cell_length_c     24.562997
_cell_angle_alpha  91.366395
_cell_angle_beta   90.338578
_cell_angle_gamma 89.966714
loop_
_atom_site_label
_atom_site_type_symbol
_atom_site_fract_x
_atom_site_fract_y
_atom_site_fract_z
_atom_type_partial_charge
Zn0 Zn 0.9608 0.05408 -0.00216 0.0
Zn1 Zn 0.96638 0.06761 0.12536 0.0
O2 O 0.99317 0.05107 0.06172 0.0
H3 H 0.01141 0.0349 0.06296 0.0
C4 C 0.94329 0.96763 0.90924 0.0
O5 O 0.97435 0.96614 0.92802 0.0
Zn6 Zn 0.03827 0.92291 0.1387 0.0
Zn7 Zn 0.0331 0.91074 0.01008 0.0
O8 O 0.0098 0.9332 0.07361 0.0
H9 H 0.99623 0.95334 0.07044 0.0
Zn10 Zn 0.92729 0.94024 0.01597 0.0
O11 O 0.93206 0.9791 0.07001 0.0
Zn12 Zn 0.92239 0.95673 0.14021 0.0
H13 H 0.94607 0.9985 0.06316 0.0
Zn14 Zn 0.07277 0.04687 0.02354 0.0
O15 O 0.07885 0.00772 0.07414 0.0
H16 H 0.08992 0.9866 0.06494 0.0
Zn17 Zn 0.08378 0.03516 0.14209 0.0
C18 C 0.05598 0.0041 0.93407 0.0
O19 O 0.03914 0.99125 0.97461 0.0
O20 O 0.91844 0.0822 0.01595 0.0
O21 O 0.9282 0.09891 0.10187 0.0
O22 O 0.07816 0.88898 0.02933 0.0
O23 O 0.07706 0.88987 0.12019 0.0
O24 O 0.89364 0.90496 0.04256 0.0
O25 O 0.88398 0.92239 0.12789 0.0
C26 C 0.02828 0.08244 0.18306 0.0
O27 O 0.10333 0.08682 0.04668 0.0
O28 O 0.11911 0.07178 0.12995 0.0
O29 O 0.0042 0.88994 0.94745 0.0
C30 C 0.91064 0.09985 0.0581 0.0
O31 O 0.98344 0.06495 0.92465 0.0
C32 C 0.97667 0.91418 0.19834 0.0
O33 O 0.91933 0.95662 0.938 0.0
C34 C 0.09089 0.88117 0.07504 0.0
O35 O 0.07283 0.03095 0.94277 0.0
C36 C 0.92464 0.02137 0.19359 0.0
O37 O 0.99771 0.09186 0.17836 0.0
O38 O 0.03816 0.05703 0.15468 0.0
C39 C 0.8776 0.90274 0.0871 0.0
O40 O 0.00747 0.90495 0.19717 0.0
O41 O 0.96621 0.9336 0.16123 0.0
C42 C 0.08146 0.97353 0.19858 0.0
O43 O 0.91039 0.9928 0.1973 0.0
O44 O 0.94503 0.02576 0.15477 0.0
C45 C 0.12134 0.09137 0.08947 0.0
O46 O 0.09601 0.00215 0.20091 0.0
O47 O 0.05996 0.9675 0.16093 0.0
C48 C 0.97431 0.87977 0.95565 0.0
O49 O 0.96209 0.88124 0.00525 0.0
C50 C 0.01086 0.08149 0.92842 0.0
O51 O 0.02274 0.0898 0.97695 0.0
Zn52 Zn 0.43595 0.59206 0.367 0.0
Zn53 Zn 0.44267 0.57124 0.4917 0.0
O54 O 0.46492 0.56579 0.4196 0.0
H55 H 0.48638 0.55504 0.41218 0.0
C56 C 0.39339 0.52685 0.3395 0.0
O57 O 0.37547 0.52964 0.38424 0.0
Zn58 Zn 0.56471 0.41708 0.50332 0.0
Zn59 Zn 0.5673 0.38804 0.3816 0.0
O60 O 0.5416 0.42008 0.43147 0.0
H61 H 0.52581 0.43733 0.42073 0.0
Zn62 Zn 0.42447 0.4702 0.39709 0.0
O63 O 0.46306 0.4791 0.4492 0.0
Zn64 Zn 0.45299 0.45103 0.51327 0.0
H65 H 0.48394 0.49075 0.44203 0.0
Zn66 Zn 0.61555 0.51988 0.44147 0.0
O67 O 0.56512 0.51563 0.45432 0.0
H68 H 0.54829 0.50309 0.43356 0.0
Zn69 Zn 0.55993 0.54172 0.52395 0.0
C70 C 0.64068 0.46626 0.368 0.0
O71 O 0.63618 0.44816 0.41149 0.0
O72 O 0.39272 0.61356 0.39943 0.0
O73 O 0.39685 0.59458 0.48382 0.0
O74 O 0.61102 0.36759 0.41332 0.0
O75 O 0.61025 0.39311 0.49514 0.0
O76 O 0.39116 0.43279 0.41849 0.0
O77 O 0.41438 0.41829 0.49742 0.0
C78 C 0.50275 0.58869 0.54932 0.0
O79 O 0.63573 0.56474 0.47211 0.0
O80 O 0.59401 0.57988 0.52788 0.0
O81 O 0.54476 0.37149 0.30941 0.0
C82 C 0.3809 0.61072 0.44727 0.0
O83 O 0.45824 0.61074 0.29789 0.0
C84 C 0.50477 0.40126 0.55616 0.0
O85 O 0.41521 0.50342 0.33499 0.0
C86 C 0.62463 0.3739 0.45967 0.0
O87 O 0.63445 0.49775 0.37057 0.0
C88 C 0.43583 0.51298 0.57099 0.0
O89 O 0.47292 0.59911 0.54046 0.0
O90 O 0.51277 0.56166 0.52531 0.0
C91 C 0.3919 0.41427 0.46027 0.0
O92 O 0.53486 0.39052 0.55254 0.0
O93 O 0.49632 0.42633 0.52775 0.0
C94 C 0.5712 0.47861 0.58087 0.0
O95 O 0.43986 0.48143 0.57661 0.0
O96 O 0.43974 0.52486 0.5237 0.0
C97 C 0.62261 0.58562 0.50626 0.0
O98 O 0.56861 0.51052 0.58627 0.0
O99 O 0.56797 0.46524 0.5334 0.0
C100 C 0.52789 0.3442 0.30709 0.0
O101 O 0.52628 0.3255 0.35047 0.0
C102 C 0.46227 0.64223 0.29178 0.0
O103 O 0.45134 0.66346 0.32966 0.0
H104 H 0.42766 0.3202 0.91906 0.0
H105 H 0.36093 0.25241 0.0011 0.0
H106 H 0.35603 0.26028 0.82713 0.0
C107 C 0.40706 0.30218 0.91801 0.0
C108 C 0.3927 0.2926 0.86761 0.0
C109 C 0.39613 0.28756 0.96651 0.0
C110 C 0.3699 0.26356 0.96405 0.0
C111 C 0.35552 0.25371 0.91362 0.0
C112 C 0.36733 0.26794 0.86579 0.0
N113 N 0.32944 0.22927 0.90917 0.0
C114 C 0.30911 0.21964 0.95198 0.0
H115 H 0.6416 0.3921 0.96637 0.0
H116 H 0.71601 0.32109 0.02121 0.0
H117 H 0.68908 0.32341 0.85197 0.0
C118 C 0.65943 0.37199 0.95742 0.0
C119 C 0.66268 0.35954 0.90367 0.0
C120 C 0.67886 0.35866 2e-05 0.0
C121 C 0.70075 0.33138 0.98882 0.0
C122 C 0.70397 0.31851 0.93523 0.0
C123 C 0.68531 0.3329 0.89322 0.0
N124 N 0.72648 0.29189 0.92117 0.0
C125 C 0.74331 0.27162 0.95786 0.0
H126 H 0.56663 0.68264 0.91574 0.0
H127 H 0.62791 0.75437 0.83251 0.0
H128 H 0.61871 0.7613 0.00656 0.0
C129 C 0.58374 0.70401 0.91712 0.0
C130 C 0.59099 0.72039 0.96723 0.0
C131 C 0.59707 0.71587 0.86831 0.0
C132 C 0.6175 0.7448 0.86983 0.0
C133 C 0.62583 0.76082 0.9195 0.0
C134 C 0.61261 0.74859 0.96822 0.0
N135 N 0.64706 0.78959 0.919 0.0
C136 C 0.67026 0.79736 0.96002 0.0
H137 H 0.38341 0.61596 0.96124 0.0
H138 H 0.32109 0.67279 0.85242 0.0
H139 H 0.31181 0.68829 0.02517 0.0
C140 C 0.36429 0.63503 0.95466 0.0
C141 C 0.34883 0.65113 -0.00023 0.0
C142 C 0.3547 0.64265 0.90117 0.0
C143 C 0.3295 0.66702 0.89323 0.0
C144 C 0.31406 0.68357 0.93744 0.0
C145 C 0.32376 0.67563 0.99079 0.0
N146 N 0.2884 0.70748 0.92625 0.0
C147 C 0.2715 0.72696 0.96519 0.0
H148 H 0.8808 0.85499 0.57226 0.0
H149 H 0.78651 0.8365 0.65314 0.0
H150 H 0.78769 0.85206 0.48114 0.0
C151 C 0.85374 0.85097 0.57072 0.0
C152 C 0.83674 0.85328 0.52062 0.0
C153 C 0.83607 0.84496 0.61904 0.0
C154 C 0.80075 0.8415 0.61668 0.0
C155 C 0.7835 0.84447 0.5671 0.0
C156 C 0.80139 0.8504 0.51931 0.0
N157 N 0.74799 0.84136 0.56509 0.0
C158 C 0.73325 0.80964 0.56419 0.0
H159 H 0.10059 0.88344 0.55355 0.0
H160 H 0.14233 0.8196 0.676 0.0
H161 H 0.15988 0.7966 0.5063 0.0
C162 C 0.11532 0.86153 0.56468 0.0
C163 C 0.12943 0.84074 0.52372 0.0
C164 C 0.11995 0.85431 0.6197 0.0
C165 C 0.13849 0.82555 0.63355 0.0
C166 C 0.15313 0.80473 0.59328 0.0
C167 C 0.14891 0.81256 0.53797 0.0
N168 N 0.1715 0.77611 0.61053 0.0
C169 C 0.19145 0.75549 0.57741 0.0
H170 H 0.10619 0.14658 0.54266 0.0
H171 H 0.15933 0.23415 0.48766 0.0
H172 H 0.1386 0.22366 0.65779 0.0
C173 C 0.11902 0.17027 0.55159 0.0
C174 C 0.12123 0.18243 0.6056 0.0
C175 C 0.13245 0.18888 0.50877 0.0
C176 C 0.14909 0.21957 0.52049 0.0
C177 C 0.15163 0.23177 0.57458 0.0
C178 C 0.13727 0.21346 0.61649 0.0
N179 N 0.16745 0.26293 0.58818 0.0
C180 C 0.19484 0.27552 0.56019 0.0
H181 H 0.90428 0.10583 0.55638 0.0
H182 H 0.86056 0.16754 0.68385 0.0
H183 H 0.85078 0.19672 0.5168 0.0
C184 C 0.89086 0.12848 0.56942 0.0
C185 C 0.879 0.151 0.53035 0.0
C186 C 0.88378 0.13383 0.6247 0.0
C187 C 0.8658 0.16282 0.64106 0.0
C188 C 0.85389 0.18563 0.60275 0.0
C189 C 0.86005 0.17942 0.54697 0.0
N190 N 0.83592 0.21441 0.62224 0.0
C191 C 0.81626 0.23521 0.59018 0.0
H192 H 0.11759 0.15164 0.03942 0.0
H193 H 0.31525 0.16922 0.02406 0.0
H194 H 0.1845 0.09098 0.13591 0.0
H195 H 0.24618 0.24367 0.96332 0.0
H196 H 0.26871 0.14386 0.0748 0.0
H197 H 0.16425 0.18973 0.02107 0.0
C198 C 0.14206 0.14675 0.0576 0.0
C199 C 0.14737 0.11797 0.08865 0.0
C200 C 0.26386 0.1662 0.0514 0.0
C201 C 0.20124 0.16096 0.06667 0.0
C202 C 0.29037 0.18061 0.0226 0.0
C203 C 0.28415 0.20832 0.98973 0.0
C204 C 0.23102 0.17942 0.0462 0.0
C205 C 0.25172 0.2222 0.9884 0.0
C206 C 0.16874 0.16849 0.04712 0.0
C207 C 0.17945 0.11289 0.11161 0.0
N208 N 0.22619 0.20731 0.01564 0.0
N209 N 0.20545 0.13379 0.09914 0.0
H210 H 0.85575 0.09289 0.99183 0.0
H211 H 0.79463 0.282 0.03026 0.0
H212 H 0.89904 0.15912 0.11559 0.0
H213 H 0.73549 0.20472 0.94842 0.0
H214 H 0.83223 0.23798 0.06577 0.0
H215 H 0.81056 0.13361 0.97815 0.0
C216 C 0.85556 0.11595 0.01648 0.0
C217 C 0.88133 0.1228 0.05455 0.0
C218 C 0.81064 0.23062 0.04096 0.0
C219 C 0.82978 0.16987 0.03861 0.0
C220 C 0.78926 0.25567 0.02089 0.0
C221 C 0.76218 0.24661 0.98672 0.0
C222 C 0.80496 0.19662 0.02568 0.0
C223 C 0.7562 0.21245 0.9749 0.0
C224 C 0.82966 0.13917 0.00881 0.0
C225 C 0.87964 0.15293 0.08575 0.0
N226 N 0.77768 0.18866 0.99383 0.0
N227 N 0.85457 0.17569 0.07647 0.0
H228 H 0.87216 0.84176 0.03499 0.0
H229 H 0.67338 0.84885 0.03461 0.0
H230 H 0.81696 0.9112 0.13905 0.0
H231 H 0.73025 0.76611 0.96441 0.0
H232 H 0.72465 0.86867 0.08249 0.0
H233 H 0.82046 0.80966 0.01852 0.0
C234 C 0.84919 0.84981 0.05529 0.0
C235 C 0.84867 0.87932 0.08793 0.0
C236 C 0.72578 0.84576 0.0576 0.0
C237 C 0.78907 0.84326 0.06811 0.0
C238 C 0.69658 0.83451 0.03041 0.0
C239 C 0.69802 0.80601 0.99577 0.0
C240 C 0.75648 0.82855 0.04904 0.0
C241 C 0.72842 0.78827 0.99094 0.0
C242 C 0.81963 0.83151 0.04585 0.0
C243 C 0.81835 0.88857 0.11354 0.0
N244 N 0.75662 0.80009 0.0167 0.0
N245 N 0.7895 0.87101 0.1021 0.0
H246 H 0.14546 0.894 0.01392 0.0
H247 H 0.22168 0.71168 0.0359 0.0
H248 H 0.10836 0.82508 0.13286 0.0
H249 H 0.27557 0.79444 0.96615 0.0
H250 H 0.18157 0.75226 0.07712 0.0
H251 H 0.19498 0.8583 0.00049 0.0
C252 C 0.14811 0.87147 0.03779 0.0
C253 C 0.12288 0.86225 0.07426 0.0
C254 C 0.20263 0.76158 0.05388 0.0
C255 C 0.1791 0.82072 0.05823 0.0
C256 C 0.22542 0.73849 0.0305 0.0
C257 C 0.25164 0.75006 -0.00215 0.0
C258 C 0.20602 0.79617 0.0434 0.0
C259 C 0.25552 0.78477 0.99124 0.0
C260 C 0.1764 0.85111 0.03024 0.0
C261 C 0.12743 0.83295 0.10441 0.0
N262 N 0.23266 0.80662 0.0132 0.0
N263 N 0.15476 0.81273 0.09492 0.0
H264 H 0.60102 0.63759 0.57298 0.0
H265 H 0.76035 0.7554 0.51333 0.0
H266 H 0.68444 0.60693 0.47064 0.0
H267 H 0.67399 0.78879 0.60591 0.0
H268 H 0.73483 0.69916 0.50312 0.0
H269 H 0.62922 0.69142 0.59167 0.0
C270 C 0.62535 0.64207 0.55465 0.0
C271 C 0.64027 0.61769 0.51996 0.0
C272 C 0.72146 0.71868 0.52587 0.0
C273 C 0.67268 0.67945 0.541 0.0
C274 C 0.73602 0.75064 0.53168 0.0
C275 C 0.71901 0.7763 0.5603 0.0
C276 C 0.68965 0.71259 0.54888 0.0
C277 C 0.68768 0.76935 0.58348 0.0
C278 C 0.64141 0.67288 0.56527 0.0
C279 C 0.67187 0.62498 0.49741 0.0
N280 N 0.67388 0.73806 0.57714 0.0
N281 N 0.68694 0.65524 0.50817 0.0
H282 H 0.34456 0.60525 0.54104 0.0
H283 H 0.22271 0.76075 0.47968 0.0
H284 H 0.34473 0.65633 0.38763 0.0
H285 H 0.2129 0.69745 0.61887 0.0
H286 H 0.26624 0.72215 0.44297 0.0
H287 H 0.29507 0.63788 0.56841 0.0
C288 C 0.33406 0.62317 0.51289 0.0
C289 C 0.34905 0.62821 0.46209 0.0
C290 C 0.25428 0.71649 0.48122 0.0
C291 C 0.29233 0.66601 0.49349 0.0
C292 C 0.22952 0.73844 0.50198 0.0
C293 C 0.2145 0.73192 0.55204 0.0
C294 C 0.26407 0.68824 0.5113 0.0
C295 C 0.22406 0.70307 0.57996 0.0
C296 C 0.30572 0.64181 0.52856 0.0
C297 C 0.33412 0.65169 0.42727 0.0
N298 N 0.24843 0.68237 0.55941 0.0
N299 N 0.30678 0.66998 0.44385 0.0
H300 H 0.33533 0.40321 0.39724 0.0
H301 H 0.25763 0.26862 0.5997 0.0
H302 H 0.38694 0.36746 0.54025 0.0
H303 H 0.20014 0.31536 0.47253 0.0
H304 H 0.3083 0.29809 0.56936 0.0
H305 H 0.2887 0.36475 0.4153 0.0
C306 C 0.33704 0.38708 0.43215 0.0
C307 C 0.36498 0.38888 0.46762 0.0
C308 C 0.28474 0.3017 0.54765 0.0
C309 C 0.31161 0.34483 0.48846 0.0
C310 C 0.25595 0.28482 0.56484 0.0
C311 C 0.22508 0.28982 0.53836 0.0
C312 C 0.28239 0.32378 0.50383 0.0
C313 C 0.22376 0.31102 0.49372 0.0
C314 C 0.31035 0.36518 0.44246 0.0
C315 C 0.3658 0.36722 0.51206 0.0
N316 N 0.25208 0.32748 0.47792 0.0
N317 N 0.33942 0.34627 0.52137 0.0
H318 H 0.66363 0.38491 0.55072 0.0
H319 H 0.78439 0.22652 0.49276 0.0
H320 H 0.65916 0.32484 0.40176 0.0
H321 H 0.79539 0.29499 0.63059 0.0
H322 H 0.74047 0.26361 0.45554 0.0
H323 H 0.71391 0.3539 0.57781 0.0
C324 C 0.67333 0.36535 0.52347 0.0
C325 C 0.65689 0.35728 0.47408 0.0
C326 C 0.75277 0.27075 0.49358 0.0
C327 C 0.71454 0.32139 0.50516 0.0
C328 C 0.77777 0.24966 0.51462 0.0
C329 C 0.79323 0.25806 0.56445 0.0
C330 C 0.74317 0.30007 0.52314 0.0
C331 C 0.7839 0.28793 0.59184 0.0
C332 C 0.70213 0.34763 0.53898 0.0
C333 C 0.67086 0.3318 0.44035 0.0
N334 N 0.75928 0.30779 0.57101 0.0
N335 N 0.69869 0.31453 0.45677 0.0
H336 H 0.08585 0.05978 0.23292 0.0
H337 H 0.10545 0.22428 0.425 0.0
H338 H 0.0219 0.14736 0.22148 0.0
H339 H 0.14505 0.12631 0.46428 0.0
H340 H 0.08631 0.20118 0.33654 0.0
H341 H 0.11899 0.08872 0.30375 0.0
C342 C 0.07921 0.08529 0.24435 0.0
C343 C 0.05106 0.10098 0.22121 0.0
C344 C 0.09967 0.18491 0.3642 0.0
C345 C 0.08854 0.13436 0.30296 0.0
C346 C 0.11081 0.19812 0.41439 0.0
C347 C 0.12654 0.17702 0.45196 0.0
C348 C 0.1046 0.15048 0.35154 0.0
C349 C 0.13265 0.14325 0.43655 0.0
C350 C 0.09799 0.10179 0.28517 0.0
C351 C 0.04328 0.13413 0.23856 0.0
N352 N 0.12143 0.13094 0.38765 0.0
N353 N 0.06178 0.14965 0.27864 0.0
H354 H 0.97041 0.05822 0.25103 0.0
H355 H 0.83285 0.14329 0.44772 0.0
H356 H 0.86335 0.04352 0.23049 0.0
H357 H 0.93966 0.13959 0.48216 0.0
H358 H 0.84359 0.11851 0.35675 0.0
H359 H 0.95953 0.09969 0.32407 0.0
C360 C 0.94458 0.06481 0.26066 0.0
C361 C 0.91775 0.04842 0.2339 0.0
C362 C 0.86471 0.1237 0.3839 0.0
C363 C 0.90489 0.09432 0.31921 0.0
C364 C 0.85861 0.13805 0.43547 0.0
C365 C 0.88543 0.14312 0.47228 0.0
C366 C 0.89785 0.11464 0.36931 0.0
C367 C 0.91832 0.13572 0.45492 0.0
C368 C 0.93831 0.08797 0.30297 0.0
C369 C 0.88467 0.05598 0.25013 0.0
N370 N 0.92358 0.12157 0.40486 0.0
N371 N 0.87912 0.07835 0.29202 0.0
H372 H 0.91068 0.932 0.21954 0.0
H373 H 0.89703 0.82497 0.48963 0.0
H374 H 0.99203 0.8708 0.28013 0.0
H375 H 0.82078 0.89517 0.43678 0.0
H376 H 0.9304 0.83774 0.40938 0.0
H377 H 0.8757 0.91494 0.29442 0.0
C378 C 0.92124 0.91483 0.24808 0.0
C379 C 0.95444 0.90296 0.24286 0.0
C380 C 0.90632 0.85026 0.41524 0.0
C381 C 0.91434 0.88321 0.3301 0.0
C382 C 0.88731 0.84311 0.46116 0.0
C383 C 0.85616 0.85925 0.47022 0.0
C384 C 0.8941 0.87368 0.37793 0.0
C385 C 0.8445 0.88195 0.43133 0.0
C386 C 0.90116 0.90509 0.29131 0.0
C387 C 0.96657 0.88071 0.28223 0.0
N388 N 0.86356 0.8886 0.38703 0.0
N389 N 0.94655 0.87162 0.32424 0.0
H390 H 0.1436 0.94883 0.22554 0.0
H391 H 0.06888 0.84521 0.47267 0.0
H392 H 0.03807 0.94221 0.26492 0.0
H393 H 0.17565 0.85735 0.44639 0.0
H394 H 0.05743 0.87156 0.38565 0.0
H395 H 0.15637 0.90824 0.29713 0.0
C396 C 0.12312 0.93829 0.24877 0.0
C397 C 0.08964 0.94788 0.23869 0.0
C398 C 0.08343 0.86808 0.39831 0.0
C399 C 0.10383 0.90203 0.32031 0.0
C400 C 0.08992 0.85286 0.44776 0.0
C401 C 0.12319 0.84939 0.46648 0.0
C402 C 0.11042 0.88044 0.36772 0.0
C403 C 0.14965 0.85962 0.43302 0.0
C404 C 0.13034 0.91515 0.28936 0.0
C405 C 0.06396 0.9341 0.26997 0.0
N406 N 0.1427 0.87523 0.38546 0.0
N407 N 0.07157 0.91196 0.30952 0.0
H408 H 0.08207 0.02512 0.83698 0.0
H409 H 0.08567 0.8371 0.71131 0.0
H410 H 0.03832 0.93892 0.91384 0.0
H411 H 0.12233 0.9234 0.62545 0.0
H412 H 0.06498 0.87502 0.78356 0.0
H413 H 0.09346 0.9896 0.75593 0.0
C414 C 0.07451 -0.00118 0.83655 0.0
C415 C 0.05936 0.98478 0.88228 0.0
C416 C 0.07737 0.88575 0.74879 0.0
C417 C 0.07246 0.94409 0.79028 0.0
C418 C 0.08935 0.86407 0.70774 0.0
C419 C 0.10593 0.87713 0.6626 0.0
C420 C 0.0823 0.92077 0.745 0.0
C421 C 0.10954 0.91232 0.65952 0.0
C422 C 0.08097 0.97858 0.79035 0.0
C423 C 0.04983 0.95071 0.87945 0.0
N424 N 0.09808 0.93293 0.70043 0.0
N425 N 0.0568 0.93147 0.83455 0.0
H426 H 0.07525 0.10538 0.92195 0.0
H427 H 0.05988 0.1502 0.60713 0.0
H428 H 0.9872 0.08256 0.82352 0.0
H429 H 0.14801 0.17127 0.70651 0.0
H430 H 0.03431 0.12146 0.68366 0.0
H431 H 0.10366 0.12606 0.84152 0.0
C432 C 0.06195 0.10454 0.88326 0.0
C433 C 0.02881 0.09221 0.87931 0.0
C434 C 0.05932 0.13221 0.68861 0.0
C435 C 0.06112 0.11604 0.78703 0.0
C436 C 0.07401 0.14846 0.64486 0.0
C437 C 0.10606 0.16335 0.65057 0.0
C438 C 0.0768 0.13087 0.73845 0.0
C439 C 0.12303 0.16067 0.7006 0.0
C440 C 0.07822 0.1163 0.8373 0.0
C441 C 0.01287 0.09151 0.82815 0.0
N442 N 0.10813 0.1449 0.74264 0.0
N443 N 0.0291 0.1035 0.78399 0.0
H444 H 0.98745 0.99445 0.83585 0.0
H445 H 0.84372 0.10711 0.70225 0.0
H446 H 0.88112 0.98521 0.87092 0.0
H447 H 0.94458 0.10129 0.63712 0.0
H448 H 0.85823 0.06321 0.76623 0.0
H449 H 0.97334 0.03262 0.76193 0.0
C450 C 0.96117 0.00019 0.82775 0.0
C451 C 0.93544 0.98693 0.86004 0.0
C452 C 0.87724 0.07141 0.73794 0.0
C453 C 0.91931 0.03124 0.77693 0.0
C454 C 0.86905 0.09673 0.7018 0.0
C455 C 0.89306 0.10798 0.6647 0.0
C456 C 0.90984 0.05735 0.73742 0.0
C457 C 0.92534 0.09321 0.6651 0.0
C458 C 0.95316 0.02206 0.78573 0.0
C459 C 0.90183 0.99504 0.84749 0.0
N460 N 0.93289 0.06875 0.70121 0.0
N461 N 0.8948 0.01701 0.80747 0.0
H462 H 0.9057 0.87051 0.95346 0.0
H463 H 0.89844 0.8173 0.63882 0.0
H464 H 0.99407 0.86465 0.85154 0.0
H465 H 0.81631 0.86957 0.71967 0.0
H466 H 0.93145 0.82156 0.72293 0.0
H467 H 0.87035 0.85736 0.87365 0.0
C468 C 0.9177 0.8662 0.91451 0.0
C469 C 0.95284 0.869 0.90907 0.0
C470 C 0.9061 0.83186 0.7222 0.0
C471 C 0.91269 0.85345 0.81811 0.0
C472 C 0.88726 0.82961 0.67419 0.0
C473 C 0.85469 0.84366 0.6717 0.0
C474 C 0.89215 0.84777 0.76841 0.0
C475 C 0.8412 0.85828 0.71955 0.0
C476 C 0.8975 0.85876 0.86904 0.0
C477 C 0.96705 0.86296 0.85754 0.0
N478 N 0.86008 0.86011 0.76594 0.0
N479 N 0.9469 0.85544 0.81402 0.0
H480 H 0.54445 0.56323 0.62656 0.0
H481 H 0.57849 0.74331 0.77101 0.0
H482 H 0.5077 0.65693 0.56343 0.0
H483 H 0.59782 0.64789 0.84653 0.0
H484 H 0.56183 0.71283 0.68712 0.0
H485 H 0.57391 0.59464 0.6993 0.0
C486 C 0.54359 0.59047 0.627 0.0
C487 C 0.52434 0.60754 0.58841 0.0
C488 C 0.56992 0.6986 0.72197 0.0
C489 C 0.55662 0.64374 0.67268 0.0
C490 C 0.57957 0.71597 0.76972 0.0
C491 C 0.58916 0.69806 0.81596 0.0
C492 C 0.57002 0.66311 0.72043 0.0
C493 C 0.58998 0.66265 0.81214 0.0
C494 C 0.5599 0.60842 0.66903 0.0
C495 C 0.52253 0.64289 0.59236 0.0
N496 N 0.58037 0.64634 0.76533 0.0
N497 N 0.53837 0.65986 0.63393 0.0
H498 H 0.41406 0.57924 0.57606 0.0
H499 H 0.3719 0.57551 0.89221 0.0
H500 H 0.43793 0.49505 0.67743 0.0
H501 H 0.37186 0.66758 0.80137 0.0
H502 H 0.39503 0.54544 0.81317 0.0
H503 H 0.3975 0.61201 0.65684 0.0
C504 C 0.41635 0.56778 0.61512 0.0
C505 C 0.42765 0.53441 0.61952 0.0
C506 C 0.39016 0.57228 0.81062 0.0
C507 C 0.40793 0.57147 0.71262 0.0
C508 C 0.37711 0.58957 0.85594 0.0
C509 C 0.36989 0.62425 0.8537 0.0
C510 C 0.39576 0.5896 0.76229 0.0
C511 C 0.37651 0.64078 0.80485 0.0
C512 C 0.4067 0.58647 0.66142 0.0
C513 C 0.42931 0.52069 0.67174 0.0
N514 N 0.38889 0.62328 0.76103 0.0
N515 N 0.41938 0.53917 0.7161 0.0
H516 H 0.46122 0.43215 0.62662 0.0
H517 H 0.40983 0.26092 0.77138 0.0
H518 H 0.49716 0.33419 0.57386 0.0
H519 H 0.40232 0.35961 0.8486 0.0
H520 H 0.43161 0.28717 0.68931 0.0
H521 H 0.42842 0.40556 0.69806 0.0
C522 C 0.46118 0.40497 0.62889 0.0
C523 C 0.48124 0.38527 0.5938 0.0
C524 C 0.42501 0.30306 0.72414 0.0
C525 C 0.44497 0.35469 0.67633 0.0
C526 C 0.41249 0.28814 0.77081 0.0
C527 C 0.40454 0.30815 0.81688 0.0
C528 C 0.42924 0.33825 0.72338 0.0
C529 C 0.40861 0.34327 0.81417 0.0
C530 C 0.44299 0.38982 0.67023 0.0
C531 C 0.48179 0.35018 0.60012 0.0
N532 N 0.42071 0.35722 0.76821 0.0
N533 N 0.46395 0.33596 0.64073 0.0
H534 H 0.56504 0.49911 0.68704 0.0
H535 H 0.63579 0.32852 0.81151 0.0
H536 H 0.59418 0.41304 0.58731 0.0
H537 H 0.64619 0.42645 0.89133 0.0
H538 H 0.60893 0.35564 0.73404 0.0
H539 H 0.58256 0.46876 0.7678 0.0
C540 C 0.57468 0.47362 0.68197 0.0
C541 C 0.57802 0.45853 0.6299 0.0
C542 C 0.61692 0.37104 0.7688 0.0
C543 C 0.59805 0.4237 0.72247 0.0
C544 C 0.63247 0.35566 0.81295 0.0
C545 C 0.6437 0.37518 0.85812 0.0
C546 C 0.61209 0.40613 0.77002 0.0
C547 C 0.63771 0.41018 0.85799 0.0
C548 C 0.58472 0.45638 0.72817 0.0
C549 C 0.59059 0.42545 0.62621 0.0
N550 N 0.6224 0.4245 0.81461 0.0
N551 N 0.60027 0.40914 0.67183 0.0
H552 H 0.65497 0.39933 0.34695 0.0
H553 H 0.67754 0.42586 0.02716 0.0
H554 H 0.64892 0.49592 0.26958 0.0
H555 H 0.67629 0.32748 0.09906 0.0
H556 H 0.67145 0.45186 0.11736 0.0
H557 H 0.66725 0.37255 0.25841 0.0
C558 C 0.65629 0.41493 0.31144 0.0
C559 C 0.65052 0.4499 0.31565 0.0
C560 C 0.67255 0.42458 0.11361 0.0
C561 C 0.66477 0.41945 0.21432 0.0
C562 C 0.67585 0.40969 0.062 0.0
C563 C 0.67694 0.3744 0.05543 0.0
C564 C 0.67032 0.40413 0.15935 0.0
C565 C 0.67556 0.35478 0.10226 0.0
C566 C 0.66335 0.39961 0.26091 0.0
C567 C 0.65299 0.46888 0.26833 0.0
N568 N 0.67209 0.36992 0.15228 0.0
N569 N 0.65978 0.45339 0.21972 0.0
H570 H 0.47873 0.70754 0.26837 0.0
H571 H 0.58127 0.65527 -0.00081 0.0
H572 H 0.48809 0.60501 0.20642 0.0
H573 H 0.56312 0.75877 0.04998 0.0
H574 H 0.54985 0.63643 0.07805 0.0
H575 H 0.51152 0.72689 0.19103 0.0
C576 C 0.48758 0.6891 0.23846 0.0
C577 C 0.48076 0.65458 0.24403 0.0
C578 C 0.5528 0.66327 0.07208 0.0
C579 C 0.51847 0.67654 0.15561 0.0
C580 C 0.5707 0.67406 0.02699 0.0
C581 C 0.57467 0.70867 0.01772 0.0
C582 C 0.53872 0.68724 0.1084 0.0
C583 C 0.56095 0.73185 0.05573 0.0
C584 C 0.50636 0.70017 0.19436 0.0
C585 C 0.49286 0.63185 0.20397 0.0
N586 N 0.54346 0.72071 0.09927 0.0
N587 N 0.51118 0.64323 0.16157 0.0
H588 H 0.34188 0.57236 0.3261 0.0
H589 H 0.4115 0.63643 0.04161 0.0
H590 H 0.43341 0.53541 0.25072 0.0
H591 H 0.30616 0.64152 0.0858 0.0
H592 H 0.42413 0.61118 0.12927 0.0
H593 H 0.33277 0.60914 0.24841 0.0
C594 C 0.36012 0.57208 0.2934 0.0
C595 C 0.38819 0.55043 0.29447 0.0
C596 C 0.3983 0.61811 0.11985 0.0
C597 C 0.37815 0.59264 0.20623 0.0
C598 C 0.39103 0.63243 0.06981 0.0
C599 C 0.35759 0.64056 0.05581 0.0
C600 C 0.372 0.612 0.15636 0.0
C601 C 0.33229 0.63571 0.09475 0.0
C602 C 0.35491 0.59307 0.24919 0.0
C603 C 0.41116 0.55131 0.25121 0.0
N604 N 0.33997 0.62144 0.14308 0.0
N605 N 0.40561 0.57203 0.20883 0.0
H606 H 0.49326 0.2855 0.2846 0.0
H607 H 0.41791 0.35 0.0027 0.0
H608 H 0.51789 0.38186 0.21642 0.0
H609 H 0.41334 0.2458 0.05012 0.0
H610 H 0.44978 0.36354 0.08567 0.0
H611 H 0.45954 0.27174 0.20321 0.0
C612 C 0.49166 0.30373 0.2525 0.0
C613 C 0.50848 0.33487 0.25732 0.0
C614 C 0.44176 0.33772 0.07797 0.0
C615 C 0.46969 0.31941 0.16443 0.0
C616 C 0.42361 0.32993 0.0305 0.0
C617 C 0.41311 0.29663 0.01904 0.0
C618 C 0.44936 0.31211 0.11463 0.0
C619 C 0.42061 0.27187 0.05737 0.0
C620 C 0.4724 0.29584 0.20608 0.0
C621 C 0.50547 0.35751 0.21444 0.0
N622 N 0.43835 0.28009 0.10337 0.0
N623 N 0.48635 0.34938 0.16994 0.0
loop_
_geom_bond_atom_site_label_1
_geom_bond_atom_site_label_2
_geom_bond_distance
_geom_bond_site_symmetry_2
_ccdc_geom_bond_type
Zn0 O2 1.933 1_556 S
Zn0 O20 1.985 . S
Zn0 O31 1.955 . S
Zn1 O2 1.911 . S
Zn1 O21 1.970 . S
Zn1 O37 1.945 . S
Zn1 O44 1.981 . S
O2 Zn0 1.933 1_554 S
O2 Zn1 1.911 . S
O2 H3 0.841 1_655 S
H3 O2 0.841 1_455 S
C4 O5 1.246 . S
C4 O33 1.276 1_545 S
O5 C4 1.246 . S
Zn6 O8 1.911 . S
Zn6 O23 1.970 . S
Zn6 O40 1.945 . S
Zn6 O47 1.981 . S
Zn7 O8 1.933 1_556 S
Zn7 O22 1.985 . S
Zn7 O29 1.955 . S
O8 Zn6 1.911 . S
O8 Zn7 1.933 1_554 S
O8 H9 0.841 1_455 S
H9 O8 0.841 1_655 S
Zn10 O11 1.933 1_556 S
Zn10 O24 1.985 . S
Zn10 O33 1.955 . S
O11 Zn10 1.933 1_554 S
O11 Zn12 1.911 . S
O11 H13 0.841 1_565 S
Zn12 O11 1.911 . S
Zn12 O25 1.970 . S
Zn12 O41 1.981 . S
Zn12 O43 1.945 . S
H13 O11 0.841 1_545 S
Zn14 O15 1.933 1_556 S
Zn14 O27 1.985 . S
Zn14 O35 1.955 . S
O15 Zn14 1.933 1_554 S
O15 H16 0.841 1_545 S
O15 Zn17 1.911 . S
H16 O15 0.841 1_565 S
Zn17 O15 1.911 . S
Zn17 O28 1.970 . S
Zn17 O38 1.981 . S
Zn17 O46 1.945 . S
C18 O19 1.246 . S
C18 O35 1.276 1_565 S
O19 C18 1.246 . S
O20 Zn0 1.985 . S
O20 C30 1.245 1_556 S
O21 Zn1 1.970 . S
O21 C30 1.263 . S
O22 Zn7 1.985 . S
O22 C34 1.245 1_556 S
O23 Zn6 1.970 . S
O23 C34 1.263 . S
O24 Zn10 1.985 . S
O24 C39 1.245 1_556 S
O25 Zn12 1.970 . S
O25 C39 1.263 . S
C26 O37 1.262 1_455 S
C26 O38 1.245 . S
O27 Zn14 1.985 . S
O27 C45 1.245 1_556 S
O28 Zn17 1.970 . S
O28 C45 1.263 . S
O29 Zn7 1.955 . S
O29 C48 1.276 1_455 S
C30 O20 1.245 1_554 S
C30 O21 1.263 . S
O31 Zn0 1.955 . S
O31 C50 1.276 1_655 S
C32 O40 1.262 1_655 S
C32 O41 1.245 . S
O33 C4 1.276 1_565 S
O33 Zn10 1.955 . S
C34 O22 1.245 1_554 S
C34 O23 1.263 . S
O35 Zn14 1.955 . S
O35 C18 1.276 1_545 S
C36 O43 1.262 1_545 S
C36 O44 1.245 . S
O37 Zn1 1.945 . S
O37 C26 1.262 1_655 S
O38 Zn17 1.981 . S
O38 C26 1.245 . S
C39 O24 1.245 1_554 S
C39 O25 1.263 . S
O40 Zn6 1.945 . S
O40 C32 1.262 1_455 S
O41 Zn12 1.981 . S
O41 C32 1.245 . S
C42 O46 1.262 1_565 S
C42 O47 1.245 . S
O43 Zn12 1.945 . S
O43 C36 1.262 1_565 S
O44 Zn1 1.981 . S
O44 C36 1.245 . S
C45 O27 1.245 1_554 S
C45 O28 1.263 . S
O46 Zn17 1.945 . S
O46 C42 1.262 1_545 S
O47 Zn6 1.981 . S
O47 C42 1.245 . S
C48 O29 1.276 1_655 S
C48 O49 1.246 . S
O49 C48 1.246 . S
C50 O31 1.276 1_455 S
C50 O51 1.246 . S
O51 C50 1.246 . S
Zn52 O54 1.933 . S
Zn52 O72 1.985 . S
Zn52 O83 1.955 . S
Zn53 O54 1.911 . S
Zn53 O73 1.970 . S
Zn53 O89 1.945 . S
Zn53 O96 1.981 . S
O54 Zn52 1.933 . S
O54 Zn53 1.911 . S
O54 H55 0.841 . S
H55 O54 0.841 . S
C56 O57 1.246 . S
C56 O85 1.276 . S
O57 C56 1.246 . S
Zn58 O60 1.911 . S
Zn58 O75 1.970 . S
Zn58 O92 1.945 . S
Zn58 O99 1.981 . S
Zn59 O60 1.933 . S
Zn59 O74 1.985 . S
Zn59 O81 1.955 . S
O60 Zn58 1.911 . S
O60 Zn59 1.933 . S
O60 H61 0.841 . S
H61 O60 0.841 . S
Zn62 O63 1.933 . S
Zn62 O76 1.985 . S
Zn62 O85 1.955 . S
O63 Zn62 1.933 . S
O63 Zn64 1.911 . S
O63 H65 0.841 . S
Zn64 O63 1.911 . S
Zn64 O77 1.970 . S
Zn64 O93 1.981 . S
Zn64 O95 1.945 . S
H65 O63 0.841 . S
Zn66 O67 1.933 . S
Zn66 O79 1.985 . S
Zn66 O87 1.955 . S
O67 Zn66 1.933 . S
O67 H68 0.841 . S
O67 Zn69 1.911 . S
H68 O67 0.841 . S
Zn69 O67 1.911 . S
Zn69 O80 1.970 . S
Zn69 O90 1.981 . S
Zn69 O98 1.945 . S
C70 O71 1.246 . S
C70 O87 1.276 . S
O71 C70 1.246 . S
O72 Zn52 1.985 . S
O72 C82 1.245 . S
O73 Zn53 1.970 . S
O73 C82 1.263 . S
O74 Zn59 1.985 . S
O74 C86 1.245 . S
O75 Zn58 1.970 . S
O75 C86 1.263 . S
O76 Zn62 1.985 . S
O76 C91 1.245 . S
O77 Zn64 1.970 . S
O77 C91 1.263 . S
C78 O89 1.262 . S
C78 O90 1.245 . S
O79 Zn66 1.985 . S
O79 C97 1.245 . S
O80 Zn69 1.970 . S
O80 C97 1.263 . S
O81 Zn59 1.955 . S
O81 C100 1.276 . S
C82 O72 1.245 . S
C82 O73 1.263 . S
O83 Zn52 1.955 . S
O83 C102 1.276 . S
C84 O92 1.262 . S
C84 O93 1.245 . S
O85 C56 1.276 . S
O85 Zn62 1.955 . S
C86 O74 1.245 . S
C86 O75 1.263 . S
O87 Zn66 1.955 . S
O87 C70 1.276 . S
C88 O95 1.262 . S
C88 O96 1.245 . S
O89 Zn53 1.945 . S
O89 C78 1.262 . S
O90 Zn69 1.981 . S
O90 C78 1.245 . S
C91 O76 1.245 . S
C91 O77 1.263 . S
O92 Zn58 1.945 . S
O92 C84 1.262 . S
O93 Zn64 1.981 . S
O93 C84 1.245 . S
C94 O98 1.262 . S
C94 O99 1.245 . S
O95 Zn64 1.945 . S
O95 C88 1.262 . S
O96 Zn53 1.981 . S
O96 C88 1.245 . S
C97 O79 1.245 . S
C97 O80 1.263 . S
O98 Zn69 1.945 . S
O98 C94 1.262 . S
O99 Zn58 1.981 . S
O99 C94 1.245 . S
C100 O81 1.276 . S
C100 O101 1.246 . S
O101 C100 1.246 . S
C102 O83 1.276 . S
C102 O103 1.246 . S
O103 C102 1.246 . S
H104 C107 0.929 . S
H105 C110 0.929 . S
H106 C112 0.930 . S
C107 H104 0.929 . S
C107 C108 1.398 1_554 S
C107 C109 1.396 . S
C108 C107 1.398 1_556 S
C108 C112 1.407 . S
C109 C107 1.396 . S
C109 C110 1.394 . S
C110 H105 0.929 . S
C110 C109 1.394 . S
C110 C111 1.382 1_554 S
C111 C110 1.382 1_556 S
C111 C112 1.392 . S
C111 N113 1.420 . S
C112 H106 0.930 . S
C112 C108 1.407 . S
C112 C111 1.392 . S
N113 C111 1.420 . S
N113 C114 1.244 1_556 S
C114 N113 1.244 1_554 S
H115 C118 0.929 . S
H116 C121 0.929 . S
H117 C123 0.930 . S
C118 H115 0.929 . S
C118 C119 1.398 1_554 S
C118 C120 1.396 . S
C119 C118 1.398 1_556 S
C119 C123 1.407 . S
C120 C118 1.396 . S
C120 C121 1.394 . S
C121 H116 0.929 . S
C121 C120 1.394 . S
C121 C122 1.382 . S
C122 C121 1.382 . S
C122 C123 1.392 1_554 S
C122 N124 1.420 1_554 S
C123 H117 0.930 . S
C123 C119 1.407 . S
C123 C122 1.392 1_556 S
N124 C122 1.420 1_556 S
N124 C125 1.244 1_556 S
C125 N124 1.244 1_554 S
H126 C129 0.929 . S
H127 C132 0.929 . S
H128 C134 0.930 . S
C129 H126 0.929 . S
C129 C130 1.398 . S
C129 C131 1.396 1_554 S
C130 C129 1.398 . S
C130 C134 1.407 . S
C131 C129 1.396 1_556 S
C131 C132 1.394 . S
C132 H127 0.929 . S
C132 C131 1.394 . S
C132 C133 1.382 1_556 S
C133 C132 1.382 1_554 S
C133 C134 1.392 . S
C133 N135 1.420 . S
C134 H128 0.930 . S
C134 C130 1.407 . S
C134 C133 1.392 . S
N135 C133 1.420 . S
N135 C136 1.244 . S
C136 N135 1.244 . S
H137 C140 0.929 . S
H138 C143 0.929 . S
H139 C145 0.930 . S
C140 H137 0.929 . S
C140 C141 1.398 . S
C140 C142 1.396 1_554 S
C141 C140 1.398 . S
C141 C145 1.407 . S
C142 C140 1.396 1_556 S
C142 C143 1.394 . S
C143 H138 0.929 . S
C143 C142 1.394 . S
C143 C144 1.382 1_556 S
C144 C143 1.382 1_554 S
C144 C145 1.392 . S
C144 N146 1.420 . S
C145 H139 0.930 . S
C145 C141 1.407 . S
C145 C144 1.392 . S
N146 C144 1.420 . S
N146 C147 1.244 1_554 S
C147 N146 1.244 1_556 S
H148 C151 0.929 . S
H149 C154 0.929 . S
H150 C156 0.930 . S
C151 H148 0.929 . S
C151 C152 1.398 . S
C151 C153 1.396 . S
C152 C151 1.398 . S
C152 C156 1.407 . S
C153 C151 1.396 . S
C153 C154 1.394 . S
C154 H149 0.929 . S
C154 C153 1.394 . S
C154 C155 1.382 . S
C155 C154 1.382 . S
C155 C156 1.392 . S
C155 N157 1.420 . S
C156 H150 0.930 . S
C156 C152 1.407 . S
C156 C155 1.392 . S
N157 C155 1.420 . S
N157 C158 1.244 . S
C158 N157 1.244 . S
H159 C162 0.929 . S
H160 C165 0.929 . S
H161 C167 0.930 . S
C162 H159 0.929 . S
C162 C163 1.398 . S
C162 C164 1.396 . S
C163 C162 1.398 . S
C163 C167 1.407 . S
C164 C162 1.396 . S
C164 C165 1.394 . S
C165 H160 0.929 . S
C165 C164 1.394 . S
C165 C166 1.382 . S
C166 C165 1.382 . S
C166 C167 1.392 . S
C166 N168 1.420 . S
C167 H161 0.930 . S
C167 C163 1.407 . S
C167 C166 1.392 . S
N168 C166 1.420 . S
N168 C169 1.244 . S
C169 N168 1.244 . S
H170 C173 0.929 . S
H171 C176 0.929 . S
H172 C178 0.930 . S
C173 H170 0.929 . S
C173 C174 1.398 . S
C173 C175 1.396 . S
C174 C173 1.398 . S
C174 C178 1.407 . S
C175 C173 1.396 . S
C175 C176 1.394 . S
C176 H171 0.929 . S
C176 C175 1.394 . S
C176 C177 1.382 . S
C177 C176 1.382 . S
C177 C178 1.392 . S
C177 N179 1.420 . S
C178 H172 0.930 . S
C178 C174 1.407 . S
C178 C177 1.392 . S
N179 C177 1.420 . S
N179 C180 1.244 . S
C180 N179 1.244 . S
H181 C184 0.929 . S
H182 C187 0.929 . S
H183 C189 0.930 . S
C184 H181 0.929 . S
C184 C185 1.398 . S
C184 C186 1.396 . S
C185 C184 1.398 . S
C185 C189 1.407 . S
C186 C184 1.396 . S
C186 C187 1.394 . S
C187 H182 0.929 . S
C187 C186 1.394 . S
C187 C188 1.382 . S
C188 C187 1.382 . S
C188 C189 1.392 . S
C188 N190 1.420 . S
C189 H183 0.930 . S
C189 C185 1.407 . S
C189 C188 1.392 . S
N190 C188 1.420 . S
N190 C191 1.244 . S
C191 N190 1.244 . S
H192 C198 0.930 . S
H193 C202 0.930 . S
H194 C207 0.929 . S
H195 C205 0.929 . S
H196 C200 0.929 . S
H197 C206 0.929 . S
C198 H192 0.930 . S
C198 C199 1.367 1_556 S
C198 C206 1.378 . S
C199 C198 1.367 1_554 S
C199 C207 1.433 . S
C200 H196 0.929 . S
C200 C202 1.378 . S
C200 C204 1.350 . S
C201 C204 1.463 . S
C201 C206 1.350 1_554 S
C201 N209 1.427 . S
C202 H193 0.930 . S
C202 C200 1.378 . S
C202 C203 1.367 . S
C203 C202 1.367 . S
C203 C205 1.433 1_554 S
C204 C200 1.350 . S
C204 C201 1.463 . S
C204 N208 1.427 1_554 S
C205 H195 0.929 . S
C205 C203 1.433 1_556 S
C205 N208 1.384 . S
C206 H197 0.929 . S
C206 C198 1.378 . S
C206 C201 1.350 1_556 S
C207 H194 0.929 . S
C207 C199 1.433 . S
C207 N209 1.384 . S
N208 C204 1.427 1_556 S
N208 C205 1.384 . S
N209 C201 1.427 . S
N209 C207 1.384 . S
H210 C216 0.930 . S
H211 C220 0.930 . S
H212 C225 0.929 . S
H213 C223 0.929 . S
H214 C218 0.929 . S
H215 C224 0.929 . S
C216 H210 0.930 . S
C216 C217 1.367 1_556 S
C216 C224 1.378 . S
C217 C216 1.367 1_554 S
C217 C225 1.433 . S
C218 H214 0.929 . S
C218 C220 1.378 . S
C218 C222 1.350 . S
C219 C222 1.463 . S
C219 C224 1.350 1_554 S
C219 N227 1.427 . S
C220 H211 0.930 . S
C220 C218 1.378 . S
C220 C221 1.367 . S
C221 C220 1.367 . S
C221 C223 1.433 1_554 S
C222 C218 1.350 . S
C222 C219 1.463 . S
C222 N226 1.427 1_554 S
C223 H213 0.929 . S
C223 C221 1.433 1_556 S
C223 N226 1.384 . S
C224 H215 0.929 . S
C224 C216 1.378 . S
C224 C219 1.350 1_556 S
C225 H212 0.929 . S
C225 C217 1.433 . S
C225 N227 1.384 . S
N226 C222 1.427 1_556 S
N226 C223 1.384 . S
N227 C219 1.427 . S
N227 C225 1.384 . S
H228 C234 0.930 . S
H229 C238 0.930 . S
H230 C243 0.929 . S
H231 C241 0.929 . S
H232 C236 0.929 . S
H233 C242 0.929 . S
C234 H228 0.930 . S
C234 C235 1.367 1_556 S
C234 C242 1.378 . S
C235 C234 1.367 1_554 S
C235 C243 1.433 . S
C236 H232 0.929 . S
C236 C238 1.378 . S
C236 C240 1.350 . S
C237 C240 1.463 . S
C237 C242 1.350 1_554 S
C237 N245 1.427 . S
C238 H229 0.930 . S
C238 C236 1.378 . S
C238 C239 1.367 . S
C239 C238 1.367 . S
C239 C241 1.433 1_554 S
C240 C236 1.350 . S
C240 C237 1.463 . S
C240 N244 1.427 1_554 S
C241 H231 0.929 . S
C241 C239 1.433 1_556 S
C241 N244 1.384 . S
C242 H233 0.929 . S
C242 C234 1.378 . S
C242 C237 1.350 1_556 S
C243 H230 0.929 . S
C243 C235 1.433 . S
C243 N245 1.384 . S
N244 C240 1.427 1_556 S
N244 C241 1.384 . S
N245 C237 1.427 . S
N245 C243 1.384 . S
H246 C252 0.930 . S
H247 C256 0.930 . S
H248 C261 0.929 . S
H249 C259 0.929 . S
H250 C254 0.929 . S
H251 C260 0.929 . S
C252 H246 0.930 . S
C252 C253 1.367 1_556 S
C252 C260 1.378 . S
C253 C252 1.367 1_554 S
C253 C261 1.433 . S
C254 H250 0.929 . S
C254 C256 1.378 . S
C254 C258 1.350 . S
C255 C258 1.463 . S
C255 C260 1.350 1_554 S
C255 N263 1.427 . S
C256 H247 0.930 . S
C256 C254 1.378 . S
C256 C257 1.367 . S
C257 C256 1.367 . S
C257 C259 1.433 1_554 S
C258 C254 1.350 . S
C258 C255 1.463 . S
C258 N262 1.427 1_554 S
C259 H249 0.929 . S
C259 C257 1.433 1_556 S
C259 N262 1.384 . S
C260 H251 0.929 . S
C260 C252 1.378 . S
C260 C255 1.350 1_556 S
C261 H248 0.929 . S
C261 C253 1.433 . S
C261 N263 1.384 . S
N262 C258 1.427 1_556 S
N262 C259 1.384 . S
N263 C255 1.427 . S
N263 C261 1.384 . S
H264 C270 0.930 . S
H265 C274 0.930 . S
H266 C279 0.929 . S
H267 C277 0.929 . S
H268 C272 0.929 . S
H269 C278 0.929 . S
C270 H264 0.930 . S
C270 C271 1.367 . S
C270 C278 1.378 . S
C271 C270 1.367 . S
C271 C279 1.433 . S
C272 H268 0.929 . S
C272 C274 1.378 . S
C272 C276 1.350 . S
C273 C276 1.463 . S
C273 C278 1.350 . S
C273 N281 1.427 . S
C274 H265 0.930 . S
C274 C272 1.378 . S
C274 C275 1.367 . S
C275 C274 1.367 . S
C275 C277 1.433 . S
C276 C272 1.350 . S
C276 C273 1.463 . S
C276 N280 1.427 . S
C277 H267 0.929 . S
C277 C275 1.433 . S
C277 N280 1.384 . S
C278 H269 0.929 . S
C278 C270 1.378 . S
C278 C273 1.350 . S
C279 H266 0.929 . S
C279 C271 1.433 . S
C279 N281 1.384 . S
N280 C276 1.427 . S
N280 C277 1.384 . S
N281 C273 1.427 . S
N281 C279 1.384 . S
H282 C288 0.930 . S
H283 C292 0.930 . S
H284 C297 0.929 . S
H285 C295 0.929 . S
H286 C290 0.929 . S
H287 C296 0.929 . S
C288 H282 0.930 . S
C288 C289 1.367 . S
C288 C296 1.378 . S
C289 C288 1.367 . S
C289 C297 1.433 . S
C290 H286 0.929 . S
C290 C292 1.378 . S
C290 C294 1.350 . S
C291 C294 1.463 . S
C291 C296 1.350 . S
C291 N299 1.427 . S
C292 H283 0.930 . S
C292 C290 1.378 . S
C292 C293 1.367 . S
C293 C292 1.367 . S
C293 C295 1.433 . S
C294 C290 1.350 . S
C294 C291 1.463 . S
C294 N298 1.427 . S
C295 H285 0.929 . S
C295 C293 1.433 . S
C295 N298 1.384 . S
C296 H287 0.929 . S
C296 C288 1.378 . S
C296 C291 1.350 . S
C297 H284 0.929 . S
C297 C289 1.433 . S
C297 N299 1.384 . S
N298 C294 1.427 . S
N298 C295 1.384 . S
N299 C291 1.427 . S
N299 C297 1.384 . S
H300 C306 0.930 . S
H301 C310 0.930 . S
H302 C315 0.929 . S
H303 C313 0.929 . S
H304 C308 0.929 . S
H305 C314 0.929 . S
C306 H300 0.930 . S
C306 C307 1.367 . S
C306 C314 1.378 . S
C307 C306 1.367 . S
C307 C315 1.433 . S
C308 H304 0.929 . S
C308 C310 1.378 . S
C308 C312 1.350 . S
C309 C312 1.463 . S
C309 C314 1.350 . S
C309 N317 1.427 . S
C310 H301 0.930 . S
C310 C308 1.378 . S
C310 C311 1.367 . S
C311 C310 1.367 . S
C311 C313 1.433 . S
C312 C308 1.350 . S
C312 C309 1.463 . S
C312 N316 1.427 . S
C313 H303 0.929 . S
C313 C311 1.433 . S
C313 N316 1.384 . S
C314 H305 0.929 . S
C314 C306 1.378 . S
C314 C309 1.350 . S
C315 H302 0.929 . S
C315 C307 1.433 . S
C315 N317 1.384 . S
N316 C312 1.427 . S
N316 C313 1.384 . S
N317 C309 1.427 . S
N317 C315 1.384 . S
H318 C324 0.930 . S
H319 C328 0.930 . S
H320 C333 0.929 . S
H321 C331 0.929 . S
H322 C326 0.929 . S
H323 C332 0.929 . S
C324 H318 0.930 . S
C324 C325 1.367 . S
C324 C332 1.378 . S
C325 C324 1.367 . S
C325 C333 1.433 . S
C326 H322 0.929 . S
C326 C328 1.378 . S
C326 C330 1.350 . S
C327 C330 1.463 . S
C327 C332 1.350 . S
C327 N335 1.427 . S
C328 H319 0.930 . S
C328 C326 1.378 . S
C328 C329 1.367 . S
C329 C328 1.367 . S
C329 C331 1.433 . S
C330 C326 1.350 . S
C330 C327 1.463 . S
C330 N334 1.427 . S
C331 H321 0.929 . S
C331 C329 1.433 . S
C331 N334 1.384 . S
C332 H323 0.929 . S
C332 C324 1.378 . S
C332 C327 1.350 . S
C333 H320 0.929 . S
C333 C325 1.433 . S
C333 N335 1.384 . S
N334 C330 1.427 . S
N334 C331 1.384 . S
N335 C327 1.427 . S
N335 C333 1.384 . S
H336 C342 0.930 . S
H337 C346 0.930 . S
H338 C351 0.929 . S
H339 C349 0.929 . S
H340 C344 0.929 . S
H341 C350 0.929 . S
C342 H336 0.930 . S
C342 C343 1.367 . S
C342 C350 1.378 . S
C343 C342 1.367 . S
C343 C351 1.433 . S
C344 H340 0.929 . S
C344 C346 1.378 . S
C344 C348 1.350 . S
C345 C348 1.463 . S
C345 C350 1.350 . S
C345 N353 1.427 . S
C346 H337 0.930 . S
C346 C344 1.378 . S
C346 C347 1.367 . S
C347 C346 1.367 . S
C347 C349 1.433 . S
C348 C344 1.350 . S
C348 C345 1.463 . S
C348 N352 1.427 . S
C349 H339 0.929 . S
C349 C347 1.433 . S
C349 N352 1.384 . S
C350 H341 0.929 . S
C350 C342 1.378 . S
C350 C345 1.350 . S
C351 H338 0.929 . S
C351 C343 1.433 . S
C351 N353 1.384 . S
N352 C348 1.427 . S
N352 C349 1.384 . S
N353 C345 1.427 . S
N353 C351 1.384 . S
H354 C360 0.930 . S
H355 C364 0.930 . S
H356 C369 0.929 . S
H357 C367 0.929 . S
H358 C362 0.929 . S
H359 C368 0.929 . S
C360 H354 0.930 . S
C360 C361 1.367 . S
C360 C368 1.378 . S
C361 C360 1.367 . S
C361 C369 1.433 . S
C362 H358 0.929 . S
C362 C364 1.378 . S
C362 C366 1.350 . S
C363 C366 1.463 . S
C363 C368 1.350 . S
C363 N371 1.427 . S
C364 H355 0.930 . S
C364 C362 1.378 . S
C364 C365 1.367 . S
C365 C364 1.367 . S
C365 C367 1.433 . S
C366 C362 1.350 . S
C366 C363 1.463 . S
C366 N370 1.427 . S
C367 H357 0.929 . S
C367 C365 1.433 . S
C367 N370 1.384 . S
C368 H359 0.929 . S
C368 C360 1.378 . S
C368 C363 1.350 . S
C369 H356 0.929 . S
C369 C361 1.433 . S
C369 N371 1.384 . S
N370 C366 1.427 . S
N370 C367 1.384 . S
N371 C363 1.427 . S
N371 C369 1.384 . S
H372 C378 0.930 . S
H373 C382 0.930 . S
H374 C387 0.929 1_455 S
H375 C385 0.929 . S
H376 C380 0.929 . S
H377 C386 0.929 . S
C378 H372 0.930 . S
C378 C379 1.367 . S
C378 C386 1.378 . S
C379 C378 1.367 . S
C379 C387 1.433 . S
C380 H376 0.929 . S
C380 C382 1.378 . S
C380 C384 1.350 . S
C381 C384 1.463 . S
C381 C386 1.350 . S
C381 N389 1.427 . S
C382 H373 0.930 . S
C382 C380 1.378 . S
C382 C383 1.367 . S
C383 C382 1.367 . S
C383 C385 1.433 . S
C384 C380 1.350 . S
C384 C381 1.463 . S
C384 N388 1.427 . S
C385 H375 0.929 . S
C385 C383 1.433 . S
C385 N388 1.384 . S
C386 H377 0.929 . S
C386 C378 1.378 . S
C386 C381 1.350 . S
C387 H374 0.929 1_655 S
C387 C379 1.433 . S
C387 N389 1.384 . S
N388 C384 1.427 . S
N388 C385 1.384 . S
N389 C381 1.427 . S
N389 C387 1.384 . S
H390 C396 0.930 . S
H391 C400 0.930 . S
H392 C405 0.929 . S
H393 C403 0.929 . S
H394 C398 0.929 . S
H395 C404 0.929 . S
C396 H390 0.930 . S
C396 C397 1.367 . S
C396 C404 1.378 . S
C397 C396 1.367 . S
C397 C405 1.433 . S
C398 H394 0.929 . S
C398 C400 1.378 . S
C398 C402 1.350 . S
C399 C402 1.463 . S
C399 C404 1.350 . S
C399 N407 1.427 . S
C400 H391 0.930 . S
C400 C398 1.378 . S
C400 C401 1.367 . S
C401 C400 1.367 . S
C401 C403 1.433 . S
C402 C398 1.350 . S
C402 C399 1.463 . S
C402 N406 1.427 . S
C403 H393 0.929 . S
C403 C401 1.433 . S
C403 N406 1.384 . S
C404 H395 0.929 . S
C404 C396 1.378 . S
C404 C399 1.350 . S
C405 H392 0.929 . S
C405 C397 1.433 . S
C405 N407 1.384 . S
N406 C402 1.427 . S
N406 C403 1.384 . S
N407 C399 1.427 . S
N407 C405 1.384 . S
H408 C414 0.934 . S
H409 C418 0.930 . S
H410 C423 0.929 . S
H411 C421 0.929 . S
H412 C416 0.929 . S
H413 C422 0.929 . S
C414 H408 0.934 . S
C414 C415 1.367 . S
C414 C422 1.378 . S
C415 C414 1.367 . S
C415 C423 1.433 . S
C416 H412 0.929 . S
C416 C418 1.378 . S
C416 C420 1.350 . S
C417 C420 1.463 . S
C417 C422 1.350 . S
C417 N425 1.427 . S
C418 H409 0.930 . S
C418 C416 1.378 . S
C418 C419 1.367 . S
C419 C418 1.367 . S
C419 C421 1.433 . S
C420 C416 1.350 . S
C420 C417 1.463 . S
C420 N424 1.427 . S
C421 H411 0.929 . S
C421 C419 1.433 . S
C421 N424 1.384 . S
C422 H413 0.929 . S
C422 C414 1.378 . S
C422 C417 1.350 . S
C423 H410 0.929 . S
C423 C415 1.433 . S
C423 N425 1.384 . S
N424 C420 1.427 . S
N424 C421 1.384 . S
N425 C417 1.427 . S
N425 C423 1.384 . S
H426 C432 0.930 . S
H427 C436 0.930 . S
H428 C441 0.929 1_655 S
H429 C439 0.929 . S
H430 C434 0.929 . S
H431 C440 0.929 . S
C432 H426 0.930 . S
C432 C433 1.367 . S
C432 C440 1.378 . S
C433 C432 1.367 . S
C433 C441 1.433 . S
C434 H430 0.929 . S
C434 C436 1.378 . S
C434 C438 1.350 . S
C435 C438 1.463 . S
C435 C440 1.350 . S
C435 N443 1.427 . S
C436 H427 0.930 . S
C436 C434 1.378 . S
C436 C437 1.367 . S
C437 C436 1.367 . S
C437 C439 1.433 . S
C438 C434 1.350 . S
C438 C435 1.463 . S
C438 N442 1.427 . S
C439 H429 0.929 . S
C439 C437 1.433 . S
C439 N442 1.384 . S
C440 H431 0.929 . S
C440 C432 1.378 . S
C440 C435 1.350 . S
C441 H428 0.929 1_455 S
C441 C433 1.433 . S
C441 N443 1.384 . S
N442 C438 1.427 . S
N442 C439 1.384 . S
N443 C435 1.427 . S
N443 C441 1.384 . S
H444 C450 0.930 . S
H445 C454 0.930 . S
H446 C459 0.929 . S
H447 C457 0.929 . S
H448 C452 0.929 . S
H449 C458 0.929 . S
C450 H444 0.930 . S
C450 C451 1.367 . S
C450 C458 1.378 . S
C451 C450 1.367 . S
C451 C459 1.433 . S
C452 H448 0.929 . S
C452 C454 1.378 . S
C452 C456 1.350 . S
C453 C456 1.463 . S
C453 C458 1.350 . S
C453 N461 1.427 . S
C454 H445 0.930 . S
C454 C452 1.378 . S
C454 C455 1.367 . S
C455 C454 1.367 . S
C455 C457 1.433 . S
C456 C452 1.350 . S
C456 C453 1.463 . S
C456 N460 1.427 . S
C457 H447 0.929 . S
C457 C455 1.433 . S
C457 N460 1.384 . S
C458 H449 0.929 . S
C458 C450 1.378 . S
C458 C453 1.350 . S
C459 H446 0.929 . S
C459 C451 1.433 . S
C459 N461 1.384 . S
N460 C456 1.427 . S
N460 C457 1.384 . S
N461 C453 1.427 . S
N461 C459 1.384 . S
H462 C468 0.930 . S
H463 C472 0.930 . S
H464 C477 0.929 1_455 S
H465 C475 0.929 . S
H466 C470 0.929 . S
H467 C476 0.929 . S
C468 H462 0.930 . S
C468 C469 1.367 . S
C468 C476 1.378 . S
C469 C468 1.367 . S
C469 C477 1.433 . S
C470 H466 0.929 . S
C470 C472 1.378 . S
C470 C474 1.350 . S
C471 C474 1.463 . S
C471 C476 1.350 . S
C471 N479 1.427 . S
C472 H463 0.930 . S
C472 C470 1.378 . S
C472 C473 1.367 . S
C473 C472 1.367 . S
C473 C475 1.433 . S
C474 C470 1.350 . S
C474 C471 1.463 . S
C474 N478 1.427 . S
C475 H465 0.929 . S
C475 C473 1.433 . S
C475 N478 1.384 . S
C476 H467 0.929 . S
C476 C468 1.378 . S
C476 C471 1.350 . S
C477 H464 0.929 1_655 S
C477 C469 1.433 . S
C477 N479 1.384 . S
N478 C474 1.427 . S
N478 C475 1.384 . S
N479 C471 1.427 . S
N479 C477 1.384 . S
H480 C486 0.930 . S
H481 C490 0.930 . S
H482 C495 0.929 . S
H483 C493 0.929 . S
H484 C488 0.929 . S
H485 C494 0.929 . S
C486 H480 0.930 . S
C486 C487 1.367 . S
C486 C494 1.378 . S
C487 C486 1.367 . S
C487 C495 1.433 . S
C488 H484 0.929 . S
C488 C490 1.378 . S
C488 C492 1.350 . S
C489 C492 1.463 . S
C489 C494 1.350 . S
C489 N497 1.427 . S
C490 H481 0.930 . S
C490 C488 1.378 . S
C490 C491 1.367 . S
C491 C490 1.367 . S
C491 C493 1.433 . S
C492 C488 1.350 . S
C492 C489 1.463 . S
C492 N496 1.427 . S
C493 H483 0.929 . S
C493 C491 1.433 . S
C493 N496 1.384 . S
C494 H485 0.929 . S
C494 C486 1.378 . S
C494 C489 1.350 . S
C495 H482 0.929 . S
C495 C487 1.433 . S
C495 N497 1.384 . S
N496 C492 1.427 . S
N496 C493 1.384 . S
N497 C489 1.427 . S
N497 C495 1.384 . S
H498 C504 0.930 . S
H499 C508 0.930 . S
H500 C513 0.929 . S
H501 C511 0.929 . S
H502 C506 0.929 . S
H503 C512 0.929 . S
C504 H498 0.930 . S
C504 C505 1.367 . S
C504 C512 1.378 . S
C505 C504 1.367 . S
C505 C513 1.433 . S
C506 H502 0.929 . S
C506 C508 1.378 . S
C506 C510 1.350 . S
C507 C510 1.463 . S
C507 C512 1.350 . S
C507 N515 1.427 . S
C508 H499 0.930 . S
C508 C506 1.378 . S
C508 C509 1.367 . S
C509 C508 1.367 . S
C509 C511 1.433 . S
C510 C506 1.350 . S
C510 C507 1.463 . S
C510 N514 1.427 . S
C511 H501 0.929 . S
C511 C509 1.433 . S
C511 N514 1.384 . S
C512 H503 0.929 . S
C512 C504 1.378 . S
C512 C507 1.350 . S
C513 H500 0.929 . S
C513 C505 1.433 . S
C513 N515 1.384 . S
N514 C510 1.427 . S
N514 C511 1.384 . S
N515 C507 1.427 . S
N515 C513 1.384 . S
H516 C522 0.930 . S
H517 C526 0.930 . S
H518 C531 0.929 . S
H519 C529 0.929 . S
H520 C524 0.929 . S
H521 C530 0.929 . S
C522 H516 0.930 . S
C522 C523 1.367 . S
C522 C530 1.378 . S
C523 C522 1.367 . S
C523 C531 1.433 . S
C524 H520 0.929 . S
C524 C526 1.378 . S
C524 C528 1.350 . S
C525 C528 1.463 . S
C525 C530 1.350 . S
C525 N533 1.427 . S
C526 H517 0.930 . S
C526 C524 1.378 . S
C526 C527 1.367 . S
C527 C526 1.367 . S
C527 C529 1.433 . S
C528 C524 1.350 . S
C528 C525 1.463 . S
C528 N532 1.427 . S
C529 H519 0.929 . S
C529 C527 1.433 . S
C529 N532 1.384 . S
C530 H521 0.929 . S
C530 C522 1.378 . S
C530 C525 1.350 . S
C531 H518 0.929 . S
C531 C523 1.433 . S
C531 N533 1.384 . S
N532 C528 1.427 . S
N532 C529 1.384 . S
N533 C525 1.427 . S
N533 C531 1.384 . S
H534 C540 0.930 . S
H535 C544 0.930 . S
H536 C549 0.929 . S
H537 C547 0.929 . S
H538 C542 0.929 . S
H539 C548 0.929 . S
C540 H534 0.930 . S
C540 C541 1.367 . S
C540 C548 1.378 . S
C541 C540 1.367 . S
C541 C549 1.433 . S
C542 H538 0.929 . S
C542 C544 1.378 . S
C542 C546 1.350 . S
C543 C546 1.463 . S
C543 C548 1.350 . S
C543 N551 1.427 . S
C544 H535 0.930 . S
C544 C542 1.378 . S
C544 C545 1.367 . S
C545 C544 1.367 . S
C545 C547 1.433 . S
C546 C542 1.350 . S
C546 C543 1.463 . S
C546 N550 1.427 . S
C547 H537 0.929 . S
C547 C545 1.433 . S
C547 N550 1.384 . S
C548 H539 0.929 . S
C548 C540 1.378 . S
C548 C543 1.350 . S
C549 H536 0.929 . S
C549 C541 1.433 . S
C549 N551 1.384 . S
N550 C546 1.427 . S
N550 C547 1.384 . S
N551 C543 1.427 . S
N551 C549 1.384 . S
H552 C558 0.930 . S
H553 C562 0.930 . S
H554 C567 0.929 . S
H555 C565 0.929 . S
H556 C560 0.929 . S
H557 C566 0.929 . S
C558 H552 0.930 . S
C558 C559 1.367 . S
C558 C566 1.378 . S
C559 C558 1.367 . S
C559 C567 1.433 . S
C560 H556 0.929 . S
C560 C562 1.378 . S
C560 C564 1.350 . S
C561 C564 1.463 . S
C561 C566 1.350 . S
C561 N569 1.427 . S
C562 H553 0.930 . S
C562 C560 1.378 . S
C562 C563 1.367 . S
C563 C562 1.367 . S
C563 C565 1.433 . S
C564 C560 1.350 . S
C564 C561 1.463 . S
C564 N568 1.427 . S
C565 H555 0.929 . S
C565 C563 1.433 . S
C565 N568 1.384 . S
C566 H557 0.929 . S
C566 C558 1.378 . S
C566 C561 1.350 . S
C567 H554 0.929 . S
C567 C559 1.433 . S
C567 N569 1.384 . S
N568 C564 1.427 . S
N568 C565 1.384 . S
N569 C561 1.427 . S
N569 C567 1.384 . S
H570 C576 0.930 . S
H571 C580 0.930 . S
H572 C585 0.929 . S
H573 C583 0.929 . S
H574 C578 0.929 . S
H575 C584 0.929 . S
C576 H570 0.930 . S
C576 C577 1.367 . S
C576 C584 1.378 . S
C577 C576 1.367 . S
C577 C585 1.433 . S
C578 H574 0.929 . S
C578 C580 1.378 . S
C578 C582 1.350 . S
C579 C582 1.463 . S
C579 C584 1.350 . S
C579 N587 1.427 . S
C580 H571 0.930 . S
C580 C578 1.378 . S
C580 C581 1.367 . S
C581 C580 1.367 . S
C581 C583 1.433 . S
C582 C578 1.350 . S
C582 C579 1.463 . S
C582 N586 1.427 . S
C583 H573 0.929 . S
C583 C581 1.433 . S
C583 N586 1.384 . S
C584 H575 0.929 . S
C584 C576 1.378 . S
C584 C579 1.350 . S
C585 H572 0.929 . S
C585 C577 1.433 . S
C585 N587 1.384 . S
N586 C582 1.427 . S
N586 C583 1.384 . S
N587 C579 1.427 . S
N587 C585 1.384 . S
H588 C594 0.930 . S
H589 C598 0.930 . S
H590 C603 0.929 . S
H591 C601 0.929 . S
H592 C596 0.929 . S
H593 C602 0.929 . S
C594 H588 0.930 . S
C594 C595 1.367 . S
C594 C602 1.378 . S
C595 C594 1.367 . S
C595 C603 1.433 . S
C596 H592 0.929 . S
C596 C598 1.378 . S
C596 C600 1.350 . S
C597 C600 1.463 . S
C597 C602 1.350 . S
C597 N605 1.427 . S
C598 H589 0.930 . S
C598 C596 1.378 . S
C598 C599 1.367 . S
C599 C598 1.367 . S
C599 C601 1.433 . S
C600 C596 1.350 . S
C600 C597 1.463 . S
C600 N604 1.427 . S
C601 H591 0.929 . S
C601 C599 1.433 . S
C601 N604 1.384 . S
C602 H593 0.929 . S
C602 C594 1.378 . S
C602 C597 1.350 . S
C603 H590 0.929 . S
C603 C595 1.433 . S
C603 N605 1.384 . S
N604 C600 1.427 . S
N604 C601 1.384 . S
N605 C597 1.427 . S
N605 C603 1.384 . S
H606 C612 0.930 . S
H607 C616 0.930 . S
H608 C621 0.929 . S
H609 C619 0.929 . S
H610 C614 0.929 . S
H611 C620 0.929 . S
C612 H606 0.930 . S
C612 C613 1.367 . S
C612 C620 1.378 . S
C613 C612 1.367 . S
C613 C621 1.433 . S
C614 H610 0.929 . S
C614 C616 1.378 . S
C614 C618 1.350 . S
C615 C618 1.463 . S
C615 C620 1.350 . S
C615 N623 1.427 . S
C616 H607 0.930 . S
C616 C614 1.378 . S
C616 C617 1.367 . S
C617 C616 1.367 . S
C617 C619 1.433 . S
C618 C614 1.350 . S
C618 C615 1.463 . S
C618 N622 1.427 . S
C619 H609 0.929 . S
C619 C617 1.433 . S
C619 N622 1.384 . S
C620 H611 0.929 . S
C620 C612 1.378 . S
C620 C615 1.350 . S
C621 H608 0.929 . S
C621 C613 1.433 . S
C621 N623 1.384 . S
N622 C618 1.427 . S
N622 C619 1.384 . S
N623 C615 1.427 . S
N623 C621 1.384 . S
C199 C45 1.567 . S
C203 C114 1.575 . S
C217 C30 1.564 . S
C221 C125 1.572 . S
C235 C39 1.566 . S
C239 C136 1.568 . S
C257 C147 1.569 1_554 S
C253 C34 1.566 . S
C271 C97 1.562 . S
C275 C158 1.572 . S
C293 C169 1.571 . S
C289 C82 1.560 . S
C311 C180 1.568 . S
C307 C91 1.565 . S
C329 C191 1.574 . S
C325 C86 1.562 . S
C347 C175 1.558 . S
C343 C26 1.524 . S
C365 C185 1.468 . S
C361 C36 1.433 . S
C383 C152 1.551 . S
C379 C32 1.514 . S
C401 C163 1.507 . S
C397 C42 1.468 . S
C415 C18 1.591 . S
C419 C164 1.640 . S
C437 C174 1.613 . S
C433 C50 1.549 . S
C451 C4 1.646 . S
C455 C186 1.686 . S
C469 C48 1.556 . S
C473 C153 1.597 . S
C491 C131 1.536 . S
C487 C78 1.501 . S
C505 C88 1.516 . S
C509 C142 1.552 . S
C527 C108 1.522 . S
C523 C84 1.485 . S
C545 C119 1.497 . S
C541 C94 1.462 . S
C563 C120 1.648 . S
C559 C70 1.603 . S
C581 C130 1.631 . S
C577 C102 1.560 . S
C595 C56 1.538 . S
C599 C141 1.607 . S
C613 C100 1.580 . S
C617 C109 1.622 . S
