# Generated by pormake.
# Topology wbl, (4,4)-cn, num edge types: 1
# Building blocks:
#     Node 0, Type 0, BuildingBlock: NAWXER_clean_linker_0, # of connection points: 4
#     Node 1, Type 0, BuildingBlock: NAWXER_clean_linker_0, # of connection points: 4
#     Node 2, Type 0, BuildingBlock: NAWXER_clean_linker_0, # of connection points: 4
#     Node 3, Type 0, BuildingBlock: NAWXER_clean_linker_0, # of connection points: 4
#     Node 4, Type 0, BuildingBlock: NAWXER_clean_linker_0, # of connection points: 4
#     Node 5, Type 0, BuildingBlock: NAWXER_clean_linker_0, # of connection points: 4
#     Node 6, Type 0, BuildingBlock: NAWXER_clean_linker_0, # of connection points: 4
#     Node 7, Type 0, BuildingBlock: NAWXER_clean_linker_0, # of connection points: 4
#     Node 8, Type 1, BuildingBlock: CEKHIL_clean_sbu_0, # of connection points: 4
#     Node 9, Type 1, BuildingBlock: CEKHIL_clean_sbu_0, # of connection points: 4
#     Node 10, Type 1, BuildingBlock: CEKHIL_clean_sbu_0, # of connection points: 4
#     Node 11, Type 1, BuildingBlock: CEKHIL_clean_sbu_0, # of connection points: 4
#     Node 12, Type 1, BuildingBlock: CEKHIL_clean_sbu_0, # of connection points: 4
#     Node 13, Type 1, BuildingBlock: CEKHIL_clean_sbu_0, # of connection points: 4
#     Node 14, Type 1, BuildingBlock: CEKHIL_clean_sbu_0, # of connection points: 4
#     Node 15, Type 1, BuildingBlock: CEKHIL_clean_sbu_0, # of connection points: 4
#     Edge 16, Type (0, 1), BuildingBlock: TEMPAE_clean_linker_10, # of connection points: 2
#     Edge 17, Type (0, 1), BuildingBlock: TEMPAE_clean_linker_10, # of connection points: 2
#     Edge 18, Type (0, 1), BuildingBlock: TEMPAE_clean_linker_10, # of connection points: 2
#     Edge 19, Type (0, 1), BuildingBlock: TEMPAE_clean_linker_10, # of connection points: 2
#     Edge 20, Type (0, 1), BuildingBlock: TEMPAE_clean_linker_10, # of connection points: 2
#     Edge 21, Type (0, 1), BuildingBlock: TEMPAE_clean_linker_10, # of connection points: 2
#     Edge 22, Type (0, 1), BuildingBlock: TEMPAE_clean_linker_10, # of connection points: 2
#     Edge 23, Type (0, 1), BuildingBlock: TEMPAE_clean_linker_10, # of connection points: 2
#     Edge 24, Type (0, 1), BuildingBlock: TEMPAE_clean_linker_10, # of connection points: 2
#     Edge 25, Type (0, 1), BuildingBlock: TEMPAE_clean_linker_10, # of connection points: 2
#     Edge 26, Type (0, 1), BuildingBlock: TEMPAE_clean_linker_10, # of connection points: 2
#     Edge 27, Type (0, 1), BuildingBlock: TEMPAE_clean_linker_10, # of connection points: 2
#     Edge 28, Type (0, 1), BuildingBlock: TEMPAE_clean_linker_10, # of connection points: 2
#     Edge 29, Type (0, 1), BuildingBlock: TEMPAE_clean_linker_10, # of connection points: 2
#     Edge 30, Type (0, 1), BuildingBlock: TEMPAE_clean_linker_10, # of connection points: 2
#     Edge 31, Type (0, 1), BuildingBlock: TEMPAE_clean_linker_10, # of connection points: 2
#     Edge 32, Type (0, 1), BuildingBlock: TEMPAE_clean_linker_10, # of connection points: 2
#     Edge 33, Type (0, 1), BuildingBlock: TEMPAE_clean_linker_10, # of connection points: 2
#     Edge 34, Type (0, 1), BuildingBlock: TEMPAE_clean_linker_10, # of connection points: 2
#     Edge 35, Type (0, 1), BuildingBlock: TEMPAE_clean_linker_10, # of connection points: 2
#     Edge 36, Type (0, 1), BuildingBlock: TEMPAE_clean_linker_10, # of connection points: 2
#     Edge 37, Type (0, 1), BuildingBlock: TEMPAE_clean_linker_10, # of connection points: 2
#     Edge 38, Type (0, 1), BuildingBlock: TEMPAE_clean_linker_10, # of connection points: 2
#     Edge 39, Type (0, 1), BuildingBlock: TEMPAE_clean_linker_10, # of connection points: 2
#     Edge 40, Type (0, 1), BuildingBlock: TEMPAE_clean_linker_10, # of connection points: 2
#     Edge 41, Type (0, 1), BuildingBlock: TEMPAE_clean_linker_10, # of connection points: 2
#     Edge 42, Type (0, 1), BuildingBlock: TEMPAE_clean_linker_10, # of connection points: 2
#     Edge 43, Type (0, 1), BuildingBlock: TEMPAE_clean_linker_10, # of connection points: 2
#     Edge 44, Type (0, 1), BuildingBlock: TEMPAE_clean_linker_10, # of connection points: 2
#     Edge 45, Type (0, 1), BuildingBlock: TEMPAE_clean_linker_10, # of connection points: 2
#     Edge 46, Type (0, 1), BuildingBlock: TEMPAE_clean_linker_10, # of connection points: 2
#     Edge 47, Type (0, 1), BuildingBlock: TEMPAE_clean_linker_10, # of connection points: 2
# Relax obj value: 0.169
# Max RMSD: 0.172
# Mean RMSD: 0.145
data_MOF--net-wbl--node1-CEKHIL_clean_sbu_0--node2-NAWXER_clean_linker_0--edge1-TEMPAE_clean_linker_10
_symmetry_space_group_name_H-M    P1
_symmetry_Int_Tables_number       1
_symmetry_cell_setting            triclinic
loop_
_symmetry_equiv_pos_as_xyz
'x, y, z'
_cell_length_a     45.070209
_cell_length_b     45.302287
_cell_length_c     79.106078
_cell_angle_alpha  90.295451
_cell_angle_beta   90.104146
_cell_angle_gamma 90.009059
loop_
_atom_site_label
_atom_site_type_symbol
_atom_site_fract_x
_atom_site_fract_y
_atom_site_fract_z
_atom_type_partial_charge
C0 C 0.10717 0.96429 0.35316 0.0
C1 C 0.11946 0.97717 0.36778 0.0
C2 C 0.09364 0.98187 0.34091 0.0
C3 C 0.0924 0.01266 0.34299 0.0
C4 C 0.11871 0.00804 0.36966 0.0
C5 C 0.10512 0.02559 0.35743 0.0
C6 C 0.0755 0.03114 0.33101 0.0
C7 C 0.15372 0.99552 0.30437 0.0
C8 C 0.14779 0.97726 0.29032 0.0
C9 C 0.13152 0.01312 0.31135 0.0
C10 C 0.10243 0.01196 0.30501 0.0
C11 C 0.11896 0.97734 0.2834 0.0
C12 C 0.0965 0.99446 0.29071 0.0
C13 C 0.07832 0.02899 0.31325 0.0
C14 C 0.98276 0.11585 0.29163 0.0
C15 C 0.96405 0.09688 0.28236 0.0
C16 C 0.0081 0.10483 0.29958 0.0
C17 C 0.01487 0.07463 0.29853 0.0
C18 C 0.97263 0.06731 0.27996 0.0
C19 C 0.99792 0.05631 0.28794 0.0
C20 C 0.03681 0.06116 0.31 0.0
C21 C 0.9606 0.09288 0.34324 0.0
C22 C 0.96956 0.11266 0.35604 0.0
C23 C 0.98173 0.07757 0.33366 0.0
C24 C 0.01218 0.08221 0.3365 0.0
C25 C 9e-05 0.1174 0.35865 0.0
C26 C 0.0211 0.10232 0.34901 0.0
C27 C 0.03502 0.06439 0.32775 0.0
H28 H 0.10747 0.94057 0.35137 0.0
H29 H 0.08336 0.97131 0.33007 0.0
H30 H 0.12753 0.01856 0.38093 0.0
H31 H 0.10408 0.04926 0.35938 0.0
H32 H 0.17542 0.99597 0.31024 0.0
H33 H 0.13713 0.02736 0.32192 0.0
H34 H 0.11366 0.96421 0.27232 0.0
H35 H 0.07437 0.99361 0.28536 0.0
H36 H 0.97697 0.13886 0.29343 0.0
H37 H 0.02134 0.11947 0.30741 0.0
H38 H 0.95863 0.0521 0.27297 0.0
H39 H 0.00291 0.03297 0.28689 0.0
H40 H 0.93729 0.08875 0.34086 0.0
H41 H 0.97425 0.06155 0.32438 0.0
H42 H 0.00789 0.13187 0.36866 0.0
H43 H 0.04446 0.1059 0.35159 0.0
N44 N 0.05437 0.04917 0.33752 0.0
N45 N 0.05844 0.04363 0.30338 0.0
C46 C 0.95449 0.45969 0.60587 0.0
C47 C 0.96721 0.44085 0.61801 0.0
C48 C 0.97237 0.47615 0.59507 0.0
C49 C 0.00335 0.47446 0.59628 0.0
C50 C 0.99838 0.43864 0.6188 0.0
C51 C 0.01627 0.45565 0.60821 0.0
C52 C 0.02198 0.49358 0.58564 0.0
C53 C 0.99007 0.41894 0.55496 0.0
C54 C 0.9702 0.42603 0.54186 0.0
C55 C 0.00687 0.4408 0.56286 0.0
C56 C 0.00344 0.47055 0.5584 0.0
C57 C 0.96772 0.45574 0.53687 0.0
C58 C 0.9842 0.4778 0.54508 0.0
C59 C 0.01973 0.49383 0.56782 0.0
C60 C 0.10652 0.59066 0.55015 0.0
C61 C 0.08774 0.61185 0.54292 0.0
C62 C 0.09457 0.56514 0.55727 0.0
C63 C 0.06379 0.56041 0.55704 0.0
C64 C 0.05713 0.60636 0.54194 0.0
C65 C 0.04527 0.58059 0.54877 0.0
C66 C 0.05045 0.53657 0.56707 0.0
C67 C 0.07624 0.60823 0.6048 0.0
C68 C 0.09674 0.5988 0.61706 0.0
C69 C 0.06302 0.58786 0.59378 0.0
C70 C 0.07031 0.55775 0.59472 0.0
C71 C 0.10467 0.56878 0.61755 0.0
C72 C 0.09146 0.54847 0.60656 0.0
C73 C 0.05375 0.53542 0.5848 0.0
H74 H 0.93071 0.46271 0.6051 0.0
H75 H 0.962 0.49094 0.58611 0.0
H76 H 0.00903 0.42405 0.62775 0.0
H77 H 0.04018 0.45409 0.60928 0.0
H78 H 0.99243 0.39649 0.55938 0.0
H79 H 0.02236 0.43436 0.57265 0.0
H80 H 0.95313 0.46199 0.52661 0.0
H81 H 0.9815 0.50057 0.54125 0.0
H82 H 0.13018 0.59458 0.55106 0.0
H83 H 0.10917 0.54971 0.56359 0.0
H84 H 0.04234 0.62245 0.53635 0.0
H85 H 0.02145 0.5773 0.54853 0.0
H86 H 0.06969 0.6312 0.6041 0.0
H87 H 0.04618 0.59548 0.58506 0.0
H88 H 0.11992 0.56066 0.62705 0.0
H89 H 0.09712 0.52531 0.60762 0.0
N90 N 0.03924 0.51405 0.59344 0.0
N91 N 0.03364 0.51569 0.55915 0.0
C92 C 0.55557 0.4346 0.85308 0.0
C93 C 0.56932 0.44501 0.86792 0.0
C94 C 0.53603 0.45272 0.84412 0.0
C95 C 0.5299 0.48144 0.84991 0.0
C96 C 0.56339 0.47391 0.87352 0.0
C97 C 0.54368 0.49186 0.86467 0.0
C98 C 0.50828 0.50043 0.84109 0.0
C99 C 0.58898 0.49 0.8107 0.0
C100 C 0.58457 0.47304 0.79596 0.0
C101 C 0.56498 0.5026 0.81915 0.0
C102 C 0.53591 0.49781 0.81339 0.0
C103 C 0.55551 0.46983 0.78962 0.0
C104 C 0.53138 0.48212 0.79828 0.0
C105 C 0.51038 0.50745 0.82376 0.0
C106 C 0.42319 0.59347 0.80205 0.0
C107 C 0.39415 0.58223 0.80244 0.0
C108 C 0.44662 0.57732 0.80905 0.0
C109 C 0.44107 0.55021 0.81695 0.0
C110 C 0.38891 0.55458 0.8098 0.0
C111 C 0.41215 0.53879 0.8171 0.0
C112 C 0.46507 0.53435 0.82572 0.0
C113 C 0.41052 0.53409 0.87976 0.0
C114 C 0.40494 0.56461 0.88055 0.0
C115 C 0.42833 0.52227 0.867 0.0
C116 C 0.44082 0.5406 0.85467 0.0
C117 C 0.41628 0.58277 0.8677 0.0
C118 C 0.43422 0.57091 0.85495 0.0
C119 C 0.4638 0.52846 0.84322 0.0
H120 H 0.55967 0.41237 0.84855 0.0
H121 H 0.52527 0.44413 0.83287 0.0
H122 H 0.5732 0.48231 0.88509 0.0
H123 H 0.53909 0.51388 0.86938 0.0
H124 H 0.61088 0.49281 0.81611 0.0
H125 H 0.5691 0.51527 0.83057 0.0
H126 H 0.55133 0.45752 0.77809 0.0
H127 H 0.50912 0.47846 0.79351 0.0
H128 H 0.42767 0.61475 0.79641 0.0
H129 H 0.46884 0.58642 0.80885 0.0
H130 H 0.36665 0.5456 0.81036 0.0
H131 H 0.40752 0.51783 0.82308 0.0
H132 H 0.40259 0.5195 0.88957 0.0
H133 H 0.43332 0.49887 0.86716 0.0
H134 H 0.41226 0.60634 0.86788 0.0
H135 H 0.44419 0.58574 0.84591 0.0
N136 N 0.48535 0.5115 0.85017 0.0
N137 N 0.48844 0.52386 0.81659 0.0
C138 C 0.51541 0.88638 0.04091 0.0
C139 C 0.48733 0.89277 0.03417 0.0
C140 C 0.53237 0.90864 0.04838 0.0
C141 C 0.52172 0.9377 0.04897 0.0
C142 C 0.47742 0.92218 0.03387 0.0
C143 C 0.49481 0.94466 0.041 0.0
C144 C 0.53675 0.95945 0.05993 0.0
C145 C 0.47367 0.91272 0.0949 0.0
C146 C 0.48682 0.89749 0.10841 0.0
C147 C 0.49086 0.93027 0.08429 0.0
C148 C 0.52169 0.93244 0.0867 0.0
C149 C 0.51783 0.89861 0.11035 0.0
C150 C 0.53507 0.91604 0.09963 0.0
C151 C 0.53909 0.95497 0.07752 0.0
C152 C 0.59025 0.06543 0.10564 0.0
C153 C 0.61096 0.0535 0.11703 0.0
C154 C 0.57759 0.04772 0.093 0.0
C155 C 0.58557 0.01784 0.09151 0.0
C156 C 0.61951 0.02382 0.11514 0.0
C157 C 0.6068 0.00615 0.10258 0.0
C158 C 0.56948 0.99774 0.07993 0.0
C159 C 0.62126 0.06078 0.04867 0.0
C160 C 0.60222 0.08245 0.04215 0.0
C161 C 0.60966 0.03432 0.05481 0.0
C162 C 0.57895 0.0291 0.05427 0.0
C163 C 0.57164 0.07678 0.04114 0.0
C164 C 0.56012 0.05012 0.04698 0.0
C165 C 0.56605 0.00296 0.06245 0.0
H166 H 0.52338 0.86383 0.04143 0.0
H167 H 0.55312 0.90292 0.05447 0.0
H168 H 0.45578 0.92753 0.02875 0.0
H169 H 0.48625 0.96699 0.04143 0.0
H170 H 0.44985 0.91221 0.09304 0.0
H171 H 0.47969 0.94355 0.07491 0.0
H172 H 0.52861 0.88751 0.12078 0.0
H173 H 0.55873 0.91768 0.10189 0.0
H174 H 0.58325 0.08822 0.10678 0.0
H175 H 0.56068 0.05706 0.0849 0.0
H176 H 0.63499 0.01381 0.12389 0.0
H177 H 0.61296 0.98306 0.10179 0.0
H178 H 0.64491 0.06479 0.04956 0.0
H179 H 0.6245 0.01823 0.06036 0.0
H180 H 0.55663 0.09318 0.03605 0.0
H181 H 0.53638 0.04644 0.04649 0.0
N182 N 0.54992 0.98353 0.05299 0.0
N183 N 0.55574 0.97403 0.0868 0.0
C184 C 0.05644 0.61458 0.90491 0.0
C185 C 0.06979 0.60445 0.88992 0.0
C186 C 0.04037 0.59517 0.91509 0.0
C187 C 0.03741 0.56534 0.91043 0.0
C188 C 0.06722 0.57447 0.88548 0.0
C189 C 0.05102 0.55518 0.89558 0.0
C190 C 0.01846 0.54505 0.92023 0.0
C191 C 0.09746 0.56551 0.95108 0.0
C192 C 0.09224 0.58024 0.96649 0.0
C193 C 0.07425 0.55243 0.94216 0.0
C194 C 0.04493 0.55475 0.94799 0.0
C195 C 0.06297 0.58156 0.97268 0.0
C196 C 0.03953 0.56891 0.9635 0.0
C197 C 0.02023 0.54193 0.93797 0.0
C198 C 0.93008 0.44519 0.94969 0.0
C199 C 0.91045 0.45878 0.96112 0.0
C200 C 0.95327 0.46124 0.94252 0.0
C201 C 0.95712 0.4912 0.94657 0.0
C202 C 0.91565 0.48825 0.966 0.0
C203 C 0.9389 0.50428 0.95883 0.0
C204 C 0.9785 0.50951 0.93718 0.0
C205 C 0.906 0.4864 0.89874 0.0
C206 C 0.91694 0.47012 0.8849 0.0
C207 C 0.92561 0.49908 0.91048 0.0
C208 C 0.9564 0.49562 0.90851 0.0
C209 C 0.94776 0.46612 0.88332 0.0
C210 C 0.96722 0.47885 0.89495 0.0
C211 C 0.9778 0.51158 0.91938 0.0
H212 H 0.05804 0.63759 0.9086 0.0
H213 H 0.02959 0.60363 0.92634 0.0
H214 H 0.07678 0.56613 0.87385 0.0
H215 H 0.0488 0.53231 0.89168 0.0
H216 H 0.11952 0.56427 0.94573 0.0
H217 H 0.07931 0.54062 0.93059 0.0
H218 H 0.05815 0.59217 0.98466 0.0
H219 H 0.01717 0.57051 0.96842 0.0
H220 H 0.92701 0.42236 0.94593 0.0
H221 H 0.96757 0.45055 0.93335 0.0
H222 H 0.90082 0.49944 0.97468 0.0
H223 H 0.94164 0.52734 0.96218 0.0
H224 H 0.88238 0.48988 0.90027 0.0
H225 H 0.91679 0.5124 0.92071 0.0
H226 H 0.95699 0.45427 0.87263 0.0
H227 H 0.9909 0.47617 0.89311 0.0
N228 N 0.99769 0.52937 0.91164 0.0
N229 N -0.00024 0.52469 0.94586 0.0
C230 C 0.43758 0.54504 0.15268 0.0
C231 C 0.44024 0.57564 0.15537 0.0
C232 C 0.45596 0.52535 0.1612 0.0
C233 C 0.47719 0.53574 0.17272 0.0
C234 C 0.46158 0.58611 0.16693 0.0
C235 C 0.47994 0.56627 0.17556 0.0
C236 C 0.49675 0.51422 0.18118 0.0
C237 C 0.48587 0.57388 0.22924 0.0
C238 C 0.45562 0.57993 0.22654 0.0
C239 C 0.49932 0.5498 0.22127 0.0
C240 C 0.48277 0.53157 0.21044 0.0
C241 C 0.43855 0.55992 0.21698 0.0
C242 C 0.45201 0.5358 0.20906 0.0
C243 C 0.49845 0.5112 0.19892 0.0
C244 C 0.59748 0.42303 0.20707 0.0
C245 C 0.58286 0.39913 0.2146 0.0
C246 C 0.58122 0.44729 0.20136 0.0
C247 C 0.55029 0.44803 0.20337 0.0
C248 C 0.55206 0.40038 0.21709 0.0
C249 C 0.53592 0.42485 0.21167 0.0
C250 C 0.53246 0.47144 0.19549 0.0
C251 C 0.55965 0.40884 0.15299 0.0
C252 C 0.57772 0.42278 0.14095 0.0
C253 C 0.54501 0.42551 0.16537 0.0
C254 C 0.54824 0.45635 0.16587 0.0
C255 C 0.58135 0.45359 0.14178 0.0
C256 C 0.56661 0.47019 0.15404 0.0
C257 C 0.53104 0.47475 0.1778 0.0
H258 H 0.42186 0.53631 0.14357 0.0
H259 H 0.45365 0.50191 0.15874 0.0
H260 H 0.46418 0.60957 0.16919 0.0
H261 H 0.49652 0.57475 0.18425 0.0
H262 H 0.49964 0.58897 0.23646 0.0
H263 H 0.52307 0.5468 0.22253 0.0
H264 H 0.41511 0.56379 0.21492 0.0
H265 H 0.43878 0.52158 0.20098 0.0
H266 H 0.62123 0.42238 0.20504 0.0
H267 H 0.59262 0.46506 0.19495 0.0
H268 H 0.54046 0.38217 0.22296 0.0
H269 H 0.51204 0.42507 0.21325 0.0
H270 H 0.5564 0.38516 0.15262 0.0
H271 H 0.53047 0.41444 0.17418 0.0
H272 H 0.59462 0.46506 0.13249 0.0
H273 H 0.56918 0.49397 0.15414 0.0
N274 N 0.51314 0.49592 0.1713 0.0
N275 N 0.51625 0.48987 0.20549 0.0
C276 C 0.45986 0.94025 0.40049 0.0
C277 C 0.45027 0.95533 0.38595 0.0
C278 C 0.47647 0.95489 0.41294 0.0
C279 C 0.48346 0.98495 0.41116 0.0
C280 C 0.45663 0.9856 0.38451 0.0
C281 C 0.47304 0.00018 0.39695 0.0
C282 C 0.50403 0.00014 0.42298 0.0
C283 C 0.42335 0.97888 0.45178 0.0
C284 C 0.42716 0.9579 0.46459 0.0
C285 C 0.4478 0.99235 0.44439 0.0
C286 C 0.47668 0.98468 0.44939 0.0
C287 C 0.45596 0.95125 0.47025 0.0
C288 C 0.48062 0.96458 0.46267 0.0
C289 C 0.50242 0.99812 0.44079 0.0
C290 C 0.595 0.08783 0.46083 0.0
C291 C 0.61683 0.07105 0.46909 0.0
C292 C 0.57045 0.07404 0.45348 0.0
C293 C 0.56744 0.04325 0.4542 0.0
C294 C 0.61232 0.04053 0.47108 0.0
C295 C 0.5877 0.02673 0.46372 0.0
C296 C 0.54576 0.02808 0.44322 0.0
C297 C 0.61873 0.06307 0.40878 0.0
C298 C 0.60803 0.08206 0.39612 0.0
C299 C 0.59896 0.0468 0.41872 0.0
C300 C 0.56818 0.04962 0.41633 0.0
C301 C 0.57717 0.08498 0.394 0.0
C302 C 0.55756 0.069 0.40397 0.0
C303 C 0.54655 0.03105 0.42547 0.0
H304 H 0.45522 0.91697 0.40203 0.0
H305 H 0.48475 0.94242 0.42359 0.0
H306 H 0.45016 0.99782 0.37337 0.0
H307 H 0.47831 0.02331 0.39523 0.0
H308 H 0.40134 0.98502 0.44752 0.0
H309 H 0.4441 0.00871 0.43467 0.0
H310 H 0.45938 0.93533 0.48023 0.0
H311 H 0.50271 0.95876 0.4669 0.0
H312 H 0.59762 0.11145 0.45937 0.0
H313 H 0.55475 0.08719 0.44637 0.0
H314 H 0.62882 0.02702 0.47733 0.0
H315 H 0.58564 0.00294 0.46442 0.0
H316 H 0.64234 0.06031 0.41077 0.0
H317 H 0.60777 0.03144 0.42788 0.0
H318 H 0.56802 0.09872 0.38411 0.0
H319 H 0.53393 0.07133 0.40177 0.0
N320 N 0.52577 0.01683 0.41611 0.0
N321 N 0.52369 0.01177 0.4503 0.0
C322 C 0.10252 -0.00038 0.6424 0.0
C323 C 0.0944 0.9699 0.64457 0.0
C324 C 0.08943 0.02176 0.65213 0.0
C325 C 0.06826 0.01467 0.66439 0.0
C326 C 0.07364 0.96271 0.65714 0.0
C327 C 0.06067 0.98495 0.667 0.0
C328 C 0.05267 0.03879 0.67333 0.0
C329 C 0.06346 0.97731 0.72064 0.0
C330 C 0.09316 0.97016 0.71702 0.0
C331 C 0.05016 0.00195 0.71319 0.0
C332 C 0.06642 0.01967 0.70207 0.0
C333 C 0.10999 0.98938 0.70701 0.0
C334 C 0.0968 0.0141 0.69973 0.0
C335 C 0.051 0.04104 0.69109 0.0
C336 C 0.97057 0.13015 0.71613 0.0
C337 C 0.97613 0.15879 0.71015 0.0
C338 C 0.98613 0.10599 0.70947 0.0
C339 C 0.00738 0.11022 0.69675 0.0
C340 C 0.99852 0.16303 0.69808 0.0
C341 C 0.01417 0.13903 0.69157 0.0
C342 C 0.02176 0.08467 0.6884 0.0
C343 C 0.00825 0.12756 0.63175 0.0
C344 C 0.9776 0.13295 0.63298 0.0
C345 C 0.02316 0.11222 0.64442 0.0
C346 C 0.00788 0.10205 0.65868 0.0
C347 C 0.96248 0.1237 0.64758 0.0
C348 C 0.97746 0.10825 0.66028 0.0
C349 C 0.02328 0.0821 0.67059 0.0
H350 H 0.11796 0.00596 0.63259 0.0
H351 H 0.0954 0.04457 0.64985 0.0
H352 H 0.0669 0.94001 0.65902 0.0
H353 H 0.04399 0.97906 0.67622 0.0
H354 H 0.05002 0.96279 0.72831 0.0
H355 H 0.02672 0.00594 0.71517 0.0
H356 H 0.13303 0.98458 0.70425 0.0
H357 H 0.10988 0.02786 0.69142 0.0
H358 H 0.9535 0.12636 0.7255 0.0
H359 H 0.98081 0.08396 0.71377 0.0
H360 H 0.00375 0.18495 0.69356 0.0
H361 H 0.03118 0.14294 0.68219 0.0
H362 H 0.02052 0.13382 0.62057 0.0
H363 H 0.04655 0.10746 0.64283 0.0
H364 H 0.9389 0.12761 0.64895 0.0
H365 H 0.96498 0.10008 0.67097 0.0
N366 N 0.03888 0.0594 0.6638 0.0
N367 N 0.03544 0.06383 0.69807 0.0
Co368 Co 0.32678 0.66044 0.02662 0.0
O369 O 0.29287 0.63483 0.02688 0.0
O370 O 0.29316 0.68035 0.01664 0.0
C371 C 0.34143 0.65108 0.05331 0.0
O372 O 0.35695 0.69372 0.02496 0.0
Co373 Co 0.39049 0.63547 0.03128 0.0
O374 O 0.40077 0.67764 0.03496 0.0
C375 C 0.35949 0.62746 0.99864 0.0
C376 C 0.27855 0.65616 0.01965 0.0
C377 C 0.38378 0.69831 0.02991 0.0
O378 O 0.33856 0.64473 0.00365 0.0
O379 O 0.38083 0.61927 0.00825 0.0
O380 O 0.3206 0.67035 0.05053 0.0
O381 O 0.35062 0.63678 0.04021 0.0
Co382 Co 0.36919 0.84572 0.24345 0.0
O383 O 0.34245 0.8786 0.24226 0.0
O384 O 0.33143 0.83484 0.25312 0.0
C385 C 0.38659 0.84967 0.2169 0.0
O386 O 0.39028 0.8063 0.2459 0.0
Co387 Co 0.43715 0.85484 0.2398 0.0
O388 O 0.43751 0.81124 0.23731 0.0
C389 C 0.40736 0.87233 0.27141 0.0
C390 C 0.32315 0.86157 0.24947 0.0
C391 C 0.41562 0.79531 0.24184 0.0
O392 O 0.38349 0.85938 0.26639 0.0
O393 O 0.43035 0.87513 0.26206 0.0
O394 O 0.36153 0.83631 0.21966 0.0
O395 O 0.39857 0.86225 0.2299 0.0
Co396 Co 0.17266 0.86008 0.50349 0.0
O397 O 0.14065 0.83216 0.50435 0.0
O398 O 0.18663 0.82353 0.51307 0.0
C399 C 0.16396 0.87541 0.47691 0.0
O400 O 0.21179 0.8825 0.50367 0.0
Co401 Co 0.16075 0.92711 0.49872 0.0
O402 O 0.20411 0.92892 0.49478 0.0
C403 C 0.14938 0.8994 0.53179 0.0
C404 C 0.15974 0.81388 0.51075 0.0
C405 C 0.22141 0.90789 0.49891 0.0
O406 O 0.16194 0.87541 0.52673 0.0
O407 O 0.14466 0.9214 0.52204 0.0
O408 O 0.17872 0.8512 0.47952 0.0
O409 O 0.15291 0.88779 0.49021 0.0
Co410 Co 0.15471 0.71766 0.76025 0.0
O411 O 0.12568 0.74672 0.7541 0.0
O412 O 0.17423 0.75175 0.75075 0.0
C413 C 0.13597 0.70805 0.78602 0.0
O414 O 0.19137 0.69307 0.7657 0.0
Co415 Co 0.13648 0.65274 0.76769 0.0
O416 O 0.1766 0.65085 0.77794 0.0
C417 C 0.13909 0.67394 0.73233 0.0
C418 C 0.14778 0.76298 0.7493 0.0
C419 C 0.19681 0.66921 0.77393 0.0
O420 O 0.1508 0.69851 0.7372 0.0
O421 O 0.13006 0.65417 0.74264 0.0
O422 O 0.15322 0.73071 0.78387 0.0
O423 O 0.12878 0.69383 0.77246 0.0
Co424 Co 0.8665 0.19839 0.48865 0.0
O425 O 0.89372 0.23091 0.48868 0.0
O426 O 0.84759 0.23277 0.49846 0.0
C427 C 0.87653 0.18375 0.46199 0.0
O428 O 0.83159 0.16998 0.48978 0.0
Co429 Co 0.88873 0.1341 0.48428 0.0
O430 O 0.84607 0.12505 0.48092 0.0
C431 C 0.89772 0.16496 0.5168 0.0
C432 C 0.87261 0.24616 0.49561 0.0
C433 C 0.82587 0.14319 0.48533 0.0
O434 O 0.88093 0.18614 0.51175 0.0
O435 O 0.90543 0.14342 0.50723 0.0
O436 O 0.85781 0.20509 0.46472 0.0
O437 O 0.88988 0.1737 0.47521 0.0
Co438 Co 0.82064 0.38774 0.7411 0.0
O439 O 0.78639 0.41271 0.74075 0.0
O440 O 0.78759 0.36765 0.75162 0.0
C441 C 0.83432 0.39574 0.71428 0.0
O442 O 0.85165 0.35512 0.74263 0.0
Co443 Co 0.88322 0.41491 0.73579 0.0
O444 O 0.89511 0.37299 0.73315 0.0
C445 C 0.8536 0.42202 0.76871 0.0
C446 C 0.77255 0.39147 0.74831 0.0
C447 C 0.87877 0.35161 0.73791 0.0
O448 O 0.83281 0.40443 0.76383 0.0
O449 O 0.87436 0.43075 0.75891 0.0
O450 O 0.81397 0.37626 0.71753 0.0
O451 O 0.84335 0.41143 0.72692 0.0
Co452 Co 0.6637 0.33289 0.99548 0.0
O453 O 0.63552 0.30148 0.99803 0.0
O454 O 0.68317 0.2987 0.0049 0.0
C455 C 0.6495 0.34561 0.9692 0.0
O456 O 0.6997 0.35989 0.99374 0.0
Co457 Co 0.64321 0.39773 0.99038 0.0
O458 O 0.68533 0.40436 0.98432 0.0
C459 C 0.63908 0.37049 0.02414 0.0
C460 C 0.65737 0.28591 0.00388 0.0
C461 C 0.70555 0.38586 0.98811 0.0
O462 O 0.65402 0.348 0.01891 0.0
O463 O 0.63061 0.39128 0.01434 0.0
O464 O 0.66762 0.32361 0.97136 0.0
O465 O 0.639 0.35729 0.98283 0.0
Co466 Co 0.69236 0.16392 0.25939 0.0
O467 O 0.65825 0.18914 0.25778 0.0
O468 O 0.70316 0.20021 0.2483 0.0
C469 C 0.68515 0.15143 0.28659 0.0
O470 O 0.7331 0.14477 0.25959 0.0
Co471 Co 0.68671 0.09718 0.26675 0.0
O472 O 0.73016 0.09932 0.2706 0.0
C473 C 0.67199 0.1196 0.23278 0.0
C474 C 0.67566 0.208 0.25048 0.0
C475 C 0.74527 0.12116 0.2653 0.0
O476 O 0.68223 0.14517 0.23691 0.0
O477 O 0.66979 0.0983 0.24329 0.0
O478 O 0.69837 0.17606 0.28289 0.0
O479 O 0.67499 0.13644 0.27392 0.0
C480 C 0.16505 0.93007 0.27644 0.0
C481 C 0.17162 0.95815 0.28312 0.0
C482 C 0.18754 0.91169 0.27007 0.0
C483 C 0.2174 0.92121 0.27086 0.0
C484 C 0.22424 0.94938 0.27762 0.0
C485 C 0.20128 0.96767 0.28333 0.0
C486 C 0.17937 0.88213 0.26249 0.0
C487 C 0.2559 0.96019 0.27893 0.0
C488 C 0.28167 0.86716 0.26992 0.0
C489 C 0.29374 0.87303 0.25401 0.0
C490 C 0.25601 0.88191 0.27541 0.0
C491 C 0.24175 0.90213 0.26446 0.0
C492 C 0.25279 0.9064 0.24791 0.0
C493 C 0.27906 0.89223 0.24301 0.0
C494 C 0.24543 0.87742 0.29331 0.0
C495 C 0.23765 0.92697 0.23566 0.0
H496 H 0.14236 0.92219 0.2764 0.0
H497 H 0.2067 0.98956 0.28797 0.0
H498 H 0.18819 0.88038 0.24943 0.0
H499 H 0.18962 0.86413 0.26994 0.0
H500 H 0.15499 0.87857 0.26211 0.0
H501 H 0.25757 0.98191 0.28545 0.0
H502 H 0.26958 0.94396 0.28595 0.0
H503 H 0.2656 0.96232 0.26612 0.0
H504 H 0.29331 0.85248 0.27844 0.0
H505 H 0.28842 0.89653 0.23064 0.0
H506 H 0.22131 0.87264 0.29351 0.0
H507 H 0.249 0.89802 0.3007 0.0
H508 H 0.25737 0.85914 0.29971 0.0
H509 H 0.2134 0.92276 0.23539 0.0
H510 H 0.2465 0.92457 0.22262 0.0
H511 H 0.24096 0.95016 0.23981 0.0
C512 C 0.12178 0.64279 0.52551 0.0
C513 C 0.09964 0.64077 0.53782 0.0
C514 C 0.13299 0.67041 0.52065 0.0
C515 C 0.12223 0.69632 0.52867 0.0
C516 C 0.10031 0.69419 0.5414 0.0
C517 C 0.08904 0.66641 0.54569 0.0
C518 C 0.15589 0.67191 0.50679 0.0
C519 C 0.08872 0.72124 0.55046 0.0
C520 C 0.16724 0.76713 0.52683 0.0
C521 C 0.15108 0.78342 0.51496 0.0
C522 C 0.15831 0.73853 0.53132 0.0
C523 C 0.13309 0.72583 0.52343 0.0
C524 C 0.11727 0.74191 0.51105 0.0
C525 C 0.12626 0.77067 0.50712 0.0
C526 C 0.17531 0.72225 0.54483 0.0
C527 C 0.09063 0.7289 0.50212 0.0
H528 H 0.12989 0.62282 0.51948 0.0
H529 H 0.07217 0.66463 0.55539 0.0
H530 H 0.1472 0.68524 0.49614 0.0
H531 H 0.17621 0.68308 0.51149 0.0
H532 H 0.16204 0.6497 0.50191 0.0
H533 H 0.07279 0.71559 0.56065 0.0
H534 H 0.10741 0.73385 0.5561 0.0
H535 H 0.07743 0.73599 0.54134 0.0
H536 H 0.18638 0.77704 0.53293 0.0
H537 H 0.11392 0.78314 0.49779 0.0
H538 H 0.18299 0.70059 0.53993 0.0
H539 H 0.16052 0.7178 0.55573 0.0
H540 H 0.19487 0.73491 0.54942 0.0
H541 H 0.09645 0.70722 0.49643 0.0
H542 H 0.08205 0.74353 0.492 0.0
H543 H 0.07257 0.72499 0.51135 0.0
C544 C 0.36305 0.62779 0.80255 0.0
C545 C 0.36887 0.59962 0.79598 0.0
C546 C 0.33673 0.64271 0.79842 0.0
C547 C 0.31611 0.62921 0.78727 0.0
C548 C 0.32287 0.60153 0.77981 0.0
C549 C 0.34906 0.58692 0.7844 0.0
C550 C 0.33016 0.672 0.80679 0.0
C551 C 0.30173 0.58663 0.76763 0.0
C552 C 0.23363 0.64274 0.79182 0.0
C553 C 0.22781 0.66165 0.77824 0.0
C554 C 0.26252 0.63312 0.79531 0.0
C555 C 0.28615 0.64223 0.78479 0.0
C556 C 0.28062 0.66209 0.77138 0.0
C557 C 0.25147 0.67179 0.76834 0.0
C558 C 0.26757 0.6124 0.80994 0.0
C559 C 0.30522 0.67203 0.7598 0.0
H560 H 0.37834 0.63746 0.81162 0.0
H561 H 0.35375 0.56519 0.77926 0.0
H562 H 0.32259 0.68833 0.79732 0.0
H563 H 0.31192 0.66917 0.81605 0.0
H564 H 0.34981 0.68107 0.81355 0.0
H565 H 0.31175 0.56688 0.76153 0.0
H566 H 0.28148 0.57963 0.77448 0.0
H567 H 0.29473 0.60226 0.75764 0.0
H568 H 0.21546 0.63515 0.79964 0.0
H569 H 0.24705 0.68634 0.7578 0.0
H570 H 0.28555 0.62092 0.81823 0.0
H571 H 0.27472 0.59051 0.8051 0.0
H572 H 0.24727 0.60934 0.81769 0.0
H573 H 0.32422 0.68065 0.76727 0.0
H574 H 0.29776 0.68939 0.75089 0.0
H575 H 0.31343 0.65288 0.75236 0.0
C576 C 0.47689 0.84565 0.01878 0.0
C577 C 0.46728 0.86813 0.02968 0.0
C578 C 0.4606 0.81942 0.01703 0.0
C579 C 0.43453 0.81543 0.02673 0.0
C580 C 0.4239 0.83878 0.03704 0.0
C581 C 0.44034 0.865 0.03828 0.0
C582 C 0.47232 0.79529 0.00564 0.0
C583 C 0.39648 0.83525 0.04777 0.0
C584 C 0.38462 0.74937 0.01789 0.0
C585 C 0.39584 0.72864 0.02936 0.0
C586 C 0.39697 0.77779 0.01682 0.0
C587 C 0.42062 0.78574 0.02773 0.0
C588 C 0.43152 0.76509 0.0396 0.0
C589 C 0.4192 0.73672 0.04015 0.0
C590 C 0.38515 0.79907 0.00383 0.0
C591 C 0.45634 0.77289 0.05169 0.0
H592 H 0.49775 0.84817 0.01213 0.0
H593 H 0.43316 0.88227 0.04689 0.0
H594 H 0.4813 0.77707 0.01345 0.0
H595 H 0.45421 0.78599 0.99772 0.0
H596 H 0.49027 0.80333 0.99722 0.0
H597 H 0.38923 0.85652 0.05348 0.0
H598 H 0.37793 0.82601 0.04019 0.0
H599 H 0.40116 0.81948 0.05813 0.0
H600 H 0.36667 0.74315 0.00946 0.0
H601 H 0.42776 0.72086 0.04915 0.0
H602 H 0.40309 0.80513 0.99491 0.0
H603 H 0.37766 0.81974 0.01008 0.0
H604 H 0.36632 0.78966 0.99649 0.0
H605 H 0.47678 0.77811 0.0445 0.0
H606 H 0.46138 0.75471 0.06061 0.0
H607 H 0.45038 0.79287 0.05911 0.0
C608 C 0.11389 0.62083 0.98464 0.0
C609 C 0.11743 0.59397 0.97591 0.0
C610 C 0.13795 0.63431 0.99298 0.0
C611 C 0.16631 0.62097 0.99223 0.0
C612 C 0.17 0.59388 0.9835 0.0
C613 C 0.14548 0.58051 0.97573 0.0
C614 C 0.13307 0.66281 0.00254 0.0
C615 C 0.19996 0.57903 0.98225 0.0
C616 C 0.23812 0.66322 0.99856 0.0
C617 C 0.24772 0.65181 0.01404 0.0
C618 C 0.21074 0.65459 0.99161 0.0
C619 C 0.19236 0.6348 0.00066 0.0
C620 C 0.20102 0.62522 0.01694 0.0
C621 C 0.22887 0.63343 0.0233 0.0
C622 C 0.20263 0.66477 0.97406 0.0
C623 C 0.18168 0.60486 0.0272 0.0
H624 H 0.09245 0.63163 0.98473 0.0
H625 H 0.14841 0.55938 0.96948 0.0
H626 H 0.14065 0.66042 0.01582 0.0
H627 H 0.14645 0.6807 0.99681 0.0
H628 H 0.1094 0.66964 0.00256 0.0
H629 H 0.19933 0.55878 0.97427 0.0
H630 H 0.21645 0.5945 0.97683 0.0
H631 H 0.20791 0.5729 0.99504 0.0
H632 H 0.25286 0.67727 0.99135 0.0
H633 H 0.23627 0.62483 0.03537 0.0
H634 H 0.1794 0.67279 0.97369 0.0
H635 H 0.20425 0.64585 0.96514 0.0
H636 H 0.21749 0.68263 0.96955 0.0
H637 H 0.15831 0.61256 0.02709 0.0
H638 H 0.18932 0.60329 0.04053 0.0
H639 H 0.18208 0.58241 0.02154 0.0
C640 C 0.42745 0.62563 0.21963 0.0
C641 C 0.4433 0.60903 0.23153 0.0
C642 C 0.42007 0.65517 0.22283 0.0
C643 C 0.42871 0.6684 0.23831 0.0
C644 C 0.44304 0.65125 0.25081 0.0
C645 C 0.4503 0.62174 0.24724 0.0
C646 C 0.40489 0.67273 0.20912 0.0
C647 C 0.45229 0.66453 0.26755 0.0
C648 C 0.44569 0.7501 0.23583 0.0
C649 C 0.41946 0.7628 0.24204 0.0
C650 C 0.44916 0.71941 0.23495 0.0
C651 C 0.42591 0.70086 0.2405 0.0
C652 C 0.3997 0.71341 0.24723 0.0
C653 C 0.39673 0.74427 0.24787 0.0
C654 C 0.47744 0.70686 0.22761 0.0
C655 C 0.37456 0.69426 0.25338 0.0
H656 H 0.42238 0.6161 0.20736 0.0
H657 H 0.46233 0.60887 0.25652 0.0
H658 H 0.38576 0.68513 0.21437 0.0
H659 H 0.42067 0.68914 0.20391 0.0
H660 H 0.3969 0.65848 0.19859 0.0
H661 H 0.45951 0.64744 0.2767 0.0
H662 H 0.47098 0.68005 0.26554 0.0
H663 H 0.43378 0.67734 0.27319 0.0
H664 H 0.46342 0.76414 0.23129 0.0
H665 H 0.37642 0.75382 0.25276 0.0
H666 H 0.4723 0.69405 0.21597 0.0
H667 H 0.48788 0.69146 0.23671 0.0
H668 H 0.49378 0.7243 0.22439 0.0
H669 H 0.36497 0.68173 0.24259 0.0
H670 H 0.35662 0.70738 0.25941 0.0
H671 H 0.38291 0.67788 0.26261 0.0
C672 C 0.37885 0.93206 0.4611 0.0
C673 C 0.40069 0.94353 0.4719 0.0
C674 C 0.35142 0.92277 0.46739 0.0
C675 C 0.34569 0.9251 0.48494 0.0
C676 C 0.36844 0.93469 0.49606 0.0
C677 C 0.39581 0.9438 0.48939 0.0
C678 C 0.3279 0.91238 0.4551 0.0
C679 C 0.36323 0.93722 0.51485 0.0
C680 C 0.26488 0.94089 0.49383 0.0
C681 C 0.25386 0.91268 0.49749 0.0
C682 C 0.29508 0.94542 0.49063 0.0
C683 C 0.31484 0.92115 0.49109 0.0
C684 C 0.30423 0.89291 0.49567 0.0
C685 C 0.27381 0.88898 0.49882 0.0
C686 C 0.30555 0.97596 0.48589 0.0
C687 C 0.32469 0.86657 0.4964 0.0
H688 H 0.38286 0.93142 0.44758 0.0
H689 H 0.41273 0.95268 0.49774 0.0
H690 H 0.31788 0.8914 0.45946 0.0
H691 H 0.30987 0.92903 0.45444 0.0
H692 H 0.33687 0.90896 0.44217 0.0
H693 H 0.38429 0.94026 0.52197 0.0
H694 H 0.34869 0.95647 0.51745 0.0
H695 H 0.35174 0.91732 0.51967 0.0
H696 H 0.24977 0.95943 0.49297 0.0
H697 H 0.26558 0.86712 0.50173 0.0
H698 H 0.31283 0.97598 0.47249 0.0
H699 H 0.32491 0.98247 0.49374 0.0
H700 H 0.2879 0.99286 0.48746 0.0
H701 H 0.33123 0.86012 0.48338 0.0
H702 H 0.314 0.84728 0.50251 0.0
H703 H 0.3453 0.87214 0.50341 0.0
C704 C 0.11856 0.92292 0.7098 0.0
C705 C 0.10551 0.94122 0.72205 0.0
C706 C 0.12787 0.89426 0.71379 0.0
C707 C 0.12435 0.88381 0.7305 0.0
C708 C 0.11223 0.90263 0.74308 0.0
C709 C 0.10265 0.93106 0.73866 0.0
C710 C 0.14018 0.87473 0.69996 0.0
C711 C 0.10856 0.8924 0.76109 0.0
C712 C 0.11446 0.80177 0.73777 0.0
C713 C 0.14276 0.79338 0.7433 0.0
C714 C 0.10843 0.83101 0.7332 0.0
C715 C 0.13113 0.8525 0.7345 0.0
C716 C 0.15992 0.84408 0.73983 0.0
C717 C 0.16548 0.81448 0.74403 0.0
C718 C 0.07761 0.83897 0.72722 0.0
C719 C 0.18456 0.86647 0.74155 0.0
H720 H 0.12037 0.93062 0.69689 0.0
H721 H 0.09268 0.94528 0.74813 0.0
H722 H 0.16179 0.86524 0.70386 0.0
H723 H 0.1248 0.85601 0.69763 0.0
H724 H 0.1433 0.88684 0.68791 0.0
H725 H 0.10127 0.91053 0.76964 0.0
H726 H 0.09185 0.87444 0.76157 0.0
H727 H 0.12977 0.88328 0.76592 0.0
H728 H 0.09689 0.78546 0.73709 0.0
H729 H 0.18733 0.80807 0.74842 0.0
H730 H 0.07875 0.84985 0.7147 0.0
H731 H 0.06738 0.85491 0.73616 0.0
H732 H 0.0629 0.81937 0.72615 0.0
H733 H 0.18791 0.8781 0.7294 0.0
H734 H 0.20589 0.85622 0.74543 0.0
H735 H 0.17834 0.88339 0.7511 0.0
C736 C 0.6073 0.42973 0.78067 0.0
C737 C 0.61022 0.45818 0.78764 0.0
C738 C 0.63175 0.41508 0.77349 0.0
C739 C 0.65987 0.42895 0.77362 0.0
C740 C 0.66298 0.4576 0.78062 0.0
C741 C 0.63809 0.47199 0.7873 0.0
C742 C 0.62751 0.3848 0.7658 0.0
C743 C 0.69267 0.4731 0.78111 0.0
C744 C 0.73246 0.38705 0.76978 0.0
C745 C 0.74161 0.39564 0.75365 0.0
C746 C 0.705 0.39646 0.77624 0.0
C747 C 0.68617 0.41414 0.76608 0.0
C748 C 0.69443 0.42071 0.74927 0.0
C749 C 0.72231 0.41179 0.74336 0.0
C750 C 0.69725 0.38949 0.79434 0.0
C751 C 0.67465 0.43875 0.73787 0.0
H752 H 0.58603 0.41863 0.78107 0.0
H753 H 0.64054 0.49418 0.79228 0.0
H754 H 0.63488 0.38483 0.75243 0.0
H755 H 0.6414 0.36848 0.77259 0.0
H756 H 0.60402 0.37742 0.76627 0.0
H757 H 0.69159 0.4947 0.78779 0.0
H758 H 0.70933 0.45904 0.78755 0.0
H759 H 0.70068 0.4769 0.76806 0.0
H760 H 0.74761 0.37479 0.77777 0.0
H761 H 0.72943 0.41825 0.73082 0.0
H762 H 0.67412 0.38133 0.79527 0.0
H763 H 0.69878 0.40995 0.80207 0.0
H764 H 0.71239 0.37273 0.79985 0.0
H765 H 0.65144 0.43066 0.73843 0.0
H766 H 0.6822 0.43809 0.72451 0.0
H767 H 0.67463 0.46208 0.74219 0.0
C768 C 0.60287 0.1371 0.04488 0.0
C769 C 0.61388 0.11153 0.03713 0.0
C770 C 0.61271 0.16507 0.03993 0.0
C771 C 0.63357 0.16745 0.02664 0.0
C772 C 0.64519 0.14159 0.01898 0.0
C773 C 0.6354 0.11381 0.02448 0.0
C774 C 0.60023 0.19209 0.04863 0.0
C775 C 0.66702 0.14328 0.00457 0.0
C776 C 0.62864 0.23917 0.00246 0.0
C777 C 0.65272 0.25505 0.00907 0.0
C778 C 0.62292 0.2102 0.00761 0.0
C779 C 0.64134 0.19705 0.01997 0.0
C780 C 0.66596 0.21283 0.02654 0.0
C781 C 0.67158 0.24163 0.02084 0.0
C782 C 0.59679 0.19388 6e-05 0.0
C783 C 0.68571 0.19971 0.03997 0.0
H784 H 0.58646 0.13515 0.05483 0.0
H785 H 0.64381 0.09391 0.01852 0.0
H786 H 0.61849 0.20675 0.05294 0.0
H787 H 0.5865 0.20483 0.03958 0.0
H788 H 0.58626 0.18635 0.05969 0.0
H789 H 0.67528 0.12116 0.0007 0.0
H790 H 0.65625 0.15379 0.99351 0.0
H791 H 0.68625 0.15725 0.00817 0.0
H792 H 0.61421 0.24941 0.99322 0.0
H793 H 0.69014 0.25397 0.026 0.0
H794 H 0.57999 0.18968 0.00999 0.0
H795 H 0.60399 0.17212 0.99504 0.0
H796 H 0.58605 0.20642 0.98968 0.0
H797 H 0.67263 0.19589 0.05162 0.0
H798 H 0.70479 0.21426 0.04315 0.0
H799 H 0.69435 0.17797 0.03574 0.0
C800 C 0.91605 0.12167 0.28898 0.0
C801 C 0.93388 0.10649 0.27731 0.0
C802 C 0.88589 0.12659 0.28575 0.0
C803 C 0.87326 0.11607 0.27048 0.0
C804 C 0.89149 0.10228 0.25821 0.0
C805 C 0.92163 0.09758 0.26179 0.0
C806 C 0.86718 0.14137 0.29917 0.0
C807 C 0.87884 0.09102 0.24171 0.0
C808 C 0.79213 0.09466 0.27289 0.0
C809 C 0.77811 0.11939 0.26586 0.0
C810 C 0.8231 0.09313 0.27414 0.0
C811 C 0.84056 0.11686 0.26818 0.0
C812 C 0.82669 0.14163 0.26075 0.0
C813 C 0.79561 0.14263 0.2597 0.0
C814 C 0.83712 0.06634 0.28218 0.0
C815 C 0.84465 0.16728 0.25422 0.0
H816 H 0.92524 0.12821 0.30111 0.0
H817 H 0.93542 0.08609 0.25268 0.0
H818 H 0.85358 0.15924 0.29357 0.0
H819 H 0.85167 0.125 0.30467 0.0
H820 H 0.88087 0.15086 0.30955 0.0
H821 H 0.89647 0.084 0.23275 0.0
H822 H 0.86419 0.07185 0.24417 0.0
H823 H 0.8651 0.10828 0.23561 0.0
H824 H 0.77889 0.07657 0.27767 0.0
H825 H 0.78505 0.16181 0.2542 0.0
H826 H 0.84946 0.07303 0.29373 0.0
H827 H 0.85334 0.05617 0.27338 0.0
H828 H 0.82046 0.04939 0.2857 0.0
H829 H 0.85672 0.17798 0.26484 0.0
H830 H 0.83059 0.18413 0.24794 0.0
H831 H 0.86155 0.15935 0.24509 0.0
C832 C 0.92283 0.40737 0.52854 0.0
C833 C 0.95227 0.4023 0.53364 0.0
C834 C 0.90554 0.38458 0.52148 0.0
C835 C 0.91774 0.35592 0.51991 0.0
C836 C 0.94741 0.3507 0.52496 0.0
C837 C 0.96441 0.37401 0.53143 0.0
C838 C 0.87426 0.3911 0.51578 0.0
C839 C 0.96123 0.32037 0.52365 0.0
C840 C 0.87223 0.28574 0.51745 0.0
C841 C 0.87806 0.2768 0.50084 0.0
C842 C 0.88347 0.31261 0.52367 0.0
C843 C 0.90005 0.33111 0.51279 0.0
C844 C 0.90348 0.32325 0.49556 0.0
C845 C 0.89298 0.29583 0.48988 0.0
C846 C 0.87994 0.31981 0.5422 0.0
C847 C 0.92011 0.34279 0.48341 0.0
H848 H 0.91307 0.42901 0.53032 0.0
H849 H 0.98734 0.36994 0.53482 0.0
H850 H 0.87129 0.38429 0.50239 0.0
H851 H 0.85828 0.37815 0.52338 0.0
H852 H 0.86862 0.41488 0.51701 0.0
H853 H 0.984 0.31969 0.52903 0.0
H854 H 0.94734 0.30401 0.53041 0.0
H855 H 0.96233 0.31335 0.51021 0.0
H856 H 0.86093 0.27073 0.52592 0.0
H857 H 0.8973 0.2888 0.47699 0.0
H858 H 0.8732 0.34315 0.544 0.0
H859 H 0.90158 0.31685 0.54869 0.0
H860 H 0.86331 0.30535 0.54839 0.0
H861 H 0.91346 0.3662 0.48508 0.0
H862 H 0.91622 0.3362 0.47005 0.0
H863 H 0.94426 0.34132 0.48602 0.0
C864 C 0.6602 0.10282 0.46205 0.0
C865 C 0.64569 0.08462 0.47371 0.0
C866 C 0.68883 0.11352 0.46524 0.0
C867 C 0.70333 0.1059 0.48048 0.0
C868 C 0.68845 0.08839 0.49258 0.0
C869 C 0.65981 0.0778 0.48901 0.0
C870 C 0.70403 0.13193 0.45194 0.0
C871 C 0.70316 0.08004 0.50903 0.0
C872 C 0.7873 0.10533 0.47825 0.0
C873 C 0.79458 0.13304 0.48512 0.0
C874 C 0.75773 0.09593 0.47712 0.0
C875 C 0.73481 0.11459 0.48309 0.0
C876 C 0.74197 0.1422 0.49049 0.0
C877 C 0.77177 0.15116 0.49136 0.0
C878 C 0.75097 0.06638 0.46904 0.0
C879 C 0.7181 0.16257 0.49709 0.0
H880 H 0.64964 0.10771 0.45006 0.0
H881 H 0.64858 0.06387 0.49808 0.0
H882 H 0.71232 0.15284 0.45756 0.0
H883 H 0.72352 0.1198 0.4469 0.0
H884 H 0.68904 0.13733 0.44122 0.0
H885 H 0.68771 0.06847 0.51769 0.0
H886 H 0.72234 0.06535 0.50647 0.0
H887 H 0.71187 0.10001 0.51553 0.0
H888 H 0.80468 0.09112 0.4734 0.0
H889 H 0.77713 0.17252 0.49679 0.0
H890 H 0.7378 0.06968 0.45734 0.0
H891 H 0.73739 0.05274 0.47769 0.0
H892 H 0.77141 0.05392 0.46575 0.0
H893 H 0.70401 0.17017 0.48646 0.0
H894 H 0.72744 0.18224 0.50364 0.0
H895 H 0.70347 0.15062 0.50601 0.0
C896 C 0.94652 0.20394 0.70403 0.0
C897 C 0.95825 0.18434 0.71595 0.0
C898 C 0.93147 0.22952 0.70911 0.0
C899 C 0.92823 0.23578 0.72656 0.0
C900 C 0.93906 0.21551 0.73868 0.0
C901 C 0.95387 0.18988 0.73321 0.0
C902 C 0.91997 0.25039 0.69577 0.0
C903 C 0.93613 0.22153 0.75738 0.0
C904 C 0.92223 0.31762 0.73569 0.0
C905 C 0.89145 0.32145 0.73722 0.0
C906 C 0.93456 0.28957 0.73312 0.0
C907 C 0.91568 0.26469 0.73191 0.0
C908 C 0.88472 0.26816 0.7342 0.0
C909 C 0.87296 0.29652 0.7369 0.0
C910 C 0.96773 0.28679 0.7309 0.0
C911 C 0.86388 0.24215 0.73293 0.0
H912 H 0.94945 0.19939 0.69066 0.0
H913 H 0.96299 0.17475 0.74243 0.0
H914 H 0.89622 0.25543 0.69803 0.0
H915 H 0.93231 0.27156 0.69648 0.0
H916 H 0.92236 0.24122 0.68279 0.0
H917 H 0.94312 0.20234 0.76512 0.0
H918 H 0.95007 0.24079 0.76091 0.0
H919 H 0.91286 0.22719 0.76059 0.0
H920 H 0.93675 0.33669 0.73611 0.0
H921 H 0.84915 0.29927 0.73805 0.0
H922 H 0.97276 0.28031 0.71766 0.0
H923 H 0.97665 0.26926 0.73923 0.0
H924 H 0.97954 0.30776 0.73377 0.0
H925 H 0.86314 0.23412 0.71966 0.0
H926 H 0.84097 0.24793 0.73691 0.0
H927 H 0.87196 0.22365 0.74083 0.0
C928 C 0.86605 0.42745 0.95493 0.0
C929 C 0.88314 0.44332 0.96671 0.0
C930 C 0.83842 0.41563 0.95936 0.0
C931 C 0.82753 0.41986 0.97596 0.0
C932 C 0.84524 0.43466 0.98814 0.0
C933 C 0.87285 0.44626 0.98336 0.0
C934 C 0.8202 0.4 0.946 0.0
C935 C 0.83444 0.43943 0.006 0.0
C936 C 0.74385 0.42316 0.97999 0.0
C937 C 0.73698 0.39473 0.98579 0.0
C938 C 0.77327 0.4317 0.97708 0.0
C939 C 0.79651 0.41136 0.98003 0.0
C940 C 0.7899 0.38282 0.98616 0.0
C941 C 0.7602 0.37482 0.98897 0.0
C942 C 0.77942 0.46238 0.97054 0.0
C943 C 0.81416 0.36058 0.98945 0.0
H944 H 0.87363 0.42542 0.94198 0.0
H945 H 0.88614 0.45817 0.99257 0.0
H946 H 0.81211 0.37848 0.95078 0.0
H947 H 0.80041 0.41351 0.94288 0.0
H948 H 0.83297 0.39607 0.9342 0.0
H949 H 0.85203 0.44862 0.01436 0.0
H950 H 0.81542 0.45498 0.00593 0.0
H951 H 0.82644 0.41836 0.01143 0.0
H952 H 0.72618 0.43879 0.97753 0.0
H953 H 0.75519 0.35282 0.99346 0.0
H954 H 0.79004 0.46095 0.95792 0.0
H955 H 0.79512 0.47402 0.97909 0.0
H956 H 0.75892 0.47585 0.96941 0.0
H957 H 0.8256 0.35509 0.97743 0.0
H958 H 0.80548 0.33986 0.99503 0.0
H959 H 0.83104 0.37009 0.99813 0.0
C960 C 0.59136 0.3452 0.21167 0.0
C961 C 0.59933 0.37218 0.21909 0.0
C962 C 0.60594 0.31907 0.21613 0.0
C963 C 0.62852 0.31995 0.22859 0.0
C964 C 0.63697 0.3473 0.23592 0.0
C965 C 0.62243 0.37324 0.23091 0.0
C966 C 0.59671 0.29044 0.20778 0.0
C967 C 0.66055 0.34899 0.24946 0.0
C968 C 0.63885 0.24867 0.25266 0.0
C969 C 0.6645 0.2371 0.24518 0.0
C970 C 0.62749 0.27608 0.24773 0.0
C971 C 0.64177 0.29196 0.2347 0.0
C972 C 0.66779 0.28045 0.22713 0.0
C973 C 0.67908 0.25322 0.23261 0.0
C974 C 0.6 0.28788 0.25633 0.0
C975 C 0.68322 0.29651 0.21297 0.0
H976 H 0.57366 0.34462 0.20237 0.0
H977 H 0.62844 0.39423 0.23662 0.0
H978 H 0.61642 0.27881 0.20264 0.0
H979 H 0.58641 0.2757 0.21727 0.0
H980 H 0.58057 0.29393 0.19735 0.0
H981 H 0.66555 0.37211 0.25327 0.0
H982 H 0.65309 0.3367 0.26078 0.0
H983 H 0.68132 0.33841 0.24499 0.0
H984 H 0.62771 0.23635 0.26251 0.0
H985 H 0.69887 0.24421 0.22677 0.0
H986 H 0.58159 0.28946 0.24705 0.0
H987 H 0.60419 0.31046 0.26128 0.0
H988 H 0.59269 0.27368 0.26694 0.0
H989 H 0.66797 0.29852 0.20201 0.0
H990 H 0.70369 0.28499 0.20875 0.0
H991 H 0.68916 0.31922 0.21704 0.0
C992 C 0.11398 0.93423 0.38721 0.0
C993 C 0.13067 0.95849 0.38175 0.0
C994 C 0.12204 0.91861 0.40175 0.0
C995 C 0.14744 0.92743 0.41103 0.0
C996 C 0.16533 0.95083 0.40506 0.0
C997 C 0.15666 0.96618 0.3905 0.0
C998 C 0.10229 0.89386 0.40776 0.0
C999 C 0.19274 0.96068 0.41453 0.0
C1000 C 0.14388 0.91459 0.45822 0.0
C1001 C 0.16085 0.88889 0.46005 0.0
C1002 C 0.13981 0.92754 0.44236 0.0
C1003 C 0.15313 0.91452 0.42795 0.0
C1004 C 0.17077 0.88885 0.42973 0.0
C1005 C 0.17437 0.87625 0.4458 0.0
C1006 C 0.12078 0.95489 0.44099 0.0
C1007 C 0.18545 0.87454 0.41464 0.0
H1008 H 0.0937 0.92838 0.3806 0.0
H1009 H 0.16983 0.98468 0.38618 0.0
H1010 H 0.11568 0.87402 0.41076 0.0
H1011 H 0.09085 0.90076 0.41955 0.0
H1012 H 0.08521 0.88772 0.39823 0.0
H1013 H 0.20618 0.97661 0.40715 0.0
H1014 H 0.18615 0.97141 0.42659 0.0
H1015 H 0.20682 0.94142 0.41775 0.0
H1016 H 0.13341 0.92451 0.46919 0.0
H1017 H 0.18761 0.85644 0.44719 0.0
H1018 H 0.1014 0.95036 0.4327 0.0
H1019 H 0.13361 0.97304 0.43512 0.0
H1020 H 0.11253 0.96259 0.45348 0.0
H1021 H 0.16828 0.86663 0.40563 0.0
H1022 H 0.19965 0.85556 0.41827 0.0
H1023 H 0.19927 0.89092 0.40787 0.0
C1024 C 0.13628 0.61747 0.63674 0.0
C1025 C 0.10708 0.6191 0.63065 0.0
C1026 C 0.14447 0.63159 0.65188 0.0
C1027 C 0.12289 0.6476 0.66112 0.0
C1028 C 0.09422 0.65169 0.65418 0.0
C1029 C 0.08664 0.63734 0.63903 0.0
C1030 C 0.17541 0.62703 0.65871 0.0
C1031 C 0.07058 0.6687 0.66358 0.0
C1032 C 0.12496 0.64005 0.70869 0.0
C1033 C 0.13583 0.66764 0.71398 0.0
C1034 C 0.12107 0.63336 0.69155 0.0
C1035 C 0.12822 0.65475 0.67924 0.0
C1036 C 0.13954 0.68255 0.68436 0.0
C1037 C 0.14321 0.68872 0.70171 0.0
C1038 C 0.10898 0.60336 0.68666 0.0
C1039 C 0.14743 0.70583 0.67155 0.0
H1040 H 0.15235 0.60388 0.63012 0.0
H1041 H 0.06399 0.63866 0.63447 0.0
H1042 H 0.18427 0.64775 0.66428 0.0
H1043 H 0.17476 0.61028 0.6689 0.0
H1044 H 0.19091 0.61915 0.64876 0.0
H1045 H 0.05149 0.67428 0.65528 0.0
H1046 H 0.06226 0.65514 0.67421 0.0
H1047 H 0.07975 0.68939 0.66902 0.0
H1048 H 0.1193 0.62347 0.71797 0.0
H1049 H 0.15164 0.71009 0.70564 0.0
H1050 H 0.12478 0.59185 0.67814 0.0
H1051 H 0.0878 0.60593 0.67965 0.0
H1052 H 0.10489 0.5891 0.6978 0.0
H1053 H 0.16324 0.69673 0.66214 0.0
H1054 H 0.15745 0.72572 0.67753 0.0
H1055 H 0.12723 0.7126 0.66454 0.0
C1056 C 0.36698 0.56304 0.90377 0.0
C1057 C 0.3906 0.57757 0.8958 0.0
C1058 C 0.35697 0.57211 0.91978 0.0
C1059 C 0.37091 0.59626 0.92797 0.0
C1060 C 0.39322 0.61234 0.91945 0.0
C1061 C 0.40285 0.60276 0.90349 0.0
C1062 C 0.3329 0.55458 0.92838 0.0
C1063 C 0.40856 0.63834 0.9277 0.0
C1064 C 0.34138 0.6306 0.9686 0.0
C1065 C 0.36 0.61759 0.98072 0.0
C1066 C 0.34385 0.62318 0.95138 0.0
C1067 C 0.36535 0.60224 0.9462 0.0
C1068 C 0.38327 0.58815 0.95846 0.0
C1069 C 0.3804 0.596 0.97552 0.0
C1070 C 0.32429 0.63857 0.93867 0.0
C1071 C 0.40631 0.56548 0.9535 0.0
H1072 H 0.35705 0.54387 0.89777 0.0
H1073 H 0.42129 0.61399 0.89755 0.0
H1074 H 0.34284 0.54112 0.93861 0.0
H1075 H 0.31635 0.56951 0.9343 0.0
H1076 H 0.32126 0.53952 0.91944 0.0
H1077 H 0.4227 0.65064 0.91866 0.0
H1078 H 0.39204 0.65378 0.93318 0.0
H1079 H 0.42279 0.63042 0.93821 0.0
H1080 H 0.32548 0.64724 0.97248 0.0
H1081 H 0.39466 0.58553 0.98477 0.0
H1082 H 0.31408 0.62232 0.92989 0.0
H1083 H 0.33793 0.65379 0.93096 0.0
H1084 H 0.30637 0.65154 0.94485 0.0
H1085 H 0.39598 0.54767 0.94582 0.0
H1086 H 0.41727 0.55538 0.96465 0.0
H1087 H 0.42361 0.576 0.94558 0.0
C1088 C 0.47626 0.85734 0.12937 0.0
C1089 C 0.4681 0.88402 0.12174 0.0
C1090 C 0.46127 0.84705 0.14375 0.0
C1091 C 0.43784 0.86402 0.15067 0.0
C1092 C 0.42833 0.88995 0.14238 0.0
C1093 C 0.44357 0.89962 0.12802 0.0
C1094 C 0.47173 0.81903 0.1521 0.0
C1095 C 0.40352 0.90878 0.14938 0.0
C1096 C 0.38752 0.83728 0.18596 0.0
C1097 C 0.40065 0.8509 0.20007 0.0
C1098 C 0.40005 0.8402 0.16979 0.0
C1099 C 0.42609 0.85731 0.16776 0.0
C1100 C 0.43991 0.87023 0.18208 0.0
C1101 C 0.42707 0.86678 0.19804 0.0
C1102 C 0.38492 0.82586 0.15483 0.0
C1103 C 0.46766 0.88873 0.18048 0.0
H1104 H 0.49495 0.84499 0.12443 0.0
H1105 H 0.43733 0.92045 0.12235 0.0
H1106 H 0.48392 0.82464 0.16388 0.0
H1107 H 0.45257 0.80501 0.15567 0.0
H1108 H 0.48672 0.80605 0.14377 0.0
H1109 H 0.39661 0.92632 0.14043 0.0
H1110 H 0.38391 0.89499 0.15239 0.0
H1111 H 0.41094 0.91945 0.16132 0.0
H1112 H 0.36718 0.82482 0.1875 0.0
H1113 H 0.43743 0.87723 0.20891 0.0
H1114 H 0.40125 0.81343 0.14709 0.0
H1115 H 0.37516 0.84312 0.14662 0.0
H1116 H 0.36695 0.81057 0.15874 0.0
H1117 H 0.48524 0.87606 0.17385 0.0
H1118 H 0.47642 0.89603 0.19295 0.0
H1119 H 0.46286 0.90859 0.17279 0.0
C1120 C 0.0697 0.65139 0.87347 0.0
C1121 C 0.08418 0.62524 0.87807 0.0
C1122 C 0.08021 0.66862 0.86007 0.0
C1123 C 0.10581 0.65944 0.85113 0.0
C1124 C 0.12181 0.63434 0.8566 0.0
C1125 C 0.11074 0.61748 0.86999 0.0
C1126 C 0.06255 0.69525 0.85463 0.0
C1127 C 0.14937 0.624 0.8475 0.0
C1128 C 0.10767 0.67335 0.80405 0.0
C1129 C 0.12765 0.69694 0.80286 0.0
C1130 C 0.10019 0.66132 0.81971 0.0
C1131 C 0.11308 0.67309 0.83462 0.0
C1132 C 0.13301 0.69718 0.83358 0.0
C1133 C 0.14005 0.70891 0.81765 0.0
C1134 C 0.07872 0.6357 0.82027 0.0
C1135 C 0.14721 0.71018 0.84922 0.0
H1136 H 0.04907 0.65741 0.87961 0.0
H1137 H 0.12223 0.59752 0.87372 0.0
H1138 H 0.07743 0.71418 0.85201 0.0
H1139 H 0.05047 0.69 0.84275 0.0
H1140 H 0.04608 0.70204 0.86433 0.0
H1141 H 0.16151 0.60686 0.85475 0.0
H1142 H 0.14308 0.61453 0.83503 0.0
H1143 H 0.16457 0.64278 0.84513 0.0
H1144 H 0.09792 0.66409 0.79266 0.0
H1145 H 0.15558 0.7271 0.81677 0.0
H1146 H 0.05958 0.64128 0.82849 0.0
H1147 H 0.08979 0.61611 0.8258 0.0
H1148 H 0.07018 0.62961 0.80754 0.0
H1149 H 0.12988 0.71693 0.8584 0.0
H1150 H 0.16129 0.72963 0.84632 0.0
H1151 H 0.16115 0.69326 0.85548 0.0
C1152 C 0.39232 0.58987 0.14174 0.0
C1153 C 0.42228 0.59611 0.14494 0.0
C1154 C 0.37689 0.60433 0.12881 0.0
C1155 C 0.39181 0.62559 0.1189 0.0
C1156 C 0.421 0.63431 0.12334 0.0
C1157 C 0.43597 0.61937 0.13632 0.0
C1158 C 0.34571 0.59449 0.12462 0.0
C1159 C 0.43752 0.65724 0.11328 0.0
C1160 C 0.37398 0.62195 0.07223 0.0
C1161 C 0.35455 0.64579 0.07015 0.0
C1162 C 0.3864 0.61554 0.08799 0.0
C1163 C 0.3795 0.63362 0.10209 0.0
C1164 C 0.36035 0.65815 0.10007 0.0
C1165 C 0.34789 0.66387 0.08408 0.0
C1166 C 0.40656 0.58901 0.08956 0.0
C1167 C 0.35289 0.6781 0.11479 0.0
H1168 H 0.38146 0.57234 0.14867 0.0
H1169 H 0.45911 0.62438 0.13877 0.0
H1170 H 0.33138 0.61367 0.12166 0.0
H1171 H 0.34623 0.58003 0.11325 0.0
H1172 H 0.33553 0.58192 0.13515 0.0
H1173 H 0.45703 0.66594 0.12032 0.0
H1174 H 0.44552 0.64717 0.10131 0.0
H1175 H 0.42277 0.67593 0.10993 0.0
H1176 H 0.37922 0.60787 0.06152 0.0
H1177 H 0.333 0.68244 0.08249 0.0
H1178 H 0.3971 0.57314 0.09874 0.0
H1179 H 0.4286 0.59592 0.09444 0.0
H1180 H 0.4098 0.57737 0.07731 0.0
H1181 H 0.3408 0.66545 0.12457 0.0
H1182 H 0.33898 0.69717 0.11093 0.0
H1183 H 0.37354 0.68655 0.12074 0.0
C1184 C 0.44782 0.91192 0.36623 0.0
C1185 C 0.43645 0.93931 0.37147 0.0
C1186 C 0.43891 0.89905 0.35087 0.0
C1187 C 0.4184 0.91408 0.34042 0.0
C1188 C 0.40521 0.9406 0.34621 0.0
C1189 C 0.41427 0.95281 0.36172 0.0
C1190 C 0.45318 0.87049 0.34526 0.0
C1191 C 0.38319 0.95726 0.33547 0.0
C1192 C 0.43117 0.90414 0.29344 0.0
C1193 C 0.40885 0.884 0.28893 0.0
C1194 C 0.43396 0.91453 0.31007 0.0
C1195 C 0.41414 0.90432 0.32261 0.0
C1196 C 0.3912 0.88439 0.31814 0.0
C1197 C 0.38871 0.87457 0.30131 0.0
C1198 C 0.45849 0.93614 0.31425 0.0
C1199 C 0.36983 0.87287 0.33121 0.0
H1200 H 0.46508 0.90136 0.37358 0.0
H1201 H 0.40488 0.97364 0.36586 0.0
H1202 H 0.43627 0.85506 0.34013 0.0
H1203 H 0.46927 0.87504 0.33499 0.0
H1204 H 0.46519 0.85947 0.35576 0.0
H1205 H 0.37191 0.97508 0.34271 0.0
H1206 H 0.39493 0.96737 0.32463 0.0
H1207 H 0.36614 0.9421 0.33023 0.0
H1208 H 0.44664 0.91181 0.28394 0.0
H1209 H 0.37143 0.85896 0.29794 0.0
H1210 H 0.47407 0.92612 0.32346 0.0
H1211 H 0.44908 0.95625 0.32025 0.0
H1212 H 0.47125 0.94282 0.3029 0.0
H1213 H 0.38205 0.85936 0.34058 0.0
H1214 H 0.35202 0.85909 0.3255 0.0
H1215 H 0.35945 0.89145 0.33821 0.0
C1216 C 0.0847 0.92907 0.62395 0.0
C1217 C 0.10507 0.94752 0.63226 0.0
C1218 C 0.09269 0.91389 0.60913 0.0
C1219 C 0.12163 0.91749 0.60252 0.0
C1220 C 0.1432 0.93315 0.61201 0.0
C1221 C 0.13464 0.948 0.6268 0.0
C1222 C 0.0692 0.89686 0.59959 0.0
C1223 C 0.17444 0.93714 0.60557 0.0
C1224 C 0.14642 0.8802 0.56161 0.0
C1225 C 0.14084 0.90262 0.54982 0.0
C1226 C 0.13962 0.88419 0.57884 0.0
C1227 C 0.12722 0.91129 0.58433 0.0
C1228 C 0.12094 0.93366 0.57242 0.0
C1229 C 0.12771 0.92902 0.55538 0.0
C1230 C 0.14638 0.85976 0.59115 0.0
C1231 C 0.10762 0.96293 0.57771 0.0
H1232 H 0.06181 0.92849 0.62814 0.0
H1233 H 0.15062 0.96172 0.63344 0.0
H1234 H 0.06044 0.91073 0.58919 0.0
H1235 H 0.0786 0.87653 0.59384 0.0
H1236 H 0.05038 0.8907 0.60791 0.0
H1237 H 0.1897 0.94498 0.61569 0.0
H1238 H 0.18318 0.91618 0.60026 0.0
H1239 H 0.17439 0.9537 0.59528 0.0
H1240 H 0.15647 0.85968 0.55746 0.0
H1241 H 0.12309 0.94648 0.54645 0.0
H1242 H 0.1275 0.85634 0.59991 0.0
H1243 H 0.16592 0.866 0.59893 0.0
H1244 H 0.15134 0.83858 0.58461 0.0
H1245 H 0.08622 0.95931 0.58428 0.0
H1246 H 0.10363 0.97777 0.5668 0.0
H1247 H 0.12269 0.97436 0.58672 0.0
C1248 C 0.57677 0.39746 0.88313 0.0
C1249 C 0.58765 0.42526 0.87852 0.0
C1250 C 0.59055 0.38111 0.89593 0.0
C1251 C 0.61583 0.39287 0.90422 0.0
C1252 C 0.62853 0.41957 0.89847 0.0
C1253 C 0.61416 0.43556 0.88573 0.0
C1254 C 0.57631 0.35273 0.90168 0.0
C1255 C 0.65574 0.43262 0.90679 0.0
C1256 C 0.62024 0.37973 0.9513 0.0
C1257 C 0.64167 0.35744 0.95242 0.0
C1258 C 0.61181 0.39133 0.93567 0.0
C1259 C 0.62528 0.38051 0.92073 0.0
C1260 C 0.64717 0.35816 0.92172 0.0
C1261 C 0.65507 0.34675 0.93762 0.0
C1262 C 0.58827 0.4151 0.93519 0.0
C1263 C 0.66213 0.34634 0.90604 0.0
H1264 H 0.55623 0.38946 0.87761 0.0
H1265 H 0.62287 0.45684 0.88196 0.0
H1266 H 0.59332 0.33557 0.90408 0.0
H1267 H 0.56437 0.35675 0.91374 0.0
H1268 H 0.56016 0.34411 0.89225 0.0
H1269 H 0.66587 0.45023 0.89896 0.0
H1270 H 0.64949 0.44236 0.91918 0.0
H1271 H 0.67262 0.41532 0.90919 0.0
H1272 H 0.60976 0.38807 0.96269 0.0
H1273 H 0.67172 0.32956 0.93846 0.0
H1274 H 0.56925 0.40767 0.92733 0.0
H1275 H 0.59736 0.43535 0.92932 0.0
H1276 H 0.57989 0.4209 0.94798 0.0
H1277 H 0.64536 0.3365 0.89741 0.0
H1278 H 0.67909 0.32934 0.909 0.0
H1279 H 0.67295 0.36463 0.89911 0.0
C1280 C 0.65117 0.06875 0.13718 0.0
C1281 C 0.62154 0.07076 0.13187 0.0
C1282 C 0.66029 0.08074 0.15273 0.0
C1283 C 0.63925 0.09504 0.16321 0.0
C1284 C 0.6098 0.09895 0.15739 0.0
C1285 C 0.60128 0.08674 0.14178 0.0
C1286 C 0.69197 0.07633 0.15841 0.0
C1287 C 0.58671 0.11411 0.16817 0.0
C1288 C 0.65093 0.08654 0.21036 0.0
C1289 C 0.66287 0.11405 0.21499 0.0
C1290 C 0.64294 0.08033 0.1936 0.0
C1291 C 0.64696 0.10213 0.18106 0.0
C1292 C 0.65862 0.13009 0.1856 0.0
C1293 C 0.66644 0.13574 0.20253 0.0
C1294 C 0.63046 0.05024 0.1893 0.0
C1295 C 0.66313 0.15385 0.17255 0.0
H1296 H 0.66701 0.05682 0.12943 0.0
H1297 H 0.57829 0.08821 0.13783 0.0
H1298 H 0.70133 0.09726 0.16344 0.0
H1299 H 0.69258 0.05995 0.16879 0.0
H1300 H 0.70638 0.06824 0.14799 0.0
H1301 H 0.56621 0.11913 0.16091 0.0
H1302 H 0.58072 0.09961 0.1789 0.0
H1303 H 0.59559 0.13496 0.17357 0.0
H1304 H 0.64792 0.06962 0.21984 0.0
H1305 H 0.67559 0.15708 0.20595 0.0
H1306 H 0.64504 0.03897 0.18001 0.0
H1307 H 0.60827 0.05258 0.18336 0.0
H1308 H 0.62829 0.03593 0.20059 0.0
H1309 H 0.6792 0.14617 0.16287 0.0
H1310 H 0.67151 0.17474 0.17821 0.0
H1311 H 0.64194 0.15845 0.16591 0.0
C1312 C 0.95235 0.15494 0.37408 0.0
C1313 C 0.94768 0.1263 0.36778 0.0
C1314 C 0.93595 0.16575 0.38782 0.0
C1315 C 0.91398 0.14766 0.39525 0.0
C1316 C 0.90704 0.12001 0.38783 0.0
C1317 C 0.92415 0.10952 0.37426 0.0
C1318 C 0.94407 0.19539 0.39532 0.0
C1319 C 0.88327 0.10038 0.39512 0.0
C1320 C 0.90852 0.15416 0.44282 0.0
C1321 C 0.88411 0.17297 0.44489 0.0
C1322 C 0.918 0.14542 0.42673 0.0
C1323 C 0.90236 0.15531 0.41229 0.0
C1324 C 0.87693 0.17335 0.41428 0.0
C1325 C 0.86824 0.18224 0.43061 0.0
C1326 C 0.94538 0.12634 0.4252 0.0
C1327 C 0.85936 0.18375 0.39919 0.0
H1328 H 0.96992 0.16838 0.36882 0.0
H1329 H 0.92029 0.08736 0.36952 0.0
H1330 H 0.92389 0.20854 0.39806 0.0
H1331 H 0.95591 0.19202 0.40748 0.0
H1332 H 0.95868 0.20832 0.38682 0.0
H1333 H 0.87657 0.08271 0.3861 0.0
H1334 H 0.89177 0.08979 0.40678 0.0
H1335 H 0.86337 0.11344 0.39863 0.0
H1336 H 0.92088 0.14689 0.45381 0.0
H1337 H 0.84924 0.19666 0.43217 0.0
H1338 H 0.96269 0.13817 0.41792 0.0
H1339 H 0.94007 0.10573 0.41819 0.0
H1340 H 0.95478 0.12031 0.4377 0.0
H1341 H 0.87275 0.19973 0.39185 0.0
H1342 H 0.83827 0.19463 0.40295 0.0
H1343 H 0.85419 0.16492 0.39065 0.0
C1344 C 0.91924 0.41632 0.6262 0.0
C1345 C 0.94797 0.42571 0.6306 0.0
C1346 C 0.8991 0.40693 0.63857 0.0
C1347 C 0.90818 0.40613 0.65568 0.0
C1348 C 0.9379 0.41294 0.66 0.0
C1349 C 0.95729 0.42304 0.64747 0.0
C1350 C 0.86756 0.40001 0.63348 0.0
C1351 C 0.94867 0.41162 0.67807 0.0
C1352 C 0.85545 0.42527 0.69114 0.0
C1353 C 0.84934 0.39753 0.69791 0.0
C1354 C 0.87314 0.42809 0.67672 0.0
C1355 C 0.88592 0.40254 0.66933 0.0
C1356 C 0.87915 0.37429 0.67591 0.0
C1357 C 0.86049 0.37209 0.69007 0.0
C1358 C 0.87917 0.45856 0.66985 0.0
C1359 C 0.89303 0.34666 0.66871 0.0
H1360 H 0.91202 0.41737 0.61315 0.0
H1361 H 0.97926 0.43036 0.65116 0.0
H1362 H 0.85985 0.37936 0.63953 0.0
H1363 H 0.85279 0.41807 0.63788 0.0
H1364 H 0.86507 0.39773 0.61956 0.0
H1365 H 0.97324 0.41297 0.67895 0.0
H1366 H 0.9391 0.43031 0.68536 0.0
H1367 H 0.94124 0.39089 0.68417 0.0
H1368 H 0.84676 0.44486 0.69732 0.0
H1369 H 0.85608 0.35068 0.6956 0.0
H1370 H 0.87513 0.45903 0.65602 0.0
H1371 H 0.90279 0.46442 0.67199 0.0
H1372 H 0.86512 0.47569 0.67596 0.0
H1373 H 0.89125 0.34631 0.65473 0.0
H1374 H 0.88262 0.32632 0.6738 0.0
H1375 H 0.917 0.34631 0.67194 0.0
C1376 C 0.65249 0.08118 0.37704 0.0
C1377 C 0.62836 0.09666 0.38395 0.0
C1378 C 0.66762 0.09199 0.36286 0.0
C1379 C 0.65793 0.11849 0.35523 0.0
C1380 C 0.63551 0.13555 0.36309 0.0
C1381 C 0.6213 0.1246 0.3775 0.0
C1382 C 0.69218 0.07369 0.3552 0.0
C1383 C 0.62438 0.16388 0.35536 0.0
C1384 C 0.69643 0.15386 0.31762 0.0
C1385 C 0.6801 0.14184 0.30414 0.0
C1386 C 0.69044 0.14557 0.33439 0.0
C1387 C 0.66704 0.12554 0.33766 0.0
C1388 C 0.65086 0.11307 0.32402 0.0
C1389 C 0.65786 0.12109 0.30744 0.0
C1390 C 0.70874 0.15859 0.34857 0.0
C1391 C 0.62542 0.09194 0.32692 0.0
H1392 H 0.65828 0.05963 0.38192 0.0
H1393 H 0.60332 0.13716 0.38309 0.0
H1394 H 0.68342 0.06128 0.34414 0.0
H1395 H 0.71049 0.08797 0.35067 0.0
H1396 H 0.70127 0.05755 0.36437 0.0
H1397 H 0.60972 0.17637 0.36412 0.0
H1398 H 0.64315 0.17827 0.35168 0.0
H1399 H 0.6116 0.15866 0.34371 0.0
H1400 H 0.71383 0.16973 0.31507 0.0
H1401 H 0.64514 0.11179 0.29705 0.0
H1402 H 0.71615 0.14101 0.35734 0.0
H1403 H 0.69504 0.17431 0.35599 0.0
H1404 H 0.72855 0.17052 0.34381 0.0
H1405 H 0.6333 0.07232 0.33395 0.0
H1406 H 0.61506 0.08433 0.31492 0.0
H1407 H 0.60812 0.10281 0.33475 0.0
C1408 C 0.97406 0.16736 0.60827 0.0
C1409 C 0.9613 0.14515 0.61821 0.0
C1410 C 0.96185 0.17493 0.59255 0.0
C1411 C 0.93617 0.16006 0.58668 0.0
C1412 C 0.9218 0.13944 0.59728 0.0
C1413 C 0.93459 0.13215 0.61289 0.0
C1414 C 0.97775 0.19719 0.58169 0.0
C1415 C 0.89419 0.12331 0.59157 0.0
C1416 C 0.89671 0.18484 0.54657 0.0
C1417 C 0.90823 0.16491 0.5346 0.0
C1418 C 0.90579 0.1839 0.56358 0.0
C1419 C 0.92698 0.16265 0.56868 0.0
C1420 C 0.93913 0.14295 0.5566 0.0
C1421 C 0.92958 0.14428 0.53976 0.0
C1422 C 0.8923 0.20517 0.57614 0.0
C1423 C 0.96201 0.12012 0.56148 0.0
H1424 H 0.99437 0.17795 0.61247 0.0
H1425 H 0.92463 0.11484 0.62039 0.0
H1426 H 0.98912 0.18555 0.57117 0.0
H1427 H 0.96177 0.2129 0.576 0.0
H1428 H 0.99461 0.20988 0.58898 0.0
H1429 H 0.88334 0.11138 0.60212 0.0
H1430 H 0.87798 0.13891 0.58599 0.0
H1431 H 0.90012 0.10701 0.58162 0.0
H1432 H 0.88021 0.20088 0.54273 0.0
H1433 H 0.93884 0.12893 0.53064 0.0
H1434 H 0.90998 0.21707 0.58317 0.0
H1435 H 0.87908 0.19278 0.58555 0.0
H1436 H 0.87764 0.22164 0.56996 0.0
H1437 H 0.98141 0.13102 0.56751 0.0
H1438 H 0.96992 0.10706 0.55045 0.0
H1439 H 0.95245 0.10471 0.57087 0.0
C1440 C 0.90228 0.4324 0.86326 0.0
C1441 C 0.89709 0.45975 0.87108 0.0
C1442 C 0.889 0.42528 0.84773 0.0
C1443 C 0.86985 0.44594 0.83994 0.0
C1444 C 0.86198 0.47212 0.84868 0.0
C1445 C 0.87583 0.47882 0.86415 0.0
C1446 C 0.8978 0.39696 0.83893 0.0
C1447 C 0.84107 0.49436 0.84099 0.0
C1448 C 0.87893 0.44845 0.79247 0.0
C1449 C 0.85518 0.43096 0.78678 0.0
C1450 C 0.88315 0.45431 0.80969 0.0
C1451 C 0.86297 0.44269 0.82163 0.0
C1452 C 0.83799 0.42643 0.81598 0.0
C1453 C 0.83446 0.42059 0.79861 0.0
C1454 C 0.9101 0.47185 0.81514 0.0
C1455 C 0.81569 0.41416 0.8283 0.0
H1456 H 0.91816 0.41726 0.86879 0.0
H1457 H 0.87163 0.49999 0.87013 0.0
H1458 H 0.87803 0.38562 0.83364 0.0
H1459 H 0.9128 0.40212 0.82823 0.0
H1460 H 0.9095 0.38157 0.84757 0.0
H1461 H 0.8325 0.51013 0.85062 0.0
H1462 H 0.85297 0.50711 0.83117 0.0
H1463 H 0.82202 0.48317 0.83479 0.0
H1464 H 0.89496 0.45684 0.78351 0.0
H1465 H 0.81589 0.40724 0.79437 0.0
H1466 H 0.92493 0.45776 0.82288 0.0
H1467 H 0.90332 0.49088 0.82311 0.0
H1468 H 0.92298 0.4803 0.80422 0.0
H1469 H 0.82539 0.39477 0.8348 0.0
H1470 H 0.79494 0.40702 0.82186 0.0
H1471 H 0.81008 0.43076 0.83815 0.0
C1472 C 0.61939 0.41237 0.12092 0.0
C1473 C 0.59059 0.40609 0.12654 0.0
C1474 C 0.62962 0.40155 0.10535 0.0
C1475 C 0.61053 0.3841 0.09516 0.0
C1476 C 0.58248 0.37548 0.10148 0.0
C1477 C 0.57281 0.38662 0.11712 0.0
C1478 C 0.65981 0.411 0.09917 0.0
C1479 C 0.56152 0.35677 0.09107 0.0
C1480 C 0.61565 0.39781 0.04814 0.0
C1481 C 0.63153 0.3731 0.04235 0.0
C1482 C 0.6086 0.40134 0.06523 0.0
C1483 C 0.61756 0.37963 0.07698 0.0
C1484 C 0.63332 0.35444 0.07131 0.0
C1485 C 0.64017 0.35145 0.05403 0.0
C1486 C 0.5917 0.42857 0.07074 0.0
C1487 C 0.64314 0.33084 0.08349 0.0
H1488 H 0.63341 0.42698 0.12833 0.0
H1489 H 0.5505 0.38173 0.12136 0.0
H1490 H 0.67176 0.39216 0.09332 0.0
H1491 H 0.65712 0.42818 0.08933 0.0
H1492 H 0.67368 0.42027 0.10954 0.0
H1493 H 0.54314 0.34774 0.09882 0.0
H1494 H 0.55175 0.37043 0.08087 0.0
H1495 H 0.57349 0.33818 0.08497 0.0
H1496 H 0.60877 0.41468 0.0393 0.0
H1497 H 0.65238 0.33225 0.04971 0.0
H1498 H 0.60509 0.44142 0.07998 0.0
H1499 H 0.57081 0.42211 0.07713 0.0
H1500 H 0.58608 0.44319 0.05996 0.0
H1501 H 0.65874 0.34039 0.09291 0.0
H1502 H 0.65425 0.31208 0.07699 0.0
H1503 H 0.62377 0.32228 0.09059 0.0
loop_
_geom_bond_atom_site_label_1
_geom_bond_atom_site_label_2
_geom_bond_distance
_geom_bond_site_symmetry_2
_ccdc_geom_bond_type
C0 C1 1.384 . S
C0 C2 1.384 . S
C0 H28 0.931 . S
C1 C0 1.384 . S
C1 C4 1.383 . S
C2 C0 1.384 . S
C2 C3 1.419 . S
C2 H29 0.930 . S
C3 C2 1.419 . S
C3 C5 1.363 1_565 S
C3 C6 1.469 1_565 S
C4 C1 1.383 . S
C4 C5 1.387 1_565 S
C4 H30 0.930 1_565 S
C5 C3 1.363 1_545 S
C5 C4 1.387 1_545 S
C5 H31 0.931 . S
C6 C3 1.469 1_545 S
C6 C13 1.399 . S
C6 N44 1.343 . S
C7 C8 1.384 . S
C7 C9 1.384 . S
C7 H32 0.931 . S
C8 C7 1.384 . S
C8 C11 1.382 . S
C9 C7 1.384 . S
C9 C10 1.381 . S
C9 H33 0.930 1_565 S
C10 C9 1.381 . S
C10 C12 1.381 . S
C10 C13 1.487 1_565 S
C11 C8 1.382 . S
C11 C12 1.387 . S
C11 H34 0.930 . S
C12 C10 1.381 . S
C12 C11 1.387 . S
C12 H35 0.931 . S
C13 C6 1.399 . S
C13 C10 1.487 1_545 S
C13 N45 1.343 . S
C14 C15 1.384 . S
C14 C16 1.384 . S
C14 H36 0.931 . S
C15 C14 1.384 . S
C15 C18 1.382 . S
C16 C14 1.384 . S
C16 C17 1.381 . S
C16 H37 0.930 . S
C17 C16 1.381 . S
C17 C19 1.381 . S
C17 C20 1.487 1_655 S
C18 C15 1.382 . S
C18 C19 1.387 . S
C18 H38 0.930 . S
C19 C17 1.381 . S
C19 C18 1.387 . S
C19 H39 0.931 . S
C20 C17 1.487 1_455 S
C20 C27 1.399 . S
C20 N45 1.343 . S
C21 C22 1.384 . S
C21 C23 1.384 . S
C21 H40 0.931 . S
C22 C21 1.384 . S
C22 C25 1.382 . S
C23 C21 1.384 . S
C23 C24 1.381 . S
C23 H41 0.930 . S
C24 C23 1.381 . S
C24 C26 1.381 1_655 S
C24 C27 1.487 1_655 S
C25 C22 1.382 . S
C25 C26 1.387 1_655 S
C25 H42 0.930 . S
C26 C24 1.381 1_455 S
C26 C25 1.387 1_455 S
C26 H43 0.931 . S
C27 C20 1.399 . S
C27 C24 1.487 1_455 S
C27 N44 1.343 . S
H28 C0 0.931 . S
H29 C2 0.930 . S
H30 C4 0.930 1_545 S
H31 C5 0.931 . S
H32 C7 0.931 . S
H33 C9 0.930 1_545 S
H34 C11 0.930 . S
H35 C12 0.931 . S
H36 C14 0.931 . S
H37 C16 0.930 . S
H38 C18 0.930 . S
H39 C19 0.931 . S
H40 C21 0.931 . S
H41 C23 0.930 . S
H42 C25 0.930 . S
H43 C26 0.931 . S
N44 C6 1.343 . S
N44 C27 1.343 . S
N45 C13 1.343 . S
N45 C20 1.343 . S
C46 C47 1.384 . S
C46 C48 1.384 . S
C46 H74 0.931 . S
C47 C46 1.384 . S
C47 C50 1.382 . S
C48 C46 1.384 . S
C48 C49 1.381 . S
C48 H75 0.930 . S
C49 C48 1.381 . S
C49 C51 1.381 . S
C49 C52 1.487 . S
C50 C47 1.382 . S
C50 C51 1.387 . S
C50 H76 0.930 . S
C51 C49 1.381 . S
C51 C50 1.387 . S
C51 H77 0.931 1_655 S
C52 C49 1.487 . S
C52 C59 1.399 . S
C52 N90 1.343 1_655 S
C53 C54 1.384 . S
C53 C55 1.384 . S
C53 H78 0.931 . S
C54 C53 1.384 . S
C54 C57 1.382 . S
C55 C53 1.384 . S
C55 C56 1.381 . S
C55 H79 0.930 . S
C56 C55 1.381 . S
C56 C58 1.381 . S
C56 C59 1.487 . S
C57 C54 1.382 . S
C57 C58 1.387 . S
C57 H80 0.930 . S
C58 C56 1.381 . S
C58 C57 1.387 . S
C58 H81 0.931 . S
C59 C52 1.399 . S
C59 C56 1.487 . S
C59 N91 1.343 1_655 S
C60 C61 1.384 . S
C60 C62 1.384 . S
C60 H82 0.931 . S
C61 C60 1.384 . S
C61 C64 1.382 . S
C62 C60 1.384 . S
C62 C63 1.381 . S
C62 H83 0.930 . S
C63 C62 1.381 . S
C63 C65 1.381 . S
C63 C66 1.487 . S
C64 C61 1.382 . S
C64 C65 1.387 . S
C64 H84 0.930 . S
C65 C63 1.381 . S
C65 C64 1.387 . S
C65 H85 0.931 . S
C66 C63 1.487 . S
C66 C73 1.399 . S
C66 N91 1.343 . S
C67 C68 1.384 . S
C67 C69 1.384 . S
C67 H86 0.931 . S
C68 C67 1.384 . S
C68 C71 1.382 . S
C69 C67 1.384 . S
C69 C70 1.381 . S
C69 H87 0.930 . S
C70 C69 1.381 . S
C70 C72 1.381 . S
C70 C73 1.487 . S
C71 C68 1.382 . S
C71 C72 1.387 . S
C71 H88 0.930 . S
C72 C70 1.381 . S
C72 C71 1.387 . S
C72 H89 0.931 . S
C73 C66 1.399 . S
C73 C70 1.487 . S
C73 N90 1.343 . S
H74 C46 0.931 . S
H75 C48 0.930 . S
H76 C50 0.930 . S
H77 C51 0.931 1_455 S
H78 C53 0.931 . S
H79 C55 0.930 . S
H80 C57 0.930 . S
H81 C58 0.931 . S
H82 C60 0.931 . S
H83 C62 0.930 . S
H84 C64 0.930 . S
H85 C65 0.931 . S
H86 C67 0.931 . S
H87 C69 0.930 . S
H88 C71 0.930 . S
H89 C72 0.931 . S
N90 C52 1.343 1_455 S
N90 C73 1.343 . S
N91 C59 1.343 1_455 S
N91 C66 1.343 . S
C92 C93 1.384 . S
C92 C94 1.384 . S
C92 H120 0.931 . S
C93 C92 1.384 . S
C93 C96 1.382 . S
C94 C92 1.384 . S
C94 C95 1.381 . S
C94 H121 0.930 . S
C95 C94 1.381 . S
C95 C97 1.381 . S
C95 C98 1.487 . S
C96 C93 1.382 . S
C96 C97 1.387 . S
C96 H122 0.930 . S
C97 C95 1.381 . S
C97 C96 1.387 . S
C97 H123 0.931 . S
C98 C95 1.487 . S
C98 C105 1.399 . S
C98 N136 1.343 . S
C99 C100 1.384 . S
C99 C101 1.384 . S
C99 H124 0.931 . S
C100 C99 1.384 . S
C100 C103 1.382 . S
C101 C99 1.384 . S
C101 C102 1.381 . S
C101 H125 0.930 . S
C102 C101 1.381 . S
C102 C104 1.381 . S
C102 C105 1.487 . S
C103 C100 1.382 . S
C103 C104 1.387 . S
C103 H126 0.930 . S
C104 C102 1.381 . S
C104 C103 1.387 . S
C104 H127 0.931 . S
C105 C98 1.399 . S
C105 C102 1.487 . S
C105 N137 1.343 . S
C106 C107 1.384 . S
C106 C108 1.384 . S
C106 H128 0.931 . S
C107 C106 1.384 . S
C107 C110 1.382 . S
C108 C106 1.384 . S
C108 C109 1.381 . S
C108 H129 0.930 . S
C109 C108 1.381 . S
C109 C111 1.381 . S
C109 C112 1.487 . S
C110 C107 1.382 . S
C110 C111 1.387 . S
C110 H130 0.930 . S
C111 C109 1.381 . S
C111 C110 1.387 . S
C111 H131 0.931 . S
C112 C109 1.487 . S
C112 C119 1.399 . S
C112 N137 1.343 . S
C113 C114 1.384 . S
C113 C115 1.384 . S
C113 H132 0.931 . S
C114 C113 1.384 . S
C114 C117 1.382 . S
C115 C113 1.384 . S
C115 C116 1.381 . S
C115 H133 0.930 . S
C116 C115 1.381 . S
C116 C118 1.381 . S
C116 C119 1.487 . S
C117 C114 1.382 . S
C117 C118 1.387 . S
C117 H134 0.930 . S
C118 C116 1.381 . S
C118 C117 1.387 . S
C118 H135 0.931 . S
C119 C112 1.399 . S
C119 C116 1.487 . S
C119 N136 1.343 . S
H120 C92 0.931 . S
H121 C94 0.930 . S
H122 C96 0.930 . S
H123 C97 0.931 . S
H124 C99 0.931 . S
H125 C101 0.930 . S
H126 C103 0.930 . S
H127 C104 0.931 . S
H128 C106 0.931 . S
H129 C108 0.930 . S
H130 C110 0.930 . S
H131 C111 0.931 . S
H132 C113 0.931 . S
H133 C115 0.930 . S
H134 C117 0.930 . S
H135 C118 0.931 . S
N136 C98 1.343 . S
N136 C119 1.343 . S
N137 C105 1.343 . S
N137 C112 1.343 . S
C138 C139 1.384 . S
C138 C140 1.384 . S
C138 H166 0.931 . S
C139 C138 1.384 . S
C139 C142 1.382 . S
C140 C138 1.384 . S
C140 C141 1.381 . S
C140 H167 0.930 . S
C141 C140 1.381 . S
C141 C143 1.381 . S
C141 C144 1.487 . S
C142 C139 1.382 . S
C142 C143 1.387 . S
C142 H168 0.930 . S
C143 C141 1.381 . S
C143 C142 1.387 . S
C143 H169 0.931 . S
C144 C141 1.487 . S
C144 C151 1.399 . S
C144 N182 1.343 1_565 S
C145 C146 1.384 . S
C145 C147 1.384 . S
C145 H170 0.931 . S
C146 C145 1.384 . S
C146 C149 1.382 . S
C147 C145 1.384 . S
C147 C148 1.381 . S
C147 H171 0.930 . S
C148 C147 1.381 . S
C148 C150 1.381 . S
C148 C151 1.487 . S
C149 C146 1.382 . S
C149 C150 1.387 . S
C149 H172 0.930 . S
C150 C148 1.381 . S
C150 C149 1.387 . S
C150 H173 0.931 . S
C151 C144 1.399 . S
C151 C148 1.487 . S
C151 N183 1.343 . S
C152 C153 1.384 . S
C152 C154 1.384 . S
C152 H174 0.931 . S
C153 C152 1.384 . S
C153 C156 1.382 . S
C154 C152 1.384 . S
C154 C155 1.381 . S
C154 H175 0.930 . S
C155 C154 1.381 . S
C155 C157 1.381 . S
C155 C158 1.487 . S
C156 C153 1.382 . S
C156 C157 1.387 . S
C156 H176 0.930 . S
C157 C155 1.381 . S
C157 C156 1.387 . S
C157 H177 0.931 . S
C158 C155 1.487 . S
C158 C165 1.399 . S
C158 N183 1.343 1_545 S
C159 C160 1.384 . S
C159 C161 1.384 . S
C159 H178 0.931 . S
C160 C159 1.384 . S
C160 C163 1.382 . S
C161 C159 1.384 . S
C161 C162 1.381 . S
C161 H179 0.930 . S
C162 C161 1.381 . S
C162 C164 1.381 . S
C162 C165 1.487 . S
C163 C160 1.382 . S
C163 C164 1.387 . S
C163 H180 0.930 . S
C164 C162 1.381 . S
C164 C163 1.387 . S
C164 H181 0.931 . S
C165 C158 1.399 . S
C165 C162 1.487 . S
C165 N182 1.343 . S
H166 C138 0.931 . S
H167 C140 0.930 . S
H168 C142 0.930 . S
H169 C143 0.931 . S
H170 C145 0.931 . S
H171 C147 0.930 . S
H172 C149 0.930 . S
H173 C150 0.931 . S
H174 C152 0.931 . S
H175 C154 0.930 . S
H176 C156 0.930 . S
H177 C157 0.931 . S
H178 C159 0.931 . S
H179 C161 0.930 . S
H180 C163 0.930 . S
H181 C164 0.931 . S
N182 C144 1.343 1_545 S
N182 C165 1.343 . S
N183 C151 1.343 . S
N183 C158 1.343 1_565 S
C184 C185 1.384 . S
C184 C186 1.384 . S
C184 H212 0.931 . S
C185 C184 1.384 . S
C185 C188 1.382 . S
C186 C184 1.384 . S
C186 C187 1.381 . S
C186 H213 0.930 . S
C187 C186 1.381 . S
C187 C189 1.381 . S
C187 C190 1.487 . S
C188 C185 1.382 . S
C188 C189 1.387 . S
C188 H214 0.930 . S
C189 C187 1.381 . S
C189 C188 1.387 . S
C189 H215 0.931 . S
C190 C187 1.487 . S
C190 C197 1.399 . S
C190 N228 1.343 . S
C191 C192 1.384 . S
C191 C193 1.384 . S
C191 H216 0.931 . S
C192 C191 1.384 . S
C192 C195 1.382 . S
C193 C191 1.384 . S
C193 C194 1.381 . S
C193 H217 0.930 . S
C194 C193 1.381 . S
C194 C196 1.381 . S
C194 C197 1.487 . S
C195 C192 1.382 . S
C195 C196 1.387 . S
C195 H218 0.930 . S
C196 C194 1.381 . S
C196 C195 1.387 . S
C196 H219 0.931 . S
C197 C190 1.399 . S
C197 C194 1.487 . S
C197 N229 1.315 1_455 S
C198 C199 1.384 . S
C198 C200 1.384 . S
C198 H220 0.931 . S
C199 C198 1.384 . S
C199 C202 1.382 . S
C200 C198 1.384 . S
C200 C201 1.381 . S
C200 H221 0.930 . S
C201 C200 1.381 . S
C201 C203 1.381 . S
C201 C204 1.487 . S
C202 C199 1.382 . S
C202 C203 1.387 . S
C202 H222 0.930 . S
C203 C201 1.381 . S
C203 C202 1.387 . S
C203 H223 0.931 . S
C204 C201 1.487 . S
C204 C211 1.399 . S
C204 N229 1.368 . S
C205 C206 1.384 . S
C205 C207 1.384 . S
C205 H224 0.931 . S
C206 C205 1.384 . S
C206 C209 1.382 . S
C207 C205 1.384 . S
C207 C208 1.381 . S
C207 H225 0.930 . S
C208 C207 1.381 . S
C208 C210 1.381 . S
C208 C211 1.487 . S
C209 C206 1.382 . S
C209 C210 1.387 . S
C209 H226 0.930 . S
C210 C208 1.381 . S
C210 C209 1.387 . S
C210 H227 0.931 . S
C211 C204 1.399 . S
C211 C208 1.487 . S
C211 N228 1.343 1_655 S
H212 C184 0.931 . S
H213 C186 0.930 . S
H214 C188 0.930 . S
H215 C189 0.931 . S
H216 C191 0.931 . S
H217 C193 0.930 . S
H218 C195 0.930 . S
H219 C196 0.931 . S
H220 C198 0.931 . S
H221 C200 0.930 . S
H222 C202 0.930 . S
H223 C203 0.931 . S
H224 C205 0.931 . S
H225 C207 0.930 . S
H226 C209 0.930 . S
H227 C210 0.931 . S
N228 C190 1.343 . S
N228 C211 1.343 1_455 S
N229 C197 1.315 1_655 S
N229 C204 1.368 . S
C230 C231 1.384 . S
C230 C232 1.384 . S
C230 H258 0.931 . S
C231 C230 1.384 . S
C231 C234 1.382 . S
C232 C230 1.384 . S
C232 C233 1.381 . S
C232 H259 0.930 . S
C233 C232 1.381 . S
C233 C235 1.381 . S
C233 C236 1.487 . S
C234 C231 1.382 . S
C234 C235 1.387 . S
C234 H260 0.930 . S
C235 C233 1.381 . S
C235 C234 1.387 . S
C235 H261 0.931 . S
C236 C233 1.487 . S
C236 C243 1.399 . S
C236 N274 1.343 . S
C237 C238 1.384 . S
C237 C239 1.384 . S
C237 H262 0.931 . S
C238 C237 1.384 . S
C238 C241 1.382 . S
C239 C237 1.384 . S
C239 C240 1.381 . S
C239 H263 0.930 . S
C240 C239 1.381 . S
C240 C242 1.381 . S
C240 C243 1.487 . S
C241 C238 1.382 . S
C241 C242 1.387 . S
C241 H264 0.930 . S
C242 C240 1.381 . S
C242 C241 1.387 . S
C242 H265 0.931 . S
C243 C236 1.399 . S
C243 C240 1.487 . S
C243 N275 1.343 . S
C244 C245 1.384 . S
C244 C246 1.384 . S
C244 H266 0.931 . S
C245 C244 1.384 . S
C245 C248 1.382 . S
C246 C244 1.384 . S
C246 C247 1.381 . S
C246 H267 0.930 . S
C247 C246 1.381 . S
C247 C249 1.381 . S
C247 C250 1.487 . S
C248 C245 1.382 . S
C248 C249 1.387 . S
C248 H268 0.930 . S
C249 C247 1.381 . S
C249 C248 1.387 . S
C249 H269 0.931 . S
C250 C247 1.487 . S
C250 C257 1.399 . S
C250 N275 1.343 . S
C251 C252 1.384 . S
C251 C253 1.384 . S
C251 H270 0.931 . S
C252 C251 1.384 . S
C252 C255 1.382 . S
C253 C251 1.384 . S
C253 C254 1.381 . S
C253 H271 0.930 . S
C254 C253 1.381 . S
C254 C256 1.381 . S
C254 C257 1.487 . S
C255 C252 1.382 . S
C255 C256 1.387 . S
C255 H272 0.930 . S
C256 C254 1.381 . S
C256 C255 1.387 . S
C256 H273 0.931 . S
C257 C250 1.399 . S
C257 C254 1.487 . S
C257 N274 1.343 . S
H258 C230 0.931 . S
H259 C232 0.930 . S
H260 C234 0.930 . S
H261 C235 0.931 . S
H262 C237 0.931 . S
H263 C239 0.930 . S
H264 C241 0.930 . S
H265 C242 0.931 . S
H266 C244 0.931 . S
H267 C246 0.930 . S
H268 C248 0.930 . S
H269 C249 0.931 . S
H270 C251 0.931 . S
H271 C253 0.930 . S
H272 C255 0.930 . S
H273 C256 0.931 . S
N274 C236 1.343 . S
N274 C257 1.343 . S
N275 C243 1.343 . S
N275 C250 1.343 . S
C276 C277 1.384 . S
C276 C278 1.384 . S
C276 H304 0.931 . S
C277 C276 1.384 . S
C277 C280 1.382 . S
C278 C276 1.384 . S
C278 C279 1.381 . S
C278 H305 0.930 . S
C279 C278 1.381 . S
C279 C281 1.381 . S
C279 C282 1.487 . S
C280 C277 1.382 . S
C280 C281 1.387 . S
C280 H306 0.930 . S
C281 C279 1.381 . S
C281 C280 1.387 . S
C281 H307 0.931 1_565 S
C282 C279 1.487 . S
C282 C289 1.399 . S
C282 N320 1.343 1_565 S
C283 C284 1.384 . S
C283 C285 1.384 . S
C283 H308 0.931 . S
C284 C283 1.384 . S
C284 C287 1.382 . S
C285 C283 1.384 . S
C285 C286 1.381 . S
C285 H309 0.930 . S
C286 C285 1.381 . S
C286 C288 1.381 . S
C286 C289 1.487 . S
C287 C284 1.382 . S
C287 C288 1.387 . S
C287 H310 0.930 . S
C288 C286 1.381 . S
C288 C287 1.387 . S
C288 H311 0.931 . S
C289 C282 1.399 . S
C289 C286 1.487 . S
C289 N321 1.343 1_565 S
C290 C291 1.384 . S
C290 C292 1.384 . S
C290 H312 0.931 . S
C291 C290 1.384 . S
C291 C294 1.382 . S
C292 C290 1.384 . S
C292 C293 1.381 . S
C292 H313 0.930 . S
C293 C292 1.381 . S
C293 C295 1.381 . S
C293 C296 1.487 . S
C294 C291 1.382 . S
C294 C295 1.387 . S
C294 H314 0.930 . S
C295 C293 1.381 . S
C295 C294 1.387 . S
C295 H315 0.931 . S
C296 C293 1.487 . S
C296 C303 1.399 . S
C296 N321 1.343 . S
C297 C298 1.384 . S
C297 C299 1.384 . S
C297 H316 0.931 . S
C298 C297 1.384 . S
C298 C301 1.382 . S
C299 C297 1.384 . S
C299 C300 1.381 . S
C299 H317 0.930 . S
C300 C299 1.381 . S
C300 C302 1.381 . S
C300 C303 1.487 . S
C301 C298 1.382 . S
C301 C302 1.387 . S
C301 H318 0.930 . S
C302 C300 1.381 . S
C302 C301 1.387 . S
C302 H319 0.931 . S
C303 C296 1.399 . S
C303 C300 1.487 . S
C303 N320 1.343 . S
H304 C276 0.931 . S
H305 C278 0.930 . S
H306 C280 0.930 . S
H307 C281 0.931 1_545 S
H308 C283 0.931 . S
H309 C285 0.930 . S
H310 C287 0.930 . S
H311 C288 0.931 . S
H312 C290 0.931 . S
H313 C292 0.930 . S
H314 C294 0.930 . S
H315 C295 0.931 . S
H316 C297 0.931 . S
H317 C299 0.930 . S
H318 C301 0.930 . S
H319 C302 0.931 . S
N320 C282 1.343 1_545 S
N320 C303 1.343 . S
N321 C289 1.343 1_545 S
N321 C296 1.343 . S
C322 C323 1.384 . S
C322 C324 1.384 . S
C322 H350 0.931 . S
C323 C322 1.384 . S
C323 C326 1.382 . S
C324 C322 1.384 . S
C324 C325 1.381 . S
C324 H351 0.921 1_565 S
C325 C324 1.381 . S
C325 C327 1.381 . S
C325 C328 1.487 1_565 S
C326 C323 1.382 . S
C326 C327 1.387 . S
C326 H352 0.930 . S
C327 C325 1.381 . S
C327 C326 1.387 . S
C327 H353 0.931 . S
C328 C325 1.487 1_545 S
C328 C335 1.399 . S
C328 N366 1.343 . S
C329 C330 1.384 . S
C329 C331 1.384 . S
C329 H354 0.931 . S
C330 C329 1.384 . S
C330 C333 1.382 . S
C331 C329 1.384 . S
C331 C332 1.381 . S
C331 H355 0.930 . S
C332 C331 1.381 . S
C332 C334 1.381 1_565 S
C332 C335 1.487 1_565 S
C333 C330 1.382 . S
C333 C334 1.387 1_565 S
C333 H356 0.930 . S
C334 C332 1.381 1_545 S
C334 C333 1.387 1_545 S
C334 H357 0.931 . S
C335 C328 1.399 . S
C335 C332 1.487 1_545 S
C335 N367 1.343 . S
C336 C337 1.384 . S
C336 C338 1.384 . S
C336 H358 0.931 . S
C337 C336 1.384 . S
C337 C340 1.382 . S
C338 C336 1.384 . S
C338 C339 1.356 1_655 S
C338 H359 0.930 . S
C339 C338 1.356 1_455 S
C339 C341 1.393 . S
C339 C342 1.501 . S
C340 C337 1.382 . S
C340 C341 1.387 1_655 S
C340 H360 0.930 1_655 S
C341 C339 1.393 . S
C341 C340 1.387 1_455 S
C341 H361 0.931 . S
C342 C339 1.501 . S
C342 C349 1.399 . S
C342 N367 1.343 . S
C343 C344 1.384 . S
C343 C345 1.384 1_655 S
C343 H362 0.931 . S
C344 C343 1.384 . S
C344 C347 1.382 . S
C345 C343 1.384 1_455 S
C345 C346 1.382 . S
C345 H363 0.930 . S
C346 C345 1.382 . S
C346 C348 1.374 1_455 S
C346 C349 1.494 . S
C347 C344 1.382 . S
C347 C348 1.387 . S
C347 H364 0.930 . S
C348 C346 1.374 1_655 S
C348 C347 1.387 . S
C348 H365 0.931 . S
C349 C342 1.399 . S
C349 C346 1.494 . S
C349 N366 1.343 . S
H350 C322 0.931 . S
H351 C324 0.921 1_545 S
H352 C326 0.930 . S
H353 C327 0.931 . S
H354 C329 0.931 . S
H355 C331 0.930 . S
H356 C333 0.930 . S
H357 C334 0.931 . S
H358 C336 0.931 . S
H359 C338 0.930 . S
H360 C340 0.930 1_455 S
H361 C341 0.931 . S
H362 C343 0.931 . S
H363 C345 0.930 . S
H364 C347 0.930 . S
H365 C348 0.931 . S
N366 C328 1.343 . S
N366 C349 1.343 . S
N367 C335 1.343 . S
N367 C342 1.343 . S
Co368 O369 2.216 . S
Co368 O370 2.091 . S
Co368 O372 2.004 . S
Co368 O378 2.021 1_554 S
Co368 O380 2.137 . S
Co368 O381 2.244 . S
O369 Co368 2.216 . S
O369 C376 1.247 . S
O370 Co368 2.091 . S
O370 C376 1.261 . S
C371 O380 1.247 . S
C371 O381 1.272 . S
O372 Co368 2.004 . S
O372 C377 1.259 . S
Co373 O374 2.061 . S
Co373 O379 2.052 1_554 S
Co373 O381 2.135 . S
O374 Co373 2.061 . S
O374 C377 1.235 . S
C375 O378 1.238 . S
C375 O379 1.241 . S
C376 O369 1.247 . S
C376 O370 1.261 . S
C377 O372 1.259 . S
C377 O374 1.235 . S
O378 Co368 2.021 1_556 S
O378 C375 1.238 . S
O379 Co373 2.052 1_556 S
O379 C375 1.241 . S
O380 Co368 2.137 . S
O380 C371 1.247 . S
O381 Co368 2.244 . S
O381 C371 1.272 . S
O381 Co373 2.135 . S
Co382 O383 2.216 . S
Co382 O384 2.091 . S
Co382 O386 2.004 . S
Co382 O392 2.021 . S
Co382 O394 2.137 . S
Co382 O395 2.244 . S
O383 Co382 2.216 . S
O383 C390 1.247 . S
O384 Co382 2.091 . S
O384 C390 1.261 . S
C385 O394 1.247 . S
C385 O395 1.272 . S
O386 Co382 2.004 . S
O386 C391 1.259 . S
Co387 O388 2.061 . S
Co387 O393 2.052 . S
Co387 O395 2.135 . S
O388 Co387 2.061 . S
O388 C391 1.235 . S
C389 O392 1.238 . S
C389 O393 1.241 . S
C390 O383 1.247 . S
C390 O384 1.261 . S
C391 O386 1.259 . S
C391 O388 1.235 . S
O392 Co382 2.021 . S
O392 C389 1.238 . S
O393 Co387 2.052 . S
O393 C389 1.241 . S
O394 Co382 2.137 . S
O394 C385 1.247 . S
O395 Co382 2.244 . S
O395 C385 1.272 . S
O395 Co387 2.135 . S
Co396 O397 2.216 . S
Co396 O398 2.091 . S
Co396 O400 2.004 . S
Co396 O406 2.021 . S
Co396 O408 2.137 . S
Co396 O409 2.244 . S
O397 Co396 2.216 . S
O397 C404 1.247 . S
O398 Co396 2.091 . S
O398 C404 1.261 . S
C399 O408 1.247 . S
C399 O409 1.272 . S
O400 Co396 2.004 . S
O400 C405 1.259 . S
Co401 O402 2.061 . S
Co401 O407 2.052 . S
Co401 O409 2.135 . S
O402 Co401 2.061 . S
O402 C405 1.235 . S
C403 O406 1.238 . S
C403 O407 1.241 . S
C404 O397 1.247 . S
C404 O398 1.261 . S
C405 O400 1.259 . S
C405 O402 1.235 . S
O406 Co396 2.021 . S
O406 C403 1.238 . S
O407 Co401 2.052 . S
O407 C403 1.241 . S
O408 Co396 2.137 . S
O408 C399 1.247 . S
O409 Co396 2.244 . S
O409 C399 1.272 . S
O409 Co401 2.135 . S
Co410 O411 2.216 . S
Co410 O412 2.091 . S
Co410 O414 2.004 . S
Co410 O420 2.021 . S
Co410 O422 2.137 . S
Co410 O423 2.244 . S
O411 Co410 2.216 . S
O411 C418 1.247 . S
O412 Co410 2.091 . S
O412 C418 1.261 . S
C413 O422 1.247 . S
C413 O423 1.272 . S
O414 Co410 2.004 . S
O414 C419 1.259 . S
Co415 O416 2.061 . S
Co415 O421 2.052 . S
Co415 O423 2.135 . S
O416 Co415 2.061 . S
O416 C419 1.235 . S
C417 O420 1.238 . S
C417 O421 1.241 . S
C418 O411 1.247 . S
C418 O412 1.261 . S
C419 O414 1.259 . S
C419 O416 1.235 . S
O420 Co410 2.021 . S
O420 C417 1.238 . S
O421 Co415 2.052 . S
O421 C417 1.241 . S
O422 Co410 2.137 . S
O422 C413 1.247 . S
O423 Co410 2.244 . S
O423 C413 1.272 . S
O423 Co415 2.135 . S
Co424 O425 2.216 . S
Co424 O426 2.091 . S
Co424 O428 2.004 . S
Co424 O434 2.021 . S
Co424 O436 2.137 . S
Co424 O437 2.244 . S
O425 Co424 2.216 . S
O425 C432 1.247 . S
O426 Co424 2.091 . S
O426 C432 1.261 . S
C427 O436 1.247 . S
C427 O437 1.272 . S
O428 Co424 2.004 . S
O428 C433 1.259 . S
Co429 O430 2.061 . S
Co429 O435 2.052 . S
Co429 O437 2.135 . S
O430 Co429 2.061 . S
O430 C433 1.235 . S
C431 O434 1.238 . S
C431 O435 1.241 . S
C432 O425 1.247 . S
C432 O426 1.261 . S
C433 O428 1.259 . S
C433 O430 1.235 . S
O434 Co424 2.021 . S
O434 C431 1.238 . S
O435 Co429 2.052 . S
O435 C431 1.241 . S
O436 Co424 2.137 . S
O436 C427 1.247 . S
O437 Co424 2.244 . S
O437 C427 1.272 . S
O437 Co429 2.135 . S
Co438 O439 2.216 . S
Co438 O440 2.091 . S
Co438 O442 2.004 . S
Co438 O448 2.021 . S
Co438 O450 2.137 . S
Co438 O451 2.244 . S
O439 Co438 2.216 . S
O439 C446 1.247 . S
O440 Co438 2.091 . S
O440 C446 1.261 . S
C441 O450 1.247 . S
C441 O451 1.272 . S
O442 Co438 2.004 . S
O442 C447 1.259 . S
Co443 O444 2.061 . S
Co443 O449 2.052 . S
Co443 O451 2.135 . S
O444 Co443 2.061 . S
O444 C447 1.235 . S
C445 O448 1.238 . S
C445 O449 1.241 . S
C446 O439 1.247 . S
C446 O440 1.261 . S
C447 O442 1.259 . S
C447 O444 1.235 . S
O448 Co438 2.021 . S
O448 C445 1.238 . S
O449 Co443 2.052 . S
O449 C445 1.241 . S
O450 Co438 2.137 . S
O450 C441 1.247 . S
O451 Co438 2.244 . S
O451 C441 1.272 . S
O451 Co443 2.135 . S
Co452 O453 2.217 1_556 S
Co452 O454 2.092 1_556 S
Co452 O456 2.003 . S
Co452 O462 2.026 1_556 S
Co452 O464 2.132 . S
Co452 O465 2.241 . S
O453 Co452 2.217 1_554 S
O453 C460 1.247 . S
O454 Co452 2.092 1_554 S
O454 C460 1.261 . S
C455 O464 1.247 . S
C455 O465 1.272 . S
O456 Co452 2.003 . S
O456 C461 1.259 . S
Co457 O458 2.061 . S
Co457 O463 2.052 1_556 S
Co457 O465 2.135 . S
O458 Co457 2.061 . S
O458 C461 1.235 . S
C459 O462 1.238 . S
C459 O463 1.241 . S
C460 O453 1.247 . S
C460 O454 1.261 . S
C461 O456 1.259 . S
C461 O458 1.235 . S
O462 Co452 2.026 1_554 S
O462 C459 1.238 . S
O463 Co457 2.052 1_554 S
O463 C459 1.241 . S
O464 Co452 2.132 . S
O464 C455 1.247 . S
O465 Co452 2.241 . S
O465 C455 1.272 . S
O465 Co457 2.135 . S
Co466 O467 2.216 . S
Co466 O468 2.091 . S
Co466 O470 2.004 . S
Co466 O476 2.021 . S
Co466 O478 2.137 . S
Co466 O479 2.244 . S
O467 Co466 2.216 . S
O467 C474 1.247 . S
O468 Co466 2.091 . S
O468 C474 1.261 . S
C469 O478 1.247 . S
C469 O479 1.272 . S
O470 Co466 2.004 . S
O470 C475 1.259 . S
Co471 O472 2.061 . S
Co471 O477 2.052 . S
Co471 O479 2.135 . S
O472 Co471 2.061 . S
O472 C475 1.235 . S
C473 O476 1.238 . S
C473 O477 1.241 . S
C474 O467 1.247 . S
C474 O468 1.261 . S
C475 O470 1.259 . S
C475 O472 1.235 . S
O476 Co466 2.021 . S
O476 C473 1.238 . S
O477 Co471 2.052 . S
O477 C473 1.241 . S
O478 Co466 2.137 . S
O478 C469 1.247 . S
O479 Co466 2.244 . S
O479 C469 1.272 . S
O479 Co471 2.135 . S
C480 C481 1.391 . S
C480 C482 1.394 . S
C480 H496 0.931 . S
C481 C480 1.391 . S
C481 C485 1.376 . S
C482 C480 1.394 . S
C482 C483 1.369 . S
C482 C486 1.531 . S
C483 C482 1.369 . S
C483 C484 1.410 . S
C483 C491 1.503 . S
C484 C483 1.410 . S
C484 C485 1.392 . S
C484 C487 1.511 . S
C485 C481 1.376 . S
C485 C484 1.392 . S
C485 H497 0.929 . S
C486 C482 1.531 . S
C486 H498 0.960 . S
C486 H499 0.962 . S
C486 H500 0.960 . S
C487 C484 1.511 . S
C487 H501 0.961 . S
C487 H502 0.961 . S
C487 H503 0.961 . S
C488 C489 1.370 . S
C488 C490 1.363 . S
C488 H504 0.931 . S
C489 C488 1.370 . S
C489 C493 1.408 . S
C490 C488 1.363 . S
C490 C491 1.370 . S
C490 C494 1.524 . S
C491 C483 1.503 . S
C491 C490 1.370 . S
C491 C492 1.403 . S
C492 C491 1.403 . S
C492 C493 1.404 . S
C492 C495 1.539 . S
C493 C489 1.408 . S
C493 C492 1.404 . S
C493 H505 0.930 . S
C494 C490 1.524 . S
C494 H506 0.956 . S
C494 H507 0.961 . S
C494 H508 0.961 . S
C495 C492 1.539 . S
C495 H509 0.958 . S
C495 H510 0.961 . S
C495 H511 0.960 . S
H496 C480 0.931 . S
H497 C485 0.929 . S
H498 C486 0.960 . S
H499 C486 0.962 . S
H500 C486 0.960 . S
H501 C487 0.961 . S
H502 C487 0.961 . S
H503 C487 0.961 . S
H504 C488 0.931 . S
H505 C493 0.930 . S
H506 C494 0.956 . S
H507 C494 0.961 . S
H508 C494 0.961 . S
H509 C495 0.958 . S
H510 C495 0.961 . S
H511 C495 0.960 . S
C512 C513 1.391 . S
C512 C514 1.394 . S
C512 H528 0.931 . S
C513 C512 1.391 . S
C513 C517 1.376 . S
C514 C512 1.394 . S
C514 C515 1.369 . S
C514 C518 1.531 . S
C515 C514 1.369 . S
C515 C516 1.410 . S
C515 C523 1.503 . S
C516 C515 1.410 . S
C516 C517 1.392 . S
C516 C519 1.511 . S
C517 C513 1.376 . S
C517 C516 1.392 . S
C517 H529 0.929 . S
C518 C514 1.531 . S
C518 H530 0.960 . S
C518 H531 0.962 . S
C518 H532 0.960 . S
C519 C516 1.511 . S
C519 H533 0.961 . S
C519 H534 0.961 . S
C519 H535 0.961 . S
C520 C521 1.370 . S
C520 C522 1.363 . S
C520 H536 0.931 . S
C521 C520 1.370 . S
C521 C525 1.408 . S
C522 C520 1.363 . S
C522 C523 1.370 . S
C522 C526 1.524 . S
C523 C515 1.503 . S
C523 C522 1.370 . S
C523 C524 1.403 . S
C524 C523 1.403 . S
C524 C525 1.404 . S
C524 C527 1.539 . S
C525 C521 1.408 . S
C525 C524 1.404 . S
C525 H537 0.930 . S
C526 C522 1.524 . S
C526 H538 0.956 . S
C526 H539 0.961 . S
C526 H540 0.961 . S
C527 C524 1.539 . S
C527 H541 0.958 . S
C527 H542 0.961 . S
C527 H543 0.960 . S
H528 C512 0.931 . S
H529 C517 0.929 . S
H530 C518 0.960 . S
H531 C518 0.962 . S
H532 C518 0.960 . S
H533 C519 0.961 . S
H534 C519 0.961 . S
H535 C519 0.961 . S
H536 C520 0.931 . S
H537 C525 0.930 . S
H538 C526 0.956 . S
H539 C526 0.961 . S
H540 C526 0.961 . S
H541 C527 0.958 . S
H542 C527 0.961 . S
H543 C527 0.960 . S
C544 C545 1.391 . S
C544 C546 1.394 . S
C544 H560 0.931 . S
C545 C544 1.391 . S
C545 C549 1.376 . S
C546 C544 1.394 . S
C546 C547 1.369 . S
C546 C550 1.531 . S
C547 C546 1.369 . S
C547 C548 1.410 . S
C547 C555 1.503 . S
C548 C547 1.410 . S
C548 C549 1.392 . S
C548 C551 1.511 . S
C549 C545 1.376 . S
C549 C548 1.392 . S
C549 H561 0.929 . S
C550 C546 1.531 . S
C550 H562 0.960 . S
C550 H563 0.962 . S
C550 H564 0.960 . S
C551 C548 1.511 . S
C551 H565 0.961 . S
C551 H566 0.961 . S
C551 H567 0.961 . S
C552 C553 1.370 . S
C552 C554 1.363 . S
C552 H568 0.931 . S
C553 C552 1.370 . S
C553 C557 1.408 . S
C554 C552 1.363 . S
C554 C555 1.370 . S
C554 C558 1.524 . S
C555 C547 1.503 . S
C555 C554 1.370 . S
C555 C556 1.403 . S
C556 C555 1.403 . S
C556 C557 1.404 . S
C556 C559 1.539 . S
C557 C553 1.408 . S
C557 C556 1.404 . S
C557 H569 0.930 . S
C558 C554 1.524 . S
C558 H570 0.956 . S
C558 H571 0.961 . S
C558 H572 0.961 . S
C559 C556 1.539 . S
C559 H573 0.958 . S
C559 H574 0.961 . S
C559 H575 0.960 . S
H560 C544 0.931 . S
H561 C549 0.929 . S
H562 C550 0.960 . S
H563 C550 0.962 . S
H564 C550 0.960 . S
H565 C551 0.961 . S
H566 C551 0.961 . S
H567 C551 0.961 . S
H568 C552 0.931 . S
H569 C557 0.930 . S
H570 C558 0.956 . S
H571 C558 0.961 . S
H572 C558 0.961 . S
H573 C559 0.958 . S
H574 C559 0.961 . S
H575 C559 0.960 . S
C576 C577 1.391 . S
C576 C578 1.394 . S
C576 H592 0.931 . S
C577 C576 1.391 . S
C577 C581 1.376 . S
C578 C576 1.394 . S
C578 C579 1.369 . S
C578 C582 1.531 . S
C579 C578 1.369 . S
C579 C580 1.410 . S
C579 C587 1.503 . S
C580 C579 1.410 . S
C580 C581 1.392 . S
C580 C583 1.511 . S
C581 C577 1.376 . S
C581 C580 1.392 . S
C581 H593 0.929 . S
C582 C578 1.531 . S
C582 H594 0.960 . S
C582 H595 0.962 . S
C582 H596 0.960 . S
C583 C580 1.511 . S
C583 H597 0.961 . S
C583 H598 0.961 . S
C583 H599 0.961 . S
C584 C585 1.370 . S
C584 C586 1.363 . S
C584 H600 0.931 1_554 S
C585 C584 1.370 . S
C585 C589 1.408 . S
C586 C584 1.363 . S
C586 C587 1.370 . S
C586 C590 1.524 . S
C587 C579 1.503 . S
C587 C586 1.370 . S
C587 C588 1.403 . S
C588 C587 1.403 . S
C588 C589 1.404 . S
C588 C591 1.539 . S
C589 C585 1.408 . S
C589 C588 1.404 . S
C589 H601 0.930 . S
C590 C586 1.524 . S
C590 H602 0.956 1_554 S
C590 H603 0.961 . S
C590 H604 0.961 1_554 S
C591 C588 1.539 . S
C591 H605 0.958 . S
C591 H606 0.961 . S
C591 H607 0.960 . S
H592 C576 0.931 . S
H593 C581 0.929 . S
H594 C582 0.960 . S
H595 C582 0.962 . S
H596 C582 0.960 . S
H597 C583 0.961 . S
H598 C583 0.961 . S
H599 C583 0.961 . S
H600 C584 0.931 1_556 S
H601 C589 0.930 . S
H602 C590 0.956 1_556 S
H603 C590 0.961 . S
H604 C590 0.961 1_556 S
H605 C591 0.958 . S
H606 C591 0.961 . S
H607 C591 0.960 . S
C608 C609 1.391 . S
C608 C610 1.394 . S
C608 H624 0.931 . S
C609 C608 1.391 . S
C609 C613 1.376 . S
C610 C608 1.394 . S
C610 C611 1.369 . S
C610 C614 1.531 1_556 S
C611 C610 1.369 . S
C611 C612 1.410 . S
C611 C619 1.503 . S
C612 C611 1.410 . S
C612 C613 1.392 . S
C612 C615 1.511 . S
C613 C609 1.376 . S
C613 C612 1.392 . S
C613 H625 0.929 . S
C614 C610 1.531 1_554 S
C614 H626 0.960 . S
C614 H627 0.940 1_554 S
C614 H628 0.960 . S
C615 C612 1.511 . S
C615 H629 0.961 . S
C615 H630 0.961 . S
C615 H631 0.961 . S
C616 C617 1.370 . S
C616 C618 1.363 . S
C616 H632 0.931 . S
C617 C616 1.370 . S
C617 C621 1.408 1_556 S
C618 C616 1.363 . S
C618 C619 1.370 . S
C618 C622 1.524 . S
C619 C611 1.503 . S
C619 C618 1.370 . S
C619 C620 1.403 1_556 S
C620 C619 1.403 1_554 S
C620 C621 1.404 . S
C620 C623 1.539 . S
C621 C617 1.408 1_554 S
C621 C620 1.404 . S
C621 H633 0.930 . S
C622 C618 1.524 . S
C622 H634 0.956 . S
C622 H635 0.961 . S
C622 H636 0.961 . S
C623 C620 1.539 . S
C623 H637 0.958 . S
C623 H638 0.961 . S
C623 H639 0.960 . S
H624 C608 0.931 . S
H625 C613 0.929 . S
H626 C614 0.960 . S
H627 C614 0.940 1_556 S
H628 C614 0.960 . S
H629 C615 0.961 . S
H630 C615 0.961 . S
H631 C615 0.961 . S
H632 C616 0.931 . S
H633 C621 0.930 . S
H634 C622 0.956 . S
H635 C622 0.961 . S
H636 C622 0.961 . S
H637 C623 0.958 . S
H638 C623 0.961 . S
H639 C623 0.960 . S
C640 C641 1.391 . S
C640 C642 1.394 . S
C640 H656 0.931 . S
C641 C640 1.391 . S
C641 C645 1.376 . S
C642 C640 1.394 . S
C642 C643 1.369 . S
C642 C646 1.531 . S
C643 C642 1.369 . S
C643 C644 1.410 . S
C643 C651 1.503 . S
C644 C643 1.410 . S
C644 C645 1.392 . S
C644 C647 1.511 . S
C645 C641 1.376 . S
C645 C644 1.392 . S
C645 H657 0.929 . S
C646 C642 1.531 . S
C646 H658 0.960 . S
C646 H659 0.962 . S
C646 H660 0.960 . S
C647 C644 1.511 . S
C647 H661 0.961 . S
C647 H662 0.961 . S
C647 H663 0.961 . S
C648 C649 1.370 . S
C648 C650 1.363 . S
C648 H664 0.931 . S
C649 C648 1.370 . S
C649 C653 1.408 . S
C650 C648 1.363 . S
C650 C651 1.370 . S
C650 C654 1.524 . S
C651 C643 1.503 . S
C651 C650 1.370 . S
C651 C652 1.403 . S
C652 C651 1.403 . S
C652 C653 1.404 . S
C652 C655 1.539 . S
C653 C649 1.408 . S
C653 C652 1.404 . S
C653 H665 0.930 . S
C654 C650 1.524 . S
C654 H666 0.956 . S
C654 H667 0.961 . S
C654 H668 0.961 . S
C655 C652 1.539 . S
C655 H669 0.958 . S
C655 H670 0.961 . S
C655 H671 0.960 . S
H656 C640 0.931 . S
H657 C645 0.929 . S
H658 C646 0.960 . S
H659 C646 0.962 . S
H660 C646 0.960 . S
H661 C647 0.961 . S
H662 C647 0.961 . S
H663 C647 0.961 . S
H664 C648 0.931 . S
H665 C653 0.930 . S
H666 C654 0.956 . S
H667 C654 0.961 . S
H668 C654 0.961 . S
H669 C655 0.958 . S
H670 C655 0.961 . S
H671 C655 0.960 . S
C672 C673 1.391 . S
C672 C674 1.394 . S
C672 H688 0.931 . S
C673 C672 1.391 . S
C673 C677 1.376 . S
C674 C672 1.394 . S
C674 C675 1.369 . S
C674 C678 1.531 . S
C675 C674 1.369 . S
C675 C676 1.410 . S
C675 C683 1.503 . S
C676 C675 1.410 . S
C676 C677 1.392 . S
C676 C679 1.511 . S
C677 C673 1.376 . S
C677 C676 1.392 . S
C677 H689 0.929 . S
C678 C674 1.531 . S
C678 H690 0.960 . S
C678 H691 0.962 . S
C678 H692 0.960 . S
C679 C676 1.511 . S
C679 H693 0.961 . S
C679 H694 0.961 . S
C679 H695 0.961 . S
C680 C681 1.370 . S
C680 C682 1.363 . S
C680 H696 0.931 . S
C681 C680 1.370 . S
C681 C685 1.408 . S
C682 C680 1.363 . S
C682 C683 1.370 . S
C682 C686 1.524 . S
C683 C675 1.503 . S
C683 C682 1.370 . S
C683 C684 1.403 . S
C684 C683 1.403 . S
C684 C685 1.404 . S
C684 C687 1.539 . S
C685 C681 1.408 . S
C685 C684 1.404 . S
C685 H697 0.930 . S
C686 C682 1.524 . S
C686 H698 0.956 . S
C686 H699 0.961 . S
C686 H700 0.961 . S
C687 C684 1.539 . S
C687 H701 0.958 . S
C687 H702 0.961 . S
C687 H703 0.960 . S
H688 C672 0.931 . S
H689 C677 0.929 . S
H690 C678 0.960 . S
H691 C678 0.962 . S
H692 C678 0.960 . S
H693 C679 0.961 . S
H694 C679 0.961 . S
H695 C679 0.961 . S
H696 C680 0.931 . S
H697 C685 0.930 . S
H698 C686 0.956 . S
H699 C686 0.961 . S
H700 C686 0.961 . S
H701 C687 0.958 . S
H702 C687 0.961 . S
H703 C687 0.960 . S
C704 C705 1.391 . S
C704 C706 1.394 . S
C704 H720 0.931 . S
C705 C704 1.391 . S
C705 C709 1.376 . S
C706 C704 1.394 . S
C706 C707 1.369 . S
C706 C710 1.531 . S
C707 C706 1.369 . S
C707 C708 1.410 . S
C707 C715 1.503 . S
C708 C707 1.410 . S
C708 C709 1.392 . S
C708 C711 1.511 . S
C709 C705 1.376 . S
C709 C708 1.392 . S
C709 H721 0.929 . S
C710 C706 1.531 . S
C710 H722 0.960 . S
C710 H723 0.962 . S
C710 H724 0.960 . S
C711 C708 1.511 . S
C711 H725 0.961 . S
C711 H726 0.961 . S
C711 H727 0.961 . S
C712 C713 1.370 . S
C712 C714 1.363 . S
C712 H728 0.931 . S
C713 C712 1.370 . S
C713 C717 1.408 . S
C714 C712 1.363 . S
C714 C715 1.370 . S
C714 C718 1.524 . S
C715 C707 1.503 . S
C715 C714 1.370 . S
C715 C716 1.403 . S
C716 C715 1.403 . S
C716 C717 1.404 . S
C716 C719 1.539 . S
C717 C713 1.408 . S
C717 C716 1.404 . S
C717 H729 0.930 . S
C718 C714 1.524 . S
C718 H730 0.956 . S
C718 H731 0.961 . S
C718 H732 0.961 . S
C719 C716 1.539 . S
C719 H733 0.958 . S
C719 H734 0.961 . S
C719 H735 0.960 . S
H720 C704 0.931 . S
H721 C709 0.929 . S
H722 C710 0.960 . S
H723 C710 0.962 . S
H724 C710 0.960 . S
H725 C711 0.961 . S
H726 C711 0.961 . S
H727 C711 0.961 . S
H728 C712 0.931 . S
H729 C717 0.930 . S
H730 C718 0.956 . S
H731 C718 0.961 . S
H732 C718 0.961 . S
H733 C719 0.958 . S
H734 C719 0.961 . S
H735 C719 0.960 . S
C736 C737 1.391 . S
C736 C738 1.394 . S
C736 H752 0.931 . S
C737 C736 1.391 . S
C737 C741 1.376 . S
C738 C736 1.394 . S
C738 C739 1.369 . S
C738 C742 1.531 . S
C739 C738 1.369 . S
C739 C740 1.410 . S
C739 C747 1.503 . S
C740 C739 1.410 . S
C740 C741 1.392 . S
C740 C743 1.511 . S
C741 C737 1.376 . S
C741 C740 1.392 . S
C741 H753 0.929 . S
C742 C738 1.531 . S
C742 H754 0.960 . S
C742 H755 0.962 . S
C742 H756 0.960 . S
C743 C740 1.511 . S
C743 H757 0.961 . S
C743 H758 0.961 . S
C743 H759 0.961 . S
C744 C745 1.370 . S
C744 C746 1.363 . S
C744 H760 0.931 . S
C745 C744 1.370 . S
C745 C749 1.408 . S
C746 C744 1.363 . S
C746 C747 1.370 . S
C746 C750 1.524 . S
C747 C739 1.503 . S
C747 C746 1.370 . S
C747 C748 1.403 . S
C748 C747 1.403 . S
C748 C749 1.404 . S
C748 C751 1.539 . S
C749 C745 1.408 . S
C749 C748 1.404 . S
C749 H761 0.930 . S
C750 C746 1.524 . S
C750 H762 0.956 . S
C750 H763 0.961 . S
C750 H764 0.961 . S
C751 C748 1.539 . S
C751 H765 0.958 . S
C751 H766 0.961 . S
C751 H767 0.960 . S
H752 C736 0.931 . S
H753 C741 0.929 . S
H754 C742 0.960 . S
H755 C742 0.962 . S
H756 C742 0.960 . S
H757 C743 0.961 . S
H758 C743 0.961 . S
H759 C743 0.961 . S
H760 C744 0.931 . S
H761 C749 0.930 . S
H762 C750 0.956 . S
H763 C750 0.961 . S
H764 C750 0.961 . S
H765 C751 0.958 . S
H766 C751 0.961 . S
H767 C751 0.960 . S
C768 C769 1.391 . S
C768 C770 1.394 . S
C768 H784 0.931 . S
C769 C768 1.391 . S
C769 C773 1.376 . S
C770 C768 1.394 . S
C770 C771 1.369 . S
C770 C774 1.531 . S
C771 C770 1.369 . S
C771 C772 1.410 . S
C771 C779 1.503 . S
C772 C771 1.410 . S
C772 C773 1.392 . S
C772 C775 1.511 . S
C773 C769 1.376 . S
C773 C772 1.392 . S
C773 H785 0.929 . S
C774 C770 1.531 . S
C774 H786 0.960 . S
C774 H787 0.962 . S
C774 H788 0.960 . S
C775 C772 1.511 . S
C775 H789 0.961 . S
C775 H790 0.961 . S
C775 H791 0.961 . S
C776 C777 1.370 . S
C776 C778 1.363 . S
C776 H792 0.931 1_554 S
C777 C776 1.370 . S
C777 C781 1.408 . S
C778 C776 1.363 . S
C778 C779 1.370 . S
C778 C782 1.524 1_554 S
C779 C771 1.503 . S
C779 C778 1.370 . S
C779 C780 1.403 . S
C780 C779 1.403 . S
C780 C781 1.404 . S
C780 C783 1.539 . S
C781 C777 1.408 . S
C781 C780 1.404 . S
C781 H793 0.930 . S
C782 C778 1.524 1_556 S
C782 H794 0.956 . S
C782 H795 0.961 . S
C782 H796 0.961 . S
C783 C780 1.539 . S
C783 H797 0.958 . S
C783 H798 0.961 . S
C783 H799 0.960 . S
H784 C768 0.931 . S
H785 C773 0.929 . S
H786 C774 0.960 . S
H787 C774 0.962 . S
H788 C774 0.960 . S
H789 C775 0.961 . S
H790 C775 0.961 . S
H791 C775 0.961 . S
H792 C776 0.931 1_556 S
H793 C781 0.930 . S
H794 C782 0.956 . S
H795 C782 0.961 . S
H796 C782 0.961 . S
H797 C783 0.958 . S
H798 C783 0.961 . S
H799 C783 0.960 . S
C800 C801 1.391 . S
C800 C802 1.394 . S
C800 H816 0.931 . S
C801 C800 1.391 . S
C801 C805 1.376 . S
C802 C800 1.394 . S
C802 C803 1.369 . S
C802 C806 1.531 . S
C803 C802 1.369 . S
C803 C804 1.410 . S
C803 C811 1.503 . S
C804 C803 1.410 . S
C804 C805 1.392 . S
C804 C807 1.511 . S
C805 C801 1.376 . S
C805 C804 1.392 . S
C805 H817 0.929 . S
C806 C802 1.531 . S
C806 H818 0.960 . S
C806 H819 0.962 . S
C806 H820 0.960 . S
C807 C804 1.511 . S
C807 H821 0.961 . S
C807 H822 0.961 . S
C807 H823 0.961 . S
C808 C809 1.370 . S
C808 C810 1.363 . S
C808 H824 0.931 . S
C809 C808 1.370 . S
C809 C813 1.408 . S
C810 C808 1.363 . S
C810 C811 1.370 . S
C810 C814 1.524 . S
C811 C803 1.503 . S
C811 C810 1.370 . S
C811 C812 1.403 . S
C812 C811 1.403 . S
C812 C813 1.404 . S
C812 C815 1.539 . S
C813 C809 1.408 . S
C813 C812 1.404 . S
C813 H825 0.930 . S
C814 C810 1.524 . S
C814 H826 0.956 . S
C814 H827 0.961 . S
C814 H828 0.961 . S
C815 C812 1.539 . S
C815 H829 0.958 . S
C815 H830 0.961 . S
C815 H831 0.960 . S
H816 C800 0.931 . S
H817 C805 0.929 . S
H818 C806 0.960 . S
H819 C806 0.962 . S
H820 C806 0.960 . S
H821 C807 0.961 . S
H822 C807 0.961 . S
H823 C807 0.961 . S
H824 C808 0.931 . S
H825 C813 0.930 . S
H826 C814 0.956 . S
H827 C814 0.961 . S
H828 C814 0.961 . S
H829 C815 0.958 . S
H830 C815 0.961 . S
H831 C815 0.960 . S
C832 C833 1.391 . S
C832 C834 1.394 . S
C832 H848 0.931 . S
C833 C832 1.391 . S
C833 C837 1.376 . S
C834 C832 1.394 . S
C834 C835 1.369 . S
C834 C838 1.531 . S
C835 C834 1.369 . S
C835 C836 1.410 . S
C835 C843 1.503 . S
C836 C835 1.410 . S
C836 C837 1.392 . S
C836 C839 1.511 . S
C837 C833 1.376 . S
C837 C836 1.392 . S
C837 H849 0.929 . S
C838 C834 1.531 . S
C838 H850 0.960 . S
C838 H851 0.962 . S
C838 H852 0.960 . S
C839 C836 1.511 . S
C839 H853 0.961 . S
C839 H854 0.961 . S
C839 H855 0.961 . S
C840 C841 1.370 . S
C840 C842 1.363 . S
C840 H856 0.931 . S
C841 C840 1.370 . S
C841 C845 1.408 . S
C842 C840 1.363 . S
C842 C843 1.370 . S
C842 C846 1.524 . S
C843 C835 1.503 . S
C843 C842 1.370 . S
C843 C844 1.403 . S
C844 C843 1.403 . S
C844 C845 1.404 . S
C844 C847 1.539 . S
C845 C841 1.408 . S
C845 C844 1.404 . S
C845 H857 0.930 . S
C846 C842 1.524 . S
C846 H858 0.956 . S
C846 H859 0.961 . S
C846 H860 0.961 . S
C847 C844 1.539 . S
C847 H861 0.958 . S
C847 H862 0.961 . S
C847 H863 0.960 . S
H848 C832 0.931 . S
H849 C837 0.929 . S
H850 C838 0.960 . S
H851 C838 0.962 . S
H852 C838 0.960 . S
H853 C839 0.961 . S
H854 C839 0.961 . S
H855 C839 0.961 . S
H856 C840 0.931 . S
H857 C845 0.930 . S
H858 C846 0.956 . S
H859 C846 0.961 . S
H860 C846 0.961 . S
H861 C847 0.958 . S
H862 C847 0.961 . S
H863 C847 0.960 . S
C864 C865 1.391 . S
C864 C866 1.394 . S
C864 H880 0.931 . S
C865 C864 1.391 . S
C865 C869 1.376 . S
C866 C864 1.394 . S
C866 C867 1.369 . S
C866 C870 1.531 . S
C867 C866 1.369 . S
C867 C868 1.410 . S
C867 C875 1.503 . S
C868 C867 1.410 . S
C868 C869 1.392 . S
C868 C871 1.511 . S
C869 C865 1.376 . S
C869 C868 1.392 . S
C869 H881 0.929 . S
C870 C866 1.531 . S
C870 H882 0.960 . S
C870 H883 0.962 . S
C870 H884 0.960 . S
C871 C868 1.511 . S
C871 H885 0.961 . S
C871 H886 0.961 . S
C871 H887 0.961 . S
C872 C873 1.370 . S
C872 C874 1.363 . S
C872 H888 0.931 . S
C873 C872 1.370 . S
C873 C877 1.408 . S
C874 C872 1.363 . S
C874 C875 1.370 . S
C874 C878 1.524 . S
C875 C867 1.503 . S
C875 C874 1.370 . S
C875 C876 1.403 . S
C876 C875 1.403 . S
C876 C877 1.404 . S
C876 C879 1.539 . S
C877 C873 1.408 . S
C877 C876 1.404 . S
C877 H889 0.930 . S
C878 C874 1.524 . S
C878 H890 0.956 . S
C878 H891 0.961 . S
C878 H892 0.961 . S
C879 C876 1.539 . S
C879 H893 0.958 . S
C879 H894 0.961 . S
C879 H895 0.960 . S
H880 C864 0.931 . S
H881 C869 0.929 . S
H882 C870 0.960 . S
H883 C870 0.962 . S
H884 C870 0.960 . S
H885 C871 0.961 . S
H886 C871 0.961 . S
H887 C871 0.961 . S
H888 C872 0.931 . S
H889 C877 0.930 . S
H890 C878 0.956 . S
H891 C878 0.961 . S
H892 C878 0.961 . S
H893 C879 0.958 . S
H894 C879 0.961 . S
H895 C879 0.960 . S
C896 C897 1.391 . S
C896 C898 1.394 . S
C896 H912 0.931 . S
C897 C896 1.391 . S
C897 C901 1.376 . S
C898 C896 1.394 . S
C898 C899 1.369 . S
C898 C902 1.531 . S
C899 C898 1.369 . S
C899 C900 1.410 . S
C899 C907 1.503 . S
C900 C899 1.410 . S
C900 C901 1.392 . S
C900 C903 1.511 . S
C901 C897 1.376 . S
C901 C900 1.392 . S
C901 H913 0.929 . S
C902 C898 1.531 . S
C902 H914 0.960 . S
C902 H915 0.962 . S
C902 H916 0.960 . S
C903 C900 1.511 . S
C903 H917 0.961 . S
C903 H918 0.961 . S
C903 H919 0.961 . S
C904 C905 1.370 . S
C904 C906 1.363 . S
C904 H920 0.931 . S
C905 C904 1.370 . S
C905 C909 1.408 . S
C906 C904 1.363 . S
C906 C907 1.370 . S
C906 C910 1.524 . S
C907 C899 1.503 . S
C907 C906 1.370 . S
C907 C908 1.403 . S
C908 C907 1.403 . S
C908 C909 1.404 . S
C908 C911 1.539 . S
C909 C905 1.408 . S
C909 C908 1.404 . S
C909 H921 0.930 . S
C910 C906 1.524 . S
C910 H922 0.956 . S
C910 H923 0.961 . S
C910 H924 0.961 . S
C911 C908 1.539 . S
C911 H925 0.958 . S
C911 H926 0.961 . S
C911 H927 0.960 . S
H912 C896 0.931 . S
H913 C901 0.929 . S
H914 C902 0.960 . S
H915 C902 0.962 . S
H916 C902 0.960 . S
H917 C903 0.961 . S
H918 C903 0.961 . S
H919 C903 0.961 . S
H920 C904 0.931 . S
H921 C909 0.930 . S
H922 C910 0.956 . S
H923 C910 0.961 . S
H924 C910 0.961 . S
H925 C911 0.958 . S
H926 C911 0.961 . S
H927 C911 0.960 . S
C928 C929 1.391 . S
C928 C930 1.394 . S
C928 H944 0.931 . S
C929 C928 1.391 . S
C929 C933 1.376 . S
C930 C928 1.394 . S
C930 C931 1.369 . S
C930 C934 1.531 . S
C931 C930 1.369 . S
C931 C932 1.410 . S
C931 C939 1.503 . S
C932 C931 1.410 . S
C932 C933 1.392 . S
C932 C935 1.511 1_556 S
C933 C929 1.376 . S
C933 C932 1.392 . S
C933 H945 0.929 . S
C934 C930 1.531 . S
C934 H946 0.960 . S
C934 H947 0.962 . S
C934 H948 0.960 . S
C935 C932 1.511 1_554 S
C935 H949 0.961 . S
C935 H950 0.961 . S
C935 H951 0.961 . S
C936 C937 1.370 . S
C936 C938 1.363 . S
C936 H952 0.912 1_556 S
C937 C936 1.370 . S
C937 C941 1.408 . S
C938 C936 1.363 . S
C938 C939 1.370 . S
C938 C942 1.524 . S
C939 C931 1.503 . S
C939 C938 1.370 . S
C939 C940 1.403 . S
C940 C939 1.403 . S
C940 C941 1.404 . S
C940 C943 1.539 . S
C941 C937 1.408 . S
C941 C940 1.404 . S
C941 H953 0.930 . S
C942 C938 1.524 . S
C942 H954 0.956 . S
C942 H955 0.961 1_556 S
C942 H956 0.961 1_556 S
C943 C940 1.539 . S
C943 H957 0.958 . S
C943 H958 0.961 . S
C943 H959 0.960 . S
H944 C928 0.931 . S
H945 C933 0.929 . S
H946 C934 0.960 . S
H947 C934 0.962 . S
H948 C934 0.960 . S
H949 C935 0.961 . S
H950 C935 0.961 . S
H951 C935 0.961 . S
H952 C936 0.912 1_554 S
H953 C941 0.930 . S
H954 C942 0.956 . S
H955 C942 0.961 1_554 S
H956 C942 0.961 1_554 S
H957 C943 0.958 . S
H958 C943 0.961 . S
H959 C943 0.960 . S
C960 C961 1.391 . S
C960 C962 1.394 . S
C960 H976 0.931 . S
C961 C960 1.391 . S
C961 C965 1.376 . S
C962 C960 1.394 . S
C962 C963 1.369 . S
C962 C966 1.531 . S
C963 C962 1.369 . S
C963 C964 1.410 . S
C963 C971 1.503 . S
C964 C963 1.410 . S
C964 C965 1.392 . S
C964 C967 1.511 . S
C965 C961 1.376 . S
C965 C964 1.392 . S
C965 H977 0.929 . S
C966 C962 1.531 . S
C966 H978 0.960 . S
C966 H979 0.962 . S
C966 H980 0.960 . S
C967 C964 1.511 . S
C967 H981 0.961 . S
C967 H982 0.961 . S
C967 H983 0.961 . S
C968 C969 1.370 . S
C968 C970 1.363 . S
C968 H984 0.931 . S
C969 C968 1.370 . S
C969 C973 1.408 . S
C970 C968 1.363 . S
C970 C971 1.370 . S
C970 C974 1.524 . S
C971 C963 1.503 . S
C971 C970 1.370 . S
C971 C972 1.403 . S
C972 C971 1.403 . S
C972 C973 1.404 . S
C972 C975 1.539 . S
C973 C969 1.408 . S
C973 C972 1.404 . S
C973 H985 0.930 . S
C974 C970 1.524 . S
C974 H986 0.956 . S
C974 H987 0.961 . S
C974 H988 0.961 . S
C975 C972 1.539 . S
C975 H989 0.958 . S
C975 H990 0.961 . S
C975 H991 0.960 . S
H976 C960 0.931 . S
H977 C965 0.929 . S
H978 C966 0.960 . S
H979 C966 0.962 . S
H980 C966 0.960 . S
H981 C967 0.961 . S
H982 C967 0.961 . S
H983 C967 0.961 . S
H984 C968 0.931 . S
H985 C973 0.930 . S
H986 C974 0.956 . S
H987 C974 0.961 . S
H988 C974 0.961 . S
H989 C975 0.958 . S
H990 C975 0.961 . S
H991 C975 0.960 . S
C992 C993 1.391 . S
C992 C994 1.394 . S
C992 H1008 0.931 . S
C993 C992 1.391 . S
C993 C997 1.376 . S
C994 C992 1.394 . S
C994 C995 1.369 . S
C994 C998 1.531 . S
C995 C994 1.369 . S
C995 C996 1.410 . S
C995 C1003 1.503 . S
C996 C995 1.410 . S
C996 C997 1.392 . S
C996 C999 1.511 . S
C997 C993 1.376 . S
C997 C996 1.392 . S
C997 H1009 0.929 . S
C998 C994 1.531 . S
C998 H1010 0.960 . S
C998 H1011 0.962 . S
C998 H1012 0.960 . S
C999 C996 1.511 . S
C999 H1013 0.961 . S
C999 H1014 0.961 . S
C999 H1015 0.961 . S
C1000 C1001 1.370 . S
C1000 C1002 1.363 . S
C1000 H1016 0.931 . S
C1001 C1000 1.370 . S
C1001 C1005 1.408 . S
C1002 C1000 1.363 . S
C1002 C1003 1.370 . S
C1002 C1006 1.524 . S
C1003 C995 1.503 . S
C1003 C1002 1.370 . S
C1003 C1004 1.403 . S
C1004 C1003 1.403 . S
C1004 C1005 1.404 . S
C1004 C1007 1.539 . S
C1005 C1001 1.408 . S
C1005 C1004 1.404 . S
C1005 H1017 0.930 . S
C1006 C1002 1.524 . S
C1006 H1018 0.956 . S
C1006 H1019 0.961 . S
C1006 H1020 0.961 . S
C1007 C1004 1.539 . S
C1007 H1021 0.958 . S
C1007 H1022 0.961 . S
C1007 H1023 0.960 . S
H1008 C992 0.931 . S
H1009 C997 0.929 . S
H1010 C998 0.960 . S
H1011 C998 0.962 . S
H1012 C998 0.960 . S
H1013 C999 0.961 . S
H1014 C999 0.961 . S
H1015 C999 0.961 . S
H1016 C1000 0.931 . S
H1017 C1005 0.930 . S
H1018 C1006 0.956 . S
H1019 C1006 0.961 . S
H1020 C1006 0.961 . S
H1021 C1007 0.958 . S
H1022 C1007 0.961 . S
H1023 C1007 0.960 . S
C1024 C1025 1.391 . S
C1024 C1026 1.394 . S
C1024 H1040 0.931 . S
C1025 C1024 1.391 . S
C1025 C1029 1.376 . S
C1026 C1024 1.394 . S
C1026 C1027 1.369 . S
C1026 C1030 1.531 . S
C1027 C1026 1.369 . S
C1027 C1028 1.410 . S
C1027 C1035 1.503 . S
C1028 C1027 1.410 . S
C1028 C1029 1.392 . S
C1028 C1031 1.511 . S
C1029 C1025 1.376 . S
C1029 C1028 1.392 . S
C1029 H1041 0.929 . S
C1030 C1026 1.531 . S
C1030 H1042 0.960 . S
C1030 H1043 0.962 . S
C1030 H1044 0.960 . S
C1031 C1028 1.511 . S
C1031 H1045 0.961 . S
C1031 H1046 0.961 . S
C1031 H1047 0.961 . S
C1032 C1033 1.370 . S
C1032 C1034 1.363 . S
C1032 H1048 0.931 . S
C1033 C1032 1.370 . S
C1033 C1037 1.408 . S
C1034 C1032 1.363 . S
C1034 C1035 1.370 . S
C1034 C1038 1.524 . S
C1035 C1027 1.503 . S
C1035 C1034 1.370 . S
C1035 C1036 1.403 . S
C1036 C1035 1.403 . S
C1036 C1037 1.404 . S
C1036 C1039 1.539 . S
C1037 C1033 1.408 . S
C1037 C1036 1.404 . S
C1037 H1049 0.930 . S
C1038 C1034 1.524 . S
C1038 H1050 0.956 . S
C1038 H1051 0.961 . S
C1038 H1052 0.961 . S
C1039 C1036 1.539 . S
C1039 H1053 0.958 . S
C1039 H1054 0.961 . S
C1039 H1055 0.960 . S
H1040 C1024 0.931 . S
H1041 C1029 0.929 . S
H1042 C1030 0.960 . S
H1043 C1030 0.962 . S
H1044 C1030 0.960 . S
H1045 C1031 0.961 . S
H1046 C1031 0.961 . S
H1047 C1031 0.961 . S
H1048 C1032 0.931 . S
H1049 C1037 0.930 . S
H1050 C1038 0.956 . S
H1051 C1038 0.961 . S
H1052 C1038 0.961 . S
H1053 C1039 0.958 . S
H1054 C1039 0.961 . S
H1055 C1039 0.960 . S
C1056 C1057 1.391 . S
C1056 C1058 1.394 . S
C1056 H1072 0.931 . S
C1057 C1056 1.391 . S
C1057 C1061 1.376 . S
C1058 C1056 1.394 . S
C1058 C1059 1.369 . S
C1058 C1062 1.531 . S
C1059 C1058 1.369 . S
C1059 C1060 1.410 . S
C1059 C1067 1.503 . S
C1060 C1059 1.410 . S
C1060 C1061 1.392 . S
C1060 C1063 1.511 . S
C1061 C1057 1.376 . S
C1061 C1060 1.392 . S
C1061 H1073 0.929 . S
C1062 C1058 1.531 . S
C1062 H1074 0.960 . S
C1062 H1075 0.962 . S
C1062 H1076 0.960 . S
C1063 C1060 1.511 . S
C1063 H1077 0.961 . S
C1063 H1078 0.961 . S
C1063 H1079 0.961 . S
C1064 C1065 1.370 . S
C1064 C1066 1.363 . S
C1064 H1080 0.931 . S
C1065 C1064 1.370 . S
C1065 C1069 1.408 . S
C1066 C1064 1.363 . S
C1066 C1067 1.370 . S
C1066 C1070 1.524 . S
C1067 C1059 1.503 . S
C1067 C1066 1.370 . S
C1067 C1068 1.403 . S
C1068 C1067 1.403 . S
C1068 C1069 1.404 . S
C1068 C1071 1.539 . S
C1069 C1065 1.408 . S
C1069 C1068 1.404 . S
C1069 H1081 0.930 . S
C1070 C1066 1.524 . S
C1070 H1082 0.956 . S
C1070 H1083 0.961 . S
C1070 H1084 0.961 . S
C1071 C1068 1.539 . S
C1071 H1085 0.958 . S
C1071 H1086 0.961 . S
C1071 H1087 0.960 . S
H1072 C1056 0.931 . S
H1073 C1061 0.929 . S
H1074 C1062 0.960 . S
H1075 C1062 0.962 . S
H1076 C1062 0.960 . S
H1077 C1063 0.961 . S
H1078 C1063 0.961 . S
H1079 C1063 0.961 . S
H1080 C1064 0.931 . S
H1081 C1069 0.930 . S
H1082 C1070 0.956 . S
H1083 C1070 0.961 . S
H1084 C1070 0.961 . S
H1085 C1071 0.958 . S
H1086 C1071 0.961 . S
H1087 C1071 0.960 . S
C1088 C1089 1.391 . S
C1088 C1090 1.394 . S
C1088 H1104 0.931 . S
C1089 C1088 1.391 . S
C1089 C1093 1.376 . S
C1090 C1088 1.394 . S
C1090 C1091 1.369 . S
C1090 C1094 1.531 . S
C1091 C1090 1.369 . S
C1091 C1092 1.410 . S
C1091 C1099 1.503 . S
C1092 C1091 1.410 . S
C1092 C1093 1.392 . S
C1092 C1095 1.511 . S
C1093 C1089 1.376 . S
C1093 C1092 1.392 . S
C1093 H1105 0.929 . S
C1094 C1090 1.531 . S
C1094 H1106 0.960 . S
C1094 H1107 0.962 . S
C1094 H1108 0.960 . S
C1095 C1092 1.511 . S
C1095 H1109 0.961 . S
C1095 H1110 0.961 . S
C1095 H1111 0.961 . S
C1096 C1097 1.370 . S
C1096 C1098 1.363 . S
C1096 H1112 0.931 . S
C1097 C1096 1.370 . S
C1097 C1101 1.408 . S
C1098 C1096 1.363 . S
C1098 C1099 1.370 . S
C1098 C1102 1.524 . S
C1099 C1091 1.503 . S
C1099 C1098 1.370 . S
C1099 C1100 1.403 . S
C1100 C1099 1.403 . S
C1100 C1101 1.404 . S
C1100 C1103 1.539 . S
C1101 C1097 1.408 . S
C1101 C1100 1.404 . S
C1101 H1113 0.930 . S
C1102 C1098 1.524 . S
C1102 H1114 0.956 . S
C1102 H1115 0.961 . S
C1102 H1116 0.961 . S
C1103 C1100 1.539 . S
C1103 H1117 0.958 . S
C1103 H1118 0.961 . S
C1103 H1119 0.960 . S
H1104 C1088 0.931 . S
H1105 C1093 0.929 . S
H1106 C1094 0.960 . S
H1107 C1094 0.962 . S
H1108 C1094 0.960 . S
H1109 C1095 0.961 . S
H1110 C1095 0.961 . S
H1111 C1095 0.961 . S
H1112 C1096 0.931 . S
H1113 C1101 0.930 . S
H1114 C1102 0.956 . S
H1115 C1102 0.961 . S
H1116 C1102 0.961 . S
H1117 C1103 0.958 . S
H1118 C1103 0.961 . S
H1119 C1103 0.960 . S
C1120 C1121 1.391 . S
C1120 C1122 1.394 . S
C1120 H1136 0.931 . S
C1121 C1120 1.391 . S
C1121 C1125 1.376 . S
C1122 C1120 1.394 . S
C1122 C1123 1.369 . S
C1122 C1126 1.531 . S
C1123 C1122 1.369 . S
C1123 C1124 1.410 . S
C1123 C1131 1.503 . S
C1124 C1123 1.410 . S
C1124 C1125 1.392 . S
C1124 C1127 1.511 . S
C1125 C1121 1.376 . S
C1125 C1124 1.392 . S
C1125 H1137 0.929 . S
C1126 C1122 1.531 . S
C1126 H1138 0.960 . S
C1126 H1139 0.962 . S
C1126 H1140 0.960 . S
C1127 C1124 1.511 . S
C1127 H1141 0.961 . S
C1127 H1142 0.961 . S
C1127 H1143 0.961 . S
C1128 C1129 1.370 . S
C1128 C1130 1.363 . S
C1128 H1144 0.931 . S
C1129 C1128 1.370 . S
C1129 C1133 1.408 . S
C1130 C1128 1.363 . S
C1130 C1131 1.370 . S
C1130 C1134 1.524 . S
C1131 C1123 1.503 . S
C1131 C1130 1.370 . S
C1131 C1132 1.403 . S
C1132 C1131 1.403 . S
C1132 C1133 1.404 . S
C1132 C1135 1.539 . S
C1133 C1129 1.408 . S
C1133 C1132 1.404 . S
C1133 H1145 0.930 . S
C1134 C1130 1.524 . S
C1134 H1146 0.956 . S
C1134 H1147 0.961 . S
C1134 H1148 0.961 . S
C1135 C1132 1.539 . S
C1135 H1149 0.958 . S
C1135 H1150 0.961 . S
C1135 H1151 0.960 . S
H1136 C1120 0.931 . S
H1137 C1125 0.929 . S
H1138 C1126 0.960 . S
H1139 C1126 0.962 . S
H1140 C1126 0.960 . S
H1141 C1127 0.961 . S
H1142 C1127 0.961 . S
H1143 C1127 0.961 . S
H1144 C1128 0.931 . S
H1145 C1133 0.930 . S
H1146 C1134 0.956 . S
H1147 C1134 0.961 . S
H1148 C1134 0.961 . S
H1149 C1135 0.958 . S
H1150 C1135 0.961 . S
H1151 C1135 0.960 . S
C1152 C1153 1.391 . S
C1152 C1154 1.394 . S
C1152 H1168 0.931 . S
C1153 C1152 1.391 . S
C1153 C1157 1.376 . S
C1154 C1152 1.394 . S
C1154 C1155 1.369 . S
C1154 C1158 1.531 . S
C1155 C1154 1.369 . S
C1155 C1156 1.410 . S
C1155 C1163 1.503 . S
C1156 C1155 1.410 . S
C1156 C1157 1.392 . S
C1156 C1159 1.511 . S
C1157 C1153 1.376 . S
C1157 C1156 1.392 . S
C1157 H1169 0.929 . S
C1158 C1154 1.531 . S
C1158 H1170 0.960 . S
C1158 H1171 0.962 . S
C1158 H1172 0.960 . S
C1159 C1156 1.511 . S
C1159 H1173 0.961 . S
C1159 H1174 0.961 . S
C1159 H1175 0.961 . S
C1160 C1161 1.370 . S
C1160 C1162 1.363 . S
C1160 H1176 0.931 . S
C1161 C1160 1.370 . S
C1161 C1165 1.408 . S
C1162 C1160 1.363 . S
C1162 C1163 1.370 . S
C1162 C1166 1.524 . S
C1163 C1155 1.503 . S
C1163 C1162 1.370 . S
C1163 C1164 1.403 . S
C1164 C1163 1.403 . S
C1164 C1165 1.404 . S
C1164 C1167 1.539 . S
C1165 C1161 1.408 . S
C1165 C1164 1.404 . S
C1165 H1177 0.930 . S
C1166 C1162 1.524 . S
C1166 H1178 0.956 . S
C1166 H1179 0.961 . S
C1166 H1180 0.961 . S
C1167 C1164 1.539 . S
C1167 H1181 0.958 . S
C1167 H1182 0.961 . S
C1167 H1183 0.960 . S
H1168 C1152 0.931 . S
H1169 C1157 0.929 . S
H1170 C1158 0.960 . S
H1171 C1158 0.962 . S
H1172 C1158 0.960 . S
H1173 C1159 0.961 . S
H1174 C1159 0.961 . S
H1175 C1159 0.961 . S
H1176 C1160 0.931 . S
H1177 C1165 0.930 . S
H1178 C1166 0.956 . S
H1179 C1166 0.961 . S
H1180 C1166 0.961 . S
H1181 C1167 0.958 . S
H1182 C1167 0.961 . S
H1183 C1167 0.960 . S
C1184 C1185 1.391 . S
C1184 C1186 1.394 . S
C1184 H1200 0.931 . S
C1185 C1184 1.391 . S
C1185 C1189 1.376 . S
C1186 C1184 1.394 . S
C1186 C1187 1.369 . S
C1186 C1190 1.531 . S
C1187 C1186 1.369 . S
C1187 C1188 1.410 . S
C1187 C1195 1.503 . S
C1188 C1187 1.410 . S
C1188 C1189 1.392 . S
C1188 C1191 1.511 . S
C1189 C1185 1.376 . S
C1189 C1188 1.392 . S
C1189 H1201 0.929 . S
C1190 C1186 1.531 . S
C1190 H1202 0.960 . S
C1190 H1203 0.962 . S
C1190 H1204 0.960 . S
C1191 C1188 1.511 . S
C1191 H1205 0.961 . S
C1191 H1206 0.961 . S
C1191 H1207 0.961 . S
C1192 C1193 1.370 . S
C1192 C1194 1.363 . S
C1192 H1208 0.931 . S
C1193 C1192 1.370 . S
C1193 C1197 1.408 . S
C1194 C1192 1.363 . S
C1194 C1195 1.370 . S
C1194 C1198 1.524 . S
C1195 C1187 1.503 . S
C1195 C1194 1.370 . S
C1195 C1196 1.403 . S
C1196 C1195 1.403 . S
C1196 C1197 1.404 . S
C1196 C1199 1.539 . S
C1197 C1193 1.408 . S
C1197 C1196 1.404 . S
C1197 H1209 0.930 . S
C1198 C1194 1.524 . S
C1198 H1210 0.956 . S
C1198 H1211 0.961 . S
C1198 H1212 0.961 . S
C1199 C1196 1.539 . S
C1199 H1213 0.958 . S
C1199 H1214 0.961 . S
C1199 H1215 0.960 . S
H1200 C1184 0.931 . S
H1201 C1189 0.929 . S
H1202 C1190 0.960 . S
H1203 C1190 0.962 . S
H1204 C1190 0.960 . S
H1205 C1191 0.961 . S
H1206 C1191 0.961 . S
H1207 C1191 0.961 . S
H1208 C1192 0.931 . S
H1209 C1197 0.930 . S
H1210 C1198 0.956 . S
H1211 C1198 0.961 . S
H1212 C1198 0.961 . S
H1213 C1199 0.958 . S
H1214 C1199 0.961 . S
H1215 C1199 0.960 . S
C1216 C1217 1.391 . S
C1216 C1218 1.394 . S
C1216 H1232 0.931 . S
C1217 C1216 1.391 . S
C1217 C1221 1.376 . S
C1218 C1216 1.394 . S
C1218 C1219 1.369 . S
C1218 C1222 1.531 . S
C1219 C1218 1.369 . S
C1219 C1220 1.410 . S
C1219 C1227 1.503 . S
C1220 C1219 1.410 . S
C1220 C1221 1.392 . S
C1220 C1223 1.511 . S
C1221 C1217 1.376 . S
C1221 C1220 1.392 . S
C1221 H1233 0.929 . S
C1222 C1218 1.531 . S
C1222 H1234 0.960 . S
C1222 H1235 0.962 . S
C1222 H1236 0.960 . S
C1223 C1220 1.511 . S
C1223 H1237 0.961 . S
C1223 H1238 0.961 . S
C1223 H1239 0.961 . S
C1224 C1225 1.370 . S
C1224 C1226 1.363 . S
C1224 H1240 0.931 . S
C1225 C1224 1.370 . S
C1225 C1229 1.408 . S
C1226 C1224 1.363 . S
C1226 C1227 1.370 . S
C1226 C1230 1.524 . S
C1227 C1219 1.503 . S
C1227 C1226 1.370 . S
C1227 C1228 1.403 . S
C1228 C1227 1.403 . S
C1228 C1229 1.404 . S
C1228 C1231 1.539 . S
C1229 C1225 1.408 . S
C1229 C1228 1.404 . S
C1229 H1241 0.930 . S
C1230 C1226 1.524 . S
C1230 H1242 0.956 . S
C1230 H1243 0.961 . S
C1230 H1244 0.961 . S
C1231 C1228 1.539 . S
C1231 H1245 0.958 . S
C1231 H1246 0.961 . S
C1231 H1247 0.960 . S
H1232 C1216 0.931 . S
H1233 C1221 0.929 . S
H1234 C1222 0.960 . S
H1235 C1222 0.962 . S
H1236 C1222 0.960 . S
H1237 C1223 0.961 . S
H1238 C1223 0.961 . S
H1239 C1223 0.961 . S
H1240 C1224 0.931 . S
H1241 C1229 0.930 . S
H1242 C1230 0.956 . S
H1243 C1230 0.961 . S
H1244 C1230 0.961 . S
H1245 C1231 0.958 . S
H1246 C1231 0.961 . S
H1247 C1231 0.960 . S
C1248 C1249 1.391 . S
C1248 C1250 1.394 . S
C1248 H1264 0.931 . S
C1249 C1248 1.391 . S
C1249 C1253 1.376 . S
C1250 C1248 1.394 . S
C1250 C1251 1.369 . S
C1250 C1254 1.531 . S
C1251 C1250 1.369 . S
C1251 C1252 1.410 . S
C1251 C1259 1.503 . S
C1252 C1251 1.410 . S
C1252 C1253 1.392 . S
C1252 C1255 1.511 . S
C1253 C1249 1.376 . S
C1253 C1252 1.392 . S
C1253 H1265 0.929 . S
C1254 C1250 1.531 . S
C1254 H1266 0.960 . S
C1254 H1267 0.962 . S
C1254 H1268 0.960 . S
C1255 C1252 1.511 . S
C1255 H1269 0.961 . S
C1255 H1270 0.961 . S
C1255 H1271 0.961 . S
C1256 C1257 1.370 . S
C1256 C1258 1.363 . S
C1256 H1272 0.931 . S
C1257 C1256 1.370 . S
C1257 C1261 1.408 . S
C1258 C1256 1.363 . S
C1258 C1259 1.370 . S
C1258 C1262 1.524 . S
C1259 C1251 1.503 . S
C1259 C1258 1.370 . S
C1259 C1260 1.403 . S
C1260 C1259 1.403 . S
C1260 C1261 1.404 . S
C1260 C1263 1.539 . S
C1261 C1257 1.408 . S
C1261 C1260 1.404 . S
C1261 H1273 0.930 . S
C1262 C1258 1.524 . S
C1262 H1274 0.956 . S
C1262 H1275 0.961 . S
C1262 H1276 0.961 . S
C1263 C1260 1.539 . S
C1263 H1277 0.958 . S
C1263 H1278 0.961 . S
C1263 H1279 0.960 . S
H1264 C1248 0.931 . S
H1265 C1253 0.929 . S
H1266 C1254 0.960 . S
H1267 C1254 0.962 . S
H1268 C1254 0.960 . S
H1269 C1255 0.961 . S
H1270 C1255 0.961 . S
H1271 C1255 0.961 . S
H1272 C1256 0.931 . S
H1273 C1261 0.930 . S
H1274 C1262 0.956 . S
H1275 C1262 0.961 . S
H1276 C1262 0.961 . S
H1277 C1263 0.958 . S
H1278 C1263 0.961 . S
H1279 C1263 0.960 . S
C1280 C1281 1.391 . S
C1280 C1282 1.394 . S
C1280 H1296 0.931 . S
C1281 C1280 1.391 . S
C1281 C1285 1.376 . S
C1282 C1280 1.394 . S
C1282 C1283 1.369 . S
C1282 C1286 1.531 . S
C1283 C1282 1.369 . S
C1283 C1284 1.410 . S
C1283 C1291 1.503 . S
C1284 C1283 1.410 . S
C1284 C1285 1.392 . S
C1284 C1287 1.511 . S
C1285 C1281 1.376 . S
C1285 C1284 1.392 . S
C1285 H1297 0.929 . S
C1286 C1282 1.531 . S
C1286 H1298 0.960 . S
C1286 H1299 0.962 . S
C1286 H1300 0.960 . S
C1287 C1284 1.511 . S
C1287 H1301 0.961 . S
C1287 H1302 0.961 . S
C1287 H1303 0.961 . S
C1288 C1289 1.370 . S
C1288 C1290 1.363 . S
C1288 H1304 0.931 . S
C1289 C1288 1.370 . S
C1289 C1293 1.408 . S
C1290 C1288 1.363 . S
C1290 C1291 1.370 . S
C1290 C1294 1.524 . S
C1291 C1283 1.503 . S
C1291 C1290 1.370 . S
C1291 C1292 1.403 . S
C1292 C1291 1.403 . S
C1292 C1293 1.404 . S
C1292 C1295 1.539 . S
C1293 C1289 1.408 . S
C1293 C1292 1.404 . S
C1293 H1305 0.930 . S
C1294 C1290 1.524 . S
C1294 H1306 0.956 . S
C1294 H1307 0.961 . S
C1294 H1308 0.961 . S
C1295 C1292 1.539 . S
C1295 H1309 0.958 . S
C1295 H1310 0.961 . S
C1295 H1311 0.960 . S
H1296 C1280 0.931 . S
H1297 C1285 0.929 . S
H1298 C1286 0.960 . S
H1299 C1286 0.962 . S
H1300 C1286 0.960 . S
H1301 C1287 0.961 . S
H1302 C1287 0.961 . S
H1303 C1287 0.961 . S
H1304 C1288 0.931 . S
H1305 C1293 0.930 . S
H1306 C1294 0.956 . S
H1307 C1294 0.961 . S
H1308 C1294 0.961 . S
H1309 C1295 0.958 . S
H1310 C1295 0.961 . S
H1311 C1295 0.960 . S
C1312 C1313 1.391 . S
C1312 C1314 1.394 . S
C1312 H1328 0.931 . S
C1313 C1312 1.391 . S
C1313 C1317 1.376 . S
C1314 C1312 1.394 . S
C1314 C1315 1.369 . S
C1314 C1318 1.531 . S
C1315 C1314 1.369 . S
C1315 C1316 1.410 . S
C1315 C1323 1.503 . S
C1316 C1315 1.410 . S
C1316 C1317 1.392 . S
C1316 C1319 1.511 . S
C1317 C1313 1.376 . S
C1317 C1316 1.392 . S
C1317 H1329 0.929 . S
C1318 C1314 1.531 . S
C1318 H1330 0.960 . S
C1318 H1331 0.962 . S
C1318 H1332 0.960 . S
C1319 C1316 1.511 . S
C1319 H1333 0.961 . S
C1319 H1334 0.961 . S
C1319 H1335 0.961 . S
C1320 C1321 1.370 . S
C1320 C1322 1.363 . S
C1320 H1336 0.931 . S
C1321 C1320 1.370 . S
C1321 C1325 1.408 . S
C1322 C1320 1.363 . S
C1322 C1323 1.370 . S
C1322 C1326 1.524 . S
C1323 C1315 1.503 . S
C1323 C1322 1.370 . S
C1323 C1324 1.403 . S
C1324 C1323 1.403 . S
C1324 C1325 1.404 . S
C1324 C1327 1.539 . S
C1325 C1321 1.408 . S
C1325 C1324 1.404 . S
C1325 H1337 0.930 . S
C1326 C1322 1.524 . S
C1326 H1338 0.956 . S
C1326 H1339 0.961 . S
C1326 H1340 0.961 . S
C1327 C1324 1.539 . S
C1327 H1341 0.958 . S
C1327 H1342 0.961 . S
C1327 H1343 0.960 . S
H1328 C1312 0.931 . S
H1329 C1317 0.929 . S
H1330 C1318 0.960 . S
H1331 C1318 0.962 . S
H1332 C1318 0.960 . S
H1333 C1319 0.961 . S
H1334 C1319 0.961 . S
H1335 C1319 0.961 . S
H1336 C1320 0.931 . S
H1337 C1325 0.930 . S
H1338 C1326 0.956 . S
H1339 C1326 0.961 . S
H1340 C1326 0.961 . S
H1341 C1327 0.958 . S
H1342 C1327 0.961 . S
H1343 C1327 0.960 . S
C1344 C1345 1.391 . S
C1344 C1346 1.394 . S
C1344 H1360 0.931 . S
C1345 C1344 1.391 . S
C1345 C1349 1.376 . S
C1346 C1344 1.394 . S
C1346 C1347 1.369 . S
C1346 C1350 1.531 . S
C1347 C1346 1.369 . S
C1347 C1348 1.410 . S
C1347 C1355 1.503 . S
C1348 C1347 1.410 . S
C1348 C1349 1.392 . S
C1348 C1351 1.511 . S
C1349 C1345 1.376 . S
C1349 C1348 1.392 . S
C1349 H1361 0.929 . S
C1350 C1346 1.531 . S
C1350 H1362 0.960 . S
C1350 H1363 0.962 . S
C1350 H1364 0.960 . S
C1351 C1348 1.511 . S
C1351 H1365 0.961 . S
C1351 H1366 0.961 . S
C1351 H1367 0.961 . S
C1352 C1353 1.370 . S
C1352 C1354 1.363 . S
C1352 H1368 0.931 . S
C1353 C1352 1.370 . S
C1353 C1357 1.408 . S
C1354 C1352 1.363 . S
C1354 C1355 1.370 . S
C1354 C1358 1.524 . S
C1355 C1347 1.503 . S
C1355 C1354 1.370 . S
C1355 C1356 1.403 . S
C1356 C1355 1.403 . S
C1356 C1357 1.404 . S
C1356 C1359 1.539 . S
C1357 C1353 1.408 . S
C1357 C1356 1.404 . S
C1357 H1369 0.930 . S
C1358 C1354 1.524 . S
C1358 H1370 0.956 . S
C1358 H1371 0.961 . S
C1358 H1372 0.961 . S
C1359 C1356 1.539 . S
C1359 H1373 0.958 . S
C1359 H1374 0.961 . S
C1359 H1375 0.960 . S
H1360 C1344 0.931 . S
H1361 C1349 0.929 . S
H1362 C1350 0.960 . S
H1363 C1350 0.962 . S
H1364 C1350 0.960 . S
H1365 C1351 0.961 . S
H1366 C1351 0.961 . S
H1367 C1351 0.961 . S
H1368 C1352 0.931 . S
H1369 C1357 0.930 . S
H1370 C1358 0.956 . S
H1371 C1358 0.961 . S
H1372 C1358 0.961 . S
H1373 C1359 0.958 . S
H1374 C1359 0.961 . S
H1375 C1359 0.960 . S
C1376 C1377 1.391 . S
C1376 C1378 1.394 . S
C1376 H1392 0.931 . S
C1377 C1376 1.391 . S
C1377 C1381 1.376 . S
C1378 C1376 1.394 . S
C1378 C1379 1.369 . S
C1378 C1382 1.531 . S
C1379 C1378 1.369 . S
C1379 C1380 1.410 . S
C1379 C1387 1.503 . S
C1380 C1379 1.410 . S
C1380 C1381 1.392 . S
C1380 C1383 1.511 . S
C1381 C1377 1.376 . S
C1381 C1380 1.392 . S
C1381 H1393 0.929 . S
C1382 C1378 1.531 . S
C1382 H1394 0.960 . S
C1382 H1395 0.962 . S
C1382 H1396 0.960 . S
C1383 C1380 1.511 . S
C1383 H1397 0.961 . S
C1383 H1398 0.961 . S
C1383 H1399 0.961 . S
C1384 C1385 1.370 . S
C1384 C1386 1.363 . S
C1384 H1400 0.931 . S
C1385 C1384 1.370 . S
C1385 C1389 1.408 . S
C1386 C1384 1.363 . S
C1386 C1387 1.370 . S
C1386 C1390 1.524 . S
C1387 C1379 1.503 . S
C1387 C1386 1.370 . S
C1387 C1388 1.403 . S
C1388 C1387 1.403 . S
C1388 C1389 1.404 . S
C1388 C1391 1.539 . S
C1389 C1385 1.408 . S
C1389 C1388 1.404 . S
C1389 H1401 0.930 . S
C1390 C1386 1.524 . S
C1390 H1402 0.956 . S
C1390 H1403 0.961 . S
C1390 H1404 0.961 . S
C1391 C1388 1.539 . S
C1391 H1405 0.958 . S
C1391 H1406 0.961 . S
C1391 H1407 0.960 . S
H1392 C1376 0.931 . S
H1393 C1381 0.929 . S
H1394 C1382 0.960 . S
H1395 C1382 0.962 . S
H1396 C1382 0.960 . S
H1397 C1383 0.961 . S
H1398 C1383 0.961 . S
H1399 C1383 0.961 . S
H1400 C1384 0.931 . S
H1401 C1389 0.930 . S
H1402 C1390 0.956 . S
H1403 C1390 0.961 . S
H1404 C1390 0.961 . S
H1405 C1391 0.958 . S
H1406 C1391 0.961 . S
H1407 C1391 0.960 . S
C1408 C1409 1.391 . S
C1408 C1410 1.394 . S
C1408 H1424 0.931 . S
C1409 C1408 1.391 . S
C1409 C1413 1.376 . S
C1410 C1408 1.394 . S
C1410 C1411 1.369 . S
C1410 C1414 1.531 . S
C1411 C1410 1.369 . S
C1411 C1412 1.410 . S
C1411 C1419 1.503 . S
C1412 C1411 1.410 . S
C1412 C1413 1.392 . S
C1412 C1415 1.511 . S
C1413 C1409 1.376 . S
C1413 C1412 1.392 . S
C1413 H1425 0.929 . S
C1414 C1410 1.531 . S
C1414 H1426 0.960 . S
C1414 H1427 0.962 . S
C1414 H1428 0.960 . S
C1415 C1412 1.511 . S
C1415 H1429 0.961 . S
C1415 H1430 0.961 . S
C1415 H1431 0.961 . S
C1416 C1417 1.370 . S
C1416 C1418 1.363 . S
C1416 H1432 0.931 . S
C1417 C1416 1.370 . S
C1417 C1421 1.408 . S
C1418 C1416 1.363 . S
C1418 C1419 1.370 . S
C1418 C1422 1.524 . S
C1419 C1411 1.503 . S
C1419 C1418 1.370 . S
C1419 C1420 1.403 . S
C1420 C1419 1.403 . S
C1420 C1421 1.404 . S
C1420 C1423 1.539 . S
C1421 C1417 1.408 . S
C1421 C1420 1.404 . S
C1421 H1433 0.930 . S
C1422 C1418 1.524 . S
C1422 H1434 0.956 . S
C1422 H1435 0.961 . S
C1422 H1436 0.961 . S
C1423 C1420 1.539 . S
C1423 H1437 0.958 . S
C1423 H1438 0.961 . S
C1423 H1439 0.960 . S
H1424 C1408 0.931 . S
H1425 C1413 0.929 . S
H1426 C1414 0.960 . S
H1427 C1414 0.962 . S
H1428 C1414 0.960 . S
H1429 C1415 0.961 . S
H1430 C1415 0.961 . S
H1431 C1415 0.961 . S
H1432 C1416 0.931 . S
H1433 C1421 0.930 . S
H1434 C1422 0.956 . S
H1435 C1422 0.961 . S
H1436 C1422 0.961 . S
H1437 C1423 0.958 . S
H1438 C1423 0.961 . S
H1439 C1423 0.960 . S
C1440 C1441 1.391 . S
C1440 C1442 1.394 . S
C1440 H1456 0.931 . S
C1441 C1440 1.391 . S
C1441 C1445 1.376 . S
C1442 C1440 1.394 . S
C1442 C1443 1.369 . S
C1442 C1446 1.531 . S
C1443 C1442 1.369 . S
C1443 C1444 1.410 . S
C1443 C1451 1.503 . S
C1444 C1443 1.410 . S
C1444 C1445 1.392 . S
C1444 C1447 1.511 . S
C1445 C1441 1.376 . S
C1445 C1444 1.392 . S
C1445 H1457 0.929 . S
C1446 C1442 1.531 . S
C1446 H1458 0.960 . S
C1446 H1459 0.962 . S
C1446 H1460 0.960 . S
C1447 C1444 1.511 . S
C1447 H1461 0.961 . S
C1447 H1462 0.961 . S
C1447 H1463 0.961 . S
C1448 C1449 1.370 . S
C1448 C1450 1.363 . S
C1448 H1464 0.931 . S
C1449 C1448 1.370 . S
C1449 C1453 1.408 . S
C1450 C1448 1.363 . S
C1450 C1451 1.370 . S
C1450 C1454 1.524 . S
C1451 C1443 1.503 . S
C1451 C1450 1.370 . S
C1451 C1452 1.403 . S
C1452 C1451 1.403 . S
C1452 C1453 1.404 . S
C1452 C1455 1.539 . S
C1453 C1449 1.408 . S
C1453 C1452 1.404 . S
C1453 H1465 0.930 . S
C1454 C1450 1.524 . S
C1454 H1466 0.956 . S
C1454 H1467 0.961 . S
C1454 H1468 0.961 . S
C1455 C1452 1.539 . S
C1455 H1469 0.958 . S
C1455 H1470 0.961 . S
C1455 H1471 0.960 . S
H1456 C1440 0.931 . S
H1457 C1445 0.929 . S
H1458 C1446 0.960 . S
H1459 C1446 0.962 . S
H1460 C1446 0.960 . S
H1461 C1447 0.961 . S
H1462 C1447 0.961 . S
H1463 C1447 0.961 . S
H1464 C1448 0.931 . S
H1465 C1453 0.930 . S
H1466 C1454 0.956 . S
H1467 C1454 0.961 . S
H1468 C1454 0.961 . S
H1469 C1455 0.958 . S
H1470 C1455 0.961 . S
H1471 C1455 0.960 . S
C1472 C1473 1.391 . S
C1472 C1474 1.394 . S
C1472 H1488 0.931 . S
C1473 C1472 1.391 . S
C1473 C1477 1.376 . S
C1474 C1472 1.394 . S
C1474 C1475 1.369 . S
C1474 C1478 1.531 . S
C1475 C1474 1.369 . S
C1475 C1476 1.410 . S
C1475 C1483 1.503 . S
C1476 C1475 1.410 . S
C1476 C1477 1.392 . S
C1476 C1479 1.511 . S
C1477 C1473 1.376 . S
C1477 C1476 1.392 . S
C1477 H1489 0.929 . S
C1478 C1474 1.531 . S
C1478 H1490 0.960 . S
C1478 H1491 0.962 . S
C1478 H1492 0.960 . S
C1479 C1476 1.511 . S
C1479 H1493 0.961 . S
C1479 H1494 0.961 . S
C1479 H1495 0.961 . S
C1480 C1481 1.370 . S
C1480 C1482 1.363 . S
C1480 H1496 0.931 . S
C1481 C1480 1.370 . S
C1481 C1485 1.408 . S
C1482 C1480 1.363 . S
C1482 C1483 1.370 . S
C1482 C1486 1.524 . S
C1483 C1475 1.503 . S
C1483 C1482 1.370 . S
C1483 C1484 1.403 . S
C1484 C1483 1.403 . S
C1484 C1485 1.404 . S
C1484 C1487 1.539 . S
C1485 C1481 1.408 . S
C1485 C1484 1.404 . S
C1485 H1497 0.930 . S
C1486 C1482 1.524 . S
C1486 H1498 0.956 . S
C1486 H1499 0.961 . S
C1486 H1500 0.961 . S
C1487 C1484 1.539 . S
C1487 H1501 0.958 . S
C1487 H1502 0.961 . S
C1487 H1503 0.960 . S
H1488 C1472 0.931 . S
H1489 C1477 0.929 . S
H1490 C1478 0.960 . S
H1491 C1478 0.962 . S
H1492 C1478 0.960 . S
H1493 C1479 0.961 . S
H1494 C1479 0.961 . S
H1495 C1479 0.961 . S
H1496 C1480 0.931 . S
H1497 C1485 0.930 . S
H1498 C1486 0.956 . S
H1499 C1486 0.961 . S
H1500 C1486 0.961 . S
H1501 C1487 0.958 . S
H1502 C1487 0.961 . S
H1503 C1487 0.960 . S
C489 C390 1.319 . S
C481 C8 1.318 . S
C521 C404 1.324 . S
C513 C61 1.320 . S
C553 C419 1.323 . S
C545 C107 1.305 . S
C577 C139 1.268 . S
C585 C377 1.286 . S
C609 C192 1.276 . S
C617 C376 1.286 1_556 S
C641 C238 1.270 . S
C649 C391 1.249 . S
C681 C405 1.324 . S
C673 C284 1.303 . S
C713 C418 1.324 . S
C705 C330 1.315 . S
C737 C100 1.290 . S
C745 C446 1.294 . S
C777 C460 1.337 . S
C769 C160 1.264 . S
C801 C15 1.235 . S
C809 C475 1.272 . S
C841 C432 1.266 . S
C833 C54 1.259 . S
C865 C291 1.291 . S
C873 C433 1.313 . S
C897 C337 1.286 . S
C905 C447 1.315 . S
C937 C461 1.321 . S
C929 C199 1.301 . S
C961 C245 1.280 . S
C969 C474 1.348 . S
C1001 C399 1.715 . S
C993 C1 1.717 . S
C1033 C417 1.691 . S
C1025 C68 1.700 . S
C1057 C114 1.707 . S
C1065 C375 1.681 . S
C1089 C146 1.734 . S
C1097 C385 1.726 . S
C1121 C185 1.646 . S
C1129 C413 1.646 . S
C1161 C371 1.642 . S
C1153 C231 1.656 . S
C1193 C389 1.620 . S
C1185 C277 1.656 . S
C1225 C403 1.612 . S
C1217 C323 1.641 . S
C1257 C455 1.647 . S
C1249 C93 1.645 . S
C1289 C473 1.613 . S
C1281 C153 1.650 . S
C1313 C22 1.642 . S
C1321 C427 1.645 . S
C1353 C441 1.633 . S
C1345 C47 1.646 . S
C1385 C469 1.728 . S
C1377 C298 1.703 . S
C1409 C344 1.723 . S
C1417 C431 1.692 . S
C1449 C445 1.702 . S
C1441 C206 1.712 . S
C1481 C459 1.684 . S
C1473 C252 1.717 . S
