# Generated by pormake.
# Topology zzz, (3,6)-cn, num edge types: 1
# Building blocks:
#     Node 0, Type 0, BuildingBlock: BETDAH_clean_linker_0, # of connection points: 3
#     Node 1, Type 0, BuildingBlock: BETDAH_clean_linker_0, # of connection points: 3
#     Node 2, Type 0, BuildingBlock: BETDAH_clean_linker_0, # of connection points: 3
#     Node 3, Type 0, BuildingBlock: BETDAH_clean_linker_0, # of connection points: 3
#     Node 4, Type 0, BuildingBlock: BETDAH_clean_linker_0, # of connection points: 3
#     Node 5, Type 0, BuildingBlock: BETDAH_clean_linker_0, # of connection points: 3
#     Node 6, Type 0, BuildingBlock: BETDAH_clean_linker_0, # of connection points: 3
#     Node 7, Type 0, BuildingBlock: BETDAH_clean_linker_0, # of connection points: 3
#     Node 8, Type 1, BuildingBlock: CUKXOW_clean_sbu_0, # of connection points: 6
#     Node 9, Type 1, BuildingBlock: CUKXOW_clean_sbu_0, # of connection points: 6
#     Node 10, Type 1, BuildingBlock: CUKXOW_clean_sbu_0, # of connection points: 6
#     Node 11, Type 1, BuildingBlock: CUKXOW_clean_sbu_0, # of connection points: 6
#     Edge 12, Type (0, 1), BuildingBlock: XIVTED_clean_linker_0, # of connection points: 2
#     Edge 13, Type (0, 1), BuildingBlock: XIVTED_clean_linker_0, # of connection points: 2
#     Edge 14, Type (0, 1), BuildingBlock: XIVTED_clean_linker_0, # of connection points: 2
#     Edge 15, Type (0, 1), BuildingBlock: XIVTED_clean_linker_0, # of connection points: 2
#     Edge 16, Type (0, 1), BuildingBlock: XIVTED_clean_linker_0, # of connection points: 2
#     Edge 17, Type (0, 1), BuildingBlock: XIVTED_clean_linker_0, # of connection points: 2
#     Edge 18, Type (0, 1), BuildingBlock: XIVTED_clean_linker_0, # of connection points: 2
#     Edge 19, Type (0, 1), BuildingBlock: XIVTED_clean_linker_0, # of connection points: 2
#     Edge 20, Type (0, 1), BuildingBlock: XIVTED_clean_linker_0, # of connection points: 2
#     Edge 21, Type (0, 1), BuildingBlock: XIVTED_clean_linker_0, # of connection points: 2
#     Edge 22, Type (0, 1), BuildingBlock: XIVTED_clean_linker_0, # of connection points: 2
#     Edge 23, Type (0, 1), BuildingBlock: XIVTED_clean_linker_0, # of connection points: 2
#     Edge 24, Type (0, 1), BuildingBlock: XIVTED_clean_linker_0, # of connection points: 2
#     Edge 25, Type (0, 1), BuildingBlock: XIVTED_clean_linker_0, # of connection points: 2
#     Edge 26, Type (0, 1), BuildingBlock: XIVTED_clean_linker_0, # of connection points: 2
#     Edge 27, Type (0, 1), BuildingBlock: XIVTED_clean_linker_0, # of connection points: 2
#     Edge 28, Type (0, 1), BuildingBlock: XIVTED_clean_linker_0, # of connection points: 2
#     Edge 29, Type (0, 1), BuildingBlock: XIVTED_clean_linker_0, # of connection points: 2
#     Edge 30, Type (0, 1), BuildingBlock: XIVTED_clean_linker_0, # of connection points: 2
#     Edge 31, Type (0, 1), BuildingBlock: XIVTED_clean_linker_0, # of connection points: 2
#     Edge 32, Type (0, 1), BuildingBlock: XIVTED_clean_linker_0, # of connection points: 2
#     Edge 33, Type (0, 1), BuildingBlock: XIVTED_clean_linker_0, # of connection points: 2
#     Edge 34, Type (0, 1), BuildingBlock: XIVTED_clean_linker_0, # of connection points: 2
#     Edge 35, Type (0, 1), BuildingBlock: XIVTED_clean_linker_0, # of connection points: 2
# Relax obj value: 0.067
# Max RMSD: 0.118
# Mean RMSD: 0.082
data_MOF--net-zzz--node1-CUKXOW_clean_sbu_0--node2-BETDAH_clean_linker_0--edge1-XIVTED_clean_linker_0
_symmetry_space_group_name_H-M    P1
_symmetry_Int_Tables_number       1
_symmetry_cell_setting            triclinic
loop_
_symmetry_equiv_pos_as_xyz
'x, y, z'
_cell_length_a     50.924691
_cell_length_b     52.762998
_cell_length_c     15.909794
_cell_angle_alpha  93.439758
_cell_angle_beta   86.632913
_cell_angle_gamma 93.96351
loop_
_atom_site_label
_atom_site_type_symbol
_atom_site_fract_x
_atom_site_fract_y
_atom_site_fract_z
_atom_type_partial_charge
H0 H 0.82655 0.49128 0.1325 0.0
H1 H 0.767 0.52575 0.00663 0.0
H2 H 0.75617 0.51328 0.27201 0.0
C3 C 0.807 0.49834 0.13382 0.0
C4 C 0.79208 0.50037 0.21038 0.0
C5 C 0.79835 0.50774 0.06064 0.0
C6 C 0.77364 0.51806 0.06276 0.0
C7 C 0.7581 0.51941 0.13907 0.0
C8 C 0.76774 0.51127 0.21288 0.0
N9 N 0.73322 0.52992 0.1443 0.0
C10 C 0.7154 0.52521 0.08181 0.0
H11 H 0.96246 0.8451 0.01684 0.0
H12 H 0.95926 0.7717 0.88476 0.0
H13 H 0.92631 0.78045 0.14075 0.0
C14 C 0.95645 0.82493 0.0156 0.0
C15 C 0.9435 0.81469 0.0868 0.0
C16 C 0.96235 0.80959 0.94328 0.0
C17 C 0.95493 0.78347 0.94133 0.0
C18 C 0.94172 0.77289 0.01302 0.0
C19 C 0.93619 0.7886 0.08547 0.0
N20 N 0.93359 0.74667 0.01467 0.0
C21 C 0.9431 0.72804 0.9578 0.0
H22 H 0.65471 0.97365 0.0308 0.0
H23 H 0.73677 0.98258 0.95274 0.0
H24 H 0.71289 0.97669 0.2162 0.0
C25 C 0.67523 0.97477 0.04651 0.0
C26 C 0.68133 0.97514 0.13098 0.0
C27 C 0.69498 0.97749 0.98217 0.0
C28 C 0.72153 0.97985 0.00238 0.0
C29 C 0.72802 0.97879 0.0873 0.0
C30 C 0.70784 0.97637 0.15088 0.0
N31 N 0.75443 0.98101 0.11203 0.0
C32 C 0.77629 0.98654 0.05839 0.0
H33 H 0.55906 0.67361 0.07404 0.0
H34 H 0.56268 0.74792 0.97659 0.0
H35 H 0.59641 0.73691 0.21365 0.0
C36 C 0.56549 0.69366 0.07985 0.0
C37 C 0.57872 0.70323 0.15059 0.0
C38 C 0.55953 0.70961 0.01759 0.0
C39 C 0.56719 0.73566 0.02527 0.0
C40 C 0.58075 0.74555 0.09637 0.0
C41 C 0.58633 0.72924 0.15862 0.0
N42 N 0.58907 0.77168 0.10793 0.0
C43 C 0.5805 0.79085 0.06235 0.0
H44 H 0.18771 0.51813 0.26218 0.0
H45 H 0.24255 0.48369 0.40843 0.0
H46 H 0.254 0.48288 0.1381 0.0
C47 C 0.20622 0.50934 0.2661 0.0
C48 C 0.22052 0.50228 0.19161 0.0
C49 C 0.21357 0.50223 0.34437 0.0
C50 C 0.23683 0.48961 0.34844 0.0
C51 C 0.25188 0.48338 0.27384 0.0
C52 C 0.24317 0.48896 0.19563 0.0
N53 N 0.27505 0.47023 0.27563 0.0
C54 C 0.29474 0.47837 0.32938 0.0
H55 H 0.04359 0.17423 0.36227 0.0
H56 H 0.04622 0.24777 0.49339 0.0
H57 H 0.07806 0.23915 0.23611 0.0
C58 C 0.04932 0.19445 0.36302 0.0
C59 C 0.06175 0.20477 0.29112 0.0
C60 C 0.04353 0.20978 0.43546 0.0
C61 C 0.05051 0.23599 0.4368 0.0
C62 C 0.06316 0.24664 0.36436 0.0
C63 C 0.06858 0.23093 0.29187 0.0
N64 N 0.07083 0.27294 0.36175 0.0
C65 C 0.06236 0.29146 0.42086 0.0
H66 H 0.3523 0.05166 0.38823 0.0
H67 H 0.27102 0.02868 0.4452 0.0
H68 H 0.2994 0.03846 0.18776 0.0
C69 C 0.33248 0.04737 0.36748 0.0
C70 C 0.32844 0.04565 0.28124 0.0
C71 C 0.31209 0.04094 0.4268 0.0
C72 C 0.28662 0.03441 0.39967 0.0
C73 C 0.28185 0.03457 0.31304 0.0
C74 C 0.30287 0.04 0.2545 0.0
N75 N 0.25667 0.0279 0.28141 0.0
C76 C 0.23388 0.02271 0.33127 0.0
H77 H 0.484 0.34212 0.31067 0.0
H78 H 0.45072 0.27781 0.44197 0.0
H79 H 0.43287 0.28615 0.1836 0.0
C80 C 0.4726 0.32396 0.30991 0.0
C81 C 0.45954 0.31543 0.23761 0.0
C82 C 0.46947 0.3107 0.3837 0.0
C83 C 0.45361 0.28789 0.38449 0.0
C84 C 0.4408 0.27871 0.31124 0.0
C85 C 0.44326 0.29291 0.239 0.0
N86 N 0.42487 0.2556 0.30896 0.0
C87 C 0.43021 0.23498 0.35389 0.0
Tb88 Tb 0.99274 0.99513 0.61018 0.0
C89 C 0.05491 0.0077 0.61864 0.0
Tb90 Tb 0.01498 0.02368 0.76848 0.0
O91 O 0.97895 0.03047 0.56657 0.0
O92 O 0.01113 0.03107 0.64165 0.0
O93 O 0.03547 0.99403 0.58098 0.0
C94 C 0.02799 0.06195 0.87789 0.0
O95 O 0.05064 0.02315 0.6864 0.0
C96 C 0.01228 0.97396 0.76732 0.0
C97 C 0.95287 0.01093 0.76086 0.0
O98 O 0.03612 0.03915 0.87824 0.0
O99 O 0.01202 0.06288 0.81789 0.0
O100 O 0.02883 0.98826 0.81158 0.0
O101 O 0.99664 0.98781 0.7369 0.0
O102 O 0.97231 0.02468 0.79814 0.0
O103 O 0.9571 0.99558 0.69274 0.0
C104 C 0.98002 0.95655 0.50143 0.0
O105 O 0.97158 0.97923 0.50087 0.0
O106 O 0.99614 0.95595 0.56117 0.0
C107 C 0.99546 0.04483 0.61083 0.0
Tb108 Tb 0.50211 0.03764 0.66337 0.0
C109 C 0.53319 0.99556 0.56486 0.0
Tb110 Tb 0.50661 0.98651 0.74694 0.0
O111 O 0.54475 0.0468 0.66519 0.0
O112 O 0.52543 0.02363 0.75378 0.0
O113 O 0.51832 0.0149 0.55718 0.0
C114 C 0.5223 0.94518 0.81298 0.0
O115 O 0.53371 0.98372 0.63595 0.0
C116 C 0.4605 0.99188 0.68779 0.0
C117 C 0.47597 0.02888 0.84641 0.0
O118 O 0.51172 0.94555 0.74086 0.0
O119 O 0.5239 0.96803 0.84805 0.0
O120 O 0.46429 0.97616 0.74479 0.0
O121 O 0.48263 1.0008 0.65865 0.0
O122 O 0.49033 0.0091 0.8536 0.0
O123 O 0.47566 0.04092 0.77564 0.0
C124 C 0.48699 0.07902 0.59621 0.0
O125 O 0.48531 0.05616 0.56106 0.0
O126 O 0.4973 0.07859 0.66875 0.0
C127 C 0.54781 0.032 0.72561 0.0
Tb128 Tb 0.52048 0.52512 0.62088 0.0
C129 C 0.45745 0.51636 0.63635 0.0
Tb130 Tb 0.49326 0.49895 0.77407 0.0
O131 O 0.53471 0.48899 0.56595 0.0
O132 O 0.50053 0.48982 0.64448 0.0
O133 O 0.47872 0.52668 0.59513 0.0
C134 C 0.47651 0.46323 0.87974 0.0
O135 O 0.4586 0.50365 0.70541 0.0
C136 C 0.49802 0.54873 0.7871 0.0
C137 C 0.5556 0.50576 0.75358 0.0
O138 O 0.46985 0.464 0.80277 0.0
O139 O 0.4923 0.48293 0.89819 0.0
O140 O 0.47966 0.53543 0.82873 0.0
O141 O 0.51384 0.53389 0.75074 0.0
O142 O 0.53489 0.49107 0.78043 0.0
O143 O 0.55344 0.52377 0.70021 0.0
C144 C 0.53746 0.56239 0.52189 0.0
O145 O 0.54495 0.53927 0.51344 0.0
O146 O 0.51995 0.56418 0.58403 0.0
C147 C 0.51673 0.47538 0.60794 0.0
Tb148 Tb 0.98496 0.50558 0.63759 0.0
C149 C 0.01465 0.45891 0.67574 0.0
Tb150 Tb 0.02734 0.51284 0.7676 0.0
O151 O 0.01483 0.50026 0.5337 0.0
O152 O 0.02372 0.52216 0.64227 0.0
O153 O 0.99112 0.46633 0.66048 0.0
C154 C 0.07252 0.51308 0.84294 0.0
O155 O 0.03324 0.47514 0.70653 0.0
C156 C 0.97847 0.50669 0.82757 0.0
C157 C 0.99872 0.56088 0.72602 0.0
O158 O 0.05168 0.49831 0.85984 0.0
O159 O 0.06773 0.52824 0.7853 0.0
O160 O 0.99674 0.51995 0.86788 0.0
O161 O 0.98868 0.496 0.76232 0.0
O162 O 0.01933 0.55247 0.76081 0.0
O163 O 0.98256 0.54594 0.67867 0.0
C164 C 0.93838 0.50112 0.56902 0.0
O165 O 0.94304 0.51247 0.64158 0.0
O166 O 0.96005 0.49285 0.53404 0.0
C167 C 0.03355 0.51235 0.57501 0.0
H168 H 0.19289 0.99224 0.27836 0.0
H169 H 0.09952 0.03206 0.67981 0.0
H170 H 0.21863 0.04223 0.48574 0.0
H171 H 0.07249 0.98307 0.47066 0.0
H172 H 0.14385 0.0336 0.61376 0.0
H173 H 0.14935 0.98619 0.35174 0.0
C174 C 0.1893 0.00173 0.33987 0.0
C175 C 0.20902 0.01769 0.37671 0.0
C176 C 0.12828 0.02243 0.58234 0.0
C177 C 0.15962 0.01115 0.46039 0.0
C178 C 0.10287 0.02154 0.62001 0.0
C179 C 0.08211 0.00755 0.58044 0.0
C180 C 0.1331 0.00929 0.50426 0.0
C181 C 0.08783 0.99418 0.50332 0.0
C182 C 0.16453 0.99834 0.38159 0.0
C183 C 0.20372 0.02973 0.45586 0.0
N184 N 0.11277 0.99549 0.46752 0.0
N185 N 0.17941 0.02629 0.49513 0.0
H186 H 0.45264 0.23304 0.50308 0.0
H187 H 0.46286 0.08183 0.44883 0.0
H188 H 0.42311 0.18655 0.29295 0.0
H189 H 0.49025 0.12779 0.66359 0.0
H190 H 0.44764 0.11992 0.39148 0.0
H191 H 0.46591 0.19464 0.56481 0.0
C192 C 0.44883 0.21464 0.47051 0.0
C193 C 0.43679 0.21264 0.39348 0.0
C194 C 0.45696 0.12171 0.45117 0.0
C195 C 0.45196 0.16892 0.46238 0.0
C196 C 0.46568 0.09999 0.48376 0.0
C197 C 0.47788 0.10179 0.56074 0.0
C198 C 0.46053 0.14538 0.49594 0.0
C199 C 0.48098 0.12567 0.60382 0.0
C200 C 0.45641 0.19278 0.50542 0.0
C201 C 0.43232 0.18862 0.35286 0.0
N202 N 0.47241 0.14657 0.57075 0.0
N203 N 0.43997 0.16763 0.38773 0.0
H204 H 0.3375 0.50633 0.27399 0.0
H205 H 0.4092 0.49989 0.70484 0.0
H206 H 0.30133 0.4714 0.49363 0.0
H207 H 0.44667 0.53231 0.48158 0.0
H208 H 0.36785 0.49415 0.6344 0.0
H209 H 0.37607 0.52034 0.3541 0.0
C210 C 0.33776 0.50181 0.3395 0.0
C211 C 0.31662 0.48769 0.37783 0.0
C212 C 0.38505 0.50273 0.60104 0.0
C213 C 0.3603 0.50343 0.4695 0.0
C214 C 0.40871 0.50607 0.64127 0.0
C215 C 0.4316 0.51629 0.59867 0.0
C216 C 0.38422 0.50956 0.51742 0.0
C217 C 0.42961 0.52418 0.51673 0.0
C218 C 0.35967 0.50978 0.38515 0.0
C219 C 0.31751 0.48222 0.46238 0.0
N220 N 0.40639 0.52039 0.47843 0.0
N221 N 0.33916 0.49 0.50553 0.0
H222 H 0.0128 0.30603 0.4493 0.0
H223 H 0.06167 0.43737 0.68648 0.0
H224 H 0.09327 0.3252 0.51058 0.0
H225 H 0.98174 0.41972 0.61421 0.0
H226 H 0.07243 0.39437 0.6381 0.0
H227 H 0.99979 0.34544 0.52547 0.0
C228 C 0.02759 0.31845 0.48016 0.0
C229 C 0.05402 0.31266 0.47438 0.0
C230 C 0.05248 0.39982 0.63347 0.0
C231 C 0.03962 0.35766 0.55997 0.0
C232 C 0.04629 0.42439 0.66125 0.0
C233 C 0.02078 0.43225 0.6539 0.0
C234 C 0.03306 0.38297 0.59788 0.0
C235 C 0.0017 0.41456 0.62066 0.0
C236 C 0.02025 0.34093 0.52324 0.0
C237 C 0.07265 0.32919 0.51431 0.0
N238 N 0.00828 0.39082 0.59337 0.0
N239 N 0.06512 0.35111 0.55508 0.0
H240 H 0.78933 0.96944 0.89883 0.0
H241 H 0.93602 0.03501 0.91038 0.0
H242 H 0.81772 0.01668 0.10895 0.0
H243 H 0.90812 0.98571 0.70318 0.0
H244 H 0.89188 0.0313 0.97946 0.0
H245 H 0.83187 0.9778 0.82111 0.0
C246 C 0.80456 0.98174 0.92801 0.0
C247 C 0.80037 0.99245 0.00973 0.0
C248 C 0.8954 0.0214 0.91866 0.0
C249 C 0.8488 0.00198 0.92259 0.0
C250 C 0.92062 0.02355 0.87909 0.0
C251 C 0.9259 0.01049 0.80112 0.0
C252 C 0.87532 0.00611 0.87999 0.0
C253 C 0.90508 0.99598 0.76356 0.0
C254 C 0.82878 0.98649 0.88399 0.0
C255 C 0.82045 0.00816 0.04566 0.0
N256 N 0.88078 0.99409 0.80352 0.0
N257 N 0.84392 0.01241 0.00195 0.0
H258 H 0.55776 0.79168 0.91262 0.0
H259 H 0.54615 0.94283 0.9607 0.0
H260 H 0.58464 0.8392 0.12426 0.0
H261 H 0.51889 0.89612 0.74735 0.0
H262 H 0.56076 0.90496 0.0207 0.0
H263 H 0.54364 0.82957 0.84943 0.0
C264 C 0.56067 0.81017 0.94544 0.0
C265 C 0.57228 0.81263 0.02323 0.0
C266 C 0.55158 0.90293 0.96076 0.0
C267 C 0.55634 0.85573 0.9524 0.0
C268 C 0.54324 0.92454 0.9266 0.0
C269 C 0.53126 0.92249 0.84926 0.0
C270 C 0.5479 0.87909 0.91719 0.0
C271 C 0.52802 0.89843 0.80733 0.0
C272 C 0.55265 0.83173 0.90963 0.0
C273 C 0.57572 0.83675 0.06391 0.0
N274 N 0.53627 0.87762 0.8419 0.0
N275 N 0.56776 0.85742 0.02804 0.0
H276 H 0.71002 0.54629 0.93348 0.0
H277 H 0.56743 0.47547 0.8787 0.0
H278 H 0.67454 0.49082 0.10074 0.0
H279 H 0.60228 0.53229 0.71404 0.0
H280 H 0.60864 0.47699 0.95054 0.0
H281 H 0.67274 0.5379 0.8423 0.0
C282 C 0.6944 0.53218 0.95021 0.0
C283 C 0.69496 0.51923 0.02406 0.0
C284 C 0.60734 0.48895 0.89817 0.0
C285 C 0.65249 0.50964 0.92167 0.0
C286 C 0.58381 0.48805 0.85697 0.0
C287 C 0.58126 0.50401 0.79091 0.0
C288 C 0.62842 0.50597 0.87324 0.0
C289 C 0.60322 0.51984 0.76527 0.0
C290 C 0.67318 0.52738 0.89851 0.0
C291 C 0.67453 0.50115 0.04392 0.0
N292 N 0.62578 0.52058 0.80698 0.0
N293 N 0.65395 0.49697 -0.00678 0.0
H294 H 0.91605 0.69669 0.84829 0.0
H295 H 0.02968 0.59888 0.80295 0.0
H296 H 0.99183 0.71122 0.95463 0.0
H297 H 0.95456 0.58441 0.69056 0.0
H298 H 0.01791 0.64194 0.84553 0.0
H299 H 0.9314 0.65748 0.77643 0.0
C300 C 0.93608 0.69172 0.85516 0.0
C301 C 0.95283 0.7069 0.90683 0.0
C302 C 0.00408 0.62945 0.81087 0.0
C303 C 0.97038 0.66225 0.82668 0.0
C304 C 0.01079 0.6048 0.7865 0.0
C305 C 0.99299 0.58786 0.74371 0.0
C306 C 0.97929 0.63725 0.79298 0.0
C307 C 0.96888 0.59675 0.72366 0.0
C308 C 0.94482 0.66938 0.81454 0.0
C309 C 0.97846 0.69983 0.91486 0.0
N310 N 0.96263 0.62075 0.74922 0.0
N311 N 0.98644 0.67786 0.87568 0.0
H312 H 0.9916 0.19583 0.45964 0.0
H313 H 0.03614 0.07541 0.6714 0.0
H314 H 0.06674 0.19194 0.56689 0.0
H315 H 0.96211 0.07788 0.55468 0.0
H316 H 0.04275 0.12151 0.66672 0.0
H317 H 0.97516 0.1577 0.53132 0.0
C318 C 0.00415 0.18769 0.50218 0.0
C319 C 0.03051 0.19691 0.50768 0.0
C320 C 0.02485 0.1121 0.64317 0.0
C321 C 0.01244 0.15266 0.58604 0.0
C322 C 0.02105 0.08574 0.6459 0.0
C323 C 0.99858 0.07285 0.61303 0.0
C324 C 0.00628 0.12567 0.60578 0.0
C325 C 0.97983 0.08713 0.57994 0.0
C326 C 0.99495 0.16565 0.54183 0.0
C327 C 0.04624 0.18542 0.56172 0.0
N328 N 0.98425 0.11277 0.57618 0.0
N329 N 0.03718 0.16348 0.59723 0.0
H330 H 0.33485 0.0751 0.54014 0.0
H331 H 0.41386 0.96378 0.7002 0.0
H332 H 0.31005 0.9958 0.50101 0.0
H333 H 0.44708 0.03826 0.64194 0.0
H334 H 0.36998 0.977 0.6725 0.0
H335 H 0.36856 0.06358 0.63159 0.0
C336 C 0.33554 0.05537 0.55476 0.0
C337 C 0.32006 0.0363 0.51195 0.0
C338 C 0.38692 0.99047 0.6663 0.0
C339 C 0.35898 0.02295 0.61357 0.0
C340 C 0.41192 0.98293 0.68138 0.0
C341 C 0.43424 0.99977 0.67026 0.0
C342 C 0.38426 0.01524 0.64194 0.0
C343 C 0.43065 0.02444 0.64761 0.0
C344 C 0.35511 0.04876 0.6055 0.0
C345 C 0.32179 0.01101 0.53246 0.0
N346 N 0.40616 0.03145 0.63397 0.0
N347 N 0.34154 0.00493 0.58 0.0
H348 H 0.4417 0.32901 0.52235 0.0
H349 H 0.5527 0.44117 0.55244 0.0
H350 H 0.52078 0.32413 0.41393 0.0
H351 H 0.47225 0.44613 0.64899 0.0
H352 H 0.54478 0.39486 0.53305 0.0
H353 H 0.45639 0.36691 0.60741 0.0
C354 C 0.46246 0.33517 0.5198 0.0
C355 C 0.48002 0.32374 0.46046 0.0
C356 C 0.529 0.40602 0.56011 0.0
C357 C 0.49675 0.36765 0.554 0.0
C358 C 0.53349 0.43243 0.57062 0.0
C359 C 0.51308 0.44739 0.60224 0.0
C360 C 0.50382 0.3946 0.58054 0.0
C361 C 0.48861 0.43522 0.62547 0.0
C362 C 0.47079 0.3571 0.56716 0.0
C363 C 0.50665 0.33262 0.45873 0.0
N364 N 0.48457 0.40959 0.61324 0.0
N365 N 0.51409 0.35451 0.5029 0.0
H366 H 0.19016 0.46313 0.43063 0.0
H367 H 0.05686 0.47286 0.49004 0.0
H368 H 0.19064 0.5444 0.41462 0.0
H369 H 0.07438 0.54548 0.62053 0.0
H370 H 0.10412 0.46854 0.46098 0.0
H371 H 0.147 0.46355 0.50732 0.0
C372 C 0.18163 0.48118 0.44627 0.0
C373 C 0.19376 0.50375 0.41587 0.0
C374 C 0.0977 0.48519 0.49748 0.0
C375 C 0.14418 0.50425 0.49992 0.0
C376 C 0.07075 0.48785 0.51268 0.0
C377 C 0.06191 0.50962 0.55711 0.0
C378 C 0.11586 0.50469 0.52574 0.0
C379 C 0.08059 0.52841 0.58601 0.0
C380 C 0.15681 0.48135 0.48841 0.0
C381 C 0.18176 0.52661 0.43683 0.0
N382 N 0.10676 0.52574 0.56849 0.0
N383 N 0.15739 0.52626 0.47663 0.0
H384 H 0.0144 0.82341 0.92219 0.0
H385 H 0.9715 0.94358 0.70659 0.0
H386 H 0.94006 0.82725 0.80975 0.0
H387 H 0.04544 0.94075 0.82353 0.0
H388 H 0.96464 0.89752 0.71128 0.0
H389 H 0.03148 0.86125 0.85003 0.0
C390 C 0.00218 0.83148 0.8785 0.0
C391 C 0.97585 0.82235 0.87161 0.0
C392 C 0.98257 0.90684 0.73487 0.0
C393 C 0.99462 0.86626 0.79263 0.0
C394 C 0.98652 0.93317 0.73213 0.0
C395 C 0.00904 0.94596 0.76504 0.0
C396 C 0.00102 0.89318 0.7725 0.0
C397 C 0.02769 0.93159 0.79822 0.0
C398 C 0.01174 0.85335 0.8385 0.0
C399 C 0.96054 0.83372 0.81604 0.0
N400 N 0.0231 0.90596 0.80214 0.0
N401 N 0.96993 0.85551 0.78025 0.0
H402 H 0.66854 0.94283 0.88031 0.0
H403 H 0.55759 0.00352 0.85545 0.0
H404 H 0.69856 0.02117 0.89865 0.0
H405 H 0.59611 0.04056 0.64324 0.0
H406 H 0.59915 0.98557 0.88225 0.0
H407 H 0.63383 0.9547 0.79295 0.0
C408 C 0.66883 0.96225 0.86139 0.0
C409 C 0.68611 0.98115 0.89744 0.0
C410 C 0.59832 0.99729 0.82891 0.0
C411 C 0.64643 0.99479 0.79977 0.0
C412 C 0.57464 0.00734 0.81343 0.0
C413 C 0.57324 0.0227 0.74551 0.0
C414 C 0.62097 0.00336 0.77769 0.0
C415 C 0.5964 0.02854 0.69591 0.0
C416 C 0.64882 0.96904 0.8128 0.0
C417 C 0.68548 0.00611 0.87213 0.0
N418 N 0.61958 0.01912 0.7137 0.0
N419 N 0.66533 0.01244 0.82662 0.0
H420 H 0.50691 0.69857 0.01223 0.0
H421 H 0.54148 0.57659 0.72854 0.0
H422 H 0.58037 0.69079 0.86806 0.0
H423 H 0.46675 0.58415 0.86671 0.0
H424 H 0.5518 0.62208 0.75211 0.0
H425 H 0.48733 0.66205 0.93044 0.0
C426 C 0.51846 0.68996 0.96013 0.0
C427 C 0.5452 0.69762 0.94637 0.0
C428 C 0.53294 0.61397 0.77632 0.0
C429 C 0.52353 0.65514 0.85573 0.0
C430 C 0.527 0.58794 0.76267 0.0
C431 C 0.50322 0.57659 0.79587 0.0
C432 C 0.51525 0.62878 0.82534 0.0
C433 C 0.4854 0.59217 0.84063 0.0
C434 C 0.50745 0.66883 0.9144 0.0
C435 C 0.55961 0.68551 0.87986 0.0
N436 N 0.49193 0.61745 0.85512 0.0
N437 N 0.54877 0.66446 0.83824 0.0
H438 H 0.82481 0.55074 0.0088 0.0
H439 H 0.93947 0.47278 0.77385 0.0
H440 H 0.81765 0.46958 0.95719 0.0
H441 H 0.95265 0.54367 0.91924 0.0
H442 H 0.8918 0.47512 0.80311 0.0
H443 H 0.86816 0.55234 0.93279 0.0
C444 C 0.83185 0.53345 0.97782 0.0
C445 C 0.81774 0.51001 0.98855 0.0
C446 C 0.90515 0.49021 0.82814 0.0
C447 C 0.86737 0.51153 0.90437 0.0
C448 C 0.93226 0.48883 0.81191 0.0
C449 C 0.94988 0.50788 0.8454 0.0
C450 C 0.89565 0.51093 0.87745 0.0
C451 C 0.93966 0.52841 0.89351 0.0
C452 C 0.85673 0.53429 0.93584 0.0
C453 C 0.82795 0.48801 0.94937 0.0
N454 N 0.91317 0.52939 0.90823 0.0
N455 N 0.85236 0.48923 0.90987 0.0
H456 H 0.04466 0.20994 0.13405 0.0
H457 H 0.06205 0.06311 0.00444 0.0
H458 H 0.08641 0.16049 0.27737 0.0
H459 H 0.01529 0.11098 0.87127 0.0
H460 H 0.07701 0.10032 0.09261 0.0
H461 H 0.04081 0.17614 0.02194 0.0
C462 C 0.05371 0.19223 0.14056 0.0
C463 C 0.06563 0.18778 0.21495 0.0
C464 C 0.06357 0.10273 0.04386 0.0
C465 C 0.06077 0.14897 0.08888 0.0
C466 C 0.05494 0.08148 -0.00603 0.0
C467 C 0.03715 0.08402 0.93169 0.0
C468 C 0.05428 0.12662 0.03121 0.0
C469 C 0.02876 0.10823 0.91963 0.0
C470 C 0.05126 0.17285 0.0772 0.0
C471 C 0.07683 0.16446 0.22103 0.0
N472 N 0.03728 0.12861 0.96934 0.0
N473 N 0.07381 0.14578 0.15936 0.0
H474 H 0.374 0.02249 0.29316 0.0
H475 H 0.43729 0.06241 0.84633 0.0
H476 H 0.33551 0.06921 0.13051 0.0
H477 H 0.47129 0.01122 0.00532 0.0
H478 H 0.40255 0.06945 0.95571 0.0
H479 H 0.41203 0.02236 0.19419 0.0
C480 C 0.37369 0.03306 0.23695 0.0
C481 C 0.35163 0.04616 0.22052 0.0
C482 C 0.41776 0.05688 0.9669 0.0
C483 C 0.39512 0.04551 0.10533 0.0
C484 C 0.43772 0.05292 0.90471 0.0
C485 C 0.45717 0.03601 0.91644 0.0
C486 C 0.41727 0.04387 0.04132 0.0
C487 C 0.45662 0.02426 -0.00677 0.0
C488 C 0.39541 0.03281 0.18008 0.0
C489 C 0.35209 0.05884 0.14541 0.0
N490 N 0.43688 0.02829 0.05249 0.0
N491 N 0.37354 0.05817 0.0903 0.0
H492 H 0.50445 0.33743 0.16527 0.0
H493 H 0.43845 0.42466 0.86041 0.0
H494 H 0.42004 0.33114 0.14644 0.0
H495 H 0.50352 0.45088 0.01189 0.0
H496 H 0.43363 0.38513 0.93632 0.0
H497 H 0.50748 0.37291 0.07269 0.0
C498 C 0.4866 0.34321 0.14012 0.0
C499 C 0.4619 0.33172 0.16467 0.0
C500 C 0.4488 0.39967 0.95294 0.0
C501 C 0.46528 0.37215 0.05906 0.0
C502 C 0.4515 0.42216 0.91022 0.0
C503 C 0.47129 0.44098 0.93071 0.0
C504 C 0.46654 0.39589 0.01441 0.0
C505 C 0.48788 0.43689 -0.00508 0.0
C506 C 0.48835 0.36351 0.08795 0.0
C507 C 0.43944 0.33959 0.12912 0.0
N508 N 0.48532 0.41462 0.03393 0.0
N509 N 0.4416 0.35962 0.07849 0.0
H510 H 0.20738 0.54601 0.12639 0.0
H511 H 0.08899 0.47325 0.92069 0.0
H512 H 0.20485 0.46464 0.07875 0.0
H513 H 0.1144 0.54833 0.84263 0.0
H514 H 0.13168 0.47021 0.98054 0.0
H515 H 0.17505 0.54854 0.01941 0.0
C516 C 0.2007 0.52883 0.09096 0.0
C517 C 0.20858 0.50509 0.111 0.0
C518 C 0.12806 0.48723 0.94941 0.0
C519 C 0.17115 0.50767 0.99205 0.0
C520 C 0.10364 0.48908 0.91627 0.0
C521 C 0.09824 0.51119 0.87797 0.0
C522 C 0.14691 0.5079 0.94594 0.0
C523 C 0.11789 0.53106 0.87255 0.0
C524 C 0.18222 0.53024 0.03041 0.0
C525 C 0.19925 0.48328 0.06453 0.0
N526 N 0.14133 0.52916 0.90767 0.0
N527 N 0.18044 0.485 0.00855 0.0
H528 H 0.9177 0.85825 0.10139 0.0
H529 H 0.99265 0.90765 0.51132 0.0
H530 H 0.96207 0.81039 0.2422 0.0
H531 H 0.94632 0.95467 0.37344 0.0
H532 H 0.9774 0.87051 0.42373 0.0
H533 H 0.92225 0.89193 0.21287 0.0
C534 C 0.92777 0.85466 0.15721 0.0
C535 C 0.93964 0.83168 0.16289 0.0
C536 C 0.97045 0.8889 0.41279 0.0
C537 C 0.94568 0.87026 0.28921 0.0
C538 C 0.97929 0.91012 0.46233 0.0
C539 C 0.97099 0.93423 0.44847 0.0
C540 C 0.95326 0.89187 0.34871 0.0
C541 C 0.95339 0.9364 0.38532 0.0
C542 C 0.93057 0.87392 0.22045 0.0
C543 C 0.95257 0.82786 0.23593 0.0
N544 N 0.94524 0.91549 0.33728 0.0
N545 N 0.95566 0.84717 0.29577 0.0
H546 H 0.67328 0.94887 0.27604 0.0
H547 H 0.53823 0.0141 0.40739 0.0
H548 H 0.64033 0.0055 0.13615 0.0
H549 H 0.57273 0.96285 0.56495 0.0
H550 H 0.5739 0.00771 0.30123 0.0
H551 H 0.63563 0.95136 0.37975 0.0
C552 C 0.65819 0.96183 0.2674 0.0
C553 C 0.65971 0.97676 0.19705 0.0
C554 C 0.57361 0.99771 0.3588 0.0
C555 C 0.61676 0.97955 0.31403 0.0
C556 C 0.55313 0.00128 0.41935 0.0
C557 C 0.55253 0.98912 0.49542 0.0
C558 C 0.59373 0.98196 0.37444 0.0
C559 C 0.57239 0.97265 0.50719 0.0
C560 C 0.63668 0.96314 0.32608 0.0
C561 C 0.63966 0.99324 0.18852 0.0
N562 N 0.59233 0.96969 0.44757 0.0
N563 N 0.61905 0.99413 0.24607 0.0
H564 H 0.56398 0.70952 0.31775 0.0
H565 H 0.57288 0.56154 0.38604 0.0
H566 H 0.60007 0.6571 0.13504 0.0
H567 H 0.52739 0.61213 0.54999 0.0
H568 H 0.59024 0.59793 0.30612 0.0
H569 H 0.55899 0.676 0.4186 0.0
C570 C 0.57157 0.69117 0.29989 0.0
C571 C 0.58215 0.68588 0.21797 0.0
C572 C 0.57658 0.60108 0.35989 0.0
C573 C 0.57595 0.64739 0.33154 0.0
C574 C 0.56661 0.58033 0.40512 0.0
C575 C 0.54841 0.58389 0.47353 0.0
C576 C 0.56829 0.62549 0.38368 0.0
C577 C 0.54111 0.60859 0.49664 0.0
C578 C 0.56845 0.67196 0.35697 0.0
C579 C 0.59149 0.66175 0.19749 0.0
N580 N 0.55096 0.62845 0.45149 0.0
N581 N 0.58783 0.64326 0.25349 0.0
H582 H 0.81562 0.45706 0.2384 0.0
H583 H 0.89325 0.52383 0.62193 0.0
H584 H 0.79697 0.52982 0.35653 0.0
H585 H 0.92464 0.46928 0.43648 0.0
H586 H 0.85071 0.51851 0.55522 0.0
H587 H 0.84725 0.45285 0.34563 0.0
C588 C 0.81767 0.47179 0.2885 0.0
C589 C 0.80417 0.49404 0.28792 0.0
C590 C 0.86686 0.50752 0.53002 0.0
C591 C 0.84041 0.48956 0.40943 0.0
C592 C 0.89106 0.51061 0.56761 0.0
C593 C 0.91243 0.4973 0.5333 0.0
C594 C 0.86411 0.4907 0.45884 0.0
C595 C 0.90869 0.48018 0.46378 0.0
C596 C 0.83577 0.46946 0.34924 0.0
C597 C 0.80717 0.51244 0.35464 0.0
N598 N 0.88499 0.47744 0.42855 0.0
N599 N 0.82546 0.51005 0.41202 0.0
loop_
_geom_bond_atom_site_label_1
_geom_bond_atom_site_label_2
_geom_bond_distance
_geom_bond_site_symmetry_2
_ccdc_geom_bond_type
H0 C3 0.929 . S
H1 C6 0.929 1_556 S
H2 C8 0.930 . S
C3 H0 0.929 . S
C3 C4 1.398 . S
C3 C5 1.396 . S
C4 C3 1.398 . S
C4 C8 1.407 . S
C5 C3 1.396 . S
C5 C6 1.394 . S
C6 H1 0.929 1_554 S
C6 C5 1.394 . S
C6 C7 1.382 . S
C7 C6 1.382 . S
C7 C8 1.392 . S
C7 N9 1.420 . S
C8 H2 0.930 . S
C8 C4 1.407 . S
C8 C7 1.392 . S
N9 C7 1.420 . S
N9 C10 1.244 . S
C10 N9 1.244 . S
H11 C14 0.929 . S
H12 C17 0.929 . S
H13 C19 0.930 . S
C14 H11 0.929 . S
C14 C15 1.398 . S
C14 C16 1.396 1_554 S
C15 C14 1.398 . S
C15 C19 1.407 . S
C16 C14 1.396 1_556 S
C16 C17 1.394 . S
C17 H12 0.929 . S
C17 C16 1.394 . S
C17 C18 1.382 1_556 S
C18 C17 1.382 1_554 S
C18 C19 1.392 . S
C18 N20 1.420 . S
C19 H13 0.930 . S
C19 C15 1.407 . S
C19 C18 1.392 . S
N20 C18 1.420 . S
N20 C21 1.244 1_554 S
C21 N20 1.244 1_556 S
H22 C25 0.929 . S
H23 C28 0.929 1_556 S
H24 C30 0.930 . S
C25 H22 0.929 . S
C25 C26 1.398 . S
C25 C27 1.396 . S
C26 C25 1.398 . S
C26 C30 1.407 . S
C27 C25 1.396 . S
C27 C28 1.394 . S
C28 H23 0.929 1_554 S
C28 C27 1.394 . S
C28 C29 1.382 . S
C29 C28 1.382 . S
C29 C30 1.392 . S
C29 N31 1.420 . S
C30 H24 0.930 . S
C30 C26 1.407 . S
C30 C29 1.392 . S
N31 C29 1.420 . S
N31 C32 1.244 . S
C32 N31 1.244 . S
H33 C36 0.929 . S
H34 C39 0.929 1_556 S
H35 C41 0.930 . S
C36 H33 0.929 . S
C36 C37 1.398 . S
C36 C38 1.396 . S
C37 C36 1.398 . S
C37 C41 1.407 . S
C38 C36 1.396 . S
C38 C39 1.394 . S
C39 H34 0.929 1_554 S
C39 C38 1.394 . S
C39 C40 1.382 . S
C40 C39 1.382 . S
C40 C41 1.392 . S
C40 N42 1.420 . S
C41 H35 0.930 . S
C41 C37 1.407 . S
C41 C40 1.392 . S
N42 C40 1.420 . S
N42 C43 1.244 . S
C43 N42 1.244 . S
H44 C47 0.929 . S
H45 C50 0.929 . S
H46 C52 0.930 . S
C47 H44 0.929 . S
C47 C48 1.398 . S
C47 C49 1.396 . S
C48 C47 1.398 . S
C48 C52 1.407 . S
C49 C47 1.396 . S
C49 C50 1.394 . S
C50 H45 0.929 . S
C50 C49 1.394 . S
C50 C51 1.382 . S
C51 C50 1.382 . S
C51 C52 1.392 . S
C51 N53 1.420 . S
C52 H46 0.930 . S
C52 C48 1.407 . S
C52 C51 1.392 . S
N53 C51 1.420 . S
N53 C54 1.244 . S
C54 N53 1.244 . S
H55 C58 0.929 . S
H56 C61 0.929 . S
H57 C63 0.930 . S
C58 H55 0.929 . S
C58 C59 1.398 . S
C58 C60 1.396 . S
C59 C58 1.398 . S
C59 C63 1.407 . S
C60 C58 1.396 . S
C60 C61 1.394 . S
C61 H56 0.929 . S
C61 C60 1.394 . S
C61 C62 1.382 . S
C62 C61 1.382 . S
C62 C63 1.392 . S
C62 N64 1.420 . S
C63 H57 0.930 . S
C63 C59 1.407 . S
C63 C62 1.392 . S
N64 C62 1.420 . S
N64 C65 1.244 . S
C65 N64 1.244 . S
H66 C69 0.929 . S
H67 C72 0.929 . S
H68 C74 0.930 . S
C69 H66 0.929 . S
C69 C70 1.398 . S
C69 C71 1.396 . S
C70 C69 1.398 . S
C70 C74 1.407 . S
C71 C69 1.396 . S
C71 C72 1.394 . S
C72 H67 0.929 . S
C72 C71 1.394 . S
C72 C73 1.382 . S
C73 C72 1.382 . S
C73 C74 1.392 . S
C73 N75 1.420 . S
C74 H68 0.930 . S
C74 C70 1.407 . S
C74 C73 1.392 . S
N75 C73 1.420 . S
N75 C76 1.244 . S
C76 N75 1.244 . S
H77 C80 0.929 . S
H78 C83 0.929 . S
H79 C85 0.930 . S
C80 H77 0.929 . S
C80 C81 1.398 . S
C80 C82 1.396 . S
C81 C80 1.398 . S
C81 C85 1.407 . S
C82 C80 1.396 . S
C82 C83 1.394 . S
C83 H78 0.929 . S
C83 C82 1.394 . S
C83 C84 1.382 . S
C84 C83 1.382 . S
C84 C85 1.392 . S
C84 N86 1.420 . S
C85 H79 0.930 . S
C85 C81 1.407 . S
C85 C84 1.392 . S
N86 C84 1.420 . S
N86 C87 1.244 . S
C87 N86 1.244 . S
Tb88 O91 2.413 1_565 S
Tb88 O92 2.568 1_665 S
Tb88 O93 2.374 1_665 S
Tb88 O101 2.363 1_655 S
Tb88 O103 2.347 1_565 S
Tb88 O105 2.459 . S
Tb88 O106 2.549 1_655 S
C89 O93 1.251 . S
C89 O95 1.263 . S
Tb90 O92 2.343 . S
Tb90 O95 2.353 . S
Tb90 O98 2.427 . S
Tb90 O99 2.523 . S
Tb90 O100 2.453 1_545 S
Tb90 O101 2.596 1_545 S
Tb90 O102 2.374 1_455 S
O91 Tb88 2.413 1_545 S
O91 C107 1.245 1_655 S
O92 Tb88 2.568 1_445 S
O92 Tb90 2.343 . S
O92 C107 1.259 . S
O93 Tb88 2.374 1_445 S
O93 C89 1.251 . S
C94 O98 1.275 . S
C94 O99 1.273 . S
O95 C89 1.263 . S
O95 Tb90 2.353 . S
C96 O100 1.245 . S
C96 O101 1.259 . S
C97 O102 1.250 . S
C97 O103 1.263 . S
O98 Tb90 2.427 . S
O98 C94 1.275 . S
O99 Tb90 2.523 . S
O99 C94 1.273 . S
O100 Tb90 2.453 1_565 S
O100 C96 1.245 . S
O101 Tb88 2.363 1_455 S
O101 Tb90 2.596 1_565 S
O101 C96 1.259 . S
O102 Tb90 2.374 1_655 S
O102 C97 1.250 . S
O103 Tb88 2.347 1_545 S
O103 C97 1.263 . S
C104 O105 1.275 . S
C104 O106 1.246 1_655 S
O105 Tb88 2.459 . S
O105 C104 1.275 . S
O106 Tb88 2.549 1_455 S
O106 C104 1.246 1_455 S
C107 O91 1.245 1_455 S
C107 O92 1.259 . S
Tb108 O111 2.453 . S
Tb108 O112 2.596 1_545 S
Tb108 O113 2.374 . S
Tb108 O121 2.343 . S
Tb108 O123 2.353 . S
Tb108 O125 2.427 . S
Tb108 O126 2.513 . S
C109 O113 1.251 1_565 S
C109 O115 1.262 . S
Tb110 O112 2.343 . S
Tb110 O115 2.353 . S
Tb110 O118 2.427 . S
Tb110 O119 2.513 . S
Tb110 O120 2.453 . S
Tb110 O121 2.596 1_565 S
Tb110 O122 2.374 . S
O111 Tb108 2.453 . S
O111 C127 1.245 . S
O112 Tb108 2.596 1_565 S
O112 Tb110 2.343 . S
O112 C127 1.259 1_565 S
O113 Tb108 2.374 . S
O113 C109 1.251 1_545 S
C114 O118 1.275 . S
C114 O119 1.246 . S
O115 C109 1.262 . S
O115 Tb110 2.353 . S
C116 O120 1.245 1_545 S
C116 O121 1.259 . S
C117 O122 1.250 1_545 S
C117 O123 1.263 . S
O118 Tb110 2.427 . S
O118 C114 1.275 . S
O119 Tb110 2.513 . S
O119 C114 1.246 . S
O120 Tb110 2.453 . S
O120 C116 1.245 1_565 S
O121 Tb108 2.343 . S
O121 Tb110 2.596 1_545 S
O121 C116 1.259 . S
O122 Tb110 2.374 . S
O122 C117 1.250 1_565 S
O123 Tb108 2.353 . S
O123 C117 1.263 . S
C124 O125 1.275 . S
C124 O126 1.246 . S
O125 Tb108 2.427 . S
O125 C124 1.275 . S
O126 Tb108 2.513 . S
O126 C124 1.246 . S
C127 O111 1.245 . S
C127 O112 1.259 1_545 S
Tb128 O131 2.453 . S
Tb128 O132 2.596 . S
Tb128 O133 2.374 . S
Tb128 O141 2.343 . S
Tb128 O143 2.353 . S
Tb128 O145 2.427 . S
Tb128 O146 2.513 . S
C129 O133 1.251 . S
C129 O135 1.263 . S
Tb130 O132 2.343 . S
Tb130 O135 2.353 . S
Tb130 O138 2.427 . S
Tb130 O139 2.513 . S
Tb130 O140 2.453 . S
Tb130 O141 2.596 . S
Tb130 O142 2.374 . S
O131 Tb128 2.453 . S
O131 C147 1.245 . S
O132 Tb128 2.596 . S
O132 Tb130 2.343 . S
O132 C147 1.259 . S
O133 Tb128 2.374 . S
O133 C129 1.251 . S
C134 O138 1.275 . S
C134 O139 1.246 . S
O135 C129 1.263 . S
O135 Tb130 2.353 . S
C136 O140 1.245 . S
C136 O141 1.259 . S
C137 O142 1.250 . S
C137 O143 1.263 . S
O138 Tb130 2.427 . S
O138 C134 1.275 . S
O139 Tb130 2.513 . S
O139 C134 1.246 . S
O140 Tb130 2.453 . S
O140 C136 1.245 . S
O141 Tb128 2.343 . S
O141 Tb130 2.596 . S
O141 C136 1.259 . S
O142 Tb130 2.374 . S
O142 C137 1.250 . S
O143 Tb128 2.353 . S
O143 C137 1.263 . S
C144 O145 1.275 . S
C144 O146 1.246 . S
O145 Tb128 2.427 . S
O145 C144 1.275 . S
O146 Tb128 2.513 . S
O146 C144 1.246 . S
C147 O131 1.245 . S
C147 O132 1.259 . S
Tb148 O151 2.453 1_655 S
Tb148 O152 2.596 1_655 S
Tb148 O153 2.374 1_655 S
Tb148 O161 2.343 . S
Tb148 O163 2.353 1_655 S
Tb148 O165 2.427 . S
Tb148 O166 2.513 . S
C149 O153 1.251 . S
C149 O155 1.263 . S
Tb150 O152 2.343 . S
Tb150 O155 2.353 . S
Tb150 O158 2.427 . S
Tb150 O159 2.513 . S
Tb150 O160 2.453 1_455 S
Tb150 O161 2.596 1_455 S
Tb150 O162 2.374 . S
O151 Tb148 2.453 1_455 S
O151 C167 1.245 . S
O152 Tb148 2.596 1_455 S
O152 Tb150 2.343 . S
O152 C167 1.259 . S
O153 Tb148 2.374 1_455 S
O153 C149 1.251 . S
C154 O158 1.275 . S
C154 O159 1.246 . S
O155 C149 1.263 . S
O155 Tb150 2.353 . S
C156 O160 1.245 . S
C156 O161 1.259 . S
C157 O162 1.250 . S
C157 O163 1.263 . S
O158 Tb150 2.427 . S
O158 C154 1.275 . S
O159 Tb150 2.513 . S
O159 C154 1.246 . S
O160 Tb150 2.453 1_655 S
O160 C156 1.245 . S
O161 Tb148 2.343 . S
O161 Tb150 2.596 1_655 S
O161 C156 1.259 . S
O162 Tb150 2.374 . S
O162 C157 1.250 . S
O163 Tb148 2.353 1_455 S
O163 C157 1.263 . S
C164 O165 1.275 . S
C164 O166 1.246 . S
O165 Tb148 2.427 . S
O165 C164 1.275 . S
O166 Tb148 2.513 . S
O166 C164 1.246 . S
C167 O151 1.245 . S
C167 O152 1.259 . S
H168 C174 0.930 . S
H169 C178 0.930 . S
H170 C183 0.929 . S
H171 C181 0.929 . S
H172 C176 0.929 . S
H173 C182 0.891 1_565 S
C174 H168 0.930 . S
C174 C175 1.367 . S
C174 C182 1.378 . S
C175 C174 1.367 . S
C175 C183 1.433 . S
C176 H172 0.929 . S
C176 C178 1.378 . S
C176 C180 1.350 . S
C177 C180 1.463 . S
C177 C182 1.350 . S
C177 N185 1.427 . S
C178 H169 0.930 . S
C178 C176 1.378 . S
C178 C179 1.367 . S
C179 C178 1.367 . S
C179 C181 1.433 1_545 S
C180 C176 1.350 . S
C180 C177 1.463 . S
C180 N184 1.427 . S
C181 H171 0.929 . S
C181 C179 1.433 1_565 S
C181 N184 1.384 1_565 S
C182 H173 0.891 1_545 S
C182 C174 1.378 . S
C182 C177 1.350 . S
C183 H170 0.929 . S
C183 C175 1.433 . S
C183 N185 1.384 . S
N184 C180 1.427 . S
N184 C181 1.384 1_545 S
N185 C177 1.427 . S
N185 C183 1.384 . S
H186 C192 0.930 . S
H187 C196 0.930 . S
H188 C201 0.929 . S
H189 C199 0.929 . S
H190 C194 0.929 . S
H191 C200 0.929 . S
C192 H186 0.930 . S
C192 C193 1.367 . S
C192 C200 1.378 . S
C193 C192 1.367 . S
C193 C201 1.433 . S
C194 H190 0.929 . S
C194 C196 1.378 . S
C194 C198 1.350 . S
C195 C198 1.463 . S
C195 C200 1.350 . S
C195 N203 1.427 . S
C196 H187 0.930 . S
C196 C194 1.378 . S
C196 C197 1.367 . S
C197 C196 1.367 . S
C197 C199 1.433 . S
C198 C194 1.350 . S
C198 C195 1.463 . S
C198 N202 1.427 . S
C199 H189 0.929 . S
C199 C197 1.433 . S
C199 N202 1.384 . S
C200 H191 0.929 . S
C200 C192 1.378 . S
C200 C195 1.350 . S
C201 H188 0.929 . S
C201 C193 1.433 . S
C201 N203 1.384 . S
N202 C198 1.427 . S
N202 C199 1.384 . S
N203 C195 1.427 . S
N203 C201 1.384 . S
H204 C210 0.930 . S
H205 C214 0.930 . S
H206 C219 0.929 . S
H207 C217 0.929 . S
H208 C212 0.929 . S
H209 C218 0.929 . S
C210 H204 0.930 . S
C210 C211 1.367 . S
C210 C218 1.378 . S
C211 C210 1.367 . S
C211 C219 1.433 . S
C212 H208 0.929 . S
C212 C214 1.378 . S
C212 C216 1.350 . S
C213 C216 1.463 . S
C213 C218 1.350 . S
C213 N221 1.427 . S
C214 H205 0.930 . S
C214 C212 1.378 . S
C214 C215 1.367 . S
C215 C214 1.367 . S
C215 C217 1.433 . S
C216 C212 1.350 . S
C216 C213 1.463 . S
C216 N220 1.427 . S
C217 H207 0.929 . S
C217 C215 1.433 . S
C217 N220 1.384 . S
C218 H209 0.929 . S
C218 C210 1.378 . S
C218 C213 1.350 . S
C219 H206 0.929 . S
C219 C211 1.433 . S
C219 N221 1.384 . S
N220 C216 1.427 . S
N220 C217 1.384 . S
N221 C213 1.427 . S
N221 C219 1.384 . S
H222 C228 0.930 . S
H223 C232 0.930 . S
H224 C237 0.929 . S
H225 C235 0.929 . S
H226 C230 0.929 . S
H227 C236 0.929 . S
C228 H222 0.930 . S
C228 C229 1.367 . S
C228 C236 1.378 . S
C229 C228 1.367 . S
C229 C237 1.433 . S
C230 H226 0.929 . S
C230 C232 1.378 . S
C230 C234 1.350 . S
C231 C234 1.463 . S
C231 C236 1.350 . S
C231 N239 1.427 . S
C232 H223 0.930 . S
C232 C230 1.378 . S
C232 C233 1.367 . S
C233 C232 1.367 . S
C233 C235 1.433 1_455 S
C234 C230 1.350 . S
C234 C231 1.463 . S
C234 N238 1.427 . S
C235 H225 0.929 . S
C235 C233 1.433 1_655 S
C235 N238 1.384 1_655 S
C236 H227 0.929 . S
C236 C228 1.378 . S
C236 C231 1.350 . S
C237 H224 0.929 . S
C237 C229 1.433 . S
C237 N239 1.384 . S
N238 C234 1.427 . S
N238 C235 1.384 1_455 S
N239 C231 1.427 . S
N239 C237 1.384 . S
H240 C246 0.930 . S
H241 C250 0.930 . S
H242 C255 0.929 . S
H243 C253 0.929 . S
H244 C248 0.929 . S
H245 C254 0.929 . S
C246 H240 0.930 . S
C246 C247 1.367 . S
C246 C254 1.378 . S
C247 C246 1.367 . S
C247 C255 1.433 1_556 S
C248 H244 0.929 . S
C248 C250 1.378 . S
C248 C252 1.350 . S
C249 C252 1.463 . S
C249 C254 1.350 . S
C249 N257 1.427 . S
C250 H241 0.930 . S
C250 C248 1.378 . S
C250 C251 1.367 . S
C251 C250 1.367 . S
C251 C253 1.433 1_565 S
C252 C248 1.350 . S
C252 C249 1.463 . S
C252 N256 1.435 . S
C253 H243 0.929 . S
C253 C251 1.433 1_545 S
C253 N256 1.381 1_545 S
C254 H245 0.929 . S
C254 C246 1.378 . S
C254 C249 1.350 . S
C255 H242 0.929 . S
C255 C247 1.433 1_554 S
C255 N257 1.384 1_554 S
N256 C252 1.435 . S
N256 C253 1.381 1_565 S
N257 C249 1.427 . S
N257 C255 1.384 1_556 S
H258 C264 0.930 . S
H259 C268 0.930 . S
H260 C273 0.929 . S
H261 C271 0.929 . S
H262 C266 0.929 1_554 S
H263 C272 0.929 . S
C264 H258 0.930 . S
C264 C265 1.367 1_556 S
C264 C272 1.378 . S
C265 C264 1.367 1_554 S
C265 C273 1.433 . S
C266 H262 0.929 1_556 S
C266 C268 1.378 . S
C266 C270 1.350 . S
C267 C270 1.463 . S
C267 C272 1.350 . S
C267 N275 1.427 1_556 S
C268 H259 0.930 . S
C268 C266 1.378 . S
C268 C269 1.367 . S
C269 C268 1.367 . S
C269 C271 1.433 . S
C270 C266 1.350 . S
C270 C267 1.463 . S
C270 N274 1.427 . S
C271 H261 0.929 . S
C271 C269 1.433 . S
C271 N274 1.384 . S
C272 H263 0.929 . S
C272 C264 1.378 . S
C272 C267 1.350 . S
C273 H260 0.929 . S
C273 C265 1.433 . S
C273 N275 1.384 . S
N274 C270 1.427 . S
N274 C271 1.384 . S
N275 C267 1.427 1_554 S
N275 C273 1.384 . S
H276 C282 0.930 . S
H277 C286 0.930 . S
H278 C291 0.929 . S
H279 C289 0.929 . S
H280 C284 0.929 . S
H281 C290 0.929 . S
C282 H276 0.930 . S
C282 C283 1.367 . S
C282 C290 1.378 . S
C283 C282 1.367 . S
C283 C291 1.433 1_556 S
C284 H280 0.929 . S
C284 C286 1.378 . S
C284 C288 1.350 . S
C285 C288 1.463 . S
C285 C290 1.350 . S
C285 N293 1.427 . S
C286 H277 0.930 . S
C286 C284 1.378 . S
C286 C287 1.367 . S
C287 C286 1.367 . S
C287 C289 1.433 . S
C288 C284 1.350 . S
C288 C285 1.463 . S
C288 N292 1.427 . S
C289 H279 0.929 . S
C289 C287 1.433 . S
C289 N292 1.384 . S
C290 H281 0.929 . S
C290 C282 1.378 . S
C290 C285 1.350 . S
C291 H278 0.929 . S
C291 C283 1.433 1_554 S
C291 N293 1.384 1_554 S
N292 C288 1.427 . S
N292 C289 1.384 . S
N293 C285 1.427 . S
N293 C291 1.384 1_556 S
H294 C300 0.930 . S
H295 C304 0.930 1_455 S
H296 C309 0.929 1_554 S
H297 C307 0.929 . S
H298 C302 0.929 . S
H299 C308 0.929 . S
C300 H294 0.930 . S
C300 C301 1.367 . S
C300 C308 1.378 . S
C301 C300 1.367 . S
C301 C309 1.433 . S
C302 H298 0.929 . S
C302 C304 1.378 . S
C302 C306 1.350 . S
C303 C306 1.463 . S
C303 C308 1.350 . S
C303 N311 1.427 . S
C304 H295 0.930 1_655 S
C304 C302 1.378 . S
C304 C305 1.367 . S
C305 C304 1.367 . S
C305 C307 1.433 . S
C306 C302 1.350 . S
C306 C303 1.463 . S
C306 N310 1.427 . S
C307 H297 0.929 . S
C307 C305 1.433 . S
C307 N310 1.384 . S
C308 H299 0.929 . S
C308 C300 1.378 . S
C308 C303 1.350 . S
C309 H296 0.929 1_556 S
C309 C301 1.433 . S
C309 N311 1.384 . S
N310 C306 1.427 . S
N310 C307 1.384 . S
N311 C303 1.427 . S
N311 C309 1.384 . S
H312 C318 0.930 . S
H313 C322 0.930 . S
H314 C327 0.929 . S
H315 C325 0.929 . S
H316 C320 0.929 . S
H317 C326 0.929 . S
C318 H312 0.930 . S
C318 C319 1.367 . S
C318 C326 1.378 . S
C319 C318 1.367 . S
C319 C327 1.433 . S
C320 H316 0.929 . S
C320 C322 1.378 . S
C320 C324 1.350 . S
C321 C324 1.463 . S
C321 C326 1.350 . S
C321 N329 1.427 . S
C322 H313 0.930 . S
C322 C320 1.378 . S
C322 C323 1.367 . S
C323 C322 1.367 . S
C323 C325 1.433 . S
C324 C320 1.350 . S
C324 C321 1.463 . S
C324 N328 1.427 . S
C325 H315 0.929 . S
C325 C323 1.433 . S
C325 N328 1.384 . S
C326 H317 0.929 . S
C326 C318 1.378 . S
C326 C321 1.350 . S
C327 H314 0.929 . S
C327 C319 1.433 . S
C327 N329 1.384 . S
N328 C324 1.427 . S
N328 C325 1.384 . S
N329 C321 1.427 . S
N329 C327 1.384 . S
H330 C336 0.930 . S
H331 C340 0.930 . S
H332 C345 0.929 . S
H333 C343 0.929 . S
H334 C338 0.929 . S
H335 C344 0.929 . S
C336 H330 0.930 . S
C336 C337 1.367 . S
C336 C344 1.378 . S
C337 C336 1.367 . S
C337 C345 1.433 . S
C338 H334 0.929 . S
C338 C340 1.378 . S
C338 C342 1.350 . S
C339 C342 1.463 . S
C339 C344 1.350 . S
C339 N347 1.427 . S
C340 H331 0.930 . S
C340 C338 1.378 . S
C340 C341 1.367 . S
C341 C340 1.367 . S
C341 C343 1.433 . S
C342 C338 1.350 . S
C342 C339 1.463 . S
C342 N346 1.427 . S
C343 H333 0.929 . S
C343 C341 1.433 . S
C343 N346 1.384 . S
C344 H335 0.929 . S
C344 C336 1.378 . S
C344 C339 1.350 . S
C345 H332 0.929 . S
C345 C337 1.433 . S
C345 N347 1.384 . S
N346 C342 1.427 . S
N346 C343 1.384 . S
N347 C339 1.427 . S
N347 C345 1.384 . S
H348 C354 0.930 . S
H349 C358 0.930 . S
H350 C363 0.929 . S
H351 C361 0.929 . S
H352 C356 0.929 . S
H353 C362 0.929 . S
C354 H348 0.930 . S
C354 C355 1.367 . S
C354 C362 1.378 . S
C355 C354 1.367 . S
C355 C363 1.433 . S
C356 H352 0.929 . S
C356 C358 1.378 . S
C356 C360 1.350 . S
C357 C360 1.463 . S
C357 C362 1.350 . S
C357 N365 1.427 . S
C358 H349 0.930 . S
C358 C356 1.378 . S
C358 C359 1.367 . S
C359 C358 1.367 . S
C359 C361 1.433 . S
C360 C356 1.350 . S
C360 C357 1.463 . S
C360 N364 1.427 . S
C361 H351 0.929 . S
C361 C359 1.433 . S
C361 N364 1.384 . S
C362 H353 0.929 . S
C362 C354 1.378 . S
C362 C357 1.350 . S
C363 H350 0.929 . S
C363 C355 1.433 . S
C363 N365 1.384 . S
N364 C360 1.427 . S
N364 C361 1.384 . S
N365 C357 1.427 . S
N365 C363 1.384 . S
H366 C372 0.930 . S
H367 C376 0.930 . S
H368 C381 0.929 . S
H369 C379 0.929 . S
H370 C374 0.929 . S
H371 C380 0.929 . S
C372 H366 0.930 . S
C372 C373 1.367 . S
C372 C380 1.378 . S
C373 C372 1.367 . S
C373 C381 1.433 . S
C374 H370 0.929 . S
C374 C376 1.378 . S
C374 C378 1.350 . S
C375 C378 1.463 . S
C375 C380 1.350 . S
C375 N383 1.427 . S
C376 H367 0.930 . S
C376 C374 1.378 . S
C376 C377 1.367 . S
C377 C376 1.367 . S
C377 C379 1.433 . S
C378 C374 1.350 . S
C378 C375 1.463 . S
C378 N382 1.427 . S
C379 H369 0.929 . S
C379 C377 1.433 . S
C379 N382 1.384 . S
C380 H371 0.929 . S
C380 C372 1.378 . S
C380 C375 1.350 . S
C381 H368 0.929 . S
C381 C373 1.433 . S
C381 N383 1.384 . S
N382 C378 1.427 . S
N382 C379 1.384 . S
N383 C375 1.427 . S
N383 C381 1.384 . S
H384 C390 0.930 1_554 S
H385 C394 0.930 . S
H386 C399 0.929 . S
H387 C397 0.929 . S
H388 C392 0.929 . S
H389 C398 0.929 . S
C390 H384 0.930 1_556 S
C390 C391 1.367 . S
C390 C398 1.378 . S
C391 C390 1.367 . S
C391 C399 1.433 . S
C392 H388 0.929 . S
C392 C394 1.378 . S
C392 C396 1.350 . S
C393 C396 1.463 . S
C393 C398 1.350 . S
C393 N401 1.427 . S
C394 H385 0.930 . S
C394 C392 1.378 . S
C394 C395 1.367 . S
C395 C394 1.367 . S
C395 C397 1.433 1_655 S
C396 C392 1.350 . S
C396 C393 1.463 . S
C396 N400 1.427 . S
C397 H387 0.929 . S
C397 C395 1.433 1_455 S
C397 N400 1.384 1_455 S
C398 H389 0.929 . S
C398 C390 1.378 . S
C398 C393 1.350 . S
C399 H386 0.929 . S
C399 C391 1.433 . S
C399 N401 1.384 . S
N400 C396 1.427 . S
N400 C397 1.384 1_655 S
N401 C393 1.427 . S
N401 C399 1.384 . S
H402 C408 0.930 . S
H403 C412 0.930 . S
H404 C417 0.929 . S
H405 C415 0.929 . S
H406 C410 0.929 1_545 S
H407 C416 0.929 . S
C408 H402 0.930 . S
C408 C409 1.367 . S
C408 C416 1.378 . S
C409 C408 1.367 . S
C409 C417 1.433 1_556 S
C410 H406 0.929 1_565 S
C410 C412 1.378 1_565 S
C410 C414 1.350 . S
C411 C414 1.463 . S
C411 C416 1.350 . S
C411 N419 1.427 . S
C412 H403 0.930 . S
C412 C410 1.378 1_545 S
C412 C413 1.367 1_545 S
C413 C412 1.367 1_565 S
C413 C415 1.433 . S
C414 C410 1.350 . S
C414 C411 1.463 . S
C414 N418 1.427 . S
C415 H405 0.929 . S
C415 C413 1.433 . S
C415 N418 1.384 . S
C416 H407 0.929 . S
C416 C408 1.378 . S
C416 C411 1.350 . S
C417 H404 0.929 . S
C417 C409 1.433 1_554 S
C417 N419 1.384 1_554 S
N418 C414 1.427 . S
N418 C415 1.384 . S
N419 C411 1.427 . S
N419 C417 1.384 1_556 S
H420 C426 0.930 . S
H421 C430 0.930 . S
H422 C435 0.929 . S
H423 C433 0.929 . S
H424 C428 0.929 . S
H425 C434 0.929 1_554 S
C426 H420 0.930 . S
C426 C427 1.367 1_554 S
C426 C434 1.378 1_554 S
C427 C426 1.367 1_556 S
C427 C435 1.433 . S
C428 H424 0.929 . S
C428 C430 1.378 . S
C428 C432 1.350 . S
C429 C432 1.463 . S
C429 C434 1.350 . S
C429 N437 1.427 . S
C430 H421 0.930 . S
C430 C428 1.378 . S
C430 C431 1.367 . S
C431 C430 1.367 . S
C431 C433 1.433 . S
C432 C428 1.350 . S
C432 C429 1.463 . S
C432 N436 1.427 . S
C433 H423 0.929 . S
C433 C431 1.433 . S
C433 N436 1.384 . S
C434 H425 0.929 1_556 S
C434 C426 1.378 1_556 S
C434 C429 1.350 . S
C435 H422 0.929 . S
C435 C427 1.433 . S
C435 N437 1.384 . S
N436 C432 1.427 . S
N436 C433 1.384 . S
N437 C429 1.427 . S
N437 C435 1.384 . S
H438 C444 0.930 1_554 S
H439 C448 0.930 . S
H440 C453 0.929 . S
H441 C451 0.929 . S
H442 C446 0.929 . S
H443 C452 0.929 . S
C444 H438 0.930 1_556 S
C444 C445 1.367 . S
C444 C452 1.378 . S
C445 C444 1.367 . S
C445 C453 1.433 . S
C446 H442 0.929 . S
C446 C448 1.378 . S
C446 C450 1.350 . S
C447 C450 1.463 . S
C447 C452 1.350 . S
C447 N455 1.427 . S
C448 H439 0.930 . S
C448 C446 1.378 . S
C448 C449 1.367 . S
C449 C448 1.367 . S
C449 C451 1.433 . S
C450 C446 1.350 . S
C450 C447 1.463 . S
C450 N454 1.427 . S
C451 H441 0.929 . S
C451 C449 1.433 . S
C451 N454 1.384 . S
C452 H443 0.929 . S
C452 C444 1.378 . S
C452 C447 1.350 . S
C453 H440 0.929 . S
C453 C445 1.433 . S
C453 N455 1.384 . S
N454 C450 1.427 . S
N454 C451 1.384 . S
N455 C447 1.427 . S
N455 C453 1.384 . S
H456 C462 0.930 . S
H457 C466 0.930 1_554 S
H458 C471 0.929 . S
H459 C469 0.929 . S
H460 C464 0.929 . S
H461 C470 0.929 . S
C462 H456 0.930 . S
C462 C463 1.367 . S
C462 C470 1.378 . S
C463 C462 1.367 . S
C463 C471 1.433 . S
C464 H460 0.929 . S
C464 C466 1.378 1_554 S
C464 C468 1.350 . S
C465 C468 1.463 . S
C465 C470 1.350 . S
C465 N473 1.427 . S
C466 H457 0.930 1_556 S
C466 C464 1.378 1_556 S
C466 C467 1.367 . S
C467 C466 1.367 . S
C467 C469 1.433 . S
C468 C464 1.350 . S
C468 C465 1.463 . S
C468 N472 1.427 1_554 S
C469 H459 0.929 . S
C469 C467 1.433 . S
C469 N472 1.384 . S
C470 H461 0.929 . S
C470 C462 1.378 . S
C470 C465 1.350 . S
C471 H458 0.929 . S
C471 C463 1.433 . S
C471 N473 1.384 . S
N472 C468 1.427 1_556 S
N472 C469 1.384 . S
N473 C465 1.427 . S
N473 C471 1.384 . S
H474 C480 0.930 . S
H475 C484 0.930 . S
H476 C489 0.929 . S
H477 C487 0.929 1_554 S
H478 C482 0.929 . S
H479 C488 0.929 . S
C480 H474 0.930 . S
C480 C481 1.367 . S
C480 C488 1.378 . S
C481 C480 1.367 . S
C481 C489 1.433 . S
C482 H478 0.929 . S
C482 C484 1.378 . S
C482 C486 1.350 . S
C483 C486 1.463 1_554 S
C483 C488 1.350 . S
C483 N491 1.427 . S
C484 H475 0.930 . S
C484 C482 1.378 . S
C484 C485 1.367 . S
C485 C484 1.367 . S
C485 C487 1.433 . S
C486 C482 1.350 . S
C486 C483 1.463 1_556 S
C486 N490 1.427 1_556 S
C487 H477 0.929 1_556 S
C487 C485 1.433 . S
C487 N490 1.384 1_556 S
C488 H479 0.929 . S
C488 C480 1.378 . S
C488 C483 1.350 . S
C489 H476 0.929 . S
C489 C481 1.433 . S
C489 N491 1.384 . S
N490 C486 1.427 1_554 S
N490 C487 1.384 1_554 S
N491 C483 1.427 . S
N491 C489 1.384 . S
H492 C498 0.930 . S
H493 C502 0.930 . S
H494 C507 0.929 . S
H495 C505 0.929 1_554 S
H496 C500 0.929 . S
H497 C506 0.929 . S
C498 H492 0.930 . S
C498 C499 1.367 . S
C498 C506 1.378 . S
C499 C498 1.367 . S
C499 C507 1.433 . S
C500 H496 0.929 . S
C500 C502 1.378 . S
C500 C504 1.337 1_556 S
C501 C504 1.471 . S
C501 C506 1.350 . S
C501 N509 1.427 . S
C502 H493 0.930 . S
C502 C500 1.378 . S
C502 C503 1.367 . S
C503 C502 1.367 . S
C503 C505 1.433 . S
C504 C500 1.337 1_554 S
C504 C501 1.471 . S
C504 N508 1.433 . S
C505 H495 0.929 1_556 S
C505 C503 1.433 . S
C505 N508 1.384 1_556 S
C506 H497 0.929 . S
C506 C498 1.378 . S
C506 C501 1.350 . S
C507 H494 0.929 . S
C507 C499 1.433 . S
C507 N509 1.384 . S
N508 C504 1.433 . S
N508 C505 1.384 1_554 S
N509 C501 1.427 . S
N509 C507 1.384 . S
H510 C516 0.930 . S
H511 C520 0.930 . S
H512 C525 0.929 . S
H513 C523 0.929 . S
H514 C518 0.929 . S
H515 C524 0.929 . S
C516 H510 0.930 . S
C516 C517 1.367 . S
C516 C524 1.378 . S
C517 C516 1.367 . S
C517 C525 1.433 . S
C518 H514 0.929 . S
C518 C520 1.378 . S
C518 C522 1.350 1_556 S
C519 C522 1.463 . S
C519 C524 1.350 . S
C519 N527 1.427 . S
C520 H511 0.930 . S
C520 C518 1.378 . S
C520 C521 1.367 . S
C521 C520 1.367 . S
C521 C523 1.433 . S
C522 C518 1.350 1_554 S
C522 C519 1.463 . S
C522 N526 1.427 . S
C523 H513 0.929 . S
C523 C521 1.433 . S
C523 N526 1.384 1_556 S
C524 H515 0.929 . S
C524 C516 1.378 . S
C524 C519 1.350 . S
C525 H512 0.929 . S
C525 C517 1.433 . S
C525 N527 1.384 . S
N526 C522 1.427 . S
N526 C523 1.384 1_554 S
N527 C519 1.427 . S
N527 C525 1.384 . S
H528 C534 0.930 . S
H529 C538 0.930 1_455 S
H530 C543 0.929 . S
H531 C541 0.929 . S
H532 C536 0.906 1_455 S
H533 C542 0.929 . S
C534 H528 0.930 . S
C534 C535 1.367 . S
C534 C542 1.378 . S
C535 C534 1.367 . S
C535 C543 1.433 . S
C536 H532 0.906 1_655 S
C536 C538 1.378 . S
C536 C540 1.350 . S
C537 C540 1.463 . S
C537 C542 1.350 . S
C537 N545 1.427 . S
C538 H529 0.930 1_655 S
C538 C536 1.378 . S
C538 C539 1.367 . S
C539 C538 1.367 . S
C539 C541 1.433 . S
C540 C536 1.350 . S
C540 C537 1.463 . S
C540 N544 1.427 . S
C541 H531 0.929 . S
C541 C539 1.433 . S
C541 N544 1.384 . S
C542 H533 0.929 . S
C542 C534 1.378 . S
C542 C537 1.350 . S
C543 H530 0.929 . S
C543 C535 1.433 . S
C543 N545 1.384 . S
N544 C540 1.427 . S
N544 C541 1.384 . S
N545 C537 1.427 . S
N545 C543 1.384 . S
H546 C552 0.930 . S
H547 C556 0.930 . S
H548 C561 0.929 . S
H549 C559 0.929 . S
H550 C554 0.929 1_545 S
H551 C560 0.929 . S
C552 H546 0.930 . S
C552 C553 1.367 . S
C552 C560 1.378 . S
C553 C552 1.367 . S
C553 C561 1.433 . S
C554 H550 0.929 1_565 S
C554 C556 1.378 1_565 S
C554 C558 1.350 . S
C555 C558 1.463 . S
C555 C560 1.350 . S
C555 N563 1.427 . S
C556 H547 0.930 . S
C556 C554 1.378 1_545 S
C556 C557 1.367 1_545 S
C557 C556 1.367 1_565 S
C557 C559 1.433 . S
C558 C554 1.350 . S
C558 C555 1.463 . S
C558 N562 1.427 . S
C559 H549 0.929 . S
C559 C557 1.433 . S
C559 N562 1.384 . S
C560 H551 0.929 . S
C560 C552 1.378 . S
C560 C555 1.350 . S
C561 H548 0.929 . S
C561 C553 1.433 . S
C561 N563 1.384 . S
N562 C558 1.427 . S
N562 C559 1.384 . S
N563 C555 1.427 . S
N563 C561 1.384 . S
H564 C570 0.930 . S
H565 C574 0.930 . S
H566 C579 0.929 . S
H567 C577 0.929 . S
H568 C572 0.929 . S
H569 C578 0.929 . S
C570 H564 0.930 . S
C570 C571 1.367 . S
C570 C578 1.378 . S
C571 C570 1.367 . S
C571 C579 1.433 . S
C572 H568 0.929 . S
C572 C574 1.378 . S
C572 C576 1.350 . S
C573 C576 1.463 . S
C573 C578 1.350 . S
C573 N581 1.427 . S
C574 H565 0.930 . S
C574 C572 1.378 . S
C574 C575 1.367 . S
C575 C574 1.367 . S
C575 C577 1.433 . S
C576 C572 1.350 . S
C576 C573 1.463 . S
C576 N580 1.427 . S
C577 H567 0.929 . S
C577 C575 1.433 . S
C577 N580 1.384 . S
C578 H569 0.929 . S
C578 C570 1.378 . S
C578 C573 1.350 . S
C579 H566 0.929 . S
C579 C571 1.433 . S
C579 N581 1.384 . S
N580 C576 1.427 . S
N580 C577 1.384 . S
N581 C573 1.427 . S
N581 C579 1.384 . S
H582 C588 0.930 . S
H583 C592 0.930 . S
H584 C597 0.929 . S
H585 C595 0.929 . S
H586 C590 0.929 . S
H587 C596 0.929 . S
C588 H582 0.930 . S
C588 C589 1.367 . S
C588 C596 1.378 . S
C589 C588 1.367 . S
C589 C597 1.433 . S
C590 H586 0.929 . S
C590 C592 1.378 . S
C590 C594 1.350 . S
C591 C594 1.463 . S
C591 C596 1.350 . S
C591 N599 1.427 . S
C592 H583 0.930 . S
C592 C590 1.378 . S
C592 C593 1.367 . S
C593 C592 1.367 . S
C593 C595 1.433 . S
C594 C590 1.350 . S
C594 C591 1.463 . S
C594 N598 1.427 . S
C595 H585 0.929 . S
C595 C593 1.433 . S
C595 N598 1.384 . S
C596 H587 0.929 . S
C596 C588 1.378 . S
C596 C591 1.350 . S
C597 H584 0.929 . S
C597 C589 1.433 . S
C597 N599 1.384 . S
N598 C594 1.427 . S
N598 C595 1.384 . S
N599 C591 1.427 . S
N599 C597 1.384 . S
C175 C76 1.567 . S
C179 C89 1.601 . S
C197 C124 1.613 . S
C193 C87 1.562 . S
C215 C129 1.330 . S
C211 C54 1.315 . S
C233 C149 1.474 . S
C229 C65 1.443 . S
C251 C97 1.600 1_565 S
C247 C32 1.572 1_556 S
C265 C43 1.568 . S
C269 C114 1.613 . S
C283 C10 1.307 1_556 S
C287 C137 1.330 . S
C301 C21 1.453 . S
C305 C157 1.471 1_655 S
C323 C107 1.241 . S
C319 C60 1.236 . S
C341 C116 0.986 . S
C337 C71 0.990 . S
C359 C147 1.315 . S
C355 C82 1.311 . S
C373 C49 0.993 . S
C377 C167 0.970 . S
C391 C16 1.209 . S
C395 C96 1.257 1_655 S
C413 C127 0.985 1_565 S
C409 C27 0.987 1_556 S
C431 C136 1.330 . S
C427 C38 1.282 1_556 S
C445 C5 0.977 1_556 S
C449 C156 0.982 . S
C463 C59 1.475 . S
C467 C94 1.479 . S
C481 C70 1.449 . S
C485 C117 1.513 . S
C503 C134 1.592 . S
C499 C81 1.539 . S
C521 C154 1.586 . S
C517 C48 1.552 . S
C535 C15 1.460 . S
C539 C104 1.487 . S
C557 C109 1.510 . S
C553 C26 1.456 . S
C575 C144 1.585 . S
C571 C37 1.532 . S
C589 C4 1.547 . S
C593 C164 1.587 . S
