# Generated by pormake.
# Topology cml, (3,6)-cn, num edge types: 1
# Building blocks:
#     Node 0, Type 0, BuildingBlock: CUQRIR_clean_linker_1, # of connection points: 3
#     Node 1, Type 0, BuildingBlock: CUQRIR_clean_linker_1, # of connection points: 3
#     Node 2, Type 0, BuildingBlock: CUQRIR_clean_linker_1, # of connection points: 3
#     Node 3, Type 0, BuildingBlock: CUQRIR_clean_linker_1, # of connection points: 3
#     Node 4, Type 0, BuildingBlock: CUQRIR_clean_linker_1, # of connection points: 3
#     Node 5, Type 0, BuildingBlock: CUQRIR_clean_linker_1, # of connection points: 3
#     Node 6, Type 0, BuildingBlock: CUQRIR_clean_linker_1, # of connection points: 3
#     Node 7, Type 0, BuildingBlock: CUQRIR_clean_linker_1, # of connection points: 3
#     Node 8, Type 1, BuildingBlock: OJICUG_clean_sbu_0, # of connection points: 6
#     Node 9, Type 1, BuildingBlock: OJICUG_clean_sbu_0, # of connection points: 6
#     Node 10, Type 1, BuildingBlock: OJICUG_clean_sbu_0, # of connection points: 6
#     Node 11, Type 1, BuildingBlock: OJICUG_clean_sbu_0, # of connection points: 6
#     Edge 12, Type (0, 1), BuildingBlock: AJUNOK_clean_linker_0, # of connection points: 2
#     Edge 13, Type (0, 1), BuildingBlock: AJUNOK_clean_linker_0, # of connection points: 2
#     Edge 14, Type (0, 1), BuildingBlock: AJUNOK_clean_linker_0, # of connection points: 2
#     Edge 15, Type (0, 1), BuildingBlock: AJUNOK_clean_linker_0, # of connection points: 2
#     Edge 16, Type (0, 1), BuildingBlock: AJUNOK_clean_linker_0, # of connection points: 2
#     Edge 17, Type (0, 1), BuildingBlock: AJUNOK_clean_linker_0, # of connection points: 2
#     Edge 18, Type (0, 1), BuildingBlock: AJUNOK_clean_linker_0, # of connection points: 2
#     Edge 19, Type (0, 1), BuildingBlock: AJUNOK_clean_linker_0, # of connection points: 2
#     Edge 20, Type (0, 1), BuildingBlock: AJUNOK_clean_linker_0, # of connection points: 2
#     Edge 21, Type (0, 1), BuildingBlock: AJUNOK_clean_linker_0, # of connection points: 2
#     Edge 22, Type (0, 1), BuildingBlock: AJUNOK_clean_linker_0, # of connection points: 2
#     Edge 23, Type (0, 1), BuildingBlock: AJUNOK_clean_linker_0, # of connection points: 2
#     Edge 24, Type (0, 1), BuildingBlock: AJUNOK_clean_linker_0, # of connection points: 2
#     Edge 25, Type (0, 1), BuildingBlock: AJUNOK_clean_linker_0, # of connection points: 2
#     Edge 26, Type (0, 1), BuildingBlock: AJUNOK_clean_linker_0, # of connection points: 2
#     Edge 27, Type (0, 1), BuildingBlock: AJUNOK_clean_linker_0, # of connection points: 2
#     Edge 28, Type (0, 1), BuildingBlock: AJUNOK_clean_linker_0, # of connection points: 2
#     Edge 29, Type (0, 1), BuildingBlock: AJUNOK_clean_linker_0, # of connection points: 2
#     Edge 30, Type (0, 1), BuildingBlock: AJUNOK_clean_linker_0, # of connection points: 2
#     Edge 31, Type (0, 1), BuildingBlock: AJUNOK_clean_linker_0, # of connection points: 2
#     Edge 32, Type (0, 1), BuildingBlock: AJUNOK_clean_linker_0, # of connection points: 2
#     Edge 33, Type (0, 1), BuildingBlock: AJUNOK_clean_linker_0, # of connection points: 2
#     Edge 34, Type (0, 1), BuildingBlock: AJUNOK_clean_linker_0, # of connection points: 2
#     Edge 35, Type (0, 1), BuildingBlock: AJUNOK_clean_linker_0, # of connection points: 2
# Relax obj value: 0.002
# Max RMSD: 0.055
# Mean RMSD: 0.044
data_MOF--net-cml--node1-OJICUG_clean_sbu_0--node2-CUQRIR_clean_linker_1--edge1-AJUNOK_clean_linker_0
_symmetry_space_group_name_H-M    P1
_symmetry_Int_Tables_number       1
_symmetry_cell_setting            triclinic
loop_
_symmetry_equiv_pos_as_xyz
'x, y, z'
_cell_length_a     27.593144
_cell_length_b     26.795376
_cell_length_c     22.933609
_cell_angle_alpha  90.005913
_cell_angle_beta   89.993538
_cell_angle_gamma 89.857929
loop_
_atom_site_label
_atom_site_type_symbol
_atom_site_fract_x
_atom_site_fract_y
_atom_site_fract_z
_atom_type_partial_charge
C0 C 0.24454 0.33876 0.03792 0.0
N1 N 0.27982 0.37367 0.04085 0.0
N2 N 0.22005 0.34245 0.98687 0.0
C3 C 0.23595 0.29894 0.083 0.0
C4 C 0.24188 0.38089 0.95893 0.0
N5 N 0.27838 0.39959 0.99153 0.0
C6 C 0.22678 0.40151 0.90071 0.0
H7 H 0.2277 0.26282 0.06155 0.0
H8 H 0.20414 0.30967 0.10984 0.0
H9 H 0.26751 0.2942 0.1124 0.0
H10 H 0.23055 0.44274 0.90053 0.0
H11 H 0.1888 0.39135 0.89026 0.0
H12 H 0.25101 0.38641 0.86635 0.0
C13 C 0.74861 0.66287 0.54019 0.0
N14 N 0.7125 0.6289 0.54179 0.0
N15 N 0.77362 0.6592 0.48944 0.0
C16 C 0.75597 0.70272 0.58556 0.0
C17 C 0.75074 0.62225 0.46005 0.0
N18 N 0.71346 0.60403 0.49174 0.0
C19 C 0.76545 0.60309 0.40099 0.0
H20 H 0.77515 0.73552 0.56733 0.0
H21 H 0.77773 0.68701 0.62188 0.0
H22 H 0.72068 0.71507 0.60383 0.0
H23 H 0.80488 0.60831 0.39375 0.0
H24 H 0.74543 0.62409 0.36693 0.0
H25 H 0.75631 0.56296 0.39651 0.0
C26 C 0.75094 0.33995 0.04237 0.0
N27 N 0.71492 0.37426 0.04437 0.0
N28 N 0.77685 0.34476 0.99242 0.0
C29 C 0.75879 0.29992 0.0875 0.0
C30 C 0.75464 0.3828 0.96397 0.0
N31 N 0.71707 0.40075 0.99555 0.0
C32 C 0.76924 0.40224 0.90507 0.0
H33 H 0.78112 0.3154 0.12339 0.0
H34 H 0.77776 0.26709 0.06876 0.0
H35 H 0.72397 0.2875 0.10661 0.0
H36 H 0.74911 0.38161 0.87087 0.0
H37 H 0.80864 0.3968 0.89768 0.0
H38 H 0.76006 0.44244 0.90101 0.0
C39 C 0.24335 0.66521 0.54054 0.0
N40 N 0.27898 0.63049 0.54378 0.0
N41 N 0.21781 0.65982 0.4905 0.0
C42 C 0.23455 0.70574 0.58475 0.0
C43 C 0.23919 0.62045 0.46366 0.0
N44 N 0.2764 0.60269 0.49597 0.0
C45 C 0.22386 0.5988 0.40609 0.0
H46 H 0.20137 0.69672 0.60989 0.0
H47 H 0.2283 0.74189 0.56231 0.0
H48 H 0.26498 0.70961 0.6159 0.0
H49 H 0.2483 0.61267 0.37131 0.0
H50 H 0.18599 0.60932 0.39532 0.0
H51 H 0.22724 0.55752 0.40721 0.0
C52 C 0.73677 0.84849 0.04629 0.0
N53 N 0.77428 0.88086 0.04709 0.0
N54 N 0.71559 0.8476 0.99298 0.0
C55 C 0.72129 0.81766 0.09775 0.0
C56 C 0.74154 0.8809 0.96145 0.0
N57 N 0.77734 0.90092 0.99432 0.0
C58 C 0.73367 0.89114 0.8976 0.0
H59 H 0.74562 0.78483 0.10191 0.0
H60 H 0.68341 0.80454 0.09276 0.0
H61 H 0.72465 0.83985 0.13841 0.0
H62 H 0.69695 0.90705 0.89106 0.0
H63 H 0.73553 0.85555 0.87293 0.0
H64 H 0.76045 0.9178 0.87969 0.0
C65 C 0.24917 0.16285 0.54013 0.0
N66 N 0.21405 0.12781 0.54313 0.0
N67 N 0.27369 0.1591 0.48909 0.0
C68 C 0.25719 0.20304 0.58489 0.0
C69 C 0.25206 0.12048 0.4613 0.0
N70 N 0.21554 0.10185 0.49387 0.0
C71 C 0.26758 0.09938 0.40345 0.0
H72 H 0.26675 0.23877 0.56336 0.0
H73 H 0.28789 0.19193 0.61334 0.0
H74 H 0.22475 0.20869 0.61271 0.0
H75 H 0.30562 0.10948 0.39326 0.0
H76 H 0.24359 0.11412 0.36864 0.0
H77 H 0.26386 0.05814 0.40372 0.0
C78 C 0.2531 0.84313 0.04653 0.0
N79 N 0.21661 0.87687 0.04789 0.0
N80 N 0.27602 0.84419 0.99426 0.0
C81 C 0.26718 0.81055 0.09718 0.0
C82 C 0.25225 0.88017 0.96407 0.0
N83 N 0.21634 0.90016 0.99679 0.0
C84 C 0.26189 0.89314 0.9013 0.0
H85 H 0.26282 0.83142 0.13868 0.0
H86 H 0.30517 0.79734 0.09308 0.0
H87 H 0.24276 0.77778 0.09894 0.0
H88 H 0.27179 0.85918 0.87622 0.0
H89 H 0.29288 0.91938 0.89932 0.0
H90 H 0.23011 0.91133 0.88062 0.0
C91 C 0.73998 0.1614 0.54474 0.0
N92 N 0.77543 0.12645 0.54796 0.0
N93 N 0.7147 0.15653 0.49442 0.0
C94 C 0.73151 0.20211 0.58882 0.0
C95 C 0.73604 0.11722 0.46741 0.0
N96 N 0.77296 0.09903 0.49984 0.0
C97 C 0.72132 0.09646 0.40917 0.0
H98 H 0.69595 0.19613 0.6102 0.0
H99 H 0.73005 0.23881 0.56644 0.0
H100 H 0.75978 0.2029 0.62311 0.0
H101 H 0.74644 0.11045 0.37515 0.0
H102 H 0.68373 0.10756 0.39777 0.0
H103 H 0.72425 0.05514 0.40969 0.0
Sc104 Sc 0.99552 0.81586 0.30034 0.0
Sc105 Sc 0.9946 0.94724 0.30306 0.0
Sc106 Sc 0.99466 0.87917 0.43529 0.0
O107 O 0.99485 0.88077 0.34627 0.0
C108 C 0.92368 0.78931 0.40498 0.0
C109 C 0.92333 0.88244 0.22368 0.0
C110 C 0.9226 0.96995 0.40927 0.0
C111 C 0.06733 0.88287 0.22441 0.0
C112 C 0.06759 0.79038 0.40531 0.0
C113 C 0.06669 0.96962 0.40896 0.0
O114 O 0.93916 0.7832 0.35324 0.0
O115 O 0.93831 0.92415 0.2431 0.0
O116 O 0.93803 0.9347 0.44151 0.0
O117 O 0.05135 0.841 0.24186 0.0
O118 O 0.05071 0.82318 0.43985 0.0
O119 O 0.05056 0.97785 0.35788 0.0
O120 O 0.05171 0.78369 0.35389 0.0
O121 O 0.0505 0.92426 0.24263 0.0
O122 O 0.04999 0.93549 0.44173 0.0
O123 O 0.9403 0.84085 0.24094 0.0
O124 O 0.94007 0.82225 0.4395 0.0
O125 O 0.93934 0.9785 0.35859 0.0
Sc126 Sc 0.99611 0.187 0.79962 0.0
Sc127 Sc -0.0019 0.05544 0.80172 0.0
Sc128 Sc -0.00234 0.12307 0.93421 0.0
O129 O -0.00278 0.1218 0.84521 0.0
C130 C 0.06917 0.21269 0.90311 0.0
C131 C 0.06786 0.12092 0.72183 0.0
C132 C 0.0703 0.03316 0.90764 0.0
C133 C 0.9246 0.12031 0.7239 0.0
C134 C 0.92522 0.21239 0.90617 0.0
C135 C 0.927 0.0311 0.90761 0.0
O136 O 0.05386 0.21839 0.85124 0.0
O137 O 0.05475 0.0791 0.74272 0.0
O138 O 0.05512 0.06864 0.93961 0.0
O139 O 0.93935 0.16231 0.74245 0.0
O140 O 0.94111 0.17828 0.93959 0.0
O141 O 0.94239 0.02405 0.856 0.0
O142 O 0.94132 0.21982 0.85498 0.0
O143 O 0.94241 0.07893 0.74094 0.0
O144 O 0.94306 0.06546 0.94067 0.0
O145 O 0.04965 0.16229 0.73783 0.0
O146 O 0.05181 0.1808 0.93837 0.0
O147 O 0.05296 0.02354 0.85753 0.0
Sc148 Sc 0.49657 0.31388 0.29935 0.0
Sc149 Sc 0.4953 0.44531 0.30061 0.0
Sc150 Sc 0.49471 0.37861 0.43366 0.0
O151 O 0.49549 0.37927 0.34455 0.0
C152 C 0.42341 0.28905 0.40346 0.0
C153 C 0.42504 0.37955 0.22107 0.0
C154 C 0.42322 0.46962 0.40622 0.0
C155 C 0.56812 0.38023 0.22281 0.0
C156 C 0.56761 0.28922 0.40568 0.0
C157 C 0.56692 0.46885 0.4067 0.0
O158 O 0.43971 0.28215 0.35221 0.0
O159 O 0.43923 0.42147 0.24072 0.0
O160 O 0.43846 0.43467 0.43902 0.0
O161 O 0.55246 0.33834 0.24059 0.0
O162 O 0.55039 0.32229 0.43961 0.0
O163 O 0.55097 0.47653 0.35541 0.0
O164 O 0.55235 0.28223 0.35404 0.0
O165 O 0.5514 0.42174 0.24076 0.0
O166 O 0.55025 0.43485 0.43973 0.0
O167 O 0.44213 0.33807 0.23847 0.0
O168 O 0.43966 0.32209 0.43797 0.0
O169 O 0.43991 0.4773 0.35534 0.0
Sc170 Sc 0.49675 0.69018 0.80041 0.0
Sc171 Sc 0.49728 0.5582 0.80079 0.0
Sc172 Sc 0.498 0.62393 0.93377 0.0
O173 O 0.4974 0.62414 0.84494 0.0
C174 C 0.56953 0.71427 0.90467 0.0
C175 C 0.56807 0.6239 0.72226 0.0
C176 C 0.5694 0.53316 0.90621 0.0
C177 C 0.42507 0.6243 0.72322 0.0
C178 C 0.42545 0.71401 0.90636 0.0
C179 C 0.42539 0.53414 0.90633 0.0
O180 O 0.55283 0.72235 0.85386 0.0
O181 O 0.55375 0.58206 0.74185 0.0
O182 O 0.55442 0.56817 0.93907 0.0
O183 O 0.44066 0.66605 0.7416 0.0
O184 O 0.44125 0.67927 0.93902 0.0
O185 O 0.44109 0.52682 0.85485 0.0
O186 O 0.4421 0.72279 0.85575 0.0
O187 O 0.44176 0.58262 0.74073 0.0
O188 O 0.44247 0.56763 0.93973 0.0
O189 O 0.55097 0.66557 0.73916 0.0
O190 O 0.55378 0.6801 0.93808 0.0
O191 O 0.55233 0.52552 0.85551 0.0
C192 C 0.14033 0.3021 0.9979 0.0
C193 C 0.18276 0.30979 0.96529 0.0
C194 C 0.10388 0.27 0.97782 0.0
C195 C 0.10838 0.24537 0.92393 0.0
H196 H 0.13525 0.32136 0.03895 0.0
H197 H 0.07158 0.26514 1.00407 0.0
S198 S 0.21414 0.24972 0.82461 0.0
N199 N 0.22892 0.28709 0.87906 0.0
N200 N 0.15925 0.22888 0.83967 0.0
C201 C 0.15073 0.25247 0.89114 0.0
C202 C 0.18827 0.28417 0.91225 0.0
C203 C 0.80704 0.71574 0.41469 0.0
C204 C 0.81182 0.69098 0.46849 0.0
C205 C 0.84377 0.74707 0.39379 0.0
C206 C 0.88581 0.75558 0.42683 0.0
H207 H 0.77445 0.71119 0.38899 0.0
H208 H 0.83884 0.76556 0.35219 0.0
S209 S 0.91686 0.69737 0.56862 0.0
N210 N 0.86296 0.67455 0.55237 0.0
N211 N 0.93104 0.73553 0.5147 0.0
C212 C 0.89104 0.73099 0.48055 0.0
C213 C 0.85423 0.69818 0.50104 0.0
C214 C 0.8096 0.28836 0.91683 0.0
C215 C 0.81472 0.31257 0.97091 0.0
C216 C 0.84578 0.25624 0.89569 0.0
C217 C 0.88756 0.24631 0.92876 0.0
H218 H 0.77716 0.29394 0.8911 0.0
H219 H 0.84064 0.23832 0.85379 0.0
S220 S 0.9194 0.3026 0.07127 0.0
N221 N 0.86601 0.32696 0.05511 0.0
N222 N 0.93295 0.26449 0.01699 0.0
C223 C 0.89313 0.27033 0.98278 0.0
C224 C 0.85692 0.30397 1.0035 0.0
C225 C 0.13837 0.7012 0.50116 0.0
C226 C 0.1805 0.69234 0.46832 0.0
C227 C 0.10221 0.73371 0.48086 0.0
C228 C 0.10666 0.75753 0.4265 0.0
H229 H 0.13331 0.68259 0.54259 0.0
H230 H 0.07013 0.7395 0.50729 0.0
S231 S 0.21151 0.74952 0.32602 0.0
N232 N 0.22625 0.71277 0.3811 0.0
N233 N 0.15703 0.77167 0.34127 0.0
C234 C 0.14864 0.74909 0.39335 0.0
C235 C 0.18592 0.71701 0.41469 0.0
C236 C 0.63666 0.83215 0.94597 0.0
C237 C 0.67929 0.81368 0.97165 0.0
C238 C 0.60163 0.79963 0.92334 0.0
C239 C 0.60765 0.7476 0.92695 0.0
H240 H 0.63031 0.87198 0.94379 0.0
H241 H 0.56914 0.81526 0.90399 0.0
S242 S 0.71403 0.68062 0.98714 0.0
N243 N 0.72701 0.7403 0.996 0.0
N244 N 0.65979 0.67905 0.95667 0.0
C245 C 0.65002 0.72866 0.95264 0.0
C246 C 0.68621 0.76176 0.97425 0.0
C247 C 0.35287 0.20048 0.49973 0.0
C248 C 0.31061 0.19196 0.46713 0.0
C249 C 0.38908 0.23257 0.47909 0.0
C250 C 0.38451 0.25627 0.42466 0.0
H251 H 0.35798 0.1819 0.54119 0.0
H252 H 0.42126 0.23815 0.50534 0.0
S253 S 0.27907 0.24963 0.32514 0.0
N254 N 0.26442 0.21305 0.38035 0.0
N255 N 0.3338 0.27107 0.33988 0.0
C256 C 0.34233 0.24836 0.39187 0.0
C257 C 0.30499 0.21674 0.41356 0.0
C258 C 0.35607 0.83047 0.94909 0.0
C259 C 0.31316 0.81106 0.97291 0.0
C260 C 0.39211 0.79874 0.92687 0.0
C261 C 0.3867 0.7466 0.92886 0.0
H262 H 0.36172 0.87042 0.9479 0.0
H263 H 0.42478 0.81503 0.90893 0.0
S264 S 0.27941 0.67752 0.98211 0.0
N265 N 0.26559 0.73685 0.99271 0.0
N266 N 0.33452 0.67703 0.95396 0.0
C267 C 0.34391 0.72676 0.95225 0.0
C268 C 0.30679 0.75907 0.97354 0.0
C269 C 0.63556 0.1989 0.5031 0.0
C270 C 0.6784 0.18997 0.47167 0.0
C271 C 0.60016 0.23192 0.48193 0.0
C272 C 0.6061 0.25616 0.42802 0.0
H273 H 0.62927 0.17984 0.544 0.0
H274 H 0.56746 0.23768 0.50724 0.0
S275 S 0.71333 0.24823 0.33128 0.0
N276 N 0.72645 0.21087 0.3864 0.0
N277 N 0.65866 0.27068 0.34485 0.0
C278 C 0.64884 0.24773 0.39634 0.0
C279 C 0.68535 0.21516 0.41861 0.0
C280 C 0.3453 0.42016 0.92513 0.0
C281 C 0.31503 0.43364 0.9717 0.0
C282 C 0.38047 0.45312 0.90395 0.0
C283 C 0.38691 0.50068 0.929 0.0
H284 H 0.34166 0.38374 0.90515 0.0
H285 H 0.40319 0.44088 0.86815 0.0
S286 S 0.31445 0.55391 0.0507 0.0
N287 N 0.29164 0.49764 0.04069 0.0
N288 N 0.35863 0.55965 1.00255 0.0
C289 C 0.35653 0.51445 0.97581 0.0
C290 C 0.32038 0.48089 0.99678 0.0
C291 C 0.64924 0.58146 0.42243 0.0
C292 C 0.67699 0.56982 0.47182 0.0
C293 C 0.61414 0.54837 0.40149 0.0
C294 C 0.60529 0.50243 0.42949 0.0
H295 H 0.65467 0.61661 0.40011 0.0
H296 H 0.59345 0.55928 0.36342 0.0
S297 S 0.67042 0.45449 0.55993 0.0
N298 N 0.69511 0.50952 0.54732 0.0
N299 N 0.62855 0.44706 0.5092 0.0
C300 C 0.63312 0.49054 0.47923 0.0
C301 C 0.66907 0.52434 0.50015 0.0
C302 C 0.67533 0.48233 0.99482 0.0
C303 C 0.67947 0.43321 0.97433 0.0
C304 C 0.63956 0.51456 0.97268 0.0
C305 C 0.60726 0.49874 0.92875 0.0
H306 H 0.7003 0.49602 0.02744 0.0
H307 H 0.63767 0.5523 0.98949 0.0
S308 S 0.60302 0.37204 0.86305 0.0
N309 N 0.64827 0.36934 0.91005 0.0
N310 N 0.5814 0.42946 0.86735 0.0
C311 C 0.61127 0.44927 0.90835 0.0
C312 C 0.6473 0.41661 0.93143 0.0
C313 C 0.3165 0.52022 0.49363 0.0
C314 C 0.31398 0.57004 0.47516 0.0
C315 C 0.35214 0.48785 0.47141 0.0
C316 C 0.38568 0.50418 0.42914 0.0
H317 H 0.29039 0.50614 0.52469 0.0
H318 H 0.35289 0.4496 0.48667 0.0
S319 S 0.39407 0.63251 0.3687 0.0
N320 N 0.3479 0.63495 0.41443 0.0
N321 N 0.41439 0.57452 0.37138 0.0
C322 C 0.38323 0.55428 0.41069 0.0
C323 C 0.34746 0.58711 0.434 0.0
C324 C 0.81946 0.98186 0.99379 0.0
C325 C 0.81611 0.93233 0.97445 0.0
C326 C 0.8558 0.01361 0.9725 0.0
C327 C 0.88952 0.99683 0.93067 0.0
H328 H 0.79328 0.9962 0.02475 0.0
H329 H 0.85685 0.0518 0.98797 0.0
S330 S 0.89799 0.86824 0.87094 0.0
N331 N 0.85084 0.86658 0.91526 0.0
N332 N 0.91872 0.92596 0.87394 0.0
C333 C 0.88695 0.94673 0.91225 0.0
C334 C 0.85038 0.9145 0.93456 0.0
C335 C 0.14936 0.08163 0.42647 0.0
C336 C 0.17863 0.06822 0.47393 0.0
C337 C 0.11359 0.04932 0.40556 0.0
C338 C 0.10557 0.00248 0.43174 0.0
H339 H 0.15414 0.11756 0.40566 0.0
H340 H 0.09171 0.06153 0.36901 0.0
S341 S 0.17478 0.94987 0.55656 0.0
N342 N 0.19913 0.00532 0.54553 0.0
N343 N 0.13128 0.94426 0.50751 0.0
C344 C 0.13494 0.98881 0.47955 0.0
C345 C 0.1716 0.02179 0.50038 0.0
C346 C 0.13762 0.9153 0.94999 0.0
C347 C 0.17948 0.93393 0.97684 0.0
C348 C 0.10267 0.9478 0.92686 0.0
C349 C 0.10821 0.99989 0.93106 0.0
H350 H 0.13244 0.87538 0.94626 0.0
H351 H 0.07081 0.93213 0.90626 0.0
S352 S 0.21271 0.06656 0.99573 0.0
N353 N 0.22607 0.00682 1.00398 0.0
N354 N 0.15916 0.06837 0.96349 0.0
C355 C 0.1499 0.01879 0.9583 0.0
C356 C 0.18597 0.98563 0.98038 0.0
C357 C 0.8136 0.01694 0.49511 0.0
C358 C 0.81102 0.06723 0.47852 0.0
C359 C 0.85008 0.98561 0.47289 0.0
C360 C 0.8844 0.00351 0.43245 0.0
H361 H 0.78695 1.00173 0.52475 0.0
H362 H 0.85088 0.94694 0.48664 0.0
S363 S 0.89282 0.13351 0.37724 0.0
N364 N 0.84562 0.1342 0.4215 0.0
N365 N 0.91367 0.07567 0.37835 0.0
C366 C 0.88184 0.05405 0.41581 0.0
C367 C 0.84523 0.08582 0.43919 0.0
C368 C 0.31342 0.41036 0.13076 0.0
C369 C 0.31733 0.37667 0.08411 0.0
C370 C 0.34895 0.41196 0.1746 0.0
C371 C 0.38853 0.37871 0.17389 0.0
H372 H 0.28243 0.43506 0.13359 0.0
H373 H 0.34478 0.4384 0.20999 0.0
S374 S 0.41464 0.28399 0.05992 0.0
N375 N 0.36359 0.31057 0.03849 0.0
N376 N 0.42975 0.31189 0.12153 0.0
C377 C 0.39251 0.34483 0.12718 0.0
C378 C 0.35698 0.34417 0.08213 0.0
C379 C 0.68353 0.59921 0.63721 0.0
C380 C 0.67524 0.62562 0.58528 0.0
C381 C 0.64821 0.59778 0.68126 0.0
C382 C 0.60441 0.62422 0.67519 0.0
H383 H 0.71756 0.57975 0.64358 0.0
H384 H 0.65562 0.57697 0.72078 0.0
S385 S 0.56583 0.69821 0.54663 0.0
N386 N 0.62037 0.67736 0.52926 0.0
N387 N 0.5544 0.67651 0.61266 0.0
C388 C 0.59594 0.65073 0.62328 0.0
C389 C 0.63135 0.65104 0.5781 0.0
C390 C 0.64035 0.34212 0.08928 0.0
C391 C 0.67742 0.37778 0.0876 0.0
C392 C 0.60534 0.34304 0.13354 0.0
C393 C 0.6058 0.3803 0.17691 0.0
H394 H 0.63907 0.31299 0.05658 0.0
H395 H 0.57746 0.31465 0.13349 0.0
S396 S 0.69613 0.48186 0.19099 0.0
N397 N 0.71359 0.45042 0.13262 0.0
N398 N 0.64672 0.45377 0.21492 0.0
C399 C 0.64239 0.41672 0.17482 0.0
C400 C 0.67849 0.41507 0.1303 0.0
C401 C 0.35212 0.66401 0.59081 0.0
C402 C 0.31623 0.62717 0.58737 0.0
C403 C 0.38695 0.66297 0.63527 0.0
C404 C 0.38746 0.62452 0.67719 0.0
H405 H 0.35267 0.69407 0.55925 0.0
H406 H 0.41397 0.69222 0.63647 0.0
S407 S 0.30008 0.51983 0.68676 0.0
N408 N 0.28203 0.55225 0.62942 0.0
N409 N 0.3485 0.5488 0.7121 0.0
C410 C 0.35196 0.58703 0.67343 0.0
C411 C 0.31609 0.58871 0.62866 0.0
C412 C 0.81661 0.92218 0.12869 0.0
C413 C 0.81212 0.88188 0.09009 0.0
C414 C 0.8529 0.92242 0.17171 0.0
C415 C 0.88543 0.88202 0.17768 0.0
H416 H 0.79162 0.9533 0.12584 0.0
H417 H 0.85501 0.95406 0.20099 0.0
S418 S 0.88953 0.76927 0.08329 0.0
N419 N 0.84364 0.80229 0.05772 0.0
N420 N 0.91154 0.80171 0.13846 0.0
C421 C 0.8813 0.84184 0.13826 0.0
C422 C 0.84472 0.84205 0.09446 0.0
C423 C 0.18247 0.09409 0.63556 0.0
C424 C 0.17656 0.12464 0.58635 0.0
C425 C 0.14661 0.09205 0.67897 0.0
C426 C 0.10458 0.12172 0.67501 0.0
H427 H 0.2151 0.07197 0.64043 0.0
H428 H 0.15231 0.06816 0.71647 0.0
S429 S 0.07237 0.20672 0.55325 0.0
N430 N 0.12575 0.18358 0.53475 0.0
N431 N 0.05876 0.18138 0.61685 0.0
C432 C 0.0985 0.15229 0.62565 0.0
C433 C 0.13447 0.1534 0.58115 0.0
C434 C 0.14904 0.83876 0.10135 0.0
C435 C 0.17916 0.87994 0.09138 0.0
C436 C 0.11325 0.84009 0.1446 0.0
C437 C 0.10602 0.88291 0.17931 0.0
H438 H 0.15332 0.80531 0.07533 0.0
H439 H 0.0908 0.80736 0.1504 0.0
S440 S 0.17763 0.99993 0.17106 0.0
N441 N 0.20133 0.96372 0.12016 0.0
N442 N 0.13333 0.96736 0.20092 0.0
C443 C 0.13614 0.9245 0.16941 0.0
C444 C 0.17288 0.92275 0.12554 0.0
C445 C 0.84818 0.16106 0.59477 0.0
C446 C 0.81323 0.12332 0.59094 0.0
C447 C 0.88395 0.15976 0.63812 0.0
C448 C 0.88641 0.12017 0.67851 0.0
H449 H 0.84735 0.19195 0.56434 0.0
H450 H 0.91012 0.18981 0.63968 0.0
S451 S 0.80225 0.01262 0.68632 0.0
N452 N 0.7821 0.04615 0.63088 0.0
N453 N 0.85034 0.04232 0.71144 0.0
C454 C 0.85192 0.08175 0.67425 0.0
C455 C 0.81507 0.08365 0.63061 0.0
loop_
_geom_bond_atom_site_label_1
_geom_bond_atom_site_label_2
_geom_bond_distance
_geom_bond_site_symmetry_2
_ccdc_geom_bond_type
C0 N1 1.317 . S
C0 N2 1.348 1_554 S
C0 C3 1.485 . S
N1 C0 1.317 . S
N1 N5 1.370 1_554 S
N2 C0 1.348 1_556 S
N2 C4 1.346 . S
C3 C0 1.485 . S
C3 H7 0.960 . S
C3 H8 0.961 . S
C3 H9 0.960 . S
C4 N2 1.346 . S
C4 N5 1.307 . S
C4 C6 1.486 . S
N5 N1 1.370 1_556 S
N5 C4 1.307 . S
C6 C4 1.486 . S
C6 H10 0.960 . S
C6 H11 0.960 . S
C6 H12 0.959 . S
H7 C3 0.960 . S
H8 C3 0.961 . S
H9 C3 0.960 . S
H10 C6 0.960 . S
H11 C6 0.960 . S
H12 C6 0.959 . S
C13 N14 1.317 . S
C13 N15 1.348 . S
C13 C16 1.485 . S
N14 C13 1.317 . S
N14 N18 1.370 . S
N15 C13 1.348 . S
N15 C17 1.346 . S
C16 C13 1.485 . S
C16 H20 0.960 . S
C16 H21 0.961 . S
C16 H22 0.960 . S
C17 N15 1.346 . S
C17 N18 1.307 . S
C17 C19 1.486 . S
N18 N14 1.370 . S
N18 C17 1.307 . S
C19 C17 1.486 . S
C19 H23 0.960 . S
C19 H24 0.960 . S
C19 H25 0.959 . S
H20 C16 0.960 . S
H21 C16 0.961 . S
H22 C16 0.960 . S
H23 C19 0.960 . S
H24 C19 0.960 . S
H25 C19 0.959 . S
C26 N27 1.317 . S
C26 N28 1.348 1_554 S
C26 C29 1.485 . S
N27 C26 1.317 . S
N27 N31 1.370 1_554 S
N28 C26 1.348 1_556 S
N28 C30 1.346 . S
C29 C26 1.485 . S
C29 H33 0.960 . S
C29 H34 0.961 . S
C29 H35 0.960 . S
C30 N28 1.346 . S
C30 N31 1.307 . S
C30 C32 1.486 . S
N31 N27 1.370 1_556 S
N31 C30 1.307 . S
C32 C30 1.486 . S
C32 H36 0.960 . S
C32 H37 0.960 . S
C32 H38 0.959 . S
H33 C29 0.960 . S
H34 C29 0.961 . S
H35 C29 0.960 . S
H36 C32 0.960 . S
H37 C32 0.960 . S
H38 C32 0.959 . S
C39 N40 1.317 . S
C39 N41 1.348 . S
C39 C42 1.485 . S
N40 C39 1.317 . S
N40 N44 1.370 . S
N41 C39 1.348 . S
N41 C43 1.346 . S
C42 C39 1.485 . S
C42 H46 0.960 . S
C42 H47 0.961 . S
C42 H48 0.960 . S
C43 N41 1.346 . S
C43 N44 1.307 . S
C43 C45 1.486 . S
N44 N40 1.370 . S
N44 C43 1.307 . S
C45 C43 1.486 . S
C45 H49 0.960 . S
C45 H50 0.960 . S
C45 H51 0.959 . S
H46 C42 0.960 . S
H47 C42 0.961 . S
H48 C42 0.960 . S
H49 C45 0.960 . S
H50 C45 0.960 . S
H51 C45 0.959 . S
C52 N53 1.317 . S
C52 N54 1.348 1_554 S
C52 C55 1.485 . S
N53 C52 1.317 . S
N53 N57 1.370 1_554 S
N54 C52 1.348 1_556 S
N54 C56 1.346 . S
C55 C52 1.485 . S
C55 H59 0.960 . S
C55 H60 0.961 . S
C55 H61 0.960 . S
C56 N54 1.346 . S
C56 N57 1.307 . S
C56 C58 1.486 . S
N57 N53 1.370 1_556 S
N57 C56 1.307 . S
C58 C56 1.486 . S
C58 H62 0.960 . S
C58 H63 0.960 . S
C58 H64 0.959 . S
H59 C55 0.960 . S
H60 C55 0.961 . S
H61 C55 0.960 . S
H62 C58 0.960 . S
H63 C58 0.960 . S
H64 C58 0.959 . S
C65 N66 1.317 . S
C65 N67 1.348 . S
C65 C68 1.485 . S
N66 C65 1.317 . S
N66 N70 1.370 . S
N67 C65 1.348 . S
N67 C69 1.346 . S
C68 C65 1.485 . S
C68 H72 0.960 . S
C68 H73 0.961 . S
C68 H74 0.960 . S
C69 N67 1.346 . S
C69 N70 1.307 . S
C69 C71 1.486 . S
N70 N66 1.370 . S
N70 C69 1.307 . S
C71 C69 1.486 . S
C71 H75 0.960 . S
C71 H76 0.960 . S
C71 H77 0.959 . S
H72 C68 0.960 . S
H73 C68 0.961 . S
H74 C68 0.960 . S
H75 C71 0.960 . S
H76 C71 0.960 . S
H77 C71 0.959 . S
C78 N79 1.317 . S
C78 N80 1.348 1_554 S
C78 C81 1.485 . S
N79 C78 1.317 . S
N79 N83 1.370 1_554 S
N80 C78 1.348 1_556 S
N80 C82 1.346 . S
C81 C78 1.485 . S
C81 H85 0.960 . S
C81 H86 0.961 . S
C81 H87 0.960 . S
C82 N80 1.346 . S
C82 N83 1.307 . S
C82 C84 1.486 . S
N83 N79 1.370 1_556 S
N83 C82 1.307 . S
C84 C82 1.486 . S
C84 H88 0.960 . S
C84 H89 0.960 . S
C84 H90 0.959 . S
H85 C81 0.960 . S
H86 C81 0.961 . S
H87 C81 0.960 . S
H88 C84 0.960 . S
H89 C84 0.960 . S
H90 C84 0.959 . S
C91 N92 1.317 . S
C91 N93 1.348 . S
C91 C94 1.485 . S
N92 C91 1.317 . S
N92 N96 1.370 . S
N93 C91 1.348 . S
N93 C95 1.346 . S
C94 C91 1.485 . S
C94 H98 0.960 . S
C94 H99 0.961 . S
C94 H100 0.960 . S
C95 N93 1.346 . S
C95 N96 1.307 . S
C95 C97 1.486 . S
N96 N92 1.370 . S
N96 C95 1.307 . S
C97 C95 1.486 . S
C97 H101 0.960 . S
C97 H102 0.960 . S
C97 H103 0.959 . S
H98 C94 0.960 . S
H99 C94 0.961 . S
H100 C94 0.960 . S
H101 C97 0.960 . S
H102 C97 0.960 . S
H103 C97 0.959 . S
Sc104 O107 2.025 . S
Sc104 O114 2.103 1_455 S
Sc104 O117 2.106 . S
Sc104 O120 2.106 . S
Sc104 O123 2.103 1_455 S
Sc105 O107 2.025 . S
Sc105 O115 2.103 1_455 S
Sc105 O119 2.106 . S
Sc105 O121 2.106 . S
Sc105 O125 2.103 1_455 S
Sc106 O107 2.025 . S
Sc106 O116 2.103 1_455 S
Sc106 O118 2.106 . S
Sc106 O122 2.106 . S
Sc106 O124 2.103 1_455 S
O107 Sc104 2.025 . S
O107 Sc105 2.025 . S
O107 Sc106 2.025 . S
C108 O114 1.268 . S
C108 O124 1.268 . S
C109 O115 1.268 . S
C109 O123 1.268 . S
C110 O116 1.268 . S
C110 O125 1.268 . S
C111 O117 1.268 . S
C111 O121 1.268 . S
C112 O118 1.268 . S
C112 O120 1.268 . S
C113 O119 1.268 . S
C113 O122 1.268 . S
O114 Sc104 2.103 1_655 S
O114 C108 1.268 . S
O115 Sc105 2.103 1_655 S
O115 C109 1.268 . S
O116 Sc106 2.103 1_655 S
O116 C110 1.268 . S
O117 Sc104 2.106 . S
O117 C111 1.268 . S
O118 Sc106 2.106 . S
O118 C112 1.268 . S
O119 Sc105 2.106 . S
O119 C113 1.268 . S
O120 Sc104 2.106 . S
O120 C112 1.268 . S
O121 Sc105 2.106 . S
O121 C111 1.268 . S
O122 Sc106 2.106 . S
O122 C113 1.268 . S
O123 Sc104 2.103 1_655 S
O123 C109 1.268 . S
O124 Sc106 2.103 1_655 S
O124 C108 1.268 . S
O125 Sc105 2.103 1_655 S
O125 C110 1.268 . S
Sc126 O129 2.025 . S
Sc126 O136 2.106 . S
Sc126 O139 2.103 1_455 S
Sc126 O142 2.103 1_455 S
Sc126 O145 2.106 . S
Sc127 O129 2.025 . S
Sc127 O137 2.106 . S
Sc127 O141 2.103 1_455 S
Sc127 O143 2.103 1_455 S
Sc127 O147 2.106 . S
Sc128 O129 2.025 . S
Sc128 O138 2.106 . S
Sc128 O140 2.103 1_455 S
Sc128 O144 2.103 1_455 S
Sc128 O146 2.106 . S
O129 Sc126 2.025 . S
O129 Sc127 2.025 . S
O129 Sc128 2.025 . S
C130 O136 1.268 . S
C130 O146 1.268 . S
C131 O137 1.268 . S
C131 O145 1.268 . S
C132 O138 1.268 . S
C132 O147 1.268 . S
C133 O139 1.268 . S
C133 O143 1.268 . S
C134 O140 1.268 . S
C134 O142 1.268 . S
C135 O141 1.268 . S
C135 O144 1.268 . S
O136 Sc126 2.106 . S
O136 C130 1.268 . S
O137 Sc127 2.106 . S
O137 C131 1.268 . S
O138 Sc128 2.106 . S
O138 C132 1.268 . S
O139 Sc126 2.103 1_655 S
O139 C133 1.268 . S
O140 Sc128 2.103 1_655 S
O140 C134 1.268 . S
O141 Sc127 2.103 1_655 S
O141 C135 1.268 . S
O142 Sc126 2.103 1_655 S
O142 C134 1.268 . S
O143 Sc127 2.103 1_655 S
O143 C133 1.268 . S
O144 Sc128 2.103 1_655 S
O144 C135 1.268 . S
O145 Sc126 2.106 . S
O145 C131 1.268 . S
O146 Sc128 2.106 . S
O146 C130 1.268 . S
O147 Sc127 2.106 . S
O147 C132 1.268 . S
Sc148 O151 2.025 . S
Sc148 O158 2.105 . S
Sc148 O161 2.105 . S
Sc148 O164 2.105 . S
Sc148 O167 2.105 . S
Sc149 O151 2.025 . S
Sc149 O159 2.105 . S
Sc149 O163 2.105 . S
Sc149 O165 2.105 . S
Sc149 O169 2.105 . S
Sc150 O151 2.025 . S
Sc150 O160 2.105 . S
Sc150 O162 2.105 . S
Sc150 O166 2.105 . S
Sc150 O168 2.105 . S
O151 Sc148 2.025 . S
O151 Sc149 2.025 . S
O151 Sc150 2.025 . S
C152 O158 1.268 . S
C152 O168 1.268 . S
C153 O159 1.268 . S
C153 O167 1.268 . S
C154 O160 1.268 . S
C154 O169 1.268 . S
C155 O161 1.268 . S
C155 O165 1.268 . S
C156 O162 1.268 . S
C156 O164 1.268 . S
C157 O163 1.268 . S
C157 O166 1.268 . S
O158 Sc148 2.105 . S
O158 C152 1.268 . S
O159 Sc149 2.105 . S
O159 C153 1.268 . S
O160 Sc150 2.105 . S
O160 C154 1.268 . S
O161 Sc148 2.105 . S
O161 C155 1.268 . S
O162 Sc150 2.105 . S
O162 C156 1.268 . S
O163 Sc149 2.105 . S
O163 C157 1.268 . S
O164 Sc148 2.105 . S
O164 C156 1.268 . S
O165 Sc149 2.105 . S
O165 C155 1.268 . S
O166 Sc150 2.105 . S
O166 C157 1.268 . S
O167 Sc148 2.105 . S
O167 C153 1.268 . S
O168 Sc150 2.105 . S
O168 C152 1.268 . S
O169 Sc149 2.105 . S
O169 C154 1.268 . S
Sc170 O173 2.025 . S
Sc170 O180 2.105 . S
Sc170 O183 2.105 . S
Sc170 O186 2.105 . S
Sc170 O189 2.105 . S
Sc171 O173 2.025 . S
Sc171 O181 2.105 . S
Sc171 O185 2.105 . S
Sc171 O187 2.105 . S
Sc171 O191 2.105 . S
Sc172 O173 2.025 . S
Sc172 O182 2.105 . S
Sc172 O184 2.105 . S
Sc172 O188 2.105 . S
Sc172 O190 2.105 . S
O173 Sc170 2.025 . S
O173 Sc171 2.025 . S
O173 Sc172 2.025 . S
C174 O180 1.268 . S
C174 O190 1.268 . S
C175 O181 1.268 . S
C175 O189 1.268 . S
C176 O182 1.268 . S
C176 O191 1.268 . S
C177 O183 1.268 . S
C177 O187 1.268 . S
C178 O184 1.268 . S
C178 O186 1.268 . S
C179 O185 1.268 . S
C179 O188 1.268 . S
O180 Sc170 2.105 . S
O180 C174 1.268 . S
O181 Sc171 2.105 . S
O181 C175 1.268 . S
O182 Sc172 2.105 . S
O182 C176 1.268 . S
O183 Sc170 2.105 . S
O183 C177 1.268 . S
O184 Sc172 2.105 . S
O184 C178 1.268 . S
O185 Sc171 2.105 . S
O185 C179 1.268 . S
O186 Sc170 2.105 . S
O186 C178 1.268 . S
O187 Sc171 2.105 . S
O187 C177 1.268 . S
O188 Sc172 2.105 . S
O188 C179 1.268 . S
O189 Sc170 2.105 . S
O189 C175 1.268 . S
O190 Sc172 2.105 . S
O190 C174 1.268 . S
O191 Sc171 2.105 . S
O191 C176 1.268 . S
C192 C193 1.369 . S
C192 C194 1.419 . S
C192 H196 0.930 1_556 S
C193 C192 1.369 . S
C193 C202 1.429 . S
C194 C192 1.419 . S
C194 C195 1.363 . S
C194 H197 0.929 . S
C195 C194 1.363 . S
C195 C201 1.428 . S
H196 C192 0.930 1_554 S
H197 C194 0.929 . S
S198 N199 1.613 . S
S198 N200 1.610 . S
N199 S198 1.613 . S
N199 C202 1.350 . S
N200 S198 1.610 . S
N200 C201 1.351 . S
C201 C195 1.428 . S
C201 N200 1.351 . S
C201 C202 1.434 . S
C202 C193 1.429 . S
C202 N199 1.350 . S
C202 C201 1.434 . S
C203 C204 1.369 . S
C203 C205 1.419 . S
C203 H207 0.930 . S
C204 C203 1.369 . S
C204 C213 1.429 . S
C205 C203 1.419 . S
C205 C206 1.363 . S
C205 H208 0.929 . S
C206 C205 1.363 . S
C206 C212 1.428 . S
H207 C203 0.930 . S
H208 C205 0.929 . S
S209 N210 1.613 . S
S209 N211 1.610 . S
N210 S209 1.613 . S
N210 C213 1.350 . S
N211 S209 1.610 . S
N211 C212 1.351 . S
C212 C206 1.428 . S
C212 N211 1.351 . S
C212 C213 1.434 . S
C213 C204 1.429 . S
C213 N210 1.350 . S
C213 C212 1.434 . S
C214 C215 1.369 . S
C214 C216 1.419 . S
C214 H218 0.930 . S
C215 C214 1.369 . S
C215 C224 1.429 . S
C216 C214 1.419 . S
C216 C217 1.363 . S
C216 H219 0.929 . S
C217 C216 1.363 . S
C217 C223 1.428 . S
H218 C214 0.930 . S
H219 C216 0.929 . S
S220 N221 1.613 . S
S220 N222 1.610 . S
N221 S220 1.613 . S
N221 C224 1.350 1_554 S
N222 S220 1.610 . S
N222 C223 1.351 1_554 S
C223 C217 1.428 . S
C223 N222 1.351 1_556 S
C223 C224 1.434 . S
C224 C215 1.429 . S
C224 N221 1.350 1_556 S
C224 C223 1.434 . S
C225 C226 1.369 . S
C225 C227 1.419 . S
C225 H229 0.930 . S
C226 C225 1.369 . S
C226 C235 1.429 . S
C227 C225 1.419 . S
C227 C228 1.363 . S
C227 H230 0.929 . S
C228 C227 1.363 . S
C228 C234 1.428 . S
H229 C225 0.930 . S
H230 C227 0.929 . S
S231 N232 1.613 . S
S231 N233 1.610 . S
N232 S231 1.613 . S
N232 C235 1.350 . S
N233 S231 1.610 . S
N233 C234 1.351 . S
C234 C228 1.428 . S
C234 N233 1.351 . S
C234 C235 1.434 . S
C235 C226 1.429 . S
C235 N232 1.350 . S
C235 C234 1.434 . S
C236 C237 1.369 . S
C236 C238 1.419 . S
C236 H240 0.930 . S
C237 C236 1.369 . S
C237 C246 1.429 . S
C238 C236 1.419 . S
C238 C239 1.363 . S
C238 H241 0.929 . S
C239 C238 1.363 . S
C239 C245 1.428 . S
H240 C236 0.930 . S
H241 C238 0.929 . S
S242 N243 1.613 . S
S242 N244 1.610 . S
N243 S242 1.613 . S
N243 C246 1.350 . S
N244 S242 1.610 . S
N244 C245 1.351 . S
C245 C239 1.428 . S
C245 N244 1.351 . S
C245 C246 1.434 . S
C246 C237 1.429 . S
C246 N243 1.350 . S
C246 C245 1.434 . S
C247 C248 1.369 . S
C247 C249 1.419 . S
C247 H251 0.930 . S
C248 C247 1.369 . S
C248 C257 1.429 . S
C249 C247 1.419 . S
C249 C250 1.363 . S
C249 H252 0.929 . S
C250 C249 1.363 . S
C250 C256 1.428 . S
H251 C247 0.930 . S
H252 C249 0.929 . S
S253 N254 1.613 . S
S253 N255 1.610 . S
N254 S253 1.613 . S
N254 C257 1.350 . S
N255 S253 1.610 . S
N255 C256 1.351 . S
C256 C250 1.428 . S
C256 N255 1.351 . S
C256 C257 1.434 . S
C257 C248 1.429 . S
C257 N254 1.350 . S
C257 C256 1.434 . S
C258 C259 1.369 . S
C258 C260 1.419 . S
C258 H262 0.930 . S
C259 C258 1.369 . S
C259 C268 1.429 . S
C260 C258 1.419 . S
C260 C261 1.363 . S
C260 H263 0.929 . S
C261 C260 1.363 . S
C261 C267 1.428 . S
H262 C258 0.930 . S
H263 C260 0.929 . S
S264 N265 1.613 . S
S264 N266 1.610 1_554 S
N265 S264 1.613 . S
N265 C268 1.350 1_554 S
N266 S264 1.610 1_556 S
N266 C267 1.351 . S
C267 C261 1.428 . S
C267 N266 1.351 . S
C267 C268 1.434 . S
C268 C259 1.429 . S
C268 N265 1.350 1_556 S
C268 C267 1.434 . S
C269 C270 1.369 . S
C269 C271 1.419 . S
C269 H273 0.930 . S
C270 C269 1.369 . S
C270 C279 1.429 . S
C271 C269 1.419 . S
C271 C272 1.363 . S
C271 H274 0.929 . S
C272 C271 1.363 . S
C272 C278 1.428 . S
H273 C269 0.930 . S
H274 C271 0.929 . S
S275 N276 1.613 . S
S275 N277 1.610 . S
N276 S275 1.613 . S
N276 C279 1.350 . S
N277 S275 1.610 . S
N277 C278 1.351 . S
C278 C272 1.428 . S
C278 N277 1.351 . S
C278 C279 1.434 . S
C279 C270 1.429 . S
C279 N276 1.350 . S
C279 C278 1.434 . S
C280 C281 1.369 . S
C280 C282 1.419 . S
C280 H284 0.930 1_556 S
C281 C280 1.369 . S
C281 C290 1.429 . S
C282 C280 1.419 . S
C282 C283 1.363 . S
C282 H285 0.929 . S
C283 C282 1.363 . S
C283 C289 1.428 . S
H284 C280 0.930 1_554 S
H285 C282 0.929 . S
S286 N287 1.613 . S
S286 N288 1.610 . S
N287 S286 1.613 . S
N287 C290 1.350 . S
N288 S286 1.610 . S
N288 C289 1.351 . S
C289 C283 1.428 . S
C289 N288 1.351 . S
C289 C290 1.434 . S
C290 C281 1.429 . S
C290 N287 1.350 . S
C290 C289 1.434 . S
C291 C292 1.369 . S
C291 C293 1.419 . S
C291 H295 0.930 . S
C292 C291 1.369 . S
C292 C301 1.429 . S
C293 C291 1.419 . S
C293 C294 1.363 . S
C293 H296 0.929 . S
C294 C293 1.363 . S
C294 C300 1.428 . S
H295 C291 0.930 . S
H296 C293 0.929 . S
S297 N298 1.613 . S
S297 N299 1.610 . S
N298 S297 1.613 . S
N298 C301 1.350 . S
N299 S297 1.610 . S
N299 C300 1.351 . S
C300 C294 1.428 . S
C300 N299 1.351 . S
C300 C301 1.434 . S
C301 C292 1.429 . S
C301 N298 1.350 . S
C301 C300 1.434 . S
C302 C303 1.380 . S
C302 C304 1.427 . S
C302 H306 0.911 1_556 S
C303 C302 1.380 . S
C303 C312 1.429 . S
C304 C302 1.427 . S
C304 C305 1.363 . S
C304 H307 0.929 . S
C305 C304 1.363 . S
C305 C311 1.428 . S
H306 C302 0.911 1_554 S
H307 C304 0.929 . S
S308 N309 1.613 . S
S308 N310 1.610 . S
N309 S308 1.613 . S
N309 C312 1.350 . S
N310 S308 1.610 . S
N310 C311 1.351 . S
C311 C305 1.428 . S
C311 N310 1.351 . S
C311 C312 1.434 . S
C312 C303 1.429 . S
C312 N309 1.350 . S
C312 C311 1.434 . S
C313 C314 1.369 . S
C313 C315 1.419 . S
C313 H317 0.930 . S
C314 C313 1.369 . S
C314 C323 1.429 . S
C315 C313 1.419 . S
C315 C316 1.363 . S
C315 H318 0.929 . S
C316 C315 1.363 . S
C316 C322 1.428 . S
H317 C313 0.930 . S
H318 C315 0.929 . S
S319 N320 1.613 . S
S319 N321 1.610 . S
N320 S319 1.613 . S
N320 C323 1.350 . S
N321 S319 1.610 . S
N321 C322 1.351 . S
C322 C316 1.428 . S
C322 N321 1.351 . S
C322 C323 1.434 . S
C323 C314 1.429 . S
C323 N320 1.350 . S
C323 C322 1.434 . S
C324 C325 1.369 . S
C324 C326 1.419 1_565 S
C324 H328 0.930 1_565 S
C325 C324 1.369 . S
C325 C334 1.429 . S
C326 C324 1.419 1_545 S
C326 C327 1.363 . S
C326 H329 0.929 . S
C327 C326 1.363 . S
C327 C333 1.428 1_545 S
H328 C324 0.930 1_545 S
H329 C326 0.929 . S
S330 N331 1.613 . S
S330 N332 1.610 . S
N331 S330 1.613 . S
N331 C334 1.350 . S
N332 S330 1.610 . S
N332 C333 1.351 . S
C333 C327 1.428 1_565 S
C333 N332 1.351 . S
C333 C334 1.434 . S
C334 C325 1.429 . S
C334 N331 1.350 . S
C334 C333 1.434 . S
C335 C336 1.369 . S
C335 C337 1.419 . S
C335 H339 0.930 . S
C336 C335 1.369 . S
C336 C345 1.429 . S
C337 C335 1.419 . S
C337 C338 1.363 1_545 S
C337 H340 0.929 . S
C338 C337 1.363 1_565 S
C338 C344 1.428 . S
H339 C335 0.930 . S
H340 C337 0.929 . S
S341 N342 1.613 . S
S341 N343 1.610 . S
N342 S341 1.613 . S
N342 C345 1.350 1_565 S
N343 S341 1.610 . S
N343 C344 1.351 . S
C344 C338 1.428 . S
C344 N343 1.351 . S
C344 C345 1.434 1_565 S
C345 C336 1.429 . S
C345 N342 1.350 1_545 S
C345 C344 1.434 1_545 S
C346 C347 1.369 . S
C346 C348 1.419 . S
C346 H350 0.930 . S
C347 C346 1.369 . S
C347 C356 1.429 1_565 S
C348 C346 1.419 . S
C348 C349 1.363 1_565 S
C348 H351 0.929 . S
C349 C348 1.363 1_545 S
C349 C355 1.428 . S
H350 C346 0.930 . S
H351 C348 0.929 . S
S352 N353 1.613 . S
S352 N354 1.610 1_554 S
N353 S352 1.613 . S
N353 C356 1.350 1_554 S
N354 S352 1.610 1_556 S
N354 C355 1.351 . S
C355 C349 1.428 . S
C355 N354 1.351 . S
C355 C356 1.434 . S
C356 C347 1.429 1_545 S
C356 N353 1.350 1_556 S
C356 C355 1.434 . S
C357 C358 1.369 . S
C357 C359 1.419 1_545 S
C357 H361 0.930 . S
C358 C357 1.369 . S
C358 C367 1.429 . S
C359 C357 1.419 1_565 S
C359 C360 1.363 . S
C359 H362 0.929 . S
C360 C359 1.363 . S
C360 C366 1.428 1_565 S
H361 C357 0.930 . S
H362 C359 0.929 . S
S363 N364 1.613 . S
S363 N365 1.610 . S
N364 S363 1.613 . S
N364 C367 1.350 . S
N365 S363 1.610 . S
N365 C366 1.351 . S
C366 C360 1.428 1_545 S
C366 N365 1.351 . S
C366 C367 1.434 . S
C367 C358 1.429 . S
C367 N364 1.350 . S
C367 C366 1.434 . S
C368 C369 1.369 . S
C368 C370 1.419 . S
C368 H372 0.930 . S
C369 C368 1.369 . S
C369 C378 1.429 . S
C370 C368 1.419 . S
C370 C371 1.363 . S
C370 H373 0.929 . S
C371 C370 1.363 . S
C371 C377 1.428 . S
H372 C368 0.930 . S
H373 C370 0.929 . S
S374 N375 1.613 . S
S374 N376 1.610 . S
N375 S374 1.613 . S
N375 C378 1.350 . S
N376 S374 1.610 . S
N376 C377 1.351 . S
C377 C371 1.428 . S
C377 N376 1.351 . S
C377 C378 1.434 . S
C378 C369 1.429 . S
C378 N375 1.350 . S
C378 C377 1.434 . S
C379 C380 1.369 . S
C379 C381 1.419 . S
C379 H383 0.930 . S
C380 C379 1.369 . S
C380 C389 1.429 . S
C381 C379 1.419 . S
C381 C382 1.363 . S
C381 H384 0.929 . S
C382 C381 1.363 . S
C382 C388 1.428 . S
H383 C379 0.930 . S
H384 C381 0.929 . S
S385 N386 1.613 . S
S385 N387 1.610 . S
N386 S385 1.613 . S
N386 C389 1.350 . S
N387 S385 1.610 . S
N387 C388 1.351 . S
C388 C382 1.428 . S
C388 N387 1.351 . S
C388 C389 1.434 . S
C389 C380 1.429 . S
C389 N386 1.350 . S
C389 C388 1.434 . S
C390 C391 1.369 . S
C390 C392 1.419 . S
C390 H394 0.930 . S
C391 C390 1.369 . S
C391 C400 1.429 . S
C392 C390 1.419 . S
C392 C393 1.363 . S
C392 H395 0.929 . S
C393 C392 1.363 . S
C393 C399 1.428 . S
H394 C390 0.930 . S
H395 C392 0.929 . S
S396 N397 1.613 . S
S396 N398 1.610 . S
N397 S396 1.613 . S
N397 C400 1.350 . S
N398 S396 1.610 . S
N398 C399 1.351 . S
C399 C393 1.428 . S
C399 N398 1.351 . S
C399 C400 1.434 . S
C400 C391 1.429 . S
C400 N397 1.350 . S
C400 C399 1.434 . S
C401 C402 1.369 . S
C401 C403 1.419 . S
C401 H405 0.930 . S
C402 C401 1.369 . S
C402 C411 1.429 . S
C403 C401 1.419 . S
C403 C404 1.363 . S
C403 H406 0.929 . S
C404 C403 1.363 . S
C404 C410 1.428 . S
H405 C401 0.930 . S
H406 C403 0.929 . S
S407 N408 1.613 . S
S407 N409 1.610 . S
N408 S407 1.613 . S
N408 C411 1.350 . S
N409 S407 1.610 . S
N409 C410 1.351 . S
C410 C404 1.428 . S
C410 N409 1.351 . S
C410 C411 1.434 . S
C411 C402 1.429 . S
C411 N408 1.350 . S
C411 C410 1.434 . S
C412 C413 1.369 . S
C412 C414 1.419 . S
C412 H416 0.930 . S
C413 C412 1.369 . S
C413 C422 1.429 . S
C414 C412 1.419 . S
C414 C415 1.363 . S
C414 H417 0.929 . S
C415 C414 1.363 . S
C415 C421 1.428 . S
H416 C412 0.930 . S
H417 C414 0.929 . S
S418 N419 1.613 . S
S418 N420 1.610 . S
N419 S418 1.613 . S
N419 C422 1.350 . S
N420 S418 1.610 . S
N420 C421 1.351 . S
C421 C415 1.428 . S
C421 N420 1.351 . S
C421 C422 1.434 . S
C422 C413 1.429 . S
C422 N419 1.350 . S
C422 C421 1.434 . S
C423 C424 1.369 . S
C423 C425 1.419 . S
C423 H427 0.930 . S
C424 C423 1.369 . S
C424 C433 1.429 . S
C425 C423 1.419 . S
C425 C426 1.363 . S
C425 H428 0.929 . S
C426 C425 1.363 . S
C426 C432 1.428 . S
H427 C423 0.930 . S
H428 C425 0.929 . S
S429 N430 1.613 . S
S429 N431 1.610 . S
N430 S429 1.613 . S
N430 C433 1.350 . S
N431 S429 1.610 . S
N431 C432 1.351 . S
C432 C426 1.428 . S
C432 N431 1.351 . S
C432 C433 1.434 . S
C433 C424 1.429 . S
C433 N430 1.350 . S
C433 C432 1.434 . S
C434 C435 1.369 . S
C434 C436 1.419 . S
C434 H438 0.930 . S
C435 C434 1.369 . S
C435 C444 1.429 . S
C436 C434 1.419 . S
C436 C437 1.363 . S
C436 H439 0.929 . S
C437 C436 1.363 . S
C437 C443 1.428 . S
H438 C434 0.930 . S
H439 C436 0.929 . S
S440 N441 1.613 . S
S440 N442 1.610 . S
N441 S440 1.613 . S
N441 C444 1.350 . S
N442 S440 1.610 . S
N442 C443 1.351 . S
C443 C437 1.428 . S
C443 N442 1.351 . S
C443 C444 1.434 . S
C444 C435 1.429 . S
C444 N441 1.350 . S
C444 C443 1.434 . S
C445 C446 1.369 . S
C445 C447 1.419 . S
C445 H449 0.930 . S
C446 C445 1.369 . S
C446 C455 1.429 . S
C447 C445 1.419 . S
C447 C448 1.363 . S
C447 H450 0.929 . S
C448 C447 1.363 . S
C448 C454 1.428 . S
H449 C445 0.930 . S
H450 C447 0.929 . S
S451 N452 1.613 . S
S451 N453 1.610 . S
N452 S451 1.613 . S
N452 C455 1.350 . S
N453 S451 1.610 . S
N453 C454 1.351 . S
C454 C448 1.428 . S
C454 N453 1.351 . S
C454 C455 1.434 . S
C455 C446 1.429 . S
C455 N452 1.350 . S
C455 C454 1.434 . S
C193 N2 1.529 . S
C195 C130 1.507 . S
C206 C108 1.504 . S
C204 N15 1.530 . S
C217 C134 1.504 . S
C215 N28 1.522 . S
C228 C112 1.508 . S
C226 N41 1.519 . S
C239 C174 1.508 . S
C237 N54 1.528 . S
C250 C152 1.506 . S
C248 N67 1.530 . S
C259 N80 1.520 . S
C261 C178 1.506 . S
C272 C156 1.506 . S
C270 N93 1.520 . S
C281 N5 1.504 . S
C283 C179 1.497 . S
C294 C157 1.496 . S
C292 N18 1.507 . S
C303 N31 1.502 . S
C305 C176 1.497 . S
C314 N44 1.501 . S
C316 C154 1.495 . S
C327 C135 1.494 . S
C325 N57 1.504 . S
C336 N70 1.507 . S
C338 C113 1.496 . S
C349 C132 1.496 . S
C347 N83 1.505 . S
C360 C110 1.494 . S
C358 N96 1.501 . S
C371 C153 1.491 . S
C369 N1 1.507 . S
C382 C175 1.492 . S
C380 N14 1.507 . S
C391 N27 1.490 . S
C393 C155 1.494 . S
C404 C177 1.495 . S
C402 N40 1.491 . S
C415 C109 1.495 . S
C413 N53 1.506 . S
C424 N66 1.506 . S
C426 C131 1.492 . S
C435 N79 1.494 . S
C437 C111 1.495 . S
C446 N92 1.491 . S
C448 C133 1.495 . S
