# Generated by pormake.
# Topology rtl, (3,6)-cn, num edge types: 1
# Building blocks:
#     Node 0, Type 0, BuildingBlock: QEWDON_clean_linker_0, # of connection points: 3
#     Node 1, Type 0, BuildingBlock: QEWDON_clean_linker_0, # of connection points: 3
#     Node 2, Type 0, BuildingBlock: QEWDON_clean_linker_0, # of connection points: 3
#     Node 3, Type 0, BuildingBlock: QEWDON_clean_linker_0, # of connection points: 3
#     Node 4, Type 1, BuildingBlock: LEVNOQ01_clean_sbu_1, # of connection points: 6
#     Node 5, Type 1, BuildingBlock: LEVNOQ01_clean_sbu_1, # of connection points: 6
#     Edge 6, Type (0, 1), BuildingBlock: TEMPAE_clean_linker_10, # of connection points: 2
#     Edge 7, Type (0, 1), BuildingBlock: TEMPAE_clean_linker_10, # of connection points: 2
#     Edge 8, Type (0, 1), BuildingBlock: TEMPAE_clean_linker_10, # of connection points: 2
#     Edge 9, Type (0, 1), BuildingBlock: TEMPAE_clean_linker_10, # of connection points: 2
#     Edge 10, Type (0, 1), BuildingBlock: TEMPAE_clean_linker_10, # of connection points: 2
#     Edge 11, Type (0, 1), BuildingBlock: TEMPAE_clean_linker_10, # of connection points: 2
#     Edge 12, Type (0, 1), BuildingBlock: TEMPAE_clean_linker_10, # of connection points: 2
#     Edge 13, Type (0, 1), BuildingBlock: TEMPAE_clean_linker_10, # of connection points: 2
#     Edge 14, Type (0, 1), BuildingBlock: TEMPAE_clean_linker_10, # of connection points: 2
#     Edge 15, Type (0, 1), BuildingBlock: TEMPAE_clean_linker_10, # of connection points: 2
#     Edge 16, Type (0, 1), BuildingBlock: TEMPAE_clean_linker_10, # of connection points: 2
#     Edge 17, Type (0, 1), BuildingBlock: TEMPAE_clean_linker_10, # of connection points: 2
# Relax obj value: 0.038
# Max RMSD: 0.175
# Mean RMSD: 0.137
data_MOF--net-rtl--node1-LEVNOQ01_clean_sbu_1--node2-QEWDON_clean_linker_0--edge1-TEMPAE_clean_linker_10
_symmetry_space_group_name_H-M    P1
_symmetry_Int_Tables_number       1
_symmetry_cell_setting            triclinic
loop_
_symmetry_equiv_pos_as_xyz
'x, y, z'
_cell_length_a     38.072131
_cell_length_b     37.879947
_cell_length_c     21.965927
_cell_angle_alpha  91.427035
_cell_angle_beta   99.879432
_cell_angle_gamma 90.289586
loop_
_atom_site_label
_atom_site_type_symbol
_atom_site_fract_x
_atom_site_fract_y
_atom_site_fract_z
_atom_type_partial_charge
H0 H 0.23688 0.88287 0.17395 0.0
C1 C 0.22112 0.88306 0.12788 0.0
C2 C 0.18541 0.89348 0.1198 0.0
C3 C 0.23692 0.87415 0.07643 0.0
H4 H 0.13842 0.90473 0.05423 0.0
C5 C 0.16551 0.89502 0.06005 0.0
C6 C 0.18121 0.88742 0.00786 0.0
C7 C 0.21704 0.87664 0.01651 0.0
C8 C 0.27551 0.86714 0.08526 0.0
H9 H 0.22981 0.87133 0.9768 0.0
C10 C 0.28878 0.83259 0.09235 0.0
C11 C 0.3259 0.82658 0.10187 0.0
C12 C 0.29929 0.8957 0.08793 0.0
H13 H 0.28943 0.92244 0.0828 0.0
C14 C 0.33592 0.89 0.09723 0.0
H15 H 0.27025 0.81065 0.09095 0.0
C16 C 0.34918 0.8558 0.10397 0.0
H17 H 0.37775 0.85224 0.10957 0.0
H18 H 0.35414 0.91218 0.09884 0.0
H19 H 0.73818 0.70309 0.53473 0.0
C20 C 0.72352 0.69683 0.5713 0.0
C21 C 0.68803 0.68458 0.55614 0.0
C22 C 0.74088 0.69816 0.63345 0.0
H23 H 0.64272 0.6643 0.59151 0.0
C24 C 0.66965 0.67482 0.60335 0.0
C25 C 0.68658 0.67604 0.66521 0.0
C26 C 0.72202 0.6878 0.67997 0.0
C27 C 0.77958 0.70668 0.65027 0.0
H28 H 0.73516 0.68823 0.72787 0.0
C29 C 0.79462 0.73711 0.62883 0.0
C30 C 0.83126 0.7452 0.64766 0.0
C31 C 0.80167 0.68418 0.6897 0.0
H32 H 0.79098 0.66037 0.70623 0.0
C33 C 0.83775 0.69198 0.70819 0.0
H34 H 0.77786 0.75446 0.59808 0.0
C35 C 0.85245 0.72229 0.68771 0.0
H36 H 0.88045 0.72799 0.70391 0.0
H37 H 0.85439 0.67454 0.73886 0.0
H38 H 0.76163 0.18818 0.05329 0.0
C39 C 0.77444 0.18147 0.01417 0.0
C40 C 0.80931 0.16801 0.02411 0.0
C41 C 0.75508 0.18343 0.95373 0.0
H42 H 0.85144 0.14669 0.9808 0.0
C43 C 0.82491 0.15777 0.97294 0.0
C44 C 0.80622 0.16029 0.91224 0.0
C45 C 0.7713 0.17332 0.90327 0.0
C46 C 0.71657 0.19171 0.94253 0.0
H47 H 0.75631 0.17528 0.85687 0.0
C48 C 0.70387 0.22477 0.95936 0.0
C49 C 0.6671 0.23227 0.94571 0.0
C50 C 0.69229 0.1662 0.91252 0.0
H51 H 0.70152 0.1406 0.89915 0.0
C52 C 0.65595 0.17338 0.89956 0.0
H53 H 0.72252 0.24454 0.98246 0.0
C54 C 0.64338 0.20616 0.91587 0.0
H55 H 0.61509 0.21129 0.90429 0.0
H56 H 0.63748 0.15354 0.87638 0.0
H57 H 0.36102 0.28309 0.59367 0.0
C58 C 0.36245 0.30097 0.55641 0.0
C59 C 0.37705 0.33517 0.5695 0.0
C60 C 0.35179 0.28891 0.49481 0.0
H61 H 0.38985 0.38401 0.52904 0.0
C62 C 0.37922 0.35746 0.51986 0.0
C63 C 0.3695 0.34552 0.45826 0.0
C64 C 0.35585 0.3111 0.44612 0.0
C65 C 0.34063 0.25171 0.48069 0.0
H66 H 0.34883 0.30132 0.39875 0.0
C67 C 0.30679 0.23928 0.48863 0.0
C68 C 0.29668 0.20376 0.47371 0.0
C69 C 0.36412 0.22859 0.45754 0.0
H70 H 0.39015 0.23776 0.45081 0.0
C71 C 0.35432 0.19345 0.44314 0.0
H72 H 0.28852 0.25712 0.5063 0.0
C73 C 0.3209 0.18105 0.45121 0.0
H74 H 0.31377 0.15375 0.43902 0.0
H75 H 0.37264 0.17578 0.42541 0.0
O76 O 0.96841 0.10761 0.58666 0.0
Mg77 Mg 0.01637 0.07943 0.5973 0.0
O78 O 0.95714 0.05134 0.57891 0.0
Mg79 Mg 0.99959 0.03253 0.51609 0.0
O80 O 0.04472 0.07919 0.5264 0.0
O81 O 0.05581 0.11544 0.61004 0.0
O82 O 0.03755 0.00911 0.4536 0.0
O83 O 0.96864 0.07105 0.43777 0.0
Mg84 Mg 0.95819 0.00465 0.42413 0.0
O85 O 0.96147 0.98061 0.50731 0.0
O86 O 0.99867 1.00116 0.36849 0.0
O87 O 0.91874 0.04238 0.40786 0.0
O88 O 0.93306 0.95783 0.41666 0.0
C89 C 0.03764 0.01017 0.65232 0.0
C90 C 0.94748 0.08249 0.59128 0.0
C91 C 0.06339 0.10478 0.55774 0.0
C92 C 0.03063 1.00116 0.39621 0.0
C93 C 0.93615 0.07074 0.41032 0.0
C94 C 0.94133 0.95606 0.47584 0.0
O95 O 0.0297 0.04123 0.66769 0.0
O96 O 0.03157 1.00063 0.59548 0.0
O97 O 0.58846 0.55629 0.14894 0.0
Mg98 Mg 0.55465 0.51172 0.1412 0.0
O99 O 0.53336 0.57202 0.14161 0.0
Mg100 Mg 0.50773 0.53049 0.05984 0.0
O101 O 0.54925 0.48174 0.06207 0.0
O102 O 0.58735 0.47021 0.14896 0.0
O103 O 0.48037 0.48899 0.97905 0.0
O104 O 0.54343 0.55817 0.99853 0.0
Mg105 Mg 0.46514 0.55277 0.97109 0.0
O106 O 0.46597 0.57876 0.05503 0.0
O107 O 0.42834 0.51208 0.94772 0.0
O108 O 0.50413 0.5588 0.91354 0.0
O109 O 0.43873 0.59844 0.96316 0.0
C110 C 0.48559 0.49649 0.18071 0.0
C111 C 0.56636 0.57903 0.15985 0.0
C112 C 0.57429 0.4623 0.09224 0.0
C113 C 0.44878 0.48609 0.94789 0.0
C114 C 0.53578 0.56359 0.94094 0.0
C115 C 0.44637 0.60206 0.02233 0.0
O116 O 0.51808 0.50252 0.20314 0.0
O117 O 0.47437 0.50265 0.12399 0.0
C118 C 0.2298 0.20759 0.45638 0.0
C119 C 0.26107 0.1899 0.48118 0.0
C120 C 0.19603 0.19378 0.46133 0.0
C121 C 0.19352 0.1619 0.49286 0.0
C122 C 0.22508 0.14393 0.51774 0.0
C123 C 0.25838 0.15801 0.51124 0.0
C124 C 0.16305 0.21351 0.43352 0.0
C125 C 0.22375 0.11032 0.55289 0.0
C126 C 0.11467 0.14726 0.57412 0.0
C127 C 0.09483 0.12095 0.53673 0.0
C128 C 0.14622 0.16123 0.55944 0.0
C129 C 0.15835 0.14906 0.50539 0.0
C130 C 0.13791 0.12343 0.46602 0.0
C131 C 0.10643 0.1095 0.48232 0.0
C132 C 0.16726 0.18817 0.60321 0.0
C133 C 0.14975 0.11014 0.40753 0.0
H134 H 0.23177 0.23197 0.43233 0.0
H135 H 0.2825 0.14435 0.53072 0.0
H136 H 0.14426 0.19546 0.4032 0.0
H137 H 0.14911 0.22353 0.47076 0.0
H138 H 0.16935 0.23623 0.4061 0.0
H139 H 0.25057 0.0987 0.56687 0.0
H140 H 0.21211 0.11579 0.59511 0.0
H141 H 0.2063 0.09046 0.52431 0.0
H142 H 0.10607 0.15652 0.61622 0.0
H143 H 0.09133 0.08927 0.45307 0.0
H144 H 0.17179 0.21239 0.57819 0.0
H145 H 0.19381 0.17738 0.62223 0.0
H146 H 0.15361 0.19565 0.6424 0.0
H147 H 0.15507 0.13269 0.37904 0.0
H148 H 0.12956 0.09239 0.37944 0.0
H149 H 0.17503 0.09544 0.41928 0.0
C150 C 0.32467 0.7626 0.06772 0.0
C151 C 0.34078 0.79016 0.10673 0.0
C152 C 0.34142 0.72974 0.0651 0.0
C153 C 0.3753 0.72437 0.10183 0.0
C154 C 0.39046 0.75115 0.14448 0.0
C155 C 0.37294 0.78359 0.1467 0.0
C156 C 0.32402 0.70169 0.01963 0.0
C157 C 0.42647 0.7466 0.18453 0.0
C158 C 0.41447 0.63166 0.10052 0.0
C159 C 0.43297 0.63379 0.05084 0.0
C160 C 0.39617 0.66122 0.11924 0.0
C161 C 0.39712 0.69351 0.08807 0.0
C162 C 0.41768 0.69606 0.0404 0.0
C163 C 0.43496 0.66612 0.02203 0.0
C164 C 0.37432 0.65736 0.16986 0.0
C165 C 0.42023 0.73007 0.00679 0.0
H166 H 0.29991 0.76728 0.03656 0.0
H167 H 0.38517 0.80434 0.17829 0.0
H168 H 0.33856 0.69969 0.98002 0.0
H169 H 0.32534 0.67554 0.0415 0.0
H170 H 0.29568 0.70772 1.00153 0.0
H171 H 0.43206 0.76739 0.22157 0.0
H172 H 0.42834 0.72037 0.2061 0.0
H173 H 0.44753 0.748 0.15541 0.0
H174 H 0.41262 0.6065 0.12229 0.0
H175 H 0.44943 0.66774 0.98371 0.0
H176 H 0.34557 0.65758 0.14942 0.0
H177 H 0.37933 0.67987 0.20357 0.0
H178 H 0.38009 0.63235 0.19487 0.0
H179 H 0.39366 0.73671 0.98039 0.0
H180 H 0.43943 0.72831 0.97406 0.0
H181 H 0.42862 0.75214 0.04036 0.0
C182 C 0.88178 0.77561 0.60976 0.0
C183 C 0.84781 0.77738 0.62641 0.0
C184 C 0.89838 0.80566 0.5911 0.0
C185 C 0.88054 0.83842 0.58843 0.0
C186 C 0.84642 0.84056 0.60581 0.0
C187 C 0.83044 0.81002 0.62453 0.0
C188 C 0.93461 0.80209 0.57245 0.0
C189 C 0.82648 0.87498 0.60334 0.0
C190 C 0.93416 0.92201 0.57059 0.0
C191 C 0.92641 0.92625 0.50643 0.0
C192 C 0.9192 0.89373 0.59838 0.0
C193 C 0.89595 0.86933 0.56109 0.0
C194 C 0.888 0.87367 0.49649 0.0
C195 C 0.9033 0.90189 0.47011 0.0
C196 C 0.92841 0.8898 0.66745 0.0
C197 C 0.86342 0.84832 0.45489 0.0
H198 H 0.89524 0.75044 0.6103 0.0
H199 H 0.80446 0.81176 0.63821 0.0
H200 H 0.93241 0.80681 0.52229 0.0
H201 H 0.95334 0.82223 0.5974 0.0
H202 H 0.94617 0.77552 0.58198 0.0
H203 H 0.80141 0.87286 0.62254 0.0
H204 H 0.84352 0.89603 0.6295 0.0
H205 H 0.81976 0.88337 0.55472 0.0
H206 H 0.9519 0.94069 0.59902 0.0
H207 H 0.89693 0.90482 0.4205 0.0
H208 H 0.94156 0.86407 0.678 0.0
H209 H 0.90371 0.88987 0.68791 0.0
H210 H 0.94641 0.91125 0.69008 0.0
H211 H 0.87453 0.82129 0.45843 0.0
H212 H 0.85939 0.85585 0.40564 0.0
H213 H 0.83704 0.84729 0.4698 0.0
C214 C 0.6224 0.26906 0.98915 0.0
C215 C 0.65304 0.2672 0.96175 0.0
C216 C 0.60832 0.30169 1.00399 0.0
C217 C 0.62518 0.33333 0.99091 0.0
C218 C 0.65567 0.33167 0.96196 0.0
C219 C 0.66938 0.29859 0.94806 0.0
C220 C 0.5761 0.30225 0.03566 0.0
C221 C 0.67424 0.36482 0.9469 0.0
C222 C 0.57364 0.4187 1.00319 0.0
C223 C 0.58798 0.43051 0.06341 0.0
C224 C 0.58608 0.38754 0.97796 0.0
C225 C 0.61326 0.36779 0.01401 0.0
C226 C 0.62819 0.38004 0.07424 0.0
C227 C 0.6155 0.41115 0.09799 0.0
C228 C 0.56975 0.37542 0.9133 0.0
C229 C 0.65703 0.35976 0.11449 0.0
H230 H 0.6098 0.24487 1.0002 0.0
H231 H 0.69273 0.29727 0.92597 0.0
H232 H 0.58362 0.31374 0.08311 0.0
H233 H 0.5551 0.31922 0.01042 0.0
H234 H 0.5647 0.27544 0.03885 0.0
H235 H 0.69553 0.35911 0.91932 0.0
H236 H 0.65471 0.38293 0.92078 0.0
H237 H 0.68641 0.37893 0.99032 0.0
H238 H 0.55246 0.43349 0.97611 0.0
H239 H 0.62698 0.42001 0.14447 0.0
H240 H 0.55552 0.34992 0.91488 0.0
H241 H 0.59094 0.37083 0.88513 0.0
H242 H 0.55063 0.39489 0.88987 0.0
H243 H 0.64681 0.33321 0.12325 0.0
H244 H 0.66651 0.37342 0.15971 0.0
H245 H 0.68015 0.35583 0.09055 0.0
C246 C 0.13943 0.89017 0.18757 0.0
C247 C 0.16949 0.9069 0.17245 0.0
C248 C 0.12057 0.90566 0.23072 0.0
C249 C 0.13152 0.93916 0.25782 0.0
C250 C 0.16274 0.95549 0.24431 0.0
C251 C 0.18158 0.93895 0.20206 0.0
C252 C 0.08789 0.88701 0.24489 0.0
C253 C 0.17488 0.99146 0.2712 0.0
C254 C 0.05492 0.99317 0.29856 0.0
C255 C 0.059 0.98915 0.36259 0.0
C256 C 0.07943 0.97847 0.26449 0.0
C257 C 0.1082 0.95844 0.29499 0.0
C258 C 0.1131 0.95521 0.35999 0.0
C259 C 0.08863 0.97102 0.39321 0.0
C260 C 0.07378 0.98338 0.19546 0.0
C261 C 0.14306 0.93357 0.39397 0.0
H262 H 0.13013 0.86544 0.16424 0.0
H263 H 0.20461 0.95201 0.18946 0.0
H264 H 0.08859 0.88648 0.29557 0.0
H265 H 0.06365 0.90158 0.2246 0.0
H266 H 0.08548 0.85947 0.22595 0.0
H267 H 0.20162 0.99879 0.26143 0.0
H268 H 0.1555 0.01161 0.25116 0.0
H269 H 0.17576 0.99239 0.32194 0.0
H270 H 0.03219 0.00744 0.27489 0.0
H271 H 0.09168 0.96767 0.44271 0.0
H272 H 0.06678 0.95765 0.17106 0.0
H273 H 0.09872 0.99301 0.18145 0.0
H274 H 0.05215 1.00235 0.1798 0.0
H275 H 0.13871 0.90534 0.37981 0.0
H276 H 0.14494 0.93602 0.44493 0.0
H277 H 0.16893 0.94174 0.38172 0.0
C278 C 0.68256 0.63255 0.74716 0.0
C279 C 0.66823 0.66155 0.71339 0.0
C280 C 0.66377 0.61604 0.78845 0.0
C281 C 0.63025 0.62943 0.79703 0.0
C282 C 0.61645 0.65972 0.76491 0.0
C283 C 0.6354 0.67512 0.72273 0.0
C284 C 0.67898 0.58333 0.82056 0.0
C285 C 0.58119 0.67527 0.77378 0.0
C286 C 0.55971 0.56944 0.8431 0.0
C287 C 0.56258 0.57759 0.90633 0.0
C288 C 0.58259 0.58507 0.80767 0.0
C289 C 0.60829 0.6103 0.83579 0.0
C290 C 0.61179 0.61812 0.89999 0.0
C291 C 0.58916 0.60126 0.93476 0.0
C292 C 0.57864 0.57521 0.73976 0.0
C293 C 0.63833 0.64541 0.93133 0.0
H294 H 0.70783 0.62189 0.73927 0.0
H295 H 0.62446 0.69762 0.69658 0.0
H296 H 0.67977 0.58621 0.87114 0.0
H297 H 0.66151 0.56029 0.80401 0.0
H298 H 0.70631 0.5776 0.81188 0.0
H299 H 0.57594 0.70078 0.75015 0.0
H300 H 0.55925 0.65655 0.75513 0.0
H301 H 0.58056 0.67956 0.82374 0.0
H302 H 0.53929 0.55096 0.82116 0.0
H303 H 0.59116 0.60783 0.98357 0.0
H304 H 0.60483 0.56753 0.72807 0.0
H305 H 0.56924 0.59833 0.71167 0.0
H306 H 0.55943 0.55306 0.72623 0.0
H307 H 0.66547 0.63917 0.92252 0.0
H308 H 0.63899 0.64717 0.98207 0.0
H309 H 0.6313 0.67168 0.91175 0.0
C310 C 0.83303 0.18732 0.13435 0.0
C311 C 0.82859 0.16106 0.08743 0.0
C312 C 0.8524 0.18058 0.19357 0.0
C313 C 0.86704 0.14665 0.20613 0.0
C314 C 0.86236 0.12011 0.15876 0.0
C315 C 0.84334 0.12768 0.10021 0.0
C316 C 0.85716 0.20962 0.24261 0.0
C317 C 0.87692 0.08336 0.17009 0.0
C318 C 0.94012 0.11887 0.33538 0.0
C319 C 0.92006 0.09974 0.37134 0.0
C320 C 0.92307 0.13779 0.28432 0.0
C321 C 0.88528 0.13738 0.26934 0.0
C322 C 0.86517 0.12149 0.30999 0.0
C323 C 0.88282 0.1029 0.36043 0.0
C324 C 0.94552 0.15503 0.24294 0.0
C325 C 0.82492 0.12045 0.29639 0.0
H326 H 0.82183 0.21323 0.12443 0.0
H327 H 0.83956 0.10717 0.0643 0.0
H328 H 0.8441 0.20194 0.28179 0.0
H329 H 0.88592 0.2137 0.26121 0.0
H330 H 0.84573 0.23501 0.22466 0.0
H331 H 0.87153 0.06599 0.12796 0.0
H332 H 0.90615 0.08465 0.18631 0.0
H333 H 0.86478 0.07099 0.20691 0.0
H334 H 0.9689 0.11652 0.34361 0.0
H335 H 0.86724 0.08844 0.38868 0.0
H336 H 0.93391 0.18055 0.22624 0.0
H337 H 0.94627 0.13757 0.20187 0.0
H338 H 0.97334 0.15969 0.26705 0.0
H339 H 0.81407 0.14649 0.28119 0.0
H340 H 0.8134 0.11261 0.33727 0.0
H341 H 0.81597 0.10097 0.25821 0.0
C342 C 0.42201 0.36971 0.64541 0.0
C343 C 0.39156 0.34777 0.63411 0.0
C344 C 0.43312 0.38651 0.70313 0.0
C345 C 0.41428 0.38021 0.75206 0.0
C346 C 0.38585 0.35527 0.74302 0.0
C347 C 0.37446 0.33971 0.68392 0.0
C348 C 0.4633 0.41316 0.71009 0.0
C349 C 0.36609 0.34658 0.79476 0.0
C350 C 0.45724 0.42472 0.90492 0.0
C351 C 0.43784 0.45619 0.90343 0.0
C352 C 0.44836 0.3983 0.85825 0.0
C353 C 0.42042 0.40422 0.80791 0.0
C354 C 0.40021 0.43549 0.80745 0.0
C355 C 0.40876 0.46064 0.85553 0.0
C356 C 0.46957 0.36467 0.86191 0.0
C357 C 0.37081 0.44353 0.75415 0.0
H358 H 0.43655 0.37491 0.60824 0.0
H359 H 0.35122 0.3225 0.67628 0.0
H360 H 0.45282 0.43998 0.71708 0.0
H361 H 0.48353 0.40758 0.75126 0.0
H362 H 0.47666 0.41335 0.66892 0.0
H363 H 0.3505 0.3216 0.78487 0.0
H364 H 0.38491 0.34421 0.839 0.0
H365 H 0.34734 0.36816 0.80095 0.0
H366 H 0.47958 0.42093 0.94194 0.0
H367 H 0.39356 0.48483 0.85368 0.0
H368 H 0.48912 0.36578 0.82996 0.0
H369 H 0.45187 0.34148 0.84767 0.0
H370 H 0.48444 0.36067 0.90933 0.0
H371 H 0.38201 0.44504 0.71082 0.0
H372 H 0.35732 0.46885 0.76134 0.0
H373 H 0.35048 0.4221 0.74744 0.0
C374 C 0.65523 0.70226 0.45237 0.0
C375 C 0.67151 0.67619 0.49143 0.0
C376 C 0.63603 0.69313 0.39326 0.0
C377 C 0.63316 0.65716 0.37332 0.0
C378 C 0.65029 0.63097 0.41261 0.0
C379 C 0.66913 0.64084 0.47114 0.0
C380 C 0.6182 0.72175 0.35278 0.0
C381 C 0.64824 0.59234 0.39332 0.0
C382 C 0.55991 0.61609 0.25298 0.0
C383 C 0.57898 0.60769 0.20547 0.0
C384 C 0.57634 0.63499 0.30641 0.0
C385 C 0.6124 0.64614 0.31172 0.0
C386 C 0.63031 0.64098 0.26084 0.0
C387 C 0.61351 0.6215 0.20863 0.0
C388 C 0.55624 0.63986 0.3595 0.0
C389 C 0.66842 0.65306 0.26374 0.0
H390 H 0.65677 0.72956 0.46869 0.0
H391 H 0.68156 0.62076 0.50184 0.0
H392 H 0.62631 0.72013 0.30664 0.0
H393 H 0.58885 0.71797 0.3455 0.0
H394 H 0.6248 0.74856 0.37334 0.0
H395 H 0.66319 0.57538 0.42924 0.0
H396 H 0.62 0.58336 0.38378 0.0
H397 H 0.65922 0.5884 0.35005 0.0
H398 H 0.5333 0.60527 0.25092 0.0
H399 H 0.62824 0.61522 0.17171 0.0
H400 H 0.56045 0.66689 0.38013 0.0
H401 H 0.56642 0.62101 0.39613 0.0
H402 H 0.52716 0.63504 0.3449 0.0
H403 H 0.67254 0.68007 0.28452 0.0
H404 H 0.6762 0.65289 0.21725 0.0
H405 H 0.68645 0.63514 0.29347 0.0
C406 C 0.85923 0.15306 0.85915 0.0
C407 C 0.82269 0.14774 0.85878 0.0
C408 C 0.87558 0.14002 0.81076 0.0
C409 C 0.85479 0.12192 0.75971 0.0
C410 C 0.81779 0.11702 0.7582 0.0
C411 C 0.80226 0.12962 0.80804 0.0
C412 C 0.91523 0.14556 0.81444 0.0
C413 C 0.79467 0.09843 0.70403 0.0
C414 C 0.90045 0.1218 0.61978 0.0
C415 C 0.91734 0.08895 0.62412 0.0
C416 C 0.87751 0.13175 0.66064 0.0
C417 C 0.87215 0.10865 0.70795 0.0
C418 C 0.88724 0.07448 0.70983 0.0
C419 C 0.90939 0.06486 0.66728 0.0
C420 C 0.86108 0.16799 0.65584 0.0
C421 C 0.88257 0.04922 0.75999 0.0
H422 H 0.87518 0.16758 0.89735 0.0
H423 H 0.77414 0.12476 0.80757 0.0
H424 H 0.92844 0.11978 0.81016 0.0
H425 H 0.92033 0.16185 0.77554 0.0
H426 H 0.92781 0.15888 0.85848 0.0
H427 H 0.76611 0.09789 0.70889 0.0
H428 H 0.79718 0.11178 0.66056 0.0
H429 H 0.80375 0.07087 0.69941 0.0
H430 H 0.90643 0.14035 0.58607 0.0
H431 H 0.92265 0.03954 0.671 0.0
H432 H 0.87487 0.18539 0.69401 0.0
H433 H 0.83254 0.16657 0.66049 0.0
H434 H 0.8632 0.18036 0.61127 0.0
H435 H 0.89792 0.0592 0.80472 0.0
H436 H 0.89207 0.02229 0.75046 0.0
H437 H 0.85419 0.04746 0.76537 0.0
C438 C 0.39645 0.35438 0.36342 0.0
C439 C 0.37731 0.3681 0.40764 0.0
C440 C 0.40951 0.37656 0.32193 0.0
C441 C 0.4031 0.41335 0.32446 0.0
C442 C 0.38176 0.42698 0.36623 0.0
C443 C 0.36927 0.40422 0.40752 0.0
C444 C 0.43222 0.36092 0.27828 0.0
C445 C 0.37386 0.46591 0.36984 0.0
C446 C 0.47607 0.47115 0.28066 0.0
C447 C 0.46237 0.47896 0.21905 0.0
C448 C 0.45658 0.45068 0.31575 0.0
C449 C 0.4223 0.43779 0.28892 0.0
C450 C 0.40755 0.44686 0.2277 0.0
C451 C 0.42781 0.46728 0.19338 0.0
C452 C 0.47334 0.44171 0.38091 0.0
C453 C 0.37093 0.43399 0.19777 0.0
H454 H 0.40304 0.32657 0.36363 0.0
H455 H 0.35413 0.41489 0.44116 0.0
H456 H 0.4231 0.37007 0.23064 0.0
H457 H 0.46024 0.36999 0.29272 0.0
H458 H 0.43166 0.33158 0.2775 0.0
H459 H 0.35298 0.47155 0.3983 0.0
H460 H 0.3985 0.48054 0.39069 0.0
H461 H 0.36507 0.47625 0.32292 0.0
H462 H 0.50265 0.48013 0.30115 0.0
H463 H 0.41695 0.47318 0.14587 0.0
H464 H 0.47707 0.41274 0.38412 0.0
H465 H 0.4555 0.4496 0.41375 0.0
H466 H 0.49964 0.45493 0.39577 0.0
H467 H 0.37121 0.4049 0.19069 0.0
H468 H 0.36187 0.44616 0.15233 0.0
H469 H 0.35123 0.4399 0.22836 0.0
C470 C 0.17699 0.91631 0.90553 0.0
C471 C 0.16116 0.89549 0.94549 0.0
C472 C 0.15651 0.93043 0.85249 0.0
C473 C 0.11934 0.92351 0.83902 0.0
C474 C 0.10376 0.9003 0.8766 0.0
C475 C 0.12484 0.88663 0.92943 0.0
C476 C 0.17423 0.95494 0.81358 0.0
C477 C 0.06435 0.89187 0.86356 0.0
C478 C 0.063 0.99779 0.76237 0.0
C479 C 0.05605 0.98636 0.70016 0.0
C480 C 0.08292 0.9772 0.80787 0.0
C481 C 0.09626 0.94419 0.79107 0.0
C482 C 0.08845 0.93191 0.72874 0.0
C483 C 0.06846 0.95316 0.68396 0.0
C484 C 0.09043 0.99127 0.87385 0.0
C485 C 0.10197 0.89676 0.70913 0.0
H486 H 0.20493 0.92355 0.91784 0.0
H487 H 0.11256 0.87018 0.95976 0.0
H488 H 0.16611 0.94807 0.76375 0.0
H489 H 0.1656 0.98243 0.82094 0.0
H490 H 0.20378 0.95411 0.82538 0.0
H491 H 0.0574 0.86951 0.89121 0.0
H492 H 0.04926 0.9154 0.875 0.0
H493 H 0.05542 0.88527 0.81381 0.0
H494 H 0.05345 0.02329 0.77555 0.0
H495 H 0.06319 0.94404 0.63608 0.0
H496 H 0.11959 0.99482 0.88903 0.0
H497 H 0.08106 0.97207 0.905 0.0
H498 H 0.0773 0.01698 0.87959 0.0
H499 H 0.13152 0.89748 0.71578 0.0
H500 H 0.09146 0.88984 0.65991 0.0
H501 H 0.09434 0.87553 0.73837 0.0
loop_
_geom_bond_atom_site_label_1
_geom_bond_atom_site_label_2
_geom_bond_distance
_geom_bond_site_symmetry_2
_ccdc_geom_bond_type
H0 C1 0.949 . S
C1 H0 0.949 . S
C1 C2 1.395 . S
C1 C3 1.391 . S
C2 C1 1.395 . S
C2 C5 1.390 . S
C3 C1 1.391 . S
C3 C7 1.387 . S
C3 C8 1.491 . S
H4 C5 0.950 . S
C5 C2 1.390 . S
C5 H4 0.950 . S
C5 C6 1.378 . S
C6 C5 1.378 . S
C6 C7 1.409 . S
C7 C3 1.387 . S
C7 C6 1.409 . S
C7 H9 0.951 1_554 S
C8 C3 1.491 . S
C8 C10 1.382 . S
C8 C12 1.404 . S
H9 C7 0.951 1_556 S
C10 C8 1.382 . S
C10 C11 1.390 . S
C10 H15 0.949 . S
C11 C10 1.390 . S
C11 C16 1.399 . S
C12 C8 1.404 . S
C12 H13 0.950 1_554 S
C12 C14 1.375 . S
H13 C12 0.950 1_556 S
C14 C12 1.375 . S
C14 C16 1.382 . S
C14 H18 0.950 1_554 S
H15 C10 0.949 . S
C16 C11 1.399 . S
C16 C14 1.382 . S
C16 H17 0.952 . S
H17 C16 0.952 . S
H18 C14 0.950 1_556 S
H19 C20 0.949 . S
C20 H19 0.949 . S
C20 C21 1.395 . S
C20 C22 1.391 . S
C21 C20 1.395 . S
C21 C24 1.390 . S
C22 C20 1.391 . S
C22 C26 1.387 . S
C22 C27 1.491 . S
H23 C24 0.950 . S
C24 C21 1.390 . S
C24 H23 0.950 . S
C24 C25 1.378 . S
C25 C24 1.378 . S
C25 C26 1.409 . S
C26 C22 1.387 . S
C26 C25 1.409 . S
C26 H28 0.951 . S
C27 C22 1.491 . S
C27 C29 1.382 . S
C27 C31 1.404 . S
H28 C26 0.951 . S
C29 C27 1.382 . S
C29 C30 1.390 . S
C29 H34 0.949 . S
C30 C29 1.390 . S
C30 C35 1.399 . S
C31 C27 1.404 . S
C31 H32 0.950 . S
C31 C33 1.375 . S
H32 C31 0.950 . S
C33 C31 1.375 . S
C33 C35 1.382 . S
C33 H37 0.950 . S
H34 C29 0.949 . S
C35 C30 1.399 . S
C35 C33 1.382 . S
C35 H36 0.952 . S
H36 C35 0.952 . S
H37 C33 0.950 . S
H38 C39 0.949 . S
C39 H38 0.949 . S
C39 C40 1.395 . S
C39 C41 1.391 1_554 S
C40 C39 1.395 . S
C40 C43 1.397 . S
C41 C39 1.391 1_556 S
C41 C45 1.387 . S
C41 C46 1.491 . S
H42 C43 0.951 . S
C43 C40 1.397 . S
C43 H42 0.951 . S
C43 C44 1.371 1_554 S
C44 C43 1.371 1_556 S
C44 C45 1.409 . S
C45 C41 1.387 . S
C45 C44 1.409 . S
C45 H47 0.951 . S
C46 C41 1.491 . S
C46 C48 1.388 . S
C46 C50 1.404 . S
H47 C45 0.951 . S
C48 C46 1.388 . S
C48 C49 1.390 . S
C48 H53 0.941 1_556 S
C49 C48 1.390 . S
C49 C54 1.399 . S
C50 C46 1.404 . S
C50 H51 0.950 . S
C50 C52 1.375 . S
H51 C50 0.950 . S
C52 C50 1.375 . S
C52 C54 1.382 . S
C52 H56 0.950 . S
H53 C48 0.941 1_554 S
C54 C49 1.399 . S
C54 C52 1.382 . S
C54 H55 0.952 . S
H55 C54 0.952 . S
H56 C52 0.950 . S
H57 C58 0.949 . S
C58 H57 0.949 . S
C58 C59 1.395 . S
C58 C60 1.391 . S
C59 C58 1.395 . S
C59 C62 1.390 . S
C60 C58 1.391 . S
C60 C64 1.387 . S
C60 C65 1.491 . S
H61 C62 0.950 . S
C62 C59 1.390 . S
C62 H61 0.950 . S
C62 C63 1.378 . S
C63 C62 1.378 . S
C63 C64 1.409 . S
C64 C60 1.387 . S
C64 C63 1.409 . S
C64 H66 0.951 . S
C65 C60 1.491 . S
C65 C67 1.382 . S
C65 C69 1.404 . S
H66 C64 0.951 . S
C67 C65 1.382 . S
C67 C68 1.390 . S
C67 H72 0.949 . S
C68 C67 1.390 . S
C68 C73 1.399 . S
C69 C65 1.404 . S
C69 H70 0.950 . S
C69 C71 1.375 . S
H70 C69 0.950 . S
C71 C69 1.375 . S
C71 C73 1.382 . S
C71 H75 0.950 . S
H72 C67 0.949 . S
C73 C68 1.399 . S
C73 C71 1.382 . S
C73 H74 0.952 . S
H74 C73 0.952 . S
H75 C71 0.950 . S
O76 Mg77 1.990 . S
O76 C90 1.253 1_455 S
Mg77 O76 1.990 . S
Mg77 O80 2.180 . S
Mg77 O81 2.117 . S
Mg77 O95 2.030 . S
O78 Mg79 2.072 1_655 S
O78 C90 1.260 . S
Mg79 O78 2.072 1_455 S
Mg79 O80 2.099 . S
Mg79 O82 2.079 1_545 S
Mg79 O83 2.072 1_455 S
Mg79 O85 2.099 1_445 S
Mg79 O96 2.079 1_545 S
O80 Mg77 2.180 . S
O80 Mg79 2.099 . S
O80 C91 1.279 . S
O81 Mg77 2.117 . S
O81 C91 1.250 . S
O82 Mg79 2.079 1_565 S
O82 C92 1.264 . S
O83 Mg79 2.072 1_655 S
O83 C93 1.260 . S
Mg84 O85 2.180 . S
Mg84 O86 2.030 1_655 S
Mg84 O87 1.990 1_565 S
Mg84 O88 2.117 . S
O85 Mg79 2.099 1_665 S
O85 Mg84 2.180 . S
O85 C94 1.279 . S
O86 Mg84 2.030 1_455 S
O86 C92 1.248 . S
O87 Mg84 1.990 1_545 S
O87 C93 1.253 . S
O88 Mg84 2.117 . S
O88 C94 1.250 . S
C89 O95 1.248 1_565 S
C89 O96 1.264 . S
C90 O76 1.253 1_655 S
C90 O78 1.260 . S
C91 O80 1.279 . S
C91 O81 1.250 . S
C92 O82 1.264 . S
C92 O86 1.248 . S
C93 O83 1.260 . S
C93 O87 1.253 . S
C94 O85 1.279 . S
C94 O88 1.250 . S
O95 Mg77 2.030 . S
O95 C89 1.248 1_545 S
O96 Mg79 2.079 1_565 S
O96 C89 1.264 . S
O97 Mg98 1.990 . S
O97 C111 1.253 . S
Mg98 O97 1.990 . S
Mg98 O101 2.180 . S
Mg98 O102 2.117 . S
Mg98 O116 2.030 . S
O99 Mg100 2.072 . S
O99 C111 1.260 . S
Mg100 O99 2.072 . S
Mg100 O101 2.099 . S
Mg100 O103 2.079 1_554 S
Mg100 O104 2.072 1_554 S
Mg100 O106 2.099 . S
Mg100 O117 2.079 . S
O101 Mg98 2.180 . S
O101 Mg100 2.099 . S
O101 C112 1.279 . S
O102 Mg98 2.117 . S
O102 C112 1.250 . S
O103 Mg100 2.079 1_556 S
O103 C113 1.264 . S
O104 Mg100 2.072 1_556 S
O104 C114 1.260 . S
Mg105 O106 2.180 1_556 S
Mg105 O107 2.030 . S
Mg105 O108 1.990 . S
Mg105 O109 2.117 . S
O106 Mg100 2.099 . S
O106 Mg105 2.180 1_554 S
O106 C115 1.279 . S
O107 Mg105 2.030 . S
O107 C113 1.248 . S
O108 Mg105 1.990 . S
O108 C114 1.253 . S
O109 Mg105 2.117 . S
O109 C115 1.250 1_556 S
C110 O116 1.248 . S
C110 O117 1.264 . S
C111 O97 1.253 . S
C111 O99 1.260 . S
C112 O101 1.279 . S
C112 O102 1.250 . S
C113 O103 1.264 . S
C113 O107 1.248 . S
C114 O104 1.260 . S
C114 O108 1.253 . S
C115 O106 1.279 . S
C115 O109 1.250 1_554 S
O116 Mg98 2.030 . S
O116 C110 1.248 . S
O117 Mg100 2.079 . S
O117 C110 1.264 . S
C118 C119 1.391 . S
C118 C120 1.394 . S
C118 H134 0.931 . S
C119 C118 1.391 . S
C119 C123 1.376 . S
C120 C118 1.394 . S
C120 C121 1.369 . S
C120 C124 1.531 . S
C121 C120 1.369 . S
C121 C122 1.410 . S
C121 C129 1.503 . S
C122 C121 1.410 . S
C122 C123 1.392 . S
C122 C125 1.511 . S
C123 C119 1.376 . S
C123 C122 1.392 . S
C123 H135 0.929 . S
C124 C120 1.531 . S
C124 H136 0.960 . S
C124 H137 0.962 . S
C124 H138 0.960 . S
C125 C122 1.511 . S
C125 H139 0.961 . S
C125 H140 0.961 . S
C125 H141 0.961 . S
C126 C127 1.370 . S
C126 C128 1.363 . S
C126 H142 0.931 . S
C127 C126 1.370 . S
C127 C131 1.408 . S
C128 C126 1.363 . S
C128 C129 1.370 . S
C128 C132 1.524 . S
C129 C121 1.503 . S
C129 C128 1.370 . S
C129 C130 1.403 . S
C130 C129 1.403 . S
C130 C131 1.404 . S
C130 C133 1.539 . S
C131 C127 1.408 . S
C131 C130 1.404 . S
C131 H143 0.930 . S
C132 C128 1.524 . S
C132 H144 0.956 . S
C132 H145 0.961 . S
C132 H146 0.961 . S
C133 C130 1.539 . S
C133 H147 0.958 . S
C133 H148 0.961 . S
C133 H149 0.960 . S
H134 C118 0.931 . S
H135 C123 0.929 . S
H136 C124 0.960 . S
H137 C124 0.962 . S
H138 C124 0.960 . S
H139 C125 0.961 . S
H140 C125 0.961 . S
H141 C125 0.961 . S
H142 C126 0.931 . S
H143 C131 0.930 . S
H144 C132 0.956 . S
H145 C132 0.961 . S
H146 C132 0.961 . S
H147 C133 0.958 . S
H148 C133 0.961 . S
H149 C133 0.960 . S
C150 C151 1.391 . S
C150 C152 1.394 . S
C150 H166 0.931 . S
C151 C150 1.391 . S
C151 C155 1.376 . S
C152 C150 1.394 . S
C152 C153 1.369 . S
C152 C156 1.531 . S
C153 C152 1.369 . S
C153 C154 1.410 . S
C153 C161 1.503 . S
C154 C153 1.410 . S
C154 C155 1.392 . S
C154 C157 1.511 . S
C155 C151 1.376 . S
C155 C154 1.392 . S
C155 H167 0.929 . S
C156 C152 1.531 . S
C156 H168 0.960 . S
C156 H169 0.962 . S
C156 H170 0.960 . S
C157 C154 1.511 . S
C157 H171 0.961 . S
C157 H172 0.961 . S
C157 H173 0.961 . S
C158 C159 1.370 . S
C158 C160 1.363 . S
C158 H174 0.931 . S
C159 C158 1.370 . S
C159 C163 1.408 . S
C160 C158 1.363 . S
C160 C161 1.370 . S
C160 C164 1.524 . S
C161 C153 1.503 . S
C161 C160 1.370 . S
C161 C162 1.403 . S
C162 C161 1.403 . S
C162 C163 1.404 . S
C162 C165 1.539 1_554 S
C163 C159 1.408 . S
C163 C162 1.404 . S
C163 H175 0.930 1_554 S
C164 C160 1.524 . S
C164 H176 0.956 . S
C164 H177 0.961 . S
C164 H178 0.961 . S
C165 C162 1.539 1_556 S
C165 H179 0.958 . S
C165 H180 0.961 . S
C165 H181 0.960 . S
H166 C150 0.931 . S
H167 C155 0.929 . S
H168 C156 0.960 . S
H169 C156 0.962 . S
H170 C156 0.960 . S
H171 C157 0.961 . S
H172 C157 0.961 . S
H173 C157 0.961 . S
H174 C158 0.931 . S
H175 C163 0.930 1_556 S
H176 C164 0.956 . S
H177 C164 0.961 . S
H178 C164 0.961 . S
H179 C165 0.958 . S
H180 C165 0.961 . S
H181 C165 0.960 . S
C182 C183 1.391 . S
C182 C184 1.394 . S
C182 H198 0.931 . S
C183 C182 1.391 . S
C183 C187 1.376 . S
C184 C182 1.394 . S
C184 C185 1.369 . S
C184 C188 1.531 . S
C185 C184 1.369 . S
C185 C186 1.410 . S
C185 C193 1.503 . S
C186 C185 1.410 . S
C186 C187 1.392 . S
C186 C189 1.511 . S
C187 C183 1.376 . S
C187 C186 1.392 . S
C187 H199 0.929 . S
C188 C184 1.531 . S
C188 H200 0.960 . S
C188 H201 0.962 . S
C188 H202 0.960 . S
C189 C186 1.511 . S
C189 H203 0.961 . S
C189 H204 0.961 . S
C189 H205 0.961 . S
C190 C191 1.370 . S
C190 C192 1.363 . S
C190 H206 0.931 . S
C191 C190 1.370 . S
C191 C195 1.408 . S
C192 C190 1.363 . S
C192 C193 1.370 . S
C192 C196 1.524 . S
C193 C185 1.503 . S
C193 C192 1.370 . S
C193 C194 1.403 . S
C194 C193 1.403 . S
C194 C195 1.404 . S
C194 C197 1.539 . S
C195 C191 1.408 . S
C195 C194 1.404 . S
C195 H207 0.930 . S
C196 C192 1.524 . S
C196 H208 0.956 . S
C196 H209 0.961 . S
C196 H210 0.961 . S
C197 C194 1.539 . S
C197 H211 0.958 . S
C197 H212 0.961 . S
C197 H213 0.960 . S
H198 C182 0.931 . S
H199 C187 0.929 . S
H200 C188 0.960 . S
H201 C188 0.962 . S
H202 C188 0.960 . S
H203 C189 0.961 . S
H204 C189 0.961 . S
H205 C189 0.961 . S
H206 C190 0.931 . S
H207 C195 0.930 . S
H208 C196 0.956 . S
H209 C196 0.961 . S
H210 C196 0.961 . S
H211 C197 0.958 . S
H212 C197 0.961 . S
H213 C197 0.960 . S
C214 C215 1.391 . S
C214 C216 1.394 . S
C214 H230 0.931 . S
C215 C214 1.391 . S
C215 C219 1.376 1_554 S
C216 C214 1.394 . S
C216 C217 1.369 . S
C216 C220 1.531 . S
C217 C216 1.369 . S
C217 C218 1.410 1_554 S
C217 C225 1.503 . S
C218 C217 1.410 1_556 S
C218 C219 1.392 . S
C218 C221 1.511 . S
C219 C215 1.376 1_556 S
C219 C218 1.392 . S
C219 H231 0.929 . S
C220 C216 1.531 . S
C220 H232 0.960 . S
C220 H233 0.962 . S
C220 H234 0.960 . S
C221 C218 1.511 . S
C221 H235 0.961 . S
C221 H236 0.961 . S
C221 H237 0.961 . S
C222 C223 1.374 . S
C222 C224 1.362 1_554 S
C222 H238 0.928 1_554 S
C223 C222 1.374 . S
C223 C227 1.408 . S
C224 C222 1.362 1_556 S
C224 C225 1.370 1_556 S
C224 C228 1.524 . S
C225 C217 1.503 . S
C225 C224 1.370 1_554 S
C225 C226 1.403 . S
C226 C225 1.403 . S
C226 C227 1.404 . S
C226 C229 1.539 . S
C227 C223 1.408 . S
C227 C226 1.404 . S
C227 H239 0.930 . S
C228 C224 1.524 . S
C228 H240 0.956 . S
C228 H241 0.961 . S
C228 H242 0.961 . S
C229 C226 1.539 . S
C229 H243 0.958 . S
C229 H244 0.961 . S
C229 H245 0.960 . S
H230 C214 0.931 . S
H231 C219 0.929 . S
H232 C220 0.960 . S
H233 C220 0.962 . S
H234 C220 0.960 . S
H235 C221 0.961 . S
H236 C221 0.961 . S
H237 C221 0.961 . S
H238 C222 0.928 1_556 S
H239 C227 0.930 . S
H240 C228 0.956 . S
H241 C228 0.961 . S
H242 C228 0.961 . S
H243 C229 0.958 . S
H244 C229 0.961 . S
H245 C229 0.960 . S
C246 C247 1.391 . S
C246 C248 1.394 . S
C246 H262 0.931 . S
C247 C246 1.391 . S
C247 C251 1.376 . S
C248 C246 1.394 . S
C248 C249 1.369 . S
C248 C252 1.531 . S
C249 C248 1.369 . S
C249 C250 1.410 . S
C249 C257 1.503 . S
C250 C249 1.410 . S
C250 C251 1.392 . S
C250 C253 1.511 . S
C251 C247 1.376 . S
C251 C250 1.392 . S
C251 H263 0.929 . S
C252 C248 1.531 . S
C252 H264 0.960 . S
C252 H265 0.962 . S
C252 H266 0.960 . S
C253 C250 1.511 . S
C253 H267 0.961 . S
C253 H268 0.961 . S
C253 H269 0.961 . S
C254 C255 1.370 . S
C254 C256 1.363 . S
C254 H270 0.931 . S
C255 C254 1.370 . S
C255 C259 1.408 . S
C256 C254 1.363 . S
C256 C257 1.370 . S
C256 C260 1.524 . S
C257 C249 1.503 . S
C257 C256 1.370 . S
C257 C258 1.403 . S
C258 C257 1.403 . S
C258 C259 1.404 . S
C258 C261 1.539 . S
C259 C255 1.408 . S
C259 C258 1.404 . S
C259 H271 0.930 . S
C260 C256 1.524 . S
C260 H272 0.956 . S
C260 H273 0.961 . S
C260 H274 0.961 . S
C261 C258 1.539 . S
C261 H275 0.958 . S
C261 H276 0.961 . S
C261 H277 0.960 . S
H262 C246 0.931 . S
H263 C251 0.929 . S
H264 C252 0.960 . S
H265 C252 0.962 . S
H266 C252 0.960 . S
H267 C253 0.961 . S
H268 C253 0.961 . S
H269 C253 0.961 . S
H270 C254 0.931 . S
H271 C259 0.930 . S
H272 C260 0.956 . S
H273 C260 0.961 . S
H274 C260 0.961 . S
H275 C261 0.958 . S
H276 C261 0.961 . S
H277 C261 0.960 . S
C278 C279 1.391 . S
C278 C280 1.394 . S
C278 H294 0.931 . S
C279 C278 1.391 . S
C279 C283 1.376 . S
C280 C278 1.394 . S
C280 C281 1.369 . S
C280 C284 1.531 . S
C281 C280 1.369 . S
C281 C282 1.410 . S
C281 C289 1.503 . S
C282 C281 1.410 . S
C282 C283 1.392 . S
C282 C285 1.511 . S
C283 C279 1.376 . S
C283 C282 1.392 . S
C283 H295 0.929 . S
C284 C280 1.531 . S
C284 H296 0.960 . S
C284 H297 0.962 . S
C284 H298 0.960 . S
C285 C282 1.511 . S
C285 H299 0.961 . S
C285 H300 0.961 . S
C285 H301 0.961 . S
C286 C287 1.370 . S
C286 C288 1.363 . S
C286 H302 0.931 . S
C287 C286 1.370 . S
C287 C291 1.408 . S
C288 C286 1.363 . S
C288 C289 1.370 . S
C288 C292 1.524 . S
C289 C281 1.503 . S
C289 C288 1.370 . S
C289 C290 1.403 . S
C290 C289 1.403 . S
C290 C291 1.404 . S
C290 C293 1.539 . S
C291 C287 1.408 . S
C291 C290 1.404 . S
C291 H303 0.930 . S
C292 C288 1.524 . S
C292 H304 0.956 . S
C292 H305 0.961 . S
C292 H306 0.961 . S
C293 C290 1.539 . S
C293 H307 0.958 . S
C293 H308 0.961 . S
C293 H309 0.960 . S
H294 C278 0.931 . S
H295 C283 0.929 . S
H296 C284 0.960 . S
H297 C284 0.962 . S
H298 C284 0.960 . S
H299 C285 0.961 . S
H300 C285 0.961 . S
H301 C285 0.961 . S
H302 C286 0.931 . S
H303 C291 0.930 . S
H304 C292 0.956 . S
H305 C292 0.961 . S
H306 C292 0.961 . S
H307 C293 0.958 . S
H308 C293 0.961 . S
H309 C293 0.960 . S
C310 C311 1.391 . S
C310 C312 1.394 . S
C310 H326 0.931 . S
C311 C310 1.391 . S
C311 C315 1.376 . S
C312 C310 1.394 . S
C312 C313 1.369 . S
C312 C316 1.531 . S
C313 C312 1.369 . S
C313 C314 1.410 . S
C313 C321 1.503 . S
C314 C313 1.410 . S
C314 C315 1.392 . S
C314 C317 1.511 . S
C315 C311 1.376 . S
C315 C314 1.392 . S
C315 H327 0.929 . S
C316 C312 1.531 . S
C316 H328 0.960 . S
C316 H329 0.962 . S
C316 H330 0.960 . S
C317 C314 1.511 . S
C317 H331 0.961 . S
C317 H332 0.961 . S
C317 H333 0.961 . S
C318 C319 1.370 . S
C318 C320 1.363 . S
C318 H334 0.931 . S
C319 C318 1.370 . S
C319 C323 1.408 . S
C320 C318 1.363 . S
C320 C321 1.370 . S
C320 C324 1.524 . S
C321 C313 1.503 . S
C321 C320 1.370 . S
C321 C322 1.403 . S
C322 C321 1.403 . S
C322 C323 1.404 . S
C322 C325 1.539 . S
C323 C319 1.408 . S
C323 C322 1.404 . S
C323 H335 0.930 . S
C324 C320 1.524 . S
C324 H336 0.956 . S
C324 H337 0.961 . S
C324 H338 0.961 . S
C325 C322 1.539 . S
C325 H339 0.958 . S
C325 H340 0.961 . S
C325 H341 0.960 . S
H326 C310 0.931 . S
H327 C315 0.929 . S
H328 C316 0.960 . S
H329 C316 0.962 . S
H330 C316 0.960 . S
H331 C317 0.961 . S
H332 C317 0.961 . S
H333 C317 0.961 . S
H334 C318 0.931 . S
H335 C323 0.930 . S
H336 C324 0.956 . S
H337 C324 0.961 . S
H338 C324 0.961 . S
H339 C325 0.958 . S
H340 C325 0.961 . S
H341 C325 0.960 . S
C342 C343 1.391 . S
C342 C344 1.394 . S
C342 H358 0.931 . S
C343 C342 1.391 . S
C343 C347 1.376 . S
C344 C342 1.394 . S
C344 C345 1.369 . S
C344 C348 1.531 . S
C345 C344 1.369 . S
C345 C346 1.410 . S
C345 C353 1.503 . S
C346 C345 1.410 . S
C346 C347 1.392 . S
C346 C349 1.511 . S
C347 C343 1.376 . S
C347 C346 1.392 . S
C347 H359 0.929 . S
C348 C344 1.531 . S
C348 H360 0.960 . S
C348 H361 0.962 . S
C348 H362 0.960 . S
C349 C346 1.511 . S
C349 H363 0.961 . S
C349 H364 0.961 . S
C349 H365 0.961 . S
C350 C351 1.370 . S
C350 C352 1.363 . S
C350 H366 0.931 . S
C351 C350 1.370 . S
C351 C355 1.408 . S
C352 C350 1.363 . S
C352 C353 1.370 . S
C352 C356 1.524 . S
C353 C345 1.503 . S
C353 C352 1.370 . S
C353 C354 1.403 . S
C354 C353 1.403 . S
C354 C355 1.404 . S
C354 C357 1.539 . S
C355 C351 1.408 . S
C355 C354 1.404 . S
C355 H367 0.930 . S
C356 C352 1.524 . S
C356 H368 0.956 . S
C356 H369 0.961 . S
C356 H370 0.961 . S
C357 C354 1.539 . S
C357 H371 0.958 . S
C357 H372 0.961 . S
C357 H373 0.960 . S
H358 C342 0.931 . S
H359 C347 0.929 . S
H360 C348 0.960 . S
H361 C348 0.962 . S
H362 C348 0.960 . S
H363 C349 0.961 . S
H364 C349 0.961 . S
H365 C349 0.961 . S
H366 C350 0.931 . S
H367 C355 0.930 . S
H368 C356 0.956 . S
H369 C356 0.961 . S
H370 C356 0.961 . S
H371 C357 0.958 . S
H372 C357 0.961 . S
H373 C357 0.960 . S
C374 C375 1.391 . S
C374 C376 1.394 . S
C374 H390 0.931 . S
C375 C374 1.391 . S
C375 C379 1.376 . S
C376 C374 1.394 . S
C376 C377 1.369 . S
C376 C380 1.531 . S
C377 C376 1.369 . S
C377 C378 1.410 . S
C377 C385 1.503 . S
C378 C377 1.410 . S
C378 C379 1.392 . S
C378 C381 1.511 . S
C379 C375 1.376 . S
C379 C378 1.392 . S
C379 H391 0.929 . S
C380 C376 1.531 . S
C380 H392 0.960 . S
C380 H393 0.962 . S
C380 H394 0.960 . S
C381 C378 1.511 . S
C381 H395 0.961 . S
C381 H396 0.961 . S
C381 H397 0.961 . S
C382 C383 1.370 . S
C382 C384 1.363 . S
C382 H398 0.931 . S
C383 C382 1.370 . S
C383 C387 1.408 . S
C384 C382 1.363 . S
C384 C385 1.370 . S
C384 C388 1.524 . S
C385 C377 1.503 . S
C385 C384 1.370 . S
C385 C386 1.403 . S
C386 C385 1.403 . S
C386 C387 1.404 . S
C386 C389 1.539 . S
C387 C383 1.408 . S
C387 C386 1.404 . S
C387 H399 0.930 . S
C388 C384 1.524 . S
C388 H400 0.956 . S
C388 H401 0.961 . S
C388 H402 0.961 . S
C389 C386 1.539 . S
C389 H403 0.958 . S
C389 H404 0.961 . S
C389 H405 0.960 . S
H390 C374 0.931 . S
H391 C379 0.929 . S
H392 C380 0.960 . S
H393 C380 0.962 . S
H394 C380 0.960 . S
H395 C381 0.961 . S
H396 C381 0.961 . S
H397 C381 0.961 . S
H398 C382 0.931 . S
H399 C387 0.930 . S
H400 C388 0.956 . S
H401 C388 0.961 . S
H402 C388 0.961 . S
H403 C389 0.958 . S
H404 C389 0.961 . S
H405 C389 0.960 . S
C406 C407 1.391 . S
C406 C408 1.394 . S
C406 H422 0.931 . S
C407 C406 1.391 . S
C407 C411 1.376 . S
C408 C406 1.394 . S
C408 C409 1.369 . S
C408 C412 1.531 . S
C409 C408 1.369 . S
C409 C410 1.410 . S
C409 C417 1.503 . S
C410 C409 1.410 . S
C410 C411 1.392 . S
C410 C413 1.511 . S
C411 C407 1.376 . S
C411 C410 1.392 . S
C411 H423 0.929 . S
C412 C408 1.531 . S
C412 H424 0.960 . S
C412 H425 0.962 . S
C412 H426 0.960 . S
C413 C410 1.511 . S
C413 H427 0.961 . S
C413 H428 0.961 . S
C413 H429 0.961 . S
C414 C415 1.370 . S
C414 C416 1.363 . S
C414 H430 0.931 . S
C415 C414 1.370 . S
C415 C419 1.408 . S
C416 C414 1.363 . S
C416 C417 1.370 . S
C416 C420 1.524 . S
C417 C409 1.503 . S
C417 C416 1.370 . S
C417 C418 1.403 . S
C418 C417 1.403 . S
C418 C419 1.404 . S
C418 C421 1.539 . S
C419 C415 1.408 . S
C419 C418 1.404 . S
C419 H431 0.930 . S
C420 C416 1.524 . S
C420 H432 0.956 . S
C420 H433 0.961 . S
C420 H434 0.961 . S
C421 C418 1.539 . S
C421 H435 0.958 . S
C421 H436 0.961 . S
C421 H437 0.960 . S
H422 C406 0.931 . S
H423 C411 0.929 . S
H424 C412 0.960 . S
H425 C412 0.962 . S
H426 C412 0.960 . S
H427 C413 0.961 . S
H428 C413 0.961 . S
H429 C413 0.961 . S
H430 C414 0.931 . S
H431 C419 0.930 . S
H432 C420 0.956 . S
H433 C420 0.961 . S
H434 C420 0.961 . S
H435 C421 0.958 . S
H436 C421 0.961 . S
H437 C421 0.960 . S
C438 C439 1.391 . S
C438 C440 1.394 . S
C438 H454 0.931 . S
C439 C438 1.391 . S
C439 C443 1.376 . S
C440 C438 1.394 . S
C440 C441 1.369 . S
C440 C444 1.531 . S
C441 C440 1.369 . S
C441 C442 1.410 . S
C441 C449 1.503 . S
C442 C441 1.410 . S
C442 C443 1.392 . S
C442 C445 1.511 . S
C443 C439 1.376 . S
C443 C442 1.392 . S
C443 H455 0.929 . S
C444 C440 1.531 . S
C444 H456 0.960 . S
C444 H457 0.962 . S
C444 H458 0.960 . S
C445 C442 1.511 . S
C445 H459 0.961 . S
C445 H460 0.961 . S
C445 H461 0.961 . S
C446 C447 1.370 . S
C446 C448 1.363 . S
C446 H462 0.931 . S
C447 C446 1.370 . S
C447 C451 1.408 . S
C448 C446 1.363 . S
C448 C449 1.370 . S
C448 C452 1.524 . S
C449 C441 1.503 . S
C449 C448 1.370 . S
C449 C450 1.403 . S
C450 C449 1.403 . S
C450 C451 1.404 . S
C450 C453 1.539 . S
C451 C447 1.408 . S
C451 C450 1.404 . S
C451 H463 0.930 . S
C452 C448 1.524 . S
C452 H464 0.956 . S
C452 H465 0.961 . S
C452 H466 0.961 . S
C453 C450 1.539 . S
C453 H467 0.958 . S
C453 H468 0.961 . S
C453 H469 0.960 . S
H454 C438 0.931 . S
H455 C443 0.929 . S
H456 C444 0.960 . S
H457 C444 0.962 . S
H458 C444 0.960 . S
H459 C445 0.961 . S
H460 C445 0.961 . S
H461 C445 0.961 . S
H462 C446 0.931 . S
H463 C451 0.930 . S
H464 C452 0.956 . S
H465 C452 0.961 . S
H466 C452 0.961 . S
H467 C453 0.958 . S
H468 C453 0.961 . S
H469 C453 0.960 . S
C470 C471 1.391 . S
C470 C472 1.394 . S
C470 H486 0.931 . S
C471 C470 1.391 . S
C471 C475 1.376 . S
C472 C470 1.394 . S
C472 C473 1.369 . S
C472 C476 1.531 . S
C473 C472 1.369 . S
C473 C474 1.410 . S
C473 C481 1.503 . S
C474 C473 1.410 . S
C474 C475 1.392 . S
C474 C477 1.511 . S
C475 C471 1.376 . S
C475 C474 1.392 . S
C475 H487 0.929 . S
C476 C472 1.531 . S
C476 H488 0.960 . S
C476 H489 0.962 . S
C476 H490 0.960 . S
C477 C474 1.511 . S
C477 H491 0.961 . S
C477 H492 0.961 . S
C477 H493 0.961 . S
C478 C479 1.370 . S
C478 C480 1.363 . S
C478 H494 0.931 1_565 S
C479 C478 1.370 . S
C479 C483 1.408 . S
C480 C478 1.363 . S
C480 C481 1.370 . S
C480 C484 1.524 . S
C481 C473 1.503 . S
C481 C480 1.370 . S
C481 C482 1.403 . S
C482 C481 1.403 . S
C482 C483 1.404 . S
C482 C485 1.539 . S
C483 C479 1.408 . S
C483 C482 1.404 . S
C483 H495 0.930 . S
C484 C480 1.524 . S
C484 H496 0.956 . S
C484 H497 0.961 . S
C484 H498 0.961 1_565 S
C485 C482 1.539 . S
C485 H499 0.958 . S
C485 H500 0.961 . S
C485 H501 0.960 . S
H486 C470 0.931 . S
H487 C475 0.929 . S
H488 C476 0.960 . S
H489 C476 0.962 . S
H490 C476 0.960 . S
H491 C477 0.961 . S
H492 C477 0.961 . S
H493 C477 0.961 . S
H494 C478 0.931 1_545 S
H495 C483 0.930 . S
H496 C484 0.956 . S
H497 C484 0.961 . S
H498 C484 0.961 1_545 S
H499 C485 0.958 . S
H500 C485 0.961 . S
H501 C485 0.960 . S
C127 C91 1.311 . S
C119 C68 1.347 . S
C151 C11 1.338 . S
C159 C115 1.318 . S
C183 C30 1.572 . S
C191 C94 1.424 . S
C215 C49 1.561 1_554 S
C223 C112 1.409 . S
C255 C92 1.568 . S
C247 C2 1.572 . S
C287 C114 1.585 . S
C279 C25 1.670 . S
C311 C40 1.625 . S
C319 C93 1.593 . S
C343 C59 1.539 . S
C351 C113 1.500 . S
C383 C111 1.503 . S
C375 C21 1.547 . S
C415 C90 1.505 . S
C407 C44 1.553 . S
C447 C110 1.459 . S
C439 C63 1.489 . S
C471 C6 1.484 1_556 S
C479 C89 1.448 . S
