# Generated by pormake.
# Topology anh, (6,3)-cn, num edge types: 1
# Building blocks:
#     Node 0, Type 0, BuildingBlock: BETFAJ_clean_sbu_0, # of connection points: 6
#     Node 1, Type 0, BuildingBlock: BETFAJ_clean_sbu_0, # of connection points: 6
#     Node 2, Type 0, BuildingBlock: BETFAJ_clean_sbu_0, # of connection points: 6
#     Node 3, Type 1, BuildingBlock: KAKCAD_clean_linker_0, # of connection points: 3
#     Node 4, Type 1, BuildingBlock: KAKCAD_clean_linker_0, # of connection points: 3
#     Node 5, Type 1, BuildingBlock: KAKCAD_clean_linker_0, # of connection points: 3
#     Node 6, Type 1, BuildingBlock: KAKCAD_clean_linker_0, # of connection points: 3
#     Node 7, Type 1, BuildingBlock: KAKCAD_clean_linker_0, # of connection points: 3
#     Node 8, Type 1, BuildingBlock: KAKCAD_clean_linker_0, # of connection points: 3
#     Edge 9, Type (0, 1), BuildingBlock: XUDNAN_clean_linker_2, # of connection points: 2
#     Edge 10, Type (0, 1), BuildingBlock: XUDNAN_clean_linker_2, # of connection points: 2
#     Edge 11, Type (0, 1), BuildingBlock: XUDNAN_clean_linker_2, # of connection points: 2
#     Edge 12, Type (0, 1), BuildingBlock: XUDNAN_clean_linker_2, # of connection points: 2
#     Edge 13, Type (0, 1), BuildingBlock: XUDNAN_clean_linker_2, # of connection points: 2
#     Edge 14, Type (0, 1), BuildingBlock: XUDNAN_clean_linker_2, # of connection points: 2
#     Edge 15, Type (0, 1), BuildingBlock: XUDNAN_clean_linker_2, # of connection points: 2
#     Edge 16, Type (0, 1), BuildingBlock: XUDNAN_clean_linker_2, # of connection points: 2
#     Edge 17, Type (0, 1), BuildingBlock: XUDNAN_clean_linker_2, # of connection points: 2
#     Edge 18, Type (0, 1), BuildingBlock: XUDNAN_clean_linker_2, # of connection points: 2
#     Edge 19, Type (0, 1), BuildingBlock: XUDNAN_clean_linker_2, # of connection points: 2
#     Edge 20, Type (0, 1), BuildingBlock: XUDNAN_clean_linker_2, # of connection points: 2
#     Edge 21, Type (0, 1), BuildingBlock: XUDNAN_clean_linker_2, # of connection points: 2
#     Edge 22, Type (0, 1), BuildingBlock: XUDNAN_clean_linker_2, # of connection points: 2
#     Edge 23, Type (0, 1), BuildingBlock: XUDNAN_clean_linker_2, # of connection points: 2
#     Edge 24, Type (0, 1), BuildingBlock: XUDNAN_clean_linker_2, # of connection points: 2
#     Edge 25, Type (0, 1), BuildingBlock: XUDNAN_clean_linker_2, # of connection points: 2
#     Edge 26, Type (0, 1), BuildingBlock: XUDNAN_clean_linker_2, # of connection points: 2
# Relax obj value: 0.182
# Max RMSD: 0.209
# Mean RMSD: 0.155
data_MOF--net-anh--node1-BETFAJ_clean_sbu_0--node2-KAKCAD_clean_linker_0--edge1-XUDNAN_clean_linker_2
_symmetry_space_group_name_H-M    P1
_symmetry_Int_Tables_number       1
_symmetry_cell_setting            triclinic
loop_
_symmetry_equiv_pos_as_xyz
'x, y, z'
_cell_length_a     36.926647
_cell_length_b     43.771695
_cell_length_c     66.661372
_cell_angle_alpha  92.153103
_cell_angle_beta   89.836705
_cell_angle_gamma 128.44275
loop_
_atom_site_label
_atom_site_type_symbol
_atom_site_fract_x
_atom_site_fract_y
_atom_site_fract_z
_atom_type_partial_charge
Sm0 Sm 0.1119 0.51792 0.14585 0.0
Sm1 Sm 1.04316 0.53873 0.15461 0.0
C2 C 0.17021 0.50992 0.12917 0.0
C3 C 0.21847 0.527 0.13448 0.0
C4 C 0.25575 0.56155 0.12593 0.0
C5 C 0.30125 0.57899 0.13197 0.0
C6 C 0.31032 0.5622 0.14667 0.0
C7 C 0.27308 0.52746 0.15503 0.0
C8 C 0.22772 0.51 0.14898 0.0
C9 C 0.11199 0.53463 0.18639 0.0
C10 C 0.15168 0.61038 0.14979 0.0
C11 C 0.97753 0.53931 0.16971 0.0
C12 C 0.93004 0.50783 0.17607 0.0
C13 C 0.92007 0.50209 0.1966 0.0
C14 C 0.87577 0.47113 0.20271 0.0
C15 C 0.84054 0.44539 0.1884 0.0
C16 C 0.85064 0.45142 0.16788 0.0
C17 C 0.89478 0.48213 0.1618 0.0
C18 C 1.06102 0.53308 0.11515 0.0
C19 C 1.00285 0.44556 0.15242 0.0
O20 O 0.16353 0.53407 0.12267 0.0
O21 O 0.13848 0.4848 0.14156 0.0
O22 O 0.09117 0.53545 0.17196 0.0
O23 O 0.13552 0.52384 0.17944 0.0
O24 O 0.15554 0.58446 0.14152 0.0
O25 O 0.11346 0.60006 0.15853 0.0
O26 O 1.011 0.54555 0.18073 0.0
O27 O 0.98526 0.5409 0.15042 0.0
O28 O 1.05476 0.51129 0.12884 0.0
O29 O 1.05547 0.5583 0.12178 0.0
O30 O 0.9965 0.47139 0.15795 0.0
O31 O 1.04251 0.4561 0.14533 0.0
H32 H 0.24978 0.57532 0.11469 0.0
H33 H 0.32934 0.60563 0.12518 0.0
H34 H 0.279 0.5132 0.16596 0.0
H35 H 0.19992 0.48323 0.15576 0.0
H36 H 0.94665 0.5214 0.20794 0.0
H37 H 0.86915 0.46731 0.21861 0.0
H38 H 0.82412 0.43293 0.15639 0.0
H39 H 0.90111 0.48563 0.14586 0.0
Sm40 Sm 0.63976 0.02678 0.47756 0.0
Sm41 Sm 0.58948 0.05814 0.46809 0.0
C42 C 0.66898 0.99086 0.49358 0.0
C43 C 0.65162 0.95059 0.49568 0.0
C44 C 0.61136 0.91924 0.48531 0.0
C45 C 0.59482 0.88093 0.4878 0.0
C46 C 0.61848 0.8735 0.50065 0.0
C47 C 0.65875 0.90517 0.51102 0.0
C48 C 0.67512 0.94335 0.50855 0.0
C49 C 0.63977 0.03893 0.43749 0.0
C50 C 0.52767 0.96517 0.46776 0.0
C51 C 0.55731 0.09451 0.45603 0.0
C52 C 0.55305 0.12412 0.46409 0.0
C53 C 0.57975 0.16149 0.45628 0.0
C54 C 0.57473 0.1892 0.46329 0.0
C55 C 0.54252 0.1799 0.47811 0.0
C56 C 0.51615 0.14263 0.48603 0.0
C57 C 0.52133 0.11507 0.47912 0.0
C58 C 0.5978 0.05098 0.50859 0.0
C59 C 0.70282 0.11933 0.47369 0.0
O60 O 0.64732 1.00104 0.50369 0.0
O61 O 0.67886 1.00372 0.47541 0.0
O62 O 0.60508 0.0245 0.44852 0.0
O63 O 0.67432 0.04508 0.44722 0.0
O64 O 0.5627 0.97145 0.47776 0.0
O65 O 0.53218 0.9939 0.4591 0.0
O66 O 0.59884 0.10636 0.45206 0.0
O67 O 0.53173 0.06042 0.46402 0.0
O68 O 0.62837 0.06382 0.49579 0.0
O69 O 0.56091 0.04318 0.50055 0.0
O70 O 0.66641 0.11158 0.46414 0.0
O71 O 0.6997 0.092 0.48333 0.0
H72 H 0.59286 0.92444 0.47529 0.0
H73 H 0.5639 0.85724 0.4795 0.0
H74 H 0.67731 0.90044 0.52131 0.0
H75 H 0.70605 0.96724 0.51678 0.0
H76 H 0.6042 0.16917 0.44459 0.0
H77 H 0.59526 0.21758 0.45679 0.0
H78 H 0.49152 0.13477 0.49765 0.0
H79 H 0.50017 0.08658 0.4855 0.0
Sm80 Sm 0.61243 0.56728 0.84529 0.0
Sm81 Sm 0.55446 0.479 0.84304 0.0
C82 C 0.65172 0.641 0.8384 0.0
C83 C 0.63901 0.66668 0.83593 0.0
C84 C 0.60363 0.65662 0.82237 0.0
C85 C 0.59408 0.6825 0.81949 0.0
C86 C 0.61936 0.71871 0.83026 0.0
C87 C 0.65406 0.72831 0.84409 0.0
C88 C 0.66389 0.70261 0.84683 0.0
C89 C 0.5919 0.53326 0.88156 0.0
C90 C 0.49687 0.51373 0.8444 0.0
C91 C 0.51547 0.40515 0.84942 0.0
C92 C 0.52584 0.37801 0.84598 0.0
C93 C 0.49998 0.34261 0.85564 0.0
C94 C 0.50882 0.31611 0.85234 0.0
C95 C 0.54367 0.32456 0.83926 0.0
C96 C 0.56984 0.36033 0.82971 0.0
C97 C 0.5611 0.38694 0.83311 0.0
C98 C 0.5752 0.51183 0.80635 0.0
C99 C 0.67058 0.53313 0.84546 0.0
O100 O 0.63818 0.61425 0.82414 0.0
O101 O 0.64866 0.62876 0.85641 0.0
O102 O 0.56449 0.52102 0.86674 0.0
O103 O 0.63206 0.56607 0.87804 0.0
O104 O 0.53722 0.54813 0.84108 0.0
O105 O 0.49519 0.48319 0.84788 0.0
O106 O 0.54165 0.43364 0.86285 0.0
O107 O 0.50687 0.41628 0.8334 0.0
O108 O 0.60275 0.5251 0.82126 0.0
O109 O 0.53571 0.4788 0.81015 0.0
O110 O 0.62976 0.49815 0.84713 0.0
O111 O 0.67288 0.56423 0.8429 0.0
H112 H 0.58364 0.62895 0.81384 0.0
H113 H 0.56681 0.67416 0.8089 0.0
H114 H 0.67442 0.75615 0.85246 0.0
H115 H 0.69141 0.71103 0.85729 0.0
H116 H 0.47268 0.33532 0.86563 0.0
H117 H 0.48772 0.28863 0.85973 0.0
H118 H 0.59724 0.36784 0.81973 0.0
H119 H 0.58166 0.41437 0.82565 0.0
C120 C 0.58319 0.06487 0.28589 0.0
C121 C 0.5846 0.03582 0.29298 0.0
C122 C 0.5748 0.0652 0.26545 0.0
C123 C 0.5668 0.03602 0.25191 0.0
C124 C 0.56623 1.00606 0.25925 0.0
C125 C 0.57544 1.00616 0.27956 0.0
C126 C 0.56225 0.03796 0.22999 0.0
C127 C 0.59594 0.07208 0.22016 0.0
C128 C 0.59555 0.07306 0.19907 0.0
C129 C 0.56016 0.03879 0.18781 0.0
C130 C 0.52514 1.00468 0.19762 0.0
C131 C 0.52669 1.00469 0.21865 0.0
C132 C 0.48751 0.9679 0.18643 0.0
C133 C 0.44106 0.94947 0.19087 0.0
C134 C 0.49768 0.94842 0.17336 0.0
C135 C 0.46226 0.91055 0.16558 0.0
C136 C 0.41561 0.8914 0.17044 0.0
C137 C 0.63398 0.10955 0.18931 0.0
C138 C 0.65119 0.14643 0.19777 0.0
C139 C 0.65668 0.10815 0.17276 0.0
C140 C 0.697 0.14258 0.16563 0.0
C141 C 0.71566 0.17935 0.17484 0.0
C142 C 0.69141 0.18077 0.19067 0.0
C143 C 0.40558 0.91195 0.18285 0.0
H144 H 0.59056 0.08819 0.296 0.0
H145 H 0.57533 0.08856 0.26014 0.0
H146 H 0.5606 0.98344 0.24913 0.0
H147 H 0.57655 0.98357 0.28473 0.0
H148 H 0.62408 0.09738 0.22898 0.0
H149 H 0.50067 0.97824 0.22624 0.0
H150 H 0.55941 0.03876 0.17156 0.0
H151 H 0.4323 0.96386 0.20096 0.0
H152 H 0.53326 0.96168 0.16999 0.0
H153 H 0.47188 0.89582 0.1564 0.0
H154 H 0.63425 0.14872 0.21035 0.0
H155 H 0.64457 0.08036 0.16589 0.0
H156 H 0.3703 0.89896 0.1866 0.0
H157 H 0.70454 0.20831 0.19825 0.0
H158 H 0.71409 0.14026 0.15314 0.0
C159 C 0.5828 0.50776 0.65106 0.0
C160 C 0.61244 0.54462 0.66114 0.0
C161 C 0.57811 0.50449 0.63014 0.0
C162 C 0.6032 0.53797 0.61873 0.0
C163 C 0.63347 0.5748 0.62877 0.0
C164 C 0.63796 0.57809 0.64972 0.0
C165 C 0.59683 0.53453 0.59649 0.0
C166 C 0.59454 0.56101 0.58653 0.0
C167 C 0.58693 0.55739 0.56565 0.0
C168 C 0.58125 0.5266 0.55464 0.0
C169 C 0.58355 0.4998 0.5643 0.0
C170 C 0.59154 0.50414 0.58521 0.0
C171 C 0.57629 0.46656 0.55275 0.0
C172 C 0.54096 0.44513 0.53791 0.0
C173 C 0.60339 0.45502 0.55701 0.0
C174 C 0.59453 0.4222 0.54709 0.0
C175 C 0.55836 0.40013 0.53265 0.0
C176 C 0.58428 0.58563 0.55554 0.0
C177 C 0.54888 0.57271 0.5413 0.0
C178 C 0.61636 0.62575 0.56065 0.0
C179 C 0.61273 0.65231 0.552 0.0
C180 C 0.57685 0.63941 0.53805 0.0
C181 C 0.54509 0.59933 0.5327 0.0
C182 C 0.5321 0.41232 0.52798 0.0
H183 H 0.56316 0.4813 0.65933 0.0
H184 H 0.55408 0.47568 0.62295 0.0
H185 H 0.65376 0.60118 0.62044 0.0
H186 H 0.66081 0.60696 0.65696 0.0
H187 H 0.59716 0.58384 0.59514 0.0
H188 H 0.59306 0.48347 0.59278 0.0
H189 H 0.5759 0.52394 0.53849 0.0
H190 H 0.51923 0.45305 0.53436 0.0
H191 H 0.63128 0.4712 0.56817 0.0
H192 H 0.61521 0.41349 0.55116 0.0
H193 H 0.52345 0.54193 0.53718 0.0
H194 H 0.64425 0.63662 0.57144 0.0
H195 H 0.50439 0.39629 0.51675 0.0
H196 H 0.51728 0.58854 0.52188 0.0
H197 H 0.63746 0.68293 0.55662 0.0
C198 C 0.12272 0.5537 0.95938 0.0
C199 C 0.08396 0.52141 0.96865 0.0
C200 C 0.12378 0.55536 0.93841 0.0
C201 C 0.08565 0.52522 0.92646 0.0
C202 C 1.04659 0.49335 0.9358 0.0
C203 C 1.04595 0.49127 0.95668 0.0
C204 C 0.08648 0.52658 0.90426 0.0
C205 C 0.12147 0.52991 0.89368 0.0
C206 C 0.1219 0.52918 0.87256 0.0
C207 C 0.08558 0.52579 0.86196 0.0
C208 C 1.0498 0.52296 0.87268 0.0
C209 C 1.05132 0.52321 0.89379 0.0
C210 C 1.01049 0.52057 0.86324 0.0
C211 C 1.0186 0.54844 0.85 0.0
C212 C 0.96513 0.49449 0.87056 0.0
C213 C 0.93037 0.49778 0.86603 0.0
C214 C 0.93911 0.52727 0.85385 0.0
C215 C 0.16016 0.53034 0.86289 0.0
C216 C 0.20642 0.55778 0.87016 0.0
C217 C 0.15033 0.50003 0.84969 0.0
C218 C 0.18468 0.49597 0.84499 0.0
C219 C 0.23033 0.52206 0.85331 0.0
C220 C 0.24073 0.55383 0.86545 0.0
C221 C 0.98363 0.55164 0.84535 0.0
H222 H 0.15249 0.57719 0.96832 0.0
H223 H 0.15421 0.58028 0.93153 0.0
H224 H 1.01687 0.4697 0.92689 0.0
H225 H 1.01563 0.46615 0.96351 0.0
H226 H 0.14779 0.53156 0.90209 0.0
H227 H 1.02521 0.52159 0.90236 0.0
H228 H 0.0851 0.52526 0.84571 0.0
H229 H 1.05278 0.56926 0.84408 0.0
H230 H 0.95702 0.47241 0.88075 0.0
H231 H 0.89725 0.47825 0.87304 0.0
H232 H 0.21566 0.5815 0.88046 0.0
H233 H 0.11534 0.47801 0.84392 0.0
H234 H 0.99217 0.57412 0.83539 0.0
H235 H 0.27485 0.57465 0.8723 0.0
H236 H 0.17488 0.47151 0.8352 0.0
C237 C 0.1081 0.57391 0.34614 0.0
C238 C 0.09459 0.54194 0.33337 0.0
C239 C 0.11138 0.57255 0.3669 0.0
C240 C 0.1014 0.53925 0.37543 0.0
C241 C 0.08736 0.50708 0.36271 0.0
C242 C 0.08401 0.50842 0.34191 0.0
C243 C 0.10636 0.53846 0.3975 0.0
C244 C 0.07322 0.50504 0.40795 0.0
C245 C 0.07766 0.50432 0.42882 0.0
C246 C 0.11566 0.53784 0.43941 0.0
C247 C 0.14909 0.57167 0.42911 0.0
C248 C 0.14426 0.57145 0.40821 0.0
C249 C 0.18785 0.60854 0.43982 0.0
C250 C 0.17885 0.62584 0.45507 0.0
C251 C 0.23312 0.62952 0.43276 0.0
C252 C 0.26797 0.66792 0.43985 0.0
C253 C 0.25814 0.68633 0.45398 0.0
C254 C 1.04236 0.46799 0.43915 0.0
C255 C 0.99529 0.45066 0.43697 0.0
C256 C 1.05495 0.44846 0.44953 0.0
C257 C 1.02096 0.41147 0.45687 0.0
C258 C 0.97354 0.39343 0.45428 0.0
C259 C 0.96135 0.41407 0.44461 0.0
C260 C 0.21359 0.66445 0.462 0.0
H261 H 0.11699 0.60035 0.34008 0.0
H262 H 0.12167 0.59764 0.37629 0.0
H263 H 0.07974 0.48109 0.36878 0.0
H264 H 0.07298 0.4831 0.33253 0.0
H265 H 1.0437 0.4794 0.39985 0.0
H266 H 0.16997 0.59744 0.40026 0.0
H267 H 0.11899 0.53768 0.45555 0.0
H268 H 0.14423 0.61046 0.46068 0.0
H269 H 0.241 0.61681 0.42101 0.0
H270 H 0.30179 0.68398 0.43328 0.0
H271 H 0.98474 0.46527 0.42907 0.0
H272 H 0.09102 0.46101 0.45116 0.0
H273 H 0.2051 0.67775 0.47305 0.0
H274 H 0.92549 0.4019 0.44274 0.0
H275 H 1.03202 0.39653 0.46391 0.0
C276 C 0.56575 0.9951 0.66286 0.0
C277 C 0.60059 0.03132 0.65489 0.0
C278 C 0.5605 0.99166 0.68367 0.0
C279 C 0.5894 0.02456 0.69679 0.0
C280 C 0.62371 0.06084 0.68874 0.0
C281 C 0.62944 0.06413 0.66803 0.0
C282 C 0.58421 0.0214 0.71884 0.0
C283 C 0.5832 0.99304 0.72867 0.0
C284 C 0.5812 0.99164 0.74972 0.0
C285 C 0.57895 0.01839 0.76081 0.0
C286 C 0.57943 0.04667 0.75119 0.0
C287 C 0.58224 0.04799 0.73019 0.0
C288 C 0.57755 0.07511 0.76309 0.0
C289 C 0.54783 0.06299 0.77937 0.0
C290 C 0.60549 0.11461 0.75826 0.0
C291 C 0.60373 0.14132 0.76944 0.0
C292 C 0.57407 0.12919 0.78574 0.0
C293 C 0.58313 0.96327 0.76026 0.0
C294 C 0.55776 0.92431 0.75293 0.0
C295 C 0.61058 0.97512 0.77784 0.0
C296 C 0.61218 0.94863 0.78799 0.0
C297 C 0.58637 0.90953 0.78085 0.0
C298 C 0.55935 0.89773 0.76311 0.0
C299 C 0.54613 0.08971 0.79056 0.0
H300 H 0.54323 0.96936 0.65302 0.0
H301 H 0.53366 0.96341 0.68952 0.0
H302 H 0.64661 0.08659 0.69852 0.0
H303 H 0.65639 0.09242 0.66225 0.0
H304 H 0.58598 0.97319 0.71996 0.0
H305 H 0.58222 0.06942 0.72256 0.0
H306 H 0.57729 0.01745 0.77703 0.0
H307 H 0.52531 0.03268 0.7833 0.0
H308 H 0.62931 0.12505 0.74601 0.0
H309 H 0.62616 0.17162 0.7655 0.0
H310 H 0.536 0.91417 0.73952 0.0
H311 H 0.63137 1.00511 0.78366 0.0
H312 H 0.52234 0.07928 0.80282 0.0
H313 H 0.53872 0.86775 0.7573 0.0
H314 H 0.63415 0.95896 0.80135 0.0
C315 C 0.53062 0.40181 0.02488 0.0
C316 C 0.55845 0.43893 0.01667 0.0
C317 C 0.52894 0.39809 0.04568 0.0
C318 C 0.55538 0.43139 0.05873 0.0
C319 C 0.58506 0.46831 0.05046 0.0
C320 C 0.58629 0.47207 0.02974 0.0
C321 C 0.55044 0.42818 0.08087 0.0
C322 C 0.54539 0.39783 0.09064 0.0
C323 C 0.54112 0.3955 0.11161 0.0
C324 C 0.54254 0.4241 0.12277 0.0
C325 C 0.54747 0.45448 0.1133 0.0
C326 C 0.55068 0.45591 0.09234 0.0
C327 C 0.54819 0.48426 0.12516 0.0
C328 C 0.51804 0.47319 0.14117 0.0
C329 C 0.57693 0.52351 0.11982 0.0
C330 C 0.57305 0.55034 0.12926 0.0
C331 C 0.54075 0.53854 0.14437 0.0
C332 C 0.54044 0.36619 0.12242 0.0
C333 C 0.5734 0.36086 0.11816 0.0
C334 C 0.51226 0.34838 0.13912 0.0
C335 C 0.52061 0.32953 0.15258 0.0
C336 C 0.55747 0.3284 0.14961 0.0
C337 C 0.58189 0.34222 0.13161 0.0
C338 C 0.51449 0.5001 0.15072 0.0
H339 H 0.50938 0.37558 0.01526 0.0
H340 H 0.50568 0.3692 0.05152 0.0
H341 H 0.60675 0.49457 0.06004 0.0
H342 H 0.60783 0.50118 0.0241 0.0
H343 H 0.54563 0.37647 0.08203 0.0
H344 H 0.5524 0.47832 0.08487 0.0
H345 H 0.54159 0.42355 0.13902 0.0
H346 H 0.49517 0.44319 0.14558 0.0
H347 H 0.60138 0.5332 0.10788 0.0
H348 H 0.59377 0.57987 0.12415 0.0
H349 H 0.59574 0.37433 0.10546 0.0
H350 H 0.48587 0.35139 0.14251 0.0
H351 H 0.48868 0.48996 0.16208 0.0
H352 H 0.61093 0.34244 0.12877 0.0
H353 H 0.5006 0.31856 0.16607 0.0
H354 H 0.38054 0.58737 0.12122 0.0
H355 H 0.34696 0.57134 0.18418 0.0
H356 H 0.42 0.58302 0.19194 0.0
H357 H 0.41317 0.53426 0.11748 0.0
H358 H 0.4604 0.56288 0.10062 0.0
H359 H 0.41509 0.56692 0.10095 0.0
H360 H 0.47511 0.64161 0.10827 0.0
H361 H 0.52102 0.63778 0.1079 0.0
H362 H 0.51484 0.66019 0.12945 0.0
H363 H 0.48168 0.57679 0.19146 0.0
H364 H 0.52596 0.55344 0.18263 0.0
H365 H 0.52206 0.57553 0.12023 0.0
C366 C 0.38987 0.5885 0.13677 0.0
C367 C 0.35832 0.57854 0.15209 0.0
C368 C 0.37071 0.57878 0.1722 0.0
C369 C 0.41237 0.5858 0.17677 0.0
C370 C 0.44158 0.59315 0.16111 0.0
C371 C 0.43125 0.59529 0.1415 0.0
C372 C 0.46347 0.59633 0.12695 0.0
C373 C 0.4364 0.56311 0.11058 0.0
C374 C 0.49552 0.63637 0.11759 0.0
C375 C 0.49026 0.59033 0.14113 0.0
C376 C 0.47841 0.59003 0.16089 0.0
C377 C 0.49259 0.57839 0.17619 0.0
C378 C 0.51755 0.565 0.17106 0.0
C379 C 0.52781 0.56323 0.1508 0.0
C380 C 0.51606 0.57796 0.13591 0.0
H381 H 0.72983 0.17782 0.44833 0.0
H382 H 0.7764 0.15188 0.49994 0.0
H383 H 0.84985 0.21937 0.50113 0.0
H384 H 0.84048 0.23755 0.42481 0.0
H385 H 0.83221 0.27102 0.41551 0.0
H386 H 0.78297 0.22103 0.41914 0.0
H387 H 0.74713 0.24445 0.44217 0.0
H388 H 0.7964 0.29452 0.4387 0.0
H389 H 0.77999 0.27674 0.46367 0.0
H390 H 0.91752 0.29059 0.49722 0.0
H391 H 0.97615 0.35826 0.48721 0.0
H392 H 0.88751 0.336 0.4366 0.0
C393 C 0.75542 0.18635 0.45993 0.0
C394 C 0.74726 0.15958 0.47411 0.0
C395 C 0.78188 0.17181 0.48889 0.0
C396 C 0.82366 0.21015 0.48973 0.0
C397 C 0.83054 0.23583 0.47556 0.0
C398 C 0.79757 0.22432 0.46081 0.0
C399 C 0.8141 0.25721 0.44699 0.0
C400 C 0.81766 0.24603 0.42533 0.0
C401 C 0.78252 0.26891 0.44795 0.0
C402 C 0.86147 0.28909 0.45631 0.0
C403 C 0.87014 0.27629 0.47287 0.0
C404 C 0.91129 0.30078 0.48413 0.0
C405 C 0.94462 0.33921 0.4782 0.0
C406 C 0.93706 0.3529 0.46098 0.0
C407 C 0.89459 0.32713 0.45 0.0
H408 H 0.60851 0.74072 0.79418 0.0
H409 H 0.61093 0.76071 0.85857 0.0
H410 H 0.59984 0.80994 0.85291 0.0
H411 H 0.67189 0.83979 0.78175 0.0
H412 H 0.63932 0.82909 0.75887 0.0
H413 H 0.64479 0.79388 0.76796 0.0
H414 H 0.55554 0.74173 0.76767 0.0
H415 H 0.54978 0.77679 0.75854 0.0
H416 H 0.52161 0.75203 0.78119 0.0
H417 H 0.59076 0.85817 0.84027 0.0
H418 H 0.58534 0.90285 0.8216 0.0
H419 H 0.59049 0.85251 0.76534 0.0
C420 C 0.60595 0.75502 0.80708 0.0
C421 C 0.6104 0.74683 0.82683 0.0
C422 C 0.60786 0.76673 0.84332 0.0
C423 C 0.60136 0.79457 0.84026 0.0
C424 C 0.59756 0.80224 0.8206 0.0
C425 C 0.59977 0.78308 0.80428 0.0
C426 C 0.59661 0.79792 0.7847 0.0
C427 C 0.64079 0.81626 0.77261 0.0
C428 C 0.5533 0.76516 0.7723 0.0
C429 C 0.5925 0.82856 0.79256 0.0
C430 C 0.59291 0.83044 0.81331 0.0
C431 C 0.59039 0.85696 0.82403 0.0
C432 C 0.58765 0.88241 0.81327 0.0
C433 C 0.58766 0.88136 0.79198 0.0
C434 C 0.58981 0.85377 0.78157 0.0
H435 H 0.77952 0.37213 0.1713 0.0
H436 H 0.79221 0.44922 0.21837 0.0
H437 H 0.70796 0.40474 0.22195 0.0
H438 H 0.70154 0.36183 0.14554 0.0
H439 H 0.66815 0.31112 0.13734 0.0
H440 H 0.72737 0.33792 0.14471 0.0
H441 H 0.70321 0.28605 0.17123 0.0
H442 H 0.64355 0.25963 0.16346 0.0
H443 H 0.66088 0.27464 0.18948 0.0
H444 H 0.6279 0.36964 0.21201 0.0
H445 H 0.56597 0.3525 0.18898 0.0
H446 H 0.59804 0.2932 0.14839 0.0
C447 C 0.76459 0.37855 0.18298 0.0
C448 C 0.79241 0.41409 0.19447 0.0
C449 C 0.77182 0.42192 0.20954 0.0
C450 C 0.72375 0.39658 0.21173 0.0
C451 C 0.69674 0.36326 0.19893 0.0
C452 C 0.71665 0.35371 0.18508 0.0
C453 C 0.68093 0.32204 0.17005 0.0
C454 C 0.69536 0.33401 0.14817 0.0
C455 C 0.67158 0.2833 0.17378 0.0
C456 C 0.63954 0.31978 0.17559 0.0
C457 C 0.6485 0.34196 0.19305 0.0
C458 C 0.61981 0.35114 0.19878 0.0
C459 C 0.58422 0.34101 0.18551 0.0
C460 C 0.57779 0.32208 0.16663 0.0
C461 C 0.60266 0.30794 0.16269 0.0
H462 H 0.50968 0.89413 0.47077 0.0
H463 H 0.44318 0.94664 0.46142 0.0
H464 H 0.36709 0.88121 0.45927 0.0
H465 H 0.43735 0.81359 0.43544 0.0
H466 H 0.43598 0.77895 0.44994 0.0
H467 H 0.48512 0.82999 0.45221 0.0
H468 H 0.47464 0.82985 0.49059 0.0
H469 H 0.42539 0.77878 0.48847 0.0
H470 H 0.41971 0.81337 0.50018 0.0
H471 H 0.29845 0.81074 0.45803 0.0
H472 H 0.24177 0.73899 0.45435 0.0
H473 H 0.35198 0.73081 0.46271 0.0
C474 C 0.47906 0.89182 0.46843 0.0
C475 C 0.48236 0.92554 0.46637 0.0
C476 C 0.44154 0.92126 0.46299 0.0
C477 C 0.39811 0.88422 0.46187 0.0
C478 C 0.396 0.8516 0.46393 0.0
C479 C 0.43535 0.8549 0.4669 0.0
C480 C 0.42347 0.8149 0.46735 0.0
C481 C 0.44686 0.80902 0.45021 0.0
C482 C 0.43658 0.80888 0.48787 0.0
C483 C 0.37132 0.78868 0.46406 0.0
C484 C 0.35627 0.81058 0.46246 0.0
C485 C 0.30976 0.79323 0.45931 0.0
C486 C 0.27775 0.75241 0.45739 0.0
C487 C 0.29231 0.72922 0.45838 0.0
C488 C 0.3398 0.74775 0.46191 0.0
H489 H 0.5573 0.30173 0.80297 0.0
H490 H 0.54786 0.28177 0.86671 0.0
H491 H 0.55707 0.23104 0.86009 0.0
H492 H 0.49303 0.20275 0.78607 0.0
H493 H 0.52782 0.21272 0.76449 0.0
H494 H 0.52301 0.2489 0.77433 0.0
H495 H 0.61226 0.2994 0.77815 0.0
H496 H 0.61737 0.26339 0.76825 0.0
H497 H 0.64332 0.28771 0.79237 0.0
H498 H 0.56437 0.18087 0.8464 0.0
H499 H 0.56974 0.13502 0.82664 0.0
H500 H 0.5738 0.18738 0.77179 0.0
C501 C 0.55797 0.28715 0.81557 0.0
C502 C 0.55191 0.29571 0.83537 0.0
C503 C 0.55204 0.27543 0.85141 0.0
C504 C 0.55749 0.24673 0.84781 0.0
C505 C 0.5628 0.23867 0.82809 0.0
C506 C 0.56321 0.25834 0.81223 0.0
C507 C 0.56785 0.24315 0.79239 0.0
C508 C 0.52539 0.22585 0.77851 0.0
C509 C 0.61289 0.27533 0.78219 0.0
C510 C 0.56963 0.21167 0.79955 0.0
C511 C 0.56682 0.20964 0.82019 0.0
C512 C 0.56671 0.18224 0.83023 0.0
C513 C 0.56945 0.15615 0.81886 0.0
C514 C 0.57216 0.15755 0.79766 0.0
C515 C 0.57244 0.18589 0.78798 0.0
H516 H 0.66978 0.84802 0.50306 0.0
H517 H 0.52867 0.80754 0.50488 0.0
H518 H 0.5014 0.74124 0.51186 0.0
H519 H 0.64296 0.75816 0.48046 0.0
H520 H 0.687 0.76286 0.49534 0.0
H521 H 0.69447 0.80588 0.48851 0.0
H522 H 0.70629 0.82849 0.52607 0.0
H523 H 0.69878 0.78557 0.53301 0.0
H524 H 0.66264 0.79625 0.54367 0.0
H525 H 0.49066 0.6806 0.52139 0.0
H526 H 0.49743 0.63117 0.53279 0.0
H527 H 0.64574 0.7121 0.52478 0.0
C528 C 0.63309 0.82521 0.50484 0.0
C529 C 0.60138 0.833 0.50345 0.0
C530 C 0.55357 0.80217 0.50564 0.0
C531 C 0.53778 0.76445 0.50967 0.0
C532 C 0.57019 0.75802 0.51132 0.0
C533 C 0.61682 0.78756 0.50886 0.0
C534 C 0.64492 0.77374 0.51233 0.0
C535 C 0.66874 0.77525 0.49301 0.0
C536 C 0.68022 0.79742 0.52981 0.0
C537 C 0.60702 0.73209 0.51772 0.0
C538 C 0.56406 0.72335 0.51682 0.0
C539 C 0.52407 0.68699 0.52191 0.0
C540 C 0.52822 0.65905 0.52828 0.0
C541 C 0.5721 0.66776 0.52965 0.0
C542 C 0.61176 0.70463 0.52401 0.0
H543 H 0.68499 0.47723 0.84994 0.0
H544 H 0.759 0.60096 0.8423 0.0
H545 H 0.83277 0.61176 0.84306 0.0
H546 H 0.77 0.48871 0.8841 0.0
H547 H 0.76372 0.44697 0.87373 0.0
H548 H 0.71582 0.44809 0.87243 0.0
H549 H 0.71017 0.43613 0.83391 0.0
H550 H 0.75807 0.43497 0.83508 0.0
H551 H 0.76048 0.46853 0.81914 0.0
H552 H 0.90014 0.6104 0.84503 0.0
H553 H 0.95531 0.59713 0.84831 0.0
H554 H 0.84086 0.47392 0.85402 0.0
C555 C 0.71668 0.50663 0.84842 0.0
C556 C 0.7153 0.53822 0.84604 0.0
C557 C 0.75817 0.57606 0.84413 0.0
C558 C 0.80068 0.5826 0.84454 0.0
C559 C 0.80084 0.55113 0.84688 0.0
C560 C 0.76001 0.51381 0.8488 0.0
C561 C 0.77057 0.48534 0.85123 0.0
C562 C 0.75404 0.46614 0.87159 0.0
C563 C 0.7485 0.4544 0.8338 0.0
C564 C 0.82351 0.51251 0.85042 0.0
C565 C 0.84001 0.55031 0.84787 0.0
C566 C 0.88741 0.58078 0.84686 0.0
C567 C 0.91879 0.57272 0.84855 0.0
C568 C 0.90356 0.53427 0.85118 0.0
C569 C 0.85465 0.5038 0.85211 0.0
H570 H 0.17962 0.67105 0.17693 0.0
H571 H 0.21565 0.64448 0.12055 0.0
H572 H 0.28477 0.71358 0.11897 0.0
H573 H 0.21982 0.76854 0.16583 0.0
H574 H 0.24295 0.7886 0.19085 0.0
H575 H 0.19445 0.73759 0.18693 0.0
H576 H 0.23959 0.71894 0.20522 0.0
H577 H 0.28816 0.76986 0.20922 0.0
H578 H 0.29588 0.73717 0.19662 0.0
H579 H 0.35021 0.78571 0.12345 0.0
H580 H 0.40971 0.85448 0.13462 0.0
H581 H 0.33526 0.83351 0.18962 0.0
C582 C 0.20174 0.67996 0.16413 0.0
C583 C 0.19195 0.65242 0.14874 0.0
C584 C 0.22237 0.66504 0.13248 0.0
C585 C 0.26167 0.70428 0.13142 0.0
C586 C 0.27062 0.73066 0.14688 0.0
C587 C 0.24179 0.71902 0.16303 0.0
C588 C 0.26098 0.75286 0.17821 0.0
C589 C 0.22755 0.76246 0.18059 0.0
C590 C 0.2718 0.74418 0.19852 0.0
C591 C 0.30496 0.78525 0.16806 0.0
C592 C 0.30957 0.77189 0.14991 0.0
C593 C 0.34714 0.79642 0.13773 0.0
C594 C 0.38111 0.83553 0.14434 0.0
C595 C 0.37796 0.84997 0.16315 0.0
C596 C 0.33892 0.8241 0.17504 0.0
H597 H 0.60903 0.25822 0.48776 0.0
H598 H 0.46044 0.16623 0.48431 0.0
H599 H 0.44844 0.21304 0.49685 0.0
H600 H 0.61129 0.30508 0.53309 0.0
H601 H 0.65653 0.35389 0.52551 0.0
H602 H 0.65357 0.31358 0.5155 0.0
H603 H 0.65133 0.33209 0.47931 0.0
H604 H 0.6544 0.37254 0.48921 0.0
H605 H 0.60768 0.33643 0.47218 0.0
H606 H 0.45245 0.26912 0.51052 0.0
H607 H 0.47219 0.3306 0.52505 0.0
H608 H 0.61823 0.38671 0.51917 0.0
C609 C 0.57398 0.24807 0.48941 0.0
C610 C 0.53564 0.20855 0.48509 0.0
C611 C 0.49031 0.19626 0.48774 0.0
C612 C 0.48314 0.22267 0.49474 0.0
C613 C 0.52164 0.26131 0.499 0.0
C614 C 0.56617 0.27404 0.49645 0.0
C615 C 0.60153 0.31691 0.50271 0.0
C616 C 0.63255 0.32268 0.52025 0.0
C617 C 0.63043 0.3409 0.48478 0.0
C618 C 0.56989 0.32616 0.50932 0.0
C619 C 0.52395 0.29372 0.50694 0.0
C620 C 0.48829 0.29482 0.51231 0.0
C621 C 0.49987 0.32998 0.52044 0.0
C622 C 0.54675 0.36361 0.52316 0.0
C623 C 0.58209 0.36151 0.51741 0.0
H624 H 0.48314 0.57063 0.84554 0.0
H625 H 0.40824 0.44534 0.84446 0.0
H626 H 0.3346 0.43479 0.84576 0.0
H627 H 0.40776 0.57137 0.88044 0.0
H628 H 0.41075 0.60905 0.86841 0.0
H629 H 0.45831 0.60751 0.86672 0.0
H630 H 0.45306 0.60568 0.82801 0.0
H631 H 0.40547 0.60722 0.82955 0.0
H632 H 0.39888 0.56829 0.81513 0.0
H633 H 0.26763 0.43675 0.84742 0.0
H634 H 0.21314 0.45106 0.85039 0.0
H635 H 0.32814 0.57526 0.8509 0.0
C636 C 0.45125 0.54095 0.84547 0.0
C637 C 0.45229 0.50881 0.84482 0.0
C638 C 0.40924 0.47061 0.84495 0.0
C639 C 0.36684 0.46423 0.84566 0.0
C640 C 0.36701 0.49624 0.84637 0.0
C641 C 0.40806 0.53394 0.84637 0.0
C642 C 0.39793 0.56302 0.84772 0.0
C643 C 0.42001 0.5893 0.86697 0.0
C644 C 0.41485 0.5875 0.82899 0.0
C645 C 0.34498 0.53578 0.8485 0.0
C646 C 0.32809 0.49738 0.84757 0.0
C647 C 0.28063 0.46678 0.84804 0.0
C648 C 0.24962 0.47533 0.84956 0.0
C649 C 0.2653 0.51437 0.85068 0.0
C650 C 0.31421 0.54498 0.85015 0.0
H651 H 0.91127 0.40952 0.16102 0.0
H652 H 1.00633 0.38498 0.14764 0.0
H653 H 0.94313 0.31471 0.1508 0.0
H654 H 0.84521 0.33746 0.19759 0.0
H655 H 0.79092 0.32497 0.18927 0.0
H656 H 0.84413 0.37325 0.18581 0.0
H657 H 0.82385 0.36432 0.14754 0.0
H658 H 0.7714 0.31544 0.15088 0.0
H659 H 0.81341 0.32358 0.13336 0.0
H660 H 0.86998 0.2469 0.15641 0.0
H661 H 0.79273 0.18698 0.16411 0.0
H662 H 0.74386 0.25461 0.17278 0.0
C663 C 0.91888 0.38943 0.15875 0.0
C664 C 0.96407 0.40307 0.1541 0.0
C665 C 0.97218 0.37552 0.15115 0.0
C666 C 0.93643 0.33541 0.15293 0.0
C667 C 0.89244 0.32299 0.15754 0.0
C668 C 0.88347 0.34913 0.16034 0.0
C669 C 0.83296 0.32798 0.16498 0.0
C670 C 0.82801 0.34174 0.18563 0.0
C671 C 0.80899 0.33319 0.14821 0.0
C672 C 0.81526 0.28604 0.16502 0.0
C673 C 0.85008 0.2838 0.16048 0.0
C674 C 0.84235 0.2483 0.15981 0.0
C675 C 0.79807 0.21426 0.16406 0.0
C676 C 0.76167 0.21565 0.16896 0.0
C677 C 0.7707 0.25228 0.16925 0.0
H678 H 0.08063 0.57953 0.08356 0.0
H679 H 1.05685 0.473 0.09894 0.0
H680 H 1.06329 0.45994 0.06331 0.0
H681 H 1.01694 0.54405 0.03747 0.0
H682 H 1.05664 0.58836 0.02444 0.0
H683 H 1.05233 0.59049 0.05129 0.0
H684 H 0.14039 0.62716 0.05556 0.0
H685 H 0.14502 0.62527 0.02869 0.0
H686 H 0.16529 0.60597 0.04455 0.0
H687 H 0.06557 0.45538 0.0259 0.0
H688 H 0.06937 0.46223 0.98913 0.0
H689 H 0.0961 0.57337 0.99776 0.0
C690 C 0.0772 0.55367 0.0794 0.0
C691 C 0.06799 0.52714 0.09396 0.0
C692 C 0.06384 0.49366 0.08801 0.0
C693 C 0.06744 0.48599 0.06782 0.0
C694 C 0.07586 0.51236 0.05377 0.0
C695 C 0.08131 0.5458 0.05928 0.0
C696 C 0.08979 0.56913 0.0411 0.0
C697 C 1.05164 0.57323 0.03842 0.0
C698 C 0.13799 0.60926 0.04257 0.0
C699 C 0.08712 0.54309 0.02449 0.0
C700 C 0.07896 0.51046 0.03216 0.0
C701 C 0.0726 0.48106 0.01973 0.0
C702 C 0.07462 0.48509 0.99891 0.0
C703 C 0.08337 0.51841 0.99073 0.0
C704 C 0.09008 0.54791 0.00371 0.0
H705 H 0.57482 0.03307 0.4133 0.0
H706 H 0.70314 0.04893 0.41197 0.0
H707 H 0.70277 0.05053 0.37514 0.0
H708 H 0.52254 0.97142 0.36842 0.0
H709 H 0.49715 0.99307 0.35988 0.0
H710 H 0.50704 0.99319 0.38634 0.0
H711 H 0.55529 0.06841 0.38896 0.0
H712 H 0.5455 0.06852 0.3625 0.0
H713 H 0.60371 0.09809 0.37281 0.0
H714 H 0.68742 0.0472 0.3388 0.0
H715 H 0.66003 0.04341 0.30434 0.0
H716 H 0.54405 0.03363 0.32826 0.0
C717 C 0.60275 0.03689 0.40518 0.0
C718 C 0.63885 0.0406 0.41545 0.0
C719 C 0.67509 0.04594 0.40441 0.0
C720 C 0.6752 0.04686 0.38348 0.0
C721 C 0.63914 0.04292 0.37376 0.0
C722 C 0.60378 0.03845 0.38416 0.0
C723 C 0.56969 0.03547 0.36984 0.0
C724 C 0.52124 0.99593 0.37121 0.0
C725 C 0.5685 0.06966 0.37376 0.0
C726 C 0.59125 0.03848 0.34982 0.0
C727 C 0.63115 0.04252 0.35254 0.0
C728 C 0.65647 0.04439 0.33644 0.0
C729 C 0.64064 0.0421 0.31698 0.0
C730 C 0.60022 0.0384 0.31379 0.0
C731 C 0.57533 0.03684 0.33041 0.0
H732 H 0.52109 0.48255 0.77224 0.0
H733 H 0.66158 0.57279 0.79438 0.0
H734 H 0.68634 0.5931 0.75961 0.0
H735 H 0.54938 0.45448 0.72863 0.0
H736 H 0.50391 0.44613 0.71305 0.0
H737 H 0.49675 0.44061 0.73972 0.0
H738 H 0.48076 0.4905 0.74206 0.0
H739 H 0.4875 0.49595 0.71535 0.0
H740 H 0.5221 0.53825 0.73231 0.0
H741 H 0.69636 0.60026 0.72209 0.0
H742 H 0.69052 0.59529 0.68503 0.0
H743 H 0.54278 0.50148 0.68787 0.0
C744 C 0.55696 0.50689 0.76979 0.0
C745 C 0.58949 0.52612 0.78592 0.0
C746 C 0.63613 0.55775 0.78217 0.0
C747 C 0.65048 0.56944 0.7625 0.0
C748 C 0.61764 0.54936 0.74685 0.0
C749 C 0.57177 0.51897 0.75031 0.0
C750 C 0.54356 0.50142 0.7309 0.0
C751 C 0.52216 0.4581 0.72791 0.0
C752 C 0.50628 0.50688 0.73011 0.0
C753 C 0.58085 0.52616 0.71591 0.0
C754 C 0.62332 0.55375 0.72537 0.0
C755 C 0.66316 0.57909 0.71453 0.0
C756 C 0.65945 0.57614 0.69347 0.0
C757 C 0.61618 0.54804 0.68346 0.0
C758 C 0.57648 0.52298 0.69497 0.0
H759 H 0.53475 0.02053 0.53896 0.0
H760 H 0.67909 0.07828 0.5267 0.0
H761 H 0.69454 0.07752 0.56252 0.0
H762 H 0.55346 0.07006 0.58641 0.0
H763 H 0.50399 0.02785 0.598 0.0
H764 H 0.50367 0.03206 0.57124 0.0
H765 H 0.48627 0.96515 0.56553 0.0
H766 H 0.48661 0.96076 0.59229 0.0
H767 H 0.52416 0.9574 0.57677 0.0
H768 H 0.69569 0.07356 0.59954 0.0
H769 H 0.68167 0.06446 0.63587 0.0
H770 H 0.53628 0.0072 0.62464 0.0
C771 C 0.56951 0.0329 0.54387 0.0
C772 C 0.60579 0.0496 0.53011 0.0
C773 C 0.65081 0.06539 0.53701 0.0
C774 C 0.65995 0.06508 0.55732 0.0
C775 C 0.62362 0.04858 0.57055 0.0
C776 C 0.57922 0.03254 0.56416 0.0
C777 C 0.54663 0.0168 0.58165 0.0
C778 C 0.52572 0.03797 0.58449 0.0
C779 C 0.50868 0.97239 0.57889 0.0
C780 C 0.57985 0.02705 0.59883 0.0
C781 C 0.62407 0.0454 0.59203 0.0
C782 C 0.66117 0.05897 0.60506 0.0
C783 C 0.65294 0.05382 0.62563 0.0
C784 C 0.60795 0.03506 0.63298 0.0
C785 C 0.57088 0.02119 0.61936 0.0
H786 H 0.64792 0.55143 0.91437 0.0
H787 H 0.50734 0.46725 0.89071 0.0
H788 H 0.48493 0.43122 0.9218 0.0
H789 H 0.65213 0.4815 0.94041 0.0
H790 H 0.68566 0.515 0.96146 0.0
H791 H 0.69142 0.53332 0.93692 0.0
H792 H 0.67158 0.57701 0.95134 0.0
H793 H 0.66586 0.5589 0.97589 0.0
H794 H 0.61869 0.55501 0.9647 0.0
H795 H 0.47645 0.40675 0.95599 0.0
H796 H 0.48214 0.3956 0.99133 0.0
H797 H 0.62915 0.49356 0.99249 0.0
C798 C 0.61252 0.52532 0.91575 0.0
C799 C 0.57932 0.51209 0.90021 0.0
C800 C 0.5333 0.47785 0.90248 0.0
C801 C 0.52026 0.45712 0.92004 0.0
C802 C 0.55372 0.4709 0.93512 0.0
C803 C 0.59892 0.50412 0.93318 0.0
C804 C 0.62765 0.51321 0.95195 0.0
C805 C 0.66651 0.51059 0.94741 0.0
C806 C 0.64707 0.55341 0.96153 0.0
C807 C 0.59125 0.4804 0.96486 0.0
C808 C 0.54896 0.45623 0.95481 0.0
C809 C 0.50954 0.42509 0.96394 0.0
C810 C 0.51326 0.4188 0.98403 0.0
C811 C 0.55616 0.44347 0.99479 0.0
C812 C 0.59574 0.47425 0.98483 0.0
H813 H 0.13302 0.51116 0.2186 0.0
H814 H 0.08126 0.57282 0.20236 0.0
H815 H 0.06877 0.57984 0.23817 0.0
H816 H 1.05614 0.45865 0.25882 0.0
H817 H 0.09924 0.46342 0.2745 0.0
H818 H 0.10348 0.4629 0.24758 0.0
H819 H 0.18604 0.52929 0.25034 0.0
H820 H 0.18217 0.52989 0.27727 0.0
H821 H 0.19519 0.57031 0.26363 0.0
H822 H 1.06133 0.57931 0.27576 0.0
H823 H 1.06215 0.57371 0.31244 0.0
H824 H 0.12219 0.51483 0.30416 0.0
C825 C 0.11913 0.52618 0.22263 0.0
C826 C 0.10683 0.54059 0.20777 0.0
C827 C 0.08917 0.56036 0.21353 0.0
C828 C 0.08247 0.56481 0.23382 0.0
C829 C 0.09409 0.5496 0.24813 0.0
C830 C 0.11239 0.53095 0.24281 0.0
C831 C 0.1226 0.51772 0.26111 0.0
C832 C 0.09363 0.47302 0.26046 0.0
C833 C 0.17459 0.53803 0.26321 0.0
C834 C 0.10711 0.53177 0.27755 0.0
C835 C 0.0907 0.55001 0.26976 0.0
C836 C 0.07437 0.5653 0.28204 0.0
C837 C 0.0752 0.56215 0.30287 0.0
C838 C 0.09238 0.54396 0.31123 0.0
C839 C 0.10831 0.52847 0.29828 0.0
loop_
_geom_bond_atom_site_label_1
_geom_bond_atom_site_label_2
_geom_bond_distance
_geom_bond_site_symmetry_2
_ccdc_geom_bond_type
Sm0 C2 2.846 . S
Sm0 O20 2.543 . S
Sm0 O21 2.450 . S
Sm0 O22 2.681 . S
Sm0 O23 2.464 . S
Sm0 O24 2.396 . S
Sm0 O28 2.386 . S
Sm0 O31 2.408 1_455 S
Sm1 C11 2.846 . S
Sm1 O22 2.386 1_655 S
Sm1 O25 2.408 1_655 S
Sm1 O26 2.543 . S
Sm1 O27 2.450 . S
Sm1 O28 2.681 1_655 S
Sm1 O29 2.464 . S
Sm1 O30 2.396 . S
C2 Sm0 2.846 . S
C2 C3 1.506 . S
C2 O20 1.261 . S
C2 O21 1.242 . S
C3 C2 1.506 . S
C3 C4 1.358 . S
C3 C8 1.382 . S
C4 C3 1.358 . S
C4 C5 1.385 . S
C4 H32 0.930 . S
C5 C4 1.385 . S
C5 C6 1.395 . S
C5 H33 0.929 . S
C6 C5 1.395 . S
C6 C7 1.335 . S
C7 C6 1.335 . S
C7 C8 1.398 . S
C7 H34 0.930 . S
C8 C3 1.382 . S
C8 C7 1.398 . S
C8 H35 0.929 . S
C9 O22 1.271 . S
C9 O23 1.251 . S
C10 O24 1.252 . S
C10 O25 1.272 . S
C11 Sm1 2.846 . S
C11 C12 1.506 . S
C11 O26 1.261 . S
C11 O27 1.242 . S
C12 C11 1.506 . S
C12 C13 1.358 . S
C12 C17 1.382 . S
C13 C12 1.358 . S
C13 C14 1.385 . S
C13 H36 0.930 . S
C14 C13 1.385 . S
C14 C15 1.395 . S
C14 H37 0.929 . S
C15 C14 1.395 . S
C15 C16 1.335 . S
C16 C15 1.335 . S
C16 C17 1.398 . S
C16 H38 0.930 . S
C17 C12 1.382 . S
C17 C16 1.398 . S
C17 H39 0.929 . S
C18 O28 1.271 . S
C18 O29 1.251 1_455 S
C19 O30 1.252 . S
C19 O31 1.272 . S
O20 Sm0 2.543 . S
O20 C2 1.261 . S
O21 Sm0 2.450 . S
O21 C2 1.242 . S
O22 Sm0 2.681 . S
O22 Sm1 2.386 1_455 S
O22 C9 1.271 . S
O23 Sm0 2.464 . S
O23 C9 1.251 . S
O24 Sm0 2.396 . S
O24 C10 1.252 . S
O25 Sm1 2.408 1_455 S
O25 C10 1.272 . S
O26 Sm1 2.543 . S
O26 C11 1.261 . S
O27 Sm1 2.450 . S
O27 C11 1.242 . S
O28 Sm0 2.386 . S
O28 Sm1 2.681 1_455 S
O28 C18 1.271 . S
O29 Sm1 2.464 . S
O29 C18 1.251 1_655 S
O30 Sm1 2.396 . S
O30 C19 1.252 . S
O31 Sm0 2.408 1_655 S
O31 C19 1.272 . S
H32 C4 0.930 . S
H33 C5 0.929 . S
H34 C7 0.930 . S
H35 C8 0.929 . S
H36 C13 0.930 . S
H37 C14 0.929 . S
H38 C16 0.930 . S
H39 C17 0.929 . S
Sm40 C42 2.846 . S
Sm40 O60 2.543 . S
Sm40 O61 2.450 . S
Sm40 O62 2.681 1_565 S
Sm40 O63 2.464 . S
Sm40 O64 2.396 . S
Sm40 O68 2.384 . S
Sm40 O71 2.408 1_565 S
Sm41 C51 2.846 . S
Sm41 O62 2.386 . S
Sm41 O65 2.408 1_545 S
Sm41 O66 2.543 . S
Sm41 O67 2.450 . S
Sm41 O68 2.684 1_545 S
Sm41 O69 2.464 . S
Sm41 O70 2.396 . S
C42 Sm40 2.846 . S
C42 C43 1.506 . S
C42 O60 1.261 . S
C42 O61 1.242 . S
C43 C42 1.506 . S
C43 C44 1.358 . S
C43 C48 1.382 . S
C44 C43 1.358 . S
C44 C45 1.385 . S
C44 H72 0.930 . S
C45 C44 1.385 . S
C45 C46 1.395 . S
C45 H73 0.929 . S
C46 C45 1.395 . S
C46 C47 1.335 . S
C47 C46 1.335 . S
C47 C48 1.398 . S
C47 H74 0.930 . S
C48 C43 1.382 . S
C48 C47 1.398 . S
C48 H75 0.929 . S
C49 O62 1.271 . S
C49 O63 1.251 1_545 S
C50 O64 1.252 . S
C50 O65 1.272 . S
C51 Sm41 2.846 . S
C51 C52 1.506 . S
C51 O66 1.261 . S
C51 O67 1.242 . S
C52 C51 1.506 . S
C52 C53 1.358 . S
C52 C57 1.382 . S
C53 C52 1.358 . S
C53 C54 1.385 . S
C53 H76 0.930 . S
C54 C53 1.385 . S
C54 C55 1.395 . S
C54 H77 0.929 . S
C55 C54 1.395 . S
C55 C56 1.335 . S
C56 C55 1.335 . S
C56 C57 1.398 . S
C56 H78 0.930 . S
C57 C52 1.382 . S
C57 C56 1.398 . S
C57 H79 0.929 . S
C58 O68 1.273 1_545 S
C58 O69 1.251 . S
C59 O70 1.252 . S
C59 O71 1.272 . S
O60 Sm40 2.543 . S
O60 C42 1.261 . S
O61 Sm40 2.450 . S
O61 C42 1.242 . S
O62 Sm40 2.681 1_545 S
O62 Sm41 2.386 . S
O62 C49 1.271 . S
O63 Sm40 2.464 . S
O63 C49 1.251 1_565 S
O64 Sm40 2.396 . S
O64 C50 1.252 . S
O65 Sm41 2.408 1_565 S
O65 C50 1.272 . S
O66 Sm41 2.543 . S
O66 C51 1.261 . S
O67 Sm41 2.450 . S
O67 C51 1.242 . S
O68 Sm40 2.384 . S
O68 Sm41 2.684 1_565 S
O68 C58 1.273 1_565 S
O69 Sm41 2.464 . S
O69 C58 1.251 . S
O70 Sm41 2.396 . S
O70 C59 1.252 . S
O71 Sm40 2.408 1_545 S
O71 C59 1.272 . S
H72 C44 0.930 . S
H73 C45 0.929 . S
H74 C47 0.930 . S
H75 C48 0.929 . S
H76 C53 0.930 . S
H77 C54 0.929 . S
H78 C56 0.930 . S
H79 C57 0.929 . S
Sm80 C82 2.846 . S
Sm80 O100 2.543 . S
Sm80 O101 2.450 . S
Sm80 O102 2.681 . S
Sm80 O103 2.464 . S
Sm80 O104 2.396 . S
Sm80 O108 2.386 . S
Sm80 O111 2.408 . S
Sm81 C91 2.846 . S
Sm81 O102 2.386 . S
Sm81 O105 2.408 . S
Sm81 O106 2.543 . S
Sm81 O107 2.450 . S
Sm81 O108 2.681 . S
Sm81 O109 2.464 . S
Sm81 O110 2.396 . S
C82 Sm80 2.846 . S
C82 C83 1.506 . S
C82 O100 1.261 . S
C82 O101 1.242 . S
C83 C82 1.506 . S
C83 C84 1.358 . S
C83 C88 1.382 . S
C84 C83 1.358 . S
C84 C85 1.385 . S
C84 H112 0.930 . S
C85 C84 1.385 . S
C85 C86 1.395 . S
C85 H113 0.929 . S
C86 C85 1.395 . S
C86 C87 1.335 . S
C87 C86 1.335 . S
C87 C88 1.398 . S
C87 H114 0.930 . S
C88 C83 1.382 . S
C88 C87 1.398 . S
C88 H115 0.929 . S
C89 O102 1.271 . S
C89 O103 1.251 . S
C90 O104 1.252 . S
C90 O105 1.272 . S
C91 Sm81 2.846 . S
C91 C92 1.506 . S
C91 O106 1.261 . S
C91 O107 1.242 . S
C92 C91 1.506 . S
C92 C93 1.358 . S
C92 C97 1.382 . S
C93 C92 1.358 . S
C93 C94 1.385 . S
C93 H116 0.930 . S
C94 C93 1.385 . S
C94 C95 1.395 . S
C94 H117 0.929 . S
C95 C94 1.395 . S
C95 C96 1.335 . S
C96 C95 1.335 . S
C96 C97 1.398 . S
C96 H118 0.930 . S
C97 C92 1.382 . S
C97 C96 1.398 . S
C97 H119 0.929 . S
C98 O108 1.271 . S
C98 O109 1.251 . S
C99 O110 1.252 . S
C99 O111 1.272 . S
O100 Sm80 2.543 . S
O100 C82 1.261 . S
O101 Sm80 2.450 . S
O101 C82 1.242 . S
O102 Sm80 2.681 . S
O102 Sm81 2.386 . S
O102 C89 1.271 . S
O103 Sm80 2.464 . S
O103 C89 1.251 . S
O104 Sm80 2.396 . S
O104 C90 1.252 . S
O105 Sm81 2.408 . S
O105 C90 1.272 . S
O106 Sm81 2.543 . S
O106 C91 1.261 . S
O107 Sm81 2.450 . S
O107 C91 1.242 . S
O108 Sm80 2.386 . S
O108 Sm81 2.681 . S
O108 C98 1.271 . S
O109 Sm81 2.464 . S
O109 C98 1.251 . S
O110 Sm81 2.396 . S
O110 C99 1.252 . S
O111 Sm80 2.408 . S
O111 C99 1.272 . S
H112 C84 0.930 . S
H113 C85 0.929 . S
H114 C87 0.930 . S
H115 C88 0.929 . S
H116 C93 0.930 . S
H117 C94 0.929 . S
H118 C96 0.930 . S
H119 C97 0.929 . S
C120 C121 1.386 . S
C120 C122 1.397 . S
C120 H144 0.931 . S
C121 C120 1.386 . S
C121 C125 1.397 1_545 S
C122 C120 1.397 . S
C122 C123 1.384 . S
C122 H145 0.930 . S
C123 C122 1.384 . S
C123 C124 1.377 1_545 S
C123 C126 1.481 . S
C124 C123 1.377 1_565 S
C124 C125 1.389 . S
C124 H146 0.929 . S
C125 C121 1.397 1_565 S
C125 C124 1.389 . S
C125 H147 0.931 . S
C126 C123 1.481 . S
C126 C127 1.387 . S
C126 C131 1.390 1_545 S
C127 C126 1.387 . S
C127 C128 1.401 . S
C127 H148 0.930 . S
C128 C127 1.401 . S
C128 C129 1.376 . S
C128 C137 1.511 . S
C129 C128 1.376 . S
C129 C130 1.392 1_545 S
C129 H150 0.931 . S
C130 C129 1.392 1_565 S
C130 C131 1.361 . S
C130 C132 1.500 . S
C131 C126 1.390 1_565 S
C131 C130 1.361 . S
C131 H149 0.931 . S
C132 C130 1.500 . S
C132 C133 1.371 . S
C132 C134 1.365 . S
C133 C132 1.371 . S
C133 C143 1.386 . S
C133 H151 0.931 . S
C134 C132 1.365 . S
C134 C135 1.409 . S
C134 H152 0.929 . S
C135 C134 1.409 . S
C135 C136 1.380 . S
C135 H153 0.930 . S
C136 C135 1.380 . S
C136 C143 1.357 . S
C137 C128 1.511 . S
C137 C138 1.341 . S
C137 C139 1.371 . S
C138 C137 1.341 . S
C138 C142 1.394 . S
C138 H154 0.930 . S
C139 C137 1.371 . S
C139 C140 1.392 . S
C139 H155 0.931 . S
C140 C139 1.392 . S
C140 C141 1.331 . S
C140 H158 0.932 . S
C141 C140 1.331 . S
C141 C142 1.336 . S
C142 C138 1.394 . S
C142 C141 1.336 . S
C142 H157 0.929 . S
C143 C133 1.386 . S
C143 C136 1.357 . S
C143 H156 0.928 . S
H144 C120 0.931 . S
H145 C122 0.930 . S
H146 C124 0.929 . S
H147 C125 0.931 . S
H148 C127 0.930 . S
H149 C131 0.931 . S
H150 C129 0.931 . S
H151 C133 0.931 . S
H152 C134 0.929 . S
H153 C135 0.930 . S
H154 C138 0.930 . S
H155 C139 0.931 . S
H156 C143 0.928 . S
H157 C142 0.929 . S
H158 C140 0.932 . S
C159 C160 1.386 . S
C159 C161 1.397 . S
C159 H183 0.931 . S
C160 C159 1.386 . S
C160 C164 1.397 . S
C161 C159 1.397 . S
C161 C162 1.384 . S
C161 H184 0.930 . S
C162 C161 1.384 . S
C162 C163 1.377 . S
C162 C165 1.481 . S
C163 C162 1.377 . S
C163 C164 1.389 . S
C163 H185 0.929 . S
C164 C160 1.397 . S
C164 C163 1.389 . S
C164 H186 0.931 . S
C165 C162 1.481 . S
C165 C166 1.387 . S
C165 C170 1.390 . S
C166 C165 1.387 . S
C166 C167 1.401 . S
C166 H187 0.930 . S
C167 C166 1.401 . S
C167 C168 1.376 . S
C167 C176 1.511 . S
C168 C167 1.376 . S
C168 C169 1.392 . S
C168 H189 0.931 . S
C169 C168 1.392 . S
C169 C170 1.361 . S
C169 C171 1.500 . S
C170 C165 1.390 . S
C170 C169 1.361 . S
C170 H188 0.931 . S
C171 C169 1.500 . S
C171 C172 1.371 . S
C171 C173 1.365 . S
C172 C171 1.371 . S
C172 C182 1.386 . S
C172 H190 0.931 . S
C173 C171 1.365 . S
C173 C174 1.409 . S
C173 H191 0.929 . S
C174 C173 1.409 . S
C174 C175 1.380 . S
C174 H192 0.930 . S
C175 C174 1.380 . S
C175 C182 1.357 . S
C176 C167 1.511 . S
C176 C177 1.341 . S
C176 C178 1.371 . S
C177 C176 1.341 . S
C177 C181 1.394 . S
C177 H193 0.930 . S
C178 C176 1.371 . S
C178 C179 1.392 . S
C178 H194 0.931 . S
C179 C178 1.392 . S
C179 C180 1.331 . S
C179 H197 0.932 . S
C180 C179 1.331 . S
C180 C181 1.336 . S
C181 C177 1.394 . S
C181 C180 1.336 . S
C181 H196 0.929 . S
C182 C172 1.386 . S
C182 C175 1.357 . S
C182 H195 0.928 . S
H183 C159 0.931 . S
H184 C161 0.930 . S
H185 C163 0.929 . S
H186 C164 0.931 . S
H187 C166 0.930 . S
H188 C170 0.931 . S
H189 C168 0.931 . S
H190 C172 0.931 . S
H191 C173 0.929 . S
H192 C174 0.930 . S
H193 C177 0.930 . S
H194 C178 0.931 . S
H195 C182 0.928 . S
H196 C181 0.929 . S
H197 C179 0.932 . S
C198 C199 1.386 . S
C198 C200 1.397 . S
C198 H222 0.931 . S
C199 C198 1.386 . S
C199 C203 1.397 . S
C200 C198 1.397 . S
C200 C201 1.384 . S
C200 H223 0.930 . S
C201 C200 1.384 . S
C201 C202 1.377 . S
C201 C204 1.481 . S
C202 C201 1.377 . S
C202 C203 1.389 . S
C202 H224 0.929 1_455 S
C203 C199 1.397 . S
C203 C202 1.389 . S
C203 H225 0.931 1_455 S
C204 C201 1.481 . S
C204 C205 1.387 . S
C204 C209 1.390 . S
C205 C204 1.387 . S
C205 C206 1.401 . S
C205 H226 0.930 . S
C206 C205 1.401 . S
C206 C207 1.376 . S
C206 C215 1.511 . S
C207 C206 1.376 . S
C207 C208 1.392 . S
C207 H228 0.931 . S
C208 C207 1.392 . S
C208 C209 1.361 . S
C208 C210 1.500 1_455 S
C209 C204 1.390 . S
C209 C208 1.361 . S
C209 H227 0.931 1_455 S
C210 C208 1.500 1_655 S
C210 C211 1.371 . S
C210 C212 1.365 . S
C211 C210 1.371 . S
C211 C221 1.386 . S
C211 H229 0.931 1_655 S
C212 C210 1.365 . S
C212 C213 1.409 . S
C212 H230 0.929 . S
C213 C212 1.409 . S
C213 C214 1.380 . S
C213 H231 0.930 . S
C214 C213 1.380 . S
C214 C221 1.357 . S
C215 C206 1.511 . S
C215 C216 1.341 . S
C215 C217 1.371 . S
C216 C215 1.341 . S
C216 C220 1.394 . S
C216 H232 0.930 . S
C217 C215 1.371 . S
C217 C218 1.392 . S
C217 H233 0.931 . S
C218 C217 1.392 . S
C218 C219 1.331 . S
C218 H236 0.932 . S
C219 C218 1.331 . S
C219 C220 1.336 . S
C220 C216 1.394 . S
C220 C219 1.336 . S
C220 H235 0.929 . S
C221 C211 1.386 . S
C221 C214 1.357 . S
C221 H234 0.928 . S
H222 C198 0.931 . S
H223 C200 0.930 . S
H224 C202 0.929 1_655 S
H225 C203 0.931 1_655 S
H226 C205 0.930 . S
H227 C209 0.931 1_655 S
H228 C207 0.931 . S
H229 C211 0.931 1_455 S
H230 C212 0.929 . S
H231 C213 0.930 . S
H232 C216 0.930 . S
H233 C217 0.931 . S
H234 C221 0.928 . S
H235 C220 0.929 . S
H236 C218 0.932 . S
C237 C238 1.399 . S
C237 C239 1.397 . S
C237 H261 0.931 . S
C238 C237 1.399 . S
C238 C242 1.385 1_655 S
C239 C237 1.397 . S
C239 C240 1.384 . S
C239 H262 0.930 . S
C240 C239 1.384 . S
C240 C241 1.377 1_655 S
C240 C243 1.481 . S
C241 C240 1.377 1_455 S
C241 C242 1.389 . S
C241 H263 0.929 . S
C242 C238 1.385 1_455 S
C242 C241 1.389 . S
C242 H264 0.931 . S
C243 C240 1.481 . S
C243 C244 1.387 . S
C243 C248 1.390 1_655 S
C244 C243 1.387 . S
C244 C245 1.401 . S
C244 H265 0.930 . S
C245 C244 1.401 . S
C245 C246 1.376 . S
C245 C254 1.511 . S
C246 C245 1.376 . S
C246 C247 1.392 1_655 S
C246 H267 0.931 . S
C247 C246 1.392 1_455 S
C247 C248 1.361 . S
C247 C249 1.500 . S
C248 C243 1.390 1_455 S
C248 C247 1.361 . S
C248 H266 0.931 . S
C249 C247 1.500 . S
C249 C250 1.371 . S
C249 C251 1.365 . S
C250 C249 1.371 . S
C250 C260 1.386 . S
C250 H268 0.931 . S
C251 C249 1.365 . S
C251 C252 1.409 . S
C251 H269 0.929 . S
C252 C251 1.409 . S
C252 C253 1.380 . S
C252 H270 0.930 . S
C253 C252 1.380 . S
C253 C260 1.357 . S
C254 C245 1.511 . S
C254 C255 1.341 . S
C254 C256 1.371 . S
C255 C254 1.341 . S
C255 C259 1.394 . S
C255 H271 0.930 . S
C256 C254 1.371 . S
C256 C257 1.392 . S
C256 H272 0.931 . S
C257 C256 1.392 . S
C257 C258 1.331 . S
C257 H275 0.932 . S
C258 C257 1.331 . S
C258 C259 1.336 . S
C259 C255 1.394 . S
C259 C258 1.336 . S
C259 H274 0.929 . S
C260 C250 1.386 . S
C260 C253 1.357 . S
C260 H273 0.928 . S
H261 C237 0.931 . S
H262 C239 0.930 . S
H263 C241 0.929 . S
H264 C242 0.931 . S
H265 C244 0.930 . S
H266 C248 0.931 . S
H267 C246 0.931 . S
H268 C250 0.931 . S
H269 C251 0.929 . S
H270 C252 0.930 . S
H271 C255 0.930 . S
H272 C256 0.931 . S
H273 C260 0.928 . S
H274 C259 0.929 . S
H275 C257 0.932 . S
C276 C277 1.386 . S
C276 C278 1.397 . S
C276 H300 0.931 . S
C277 C276 1.386 . S
C277 C281 1.397 1_565 S
C278 C276 1.397 . S
C278 C279 1.409 . S
C278 H301 0.930 . S
C279 C278 1.409 . S
C279 C280 1.351 1_565 S
C279 C282 1.482 1_565 S
C280 C279 1.351 1_545 S
C280 C281 1.389 . S
C280 H302 0.929 . S
C281 C277 1.397 1_545 S
C281 C280 1.389 . S
C281 H303 0.931 . S
C282 C279 1.482 1_545 S
C282 C283 1.380 1_545 S
C282 C287 1.398 . S
C283 C282 1.380 1_565 S
C283 C284 1.401 . S
C283 H304 0.930 . S
C284 C283 1.401 . S
C284 C285 1.376 1_565 S
C284 C293 1.511 . S
C285 C284 1.376 1_545 S
C285 C286 1.392 . S
C285 H306 0.931 . S
C286 C285 1.392 . S
C286 C287 1.361 . S
C286 C288 1.500 . S
C287 C282 1.398 . S
C287 C286 1.361 . S
C287 H305 0.931 . S
C288 C286 1.500 . S
C288 C289 1.371 . S
C288 C290 1.365 . S
C289 C288 1.371 . S
C289 C299 1.386 . S
C289 H307 0.931 . S
C290 C288 1.365 . S
C290 C291 1.409 . S
C290 H308 0.929 . S
C291 C290 1.409 . S
C291 C292 1.380 . S
C291 H309 0.930 . S
C292 C291 1.380 . S
C292 C299 1.357 . S
C293 C284 1.511 . S
C293 C294 1.341 . S
C293 C295 1.371 . S
C294 C293 1.341 . S
C294 C298 1.394 . S
C294 H310 0.930 . S
C295 C293 1.371 . S
C295 C296 1.392 . S
C295 H311 0.931 . S
C296 C295 1.392 . S
C296 C297 1.331 . S
C296 H314 0.932 . S
C297 C296 1.331 . S
C297 C298 1.336 . S
C298 C294 1.394 . S
C298 C297 1.336 . S
C298 H313 0.929 . S
C299 C289 1.386 . S
C299 C292 1.357 . S
C299 H312 0.928 . S
H300 C276 0.931 . S
H301 C278 0.930 . S
H302 C280 0.929 . S
H303 C281 0.931 . S
H304 C283 0.930 . S
H305 C287 0.931 . S
H306 C285 0.931 . S
H307 C289 0.931 . S
H308 C290 0.929 . S
H309 C291 0.930 . S
H310 C294 0.930 . S
H311 C295 0.931 . S
H312 C299 0.928 . S
H313 C298 0.929 . S
H314 C296 0.932 . S
C315 C316 1.386 . S
C315 C317 1.397 . S
C315 H339 0.931 . S
C316 C315 1.386 . S
C316 C320 1.397 . S
C317 C315 1.397 . S
C317 C318 1.384 . S
C317 H340 0.930 . S
C318 C317 1.384 . S
C318 C319 1.377 . S
C318 C321 1.481 . S
C319 C318 1.377 . S
C319 C320 1.389 . S
C319 H341 0.929 . S
C320 C316 1.397 . S
C320 C319 1.389 . S
C320 H342 0.931 . S
C321 C318 1.481 . S
C321 C322 1.387 . S
C321 C326 1.390 . S
C322 C321 1.387 . S
C322 C323 1.401 . S
C322 H343 0.930 . S
C323 C322 1.401 . S
C323 C324 1.376 . S
C323 C332 1.511 . S
C324 C323 1.376 . S
C324 C325 1.392 . S
C324 H345 0.931 . S
C325 C324 1.392 . S
C325 C326 1.361 . S
C325 C327 1.500 . S
C326 C321 1.390 . S
C326 C325 1.361 . S
C326 H344 0.931 . S
C327 C325 1.500 . S
C327 C328 1.371 . S
C327 C329 1.365 . S
C328 C327 1.371 . S
C328 C338 1.386 . S
C328 H346 0.931 . S
C329 C327 1.365 . S
C329 C330 1.409 . S
C329 H347 0.929 . S
C330 C329 1.409 . S
C330 C331 1.380 . S
C330 H348 0.930 . S
C331 C330 1.380 . S
C331 C338 1.357 . S
C332 C323 1.511 . S
C332 C333 1.341 . S
C332 C334 1.371 . S
C333 C332 1.341 . S
C333 C337 1.394 . S
C333 H349 0.930 . S
C334 C332 1.371 . S
C334 C335 1.392 . S
C334 H350 0.931 . S
C335 C334 1.392 . S
C335 C336 1.331 . S
C335 H353 0.932 . S
C336 C335 1.331 . S
C336 C337 1.336 . S
C337 C333 1.394 . S
C337 C336 1.336 . S
C337 H352 0.929 . S
C338 C328 1.386 . S
C338 C331 1.357 . S
C338 H351 0.928 . S
H339 C315 0.931 . S
H340 C317 0.930 . S
H341 C319 0.929 . S
H342 C320 0.931 . S
H343 C322 0.930 . S
H344 C326 0.931 . S
H345 C324 0.931 . S
H346 C328 0.931 . S
H347 C329 0.929 . S
H348 C330 0.930 . S
H349 C333 0.930 . S
H350 C334 0.931 . S
H351 C338 0.928 . S
H352 C337 0.929 . S
H353 C335 0.932 . S
H354 C366 0.930 . S
H355 C368 0.930 . S
H356 C369 0.930 . S
H357 C373 0.959 . S
H358 C373 0.959 . S
H359 C373 0.961 . S
H360 C374 0.960 . S
H361 C374 0.961 . S
H362 C374 0.959 . S
H363 C377 0.929 . S
H364 C378 0.931 . S
H365 C380 0.930 . S
C366 H354 0.930 . S
C366 C367 1.399 . S
C366 C371 1.399 . S
C367 C366 1.399 . S
C367 C368 1.376 . S
C368 H355 0.930 . S
C368 C367 1.376 . S
C368 C369 1.388 . S
C369 H356 0.930 . S
C369 C368 1.388 . S
C369 C370 1.390 . S
C370 C369 1.390 . S
C370 C371 1.394 . S
C370 C376 1.465 . S
C371 C366 1.399 . S
C371 C370 1.394 . S
C371 C372 1.516 . S
C372 C371 1.516 . S
C372 C373 1.502 . S
C372 C374 1.561 . S
C372 C375 1.526 . S
C373 H357 0.959 . S
C373 H358 0.959 . S
C373 H359 0.961 . S
C373 C372 1.502 . S
C374 H360 0.960 . S
C374 H361 0.961 . S
C374 H362 0.959 . S
C374 C372 1.561 . S
C375 C372 1.526 . S
C375 C376 1.396 . S
C375 C380 1.390 . S
C376 C370 1.465 . S
C376 C375 1.396 . S
C376 C377 1.399 . S
C377 H363 0.929 . S
C377 C376 1.399 . S
C377 C378 1.385 . S
C378 H364 0.931 . S
C378 C377 1.385 . S
C378 C379 1.389 . S
C379 C378 1.389 . S
C379 C380 1.387 . S
C380 H365 0.930 . S
C380 C375 1.390 . S
C380 C379 1.387 . S
H381 C393 0.930 . S
H382 C395 0.930 . S
H383 C396 0.930 . S
H384 C400 0.959 . S
H385 C400 0.959 . S
H386 C400 0.961 . S
H387 C401 0.960 . S
H388 C401 0.961 . S
H389 C401 0.959 . S
H390 C404 0.929 . S
H391 C405 0.931 . S
H392 C407 0.930 . S
C393 H381 0.930 . S
C393 C394 1.399 . S
C393 C398 1.399 . S
C394 C393 1.399 . S
C394 C395 1.376 . S
C395 H382 0.930 . S
C395 C394 1.376 . S
C395 C396 1.388 . S
C396 H383 0.930 . S
C396 C395 1.388 . S
C396 C397 1.390 . S
C397 C396 1.390 . S
C397 C398 1.394 . S
C397 C403 1.465 . S
C398 C393 1.399 . S
C398 C397 1.394 . S
C398 C399 1.516 . S
C399 C398 1.516 . S
C399 C400 1.502 . S
C399 C401 1.561 . S
C399 C402 1.526 . S
C400 H384 0.959 . S
C400 H385 0.959 . S
C400 H386 0.961 . S
C400 C399 1.502 . S
C401 H387 0.960 . S
C401 H388 0.961 . S
C401 H389 0.959 . S
C401 C399 1.561 . S
C402 C399 1.526 . S
C402 C403 1.396 . S
C402 C407 1.390 . S
C403 C397 1.465 . S
C403 C402 1.396 . S
C403 C404 1.399 . S
C404 H390 0.929 . S
C404 C403 1.399 . S
C404 C405 1.385 . S
C405 H391 0.931 . S
C405 C404 1.385 . S
C405 C406 1.389 . S
C406 C405 1.389 . S
C406 C407 1.387 . S
C407 H392 0.930 . S
C407 C402 1.390 . S
C407 C406 1.387 . S
H408 C420 0.930 . S
H409 C422 0.930 . S
H410 C423 0.930 . S
H411 C427 0.959 . S
H412 C427 0.959 . S
H413 C427 0.961 . S
H414 C428 0.960 . S
H415 C428 0.961 . S
H416 C428 0.959 . S
H417 C431 0.929 . S
H418 C432 0.931 . S
H419 C434 0.930 . S
C420 H408 0.930 . S
C420 C421 1.399 . S
C420 C425 1.399 . S
C421 C420 1.399 . S
C421 C422 1.376 . S
C422 H409 0.930 . S
C422 C421 1.376 . S
C422 C423 1.388 . S
C423 H410 0.930 . S
C423 C422 1.388 . S
C423 C424 1.390 . S
C424 C423 1.390 . S
C424 C425 1.394 . S
C424 C430 1.465 . S
C425 C420 1.399 . S
C425 C424 1.394 . S
C425 C426 1.516 . S
C426 C425 1.516 . S
C426 C427 1.502 . S
C426 C428 1.561 . S
C426 C429 1.526 . S
C427 H411 0.959 . S
C427 H412 0.959 . S
C427 H413 0.961 . S
C427 C426 1.502 . S
C428 H414 0.960 . S
C428 H415 0.961 . S
C428 H416 0.959 . S
C428 C426 1.561 . S
C429 C426 1.526 . S
C429 C430 1.396 . S
C429 C434 1.390 . S
C430 C424 1.465 . S
C430 C429 1.396 . S
C430 C431 1.399 . S
C431 H417 0.929 . S
C431 C430 1.399 . S
C431 C432 1.385 . S
C432 H418 0.931 . S
C432 C431 1.385 . S
C432 C433 1.389 . S
C433 C432 1.389 . S
C433 C434 1.387 . S
C434 H419 0.930 . S
C434 C429 1.390 . S
C434 C433 1.387 . S
H435 C447 0.930 . S
H436 C449 0.930 . S
H437 C450 0.930 . S
H438 C454 0.959 . S
H439 C454 0.959 . S
H440 C454 0.961 . S
H441 C455 0.960 . S
H442 C455 0.961 . S
H443 C455 0.959 . S
H444 C458 0.929 . S
H445 C459 0.931 . S
H446 C461 0.930 . S
C447 H435 0.930 . S
C447 C448 1.399 . S
C447 C452 1.399 . S
C448 C447 1.399 . S
C448 C449 1.376 . S
C449 H436 0.930 . S
C449 C448 1.376 . S
C449 C450 1.388 . S
C450 H437 0.930 . S
C450 C449 1.388 . S
C450 C451 1.390 . S
C451 C450 1.390 . S
C451 C452 1.394 . S
C451 C457 1.465 . S
C452 C447 1.399 . S
C452 C451 1.394 . S
C452 C453 1.516 . S
C453 C452 1.516 . S
C453 C454 1.502 . S
C453 C455 1.561 . S
C453 C456 1.526 . S
C454 H438 0.959 . S
C454 H439 0.959 . S
C454 H440 0.961 . S
C454 C453 1.502 . S
C455 H441 0.960 . S
C455 H442 0.961 . S
C455 H443 0.959 . S
C455 C453 1.561 . S
C456 C453 1.526 . S
C456 C457 1.396 . S
C456 C461 1.390 . S
C457 C451 1.465 . S
C457 C456 1.396 . S
C457 C458 1.399 . S
C458 H444 0.929 . S
C458 C457 1.399 . S
C458 C459 1.385 . S
C459 H445 0.931 . S
C459 C458 1.385 . S
C459 C460 1.389 . S
C460 C459 1.389 . S
C460 C461 1.387 . S
C461 H446 0.930 . S
C461 C456 1.390 . S
C461 C460 1.387 . S
H462 C474 0.930 . S
H463 C476 0.930 . S
H464 C477 0.930 . S
H465 C481 0.959 . S
H466 C481 0.959 . S
H467 C481 0.961 . S
H468 C482 0.960 . S
H469 C482 0.961 . S
H470 C482 0.959 . S
H471 C485 0.929 . S
H472 C486 0.931 . S
H473 C488 0.930 . S
C474 H462 0.930 . S
C474 C475 1.399 . S
C474 C479 1.399 . S
C475 C474 1.399 . S
C475 C476 1.376 . S
C476 H463 0.930 . S
C476 C475 1.376 . S
C476 C477 1.388 . S
C477 H464 0.930 . S
C477 C476 1.388 . S
C477 C478 1.390 . S
C478 C477 1.390 . S
C478 C479 1.394 . S
C478 C484 1.465 . S
C479 C474 1.399 . S
C479 C478 1.394 . S
C479 C480 1.516 . S
C480 C479 1.516 . S
C480 C481 1.502 . S
C480 C482 1.561 . S
C480 C483 1.526 . S
C481 H465 0.959 . S
C481 H466 0.959 . S
C481 H467 0.961 . S
C481 C480 1.502 . S
C482 H468 0.960 . S
C482 H469 0.961 . S
C482 H470 0.959 . S
C482 C480 1.561 . S
C483 C480 1.526 . S
C483 C484 1.396 . S
C483 C488 1.390 . S
C484 C478 1.465 . S
C484 C483 1.396 . S
C484 C485 1.399 . S
C485 H471 0.929 . S
C485 C484 1.399 . S
C485 C486 1.385 . S
C486 H472 0.931 . S
C486 C485 1.385 . S
C486 C487 1.389 . S
C487 C486 1.389 . S
C487 C488 1.387 . S
C488 H473 0.930 . S
C488 C483 1.390 . S
C488 C487 1.387 . S
H489 C501 0.930 . S
H490 C503 0.930 . S
H491 C504 0.930 . S
H492 C508 0.959 . S
H493 C508 0.959 . S
H494 C508 0.961 . S
H495 C509 0.960 . S
H496 C509 0.961 . S
H497 C509 0.959 . S
H498 C512 0.929 . S
H499 C513 0.931 . S
H500 C515 0.930 . S
C501 H489 0.930 . S
C501 C502 1.399 . S
C501 C506 1.399 . S
C502 C501 1.399 . S
C502 C503 1.376 . S
C503 H490 0.930 . S
C503 C502 1.376 . S
C503 C504 1.388 . S
C504 H491 0.930 . S
C504 C503 1.388 . S
C504 C505 1.390 . S
C505 C504 1.390 . S
C505 C506 1.394 . S
C505 C511 1.465 . S
C506 C501 1.399 . S
C506 C505 1.394 . S
C506 C507 1.516 . S
C507 C506 1.516 . S
C507 C508 1.502 . S
C507 C509 1.561 . S
C507 C510 1.526 . S
C508 H492 0.959 . S
C508 H493 0.959 . S
C508 H494 0.961 . S
C508 C507 1.502 . S
C509 H495 0.960 . S
C509 H496 0.961 . S
C509 H497 0.959 . S
C509 C507 1.561 . S
C510 C507 1.526 . S
C510 C511 1.396 . S
C510 C515 1.390 . S
C511 C505 1.465 . S
C511 C510 1.396 . S
C511 C512 1.399 . S
C512 H498 0.929 . S
C512 C511 1.399 . S
C512 C513 1.385 . S
C513 H499 0.931 . S
C513 C512 1.385 . S
C513 C514 1.389 . S
C514 C513 1.389 . S
C514 C515 1.387 . S
C515 H500 0.930 . S
C515 C510 1.390 . S
C515 C514 1.387 . S
H516 C528 0.930 . S
H517 C530 0.930 . S
H518 C531 0.930 . S
H519 C535 0.959 . S
H520 C535 0.959 . S
H521 C535 0.961 . S
H522 C536 0.960 . S
H523 C536 0.961 . S
H524 C536 0.959 . S
H525 C539 0.929 . S
H526 C540 0.931 . S
H527 C542 0.930 . S
C528 H516 0.930 . S
C528 C529 1.399 . S
C528 C533 1.399 . S
C529 C528 1.399 . S
C529 C530 1.376 . S
C530 H517 0.930 . S
C530 C529 1.376 . S
C530 C531 1.388 . S
C531 H518 0.930 . S
C531 C530 1.388 . S
C531 C532 1.390 . S
C532 C531 1.390 . S
C532 C533 1.394 . S
C532 C538 1.465 . S
C533 C528 1.399 . S
C533 C532 1.394 . S
C533 C534 1.516 . S
C534 C533 1.516 . S
C534 C535 1.502 . S
C534 C536 1.561 . S
C534 C537 1.526 . S
C535 H519 0.959 . S
C535 H520 0.959 . S
C535 H521 0.961 . S
C535 C534 1.502 . S
C536 H522 0.960 . S
C536 H523 0.961 . S
C536 H524 0.959 . S
C536 C534 1.561 . S
C537 C534 1.526 . S
C537 C538 1.396 . S
C537 C542 1.390 . S
C538 C532 1.465 . S
C538 C537 1.396 . S
C538 C539 1.399 . S
C539 H525 0.929 . S
C539 C538 1.399 . S
C539 C540 1.385 . S
C540 H526 0.931 . S
C540 C539 1.385 . S
C540 C541 1.389 . S
C541 C540 1.389 . S
C541 C542 1.387 . S
C542 H527 0.930 . S
C542 C537 1.390 . S
C542 C541 1.387 . S
H543 C555 0.930 . S
H544 C557 0.930 . S
H545 C558 0.930 . S
H546 C562 0.959 . S
H547 C562 0.959 . S
H548 C562 0.961 . S
H549 C563 0.960 . S
H550 C563 0.961 . S
H551 C563 0.959 . S
H552 C566 0.929 . S
H553 C567 0.931 . S
H554 C569 0.930 . S
C555 H543 0.930 . S
C555 C556 1.399 . S
C555 C560 1.399 . S
C556 C555 1.399 . S
C556 C557 1.376 . S
C557 H544 0.930 . S
C557 C556 1.376 . S
C557 C558 1.388 . S
C558 H545 0.930 . S
C558 C557 1.388 . S
C558 C559 1.390 . S
C559 C558 1.390 . S
C559 C560 1.394 . S
C559 C565 1.465 . S
C560 C555 1.399 . S
C560 C559 1.394 . S
C560 C561 1.516 . S
C561 C560 1.516 . S
C561 C562 1.502 . S
C561 C563 1.561 . S
C561 C564 1.526 . S
C562 H546 0.959 . S
C562 H547 0.959 . S
C562 H548 0.961 . S
C562 C561 1.502 . S
C563 H549 0.960 . S
C563 H550 0.961 . S
C563 H551 0.959 . S
C563 C561 1.561 . S
C564 C561 1.526 . S
C564 C565 1.396 . S
C564 C569 1.390 . S
C565 C559 1.465 . S
C565 C564 1.396 . S
C565 C566 1.399 . S
C566 H552 0.929 . S
C566 C565 1.399 . S
C566 C567 1.385 . S
C567 H553 0.931 . S
C567 C566 1.385 . S
C567 C568 1.389 . S
C568 C567 1.389 . S
C568 C569 1.387 . S
C569 H554 0.930 . S
C569 C564 1.390 . S
C569 C568 1.387 . S
H570 C582 0.930 . S
H571 C584 0.930 . S
H572 C585 0.930 . S
H573 C589 0.959 . S
H574 C589 0.959 . S
H575 C589 0.961 . S
H576 C590 0.960 . S
H577 C590 0.961 . S
H578 C590 0.959 . S
H579 C593 0.929 . S
H580 C594 0.931 . S
H581 C596 0.930 . S
C582 H570 0.930 . S
C582 C583 1.399 . S
C582 C587 1.399 . S
C583 C582 1.399 . S
C583 C584 1.376 . S
C584 H571 0.930 . S
C584 C583 1.376 . S
C584 C585 1.388 . S
C585 H572 0.930 . S
C585 C584 1.388 . S
C585 C586 1.390 . S
C586 C585 1.390 . S
C586 C587 1.394 . S
C586 C592 1.465 . S
C587 C582 1.399 . S
C587 C586 1.394 . S
C587 C588 1.516 . S
C588 C587 1.516 . S
C588 C589 1.502 . S
C588 C590 1.561 . S
C588 C591 1.526 . S
C589 H573 0.959 . S
C589 H574 0.959 . S
C589 H575 0.961 . S
C589 C588 1.502 . S
C590 H576 0.960 . S
C590 H577 0.961 . S
C590 H578 0.959 . S
C590 C588 1.561 . S
C591 C588 1.526 . S
C591 C592 1.396 . S
C591 C596 1.390 . S
C592 C586 1.465 . S
C592 C591 1.396 . S
C592 C593 1.399 . S
C593 H579 0.929 . S
C593 C592 1.399 . S
C593 C594 1.385 . S
C594 H580 0.931 . S
C594 C593 1.385 . S
C594 C595 1.389 . S
C595 C594 1.389 . S
C595 C596 1.387 . S
C596 H581 0.930 . S
C596 C591 1.390 . S
C596 C595 1.387 . S
H597 C609 0.930 . S
H598 C611 0.930 . S
H599 C612 0.930 . S
H600 C616 0.959 . S
H601 C616 0.959 . S
H602 C616 0.961 . S
H603 C617 0.960 . S
H604 C617 0.961 . S
H605 C617 0.959 . S
H606 C620 0.929 . S
H607 C621 0.931 . S
H608 C623 0.930 . S
C609 H597 0.930 . S
C609 C610 1.399 . S
C609 C614 1.399 . S
C610 C609 1.399 . S
C610 C611 1.376 . S
C611 H598 0.930 . S
C611 C610 1.376 . S
C611 C612 1.388 . S
C612 H599 0.930 . S
C612 C611 1.388 . S
C612 C613 1.390 . S
C613 C612 1.390 . S
C613 C614 1.394 . S
C613 C619 1.465 . S
C614 C609 1.399 . S
C614 C613 1.394 . S
C614 C615 1.516 . S
C615 C614 1.516 . S
C615 C616 1.502 . S
C615 C617 1.561 . S
C615 C618 1.526 . S
C616 H600 0.959 . S
C616 H601 0.959 . S
C616 H602 0.961 . S
C616 C615 1.502 . S
C617 H603 0.960 . S
C617 H604 0.961 . S
C617 H605 0.959 . S
C617 C615 1.561 . S
C618 C615 1.526 . S
C618 C619 1.396 . S
C618 C623 1.390 . S
C619 C613 1.465 . S
C619 C618 1.396 . S
C619 C620 1.399 . S
C620 H606 0.929 . S
C620 C619 1.399 . S
C620 C621 1.385 . S
C621 H607 0.931 . S
C621 C620 1.385 . S
C621 C622 1.389 . S
C622 C621 1.389 . S
C622 C623 1.387 . S
C623 H608 0.930 . S
C623 C618 1.390 . S
C623 C622 1.387 . S
H624 C636 0.930 . S
H625 C638 0.930 . S
H626 C639 0.930 . S
H627 C643 0.959 . S
H628 C643 0.959 . S
H629 C643 0.961 . S
H630 C644 0.960 . S
H631 C644 0.961 . S
H632 C644 0.959 . S
H633 C647 0.929 . S
H634 C648 0.931 . S
H635 C650 0.930 . S
C636 H624 0.930 . S
C636 C637 1.399 . S
C636 C641 1.399 . S
C637 C636 1.399 . S
C637 C638 1.376 . S
C638 H625 0.930 . S
C638 C637 1.376 . S
C638 C639 1.388 . S
C639 H626 0.930 . S
C639 C638 1.388 . S
C639 C640 1.390 . S
C640 C639 1.390 . S
C640 C641 1.394 . S
C640 C646 1.465 . S
C641 C636 1.399 . S
C641 C640 1.394 . S
C641 C642 1.516 . S
C642 C641 1.516 . S
C642 C643 1.502 . S
C642 C644 1.561 . S
C642 C645 1.526 . S
C643 H627 0.959 . S
C643 H628 0.959 . S
C643 H629 0.961 . S
C643 C642 1.502 . S
C644 H630 0.960 . S
C644 H631 0.961 . S
C644 H632 0.959 . S
C644 C642 1.561 . S
C645 C642 1.526 . S
C645 C646 1.396 . S
C645 C650 1.390 . S
C646 C640 1.465 . S
C646 C645 1.396 . S
C646 C647 1.399 . S
C647 H633 0.929 . S
C647 C646 1.399 . S
C647 C648 1.385 . S
C648 H634 0.931 . S
C648 C647 1.385 . S
C648 C649 1.389 . S
C649 C648 1.389 . S
C649 C650 1.387 . S
C650 H635 0.930 . S
C650 C645 1.390 . S
C650 C649 1.387 . S
H651 C663 0.930 . S
H652 C665 0.930 . S
H653 C666 0.930 . S
H654 C670 0.959 . S
H655 C670 0.959 . S
H656 C670 0.961 . S
H657 C671 0.960 . S
H658 C671 0.961 . S
H659 C671 0.959 . S
H660 C674 0.929 . S
H661 C675 0.931 . S
H662 C677 0.930 . S
C663 H651 0.930 . S
C663 C664 1.399 . S
C663 C668 1.399 . S
C664 C663 1.399 . S
C664 C665 1.376 . S
C665 H652 0.930 . S
C665 C664 1.376 . S
C665 C666 1.388 . S
C666 H653 0.930 . S
C666 C665 1.388 . S
C666 C667 1.390 . S
C667 C666 1.390 . S
C667 C668 1.394 . S
C667 C673 1.465 . S
C668 C663 1.399 . S
C668 C667 1.394 . S
C668 C669 1.516 . S
C669 C668 1.516 . S
C669 C670 1.502 . S
C669 C671 1.561 . S
C669 C672 1.526 . S
C670 H654 0.959 . S
C670 H655 0.959 . S
C670 H656 0.961 . S
C670 C669 1.502 . S
C671 H657 0.960 . S
C671 H658 0.961 . S
C671 H659 0.959 . S
C671 C669 1.561 . S
C672 C669 1.526 . S
C672 C673 1.396 . S
C672 C677 1.390 . S
C673 C667 1.465 . S
C673 C672 1.396 . S
C673 C674 1.399 . S
C674 H660 0.929 . S
C674 C673 1.399 . S
C674 C675 1.385 . S
C675 H661 0.931 . S
C675 C674 1.385 . S
C675 C676 1.389 . S
C676 C675 1.389 . S
C676 C677 1.387 . S
C677 H662 0.930 . S
C677 C672 1.390 . S
C677 C676 1.387 . S
H678 C690 0.930 . S
H679 C692 0.930 . S
H680 C693 0.930 . S
H681 C697 0.959 1_655 S
H682 C697 0.959 . S
H683 C697 0.961 . S
H684 C698 0.960 . S
H685 C698 0.961 . S
H686 C698 0.959 . S
H687 C701 0.929 . S
H688 C702 0.931 1_556 S
H689 C704 0.930 . S
C690 H678 0.930 . S
C690 C691 1.399 . S
C690 C695 1.399 . S
C691 C690 1.399 . S
C691 C692 1.376 . S
C692 H679 0.930 . S
C692 C691 1.376 . S
C692 C693 1.388 . S
C693 H680 0.930 . S
C693 C692 1.388 . S
C693 C694 1.390 . S
C694 C693 1.390 . S
C694 C695 1.394 . S
C694 C700 1.465 . S
C695 C690 1.399 . S
C695 C694 1.394 . S
C695 C696 1.516 . S
C696 C695 1.516 . S
C696 C697 1.502 . S
C696 C698 1.561 . S
C696 C699 1.526 . S
C697 H681 0.959 1_455 S
C697 H682 0.959 . S
C697 H683 0.961 . S
C697 C696 1.502 . S
C698 H684 0.960 . S
C698 H685 0.961 . S
C698 H686 0.959 . S
C698 C696 1.561 . S
C699 C696 1.526 . S
C699 C700 1.396 . S
C699 C704 1.390 . S
C700 C694 1.465 . S
C700 C699 1.396 . S
C700 C701 1.399 . S
C701 H687 0.929 . S
C701 C700 1.399 . S
C701 C702 1.385 . S
C702 H688 0.931 1_554 S
C702 C701 1.385 . S
C702 C703 1.401 . S
C703 C702 1.401 . S
C703 C704 1.415 . S
C704 H689 0.930 . S
C704 C699 1.390 . S
C704 C703 1.415 . S
H705 C717 0.930 . S
H706 C719 0.930 . S
H707 C720 0.930 . S
H708 C724 0.959 . S
H709 C724 0.959 . S
H710 C724 0.961 . S
H711 C725 0.960 . S
H712 C725 0.961 . S
H713 C725 0.959 . S
H714 C728 0.929 . S
H715 C729 0.931 . S
H716 C731 0.930 . S
C717 H705 0.930 . S
C717 C718 1.399 . S
C717 C722 1.399 . S
C718 C717 1.399 . S
C718 C719 1.376 1_545 S
C719 H706 0.930 . S
C719 C718 1.376 1_565 S
C719 C720 1.388 . S
C720 H707 0.930 . S
C720 C719 1.388 . S
C720 C721 1.390 1_565 S
C721 C720 1.390 1_545 S
C721 C722 1.394 . S
C721 C727 1.465 . S
C722 C717 1.399 . S
C722 C721 1.394 . S
C722 C723 1.516 . S
C723 C722 1.516 . S
C723 C724 1.502 . S
C723 C725 1.561 . S
C723 C726 1.526 . S
C724 H708 0.959 . S
C724 H709 0.959 . S
C724 H710 0.961 . S
C724 C723 1.502 . S
C725 H711 0.960 . S
C725 H712 0.961 . S
C725 H713 0.959 . S
C725 C723 1.561 . S
C726 C723 1.526 . S
C726 C727 1.396 . S
C726 C731 1.390 . S
C727 C721 1.465 . S
C727 C726 1.396 . S
C727 C728 1.399 1_545 S
C728 H714 0.929 . S
C728 C727 1.399 1_565 S
C728 C729 1.385 . S
C729 H715 0.931 . S
C729 C728 1.385 . S
C729 C730 1.389 1_565 S
C730 C729 1.389 1_545 S
C730 C731 1.387 . S
C731 H716 0.930 . S
C731 C726 1.390 . S
C731 C730 1.387 . S
H732 C744 0.930 . S
H733 C746 0.930 . S
H734 C747 0.930 . S
H735 C751 0.959 . S
H736 C751 0.959 . S
H737 C751 0.961 . S
H738 C752 0.960 . S
H739 C752 0.961 . S
H740 C752 0.959 . S
H741 C755 0.929 . S
H742 C756 0.931 . S
H743 C758 0.930 . S
C744 H732 0.930 . S
C744 C745 1.399 . S
C744 C749 1.399 . S
C745 C744 1.399 . S
C745 C746 1.376 . S
C746 H733 0.930 . S
C746 C745 1.376 . S
C746 C747 1.388 . S
C747 H734 0.930 . S
C747 C746 1.388 . S
C747 C748 1.390 . S
C748 C747 1.390 . S
C748 C749 1.394 . S
C748 C754 1.465 . S
C749 C744 1.399 . S
C749 C748 1.394 . S
C749 C750 1.516 . S
C750 C749 1.516 . S
C750 C751 1.502 . S
C750 C752 1.561 . S
C750 C753 1.526 . S
C751 H735 0.959 . S
C751 H736 0.959 . S
C751 H737 0.961 . S
C751 C750 1.502 . S
C752 H738 0.960 . S
C752 H739 0.961 . S
C752 H740 0.959 . S
C752 C750 1.561 . S
C753 C750 1.526 . S
C753 C754 1.396 . S
C753 C758 1.390 . S
C754 C748 1.465 . S
C754 C753 1.396 . S
C754 C755 1.399 . S
C755 H741 0.929 . S
C755 C754 1.399 . S
C755 C756 1.385 . S
C756 H742 0.931 . S
C756 C755 1.385 . S
C756 C757 1.389 . S
C757 C756 1.389 . S
C757 C758 1.387 . S
C758 H743 0.930 . S
C758 C753 1.390 . S
C758 C757 1.387 . S
H759 C771 0.930 . S
H760 C773 0.930 . S
H761 C774 0.930 . S
H762 C778 0.959 . S
H763 C778 0.959 . S
H764 C778 0.961 . S
H765 C779 0.960 . S
H766 C779 0.961 . S
H767 C779 0.959 . S
H768 C782 0.929 . S
H769 C783 0.931 . S
H770 C785 0.930 . S
C771 H759 0.930 . S
C771 C772 1.399 1_565 S
C771 C776 1.399 . S
C772 C771 1.399 1_545 S
C772 C773 1.376 . S
C773 H760 0.930 . S
C773 C772 1.376 . S
C773 C774 1.388 . S
C774 H761 0.930 . S
C774 C773 1.388 . S
C774 C775 1.390 . S
C775 C774 1.390 . S
C775 C776 1.394 1_545 S
C775 C781 1.465 . S
C776 C771 1.399 . S
C776 C775 1.394 1_565 S
C776 C777 1.516 . S
C777 C776 1.516 . S
C777 C778 1.502 . S
C777 C779 1.561 . S
C777 C780 1.526 . S
C778 H762 0.959 . S
C778 H763 0.959 . S
C778 H764 0.961 . S
C778 C777 1.502 . S
C779 H765 0.960 . S
C779 H766 0.961 . S
C779 H767 0.959 . S
C779 C777 1.561 . S
C780 C777 1.526 . S
C780 C781 1.396 1_565 S
C780 C785 1.390 . S
C781 C775 1.465 . S
C781 C780 1.396 1_545 S
C781 C782 1.399 . S
C782 H768 0.929 . S
C782 C781 1.399 . S
C782 C783 1.385 . S
C783 H769 0.931 . S
C783 C782 1.385 . S
C783 C784 1.389 . S
C784 C783 1.389 . S
C784 C785 1.387 1_545 S
C785 H770 0.930 . S
C785 C780 1.390 . S
C785 C784 1.387 1_565 S
H786 C798 0.930 . S
H787 C800 0.930 . S
H788 C801 0.930 . S
H789 C805 0.959 . S
H790 C805 0.959 . S
H791 C805 0.961 . S
H792 C806 0.960 . S
H793 C806 0.961 . S
H794 C806 0.959 . S
H795 C809 0.929 . S
H796 C810 0.931 . S
H797 C812 0.930 . S
C798 H786 0.930 . S
C798 C799 1.399 . S
C798 C803 1.399 . S
C799 C798 1.399 . S
C799 C800 1.376 . S
C800 H787 0.930 . S
C800 C799 1.376 . S
C800 C801 1.388 . S
C801 H788 0.930 . S
C801 C800 1.388 . S
C801 C802 1.390 . S
C802 C801 1.390 . S
C802 C803 1.394 . S
C802 C808 1.465 . S
C803 C798 1.399 . S
C803 C802 1.394 . S
C803 C804 1.516 . S
C804 C803 1.516 . S
C804 C805 1.502 . S
C804 C806 1.561 . S
C804 C807 1.526 . S
C805 H789 0.959 . S
C805 H790 0.959 . S
C805 H791 0.961 . S
C805 C804 1.502 . S
C806 H792 0.960 . S
C806 H793 0.961 . S
C806 H794 0.959 . S
C806 C804 1.561 . S
C807 C804 1.526 . S
C807 C808 1.396 . S
C807 C812 1.390 . S
C808 C802 1.465 . S
C808 C807 1.396 . S
C808 C809 1.399 . S
C809 H795 0.929 . S
C809 C808 1.399 . S
C809 C810 1.385 . S
C810 H796 0.931 . S
C810 C809 1.385 . S
C810 C811 1.389 . S
C811 C810 1.389 . S
C811 C812 1.387 . S
C812 H797 0.930 . S
C812 C807 1.390 . S
C812 C811 1.387 . S
H813 C825 0.930 . S
H814 C827 0.930 . S
H815 C828 0.930 . S
H816 C832 0.959 . S
H817 C832 0.959 . S
H818 C832 0.961 . S
H819 C833 0.960 . S
H820 C833 0.961 . S
H821 C833 0.959 . S
H822 C836 0.929 . S
H823 C837 0.931 . S
H824 C839 0.930 . S
C825 H813 0.930 . S
C825 C826 1.399 . S
C825 C830 1.399 . S
C826 C825 1.399 . S
C826 C827 1.376 1_455 S
C827 H814 0.930 . S
C827 C826 1.376 1_655 S
C827 C828 1.388 . S
C828 H815 0.930 . S
C828 C827 1.388 . S
C828 C829 1.390 . S
C829 C828 1.390 . S
C829 C830 1.394 1_655 S
C829 C835 1.465 . S
C830 C825 1.399 . S
C830 C829 1.394 1_455 S
C830 C831 1.516 . S
C831 C830 1.516 . S
C831 C832 1.502 . S
C831 C833 1.561 . S
C831 C834 1.526 . S
C832 H816 0.959 . S
C832 H817 0.959 . S
C832 H818 0.961 . S
C832 C831 1.502 . S
C833 H819 0.960 . S
C833 H820 0.961 . S
C833 H821 0.959 . S
C833 C831 1.561 . S
C834 C831 1.526 . S
C834 C835 1.396 1_455 S
C834 C839 1.390 . S
C835 C829 1.465 . S
C835 C834 1.396 1_655 S
C835 C836 1.399 . S
C836 H822 0.929 . S
C836 C835 1.399 . S
C836 C837 1.385 . S
C837 H823 0.931 . S
C837 C836 1.385 . S
C837 C838 1.389 . S
C838 C837 1.389 . S
C838 C839 1.387 1_655 S
C839 H824 0.930 . S
C839 C834 1.390 . S
C839 C838 1.387 1_455 S
C367 C6 0.643 . S
C379 C331 0.653 . S
C394 C59 1.927 . S
C406 C258 1.921 . S
C421 C86 1.243 . S
C433 C297 1.252 . S
C448 C15 0.527 . S
C460 C336 0.381 . S
C487 C253 1.947 . S
C475 C50 2.013 . S
C514 C292 1.316 . S
C502 C95 1.315 . S
C529 C46 1.190 . S
C541 C180 1.213 . S
C556 C99 3.115 . S
C568 C214 3.053 . S
C583 C10 2.072 . S
C595 C136 2.027 . S
C622 C175 1.284 . S
C610 C55 1.254 . S
C649 C219 2.968 . S
C637 C90 3.001 . S
C664 C19 1.927 . S
C676 C141 1.879 . S
C703 C199 1.724 1_554 S
C691 C18 1.731 . S
C718 C49 1.287 . S
C730 C121 1.371 . S
C745 C98 1.422 . S
C757 C160 1.500 . S
C784 C277 1.480 1_545 S
C772 C58 1.457 . S
C811 C316 1.106 1_556 S
C799 C89 1.099 . S
C826 C9 1.348 . S
C838 C238 1.365 . S
