# Generated by pormake.
# Topology pyr, (3,6)-cn, num edge types: 1
# Building blocks:
#     Node 0, Type 0, BuildingBlock: MIDCAF_clean_linker_0, # of connection points: 3
#     Node 1, Type 0, BuildingBlock: MIDCAF_clean_linker_0, # of connection points: 3
#     Node 2, Type 0, BuildingBlock: MIDCAF_clean_linker_0, # of connection points: 3
#     Node 3, Type 0, BuildingBlock: MIDCAF_clean_linker_0, # of connection points: 3
#     Node 4, Type 0, BuildingBlock: MIDCAF_clean_linker_0, # of connection points: 3
#     Node 5, Type 0, BuildingBlock: MIDCAF_clean_linker_0, # of connection points: 3
#     Node 6, Type 0, BuildingBlock: MIDCAF_clean_linker_0, # of connection points: 3
#     Node 7, Type 0, BuildingBlock: MIDCAF_clean_linker_0, # of connection points: 3
#     Node 8, Type 1, BuildingBlock: PAMTOO_clean_sbu_0, # of connection points: 6
#     Node 9, Type 1, BuildingBlock: PAMTOO_clean_sbu_0, # of connection points: 6
#     Node 10, Type 1, BuildingBlock: PAMTOO_clean_sbu_0, # of connection points: 6
#     Node 11, Type 1, BuildingBlock: PAMTOO_clean_sbu_0, # of connection points: 6
#     Edge 12, Type (0, 1), BuildingBlock: ZUJKAS_clean_linker_0, # of connection points: 2
#     Edge 13, Type (0, 1), BuildingBlock: ZUJKAS_clean_linker_0, # of connection points: 2
#     Edge 14, Type (0, 1), BuildingBlock: ZUJKAS_clean_linker_0, # of connection points: 2
#     Edge 15, Type (0, 1), BuildingBlock: ZUJKAS_clean_linker_0, # of connection points: 2
#     Edge 16, Type (0, 1), BuildingBlock: ZUJKAS_clean_linker_0, # of connection points: 2
#     Edge 17, Type (0, 1), BuildingBlock: ZUJKAS_clean_linker_0, # of connection points: 2
#     Edge 18, Type (0, 1), BuildingBlock: ZUJKAS_clean_linker_0, # of connection points: 2
#     Edge 19, Type (0, 1), BuildingBlock: ZUJKAS_clean_linker_0, # of connection points: 2
#     Edge 20, Type (0, 1), BuildingBlock: ZUJKAS_clean_linker_0, # of connection points: 2
#     Edge 21, Type (0, 1), BuildingBlock: ZUJKAS_clean_linker_0, # of connection points: 2
#     Edge 22, Type (0, 1), BuildingBlock: ZUJKAS_clean_linker_0, # of connection points: 2
#     Edge 23, Type (0, 1), BuildingBlock: ZUJKAS_clean_linker_0, # of connection points: 2
#     Edge 24, Type (0, 1), BuildingBlock: ZUJKAS_clean_linker_0, # of connection points: 2
#     Edge 25, Type (0, 1), BuildingBlock: ZUJKAS_clean_linker_0, # of connection points: 2
#     Edge 26, Type (0, 1), BuildingBlock: ZUJKAS_clean_linker_0, # of connection points: 2
#     Edge 27, Type (0, 1), BuildingBlock: ZUJKAS_clean_linker_0, # of connection points: 2
#     Edge 28, Type (0, 1), BuildingBlock: ZUJKAS_clean_linker_0, # of connection points: 2
#     Edge 29, Type (0, 1), BuildingBlock: ZUJKAS_clean_linker_0, # of connection points: 2
#     Edge 30, Type (0, 1), BuildingBlock: ZUJKAS_clean_linker_0, # of connection points: 2
#     Edge 31, Type (0, 1), BuildingBlock: ZUJKAS_clean_linker_0, # of connection points: 2
#     Edge 32, Type (0, 1), BuildingBlock: ZUJKAS_clean_linker_0, # of connection points: 2
#     Edge 33, Type (0, 1), BuildingBlock: ZUJKAS_clean_linker_0, # of connection points: 2
#     Edge 34, Type (0, 1), BuildingBlock: ZUJKAS_clean_linker_0, # of connection points: 2
#     Edge 35, Type (0, 1), BuildingBlock: ZUJKAS_clean_linker_0, # of connection points: 2
# Relax obj value: 0.071
# Max RMSD: 0.146
# Mean RMSD: 0.064
data_MOF--net-pyr--node1-PAMTOO_clean_sbu_0--node2-MIDCAF_clean_linker_0--edge1-ZUJKAS_clean_linker_0
_symmetry_space_group_name_H-M    P1
_symmetry_Int_Tables_number       1
_symmetry_cell_setting            triclinic
loop_
_symmetry_equiv_pos_as_xyz
'x, y, z'
_cell_length_a     56.13944
_cell_length_b     58.568134
_cell_length_c     58.619099
_cell_angle_alpha  89.975304
_cell_angle_beta   90.048804
_cell_angle_gamma 101.21764
loop_
_atom_site_label
_atom_site_type_symbol
_atom_site_fract_x
_atom_site_fract_y
_atom_site_fract_z
_atom_type_partial_charge
C0 C 0.26419 0.24913 0.2878 0.0
C1 C 0.2691 0.22866 0.29764 0.0
C2 C 0.28764 0.21855 0.28828 0.0
C3 C 0.30011 0.22801 0.26878 0.0
H4 H 0.3527 0.21869 0.22333 0.0
H5 H 0.37777 0.19496 0.20449 0.0
H6 H 0.36908 0.22894 0.14045 0.0
H7 H 0.34428 0.25313 0.15936 0.0
H8 H 0.30633 0.28788 0.15661 0.0
H9 H 0.28384 0.31284 0.13549 0.0
H10 H 0.25406 0.3327 0.19873 0.0
H11 H 0.27667 0.30833 0.21977 0.0
H12 H 0.2718 0.27396 0.26081 0.0
H13 H 0.2503 0.25755 0.29486 0.0
H14 H 0.29176 0.20268 0.29536 0.0
H15 H 0.31363 0.21923 0.26154 0.0
N16 N 0.32133 0.245 0.22558 0.0
N17 N 0.32059 0.26764 0.19263 0.0
N18 N 0.29649 0.2727 0.22417 0.0
C19 C 0.3294 0.25085 0.2041 0.0
C20 C 0.30423 0.27879 0.20268 0.0
C21 C 0.3049 0.25586 0.23576 0.0
C22 C 0.34624 0.23774 0.19285 0.0
C23 C 0.3562 0.22128 0.20525 0.0
C24 C 0.37051 0.20755 0.19443 0.0
C25 C 0.3752 0.20987 0.17092 0.0
C26 C 0.36594 0.22684 0.15862 0.0
C27 C 0.35163 0.24064 0.16947 0.0
C28 C 0.29314 0.2959 0.18989 0.0
C29 C 0.29531 0.29789 0.16603 0.0
C30 C 0.28231 0.31207 0.1539 0.0
C31 C 0.26708 0.32467 0.16541 0.0
C32 C 0.26583 0.32346 0.18933 0.0
C33 C 0.27867 0.30927 0.2014 0.0
C34 C 0.29426 0.24776 0.25818 0.0
C35 C 0.27662 0.25858 0.26831 0.0
C36 C 0.14497 0.81787 0.69121 0.0
C37 C 0.13784 0.81316 0.66844 0.0
C38 C 0.14606 0.7951 0.65693 0.0
C39 C 0.16146 0.78239 0.6678 0.0
H40 H 0.20695 0.73566 0.65483 0.0
H41 H 0.22931 0.71099 0.63328 0.0
H42 H 0.26794 0.69896 0.69453 0.0
H43 H 0.24539 0.72288 0.71606 0.0
H44 H 0.24573 0.75385 0.75791 0.0
H45 H 0.26598 0.76978 0.79273 0.0
H46 H 0.2219 0.82253 0.79419 0.0
H47 H 0.20128 0.80646 0.75952 0.0
H48 H 0.16572 0.80966 0.71951 0.0
H49 H 0.13926 0.83186 0.7005 0.0
H50 H 0.14065 0.79082 0.63947 0.0
H51 H 0.16768 0.7688 0.65831 0.0
N52 N 0.19594 0.75868 0.69013 0.0
N53 N 0.22068 0.75452 0.72148 0.0
N54 N 0.19473 0.78125 0.72304 0.0
C55 C 0.21292 0.7482 0.70004 0.0
C56 C 0.21171 0.77097 0.73313 0.0
C57 C 0.18663 0.77514 0.70161 0.0
C58 C 0.22447 0.73145 0.68717 0.0
C59 C 0.21996 0.72746 0.66376 0.0
C60 C 0.23287 0.71344 0.65136 0.0
C61 C 0.25048 0.70305 0.66215 0.0
C62 C 0.25429 0.70638 0.6857 0.0
C63 C 0.24144 0.72034 0.69805 0.0
C64 C 0.22202 0.77902 0.75569 0.0
C65 C 0.2401 0.76869 0.76574 0.0
C66 C 0.25181 0.77786 0.78568 0.0
C67 C 0.24572 0.79755 0.79608 0.0
C68 C 0.22688 0.80723 0.78668 0.0
C69 C 0.21515 0.79807 0.7667 0.0
C70 C 0.16903 0.78748 0.69044 0.0
C71 C 0.16032 0.80519 0.70208 0.0
C72 C 0.63446 0.28192 0.89026 0.0
C73 C 0.61496 0.26686 0.87985 0.0
C74 C 0.60508 0.27435 0.8597 0.0
C75 C 0.61484 0.29617 0.85004 0.0
H76 H 0.60684 0.34563 0.79746 0.0
H77 H 0.59105 0.36232 0.76381 0.0
H78 H 0.65254 0.41954 0.76508 0.0
H79 H 0.66797 0.40329 0.79883 0.0
H80 H 0.71123 0.40437 0.83596 0.0
H81 H 0.74732 0.42539 0.85587 0.0
H82 H 0.72757 0.38264 0.91548 0.0
H83 H 0.69176 0.36172 0.89583 0.0
H84 H 0.65921 0.31443 0.88945 0.0
H85 H 0.64223 0.27706 0.90604 0.0
H86 H 0.59009 0.26317 0.85116 0.0
H87 H 0.60702 0.30127 0.8344 0.0
N88 N 0.63719 0.34244 0.83097 0.0
N89 N 0.66817 0.37591 0.83286 0.0
N90 N 0.66567 0.34697 0.86074 0.0
C91 C 0.64824 0.36346 0.82212 0.0
C92 C 0.67694 0.3678 0.85224 0.0
C93 C 0.64593 0.33407 0.85035 0.0
C94 C 0.63869 0.37307 0.80109 0.0
C95 C 0.61703 0.36176 0.79058 0.0
C96 C 0.608 0.37131 0.77114 0.0
C97 C 0.62039 0.39242 0.76165 0.0
C98 C 0.64218 0.40353 0.77205 0.0
C99 C 0.65115 0.39405 0.79144 0.0
C100 C 0.69855 0.38129 0.86423 0.0
C101 C 0.71453 0.39954 0.85335 0.0
C102 C 0.73527 0.4115 0.8647 0.0
C103 C 0.74027 0.40571 0.88728 0.0
C104 C 0.72412 0.38771 0.8982 0.0
C105 C 0.70363 0.3756 0.88682 0.0
C106 C 0.63464 0.31104 0.86039 0.0
C107 C 0.64413 0.30357 0.88073 0.0
C108 C 0.78367 0.64207 0.39406 0.0
C109 C 0.77036 0.62104 0.38538 0.0
C110 C 0.77907 0.61154 0.36572 0.0
C111 C 0.80036 0.623 0.35487 0.0
H112 H 0.8461 0.61965 0.30032 0.0
H113 H 0.86161 0.60288 0.26694 0.0
H114 H 0.92299 0.66018 0.26501 0.0
H115 H 0.90714 0.67738 0.29828 0.0
H116 H 0.90747 0.72209 0.33486 0.0
H117 H 0.92477 0.76018 0.35146 0.0
H118 H 0.87116 0.74791 0.40512 0.0
H119 H 0.85383 0.71059 0.38867 0.0
H120 H 0.81442 0.66965 0.39061 0.0
H121 H 0.77783 0.6497 0.4094 0.0
H122 H 0.76919 0.59546 0.35846 0.0
H123 H 0.80639 0.61531 0.33966 0.0
N124 N 0.8451 0.64819 0.33321 0.0
N125 N 0.87672 0.68115 0.33148 0.0
N126 N 0.84727 0.67782 0.36027 0.0
C127 C 0.86553 0.66009 0.32281 0.0
C128 C 0.86759 0.69012 0.35031 0.0
C129 C 0.83586 0.65694 0.35199 0.0
C130 C 0.87531 0.64997 0.3022 0.0
C131 C 0.86293 0.62879 0.29288 0.0
C132 C 0.87194 0.61901 0.2737 0.0
C133 C 0.89369 0.63001 0.2632 0.0
C134 C 0.90606 0.65127 0.27242 0.0
C135 C 0.897 0.6611 0.29165 0.0
C136 C 0.87909 0.71315 0.36023 0.0
C137 C 0.8994 0.72755 0.35019 0.0
C138 C 0.90938 0.74937 0.35976 0.0
C139 C 0.8992 0.75732 0.37952 0.0
C140 C 0.87918 0.74272 0.38963 0.0
C141 C 0.8693 0.72108 0.38018 0.0
C142 C 0.81347 0.64421 0.36346 0.0
C143 C 0.80485 0.65347 0.38329 0.0
C144 C 0.63915 0.81632 0.857 0.0
C145 C 0.63781 0.81688 0.88092 0.0
C146 C 0.65019 0.80249 0.89368 0.0
C147 C 0.66427 0.7885 0.88278 0.0
H148 H 0.71511 0.74613 0.89502 0.0
H149 H 0.7413 0.72438 0.91561 0.0
H150 H 0.76146 0.69645 0.85183 0.0
H151 H 0.73593 0.71851 0.83128 0.0
H152 H 0.73996 0.75385 0.78927 0.0
H153 H 0.75764 0.76936 0.75335 0.0
H154 H 0.70599 0.81512 0.74949 0.0
H155 H 0.68855 0.80002 0.78578 0.0
H156 H 0.65416 0.8028 0.82766 0.0
H157 H 0.62945 0.82681 0.84663 0.0
H158 H 0.64973 0.80265 0.91215 0.0
H159 H 0.67409 0.77813 0.89317 0.0
N160 N 0.69411 0.76058 0.85908 0.0
N161 N 0.71564 0.7541 0.82621 0.0
N162 N 0.68866 0.77988 0.82492 0.0
C163 C 0.7103 0.74959 0.84854 0.0
C164 C 0.70495 0.76921 0.81425 0.0
C165 C 0.68301 0.7756 0.84726 0.0
C166 C 0.72366 0.73432 0.86147 0.0
C167 C 0.72492 0.73513 0.88543 0.0
C168 C 0.73989 0.72262 0.89724 0.0
C169 C 0.75378 0.70896 0.88534 0.0
C170 C 0.75151 0.70727 0.86149 0.0
C171 C 0.73674 0.71985 0.84971 0.0
C172 C 0.71306 0.77595 0.79069 0.0
C173 C 0.73207 0.76698 0.78067 0.0
C174 C 0.74215 0.77577 0.75993 0.0
C175 C 0.73341 0.79367 0.74867 0.0
C176 C 0.71343 0.80163 0.75797 0.0
C177 C 0.70337 0.79288 0.77874 0.0
C178 C 0.66635 0.78865 0.85887 0.0
C179 C 0.65326 0.80242 0.84611 0.0
C180 C 0.7962 0.22093 0.2627 0.0
C181 C 0.77617 0.22902 0.25366 0.0
C182 C 0.7681 0.2474 0.26472 0.0
C183 C 0.77902 0.25667 0.28498 0.0
H184 H 0.77646 0.30606 0.33458 0.0
H185 H 0.75183 0.32845 0.35586 0.0
H186 H 0.77901 0.30572 0.41917 0.0
H187 H 0.80363 0.28295 0.39785 0.0
H188 H 0.84715 0.25413 0.39441 0.0
H189 H 0.87286 0.23104 0.41368 0.0
H190 H 0.87957 0.19428 0.35087 0.0
H191 H 0.85442 0.21756 0.33147 0.0
H192 H 0.82202 0.22301 0.2898 0.0
H193 H 0.80311 0.20706 0.25436 0.0
H194 H 0.75259 0.25392 0.25832 0.0
H195 H 0.77172 0.27025 0.29343 0.0
N196 N 0.7977 0.27112 0.32955 0.0
N197 N 0.82112 0.26602 0.36162 0.0
N198 N 0.82433 0.245 0.32807 0.0
C199 C 0.8044 0.27663 0.35144 0.0
C200 C 0.83133 0.25029 0.34995 0.0
C201 C 0.80756 0.25534 0.31772 0.0
C202 C 0.79187 0.29249 0.36449 0.0
C203 C 0.77745 0.30598 0.35304 0.0
C204 C 0.76344 0.319 0.36524 0.0
C205 C 0.7634 0.31878 0.3892 0.0
C206 C 0.7785 0.30603 0.4007 0.0
C207 C 0.79271 0.2931 0.38847 0.0
C208 C 0.84851 0.23764 0.36139 0.0
C209 C 0.8543 0.2413 0.38462 0.0
C210 C 0.86894 0.22797 0.39572 0.0
C211 C 0.87816 0.21072 0.38385 0.0
C212 C 0.87301 0.20759 0.36048 0.0
C213 C 0.8584 0.22088 0.34938 0.0
C214 C 0.79822 0.24773 0.29471 0.0
C215 C 0.80711 0.23018 0.28299 0.0
C216 C 0.27751 0.61944 0.18879 0.0
C217 C 0.2723 0.62694 0.1668 0.0
C218 C 0.28896 0.64516 0.15669 0.0
C219 C 0.30978 0.65602 0.16837 0.0
H220 H 0.35074 0.7193 0.17209 0.0
H221 H 0.36958 0.7559 0.15504 0.0
H222 H 0.43117 0.76 0.20009 0.0
H223 H 0.41185 0.72304 0.21779 0.0
H224 H 0.40068 0.68527 0.26316 0.0
H225 H 0.41577 0.66822 0.29699 0.0
H226 H 0.36572 0.60361 0.28431 0.0
H227 H 0.35072 0.62046 0.25053 0.0
H228 H 0.30181 0.62432 0.21749 0.0
H229 H 0.26505 0.60558 0.19722 0.0
H230 H 0.28602 0.65106 0.13959 0.0
H231 H 0.32197 0.67009 0.15992 0.0
N232 N 0.34814 0.68256 0.19515 0.0
N233 N 0.37648 0.68573 0.22492 0.0
N234 N 0.34513 0.65261 0.22203 0.0
C235 C 0.36796 0.69487 0.20586 0.0
C236 C 0.36512 0.66454 0.23314 0.0
C237 C 0.33657 0.66154 0.20295 0.0
C238 C 0.3798 0.71793 0.1963 0.0
C239 C 0.36832 0.72783 0.1785 0.0
C240 C 0.37924 0.7489 0.16852 0.0
C241 C 0.40212 0.76084 0.17586 0.0
C242 C 0.4135 0.75132 0.19402 0.0
C243 C 0.40246 0.73008 0.20413 0.0
C244 C 0.37443 0.65432 0.25394 0.0
C245 C 0.39286 0.66742 0.26753 0.0
C246 C 0.40145 0.65768 0.28706 0.0
C247 C 0.39202 0.63449 0.29342 0.0
C248 C 0.37363 0.62141 0.27982 0.0
C249 C 0.36491 0.63118 0.26045 0.0
C250 C 0.31481 0.6489 0.1905 0.0
C251 C 0.29857 0.63025 0.20047 0.0
C252 C 0.13173 0.27592 0.66782 0.0
C253 C 0.10917 0.26377 0.67571 0.0
C254 C 0.09827 0.27316 0.69424 0.0
C255 C 0.1095 0.29439 0.70426 0.0
H256 H 0.10717 0.3419 0.75932 0.0
H257 H 0.09265 0.35862 0.79351 0.0
H258 H 0.15251 0.4172 0.78906 0.0
H259 H 0.16728 0.40038 0.75525 0.0
H260 H 0.21137 0.39902 0.71819 0.0
H261 H 0.24826 0.41761 0.69808 0.0
H262 H 0.22667 0.373 0.63996 0.0
H263 H 0.1906 0.35409 0.66014 0.0
H264 H 0.1602 0.30562 0.67089 0.0
H265 H 0.14104 0.26905 0.65402 0.0
H266 H 0.08085 0.26435 0.70074 0.0
H267 H 0.10051 0.30126 0.71828 0.0
N268 N 0.13576 0.33865 0.72485 0.0
N269 N 0.16777 0.37125 0.72246 0.0
N270 N 0.16413 0.34165 0.69516 0.0
C271 C 0.14755 0.35956 0.73338 0.0
C272 C 0.17611 0.3624 0.70325 0.0
C273 C 0.14409 0.32955 0.7057 0.0
C274 C 0.13848 0.36968 0.75436 0.0
C275 C 0.1173 0.35833 0.76561 0.0
C276 C 0.10886 0.36802 0.78521 0.0
C277 C 0.12137 0.38932 0.79419 0.0
C278 C 0.14254 0.40063 0.78294 0.0
C279 C 0.15095 0.39099 0.76335 0.0
C280 C 0.19804 0.37488 0.69094 0.0
C281 C 0.21452 0.39324 0.7011 0.0
C282 C 0.23565 0.40397 0.6895 0.0
C283 C 0.24072 0.39669 0.6674 0.0
C284 C 0.22385 0.37873 0.65713 0.0
C285 C 0.20296 0.36794 0.66873 0.0
C286 C 0.13189 0.30668 0.69596 0.0
C287 C 0.14285 0.29698 0.6777 0.0
Dy288 Dy 0.029 0.01552 0.51378 0.0
Dy289 Dy 0.97853 1.00486 0.54375 0.0
C290 C 0.02054 0.04914 0.55434 0.0
O291 O 0.03658 0.99656 0.54527 0.0
O292 O 0.99818 0.97655 0.55275 0.0
O293 O 0.06792 0.02707 0.51266 0.0
O294 O 0.04808 0.01447 0.48198 0.0
O295 O 0.97149 0.9815 0.51311 0.0
O296 O 0.01077 0.97934 0.50431 0.0
O297 O 0.97689 0.03654 0.52332 0.0
O298 O 1.00216 0.03122 0.49394 0.0
O299 O 0.93948 1.00048 0.54565 0.0
O300 O 0.96069 0.99909 0.57638 0.0
C301 C 0.02179 0.97918 0.55502 0.0
O302 O 0.02855 0.04816 0.53339 0.0
O303 O 0.00492 0.0317 0.56314 0.0
C304 C 0.08335 0.0441 0.47749 0.0
C305 C 0.1128 0.07968 0.45192 0.0
C306 C 0.11695 0.07729 0.47537 0.0
C307 C 0.10243 0.05966 0.48801 0.0
C308 C 0.0791 0.04659 0.45407 0.0
C309 C 0.09361 0.06423 0.44146 0.0
C310 C 0.06892 0.02458 0.49058 0.0
C311 C 0.9873 0.97134 0.50253 0.0
C312 C 0.98505 0.04109 0.50252 0.0
C313 C 0.92135 0.97628 0.5755 0.0
C314 C 0.88814 0.93803 0.59303 0.0
C315 C 0.90832 0.93453 0.58021 0.0
C316 C 0.92482 0.95355 0.57148 0.0
C317 C 0.90112 0.97984 0.5879 0.0
C318 C 0.88465 0.96091 0.59661 0.0
C319 C 0.939 0.99651 0.56756 0.0
H320 H 0.13147 0.08904 0.48397 0.0
H321 H 0.10634 0.05807 0.50597 0.0
H322 H 0.0648 0.03469 0.44535 0.0
H323 H 0.0902 0.06535 0.42334 0.0
H324 H 0.91141 0.91713 0.57701 0.0
H325 H 0.9404 0.95056 0.56186 0.0
H326 H 0.89828 0.99732 0.59121 0.0
H327 H 0.86957 0.96426 0.60673 0.0
Dy328 Dy 0.48408 1.00883 1.01281 0.0
Dy329 Dy 0.53385 0.01897 0.04391 0.0
C330 C 0.49116 0.9749 0.0536 0.0
O331 O 0.47589 0.02748 0.04424 0.0
O332 O 0.51414 0.04728 0.05273 0.0
O333 O 0.44518 0.99812 1.01058 0.0
O334 O 0.46614 1.0103 0.98036 0.0
O335 O 0.54178 0.04239 1.01337 0.0
O336 O 0.50277 0.04506 1.00414 0.0
O337 O 0.53548 0.98712 0.02376 0.0
O338 O 0.51123 0.9929 0.99368 0.0
O339 O 0.57286 0.02329 0.04664 0.0
O340 O 0.55092 0.02421 0.07694 0.0
C341 C 0.49048 0.04471 0.05443 0.0
O342 O 0.48345 0.97603 0.03254 0.0
O343 O 0.50682 0.99217 0.06265 0.0
C344 C 0.43008 0.98259 0.97508 0.0
C345 C 0.40068 0.94761 0.94907 0.0
C346 C 0.4154 0.94165 0.96668 0.0
C347 C 0.4301 0.95904 0.97954 0.0
C348 C 0.41553 0.98856 0.95751 0.0
C349 C 0.40098 0.97126 0.9446 0.0
C350 C 0.44481 1.00126 0.98856 0.0
C351 C 0.52629 0.05282 1.00264 0.0
C352 C 0.52784 0.98269 1.00278 0.0
C353 C 0.59028 0.04698 0.07714 0.0
C354 C 0.62298 0.08491 0.09592 0.0
C355 C 0.60319 0.08864 0.08261 0.0
C356 C 0.58695 0.06979 0.07327 0.0
C357 C 0.61013 0.04319 0.09003 0.0
C358 C 0.62634 0.06197 0.09935 0.0
C359 C 0.57282 0.0269 0.0686 0.0
H360 H 0.41571 0.92359 0.97036 0.0
H361 H 0.44136 0.95413 0.99299 0.0
H362 H 0.4153 1.00667 0.95389 0.0
H363 H 0.3896 0.97639 0.93138 0.0
H364 H 0.60022 0.1061 0.07951 0.0
H365 H 0.57166 0.07296 0.06329 0.0
H366 H 0.61284 0.02565 0.09323 0.0
H367 H 0.64111 0.05844 0.10982 0.0
Dy368 Dy 0.50363 0.48548 0.51199 0.0
Dy369 Dy 0.50693 0.53486 0.53967 0.0
C370 C 0.52795 0.49309 0.56188 0.0
O371 O 0.46569 0.48376 0.5246 0.0
O372 O 0.47418 0.51086 0.55332 0.0
O373 O 0.49773 0.44788 0.51094 0.0
O374 O 0.50755 0.46793 0.48025 0.0
O375 O 0.48025 0.53615 0.51153 0.0
O376 O 0.49311 0.51074 0.48693 0.0
O377 O 0.53742 0.54081 0.51448 0.0
O378 O 0.54265 0.50326 0.51065 0.0
O379 O 0.51278 0.57239 0.53966 0.0
O380 O 0.50507 0.55339 0.57132 0.0
C381 C 0.45947 0.49357 0.54329 0.0
O382 O 0.51417 0.47875 0.54785 0.0
O383 O 0.5317 0.51576 0.55878 0.0
C384 C 0.52469 0.43505 0.48543 0.0
C385 C 0.56432 0.41424 0.47407 0.0
C386 C 0.56645 0.43097 0.49153 0.0
C387 C 0.54682 0.44133 0.49712 0.0
C388 C 0.52227 0.41806 0.46835 0.0
C389 C 0.54192 0.40769 0.46272 0.0
C390 C 0.5049 0.44753 0.48982 0.0
C391 C 0.48152 0.52778 0.49088 0.0
C392 C 0.55046 0.5257 0.50786 0.0
C393 C 0.48706 0.58592 0.56602 0.0
C394 C 0.4475 0.60687 0.57729 0.0
C395 C 0.44768 0.59478 0.55661 0.0
C396 C 0.46721 0.58428 0.5511 0.0
C397 C 0.48715 0.59827 0.58649 0.0
C398 C 0.46749 0.60864 0.59212 0.0
C399 C 0.50675 0.57338 0.56106 0.0
H400 H 0.58352 0.43662 0.50039 0.0
H401 H 0.54907 0.45464 0.51021 0.0
H402 H 0.50534 0.41313 0.45909 0.0
H403 H 0.53962 0.39466 0.44937 0.0
H404 H 0.4324 0.59284 0.545 0.0
H405 H 0.46658 0.57449 0.53536 0.0
H406 H 0.50221 0.59955 0.59829 0.0
H407 H 0.46788 0.61799 0.6081 0.0
Dy408 Dy 0.00822 0.53773 1.01273 0.0
Dy409 Dy 0.0062 0.48831 0.03982 0.0
C410 C 0.98492 0.52948 0.06293 0.0
O411 O 0.04649 0.53978 0.02471 0.0
O412 O 0.03869 0.51263 0.05346 0.0
O413 O 0.01429 0.57533 1.01178 0.0
O414 O 0.00253 0.55534 0.98144 0.0
O415 O 0.033 0.48831 1.01155 0.0
O416 O 0.01829 0.51269 0.98718 0.0
O417 O 0.97533 0.48217 1.01497 0.0
O418 O 0.96931 0.51955 1.01247 0.0
O419 O 0.00262 0.45094 0.03906 0.0
O420 O 0.00756 0.46931 0.07125 0.0
C421 C 0.05311 0.53002 0.0433 0.0
O422 O 0.99821 0.54407 0.04879 0.0
O423 O 0.98148 0.50684 0.05969 0.0
C424 C 0.98576 0.58821 0.98804 0.0
C425 C 0.94543 0.60898 0.97921 0.0
C426 C 0.94429 0.5919 0.99627 0.0
C427 C 0.96427 0.58159 1.00061 0.0
C428 C 0.98725 0.60557 0.97139 0.0
C429 C 0.96726 0.61593 0.96703 0.0
C430 C 0.00581 0.57573 0.9911 0.0
C431 C 0.03079 0.49628 0.99088 0.0
C432 C 0.96178 0.49715 1.00919 0.0
C433 C 0.02827 0.43868 0.06619 0.0
C434 C 0.06897 0.41986 0.07862 0.0
C435 C 0.07075 0.43668 0.06126 0.0
C436 C 0.05062 0.44607 0.05518 0.0
C437 C 0.02622 0.42169 0.08326 0.0
C438 C 0.04641 0.41232 0.08944 0.0
C439 C 0.00765 0.44975 0.0607 0.0
H440 H 0.92788 0.58635 1.00613 0.0
H441 H 0.96279 0.5681 1.01349 0.0
H442 H 0.00364 0.6107 0.96139 0.0
H443 H 0.96863 0.6288 0.95358 0.0
H444 H 0.08771 0.44264 0.05235 0.0
H445 H 0.05259 0.45933 0.04205 0.0
H446 H 0.00914 0.41599 0.09208 0.0
H447 H 0.04449 0.39964 0.1031 0.0
H448 H 0.21984 0.22232 0.30135 0.0
H449 H 0.19385 0.20005 0.33025 0.0
H450 H 0.25699 0.18487 0.36447 0.0
H451 H 0.28327 0.20767 0.33586 0.0
H452 H 0.19268 0.15225 0.33852 0.0
H453 H 0.21626 0.20553 0.41673 0.0
H454 H 0.22272 0.21717 0.38837 0.0
H455 H 0.24158 0.19906 0.40094 0.0
C456 C 0.22828 0.21476 0.31533 0.0
C457 C 0.25365 0.21684 0.31637 0.0
C458 C 0.21338 0.20191 0.33173 0.0
C459 C 0.22353 0.19102 0.34957 0.0
C460 C 0.24884 0.19345 0.35101 0.0
H461 H 0.16231 0.09228 0.45416 0.0
H462 H 0.18903 0.12013 0.42987 0.0
C463 C 0.2638 0.20628 0.33455 0.0
C464 C 0.20745 0.17565 0.36555 0.0
H465 H 0.19101 0.16834 0.42153 0.0
C466 C 0.1922 0.15581 0.35665 0.0
C467 C 0.20706 0.18032 0.38918 0.0
C468 C 0.22262 0.20176 0.39944 0.0
C469 C 0.17671 0.1403 0.37082 0.0
C470 C 0.17613 0.14505 0.39444 0.0
C471 C 0.19147 0.16484 0.40339 0.0
C472 C 0.15982 0.12947 0.41009 0.0
C473 C 0.16149 0.1187 0.36045 0.0
C474 C 0.13454 0.12598 0.40734 0.0
C475 C 0.11923 0.11014 0.42121 0.0
C476 C 0.12893 0.09763 0.43818 0.0
C477 C 0.15426 0.10178 0.44138 0.0
C478 C 0.16955 0.11761 0.42747 0.0
H479 H 0.16846 0.11472 0.34347 0.0
H480 H 0.16099 0.1034 0.37175 0.0
H481 H 0.14261 0.1214 0.35818 0.0
H482 H 0.12667 0.13534 0.3943 0.0
H483 H 0.09979 0.10764 0.4186 0.0
H484 H 0.29492 0.80575 0.80126 0.0
H485 H 0.31905 0.82734 0.83167 0.0
H486 H 0.25356 0.83735 0.86532 0.0
H487 H 0.22917 0.81569 0.83478 0.0
H488 H 0.286 0.87767 0.86021 0.0
H489 H 0.33249 0.81109 0.89695 0.0
H490 H 0.33618 0.81341 0.86659 0.0
H491 H 0.30636 0.80372 0.87848 0.0
C492 C 0.28559 0.81203 0.8154 0.0
C493 C 0.26011 0.80893 0.81566 0.0
C494 C 0.29943 0.82434 0.83281 0.0
C495 C 0.2881 0.83361 0.85097 0.0
C496 C 0.26265 0.8302 0.85152 0.0
H497 H 0.37162 0.9075 0.9645 0.0
H498 H 0.34323 0.87894 0.94214 0.0
C499 C 0.24876 0.81793 0.83404 0.0
C500 C 0.30296 0.84863 0.86812 0.0
H501 H 0.35061 0.85106 0.90489 0.0
C502 C 0.2999 0.87175 0.87022 0.0
C503 C 0.32089 0.84083 0.88138 0.0
C504 C 0.32402 0.81583 0.88093 0.0
C505 C 0.31498 0.88756 0.88444 0.0
C506 C 0.33393 0.88015 0.89654 0.0
C507 C 0.3363 0.85677 0.8953 0.0
C508 C 0.35189 0.89667 0.90995 0.0
C509 C 0.31057 0.91211 0.88628 0.0
C510 C 0.36661 0.91567 0.89911 0.0
C511 C 0.3828 0.93193 0.91177 0.0
C512 C 0.38473 0.92939 0.93551 0.0
C513 C 0.37061 0.90985 0.94622 0.0
C514 C 0.35433 0.8936 0.93351 0.0
H515 H 0.29163 0.91309 0.88153 0.0
H516 H 0.31417 0.91901 0.90385 0.0
H517 H 0.32295 0.92351 0.87442 0.0
H518 H 0.36545 0.91801 0.88084 0.0
H519 H 0.39379 0.94654 0.90297 0.0
H520 H 0.5976 0.37017 0.72379 0.0
H521 H 0.58253 0.38768 0.6901 0.0
H522 H 0.60622 0.45596 0.71901 0.0
H523 H 0.62101 0.43868 0.75283 0.0
H524 H 0.54774 0.41618 0.68667 0.0
H525 H 0.63739 0.46293 0.6556 0.0
H526 H 0.63434 0.44022 0.67684 0.0
H527 H 0.63091 0.46906 0.68471 0.0
C528 C 0.59947 0.38891 0.72311 0.0
C529 C 0.61075 0.40295 0.7411 0.0
C530 C 0.59094 0.39891 0.70373 0.0
C531 C 0.59362 0.4232 0.70176 0.0
C532 C 0.60448 0.43723 0.71981 0.0
H533 H 0.55345 0.51645 0.59785 0.0
H534 H 0.56911 0.49965 0.63173 0.0
C535 C 0.61297 0.42727 0.73919 0.0
C536 C 0.58462 0.43381 0.68107 0.0
H537 H 0.60267 0.47123 0.63673 0.0
C538 C 0.55978 0.42813 0.67569 0.0
C539 C 0.60026 0.44953 0.66676 0.0
C540 C 0.62725 0.45569 0.67108 0.0
C541 C 0.55012 0.43797 0.65671 0.0
C542 C 0.56579 0.45357 0.6423 0.0
C543 C 0.59062 0.45932 0.64772 0.0
C544 C 0.55679 0.46384 0.62138 0.0
C545 C 0.52308 0.43195 0.65261 0.0
C546 C 0.54513 0.4494 0.60394 0.0
C547 C 0.53612 0.45893 0.58459 0.0
C548 C 0.53872 0.48321 0.58203 0.0
C549 C 0.55104 0.4977 0.59921 0.0
C550 C 0.56 0.4881 0.61864 0.0
H551 H 0.51303 0.42553 0.6684 0.0
H552 H 0.51611 0.44724 0.64619 0.0
H553 H 0.51913 0.41793 0.63964 0.0
H554 H 0.54296 0.43067 0.60528 0.0
H555 H 0.52699 0.44718 0.57167 0.0
H556 H 0.91623 0.65192 0.22509 0.0
H557 H 0.93111 0.63413 0.19153 0.0
H558 H 0.90776 0.5661 0.22111 0.0
H559 H 0.89314 0.58368 0.25482 0.0
H560 H 0.96592 0.60581 0.18816 0.0
H561 H 0.87617 0.55835 0.15791 0.0
H562 H 0.87928 0.58122 0.17899 0.0
H563 H 0.883 0.55249 0.18702 0.0
C564 C 0.9144 0.63318 0.2246 0.0
C565 C 0.90326 0.6193 0.24274 0.0
C566 C 0.92282 0.62301 0.20528 0.0
C567 C 0.92018 0.59871 0.20353 0.0
C568 C 0.90946 0.58483 0.22174 0.0
H569 H 0.96023 0.50571 0.09912 0.0
H570 H 0.94478 0.52217 0.1333 0.0
C571 C 0.90108 0.59496 0.24106 0.0
C572 C 0.92907 0.58795 0.18289 0.0
H573 H 0.91079 0.55027 0.13879 0.0
C574 C 0.95384 0.59374 0.17732 0.0
C575 C 0.91336 0.57206 0.16876 0.0
C576 C 0.88643 0.56577 0.17329 0.0
C577 C 0.96337 0.5839 0.15829 0.0
C578 C 0.94764 0.56818 0.14403 0.0
C579 C 0.92288 0.56227 0.14967 0.0
C580 C 0.95649 0.55807 0.12296 0.0
C581 C 0.99036 0.59009 0.15396 0.0
C582 C 0.96771 0.57267 0.10545 0.0
C583 C 0.97658 0.56333 0.08595 0.0
C584 C 0.97428 0.53909 0.08329 0.0
C585 C 0.9624 0.52444 0.10056 0.0
C586 C 0.95356 0.53383 0.12014 0.0
H587 H 1.00056 0.59656 0.16967 0.0
H588 H 0.99737 0.57487 0.14745 0.0
H589 H 0.99406 0.60412 0.14098 0.0
H590 H 0.96964 0.59137 0.10685 0.0
H591 H 0.98537 0.57522 0.07297 0.0
H592 H 0.4101 0.22052 0.13774 0.0
H593 H 0.43167 0.19374 0.11799 0.0
H594 H 0.39273 0.13659 0.15784 0.0
H595 H 0.371 0.16309 0.17748 0.0
H596 H 0.44301 0.13768 0.15498 0.0
H597 H 0.4016 0.14536 0.0698 0.0
H598 H 0.41594 0.1724 0.08268 0.0
H599 H 0.38941 0.15525 0.09566 0.0
C600 C 0.40602 0.20223 0.14217 0.0
C601 C 0.38883 0.19394 0.15918 0.0
C602 C 0.41836 0.18697 0.1309 0.0
C603 C 0.41359 0.16317 0.13632 0.0
C604 C 0.39669 0.15491 0.15344 0.0
H605 H 0.44242 0.04535 0.06116 0.0
H606 H 0.42499 0.07453 0.08156 0.0
C607 C 0.38438 0.17011 0.16472 0.0
C608 C 0.42607 0.14671 0.12418 0.0
H609 H 0.43174 0.12237 0.07205 0.0
C610 C 0.44065 0.13437 0.13683 0.0
C611 C 0.42269 0.14228 0.10057 0.0
C612 C 0.40641 0.15434 0.08635 0.0
C613 C 0.45194 0.11765 0.12649 0.0
C614 C 0.44877 0.11342 0.10283 0.0
C615 C 0.43424 0.12579 0.09017 0.0
C616 C 0.45964 0.09561 0.09098 0.0
C617 C 0.4666 0.10421 0.14105 0.0
C618 C 0.48493 0.09785 0.08949 0.0
C619 C 0.495 0.08116 0.07788 0.0
C620 C 0.47992 0.06199 0.06745 0.0
C621 C 0.45458 0.05983 0.06903 0.0
C622 C 0.44456 0.07652 0.08063 0.0
H623 H 0.46273 0.10576 0.15951 0.0
H624 H 0.46283 0.08549 0.13633 0.0
H625 H 0.48622 0.11114 0.13827 0.0
H626 H 0.49688 0.11267 0.09705 0.0
H627 H 0.51459 0.08343 0.07688 0.0
H628 H 0.09888 0.82961 0.68534 0.0
H629 H 0.0762 0.8561 0.66669 0.0
H630 H 0.11993 0.85626 0.60624 0.0
H631 H 0.14292 0.83006 0.62481 0.0
H632 H 0.09618 0.9008 0.65012 0.0
H633 H 0.04991 0.84361 0.5814 0.0
H634 H 0.06312 0.83241 0.6061 0.0
H635 H 0.08212 0.845 0.58288 0.0
C636 C 0.10365 0.83524 0.66805 0.0
C637 C 0.12274 0.82772 0.65657 0.0
C638 C 0.09059 0.85027 0.6574 0.0
C639 C 0.09622 0.85792 0.63502 0.0
C640 C 0.11497 0.85018 0.62336 0.0
H641 H 0.06953 0.97975 0.56498 0.0
H642 H 0.08647 0.95024 0.58546 0.0
C643 C 0.12807 0.83517 0.634 0.0
C644 C 0.08349 0.87509 0.62435 0.0
H645 H 0.0491 0.88405 0.57836 0.0
C646 C 0.08573 0.8971 0.63453 0.0
C647 C 0.0697 0.87012 0.60414 0.0
C648 C 0.06583 0.84643 0.59306 0.0
C649 C 0.07507 0.91451 0.62466 0.0
C650 C 0.06209 0.90983 0.60397 0.0
C651 C 0.05925 0.88762 0.59414 0.0
C652 C 0.05169 0.9279 0.59204 0.0
C653 C 0.07773 0.93775 0.63648 0.0
C654 C 0.02653 0.92494 0.5887 0.0
C655 C 0.01676 0.94177 0.57698 0.0
C656 C 0.03202 0.96177 0.5682 0.0
C657 C 0.05724 0.96463 0.57158 0.0
C658 C 0.06696 0.94783 0.58337 0.0
H659 H 0.08273 0.93662 0.65473 0.0
H660 H 0.0923 0.95043 0.628 0.0
H661 H 0.06064 0.94457 0.63539 0.0
H662 H 0.01447 0.9096 0.59519 0.0
H663 H 0.99727 0.93895 0.5746 0.0
H664 H 0.7437 0.4223 0.93102 0.0
H665 H 0.78035 0.44026 0.95184 0.0
H666 H 0.82367 0.43396 0.89227 0.0
H667 H 0.78696 0.41644 0.87122 0.0
H668 H 0.81835 0.42237 0.96311 0.0
H669 H 0.85037 0.50015 0.90966 0.0
H670 H 0.82051 0.48231 0.90646 0.0
H671 H 0.84646 0.47369 0.8935 0.0
C672 C 0.76103 0.42491 0.9223 0.0
C673 C 0.76241 0.418 0.89944 0.0
C674 C 0.78198 0.43521 0.93422 0.0
C675 C 0.80484 0.4388 0.9236 0.0
C676 C 0.80625 0.43201 0.90071 0.0
H677 H 0.94295 0.45306 0.99422 0.0
H678 H 0.90472 0.4395 0.97415 0.0
C679 C 0.78524 0.42191 0.88869 0.0
C680 C 0.82721 0.44843 0.9369 0.0
H681 H 0.87877 0.49058 0.93672 0.0
C682 C 0.83146 0.4374 0.95739 0.0
C683 C 0.84422 0.46826 0.92971 0.0
C684 C 0.84007 0.48194 0.90876 0.0
C685 C 0.85236 0.44528 0.97058 0.0
C686 C 0.86997 0.46438 0.96279 0.0
C687 C 0.86547 0.47577 0.94259 0.0
C688 C 0.89322 0.47268 0.97523 0.0
C689 C 0.85512 0.43326 0.99293 0.0
C690 C 0.89996 0.49606 0.98203 0.0
C691 C 0.92205 0.50398 0.99329 0.0
C692 C 0.9379 0.48867 0.99802 0.0
C693 C 0.9311 0.46529 0.99115 0.0
C694 C 0.90913 0.45745 0.97975 0.0
H695 H 0.83724 0.42442 0.99977 0.0
H696 H 0.86624 0.41978 0.99019 0.0
H697 H 0.86425 0.44575 1.00593 0.0
H698 H 0.88809 0.50821 0.97865 0.0
H699 H 0.92672 0.52213 0.99822 0.0
H700 H 0.73464 0.6414 0.40348 0.0
H701 H 0.69811 0.62277 0.42387 0.0
H702 H 0.71677 0.5556 0.41298 0.0
H703 H 0.75393 0.57423 0.39314 0.0
H704 H 0.6592 0.58971 0.409 0.0
H705 H 0.70528 0.5556 0.48181 0.0
H706 H 0.7212 0.57704 0.46222 0.0
H707 H 0.71383 0.54691 0.45408 0.0
C708 C 0.73119 0.62268 0.40562 0.0
C709 C 0.74745 0.60937 0.39685 0.0
C710 C 0.71016 0.61203 0.41717 0.0
C711 C 0.70486 0.58782 0.42033 0.0
C712 C 0.72071 0.57436 0.41117 0.0
H713 H 0.58213 0.49985 0.4903 0.0
H714 H 0.61946 0.51395 0.4687 0.0
C715 C 0.74181 0.58502 0.39958 0.0
C716 C 0.68253 0.57686 0.43295 0.0
H717 H 0.66241 0.54573 0.48092 0.0
C718 C 0.65992 0.58007 0.42471 0.0
C719 C 0.68344 0.56419 0.45343 0.0
C720 C 0.70722 0.56084 0.46358 0.0
C721 C 0.63825 0.57106 0.43635 0.0
C722 C 0.63919 0.55882 0.45706 0.0
C723 C 0.66173 0.55516 0.46508 0.0
C724 C 0.61702 0.55029 0.47089 0.0
C725 C 0.61449 0.57456 0.42625 0.0
C726 C 0.60355 0.56606 0.47979 0.0
C727 C 0.58225 0.5581 0.49216 0.0
C728 C 0.57397 0.53415 0.49603 0.0
C729 C 0.58789 0.51841 0.48763 0.0
C730 C 0.60925 0.52642 0.47526 0.0
H731 H 0.61615 0.57844 0.4077 0.0
H732 H 0.6 0.55892 0.42883 0.0
H733 H 0.60878 0.58952 0.43481 0.0
H734 H 0.60946 0.58459 0.47707 0.0
H735 H 0.57213 0.57076 0.49845 0.0
H736 H 0.24056 0.31098 0.12692 0.0
H737 H 0.20972 0.32962 0.10937 0.0
H738 H 0.22563 0.38569 0.15805 0.0
H739 H 0.25675 0.36734 0.17554 0.0
H740 H 0.17633 0.36323 0.15616 0.0
H741 H 0.21312 0.38883 0.06994 0.0
H742 H 0.21351 0.35927 0.07795 0.0
H743 H 0.23202 0.38278 0.09328 0.0
C744 C 0.23802 0.32762 0.13348 0.0
C745 C 0.25104 0.33763 0.1527 0.0
C746 C 0.22035 0.33823 0.12344 0.0
C747 C 0.2155 0.35907 0.13236 0.0
C748 C 0.22913 0.3696 0.15094 0.0
H749 H 0.11562 0.44404 0.08345 0.0
H750 H 0.15131 0.42915 0.0958 0.0
C751 C 0.24682 0.35904 0.16095 0.0
C752 C 0.19469 0.36869 0.1238 0.0
H753 H 0.17177 0.3909 0.07656 0.0
C754 C 0.17537 0.36938 0.13879 0.0
C755 C 0.19359 0.37677 0.10117 0.0
C756 C 0.21423 0.3771 0.08465 0.0
C757 C 0.15475 0.37764 0.13165 0.0
C758 C 0.15337 0.38517 0.10888 0.0
C759 C 0.17285 0.38488 0.09396 0.0
C760 C 0.13192 0.39378 0.10042 0.0
C761 C 0.1347 0.37847 0.14858 0.0
C762 C 0.1093 0.37869 0.09865 0.0
C763 C 0.08887 0.38708 0.09142 0.0
C764 C 0.09074 0.41072 0.0858 0.0
C765 C 0.11358 0.42568 0.08732 0.0
C766 C 0.13399 0.41726 0.09447 0.0
H767 H 0.14072 0.37665 0.16643 0.0
H768 H 0.12805 0.39506 0.14701 0.0
H769 H 0.11923 0.36397 0.14501 0.0
H770 H 0.10745 0.36043 0.1029 0.0
H771 H 0.07167 0.37501 0.09007 0.0
H772 H 0.56727 0.24435 0.88451 0.0
H773 H 0.55185 0.20744 0.90422 0.0
H774 H 0.62523 0.19981 0.91843 0.0
H775 H 0.64075 0.23639 0.89869 0.0
H776 H 0.56041 0.16162 0.89694 0.0
H777 H 0.59383 0.19529 0.98193 0.0
H778 H 0.59183 0.21419 0.95796 0.0
H779 H 0.61675 0.19913 0.96016 0.0
C780 C 0.58013 0.23469 0.8916 0.0
C781 C 0.60527 0.24358 0.89025 0.0
C782 C 0.57128 0.21364 0.90297 0.0
C783 C 0.58736 0.20109 0.91327 0.0
C784 C 0.61243 0.20946 0.91117 0.0
H785 H 0.57356 0.0752 0.99568 0.0
H786 H 0.58804 0.11052 0.97332 0.0
C787 C 0.62128 0.23043 0.89986 0.0
C788 C 0.57807 0.17933 0.92634 0.0
H789 H 0.57871 0.15466 0.97919 0.0
C790 C 0.56428 0.16012 0.91495 0.0
C791 C 0.58318 0.17734 0.94985 0.0
C792 C 0.59702 0.19763 0.9633 0.0
C793 C 0.55594 0.13886 0.92628 0.0
C794 C 0.56111 0.13685 0.94979 0.0
C795 C 0.57482 0.15611 0.96117 0.0
C796 C 0.55224 0.11506 0.96299 0.0
C797 C 0.54221 0.11855 0.9128 0.0
C798 C 0.52728 0.10593 0.96491 0.0
C799 C 0.51893 0.08572 0.97765 0.0
C800 C 0.53535 0.0742 0.98895 0.0
C801 C 0.56037 0.0835 0.98716 0.0
C802 C 0.5687 0.10373 0.97438 0.0
H803 H 0.54571 0.12079 0.8942 0.0
H804 H 0.54718 0.10195 0.91833 0.0
H805 H 0.52244 0.11721 0.91561 0.0
H806 H 0.51416 0.11461 0.95678 0.0
H807 H 0.49954 0.07924 0.97872 0.0
H808 H 0.94707 0.77908 0.38499 0.0
H809 H 0.96275 0.81598 0.40465 0.0
H810 H 0.88953 0.82507 0.4171 0.0
H811 H 0.87376 0.78856 0.39736 0.0
H812 H 0.95496 0.86231 0.39674 0.0
H813 H 0.91984 0.829 0.48132 0.0
H814 H 0.92215 0.81001 0.45751 0.0
H815 H 0.89735 0.82528 0.45912 0.0
C816 C 0.9343 0.78907 0.39167 0.0
C817 C 0.90911 0.78061 0.38983 0.0
C818 C 0.9433 0.81011 0.40301 0.0
C819 C 0.92732 0.82306 0.41281 0.0
C820 C 0.90223 0.81512 0.41022 0.0
H821 H 0.94024 0.94883 0.49481 0.0
H822 H 0.92624 0.91351 0.47236 0.0
C823 C 0.89324 0.79418 0.39891 0.0
C824 C 0.9367 0.84476 0.42593 0.0
H825 H 0.93541 0.86956 0.47862 0.0
C826 C 0.95083 0.86387 0.41467 0.0
C827 C 0.93125 0.84683 0.44934 0.0
C828 C 0.917 0.82665 0.46264 0.0
C829 C 0.95914 0.88513 0.42603 0.0
C830 C 0.9536 0.88723 0.44943 0.0
C831 C 0.9396 0.86804 0.46069 0.0
C832 C 0.96224 0.90907 0.46263 0.0
C833 C 0.9732 0.90535 0.41266 0.0
C834 C 0.98716 0.91829 0.46492 0.0
C835 C 0.99523 0.93853 0.4777 0.0
C836 C 0.97857 0.94998 0.4887 0.0
C837 C 0.95361 0.9406 0.48654 0.0
C838 C 0.94556 0.92035 0.47371 0.0
H839 H 0.97002 0.90307 0.39401 0.0
H840 H 0.96821 0.922 0.41797 0.0
H841 H 0.9929 0.90662 0.41582 0.0
H842 H 1.00044 0.90966 0.45705 0.0
H843 H 0.01459 0.94508 0.47908 0.0
H844 H 0.27096 0.714 0.62018 0.0
H845 H 0.30082 0.69559 0.60075 0.0
H846 H 0.29657 0.64561 0.6554 0.0
H847 H 0.26591 0.66316 0.67434 0.0
H848 H 0.34477 0.69388 0.61745 0.0
H849 H 0.29595 0.60394 0.60098 0.0
H850 H 0.28035 0.62705 0.6086 0.0
H851 H 0.29382 0.61186 0.63034 0.0
C852 C 0.27579 0.69863 0.62771 0.0
C853 C 0.26609 0.6901 0.64887 0.0
C854 C 0.29301 0.68824 0.61666 0.0
C855 C 0.30078 0.66909 0.6265 0.0
C856 C 0.29051 0.66005 0.64722 0.0
H857 H 0.42419 0.60378 0.61834 0.0
H858 H 0.38814 0.61937 0.62853 0.0
C859 C 0.27321 0.67032 0.65819 0.0
C860 C 0.32134 0.66005 0.61643 0.0
H861 H 0.33969 0.61006 0.60061 0.0
C862 C 0.34354 0.67562 0.6134 0.0
C863 C 0.31972 0.63621 0.61117 0.0
C864 C 0.29609 0.61886 0.61272 0.0
C865 C 0.36437 0.66784 0.60611 0.0
C866 C 0.36293 0.64392 0.60175 0.0
C867 C 0.34067 0.6284 0.60417 0.0
C868 C 0.38462 0.63461 0.59539 0.0
C869 C 0.38804 0.68503 0.60384 0.0
C870 C 0.39443 0.6381 0.5734 0.0
C871 C 0.41499 0.62924 0.56753 0.0
C872 C 0.4261 0.61687 0.58363 0.0
C873 C 0.41622 0.61351 0.60569 0.0
C874 C 0.39556 0.62222 0.61148 0.0
H875 H 0.38666 0.70263 0.61008 0.0
H876 H 0.40256 0.67883 0.61354 0.0
H877 H 0.39357 0.68643 0.58565 0.0
H878 H 0.38613 0.6476 0.56079 0.0
H879 H 0.4223 0.63219 0.55045 0.0
H880 H 0.75295 0.77385 0.71244 0.0
H881 H 0.77898 0.79407 0.68215 0.0
H882 H 0.76949 0.86015 0.7092 0.0
H883 H 0.74413 0.84027 0.73976 0.0
H884 H 0.7708 0.8285 0.64831 0.0
H885 H 0.84408 0.86236 0.71013 0.0
H886 H 0.81931 0.83869 0.71681 0.0
H887 H 0.81489 0.86826 0.71778 0.0
C888 C 0.75634 0.79268 0.71187 0.0
C889 C 0.74657 0.80544 0.7286 0.0
C890 C 0.77108 0.80417 0.6945 0.0
C891 C 0.77638 0.82856 0.6937 0.0
C892 C 0.76581 0.8413 0.70973 0.0
H893 H 0.8386 0.93115 0.59627 0.0
H894 H 0.81188 0.90139 0.61845 0.0
C895 C 0.7511 0.82988 0.72704 0.0
C896 C 0.79385 0.84092 0.67686 0.0
H897 H 0.84787 0.87916 0.67303 0.0
C898 C 0.78778 0.83941 0.65361 0.0
C899 C 0.81616 0.85475 0.68385 0.0
C900 C 0.82418 0.856 0.70848 0.0
C901 C 0.80305 0.85228 0.63722 0.0
C902 C 0.8247 0.86717 0.64441 0.0
C903 C 0.8312 0.86784 0.66755 0.0
C904 C 0.84032 0.88327 0.6286 0.0
C905 C 0.79582 0.84986 0.61243 0.0
C906 C 0.86522 0.88305 0.62699 0.0
C907 C 0.88062 0.90028 0.61462 0.0
C908 C 0.87141 0.91814 0.60373 0.0
C909 C 0.8463 0.91778 0.60467 0.0
C910 C 0.83093 0.90058 0.61708 0.0
H911 H 0.78356 0.8329 0.60904 0.0
H912 H 0.78592 0.86387 0.60783 0.0
H913 H 0.81199 0.85143 0.60121 0.0
H914 H 0.87286 0.86995 0.63592 0.0
H915 H 0.8999 0.9002 0.61447 0.0
H916 H 0.75662 0.24868 0.21731 0.0
H917 H 0.73046 0.22839 0.18711 0.0
H918 H 0.7388 0.16233 0.21514 0.0
H919 H 0.76431 0.18231 0.2456 0.0
H920 H 0.73888 0.19405 0.15389 0.0
H921 H 0.66442 0.16008 0.21437 0.0
H922 H 0.68914 0.18365 0.22151 0.0
H923 H 0.69339 0.15403 0.2226 0.0
C924 C 0.75289 0.22983 0.21701 0.0
C925 C 0.76246 0.21711 0.23393 0.0
C926 C 0.73807 0.2183 0.19969 0.0
C927 C 0.73247 0.19391 0.19915 0.0
C928 C 0.74269 0.18119 0.21548 0.0
H929 H 0.6724 0.09166 0.10049 0.0
H930 H 0.69855 0.12118 0.12342 0.0
C931 C 0.75749 0.19265 0.23273 0.0
C932 C 0.71531 0.18155 0.18203 0.0
H933 H 0.66143 0.14321 0.17727 0.0
C934 C 0.72182 0.1831 0.1589 0.0
C935 C 0.69288 0.16766 0.18863 0.0
C936 C 0.68437 0.16637 0.2131 0.0
C937 C 0.7069 0.17024 0.14226 0.0
C938 C 0.68514 0.15529 0.14906 0.0
C939 C 0.67819 0.15456 0.17208 0.0
C940 C 0.66987 0.13922 0.13298 0.0
C941 C 0.71461 0.17273 0.1176 0.0
C942 C 0.64501 0.13945 0.13081 0.0
C943 C 0.62993 0.12235 0.118 0.0
C944 C 0.63941 0.10461 0.10723 0.0
C945 C 0.66448 0.10494 0.10878 0.0
C946 C 0.67953 0.122 0.12162 0.0
H947 H 0.72691 0.18972 0.11441 0.0
H948 H 0.72463 0.15876 0.11323 0.0
H949 H 0.69866 0.17117 0.10608 0.0
H950 H 0.63716 0.15248 0.1396 0.0
H951 H 0.61067 0.12246 0.11739 0.0
H952 H 0.4027 0.65411 0.33576 0.0
H953 H 0.41758 0.63645 0.36955 0.0
H954 H 0.41689 0.57319 0.33183 0.0
H955 H 0.40228 0.59075 0.29797 0.0
H956 H 0.3948 0.59323 0.39265 0.0
H957 H 0.48671 0.5902 0.35928 0.0
H958 H 0.46786 0.60884 0.34716 0.0
H959 H 0.46182 0.57826 0.3408 0.0
C960 C 0.40593 0.63652 0.33458 0.0
C961 C 0.40131 0.6239 0.31406 0.0
C962 C 0.4143 0.62639 0.35397 0.0
C963 C 0.41858 0.60356 0.35321 0.0
C964 C 0.41399 0.59092 0.33279 0.0
H965 H 0.47547 0.51198 0.44681 0.0
H966 H 0.45921 0.53025 0.41435 0.0
C967 C 0.40543 0.60094 0.31347 0.0
C968 C 0.42755 0.5928 0.37379 0.0
H969 H 0.47562 0.57096 0.39426 0.0
C970 C 0.41251 0.58845 0.39308 0.0
C971 C 0.45062 0.58646 0.37432 0.0
C972 C 0.46784 0.5913 0.35439 0.0
C973 C 0.41965 0.57745 0.41263 0.0
C974 C 0.4428 0.57115 0.41322 0.0
C975 C 0.45788 0.57569 0.39392 0.0
C976 C 0.45174 0.55966 0.43347 0.0
C977 C 0.40194 0.57202 0.43214 0.0
C978 C 0.45308 0.57 0.45521 0.0
C979 C 0.46216 0.55942 0.47394 0.0
C980 C 0.47051 0.5384 0.47133 0.0
C981 C 0.4692 0.52812 0.44954 0.0
C982 C 0.45993 0.5386 0.43089 0.0
H983 H 0.38295 0.57141 0.42643 0.0
H984 H 0.40303 0.5551 0.44022 0.0
H985 H 0.40628 0.58588 0.44523 0.0
H986 H 0.44754 0.58654 0.45766 0.0
H987 H 0.46314 0.56802 0.49036 0.0
H988 H 0.1482 0.41213 0.8296 0.0
H989 H 0.13365 0.42978 0.86335 0.0
H990 H 0.05984 0.4081 0.84017 0.0
H991 H 0.07422 0.39048 0.80631 0.0
H992 H 0.10807 0.46483 0.86693 0.0
H993 H 0.05519 0.38427 0.9054 0.0
H994 H 0.07649 0.38377 0.88244 0.0
H995 H 0.04654 0.38897 0.87655 0.0
C996 C 0.12886 0.41116 0.83158 0.0
C997 C 0.11243 0.39975 0.81512 0.0
C998 C 0.12055 0.42121 0.85099 0.0
C999 C 0.09559 0.42003 0.85459 0.0
C1000 C 0.07914 0.40879 0.83816 0.0
H1001 H 0.0293 0.50765 0.94553 0.0
H1002 H 0.04562 0.48953 0.91307 0.0
C1003 C 0.08742 0.3987 0.81874 0.0
C1004 C 0.08691 0.4311 0.87518 0.0
H1005 H 0.04984 0.42007 0.92185 0.0
C1006 C 0.0954 0.455 0.87897 0.0
C1007 C 0.07063 0.4183 0.89115 0.0
C1008 C 0.06184 0.39237 0.88887 0.0
C1009 C 0.08772 0.46648 0.89792 0.0
C1010 C 0.07075 0.45385 0.91342 0.0
C1011 C 0.06265 0.42986 0.9099 0.0
C1012 C 0.06113 0.46519 0.93335 0.0
C1013 C 0.09821 0.49199 0.90133 0.0
C1014 C 0.06391 0.45734 0.95569 0.0
C1015 C 0.05445 0.46763 0.97437 0.0
C1016 C 0.04182 0.48595 0.97117 0.0
C1017 C 0.03905 0.49374 0.94876 0.0
C1018 C 0.04851 0.48345 0.93011 0.0
H1019 H 0.11567 0.49736 0.89207 0.0
H1020 H 0.08527 0.50245 0.89461 0.0
H1021 H 0.10131 0.49616 0.9197 0.0
H1022 H 0.07345 0.44322 0.95868 0.0
H1023 H 0.05686 0.46105 0.99132 0.0
H1024 H 0.63683 0.86185 0.86906 0.0
H1025 H 0.61624 0.88926 0.88864 0.0
H1026 H 0.58894 0.83698 0.93893 0.0
H1027 H 0.60883 0.80906 0.91896 0.0
H1028 H 0.55408 0.86246 0.92354 0.0
H1029 H 0.64025 0.92051 0.94926 0.0
H1030 H 0.63763 0.91479 0.91917 0.0
H1031 H 0.63913 0.8914 0.93866 0.0
C1032 C 0.62616 0.85601 0.88409 0.0
C1033 C 0.62453 0.83324 0.89247 0.0
C1034 C 0.61463 0.87181 0.8954 0.0
C1035 C 0.60141 0.86525 0.91542 0.0
C1036 C 0.59921 0.84241 0.92357 0.0
H1037 H 0.56036 0.95661 1.01709 0.0
H1038 H 0.57684 0.92772 0.99548 0.0
C1039 C 0.61073 0.82655 0.91224 0.0
C1040 C 0.59025 0.88239 0.92805 0.0
H1041 H 0.60394 0.93427 0.95624 0.0
C1042 C 0.56493 0.87816 0.93073 0.0
C1043 C 0.60453 0.9027 0.93761 0.0
C1044 C 0.63191 0.90759 0.93626 0.0
C1045 C 0.55346 0.89387 0.94255 0.0
C1046 C 0.56771 0.91448 0.95161 0.0
C1047 C 0.59304 0.91857 0.94908 0.0
C1048 C 0.55691 0.93164 0.96459 0.0
C1049 C 0.52628 0.88806 0.94569 0.0
C1050 C 0.54031 0.94358 0.95433 0.0
C1051 C 0.53074 0.96016 0.96669 0.0
C1052 C 0.53779 0.9652 0.98946 0.0
C1053 C 0.55452 0.95324 0.99959 0.0
C1054 C 0.56398 0.93668 0.98727 0.0
H1055 H 0.51886 0.86929 0.94265 0.0
H1056 H 0.52114 0.89261 0.96315 0.0
H1057 H 0.51761 0.89826 0.93333 0.0
H1058 H 0.53498 0.94029 0.9367 0.0
H1059 H 0.51797 0.96911 0.95834 0.0
H1060 H 0.86871 0.19075 0.42586 0.0
H1061 H 0.88953 0.16297 0.44469 0.0
H1062 H 0.93869 0.16654 0.38775 0.0
H1063 H 0.91845 0.19496 0.36907 0.0
H1064 H 0.89343 0.11953 0.42701 0.0
H1065 H 0.98453 0.17421 0.44298 0.0
H1066 H 0.95827 0.18652 0.43623 0.0
H1067 H 0.97389 0.1742 0.41406 0.0
C1068 C 0.8843 0.18606 0.41755 0.0
C1069 C 0.89196 0.19514 0.39598 0.0
C1070 C 0.89605 0.17004 0.42826 0.0
C1071 C 0.91577 0.16286 0.41771 0.0
C1072 C 0.92375 0.17212 0.39635 0.0
H1073 H 0.99959 0.05852 0.46015 0.0
H1074 H 0.98304 0.08748 0.43813 0.0
C1075 C 0.912 0.18817 0.38561 0.0
C1076 C 0.92696 0.14464 0.42852 0.0
H1077 H 0.97967 0.13405 0.45156 0.0
C1078 C 0.91228 0.1227 0.43239 0.0
C1079 C 0.95161 0.14879 0.43532 0.0
C1080 C 0.96801 0.17224 0.43214 0.0
C1081 C 0.92154 0.10481 0.44299 0.0
C1082 C 0.94603 0.1091 0.45024 0.0
C1083 C 0.96089 0.13086 0.44595 0.0
C1084 C 0.95611 0.09158 0.46338 0.0
C1085 C 0.90505 0.08142 0.44627 0.0
C1086 C 0.94662 0.08457 0.48493 0.0
C1087 C 0.95597 0.0681 0.49751 0.0
C1088 C 0.97512 0.05836 0.48884 0.0
C1089 C 0.98476 0.06557 0.46727 0.0
C1090 C 0.97538 0.08214 0.45469 0.0
H1091 H 0.88928 0.07899 0.43446 0.0
H1092 H 0.91505 0.06704 0.44357 0.0
H1093 H 0.89797 0.08016 0.46399 0.0
H1094 H 0.93203 0.09196 0.4921 0.0
H1095 H 0.94817 0.06307 0.51409 0.0
H1096 H 0.2437 0.64862 0.13947 0.0
H1097 H 0.20755 0.63103 0.11791 0.0
H1098 H 0.21237 0.56356 0.14468 0.0
H1099 H 0.24912 0.58086 0.16587 0.0
H1100 H 0.20373 0.59245 0.08437 0.0
H1101 H 0.141 0.57268 0.15831 0.0
H1102 H 0.16894 0.59399 0.15981 0.0
H1103 H 0.16972 0.56352 0.16043 0.0
C1104 C 0.23732 0.62998 0.14065 0.0
C1105 C 0.24956 0.61618 0.15439 0.0
C1106 C 0.21652 0.61999 0.12838 0.0
C1107 C 0.20721 0.59603 0.12976 0.0
C1108 C 0.21912 0.58215 0.14357 0.0
H1109 H 0.07706 0.50845 0.07472 0.0
H1110 H 0.11514 0.52406 0.09424 0.0
C1111 C 0.24008 0.59211 0.15576 0.0
C1112 C 0.18519 0.58563 0.11649 0.0
H1113 H 0.12533 0.56036 0.12211 0.0
C1114 C 0.18656 0.58541 0.09258 0.0
C1115 C 0.16288 0.57642 0.12725 0.0
C1116 C 0.16031 0.57672 0.15286 0.0
C1117 C 0.16627 0.57592 0.07912 0.0
C1118 C 0.14377 0.567 0.08986 0.0
C1119 C 0.1425 0.56719 0.11382 0.0
C1120 C 0.12133 0.55721 0.07671 0.0
C1121 C 0.16934 0.57504 0.05359 0.0
C1122 C 0.11203 0.57054 0.06016 0.0
C1123 C 0.09028 0.56152 0.04871 0.0
C1124 C 0.07714 0.53914 0.0539 0.0
C1125 C 0.0866 0.5258 0.07035 0.0
C1126 C 0.10842 0.53472 0.08157 0.0
H1127 H 0.18863 0.57584 0.0488 0.0
H1128 H 0.15824 0.55894 0.04628 0.0
H1129 H 0.1634 0.59025 0.04575 0.0
H1130 H 0.12127 0.58816 0.05647 0.0
H1131 H 0.08339 0.57235 0.03633 0.0
H1132 H 0.2689 0.37513 0.63953 0.0
H1133 H 0.30503 0.39275 0.61801 0.0
H1134 H 0.30113 0.45994 0.64595 0.0
H1135 H 0.26439 0.44264 0.66709 0.0
H1136 H 0.3089 0.43226 0.58512 0.0
H1137 H 0.37246 0.44957 0.65877 0.0
H1138 H 0.34442 0.42837 0.66003 0.0
H1139 H 0.34385 0.45885 0.66144 0.0
C1140 C 0.27546 0.39372 0.64099 0.0
C1141 C 0.26347 0.40744 0.65504 0.0
C1142 C 0.29626 0.40372 0.62874 0.0
C1143 C 0.30583 0.42762 0.63044 0.0
C1144 C 0.29418 0.4414 0.64457 0.0
H1145 H 0.43655 0.51475 0.57584 0.0
H1146 H 0.39862 0.49922 0.59561 0.0
C1147 C 0.27322 0.43143 0.65674 0.0
C1148 C 0.32781 0.43805 0.61716 0.0
H1149 H 0.38795 0.46238 0.62267 0.0
C1150 C 0.32621 0.43887 0.59328 0.0
C1151 C 0.35031 0.44672 0.62787 0.0
C1152 C 0.3531 0.44578 0.65343 0.0
C1153 C 0.34646 0.44842 0.57982 0.0
C1154 C 0.36915 0.45677 0.59049 0.0
C1155 C 0.37064 0.45598 0.61442 0.0
C1156 C 0.39156 0.46652 0.57729 0.0
C1157 C 0.34313 0.44998 0.55436 0.0
C1158 C 0.40034 0.45342 0.56025 0.0
C1159 C 0.422 0.4624 0.54866 0.0
C1160 C 0.43557 0.48452 0.55418 0.0
C1161 C 0.42665 0.49762 0.57117 0.0
C1162 C 0.40493 0.48874 0.58254 0.0
H1163 H 0.32385 0.44965 0.54981 0.0
H1164 H 0.35443 0.46611 0.5473 0.0
H1165 H 0.34866 0.4348 0.54606 0.0
H1166 H 0.39077 0.436 0.55624 0.0
H1167 H 0.42845 0.45174 0.53586 0.0
H1168 H 0.79953 0.70605 0.87161 0.0
H1169 H 0.82871 0.68683 0.8909 0.0
H1170 H 0.77818 0.66722 0.94611 0.0
H1171 H 0.74847 0.68615 0.92666 0.0
H1172 H 0.82739 0.68726 0.95965 0.0
H1173 H 0.82329 0.61546 0.89723 0.0
H1174 H 0.82811 0.64387 0.88446 0.0
H1175 H 0.80009 0.63285 0.89908 0.0
C1176 C 0.79439 0.69735 0.88768 0.0
C1177 C 0.77149 0.69737 0.89743 0.0
C1178 C 0.81115 0.68645 0.89871 0.0
C1179 C 0.80543 0.67531 0.91972 0.0
C1180 C 0.78284 0.67564 0.92982 0.0
H1181 H 0.89841 0.5856 0.9756 0.0
H1182 H 0.86283 0.60117 0.9642 0.0
C1183 C 0.76596 0.68652 0.91873 0.0
C1184 C 0.82338 0.66369 0.93111 0.0
H1185 H 0.85688 0.62164 0.92298 0.0
C1186 C 0.83368 0.67273 0.95182 0.0
C1187 C 0.83128 0.64457 0.92097 0.0
C1188 C 0.81998 0.63344 0.89931 0.0
C1189 C 0.85248 0.66374 0.96217 0.0
C1190 C 0.86131 0.64547 0.95134 0.0
C1191 C 0.85026 0.6358 0.93114 0.0
C1192 C 0.88249 0.63655 0.96016 0.0
C1193 C 0.86276 0.67393 0.98455 0.0
C1194 C 0.90536 0.6513 0.96167 0.0
C1195 C 0.92573 0.64248 0.9683 0.0
C1196 C 0.92363 0.61871 0.97342 0.0
C1197 C 0.90061 0.60405 0.97213 0.0
C1198 C 0.88027 0.61289 0.96549 0.0
H1199 H 0.84971 0.68268 0.9937 0.0
H1200 H 0.86764 0.66028 0.9958 0.0
H1201 H 0.87945 0.68712 0.98121 0.0
H1202 H 0.90758 0.66953 0.95719 0.0
H1203 H 0.94316 0.65425 0.96927 0.0
H1204 H 0.4283 0.80103 0.19511 0.0
H1205 H 0.44467 0.83804 0.17588 0.0
H1206 H 0.41841 0.8079 0.11139 0.0
H1207 H 0.4025 0.77093 0.13022 0.0
H1208 H 0.47852 0.84803 0.13721 0.0
H1209 H 0.38739 0.8667 0.11784 0.0
H1210 H 0.39215 0.8457 0.1391 0.0
H1211 H 0.39171 0.83831 0.10934 0.0
C1212 C 0.42628 0.80218 0.17679 0.0
C1213 C 0.41373 0.78301 0.16431 0.0
C1214 C 0.43554 0.82339 0.16585 0.0
C1215 C 0.43234 0.82587 0.14226 0.0
C1216 C 0.42062 0.80657 0.12967 0.0
H1217 H 0.46208 0.93407 0.0397 0.0
H1218 H 0.44877 0.89855 0.06192 0.0
C1219 C 0.41147 0.78542 0.14052 0.0
C1220 C 0.44095 0.8486 0.13065 0.0
H1221 H 0.42101 0.89092 0.10005 0.0
C1222 C 0.46598 0.85755 0.12925 0.0
C1223 C 0.42455 0.86094 0.12019 0.0
C1224 C 0.39743 0.85259 0.1218 0.0
C1225 C 0.47509 0.87812 0.11704 0.0
C1226 C 0.45868 0.89039 0.10638 0.0
C1227 C 0.43362 0.88155 0.10812 0.0
C1228 C 0.46704 0.91216 0.09299 0.0
C1229 C 0.50223 0.88603 0.11498 0.0
C1230 C 0.48148 0.93187 0.10307 0.0
C1231 C 0.48924 0.95223 0.09034 0.0
C1232 C 0.4825 0.95345 0.06729 0.0
C1233 C 0.46767 0.93381 0.05737 0.0
C1234 C 0.46002 0.91344 0.07008 0.0
H1235 H 0.512 0.87163 0.11854 0.0
H1236 H 0.50735 0.89301 0.09768 0.0
H1237 H 0.50848 0.90006 0.12757 0.0
H1238 H 0.48664 0.93159 0.12085 0.0
H1239 H 0.50049 0.96703 0.09863 0.0
H1240 H 0.08386 0.2235 0.69553 0.0
H1241 H 0.06735 0.18631 0.6767 0.0
H1242 H 0.09165 0.2163 0.61164 0.0
H1243 H 0.10763 0.25348 0.63007 0.0
H1244 H 0.03253 0.17592 0.63821 0.0
H1245 H 0.12374 0.15785 0.61821 0.0
H1246 H 0.11901 0.17872 0.63959 0.0
H1247 H 0.11905 0.18618 0.60987 0.0
C1248 C 0.0854 0.22229 0.67718 0.0
C1249 C 0.09743 0.24149 0.66441 0.0
C1250 C 0.07606 0.20097 0.66646 0.0
C1251 C 0.07868 0.1984 0.64281 0.0
C1252 C 0.08987 0.21772 0.62996 0.0
H1253 H 0.04924 0.0902 0.54064 0.0
H1254 H 0.06228 0.12565 0.56296 0.0
C1255 C 0.09908 0.23898 0.64058 0.0
C1256 C 0.07009 0.17556 0.63142 0.0
H1257 H 0.09007 0.13327 0.60088 0.0
C1258 C 0.04507 0.16645 0.63021 0.0
C1259 C 0.08649 0.16328 0.62093 0.0
C1260 C 0.1136 0.17183 0.62231 0.0
C1261 C 0.03598 0.14579 0.61813 0.0
C1262 C 0.05239 0.1336 0.60741 0.0
C1263 C 0.07744 0.14257 0.609 0.0
C1264 C 0.04407 0.11185 0.59396 0.0
C1265 C 0.00884 0.13773 0.61624 0.0
C1266 C 0.02969 0.09204 0.60395 0.0
C1267 C 0.02206 0.07169 0.59115 0.0
C1268 C 0.02888 0.07059 0.56812 0.0
C1269 C 0.0436 0.09034 0.55829 0.0
C1270 C 0.0511 0.11069 0.57106 0.0
H1271 H 0.99899 0.15205 0.61987 0.0
H1272 H 0.00361 0.13074 0.59896 0.0
H1273 H 0.00279 0.12367 0.62885 0.0
H1274 H 0.02451 0.09222 0.62173 0.0
H1275 H 0.0109 0.0568 0.59937 0.0
H1276 H 0.73461 0.30168 0.42529 0.0
H1277 H 0.70265 0.31868 0.44303 0.0
H1278 H 0.72068 0.37861 0.39911 0.0
H1279 H 0.75301 0.36193 0.38154 0.0
H1280 H 0.71039 0.38826 0.44686 0.0
H1281 H 0.63962 0.32124 0.40563 0.0
H1282 H 0.66218 0.31043 0.42198 0.0
H1283 H 0.67092 0.32697 0.39651 0.0
C1284 C 0.73215 0.31871 0.41976 0.0
C1285 C 0.74622 0.33041 0.4019 0.0
C1286 C 0.71375 0.32829 0.42977 0.0
C1287 C 0.70914 0.3497 0.42212 0.0
C1288 C 0.72392 0.36199 0.40514 0.0
H1289 H 0.579 0.40644 0.43081 0.0
H1290 H 0.61456 0.39093 0.41931 0.0
C1291 C 0.74227 0.35239 0.39505 0.0
C1292 C 0.68797 0.35865 0.43079 0.0
H1293 H 0.626 0.34787 0.43019 0.0
C1294 C 0.69192 0.37944 0.44334 0.0
C1295 C 0.66396 0.34719 0.42584 0.0
C1296 C 0.65876 0.32531 0.4116 0.0
C1297 C 0.67237 0.38905 0.45119 0.0
C1298 C 0.64834 0.3774 0.4465 0.0
C1299 C 0.64445 0.35665 0.43389 0.0
C1300 C 0.62691 0.38683 0.45377 0.0
C1301 C 0.67758 0.41187 0.46391 0.0
C1302 C 0.62191 0.38936 0.47698 0.0
C1303 C 0.60151 0.39812 0.48362 0.0
C1304 C 0.58566 0.40434 0.46715 0.0
C1305 C 0.59063 0.40152 0.44392 0.0
C1306 C 0.61103 0.3928 0.43732 0.0
H1307 H 0.69667 0.42111 0.46159 0.0
H1308 H 0.66527 0.42345 0.45819 0.0
H1309 H 0.6745 0.40849 0.48241 0.0
H1310 H 0.63367 0.38438 0.48995 0.0
H1311 H 0.598 0.39978 0.50164 0.0
loop_
_geom_bond_atom_site_label_1
_geom_bond_atom_site_label_2
_geom_bond_distance
_geom_bond_site_symmetry_2
_ccdc_geom_bond_type
C0 C1 1.384 . S
C0 H13 0.947 . S
C0 C35 1.382 . S
C1 C0 1.384 . S
C1 C2 1.378 . S
C2 C1 1.378 . S
C2 C3 1.378 . S
C2 H14 0.952 . S
C3 C2 1.378 . S
C3 H15 0.950 . S
C3 C34 1.383 . S
H4 C23 0.947 . S
H5 C24 0.946 . S
H6 C26 0.953 . S
H7 C27 0.945 . S
H8 C29 0.952 . S
H9 C30 0.949 . S
H10 C32 0.950 . S
H11 C33 0.948 . S
H12 C35 0.951 . S
H13 C0 0.947 . S
H14 C2 0.952 . S
H15 C3 0.950 . S
N16 C19 1.382 . S
N16 C21 1.363 . S
N17 C19 1.371 . S
N17 C20 1.372 . S
N18 C20 1.361 . S
N18 C21 1.377 . S
C19 N16 1.382 . S
C19 N17 1.371 . S
C19 C22 1.480 . S
C20 N17 1.372 . S
C20 N18 1.361 . S
C20 C28 1.457 . S
C21 N16 1.363 . S
C21 N18 1.377 . S
C21 C34 1.479 . S
C22 C19 1.480 . S
C22 C23 1.383 . S
C22 C27 1.385 . S
C23 H4 0.947 . S
C23 C22 1.383 . S
C23 C24 1.388 . S
C24 H5 0.946 . S
C24 C23 1.388 . S
C24 C25 1.384 . S
C25 C24 1.384 . S
C25 C26 1.377 . S
C26 H6 0.953 . S
C26 C25 1.377 . S
C26 C27 1.369 . S
C27 H7 0.945 . S
C27 C22 1.385 . S
C27 C26 1.369 . S
C28 C20 1.457 . S
C28 C29 1.372 . S
C28 C33 1.364 . S
C29 H8 0.952 . S
C29 C28 1.372 . S
C29 C30 1.389 . S
C30 H9 0.949 . S
C30 C29 1.389 . S
C30 C31 1.387 . S
C31 C30 1.387 . S
C31 C32 1.372 . S
C32 H10 0.950 . S
C32 C31 1.372 . S
C32 C33 1.379 . S
C33 H11 0.948 . S
C33 C28 1.364 . S
C33 C32 1.379 . S
C34 C3 1.383 . S
C34 C21 1.479 . S
C34 C35 1.398 . S
C35 C0 1.382 . S
C35 H12 0.951 . S
C35 C34 1.398 . S
C36 C37 1.384 . S
C36 H49 0.947 . S
C36 C71 1.382 . S
C37 C36 1.384 . S
C37 C38 1.378 . S
C38 C37 1.378 . S
C38 C39 1.378 . S
C38 H50 0.952 . S
C39 C38 1.378 . S
C39 H51 0.950 . S
C39 C70 1.383 . S
H40 C59 0.947 . S
H41 C60 0.946 . S
H42 C62 0.953 . S
H43 C63 0.945 . S
H44 C65 0.952 . S
H45 C66 0.949 . S
H46 C68 0.950 . S
H47 C69 0.948 . S
H48 C71 0.951 . S
H49 C36 0.947 . S
H50 C38 0.952 . S
H51 C39 0.950 . S
N52 C55 1.382 . S
N52 C57 1.363 . S
N53 C55 1.371 . S
N53 C56 1.372 . S
N54 C56 1.361 . S
N54 C57 1.377 . S
C55 N52 1.382 . S
C55 N53 1.371 . S
C55 C58 1.480 . S
C56 N53 1.372 . S
C56 N54 1.361 . S
C56 C64 1.457 . S
C57 N52 1.363 . S
C57 N54 1.377 . S
C57 C70 1.479 . S
C58 C55 1.480 . S
C58 C59 1.383 . S
C58 C63 1.385 . S
C59 H40 0.947 . S
C59 C58 1.383 . S
C59 C60 1.388 . S
C60 H41 0.946 . S
C60 C59 1.388 . S
C60 C61 1.384 . S
C61 C60 1.384 . S
C61 C62 1.377 . S
C62 H42 0.953 . S
C62 C61 1.377 . S
C62 C63 1.369 . S
C63 H43 0.945 . S
C63 C58 1.385 . S
C63 C62 1.369 . S
C64 C56 1.457 . S
C64 C65 1.372 . S
C64 C69 1.364 . S
C65 H44 0.952 . S
C65 C64 1.372 . S
C65 C66 1.389 . S
C66 H45 0.949 . S
C66 C65 1.389 . S
C66 C67 1.387 . S
C67 C66 1.387 . S
C67 C68 1.372 . S
C68 H46 0.950 . S
C68 C67 1.372 . S
C68 C69 1.379 . S
C69 H47 0.948 . S
C69 C64 1.364 . S
C69 C68 1.379 . S
C70 C39 1.383 . S
C70 C57 1.479 . S
C70 C71 1.398 . S
C71 C36 1.382 . S
C71 H48 0.951 . S
C71 C70 1.398 . S
C72 C73 1.384 . S
C72 H85 0.947 . S
C72 C107 1.382 . S
C73 C72 1.384 . S
C73 C74 1.378 . S
C74 C73 1.378 . S
C74 C75 1.378 . S
C74 H86 0.952 . S
C75 C74 1.378 . S
C75 H87 0.950 . S
C75 C106 1.383 . S
H76 C95 0.947 . S
H77 C96 0.946 . S
H78 C98 0.953 . S
H79 C99 0.945 . S
H80 C101 0.952 . S
H81 C102 0.949 . S
H82 C104 0.950 . S
H83 C105 0.948 . S
H84 C107 0.951 . S
H85 C72 0.947 . S
H86 C74 0.952 . S
H87 C75 0.950 . S
N88 C91 1.382 . S
N88 C93 1.363 . S
N89 C91 1.371 . S
N89 C92 1.372 . S
N90 C92 1.361 . S
N90 C93 1.377 . S
C91 N88 1.382 . S
C91 N89 1.371 . S
C91 C94 1.480 . S
C92 N89 1.372 . S
C92 N90 1.361 . S
C92 C100 1.457 . S
C93 N88 1.363 . S
C93 N90 1.377 . S
C93 C106 1.479 . S
C94 C91 1.480 . S
C94 C95 1.383 . S
C94 C99 1.385 . S
C95 H76 0.947 . S
C95 C94 1.383 . S
C95 C96 1.388 . S
C96 H77 0.946 . S
C96 C95 1.388 . S
C96 C97 1.384 . S
C97 C96 1.384 . S
C97 C98 1.377 . S
C98 H78 0.953 . S
C98 C97 1.377 . S
C98 C99 1.369 . S
C99 H79 0.945 . S
C99 C94 1.385 . S
C99 C98 1.369 . S
C100 C92 1.457 . S
C100 C101 1.372 . S
C100 C105 1.364 . S
C101 H80 0.952 . S
C101 C100 1.372 . S
C101 C102 1.389 . S
C102 H81 0.949 . S
C102 C101 1.389 . S
C102 C103 1.387 . S
C103 C102 1.387 . S
C103 C104 1.372 . S
C104 H82 0.950 . S
C104 C103 1.372 . S
C104 C105 1.379 . S
C105 H83 0.948 . S
C105 C100 1.364 . S
C105 C104 1.379 . S
C106 C75 1.383 . S
C106 C93 1.479 . S
C106 C107 1.398 . S
C107 C72 1.382 . S
C107 H84 0.951 . S
C107 C106 1.398 . S
C108 C109 1.384 . S
C108 H121 0.947 . S
C108 C143 1.382 . S
C109 C108 1.384 . S
C109 C110 1.378 . S
C110 C109 1.378 . S
C110 C111 1.378 . S
C110 H122 0.952 . S
C111 C110 1.378 . S
C111 H123 0.950 . S
C111 C142 1.383 . S
H112 C131 0.947 . S
H113 C132 0.946 . S
H114 C134 0.953 . S
H115 C135 0.945 . S
H116 C137 0.952 . S
H117 C138 0.949 . S
H118 C140 0.950 . S
H119 C141 0.948 . S
H120 C143 0.951 . S
H121 C108 0.947 . S
H122 C110 0.952 . S
H123 C111 0.950 . S
N124 C127 1.382 . S
N124 C129 1.363 . S
N125 C127 1.371 . S
N125 C128 1.372 . S
N126 C128 1.361 . S
N126 C129 1.377 . S
C127 N124 1.382 . S
C127 N125 1.371 . S
C127 C130 1.480 . S
C128 N125 1.372 . S
C128 N126 1.361 . S
C128 C136 1.457 . S
C129 N124 1.363 . S
C129 N126 1.377 . S
C129 C142 1.479 . S
C130 C127 1.480 . S
C130 C131 1.383 . S
C130 C135 1.385 . S
C131 H112 0.947 . S
C131 C130 1.383 . S
C131 C132 1.388 . S
C132 H113 0.946 . S
C132 C131 1.388 . S
C132 C133 1.384 . S
C133 C132 1.384 . S
C133 C134 1.377 . S
C134 H114 0.953 . S
C134 C133 1.377 . S
C134 C135 1.369 . S
C135 H115 0.945 . S
C135 C130 1.385 . S
C135 C134 1.369 . S
C136 C128 1.457 . S
C136 C137 1.372 . S
C136 C141 1.364 . S
C137 H116 0.952 . S
C137 C136 1.372 . S
C137 C138 1.389 . S
C138 H117 0.949 . S
C138 C137 1.389 . S
C138 C139 1.387 . S
C139 C138 1.387 . S
C139 C140 1.372 . S
C140 H118 0.950 . S
C140 C139 1.372 . S
C140 C141 1.379 . S
C141 H119 0.948 . S
C141 C136 1.364 . S
C141 C140 1.379 . S
C142 C111 1.383 . S
C142 C129 1.479 . S
C142 C143 1.398 . S
C143 C108 1.382 . S
C143 H120 0.951 . S
C143 C142 1.398 . S
C144 C145 1.384 . S
C144 H157 0.947 . S
C144 C179 1.382 . S
C145 C144 1.384 . S
C145 C146 1.378 . S
C146 C145 1.378 . S
C146 C147 1.378 . S
C146 H158 0.952 . S
C147 C146 1.378 . S
C147 H159 0.950 . S
C147 C178 1.383 . S
H148 C167 0.947 . S
H149 C168 0.946 . S
H150 C170 0.953 . S
H151 C171 0.945 . S
H152 C173 0.952 . S
H153 C174 0.949 . S
H154 C176 0.950 . S
H155 C177 0.948 . S
H156 C179 0.951 . S
H157 C144 0.947 . S
H158 C146 0.952 . S
H159 C147 0.950 . S
N160 C163 1.382 . S
N160 C165 1.363 . S
N161 C163 1.371 . S
N161 C164 1.372 . S
N162 C164 1.361 . S
N162 C165 1.377 . S
C163 N160 1.382 . S
C163 N161 1.371 . S
C163 C166 1.480 . S
C164 N161 1.372 . S
C164 N162 1.361 . S
C164 C172 1.457 . S
C165 N160 1.363 . S
C165 N162 1.377 . S
C165 C178 1.479 . S
C166 C163 1.480 . S
C166 C167 1.383 . S
C166 C171 1.385 . S
C167 H148 0.947 . S
C167 C166 1.383 . S
C167 C168 1.388 . S
C168 H149 0.946 . S
C168 C167 1.388 . S
C168 C169 1.384 . S
C169 C168 1.384 . S
C169 C170 1.377 . S
C170 H150 0.953 . S
C170 C169 1.377 . S
C170 C171 1.369 . S
C171 H151 0.945 . S
C171 C166 1.385 . S
C171 C170 1.369 . S
C172 C164 1.457 . S
C172 C173 1.372 . S
C172 C177 1.364 . S
C173 H152 0.952 . S
C173 C172 1.372 . S
C173 C174 1.389 . S
C174 H153 0.949 . S
C174 C173 1.389 . S
C174 C175 1.387 . S
C175 C174 1.387 . S
C175 C176 1.372 . S
C176 H154 0.950 . S
C176 C175 1.372 . S
C176 C177 1.379 . S
C177 H155 0.948 . S
C177 C172 1.364 . S
C177 C176 1.379 . S
C178 C147 1.383 . S
C178 C165 1.479 . S
C178 C179 1.398 . S
C179 C144 1.382 . S
C179 H156 0.951 . S
C179 C178 1.398 . S
C180 C181 1.384 . S
C180 H193 0.947 . S
C180 C215 1.382 . S
C181 C180 1.384 . S
C181 C182 1.378 . S
C182 C181 1.378 . S
C182 C183 1.378 . S
C182 H194 0.952 . S
C183 C182 1.378 . S
C183 H195 0.950 . S
C183 C214 1.383 . S
H184 C203 0.947 . S
H185 C204 0.946 . S
H186 C206 0.953 . S
H187 C207 0.945 . S
H188 C209 0.952 . S
H189 C210 0.949 . S
H190 C212 0.950 . S
H191 C213 0.948 . S
H192 C215 0.951 . S
H193 C180 0.947 . S
H194 C182 0.952 . S
H195 C183 0.950 . S
N196 C199 1.382 . S
N196 C201 1.363 . S
N197 C199 1.371 . S
N197 C200 1.372 . S
N198 C200 1.361 . S
N198 C201 1.377 . S
C199 N196 1.382 . S
C199 N197 1.371 . S
C199 C202 1.480 . S
C200 N197 1.372 . S
C200 N198 1.361 . S
C200 C208 1.457 . S
C201 N196 1.363 . S
C201 N198 1.377 . S
C201 C214 1.479 . S
C202 C199 1.480 . S
C202 C203 1.383 . S
C202 C207 1.385 . S
C203 H184 0.947 . S
C203 C202 1.383 . S
C203 C204 1.388 . S
C204 H185 0.946 . S
C204 C203 1.388 . S
C204 C205 1.384 . S
C205 C204 1.384 . S
C205 C206 1.377 . S
C206 H186 0.953 . S
C206 C205 1.377 . S
C206 C207 1.369 . S
C207 H187 0.945 . S
C207 C202 1.385 . S
C207 C206 1.369 . S
C208 C200 1.457 . S
C208 C209 1.372 . S
C208 C213 1.364 . S
C209 H188 0.952 . S
C209 C208 1.372 . S
C209 C210 1.389 . S
C210 H189 0.949 . S
C210 C209 1.389 . S
C210 C211 1.387 . S
C211 C210 1.387 . S
C211 C212 1.372 . S
C212 H190 0.950 . S
C212 C211 1.372 . S
C212 C213 1.379 . S
C213 H191 0.948 . S
C213 C208 1.364 . S
C213 C212 1.379 . S
C214 C183 1.383 . S
C214 C201 1.479 . S
C214 C215 1.398 . S
C215 C180 1.382 . S
C215 H192 0.951 . S
C215 C214 1.398 . S
C216 C217 1.384 . S
C216 H229 0.947 . S
C216 C251 1.382 . S
C217 C216 1.384 . S
C217 C218 1.378 . S
C218 C217 1.378 . S
C218 C219 1.378 . S
C218 H230 0.952 . S
C219 C218 1.378 . S
C219 H231 0.950 . S
C219 C250 1.383 . S
H220 C239 0.947 . S
H221 C240 0.946 . S
H222 C242 0.953 . S
H223 C243 0.945 . S
H224 C245 0.952 . S
H225 C246 0.949 . S
H226 C248 0.950 . S
H227 C249 0.948 . S
H228 C251 0.951 . S
H229 C216 0.947 . S
H230 C218 0.952 . S
H231 C219 0.950 . S
N232 C235 1.382 . S
N232 C237 1.363 . S
N233 C235 1.371 . S
N233 C236 1.372 . S
N234 C236 1.361 . S
N234 C237 1.377 . S
C235 N232 1.382 . S
C235 N233 1.371 . S
C235 C238 1.480 . S
C236 N233 1.372 . S
C236 N234 1.361 . S
C236 C244 1.457 . S
C237 N232 1.363 . S
C237 N234 1.377 . S
C237 C250 1.479 . S
C238 C235 1.480 . S
C238 C239 1.383 . S
C238 C243 1.385 . S
C239 H220 0.947 . S
C239 C238 1.383 . S
C239 C240 1.388 . S
C240 H221 0.946 . S
C240 C239 1.388 . S
C240 C241 1.384 . S
C241 C240 1.384 . S
C241 C242 1.377 . S
C242 H222 0.953 . S
C242 C241 1.377 . S
C242 C243 1.369 . S
C243 H223 0.945 . S
C243 C238 1.385 . S
C243 C242 1.369 . S
C244 C236 1.457 . S
C244 C245 1.372 . S
C244 C249 1.364 . S
C245 H224 0.952 . S
C245 C244 1.372 . S
C245 C246 1.389 . S
C246 H225 0.949 . S
C246 C245 1.389 . S
C246 C247 1.387 . S
C247 C246 1.387 . S
C247 C248 1.372 . S
C248 H226 0.950 . S
C248 C247 1.372 . S
C248 C249 1.379 . S
C249 H227 0.948 . S
C249 C244 1.364 . S
C249 C248 1.379 . S
C250 C219 1.383 . S
C250 C237 1.479 . S
C250 C251 1.398 . S
C251 C216 1.382 . S
C251 H228 0.951 . S
C251 C250 1.398 . S
C252 C253 1.384 . S
C252 H265 0.947 . S
C252 C287 1.382 . S
C253 C252 1.384 . S
C253 C254 1.378 . S
C254 C253 1.378 . S
C254 C255 1.378 . S
C254 H266 0.952 . S
C255 C254 1.378 . S
C255 H267 0.950 . S
C255 C286 1.383 . S
H256 C275 0.947 . S
H257 C276 0.946 . S
H258 C278 0.953 . S
H259 C279 0.945 . S
H260 C281 0.952 . S
H261 C282 0.949 . S
H262 C284 0.950 . S
H263 C285 0.948 . S
H264 C287 0.951 . S
H265 C252 0.947 . S
H266 C254 0.952 . S
H267 C255 0.950 . S
N268 C271 1.382 . S
N268 C273 1.363 . S
N269 C271 1.371 . S
N269 C272 1.372 . S
N270 C272 1.361 . S
N270 C273 1.377 . S
C271 N268 1.382 . S
C271 N269 1.371 . S
C271 C274 1.480 . S
C272 N269 1.372 . S
C272 N270 1.361 . S
C272 C280 1.457 . S
C273 N268 1.363 . S
C273 N270 1.377 . S
C273 C286 1.479 . S
C274 C271 1.480 . S
C274 C275 1.383 . S
C274 C279 1.385 . S
C275 H256 0.947 . S
C275 C274 1.383 . S
C275 C276 1.388 . S
C276 H257 0.946 . S
C276 C275 1.388 . S
C276 C277 1.384 . S
C277 C276 1.384 . S
C277 C278 1.377 . S
C278 H258 0.953 . S
C278 C277 1.377 . S
C278 C279 1.369 . S
C279 H259 0.945 . S
C279 C274 1.385 . S
C279 C278 1.369 . S
C280 C272 1.457 . S
C280 C281 1.372 . S
C280 C285 1.364 . S
C281 H260 0.952 . S
C281 C280 1.372 . S
C281 C282 1.389 . S
C282 H261 0.949 . S
C282 C281 1.389 . S
C282 C283 1.387 . S
C283 C282 1.387 . S
C283 C284 1.372 . S
C284 H262 0.950 . S
C284 C283 1.372 . S
C284 C285 1.379 . S
C285 H263 0.948 . S
C285 C280 1.364 . S
C285 C284 1.379 . S
C286 C255 1.383 . S
C286 C273 1.479 . S
C286 C287 1.398 . S
C287 C252 1.382 . S
C287 H264 0.951 . S
C287 C286 1.398 . S
Dy288 O291 2.307 1_545 S
Dy288 O293 2.395 . S
Dy288 O294 2.379 . S
Dy288 O296 2.339 1_545 S
Dy288 O298 2.298 1_455 S
Dy288 O302 2.275 . S
Dy288 C310 2.738 . S
Dy289 O292 2.298 1_655 S
Dy289 O295 2.275 . S
Dy289 O297 2.307 1_565 S
Dy289 O299 2.395 . S
Dy289 O300 2.379 . S
Dy289 O303 2.339 1_565 S
Dy289 C319 2.738 . S
C290 O302 1.254 . S
C290 O303 1.257 1_455 S
O291 Dy288 2.307 1_565 S
O291 C301 1.266 . S
O292 Dy289 2.298 1_455 S
O292 C301 1.236 . S
O293 Dy288 2.395 . S
O293 C310 1.255 . S
O294 Dy288 2.379 . S
O294 C310 1.249 . S
O295 Dy289 2.275 . S
O295 C311 1.254 . S
O296 Dy288 2.339 1_565 S
O296 C311 1.257 1_455 S
O297 Dy289 2.307 1_545 S
O297 C312 1.266 . S
O298 Dy288 2.298 1_655 S
O298 C312 1.236 . S
O299 Dy289 2.395 . S
O299 C319 1.255 . S
O300 Dy289 2.379 . S
O300 C319 1.249 . S
C301 O291 1.266 . S
C301 O292 1.236 . S
O302 Dy288 2.275 . S
O302 C290 1.254 . S
O303 Dy289 2.339 1_545 S
O303 C290 1.257 1_655 S
C304 C307 1.344 . S
C304 C308 1.328 . S
C304 C310 1.516 . S
C305 C306 1.304 . S
C305 C309 1.323 . S
C306 C305 1.304 . S
C306 C307 1.371 . S
C306 H320 0.930 . S
C307 C304 1.344 . S
C307 C306 1.371 . S
C307 H321 0.931 . S
C308 C304 1.328 . S
C308 C309 1.433 . S
C308 H322 0.931 . S
C309 C305 1.323 . S
C309 C308 1.433 . S
C309 H323 0.933 . S
C310 Dy288 2.738 . S
C310 O293 1.255 . S
C310 O294 1.249 . S
C310 C304 1.516 . S
C311 O295 1.254 . S
C311 O296 1.257 1_655 S
C312 O297 1.266 . S
C312 O298 1.236 . S
C313 C316 1.344 . S
C313 C317 1.328 . S
C313 C319 1.516 . S
C314 C315 1.304 . S
C314 C318 1.323 . S
C315 C314 1.304 . S
C315 C316 1.371 . S
C315 H324 0.930 . S
C316 C313 1.344 . S
C316 C315 1.371 . S
C316 H325 0.931 . S
C317 C313 1.328 . S
C317 C318 1.433 . S
C317 H326 0.931 . S
C318 C314 1.323 . S
C318 C317 1.433 . S
C318 H327 0.933 . S
C319 Dy289 2.738 . S
C319 O299 1.255 . S
C319 O300 1.249 . S
C319 C313 1.516 . S
H320 C306 0.930 . S
H321 C307 0.931 . S
H322 C308 0.931 . S
H323 C309 0.933 . S
H324 C315 0.930 . S
H325 C316 0.931 . S
H326 C317 0.931 . S
H327 C318 0.933 . S
Dy328 O331 2.307 1_566 S
Dy328 O333 2.395 . S
Dy328 O334 2.379 . S
Dy328 O336 2.339 1_565 S
Dy328 O338 2.298 . S
Dy328 O342 2.275 1_556 S
Dy328 C350 2.738 . S
Dy329 O332 2.298 . S
Dy329 O335 2.275 1_554 S
Dy329 O337 2.307 1_544 S
Dy329 O339 2.395 . S
Dy329 O340 2.379 . S
Dy329 O343 2.339 1_545 S
Dy329 C359 2.738 . S
C330 O342 1.254 . S
C330 O343 1.257 . S
O331 Dy328 2.307 1_544 S
O331 C341 1.266 . S
O332 Dy329 2.298 . S
O332 C341 1.236 . S
O333 Dy328 2.395 . S
O333 C350 1.255 . S
O334 Dy328 2.379 . S
O334 C350 1.249 . S
O335 Dy329 2.275 1_556 S
O335 C351 1.254 . S
O336 Dy328 2.339 1_545 S
O336 C351 1.257 . S
O337 Dy329 2.307 1_566 S
O337 C352 1.266 . S
O338 Dy328 2.298 . S
O338 C352 1.236 . S
O339 Dy329 2.395 . S
O339 C359 1.255 . S
O340 Dy329 2.379 . S
O340 C359 1.249 . S
C341 O331 1.266 . S
C341 O332 1.236 . S
O342 Dy328 2.275 1_554 S
O342 C330 1.254 . S
O343 Dy329 2.339 1_565 S
O343 C330 1.257 . S
C344 C347 1.344 . S
C344 C348 1.328 . S
C344 C350 1.516 . S
C345 C346 1.304 . S
C345 C349 1.323 . S
C346 C345 1.304 . S
C346 C347 1.371 . S
C346 H360 0.930 . S
C347 C344 1.344 . S
C347 C346 1.371 . S
C347 H361 0.931 . S
C348 C344 1.328 . S
C348 C349 1.433 . S
C348 H362 0.931 . S
C349 C345 1.323 . S
C349 C348 1.433 . S
C349 H363 0.933 . S
C350 Dy328 2.738 . S
C350 O333 1.255 . S
C350 O334 1.249 . S
C350 C344 1.516 . S
C351 O335 1.254 . S
C351 O336 1.257 . S
C352 O337 1.266 . S
C352 O338 1.236 . S
C353 C356 1.344 . S
C353 C357 1.328 . S
C353 C359 1.516 . S
C354 C355 1.304 . S
C354 C358 1.323 . S
C355 C354 1.304 . S
C355 C356 1.371 . S
C355 H364 0.930 . S
C356 C353 1.344 . S
C356 C355 1.371 . S
C356 H365 0.931 . S
C357 C353 1.328 . S
C357 C358 1.433 . S
C357 H366 0.931 . S
C358 C354 1.323 . S
C358 C357 1.433 . S
C358 H367 0.933 . S
C359 Dy329 2.738 . S
C359 O339 1.255 . S
C359 O340 1.249 . S
C359 C353 1.516 . S
H360 C346 0.930 . S
H361 C347 0.931 . S
H362 C348 0.931 . S
H363 C349 0.933 . S
H364 C355 0.930 . S
H365 C356 0.931 . S
H366 C357 0.931 . S
H367 C358 0.933 . S
Dy368 O371 2.307 . S
Dy368 O373 2.395 . S
Dy368 O374 2.379 . S
Dy368 O376 2.339 . S
Dy368 O378 2.298 . S
Dy368 O382 2.275 . S
Dy368 C390 2.738 . S
Dy369 O372 2.298 . S
Dy369 O375 2.275 . S
Dy369 O377 2.307 . S
Dy369 O379 2.395 . S
Dy369 O380 2.379 . S
Dy369 O383 2.339 . S
Dy369 C399 2.738 . S
C370 O382 1.254 . S
C370 O383 1.257 . S
O371 Dy368 2.307 . S
O371 C381 1.266 . S
O372 Dy369 2.298 . S
O372 C381 1.236 . S
O373 Dy368 2.395 . S
O373 C390 1.255 . S
O374 Dy368 2.379 . S
O374 C390 1.249 . S
O375 Dy369 2.275 . S
O375 C391 1.254 . S
O376 Dy368 2.339 . S
O376 C391 1.257 . S
O377 Dy369 2.307 . S
O377 C392 1.266 . S
O378 Dy368 2.298 . S
O378 C392 1.236 . S
O379 Dy369 2.395 . S
O379 C399 1.255 . S
O380 Dy369 2.379 . S
O380 C399 1.249 . S
C381 O371 1.266 . S
C381 O372 1.236 . S
O382 Dy368 2.275 . S
O382 C370 1.254 . S
O383 Dy369 2.339 . S
O383 C370 1.257 . S
C384 C387 1.344 . S
C384 C388 1.328 . S
C384 C390 1.516 . S
C385 C386 1.304 . S
C385 C389 1.323 . S
C386 C385 1.304 . S
C386 C387 1.371 . S
C386 H400 0.930 . S
C387 C384 1.344 . S
C387 C386 1.371 . S
C387 H401 0.931 . S
C388 C384 1.328 . S
C388 C389 1.433 . S
C388 H402 0.931 . S
C389 C385 1.323 . S
C389 C388 1.433 . S
C389 H403 0.933 . S
C390 Dy368 2.738 . S
C390 O373 1.255 . S
C390 O374 1.249 . S
C390 C384 1.516 . S
C391 O375 1.254 . S
C391 O376 1.257 . S
C392 O377 1.266 . S
C392 O378 1.236 . S
C393 C396 1.344 . S
C393 C397 1.328 . S
C393 C399 1.516 . S
C394 C395 1.304 . S
C394 C398 1.323 . S
C395 C394 1.304 . S
C395 C396 1.371 . S
C395 H404 0.930 . S
C396 C393 1.344 . S
C396 C395 1.371 . S
C396 H405 0.931 . S
C397 C393 1.328 . S
C397 C398 1.433 . S
C397 H406 0.931 . S
C398 C394 1.323 . S
C398 C397 1.433 . S
C398 H407 0.933 . S
C399 Dy369 2.738 . S
C399 O379 1.255 . S
C399 O380 1.249 . S
C399 C393 1.516 . S
H400 C386 0.930 . S
H401 C387 0.931 . S
H402 C388 0.931 . S
H403 C389 0.933 . S
H404 C395 0.930 . S
H405 C396 0.931 . S
H406 C397 0.931 . S
H407 C398 0.933 . S
Dy408 O411 2.307 1_556 S
Dy408 O413 2.395 1_455 S
Dy408 O414 2.379 1_455 S
Dy408 O416 2.339 . S
Dy408 O418 2.298 1_455 S
Dy408 O422 2.275 1_456 S
Dy408 C430 2.738 1_455 S
Dy409 O412 2.298 . S
Dy409 O415 2.275 1_554 S
Dy409 O417 2.307 1_455 S
Dy409 O419 2.395 . S
Dy409 O420 2.379 . S
Dy409 O423 2.339 1_455 S
Dy409 C439 2.738 . S
C410 O422 1.254 . S
C410 O423 1.257 . S
O411 Dy408 2.307 1_554 S
O411 C421 1.266 . S
O412 Dy409 2.298 . S
O412 C421 1.236 . S
O413 Dy408 2.395 1_655 S
O413 C430 1.255 . S
O414 Dy408 2.379 1_655 S
O414 C430 1.249 . S
O415 Dy409 2.275 1_556 S
O415 C431 1.254 . S
O416 Dy408 2.339 . S
O416 C431 1.257 . S
O417 Dy409 2.307 1_655 S
O417 C432 1.266 1_554 S
O418 Dy408 2.298 1_655 S
O418 C432 1.236 . S
O419 Dy409 2.395 . S
O419 C439 1.255 . S
O420 Dy409 2.379 . S
O420 C439 1.249 . S
C421 O411 1.266 . S
C421 O412 1.236 . S
O422 Dy408 2.275 1_654 S
O422 C410 1.254 . S
O423 Dy409 2.339 1_655 S
O423 C410 1.257 . S
C424 C427 1.344 . S
C424 C428 1.328 . S
C424 C430 1.516 . S
C425 C426 1.304 . S
C425 C429 1.323 . S
C426 C425 1.304 . S
C426 C427 1.371 . S
C426 H440 0.930 . S
C427 C424 1.344 . S
C427 C426 1.371 . S
C427 H441 0.931 . S
C428 C424 1.328 . S
C428 C429 1.433 . S
C428 H442 0.931 . S
C429 C425 1.323 . S
C429 C428 1.433 . S
C429 H443 0.933 . S
C430 Dy408 2.738 1_655 S
C430 O413 1.255 . S
C430 O414 1.249 . S
C430 C424 1.516 . S
C431 O415 1.254 . S
C431 O416 1.257 . S
C432 O417 1.266 1_556 S
C432 O418 1.236 . S
C433 C436 1.344 . S
C433 C437 1.328 . S
C433 C439 1.516 . S
C434 C435 1.304 . S
C434 C438 1.323 . S
C435 C434 1.304 . S
C435 C436 1.371 . S
C435 H444 0.930 . S
C436 C433 1.344 . S
C436 C435 1.371 . S
C436 H445 0.931 . S
C437 C433 1.328 . S
C437 C438 1.433 . S
C437 H446 0.931 . S
C438 C434 1.323 . S
C438 C437 1.433 . S
C438 H447 0.933 . S
C439 Dy409 2.738 . S
C439 O419 1.255 . S
C439 O420 1.249 . S
C439 C433 1.516 . S
H440 C426 0.930 . S
H441 C427 0.931 . S
H442 C428 0.931 . S
H443 C429 0.933 . S
H444 C435 0.930 . S
H445 C436 0.931 . S
H446 C437 0.931 . S
H447 C438 0.933 . S
H448 C456 0.929 . S
H449 C458 0.930 . S
H450 C460 0.930 . S
H451 C463 0.929 . S
H452 C466 0.930 . S
H453 C468 0.960 . S
H454 C468 0.960 . S
H455 C468 0.960 . S
C456 H448 0.929 . S
C456 C457 1.377 . S
C456 C458 1.384 . S
C457 C456 1.377 . S
C457 C463 1.390 . S
C458 H449 0.930 . S
C458 C456 1.384 . S
C458 C459 1.372 . S
C459 C458 1.372 . S
C459 C460 1.400 . S
C459 C464 1.490 . S
C460 H450 0.930 . S
C460 C459 1.400 . S
C460 C463 1.386 . S
H461 C477 0.930 . S
H462 C478 0.931 . S
C463 H451 0.929 . S
C463 C457 1.390 . S
C463 C460 1.386 . S
C464 C459 1.490 . S
C464 C466 1.395 . S
C464 C467 1.403 . S
H465 C471 0.930 . S
C466 H452 0.930 . S
C466 C464 1.395 . S
C466 C469 1.403 . S
C467 C464 1.403 . S
C467 C468 1.524 . S
C467 C471 1.400 . S
C468 H453 0.960 . S
C468 H454 0.960 . S
C468 H455 0.960 . S
C468 C467 1.524 . S
C469 C466 1.403 . S
C469 C470 1.392 . S
C469 C473 1.495 . S
C470 C469 1.392 . S
C470 C471 1.385 . S
C470 C472 1.478 . S
C471 H465 0.930 . S
C471 C467 1.400 . S
C471 C470 1.385 . S
C472 C470 1.478 . S
C472 C474 1.381 . S
C472 C478 1.383 . S
C473 C469 1.495 . S
C473 H479 0.959 . S
C473 H480 0.961 . S
C473 H481 0.960 . S
C474 C472 1.381 . S
C474 C475 1.394 . S
C474 H482 0.930 . S
C475 C474 1.394 . S
C475 C476 1.383 . S
C475 H483 0.929 . S
C476 C475 1.383 . S
C476 C477 1.377 . S
C477 H461 0.930 . S
C477 C476 1.377 . S
C477 C478 1.379 . S
C478 H462 0.931 . S
C478 C472 1.383 . S
C478 C477 1.379 . S
H479 C473 0.959 . S
H480 C473 0.961 . S
H481 C473 0.960 . S
H482 C474 0.930 . S
H483 C475 0.929 . S
H484 C492 0.929 . S
H485 C494 0.930 . S
H486 C496 0.930 . S
H487 C499 0.929 . S
H488 C502 0.930 . S
H489 C504 0.960 . S
H490 C504 0.960 . S
H491 C504 0.960 . S
C492 H484 0.929 . S
C492 C493 1.377 . S
C492 C494 1.384 . S
C493 C492 1.377 . S
C493 C499 1.390 . S
C494 H485 0.930 . S
C494 C492 1.384 . S
C494 C495 1.372 . S
C495 C494 1.372 . S
C495 C496 1.400 . S
C495 C500 1.490 . S
C496 H486 0.930 . S
C496 C495 1.400 . S
C496 C499 1.386 . S
H497 C513 0.930 . S
H498 C514 0.931 . S
C499 H487 0.929 . S
C499 C493 1.390 . S
C499 C496 1.386 . S
C500 C495 1.490 . S
C500 C502 1.395 . S
C500 C503 1.403 . S
H501 C507 0.930 . S
C502 H488 0.930 . S
C502 C500 1.395 . S
C502 C505 1.403 . S
C503 C500 1.403 . S
C503 C504 1.524 . S
C503 C507 1.400 . S
C504 H489 0.960 . S
C504 H490 0.960 . S
C504 H491 0.960 . S
C504 C503 1.524 . S
C505 C502 1.403 . S
C505 C506 1.392 . S
C505 C509 1.495 . S
C506 C505 1.392 . S
C506 C507 1.385 . S
C506 C508 1.478 . S
C507 H501 0.930 . S
C507 C503 1.400 . S
C507 C506 1.385 . S
C508 C506 1.478 . S
C508 C510 1.381 . S
C508 C514 1.383 . S
C509 C505 1.495 . S
C509 H515 0.959 . S
C509 H516 0.961 . S
C509 H517 0.960 . S
C510 C508 1.381 . S
C510 C511 1.394 . S
C510 H518 0.930 . S
C511 C510 1.394 . S
C511 C512 1.383 . S
C511 H519 0.929 . S
C512 C511 1.383 . S
C512 C513 1.377 . S
C513 H497 0.930 . S
C513 C512 1.377 . S
C513 C514 1.379 . S
C514 H498 0.931 . S
C514 C508 1.383 . S
C514 C513 1.379 . S
H515 C509 0.959 . S
H516 C509 0.961 . S
H517 C509 0.960 . S
H518 C510 0.930 . S
H519 C511 0.929 . S
H520 C528 0.929 . S
H521 C530 0.930 . S
H522 C532 0.930 . S
H523 C535 0.929 . S
H524 C538 0.930 . S
H525 C540 0.960 . S
H526 C540 0.960 . S
H527 C540 0.960 . S
C528 H520 0.929 . S
C528 C529 1.377 . S
C528 C530 1.384 . S
C529 C528 1.377 . S
C529 C535 1.390 . S
C530 H521 0.930 . S
C530 C528 1.384 . S
C530 C531 1.372 . S
C531 C530 1.372 . S
C531 C532 1.400 . S
C531 C536 1.490 . S
C532 H522 0.930 . S
C532 C531 1.400 . S
C532 C535 1.386 . S
H533 C549 0.930 . S
H534 C550 0.931 . S
C535 H523 0.929 . S
C535 C529 1.390 . S
C535 C532 1.386 . S
C536 C531 1.490 . S
C536 C538 1.395 . S
C536 C539 1.403 . S
H537 C543 0.930 . S
C538 H524 0.930 . S
C538 C536 1.395 . S
C538 C541 1.403 . S
C539 C536 1.403 . S
C539 C540 1.524 . S
C539 C543 1.400 . S
C540 H525 0.960 . S
C540 H526 0.960 . S
C540 H527 0.960 . S
C540 C539 1.524 . S
C541 C538 1.403 . S
C541 C542 1.392 . S
C541 C545 1.495 . S
C542 C541 1.392 . S
C542 C543 1.385 . S
C542 C544 1.478 . S
C543 H537 0.930 . S
C543 C539 1.400 . S
C543 C542 1.385 . S
C544 C542 1.478 . S
C544 C546 1.381 . S
C544 C550 1.383 . S
C545 C541 1.495 . S
C545 H551 0.959 . S
C545 H552 0.961 . S
C545 H553 0.960 . S
C546 C544 1.381 . S
C546 C547 1.394 . S
C546 H554 0.930 . S
C547 C546 1.394 . S
C547 C548 1.383 . S
C547 H555 0.929 . S
C548 C547 1.383 . S
C548 C549 1.377 . S
C549 H533 0.930 . S
C549 C548 1.377 . S
C549 C550 1.379 . S
C550 H534 0.931 . S
C550 C544 1.383 . S
C550 C549 1.379 . S
H551 C545 0.959 . S
H552 C545 0.961 . S
H553 C545 0.960 . S
H554 C546 0.930 . S
H555 C547 0.929 . S
H556 C564 0.929 . S
H557 C566 0.930 . S
H558 C568 0.930 . S
H559 C571 0.929 . S
H560 C574 0.930 . S
H561 C576 0.960 . S
H562 C576 0.960 . S
H563 C576 0.960 . S
C564 H556 0.929 . S
C564 C565 1.377 . S
C564 C566 1.384 . S
C565 C564 1.377 . S
C565 C571 1.390 . S
C566 H557 0.930 . S
C566 C564 1.384 . S
C566 C567 1.372 . S
C567 C566 1.372 . S
C567 C568 1.400 . S
C567 C572 1.490 . S
C568 H558 0.930 . S
C568 C567 1.400 . S
C568 C571 1.386 . S
H569 C585 0.930 . S
H570 C586 0.931 . S
C571 H559 0.929 . S
C571 C565 1.390 . S
C571 C568 1.386 . S
C572 C567 1.490 . S
C572 C574 1.395 . S
C572 C575 1.403 . S
H573 C579 0.930 . S
C574 H560 0.930 . S
C574 C572 1.395 . S
C574 C577 1.403 . S
C575 C572 1.403 . S
C575 C576 1.524 . S
C575 C579 1.400 . S
C576 H561 0.960 . S
C576 H562 0.960 . S
C576 H563 0.960 . S
C576 C575 1.524 . S
C577 C574 1.403 . S
C577 C578 1.392 . S
C577 C581 1.495 . S
C578 C577 1.392 . S
C578 C579 1.385 . S
C578 C580 1.478 . S
C579 H573 0.930 . S
C579 C575 1.400 . S
C579 C578 1.385 . S
C580 C578 1.478 . S
C580 C582 1.381 . S
C580 C586 1.383 . S
C581 C577 1.495 . S
C581 H587 0.959 . S
C581 H588 0.961 . S
C581 H589 0.960 . S
C582 C580 1.381 . S
C582 C583 1.394 . S
C582 H590 0.930 . S
C583 C582 1.394 . S
C583 C584 1.383 . S
C583 H591 0.929 . S
C584 C583 1.383 . S
C584 C585 1.377 . S
C585 H569 0.930 . S
C585 C584 1.377 . S
C585 C586 1.379 . S
C586 H570 0.931 . S
C586 C580 1.383 . S
C586 C585 1.379 . S
H587 C581 0.959 . S
H588 C581 0.961 . S
H589 C581 0.960 . S
H590 C582 0.930 . S
H591 C583 0.929 . S
H592 C600 0.929 . S
H593 C602 0.930 . S
H594 C604 0.930 . S
H595 C607 0.929 . S
H596 C610 0.930 . S
H597 C612 0.960 . S
H598 C612 0.960 . S
H599 C612 0.960 . S
C600 H592 0.929 . S
C600 C601 1.377 . S
C600 C602 1.384 . S
C601 C600 1.377 . S
C601 C607 1.390 . S
C602 H593 0.930 . S
C602 C600 1.384 . S
C602 C603 1.372 . S
C603 C602 1.372 . S
C603 C604 1.400 . S
C603 C608 1.490 . S
C604 H594 0.930 . S
C604 C603 1.400 . S
C604 C607 1.386 . S
H605 C621 0.930 . S
H606 C622 0.931 . S
C607 H595 0.929 . S
C607 C601 1.390 . S
C607 C604 1.386 . S
C608 C603 1.490 . S
C608 C610 1.395 . S
C608 C611 1.403 . S
H609 C615 0.930 . S
C610 H596 0.930 . S
C610 C608 1.395 . S
C610 C613 1.403 . S
C611 C608 1.403 . S
C611 C612 1.524 . S
C611 C615 1.400 . S
C612 H597 0.960 . S
C612 H598 0.960 . S
C612 H599 0.960 . S
C612 C611 1.524 . S
C613 C610 1.403 . S
C613 C614 1.392 . S
C613 C617 1.495 . S
C614 C613 1.392 . S
C614 C615 1.385 . S
C614 C616 1.478 . S
C615 H609 0.930 . S
C615 C611 1.400 . S
C615 C614 1.385 . S
C616 C614 1.478 . S
C616 C618 1.381 . S
C616 C622 1.383 . S
C617 C613 1.495 . S
C617 H623 0.959 . S
C617 H624 0.961 . S
C617 H625 0.960 . S
C618 C616 1.381 . S
C618 C619 1.394 . S
C618 H626 0.930 . S
C619 C618 1.394 . S
C619 C620 1.383 . S
C619 H627 0.929 . S
C620 C619 1.383 . S
C620 C621 1.377 . S
C621 H605 0.930 . S
C621 C620 1.377 . S
C621 C622 1.379 . S
C622 H606 0.931 . S
C622 C616 1.383 . S
C622 C621 1.379 . S
H623 C617 0.959 . S
H624 C617 0.961 . S
H625 C617 0.960 . S
H626 C618 0.930 . S
H627 C619 0.929 . S
H628 C636 0.929 . S
H629 C638 0.930 . S
H630 C640 0.930 . S
H631 C643 0.929 . S
H632 C646 0.930 . S
H633 C648 0.960 . S
H634 C648 0.960 . S
H635 C648 0.960 . S
C636 H628 0.929 . S
C636 C637 1.377 . S
C636 C638 1.384 . S
C637 C636 1.377 . S
C637 C643 1.390 . S
C638 H629 0.930 . S
C638 C636 1.384 . S
C638 C639 1.372 . S
C639 C638 1.372 . S
C639 C640 1.400 . S
C639 C644 1.490 . S
C640 H630 0.930 . S
C640 C639 1.400 . S
C640 C643 1.386 . S
H641 C657 0.930 . S
H642 C658 0.931 . S
C643 H631 0.929 . S
C643 C637 1.390 . S
C643 C640 1.386 . S
C644 C639 1.490 . S
C644 C646 1.395 . S
C644 C647 1.403 . S
H645 C651 0.930 . S
C646 H632 0.930 . S
C646 C644 1.395 . S
C646 C649 1.403 . S
C647 C644 1.403 . S
C647 C648 1.524 . S
C647 C651 1.400 . S
C648 H633 0.960 . S
C648 H634 0.960 . S
C648 H635 0.960 . S
C648 C647 1.524 . S
C649 C646 1.403 . S
C649 C650 1.392 . S
C649 C653 1.495 . S
C650 C649 1.392 . S
C650 C651 1.385 . S
C650 C652 1.478 . S
C651 H645 0.930 . S
C651 C647 1.400 . S
C651 C650 1.385 . S
C652 C650 1.478 . S
C652 C654 1.381 . S
C652 C658 1.383 . S
C653 C649 1.495 . S
C653 H659 0.959 . S
C653 H660 0.961 . S
C653 H661 0.960 . S
C654 C652 1.381 . S
C654 C655 1.394 . S
C654 H662 0.930 . S
C655 C654 1.394 . S
C655 C656 1.383 . S
C655 H663 0.929 . S
C656 C655 1.383 . S
C656 C657 1.377 . S
C657 H641 0.930 . S
C657 C656 1.377 . S
C657 C658 1.379 . S
C658 H642 0.931 . S
C658 C652 1.383 . S
C658 C657 1.379 . S
H659 C653 0.959 . S
H660 C653 0.961 . S
H661 C653 0.960 . S
H662 C654 0.930 . S
H663 C655 0.929 . S
H664 C672 0.929 . S
H665 C674 0.930 . S
H666 C676 0.930 . S
H667 C679 0.929 . S
H668 C682 0.930 . S
H669 C684 0.960 . S
H670 C684 0.960 . S
H671 C684 0.960 . S
C672 H664 0.929 . S
C672 C673 1.377 . S
C672 C674 1.384 . S
C673 C672 1.377 . S
C673 C679 1.390 . S
C674 H665 0.930 . S
C674 C672 1.384 . S
C674 C675 1.372 . S
C675 C674 1.372 . S
C675 C676 1.400 . S
C675 C680 1.490 . S
C676 H666 0.930 . S
C676 C675 1.400 . S
C676 C679 1.386 . S
H677 C693 0.930 . S
H678 C694 0.931 . S
C679 H667 0.929 . S
C679 C673 1.390 . S
C679 C676 1.386 . S
C680 C675 1.490 . S
C680 C682 1.395 . S
C680 C683 1.403 . S
H681 C687 0.930 . S
C682 H668 0.930 . S
C682 C680 1.395 . S
C682 C685 1.403 . S
C683 C680 1.403 . S
C683 C684 1.524 . S
C683 C687 1.400 . S
C684 H669 0.960 . S
C684 H670 0.960 . S
C684 H671 0.960 . S
C684 C683 1.524 . S
C685 C682 1.403 . S
C685 C686 1.392 . S
C685 C689 1.495 . S
C686 C685 1.392 . S
C686 C687 1.385 . S
C686 C688 1.478 . S
C687 H681 0.930 . S
C687 C683 1.400 . S
C687 C686 1.385 . S
C688 C686 1.478 . S
C688 C690 1.381 . S
C688 C694 1.383 . S
C689 C685 1.495 . S
C689 H695 0.959 . S
C689 H696 0.961 . S
C689 H697 0.960 . S
C690 C688 1.381 . S
C690 C691 1.394 . S
C690 H698 0.930 . S
C691 C690 1.394 . S
C691 C692 1.383 . S
C691 H699 0.929 1_556 S
C692 C691 1.383 . S
C692 C693 1.377 . S
C693 H677 0.930 . S
C693 C692 1.377 . S
C693 C694 1.379 . S
C694 H678 0.931 . S
C694 C688 1.383 . S
C694 C693 1.379 . S
H695 C689 0.959 . S
H696 C689 0.961 . S
H697 C689 0.960 . S
H698 C690 0.930 . S
H699 C691 0.929 1_554 S
H700 C708 0.929 . S
H701 C710 0.930 . S
H702 C712 0.930 . S
H703 C715 0.929 . S
H704 C718 0.930 . S
H705 C720 0.960 . S
H706 C720 0.960 . S
H707 C720 0.960 . S
C708 H700 0.929 . S
C708 C709 1.377 . S
C708 C710 1.384 . S
C709 C708 1.377 . S
C709 C715 1.390 . S
C710 H701 0.930 . S
C710 C708 1.384 . S
C710 C711 1.372 . S
C711 C710 1.372 . S
C711 C712 1.400 . S
C711 C716 1.490 . S
C712 H702 0.930 . S
C712 C711 1.400 . S
C712 C715 1.386 . S
H713 C729 0.930 . S
H714 C730 0.931 . S
C715 H703 0.929 . S
C715 C709 1.390 . S
C715 C712 1.386 . S
C716 C711 1.490 . S
C716 C718 1.395 . S
C716 C719 1.403 . S
H717 C723 0.930 . S
C718 H704 0.930 . S
C718 C716 1.395 . S
C718 C721 1.403 . S
C719 C716 1.403 . S
C719 C720 1.524 . S
C719 C723 1.400 . S
C720 H705 0.960 . S
C720 H706 0.960 . S
C720 H707 0.960 . S
C720 C719 1.524 . S
C721 C718 1.403 . S
C721 C722 1.392 . S
C721 C725 1.495 . S
C722 C721 1.392 . S
C722 C723 1.385 . S
C722 C724 1.478 . S
C723 H717 0.930 . S
C723 C719 1.400 . S
C723 C722 1.385 . S
C724 C722 1.478 . S
C724 C726 1.381 . S
C724 C730 1.383 . S
C725 C721 1.495 . S
C725 H731 0.959 . S
C725 H732 0.961 . S
C725 H733 0.960 . S
C726 C724 1.381 . S
C726 C727 1.394 . S
C726 H734 0.930 . S
C727 C726 1.394 . S
C727 C728 1.383 . S
C727 H735 0.929 . S
C728 C727 1.383 . S
C728 C729 1.377 . S
C729 H713 0.930 . S
C729 C728 1.377 . S
C729 C730 1.379 . S
C730 H714 0.931 . S
C730 C724 1.383 . S
C730 C729 1.379 . S
H731 C725 0.959 . S
H732 C725 0.961 . S
H733 C725 0.960 . S
H734 C726 0.930 . S
H735 C727 0.929 . S
H736 C744 0.929 . S
H737 C746 0.930 . S
H738 C748 0.930 . S
H739 C751 0.929 . S
H740 C754 0.930 . S
H741 C756 0.960 . S
H742 C756 0.960 . S
H743 C756 0.960 . S
C744 H736 0.929 . S
C744 C745 1.377 . S
C744 C746 1.384 . S
C745 C744 1.377 . S
C745 C751 1.390 . S
C746 H737 0.930 . S
C746 C744 1.384 . S
C746 C747 1.372 . S
C747 C746 1.372 . S
C747 C748 1.400 . S
C747 C752 1.490 . S
C748 H738 0.930 . S
C748 C747 1.400 . S
C748 C751 1.386 . S
H749 C765 0.930 . S
H750 C766 0.931 . S
C751 H739 0.929 . S
C751 C745 1.390 . S
C751 C748 1.386 . S
C752 C747 1.490 . S
C752 C754 1.395 . S
C752 C755 1.403 . S
H753 C759 0.930 . S
C754 H740 0.930 . S
C754 C752 1.395 . S
C754 C757 1.403 . S
C755 C752 1.403 . S
C755 C756 1.524 . S
C755 C759 1.400 . S
C756 H741 0.960 . S
C756 H742 0.960 . S
C756 H743 0.960 . S
C756 C755 1.524 . S
C757 C754 1.403 . S
C757 C758 1.392 . S
C757 C761 1.495 . S
C758 C757 1.392 . S
C758 C759 1.385 . S
C758 C760 1.478 . S
C759 H753 0.930 . S
C759 C755 1.400 . S
C759 C758 1.385 . S
C760 C758 1.478 . S
C760 C762 1.381 . S
C760 C766 1.383 . S
C761 C757 1.495 . S
C761 H767 0.959 . S
C761 H768 0.961 . S
C761 H769 0.960 . S
C762 C760 1.381 . S
C762 C763 1.394 . S
C762 H770 0.930 . S
C763 C762 1.394 . S
C763 C764 1.383 . S
C763 H771 0.929 . S
C764 C763 1.383 . S
C764 C765 1.377 . S
C765 H749 0.930 . S
C765 C764 1.377 . S
C765 C766 1.379 . S
C766 H750 0.931 . S
C766 C760 1.383 . S
C766 C765 1.379 . S
H767 C761 0.959 . S
H768 C761 0.961 . S
H769 C761 0.960 . S
H770 C762 0.930 . S
H771 C763 0.929 . S
H772 C780 0.929 . S
H773 C782 0.930 . S
H774 C784 0.930 . S
H775 C787 0.929 . S
H776 C790 0.930 . S
H777 C792 0.960 . S
H778 C792 0.960 . S
H779 C792 0.960 . S
C780 H772 0.929 . S
C780 C781 1.377 . S
C780 C782 1.384 . S
C781 C780 1.377 . S
C781 C787 1.390 . S
C782 H773 0.930 . S
C782 C780 1.384 . S
C782 C783 1.372 . S
C783 C782 1.372 . S
C783 C784 1.400 . S
C783 C788 1.490 . S
C784 H774 0.930 . S
C784 C783 1.400 . S
C784 C787 1.386 . S
H785 C801 0.930 . S
H786 C802 0.931 . S
C787 H775 0.929 . S
C787 C781 1.390 . S
C787 C784 1.386 . S
C788 C783 1.490 . S
C788 C790 1.395 . S
C788 C791 1.403 . S
H789 C795 0.930 . S
C790 H776 0.930 . S
C790 C788 1.395 . S
C790 C793 1.403 . S
C791 C788 1.403 . S
C791 C792 1.524 . S
C791 C795 1.400 . S
C792 H777 0.960 . S
C792 H778 0.960 . S
C792 H779 0.960 . S
C792 C791 1.524 . S
C793 C790 1.403 . S
C793 C794 1.392 . S
C793 C797 1.495 . S
C794 C793 1.392 . S
C794 C795 1.385 . S
C794 C796 1.478 . S
C795 H789 0.930 . S
C795 C791 1.400 . S
C795 C794 1.385 . S
C796 C794 1.478 . S
C796 C798 1.381 . S
C796 C802 1.383 . S
C797 C793 1.495 . S
C797 H803 0.959 . S
C797 H804 0.961 . S
C797 H805 0.960 . S
C798 C796 1.381 . S
C798 C799 1.394 . S
C798 H806 0.930 . S
C799 C798 1.394 . S
C799 C800 1.383 . S
C799 H807 0.929 . S
C800 C799 1.383 . S
C800 C801 1.377 . S
C801 H785 0.930 . S
C801 C800 1.377 . S
C801 C802 1.379 . S
C802 H786 0.931 . S
C802 C796 1.383 . S
C802 C801 1.379 . S
H803 C797 0.959 . S
H804 C797 0.961 . S
H805 C797 0.960 . S
H806 C798 0.930 . S
H807 C799 0.929 . S
H808 C816 0.929 . S
H809 C818 0.930 . S
H810 C820 0.930 . S
H811 C823 0.929 . S
H812 C826 0.930 . S
H813 C828 0.960 . S
H814 C828 0.960 . S
H815 C828 0.960 . S
C816 H808 0.929 . S
C816 C817 1.377 . S
C816 C818 1.384 . S
C817 C816 1.377 . S
C817 C823 1.390 . S
C818 H809 0.930 . S
C818 C816 1.384 . S
C818 C819 1.372 . S
C819 C818 1.372 . S
C819 C820 1.400 . S
C819 C824 1.490 . S
C820 H810 0.930 . S
C820 C819 1.400 . S
C820 C823 1.386 . S
H821 C837 0.930 . S
H822 C838 0.931 . S
C823 H811 0.929 . S
C823 C817 1.390 . S
C823 C820 1.386 . S
C824 C819 1.490 . S
C824 C826 1.395 . S
C824 C827 1.403 . S
H825 C831 0.930 . S
C826 H812 0.930 . S
C826 C824 1.395 . S
C826 C829 1.403 . S
C827 C824 1.403 . S
C827 C828 1.524 . S
C827 C831 1.400 . S
C828 H813 0.960 . S
C828 H814 0.960 . S
C828 H815 0.960 . S
C828 C827 1.524 . S
C829 C826 1.403 . S
C829 C830 1.392 . S
C829 C833 1.495 . S
C830 C829 1.392 . S
C830 C831 1.385 . S
C830 C832 1.478 . S
C831 H825 0.930 . S
C831 C827 1.400 . S
C831 C830 1.385 . S
C832 C830 1.478 . S
C832 C834 1.381 . S
C832 C838 1.383 . S
C833 C829 1.495 . S
C833 H839 0.959 . S
C833 H840 0.961 . S
C833 H841 0.960 . S
C834 C832 1.381 . S
C834 C835 1.394 . S
C834 H842 0.930 . S
C835 C834 1.394 . S
C835 C836 1.383 . S
C835 H843 0.929 1_655 S
C836 C835 1.383 . S
C836 C837 1.377 . S
C837 H821 0.930 . S
C837 C836 1.377 . S
C837 C838 1.379 . S
C838 H822 0.931 . S
C838 C832 1.383 . S
C838 C837 1.379 . S
H839 C833 0.959 . S
H840 C833 0.961 . S
H841 C833 0.960 . S
H842 C834 0.930 . S
H843 C835 0.929 1_455 S
H844 C852 0.929 . S
H845 C854 0.930 . S
H846 C856 0.930 . S
H847 C859 0.929 . S
H848 C862 0.930 . S
H849 C864 0.960 . S
H850 C864 0.960 . S
H851 C864 0.960 . S
C852 H844 0.929 . S
C852 C853 1.377 . S
C852 C854 1.384 . S
C853 C852 1.377 . S
C853 C859 1.390 . S
C854 H845 0.930 . S
C854 C852 1.384 . S
C854 C855 1.372 . S
C855 C854 1.372 . S
C855 C856 1.400 . S
C855 C860 1.490 . S
C856 H846 0.930 . S
C856 C855 1.400 . S
C856 C859 1.386 . S
H857 C873 0.930 . S
H858 C874 0.931 . S
C859 H847 0.929 . S
C859 C853 1.390 . S
C859 C856 1.386 . S
C860 C855 1.490 . S
C860 C862 1.395 . S
C860 C863 1.403 . S
H861 C867 0.930 . S
C862 H848 0.930 . S
C862 C860 1.395 . S
C862 C865 1.403 . S
C863 C860 1.403 . S
C863 C864 1.524 . S
C863 C867 1.400 . S
C864 H849 0.960 . S
C864 H850 0.960 . S
C864 H851 0.960 . S
C864 C863 1.524 . S
C865 C862 1.403 . S
C865 C866 1.392 . S
C865 C869 1.495 . S
C866 C865 1.392 . S
C866 C867 1.385 . S
C866 C868 1.478 . S
C867 H861 0.930 . S
C867 C863 1.400 . S
C867 C866 1.385 . S
C868 C866 1.478 . S
C868 C870 1.381 . S
C868 C874 1.383 . S
C869 C865 1.495 . S
C869 H875 0.959 . S
C869 H876 0.961 . S
C869 H877 0.960 . S
C870 C868 1.381 . S
C870 C871 1.394 . S
C870 H878 0.930 . S
C871 C870 1.394 . S
C871 C872 1.383 . S
C871 H879 0.929 . S
C872 C871 1.383 . S
C872 C873 1.377 . S
C873 H857 0.930 . S
C873 C872 1.377 . S
C873 C874 1.379 . S
C874 H858 0.931 . S
C874 C868 1.383 . S
C874 C873 1.379 . S
H875 C869 0.959 . S
H876 C869 0.961 . S
H877 C869 0.960 . S
H878 C870 0.930 . S
H879 C871 0.929 . S
H880 C888 0.929 . S
H881 C890 0.930 . S
H882 C892 0.930 . S
H883 C895 0.929 . S
H884 C898 0.930 . S
H885 C900 0.960 . S
H886 C900 0.960 . S
H887 C900 0.960 . S
C888 H880 0.929 . S
C888 C889 1.377 . S
C888 C890 1.384 . S
C889 C888 1.377 . S
C889 C895 1.390 . S
C890 H881 0.930 . S
C890 C888 1.384 . S
C890 C891 1.372 . S
C891 C890 1.372 . S
C891 C892 1.400 . S
C891 C896 1.490 . S
C892 H882 0.930 . S
C892 C891 1.400 . S
C892 C895 1.386 . S
H893 C909 0.930 . S
H894 C910 0.931 . S
C895 H883 0.929 . S
C895 C889 1.390 . S
C895 C892 1.386 . S
C896 C891 1.490 . S
C896 C898 1.395 . S
C896 C899 1.403 . S
H897 C903 0.930 . S
C898 H884 0.930 . S
C898 C896 1.395 . S
C898 C901 1.403 . S
C899 C896 1.403 . S
C899 C900 1.524 . S
C899 C903 1.400 . S
C900 H885 0.960 . S
C900 H886 0.960 . S
C900 H887 0.960 . S
C900 C899 1.524 . S
C901 C898 1.403 . S
C901 C902 1.392 . S
C901 C905 1.495 . S
C902 C901 1.392 . S
C902 C903 1.385 . S
C902 C904 1.478 . S
C903 H897 0.930 . S
C903 C899 1.400 . S
C903 C902 1.385 . S
C904 C902 1.478 . S
C904 C906 1.381 . S
C904 C910 1.383 . S
C905 C901 1.495 . S
C905 H911 0.959 . S
C905 H912 0.961 . S
C905 H913 0.960 . S
C906 C904 1.381 . S
C906 C907 1.394 . S
C906 H914 0.930 . S
C907 C906 1.394 . S
C907 C908 1.383 . S
C907 H915 0.929 . S
C908 C907 1.383 . S
C908 C909 1.377 . S
C909 H893 0.930 . S
C909 C908 1.377 . S
C909 C910 1.379 . S
C910 H894 0.931 . S
C910 C904 1.383 . S
C910 C909 1.379 . S
H911 C905 0.959 . S
H912 C905 0.961 . S
H913 C905 0.960 . S
H914 C906 0.930 . S
H915 C907 0.929 . S
H916 C924 0.929 . S
H917 C926 0.930 . S
H918 C928 0.930 . S
H919 C931 0.929 . S
H920 C934 0.930 . S
H921 C936 0.960 . S
H922 C936 0.960 . S
H923 C936 0.960 . S
C924 H916 0.929 . S
C924 C925 1.377 . S
C924 C926 1.384 . S
C925 C924 1.377 . S
C925 C931 1.390 . S
C926 H917 0.930 . S
C926 C924 1.384 . S
C926 C927 1.372 . S
C927 C926 1.372 . S
C927 C928 1.400 . S
C927 C932 1.490 . S
C928 H918 0.930 . S
C928 C927 1.400 . S
C928 C931 1.386 . S
H929 C945 0.930 . S
H930 C946 0.931 . S
C931 H919 0.929 . S
C931 C925 1.390 . S
C931 C928 1.386 . S
C932 C927 1.490 . S
C932 C934 1.395 . S
C932 C935 1.403 . S
H933 C939 0.930 . S
C934 H920 0.930 . S
C934 C932 1.395 . S
C934 C937 1.403 . S
C935 C932 1.403 . S
C935 C936 1.524 . S
C935 C939 1.400 . S
C936 H921 0.960 . S
C936 H922 0.960 . S
C936 H923 0.960 . S
C936 C935 1.524 . S
C937 C934 1.403 . S
C937 C938 1.392 . S
C937 C941 1.495 . S
C938 C937 1.392 . S
C938 C939 1.385 . S
C938 C940 1.478 . S
C939 H933 0.930 . S
C939 C935 1.400 . S
C939 C938 1.385 . S
C940 C938 1.478 . S
C940 C942 1.381 . S
C940 C946 1.383 . S
C941 C937 1.495 . S
C941 H947 0.959 . S
C941 H948 0.961 . S
C941 H949 0.960 . S
C942 C940 1.381 . S
C942 C943 1.394 . S
C942 H950 0.930 . S
C943 C942 1.394 . S
C943 C944 1.383 . S
C943 H951 0.929 . S
C944 C943 1.383 . S
C944 C945 1.377 . S
C945 H929 0.930 . S
C945 C944 1.377 . S
C945 C946 1.379 . S
C946 H930 0.931 . S
C946 C940 1.383 . S
C946 C945 1.379 . S
H947 C941 0.959 . S
H948 C941 0.961 . S
H949 C941 0.960 . S
H950 C942 0.930 . S
H951 C943 0.929 . S
H952 C960 0.929 . S
H953 C962 0.930 . S
H954 C964 0.930 . S
H955 C967 0.929 . S
H956 C970 0.930 . S
H957 C972 0.960 . S
H958 C972 0.960 . S
H959 C972 0.960 . S
C960 H952 0.929 . S
C960 C961 1.377 . S
C960 C962 1.384 . S
C961 C960 1.377 . S
C961 C967 1.390 . S
C962 H953 0.930 . S
C962 C960 1.384 . S
C962 C963 1.372 . S
C963 C962 1.372 . S
C963 C964 1.400 . S
C963 C968 1.490 . S
C964 H954 0.930 . S
C964 C963 1.400 . S
C964 C967 1.386 . S
H965 C981 0.930 . S
H966 C982 0.931 . S
C967 H955 0.929 . S
C967 C961 1.390 . S
C967 C964 1.386 . S
C968 C963 1.490 . S
C968 C970 1.395 . S
C968 C971 1.403 . S
H969 C975 0.930 . S
C970 H956 0.930 . S
C970 C968 1.395 . S
C970 C973 1.403 . S
C971 C968 1.403 . S
C971 C972 1.524 . S
C971 C975 1.400 . S
C972 H957 0.960 . S
C972 H958 0.960 . S
C972 H959 0.960 . S
C972 C971 1.524 . S
C973 C970 1.403 . S
C973 C974 1.392 . S
C973 C977 1.495 . S
C974 C973 1.392 . S
C974 C975 1.385 . S
C974 C976 1.478 . S
C975 H969 0.930 . S
C975 C971 1.400 . S
C975 C974 1.385 . S
C976 C974 1.478 . S
C976 C978 1.381 . S
C976 C982 1.383 . S
C977 C973 1.495 . S
C977 H983 0.959 . S
C977 H984 0.961 . S
C977 H985 0.960 . S
C978 C976 1.381 . S
C978 C979 1.394 . S
C978 H986 0.930 . S
C979 C978 1.394 . S
C979 C980 1.383 . S
C979 H987 0.929 . S
C980 C979 1.383 . S
C980 C981 1.377 . S
C981 H965 0.930 . S
C981 C980 1.377 . S
C981 C982 1.379 . S
C982 H966 0.931 . S
C982 C976 1.383 . S
C982 C981 1.379 . S
H983 C977 0.959 . S
H984 C977 0.961 . S
H985 C977 0.960 . S
H986 C978 0.930 . S
H987 C979 0.929 . S
H988 C996 0.929 . S
H989 C998 0.930 . S
H990 C1000 0.930 . S
H991 C1003 0.929 . S
H992 C1006 0.930 . S
H993 C1008 0.960 . S
H994 C1008 0.960 . S
H995 C1008 0.960 . S
C996 H988 0.929 . S
C996 C997 1.377 . S
C996 C998 1.384 . S
C997 C996 1.377 . S
C997 C1003 1.390 . S
C998 H989 0.930 . S
C998 C996 1.384 . S
C998 C999 1.372 . S
C999 C998 1.372 . S
C999 C1000 1.400 . S
C999 C1004 1.490 . S
C1000 H990 0.930 . S
C1000 C999 1.400 . S
C1000 C1003 1.386 . S
H1001 C1017 0.930 . S
H1002 C1018 0.931 . S
C1003 H991 0.929 . S
C1003 C997 1.390 . S
C1003 C1000 1.386 . S
C1004 C999 1.490 . S
C1004 C1006 1.395 . S
C1004 C1007 1.403 . S
H1005 C1011 0.930 . S
C1006 H992 0.930 . S
C1006 C1004 1.395 . S
C1006 C1009 1.403 . S
C1007 C1004 1.403 . S
C1007 C1008 1.524 . S
C1007 C1011 1.400 . S
C1008 H993 0.960 . S
C1008 H994 0.960 . S
C1008 H995 0.960 . S
C1008 C1007 1.524 . S
C1009 C1006 1.403 . S
C1009 C1010 1.392 . S
C1009 C1013 1.495 . S
C1010 C1009 1.392 . S
C1010 C1011 1.385 . S
C1010 C1012 1.478 . S
C1011 H1005 0.930 . S
C1011 C1007 1.400 . S
C1011 C1010 1.385 . S
C1012 C1010 1.478 . S
C1012 C1014 1.381 . S
C1012 C1018 1.383 . S
C1013 C1009 1.495 . S
C1013 H1019 0.959 . S
C1013 H1020 0.961 . S
C1013 H1021 0.960 . S
C1014 C1012 1.381 . S
C1014 C1015 1.394 . S
C1014 H1022 0.930 . S
C1015 C1014 1.394 . S
C1015 C1016 1.383 . S
C1015 H1023 0.929 . S
C1016 C1015 1.383 . S
C1016 C1017 1.377 . S
C1017 H1001 0.930 . S
C1017 C1016 1.377 . S
C1017 C1018 1.379 . S
C1018 H1002 0.931 . S
C1018 C1012 1.383 . S
C1018 C1017 1.379 . S
H1019 C1013 0.959 . S
H1020 C1013 0.961 . S
H1021 C1013 0.960 . S
H1022 C1014 0.930 . S
H1023 C1015 0.929 . S
H1024 C1032 0.929 . S
H1025 C1034 0.930 . S
H1026 C1036 0.930 . S
H1027 C1039 0.929 . S
H1028 C1042 0.930 . S
H1029 C1044 0.960 . S
H1030 C1044 0.960 . S
H1031 C1044 0.960 . S
C1032 H1024 0.929 . S
C1032 C1033 1.377 . S
C1032 C1034 1.384 . S
C1033 C1032 1.377 . S
C1033 C1039 1.390 . S
C1034 H1025 0.930 . S
C1034 C1032 1.384 . S
C1034 C1035 1.372 . S
C1035 C1034 1.372 . S
C1035 C1036 1.400 . S
C1035 C1040 1.490 . S
C1036 H1026 0.930 . S
C1036 C1035 1.400 . S
C1036 C1039 1.386 . S
H1037 C1053 0.930 . S
H1038 C1054 0.931 . S
C1039 H1027 0.929 . S
C1039 C1033 1.390 . S
C1039 C1036 1.386 . S
C1040 C1035 1.490 . S
C1040 C1042 1.395 . S
C1040 C1043 1.403 . S
H1041 C1047 0.930 . S
C1042 H1028 0.930 . S
C1042 C1040 1.395 . S
C1042 C1045 1.403 . S
C1043 C1040 1.403 . S
C1043 C1044 1.524 . S
C1043 C1047 1.400 . S
C1044 H1029 0.960 . S
C1044 H1030 0.960 . S
C1044 H1031 0.960 . S
C1044 C1043 1.524 . S
C1045 C1042 1.403 . S
C1045 C1046 1.392 . S
C1045 C1049 1.495 . S
C1046 C1045 1.392 . S
C1046 C1047 1.385 . S
C1046 C1048 1.478 . S
C1047 H1041 0.930 . S
C1047 C1043 1.400 . S
C1047 C1046 1.385 . S
C1048 C1046 1.478 . S
C1048 C1050 1.381 . S
C1048 C1054 1.383 . S
C1049 C1045 1.495 . S
C1049 H1055 0.959 . S
C1049 H1056 0.961 . S
C1049 H1057 0.960 . S
C1050 C1048 1.381 . S
C1050 C1051 1.394 . S
C1050 H1058 0.930 . S
C1051 C1050 1.394 . S
C1051 C1052 1.383 . S
C1051 H1059 0.929 . S
C1052 C1051 1.383 . S
C1052 C1053 1.377 . S
C1053 H1037 0.930 . S
C1053 C1052 1.377 . S
C1053 C1054 1.379 . S
C1054 H1038 0.931 . S
C1054 C1048 1.383 . S
C1054 C1053 1.379 . S
H1055 C1049 0.959 . S
H1056 C1049 0.961 . S
H1057 C1049 0.960 . S
H1058 C1050 0.930 . S
H1059 C1051 0.929 . S
H1060 C1068 0.929 . S
H1061 C1070 0.930 . S
H1062 C1072 0.930 . S
H1063 C1075 0.929 . S
H1064 C1078 0.930 . S
H1065 C1080 0.960 . S
H1066 C1080 0.960 . S
H1067 C1080 0.960 . S
C1068 H1060 0.929 . S
C1068 C1069 1.377 . S
C1068 C1070 1.384 . S
C1069 C1068 1.377 . S
C1069 C1075 1.390 . S
C1070 H1061 0.930 . S
C1070 C1068 1.384 . S
C1070 C1071 1.372 . S
C1071 C1070 1.372 . S
C1071 C1072 1.400 . S
C1071 C1076 1.490 . S
C1072 H1062 0.930 . S
C1072 C1071 1.400 . S
C1072 C1075 1.386 . S
H1073 C1089 0.930 . S
H1074 C1090 0.931 . S
C1075 H1063 0.929 . S
C1075 C1069 1.390 . S
C1075 C1072 1.386 . S
C1076 C1071 1.490 . S
C1076 C1078 1.395 . S
C1076 C1079 1.403 . S
H1077 C1083 0.930 . S
C1078 H1064 0.930 . S
C1078 C1076 1.395 . S
C1078 C1081 1.403 . S
C1079 C1076 1.403 . S
C1079 C1080 1.524 . S
C1079 C1083 1.400 . S
C1080 H1065 0.960 . S
C1080 H1066 0.960 . S
C1080 H1067 0.960 . S
C1080 C1079 1.524 . S
C1081 C1078 1.403 . S
C1081 C1082 1.392 . S
C1081 C1085 1.495 . S
C1082 C1081 1.392 . S
C1082 C1083 1.385 . S
C1082 C1084 1.478 . S
C1083 H1077 0.930 . S
C1083 C1079 1.400 . S
C1083 C1082 1.385 . S
C1084 C1082 1.478 . S
C1084 C1086 1.381 . S
C1084 C1090 1.383 . S
C1085 C1081 1.495 . S
C1085 H1091 0.959 . S
C1085 H1092 0.961 . S
C1085 H1093 0.960 . S
C1086 C1084 1.381 . S
C1086 C1087 1.394 . S
C1086 H1094 0.930 . S
C1087 C1086 1.394 . S
C1087 C1088 1.383 . S
C1087 H1095 0.929 . S
C1088 C1087 1.383 . S
C1088 C1089 1.377 . S
C1089 H1073 0.930 . S
C1089 C1088 1.377 . S
C1089 C1090 1.379 . S
C1090 H1074 0.931 . S
C1090 C1084 1.383 . S
C1090 C1089 1.379 . S
H1091 C1085 0.959 . S
H1092 C1085 0.961 . S
H1093 C1085 0.960 . S
H1094 C1086 0.930 . S
H1095 C1087 0.929 . S
H1096 C1104 0.929 . S
H1097 C1106 0.930 . S
H1098 C1108 0.930 . S
H1099 C1111 0.929 . S
H1100 C1114 0.930 . S
H1101 C1116 0.960 . S
H1102 C1116 0.960 . S
H1103 C1116 0.960 . S
C1104 H1096 0.929 . S
C1104 C1105 1.377 . S
C1104 C1106 1.384 . S
C1105 C1104 1.377 . S
C1105 C1111 1.390 . S
C1106 H1097 0.930 . S
C1106 C1104 1.384 . S
C1106 C1107 1.372 . S
C1107 C1106 1.372 . S
C1107 C1108 1.400 . S
C1107 C1112 1.490 . S
C1108 H1098 0.930 . S
C1108 C1107 1.400 . S
C1108 C1111 1.386 . S
H1109 C1125 0.930 . S
H1110 C1126 0.931 . S
C1111 H1099 0.929 . S
C1111 C1105 1.390 . S
C1111 C1108 1.386 . S
C1112 C1107 1.490 . S
C1112 C1114 1.395 . S
C1112 C1115 1.403 . S
H1113 C1119 0.930 . S
C1114 H1100 0.930 . S
C1114 C1112 1.395 . S
C1114 C1117 1.403 . S
C1115 C1112 1.403 . S
C1115 C1116 1.524 . S
C1115 C1119 1.400 . S
C1116 H1101 0.960 . S
C1116 H1102 0.960 . S
C1116 H1103 0.960 . S
C1116 C1115 1.524 . S
C1117 C1114 1.403 . S
C1117 C1118 1.392 . S
C1117 C1121 1.495 . S
C1118 C1117 1.392 . S
C1118 C1119 1.385 . S
C1118 C1120 1.478 . S
C1119 H1113 0.930 . S
C1119 C1115 1.400 . S
C1119 C1118 1.385 . S
C1120 C1118 1.478 . S
C1120 C1122 1.381 . S
C1120 C1126 1.383 . S
C1121 C1117 1.495 . S
C1121 H1127 0.959 . S
C1121 H1128 0.961 . S
C1121 H1129 0.960 . S
C1122 C1120 1.381 . S
C1122 C1123 1.394 . S
C1122 H1130 0.930 . S
C1123 C1122 1.394 . S
C1123 C1124 1.383 . S
C1123 H1131 0.929 . S
C1124 C1123 1.383 . S
C1124 C1125 1.377 . S
C1125 H1109 0.930 . S
C1125 C1124 1.377 . S
C1125 C1126 1.379 . S
C1126 H1110 0.931 . S
C1126 C1120 1.383 . S
C1126 C1125 1.379 . S
H1127 C1121 0.959 . S
H1128 C1121 0.961 . S
H1129 C1121 0.960 . S
H1130 C1122 0.930 . S
H1131 C1123 0.929 . S
H1132 C1140 0.929 . S
H1133 C1142 0.930 . S
H1134 C1144 0.930 . S
H1135 C1147 0.929 . S
H1136 C1150 0.930 . S
H1137 C1152 0.960 . S
H1138 C1152 0.960 . S
H1139 C1152 0.960 . S
C1140 H1132 0.929 . S
C1140 C1141 1.377 . S
C1140 C1142 1.384 . S
C1141 C1140 1.377 . S
C1141 C1147 1.390 . S
C1142 H1133 0.930 . S
C1142 C1140 1.384 . S
C1142 C1143 1.372 . S
C1143 C1142 1.372 . S
C1143 C1144 1.400 . S
C1143 C1148 1.490 . S
C1144 H1134 0.930 . S
C1144 C1143 1.400 . S
C1144 C1147 1.386 . S
H1145 C1161 0.930 . S
H1146 C1162 0.931 . S
C1147 H1135 0.929 . S
C1147 C1141 1.390 . S
C1147 C1144 1.386 . S
C1148 C1143 1.490 . S
C1148 C1150 1.395 . S
C1148 C1151 1.403 . S
H1149 C1155 0.930 . S
C1150 H1136 0.930 . S
C1150 C1148 1.395 . S
C1150 C1153 1.403 . S
C1151 C1148 1.403 . S
C1151 C1152 1.524 . S
C1151 C1155 1.400 . S
C1152 H1137 0.960 . S
C1152 H1138 0.960 . S
C1152 H1139 0.960 . S
C1152 C1151 1.524 . S
C1153 C1150 1.403 . S
C1153 C1154 1.392 . S
C1153 C1157 1.495 . S
C1154 C1153 1.392 . S
C1154 C1155 1.385 . S
C1154 C1156 1.478 . S
C1155 H1149 0.930 . S
C1155 C1151 1.400 . S
C1155 C1154 1.385 . S
C1156 C1154 1.478 . S
C1156 C1158 1.381 . S
C1156 C1162 1.383 . S
C1157 C1153 1.495 . S
C1157 H1163 0.959 . S
C1157 H1164 0.961 . S
C1157 H1165 0.960 . S
C1158 C1156 1.381 . S
C1158 C1159 1.394 . S
C1158 H1166 0.930 . S
C1159 C1158 1.394 . S
C1159 C1160 1.383 . S
C1159 H1167 0.929 . S
C1160 C1159 1.383 . S
C1160 C1161 1.377 . S
C1161 H1145 0.930 . S
C1161 C1160 1.377 . S
C1161 C1162 1.379 . S
C1162 H1146 0.931 . S
C1162 C1156 1.383 . S
C1162 C1161 1.379 . S
H1163 C1157 0.959 . S
H1164 C1157 0.961 . S
H1165 C1157 0.960 . S
H1166 C1158 0.930 . S
H1167 C1159 0.929 . S
H1168 C1176 0.929 . S
H1169 C1178 0.930 . S
H1170 C1180 0.930 . S
H1171 C1183 0.929 . S
H1172 C1186 0.930 . S
H1173 C1188 0.960 . S
H1174 C1188 0.960 . S
H1175 C1188 0.960 . S
C1176 H1168 0.929 . S
C1176 C1177 1.377 . S
C1176 C1178 1.384 . S
C1177 C1176 1.377 . S
C1177 C1183 1.390 . S
C1178 H1169 0.930 . S
C1178 C1176 1.384 . S
C1178 C1179 1.372 . S
C1179 C1178 1.372 . S
C1179 C1180 1.400 . S
C1179 C1184 1.490 . S
C1180 H1170 0.930 . S
C1180 C1179 1.400 . S
C1180 C1183 1.386 . S
H1181 C1197 0.930 . S
H1182 C1198 0.931 . S
C1183 H1171 0.929 . S
C1183 C1177 1.390 . S
C1183 C1180 1.386 . S
C1184 C1179 1.490 . S
C1184 C1186 1.395 . S
C1184 C1187 1.403 . S
H1185 C1191 0.930 . S
C1186 H1172 0.930 . S
C1186 C1184 1.395 . S
C1186 C1189 1.403 . S
C1187 C1184 1.403 . S
C1187 C1188 1.524 . S
C1187 C1191 1.400 . S
C1188 H1173 0.960 . S
C1188 H1174 0.960 . S
C1188 H1175 0.960 . S
C1188 C1187 1.524 . S
C1189 C1186 1.403 . S
C1189 C1190 1.392 . S
C1189 C1193 1.495 . S
C1190 C1189 1.392 . S
C1190 C1191 1.385 . S
C1190 C1192 1.478 . S
C1191 H1185 0.930 . S
C1191 C1187 1.400 . S
C1191 C1190 1.385 . S
C1192 C1190 1.478 . S
C1192 C1194 1.381 . S
C1192 C1198 1.383 . S
C1193 C1189 1.495 . S
C1193 H1199 0.959 . S
C1193 H1200 0.961 . S
C1193 H1201 0.960 . S
C1194 C1192 1.381 . S
C1194 C1195 1.394 . S
C1194 H1202 0.930 . S
C1195 C1194 1.394 . S
C1195 C1196 1.383 . S
C1195 H1203 0.929 . S
C1196 C1195 1.383 . S
C1196 C1197 1.377 . S
C1197 H1181 0.930 . S
C1197 C1196 1.377 . S
C1197 C1198 1.379 . S
C1198 H1182 0.931 . S
C1198 C1192 1.383 . S
C1198 C1197 1.379 . S
H1199 C1193 0.959 . S
H1200 C1193 0.961 . S
H1201 C1193 0.960 . S
H1202 C1194 0.930 . S
H1203 C1195 0.929 . S
H1204 C1212 0.929 . S
H1205 C1214 0.930 . S
H1206 C1216 0.930 . S
H1207 C1219 0.929 . S
H1208 C1222 0.930 . S
H1209 C1224 0.960 . S
H1210 C1224 0.960 . S
H1211 C1224 0.960 . S
C1212 H1204 0.929 . S
C1212 C1213 1.377 . S
C1212 C1214 1.384 . S
C1213 C1212 1.377 . S
C1213 C1219 1.390 . S
C1214 H1205 0.930 . S
C1214 C1212 1.384 . S
C1214 C1215 1.372 . S
C1215 C1214 1.372 . S
C1215 C1216 1.400 . S
C1215 C1220 1.490 . S
C1216 H1206 0.930 . S
C1216 C1215 1.400 . S
C1216 C1219 1.386 . S
H1217 C1233 0.930 . S
H1218 C1234 0.931 . S
C1219 H1207 0.929 . S
C1219 C1213 1.390 . S
C1219 C1216 1.386 . S
C1220 C1215 1.490 . S
C1220 C1222 1.395 . S
C1220 C1223 1.403 . S
H1221 C1227 0.930 . S
C1222 H1208 0.930 . S
C1222 C1220 1.395 . S
C1222 C1225 1.403 . S
C1223 C1220 1.403 . S
C1223 C1224 1.524 . S
C1223 C1227 1.400 . S
C1224 H1209 0.960 . S
C1224 H1210 0.960 . S
C1224 H1211 0.960 . S
C1224 C1223 1.524 . S
C1225 C1222 1.403 . S
C1225 C1226 1.392 . S
C1225 C1229 1.495 . S
C1226 C1225 1.392 . S
C1226 C1227 1.385 . S
C1226 C1228 1.478 . S
C1227 H1221 0.930 . S
C1227 C1223 1.400 . S
C1227 C1226 1.385 . S
C1228 C1226 1.478 . S
C1228 C1230 1.381 . S
C1228 C1234 1.383 . S
C1229 C1225 1.495 . S
C1229 H1235 0.959 . S
C1229 H1236 0.961 . S
C1229 H1237 0.960 . S
C1230 C1228 1.381 . S
C1230 C1231 1.394 . S
C1230 H1238 0.930 . S
C1231 C1230 1.394 . S
C1231 C1232 1.383 . S
C1231 H1239 0.929 . S
C1232 C1231 1.383 . S
C1232 C1233 1.377 . S
C1233 H1217 0.930 . S
C1233 C1232 1.377 . S
C1233 C1234 1.379 . S
C1234 H1218 0.931 . S
C1234 C1228 1.383 . S
C1234 C1233 1.379 . S
H1235 C1229 0.959 . S
H1236 C1229 0.961 . S
H1237 C1229 0.960 . S
H1238 C1230 0.930 . S
H1239 C1231 0.929 . S
H1240 C1248 0.929 . S
H1241 C1250 0.930 . S
H1242 C1252 0.930 . S
H1243 C1255 0.929 . S
H1244 C1258 0.930 . S
H1245 C1260 0.960 . S
H1246 C1260 0.960 . S
H1247 C1260 0.960 . S
C1248 H1240 0.929 . S
C1248 C1249 1.377 . S
C1248 C1250 1.384 . S
C1249 C1248 1.377 . S
C1249 C1255 1.390 . S
C1250 H1241 0.930 . S
C1250 C1248 1.384 . S
C1250 C1251 1.372 . S
C1251 C1250 1.372 . S
C1251 C1252 1.400 . S
C1251 C1256 1.490 . S
C1252 H1242 0.930 . S
C1252 C1251 1.400 . S
C1252 C1255 1.386 . S
H1253 C1269 0.930 . S
H1254 C1270 0.931 . S
C1255 H1243 0.929 . S
C1255 C1249 1.390 . S
C1255 C1252 1.386 . S
C1256 C1251 1.490 . S
C1256 C1258 1.395 . S
C1256 C1259 1.403 . S
H1257 C1263 0.930 . S
C1258 H1244 0.930 . S
C1258 C1256 1.395 . S
C1258 C1261 1.403 . S
C1259 C1256 1.403 . S
C1259 C1260 1.524 . S
C1259 C1263 1.400 . S
C1260 H1245 0.960 . S
C1260 H1246 0.960 . S
C1260 H1247 0.960 . S
C1260 C1259 1.524 . S
C1261 C1258 1.403 . S
C1261 C1262 1.392 . S
C1261 C1265 1.495 . S
C1262 C1261 1.392 . S
C1262 C1263 1.385 . S
C1262 C1264 1.478 . S
C1263 H1257 0.930 . S
C1263 C1259 1.400 . S
C1263 C1262 1.385 . S
C1264 C1262 1.478 . S
C1264 C1266 1.381 . S
C1264 C1270 1.383 . S
C1265 C1261 1.495 . S
C1265 H1271 0.959 . S
C1265 H1272 0.961 . S
C1265 H1273 0.960 . S
C1266 C1264 1.381 . S
C1266 C1267 1.394 . S
C1266 H1274 0.930 . S
C1267 C1266 1.394 . S
C1267 C1268 1.383 . S
C1267 H1275 0.929 . S
C1268 C1267 1.383 . S
C1268 C1269 1.377 . S
C1269 H1253 0.930 . S
C1269 C1268 1.377 . S
C1269 C1270 1.379 . S
C1270 H1254 0.931 . S
C1270 C1264 1.383 . S
C1270 C1269 1.379 . S
H1271 C1265 0.959 . S
H1272 C1265 0.961 . S
H1273 C1265 0.960 . S
H1274 C1266 0.930 . S
H1275 C1267 0.929 . S
H1276 C1284 0.929 . S
H1277 C1286 0.930 . S
H1278 C1288 0.930 . S
H1279 C1291 0.929 . S
H1280 C1294 0.930 . S
H1281 C1296 0.960 . S
H1282 C1296 0.960 . S
H1283 C1296 0.960 . S
C1284 H1276 0.929 . S
C1284 C1285 1.377 . S
C1284 C1286 1.384 . S
C1285 C1284 1.377 . S
C1285 C1291 1.390 . S
C1286 H1277 0.930 . S
C1286 C1284 1.384 . S
C1286 C1287 1.372 . S
C1287 C1286 1.372 . S
C1287 C1288 1.400 . S
C1287 C1292 1.490 . S
C1288 H1278 0.930 . S
C1288 C1287 1.400 . S
C1288 C1291 1.386 . S
H1289 C1305 0.930 . S
H1290 C1306 0.931 . S
C1291 H1279 0.929 . S
C1291 C1285 1.390 . S
C1291 C1288 1.386 . S
C1292 C1287 1.490 . S
C1292 C1294 1.395 . S
C1292 C1295 1.403 . S
H1293 C1299 0.930 . S
C1294 H1280 0.930 . S
C1294 C1292 1.395 . S
C1294 C1297 1.403 . S
C1295 C1292 1.403 . S
C1295 C1296 1.524 . S
C1295 C1299 1.400 . S
C1296 H1281 0.960 . S
C1296 H1282 0.960 . S
C1296 H1283 0.960 . S
C1296 C1295 1.524 . S
C1297 C1294 1.403 . S
C1297 C1298 1.392 . S
C1297 C1301 1.495 . S
C1298 C1297 1.392 . S
C1298 C1299 1.385 . S
C1298 C1300 1.478 . S
C1299 H1293 0.930 . S
C1299 C1295 1.400 . S
C1299 C1298 1.385 . S
C1300 C1298 1.478 . S
C1300 C1302 1.381 . S
C1300 C1306 1.383 . S
C1301 C1297 1.495 . S
C1301 H1307 0.959 . S
C1301 H1308 0.961 . S
C1301 H1309 0.960 . S
C1302 C1300 1.381 . S
C1302 C1303 1.394 . S
C1302 H1310 0.930 . S
C1303 C1302 1.394 . S
C1303 C1304 1.383 . S
C1303 H1311 0.929 . S
C1304 C1303 1.383 . S
C1304 C1305 1.377 . S
C1305 H1289 0.930 . S
C1305 C1304 1.377 . S
C1305 C1306 1.379 . S
C1306 H1290 0.931 . S
C1306 C1300 1.383 . S
C1306 C1305 1.379 . S
H1307 C1301 0.959 . S
H1308 C1301 0.961 . S
H1309 C1301 0.960 . S
H1310 C1302 0.930 . S
H1311 C1303 0.929 . S
C457 C1 1.183 . S
C476 C305 1.200 . S
C493 C67 1.188 . S
C512 C345 1.200 . S
C548 C370 2.298 . S
C529 C97 2.359 . S
C565 C133 2.399 . S
C584 C410 2.323 . S
C620 C341 1.790 . S
C601 C25 1.774 . S
C656 C301 1.780 . S
C637 C37 1.761 . S
C692 C432 1.596 . S
C673 C103 1.601 . S
C728 C392 1.561 . S
C709 C109 1.599 . S
C745 C31 1.280 . S
C764 C434 1.305 . S
C800 C351 2.071 . S
C781 C73 2.124 . S
C817 C139 2.152 . S
C836 C311 2.108 . S
C853 C61 1.275 . S
C872 C394 1.296 . S
C908 C314 1.169 . S
C889 C175 1.148 . S
C925 C181 1.160 . S
C944 C354 1.152 . S
C961 C247 2.396 . S
C980 C391 2.342 . S
C997 C277 2.386 . S
C1016 C431 2.319 . S
C1033 C145 1.710 . S
C1052 C352 1.777 . S
C1088 C312 1.786 . S
C1069 C211 1.763 . S
C1124 C421 1.586 . S
C1105 C217 1.588 . S
C1160 C381 1.615 . S
C1141 C283 1.613 . S
C1177 C169 1.229 . S
C1196 C425 1.278 . S
C1232 C330 2.084 . S
C1213 C241 2.141 . S
C1268 C290 2.089 . S
C1249 C253 2.144 . S
C1285 C205 1.285 . S
C1304 C385 1.269 . S
