# Generated by pormake.
# Topology ptr, (4,4)-cn, num edge types: 1
# Building blocks:
#     Node 0, Type 0, BuildingBlock: QUQFOY_clean_sbu_1, # of connection points: 4
#     Node 1, Type 0, BuildingBlock: QUQFOY_clean_sbu_1, # of connection points: 4
#     Node 2, Type 0, BuildingBlock: QUQFOY_clean_sbu_1, # of connection points: 4
#     Node 3, Type 0, BuildingBlock: QUQFOY_clean_sbu_1, # of connection points: 4
#     Node 4, Type 0, BuildingBlock: QUQFOY_clean_sbu_1, # of connection points: 4
#     Node 5, Type 0, BuildingBlock: QUQFOY_clean_sbu_1, # of connection points: 4
#     Node 6, Type 0, BuildingBlock: QUQFOY_clean_sbu_1, # of connection points: 4
#     Node 7, Type 0, BuildingBlock: QUQFOY_clean_sbu_1, # of connection points: 4
#     Node 8, Type 0, BuildingBlock: QUQFOY_clean_sbu_1, # of connection points: 4
#     Node 9, Type 0, BuildingBlock: QUQFOY_clean_sbu_1, # of connection points: 4
#     Node 10, Type 0, BuildingBlock: QUQFOY_clean_sbu_1, # of connection points: 4
#     Node 11, Type 0, BuildingBlock: QUQFOY_clean_sbu_1, # of connection points: 4
#     Node 12, Type 0, BuildingBlock: QUQFOY_clean_sbu_1, # of connection points: 4
#     Node 13, Type 0, BuildingBlock: QUQFOY_clean_sbu_1, # of connection points: 4
#     Node 14, Type 0, BuildingBlock: QUQFOY_clean_sbu_1, # of connection points: 4
#     Node 15, Type 0, BuildingBlock: QUQFOY_clean_sbu_1, # of connection points: 4
#     Node 16, Type 0, BuildingBlock: QUQFOY_clean_sbu_1, # of connection points: 4
#     Node 17, Type 0, BuildingBlock: QUQFOY_clean_sbu_1, # of connection points: 4
#     Node 18, Type 1, BuildingBlock: AZAVOO_clean_linker_0, # of connection points: 4
#     Node 19, Type 1, BuildingBlock: AZAVOO_clean_linker_0, # of connection points: 4
#     Node 20, Type 1, BuildingBlock: AZAVOO_clean_linker_0, # of connection points: 4
#     Node 21, Type 1, BuildingBlock: AZAVOO_clean_linker_0, # of connection points: 4
#     Node 22, Type 1, BuildingBlock: AZAVOO_clean_linker_0, # of connection points: 4
#     Node 23, Type 1, BuildingBlock: AZAVOO_clean_linker_0, # of connection points: 4
#     Node 24, Type 1, BuildingBlock: AZAVOO_clean_linker_0, # of connection points: 4
#     Node 25, Type 1, BuildingBlock: AZAVOO_clean_linker_0, # of connection points: 4
#     Node 26, Type 1, BuildingBlock: AZAVOO_clean_linker_0, # of connection points: 4
#     Node 27, Type 1, BuildingBlock: AZAVOO_clean_linker_0, # of connection points: 4
#     Node 28, Type 1, BuildingBlock: AZAVOO_clean_linker_0, # of connection points: 4
#     Node 29, Type 1, BuildingBlock: AZAVOO_clean_linker_0, # of connection points: 4
#     Node 30, Type 1, BuildingBlock: AZAVOO_clean_linker_0, # of connection points: 4
#     Node 31, Type 1, BuildingBlock: AZAVOO_clean_linker_0, # of connection points: 4
#     Node 32, Type 1, BuildingBlock: AZAVOO_clean_linker_0, # of connection points: 4
#     Node 33, Type 1, BuildingBlock: AZAVOO_clean_linker_0, # of connection points: 4
#     Node 34, Type 1, BuildingBlock: AZAVOO_clean_linker_0, # of connection points: 4
#     Node 35, Type 1, BuildingBlock: AZAVOO_clean_linker_0, # of connection points: 4
#     Edge 36, Type (0, 1), BuildingBlock: XIVTED_clean_linker_0, # of connection points: 2
#     Edge 37, Type (0, 1), BuildingBlock: XIVTED_clean_linker_0, # of connection points: 2
#     Edge 38, Type (0, 1), BuildingBlock: XIVTED_clean_linker_0, # of connection points: 2
#     Edge 39, Type (0, 1), BuildingBlock: XIVTED_clean_linker_0, # of connection points: 2
#     Edge 40, Type (0, 1), BuildingBlock: XIVTED_clean_linker_0, # of connection points: 2
#     Edge 41, Type (0, 1), BuildingBlock: XIVTED_clean_linker_0, # of connection points: 2
#     Edge 42, Type (0, 1), BuildingBlock: XIVTED_clean_linker_0, # of connection points: 2
#     Edge 43, Type (0, 1), BuildingBlock: XIVTED_clean_linker_0, # of connection points: 2
#     Edge 44, Type (0, 1), BuildingBlock: XIVTED_clean_linker_0, # of connection points: 2
#     Edge 45, Type (0, 1), BuildingBlock: XIVTED_clean_linker_0, # of connection points: 2
#     Edge 46, Type (0, 1), BuildingBlock: XIVTED_clean_linker_0, # of connection points: 2
#     Edge 47, Type (0, 1), BuildingBlock: XIVTED_clean_linker_0, # of connection points: 2
#     Edge 48, Type (0, 1), BuildingBlock: XIVTED_clean_linker_0, # of connection points: 2
#     Edge 49, Type (0, 1), BuildingBlock: XIVTED_clean_linker_0, # of connection points: 2
#     Edge 50, Type (0, 1), BuildingBlock: XIVTED_clean_linker_0, # of connection points: 2
#     Edge 51, Type (0, 1), BuildingBlock: XIVTED_clean_linker_0, # of connection points: 2
#     Edge 52, Type (0, 1), BuildingBlock: XIVTED_clean_linker_0, # of connection points: 2
#     Edge 53, Type (0, 1), BuildingBlock: XIVTED_clean_linker_0, # of connection points: 2
#     Edge 54, Type (0, 1), BuildingBlock: XIVTED_clean_linker_0, # of connection points: 2
#     Edge 55, Type (0, 1), BuildingBlock: XIVTED_clean_linker_0, # of connection points: 2
#     Edge 56, Type (0, 1), BuildingBlock: XIVTED_clean_linker_0, # of connection points: 2
#     Edge 57, Type (0, 1), BuildingBlock: XIVTED_clean_linker_0, # of connection points: 2
#     Edge 58, Type (0, 1), BuildingBlock: XIVTED_clean_linker_0, # of connection points: 2
#     Edge 59, Type (0, 1), BuildingBlock: XIVTED_clean_linker_0, # of connection points: 2
#     Edge 60, Type (0, 1), BuildingBlock: XIVTED_clean_linker_0, # of connection points: 2
#     Edge 61, Type (0, 1), BuildingBlock: XIVTED_clean_linker_0, # of connection points: 2
#     Edge 62, Type (0, 1), BuildingBlock: XIVTED_clean_linker_0, # of connection points: 2
#     Edge 63, Type (0, 1), BuildingBlock: XIVTED_clean_linker_0, # of connection points: 2
#     Edge 64, Type (0, 1), BuildingBlock: XIVTED_clean_linker_0, # of connection points: 2
#     Edge 65, Type (0, 1), BuildingBlock: XIVTED_clean_linker_0, # of connection points: 2
#     Edge 66, Type (0, 1), BuildingBlock: XIVTED_clean_linker_0, # of connection points: 2
#     Edge 67, Type (0, 1), BuildingBlock: XIVTED_clean_linker_0, # of connection points: 2
#     Edge 68, Type (0, 1), BuildingBlock: XIVTED_clean_linker_0, # of connection points: 2
#     Edge 69, Type (0, 1), BuildingBlock: XIVTED_clean_linker_0, # of connection points: 2
#     Edge 70, Type (0, 1), BuildingBlock: XIVTED_clean_linker_0, # of connection points: 2
#     Edge 71, Type (0, 1), BuildingBlock: XIVTED_clean_linker_0, # of connection points: 2
#     Edge 72, Type (0, 1), BuildingBlock: XIVTED_clean_linker_0, # of connection points: 2
#     Edge 73, Type (0, 1), BuildingBlock: XIVTED_clean_linker_0, # of connection points: 2
#     Edge 74, Type (0, 1), BuildingBlock: XIVTED_clean_linker_0, # of connection points: 2
#     Edge 75, Type (0, 1), BuildingBlock: XIVTED_clean_linker_0, # of connection points: 2
#     Edge 76, Type (0, 1), BuildingBlock: XIVTED_clean_linker_0, # of connection points: 2
#     Edge 77, Type (0, 1), BuildingBlock: XIVTED_clean_linker_0, # of connection points: 2
#     Edge 78, Type (0, 1), BuildingBlock: XIVTED_clean_linker_0, # of connection points: 2
#     Edge 79, Type (0, 1), BuildingBlock: XIVTED_clean_linker_0, # of connection points: 2
#     Edge 80, Type (0, 1), BuildingBlock: XIVTED_clean_linker_0, # of connection points: 2
#     Edge 81, Type (0, 1), BuildingBlock: XIVTED_clean_linker_0, # of connection points: 2
#     Edge 82, Type (0, 1), BuildingBlock: XIVTED_clean_linker_0, # of connection points: 2
#     Edge 83, Type (0, 1), BuildingBlock: XIVTED_clean_linker_0, # of connection points: 2
#     Edge 84, Type (0, 1), BuildingBlock: XIVTED_clean_linker_0, # of connection points: 2
#     Edge 85, Type (0, 1), BuildingBlock: XIVTED_clean_linker_0, # of connection points: 2
#     Edge 86, Type (0, 1), BuildingBlock: XIVTED_clean_linker_0, # of connection points: 2
#     Edge 87, Type (0, 1), BuildingBlock: XIVTED_clean_linker_0, # of connection points: 2
#     Edge 88, Type (0, 1), BuildingBlock: XIVTED_clean_linker_0, # of connection points: 2
#     Edge 89, Type (0, 1), BuildingBlock: XIVTED_clean_linker_0, # of connection points: 2
#     Edge 90, Type (0, 1), BuildingBlock: XIVTED_clean_linker_0, # of connection points: 2
#     Edge 91, Type (0, 1), BuildingBlock: XIVTED_clean_linker_0, # of connection points: 2
#     Edge 92, Type (0, 1), BuildingBlock: XIVTED_clean_linker_0, # of connection points: 2
#     Edge 93, Type (0, 1), BuildingBlock: XIVTED_clean_linker_0, # of connection points: 2
#     Edge 94, Type (0, 1), BuildingBlock: XIVTED_clean_linker_0, # of connection points: 2
#     Edge 95, Type (0, 1), BuildingBlock: XIVTED_clean_linker_0, # of connection points: 2
#     Edge 96, Type (0, 1), BuildingBlock: XIVTED_clean_linker_0, # of connection points: 2
#     Edge 97, Type (0, 1), BuildingBlock: XIVTED_clean_linker_0, # of connection points: 2
#     Edge 98, Type (0, 1), BuildingBlock: XIVTED_clean_linker_0, # of connection points: 2
#     Edge 99, Type (0, 1), BuildingBlock: XIVTED_clean_linker_0, # of connection points: 2
#     Edge 100, Type (0, 1), BuildingBlock: XIVTED_clean_linker_0, # of connection points: 2
#     Edge 101, Type (0, 1), BuildingBlock: XIVTED_clean_linker_0, # of connection points: 2
#     Edge 102, Type (0, 1), BuildingBlock: XIVTED_clean_linker_0, # of connection points: 2
#     Edge 103, Type (0, 1), BuildingBlock: XIVTED_clean_linker_0, # of connection points: 2
#     Edge 104, Type (0, 1), BuildingBlock: XIVTED_clean_linker_0, # of connection points: 2
#     Edge 105, Type (0, 1), BuildingBlock: XIVTED_clean_linker_0, # of connection points: 2
#     Edge 106, Type (0, 1), BuildingBlock: XIVTED_clean_linker_0, # of connection points: 2
#     Edge 107, Type (0, 1), BuildingBlock: XIVTED_clean_linker_0, # of connection points: 2
# Relax obj value: 0.049
# Max RMSD: 0.181
# Mean RMSD: 0.120
data_MOF--net-ptr--node1-QUQFOY_clean_sbu_1--node2-AZAVOO_clean_linker_0--edge1-XIVTED_clean_linker_0
_symmetry_space_group_name_H-M    P1
_symmetry_Int_Tables_number       1
_symmetry_cell_setting            triclinic
loop_
_symmetry_equiv_pos_as_xyz
'x, y, z'
_cell_length_a     84.387179
_cell_length_b     82.735706
_cell_length_c     71.0709
_cell_angle_alpha  92.69916
_cell_angle_beta   92.208044
_cell_angle_gamma 120.03377
loop_
_atom_site_label
_atom_site_type_symbol
_atom_site_fract_x
_atom_site_fract_y
_atom_site_fract_z
_atom_type_partial_charge
O0 O 0.01926 0.39412 0.04331 0.0
Cd1 Cd 0.02719 0.38169 0.02288 0.0
Cd2 Cd 0.99136 0.36091 0.01448 0.0
O3 O 0.98976 0.37318 0.03987 0.0
O4 O 0.05198 0.38666 0.03179 0.0
O5 O 0.02738 0.35829 0.02898 0.0
C6 C 0.04464 0.36899 0.03396 0.0
C7 C 0.97216 0.32882 0.00686 0.0
C8 C 0.00311 0.38769 0.0486 0.0
C9 C 0.01416 0.38772 0.98613 0.0
O10 O 0.99826 0.37697 0.99153 0.0
O11 O 0.02834 0.39069 0.99608 0.0
O12 O 0.96593 0.34021 0.00727 0.0
O13 O 0.9894 0.33556 0.01148 0.0
O14 O 0.60912 0.60397 0.08563 0.0
Cd15 Cd 0.61817 0.62198 0.06432 0.0
Cd16 Cd 0.6344 0.60201 0.05577 0.0
O17 O 0.62434 0.58915 0.08039 0.0
O18 O 0.61428 0.64275 0.07335 0.0
O19 O 0.6418 0.64658 0.06933 0.0
C20 C 0.63186 0.65355 0.07469 0.0
C21 C 0.66496 0.61506 0.0487 0.0
C22 C 0.61351 0.59198 0.09014 0.0
C23 C 0.60631 0.60017 0.02686 0.0
O24 O 0.61651 0.59375 0.03212 0.0
O25 O 0.60526 0.61239 0.03743 0.0
O26 O 0.65414 0.59716 0.048 0.0
O27 O 0.65871 0.62564 0.05469 0.0
O28 O 0.40138 0.00848 0.99664 0.0
Cd29 Cd 0.39124 0.0148 0.02011 0.0
Cd30 Cd 0.37393 0.97758 0.02054 0.0
O31 O 0.38282 0.97789 0.99362 0.0
O32 O 0.39626 0.04084 0.01718 0.0
O33 O 0.36827 0.01629 0.01622 0.0
C34 C 0.37877 0.03399 0.01471 0.0
C35 C 0.34335 0.96289 0.028 0.0
C36 C 0.3955 0.99275 0.98742 0.0
C37 C 0.40215 0.9998 0.05238 0.0
O38 O 0.39271 0.98393 0.04316 0.0
O39 O 0.40228 0.01415 0.04646 0.0
O40 O 0.35132 0.9533 0.02454 0.0
O41 O 0.35249 0.98067 0.02613 0.0
O42 O 0.98537 0.60746 0.02061 0.0
Cd43 Cd 0.97798 0.61998 0.04164 0.0
Cd44 Cd 0.01367 0.63931 0.04878 0.0
O45 O 0.01489 0.62836 0.02253 0.0
O46 O 0.95337 0.61568 0.03291 0.0
O47 O 0.97831 0.64378 0.03616 0.0
C48 C 0.96104 0.63342 0.03102 0.0
C49 C 0.03306 0.67073 0.05915 0.0
C50 C 0.00116 0.61381 0.01434 0.0
C51 C 0.991 0.61148 0.07649 0.0
O52 O 0.00661 0.62139 0.0701 0.0
O53 O 0.9768 0.61032 0.06823 0.0
O54 O 0.03905 0.65917 0.0575 0.0
O55 O 0.01607 0.66468 0.05389 0.0
O56 O 0.39206 0.39383 0.98043 0.0
Cd57 Cd 0.38217 0.37651 0.00222 0.0
Cd58 Cd 0.3673 0.3979 0.00954 0.0
O59 O 0.37719 0.40923 0.98422 0.0
O60 O 0.38613 0.35527 0.99522 0.0
O61 O 0.35855 0.3519 0.99702 0.0
C62 C 0.36855 0.34455 0.99331 0.0
C63 C 0.3366 0.38355 0.01639 0.0
C64 C 0.388 0.40584 0.97506 0.0
C65 C 0.39498 0.40021 0.03885 0.0
O66 O 0.3856 0.40735 0.03299 0.0
O67 O 0.39483 0.38684 0.02909 0.0
O68 O 0.34649 0.40153 0.01632 0.0
O69 O 0.34389 0.37364 0.0114 0.0
O70 O 0.60357 0.99512 0.07254 0.0
Cd71 Cd 0.61242 0.98833 0.04834 0.0
Cd72 Cd 0.62944 0.02552 0.04693 0.0
O73 O 0.62061 0.0259 0.07374 0.0
O74 O 0.60812 0.96265 0.05159 0.0
O75 O 0.63579 0.98741 0.05076 0.0
C76 C 0.62569 0.96978 0.05295 0.0
C77 C 0.65993 0.04167 0.03926 0.0
C78 C 0.609 0.01111 0.08099 0.0
C79 C 0.60047 0.00214 0.01582 0.0
O80 O 0.61068 0.01832 0.02415 0.0
O81 O 0.59981 0.98784 0.02253 0.0
O82 O 0.65088 0.05025 0.04203 0.0
O83 O 0.65199 0.02409 0.04209 0.0
O84 O 0.68088 0.72787 0.37936 0.0
Cd85 Cd 0.69028 0.71646 0.35933 0.0
Cd86 Cd 0.6546 0.69643 0.34921 0.0
O87 O 0.65146 0.70693 0.37487 0.0
O88 O 0.71481 0.7225 0.37039 0.0
O89 O 0.69153 0.69348 0.36519 0.0
C90 C 0.70821 0.70482 0.37187 0.0
C91 C 0.63493 0.66511 0.33845 0.0
C92 C 0.66454 0.72121 0.38416 0.0
C93 C 0.67953 0.725 0.32302 0.0
O94 O 0.66337 0.71447 0.32791 0.0
O95 O 0.69324 0.72674 0.33293 0.0
O96 O 0.62945 0.67711 0.3392 0.0
O97 O 0.6516 0.67069 0.34467 0.0
O98 O 0.27388 0.93947 0.41868 0.0
Cd99 Cd 0.2852 0.95806 0.39808 0.0
Cd100 Cd 0.29881 0.93574 0.39047 0.0
O101 O 0.28957 0.92484 0.41607 0.0
O102 O 0.28081 0.97867 0.40647 0.0
O103 O 0.30863 0.98268 0.40469 0.0
C104 C 0.29833 0.98953 0.40904 0.0
C105 C 0.32876 0.94704 0.38192 0.0
C106 C 0.27805 0.92767 0.4245 0.0
C107 C 0.27155 0.93498 0.36153 0.0
O108 O 0.27957 0.92658 0.36779 0.0
O109 O 0.27326 0.94934 0.37081 0.0
O110 O 0.31745 0.92933 0.38239 0.0
O111 O 0.32338 0.9585 0.3875 0.0
O112 O 0.06946 0.33763 0.32634 0.0
Cd113 Cd 0.06123 0.34535 0.35054 0.0
Cd114 Cd 0.04391 0.30807 0.3537 0.0
O115 O 0.05214 0.30696 0.32681 0.0
O116 O 0.06513 0.37097 0.34729 0.0
O117 O 0.03769 0.34577 0.34778 0.0
C118 C 0.04752 0.36348 0.34584 0.0
C119 C 0.01342 0.29297 0.36147 0.0
C120 C 0.06355 0.32121 0.3187 0.0
C121 C 0.07333 0.33207 0.38383 0.0
O122 O 0.06311 0.31563 0.37608 0.0
O123 O 0.07373 0.34604 0.37659 0.0
O124 O 0.02182 0.28372 0.35863 0.0
O125 O 0.02211 0.31063 0.35896 0.0
O126 O 0.6535 0.93621 0.35293 0.0
Cd127 Cd 0.64485 0.94819 0.37323 0.0
Cd128 Cd 0.68058 0.96876 0.38223 0.0
O129 O 0.6827 0.95804 0.35623 0.0
O130 O 0.62002 0.94249 0.36352 0.0
O131 O 0.64399 0.97124 0.36699 0.0
C132 C 0.62692 0.96012 0.36143 0.0
C133 C 0.70037 0.00041 0.39168 0.0
C134 C 0.66966 0.94334 0.34747 0.0
C135 C 0.6572 0.9407 0.40936 0.0
O136 O 0.67313 0.95103 0.40382 0.0
O137 O 0.64318 0.93892 0.40003 0.0
O138 O 0.70612 0.98864 0.39043 0.0
O139 O 0.68326 0.99432 0.38702 0.0
O140 O 0.06116 0.72915 0.31882 0.0
Cd141 Cd 0.04871 0.7103 0.33897 0.0
Cd142 Cd 0.0352 0.73262 0.34563 0.0
O143 O 0.04515 0.7435 0.32016 0.0
O144 O 0.05428 0.69015 0.3322 0.0
O145 O 0.02605 0.68538 0.331 0.0
C146 C 0.03697 0.67891 0.32839 0.0
C147 C 0.00452 0.71815 0.35268 0.0
C148 C 0.05715 0.74088 0.31251 0.0
C149 C 0.0611 0.73339 0.37571 0.0
O150 O 0.05387 0.74232 0.36889 0.0
O151 O 0.0591 0.71878 0.3667 0.0
O152 O 0.01433 0.73613 0.3524 0.0
O153 O 0.0119 0.70828 0.3478 0.0
O154 O 0.2671 0.3259 0.40513 0.0
Cd155 Cd 0.27594 0.31867 0.38117 0.0
Cd156 Cd 0.29299 0.35589 0.37843 0.0
O157 O 0.28398 0.35663 0.40508 0.0
O158 O 0.27259 0.29334 0.3846 0.0
O159 O 0.29979 0.3188 0.38383 0.0
C160 C 0.29023 0.30109 0.3859 0.0
C161 C 0.32365 0.37233 0.3713 0.0
C162 C 0.27253 0.34216 0.4129 0.0
C163 C 0.26409 0.33158 0.34766 0.0
O164 O 0.27439 0.34803 0.35536 0.0
O165 O 0.2633 0.31757 0.35518 0.0
O166 O 0.3144 0.38075 0.37368 0.0
O167 O 0.31573 0.35474 0.37407 0.0
O168 O 0.34794 0.06009 0.71232 0.0
Cd169 Cd 0.35909 0.05108 0.69202 0.0
Cd170 Cd 0.32333 0.03198 0.67821 0.0
O171 O 0.31865 0.04309 0.70267 0.0
O172 O 0.38323 0.0576 0.70455 0.0
O173 O 0.36132 0.02839 0.69664 0.0
C174 C 0.37735 0.03992 0.70478 0.0
C175 C 0.30368 0.0006 0.66791 0.0
C176 C 0.33126 0.05494 0.71455 0.0
C177 C 0.35139 0.06088 0.65436 0.0
O178 O 0.33469 0.04926 0.65671 0.0
O179 O 0.36398 0.0636 0.66669 0.0
O180 O 0.29871 0.01294 0.66673 0.0
O181 O 0.3198 0.00594 0.67571 0.0
O182 O 0.94434 0.26978 0.75061 0.0
Cd183 Cd 0.95342 0.28758 0.72912 0.0
Cd184 Cd 0.96912 0.2671 0.72128 0.0
O185 O 0.96031 0.25558 0.74675 0.0
O186 O 0.94748 0.3071 0.73762 0.0
O187 O 0.97587 0.3132 0.73442 0.0
C188 C 0.96484 0.31894 0.73937 0.0
C189 C 0.99972 0.28316 0.71404 0.0
C190 C 0.94912 0.2583 0.75597 0.0
C191 C 0.94051 0.26381 0.6926 0.0
O192 O 0.95008 0.25684 0.69839 0.0
O193 O 0.94078 0.27732 0.70223 0.0
O194 O 0.99077 0.26513 0.71412 0.0
O195 O 0.9915 0.29215 0.71903 0.0
O196 O 0.73681 0.67279 0.66226 0.0
Cd197 Cd 0.7276 0.68005 0.68585 0.0
Cd198 Cd 0.70943 0.64269 0.6877 0.0
O199 O 0.71859 0.64216 0.66096 0.0
O200 O 0.73245 0.70592 0.68235 0.0
O201 O 0.70453 0.68144 0.68267 0.0
C202 C 0.71493 0.69907 0.68064 0.0
C203 C 0.67865 0.62755 0.69458 0.0
C204 C 0.73088 0.65668 0.65387 0.0
C205 C 0.73802 0.66588 0.71925 0.0
O206 O 0.7276 0.64963 0.71111 0.0
O207 O 0.73936 0.68025 0.71201 0.0
O208 O 0.68706 0.61829 0.69189 0.0
O209 O 0.68746 0.64524 0.6922 0.0
O210 O 0.32188 0.27046 0.68475 0.0
Cd211 Cd 0.31043 0.28108 0.70305 0.0
Cd212 Cd 0.34562 0.30313 0.71625 0.0
O213 O 0.35073 0.29215 0.69194 0.0
O214 O 0.28687 0.27544 0.68969 0.0
O215 O 0.30981 0.30432 0.69715 0.0
C216 C 0.29366 0.29325 0.68901 0.0
C217 C 0.36547 0.33479 0.72582 0.0
C218 C 0.33876 0.27774 0.68183 0.0
C219 C 0.31893 0.27427 0.74142 0.0
O220 O 0.33539 0.28607 0.73831 0.0
O221 O 0.30586 0.27069 0.72934 0.0
O222 O 0.37059 0.32256 0.72674 0.0
O223 O 0.34898 0.32916 0.71897 0.0
O224 O 0.72712 0.06108 0.64822 0.0
Cd225 Cd 0.71698 0.04381 0.67011 0.0
Cd226 Cd 0.70401 0.06669 0.67786 0.0
O227 O 0.71275 0.07699 0.65195 0.0
O228 O 0.72063 0.02244 0.66294 0.0
O229 O 0.69317 0.01926 0.66506 0.0
C230 C 0.70305 0.01179 0.66125 0.0
C231 C 0.67426 0.05528 0.68707 0.0
C232 C 0.72325 0.07319 0.64272 0.0
C233 C 0.73211 0.06823 0.70602 0.0
O234 O 0.72369 0.07633 0.70007 0.0
O235 O 0.73025 0.05377 0.69679 0.0
O236 O 0.68539 0.07299 0.68629 0.0
O237 O 0.67967 0.04387 0.68138 0.0
O238 O 0.93154 0.66136 0.73904 0.0
Cd239 Cd 0.93878 0.65278 0.71472 0.0
Cd240 Cd 0.95651 0.68973 0.7113 0.0
O241 O 0.94875 0.69196 0.73817 0.0
O242 O 0.93318 0.62688 0.71891 0.0
O243 O 0.96136 0.65036 0.7166 0.0
C244 C 0.95058 0.63301 0.71955 0.0
C245 C 0.98674 0.70537 0.7029 0.0
C246 C 0.93753 0.67782 0.74654 0.0
C247 C 0.92646 0.66546 0.68147 0.0
O248 O 0.93731 0.68192 0.68884 0.0
O249 O 0.92545 0.6514 0.68907 0.0
O250 O 0.97767 0.714 0.70515 0.0
O251 O 0.97897 0.68801 0.70662 0.0
H252 H 0.16122 0.35049 0.03158 0.0
H253 H 0.26847 0.3027 0.17623 0.0
H254 H 0.15642 0.35083 0.14312 0.0
H255 H 0.1347 0.3572 0.12613 0.0
H256 H 0.10313 0.29904 0.10501 0.0
H257 H 0.12469 0.2927 0.12273 0.0
H258 H 0.18182 0.35299 0.11167 0.0
H259 H 0.17613 0.35767 0.07888 0.0
H260 H 0.14564 0.29764 0.06608 0.0
H261 H 0.15144 0.29321 0.09894 0.0
H262 H 0.21773 0.35305 0.13284 0.0
H263 H 0.24127 0.36216 0.11019 0.0
H264 H 0.21071 0.30693 0.0812 0.0
H265 H 0.18732 0.29781 0.10432 0.0
H266 H 0.21901 0.34527 0.17438 0.0
H267 H 0.24687 0.34518 0.18508 0.0
H268 H 0.2261 0.29096 0.155 0.0
H269 H 0.19821 0.29114 0.14459 0.0
H270 H 0.18661 0.344 0.19392 0.0
H271 H 0.19807 0.34526 0.22626 0.0
H272 H 0.19051 0.28986 0.21543 0.0
H273 H 0.17792 0.28832 0.18336 0.0
H274 H 0.15968 0.34623 0.17763 0.0
H275 H 0.14035 0.34535 0.20263 0.0
H276 H 0.11341 0.28486 0.19876 0.0
H277 H 0.13351 0.28608 0.17421 0.0
O278 O 0.1634 0.34833 0.04444 0.0
O279 O 0.14794 0.31738 0.03858 0.0
O280 O 0.26764 0.33098 0.18744 0.0
O281 O 0.25761 0.30312 0.17218 0.0
C282 C 0.15751 0.31874 0.14079 0.0
C283 C 0.17011 0.32002 0.12757 0.0
C284 C 0.18623 0.32001 0.13353 0.0
C285 C 0.18946 0.31801 0.15268 0.0
C286 C 0.17679 0.31652 0.16598 0.0
C287 C 0.16085 0.31705 0.16003 0.0
C288 C 0.142 0.32127 0.13438 0.0
C289 C 0.14441 0.33932 0.13545 0.0
C290 C 0.13216 0.34299 0.12543 0.0
C291 C 0.11735 0.3287 0.11392 0.0
C292 C 0.11432 0.31034 0.11381 0.0
C293 C 0.12658 0.30667 0.12396 0.0
C294 C 0.16705 0.32278 0.10758 0.0
C295 C 0.17397 0.3409 0.10172 0.0
C296 C 0.17068 0.34351 0.083 0.0
C297 C 0.16042 0.32803 0.06985 0.0
C298 C 0.15359 0.30987 0.07584 0.0
C299 C 0.15689 0.30729 0.09456 0.0
C300 C 0.20086 0.32478 0.12023 0.0
C301 C 0.21622 0.34286 0.1217 0.0
C302 C 0.22954 0.34809 0.10863 0.0
C303 C 0.22778 0.33533 0.09375 0.0
C304 C 0.21252 0.31705 0.09254 0.0
C305 C 0.19913 0.31183 0.10566 0.0
C306 C 0.20654 0.31814 0.15886 0.0
C307 C 0.22047 0.33336 0.1702 0.0
C308 C 0.23639 0.33329 0.17624 0.0
C309 C 0.23869 0.31803 0.17093 0.0
C310 C 0.22476 0.3029 0.15938 0.0
C311 C 0.20883 0.30297 0.15339 0.0
C312 C 0.18118 0.31598 0.18633 0.0
C313 C 0.18679 0.33186 0.19873 0.0
C314 C 0.19369 0.33268 0.21713 0.0
C315 C 0.19551 0.31777 0.22343 0.0
C316 C 0.18917 0.30154 0.21118 0.0
C317 C 0.18202 0.30064 0.19281 0.0
C318 C 0.14793 0.31623 0.17406 0.0
C319 C 0.14945 0.33279 0.18205 0.0
C320 C 0.13829 0.33222 0.19631 0.0
C321 C 0.12519 0.31501 0.20279 0.0
C322 C 0.12348 0.29838 0.19439 0.0
C323 C 0.13482 0.29901 0.18023 0.0
C324 C 0.15684 0.33084 0.05001 0.0
C325 C 0.25554 0.31784 0.17738 0.0
H326 H 0.67682 0.81406 0.03994 0.0
H327 H 0.71197 0.96638 0.20501 0.0
H328 H 0.66012 0.80768 0.14969 0.0
H329 H 0.65209 0.77627 0.13782 0.0
H330 H 0.70971 0.79399 0.13658 0.0
H331 H 0.71759 0.82585 0.14809 0.0
H332 H 0.66437 0.82424 0.11885 0.0
H333 H 0.66416 0.81597 0.08534 0.0
H334 H 0.72203 0.85682 0.08632 0.0
H335 H 0.72208 0.8648 0.11994 0.0
H336 H 0.66189 0.85318 0.12746 0.0
H337 H 0.65176 0.86953 0.10718 0.0
H338 H 0.70447 0.9201 0.11846 0.0
H339 H 0.71504 0.90296 0.13759 0.0
H340 H 0.66674 0.87749 0.16898 0.0
H341 H 0.66643 0.90575 0.18029 0.0
H342 H 0.72539 0.93457 0.19144 0.0
H343 H 0.72548 0.90626 0.17996 0.0
H344 H 0.66613 0.85036 0.19934 0.0
H345 H 0.66356 0.86276 0.23014 0.0
H346 H 0.72276 0.89523 0.23851 0.0
H347 H 0.72508 0.88299 0.20725 0.0
H348 H 0.66497 0.81275 0.18536 0.0
H349 H 0.66302 0.79172 0.20919 0.0
H350 H 0.72147 0.82622 0.22317 0.0
H351 H 0.72334 0.84653 0.1983 0.0
O352 O 0.67724 0.81749 0.05322 0.0
O353 O 0.70699 0.83867 0.05447 0.0
O354 O 0.68142 0.93969 0.19414 0.0
O355 O 0.7117 0.95508 0.20028 0.0
C356 C 0.69364 0.83816 0.15594 0.0
C357 C 0.69363 0.85002 0.14225 0.0
C358 C 0.69416 0.86689 0.14793 0.0
C359 C 0.69621 0.87258 0.16736 0.0
C360 C 0.69681 0.86101 0.18105 0.0
C361 C 0.69531 0.8437 0.17538 0.0
C362 C 0.68941 0.81896 0.14984 0.0
C363 C 0.67102 0.80474 0.14703 0.0
C364 C 0.66647 0.78675 0.14033 0.0
C365 C 0.68026 0.78251 0.1364 0.0
C366 C 0.69877 0.79681 0.13936 0.0
C367 C 0.70331 0.81495 0.14605 0.0
C368 C 0.6933 0.84494 0.12188 0.0
C369 C 0.67704 0.83124 0.11187 0.0
C370 C 0.67693 0.82662 0.09269 0.0
C371 C 0.6931 0.83569 0.08315 0.0
C372 C 0.70936 0.84953 0.09324 0.0
C373 C 0.70943 0.85412 0.11243 0.0
C374 C 0.68928 0.87677 0.1339 0.0
C375 C 0.6715 0.8676 0.12505 0.0
C376 C 0.6656 0.87714 0.11373 0.0
C377 C 0.67714 0.8963 0.11144 0.0
C378 C 0.69523 0.90534 0.11979 0.0
C379 C 0.70127 0.89561 0.13083 0.0
C380 C 0.69613 0.88991 0.17359 0.0
C381 C 0.67956 0.88998 0.17375 0.0
C382 C 0.67944 0.90611 0.18027 0.0
C383 C 0.6959 0.92243 0.18679 0.0
C384 C 0.71248 0.92227 0.18652 0.0
C385 C 0.71258 0.90614 0.17996 0.0
C386 C 0.69577 0.86575 0.20115 0.0
C387 C 0.67853 0.85979 0.20806 0.0
C388 C 0.67712 0.8669 0.2257 0.0
C389 C 0.69296 0.8801 0.23681 0.0
C390 C 0.71028 0.88531 0.2302 0.0
C391 C 0.71167 0.87819 0.21247 0.0
C392 C 0.69434 0.83093 0.18985 0.0
C393 C 0.67739 0.81553 0.19331 0.0
C394 C 0.6763 0.8037 0.20718 0.0
C395 C 0.69208 0.80726 0.21825 0.0
C396 C 0.70907 0.82283 0.21476 0.0
C397 C 0.71017 0.83454 0.20066 0.0
C398 C 0.69294 0.83077 0.06276 0.0
C399 C 0.69583 0.93954 0.19393 0.0
H400 H 0.14531 0.84004 0.03322 0.0
H401 H 0.29214 0.9589 0.19249 0.0
H402 H 0.12813 0.84 0.13911 0.0
H403 H 0.10281 0.80944 0.12596 0.0
H404 H 0.13797 0.78573 0.1332 0.0
H405 H 0.16266 0.81591 0.14673 0.0
H406 H 0.15996 0.87195 0.11144 0.0
H407 H 0.15188 0.86214 0.07774 0.0
H408 H 0.17191 0.82347 0.08301 0.0
H409 H 0.18002 0.83352 0.11665 0.0
H410 H 0.20136 0.90843 0.12629 0.0
H411 H 0.22447 0.9233 0.10323 0.0
H412 H 0.23714 0.87882 0.10588 0.0
H413 H 0.21381 0.86399 0.12835 0.0
H414 H 0.20136 0.91599 0.17392 0.0
H415 H 0.2303 0.94419 0.18493 0.0
H416 H 0.2592 0.914 0.17544 0.0
H417 H 0.23014 0.88588 0.16463 0.0
H418 H 0.17592 0.89175 0.20081 0.0
H419 H 0.18755 0.90114 0.23405 0.0
H420 H 0.2177 0.87177 0.22845 0.0
H421 H 0.20562 0.86213 0.19559 0.0
H422 H 0.14278 0.86002 0.18873 0.0
H423 H 0.1233 0.84121 0.21297 0.0
H424 H 0.14487 0.80375 0.20625 0.0
H425 H 0.1649 0.82323 0.1829 0.0
O426 O 0.14864 0.84374 0.04655 0.0
O427 O 0.15902 0.824 0.05002 0.0
O428 O 0.265 0.96284 0.19287 0.0
O429 O 0.28051 0.94797 0.18817 0.0
C430 C 0.16307 0.84862 0.15029 0.0
C431 C 0.17518 0.85935 0.13683 0.0
C432 C 0.19188 0.87575 0.14271 0.0
C433 C 0.19609 0.88189 0.16206 0.0
C434 C 0.18389 0.8713 0.17556 0.0
C435 C 0.16736 0.85462 0.1697 0.0
C436 C 0.14709 0.83003 0.14406 0.0
C437 C 0.13013 0.82804 0.13814 0.0
C438 C 0.11578 0.81064 0.13048 0.0
C439 C 0.11828 0.79504 0.12858 0.0
C440 C 0.13533 0.79722 0.13482 0.0
C441 C 0.14952 0.8145 0.14251 0.0
C442 C 0.17043 0.85334 0.11643 0.0
C443 C 0.16257 0.86136 0.10525 0.0
C444 C 0.15798 0.85572 0.08603 0.0
C445 C 0.1612 0.84198 0.07768 0.0
C446 C 0.1692 0.83405 0.08899 0.0
C447 C 0.1738 0.83972 0.1082 0.0
C448 C 0.20586 0.88509 0.12885 0.0
C449 C 0.20912 0.90193 0.12176 0.0
C450 C 0.22239 0.91043 0.10868 0.0
C451 C 0.23263 0.90221 0.10253 0.0
C452 C 0.22929 0.88536 0.10988 0.0
C453 C 0.21604 0.8769 0.12284 0.0
C454 C 0.21372 0.899 0.16837 0.0
C455 C 0.21398 0.91554 0.17421 0.0
C456 C 0.23051 0.9316 0.18049 0.0
C457 C 0.24708 0.93136 0.18103 0.0
C458 C 0.24672 0.91469 0.17516 0.0
C459 C 0.23016 0.89863 0.16893 0.0
C460 C 0.18987 0.87619 0.19592 0.0
C461 C 0.18485 0.8872 0.20692 0.0
C462 C 0.19163 0.89265 0.22582 0.0
C463 C 0.20354 0.88718 0.23396 0.0
C464 C 0.20831 0.87596 0.2228 0.0
C465 C 0.20151 0.87051 0.204 0.0
C466 C 0.15514 0.8429 0.18398 0.0
C467 C 0.14326 0.84774 0.19257 0.0
C468 C 0.13204 0.83688 0.20632 0.0
C469 C 0.13244 0.82089 0.21166 0.0
C470 C 0.14435 0.81609 0.20282 0.0
C471 C 0.15567 0.82708 0.18926 0.0
C472 C 0.15625 0.83598 0.05727 0.0
C473 C 0.26469 0.94837 0.18772 0.0
H474 H 0.30249 0.16693 0.02392 0.0
H475 H 0.33231 0.05579 0.86397 0.0
H476 H 0.28647 0.17113 0.92564 0.0
H477 H 0.29455 0.20193 0.94057 0.0
H478 H 0.34681 0.22641 0.91568 0.0
H479 H 0.33898 0.19569 0.90158 0.0
H480 H 0.28511 0.13413 0.94592 0.0
H481 H 0.28735 0.1435 0.97954 0.0
H482 H 0.3416 0.19056 0.97408 0.0
H483 H 0.33929 0.18088 0.94057 0.0
H484 H 0.29027 0.09862 0.92497 0.0
H485 H 0.30063 0.082 0.94507 0.0
H486 H 0.35273 0.13313 0.95732 0.0
H487 H 0.34277 0.14904 0.9361 0.0
H488 H 0.28098 0.0942 0.88332 0.0
H489 H 0.2832 0.06707 0.87189 0.0
H490 H 0.3422 0.09954 0.88251 0.0
H491 H 0.33976 0.12658 0.89381 0.0
H492 H 0.27889 0.11647 0.85621 0.0
H493 H 0.28123 0.10223 0.82612 0.0
H494 H 0.34025 0.13773 0.83241 0.0
H495 H 0.33777 0.15105 0.86269 0.0
H496 H 0.27906 0.16134 0.87555 0.0
H497 H 0.27908 0.18262 0.85255 0.0
H498 H 0.33573 0.20065 0.84345 0.0
H499 H 0.33566 0.17981 0.86666 0.0
O500 O 0.30192 0.16344 0.01062 0.0
O501 O 0.32972 0.18747 0.00703 0.0
O502 O 0.30062 0.05009 0.86357 0.0
O503 O 0.33101 0.06623 0.86862 0.0
C504 C 0.30911 0.16233 0.9065 0.0
C505 C 0.31035 0.15115 0.92035 0.0
C506 C 0.3107 0.1347 0.91482 0.0
C507 C 0.30887 0.12896 0.89545 0.0
C508 C 0.30738 0.13995 0.88161 0.0
C509 C 0.30761 0.15669 0.88709 0.0
C510 C 0.3121 0.18118 0.91244 0.0
C511 C 0.29949 0.18325 0.92312 0.0
C512 C 0.30412 0.20084 0.93161 0.0
C513 C 0.32143 0.21655 0.92952 0.0
C514 C 0.33351 0.21453 0.91786 0.0
C515 C 0.32894 0.19702 0.90951 0.0
C516 C 0.31193 0.15694 0.94077 0.0
C517 C 0.29746 0.14645 0.95203 0.0
C518 C 0.29878 0.15185 0.97122 0.0
C519 C 0.31463 0.16783 0.97949 0.0
C520 C 0.32917 0.17822 0.96815 0.0
C521 C 0.32785 0.17278 0.94899 0.0
C522 C 0.31575 0.12506 0.92903 0.0
C523 C 0.30389 0.1062 0.93208 0.0
C524 C 0.30981 0.09677 0.94372 0.0
C525 C 0.32764 0.10613 0.95273 0.0
C526 C 0.33909 0.12528 0.9503 0.0
C527 C 0.33331 0.13454 0.9384 0.0
C528 C 0.3102 0.11227 0.88942 0.0
C529 C 0.29435 0.09537 0.88323 0.0
C530 C 0.29567 0.07992 0.87669 0.0
C531 C 0.31289 0.08115 0.87626 0.0
C532 C 0.32874 0.09812 0.88265 0.0
C533 C 0.32739 0.11356 0.88916 0.0
C534 C 0.30816 0.1349 0.86151 0.0
C535 C 0.29225 0.1215 0.85075 0.0
C536 C 0.29363 0.11336 0.8336 0.0
C537 C 0.31096 0.11861 0.82703 0.0
C538 C 0.32672 0.13305 0.83726 0.0
C539 C 0.32534 0.14096 0.85441 0.0
C540 C 0.30728 0.16887 0.87258 0.0
C541 C 0.2914 0.16984 0.86846 0.0
C542 C 0.29143 0.18194 0.85531 0.0
C543 C 0.30742 0.19338 0.84621 0.0
C544 C 0.32325 0.19223 0.85036 0.0
C545 C 0.32318 0.18013 0.86343 0.0
C546 C 0.31595 0.17356 0.99986 0.0
C547 C 0.31439 0.06485 0.8691 0.0
H548 H 0.85565 0.1826 0.03065 0.0
H549 H 0.72492 0.02853 0.86686 0.0
H550 H 0.84946 0.18471 0.91035 0.0
H551 H 0.87361 0.21457 0.92536 0.0
H552 H 0.89774 0.18611 0.95367 0.0
H553 H 0.87371 0.15616 0.93797 0.0
H554 H 0.83456 0.17118 0.9497 0.0
H555 H 0.84324 0.18079 0.98331 0.0
H556 H 0.846 0.13065 0.99072 0.0
H557 H 0.83757 0.12133 0.95699 0.0
H558 H 0.79826 0.14151 0.94447 0.0
H559 H 0.77447 0.12832 0.96658 0.0
H560 H 0.77094 0.07457 0.95679 0.0
H561 H 0.7959 0.08844 0.93559 0.0
H562 H 0.77498 0.11604 0.90595 0.0
H563 H 0.74502 0.08923 0.89501 0.0
H564 H 0.77134 0.05789 0.87851 0.0
H565 H 0.80118 0.08474 0.8897 0.0
H566 H 0.79539 0.13382 0.87285 0.0
H567 H 0.78362 0.12464 0.83991 0.0
H568 H 0.82107 0.10407 0.8313 0.0
H569 H 0.83253 0.11301 0.86467 0.0
H570 H 0.83292 0.16607 0.87301 0.0
H571 H 0.85364 0.18566 0.85012 0.0
H572 H 0.89278 0.1691 0.86748 0.0
H573 H 0.87162 0.14905 0.89008 0.0
O574 O 0.85227 0.17854 0.01739 0.0
O575 O 0.85336 0.15248 0.02048 0.0
O576 O 0.72368 0.05594 0.88027 0.0
O577 O 0.73657 0.03929 0.87142 0.0
C578 C 0.84305 0.15011 0.91683 0.0
C579 C 0.83063 0.1399 0.93039 0.0
C580 C 0.81315 0.12444 0.92453 0.0
C581 C 0.80845 0.11861 0.90511 0.0
C582 C 0.82085 0.12875 0.89154 0.0
C583 C 0.83815 0.14453 0.89737 0.0
C584 C 0.85982 0.16824 0.92303 0.0
C585 C 0.86029 0.18496 0.91927 0.0
C586 C 0.87396 0.20198 0.92809 0.0
C587 C 0.88737 0.20264 0.94099 0.0
C588 C 0.88761 0.18604 0.94379 0.0
C589 C 0.87391 0.16894 0.93485 0.0
C590 C 0.83566 0.14567 0.95087 0.0
C591 C 0.8372 0.16237 0.95857 0.0
C592 C 0.84208 0.16778 0.97779 0.0
C593 C 0.84537 0.15651 0.9897 0.0
C594 C 0.84361 0.13968 0.98194 0.0
C595 C 0.83879 0.13431 0.9627 0.0
C596 C 0.79897 0.11602 0.9385 0.0
C597 C 0.79263 0.12698 0.94738 0.0
C598 C 0.77876 0.11929 0.95982 0.0
C599 C 0.77052 0.10026 0.96338 0.0
C600 C 0.77706 0.08931 0.9546 0.0
C601 C 0.79122 0.09715 0.94234 0.0
C602 C 0.79021 0.10225 0.89877 0.0
C603 C 0.77421 0.10331 0.90012 0.0
C604 C 0.75714 0.088 0.89379 0.0
C605 C 0.75578 0.07139 0.88591 0.0
C606 C 0.77188 0.07044 0.88454 0.0
C607 C 0.78894 0.08575 0.89091 0.0
C608 C 0.81472 0.12398 0.87115 0.0
C609 C 0.80109 0.12737 0.86384 0.0
C610 C 0.79449 0.12225 0.84496 0.0
C611 C 0.80145 0.11368 0.83294 0.0
C612 C 0.81533 0.11051 0.84025 0.0
C613 C 0.82196 0.11569 0.85922 0.0
C614 C 0.85067 0.15598 0.88309 0.0
C615 C 0.84586 0.16647 0.8717 0.0
C616 C 0.85783 0.17783 0.85879 0.0
C617 C 0.87494 0.17904 0.85704 0.0
C618 C 0.87965 0.16836 0.86835 0.0
C619 C 0.86763 0.15697 0.88132 0.0
C620 C 0.85057 0.16232 0.01012 0.0
C621 C 0.73769 0.05513 0.87906 0.0
H622 H 0.86196 0.69427 0.04403 0.0
H623 H 0.71659 0.6536 0.8856 0.0
H624 H 0.87842 0.70936 0.94794 0.0
H625 H 0.90043 0.70304 0.96474 0.0
H626 H 0.87584 0.64877 0.9339 0.0
H627 H 0.85357 0.65491 0.91777 0.0
H628 H 0.84349 0.70813 0.96859 0.0
H629 H 0.8517 0.70736 0.00181 0.0
H630 H 0.84588 0.6529 0.98934 0.0
H631 H 0.83739 0.65371 0.95626 0.0
H632 H 0.80293 0.70039 0.94822 0.0
H633 H 0.77807 0.6902 0.96958 0.0
H634 H 0.77781 0.63807 0.97377 0.0
H635 H 0.80159 0.64784 0.95156 0.0
H636 H 0.80666 0.70866 0.90662 0.0
H637 H 0.77697 0.7051 0.89634 0.0
H638 H 0.75121 0.64532 0.90064 0.0
H639 H 0.78102 0.64911 0.91078 0.0
H640 H 0.83192 0.71235 0.88057 0.0
H641 H 0.81851 0.7103 0.84875 0.0
H642 H 0.79467 0.65011 0.84545 0.0
H643 H 0.80718 0.65235 0.87759 0.0
H644 H 0.8749 0.71466 0.8976 0.0
H645 H 0.89452 0.71588 0.8724 0.0
H646 H 0.85792 0.6568 0.85751 0.0
H647 H 0.83891 0.65568 0.88297 0.0
O648 O 0.85856 0.69422 0.03087 0.0
O649 O 0.85552 0.66631 0.02368 0.0
O650 O 0.7424 0.68623 0.88774 0.0
O651 O 0.72849 0.65542 0.88967 0.0
C652 C 0.84781 0.68375 0.92597 0.0
C653 C 0.83542 0.68188 0.93979 0.0
C654 C 0.81834 0.68022 0.9344 0.0
C655 C 0.81401 0.68135 0.9153 0.0
C656 C 0.82636 0.68336 0.9015 0.0
C657 C 0.84318 0.68436 0.90677 0.0
C658 C 0.86435 0.68259 0.93163 0.0
C659 C 0.87821 0.69638 0.94437 0.0
C660 C 0.89074 0.69272 0.95399 0.0
C661 C 0.88963 0.67524 0.95093 0.0
C662 C 0.87681 0.66221 0.93687 0.0
C663 C 0.86426 0.66583 0.92736 0.0
C664 C 0.84005 0.68108 0.96 0.0
C665 C 0.84395 0.69603 0.97309 0.0
C666 C 0.84867 0.69556 0.99204 0.0
C667 C 0.84953 0.6801 0.99822 0.0
C668 C 0.84541 0.66504 0.98505 0.0
C669 C 0.84063 0.6655 0.96613 0.0
C670 C 0.8041 0.67487 0.94833 0.0
C671 C 0.79742 0.68676 0.95375 0.0
C672 C 0.78333 0.68096 0.96611 0.0
C673 C 0.77578 0.66322 0.97337 0.0
C674 C 0.78293 0.65163 0.9682 0.0
C675 C 0.79675 0.6573 0.95568 0.0
C676 C 0.79593 0.67915 0.90944 0.0
C677 C 0.79457 0.69483 0.90532 0.0
C678 C 0.77761 0.69274 0.89947 0.0
C679 C 0.76171 0.67491 0.89767 0.0
C680 C 0.76317 0.65924 0.90188 0.0
C681 C 0.78015 0.66135 0.9077 0.0
C682 C 0.82061 0.68251 0.88129 0.0
C683 C 0.82398 0.69878 0.87281 0.0
C684 C 0.81633 0.69755 0.85459 0.0
C685 C 0.80531 0.68 0.84447 0.0
C686 C 0.80267 0.66383 0.85288 0.0
C687 C 0.81006 0.66507 0.87116 0.0
C688 C 0.85546 0.68511 0.89201 0.0
C689 C 0.87127 0.702 0.88893 0.0
C690 C 0.88236 0.70268 0.87447 0.0
C691 C 0.87783 0.68643 0.86291 0.0
C692 C 0.86202 0.66952 0.86627 0.0
C693 C 0.85101 0.66887 0.8807 0.0
C694 C 0.8547 0.67972 0.01833 0.0
C695 C 0.74366 0.67261 0.8914 0.0
H696 H 0.83232 0.68228 0.36193 0.0
H697 H 0.93133 0.6331 0.51012 0.0
H698 H 0.8272 0.6862 0.46586 0.0
H699 H 0.80507 0.69286 0.45057 0.0
H700 H 0.76312 0.63459 0.45105 0.0
H701 H 0.78586 0.62798 0.46593 0.0
H702 H 0.85428 0.68544 0.4417 0.0
H703 H 0.84926 0.68956 0.40855 0.0
H704 H 0.80479 0.63211 0.4012 0.0
H705 H 0.81011 0.62813 0.43432 0.0
H706 H 0.88429 0.68533 0.46849 0.0
H707 H 0.90848 0.69463 0.44662 0.0
H708 H 0.87609 0.64173 0.41369 0.0
H709 H 0.85193 0.63237 0.43598 0.0
H710 H 0.8829 0.67679 0.50904 0.0
H711 H 0.9102 0.67585 0.52016 0.0
H712 H 0.88979 0.62277 0.48782 0.0
H713 H 0.86245 0.62379 0.47699 0.0
H714 H 0.8483 0.6752 0.52735 0.0
H715 H 0.85873 0.67601 0.56003 0.0
H716 H 0.8543 0.62207 0.54837 0.0
H717 H 0.84278 0.62092 0.51592 0.0
H718 H 0.81816 0.67744 0.50434 0.0
H719 H 0.7991 0.67702 0.52946 0.0
H720 H 0.78488 0.62017 0.5387 0.0
H721 H 0.80322 0.62042 0.51277 0.0
O722 O 0.83413 0.68032 0.37497 0.0
O723 O 0.81132 0.65073 0.37196 0.0
O724 O 0.93055 0.66114 0.52232 0.0
O725 O 0.92068 0.63385 0.50592 0.0
C726 C 0.82273 0.65269 0.47346 0.0
C727 C 0.83557 0.65394 0.4605 0.0
C728 C 0.85137 0.65342 0.46676 0.0
C729 C 0.85389 0.65068 0.48585 0.0
C730 C 0.84082 0.64888 0.4988 0.0
C731 C 0.82518 0.6499 0.49262 0.0
C732 C 0.80813 0.65664 0.46705 0.0
C733 C 0.81315 0.67492 0.46296 0.0
C734 C 0.8004 0.6787 0.45427 0.0
C735 C 0.78222 0.66428 0.44957 0.0
C736 C 0.77704 0.646 0.45429 0.0
C737 C 0.78992 0.64221 0.46298 0.0
C738 C 0.83267 0.65644 0.44033 0.0
C739 C 0.84357 0.67373 0.43285 0.0
C740 C 0.84062 0.67605 0.41394 0.0
C741 C 0.82664 0.66115 0.40221 0.0
C742 C 0.81569 0.64386 0.40983 0.0
C743 C 0.81869 0.64155 0.42873 0.0
C744 C 0.86637 0.65815 0.45388 0.0
C745 C 0.88249 0.67564 0.45668 0.0
C746 C 0.89622 0.68101 0.44405 0.0
C747 C 0.89414 0.669 0.42829 0.0
C748 C 0.87814 0.65126 0.42574 0.0
C749 C 0.86432 0.64591 0.4384 0.0
C750 C 0.87064 0.65028 0.49235 0.0
C751 C 0.88432 0.66494 0.50446 0.0
C752 C 0.89992 0.66438 0.51074 0.0
C753 C 0.90216 0.6492 0.50491 0.0
C754 C 0.88848 0.63464 0.49261 0.0
C755 C 0.87287 0.6352 0.48638 0.0
C756 C 0.84475 0.648 0.51922 0.0
C757 C 0.84907 0.66332 0.53199 0.0
C758 C 0.85531 0.66387 0.55061 0.0
C759 C 0.85768 0.64925 0.55681 0.0
C760 C 0.85254 0.63352 0.54418 0.0
C761 C 0.84605 0.63287 0.52558 0.0
C762 C 0.81197 0.6489 0.50652 0.0
C763 C 0.81051 0.66471 0.5114 0.0
C764 C 0.79983 0.66453 0.52603 0.0
C765 C 0.79056 0.64862 0.53634 0.0
C766 C 0.79162 0.6326 0.53101 0.0
C767 C 0.80218 0.63274 0.51622 0.0
C768 C 0.82351 0.66367 0.38214 0.0
C769 C 0.91867 0.6485 0.51161 0.0
H770 H 0.32572 0.15438 0.37641 0.0
H771 H 0.3914 0.30868 0.53496 0.0
H772 H 0.32806 0.14697 0.47779 0.0
H773 H 0.3194 0.11561 0.46501 0.0
H774 H 0.3752 0.1279 0.47653 0.0
H775 H 0.38392 0.1598 0.48866 0.0
H776 H 0.32835 0.17559 0.45661 0.0
H777 H 0.32203 0.16583 0.42285 0.0
H778 H 0.37693 0.17474 0.42014 0.0
H779 H 0.38313 0.18468 0.45389 0.0
H780 H 0.3307 0.20544 0.48481 0.0
H781 H 0.32066 0.22167 0.46394 0.0
H782 H 0.37082 0.24224 0.43547 0.0
H783 H 0.38091 0.22598 0.45677 0.0
H784 H 0.34192 0.21536 0.52418 0.0
H785 H 0.34551 0.24515 0.53672 0.0
H786 H 0.39793 0.27471 0.51235 0.0
H787 H 0.39426 0.24477 0.50011 0.0
H788 H 0.34105 0.18238 0.54125 0.0
H789 H 0.34049 0.19494 0.57266 0.0
H790 H 0.39727 0.23822 0.57065 0.0
H791 H 0.39741 0.22571 0.53876 0.0
H792 H 0.33673 0.14864 0.52108 0.0
H793 H 0.33722 0.12789 0.5441 0.0
H794 H 0.39615 0.1632 0.55323 0.0
H795 H 0.39534 0.18418 0.53048 0.0
O796 O 0.32854 0.15837 0.38972 0.0
O797 O 0.35688 0.16311 0.3891 0.0
O798 O 0.36262 0.28082 0.54245 0.0
O799 O 0.38958 0.2967 0.53009 0.0
C800 C 0.36158 0.175 0.49091 0.0
C801 C 0.36013 0.1869 0.47814 0.0
C802 C 0.36188 0.20407 0.48495 0.0
C803 C 0.36606 0.20982 0.50438 0.0
C804 C 0.36778 0.19809 0.51716 0.0
C805 C 0.36548 0.18064 0.51044 0.0
C806 C 0.35663 0.1557 0.484 0.0
C807 C 0.33844 0.14292 0.47749 0.0
C808 C 0.33349 0.12491 0.47038 0.0
C809 C 0.34658 0.11913 0.46983 0.0
C810 C 0.36482 0.13194 0.47657 0.0
C811 C 0.36981 0.1501 0.48363 0.0
C812 C 0.35627 0.18106 0.45762 0.0
C813 C 0.33905 0.1756 0.44865 0.0
C814 C 0.33545 0.16995 0.42939 0.0
C815 C 0.34899 0.16955 0.41877 0.0
C816 C 0.36621 0.17492 0.42788 0.0
C817 C 0.36979 0.18061 0.44714 0.0
C818 C 0.35654 0.21461 0.47233 0.0
C819 C 0.33958 0.21355 0.47414 0.0
C820 C 0.3338 0.22267 0.46209 0.0
C821 C 0.34487 0.23308 0.44794 0.0
C822 C 0.36203 0.23437 0.44629 0.0
C823 C 0.36779 0.22509 0.45837 0.0
C824 C 0.36792 0.22793 0.51142 0.0
C825 C 0.3542 0.22828 0.52165 0.0
C826 C 0.35627 0.24532 0.52874 0.0
C827 C 0.37205 0.26232 0.52559 0.0
C828 C 0.38564 0.26188 0.51508 0.0
C829 C 0.38357 0.24482 0.50804 0.0
C830 C 0.36927 0.20309 0.53775 0.0
C831 C 0.35355 0.19419 0.54785 0.0
C832 C 0.35328 0.20146 0.56586 0.0
C833 C 0.3688 0.21776 0.57422 0.0
C834 C 0.38497 0.22587 0.56453 0.0
C835 C 0.38517 0.21862 0.54641 0.0
C836 C 0.36601 0.16782 0.52403 0.0
C837 C 0.34974 0.15179 0.52797 0.0
C838 C 0.35009 0.1399 0.54107 0.0
C839 C 0.36676 0.14376 0.55047 0.0
C840 C 0.38306 0.15988 0.54642 0.0
C841 C 0.38266 0.17182 0.53336 0.0
C842 C 0.34512 0.1635 0.39831 0.0
C843 C 0.37439 0.28045 0.53324 0.0
H844 H 0.81812 0.17161 0.36309 0.0
H845 H 0.96055 0.29043 0.52123 0.0
H846 H 0.80022 0.17315 0.45998 0.0
H847 H 0.77586 0.14308 0.44493 0.0
H848 H 0.79995 0.11477 0.47366 0.0
H849 H 0.82448 0.14481 0.488 0.0
H850 H 0.83434 0.20636 0.44025 0.0
H851 H 0.82683 0.19616 0.4066 0.0
H852 H 0.83427 0.14904 0.41612 0.0
H853 H 0.84196 0.15954 0.44969 0.0
H854 H 0.87102 0.23994 0.4592 0.0
H855 H 0.89448 0.25524 0.43664 0.0
H856 H 0.90396 0.20843 0.43528 0.0
H857 H 0.88016 0.19314 0.45715 0.0
H858 H 0.8692 0.2452 0.50758 0.0
H859 H 0.89802 0.27362 0.51836 0.0
H860 H 0.928 0.2457 0.50327 0.0
H861 H 0.89907 0.21734 0.49276 0.0
H862 H 0.83968 0.21566 0.53392 0.0
H863 H 0.85127 0.22475 0.56724 0.0
H864 H 0.89113 0.20752 0.55769 0.0
H865 H 0.87918 0.19809 0.52484 0.0
H866 H 0.80161 0.1798 0.5074 0.0
H867 H 0.78054 0.15985 0.53007 0.0
H868 H 0.82051 0.14486 0.54883 0.0
H869 H 0.84116 0.16435 0.52581 0.0
O870 O 0.82118 0.17542 0.37643 0.0
O871 O 0.82509 0.15138 0.38208 0.0
O872 O 0.93289 0.29309 0.5246 0.0
O873 O 0.94895 0.27939 0.51705 0.0
C874 C 0.83076 0.1794 0.48133 0.0
C875 C 0.84304 0.18989 0.4678 0.0
C876 C 0.85997 0.20606 0.47366 0.0
C877 C 0.86448 0.21204 0.49303 0.0
C878 C 0.85242 0.20141 0.50663 0.0
C879 C 0.83546 0.18516 0.5008 0.0
C880 C 0.81413 0.16117 0.47507 0.0
C881 C 0.79999 0.16039 0.46327 0.0
C882 C 0.78609 0.14321 0.45472 0.0
C883 C 0.78613 0.12657 0.45789 0.0
C884 C 0.79972 0.12737 0.47063 0.0
C885 C 0.81362 0.1445 0.47906 0.0
C886 C 0.83854 0.18361 0.4474 0.0
C887 C 0.83435 0.19386 0.43502 0.0
C888 C 0.83006 0.18798 0.41582 0.0
C889 C 0.8299 0.17175 0.40868 0.0
C890 C 0.83422 0.16158 0.42116 0.0
C891 C 0.83856 0.1675 0.44034 0.0
C892 C 0.87385 0.21541 0.45971 0.0
C893 C 0.87811 0.233 0.45386 0.0
C894 C 0.8916 0.24174 0.44106 0.0
C895 C 0.90114 0.23307 0.43401 0.0
C896 C 0.8967 0.21539 0.43999 0.0
C897 C 0.88316 0.20665 0.45261 0.0
C898 C 0.88208 0.2293 0.49923 0.0
C899 C 0.88202 0.24529 0.50659 0.0
C900 C 0.89849 0.26148 0.51273 0.0
C901 C 0.91533 0.26195 0.51163 0.0
C902 C 0.9153 0.24585 0.50427 0.0
C903 C 0.89881 0.22965 0.49817 0.0
C904 C 0.85864 0.20628 0.52699 0.0
C905 C 0.8508 0.21373 0.53915 0.0
C906 C 0.85751 0.21901 0.55811 0.0
C907 C 0.87211 0.21683 0.56515 0.0
C908 C 0.8797 0.20912 0.55287 0.0
C909 C 0.873 0.20387 0.53404 0.0
C910 C 0.82297 0.17363 0.51505 0.0
C911 C 0.80579 0.17222 0.51647 0.0
C912 C 0.79382 0.1609 0.52948 0.0
C913 C 0.7988 0.15072 0.54125 0.0
C914 C 0.81611 0.1523 0.53982 0.0
C915 C 0.82804 0.1636 0.52683 0.0
C916 C 0.82526 0.16551 0.38829 0.0
C917 C 0.93287 0.27911 0.51816 0.0
H918 H 0.98707 0.50865 0.3581 0.0
H919 H 0.0031 0.38697 0.20084 0.0
H920 H 0.96383 0.50701 0.2581 0.0
H921 H 0.96991 0.53728 0.27256 0.0
H922 H 0.02345 0.56413 0.25029 0.0
H923 H 0.01753 0.53386 0.23661 0.0
H924 H 0.96478 0.47388 0.2809 0.0
H925 H 0.969 0.48437 0.31444 0.0
H926 H 0.02417 0.52841 0.30631 0.0
H927 H 0.01983 0.51762 0.27287 0.0
H928 H 0.96474 0.43857 0.26252 0.0
H929 H 0.97199 0.42057 0.28413 0.0
H930 H 0.02926 0.46373 0.28711 0.0
H931 H 0.02168 0.48177 0.26622 0.0
H932 H 0.95738 0.43224 0.21669 0.0
H933 H 0.95728 0.40359 0.20608 0.0
H934 H 0.01611 0.43199 0.21821 0.0
H935 H 0.01599 0.46056 0.22863 0.0
H936 H 0.95695 0.4572 0.18913 0.0
H937 H 0.95807 0.44437 0.15765 0.0
H938 H 0.01717 0.47165 0.16632 0.0
H939 H 0.01584 0.48461 0.19735 0.0
H940 H 0.95681 0.49551 0.20617 0.0
H941 H 0.95634 0.51498 0.18144 0.0
H942 H 0.01505 0.53937 0.17896 0.0
H943 H 0.01504 0.51914 0.20281 0.0
O944 O 0.98571 0.5047 0.34483 0.0
O945 O 0.01394 0.52715 0.33987 0.0
O946 O 0.97248 0.38409 0.19908 0.0
O947 O 0.00272 0.39806 0.20505 0.0
C948 C 0.98794 0.49976 0.24025 0.0
C949 C 0.98927 0.48868 0.25413 0.0
C950 C 0.98878 0.47181 0.24866 0.0
C951 C 0.9867 0.46585 0.22936 0.0
C952 C 0.9857 0.47703 0.21548 0.0
C953 C 0.98623 0.49394 0.22088 0.0
C954 C 0.99017 0.51827 0.24615 0.0
C955 C 0.97671 0.51953 0.25606 0.0
C956 C 0.9802 0.53681 0.26428 0.0
C957 C 0.99724 0.55308 0.26273 0.0
C958 C 0.0103 0.55183 0.25201 0.0
C959 C 0.00684 0.53459 0.2439 0.0
C960 C 0.99194 0.49508 0.27447 0.0
C961 C 0.97776 0.48577 0.28642 0.0
C962 C 0.98021 0.49181 0.30555 0.0
C963 C 0.9969 0.50727 0.31305 0.0
C964 C 0.01112 0.5165 0.30099 0.0
C965 C 0.00867 0.5104 0.28188 0.0
C966 C 0.99268 0.46149 0.26293 0.0
C967 C 0.97878 0.4442 0.26814 0.0
C968 C 0.983 0.43388 0.28035 0.0
C969 C 0.00125 0.44064 0.28741 0.0
C970 C 0.01502 0.4582 0.28234 0.0
C971 C 0.01075 0.46853 0.2703 0.0
C972 C 0.98667 0.44837 0.22351 0.0
C973 C 0.9702 0.43219 0.21709 0.0
C974 C 0.9702 0.41588 0.21103 0.0
C975 C 0.9867 0.4155 0.21131 0.0
C976 C 0.00317 0.43179 0.21783 0.0
C977 C 0.00314 0.44809 0.22385 0.0
C978 C 0.98632 0.47189 0.19538 0.0
C979 C 0.97012 0.46074 0.18394 0.0
C980 C 0.9708 0.45328 0.16609 0.0
C981 C 0.98771 0.4569 0.15948 0.0
C982 C 0.00394 0.46878 0.17078 0.0
C983 C 0.00323 0.47619 0.18854 0.0
C984 C 0.98595 0.50597 0.20623 0.0
C985 C 0.96951 0.50506 0.20017 0.0
C986 C 0.96932 0.51631 0.18614 0.0
C987 C 0.98565 0.52878 0.17807 0.0
C988 C 0.00212 0.5297 0.18446 0.0
C989 C 0.00222 0.51827 0.19824 0.0
C990 C 0.99944 0.51369 0.33337 0.0
C991 C 0.98679 0.39824 0.20477 0.0
H992 H 0.49623 0.50547 0.36502 0.0
H993 H 0.39118 0.35662 0.20564 0.0
H994 H 0.50131 0.51437 0.26243 0.0
H995 H 0.52536 0.54494 0.27595 0.0
H996 H 0.56575 0.52809 0.26803 0.0
H997 H 0.5412 0.49704 0.25492 0.0
H998 H 0.47349 0.48646 0.28449 0.0
H999 H 0.47895 0.49574 0.31837 0.0
H1000 H 0.52249 0.48255 0.32129 0.0
H1001 H 0.51673 0.4731 0.28742 0.0
H1002 H 0.4427 0.45626 0.25639 0.0
H1003 H 0.41886 0.44165 0.27847 0.0
H1004 H 0.45048 0.42079 0.30681 0.0
H1005 H 0.47421 0.43521 0.28425 0.0
H1006 H 0.44347 0.44977 0.21512 0.0
H1007 H 0.41523 0.42169 0.20244 0.0
H1008 H 0.43354 0.38721 0.22874 0.0
H1009 H 0.46182 0.41542 0.24114 0.0
H1010 H 0.47855 0.4829 0.19889 0.0
H1011 H 0.46692 0.47381 0.16595 0.0
H1012 H 0.46849 0.4226 0.1696 0.0
H1013 H 0.48126 0.43246 0.20237 0.0
H1014 H 0.50765 0.51299 0.22 0.0
H1015 H 0.52923 0.53253 0.19773 0.0
H1016 H 0.54761 0.49245 0.19044 0.0
H1017 H 0.52536 0.47265 0.21226 0.0
O1018 O 0.49426 0.50168 0.35166 0.0
O1019 O 0.51657 0.49477 0.35239 0.0
O1020 O 0.39346 0.38632 0.19724 0.0
O1021 O 0.40222 0.36797 0.2105 0.0
C1022 C 0.5043 0.48471 0.2505 0.0
C1023 C 0.49131 0.4733 0.263 0.0
C1024 C 0.47504 0.45694 0.25589 0.0
C1025 C 0.47206 0.45165 0.2363 0.0
C1026 C 0.48524 0.46285 0.22378 0.0
C1027 C 0.50143 0.47936 0.23093 0.0
C1028 C 0.51951 0.50349 0.25777 0.0
C1029 C 0.51536 0.51727 0.26359 0.0
C1030 C 0.52917 0.5348 0.27118 0.0
C1031 C 0.54754 0.53904 0.27297 0.0
C1032 C 0.55173 0.52522 0.26697 0.0
C1033 C 0.53779 0.50756 0.25937 0.0
C1034 C 0.49459 0.47892 0.28357 0.0
C1035 C 0.48409 0.48544 0.29251 0.0
C1036 C 0.4873 0.4908 0.31185 0.0
C1037 C 0.50113 0.48984 0.32255 0.0
C1038 C 0.5117 0.48342 0.31347 0.0
C1039 C 0.50845 0.47802 0.29415 0.0
C1040 C 0.46014 0.44672 0.26864 0.0
C1041 C 0.44437 0.44831 0.26719 0.0
C1042 C 0.43087 0.44014 0.27997 0.0
C1043 C 0.43286 0.43022 0.29453 0.0
C1044 C 0.4485 0.42826 0.2957 0.0
C1045 C 0.46207 0.4365 0.28287 0.0
C1046 C 0.45475 0.43461 0.2289 0.0
C1047 C 0.44139 0.43614 0.21804 0.0
C1048 C 0.42525 0.42007 0.21086 0.0
C1049 C 0.42214 0.40218 0.21454 0.0
C1050 C 0.43551 0.40075 0.22561 0.0
C1051 C 0.45166 0.41683 0.23273 0.0
C1052 C 0.48087 0.45842 0.20304 0.0
C1053 C 0.47698 0.47002 0.19241 0.0
C1054 C 0.47 0.46462 0.17365 0.0
C1055 C 0.46643 0.44729 0.16517 0.0
C1056 C 0.47117 0.43608 0.1756 0.0
C1057 C 0.4784 0.44164 0.19435 0.0
C1058 C 0.515 0.49145 0.21779 0.0
C1059 C 0.51642 0.5085 0.21365 0.0
C1060 C 0.52887 0.51971 0.20098 0.0
C1061 C 0.54033 0.51418 0.19229 0.0
C1062 C 0.53889 0.49707 0.19662 0.0
C1063 C 0.52628 0.48579 0.20919 0.0
C1064 C 0.50451 0.49556 0.34309 0.0
C1065 C 0.40506 0.38507 0.20688 0.0
H1066 H 0.52165 0.01166 0.37431 0.0
H1067 H 0.37823 0.97853 0.21838 0.0
H1068 H 0.53876 0.03011 0.27885 0.0
H1069 H 0.56146 0.02451 0.29516 0.0
H1070 H 0.53869 0.97105 0.26303 0.0
H1071 H 0.5157 0.97649 0.24733 0.0
H1072 H 0.50411 0.0278 0.29959 0.0
H1073 H 0.51195 0.02605 0.33266 0.0
H1074 H 0.50612 0.97183 0.3185 0.0
H1075 H 0.49802 0.97363 0.28556 0.0
H1076 H 0.46527 0.02256 0.27792 0.0
H1077 H 0.44091 0.01412 0.29962 0.0
H1078 H 0.43839 0.9611 0.30558 0.0
H1079 H 0.46173 0.96917 0.28302 0.0
H1080 H 0.46936 0.02975 0.23357 0.0
H1081 H 0.44018 0.02739 0.22343 0.0
H1082 H 0.41157 0.9689 0.2347 0.0
H1083 H 0.44086 0.97142 0.2446 0.0
H1084 H 0.50122 0.03359 0.20926 0.0
H1085 H 0.48998 0.03384 0.17694 0.0
H1086 H 0.44963 0.97505 0.17743 0.0
H1087 H 0.46127 0.97489 0.20934 0.0
H1088 H 0.53833 0.03471 0.23192 0.0
H1089 H 0.55878 0.03682 0.20732 0.0
H1090 H 0.51845 0.98095 0.18456 0.0
H1091 H 0.49847 0.97882 0.20943 0.0
O1092 O 0.51841 0.01201 0.36119 0.0
O1093 O 0.51537 0.98424 0.35314 0.0
O1094 O 0.40532 0.00998 0.21675 0.0
O1095 O 0.38996 0.97987 0.22235 0.0
C1096 C 0.50875 0.00445 0.25628 0.0
C1097 C 0.49622 0.00225 0.27006 0.0
C1098 C 0.47926 0.00091 0.26472 0.0
C1099 C 0.47501 0.00223 0.24564 0.0
C1100 C 0.48743 0.00434 0.23182 0.0
C1101 C 0.5043 0.0054 0.2371 0.0
C1102 C 0.52549 0.00366 0.26199 0.0
C1103 C 0.53905 0.01745 0.27495 0.0
C1104 C 0.552 0.01421 0.28427 0.0
C1105 C 0.55165 0.99716 0.28068 0.0
C1106 C 0.53906 0.98414 0.26643 0.0
C1107 C 0.52609 0.98735 0.25721 0.0
C1108 C 0.50065 0.00092 0.29017 0.0
C1109 C 0.50448 0.01554 0.30369 0.0
C1110 C 0.50898 0.01451 0.32255 0.0
C1111 C 0.50973 0.99882 0.32822 0.0
C1112 C 0.50572 0.98412 0.31462 0.0
C1113 C 0.50115 0.98514 0.29579 0.0
C1114 C 0.46532 0.9965 0.27887 0.0
C1115 C 0.4594 0.00912 0.28392 0.0
C1116 C 0.44558 0.00432 0.29647 0.0
C1117 C 0.43753 0.98685 0.30436 0.0
C1118 C 0.44391 0.9745 0.29955 0.0
C1119 C 0.45748 0.97919 0.28683 0.0
C1120 C 0.4572 0.00079 0.2399 0.0
C1121 C 0.45677 0.01646 0.23384 0.0
C1122 C 0.44008 0.01506 0.22807 0.0
C1123 C 0.42352 0.99794 0.22828 0.0
C1124 C 0.42405 0.98228 0.23439 0.0
C1125 C 0.44075 0.98369 0.24012 0.0
C1126 C 0.48203 0.00424 0.21163 0.0
C1127 C 0.49016 0.02073 0.20221 0.0
C1128 C 0.4836 0.02087 0.18384 0.0
C1129 C 0.46884 0.00448 0.1746 0.0
C1130 C 0.46116 0.98787 0.18397 0.0
C1131 C 0.46771 0.98776 0.20226 0.0
C1132 C 0.51688 0.00665 0.22242 0.0
C1133 C 0.53401 0.02292 0.22165 0.0
C1134 C 0.54559 0.02414 0.20751 0.0
C1135 C 0.54028 0.00905 0.19394 0.0
C1136 C 0.52312 0.99274 0.1949 0.0
C1137 C 0.51159 0.99155 0.20901 0.0
C1138 C 0.51466 0.99784 0.34824 0.0
C1139 C 0.40577 0.99637 0.2221 0.0
H1140 H 0.49462 0.02114 0.7001 0.0
H1141 H 0.60632 0.98176 0.85038 0.0
H1142 H 0.49466 0.02678 0.80865 0.0
H1143 H 0.47195 0.03231 0.79283 0.0
H1144 H 0.43547 0.97253 0.78251 0.0
H1145 H 0.45884 0.96724 0.798 0.0
H1146 H 0.51538 0.02751 0.78073 0.0
H1147 H 0.50911 0.03054 0.74757 0.0
H1148 H 0.48317 0.97049 0.73652 0.0
H1149 H 0.48953 0.96768 0.76976 0.0
H1150 H 0.5461 0.02985 0.79333 0.0
H1151 H 0.5701 0.03888 0.77143 0.0
H1152 H 0.55672 0.98112 0.76318 0.0
H1153 H 0.53173 0.97213 0.78418 0.0
H1154 H 0.55561 0.0225 0.84063 0.0
H1155 H 0.58425 0.02424 0.85192 0.0
H1156 H 0.5628 0.96685 0.83013 0.0
H1157 H 0.53419 0.96529 0.81907 0.0
H1158 H 0.52111 0.01683 0.86489 0.0
H1159 H 0.53225 0.01707 0.89717 0.0
H1160 H 0.52629 0.96265 0.88392 0.0
H1161 H 0.51414 0.96214 0.85198 0.0
H1162 H 0.49054 0.01907 0.84327 0.0
H1163 H 0.47077 0.01792 0.8679 0.0
H1164 H 0.45524 0.96031 0.87487 0.0
H1165 H 0.47433 0.96134 0.84934 0.0
O1166 O 0.49701 0.01963 0.71312 0.0
O1167 O 0.48377 0.98869 0.70819 0.0
O1168 O 0.60554 0.01092 0.85703 0.0
O1169 O 0.59518 0.98149 0.846 0.0
C1170 C 0.49372 0.99393 0.81097 0.0
C1171 C 0.5064 0.99547 0.79772 0.0
C1172 C 0.52246 0.9953 0.80357 0.0
C1173 C 0.52546 0.99272 0.82258 0.0
C1174 C 0.51255 0.99061 0.83583 0.0
C1175 C 0.49669 0.9914 0.83007 0.0
C1176 C 0.47828 0.99662 0.80471 0.0
C1177 C 0.48156 0.01487 0.80342 0.0
C1178 C 0.4685 0.01798 0.79434 0.0
C1179 C 0.45177 0.00287 0.78637 0.0
C1180 C 0.44826 0.9845 0.7883 0.0
C1181 C 0.46145 0.98141 0.79736 0.0
C1182 C 0.50289 0.99738 0.77757 0.0
C1183 C 0.50837 0.01504 0.7711 0.0
C1184 C 0.50476 0.01672 0.75216 0.0
C1185 C 0.49562 0.00075 0.73939 0.0
C1186 C 0.49022 0.98307 0.74598 0.0
C1187 C 0.49385 0.98142 0.76493 0.0
C1188 C 0.5372 0.00036 0.79036 0.0
C1189 C 0.54827 0.01914 0.78665 0.0
C1190 C 0.56217 0.02428 0.77426 0.0
C1191 C 0.56562 0.0108 0.76558 0.0
C1192 C 0.55441 0.9919 0.76936 0.0
C1193 C 0.54023 0.98673 0.78154 0.0
C1194 C 0.54293 0.99381 0.82896 0.0
C1195 C 0.55718 0.01036 0.83828 0.0
C1196 C 0.5735 0.01129 0.84472 0.0
C1197 C 0.57582 0.99567 0.84191 0.0
C1198 C 0.56148 0.97913 0.8325 0.0
C1199 C 0.54516 0.97821 0.8261 0.0
C1200 C 0.51681 0.98947 0.85607 0.0
C1201 C 0.52173 0.00475 0.86913 0.0
C1202 C 0.52836 0.00496 0.88751 0.0
C1203 C 0.53047 0.99 0.89313 0.0
C1204 C 0.52474 0.97434 0.8802 0.0
C1205 C 0.51789 0.97406 0.86188 0.0
C1206 C 0.48367 0.9902 0.84423 0.0
C1207 C 0.48248 0.00604 0.84973 0.0
C1208 C 0.47139 0.00543 0.86409 0.0
C1209 C 0.46145 0.98905 0.87355 0.0
C1210 C 0.46246 0.97309 0.86778 0.0
C1211 C 0.47345 0.97367 0.85326 0.0
C1212 C 0.49174 0.00258 0.71929 0.0
C1213 C 0.59309 0.99656 0.84879 0.0
H1214 H 0.99471 0.47043 0.70908 0.0
H1215 H 0.02564 0.62365 0.87427 0.0
H1216 H 0.98601 0.46598 0.82609 0.0
H1217 H 0.98022 0.43566 0.81309 0.0
H1218 H 0.03567 0.46159 0.79538 0.0
H1219 H 0.04094 0.49218 0.80777 0.0
H1220 H 0.98653 0.48137 0.7892 0.0
H1221 H 0.98486 0.47218 0.75566 0.0
H1222 H 0.0393 0.51939 0.75145 0.0
H1223 H 0.04088 0.52829 0.78512 0.0
H1224 H 0.98323 0.51358 0.79286 0.0
H1225 H 0.97421 0.5304 0.77184 0.0
H1226 H 0.02615 0.58105 0.78662 0.0
H1227 H 0.03559 0.56359 0.80659 0.0
H1228 H 0.98564 0.53689 0.83284 0.0
H1229 H 0.98359 0.5642 0.84394 0.0
H1230 H 0.04131 0.59333 0.86235 0.0
H1231 H 0.0432 0.56601 0.85096 0.0
H1232 H 0.987 0.51578 0.86637 0.0
H1233 H 0.98612 0.52948 0.89713 0.0
H1234 H 0.04472 0.55298 0.90701 0.0
H1235 H 0.04543 0.5394 0.87578 0.0
H1236 H 0.9905 0.48389 0.86609 0.0
H1237 H 0.99097 0.46297 0.88898 0.0
H1238 H 0.04563 0.47738 0.87473 0.0
H1239 H 0.04522 0.49877 0.85227 0.0
O1240 O 0.9957 0.47426 0.72234 0.0
O1241 O 0.0237 0.49876 0.7209 0.0
O1242 O 0.99655 0.5973 0.85952 0.0
O1243 O 0.02611 0.61275 0.86952 0.0
C1244 C 0.01617 0.49975 0.82385 0.0
C1245 C 0.01498 0.51093 0.81002 0.0
C1246 C 0.0144 0.52725 0.81556 0.0
C1247 C 0.01565 0.53269 0.83496 0.0
C1248 C 0.01697 0.52158 0.84878 0.0
C1249 C 0.01726 0.50513 0.84326 0.0
C1250 C 0.01389 0.48123 0.81792 0.0
C1251 C 0.99699 0.46505 0.81965 0.0
C1252 C 0.99376 0.44767 0.81226 0.0
C1253 C 0.00749 0.44603 0.80317 0.0
C1254 C 0.02468 0.4623 0.80201 0.0
C1255 C 0.02781 0.47977 0.80924 0.0
C1256 C 0.01392 0.50536 0.78963 0.0
C1257 C 0.99815 0.48959 0.78106 0.0
C1258 C 0.9972 0.48443 0.76187 0.0
C1259 C 0.01196 0.49503 0.75087 0.0
C1260 C 0.0277 0.51091 0.75952 0.0
C1261 C 0.02864 0.51602 0.77873 0.0
C1262 C 0.0101 0.53731 0.80122 0.0
C1263 C 0.99289 0.52817 0.79113 0.0
C1264 C 0.98764 0.53793 0.77935 0.0
C1265 C 0.99929 0.55722 0.77775 0.0
C1266 C 0.01685 0.5662 0.78736 0.0
C1267 C 0.02224 0.55629 0.7989 0.0
C1268 C 0.01459 0.54954 0.84101 0.0
C1269 C 0.99785 0.54926 0.8391 0.0
C1270 C 0.99671 0.56484 0.84553 0.0
C1271 C 0.01229 0.58095 0.85406 0.0
C1272 C 0.02905 0.58117 0.85586 0.0
C1273 C 0.03018 0.5656 0.84936 0.0
C1274 C 0.01626 0.52657 0.86892 0.0
C1275 C 0.99956 0.52348 0.8754 0.0
C1276 C 0.99911 0.53132 0.89301 0.0
C1277 C 0.01538 0.54243 0.90454 0.0
C1278 C 0.03199 0.54469 0.89838 0.0
C1279 C 0.03241 0.53678 0.88068 0.0
C1280 C 0.01791 0.49302 0.85769 0.0
C1281 C 0.00267 0.48273 0.86813 0.0
C1282 C 0.00289 0.4706 0.88102 0.0
C1283 C 0.01831 0.46842 0.88364 0.0
C1284 C 0.03362 0.47887 0.87322 0.0
C1285 C 0.03339 0.49104 0.86034 0.0
C1286 C 0.01089 0.48953 0.73048 0.0
C1287 C 0.01111 0.59745 0.86116 0.0
H1288 H 0.48602 0.50478 0.69703 0.0
H1289 H 0.62621 0.6204 0.86167 0.0
H1290 H 0.46616 0.50738 0.79361 0.0
H1291 H 0.44219 0.47728 0.77821 0.0
H1292 H 0.46647 0.44926 0.80715 0.0
H1293 H 0.49066 0.47932 0.82173 0.0
H1294 H 0.50018 0.54003 0.77379 0.0
H1295 H 0.49342 0.52952 0.74018 0.0
H1296 H 0.50241 0.48361 0.75103 0.0
H1297 H 0.50935 0.49442 0.78456 0.0
H1298 H 0.53548 0.57278 0.79083 0.0
H1299 H 0.55894 0.5874 0.7681 0.0
H1300 H 0.57219 0.54349 0.77292 0.0
H1301 H 0.54839 0.52882 0.79499 0.0
H1302 H 0.53731 0.58217 0.83439 0.0
H1303 H 0.56665 0.60977 0.84566 0.0
H1304 H 0.59204 0.5755 0.84618 0.0
H1305 H 0.56259 0.54805 0.83493 0.0
H1306 H 0.51412 0.56098 0.86423 0.0
H1307 H 0.52778 0.57238 0.89664 0.0
H1308 H 0.54804 0.53358 0.89505 0.0
H1309 H 0.53527 0.52318 0.86254 0.0
H1310 H 0.46887 0.51777 0.84339 0.0
H1311 H 0.44719 0.49804 0.86579 0.0
H1312 H 0.48289 0.47629 0.87997 0.0
H1313 H 0.50399 0.49549 0.85718 0.0
O1314 O 0.48881 0.50873 0.71035 0.0
O1315 O 0.49351 0.48533 0.71669 0.0
O1316 O 0.60078 0.62677 0.85652 0.0
O1317 O 0.61447 0.60976 0.85712 0.0
C1318 C 0.49659 0.51381 0.81529 0.0
C1319 C 0.50911 0.52433 0.80196 0.0
C1320 C 0.52592 0.54053 0.80804 0.0
C1321 C 0.53005 0.5465 0.82741 0.0
C1322 C 0.51768 0.53599 0.8408 0.0
C1323 C 0.5009 0.51964 0.83477 0.0
C1324 C 0.48011 0.49554 0.80887 0.0
C1325 C 0.46604 0.49466 0.79688 0.0
C1326 C 0.45236 0.47747 0.78812 0.0
C1327 C 0.45257 0.46091 0.79125 0.0
C1328 C 0.4661 0.46179 0.80415 0.0
C1329 C 0.47979 0.47893 0.81276 0.0
C1330 C 0.50511 0.5179 0.78158 0.0
C1331 C 0.50071 0.52773 0.76885 0.0
C1332 C 0.49683 0.52167 0.74968 0.0
C1333 C 0.49732 0.50569 0.74292 0.0
C1334 C 0.50186 0.49594 0.75576 0.0
C1335 C 0.50578 0.50205 0.77492 0.0
C1336 C 0.54022 0.54973 0.79445 0.0
C1337 C 0.54345 0.56636 0.78686 0.0
C1338 C 0.55693 0.57472 0.77397 0.0
C1339 C 0.56745 0.56659 0.76853 0.0
C1340 C 0.56415 0.54996 0.77638 0.0
C1341 C 0.55064 0.54161 0.78913 0.0
C1342 C 0.54792 0.56321 0.83384 0.0
C1343 C 0.54926 0.58071 0.83691 0.0
C1344 C 0.56601 0.59641 0.84336 0.0
C1345 C 0.5817 0.59484 0.84683 0.0
C1346 C 0.58025 0.57721 0.84365 0.0
C1347 C 0.56348 0.56153 0.83721 0.0
C1348 C 0.52352 0.54109 0.86118 0.0
C1349 C 0.5213 0.55482 0.87107 0.0
C1350 C 0.52909 0.56127 0.88958 0.0
C1351 C 0.53919 0.55403 0.89845 0.0
C1352 C 0.54073 0.53978 0.88859 0.0
C1353 C 0.53317 0.53356 0.8701 0.0
C1354 C 0.48811 0.50824 0.84884 0.0
C1355 C 0.47198 0.50878 0.85142 0.0
C1356 C 0.45967 0.49756 0.86428 0.0
C1357 C 0.46327 0.48553 0.87469 0.0
C1358 C 0.47953 0.48516 0.87205 0.0
C1359 C 0.49177 0.49634 0.85921 0.0
C1360 C 0.49312 0.49924 0.72256 0.0
C1361 C 0.59952 0.61145 0.85377 0.0
H1362 H 0.63372 0.83293 0.69336 0.0
H1363 H 0.66523 0.71883 0.5405 0.0
H1364 H 0.62174 0.83801 0.59403 0.0
H1365 H 0.62933 0.86877 0.60871 0.0
H1366 H 0.68317 0.89307 0.58731 0.0
H1367 H 0.67579 0.86241 0.57349 0.0
H1368 H 0.61945 0.8007 0.61531 0.0
H1369 H 0.62032 0.80984 0.64876 0.0
H1370 H 0.67508 0.85679 0.6454 0.0
H1371 H 0.67413 0.84734 0.61206 0.0
H1372 H 0.62549 0.76501 0.59525 0.0
H1373 H 0.63571 0.74806 0.61504 0.0
H1374 H 0.68725 0.79934 0.62914 0.0
H1375 H 0.67752 0.81563 0.60823 0.0
H1376 H 0.61701 0.76218 0.55095 0.0
H1377 H 0.61832 0.73425 0.54065 0.0
H1378 H 0.67616 0.76308 0.55852 0.0
H1379 H 0.67468 0.79097 0.56856 0.0
H1380 H 0.61598 0.78831 0.52494 0.0
H1381 H 0.61765 0.77606 0.49336 0.0
H1382 H 0.67633 0.80088 0.50417 0.0
H1383 H 0.67448 0.81324 0.53531 0.0
H1384 H 0.61605 0.82655 0.54174 0.0
H1385 H 0.61715 0.84616 0.51645 0.0
H1386 H 0.67571 0.86834 0.51575 0.0
H1387 H 0.67412 0.84792 0.5401 0.0
O1388 O 0.63369 0.82953 0.68015 0.0
O1389 O 0.66178 0.85352 0.67765 0.0
O1390 O 0.63456 0.71549 0.53551 0.0
O1391 O 0.66432 0.72967 0.5445 0.0
C1392 C 0.64524 0.82914 0.57682 0.0
C1393 C 0.64586 0.81782 0.59089 0.0
C1394 C 0.64621 0.8013 0.58567 0.0
C1395 C 0.64491 0.79558 0.56635 0.0
C1396 C 0.64402 0.8067 0.55232 0.0
C1397 C 0.64433 0.82353 0.55752 0.0
C1398 C 0.64815 0.84799 0.58253 0.0
C1399 C 0.63501 0.8501 0.5922 0.0
C1400 C 0.63937 0.86765 0.60055 0.0
C1401 C 0.65694 0.88329 0.59937 0.0
C1402 C 0.66963 0.88124 0.58876 0.0
C1403 C 0.66532 0.86377 0.58054 0.0
C1404 C 0.64663 0.82347 0.61122 0.0
C1405 C 0.63162 0.81294 0.62184 0.0
C1406 C 0.63215 0.81821 0.64093 0.0
C1407 C 0.64775 0.83409 0.64974 0.0
C1408 C 0.66283 0.84453 0.63904 0.0
C1409 C 0.66229 0.83922 0.61998 0.0
C1410 C 0.65075 0.79158 0.60022 0.0
C1411 C 0.63892 0.77257 0.60277 0.0
C1412 C 0.64476 0.76294 0.61421 0.0
C1413 C 0.66246 0.77223 0.62353 0.0
C1414 C 0.67375 0.79156 0.62182 0.0
C1415 C 0.66806 0.80103 0.61012 0.0
C1416 C 0.64571 0.77852 0.5606 0.0
C1417 C 0.62993 0.7624 0.55264 0.0
C1418 C 0.63072 0.74648 0.54678 0.0
C1419 C 0.64735 0.74642 0.54879 0.0
C1420 C 0.66314 0.76263 0.55679 0.0
C1421 C 0.66233 0.77856 0.5626 0.0
C1422 C 0.64512 0.80169 0.5323 0.0
C1423 C 0.6292 0.79141 0.52023 0.0
C1424 C 0.63017 0.78428 0.50232 0.0
C1425 C 0.64712 0.78743 0.49625 0.0
C1426 C 0.6631 0.7984 0.50822 0.0
C1427 C 0.66209 0.80546 0.52605 0.0
C1428 C 0.64501 0.83587 0.54272 0.0
C1429 C 0.62907 0.83567 0.53603 0.0
C1430 C 0.62978 0.847 0.52167 0.0
C1431 C 0.64652 0.85887 0.5139 0.0
C1432 C 0.66249 0.85913 0.52098 0.0
C1433 C 0.66168 0.84761 0.53506 0.0
C1434 C 0.64824 0.83969 0.67 0.0
C1435 C 0.64828 0.72957 0.54252 0.0
H1436 H 0.17197 0.83684 0.70269 0.0
H1437 H 0.05897 0.69133 0.53731 0.0
H1438 H 0.16935 0.84771 0.59821 0.0
H1439 H 0.19373 0.87848 0.61088 0.0
H1440 H 0.23361 0.86089 0.60341 0.0
H1441 H 0.20872 0.82963 0.59107 0.0
H1442 H 0.1488 0.82594 0.62227 0.0
H1443 H 0.15571 0.83334 0.65637 0.0
H1444 H 0.18637 0.80427 0.65629 0.0
H1445 H 0.17923 0.79687 0.62217 0.0
H1446 H 0.12012 0.80209 0.60301 0.0
H1447 H 0.09488 0.78767 0.62333 0.0
H1448 H 0.10496 0.74162 0.62857 0.0
H1449 H 0.13122 0.75708 0.60905 0.0
H1450 H 0.10868 0.78372 0.55828 0.0
H1451 H 0.07999 0.75618 0.5454 0.0
H1452 H 0.10284 0.72094 0.55767 0.0
H1453 H 0.13146 0.74863 0.5704 0.0
H1454 H 0.1399 0.8133 0.53725 0.0
H1455 H 0.12728 0.80382 0.50459 0.0
H1456 H 0.14092 0.75987 0.50382 0.0
H1457 H 0.1529 0.76916 0.53688 0.0
H1458 H 0.17506 0.84741 0.55902 0.0
H1459 H 0.19538 0.86784 0.53642 0.0
H1460 H 0.20975 0.82596 0.52043 0.0
H1461 H 0.19014 0.80608 0.54398 0.0
O1462 O 0.16938 0.83374 0.68921 0.0
O1463 O 0.18512 0.81878 0.68839 0.0
O1464 O 0.05904 0.72117 0.53629 0.0
O1465 O 0.07012 0.70244 0.54238 0.0
C1466 C 0.17194 0.81781 0.58654 0.0
C1467 C 0.15928 0.80617 0.59915 0.0
C1468 C 0.1428 0.79005 0.59215 0.0
C1469 C 0.13956 0.78483 0.57261 0.0
C1470 C 0.15237 0.79618 0.55995 0.0
C1471 C 0.16855 0.8128 0.56687 0.0
C1472 C 0.18727 0.83645 0.59386 0.0
C1473 C 0.18333 0.85045 0.59941 0.0
C1474 C 0.19732 0.86808 0.60646 0.0
C1475 C 0.21565 0.87219 0.60801 0.0
C1476 C 0.21961 0.8581 0.60248 0.0
C1477 C 0.20549 0.84032 0.59536 0.0
C1478 C 0.16341 0.81076 0.61982 0.0
C1479 C 0.15691 0.82109 0.62966 0.0
C1480 C 0.16093 0.82535 0.64913 0.0
C1481 C 0.17157 0.81937 0.65907 0.0
C1482 C 0.17812 0.80906 0.64909 0.0
C1483 C 0.17406 0.80481 0.62962 0.0
C1484 C 0.1276 0.78074 0.60474 0.0
C1485 C 0.11702 0.78901 0.60876 0.0
C1486 C 0.1024 0.78055 0.62019 0.0
C1487 C 0.09762 0.76329 0.62749 0.0
C1488 C 0.10831 0.75499 0.6234 0.0
C1489 C 0.12324 0.7637 0.61215 0.0
C1490 C 0.12206 0.76809 0.56524 0.0
C1491 C 0.10741 0.77002 0.55818 0.0
C1492 C 0.09107 0.75428 0.55084 0.0
C1493 C 0.08913 0.73635 0.55049 0.0
C1494 C 0.10387 0.73453 0.55771 0.0
C1495 C 0.12021 0.75029 0.56501 0.0
C1496 C 0.14736 0.79196 0.53936 0.0
C1497 C 0.14044 0.80184 0.52989 0.0
C1498 C 0.13328 0.7964 0.51117 0.0
C1499 C 0.13299 0.781 0.50149 0.0
C1500 C 0.14062 0.77158 0.51089 0.0
C1501 C 0.14765 0.77696 0.52971 0.0
C1502 C 0.18131 0.82537 0.55338 0.0
C1503 C 0.18289 0.84281 0.55092 0.0
C1504 C 0.19432 0.85436 0.53775 0.0
C1505 C 0.2042 0.84856 0.52645 0.0
C1506 C 0.20261 0.83104 0.52903 0.0
C1507 C 0.1913 0.81959 0.54239 0.0
C1508 C 0.17581 0.8239 0.67976 0.0
C1509 C 0.07184 0.71959 0.54262 0.0
H1510 H 0.1983 0.35862 0.70822 0.0
H1511 H 0.05285 0.33266 0.55779 0.0
H1512 H 0.21267 0.37314 0.60898 0.0
H1513 H 0.23625 0.36749 0.62298 0.0
H1514 H 0.20531 0.30992 0.59957 0.0
H1515 H 0.18252 0.31609 0.58499 0.0
H1516 H 0.18038 0.37384 0.6332 0.0
H1517 H 0.18909 0.3728 0.66618 0.0
H1518 H 0.17582 0.31544 0.6544 0.0
H1519 H 0.16694 0.31663 0.62152 0.0
H1520 H 0.14221 0.36988 0.61754 0.0
H1521 H 0.11937 0.36251 0.64099 0.0
H1522 H 0.10767 0.30518 0.63767 0.0
H1523 H 0.13077 0.31288 0.61487 0.0
H1524 H 0.14425 0.37667 0.57002 0.0
H1525 H 0.11626 0.37731 0.56121 0.0
H1526 H 0.08372 0.31895 0.57216 0.0
H1527 H 0.11183 0.31846 0.58073 0.0
H1528 H 0.17335 0.3758 0.54255 0.0
H1529 H 0.16214 0.37474 0.50983 0.0
H1530 H 0.11886 0.31763 0.51402 0.0
H1531 H 0.13042 0.31871 0.54631 0.0
H1532 H 0.20942 0.37544 0.56472 0.0
H1533 H 0.22829 0.37522 0.53941 0.0
H1534 H 0.18516 0.3196 0.51919 0.0
H1535 H 0.16676 0.31978 0.54481 0.0
O1536 O 0.19468 0.35869 0.69515 0.0
O1537 O 0.18776 0.32926 0.68833 0.0
O1538 O 0.0815 0.36278 0.55574 0.0
O1539 O 0.06414 0.3328 0.56122 0.0
C1540 C 0.1799 0.34715 0.59073 0.0
C1541 C 0.16825 0.34628 0.60494 0.0
C1542 C 0.1517 0.34593 0.60013 0.0
C1543 C 0.14713 0.34726 0.58118 0.0
C1544 C 0.15868 0.34803 0.56689 0.0
C1545 C 0.17506 0.34789 0.57164 0.0
C1546 C 0.19596 0.34505 0.5959 0.0
C1547 C 0.21137 0.3595 0.60644 0.0
C1548 C 0.22468 0.35613 0.61466 0.0
C1549 C 0.22268 0.33815 0.61268 0.0
C1550 C 0.20761 0.32402 0.60125 0.0
C1551 C 0.19448 0.32749 0.59285 0.0
C1552 C 0.1732 0.34538 0.62498 0.0
C1553 C 0.17933 0.36107 0.63781 0.0
C1554 C 0.18432 0.36043 0.65662 0.0
C1555 C 0.18322 0.34406 0.66291 0.0
C1556 C 0.17689 0.32829 0.65 0.0
C1557 C 0.17186 0.32894 0.63122 0.0
C1558 C 0.1382 0.34194 0.61462 0.0
C1559 C 0.13476 0.35579 0.62204 0.0
C1560 C 0.12163 0.35151 0.63535 0.0
C1561 C 0.11169 0.33325 0.64138 0.0
C1562 C 0.11529 0.31948 0.63379 0.0
C1563 C 0.12843 0.3238 0.62063 0.0
C1564 C 0.13004 0.34757 0.57616 0.0
C1565 C 0.13106 0.36406 0.57053 0.0
C1566 C 0.11505 0.36438 0.56551 0.0
C1567 C 0.09774 0.34818 0.56603 0.0
C1568 C 0.09681 0.33167 0.57166 0.0
C1569 C 0.11284 0.33137 0.57664 0.0
C1570 C 0.15266 0.34735 0.54679 0.0
C1571 C 0.16156 0.36304 0.53627 0.0
C1572 C 0.15506 0.36244 0.51766 0.0
C1573 C 0.1396 0.34609 0.50929 0.0
C1574 C 0.13095 0.33035 0.51988 0.0
C1575 C 0.13744 0.33097 0.5384 0.0
C1576 C 0.18669 0.34766 0.55655 0.0
C1577 C 0.20414 0.36319 0.55486 0.0
C1578 C 0.21483 0.36308 0.54031 0.0
C1579 C 0.20825 0.34739 0.52723 0.0
C1580 C 0.19079 0.33182 0.52913 0.0
C1581 C 0.18016 0.33194 0.54367 0.0
C1582 C 0.18866 0.34348 0.68287 0.0
C1583 C 0.08069 0.34844 0.56068 0.0
H1584 H 0.97174 0.3759 0.06744 0.0
H1585 H 0.01299 0.4715 0.13287 0.0
H1586 H 0.02703 0.42222 0.06596 0.0
H1587 H 0.96445 0.4206 0.14524 0.0
H1588 H 0.01611 0.45473 0.10541 0.0
H1589 H 0.96682 0.3931 0.09343 0.0
C1590 C 0.98284 0.38966 0.07257 0.0
C1591 C 0.99986 0.39759 0.06455 0.0
C1592 C 0.00473 0.44725 0.11409 0.0
C1593 C 0.99423 0.41738 0.09408 0.0
C1594 C 0.00295 0.45681 0.1298 0.0
C1595 C 0.98853 0.44744 0.14153 0.0
C1596 C 0.99196 0.42816 0.10995 0.0
C1597 C 0.9757 0.42847 0.13655 0.0
C1598 C 0.98001 0.39945 0.08739 0.0
C1599 C 0.01373 0.41549 0.07175 0.0
N1600 N 0.97776 0.41943 0.12118 0.0
N1601 N 0.01059 0.42477 0.08605 0.0
H1602 H 0.60888 0.55761 0.09763 0.0
H1603 H 0.56032 0.55263 0.19335 0.0
H1604 H 0.59937 0.60123 0.11986 0.0
H1605 H 0.55045 0.5031 0.15986 0.0
H1606 H 0.5799 0.57187 0.16959 0.0
H1607 H 0.59279 0.53873 0.12365 0.0
C1608 C 0.60361 0.5633 0.10809 0.0
C1609 C 0.60535 0.58096 0.10652 0.0
C1610 C 0.57349 0.55678 0.16751 0.0
C1611 C 0.58712 0.55957 0.13625 0.0
C1612 C 0.56219 0.54574 0.18101 0.0
C1613 C 0.55342 0.52611 0.17857 0.0
C1614 C 0.5763 0.54823 0.15147 0.0
C1615 C 0.55696 0.51813 0.1625 0.0
C1616 C 0.59436 0.55249 0.12284 0.0
C1617 C 0.5982 0.58762 0.12042 0.0
N1618 N 0.56807 0.52921 0.14954 0.0
N1619 N 0.58943 0.57694 0.13468 0.0
H1620 H 0.42142 0.0304 0.07794 0.0
H1621 H 0.45651 0.97768 0.1449 0.0
H1622 H 0.40783 0.97294 0.06698 0.0
H1623 H 0.46289 0.0317 0.16096 0.0
H1624 H 0.44116 0.97707 0.11486 0.0
H1625 H 0.43903 0.03241 0.10705 0.0
C1626 C 0.42215 0.01822 0.08161 0.0
C1627 C 0.41305 0.00145 0.06999 0.0
C1628 C 0.44596 0.98909 0.12492 0.0
C1629 C 0.43326 0.0037 0.10325 0.0
C1630 C 0.4547 0.98943 0.14212 0.0
C1631 C 0.4609 0.0047 0.1556 0.0
C1632 C 0.44339 0.00415 0.12103 0.0
C1633 C 0.45849 0.01971 0.15097 0.0
C1634 C 0.4322 0.01938 0.09825 0.0
C1635 C 0.41452 0.98614 0.0755 0.0
N1636 N 0.44985 0.01901 0.13412 0.0
N1637 N 0.42442 0.98764 0.09169 0.0
H1638 H 0.42385 0.0218 0.97171 0.0
H1639 H 0.42822 0.96049 0.88368 0.0
H1640 H 0.38708 0.96207 0.96298 0.0
H1641 H 0.47034 0.01735 0.90092 0.0
H1642 H 0.41141 0.9609 0.91091 0.0
H1643 H 0.43909 0.02062 0.9438 0.0
C1644 C 0.41889 0.0084 0.96389 0.0
C1645 C 0.40415 0.99198 0.96983 0.0
C1646 C 0.42432 0.97327 0.90866 0.0
C1647 C 0.42174 0.99055 0.93761 0.0
C1648 C 0.43398 0.97304 0.89316 0.0
C1649 C 0.45074 0.98895 0.88984 0.0
C1650 C 0.4314 0.98955 0.92091 0.0
C1651 C 0.45734 0.00486 0.90255 0.0
C1652 C 0.42769 0.00774 0.94793 0.0
C1653 C 0.39841 0.97507 0.95899 0.0
N1654 N 0.44767 0.00474 0.91743 0.0
N1655 N 0.40723 0.97478 0.94341 0.0
H1656 H 0.04534 0.41685 0.97357 0.0
H1657 H 0.99011 0.43348 0.88969 0.0
H1658 H 0.98706 0.38192 0.95971 0.0
H1659 H 0.04653 0.47308 0.90824 0.0
H1660 H 0.98981 0.41258 0.91294 0.0
H1661 H 0.04713 0.43551 0.94712 0.0
C1662 C 0.03296 0.41296 0.96485 0.0
C1663 C 0.01599 0.39787 0.96898 0.0
C1664 C 0.00228 0.42581 0.9119 0.0
C1665 C 0.01795 0.41922 0.93877 0.0
C1666 C 0.00244 0.43782 0.8987 0.0
C1667 C 0.01831 0.45519 0.89713 0.0
C1668 C 0.01813 0.43113 0.92369 0.0
C1669 C 0.03401 0.45981 0.90887 0.0
C1670 C 0.03399 0.42367 0.94981 0.0
C1671 C 1.00041 0.39351 0.95718 0.0
N1672 N 0.03349 0.4479 0.92172 0.0
N1673 N 0.00176 0.40417 0.94271 0.0
H1674 H 0.61124 0.58038 0.99826 0.0
H1675 H 0.52766 0.56592 0.92933 0.0
H1676 H 0.5782 0.60496 0.01256 0.0
H1677 H 0.57293 0.56012 0.9111 0.0
H1678 H 0.54387 0.57786 0.96071 0.0
H1679 H 0.59486 0.56979 0.96722 0.0
C1680 C 0.60049 0.58352 0.99491 0.0
C1681 C 0.5961 0.5936 0.00807 0.0
C1682 C 0.55019 0.57397 0.94978 0.0
C1683 C 0.5772 0.58142 0.97238 0.0
C1684 C 0.541 0.56721 0.93185 0.0
C1685 C 0.54879 0.56174 0.91754 0.0
C1686 C 0.56721 0.57511 0.95345 0.0
C1687 C 0.56608 0.56363 0.92174 0.0
C1688 C 0.59118 0.57753 0.97711 0.0
C1689 C 0.58206 0.59729 0.00282 0.0
N1690 N 0.5746 0.57002 0.93928 0.0
N1691 N 0.57302 0.59111 0.98538 0.0
H1692 H 0.97585 0.57975 0.99706 0.0
H1693 H 0.04014 0.57848 0.91832 0.0
H1694 H 0.03197 0.62417 0.99483 0.0
H1695 H 0.98953 0.52982 0.93073 0.0
H1696 H 0.03742 0.59599 0.94549 0.0
H1697 H 0.98022 0.56213 0.97139 0.0
C1698 C 0.9891 0.58587 0.99112 0.0
C1699 C 0.00357 0.60351 0.99813 0.0
C1700 C 0.027 0.58144 0.94233 0.0
C1701 C 0.00868 0.58327 0.96867 0.0
C1702 C 0.02861 0.57137 0.92691 0.0
C1703 C 0.01499 0.55263 0.92215 0.0
C1704 C 0.01159 0.57277 0.95298 0.0
C1705 C 1.00019 0.54431 0.93364 0.0
C1706 C 0.99161 0.57572 0.97651 0.0
C1707 C 0.02043 0.61063 0.98987 0.0
N1708 N 0.99882 0.55446 0.9484 0.0
N1709 N 0.02251 0.6005 0.97553 0.0
H1710 H 0.40634 0.39775 0.94889 0.0
H1711 H 0.44342 0.49376 0.89938 0.0
H1712 H 0.38979 0.43808 0.96366 0.0
H1713 H 0.45304 0.4492 0.88066 0.0
H1714 H 0.42309 0.47361 0.92239 0.0
H1715 H 0.42289 0.41637 0.92336 0.0
C1716 C 0.4061 0.41049 0.94671 0.0
C1717 C 0.39673 0.41639 0.95855 0.0
C1718 C 0.42959 0.46824 0.91317 0.0
C1719 C 0.41589 0.43798 0.92925 0.0
C1720 C 0.44115 0.4797 0.89997 0.0
C1721 C 0.45014 0.47326 0.88815 0.0
C1722 C 0.42703 0.45021 0.91461 0.0
C1723 C 0.44677 0.45496 0.88972 0.0
C1724 C 0.41556 0.42114 0.93207 0.0
C1725 C 0.39683 0.43299 0.95489 0.0
N1726 N 0.4356 0.44416 0.90273 0.0
N1727 N 0.40641 0.4433 0.94067 0.0
H1728 H 0.60183 0.03009 0.99569 0.0
H1729 H 0.5228 0.96198 0.91703 0.0
H1730 H 0.5742 0.96983 0.99556 0.0
H1731 H 0.55955 0.02096 0.91202 0.0
H1732 H 0.53938 0.96453 0.9471 0.0
H1733 H 0.58417 0.02694 0.96646 0.0
C1734 C 0.59202 0.01616 0.98955 0.0
C1735 C 0.58955 1.00019 0.99812 0.0
C1736 C 0.54373 0.9769 0.93941 0.0
C1737 C 0.56918 0.9965 0.9645 0.0
C1738 C 0.53432 0.97546 0.9222 0.0
C1739 C 0.5397 0.99129 0.91191 0.0
C1740 C 0.55858 0.99431 0.94645 0.0
C1741 C 0.5546 0.00843 0.91953 0.0
C1742 C 0.58195 0.01438 0.97279 0.0
C1743 C 0.57661 0.98253 0.98942 0.0
N1744 N 0.56348 0.00946 0.93628 0.0
N1745 N 0.56688 0.98115 0.97309 0.0
H1746 H 0.61124 0.04201 0.10027 0.0
H1747 H 0.54685 0.9817 0.1799 0.0
H1748 H 0.5887 0.98249 0.10284 0.0
H1749 H 0.56146 0.03902 0.17331 0.0
H1750 H 0.56509 0.983 0.15365 0.0
H1751 H 0.59614 0.04245 0.129 0.0
C1752 C 0.60326 0.02908 0.10693 0.0
C1753 C 0.60116 0.01217 0.09903 0.0
C1754 C 0.56437 0.99534 0.15794 0.0
C1755 C 0.58388 0.01258 0.13186 0.0
C1756 C 0.55386 0.99457 0.17291 0.0
C1757 C 0.5524 0.0102 0.17873 0.0
C1758 C 0.5736 0.01187 0.14863 0.0
C1759 C 0.56223 0.02665 0.16938 0.0
C1760 C 0.5946 0.02933 0.12329 0.0
C1761 C 0.59062 0.99585 0.10828 0.0
N1762 N 0.57233 0.02702 0.15473 0.0
N1763 N 0.58239 0.99646 0.12412 0.0
H1764 H 0.96143 0.59187 0.09789 0.0
H1765 H 0.00657 0.53907 0.14748 0.0
H1766 H 0.01725 0.60503 0.0916 0.0
H1767 H 0.96451 0.5455 0.17375 0.0
H1768 H 0.00758 0.55968 0.12369 0.0
H1769 H 0.95941 0.57157 0.12305 0.0
C1770 C 0.97326 0.59059 0.10184 0.0
C1771 C 0.98953 0.60017 0.0926 0.0
C1772 C 0.99815 0.55661 0.1347 0.0
C1773 C 0.98716 0.57682 0.12095 0.0
C1774 C 0.99762 0.5449 0.1484 0.0
C1775 C 0.98563 0.54068 0.16293 0.0
C1776 C 0.9864 0.56401 0.13522 0.0
C1777 C 0.9739 0.54821 0.1628 0.0
C1778 C 0.97209 0.57904 0.11618 0.0
C1779 C 0.00443 0.59799 0.0983 0.0
N1780 N 0.97456 0.5595 0.14914 0.0
N1781 N 0.00282 0.58644 0.11194 0.0
H1782 H 0.39535 0.42573 0.065 0.0
H1783 H 0.47178 0.42718 0.13648 0.0
H1784 H 0.41963 0.39125 0.05461 0.0
H1785 H 0.43844 0.45155 0.15032 0.0
H1786 H 0.45469 0.41562 0.10553 0.0
H1787 H 0.41316 0.43736 0.0953 0.0
C1788 C 0.40445 0.42061 0.06906 0.0
C1789 C 0.40595 0.40745 0.05721 0.0
C1790 C 0.45119 0.42355 0.11537 0.0
C1791 C 0.42648 0.42079 0.09203 0.0
C1792 C 0.46089 0.4301 0.13306 0.0
C1793 C 0.45667 0.4405 0.14605 0.0
C1794 C 0.43721 0.42747 0.11059 0.0
C1795 C 0.44252 0.44399 0.14069 0.0
C1796 C 0.41461 0.42724 0.08642 0.0
C1797 C 0.41799 0.40135 0.0633 0.0
N1798 N 0.43336 0.43753 0.12342 0.0
N1799 N 0.42782 0.40809 0.08029 0.0
H1800 H 0.63249 0.70904 0.40193 0.0
H1801 H 0.67336 0.80257 0.47071 0.0
H1802 H 0.68819 0.75512 0.40279 0.0
H1803 H 0.62347 0.75181 0.48044 0.0
H1804 H 0.67685 0.78655 0.44287 0.0
H1805 H 0.62701 0.72556 0.42818 0.0
C1806 C 0.64355 0.7226 0.40762 0.0
C1807 C 0.66086 0.73066 0.40019 0.0
C1808 C 0.66509 0.77893 0.45104 0.0
C1809 C 0.6546 0.74967 0.42999 0.0
C1810 C 0.6631 0.78806 0.46697 0.0
C1811 C 0.6482 0.77848 0.47808 0.0
C1812 C 0.65206 0.76006 0.44606 0.0
C1813 C 0.63511 0.7598 0.47224 0.0
C1814 C 0.64041 0.73201 0.42258 0.0
C1815 C 0.67467 0.74829 0.4081 0.0
N1816 N 0.6374 0.75115 0.45669 0.0
N1817 N 0.67123 0.75719 0.42251 0.0
H1818 H 0.28381 0.902 0.44251 0.0
H1819 H 0.19693 0.8703 0.50371 0.0
H1820 H 0.25043 0.92804 0.44291 0.0
H1821 H 0.23741 0.85399 0.5152 0.0
H1822 H 0.21568 0.89003 0.47992 0.0
H1823 H 0.26642 0.8829 0.4678 0.0
C1824 C 0.27292 0.90378 0.44794 0.0
C1825 C 0.26858 0.91664 0.4405 0.0
C1826 C 0.22053 0.88221 0.48768 0.0
C1827 C 0.24856 0.89473 0.46926 0.0
C1828 C 0.20985 0.87098 0.50141 0.0
C1829 C 0.21561 0.86052 0.51171 0.0
C1830 C 0.23709 0.88295 0.48396 0.0
C1831 C 0.23228 0.86163 0.50754 0.0
C1832 C 0.26301 0.89288 0.46238 0.0
C1833 C 0.25431 0.91834 0.44813 0.0
N1834 N 0.24243 0.87262 0.49398 0.0
N1835 N 0.24479 0.90746 0.46196 0.0
H1836 H 0.07859 0.306 0.40085 0.0
H1837 H 0.13583 0.37336 0.4924 0.0
H1838 H 0.09372 0.36424 0.4072 0.0
H1839 H 0.1261 0.31721 0.48169 0.0
H1840 H 0.12121 0.37083 0.46111 0.0
H1841 H 0.09627 0.31021 0.43041 0.0
C1842 C 0.08566 0.31971 0.40844 0.0
C1843 C 0.08458 0.33477 0.40152 0.0
C1844 C 0.12238 0.35911 0.46558 0.0
C1845 C 0.10492 0.33969 0.43557 0.0
C1846 C 0.13083 0.36058 0.48341 0.0
C1847 C 0.13208 0.34541 0.48979 0.0
C1848 C 0.11508 0.34234 0.45406 0.0
C1849 C 0.12514 0.32914 0.47756 0.0
C1850 C 0.09581 0.32211 0.42533 0.0
C1851 C 0.09414 0.35222 0.41198 0.0
N1852 N 0.11687 0.32801 0.46038 0.0
N1853 N 0.10383 0.35418 0.42854 0.0
H1854 H 0.06292 0.28989 0.303 0.0
H1855 H 0.11096 0.33798 0.21044 0.0
H1856 H 0.08011 0.34724 0.29304 0.0
H1857 H 0.11345 0.29108 0.23143 0.0
H1858 H 0.09458 0.33862 0.23777 0.0
H1859 H 0.07627 0.28717 0.27377 0.0
C1860 C 0.06935 0.30184 0.2946 0.0
C1861 C 0.07049 0.31885 0.30053 0.0
C1862 C 0.09867 0.32815 0.23632 0.0
C1863 C 0.08563 0.31578 0.26708 0.0
C1864 C 0.10813 0.32782 0.22076 0.0
C1865 C 0.11387 0.31459 0.21862 0.0
C1866 C 0.09466 0.31503 0.24981 0.0
C1867 C 0.10922 0.30144 0.23228 0.0
C1868 C 0.07703 0.3003 0.27798 0.0
C1869 C 0.07903 0.33391 0.2891 0.0
N1870 N 0.09993 0.30202 0.2473 0.0
N1871 N 0.08623 0.33201 0.27293 0.0
H1872 H 0.71153 0.74782 0.30626 0.0
H1873 H 0.66425 0.7904 0.24187 0.0
H1874 H 0.65333 0.72784 0.30222 0.0
H1875 H 0.71666 0.7963 0.23006 0.0
H1876 H 0.66148 0.76974 0.26631 0.0
H1877 H 0.71511 0.76775 0.2803 0.0
C1878 C 0.69952 0.74752 0.29987 0.0
C1879 C 0.68211 0.73616 0.3065 0.0
C1880 C 0.67357 0.77549 0.25833 0.0
C1881 C 0.68617 0.75904 0.27708 0.0
C1882 C 0.67514 0.78725 0.24424 0.0
C1883 C 0.69063 0.79501 0.23362 0.0
C1884 C 0.68768 0.77156 0.26212 0.0
C1885 C 0.70453 0.7908 0.23793 0.0
C1886 C 0.70158 0.75888 0.28508 0.0
C1887 C 0.66703 0.73634 0.29766 0.0
N1888 N 0.70275 0.77938 0.25188 0.0
N1889 N 0.66944 0.74768 0.28356 0.0
H1890 H 0.25654 0.95182 0.34065 0.0
H1891 H 0.20931 0.86714 0.26029 0.0
H1892 H 0.26072 0.90191 0.34099 0.0
H1893 H 0.21595 0.92164 0.25289 0.0
H1894 H 0.22476 0.87848 0.29179 0.0
H1895 H 0.23842 0.93982 0.31027 0.0
C1896 C 0.25361 0.93833 0.33439 0.0
C1897 C 0.26025 0.9279 0.34336 0.0
C1898 C 0.2228 0.88796 0.28331 0.0
C1899 C 0.23945 0.91408 0.30871 0.0
C1900 C 0.21402 0.88151 0.26527 0.0
C1901 C 0.21149 0.8935 0.25378 0.0
C1902 C 0.22906 0.90654 0.29004 0.0
C1903 C 0.21749 0.91185 0.26125 0.0
C1904 C 0.24329 0.93151 0.31704 0.0
C1905 C 0.25601 0.9105 0.33458 0.0
N1906 N 0.22607 0.91784 0.27888 0.0
N1907 N 0.24589 0.90416 0.31778 0.0
H1908 H 0.64686 0.9085 0.33001 0.0
H1909 H 0.7139 0.91699 0.25031 0.0
H1910 H 0.70096 0.95679 0.32832 0.0
H1911 H 0.66787 0.86438 0.2635 0.0
H1912 H 0.70897 0.9324 0.27779 0.0
H1913 H 0.65346 0.89288 0.30407 0.0
C1914 C 0.66011 0.91587 0.32414 0.0
C1915 C 0.67337 0.93401 0.33135 0.0
C1916 C 0.70005 0.91746 0.27473 0.0
C1917 C 0.68101 0.91615 0.30162 0.0
C1918 C 0.70294 0.9086 0.25912 0.0
C1919 C 0.69124 0.88932 0.25449 0.0
C1920 C 0.68526 0.90704 0.2857 0.0
C1921 C 0.67704 0.8793 0.26628 0.0
C1922 C 0.6639 0.90688 0.3094 0.0
C1923 C 0.69034 0.9428 0.32322 0.0
N1924 N 0.67436 0.8883 0.28122 0.0
N1925 N 0.69365 0.93381 0.30872 0.0
H1926 H 0.08704 0.74247 0.2973 0.0
H1927 H 0.0972 0.81233 0.21885 0.0
H1928 H 0.05082 0.76504 0.2922 0.0
H1929 H 0.1409 0.80313 0.23861 0.0
H1930 H 0.07835 0.79295 0.24316 0.0
H1931 H 0.10486 0.7619 0.27283 0.0
C1932 C 0.08274 0.75144 0.29097 0.0
C1933 C 0.06738 0.75211 0.29691 0.0
C1934 C 0.09208 0.79523 0.24213 0.0
C1935 C 0.0879 0.77453 0.2687 0.0
C1936 C 0.10292 0.80637 0.22831 0.0
C1937 C 0.12073 0.80936 0.2265 0.0
C1938 C 0.09899 0.78684 0.25411 0.0
C1939 C 0.12718 0.80096 0.23907 0.0
C1940 C 0.09302 0.76262 0.27703 0.0
C1941 C 0.06258 0.76409 0.28813 0.0
N1942 N 0.11631 0.79007 0.25222 0.0
N1943 N 0.07279 0.77482 0.27442 0.0
H1944 H 0.23756 0.29858 0.32871 0.0
H1945 H 0.22541 0.34906 0.24074 0.0
H1946 H 0.26588 0.35854 0.32557 0.0
H1947 H 0.18785 0.29092 0.24882 0.0
H1948 H 0.24135 0.3522 0.27111 0.0
H1949 H 0.22027 0.29487 0.29874 0.0
C1950 C 0.24015 0.31096 0.32176 0.0
C1951 C 0.25322 0.32891 0.3297 0.0
C1952 C 0.22957 0.33876 0.26632 0.0
C1953 C 0.23355 0.32473 0.29539 0.0
C1954 C 0.22033 0.33697 0.24898 0.0
C1955 C 0.20507 0.31973 0.2422 0.0
C1956 C 0.22371 0.32317 0.27701 0.0
C1957 C 0.1996 0.30446 0.25337 0.0
C1958 C 0.23023 0.30882 0.30468 0.0
C1959 C 0.25594 0.34443 0.32005 0.0
N1960 N 0.20893 0.30652 0.27021 0.0
N1961 N 0.24626 0.34197 0.30341 0.0
H1962 H 0.27621 0.37404 0.43137 0.0
H1963 H 0.21227 0.31827 0.51328 0.0
H1964 H 0.25144 0.31442 0.4354 0.0
H1965 H 0.22974 0.37609 0.50536 0.0
H1966 H 0.22913 0.31758 0.48645 0.0
H1967 H 0.26196 0.37604 0.46017 0.0
C1968 C 0.26789 0.3614 0.43835 0.0
C1969 C 0.26495 0.34401 0.43086 0.0
C1970 C 0.22933 0.33045 0.49058 0.0
C1971 C 0.24863 0.34622 0.4638 0.0
C1972 C 0.21961 0.33083 0.50588 0.0
C1973 C 0.2194 0.34721 0.51153 0.0
C1974 C 0.239 0.34658 0.48078 0.0
C1975 C 0.22958 0.36318 0.50162 0.0
C1976 C 0.25972 0.36255 0.45476 0.0
C1977 C 0.25402 0.32811 0.44053 0.0
N1978 N 0.2389 0.36244 0.48668 0.0
N1979 N 0.24627 0.3296 0.45643 0.0
H1980 H 0.62688 0.92178 0.42987 0.0
H1981 H 0.66847 0.8682 0.48406 0.0
H1982 H 0.68274 0.93408 0.42618 0.0
H1983 H 0.62653 0.8766 0.50786 0.0
H1984 H 0.67094 0.88876 0.45959 0.0
H1985 H 0.6237 0.90185 0.45575 0.0
C1986 C 0.63847 0.92038 0.43454 0.0
C1987 C 0.6551 0.92962 0.42583 0.0
C1988 C 0.66123 0.88613 0.47021 0.0
C1989 C 0.65142 0.90667 0.45503 0.0
C1990 C 0.65986 0.87445 0.48431 0.0
C1991 C 0.64745 0.87078 0.49836 0.0
C1992 C 0.6499 0.89402 0.46981 0.0
C1993 C 0.63621 0.87885 0.49732 0.0
C1994 C 0.63665 0.90905 0.44929 0.0
C1995 C 0.66968 0.92731 0.43247 0.0
N1996 N 0.63767 0.89006 0.48327 0.0
N1997 N 0.66744 0.91594 0.44651 0.0
H1998 H 0.07207 0.71436 0.39835 0.0
H1999 H 0.13265 0.80188 0.4726 0.0
H2000 H 0.07538 0.7679 0.39473 0.0
H2001 H 0.11233 0.7447 0.48602 0.0
H2002 H 0.11549 0.79035 0.44184 0.0
H2003 H 0.09055 0.72601 0.42849 0.0
C2004 C 0.0767 0.72857 0.40387 0.0
C2005 C 0.07212 0.74016 0.39403 0.0
C2006 C 0.11486 0.78036 0.45153 0.0
C2007 C 0.09342 0.75359 0.42837 0.0
C2008 C 0.1246 0.78691 0.46914 0.0
C2009 C 0.12389 0.77427 0.48209 0.0
C2010 C 0.10446 0.76102 0.44667 0.0
C2011 C 0.11354 0.75502 0.4765 0.0
C2012 C 0.08721 0.73518 0.42108 0.0
C2013 C 0.07849 0.75844 0.40188 0.0
N2014 N 0.10423 0.749 0.45923 0.0
N2015 N 0.08888 0.76462 0.41855 0.0
H2016 H 0.29903 0.05457 0.72086 0.0
H2017 H 0.3364 0.10774 0.82354 0.0
H2018 H 0.35344 0.07369 0.74617 0.0
H2019 H 0.28966 0.10497 0.79324 0.0
H2020 H 0.34034 0.09137 0.79648 0.0
H2021 H 0.29294 0.06919 0.74847 0.0
C2022 C 0.30964 0.06174 0.73223 0.0
C2023 C 0.3268 0.06298 0.73117 0.0
C2024 C 0.32925 0.09438 0.79567 0.0
C2025 C 0.31989 0.07953 0.76267 0.0
C2026 C 0.32706 0.10387 0.8111 0.0
C2027 C 0.31291 0.10814 0.81055 0.0
C2028 C 0.31713 0.08887 0.7795 0.0
C2029 C 0.30079 0.10204 0.79426 0.0
C2030 C 0.30617 0.07012 0.7479 0.0
C2031 C 0.34005 0.07247 0.74627 0.0
N2032 N 0.30322 0.09276 0.77932 0.0
N2033 N 0.3363 0.08031 0.76136 0.0
H2034 H 0.94952 0.22724 0.7679 0.0
H2035 H 0.88274 0.21447 0.85027 0.0
H2036 H 0.92948 0.26489 0.78172 0.0
H2037 H 0.89667 0.17258 0.83341 0.0
H2038 H 0.90252 0.23448 0.82714 0.0
H2039 H 0.93311 0.20851 0.79384 0.0
C2040 C 0.94184 0.23167 0.77648 0.0
C2041 C 0.94078 0.2476 0.77252 0.0
C2042 C 0.90131 0.22093 0.82848 0.0
C2043 C 0.92199 0.22625 0.80213 0.0
C2044 C 0.88992 0.20943 0.84164 0.0
C2045 C 0.88782 0.19168 0.84364 0.0
C2046 C 0.91077 0.21472 0.81712 0.0
C2047 C 0.89789 0.18616 0.83239 0.0
C2048 C 0.93243 0.22094 0.79122 0.0
C2049 C 0.9306 0.25265 0.78409 0.0
N2050 N 0.90884 0.19759 0.81952 0.0
N2051 N 0.92159 0.24201 0.79827 0.0
H2052 H 0.73253 0.63859 0.74277 0.0
H2053 H 0.8178 0.70414 0.81594 0.0
H2054 H 0.76698 0.69783 0.73718 0.0
H2055 H 0.7712 0.65227 0.82991 0.0
H2056 H 0.80171 0.70109 0.7854 0.0
H2057 H 0.74921 0.64221 0.77298 0.0
C2058 C 0.74365 0.65236 0.74785 0.0
C2059 C 0.74833 0.66794 0.73742 0.0
C2060 C 0.79508 0.6904 0.7952 0.0
C2061 C 0.76755 0.67214 0.77201 0.0
C2062 C 0.80421 0.69215 0.81269 0.0
C2063 C 0.79596 0.6784 0.82563 0.0
C2064 C 0.77767 0.67469 0.79047 0.0
C2065 C 0.77839 0.66304 0.82035 0.0
C2066 C 0.75311 0.65442 0.76514 0.0
C2067 C 0.76285 0.68545 0.74478 0.0
N2068 N 0.76992 0.66157 0.8032 0.0
N2069 N 0.77201 0.68707 0.7616 0.0
H2070 H 0.75856 0.6849 0.6366 0.0
H2071 H 0.75829 0.62044 0.5488 0.0
H2072 H 0.72149 0.62512 0.63035 0.0
H2073 H 0.80051 0.678 0.56269 0.0
H2074 H 0.74316 0.62183 0.5771 0.0
H2075 H 0.77229 0.68263 0.6079 0.0
C2076 C 0.75324 0.67125 0.62918 0.0
C2077 C 0.73883 0.65515 0.63602 0.0
C2078 C 0.75571 0.63414 0.57388 0.0
C2079 C 0.75466 0.65248 0.60286 0.0
C2080 C 0.76442 0.63336 0.55776 0.0
C2081 C 0.78072 0.64916 0.55318 0.0
C2082 C 0.76329 0.65087 0.58551 0.0
C2083 C 0.78782 0.66555 0.56529 0.0
C2084 C 0.76116 0.66997 0.61275 0.0
C2085 C 0.73259 0.63789 0.62566 0.0
N2086 N 0.77908 0.66596 0.5808 0.0
N2087 N 0.74054 0.637 0.60958 0.0
H2088 H 0.33057 0.0521 0.62117 0.0
H2089 H 0.38774 0.15337 0.58418 0.0
H2090 H 0.38196 0.09475 0.64937 0.0
H2091 H 0.34618 0.10541 0.54934 0.0
H2092 H 0.38617 0.13252 0.60822 0.0
H2093 H 0.33614 0.07165 0.5948 0.0
C2094 C 0.34312 0.06554 0.62174 0.0
C2095 C 0.35577 0.07185 0.63755 0.0
C2096 C 0.37752 0.12657 0.59524 0.0
C2097 C 0.36215 0.09446 0.60743 0.0
C2098 C 0.37845 0.13845 0.58144 0.0
C2099 C 0.36694 0.1312 0.56472 0.0
C2100 C 0.36487 0.1073 0.5924 0.0
C2101 C 0.35501 0.11174 0.56216 0.0
C2102 C 0.34632 0.07669 0.60664 0.0
C2103 C 0.37186 0.08934 0.63745 0.0
N2104 N 0.35418 0.10052 0.57589 0.0
N2105 N 0.37448 0.10017 0.62272 0.0
H2106 H 0.93341 0.23249 0.67079 0.0
H2107 H 0.87867 0.24853 0.58638 0.0
H2108 H 0.92156 0.27759 0.67317 0.0
H2109 H 0.88336 0.19908 0.58929 0.0
H2110 H 0.8939 0.25943 0.61818 0.0
H2111 H 0.91517 0.2203 0.64075 0.0
C2112 C 0.92696 0.23984 0.66501 0.0
C2113 C 0.9291 0.25615 0.67453 0.0
C2114 C 0.89149 0.24614 0.61188 0.0
C2115 C 0.90812 0.24222 0.63998 0.0
C2116 C 0.88268 0.23985 0.59377 0.0
C2117 C 0.87987 0.22293 0.58504 0.0
C2118 C 0.89757 0.23547 0.62131 0.0
C2119 C 0.88557 0.21239 0.59526 0.0
C2120 C 0.91647 0.23282 0.64786 0.0
C2121 C 0.9203 0.26499 0.66634 0.0
N2122 N 0.89424 0.21888 0.61276 0.0
N2123 N 0.91028 0.25797 0.64948 0.0
H2124 H 0.31959 0.24183 0.66616 0.0
H2125 H 0.38454 0.2555 0.58411 0.0
H2126 H 0.37078 0.29357 0.66373 0.0
H2127 H 0.34955 0.2014 0.60492 0.0
H2128 H 0.37893 0.27032 0.61159 0.0
H2129 H 0.32887 0.2273 0.64157 0.0
C2130 C 0.33278 0.25015 0.66042 0.0
C2131 C 0.34442 0.26896 0.66695 0.0
C2132 C 0.37268 0.25522 0.6102 0.0
C2133 C 0.35506 0.2524 0.63874 0.0
C2134 C 0.37597 0.24671 0.59458 0.0
C2135 C 0.36741 0.22708 0.59203 0.0
C2136 C 0.3605 0.24405 0.6232 0.0
C2137 C 0.35613 0.21652 0.60599 0.0
C2138 C 0.33812 0.2418 0.64649 0.0
C2139 C 0.36142 0.27902 0.6591 0.0
N2140 N 0.35281 0.22511 0.62081 0.0
N2141 N 0.36617 0.27067 0.64523 0.0
H2142 H 0.72331 0.10408 0.6297 0.0
H2143 H 0.79181 0.11583 0.5495 0.0
H2144 H 0.74335 0.06605 0.61791 0.0
H2145 H 0.77649 0.15719 0.56392 0.0
H2146 H 0.7719 0.09619 0.5728 0.0
H2147 H 0.74024 0.12231 0.6038 0.0
C2148 C 0.73111 0.09945 0.62158 0.0
C2149 C 0.73198 0.08355 0.6261 0.0
C2150 C 0.77283 0.10954 0.57087 0.0
C2151 C 0.75142 0.1044 0.5965 0.0
C2152 C 0.78431 0.12083 0.55762 0.0
C2153 C 0.78602 0.13831 0.55485 0.0
C2154 C 0.76291 0.1157 0.58153 0.0
C2155 C 0.77556 0.1438 0.5655 0.0
C2156 C 0.74082 0.10991 0.60684 0.0
C2157 C 0.74234 0.07826 0.61507 0.0
N2158 N 0.76453 0.13258 0.57844 0.0
N2159 N 0.75168 0.08868 0.60088 0.0
H2160 H 0.92762 0.6926 0.66013 0.0
H2161 H 0.85003 0.62186 0.58152 0.0
H2162 H 0.90006 0.63254 0.66221 0.0
H2163 H 0.88613 0.68078 0.57555 0.0
H2164 H 0.86607 0.62539 0.61226 0.0
H2165 H 0.91014 0.68843 0.63047 0.0
C2166 C 0.91784 0.67851 0.6544 0.0
C2167 C 0.91538 0.6629 0.6637 0.0
C2168 C 0.87039 0.63753 0.60421 0.0
C2169 C 0.89522 0.65802 0.62955 0.0
C2170 C 0.86129 0.63552 0.58663 0.0
C2171 C 0.86663 0.65106 0.57589 0.0
C2172 C 0.8849 0.6552 0.61114 0.0
C2173 C 0.88121 0.66846 0.5834 0.0
C2174 C 0.90787 0.67614 0.63739 0.0
C2175 C 0.90247 0.64498 0.65551 0.0
N2176 N 0.88979 0.67003 0.6005 0.0
N2177 N 0.89287 0.64302 0.63889 0.0
H2178 H 0.9204 0.65143 0.77157 0.0
H2179 H 0.89459 0.71384 0.83814 0.0
H2180 H 0.93956 0.70957 0.76343 0.0
H2181 H 0.88709 0.66025 0.85173 0.0
H2182 H 0.91124 0.71307 0.81094 0.0
H2183 H 0.90796 0.65469 0.80091 0.0
C2184 C 0.92205 0.66493 0.77598 0.0
C2185 C 0.93097 0.68023 0.76494 0.0
C2186 C 0.90605 0.70156 0.81997 0.0
C2187 C 0.91658 0.68404 0.79865 0.0
C2188 C 0.89661 0.70202 0.83557 0.0
C2189 C 0.88922 0.68699 0.84718 0.0
C2190 C 0.90803 0.68591 0.8159 0.0
C2191 C 0.89214 0.67196 0.84298 0.0
C2192 C 0.91498 0.6668 0.79281 0.0
C2193 C 0.93279 0.69741 0.7715 0.0
N2194 N 0.90117 0.67175 0.82765 0.0
N2195 N 0.9255 0.69881 0.78786 0.0
H2196 H 0.28705 0.24314 0.75002 0.0
H2197 H 0.33467 0.22942 0.84284 0.0
H2198 H 0.3428 0.28143 0.77194 0.0
H2199 H 0.28105 0.18754 0.81844 0.0
H2200 H 0.33622 0.25023 0.81892 0.0
H2201 H 0.28291 0.22434 0.77702 0.0
C2202 C 0.29834 0.24773 0.7606 0.0
C2203 C 0.31536 0.26382 0.7586 0.0
C2204 C 0.32406 0.23653 0.8188 0.0
C2205 C 0.31072 0.24234 0.78945 0.0
C2206 C 0.32321 0.22458 0.83242 0.0
C2207 C 0.30781 0.20659 0.8325 0.0
C2208 C 0.30942 0.2305 0.80507 0.0
C2209 C 0.29318 0.2013 0.81893 0.0
C2210 C 0.29599 0.23694 0.77596 0.0
C2211 C 0.32949 0.26906 0.77276 0.0
N2212 N 0.2944 0.21314 0.80566 0.0
N2213 N 0.32688 0.25831 0.78748 0.0
H2214 H 0.74239 0.10105 0.72675 0.0
H2215 H 0.79292 0.08106 0.81223 0.0
H2216 H 0.74884 0.05244 0.72595 0.0
H2217 H 0.79236 0.13267 0.80826 0.0
H2218 H 0.77766 0.07049 0.78041 0.0
H2219 H 0.76109 0.11282 0.75652 0.0
C2220 C 0.74776 0.09284 0.73281 0.0
C2221 C 0.74394 0.07566 0.72384 0.0
C2222 C 0.781 0.08418 0.78647 0.0
C2223 C 0.76544 0.08912 0.75811 0.0
C2224 C 0.78981 0.09027 0.80459 0.0
C2225 C 0.79377 0.10771 0.81302 0.0
C2226 C 0.77607 0.09559 0.77674 0.0
C2227 C 0.78924 0.11896 0.8025 0.0
C2228 C 0.75851 0.09962 0.74983 0.0
C2229 C 0.75141 0.06573 0.73237 0.0
N2230 N 0.78055 0.11266 0.78501 0.0
N2231 N 0.76171 0.07255 0.7491 0.0
H2232 H 0.08174 0.38699 0.04158 0.0
H2233 H 0.07994 0.30874 0.10499 0.0
H2234 H 0.03237 0.33446 0.04767 0.0
H2235 H 0.12925 0.35903 0.093 0.0
H2236 H 0.06213 0.31716 0.08361 0.0
H2237 H 0.09929 0.37624 0.05974 0.0
C2238 C 0.0746 0.3731 0.04661 0.0
C2239 C 0.05554 0.36165 0.04316 0.0
C2240 C 0.07686 0.32632 0.08567 0.0
C2241 C 0.07558 0.34926 0.06426 0.0
C2242 C 0.08703 0.32151 0.09784 0.0
C2243 C 0.1061 0.33333 0.10104 0.0
C2244 C 0.08584 0.34305 0.0766 0.0
C2245 C 0.11454 0.34972 0.0914 0.0
C2246 C 0.08464 0.36696 0.05703 0.0
C2247 C 0.04705 0.34375 0.04999 0.0
N2248 N 0.10437 0.35409 0.07972 0.0
N2249 N 0.05711 0.33816 0.06038 0.0
H2250 H 0.66762 0.68237 0.07449 0.0
H2251 H 0.65242 0.74922 0.14671 0.0
H2252 H 0.6151 0.66877 0.09475 0.0
H2253 H 0.69609 0.77181 0.10887 0.0
H2254 H 0.64152 0.71804 0.13171 0.0
H2255 H 0.68094 0.71399 0.09037 0.0
C2256 C 0.6589 0.68604 0.0822 0.0
C2257 C 0.64021 0.67296 0.08324 0.0
C2258 C 0.65352 0.72982 0.12672 0.0
C2259 C 0.65538 0.70874 0.10164 0.0
C2260 C 0.65974 0.74765 0.13524 0.0
C2261 C 0.67501 0.76327 0.12882 0.0
C2262 C 0.66271 0.72742 0.11177 0.0
C2263 C 0.68428 0.7602 0.1143 0.0
C2264 C 0.6665 0.70404 0.09123 0.0
C2265 C 0.62954 0.67841 0.09346 0.0
N2266 N 0.67792 0.7426 0.10617 0.0
N2267 N 0.6373 0.69581 0.10235 0.0
H2268 H 0.32587 0.98019 0.04336 0.0
H2269 H 0.24121 0.88516 0.07377 0.0
H2270 H 0.31909 0.92551 0.03027 0.0
H2271 H 0.2569 0.93977 0.0999 0.0
H2272 H 0.26654 0.89983 0.05336 0.0
H2273 H 0.29732 0.96558 0.05943 0.0
C2274 C 0.31825 0.96509 0.04361 0.0
C2275 C 0.32495 0.95406 0.03554 0.0
C2276 C 0.26438 0.90861 0.0635 0.0
C2277 C 0.2923 0.93729 0.05397 0.0
C2278 C 0.24996 0.90024 0.07526 0.0
C2279 C 0.247 0.91118 0.08884 0.0
C2280 C 0.27592 0.92812 0.06515 0.0
C2281 C 0.25854 0.93073 0.08963 0.0
C2282 C 0.30201 0.95678 0.05289 0.0
C2283 C 0.3145 0.93457 0.03637 0.0
N2284 N 0.27253 0.93855 0.07803 0.0
N2285 N 0.29875 0.92682 0.04549 0.0
H2286 H 0.39765 0.07033 0.00568 0.0
H2287 H 0.30895 0.07701 0.97547 0.0
H2288 H 0.34257 0.02449 0.00982 0.0
H2289 H 0.36254 0.11156 0.95511 0.0
H2290 H 0.32108 0.06 0.99255 0.0
H2291 H 0.38502 0.08848 0.99234 0.0
C2292 C 0.38289 0.06414 0.004 0.0
C2293 C 0.37116 0.0458 0.00876 0.0
C2294 C 0.33014 0.07139 0.9844 0.0
C2295 C 0.35659 0.06654 0.99338 0.0
C2296 C 0.32322 0.08106 0.97455 0.0
C2297 C 0.33471 0.09587 0.96381 0.0
C2298 C 0.34871 0.07668 0.98369 0.0
C2299 C 0.35318 0.10059 0.96347 0.0
C2300 C 0.37568 0.0745 0.99628 0.0
C2301 C 0.35212 0.03855 0.00625 0.0
N2302 N 0.35957 0.09108 0.97325 0.0
N2303 N 0.34541 0.04892 0.99866 0.0
H2304 H 0.98151 0.30217 0.99731 0.0
H2305 H 0.87869 0.22687 0.95845 0.0
H2306 H 0.93496 0.31026 1.00075 0.0
H2307 H 0.92452 0.21844 0.95023 0.0
H2308 H 0.89917 0.25637 0.97653 0.0
H2309 H 0.96093 0.27033 0.98287 0.0
C2310 C 0.96696 0.29718 0.99525 0.0
C2311 C 0.95996 0.30893 1.00012 0.0
C2312 C 0.90483 0.24813 0.97081 0.0
C2313 C 0.93644 0.27268 0.98359 0.0
C2314 C 0.89314 0.23131 0.96034 0.0
C2315 C 0.89996 0.22033 0.9525 0.0
C2316 C 0.9236 0.25416 0.97354 0.0
C2317 C 0.91871 0.22653 0.95596 0.0
C2318 C 0.95525 0.27906 0.98694 0.0
C2319 C 0.94101 0.30177 0.9971 0.0
N2320 N 0.92994 0.24314 0.96612 0.0
N2321 N 0.92997 0.2842 0.98897 0.0
H2322 H 0.69114 0.65215 0.04681 0.0
H2323 H 0.74659 0.62756 0.97397 0.0
H2324 H 0.68019 0.59605 0.03238 0.0
H2325 H 0.76891 0.68329 1.00089 0.0
H2326 H 0.72138 0.61632 0.99445 0.0
H2327 H 0.71918 0.66444 0.02975 0.0
C2328 C 0.69474 0.64243 0.0403 0.0
C2329 C 0.68322 0.62302 0.04094 0.0
C2330 C 0.73185 0.631 0.996 0.0
C2331 C 0.71503 0.63696 0.02119 0.0
C2332 C 0.74637 0.63746 0.98433 0.0
C2333 C 0.76014 0.65643 0.98576 0.0
C2334 C 0.73078 0.64357 0.00911 0.0
C2335 C 0.75858 0.66859 0.99911 0.0
C2336 C 0.71072 0.64946 0.03054 0.0
C2337 C 0.68857 0.6111 0.03222 0.0
N2338 N 0.74414 0.66197 0.01023 0.0
N2339 N 0.70394 0.61825 0.02256 0.0
H2340 H 0.9738 0.66911 0.02007 0.0
H2341 H 0.87736 0.64198 0.9667 0.0
H2342 H 0.92439 0.61534 0.02049 0.0
H2343 H 0.92595 0.69612 0.96463 0.0
H2344 H 0.89445 0.63281 0.98765 0.0
H2345 H 0.95652 0.68024 0.00153 0.0
C2346 C 0.95929 0.65972 0.01648 0.0
C2347 C 0.95055 0.64122 0.02178 0.0
C2348 C 0.90146 0.6467 0.98263 0.0
C2349 C 0.93078 0.65381 1.00044 0.0
C2350 C 0.89173 0.6519 0.97048 0.0
C2351 C 0.90031 0.66975 0.9636 0.0
C2352 C 0.92001 0.65941 0.98805 0.0
C2353 C 0.91881 0.6822 0.96955 0.0
C2354 C 0.94946 0.66606 0.00582 0.0
C2355 C 0.93174 0.62967 0.01667 0.0
N2356 N 0.92808 0.67676 0.98136 0.0
N2357 N 0.92255 0.63612 0.00623 0.0
H2358 H 0.33242 0.31922 0.98223 0.0
H2359 H 0.3548 0.23958 0.94818 0.0
H2360 H 0.38605 0.32473 0.98788 0.0
H2361 H 0.302 0.2347 0.93613 0.0
H2362 H 0.36543 0.2698 0.96524 0.0
H2363 H 0.31996 0.28721 0.96797 0.0
C2364 C 0.34153 0.31365 0.98064 0.0
C2365 C 0.36033 0.3247 0.98617 0.0
C2366 C 0.35151 0.26218 0.95888 0.0
C2367 C 0.3462 0.28821 0.96987 0.0
C2368 C 0.34546 0.24494 0.949 0.0
C2369 C 0.32757 0.23472 0.94041 0.0
C2370 C 0.33962 0.26937 0.96028 0.0
C2371 C 0.31591 0.24214 0.9425 0.0
C2372 C 0.33442 0.29542 0.97245 0.0
C2373 C 0.3715 0.31679 0.98375 0.0
N2374 N 0.32217 0.25909 0.95214 0.0
N2375 N 0.36429 0.2991 0.97574 0.0
H2376 H 0.68351 0.02838 0.03323 0.0
H2377 H 0.74301 0.10857 0.96655 0.0
H2378 H 0.67744 0.0766 0.02634 0.0
H2379 H 0.76181 0.07267 0.98821 0.0
H2380 H 0.71781 0.0955 0.98707 0.0
H2381 H 0.71139 0.04304 0.01593 0.0
C2382 C 0.68815 0.04214 0.02831 0.0
C2383 C 0.67807 0.05125 0.03119 0.0
C2384 C 0.72751 0.09055 0.98744 0.0
C2385 C 0.7097 0.06789 0.01113 0.0
C2386 C 0.74202 0.09809 0.97576 0.0
C2387 C 0.75482 0.09193 0.97572 0.0
C2388 C 0.72544 0.07647 0.99905 0.0
C2389 C 0.75227 0.07779 0.98758 0.0
C2390 C 0.70404 0.05047 0.01842 0.0
C2391 C 0.68473 0.06904 0.02446 0.0
N2392 N 0.73784 0.07049 0.99872 0.0
N2393 N 0.69998 0.07666 0.01459 0.0
H2394 H 0.66217 0.9799 0.05616 0.0
H2395 H 0.64261 0.8915 0.11179 0.0
H2396 H 0.60784 0.93373 0.06278 0.0
H2397 H 0.69486 0.92558 0.08858 0.0
H2398 H 0.6304 0.9084 0.09538 0.0
H2399 H 0.67518 0.96166 0.069 0.0
C2400 C 0.65298 0.96588 0.0601 0.0
C2401 C 0.63387 0.95837 0.05848 0.0
C2402 C 0.6445 0.91211 0.09372 0.0
C2403 C 0.64866 0.93763 0.07339 0.0
C2404 C 0.65151 0.90236 0.10303 0.0
C2405 C 0.66978 0.90685 0.10139 0.0
C2406 C 0.65585 0.92677 0.08287 0.0
C2407 C 0.68074 0.92165 0.09036 0.0
C2408 C 0.66042 0.9555 0.06743 0.0
C2409 C 0.62263 0.94013 0.06381 0.0
N2410 N 0.67362 0.93114 0.08156 0.0
N2411 N 0.63019 0.93049 0.07119 0.0
H2412 H 0.02813 0.70127 0.05933 0.0
H2413 H 0.10926 0.75995 0.13832 0.0
H2414 H 0.06508 0.68334 0.08032 0.0
H2415 H 0.09376 0.7881 0.09818 0.0
H2416 H 0.088 0.73009 0.12106 0.0
H2417 H 0.0477 0.732 0.07681 0.0
C2418 C 0.04036 0.70382 0.06751 0.0
C2419 C 0.04503 0.68977 0.06832 0.0
C2420 C 0.08922 0.74282 0.11608 0.0
C2421 C 0.06702 0.72445 0.08857 0.0
C2422 C 0.1014 0.7599 0.12588 0.0
C2423 C 0.10363 0.77668 0.11952 0.0
C2424 C 0.07891 0.74236 0.09991 0.0
C2425 C 0.09251 0.77555 0.10365 0.0
C2426 C 0.05147 0.72129 0.07744 0.0
C2427 C 0.061 0.69377 0.07917 0.0
N2428 N 0.08065 0.75866 0.09432 0.0
N2429 N 0.07129 0.71064 0.08899 0.0
H2430 H 0.31416 0.34677 0.02347 0.0
H2431 H 0.24434 0.3685 0.07705 0.0
H2432 H 0.31716 0.40047 0.02667 0.0
H2433 H 0.24313 0.31579 0.07799 0.0
H2434 H 0.26885 0.37911 0.05551 0.0
H2435 H 0.28585 0.33381 0.03996 0.0
C2436 C 0.30873 0.35578 0.02737 0.0
C2437 C 0.31814 0.37479 0.02379 0.0
C2438 C 0.26319 0.36518 0.06033 0.0
C2439 C 0.28583 0.36007 0.04282 0.0
C2440 C 0.24925 0.35914 0.07274 0.0
C2441 C 0.24181 0.34131 0.07957 0.0
C2442 C 0.26987 0.35334 0.05466 0.0
C2443 C 0.24843 0.32963 0.07307 0.0
C2444 C 0.29261 0.34838 0.03687 0.0
C2445 C 0.31046 0.38578 0.02922 0.0
N2446 N 0.26218 0.33591 0.06111 0.0
N2447 N 0.29487 0.3783 0.03856 0.0
H2448 H 0.74058 0.72594 0.39288 0.0
H2449 H 0.75589 0.64263 0.42087 0.0
H2450 H 0.70054 0.66852 0.37501 0.0
H2451 H 0.77889 0.69554 0.45401 0.0
H2452 H 0.73712 0.65157 0.40165 0.0
H2453 H 0.75733 0.7151 0.41221 0.0
C2454 C 0.73537 0.71103 0.39287 0.0
C2455 C 0.71909 0.69812 0.3823 0.0
C2456 C 0.74622 0.66111 0.41322 0.0
C2457 C 0.73828 0.68559 0.40457 0.0
C2458 C 0.75685 0.65599 0.4243 0.0
C2459 C 0.76921 0.66843 0.43901 0.0
C2460 C 0.74814 0.67887 0.41673 0.0
C2461 C 0.76996 0.68566 0.44257 0.0
C2462 C 0.74489 0.70484 0.40405 0.0
C2463 C 0.71302 0.67894 0.38296 0.0
N2464 N 0.75976 0.69042 0.43142 0.0
N2465 N 0.72266 0.67323 0.39389 0.0
H2466 H 0.27971 0.00509 0.42474 0.0
H2467 H 0.36569 0.10762 0.44749 0.0
H2468 H 0.3345 0.01795 0.41317 0.0
H2469 H 0.31468 0.08657 0.47434 0.0
H2470 H 0.35478 0.07602 0.43286 0.0
H2471 H 0.29226 0.03633 0.4402 0.0
C2472 C 0.29441 0.01453 0.42536 0.0
C2473 C 0.30607 0.00887 0.41763 0.0
C2474 C 0.34607 0.07838 0.44204 0.0
C2475 C 0.32059 0.04483 0.43545 0.0
C2476 C 0.3523 0.09637 0.45048 0.0
C2477 C 0.341 0.09987 0.46201 0.0
C2478 C 0.32837 0.06385 0.44502 0.0
C2479 C 0.32371 0.08472 0.46521 0.0
C2480 C 0.30158 0.03236 0.43431 0.0
C2481 C 0.32502 0.02174 0.41896 0.0
N2482 N 0.3179 0.06748 0.45665 0.0
N2483 N 0.33172 0.03919 0.42765 0.0
H2484 H 0.98929 0.2555 0.36305 0.0
H2485 H 0.92661 0.27064 0.43386 0.0
H2486 H 0.99577 0.30988 0.37723 0.0
H2487 H 0.90988 0.21712 0.40428 0.0
H2488 H 0.95224 0.28536 0.41377 0.0
H2489 H 0.96049 0.24108 0.37862 0.0
C2490 C 0.98456 0.26439 0.36926 0.0
C2491 C 0.99499 0.28393 0.36889 0.0
C2492 C 0.94286 0.27042 0.41159 0.0
C2493 C 0.96217 0.26754 0.387 0.0
C2494 C 0.92812 0.26198 0.42301 0.0
C2495 C 0.91605 0.24252 0.42095 0.0
C2496 C 0.94573 0.25932 0.39814 0.0
C2497 C 0.91902 0.23207 0.40677 0.0
C2498 C 0.96811 0.25616 0.37814 0.0
C2499 C 0.98817 0.29476 0.37717 0.0
N2500 N 0.93363 0.24056 0.39607 0.0
N2501 N 0.97231 0.28644 0.38609 0.0
H2502 H 0.01198 0.35066 0.33274 0.0
H2503 H 0.02751 0.45252 0.31707 0.0
H2504 H 0.06355 0.40162 0.34698 0.0
H2505 H 0.98633 0.40236 0.2846 0.0
H2506 H 0.03755 0.43371 0.33376 0.0
H2507 H 0.99905 0.36928 0.32092 0.0
C2508 C 0.02051 0.36578 0.33363 0.0
C2509 C 0.03892 0.37461 0.34073 0.0
C2510 C 0.02623 0.42684 0.32307 0.0
C2511 C 0.02419 0.39592 0.3273 0.0
C2512 C 0.02053 0.43757 0.31344 0.0
C2513 C 0.00617 0.42912 0.29916 0.0
C2514 C 0.0174 0.40745 0.31861 0.0
C2515 C 0.99734 0.40956 0.29556 0.0
C2516 C 0.01314 0.37636 0.3268 0.0
C2517 C 0.04934 0.39423 0.3415 0.0
N2518 N 0.00315 0.39942 0.30515 0.0
N2519 N 0.04184 0.40423 0.33482 0.0
H2520 H 0.64037 0.63484 0.33676 0.0
H2521 H 0.55099 0.57299 0.26689 0.0
H2522 H 0.60164 0.6519 0.31955 0.0
H2523 H 0.57712 0.54798 0.29795 0.0
H2524 H 0.57271 0.60331 0.28293 0.0
H2525 H 0.62009 0.6039 0.32008 0.0
C2526 C 0.6276 0.63207 0.32958 0.0
C2527 C 0.62268 0.64597 0.32958 0.0
C2528 C 0.57373 0.59121 0.28626 0.0
C2529 C 0.59972 0.6109 0.31031 0.0
C2530 C 0.56129 0.57386 0.27712 0.0
C2531 C 0.56201 0.55781 0.2813 0.0
C2532 C 0.58716 0.5927 0.29963 0.0
C2533 C 0.57607 0.55997 0.29427 0.0
C2534 C 0.61608 0.61445 0.32007 0.0
C2535 C 0.60601 0.64164 0.32001 0.0
N2536 N 0.58807 0.5771 0.30307 0.0
N2537 N 0.59523 0.62458 0.3107 0.0
H2538 H 0.35607 0.98335 0.37828 0.0
H2539 H 0.4075 0.95192 0.30647 0.0
H2540 H 0.3419 0.92591 0.36581 0.0
H2541 H 0.43221 0.00878 0.33109 0.0
H2542 H 0.38266 0.94265 0.32727 0.0
H2543 H 0.38353 0.99352 0.36061 0.0
C2544 C 0.35883 0.9729 0.37205 0.0
C2545 C 0.3466 0.95374 0.37348 0.0
C2546 C 0.39356 0.95714 0.32823 0.0
C2547 C 0.37778 0.96525 0.35302 0.0
C2548 C 0.40788 0.96247 0.31639 0.0
C2549 C 0.42219 0.98119 0.31705 0.0
C2550 C 0.39327 0.9706 0.34076 0.0
C2551 C 0.42144 0.99424 0.32987 0.0
C2552 C 0.37449 0.97871 0.36194 0.0
C2553 C 0.35088 0.94082 0.36507 0.0
N2554 N 0.40719 0.98872 0.34117 0.0
N2555 N 0.36597 0.9468 0.35507 0.0
H2556 H 0.63806 0.99552 0.35047 0.0
H2557 H 0.54111 0.96357 0.29519 0.0
H2558 H 0.59056 0.94016 0.34964 0.0
H2559 H 0.58775 0.01933 0.29468 0.0
H2560 H 0.55917 0.95533 0.3159 0.0
H2561 H 0.61988 0.00526 0.33137 0.0
C2562 C 0.62377 0.98548 0.34647 0.0
C2563 C 0.61584 0.96697 0.35163 0.0
C2564 C 0.56554 0.96937 0.31126 0.0
C2565 C 0.59506 0.97796 0.32965 0.0
C2566 C 0.55526 0.97405 0.29924 0.0
C2567 C 0.56298 0.99211 0.29293 0.0
C2568 C 0.58376 0.98283 0.31713 0.0
C2569 C 0.58123 0.00524 0.2992 0.0
C2570 C 0.61344 0.99103 0.33549 0.0
C2571 C 0.5973 0.95455 0.34596 0.0
N2572 N 0.59103 0.00033 0.3109 0.0
N2573 N 0.5876 0.96024 0.33525 0.0
H2574 H 0.05643 0.66093 0.32511 0.0
H2575 H 0.97564 0.5691 0.26737 0.0
H2576 H 0.00221 0.65277 0.31356 0.0
H2577 H 0.02957 0.57787 0.28241 0.0
H2578 H 0.98433 0.59904 0.28477 0.0
H2579 H 0.04609 0.62991 0.31017 0.0
C2580 C 0.04229 0.65256 0.31951 0.0
C2581 C 0.03019 0.65951 0.32053 0.0
C2582 C 0.99423 0.59437 0.28425 0.0
C2583 C 0.01821 0.62382 0.30318 0.0
C2584 C 0.98927 0.57728 0.27436 0.0
C2585 C 0.00197 0.57107 0.27323 0.0
C2586 C 0.01199 0.60527 0.29309 0.0
C2587 C 0.01946 0.58227 0.28251 0.0
C2588 C 0.03637 0.6348 0.31094 0.0
C2589 C 0.01199 0.64795 0.31307 0.0
N2590 N 0.02393 0.59878 0.29198 0.0
N2591 N 0.00657 0.63069 0.30458 0.0
H2592 H 0.34396 0.40924 0.36422 0.0
H2593 H 0.41811 0.39579 0.30917 0.0
H2594 H 0.34513 0.35762 0.36094 0.0
H2595 H 0.41542 0.44656 0.31185 0.0
H2596 H 0.39346 0.38249 0.33077 0.0
H2597 H 0.37223 0.42409 0.34793 0.0
C2598 C 0.35028 0.40107 0.36029 0.0
C2599 C 0.34206 0.38211 0.36384 0.0
C2600 C 0.39834 0.39658 0.32671 0.0
C2601 C 0.37441 0.399 0.34492 0.0
C2602 C 0.41246 0.40421 0.31444 0.0
C2603 C 0.4187 0.42224 0.30851 0.0
C2604 C 0.39043 0.40709 0.33314 0.0
C2605 C 0.41079 0.43246 0.31571 0.0
C2606 C 0.36642 0.40955 0.35091 0.0
C2607 C 0.35094 0.37226 0.35843 0.0
N2608 N 0.39705 0.42472 0.32754 0.0
N2609 N 0.36653 0.38077 0.34909 0.0
H2610 H 0.27389 0.26338 0.38898 0.0
H2611 H 0.36406 0.26883 0.43653 0.0
H2612 H 0.3268 0.31403 0.39465 0.0
H2613 H 0.31071 0.21881 0.43028 0.0
H2614 H 0.35175 0.28492 0.41807 0.0
H2615 H 0.28813 0.24617 0.4009 0.0
C2616 C 0.28855 0.27086 0.39256 0.0
C2617 C 0.29913 0.29021 0.39097 0.0
C2618 C 0.34279 0.27038 0.42061 0.0
C2619 C 0.31557 0.27058 0.40485 0.0
C2620 C 0.34983 0.26117 0.43105 0.0
C2621 C 0.33832 0.24253 0.43515 0.0
C2622 C 0.32413 0.26085 0.4142 0.0
C2623 C 0.31998 0.2333 0.42779 0.0
C2624 C 0.2967 0.26102 0.3994 0.0
C2625 C 0.3181 0.29913 0.39573 0.0
N2626 N 0.31344 0.24258 0.41782 0.0
N2627 N 0.32569 0.28928 0.40264 0.0
H2628 H 0.73747 0.01768 0.39807 0.0
H2629 H 0.74907 0.11178 0.449 0.0
H2630 H 0.69216 0.02765 0.40256 0.0
H2631 H 0.79334 0.10068 0.44155 0.0
H2632 H 0.72797 0.08186 0.43109 0.0
H2633 H 0.75812 0.04887 0.41287 0.0
C2634 C 0.73186 0.02649 0.40208 0.0
C2635 C 0.71303 0.01999 0.39915 0.0
C2636 C 0.74231 0.08602 0.43339 0.0
C2637 C 0.7367 0.05588 0.41636 0.0
C2638 C 0.75436 0.1031 0.44357 0.0
C2639 C 0.77296 0.10864 0.44701 0.0
C2640 C 0.74897 0.07449 0.42656 0.0
C2641 C 0.77905 0.09682 0.43966 0.0
C2642 C 0.74369 0.04435 0.41057 0.0
C2643 C 0.7066 0.03211 0.40456 0.0
N2644 N 0.76711 0.08035 0.42986 0.0
N2645 N 0.7184 0.04946 0.41305 0.0
H2646 H 0.98185 0.68127 0.35944 0.0
H2647 H 0.91263 0.70326 0.41394 0.0
H2648 H 0.98526 0.73516 0.36334 0.0
H2649 H 0.90853 0.64908 0.41117 0.0
H2650 H 0.93769 0.71423 0.39308 0.0
H2651 H 0.95336 0.66823 0.37566 0.0
C2652 C 0.97649 0.69031 0.36345 0.0
C2653 C 0.98605 0.70939 0.36011 0.0
C2654 C 0.9313 0.6999 0.39693 0.0
C2655 C 0.95353 0.69458 0.37885 0.0
C2656 C 0.91703 0.69365 0.40895 0.0
C2657 C 0.90859 0.67528 0.41454 0.0
C2658 C 0.93734 0.68775 0.39041 0.0
C2659 C 0.91461 0.66335 0.40723 0.0
C2660 C 0.96025 0.68286 0.37279 0.0
C2661 C 0.97845 0.72041 0.36569 0.0
N2662 N 0.92872 0.66983 0.39568 0.0
N2663 N 0.96276 0.71289 0.37487 0.0
H2664 H 0.37226 0.00427 0.70463 0.0
H2665 H 0.44333 0.03047 0.79354 0.0
H2666 H 0.40669 0.06055 0.72998 0.0
H2667 H 0.43042 0.98377 0.75368 0.0
H2668 H 0.425 0.03875 0.77319 0.0
H2669 H 0.38925 0.99384 0.72488 0.0
C2670 C 0.38343 0.01443 0.71433 0.0
C2671 C 0.38811 0.03332 0.71557 0.0
C2672 C 0.42614 0.02665 0.76894 0.0
C2673 C 0.40715 0.02144 0.73895 0.0
C2674 C 0.43665 0.02192 0.78053 0.0
C2675 C 0.43873 0.00655 0.77523 0.0
C2676 C 0.41736 0.01583 0.75199 0.0
C2677 C 0.42918 0.99568 0.75843 0.0
C2678 C 0.39307 0.00847 0.72586 0.0
C2679 C 0.40265 0.04588 0.72844 0.0
N2680 N 0.41894 0.00056 0.74736 0.0
N2681 N 0.41152 0.03969 0.73972 0.0
H2682 H 0.94665 0.33088 0.76153 0.0
H2683 H 0.01999 0.43855 0.77037 0.0
H2684 H 0.99874 0.35036 0.73735 0.0
H2685 H 0.98561 0.41107 0.81552 0.0
H2686 H 0.01082 0.40777 0.75483 0.0
H2687 H 0.95842 0.3619 0.77756 0.0
C2688 C 0.96052 0.34174 0.75945 0.0
C2689 C 0.97174 0.33806 0.74808 0.0
C2690 C 0.00544 0.4086 0.7682 0.0
C2691 C 0.98524 0.3736 0.76635 0.0
C2692 C 0.01073 0.42615 0.77719 0.0
C2693 C 0.00343 0.42754 0.79427 0.0
C2694 C 0.99251 0.39237 0.77615 0.0
C2695 C 0.99123 0.41083 0.80215 0.0
C2696 C 0.96726 0.35938 0.76873 0.0
C2697 C 0.98968 0.35264 0.74603 0.0
N2698 N 0.98598 0.39399 0.79292 0.0
N2699 N 0.99587 0.36989 0.75498 0.0
H2700 H 0.66029 0.64442 0.70872 0.0
H2701 H 0.57698 0.54931 0.74086 0.0
H2702 H 0.65509 0.59016 0.69768 0.0
H2703 H 0.59126 0.60415 0.76517 0.0
H2704 H 0.60244 0.56394 0.72058 0.0
H2705 H 0.6317 0.62962 0.7247 0.0
C2706 C 0.65301 0.62936 0.70939 0.0
C2707 C 0.66017 0.61852 0.70194 0.0
C2708 C 0.59994 0.57276 0.7303 0.0
C2709 C 0.62747 0.60153 0.72027 0.0
C2710 C 0.58546 0.56443 0.74199 0.0
C2711 C 0.58204 0.57546 0.75501 0.0
C2712 C 0.61109 0.59233 0.73144 0.0
C2713 C 0.59323 0.59503 0.75534 0.0
C2714 C 0.63674 0.62095 0.71862 0.0
C2715 C 0.65014 0.59908 0.7033 0.0
N2716 N 0.60729 0.60282 0.74381 0.0
N2717 N 0.63436 0.59123 0.71236 0.0
H2718 H 0.73345 0.73547 0.67184 0.0
H2719 H 0.64399 0.74208 0.64514 0.0
H2720 H 0.67862 0.68942 0.67668 0.0
H2721 H 0.69749 0.77814 0.62533 0.0
H2722 H 0.65643 0.72467 0.66094 0.0
H2723 H 0.72048 0.75376 0.6597 0.0
C2724 C 0.71867 0.72925 0.67053 0.0
C2725 C 0.70711 0.71083 0.67517 0.0
C2726 C 0.66541 0.73648 0.65321 0.0
C2727 C 0.69214 0.73173 0.66115 0.0
C2728 C 0.65831 0.74639 0.6441 0.0
C2729 C 0.66968 0.76175 0.63392 0.0
C2730 C 0.68403 0.74206 0.65226 0.0
C2731 C 0.68821 0.76675 0.63333 0.0
C2732 C 0.71126 0.73969 0.6635 0.0
C2733 C 0.68804 0.70355 0.67319 0.0
N2734 N 0.69476 0.75698 0.64236 0.0
N2735 N 0.68113 0.714 0.66625 0.0
H2736 H 0.3082 0.96987 0.66961 0.0
H2737 H 0.21941 0.90567 0.59949 0.0
H2738 H 0.27138 0.98729 0.64696 0.0
H2739 H 0.24533 0.8821 0.63319 0.0
H2740 H 0.24143 0.93665 0.61395 0.0
H2741 H 0.2879 0.93835 0.65415 0.0
C2742 C 0.29585 0.96707 0.66147 0.0
C2743 C 0.29146 0.98123 0.65961 0.0
C2744 C 0.24236 0.92474 0.61821 0.0
C2745 C 0.26846 0.94547 0.64176 0.0
C2746 C 0.22976 0.90702 0.60997 0.0
C2747 C 0.23032 0.89121 0.61537 0.0
C2748 C 0.25579 0.92682 0.63195 0.0
C2749 C 0.2444 0.89392 0.62862 0.0
C2750 C 0.28431 0.94912 0.65266 0.0
C2751 C 0.27532 0.97685 0.64886 0.0
N2752 N 0.25654 0.9114 0.63658 0.0
N2753 N 0.2645 0.95943 0.64032 0.0
H2754 H 0.01821 0.31858 0.702 0.0
H2755 H 0.10317 0.30915 0.66959 0.0
H2756 H 0.0233 0.26988 0.70946 0.0
H2757 H 0.08717 0.34592 0.64461 0.0
H2758 H 0.0775 0.29868 0.68967 0.0
H2759 H 0.04717 0.33284 0.68652 0.0
C2760 C 0.02555 0.31101 0.70066 0.0
C2761 C 0.01828 0.29296 0.70693 0.0
C2762 C 0.07969 0.30912 0.67986 0.0
C2763 C 0.05137 0.3092 0.6893 0.0
C2764 C 0.0943 0.31506 0.66828 0.0
C2765 C 0.09725 0.32825 0.65507 0.0
C2766 C 0.06799 0.31654 0.67846 0.0
C2767 C 0.08556 0.33579 0.65458 0.0
C2768 C 0.04201 0.31911 0.69173 0.0
C2769 C 0.02834 0.28377 0.70473 0.0
N2770 N 0.07139 0.32976 0.66601 0.0
N2771 N 0.04434 0.29197 0.69607 0.0
H2772 H 0.26627 0.27436 0.66134 0.0
H2773 H 0.24011 0.35246 0.64821 0.0
H2774 H 0.29825 0.32868 0.69166 0.0
H2775 H 0.23417 0.31337 0.60213 0.0
H2776 H 0.25855 0.34274 0.66666 0.0
H2777 H 0.25051 0.28659 0.64226 0.0
C2778 C 0.26988 0.28884 0.66409 0.0
C2779 C 0.28357 0.30052 0.67814 0.0
C2780 C 0.25328 0.33645 0.65245 0.0
C2781 C 0.2655 0.31455 0.65637 0.0
C2782 C 0.24285 0.34206 0.64179 0.0
C2783 C 0.23537 0.33368 0.62349 0.0
C2784 C 0.25595 0.32208 0.64496 0.0
C2785 C 0.23918 0.31995 0.61627 0.0
C2786 C 0.26098 0.29583 0.65308 0.0
C2787 C 0.28779 0.31922 0.68095 0.0
N2788 N 0.24898 0.31443 0.62709 0.0
N2789 N 0.27866 0.32564 0.67025 0.0
H2790 H 0.66702 0.98664 0.64936 0.0
H2791 H 0.68932 0.90583 0.61996 0.0
H2792 H 0.7203 0.99163 0.65729 0.0
H2793 H 0.63757 0.90183 0.60384 0.0
H2794 H 0.6995 0.93612 0.63662 0.0
H2795 H 0.6546 0.95439 0.63565 0.0
C2796 C 0.67605 0.98091 0.64839 0.0
C2797 C 0.69475 0.99187 0.65439 0.0
C2798 C 0.68591 0.92868 0.62945 0.0
C2799 C 0.68068 0.95515 0.63875 0.0
C2800 C 0.68012 0.9114 0.61981 0.0
C2801 C 0.66268 0.90142 0.61017 0.0
C2802 C 0.67421 0.93618 0.62956 0.0
C2803 C 0.65115 0.90909 0.61103 0.0
C2804 C 0.66897 0.96255 0.64051 0.0
C2805 C 0.70584 0.98377 0.65275 0.0
N2806 N 0.65716 0.92611 0.62045 0.0
N2807 N 0.69865 0.96597 0.64507 0.0
H2808 H 0.01189 0.69353 0.70032 0.0
H2809 H 0.06513 0.7632 0.62316 0.0
H2810 H 0.00217 0.73804 0.68566 0.0
H2811 H 0.09268 0.74197 0.658 0.0
H2812 H 0.03951 0.75 0.64315 0.0
H2813 H 0.03967 0.70757 0.68267 0.0
C2814 C 0.01569 0.70633 0.69359 0.0
C2815 C 0.00468 0.71462 0.69445 0.0
C2816 C 0.05121 0.7483 0.64646 0.0
C2817 C 0.03602 0.73036 0.67398 0.0
C2818 C 0.06594 0.75592 0.6351 0.0
C2819 C 0.08139 0.75408 0.63903 0.0
C2820 C 0.05159 0.73835 0.66173 0.0
C2821 C 0.08111 0.74373 0.65432 0.0
C2822 C 0.03151 0.7143 0.68354 0.0
C2823 C 0.01023 0.73117 0.68544 0.0
N2824 N 0.06641 0.73621 0.66511 0.0
N2825 N 0.02535 0.73834 0.67539 0.0
H2826 H 0.93114 0.59675 0.7285 0.0
H2827 H 0.01867 0.58709 0.75611 0.0
H2828 H 0.98657 0.64142 0.7232 0.0
H2829 H 0.96464 0.55226 0.77538 0.0
H2830 H 0.00714 0.60508 0.73987 0.0
H2831 H 0.94319 0.57775 0.74079 0.0
C2832 C 0.94586 0.60252 0.72974 0.0
C2833 C 0.95786 0.62078 0.72494 0.0
C2834 C 0.99785 0.59341 0.74758 0.0
C2835 C 0.97178 0.59905 0.73917 0.0
C2836 C 0.00442 0.58318 0.75694 0.0
C2837 C 0.99262 0.56801 0.7671 0.0
C2838 C 0.97933 0.58834 0.74828 0.0
C2839 C 0.97421 0.5635 0.76742 0.0
C2840 C 0.95274 0.59167 0.73685 0.0
C2841 C 0.97682 0.62745 0.72682 0.0
N2842 N 0.96818 0.57359 0.75816 0.0
N2843 N 0.98322 0.61661 0.73388 0.0
H2844 H 0.35768 0.36301 0.73313 0.0
H2845 H 0.46032 0.4353 0.77521 0.0
H2846 H 0.40202 0.35117 0.73554 0.0
H2847 H 0.41556 0.44584 0.78165 0.0
H2848 H 0.43928 0.40558 0.7578 0.0
H2849 H 0.37883 0.39461 0.74787 0.0
C2850 C 0.37187 0.3671 0.73658 0.0
C2851 C 0.37808 0.35441 0.73319 0.0
C2852 C 0.43398 0.41433 0.76302 0.0
C2853 C 0.40224 0.39038 0.75001 0.0
C2854 C 0.44599 0.43128 0.77311 0.0
C2855 C 0.43965 0.44297 0.78022 0.0
C2856 C 0.41539 0.40888 0.75988 0.0
C2857 C 0.42103 0.43726 0.77645 0.0
C2858 C 0.3839 0.38509 0.74505 0.0
C2859 C 0.39658 0.36042 0.73799 0.0
N2860 N 0.40951 0.42055 0.76661 0.0
N2861 N 0.40795 0.3779 0.74616 0.0
H2862 H 0.66266 0.07624 0.70638 0.0
H2863 H 0.56761 0.99145 0.73371 0.0
H2864 H 0.64597 0.019 0.68859 0.0
H2865 H 0.59903 0.04345 0.76835 0.0
H2866 H 0.5931 0.00178 0.71315 0.0
H2867 H 0.6356 0.06506 0.72448 0.0
C2868 C 0.65318 0.06131 0.70605 0.0
C2869 C 0.65666 0.04853 0.696 0.0
C2870 C 0.59429 0.01086 0.72526 0.0
C2871 C 0.62561 0.03565 0.71681 0.0
C2872 C 0.57981 0.00496 0.73711 0.0
C2873 C 0.58099 0.01659 0.75285 0.0
C2874 C 0.60994 0.02864 0.72898 0.0
C2875 C 0.59713 0.03411 0.75621 0.0
C2876 C 0.63779 0.05494 0.71651 0.0
C2877 C 0.64385 0.02933 0.69619 0.0
N2878 N 0.61085 0.0396 0.74434 0.0
N2879 N 0.62886 0.02344 0.70646 0.0
loop_
_geom_bond_atom_site_label_1
_geom_bond_atom_site_label_2
_geom_bond_distance
_geom_bond_site_symmetry_2
_ccdc_geom_bond_type
O0 Cd1 2.223 . S
O0 C8 1.315 . S
Cd1 O0 2.223 . S
Cd1 O4 2.297 . S
Cd1 O5 2.439 . S
Cd1 O11 2.240 . S
Cd2 O3 2.240 . S
Cd2 O10 2.223 . S
Cd2 O12 2.297 1_554 S
Cd2 O13 2.439 . S
O3 Cd2 2.240 . S
O3 C8 1.279 1_655 S
O4 Cd1 2.297 . S
O4 C6 1.247 . S
O5 Cd1 2.439 . S
O5 C6 1.208 . S
C6 O4 1.247 . S
C6 O5 1.208 . S
C7 O12 1.247 . S
C7 O13 1.208 1_556 S
C8 O0 1.315 . S
C8 O3 1.279 1_455 S
C9 O10 1.344 1_556 S
C9 O11 1.253 1_656 S
O10 Cd2 2.223 . S
O10 C9 1.344 1_554 S
O11 Cd1 2.240 . S
O11 C9 1.253 1_454 S
O12 Cd2 2.297 1_556 S
O12 C7 1.247 . S
O13 Cd2 2.439 . S
O13 C7 1.208 1_554 S
O14 Cd15 2.223 . S
O14 C22 1.315 . S
Cd15 O14 2.223 . S
Cd15 O18 2.297 . S
Cd15 O19 2.439 . S
Cd15 O25 2.240 . S
Cd16 O17 2.240 . S
Cd16 O24 2.223 . S
Cd16 O26 2.297 . S
Cd16 O27 2.439 . S
O17 Cd16 2.240 . S
O17 C22 1.279 . S
O18 Cd15 2.297 . S
O18 C20 1.247 . S
O19 Cd15 2.439 . S
O19 C20 1.208 . S
C20 O18 1.247 . S
C20 O19 1.208 . S
C21 O26 1.247 . S
C21 O27 1.208 . S
C22 O14 1.315 . S
C22 O17 1.279 . S
C23 O24 1.315 . S
C23 O25 1.279 . S
O24 Cd16 2.223 . S
O24 C23 1.315 . S
O25 Cd15 2.240 . S
O25 C23 1.279 . S
O26 Cd16 2.297 . S
O26 C21 1.247 . S
O27 Cd16 2.439 . S
O27 C21 1.208 . S
O28 Cd29 2.223 . S
O28 C36 1.311 1_554 S
Cd29 O28 2.223 . S
Cd29 O32 2.297 1_554 S
Cd29 O33 2.439 . S
Cd29 O39 2.240 . S
Cd30 O31 2.240 . S
Cd30 O38 2.223 . S
Cd30 O40 2.297 . S
Cd30 O41 2.439 . S
O31 Cd30 2.240 . S
O31 C36 1.279 1_564 S
O32 Cd29 2.297 1_556 S
O32 C34 1.247 . S
O33 Cd29 2.439 . S
O33 C34 1.208 1_554 S
C34 O32 1.247 . S
C34 O33 1.208 1_556 S
C35 O40 1.247 . S
C35 O41 1.208 . S
C36 O28 1.311 1_556 S
C36 O31 1.279 1_546 S
C37 O38 1.353 . S
C37 O39 1.243 1_565 S
O38 Cd30 2.223 . S
O38 C37 1.353 . S
O39 Cd29 2.240 . S
O39 C37 1.243 1_545 S
O40 Cd30 2.297 . S
O40 C35 1.247 . S
O41 Cd30 2.439 . S
O41 C35 1.208 . S
O42 Cd43 2.223 . S
O42 C50 1.315 . S
Cd43 O42 2.223 . S
Cd43 O46 2.297 . S
Cd43 O47 2.439 . S
Cd43 O53 2.240 . S
Cd44 O45 2.240 . S
Cd44 O52 2.223 . S
Cd44 O54 2.297 . S
Cd44 O55 2.439 . S
O45 Cd44 2.240 . S
O45 C50 1.279 1_455 S
O46 Cd43 2.297 . S
O46 C48 1.247 . S
O47 Cd43 2.439 . S
O47 C48 1.208 . S
C48 O46 1.247 . S
C48 O47 1.208 . S
C49 O54 1.247 . S
C49 O55 1.208 . S
C50 O42 1.315 . S
C50 O45 1.279 1_655 S
C51 O52 1.315 . S
C51 O53 1.279 1_455 S
O52 Cd44 2.223 . S
O52 C51 1.315 . S
O53 Cd43 2.240 . S
O53 C51 1.279 1_655 S
O54 Cd44 2.297 . S
O54 C49 1.247 . S
O55 Cd44 2.439 . S
O55 C49 1.208 . S
O56 Cd57 2.226 . S
O56 C64 1.315 . S
Cd57 O56 2.226 . S
Cd57 O60 2.302 . S
Cd57 O61 2.441 . S
Cd57 O67 2.235 1_556 S
Cd58 O59 2.240 1_554 S
Cd58 O66 2.223 . S
Cd58 O68 2.297 . S
Cd58 O69 2.439 . S
O59 Cd58 2.240 1_556 S
O59 C64 1.279 . S
O60 Cd57 2.302 . S
O60 C62 1.247 . S
O61 Cd57 2.441 . S
O61 C62 1.208 . S
C62 O60 1.247 . S
C62 O61 1.208 . S
C63 O68 1.247 . S
C63 O69 1.208 . S
C64 O56 1.315 . S
C64 O59 1.279 . S
C65 O66 1.315 . S
C65 O67 1.279 . S
O66 Cd58 2.223 . S
O66 C65 1.315 . S
O67 Cd57 2.235 1_554 S
O67 C65 1.279 . S
O68 Cd58 2.297 . S
O68 C63 1.247 . S
O69 Cd58 2.439 . S
O69 C63 1.208 . S
O70 Cd71 2.223 . S
O70 C78 1.306 1_565 S
Cd71 O70 2.223 . S
Cd71 O74 2.297 . S
Cd71 O75 2.439 . S
Cd71 O81 2.240 . S
Cd72 O73 2.240 . S
Cd72 O80 2.223 . S
Cd72 O82 2.297 . S
Cd72 O83 2.439 . S
O73 Cd72 2.240 . S
O73 C78 1.279 . S
O74 Cd71 2.297 . S
O74 C76 1.247 . S
O75 Cd71 2.439 . S
O75 C76 1.208 . S
C76 O74 1.247 . S
C76 O75 1.208 . S
C77 O82 1.247 . S
C77 O83 1.208 . S
C78 O70 1.306 1_545 S
C78 O73 1.279 . S
C79 O80 1.374 . S
C79 O81 1.223 1_545 S
O80 Cd72 2.223 . S
O80 C79 1.374 . S
O81 Cd71 2.240 . S
O81 C79 1.223 1_565 S
O82 Cd72 2.297 . S
O82 C77 1.247 . S
O83 Cd72 2.439 . S
O83 C77 1.208 . S
O84 Cd85 2.223 . S
O84 C92 1.315 . S
Cd85 O84 2.223 . S
Cd85 O88 2.297 . S
Cd85 O89 2.439 . S
Cd85 O95 2.240 . S
Cd86 O87 2.240 . S
Cd86 O94 2.223 . S
Cd86 O96 2.297 . S
Cd86 O97 2.439 . S
O87 Cd86 2.240 . S
O87 C92 1.279 . S
O88 Cd85 2.297 . S
O88 C90 1.247 . S
O89 Cd85 2.439 . S
O89 C90 1.208 . S
C90 O88 1.247 . S
C90 O89 1.208 . S
C91 O96 1.247 . S
C91 O97 1.208 . S
C92 O84 1.315 . S
C92 O87 1.279 . S
C93 O94 1.315 . S
C93 O95 1.279 . S
O94 Cd86 2.223 . S
O94 C93 1.315 . S
O95 Cd85 2.240 . S
O95 C93 1.279 . S
O96 Cd86 2.297 . S
O96 C91 1.247 . S
O97 Cd86 2.439 . S
O97 C91 1.208 . S
O98 Cd99 2.223 . S
O98 C106 1.315 . S
Cd99 O98 2.223 . S
Cd99 O102 2.297 . S
Cd99 O103 2.439 . S
Cd99 O109 2.240 . S
Cd100 O101 2.240 . S
Cd100 O108 2.223 . S
Cd100 O110 2.297 . S
Cd100 O111 2.439 . S
O101 Cd100 2.240 . S
O101 C106 1.279 . S
O102 Cd99 2.297 . S
O102 C104 1.246 . S
O103 Cd99 2.439 . S
O103 C104 1.219 . S
C104 O102 1.246 . S
C104 O103 1.219 . S
C105 O110 1.247 . S
C105 O111 1.208 . S
C106 O98 1.315 . S
C106 O101 1.279 . S
C107 O108 1.315 . S
C107 O109 1.279 . S
O108 Cd100 2.223 . S
O108 C107 1.315 . S
O109 Cd99 2.240 . S
O109 C107 1.279 . S
O110 Cd100 2.297 . S
O110 C105 1.247 . S
O111 Cd100 2.439 . S
O111 C105 1.208 . S
O112 Cd113 2.223 . S
O112 C120 1.315 . S
Cd113 O112 2.223 . S
Cd113 O116 2.297 . S
Cd113 O117 2.439 . S
Cd113 O123 2.240 . S
Cd114 O115 2.240 . S
Cd114 O122 2.223 . S
Cd114 O124 2.297 . S
Cd114 O125 2.439 . S
O115 Cd114 2.240 . S
O115 C120 1.279 . S
O116 Cd113 2.297 . S
O116 C118 1.247 . S
O117 Cd113 2.439 . S
O117 C118 1.208 . S
C118 O116 1.247 . S
C118 O117 1.208 . S
C119 O124 1.247 . S
C119 O125 1.208 . S
C120 O112 1.315 . S
C120 O115 1.279 . S
C121 O122 1.315 . S
C121 O123 1.279 . S
O122 Cd114 2.223 . S
O122 C121 1.315 . S
O123 Cd113 2.240 . S
O123 C121 1.279 . S
O124 Cd114 2.297 . S
O124 C119 1.247 . S
O125 Cd114 2.439 . S
O125 C119 1.208 . S
O126 Cd127 2.223 . S
O126 C134 1.315 . S
Cd127 O126 2.223 . S
Cd127 O130 2.297 . S
Cd127 O131 2.439 . S
Cd127 O137 2.240 . S
Cd128 O129 2.240 . S
Cd128 O136 2.223 . S
Cd128 O138 2.297 . S
Cd128 O139 2.439 1_565 S
O129 Cd128 2.240 . S
O129 C134 1.279 . S
O130 Cd127 2.297 . S
O130 C132 1.247 . S
O131 Cd127 2.439 . S
O131 C132 1.208 . S
C132 O130 1.247 . S
C132 O131 1.208 . S
C133 O138 1.248 1_545 S
C133 O139 1.208 . S
C134 O126 1.315 . S
C134 O129 1.279 . S
C135 O136 1.315 . S
C135 O137 1.279 . S
O136 Cd128 2.223 . S
O136 C135 1.315 . S
O137 Cd127 2.240 . S
O137 C135 1.279 . S
O138 Cd128 2.297 . S
O138 C133 1.248 1_565 S
O139 Cd128 2.439 1_545 S
O139 C133 1.208 . S
O140 Cd141 2.223 . S
O140 C148 1.315 . S
Cd141 O140 2.223 . S
Cd141 O144 2.297 . S
Cd141 O145 2.439 . S
Cd141 O151 2.240 . S
Cd142 O143 2.240 . S
Cd142 O150 2.223 . S
Cd142 O152 2.297 . S
Cd142 O153 2.439 . S
O143 Cd142 2.240 . S
O143 C148 1.279 . S
O144 Cd141 2.297 . S
O144 C146 1.247 . S
O145 Cd141 2.439 . S
O145 C146 1.208 . S
C146 O144 1.247 . S
C146 O145 1.208 . S
C147 O152 1.247 1_655 S
C147 O153 1.208 1_655 S
C148 O140 1.315 . S
C148 O143 1.279 . S
C149 O150 1.315 . S
C149 O151 1.279 . S
O150 Cd142 2.223 . S
O150 C149 1.315 . S
O151 Cd141 2.240 . S
O151 C149 1.279 . S
O152 Cd142 2.297 . S
O152 C147 1.247 1_455 S
O153 Cd142 2.439 . S
O153 C147 1.208 1_455 S
O154 Cd155 2.223 . S
O154 C162 1.315 . S
Cd155 O154 2.223 . S
Cd155 O158 2.297 . S
Cd155 O159 2.439 . S
Cd155 O165 2.240 . S
Cd156 O157 2.240 . S
Cd156 O164 2.223 . S
Cd156 O166 2.297 . S
Cd156 O167 2.439 . S
O157 Cd156 2.240 . S
O157 C162 1.279 . S
O158 Cd155 2.297 . S
O158 C160 1.247 . S
O159 Cd155 2.439 . S
O159 C160 1.208 . S
C160 O158 1.247 . S
C160 O159 1.208 . S
C161 O166 1.247 . S
C161 O167 1.208 . S
C162 O154 1.315 . S
C162 O157 1.279 . S
C163 O164 1.315 . S
C163 O165 1.279 . S
O164 Cd156 2.223 . S
O164 C163 1.315 . S
O165 Cd155 2.240 . S
O165 C163 1.279 . S
O166 Cd156 2.297 . S
O166 C161 1.247 . S
O167 Cd156 2.439 . S
O167 C161 1.208 . S
O168 Cd169 2.223 . S
O168 C176 1.315 . S
Cd169 O168 2.223 . S
Cd169 O172 2.297 . S
Cd169 O173 2.439 . S
Cd169 O179 2.240 . S
Cd170 O171 2.240 . S
Cd170 O178 2.223 . S
Cd170 O180 2.300 1_545 S
Cd170 O181 2.439 1_545 S
O171 Cd170 2.240 . S
O171 C176 1.279 . S
O172 Cd169 2.297 . S
O172 C174 1.247 . S
O173 Cd169 2.439 . S
O173 C174 1.208 . S
C174 O172 1.247 . S
C174 O173 1.208 . S
C175 O180 1.242 . S
C175 O181 1.208 . S
C176 O168 1.315 . S
C176 O171 1.279 . S
C177 O178 1.315 . S
C177 O179 1.279 . S
O178 Cd170 2.223 . S
O178 C177 1.315 . S
O179 Cd169 2.240 . S
O179 C177 1.279 . S
O180 Cd170 2.300 1_565 S
O180 C175 1.242 . S
O181 Cd170 2.439 1_565 S
O181 C175 1.208 . S
O182 Cd183 2.223 . S
O182 C190 1.315 . S
Cd183 O182 2.223 . S
Cd183 O186 2.297 . S
Cd183 O187 2.439 . S
Cd183 O193 2.240 . S
Cd184 O185 2.240 . S
Cd184 O192 2.223 . S
Cd184 O194 2.297 . S
Cd184 O195 2.440 1_655 S
O185 Cd184 2.240 . S
O185 C190 1.279 . S
O186 Cd183 2.297 . S
O186 C188 1.247 . S
O187 Cd183 2.439 . S
O187 C188 1.208 . S
C188 O186 1.247 . S
C188 O187 1.208 . S
C189 O194 1.247 1_455 S
C189 O195 1.204 . S
C190 O182 1.315 . S
C190 O185 1.279 . S
C191 O192 1.315 . S
C191 O193 1.279 . S
O192 Cd184 2.223 . S
O192 C191 1.315 . S
O193 Cd183 2.240 . S
O193 C191 1.279 . S
O194 Cd184 2.297 . S
O194 C189 1.247 1_655 S
O195 Cd184 2.440 1_455 S
O195 C189 1.204 . S
O196 Cd197 2.223 . S
O196 C204 1.315 . S
Cd197 O196 2.223 . S
Cd197 O200 2.297 . S
Cd197 O201 2.439 . S
Cd197 O207 2.240 . S
Cd198 O199 2.240 . S
Cd198 O206 2.223 . S
Cd198 O208 2.297 . S
Cd198 O209 2.439 . S
O199 Cd198 2.240 . S
O199 C204 1.279 . S
O200 Cd197 2.297 . S
O200 C202 1.247 . S
O201 Cd197 2.439 . S
O201 C202 1.208 . S
C202 O200 1.247 . S
C202 O201 1.208 . S
C203 O208 1.247 . S
C203 O209 1.208 . S
C204 O196 1.315 . S
C204 O199 1.279 . S
C205 O206 1.315 . S
C205 O207 1.279 . S
O206 Cd198 2.223 . S
O206 C205 1.315 . S
O207 Cd197 2.240 . S
O207 C205 1.279 . S
O208 Cd198 2.297 . S
O208 C203 1.247 . S
O209 Cd198 2.439 . S
O209 C203 1.208 . S
O210 Cd211 2.223 . S
O210 C218 1.315 . S
Cd211 O210 2.223 . S
Cd211 O214 2.297 . S
Cd211 O215 2.439 . S
Cd211 O221 2.240 . S
Cd212 O213 2.240 . S
Cd212 O220 2.223 . S
Cd212 O222 2.297 . S
Cd212 O223 2.439 . S
O213 Cd212 2.240 . S
O213 C218 1.279 . S
O214 Cd211 2.297 . S
O214 C216 1.247 . S
O215 Cd211 2.439 . S
O215 C216 1.208 . S
C216 O214 1.247 . S
C216 O215 1.208 . S
C217 O222 1.247 . S
C217 O223 1.208 . S
C218 O210 1.315 . S
C218 O213 1.279 . S
C219 O220 1.315 . S
C219 O221 1.279 . S
O220 Cd212 2.223 . S
O220 C219 1.315 . S
O221 Cd211 2.240 . S
O221 C219 1.279 . S
O222 Cd212 2.297 . S
O222 C217 1.247 . S
O223 Cd212 2.439 . S
O223 C217 1.208 . S
O224 Cd225 2.223 . S
O224 C232 1.315 . S
Cd225 O224 2.223 . S
Cd225 O228 2.297 . S
Cd225 O229 2.439 . S
Cd225 O235 2.240 . S
Cd226 O227 2.240 . S
Cd226 O234 2.223 . S
Cd226 O236 2.297 . S
Cd226 O237 2.439 . S
O227 Cd226 2.240 . S
O227 C232 1.279 . S
O228 Cd225 2.297 . S
O228 C230 1.247 . S
O229 Cd225 2.439 . S
O229 C230 1.214 . S
C230 O228 1.247 . S
C230 O229 1.214 . S
C231 O236 1.247 . S
C231 O237 1.208 . S
C232 O224 1.315 . S
C232 O227 1.279 . S
C233 O234 1.315 . S
C233 O235 1.279 . S
O234 Cd226 2.223 . S
O234 C233 1.315 . S
O235 Cd225 2.240 . S
O235 C233 1.279 . S
O236 Cd226 2.297 . S
O236 C231 1.247 . S
O237 Cd226 2.439 . S
O237 C231 1.208 . S
O238 Cd239 2.223 . S
O238 C246 1.315 . S
Cd239 O238 2.223 . S
Cd239 O242 2.297 . S
Cd239 O243 2.439 . S
Cd239 O249 2.240 . S
Cd240 O241 2.240 . S
Cd240 O248 2.223 . S
Cd240 O250 2.297 . S
Cd240 O251 2.439 . S
O241 Cd240 2.240 . S
O241 C246 1.279 . S
O242 Cd239 2.297 . S
O242 C244 1.247 . S
O243 Cd239 2.439 . S
O243 C244 1.208 . S
C244 O242 1.247 . S
C244 O243 1.208 . S
C245 O250 1.247 . S
C245 O251 1.208 . S
C246 O238 1.315 . S
C246 O241 1.279 . S
C247 O248 1.315 . S
C247 O249 1.279 . S
O248 Cd240 2.223 . S
O248 C247 1.315 . S
O249 Cd239 2.240 . S
O249 C247 1.279 . S
O250 Cd240 2.297 . S
O250 C245 1.247 . S
O251 Cd240 2.439 . S
O251 C245 1.208 . S
H252 O278 0.856 . S
H253 O281 0.854 . S
H254 C289 0.930 . S
H255 C290 0.930 . S
H256 C292 0.930 . S
H257 C293 0.930 . S
H258 C295 0.931 . S
H259 C296 0.930 . S
H260 C298 0.930 . S
H261 C299 0.929 . S
H262 C301 0.930 . S
H263 C302 0.931 . S
H264 C304 0.930 . S
H265 C305 0.929 . S
H266 C307 0.931 . S
H267 C308 0.930 . S
H268 C310 0.930 . S
H269 C311 0.932 . S
H270 C313 0.930 . S
H271 C314 0.929 . S
H272 C316 0.931 . S
H273 C317 0.930 . S
H274 C319 0.929 . S
H275 C320 0.931 . S
H276 C322 0.930 . S
H277 C323 0.929 . S
O278 H252 0.856 . S
O278 C324 1.300 . S
O279 C324 1.209 . S
O280 C325 1.199 . S
O281 H253 0.854 . S
O281 C325 1.297 . S
C282 C283 1.404 . S
C282 C287 1.397 . S
C282 C288 1.492 . S
C283 C282 1.404 . S
C283 C284 1.396 . S
C283 C294 1.492 . S
C284 C283 1.396 . S
C284 C285 1.397 . S
C284 C300 1.509 . S
C285 C284 1.397 . S
C285 C286 1.412 . S
C285 C306 1.485 . S
C286 C285 1.412 . S
C286 C287 1.388 . S
C286 C312 1.490 . S
C287 C282 1.397 . S
C287 C286 1.388 . S
C287 C318 1.519 . S
C288 C282 1.492 . S
C288 C289 1.363 . S
C288 C293 1.390 . S
C289 H254 0.930 . S
C289 C288 1.363 . S
C289 C290 1.372 . S
C290 H255 0.930 . S
C290 C289 1.372 . S
C290 C291 1.383 . S
C291 C290 1.383 . S
C291 C292 1.395 . S
C292 H256 0.930 . S
C292 C291 1.395 . S
C292 C293 1.362 . S
C293 H257 0.930 . S
C293 C288 1.390 . S
C293 C292 1.362 . S
C294 C283 1.492 . S
C294 C295 1.377 . S
C294 C299 1.397 . S
C295 H258 0.931 . S
C295 C294 1.377 . S
C295 C296 1.376 . S
C296 H259 0.930 . S
C296 C295 1.376 . S
C296 C297 1.376 . S
C297 C296 1.376 . S
C297 C298 1.378 . S
C297 C324 1.486 . S
C298 H260 0.930 . S
C298 C297 1.378 . S
C298 C299 1.376 . S
C299 H261 0.929 . S
C299 C294 1.397 . S
C299 C298 1.376 . S
C300 C284 1.509 . S
C300 C301 1.391 . S
C300 C305 1.386 . S
C301 H262 0.930 . S
C301 C300 1.391 . S
C301 C302 1.375 . S
C302 H263 0.931 . S
C302 C301 1.375 . S
C302 C303 1.375 . S
C303 C302 1.375 . S
C303 C304 1.361 . S
C304 H264 0.930 . S
C304 C303 1.361 . S
C304 C305 1.399 . S
C305 H265 0.929 . S
C305 C300 1.386 . S
C305 C304 1.399 . S
C306 C285 1.485 . S
C306 C307 1.394 . S
C306 C311 1.360 . S
C307 H266 0.931 . S
C307 C306 1.394 . S
C307 C308 1.372 . S
C308 H267 0.930 . S
C308 C307 1.372 . S
C308 C309 1.397 . S
C309 C308 1.397 . S
C309 C310 1.390 . S
C309 C325 1.476 . S
C310 H268 0.930 . S
C310 C309 1.390 . S
C310 C311 1.366 . S
C311 H269 0.932 . S
C311 C306 1.360 . S
C311 C310 1.366 . S
C312 C286 1.490 . S
C312 C313 1.380 . S
C312 C317 1.386 . S
C313 H270 0.930 . S
C313 C312 1.380 . S
C313 C314 1.381 . S
C314 H271 0.929 . S
C314 C313 1.381 . S
C314 C315 1.371 . S
C315 C314 1.371 . S
C315 C316 1.380 . S
C316 H272 0.931 . S
C316 C315 1.380 . S
C316 C317 1.387 . S
C317 H273 0.930 . S
C317 C312 1.386 . S
C317 C316 1.387 . S
C318 C287 1.519 . S
C318 C319 1.377 . S
C318 C323 1.361 . S
C319 H274 0.929 . S
C319 C318 1.377 . S
C319 C320 1.386 . S
C320 H275 0.931 . S
C320 C319 1.386 . S
C320 C321 1.363 . S
C321 C320 1.363 . S
C321 C322 1.385 . S
C322 H276 0.930 . S
C322 C321 1.385 . S
C322 C323 1.396 . S
C323 H277 0.929 . S
C323 C318 1.361 . S
C323 C322 1.396 . S
C324 O278 1.300 . S
C324 O279 1.209 . S
C324 C297 1.486 . S
C325 O280 1.199 . S
C325 O281 1.297 . S
C325 C309 1.476 . S
H326 O352 0.856 . S
H327 O355 0.854 . S
H328 C363 0.930 . S
H329 C364 0.930 . S
H330 C366 0.930 . S
H331 C367 0.930 . S
H332 C369 0.931 . S
H333 C370 0.930 . S
H334 C372 0.930 . S
H335 C373 0.929 . S
H336 C375 0.930 . S
H337 C376 0.931 . S
H338 C378 0.930 . S
H339 C379 0.929 . S
H340 C381 0.931 . S
H341 C382 0.930 . S
H342 C384 0.930 . S
H343 C385 0.932 . S
H344 C387 0.930 . S
H345 C388 0.929 . S
H346 C390 0.931 . S
H347 C391 0.930 . S
H348 C393 0.929 . S
H349 C394 0.931 . S
H350 C396 0.930 . S
H351 C397 0.929 . S
O352 H326 0.856 . S
O352 C398 1.300 . S
O353 C398 1.209 . S
O354 C399 1.199 . S
O355 H327 0.854 . S
O355 C399 1.297 . S
C356 C357 1.404 . S
C356 C361 1.397 . S
C356 C362 1.492 . S
C357 C356 1.404 . S
C357 C358 1.396 . S
C357 C368 1.492 . S
C358 C357 1.396 . S
C358 C359 1.397 . S
C358 C374 1.509 . S
C359 C358 1.397 . S
C359 C360 1.412 . S
C359 C380 1.485 . S
C360 C359 1.412 . S
C360 C361 1.388 . S
C360 C386 1.490 . S
C361 C356 1.397 . S
C361 C360 1.388 . S
C361 C392 1.519 . S
C362 C356 1.492 . S
C362 C363 1.363 . S
C362 C367 1.390 . S
C363 H328 0.930 . S
C363 C362 1.363 . S
C363 C364 1.372 . S
C364 H329 0.930 . S
C364 C363 1.372 . S
C364 C365 1.383 . S
C365 C364 1.383 . S
C365 C366 1.395 . S
C366 H330 0.930 . S
C366 C365 1.395 . S
C366 C367 1.362 . S
C367 H331 0.930 . S
C367 C362 1.390 . S
C367 C366 1.362 . S
C368 C357 1.492 . S
C368 C369 1.377 . S
C368 C373 1.397 . S
C369 H332 0.931 . S
C369 C368 1.377 . S
C369 C370 1.376 . S
C370 H333 0.930 . S
C370 C369 1.376 . S
C370 C371 1.376 . S
C371 C370 1.376 . S
C371 C372 1.378 . S
C371 C398 1.486 . S
C372 H334 0.930 . S
C372 C371 1.378 . S
C372 C373 1.376 . S
C373 H335 0.929 . S
C373 C368 1.397 . S
C373 C372 1.376 . S
C374 C358 1.509 . S
C374 C375 1.391 . S
C374 C379 1.386 . S
C375 H336 0.930 . S
C375 C374 1.391 . S
C375 C376 1.375 . S
C376 H337 0.931 . S
C376 C375 1.375 . S
C376 C377 1.375 . S
C377 C376 1.375 . S
C377 C378 1.361 . S
C378 H338 0.930 . S
C378 C377 1.361 . S
C378 C379 1.399 . S
C379 H339 0.929 . S
C379 C374 1.386 . S
C379 C378 1.399 . S
C380 C359 1.485 . S
C380 C381 1.394 . S
C380 C385 1.360 . S
C381 H340 0.931 . S
C381 C380 1.394 . S
C381 C382 1.372 . S
C382 H341 0.930 . S
C382 C381 1.372 . S
C382 C383 1.397 . S
C383 C382 1.397 . S
C383 C384 1.390 . S
C383 C399 1.476 . S
C384 H342 0.930 . S
C384 C383 1.390 . S
C384 C385 1.366 . S
C385 H343 0.932 . S
C385 C380 1.360 . S
C385 C384 1.366 . S
C386 C360 1.490 . S
C386 C387 1.380 . S
C386 C391 1.386 . S
C387 H344 0.930 . S
C387 C386 1.380 . S
C387 C388 1.381 . S
C388 H345 0.929 . S
C388 C387 1.381 . S
C388 C389 1.371 . S
C389 C388 1.371 . S
C389 C390 1.380 . S
C390 H346 0.931 . S
C390 C389 1.380 . S
C390 C391 1.387 . S
C391 H347 0.930 . S
C391 C386 1.386 . S
C391 C390 1.387 . S
C392 C361 1.519 . S
C392 C393 1.377 . S
C392 C397 1.361 . S
C393 H348 0.929 . S
C393 C392 1.377 . S
C393 C394 1.386 . S
C394 H349 0.931 . S
C394 C393 1.386 . S
C394 C395 1.363 . S
C395 C394 1.363 . S
C395 C396 1.385 . S
C396 H350 0.930 . S
C396 C395 1.385 . S
C396 C397 1.396 . S
C397 H351 0.929 . S
C397 C392 1.361 . S
C397 C396 1.396 . S
C398 O352 1.300 . S
C398 O353 1.209 . S
C398 C371 1.486 . S
C399 O354 1.199 . S
C399 O355 1.297 . S
C399 C383 1.476 . S
H400 O426 0.856 . S
H401 O429 0.854 . S
H402 C437 0.930 . S
H403 C438 0.930 . S
H404 C440 0.930 . S
H405 C441 0.930 . S
H406 C443 0.931 . S
H407 C444 0.930 . S
H408 C446 0.930 . S
H409 C447 0.929 . S
H410 C449 0.930 . S
H411 C450 0.931 . S
H412 C452 0.930 . S
H413 C453 0.929 . S
H414 C455 0.931 . S
H415 C456 0.930 . S
H416 C458 0.930 . S
H417 C459 0.932 . S
H418 C461 0.930 . S
H419 C462 0.929 . S
H420 C464 0.931 . S
H421 C465 0.930 . S
H422 C467 0.929 . S
H423 C468 0.931 . S
H424 C470 0.930 . S
H425 C471 0.929 . S
O426 H400 0.856 . S
O426 C472 1.300 . S
O427 C472 1.209 . S
O428 C473 1.199 . S
O429 H401 0.854 . S
O429 C473 1.297 . S
C430 C431 1.404 . S
C430 C435 1.397 . S
C430 C436 1.492 . S
C431 C430 1.404 . S
C431 C432 1.396 . S
C431 C442 1.492 . S
C432 C431 1.396 . S
C432 C433 1.397 . S
C432 C448 1.509 . S
C433 C432 1.397 . S
C433 C434 1.412 . S
C433 C454 1.485 . S
C434 C433 1.412 . S
C434 C435 1.388 . S
C434 C460 1.490 . S
C435 C430 1.397 . S
C435 C434 1.388 . S
C435 C466 1.519 . S
C436 C430 1.492 . S
C436 C437 1.363 . S
C436 C441 1.390 . S
C437 H402 0.930 . S
C437 C436 1.363 . S
C437 C438 1.372 . S
C438 H403 0.930 . S
C438 C437 1.372 . S
C438 C439 1.383 . S
C439 C438 1.383 . S
C439 C440 1.395 . S
C440 H404 0.930 . S
C440 C439 1.395 . S
C440 C441 1.362 . S
C441 H405 0.930 . S
C441 C436 1.390 . S
C441 C440 1.362 . S
C442 C431 1.492 . S
C442 C443 1.377 . S
C442 C447 1.397 . S
C443 H406 0.931 . S
C443 C442 1.377 . S
C443 C444 1.376 . S
C444 H407 0.930 . S
C444 C443 1.376 . S
C444 C445 1.376 . S
C445 C444 1.376 . S
C445 C446 1.378 . S
C445 C472 1.486 . S
C446 H408 0.930 . S
C446 C445 1.378 . S
C446 C447 1.376 . S
C447 H409 0.929 . S
C447 C442 1.397 . S
C447 C446 1.376 . S
C448 C432 1.509 . S
C448 C449 1.391 . S
C448 C453 1.386 . S
C449 H410 0.930 . S
C449 C448 1.391 . S
C449 C450 1.375 . S
C450 H411 0.931 . S
C450 C449 1.375 . S
C450 C451 1.375 . S
C451 C450 1.375 . S
C451 C452 1.361 . S
C452 H412 0.930 . S
C452 C451 1.361 . S
C452 C453 1.399 . S
C453 H413 0.929 . S
C453 C448 1.386 . S
C453 C452 1.399 . S
C454 C433 1.485 . S
C454 C455 1.394 . S
C454 C459 1.360 . S
C455 H414 0.931 . S
C455 C454 1.394 . S
C455 C456 1.372 . S
C456 H415 0.930 . S
C456 C455 1.372 . S
C456 C457 1.397 . S
C457 C456 1.397 . S
C457 C458 1.390 . S
C457 C473 1.476 . S
C458 H416 0.930 . S
C458 C457 1.390 . S
C458 C459 1.366 . S
C459 H417 0.932 . S
C459 C454 1.360 . S
C459 C458 1.366 . S
C460 C434 1.490 . S
C460 C461 1.380 . S
C460 C465 1.386 . S
C461 H418 0.930 . S
C461 C460 1.380 . S
C461 C462 1.381 . S
C462 H419 0.929 . S
C462 C461 1.381 . S
C462 C463 1.371 . S
C463 C462 1.371 . S
C463 C464 1.380 . S
C464 H420 0.931 . S
C464 C463 1.380 . S
C464 C465 1.387 . S
C465 H421 0.930 . S
C465 C460 1.386 . S
C465 C464 1.387 . S
C466 C435 1.519 . S
C466 C467 1.377 . S
C466 C471 1.361 . S
C467 H422 0.929 . S
C467 C466 1.377 . S
C467 C468 1.386 . S
C468 H423 0.931 . S
C468 C467 1.386 . S
C468 C469 1.363 . S
C469 C468 1.363 . S
C469 C470 1.385 . S
C470 H424 0.930 . S
C470 C469 1.385 . S
C470 C471 1.396 . S
C471 H425 0.929 . S
C471 C466 1.361 . S
C471 C470 1.396 . S
C472 O426 1.300 . S
C472 O427 1.209 . S
C472 C445 1.486 . S
C473 O428 1.199 . S
C473 O429 1.297 . S
C473 C457 1.476 . S
H474 O500 0.856 . S
H475 O503 0.854 . S
H476 C511 0.930 . S
H477 C512 0.930 . S
H478 C514 0.930 . S
H479 C515 0.930 . S
H480 C517 0.931 . S
H481 C518 0.930 . S
H482 C520 0.930 . S
H483 C521 0.929 . S
H484 C523 0.930 . S
H485 C524 0.931 . S
H486 C526 0.930 . S
H487 C527 0.929 . S
H488 C529 0.931 . S
H489 C530 0.930 . S
H490 C532 0.930 . S
H491 C533 0.932 . S
H492 C535 0.930 . S
H493 C536 0.929 . S
H494 C538 0.931 . S
H495 C539 0.930 . S
H496 C541 0.929 . S
H497 C542 0.931 . S
H498 C544 0.930 . S
H499 C545 0.929 . S
O500 H474 0.856 . S
O500 C546 1.300 . S
O501 C546 1.209 . S
O502 C547 1.199 . S
O503 H475 0.854 . S
O503 C547 1.297 . S
C504 C505 1.404 . S
C504 C509 1.397 . S
C504 C510 1.492 . S
C505 C504 1.404 . S
C505 C506 1.396 . S
C505 C516 1.492 . S
C506 C505 1.396 . S
C506 C507 1.397 . S
C506 C522 1.509 . S
C507 C506 1.397 . S
C507 C508 1.412 . S
C507 C528 1.485 . S
C508 C507 1.412 . S
C508 C509 1.388 . S
C508 C534 1.490 . S
C509 C504 1.397 . S
C509 C508 1.388 . S
C509 C540 1.519 . S
C510 C504 1.492 . S
C510 C511 1.363 . S
C510 C515 1.390 . S
C511 H476 0.930 . S
C511 C510 1.363 . S
C511 C512 1.372 . S
C512 H477 0.930 . S
C512 C511 1.372 . S
C512 C513 1.383 . S
C513 C512 1.383 . S
C513 C514 1.395 . S
C514 H478 0.930 . S
C514 C513 1.395 . S
C514 C515 1.362 . S
C515 H479 0.930 . S
C515 C510 1.390 . S
C515 C514 1.362 . S
C516 C505 1.492 . S
C516 C517 1.377 . S
C516 C521 1.397 . S
C517 H480 0.931 . S
C517 C516 1.377 . S
C517 C518 1.376 . S
C518 H481 0.930 . S
C518 C517 1.376 . S
C518 C519 1.376 . S
C519 C518 1.376 . S
C519 C520 1.378 . S
C519 C546 1.486 . S
C520 H482 0.930 . S
C520 C519 1.378 . S
C520 C521 1.376 . S
C521 H483 0.929 . S
C521 C516 1.397 . S
C521 C520 1.376 . S
C522 C506 1.509 . S
C522 C523 1.391 . S
C522 C527 1.386 . S
C523 H484 0.930 . S
C523 C522 1.391 . S
C523 C524 1.375 . S
C524 H485 0.931 . S
C524 C523 1.375 . S
C524 C525 1.375 . S
C525 C524 1.375 . S
C525 C526 1.361 . S
C526 H486 0.930 . S
C526 C525 1.361 . S
C526 C527 1.399 . S
C527 H487 0.929 . S
C527 C522 1.386 . S
C527 C526 1.399 . S
C528 C507 1.485 . S
C528 C529 1.394 . S
C528 C533 1.360 . S
C529 H488 0.931 . S
C529 C528 1.394 . S
C529 C530 1.372 . S
C530 H489 0.930 . S
C530 C529 1.372 . S
C530 C531 1.397 . S
C531 C530 1.397 . S
C531 C532 1.390 . S
C531 C547 1.476 . S
C532 H490 0.930 . S
C532 C531 1.390 . S
C532 C533 1.366 . S
C533 H491 0.932 . S
C533 C528 1.360 . S
C533 C532 1.366 . S
C534 C508 1.490 . S
C534 C535 1.380 . S
C534 C539 1.386 . S
C535 H492 0.930 . S
C535 C534 1.380 . S
C535 C536 1.381 . S
C536 H493 0.929 . S
C536 C535 1.381 . S
C536 C537 1.371 . S
C537 C536 1.371 . S
C537 C538 1.380 . S
C538 H494 0.931 . S
C538 C537 1.380 . S
C538 C539 1.387 . S
C539 H495 0.930 . S
C539 C534 1.386 . S
C539 C538 1.387 . S
C540 C509 1.519 . S
C540 C541 1.377 . S
C540 C545 1.361 . S
C541 H496 0.929 . S
C541 C540 1.377 . S
C541 C542 1.386 . S
C542 H497 0.931 . S
C542 C541 1.386 . S
C542 C543 1.363 . S
C543 C542 1.363 . S
C543 C544 1.385 . S
C544 H498 0.930 . S
C544 C543 1.385 . S
C544 C545 1.396 . S
C545 H499 0.929 . S
C545 C540 1.361 . S
C545 C544 1.396 . S
C546 O500 1.300 . S
C546 O501 1.209 . S
C546 C519 1.486 . S
C547 O502 1.199 . S
C547 O503 1.297 . S
C547 C531 1.476 . S
H548 O574 0.856 1_554 S
H549 O577 0.854 . S
H550 C585 0.930 . S
H551 C586 0.930 . S
H552 C588 0.930 . S
H553 C589 0.930 . S
H554 C591 0.931 . S
H555 C592 0.930 . S
H556 C594 0.930 . S
H557 C595 0.929 . S
H558 C597 0.930 . S
H559 C598 0.931 . S
H560 C600 0.930 . S
H561 C601 0.929 . S
H562 C603 0.931 . S
H563 C604 0.930 . S
H564 C606 0.930 . S
H565 C607 0.932 . S
H566 C609 0.930 . S
H567 C610 0.929 . S
H568 C612 0.931 . S
H569 C613 0.930 . S
H570 C615 0.929 . S
H571 C616 0.931 . S
H572 C618 0.930 . S
H573 C619 0.929 . S
O574 H548 0.856 1_556 S
O574 C620 1.300 . S
O575 C620 1.209 . S
O576 C621 1.199 . S
O577 H549 0.854 . S
O577 C621 1.297 . S
C578 C579 1.404 . S
C578 C583 1.397 . S
C578 C584 1.492 . S
C579 C578 1.404 . S
C579 C580 1.396 . S
C579 C590 1.492 . S
C580 C579 1.396 . S
C580 C581 1.397 . S
C580 C596 1.509 . S
C581 C580 1.397 . S
C581 C582 1.412 . S
C581 C602 1.485 . S
C582 C581 1.412 . S
C582 C583 1.388 . S
C582 C608 1.490 . S
C583 C578 1.397 . S
C583 C582 1.388 . S
C583 C614 1.519 . S
C584 C578 1.492 . S
C584 C585 1.363 . S
C584 C589 1.390 . S
C585 H550 0.930 . S
C585 C584 1.363 . S
C585 C586 1.372 . S
C586 H551 0.930 . S
C586 C585 1.372 . S
C586 C587 1.383 . S
C587 C586 1.383 . S
C587 C588 1.395 . S
C588 H552 0.930 . S
C588 C587 1.395 . S
C588 C589 1.362 . S
C589 H553 0.930 . S
C589 C584 1.390 . S
C589 C588 1.362 . S
C590 C579 1.492 . S
C590 C591 1.377 . S
C590 C595 1.397 . S
C591 H554 0.931 . S
C591 C590 1.377 . S
C591 C592 1.376 . S
C592 H555 0.930 . S
C592 C591 1.376 . S
C592 C593 1.376 . S
C593 C592 1.376 . S
C593 C594 1.378 . S
C593 C620 1.486 . S
C594 H556 0.930 . S
C594 C593 1.378 . S
C594 C595 1.376 . S
C595 H557 0.929 . S
C595 C590 1.397 . S
C595 C594 1.376 . S
C596 C580 1.509 . S
C596 C597 1.391 . S
C596 C601 1.386 . S
C597 H558 0.930 . S
C597 C596 1.391 . S
C597 C598 1.375 . S
C598 H559 0.931 . S
C598 C597 1.375 . S
C598 C599 1.375 . S
C599 C598 1.375 . S
C599 C600 1.361 . S
C600 H560 0.930 . S
C600 C599 1.361 . S
C600 C601 1.399 . S
C601 H561 0.929 . S
C601 C596 1.386 . S
C601 C600 1.399 . S
C602 C581 1.485 . S
C602 C603 1.394 . S
C602 C607 1.360 . S
C603 H562 0.931 . S
C603 C602 1.394 . S
C603 C604 1.372 . S
C604 H563 0.930 . S
C604 C603 1.372 . S
C604 C605 1.397 . S
C605 C604 1.397 . S
C605 C606 1.390 . S
C605 C621 1.476 . S
C606 H564 0.930 . S
C606 C605 1.390 . S
C606 C607 1.366 . S
C607 H565 0.932 . S
C607 C602 1.360 . S
C607 C606 1.366 . S
C608 C582 1.490 . S
C608 C609 1.380 . S
C608 C613 1.386 . S
C609 H566 0.930 . S
C609 C608 1.380 . S
C609 C610 1.381 . S
C610 H567 0.929 . S
C610 C609 1.381 . S
C610 C611 1.371 . S
C611 C610 1.371 . S
C611 C612 1.380 . S
C612 H568 0.931 . S
C612 C611 1.380 . S
C612 C613 1.387 . S
C613 H569 0.930 . S
C613 C608 1.386 . S
C613 C612 1.387 . S
C614 C583 1.519 . S
C614 C615 1.377 . S
C614 C619 1.361 . S
C615 H570 0.929 . S
C615 C614 1.377 . S
C615 C616 1.386 . S
C616 H571 0.931 . S
C616 C615 1.386 . S
C616 C617 1.363 . S
C617 C616 1.363 . S
C617 C618 1.385 . S
C618 H572 0.930 . S
C618 C617 1.385 . S
C618 C619 1.396 . S
C619 H573 0.929 . S
C619 C614 1.361 . S
C619 C618 1.396 . S
C620 O574 1.300 . S
C620 O575 1.209 . S
C620 C593 1.486 . S
C621 O576 1.199 . S
C621 O577 1.297 . S
C621 C605 1.476 . S
H622 O648 0.856 . S
H623 O651 0.854 . S
H624 C659 0.930 . S
H625 C660 0.930 . S
H626 C662 0.930 . S
H627 C663 0.930 . S
H628 C665 0.931 . S
H629 C666 0.930 . S
H630 C668 0.930 . S
H631 C669 0.929 . S
H632 C671 0.930 . S
H633 C672 0.931 . S
H634 C674 0.930 . S
H635 C675 0.929 . S
H636 C677 0.931 . S
H637 C678 0.930 . S
H638 C680 0.930 . S
H639 C681 0.932 . S
H640 C683 0.930 . S
H641 C684 0.929 . S
H642 C686 0.931 . S
H643 C687 0.930 . S
H644 C689 0.929 . S
H645 C690 0.931 . S
H646 C692 0.930 . S
H647 C693 0.929 . S
O648 H622 0.856 . S
O648 C694 1.300 1_554 S
O649 C694 1.209 . S
O650 C695 1.199 . S
O651 H623 0.854 . S
O651 C695 1.297 . S
C652 C653 1.404 . S
C652 C657 1.397 . S
C652 C658 1.492 . S
C653 C652 1.404 . S
C653 C654 1.396 . S
C653 C664 1.492 . S
C654 C653 1.396 . S
C654 C655 1.397 . S
C654 C670 1.509 . S
C655 C654 1.397 . S
C655 C656 1.412 . S
C655 C676 1.485 . S
C656 C655 1.412 . S
C656 C657 1.388 . S
C656 C682 1.490 . S
C657 C652 1.397 . S
C657 C656 1.388 . S
C657 C688 1.519 . S
C658 C652 1.492 . S
C658 C659 1.363 . S
C658 C663 1.390 . S
C659 H624 0.930 . S
C659 C658 1.363 . S
C659 C660 1.372 . S
C660 H625 0.930 . S
C660 C659 1.372 . S
C660 C661 1.383 . S
C661 C660 1.383 . S
C661 C662 1.395 . S
C662 H626 0.930 . S
C662 C661 1.395 . S
C662 C663 1.362 . S
C663 H627 0.930 . S
C663 C658 1.390 . S
C663 C662 1.362 . S
C664 C653 1.492 . S
C664 C665 1.377 . S
C664 C669 1.397 . S
C665 H628 0.931 . S
C665 C664 1.377 . S
C665 C666 1.376 . S
C666 H629 0.930 . S
C666 C665 1.376 . S
C666 C667 1.376 . S
C667 C666 1.376 . S
C667 C668 1.378 . S
C667 C694 1.486 . S
C668 H630 0.930 . S
C668 C667 1.378 . S
C668 C669 1.376 . S
C669 H631 0.929 . S
C669 C664 1.397 . S
C669 C668 1.376 . S
C670 C654 1.509 . S
C670 C671 1.391 . S
C670 C675 1.386 . S
C671 H632 0.930 . S
C671 C670 1.391 . S
C671 C672 1.375 . S
C672 H633 0.931 . S
C672 C671 1.375 . S
C672 C673 1.375 . S
C673 C672 1.375 . S
C673 C674 1.361 . S
C674 H634 0.930 . S
C674 C673 1.361 . S
C674 C675 1.399 . S
C675 H635 0.929 . S
C675 C670 1.386 . S
C675 C674 1.399 . S
C676 C655 1.485 . S
C676 C677 1.394 . S
C676 C681 1.360 . S
C677 H636 0.931 . S
C677 C676 1.394 . S
C677 C678 1.372 . S
C678 H637 0.930 . S
C678 C677 1.372 . S
C678 C679 1.397 . S
C679 C678 1.397 . S
C679 C680 1.390 . S
C679 C695 1.476 . S
C680 H638 0.930 . S
C680 C679 1.390 . S
C680 C681 1.366 . S
C681 H639 0.932 . S
C681 C676 1.360 . S
C681 C680 1.366 . S
C682 C656 1.490 . S
C682 C683 1.380 . S
C682 C687 1.386 . S
C683 H640 0.930 . S
C683 C682 1.380 . S
C683 C684 1.381 . S
C684 H641 0.929 . S
C684 C683 1.381 . S
C684 C685 1.371 . S
C685 C684 1.371 . S
C685 C686 1.380 . S
C686 H642 0.931 . S
C686 C685 1.380 . S
C686 C687 1.387 . S
C687 H643 0.930 . S
C687 C682 1.386 . S
C687 C686 1.387 . S
C688 C657 1.519 . S
C688 C689 1.377 . S
C688 C693 1.361 . S
C689 H644 0.929 . S
C689 C688 1.377 . S
C689 C690 1.386 . S
C690 H645 0.931 . S
C690 C689 1.386 . S
C690 C691 1.363 . S
C691 C690 1.363 . S
C691 C692 1.385 . S
C692 H646 0.930 . S
C692 C691 1.385 . S
C692 C693 1.396 . S
C693 H647 0.929 . S
C693 C688 1.361 . S
C693 C692 1.396 . S
C694 O648 1.300 1_556 S
C694 O649 1.209 . S
C694 C667 1.486 . S
C695 O650 1.199 . S
C695 O651 1.297 . S
C695 C679 1.476 . S
H696 O722 0.856 . S
H697 O725 0.854 . S
H698 C733 0.930 . S
H699 C734 0.930 . S
H700 C736 0.930 . S
H701 C737 0.930 . S
H702 C739 0.931 . S
H703 C740 0.930 . S
H704 C742 0.930 . S
H705 C743 0.929 . S
H706 C745 0.930 . S
H707 C746 0.931 . S
H708 C748 0.930 . S
H709 C749 0.929 . S
H710 C751 0.931 . S
H711 C752 0.930 . S
H712 C754 0.930 . S
H713 C755 0.932 . S
H714 C757 0.930 . S
H715 C758 0.929 . S
H716 C760 0.931 . S
H717 C761 0.930 . S
H718 C763 0.929 . S
H719 C764 0.931 . S
H720 C766 0.930 . S
H721 C767 0.929 . S
O722 H696 0.856 . S
O722 C768 1.300 . S
O723 C768 1.209 . S
O724 C769 1.199 . S
O725 H697 0.854 . S
O725 C769 1.297 . S
C726 C727 1.404 . S
C726 C731 1.397 . S
C726 C732 1.492 . S
C727 C726 1.404 . S
C727 C728 1.396 . S
C727 C738 1.492 . S
C728 C727 1.396 . S
C728 C729 1.397 . S
C728 C744 1.509 . S
C729 C728 1.397 . S
C729 C730 1.412 . S
C729 C750 1.485 . S
C730 C729 1.412 . S
C730 C731 1.388 . S
C730 C756 1.490 . S
C731 C726 1.397 . S
C731 C730 1.388 . S
C731 C762 1.519 . S
C732 C726 1.492 . S
C732 C733 1.363 . S
C732 C737 1.390 . S
C733 H698 0.930 . S
C733 C732 1.363 . S
C733 C734 1.372 . S
C734 H699 0.930 . S
C734 C733 1.372 . S
C734 C735 1.383 . S
C735 C734 1.383 . S
C735 C736 1.395 . S
C736 H700 0.930 . S
C736 C735 1.395 . S
C736 C737 1.362 . S
C737 H701 0.930 . S
C737 C732 1.390 . S
C737 C736 1.362 . S
C738 C727 1.492 . S
C738 C739 1.377 . S
C738 C743 1.397 . S
C739 H702 0.931 . S
C739 C738 1.377 . S
C739 C740 1.376 . S
C740 H703 0.930 . S
C740 C739 1.376 . S
C740 C741 1.376 . S
C741 C740 1.376 . S
C741 C742 1.378 . S
C741 C768 1.486 . S
C742 H704 0.930 . S
C742 C741 1.378 . S
C742 C743 1.376 . S
C743 H705 0.929 . S
C743 C738 1.397 . S
C743 C742 1.376 . S
C744 C728 1.509 . S
C744 C745 1.391 . S
C744 C749 1.386 . S
C745 H706 0.930 . S
C745 C744 1.391 . S
C745 C746 1.375 . S
C746 H707 0.931 . S
C746 C745 1.375 . S
C746 C747 1.375 . S
C747 C746 1.375 . S
C747 C748 1.361 . S
C748 H708 0.930 . S
C748 C747 1.361 . S
C748 C749 1.399 . S
C749 H709 0.929 . S
C749 C744 1.386 . S
C749 C748 1.399 . S
C750 C729 1.485 . S
C750 C751 1.394 . S
C750 C755 1.360 . S
C751 H710 0.931 . S
C751 C750 1.394 . S
C751 C752 1.372 . S
C752 H711 0.930 . S
C752 C751 1.372 . S
C752 C753 1.397 . S
C753 C752 1.397 . S
C753 C754 1.390 . S
C753 C769 1.476 . S
C754 H712 0.930 . S
C754 C753 1.390 . S
C754 C755 1.366 . S
C755 H713 0.932 . S
C755 C750 1.360 . S
C755 C754 1.366 . S
C756 C730 1.490 . S
C756 C757 1.380 . S
C756 C761 1.386 . S
C757 H714 0.930 . S
C757 C756 1.380 . S
C757 C758 1.381 . S
C758 H715 0.929 . S
C758 C757 1.381 . S
C758 C759 1.371 . S
C759 C758 1.371 . S
C759 C760 1.380 . S
C760 H716 0.931 . S
C760 C759 1.380 . S
C760 C761 1.387 . S
C761 H717 0.930 . S
C761 C756 1.386 . S
C761 C760 1.387 . S
C762 C731 1.519 . S
C762 C763 1.377 . S
C762 C767 1.361 . S
C763 H718 0.929 . S
C763 C762 1.377 . S
C763 C764 1.386 . S
C764 H719 0.931 . S
C764 C763 1.386 . S
C764 C765 1.363 . S
C765 C764 1.363 . S
C765 C766 1.385 . S
C766 H720 0.930 . S
C766 C765 1.385 . S
C766 C767 1.396 . S
C767 H721 0.929 . S
C767 C762 1.361 . S
C767 C766 1.396 . S
C768 O722 1.300 . S
C768 O723 1.209 . S
C768 C741 1.486 . S
C769 O724 1.199 . S
C769 O725 1.297 . S
C769 C753 1.476 . S
H770 O796 0.856 . S
H771 O799 0.854 . S
H772 C807 0.930 . S
H773 C808 0.930 . S
H774 C810 0.930 . S
H775 C811 0.930 . S
H776 C813 0.931 . S
H777 C814 0.930 . S
H778 C816 0.930 . S
H779 C817 0.929 . S
H780 C819 0.930 . S
H781 C820 0.931 . S
H782 C822 0.930 . S
H783 C823 0.929 . S
H784 C825 0.931 . S
H785 C826 0.930 . S
H786 C828 0.930 . S
H787 C829 0.932 . S
H788 C831 0.930 . S
H789 C832 0.929 . S
H790 C834 0.931 . S
H791 C835 0.930 . S
H792 C837 0.929 . S
H793 C838 0.931 . S
H794 C840 0.930 . S
H795 C841 0.929 . S
O796 H770 0.856 . S
O796 C842 1.300 . S
O797 C842 1.209 . S
O798 C843 1.199 . S
O799 H771 0.854 . S
O799 C843 1.297 . S
C800 C801 1.404 . S
C800 C805 1.397 . S
C800 C806 1.492 . S
C801 C800 1.404 . S
C801 C802 1.396 . S
C801 C812 1.492 . S
C802 C801 1.396 . S
C802 C803 1.397 . S
C802 C818 1.509 . S
C803 C802 1.397 . S
C803 C804 1.412 . S
C803 C824 1.485 . S
C804 C803 1.412 . S
C804 C805 1.388 . S
C804 C830 1.490 . S
C805 C800 1.397 . S
C805 C804 1.388 . S
C805 C836 1.519 . S
C806 C800 1.492 . S
C806 C807 1.363 . S
C806 C811 1.390 . S
C807 H772 0.930 . S
C807 C806 1.363 . S
C807 C808 1.372 . S
C808 H773 0.930 . S
C808 C807 1.372 . S
C808 C809 1.383 . S
C809 C808 1.383 . S
C809 C810 1.395 . S
C810 H774 0.930 . S
C810 C809 1.395 . S
C810 C811 1.362 . S
C811 H775 0.930 . S
C811 C806 1.390 . S
C811 C810 1.362 . S
C812 C801 1.492 . S
C812 C813 1.377 . S
C812 C817 1.397 . S
C813 H776 0.931 . S
C813 C812 1.377 . S
C813 C814 1.376 . S
C814 H777 0.930 . S
C814 C813 1.376 . S
C814 C815 1.376 . S
C815 C814 1.376 . S
C815 C816 1.378 . S
C815 C842 1.486 . S
C816 H778 0.930 . S
C816 C815 1.378 . S
C816 C817 1.376 . S
C817 H779 0.929 . S
C817 C812 1.397 . S
C817 C816 1.376 . S
C818 C802 1.509 . S
C818 C819 1.391 . S
C818 C823 1.386 . S
C819 H780 0.930 . S
C819 C818 1.391 . S
C819 C820 1.375 . S
C820 H781 0.931 . S
C820 C819 1.375 . S
C820 C821 1.375 . S
C821 C820 1.375 . S
C821 C822 1.361 . S
C822 H782 0.930 . S
C822 C821 1.361 . S
C822 C823 1.399 . S
C823 H783 0.929 . S
C823 C818 1.386 . S
C823 C822 1.399 . S
C824 C803 1.485 . S
C824 C825 1.394 . S
C824 C829 1.360 . S
C825 H784 0.931 . S
C825 C824 1.394 . S
C825 C826 1.372 . S
C826 H785 0.930 . S
C826 C825 1.372 . S
C826 C827 1.397 . S
C827 C826 1.397 . S
C827 C828 1.390 . S
C827 C843 1.476 . S
C828 H786 0.930 . S
C828 C827 1.390 . S
C828 C829 1.366 . S
C829 H787 0.932 . S
C829 C824 1.360 . S
C829 C828 1.366 . S
C830 C804 1.490 . S
C830 C831 1.380 . S
C830 C835 1.386 . S
C831 H788 0.930 . S
C831 C830 1.380 . S
C831 C832 1.381 . S
C832 H789 0.929 . S
C832 C831 1.381 . S
C832 C833 1.371 . S
C833 C832 1.371 . S
C833 C834 1.380 . S
C834 H790 0.931 . S
C834 C833 1.380 . S
C834 C835 1.387 . S
C835 H791 0.930 . S
C835 C830 1.386 . S
C835 C834 1.387 . S
C836 C805 1.519 . S
C836 C837 1.377 . S
C836 C841 1.361 . S
C837 H792 0.929 . S
C837 C836 1.377 . S
C837 C838 1.386 . S
C838 H793 0.931 . S
C838 C837 1.386 . S
C838 C839 1.363 . S
C839 C838 1.363 . S
C839 C840 1.385 . S
C840 H794 0.930 . S
C840 C839 1.385 . S
C840 C841 1.396 . S
C841 H795 0.929 . S
C841 C836 1.361 . S
C841 C840 1.396 . S
C842 O796 1.300 . S
C842 O797 1.209 . S
C842 C815 1.486 . S
C843 O798 1.199 . S
C843 O799 1.297 . S
C843 C827 1.476 . S
H844 O870 0.856 . S
H845 O873 0.854 . S
H846 C881 0.930 . S
H847 C882 0.930 . S
H848 C884 0.930 . S
H849 C885 0.930 . S
H850 C887 0.931 . S
H851 C888 0.930 . S
H852 C890 0.930 . S
H853 C891 0.929 . S
H854 C893 0.930 . S
H855 C894 0.931 . S
H856 C896 0.930 . S
H857 C897 0.929 . S
H858 C899 0.931 . S
H859 C900 0.930 . S
H860 C902 0.930 . S
H861 C903 0.932 . S
H862 C905 0.930 . S
H863 C906 0.929 . S
H864 C908 0.931 . S
H865 C909 0.930 . S
H866 C911 0.929 . S
H867 C912 0.931 . S
H868 C914 0.930 . S
H869 C915 0.929 . S
O870 H844 0.856 . S
O870 C916 1.300 . S
O871 C916 1.209 . S
O872 C917 1.199 . S
O873 H845 0.854 . S
O873 C917 1.297 . S
C874 C875 1.404 . S
C874 C879 1.397 . S
C874 C880 1.492 . S
C875 C874 1.404 . S
C875 C876 1.396 . S
C875 C886 1.492 . S
C876 C875 1.396 . S
C876 C877 1.397 . S
C876 C892 1.509 . S
C877 C876 1.397 . S
C877 C878 1.412 . S
C877 C898 1.485 . S
C878 C877 1.412 . S
C878 C879 1.388 . S
C878 C904 1.490 . S
C879 C874 1.397 . S
C879 C878 1.388 . S
C879 C910 1.519 . S
C880 C874 1.492 . S
C880 C881 1.363 . S
C880 C885 1.390 . S
C881 H846 0.930 . S
C881 C880 1.363 . S
C881 C882 1.372 . S
C882 H847 0.930 . S
C882 C881 1.372 . S
C882 C883 1.383 . S
C883 C882 1.383 . S
C883 C884 1.395 . S
C884 H848 0.930 . S
C884 C883 1.395 . S
C884 C885 1.362 . S
C885 H849 0.930 . S
C885 C880 1.390 . S
C885 C884 1.362 . S
C886 C875 1.492 . S
C886 C887 1.377 . S
C886 C891 1.397 . S
C887 H850 0.931 . S
C887 C886 1.377 . S
C887 C888 1.376 . S
C888 H851 0.930 . S
C888 C887 1.376 . S
C888 C889 1.376 . S
C889 C888 1.376 . S
C889 C890 1.378 . S
C889 C916 1.486 . S
C890 H852 0.930 . S
C890 C889 1.378 . S
C890 C891 1.376 . S
C891 H853 0.929 . S
C891 C886 1.397 . S
C891 C890 1.376 . S
C892 C876 1.509 . S
C892 C893 1.391 . S
C892 C897 1.386 . S
C893 H854 0.930 . S
C893 C892 1.391 . S
C893 C894 1.375 . S
C894 H855 0.931 . S
C894 C893 1.375 . S
C894 C895 1.375 . S
C895 C894 1.375 . S
C895 C896 1.361 . S
C896 H856 0.930 . S
C896 C895 1.361 . S
C896 C897 1.399 . S
C897 H857 0.929 . S
C897 C892 1.386 . S
C897 C896 1.399 . S
C898 C877 1.485 . S
C898 C899 1.394 . S
C898 C903 1.360 . S
C899 H858 0.931 . S
C899 C898 1.394 . S
C899 C900 1.372 . S
C900 H859 0.930 . S
C900 C899 1.372 . S
C900 C901 1.397 . S
C901 C900 1.397 . S
C901 C902 1.390 . S
C901 C917 1.476 . S
C902 H860 0.930 . S
C902 C901 1.390 . S
C902 C903 1.366 . S
C903 H861 0.932 . S
C903 C898 1.360 . S
C903 C902 1.366 . S
C904 C878 1.490 . S
C904 C905 1.380 . S
C904 C909 1.386 . S
C905 H862 0.930 . S
C905 C904 1.380 . S
C905 C906 1.381 . S
C906 H863 0.929 . S
C906 C905 1.381 . S
C906 C907 1.371 . S
C907 C906 1.371 . S
C907 C908 1.380 . S
C908 H864 0.931 . S
C908 C907 1.380 . S
C908 C909 1.387 . S
C909 H865 0.930 . S
C909 C904 1.386 . S
C909 C908 1.387 . S
C910 C879 1.519 . S
C910 C911 1.377 . S
C910 C915 1.361 . S
C911 H866 0.929 . S
C911 C910 1.377 . S
C911 C912 1.386 . S
C912 H867 0.931 . S
C912 C911 1.386 . S
C912 C913 1.363 . S
C913 C912 1.363 . S
C913 C914 1.385 . S
C914 H868 0.930 . S
C914 C913 1.385 . S
C914 C915 1.396 . S
C915 H869 0.929 . S
C915 C910 1.361 . S
C915 C914 1.396 . S
C916 O870 1.300 . S
C916 O871 1.209 . S
C916 C889 1.486 . S
C917 O872 1.199 . S
C917 O873 1.297 . S
C917 C901 1.476 . S
H918 O944 0.856 . S
H919 O947 0.854 . S
H920 C955 0.930 . S
H921 C956 0.930 . S
H922 C958 0.930 . S
H923 C959 0.930 . S
H924 C961 0.931 . S
H925 C962 0.922 1_655 S
H926 C964 0.930 . S
H927 C965 0.929 . S
H928 C967 0.930 . S
H929 C968 0.929 . S
H930 C970 0.930 . S
H931 C971 0.929 . S
H932 C973 0.931 . S
H933 C974 0.930 . S
H934 C976 0.930 . S
H935 C977 0.932 . S
H936 C979 0.930 . S
H937 C980 0.929 . S
H938 C982 0.931 . S
H939 C983 0.930 . S
H940 C985 0.929 . S
H941 C986 0.931 . S
H942 C988 0.930 . S
H943 C989 0.929 . S
O944 H918 0.856 . S
O944 C990 1.300 . S
O945 C990 1.209 . S
O946 C991 1.199 1_655 S
O947 H919 0.854 . S
O947 C991 1.297 . S
C948 C949 1.404 . S
C948 C953 1.394 . S
C948 C954 1.492 . S
C949 C948 1.404 . S
C949 C950 1.396 . S
C949 C960 1.492 . S
C950 C949 1.396 . S
C950 C951 1.397 . S
C950 C966 1.509 . S
C951 C950 1.397 . S
C951 C952 1.425 . S
C951 C972 1.485 . S
C952 C951 1.425 . S
C952 C953 1.401 . S
C952 C978 1.491 1_455 S
C953 C948 1.394 . S
C953 C952 1.401 . S
C953 C984 1.494 1_455 S
C954 C948 1.492 . S
C954 C955 1.363 1_455 S
C954 C959 1.390 . S
C955 H920 0.930 . S
C955 C954 1.363 1_655 S
C955 C956 1.372 . S
C956 H921 0.930 . S
C956 C955 1.372 . S
C956 C957 1.383 . S
C957 C956 1.383 . S
C957 C958 1.395 1_655 S
C958 H922 0.930 . S
C958 C957 1.395 1_455 S
C958 C959 1.362 . S
C959 H923 0.930 . S
C959 C954 1.390 . S
C959 C958 1.362 . S
C960 C949 1.492 . S
C960 C961 1.377 1_455 S
C960 C965 1.397 . S
C961 H924 0.931 . S
C961 C960 1.377 1_655 S
C961 C962 1.377 1_655 S
C962 H925 0.922 1_455 S
C962 C961 1.377 1_455 S
C962 C963 1.383 . S
C963 C962 1.383 . S
C963 C964 1.378 . S
C963 C990 1.486 . S
C964 H926 0.930 . S
C964 C963 1.378 . S
C964 C965 1.376 . S
C965 H927 0.929 . S
C965 C960 1.397 . S
C965 C964 1.376 . S
C966 C950 1.509 . S
C966 C967 1.391 1_455 S
C966 C971 1.386 . S
C967 H928 0.930 . S
C967 C966 1.391 1_655 S
C967 C968 1.372 . S
C968 H929 0.929 . S
C968 C967 1.372 . S
C968 C969 1.380 1_655 S
C969 C968 1.380 1_455 S
C969 C970 1.361 . S
C970 H930 0.930 . S
C970 C969 1.361 . S
C970 C971 1.399 . S
C971 H931 0.929 . S
C971 C966 1.386 . S
C971 C970 1.399 . S
C972 C951 1.485 . S
C972 C973 1.394 1_455 S
C972 C977 1.360 . S
C973 H932 0.931 . S
C973 C972 1.394 1_655 S
C973 C974 1.372 . S
C974 H933 0.930 . S
C974 C973 1.372 . S
C974 C975 1.397 1_655 S
C975 C974 1.397 1_455 S
C975 C976 1.390 . S
C975 C991 1.476 . S
C976 H934 0.930 . S
C976 C975 1.390 . S
C976 C977 1.366 . S
C977 H935 0.932 . S
C977 C972 1.360 . S
C977 C976 1.366 . S
C978 C952 1.491 1_655 S
C978 C979 1.380 . S
C978 C983 1.386 1_655 S
C979 H936 0.930 . S
C979 C978 1.380 . S
C979 C980 1.381 . S
C980 H937 0.929 . S
C980 C979 1.381 . S
C980 C981 1.371 . S
C981 C980 1.371 . S
C981 C982 1.380 1_655 S
C982 H938 0.931 . S
C982 C981 1.380 1_455 S
C982 C983 1.387 . S
C983 H939 0.930 . S
C983 C978 1.386 1_455 S
C983 C982 1.387 . S
C984 C953 1.494 1_655 S
C984 C985 1.395 . S
C984 C989 1.349 1_655 S
C985 H940 0.929 . S
C985 C984 1.395 . S
C985 C986 1.386 . S
C986 H941 0.931 . S
C986 C985 1.386 . S
C986 C987 1.364 1_655 S
C987 C986 1.364 1_455 S
C987 C988 1.384 . S
C988 H942 0.930 . S
C988 C987 1.384 . S
C988 C989 1.396 . S
C989 H943 0.929 . S
C989 C984 1.349 1_455 S
C989 C988 1.396 . S
C990 O944 1.300 . S
C990 O945 1.209 . S
C990 C963 1.486 . S
C991 O946 1.199 1_455 S
C991 O947 1.297 . S
C991 C975 1.476 . S
H992 O1018 0.856 . S
H993 O1021 0.854 . S
H994 C1029 0.930 . S
H995 C1030 0.930 . S
H996 C1032 0.930 . S
H997 C1033 0.930 . S
H998 C1035 0.931 . S
H999 C1036 0.930 . S
H1000 C1038 0.930 . S
H1001 C1039 0.929 . S
H1002 C1041 0.930 . S
H1003 C1042 0.931 . S
H1004 C1044 0.930 . S
H1005 C1045 0.929 . S
H1006 C1047 0.931 . S
H1007 C1048 0.930 . S
H1008 C1050 0.930 . S
H1009 C1051 0.932 . S
H1010 C1053 0.930 . S
H1011 C1054 0.929 . S
H1012 C1056 0.931 . S
H1013 C1057 0.930 . S
H1014 C1059 0.929 . S
H1015 C1060 0.931 . S
H1016 C1062 0.930 . S
H1017 C1063 0.929 . S
O1018 H992 0.856 . S
O1018 C1064 1.300 . S
O1019 C1064 1.209 . S
O1020 C1065 1.199 . S
O1021 H993 0.854 . S
O1021 C1065 1.297 . S
C1022 C1023 1.404 . S
C1022 C1027 1.397 . S
C1022 C1028 1.492 . S
C1023 C1022 1.404 . S
C1023 C1024 1.396 . S
C1023 C1034 1.492 . S
C1024 C1023 1.396 . S
C1024 C1025 1.397 . S
C1024 C1040 1.509 . S
C1025 C1024 1.397 . S
C1025 C1026 1.412 . S
C1025 C1046 1.485 . S
C1026 C1025 1.412 . S
C1026 C1027 1.388 . S
C1026 C1052 1.490 . S
C1027 C1022 1.397 . S
C1027 C1026 1.388 . S
C1027 C1058 1.519 . S
C1028 C1022 1.492 . S
C1028 C1029 1.363 . S
C1028 C1033 1.390 . S
C1029 H994 0.930 . S
C1029 C1028 1.363 . S
C1029 C1030 1.372 . S
C1030 H995 0.930 . S
C1030 C1029 1.372 . S
C1030 C1031 1.383 . S
C1031 C1030 1.383 . S
C1031 C1032 1.395 . S
C1032 H996 0.930 . S
C1032 C1031 1.395 . S
C1032 C1033 1.362 . S
C1033 H997 0.930 . S
C1033 C1028 1.390 . S
C1033 C1032 1.362 . S
C1034 C1023 1.492 . S
C1034 C1035 1.377 . S
C1034 C1039 1.397 . S
C1035 H998 0.931 . S
C1035 C1034 1.377 . S
C1035 C1036 1.376 . S
C1036 H999 0.930 . S
C1036 C1035 1.376 . S
C1036 C1037 1.376 . S
C1037 C1036 1.376 . S
C1037 C1038 1.378 . S
C1037 C1064 1.486 . S
C1038 H1000 0.930 . S
C1038 C1037 1.378 . S
C1038 C1039 1.376 . S
C1039 H1001 0.929 . S
C1039 C1034 1.397 . S
C1039 C1038 1.376 . S
C1040 C1024 1.509 . S
C1040 C1041 1.391 . S
C1040 C1045 1.386 . S
C1041 H1002 0.930 . S
C1041 C1040 1.391 . S
C1041 C1042 1.375 . S
C1042 H1003 0.931 . S
C1042 C1041 1.375 . S
C1042 C1043 1.375 . S
C1043 C1042 1.375 . S
C1043 C1044 1.361 . S
C1044 H1004 0.930 . S
C1044 C1043 1.361 . S
C1044 C1045 1.399 . S
C1045 H1005 0.929 . S
C1045 C1040 1.386 . S
C1045 C1044 1.399 . S
C1046 C1025 1.485 . S
C1046 C1047 1.394 . S
C1046 C1051 1.360 . S
C1047 H1006 0.931 . S
C1047 C1046 1.394 . S
C1047 C1048 1.372 . S
C1048 H1007 0.930 . S
C1048 C1047 1.372 . S
C1048 C1049 1.397 . S
C1049 C1048 1.397 . S
C1049 C1050 1.390 . S
C1049 C1065 1.476 . S
C1050 H1008 0.930 . S
C1050 C1049 1.390 . S
C1050 C1051 1.366 . S
C1051 H1009 0.932 . S
C1051 C1046 1.360 . S
C1051 C1050 1.366 . S
C1052 C1026 1.490 . S
C1052 C1053 1.380 . S
C1052 C1057 1.386 . S
C1053 H1010 0.930 . S
C1053 C1052 1.380 . S
C1053 C1054 1.381 . S
C1054 H1011 0.929 . S
C1054 C1053 1.381 . S
C1054 C1055 1.371 . S
C1055 C1054 1.371 . S
C1055 C1056 1.380 . S
C1056 H1012 0.931 . S
C1056 C1055 1.380 . S
C1056 C1057 1.387 . S
C1057 H1013 0.930 . S
C1057 C1052 1.386 . S
C1057 C1056 1.387 . S
C1058 C1027 1.519 . S
C1058 C1059 1.377 . S
C1058 C1063 1.361 . S
C1059 H1014 0.929 . S
C1059 C1058 1.377 . S
C1059 C1060 1.386 . S
C1060 H1015 0.931 . S
C1060 C1059 1.386 . S
C1060 C1061 1.363 . S
C1061 C1060 1.363 . S
C1061 C1062 1.385 . S
C1062 H1016 0.930 . S
C1062 C1061 1.385 . S
C1062 C1063 1.396 . S
C1063 H1017 0.929 . S
C1063 C1058 1.361 . S
C1063 C1062 1.396 . S
C1064 O1018 1.300 . S
C1064 O1019 1.209 . S
C1064 C1037 1.486 . S
C1065 O1020 1.199 . S
C1065 O1021 1.297 . S
C1065 C1049 1.476 . S
H1066 O1092 0.856 . S
H1067 O1095 0.854 . S
H1068 C1103 0.930 . S
H1069 C1104 0.930 . S
H1070 C1106 0.930 . S
H1071 C1107 0.930 . S
H1072 C1109 0.931 . S
H1073 C1110 0.930 . S
H1074 C1112 0.930 . S
H1075 C1113 0.929 . S
H1076 C1115 0.930 . S
H1077 C1116 0.931 . S
H1078 C1118 0.930 . S
H1079 C1119 0.929 . S
H1080 C1121 0.931 . S
H1081 C1122 0.930 . S
H1082 C1124 0.930 . S
H1083 C1125 0.932 . S
H1084 C1127 0.930 . S
H1085 C1128 0.929 . S
H1086 C1130 0.931 . S
H1087 C1131 0.930 . S
H1088 C1133 0.929 . S
H1089 C1134 0.931 . S
H1090 C1136 0.930 . S
H1091 C1137 0.929 . S
O1092 H1066 0.856 . S
O1092 C1138 1.300 . S
O1093 C1138 1.209 . S
O1094 C1139 1.199 1_545 S
O1095 H1067 0.854 . S
O1095 C1139 1.297 . S
C1096 C1097 1.404 . S
C1096 C1101 1.412 . S
C1096 C1102 1.492 . S
C1097 C1096 1.404 . S
C1097 C1098 1.396 . S
C1097 C1108 1.492 . S
C1098 C1097 1.396 . S
C1098 C1099 1.397 . S
C1098 C1114 1.509 . S
C1099 C1098 1.397 . S
C1099 C1100 1.408 . S
C1099 C1120 1.485 . S
C1100 C1099 1.408 . S
C1100 C1101 1.375 . S
C1100 C1126 1.483 1_565 S
C1101 C1096 1.412 . S
C1101 C1100 1.375 . S
C1101 C1132 1.535 . S
C1102 C1096 1.492 . S
C1102 C1103 1.363 1_565 S
C1102 C1107 1.390 . S
C1103 H1068 0.930 . S
C1103 C1102 1.363 1_545 S
C1103 C1104 1.372 . S
C1104 H1069 0.930 . S
C1104 C1103 1.372 . S
C1104 C1105 1.383 . S
C1105 C1104 1.383 . S
C1105 C1106 1.395 1_545 S
C1106 H1070 0.930 . S
C1106 C1105 1.395 1_565 S
C1106 C1107 1.362 . S
C1107 H1071 0.930 . S
C1107 C1102 1.390 . S
C1107 C1106 1.362 . S
C1108 C1097 1.492 . S
C1108 C1109 1.377 1_565 S
C1108 C1113 1.397 . S
C1109 H1072 0.931 . S
C1109 C1108 1.377 1_545 S
C1109 C1110 1.376 . S
C1110 H1073 0.930 . S
C1110 C1109 1.376 . S
C1110 C1111 1.376 1_545 S
C1111 C1110 1.376 1_565 S
C1111 C1112 1.378 . S
C1111 C1138 1.486 . S
C1112 H1074 0.930 . S
C1112 C1111 1.378 . S
C1112 C1113 1.376 . S
C1113 H1075 0.929 . S
C1113 C1108 1.397 . S
C1113 C1112 1.376 . S
C1114 C1098 1.509 . S
C1114 C1115 1.391 1_565 S
C1114 C1119 1.386 . S
C1115 H1076 0.930 . S
C1115 C1114 1.391 1_545 S
C1115 C1116 1.375 . S
C1116 H1077 0.931 . S
C1116 C1115 1.375 . S
C1116 C1117 1.375 1_545 S
C1117 C1116 1.375 1_565 S
C1117 C1118 1.361 . S
C1118 H1078 0.930 . S
C1118 C1117 1.361 . S
C1118 C1119 1.399 . S
C1119 H1079 0.929 . S
C1119 C1114 1.386 . S
C1119 C1118 1.399 . S
C1120 C1099 1.485 . S
C1120 C1121 1.394 1_565 S
C1120 C1125 1.360 . S
C1121 H1080 0.931 . S
C1121 C1120 1.394 1_545 S
C1121 C1122 1.372 . S
C1122 H1081 0.930 . S
C1122 C1121 1.372 . S
C1122 C1123 1.397 1_545 S
C1123 C1122 1.397 1_565 S
C1123 C1124 1.390 . S
C1123 C1139 1.476 . S
C1124 H1082 0.930 . S
C1124 C1123 1.390 . S
C1124 C1125 1.366 . S
C1125 H1083 0.932 . S
C1125 C1120 1.360 . S
C1125 C1124 1.366 . S
C1126 C1100 1.483 1_545 S
C1126 C1127 1.380 . S
C1126 C1131 1.386 1_545 S
C1127 H1084 0.930 . S
C1127 C1126 1.380 . S
C1127 C1128 1.381 . S
C1128 H1085 0.929 . S
C1128 C1127 1.381 . S
C1128 C1129 1.371 . S
C1129 C1128 1.371 . S
C1129 C1130 1.380 1_545 S
C1130 H1086 0.931 . S
C1130 C1129 1.380 1_565 S
C1130 C1131 1.387 . S
C1131 H1087 0.930 . S
C1131 C1126 1.386 1_565 S
C1131 C1130 1.387 . S
C1132 C1101 1.535 . S
C1132 C1133 1.379 1_565 S
C1132 C1137 1.357 . S
C1133 H1088 0.929 . S
C1133 C1132 1.379 1_545 S
C1133 C1134 1.386 . S
C1134 H1089 0.931 . S
C1134 C1133 1.386 . S
C1134 C1135 1.363 1_545 S
C1135 C1134 1.363 1_565 S
C1135 C1136 1.385 . S
C1136 H1090 0.930 . S
C1136 C1135 1.385 . S
C1136 C1137 1.396 . S
C1137 H1091 0.929 . S
C1137 C1132 1.357 . S
C1137 C1136 1.396 . S
C1138 O1092 1.300 . S
C1138 O1093 1.209 . S
C1138 C1111 1.486 . S
C1139 O1094 1.199 1_565 S
C1139 O1095 1.297 . S
C1139 C1123 1.476 . S
H1140 O1166 0.856 . S
H1141 O1169 0.854 . S
H1142 C1177 0.930 . S
H1143 C1178 0.930 . S
H1144 C1180 0.930 . S
H1145 C1181 0.930 . S
H1146 C1183 0.931 . S
H1147 C1184 0.930 . S
H1148 C1186 0.930 . S
H1149 C1187 0.929 . S
H1150 C1189 0.930 . S
H1151 C1190 0.931 . S
H1152 C1192 0.930 . S
H1153 C1193 0.929 . S
H1154 C1195 0.931 . S
H1155 C1196 0.930 . S
H1156 C1198 0.930 . S
H1157 C1199 0.932 . S
H1158 C1201 0.930 . S
H1159 C1202 0.929 . S
H1160 C1204 0.931 . S
H1161 C1205 0.930 . S
H1162 C1207 0.929 . S
H1163 C1208 0.931 . S
H1164 C1210 0.930 . S
H1165 C1211 0.929 . S
O1166 H1140 0.856 . S
O1166 C1212 1.300 . S
O1167 C1212 1.209 1_565 S
O1168 C1213 1.199 1_545 S
O1169 H1141 0.854 . S
O1169 C1213 1.297 . S
C1170 C1171 1.404 . S
C1170 C1175 1.397 1_545 S
C1170 C1176 1.492 . S
C1171 C1170 1.404 . S
C1171 C1172 1.425 . S
C1171 C1182 1.492 . S
C1172 C1171 1.425 . S
C1172 C1173 1.381 1_545 S
C1172 C1188 1.503 . S
C1173 C1172 1.381 1_565 S
C1173 C1174 1.415 . S
C1173 C1194 1.498 . S
C1174 C1173 1.415 . S
C1174 C1175 1.371 . S
C1174 C1200 1.490 . S
C1175 C1170 1.397 1_565 S
C1175 C1174 1.371 . S
C1175 C1206 1.519 . S
C1176 C1170 1.492 . S
C1176 C1177 1.363 . S
C1176 C1181 1.390 1_545 S
C1177 H1142 0.930 . S
C1177 C1176 1.363 . S
C1177 C1178 1.372 . S
C1178 H1143 0.930 . S
C1178 C1177 1.372 . S
C1178 C1179 1.383 . S
C1179 C1178 1.383 . S
C1179 C1180 1.395 1_545 S
C1180 H1144 0.930 . S
C1180 C1179 1.395 1_565 S
C1180 C1181 1.362 . S
C1181 H1145 0.930 . S
C1181 C1176 1.390 1_565 S
C1181 C1180 1.362 . S
C1182 C1171 1.492 . S
C1182 C1183 1.377 . S
C1182 C1187 1.397 1_545 S
C1183 H1146 0.931 . S
C1183 C1182 1.377 . S
C1183 C1184 1.376 . S
C1184 H1147 0.930 . S
C1184 C1183 1.376 . S
C1184 C1185 1.376 . S
C1185 C1184 1.376 . S
C1185 C1186 1.378 1_545 S
C1185 C1212 1.486 . S
C1186 H1148 0.930 . S
C1186 C1185 1.378 1_565 S
C1186 C1187 1.376 . S
C1187 H1149 0.929 . S
C1187 C1182 1.397 1_565 S
C1187 C1186 1.376 . S
C1188 C1172 1.503 . S
C1188 C1189 1.406 . S
C1188 C1193 1.362 1_545 S
C1189 H1150 0.930 . S
C1189 C1188 1.406 . S
C1189 C1190 1.375 . S
C1190 H1151 0.931 . S
C1190 C1189 1.375 . S
C1190 C1191 1.370 . S
C1191 C1190 1.370 . S
C1191 C1192 1.365 1_545 S
C1192 H1152 0.930 . S
C1192 C1191 1.365 1_565 S
C1192 C1193 1.399 . S
C1193 H1153 0.929 . S
C1193 C1188 1.362 1_565 S
C1193 C1192 1.399 . S
C1194 C1173 1.498 . S
C1194 C1195 1.394 1_565 S
C1194 C1199 1.360 . S
C1195 H1154 0.931 . S
C1195 C1194 1.394 1_545 S
C1195 C1196 1.372 . S
C1196 H1155 0.930 . S
C1196 C1195 1.372 . S
C1196 C1197 1.397 1_545 S
C1197 C1196 1.397 1_565 S
C1197 C1198 1.390 . S
C1197 C1213 1.476 . S
C1198 H1156 0.930 . S
C1198 C1197 1.390 . S
C1198 C1199 1.366 . S
C1199 H1157 0.932 . S
C1199 C1194 1.360 . S
C1199 C1198 1.366 . S
C1200 C1174 1.490 . S
C1200 C1201 1.355 1_565 S
C1200 C1205 1.417 . S
C1201 H1158 0.930 . S
C1201 C1200 1.355 1_545 S
C1201 C1202 1.381 . S
C1202 H1159 0.929 . S
C1202 C1201 1.381 . S
C1202 C1203 1.423 . S
C1203 C1202 1.423 . S
C1203 C1204 1.337 1_545 S
C1204 H1160 0.931 . S
C1204 C1203 1.337 1_565 S
C1204 C1205 1.387 . S
C1205 H1161 0.930 . S
C1205 C1200 1.417 . S
C1205 C1204 1.387 . S
C1206 C1175 1.519 . S
C1206 C1207 1.377 1_565 S
C1206 C1211 1.361 . S
C1207 H1162 0.929 . S
C1207 C1206 1.377 1_545 S
C1207 C1208 1.386 . S
C1208 H1163 0.931 . S
C1208 C1207 1.386 . S
C1208 C1209 1.363 1_545 S
C1209 C1208 1.363 1_565 S
C1209 C1210 1.385 . S
C1210 H1164 0.930 . S
C1210 C1209 1.385 . S
C1210 C1211 1.396 . S
C1211 H1165 0.929 . S
C1211 C1206 1.361 . S
C1211 C1210 1.396 . S
C1212 O1166 1.300 . S
C1212 O1167 1.209 1_545 S
C1212 C1185 1.486 . S
C1213 O1168 1.199 1_565 S
C1213 O1169 1.297 . S
C1213 C1197 1.476 . S
H1214 O1240 0.856 . S
H1215 O1243 0.854 . S
H1216 C1251 0.930 . S
H1217 C1252 0.930 . S
H1218 C1254 0.930 . S
H1219 C1255 0.930 . S
H1220 C1257 0.931 . S
H1221 C1258 0.930 . S
H1222 C1260 0.930 . S
H1223 C1261 0.929 . S
H1224 C1263 0.930 . S
H1225 C1264 0.931 . S
H1226 C1266 0.930 . S
H1227 C1267 0.929 . S
H1228 C1269 0.931 . S
H1229 C1270 0.930 . S
H1230 C1272 0.930 . S
H1231 C1273 0.932 . S
H1232 C1275 0.930 . S
H1233 C1276 0.929 . S
H1234 C1278 0.931 . S
H1235 C1279 0.930 . S
H1236 C1281 0.929 . S
H1237 C1282 0.931 . S
H1238 C1284 0.930 . S
H1239 C1285 0.929 . S
O1240 H1214 0.856 . S
O1240 C1286 1.300 . S
O1241 C1286 1.209 1_455 S
O1242 C1287 1.199 1_655 S
O1243 H1215 0.854 . S
O1243 C1287 1.297 . S
C1244 C1245 1.404 . S
C1244 C1249 1.396 1_655 S
C1244 C1250 1.492 . S
C1245 C1244 1.404 . S
C1245 C1246 1.396 . S
C1245 C1256 1.492 . S
C1246 C1245 1.396 . S
C1246 C1247 1.397 1_655 S
C1246 C1262 1.509 . S
C1247 C1246 1.397 1_455 S
C1247 C1248 1.399 . S
C1247 C1268 1.485 . S
C1248 C1247 1.399 . S
C1248 C1249 1.410 . S
C1248 C1274 1.485 . S
C1249 C1244 1.396 1_455 S
C1249 C1248 1.410 . S
C1249 C1280 1.516 . S
C1250 C1244 1.492 . S
C1250 C1251 1.363 . S
C1250 C1255 1.390 1_655 S
C1251 H1216 0.930 . S
C1251 C1250 1.363 . S
C1251 C1252 1.372 . S
C1252 H1217 0.930 . S
C1252 C1251 1.372 . S
C1252 C1253 1.383 . S
C1253 C1252 1.383 . S
C1253 C1254 1.395 1_655 S
C1254 H1218 0.930 . S
C1254 C1253 1.395 1_455 S
C1254 C1255 1.362 . S
C1255 H1219 0.930 . S
C1255 C1250 1.390 1_455 S
C1255 C1254 1.362 . S
C1256 C1245 1.492 . S
C1256 C1257 1.377 . S
C1256 C1261 1.397 1_655 S
C1257 H1220 0.931 . S
C1257 C1256 1.377 . S
C1257 C1258 1.376 . S
C1258 H1221 0.930 . S
C1258 C1257 1.376 . S
C1258 C1259 1.376 . S
C1259 C1258 1.376 . S
C1259 C1260 1.378 1_655 S
C1259 C1286 1.486 . S
C1260 H1222 0.930 . S
C1260 C1259 1.378 1_455 S
C1260 C1261 1.376 . S
C1261 H1223 0.929 . S
C1261 C1256 1.397 1_455 S
C1261 C1260 1.376 . S
C1262 C1246 1.509 . S
C1262 C1263 1.391 . S
C1262 C1267 1.386 1_655 S
C1263 H1224 0.930 . S
C1263 C1262 1.391 . S
C1263 C1264 1.375 . S
C1264 H1225 0.931 . S
C1264 C1263 1.375 . S
C1264 C1265 1.375 . S
C1265 C1264 1.375 . S
C1265 C1266 1.361 1_655 S
C1266 H1226 0.930 . S
C1266 C1265 1.361 1_455 S
C1266 C1267 1.399 . S
C1267 H1227 0.929 . S
C1267 C1262 1.386 1_455 S
C1267 C1266 1.399 . S
C1268 C1247 1.485 . S
C1268 C1269 1.394 1_455 S
C1268 C1273 1.360 . S
C1269 H1228 0.931 . S
C1269 C1268 1.394 1_655 S
C1269 C1270 1.372 . S
C1270 H1229 0.930 . S
C1270 C1269 1.372 . S
C1270 C1271 1.397 1_655 S
C1271 C1270 1.397 1_455 S
C1271 C1272 1.390 . S
C1271 C1287 1.476 . S
C1272 H1230 0.930 . S
C1272 C1271 1.390 . S
C1272 C1273 1.366 . S
C1273 H1231 0.932 . S
C1273 C1268 1.360 . S
C1273 C1272 1.366 . S
C1274 C1248 1.485 . S
C1274 C1275 1.380 1_455 S
C1274 C1279 1.386 . S
C1275 H1232 0.930 . S
C1275 C1274 1.380 1_655 S
C1275 C1276 1.381 . S
C1276 H1233 0.929 . S
C1276 C1275 1.381 . S
C1276 C1277 1.350 1_655 S
C1277 C1276 1.350 1_455 S
C1277 C1278 1.413 . S
C1278 H1234 0.931 . S
C1278 C1277 1.413 . S
C1278 C1279 1.387 . S
C1279 H1235 0.930 . S
C1279 C1274 1.386 . S
C1279 C1278 1.387 . S
C1280 C1249 1.516 . S
C1280 C1281 1.377 1_455 S
C1280 C1285 1.361 . S
C1281 H1236 0.929 . S
C1281 C1280 1.377 1_655 S
C1281 C1282 1.386 . S
C1282 H1237 0.931 . S
C1282 C1281 1.386 . S
C1282 C1283 1.363 1_655 S
C1283 C1282 1.363 1_455 S
C1283 C1284 1.385 . S
C1284 H1238 0.930 . S
C1284 C1283 1.385 . S
C1284 C1285 1.396 . S
C1285 H1239 0.929 . S
C1285 C1280 1.361 . S
C1285 C1284 1.396 . S
C1286 O1240 1.300 . S
C1286 O1241 1.209 1_655 S
C1286 C1259 1.486 . S
C1287 O1242 1.199 1_455 S
C1287 O1243 1.297 . S
C1287 C1271 1.476 . S
H1288 O1314 0.856 . S
H1289 O1317 0.854 . S
H1290 C1325 0.930 . S
H1291 C1326 0.930 . S
H1292 C1328 0.930 . S
H1293 C1329 0.930 . S
H1294 C1331 0.931 . S
H1295 C1332 0.930 . S
H1296 C1334 0.930 . S
H1297 C1335 0.929 . S
H1298 C1337 0.930 . S
H1299 C1338 0.931 . S
H1300 C1340 0.930 . S
H1301 C1341 0.929 . S
H1302 C1343 0.931 . S
H1303 C1344 0.930 . S
H1304 C1346 0.930 . S
H1305 C1347 0.932 . S
H1306 C1349 0.930 . S
H1307 C1350 0.929 . S
H1308 C1352 0.931 . S
H1309 C1353 0.930 . S
H1310 C1355 0.929 . S
H1311 C1356 0.931 . S
H1312 C1358 0.930 . S
H1313 C1359 0.929 . S
O1314 H1288 0.856 . S
O1314 C1360 1.300 . S
O1315 C1360 1.209 . S
O1316 C1361 1.199 . S
O1317 H1289 0.854 . S
O1317 C1361 1.297 . S
C1318 C1319 1.404 . S
C1318 C1323 1.397 . S
C1318 C1324 1.492 . S
C1319 C1318 1.404 . S
C1319 C1320 1.396 . S
C1319 C1330 1.492 . S
C1320 C1319 1.396 . S
C1320 C1321 1.397 . S
C1320 C1336 1.509 . S
C1321 C1320 1.397 . S
C1321 C1322 1.412 . S
C1321 C1342 1.485 . S
C1322 C1321 1.412 . S
C1322 C1323 1.388 . S
C1322 C1348 1.490 . S
C1323 C1318 1.397 . S
C1323 C1322 1.388 . S
C1323 C1354 1.519 . S
C1324 C1318 1.492 . S
C1324 C1325 1.363 . S
C1324 C1329 1.390 . S
C1325 H1290 0.930 . S
C1325 C1324 1.363 . S
C1325 C1326 1.372 . S
C1326 H1291 0.930 . S
C1326 C1325 1.372 . S
C1326 C1327 1.383 . S
C1327 C1326 1.383 . S
C1327 C1328 1.395 . S
C1328 H1292 0.930 . S
C1328 C1327 1.395 . S
C1328 C1329 1.362 . S
C1329 H1293 0.930 . S
C1329 C1324 1.390 . S
C1329 C1328 1.362 . S
C1330 C1319 1.492 . S
C1330 C1331 1.377 . S
C1330 C1335 1.397 . S
C1331 H1294 0.931 . S
C1331 C1330 1.377 . S
C1331 C1332 1.376 . S
C1332 H1295 0.930 . S
C1332 C1331 1.376 . S
C1332 C1333 1.376 . S
C1333 C1332 1.376 . S
C1333 C1334 1.378 . S
C1333 C1360 1.486 . S
C1334 H1296 0.930 . S
C1334 C1333 1.378 . S
C1334 C1335 1.376 . S
C1335 H1297 0.929 . S
C1335 C1330 1.397 . S
C1335 C1334 1.376 . S
C1336 C1320 1.509 . S
C1336 C1337 1.391 . S
C1336 C1341 1.386 . S
C1337 H1298 0.930 . S
C1337 C1336 1.391 . S
C1337 C1338 1.375 . S
C1338 H1299 0.931 . S
C1338 C1337 1.375 . S
C1338 C1339 1.375 . S
C1339 C1338 1.375 . S
C1339 C1340 1.361 . S
C1340 H1300 0.930 . S
C1340 C1339 1.361 . S
C1340 C1341 1.399 . S
C1341 H1301 0.929 . S
C1341 C1336 1.386 . S
C1341 C1340 1.399 . S
C1342 C1321 1.485 . S
C1342 C1343 1.394 . S
C1342 C1347 1.360 . S
C1343 H1302 0.931 . S
C1343 C1342 1.394 . S
C1343 C1344 1.372 . S
C1344 H1303 0.930 . S
C1344 C1343 1.372 . S
C1344 C1345 1.397 . S
C1345 C1344 1.397 . S
C1345 C1346 1.390 . S
C1345 C1361 1.476 . S
C1346 H1304 0.930 . S
C1346 C1345 1.390 . S
C1346 C1347 1.366 . S
C1347 H1305 0.932 . S
C1347 C1342 1.360 . S
C1347 C1346 1.366 . S
C1348 C1322 1.490 . S
C1348 C1349 1.380 . S
C1348 C1353 1.386 . S
C1349 H1306 0.930 . S
C1349 C1348 1.380 . S
C1349 C1350 1.381 . S
C1350 H1307 0.929 . S
C1350 C1349 1.381 . S
C1350 C1351 1.371 . S
C1351 C1350 1.371 . S
C1351 C1352 1.380 . S
C1352 H1308 0.931 . S
C1352 C1351 1.380 . S
C1352 C1353 1.387 . S
C1353 H1309 0.930 . S
C1353 C1348 1.386 . S
C1353 C1352 1.387 . S
C1354 C1323 1.519 . S
C1354 C1355 1.377 . S
C1354 C1359 1.361 . S
C1355 H1310 0.929 . S
C1355 C1354 1.377 . S
C1355 C1356 1.386 . S
C1356 H1311 0.931 . S
C1356 C1355 1.386 . S
C1356 C1357 1.363 . S
C1357 C1356 1.363 . S
C1357 C1358 1.385 . S
C1358 H1312 0.930 . S
C1358 C1357 1.385 . S
C1358 C1359 1.396 . S
C1359 H1313 0.929 . S
C1359 C1354 1.361 . S
C1359 C1358 1.396 . S
C1360 O1314 1.300 . S
C1360 O1315 1.209 . S
C1360 C1333 1.486 . S
C1361 O1316 1.199 . S
C1361 O1317 1.297 . S
C1361 C1345 1.476 . S
H1362 O1388 0.856 . S
H1363 O1391 0.854 . S
H1364 C1399 0.930 . S
H1365 C1400 0.930 . S
H1366 C1402 0.930 . S
H1367 C1403 0.930 . S
H1368 C1405 0.931 . S
H1369 C1406 0.930 . S
H1370 C1408 0.930 . S
H1371 C1409 0.929 . S
H1372 C1411 0.930 . S
H1373 C1412 0.931 . S
H1374 C1414 0.930 . S
H1375 C1415 0.929 . S
H1376 C1417 0.931 . S
H1377 C1418 0.930 . S
H1378 C1420 0.930 . S
H1379 C1421 0.932 . S
H1380 C1423 0.930 . S
H1381 C1424 0.929 . S
H1382 C1426 0.931 . S
H1383 C1427 0.930 . S
H1384 C1429 0.929 . S
H1385 C1430 0.931 . S
H1386 C1432 0.930 . S
H1387 C1433 0.929 . S
O1388 H1362 0.856 . S
O1388 C1434 1.300 . S
O1389 C1434 1.209 . S
O1390 C1435 1.199 . S
O1391 H1363 0.854 . S
O1391 C1435 1.297 . S
C1392 C1393 1.404 . S
C1392 C1397 1.397 . S
C1392 C1398 1.492 . S
C1393 C1392 1.404 . S
C1393 C1394 1.396 . S
C1393 C1404 1.492 . S
C1394 C1393 1.396 . S
C1394 C1395 1.397 . S
C1394 C1410 1.509 . S
C1395 C1394 1.397 . S
C1395 C1396 1.412 . S
C1395 C1416 1.485 . S
C1396 C1395 1.412 . S
C1396 C1397 1.388 . S
C1396 C1422 1.490 . S
C1397 C1392 1.397 . S
C1397 C1396 1.388 . S
C1397 C1428 1.519 . S
C1398 C1392 1.492 . S
C1398 C1399 1.363 . S
C1398 C1403 1.390 . S
C1399 H1364 0.930 . S
C1399 C1398 1.363 . S
C1399 C1400 1.372 . S
C1400 H1365 0.930 . S
C1400 C1399 1.372 . S
C1400 C1401 1.383 . S
C1401 C1400 1.383 . S
C1401 C1402 1.395 . S
C1402 H1366 0.930 . S
C1402 C1401 1.395 . S
C1402 C1403 1.362 . S
C1403 H1367 0.930 . S
C1403 C1398 1.390 . S
C1403 C1402 1.362 . S
C1404 C1393 1.492 . S
C1404 C1405 1.377 . S
C1404 C1409 1.397 . S
C1405 H1368 0.931 . S
C1405 C1404 1.377 . S
C1405 C1406 1.376 . S
C1406 H1369 0.930 . S
C1406 C1405 1.376 . S
C1406 C1407 1.376 . S
C1407 C1406 1.376 . S
C1407 C1408 1.378 . S
C1407 C1434 1.486 . S
C1408 H1370 0.930 . S
C1408 C1407 1.378 . S
C1408 C1409 1.376 . S
C1409 H1371 0.929 . S
C1409 C1404 1.397 . S
C1409 C1408 1.376 . S
C1410 C1394 1.509 . S
C1410 C1411 1.391 . S
C1410 C1415 1.386 . S
C1411 H1372 0.930 . S
C1411 C1410 1.391 . S
C1411 C1412 1.375 . S
C1412 H1373 0.931 . S
C1412 C1411 1.375 . S
C1412 C1413 1.375 . S
C1413 C1412 1.375 . S
C1413 C1414 1.361 . S
C1414 H1374 0.930 . S
C1414 C1413 1.361 . S
C1414 C1415 1.399 . S
C1415 H1375 0.929 . S
C1415 C1410 1.386 . S
C1415 C1414 1.399 . S
C1416 C1395 1.485 . S
C1416 C1417 1.394 . S
C1416 C1421 1.360 . S
C1417 H1376 0.931 . S
C1417 C1416 1.394 . S
C1417 C1418 1.372 . S
C1418 H1377 0.930 . S
C1418 C1417 1.372 . S
C1418 C1419 1.397 . S
C1419 C1418 1.397 . S
C1419 C1420 1.390 . S
C1419 C1435 1.476 . S
C1420 H1378 0.930 . S
C1420 C1419 1.390 . S
C1420 C1421 1.366 . S
C1421 H1379 0.932 . S
C1421 C1416 1.360 . S
C1421 C1420 1.366 . S
C1422 C1396 1.490 . S
C1422 C1423 1.380 . S
C1422 C1427 1.386 . S
C1423 H1380 0.930 . S
C1423 C1422 1.380 . S
C1423 C1424 1.381 . S
C1424 H1381 0.929 . S
C1424 C1423 1.381 . S
C1424 C1425 1.371 . S
C1425 C1424 1.371 . S
C1425 C1426 1.380 . S
C1426 H1382 0.931 . S
C1426 C1425 1.380 . S
C1426 C1427 1.387 . S
C1427 H1383 0.930 . S
C1427 C1422 1.386 . S
C1427 C1426 1.387 . S
C1428 C1397 1.519 . S
C1428 C1429 1.377 . S
C1428 C1433 1.361 . S
C1429 H1384 0.929 . S
C1429 C1428 1.377 . S
C1429 C1430 1.386 . S
C1430 H1385 0.931 . S
C1430 C1429 1.386 . S
C1430 C1431 1.363 . S
C1431 C1430 1.363 . S
C1431 C1432 1.385 . S
C1432 H1386 0.930 . S
C1432 C1431 1.385 . S
C1432 C1433 1.396 . S
C1433 H1387 0.929 . S
C1433 C1428 1.361 . S
C1433 C1432 1.396 . S
C1434 O1388 1.300 . S
C1434 O1389 1.209 . S
C1434 C1407 1.486 . S
C1435 O1390 1.199 . S
C1435 O1391 1.297 . S
C1435 C1419 1.476 . S
H1436 O1462 0.856 . S
H1437 O1465 0.854 . S
H1438 C1473 0.930 . S
H1439 C1474 0.930 . S
H1440 C1476 0.930 . S
H1441 C1477 0.930 . S
H1442 C1479 0.931 . S
H1443 C1480 0.930 . S
H1444 C1482 0.930 . S
H1445 C1483 0.929 . S
H1446 C1485 0.930 . S
H1447 C1486 0.931 . S
H1448 C1488 0.930 . S
H1449 C1489 0.929 . S
H1450 C1491 0.931 . S
H1451 C1492 0.930 . S
H1452 C1494 0.930 . S
H1453 C1495 0.932 . S
H1454 C1497 0.930 . S
H1455 C1498 0.929 . S
H1456 C1500 0.931 . S
H1457 C1501 0.930 . S
H1458 C1503 0.929 . S
H1459 C1504 0.931 . S
H1460 C1506 0.930 . S
H1461 C1507 0.929 . S
O1462 H1436 0.856 . S
O1462 C1508 1.300 . S
O1463 C1508 1.209 . S
O1464 C1509 1.199 . S
O1465 H1437 0.854 . S
O1465 C1509 1.297 . S
C1466 C1467 1.404 . S
C1466 C1471 1.397 . S
C1466 C1472 1.492 . S
C1467 C1466 1.404 . S
C1467 C1468 1.396 . S
C1467 C1478 1.492 . S
C1468 C1467 1.396 . S
C1468 C1469 1.397 . S
C1468 C1484 1.509 . S
C1469 C1468 1.397 . S
C1469 C1470 1.412 . S
C1469 C1490 1.485 . S
C1470 C1469 1.412 . S
C1470 C1471 1.388 . S
C1470 C1496 1.490 . S
C1471 C1466 1.397 . S
C1471 C1470 1.388 . S
C1471 C1502 1.519 . S
C1472 C1466 1.492 . S
C1472 C1473 1.363 . S
C1472 C1477 1.390 . S
C1473 H1438 0.930 . S
C1473 C1472 1.363 . S
C1473 C1474 1.372 . S
C1474 H1439 0.930 . S
C1474 C1473 1.372 . S
C1474 C1475 1.383 . S
C1475 C1474 1.383 . S
C1475 C1476 1.395 . S
C1476 H1440 0.930 . S
C1476 C1475 1.395 . S
C1476 C1477 1.362 . S
C1477 H1441 0.930 . S
C1477 C1472 1.390 . S
C1477 C1476 1.362 . S
C1478 C1467 1.492 . S
C1478 C1479 1.377 . S
C1478 C1483 1.397 . S
C1479 H1442 0.931 . S
C1479 C1478 1.377 . S
C1479 C1480 1.376 . S
C1480 H1443 0.930 . S
C1480 C1479 1.376 . S
C1480 C1481 1.376 . S
C1481 C1480 1.376 . S
C1481 C1482 1.378 . S
C1481 C1508 1.486 . S
C1482 H1444 0.930 . S
C1482 C1481 1.378 . S
C1482 C1483 1.376 . S
C1483 H1445 0.929 . S
C1483 C1478 1.397 . S
C1483 C1482 1.376 . S
C1484 C1468 1.509 . S
C1484 C1485 1.391 . S
C1484 C1489 1.386 . S
C1485 H1446 0.930 . S
C1485 C1484 1.391 . S
C1485 C1486 1.375 . S
C1486 H1447 0.931 . S
C1486 C1485 1.375 . S
C1486 C1487 1.375 . S
C1487 C1486 1.375 . S
C1487 C1488 1.361 . S
C1488 H1448 0.930 . S
C1488 C1487 1.361 . S
C1488 C1489 1.399 . S
C1489 H1449 0.929 . S
C1489 C1484 1.386 . S
C1489 C1488 1.399 . S
C1490 C1469 1.485 . S
C1490 C1491 1.394 . S
C1490 C1495 1.360 . S
C1491 H1450 0.931 . S
C1491 C1490 1.394 . S
C1491 C1492 1.372 . S
C1492 H1451 0.930 . S
C1492 C1491 1.372 . S
C1492 C1493 1.397 . S
C1493 C1492 1.397 . S
C1493 C1494 1.390 . S
C1493 C1509 1.476 . S
C1494 H1452 0.930 . S
C1494 C1493 1.390 . S
C1494 C1495 1.366 . S
C1495 H1453 0.932 . S
C1495 C1490 1.360 . S
C1495 C1494 1.366 . S
C1496 C1470 1.490 . S
C1496 C1497 1.380 . S
C1496 C1501 1.386 . S
C1497 H1454 0.930 . S
C1497 C1496 1.380 . S
C1497 C1498 1.381 . S
C1498 H1455 0.929 . S
C1498 C1497 1.381 . S
C1498 C1499 1.371 . S
C1499 C1498 1.371 . S
C1499 C1500 1.380 . S
C1500 H1456 0.931 . S
C1500 C1499 1.380 . S
C1500 C1501 1.387 . S
C1501 H1457 0.930 . S
C1501 C1496 1.386 . S
C1501 C1500 1.387 . S
C1502 C1471 1.519 . S
C1502 C1503 1.377 . S
C1502 C1507 1.361 . S
C1503 H1458 0.929 . S
C1503 C1502 1.377 . S
C1503 C1504 1.386 . S
C1504 H1459 0.931 . S
C1504 C1503 1.386 . S
C1504 C1505 1.363 . S
C1505 C1504 1.363 . S
C1505 C1506 1.385 . S
C1506 H1460 0.930 . S
C1506 C1505 1.385 . S
C1506 C1507 1.396 . S
C1507 H1461 0.929 . S
C1507 C1502 1.361 . S
C1507 C1506 1.396 . S
C1508 O1462 1.300 . S
C1508 O1463 1.209 . S
C1508 C1481 1.486 . S
C1509 O1464 1.199 . S
C1509 O1465 1.297 . S
C1509 C1493 1.476 . S
H1510 O1536 0.856 . S
H1511 O1539 0.854 . S
H1512 C1547 0.930 . S
H1513 C1548 0.930 . S
H1514 C1550 0.930 . S
H1515 C1551 0.930 . S
H1516 C1553 0.931 . S
H1517 C1554 0.930 . S
H1518 C1556 0.930 . S
H1519 C1557 0.929 . S
H1520 C1559 0.930 . S
H1521 C1560 0.931 . S
H1522 C1562 0.930 . S
H1523 C1563 0.929 . S
H1524 C1565 0.931 . S
H1525 C1566 0.930 . S
H1526 C1568 0.930 . S
H1527 C1569 0.932 . S
H1528 C1571 0.930 . S
H1529 C1572 0.929 . S
H1530 C1574 0.931 . S
H1531 C1575 0.930 . S
H1532 C1577 0.929 . S
H1533 C1578 0.931 . S
H1534 C1580 0.930 . S
H1535 C1581 0.929 . S
O1536 H1510 0.856 . S
O1536 C1582 1.300 . S
O1537 C1582 1.209 . S
O1538 C1583 1.199 . S
O1539 H1511 0.854 . S
O1539 C1583 1.297 . S
C1540 C1541 1.404 . S
C1540 C1545 1.397 . S
C1540 C1546 1.492 . S
C1541 C1540 1.404 . S
C1541 C1542 1.396 . S
C1541 C1552 1.492 . S
C1542 C1541 1.396 . S
C1542 C1543 1.397 . S
C1542 C1558 1.509 . S
C1543 C1542 1.397 . S
C1543 C1544 1.412 . S
C1543 C1564 1.485 . S
C1544 C1543 1.412 . S
C1544 C1545 1.388 . S
C1544 C1570 1.490 . S
C1545 C1540 1.397 . S
C1545 C1544 1.388 . S
C1545 C1576 1.519 . S
C1546 C1540 1.492 . S
C1546 C1547 1.363 . S
C1546 C1551 1.390 . S
C1547 H1512 0.930 . S
C1547 C1546 1.363 . S
C1547 C1548 1.372 . S
C1548 H1513 0.930 . S
C1548 C1547 1.372 . S
C1548 C1549 1.383 . S
C1549 C1548 1.383 . S
C1549 C1550 1.395 . S
C1550 H1514 0.930 . S
C1550 C1549 1.395 . S
C1550 C1551 1.362 . S
C1551 H1515 0.930 . S
C1551 C1546 1.390 . S
C1551 C1550 1.362 . S
C1552 C1541 1.492 . S
C1552 C1553 1.377 . S
C1552 C1557 1.397 . S
C1553 H1516 0.931 . S
C1553 C1552 1.377 . S
C1553 C1554 1.376 . S
C1554 H1517 0.930 . S
C1554 C1553 1.376 . S
C1554 C1555 1.376 . S
C1555 C1554 1.376 . S
C1555 C1556 1.378 . S
C1555 C1582 1.486 . S
C1556 H1518 0.930 . S
C1556 C1555 1.378 . S
C1556 C1557 1.376 . S
C1557 H1519 0.929 . S
C1557 C1552 1.397 . S
C1557 C1556 1.376 . S
C1558 C1542 1.509 . S
C1558 C1559 1.391 . S
C1558 C1563 1.386 . S
C1559 H1520 0.930 . S
C1559 C1558 1.391 . S
C1559 C1560 1.375 . S
C1560 H1521 0.931 . S
C1560 C1559 1.375 . S
C1560 C1561 1.375 . S
C1561 C1560 1.375 . S
C1561 C1562 1.361 . S
C1562 H1522 0.930 . S
C1562 C1561 1.361 . S
C1562 C1563 1.399 . S
C1563 H1523 0.929 . S
C1563 C1558 1.386 . S
C1563 C1562 1.399 . S
C1564 C1543 1.485 . S
C1564 C1565 1.394 . S
C1564 C1569 1.360 . S
C1565 H1524 0.931 . S
C1565 C1564 1.394 . S
C1565 C1566 1.372 . S
C1566 H1525 0.930 . S
C1566 C1565 1.372 . S
C1566 C1567 1.397 . S
C1567 C1566 1.397 . S
C1567 C1568 1.390 . S
C1567 C1583 1.476 . S
C1568 H1526 0.930 . S
C1568 C1567 1.390 . S
C1568 C1569 1.366 . S
C1569 H1527 0.932 . S
C1569 C1564 1.360 . S
C1569 C1568 1.366 . S
C1570 C1544 1.490 . S
C1570 C1571 1.380 . S
C1570 C1575 1.386 . S
C1571 H1528 0.930 . S
C1571 C1570 1.380 . S
C1571 C1572 1.381 . S
C1572 H1529 0.929 . S
C1572 C1571 1.381 . S
C1572 C1573 1.371 . S
C1573 C1572 1.371 . S
C1573 C1574 1.380 . S
C1574 H1530 0.931 . S
C1574 C1573 1.380 . S
C1574 C1575 1.387 . S
C1575 H1531 0.930 . S
C1575 C1570 1.386 . S
C1575 C1574 1.387 . S
C1576 C1545 1.519 . S
C1576 C1577 1.377 . S
C1576 C1581 1.361 . S
C1577 H1532 0.929 . S
C1577 C1576 1.377 . S
C1577 C1578 1.386 . S
C1578 H1533 0.931 . S
C1578 C1577 1.386 . S
C1578 C1579 1.363 . S
C1579 C1578 1.363 . S
C1579 C1580 1.385 . S
C1580 H1534 0.930 . S
C1580 C1579 1.385 . S
C1580 C1581 1.396 . S
C1581 H1535 0.929 . S
C1581 C1576 1.361 . S
C1581 C1580 1.396 . S
C1582 O1536 1.300 . S
C1582 O1537 1.209 . S
C1582 C1555 1.486 . S
C1583 O1538 1.199 . S
C1583 O1539 1.297 . S
C1583 C1567 1.476 . S
H1584 C1590 0.930 . S
H1585 C1594 0.930 1_455 S
H1586 C1599 0.929 . S
H1587 C1597 0.929 . S
H1588 C1592 0.929 1_455 S
H1589 C1598 0.929 . S
C1590 H1584 0.930 . S
C1590 C1591 1.367 . S
C1590 C1598 1.378 . S
C1591 C1590 1.367 . S
C1591 C1599 1.433 1_655 S
C1592 H1588 0.929 1_655 S
C1592 C1594 1.378 . S
C1592 C1596 1.350 . S
C1593 C1596 1.463 . S
C1593 C1598 1.350 . S
C1593 N1601 1.427 1_655 S
C1594 H1585 0.930 1_655 S
C1594 C1592 1.378 . S
C1594 C1595 1.367 . S
C1595 C1594 1.367 . S
C1595 C1597 1.433 . S
C1596 C1592 1.350 . S
C1596 C1593 1.463 . S
C1596 N1600 1.427 . S
C1597 H1587 0.929 . S
C1597 C1595 1.433 . S
C1597 N1600 1.384 . S
C1598 H1589 0.929 . S
C1598 C1590 1.378 . S
C1598 C1593 1.350 . S
C1599 H1586 0.929 . S
C1599 C1591 1.433 1_455 S
C1599 N1601 1.384 . S
N1600 C1596 1.427 . S
N1600 C1597 1.384 . S
N1601 C1593 1.427 1_455 S
N1601 C1599 1.384 . S
H1602 C1608 0.930 . S
H1603 C1612 0.930 . S
H1604 C1617 0.929 . S
H1605 C1615 0.929 . S
H1606 C1610 0.929 . S
H1607 C1616 0.929 . S
C1608 H1602 0.930 . S
C1608 C1609 1.367 . S
C1608 C1616 1.378 . S
C1609 C1608 1.367 . S
C1609 C1617 1.433 . S
C1610 H1606 0.929 . S
C1610 C1612 1.378 . S
C1610 C1614 1.350 . S
C1611 C1614 1.463 . S
C1611 C1616 1.350 . S
C1611 N1619 1.427 . S
C1612 H1603 0.930 . S
C1612 C1610 1.378 . S
C1612 C1613 1.367 . S
C1613 C1612 1.367 . S
C1613 C1615 1.433 . S
C1614 C1610 1.350 . S
C1614 C1611 1.463 . S
C1614 N1618 1.427 . S
C1615 H1605 0.929 . S
C1615 C1613 1.433 . S
C1615 N1618 1.384 . S
C1616 H1607 0.929 . S
C1616 C1608 1.378 . S
C1616 C1611 1.350 . S
C1617 H1604 0.929 . S
C1617 C1609 1.433 . S
C1617 N1619 1.384 . S
N1618 C1614 1.427 . S
N1618 C1615 1.384 . S
N1619 C1611 1.427 . S
N1619 C1617 1.384 . S
H1620 C1626 0.930 . S
H1621 C1630 0.969 . S
H1622 C1635 0.929 . S
H1623 C1633 0.929 . S
H1624 C1628 0.929 . S
H1625 C1634 0.929 . S
C1626 H1620 0.930 . S
C1626 C1627 1.367 . S
C1626 C1634 1.378 . S
C1627 C1626 1.367 . S
C1627 C1635 1.433 1_545 S
C1628 H1624 0.929 . S
C1628 C1630 1.367 . S
C1628 C1632 1.350 1_565 S
C1629 C1632 1.463 . S
C1629 C1634 1.350 . S
C1629 N1637 1.427 1_545 S
C1630 H1621 0.969 . S
C1630 C1628 1.367 . S
C1630 C1631 1.340 1_565 S
C1631 C1630 1.340 1_545 S
C1631 C1633 1.433 . S
C1632 C1628 1.350 1_545 S
C1632 C1629 1.463 . S
C1632 N1636 1.427 . S
C1633 H1623 0.929 . S
C1633 C1631 1.433 . S
C1633 N1636 1.384 . S
C1634 H1625 0.929 . S
C1634 C1626 1.378 . S
C1634 C1629 1.350 . S
C1635 H1622 0.929 . S
C1635 C1627 1.433 1_565 S
C1635 N1637 1.384 . S
N1636 C1632 1.427 . S
N1636 C1633 1.384 . S
N1637 C1629 1.427 1_565 S
N1637 C1635 1.384 . S
H1638 C1644 0.930 . S
H1639 C1648 0.930 . S
H1640 C1653 0.929 . S
H1641 C1651 0.929 . S
H1642 C1646 0.929 . S
H1643 C1652 0.929 . S
C1644 H1638 0.930 . S
C1644 C1645 1.367 1_545 S
C1644 C1652 1.378 . S
C1645 C1644 1.367 1_565 S
C1645 C1653 1.433 . S
C1646 H1642 0.929 . S
C1646 C1648 1.378 . S
C1646 C1650 1.350 . S
C1647 C1650 1.463 . S
C1647 C1652 1.350 1_565 S
C1647 N1655 1.427 . S
C1648 H1639 0.930 . S
C1648 C1646 1.378 . S
C1648 C1649 1.367 . S
C1649 C1648 1.367 . S
C1649 C1651 1.433 1_565 S
C1650 C1646 1.350 . S
C1650 C1647 1.463 . S
C1650 N1654 1.427 1_565 S
C1651 H1641 0.929 . S
C1651 C1649 1.433 1_545 S
C1651 N1654 1.384 . S
C1652 H1643 0.929 . S
C1652 C1644 1.378 . S
C1652 C1647 1.350 1_545 S
C1653 H1640 0.929 . S
C1653 C1645 1.433 . S
C1653 N1655 1.384 . S
N1654 C1650 1.427 1_545 S
N1654 C1651 1.384 . S
N1655 C1647 1.427 . S
N1655 C1653 1.384 . S
H1656 C1662 0.930 1_554 S
H1657 C1666 0.930 . S
H1658 C1671 0.921 . S
H1659 C1669 0.929 . S
H1660 C1664 0.936 1_655 S
H1661 C1670 0.929 . S
C1662 H1656 0.930 1_556 S
C1662 C1663 1.367 . S
C1662 C1670 1.378 . S
C1663 C1662 1.367 . S
C1663 C1671 1.430 1_455 S
C1664 H1660 0.936 1_455 S
C1664 C1666 1.378 . S
C1664 C1668 1.350 . S
C1665 C1668 1.463 . S
C1665 C1670 1.350 . S
C1665 N1673 1.419 . S
C1666 H1657 0.930 . S
C1666 C1664 1.378 . S
C1666 C1667 1.367 . S
C1667 C1666 1.367 . S
C1667 C1669 1.433 . S
C1668 C1664 1.350 . S
C1668 C1665 1.463 . S
C1668 N1672 1.427 . S
C1669 H1659 0.929 . S
C1669 C1667 1.433 . S
C1669 N1672 1.384 . S
C1670 H1661 0.929 . S
C1670 C1662 1.378 . S
C1670 C1665 1.350 . S
C1671 H1658 0.921 . S
C1671 C1663 1.430 1_655 S
C1671 N1673 1.418 1_655 S
N1672 C1668 1.427 . S
N1672 C1669 1.384 . S
N1673 C1665 1.419 . S
N1673 C1671 1.418 1_455 S
H1674 C1680 0.930 . S
H1675 C1684 0.930 . S
H1676 C1689 0.929 . S
H1677 C1687 0.929 . S
H1678 C1682 0.929 . S
H1679 C1688 0.929 . S
C1680 H1674 0.930 . S
C1680 C1681 1.367 1_556 S
C1680 C1688 1.378 . S
C1681 C1680 1.367 1_554 S
C1681 C1689 1.433 . S
C1682 H1678 0.929 . S
C1682 C1684 1.378 . S
C1682 C1686 1.350 . S
C1683 C1686 1.463 . S
C1683 C1688 1.350 . S
C1683 N1691 1.427 1_556 S
C1684 H1675 0.930 . S
C1684 C1682 1.378 . S
C1684 C1685 1.367 . S
C1685 C1684 1.367 . S
C1685 C1687 1.433 . S
C1686 C1682 1.350 . S
C1686 C1683 1.463 . S
C1686 N1690 1.427 . S
C1687 H1677 0.929 . S
C1687 C1685 1.433 . S
C1687 N1690 1.384 . S
C1688 H1679 0.929 . S
C1688 C1680 1.378 . S
C1688 C1683 1.350 . S
C1689 H1676 0.929 . S
C1689 C1681 1.433 . S
C1689 N1691 1.384 . S
N1690 C1686 1.427 . S
N1690 C1687 1.384 . S
N1691 C1683 1.427 1_554 S
N1691 C1689 1.384 . S
H1692 C1698 0.930 . S
H1693 C1702 0.930 . S
H1694 C1707 0.929 . S
H1695 C1705 0.929 . S
H1696 C1700 0.929 . S
H1697 C1706 0.929 . S
C1698 H1692 0.930 . S
C1698 C1699 1.367 1_655 S
C1698 C1706 1.378 1_554 S
C1699 C1698 1.367 1_455 S
C1699 C1707 1.433 1_554 S
C1700 H1696 0.929 . S
C1700 C1702 1.378 . S
C1700 C1704 1.350 . S
C1701 C1704 1.482 . S
C1701 C1706 1.325 1_455 S
C1701 N1709 1.436 . S
C1702 H1693 0.930 . S
C1702 C1700 1.378 . S
C1702 C1703 1.375 . S
C1703 C1702 1.375 . S
C1703 C1705 1.406 1_455 S
C1704 C1700 1.350 . S
C1704 C1701 1.482 . S
C1704 N1708 1.427 1_455 S
C1705 H1695 0.929 . S
C1705 C1703 1.406 1_655 S
C1705 N1708 1.384 . S
C1706 H1697 0.929 . S
C1706 C1698 1.378 1_556 S
C1706 C1701 1.325 1_655 S
C1707 H1694 0.929 . S
C1707 C1699 1.433 1_556 S
C1707 N1709 1.384 . S
N1708 C1704 1.427 1_655 S
N1708 C1705 1.384 . S
N1709 C1701 1.436 . S
N1709 C1707 1.384 . S
H1710 C1716 0.930 . S
H1711 C1720 0.930 . S
H1712 C1725 0.929 . S
H1713 C1723 0.929 . S
H1714 C1718 0.929 . S
H1715 C1724 0.929 . S
C1716 H1710 0.930 . S
C1716 C1717 1.367 . S
C1716 C1724 1.378 . S
C1717 C1716 1.367 . S
C1717 C1725 1.433 . S
C1718 H1714 0.929 . S
C1718 C1720 1.378 . S
C1718 C1722 1.350 . S
C1719 C1722 1.463 . S
C1719 C1724 1.350 . S
C1719 N1727 1.427 . S
C1720 H1711 0.930 . S
C1720 C1718 1.378 . S
C1720 C1721 1.367 . S
C1721 C1720 1.367 . S
C1721 C1723 1.433 . S
C1722 C1718 1.350 . S
C1722 C1719 1.463 . S
C1722 N1726 1.427 . S
C1723 H1713 0.929 . S
C1723 C1721 1.433 . S
C1723 N1726 1.384 . S
C1724 H1715 0.929 . S
C1724 C1716 1.378 . S
C1724 C1719 1.350 . S
C1725 H1712 0.929 . S
C1725 C1717 1.433 . S
C1725 N1727 1.384 . S
N1726 C1722 1.427 . S
N1726 C1723 1.384 . S
N1727 C1719 1.427 . S
N1727 C1725 1.384 . S
H1728 C1734 0.930 . S
H1729 C1738 0.930 . S
H1730 C1743 0.929 1_554 S
H1731 C1741 0.929 . S
H1732 C1736 0.929 . S
H1733 C1742 0.929 . S
C1734 H1728 0.930 . S
C1734 C1735 1.367 1_546 S
C1734 C1742 1.378 . S
C1735 C1734 1.367 1_564 S
C1735 C1743 1.433 1_554 S
C1736 H1732 0.929 . S
C1736 C1738 1.378 . S
C1736 C1740 1.350 . S
C1737 C1740 1.439 . S
C1737 C1742 1.329 1_565 S
C1737 N1745 1.477 . S
C1738 H1729 0.930 . S
C1738 C1736 1.378 . S
C1738 C1739 1.319 1_565 S
C1739 C1738 1.319 1_545 S
C1739 C1741 1.458 . S
C1740 C1736 1.350 . S
C1740 C1737 1.439 . S
C1740 N1744 1.427 1_565 S
C1741 H1731 0.929 . S
C1741 C1739 1.458 . S
C1741 N1744 1.384 . S
C1742 H1733 0.929 . S
C1742 C1734 1.378 . S
C1742 C1737 1.329 1_545 S
C1743 H1730 0.929 1_556 S
C1743 C1735 1.433 1_556 S
C1743 N1745 1.384 . S
N1744 C1740 1.427 1_545 S
N1744 C1741 1.384 . S
N1745 C1737 1.477 . S
N1745 C1743 1.384 . S
H1746 C1752 0.930 . S
H1747 C1756 0.930 . S
H1748 C1761 0.929 . S
H1749 C1759 0.929 . S
H1750 C1754 0.929 . S
H1751 C1760 0.929 . S
C1752 H1746 0.930 . S
C1752 C1753 1.367 . S
C1752 C1760 1.378 . S
C1753 C1752 1.367 . S
C1753 C1761 1.433 1_545 S
C1754 H1750 0.929 . S
C1754 C1756 1.378 . S
C1754 C1758 1.318 1_565 S
C1755 C1758 1.456 . S
C1755 C1760 1.350 . S
C1755 N1763 1.427 1_545 S
C1756 H1747 0.930 . S
C1756 C1754 1.378 . S
C1756 C1757 1.367 . S
C1757 C1756 1.367 . S
C1757 C1759 1.433 1_565 S
C1758 C1754 1.318 1_545 S
C1758 C1755 1.456 . S
C1758 N1762 1.469 . S
C1759 H1749 0.929 . S
C1759 C1757 1.433 1_545 S
C1759 N1762 1.384 . S
C1760 H1751 0.929 . S
C1760 C1752 1.378 . S
C1760 C1755 1.350 . S
C1761 H1748 0.929 . S
C1761 C1753 1.433 1_565 S
C1761 N1763 1.384 . S
N1762 C1758 1.469 . S
N1762 C1759 1.384 . S
N1763 C1755 1.427 1_565 S
N1763 C1761 1.384 . S
H1764 C1770 0.930 . S
H1765 C1774 0.931 . S
H1766 C1779 0.929 . S
H1767 C1777 0.933 . S
H1768 C1772 0.933 . S
H1769 C1778 0.922 . S
C1770 H1764 0.930 . S
C1770 C1771 1.367 . S
C1770 C1778 1.378 . S
C1771 C1770 1.367 . S
C1771 C1779 1.433 . S
C1772 H1768 0.933 . S
C1772 C1774 1.365 . S
C1772 C1776 1.350 . S
C1773 C1776 1.478 . S
C1773 C1778 1.350 . S
C1773 N1781 1.427 . S
C1774 H1765 0.931 . S
C1774 C1772 1.365 . S
C1774 C1775 1.370 1_655 S
C1775 C1774 1.370 1_455 S
C1775 C1777 1.435 . S
C1776 C1772 1.350 . S
C1776 C1773 1.478 . S
C1776 N1780 1.434 . S
C1777 H1767 0.933 . S
C1777 C1775 1.435 . S
C1777 N1780 1.377 1_455 S
C1778 H1769 0.922 . S
C1778 C1770 1.378 . S
C1778 C1773 1.350 . S
C1779 H1766 0.929 . S
C1779 C1771 1.433 . S
C1779 N1781 1.384 . S
N1780 C1776 1.434 . S
N1780 C1777 1.377 1_655 S
N1781 C1773 1.427 . S
N1781 C1779 1.384 . S
H1782 C1788 0.930 . S
H1783 C1792 0.930 . S
H1784 C1797 0.929 . S
H1785 C1795 0.929 . S
H1786 C1790 0.929 . S
H1787 C1796 0.929 . S
C1788 H1782 0.930 . S
C1788 C1789 1.367 . S
C1788 C1796 1.378 . S
C1789 C1788 1.367 . S
C1789 C1797 1.433 . S
C1790 H1786 0.929 . S
C1790 C1792 1.378 . S
C1790 C1794 1.350 . S
C1791 C1794 1.463 . S
C1791 C1796 1.350 . S
C1791 N1799 1.427 . S
C1792 H1783 0.930 . S
C1792 C1790 1.378 . S
C1792 C1793 1.367 . S
C1793 C1792 1.367 . S
C1793 C1795 1.433 . S
C1794 C1790 1.350 . S
C1794 C1791 1.463 . S
C1794 N1798 1.427 . S
C1795 H1785 0.929 . S
C1795 C1793 1.433 . S
C1795 N1798 1.384 . S
C1796 H1787 0.929 . S
C1796 C1788 1.378 . S
C1796 C1791 1.350 . S
C1797 H1784 0.929 . S
C1797 C1789 1.433 . S
C1797 N1799 1.384 . S
N1798 C1794 1.427 . S
N1798 C1795 1.384 . S
N1799 C1791 1.427 . S
N1799 C1797 1.384 . S
H1800 C1806 0.930 . S
H1801 C1810 0.930 . S
H1802 C1815 0.929 . S
H1803 C1813 0.929 . S
H1804 C1808 0.929 . S
H1805 C1814 0.929 . S
C1806 H1800 0.930 . S
C1806 C1807 1.367 . S
C1806 C1814 1.378 . S
C1807 C1806 1.367 . S
C1807 C1815 1.433 . S
C1808 H1804 0.929 . S
C1808 C1810 1.378 . S
C1808 C1812 1.350 . S
C1809 C1812 1.463 . S
C1809 C1814 1.350 . S
C1809 N1817 1.427 . S
C1810 H1801 0.930 . S
C1810 C1808 1.378 . S
C1810 C1811 1.367 . S
C1811 C1810 1.367 . S
C1811 C1813 1.433 . S
C1812 C1808 1.350 . S
C1812 C1809 1.463 . S
C1812 N1816 1.427 . S
C1813 H1803 0.929 . S
C1813 C1811 1.433 . S
C1813 N1816 1.384 . S
C1814 H1805 0.929 . S
C1814 C1806 1.378 . S
C1814 C1809 1.350 . S
C1815 H1802 0.929 . S
C1815 C1807 1.433 . S
C1815 N1817 1.384 . S
N1816 C1812 1.427 . S
N1816 C1813 1.384 . S
N1817 C1809 1.427 . S
N1817 C1815 1.384 . S
H1818 C1824 0.930 . S
H1819 C1828 0.930 . S
H1820 C1833 0.929 . S
H1821 C1831 0.929 . S
H1822 C1826 0.929 . S
H1823 C1832 0.929 . S
C1824 H1818 0.930 . S
C1824 C1825 1.367 . S
C1824 C1832 1.378 . S
C1825 C1824 1.367 . S
C1825 C1833 1.433 . S
C1826 H1822 0.929 . S
C1826 C1828 1.378 . S
C1826 C1830 1.350 . S
C1827 C1830 1.463 . S
C1827 C1832 1.350 . S
C1827 N1835 1.427 . S
C1828 H1819 0.930 . S
C1828 C1826 1.378 . S
C1828 C1829 1.367 . S
C1829 C1828 1.367 . S
C1829 C1831 1.433 . S
C1830 C1826 1.350 . S
C1830 C1827 1.463 . S
C1830 N1834 1.427 . S
C1831 H1821 0.929 . S
C1831 C1829 1.433 . S
C1831 N1834 1.384 . S
C1832 H1823 0.929 . S
C1832 C1824 1.378 . S
C1832 C1827 1.350 . S
C1833 H1820 0.929 . S
C1833 C1825 1.433 . S
C1833 N1835 1.384 . S
N1834 C1830 1.427 . S
N1834 C1831 1.384 . S
N1835 C1827 1.427 . S
N1835 C1833 1.384 . S
H1836 C1842 0.930 . S
H1837 C1846 0.930 . S
H1838 C1851 0.929 . S
H1839 C1849 0.929 . S
H1840 C1844 0.929 . S
H1841 C1850 0.929 . S
C1842 H1836 0.930 . S
C1842 C1843 1.367 . S
C1842 C1850 1.378 . S
C1843 C1842 1.367 . S
C1843 C1851 1.433 . S
C1844 H1840 0.929 . S
C1844 C1846 1.378 . S
C1844 C1848 1.350 . S
C1845 C1848 1.463 . S
C1845 C1850 1.350 . S
C1845 N1853 1.427 . S
C1846 H1837 0.930 . S
C1846 C1844 1.378 . S
C1846 C1847 1.367 . S
C1847 C1846 1.367 . S
C1847 C1849 1.433 . S
C1848 C1844 1.350 . S
C1848 C1845 1.463 . S
C1848 N1852 1.427 . S
C1849 H1839 0.929 . S
C1849 C1847 1.433 . S
C1849 N1852 1.384 . S
C1850 H1841 0.929 . S
C1850 C1842 1.378 . S
C1850 C1845 1.350 . S
C1851 H1838 0.929 . S
C1851 C1843 1.433 . S
C1851 N1853 1.384 . S
N1852 C1848 1.427 . S
N1852 C1849 1.384 . S
N1853 C1845 1.427 . S
N1853 C1851 1.384 . S
H1854 C1860 0.930 . S
H1855 C1864 0.930 . S
H1856 C1869 0.929 . S
H1857 C1867 0.929 . S
H1858 C1862 0.929 . S
H1859 C1868 0.929 . S
C1860 H1854 0.930 . S
C1860 C1861 1.367 . S
C1860 C1868 1.378 . S
C1861 C1860 1.367 . S
C1861 C1869 1.433 . S
C1862 H1858 0.929 . S
C1862 C1864 1.378 . S
C1862 C1866 1.350 . S
C1863 C1866 1.463 . S
C1863 C1868 1.350 . S
C1863 N1871 1.427 . S
C1864 H1855 0.930 . S
C1864 C1862 1.378 . S
C1864 C1865 1.367 . S
C1865 C1864 1.367 . S
C1865 C1867 1.433 . S
C1866 C1862 1.350 . S
C1866 C1863 1.463 . S
C1866 N1870 1.427 . S
C1867 H1857 0.929 . S
C1867 C1865 1.433 . S
C1867 N1870 1.384 . S
C1868 H1859 0.929 . S
C1868 C1860 1.378 . S
C1868 C1863 1.350 . S
C1869 H1856 0.929 . S
C1869 C1861 1.433 . S
C1869 N1871 1.384 . S
N1870 C1866 1.427 . S
N1870 C1867 1.384 . S
N1871 C1863 1.427 . S
N1871 C1869 1.384 . S
H1872 C1878 0.930 . S
H1873 C1882 0.930 . S
H1874 C1887 0.929 . S
H1875 C1885 0.929 . S
H1876 C1880 0.929 . S
H1877 C1886 0.929 . S
C1878 H1872 0.930 . S
C1878 C1879 1.367 . S
C1878 C1886 1.378 . S
C1879 C1878 1.367 . S
C1879 C1887 1.433 . S
C1880 H1876 0.929 . S
C1880 C1882 1.378 . S
C1880 C1884 1.350 . S
C1881 C1884 1.463 . S
C1881 C1886 1.350 . S
C1881 N1889 1.427 . S
C1882 H1873 0.930 . S
C1882 C1880 1.378 . S
C1882 C1883 1.367 . S
C1883 C1882 1.367 . S
C1883 C1885 1.433 . S
C1884 C1880 1.350 . S
C1884 C1881 1.463 . S
C1884 N1888 1.427 . S
C1885 H1875 0.929 . S
C1885 C1883 1.433 . S
C1885 N1888 1.384 . S
C1886 H1877 0.929 . S
C1886 C1878 1.378 . S
C1886 C1881 1.350 . S
C1887 H1874 0.929 . S
C1887 C1879 1.433 . S
C1887 N1889 1.384 . S
N1888 C1884 1.427 . S
N1888 C1885 1.384 . S
N1889 C1881 1.427 . S
N1889 C1887 1.384 . S
H1890 C1896 0.930 . S
H1891 C1900 0.930 . S
H1892 C1905 0.929 . S
H1893 C1903 0.929 . S
H1894 C1898 0.929 . S
H1895 C1904 0.929 . S
C1896 H1890 0.930 . S
C1896 C1897 1.367 . S
C1896 C1904 1.378 . S
C1897 C1896 1.367 . S
C1897 C1905 1.433 . S
C1898 H1894 0.929 . S
C1898 C1900 1.378 . S
C1898 C1902 1.350 . S
C1899 C1902 1.463 . S
C1899 C1904 1.350 . S
C1899 N1907 1.427 . S
C1900 H1891 0.930 . S
C1900 C1898 1.378 . S
C1900 C1901 1.367 . S
C1901 C1900 1.367 . S
C1901 C1903 1.433 . S
C1902 C1898 1.350 . S
C1902 C1899 1.463 . S
C1902 N1906 1.427 . S
C1903 H1893 0.929 . S
C1903 C1901 1.433 . S
C1903 N1906 1.384 . S
C1904 H1895 0.929 . S
C1904 C1896 1.378 . S
C1904 C1899 1.350 . S
C1905 H1892 0.929 . S
C1905 C1897 1.433 . S
C1905 N1907 1.384 . S
N1906 C1902 1.427 . S
N1906 C1903 1.384 . S
N1907 C1899 1.427 . S
N1907 C1905 1.384 . S
H1908 C1914 0.930 . S
H1909 C1918 0.930 . S
H1910 C1923 0.929 . S
H1911 C1921 0.929 . S
H1912 C1916 0.929 . S
H1913 C1922 0.929 . S
C1914 H1908 0.930 . S
C1914 C1915 1.367 . S
C1914 C1922 1.378 . S
C1915 C1914 1.367 . S
C1915 C1923 1.433 . S
C1916 H1912 0.929 . S
C1916 C1918 1.378 . S
C1916 C1920 1.350 . S
C1917 C1920 1.463 . S
C1917 C1922 1.350 . S
C1917 N1925 1.427 . S
C1918 H1909 0.930 . S
C1918 C1916 1.378 . S
C1918 C1919 1.367 . S
C1919 C1918 1.367 . S
C1919 C1921 1.433 . S
C1920 C1916 1.350 . S
C1920 C1917 1.463 . S
C1920 N1924 1.427 . S
C1921 H1911 0.929 . S
C1921 C1919 1.433 . S
C1921 N1924 1.384 . S
C1922 H1913 0.929 . S
C1922 C1914 1.378 . S
C1922 C1917 1.350 . S
C1923 H1910 0.929 . S
C1923 C1915 1.433 . S
C1923 N1925 1.384 . S
N1924 C1920 1.427 . S
N1924 C1921 1.384 . S
N1925 C1917 1.427 . S
N1925 C1923 1.384 . S
H1926 C1932 0.930 . S
H1927 C1936 0.930 . S
H1928 C1941 0.929 . S
H1929 C1939 0.929 . S
H1930 C1934 0.929 . S
H1931 C1940 0.929 . S
C1932 H1926 0.930 . S
C1932 C1933 1.367 . S
C1932 C1940 1.378 . S
C1933 C1932 1.367 . S
C1933 C1941 1.433 . S
C1934 H1930 0.929 . S
C1934 C1936 1.378 . S
C1934 C1938 1.350 . S
C1935 C1938 1.463 . S
C1935 C1940 1.350 . S
C1935 N1943 1.427 . S
C1936 H1927 0.930 . S
C1936 C1934 1.378 . S
C1936 C1937 1.367 . S
C1937 C1936 1.367 . S
C1937 C1939 1.433 . S
C1938 C1934 1.350 . S
C1938 C1935 1.463 . S
C1938 N1942 1.427 . S
C1939 H1929 0.929 . S
C1939 C1937 1.433 . S
C1939 N1942 1.384 . S
C1940 H1931 0.929 . S
C1940 C1932 1.378 . S
C1940 C1935 1.350 . S
C1941 H1928 0.929 . S
C1941 C1933 1.433 . S
C1941 N1943 1.384 . S
N1942 C1938 1.427 . S
N1942 C1939 1.384 . S
N1943 C1935 1.427 . S
N1943 C1941 1.384 . S
H1944 C1950 0.930 . S
H1945 C1954 0.930 . S
H1946 C1959 0.929 . S
H1947 C1957 0.929 . S
H1948 C1952 0.929 . S
H1949 C1958 0.929 . S
C1950 H1944 0.930 . S
C1950 C1951 1.367 . S
C1950 C1958 1.378 . S
C1951 C1950 1.367 . S
C1951 C1959 1.433 . S
C1952 H1948 0.929 . S
C1952 C1954 1.378 . S
C1952 C1956 1.350 . S
C1953 C1956 1.463 . S
C1953 C1958 1.350 . S
C1953 N1961 1.427 . S
C1954 H1945 0.930 . S
C1954 C1952 1.378 . S
C1954 C1955 1.367 . S
C1955 C1954 1.367 . S
C1955 C1957 1.433 . S
C1956 C1952 1.350 . S
C1956 C1953 1.463 . S
C1956 N1960 1.427 . S
C1957 H1947 0.929 . S
C1957 C1955 1.433 . S
C1957 N1960 1.384 . S
C1958 H1949 0.929 . S
C1958 C1950 1.378 . S
C1958 C1953 1.350 . S
C1959 H1946 0.929 . S
C1959 C1951 1.433 . S
C1959 N1961 1.384 . S
N1960 C1956 1.427 . S
N1960 C1957 1.384 . S
N1961 C1953 1.427 . S
N1961 C1959 1.384 . S
H1962 C1968 0.930 . S
H1963 C1972 0.930 . S
H1964 C1977 0.929 . S
H1965 C1975 0.929 . S
H1966 C1970 0.929 . S
H1967 C1976 0.929 . S
C1968 H1962 0.930 . S
C1968 C1969 1.367 . S
C1968 C1976 1.378 . S
C1969 C1968 1.367 . S
C1969 C1977 1.433 . S
C1970 H1966 0.929 . S
C1970 C1972 1.378 . S
C1970 C1974 1.350 . S
C1971 C1974 1.463 . S
C1971 C1976 1.350 . S
C1971 N1979 1.427 . S
C1972 H1963 0.930 . S
C1972 C1970 1.378 . S
C1972 C1973 1.367 . S
C1973 C1972 1.367 . S
C1973 C1975 1.433 . S
C1974 C1970 1.350 . S
C1974 C1971 1.463 . S
C1974 N1978 1.427 . S
C1975 H1965 0.929 . S
C1975 C1973 1.433 . S
C1975 N1978 1.384 . S
C1976 H1967 0.929 . S
C1976 C1968 1.378 . S
C1976 C1971 1.350 . S
C1977 H1964 0.929 . S
C1977 C1969 1.433 . S
C1977 N1979 1.384 . S
N1978 C1974 1.427 . S
N1978 C1975 1.384 . S
N1979 C1971 1.427 . S
N1979 C1977 1.384 . S
H1980 C1986 0.930 . S
H1981 C1990 0.930 . S
H1982 C1995 0.929 . S
H1983 C1993 0.929 . S
H1984 C1988 0.929 . S
H1985 C1994 0.929 . S
C1986 H1980 0.930 . S
C1986 C1987 1.367 . S
C1986 C1994 1.378 . S
C1987 C1986 1.367 . S
C1987 C1995 1.433 . S
C1988 H1984 0.929 . S
C1988 C1990 1.378 . S
C1988 C1992 1.350 . S
C1989 C1992 1.463 . S
C1989 C1994 1.350 . S
C1989 N1997 1.427 . S
C1990 H1981 0.930 . S
C1990 C1988 1.378 . S
C1990 C1991 1.367 . S
C1991 C1990 1.367 . S
C1991 C1993 1.433 . S
C1992 C1988 1.350 . S
C1992 C1989 1.463 . S
C1992 N1996 1.427 . S
C1993 H1983 0.929 . S
C1993 C1991 1.433 . S
C1993 N1996 1.384 . S
C1994 H1985 0.929 . S
C1994 C1986 1.378 . S
C1994 C1989 1.350 . S
C1995 H1982 0.929 . S
C1995 C1987 1.433 . S
C1995 N1997 1.384 . S
N1996 C1992 1.427 . S
N1996 C1993 1.384 . S
N1997 C1989 1.427 . S
N1997 C1995 1.384 . S
H1998 C2004 0.930 . S
H1999 C2008 0.930 . S
H2000 C2013 0.929 . S
H2001 C2011 0.929 . S
H2002 C2006 0.929 . S
H2003 C2012 0.929 . S
C2004 H1998 0.930 . S
C2004 C2005 1.367 . S
C2004 C2012 1.378 . S
C2005 C2004 1.367 . S
C2005 C2013 1.433 . S
C2006 H2002 0.929 . S
C2006 C2008 1.378 . S
C2006 C2010 1.350 . S
C2007 C2010 1.463 . S
C2007 C2012 1.350 . S
C2007 N2015 1.427 . S
C2008 H1999 0.930 . S
C2008 C2006 1.378 . S
C2008 C2009 1.367 . S
C2009 C2008 1.367 . S
C2009 C2011 1.433 . S
C2010 C2006 1.350 . S
C2010 C2007 1.463 . S
C2010 N2014 1.427 . S
C2011 H2001 0.929 . S
C2011 C2009 1.433 . S
C2011 N2014 1.384 . S
C2012 H2003 0.929 . S
C2012 C2004 1.378 . S
C2012 C2007 1.350 . S
C2013 H2000 0.929 . S
C2013 C2005 1.433 . S
C2013 N2015 1.384 . S
N2014 C2010 1.427 . S
N2014 C2011 1.384 . S
N2015 C2007 1.427 . S
N2015 C2013 1.384 . S
H2016 C2022 0.930 . S
H2017 C2026 0.930 . S
H2018 C2031 0.929 . S
H2019 C2029 0.929 . S
H2020 C2024 0.929 . S
H2021 C2030 0.929 . S
C2022 H2016 0.930 . S
C2022 C2023 1.367 . S
C2022 C2030 1.378 . S
C2023 C2022 1.367 . S
C2023 C2031 1.433 . S
C2024 H2020 0.929 . S
C2024 C2026 1.378 . S
C2024 C2028 1.350 . S
C2025 C2028 1.463 . S
C2025 C2030 1.350 . S
C2025 N2033 1.427 . S
C2026 H2017 0.930 . S
C2026 C2024 1.378 . S
C2026 C2027 1.367 . S
C2027 C2026 1.367 . S
C2027 C2029 1.433 . S
C2028 C2024 1.350 . S
C2028 C2025 1.463 . S
C2028 N2032 1.427 . S
C2029 H2019 0.929 . S
C2029 C2027 1.433 . S
C2029 N2032 1.384 . S
C2030 H2021 0.929 . S
C2030 C2022 1.378 . S
C2030 C2025 1.350 . S
C2031 H2018 0.929 . S
C2031 C2023 1.433 . S
C2031 N2033 1.384 . S
N2032 C2028 1.427 . S
N2032 C2029 1.384 . S
N2033 C2025 1.427 . S
N2033 C2031 1.384 . S
H2034 C2040 0.930 . S
H2035 C2044 0.930 . S
H2036 C2049 0.929 . S
H2037 C2047 0.929 . S
H2038 C2042 0.929 . S
H2039 C2048 0.929 . S
C2040 H2034 0.930 . S
C2040 C2041 1.367 . S
C2040 C2048 1.378 . S
C2041 C2040 1.367 . S
C2041 C2049 1.433 . S
C2042 H2038 0.929 . S
C2042 C2044 1.378 . S
C2042 C2046 1.350 . S
C2043 C2046 1.463 . S
C2043 C2048 1.350 . S
C2043 N2051 1.427 . S
C2044 H2035 0.930 . S
C2044 C2042 1.378 . S
C2044 C2045 1.367 . S
C2045 C2044 1.367 . S
C2045 C2047 1.433 . S
C2046 C2042 1.350 . S
C2046 C2043 1.463 . S
C2046 N2050 1.427 . S
C2047 H2037 0.929 . S
C2047 C2045 1.433 . S
C2047 N2050 1.384 . S
C2048 H2039 0.929 . S
C2048 C2040 1.378 . S
C2048 C2043 1.350 . S
C2049 H2036 0.929 . S
C2049 C2041 1.433 . S
C2049 N2051 1.384 . S
N2050 C2046 1.427 . S
N2050 C2047 1.384 . S
N2051 C2043 1.427 . S
N2051 C2049 1.384 . S
H2052 C2058 0.930 . S
H2053 C2062 0.930 . S
H2054 C2067 0.929 . S
H2055 C2065 0.929 . S
H2056 C2060 0.929 . S
H2057 C2066 0.929 . S
C2058 H2052 0.930 . S
C2058 C2059 1.367 . S
C2058 C2066 1.378 . S
C2059 C2058 1.367 . S
C2059 C2067 1.433 . S
C2060 H2056 0.929 . S
C2060 C2062 1.378 . S
C2060 C2064 1.350 . S
C2061 C2064 1.463 . S
C2061 C2066 1.350 . S
C2061 N2069 1.427 . S
C2062 H2053 0.930 . S
C2062 C2060 1.378 . S
C2062 C2063 1.367 . S
C2063 C2062 1.367 . S
C2063 C2065 1.433 . S
C2064 C2060 1.350 . S
C2064 C2061 1.463 . S
C2064 N2068 1.427 . S
C2065 H2055 0.929 . S
C2065 C2063 1.433 . S
C2065 N2068 1.384 . S
C2066 H2057 0.929 . S
C2066 C2058 1.378 . S
C2066 C2061 1.350 . S
C2067 H2054 0.929 . S
C2067 C2059 1.433 . S
C2067 N2069 1.384 . S
N2068 C2064 1.427 . S
N2068 C2065 1.384 . S
N2069 C2061 1.427 . S
N2069 C2067 1.384 . S
H2070 C2076 0.930 . S
H2071 C2080 0.930 . S
H2072 C2085 0.929 . S
H2073 C2083 0.929 . S
H2074 C2078 0.929 . S
H2075 C2084 0.929 . S
C2076 H2070 0.930 . S
C2076 C2077 1.367 . S
C2076 C2084 1.378 . S
C2077 C2076 1.367 . S
C2077 C2085 1.433 . S
C2078 H2074 0.929 . S
C2078 C2080 1.378 . S
C2078 C2082 1.350 . S
C2079 C2082 1.463 . S
C2079 C2084 1.350 . S
C2079 N2087 1.427 . S
C2080 H2071 0.930 . S
C2080 C2078 1.378 . S
C2080 C2081 1.367 . S
C2081 C2080 1.367 . S
C2081 C2083 1.433 . S
C2082 C2078 1.350 . S
C2082 C2079 1.463 . S
C2082 N2086 1.427 . S
C2083 H2073 0.929 . S
C2083 C2081 1.433 . S
C2083 N2086 1.384 . S
C2084 H2075 0.929 . S
C2084 C2076 1.378 . S
C2084 C2079 1.350 . S
C2085 H2072 0.929 . S
C2085 C2077 1.433 . S
C2085 N2087 1.384 . S
N2086 C2082 1.427 . S
N2086 C2083 1.384 . S
N2087 C2079 1.427 . S
N2087 C2085 1.384 . S
H2088 C2094 0.930 . S
H2089 C2098 0.930 . S
H2090 C2103 0.929 . S
H2091 C2101 0.929 . S
H2092 C2096 0.929 . S
H2093 C2102 0.929 . S
C2094 H2088 0.930 . S
C2094 C2095 1.367 . S
C2094 C2102 1.378 . S
C2095 C2094 1.367 . S
C2095 C2103 1.433 . S
C2096 H2092 0.929 . S
C2096 C2098 1.378 . S
C2096 C2100 1.350 . S
C2097 C2100 1.463 . S
C2097 C2102 1.350 . S
C2097 N2105 1.427 . S
C2098 H2089 0.930 . S
C2098 C2096 1.378 . S
C2098 C2099 1.367 . S
C2099 C2098 1.367 . S
C2099 C2101 1.433 . S
C2100 C2096 1.350 . S
C2100 C2097 1.463 . S
C2100 N2104 1.427 . S
C2101 H2091 0.929 . S
C2101 C2099 1.433 . S
C2101 N2104 1.384 . S
C2102 H2093 0.929 . S
C2102 C2094 1.378 . S
C2102 C2097 1.350 . S
C2103 H2090 0.929 . S
C2103 C2095 1.433 . S
C2103 N2105 1.384 . S
N2104 C2100 1.427 . S
N2104 C2101 1.384 . S
N2105 C2097 1.427 . S
N2105 C2103 1.384 . S
H2106 C2112 0.930 . S
H2107 C2116 0.930 . S
H2108 C2121 0.929 . S
H2109 C2119 0.929 . S
H2110 C2114 0.929 . S
H2111 C2120 0.929 . S
C2112 H2106 0.930 . S
C2112 C2113 1.367 . S
C2112 C2120 1.378 . S
C2113 C2112 1.367 . S
C2113 C2121 1.433 . S
C2114 H2110 0.929 . S
C2114 C2116 1.378 . S
C2114 C2118 1.350 . S
C2115 C2118 1.463 . S
C2115 C2120 1.350 . S
C2115 N2123 1.427 . S
C2116 H2107 0.930 . S
C2116 C2114 1.378 . S
C2116 C2117 1.367 . S
C2117 C2116 1.367 . S
C2117 C2119 1.433 . S
C2118 C2114 1.350 . S
C2118 C2115 1.463 . S
C2118 N2122 1.427 . S
C2119 H2109 0.929 . S
C2119 C2117 1.433 . S
C2119 N2122 1.384 . S
C2120 H2111 0.929 . S
C2120 C2112 1.378 . S
C2120 C2115 1.350 . S
C2121 H2108 0.929 . S
C2121 C2113 1.433 . S
C2121 N2123 1.384 . S
N2122 C2118 1.427 . S
N2122 C2119 1.384 . S
N2123 C2115 1.427 . S
N2123 C2121 1.384 . S
H2124 C2130 0.930 . S
H2125 C2134 0.930 . S
H2126 C2139 0.929 . S
H2127 C2137 0.929 . S
H2128 C2132 0.929 . S
H2129 C2138 0.929 . S
C2130 H2124 0.930 . S
C2130 C2131 1.367 . S
C2130 C2138 1.378 . S
C2131 C2130 1.367 . S
C2131 C2139 1.433 . S
C2132 H2128 0.929 . S
C2132 C2134 1.378 . S
C2132 C2136 1.350 . S
C2133 C2136 1.463 . S
C2133 C2138 1.350 . S
C2133 N2141 1.427 . S
C2134 H2125 0.930 . S
C2134 C2132 1.378 . S
C2134 C2135 1.367 . S
C2135 C2134 1.367 . S
C2135 C2137 1.433 . S
C2136 C2132 1.350 . S
C2136 C2133 1.463 . S
C2136 N2140 1.427 . S
C2137 H2127 0.929 . S
C2137 C2135 1.433 . S
C2137 N2140 1.384 . S
C2138 H2129 0.929 . S
C2138 C2130 1.378 . S
C2138 C2133 1.350 . S
C2139 H2126 0.929 . S
C2139 C2131 1.433 . S
C2139 N2141 1.384 . S
N2140 C2136 1.427 . S
N2140 C2137 1.384 . S
N2141 C2133 1.427 . S
N2141 C2139 1.384 . S
H2142 C2148 0.930 . S
H2143 C2152 0.930 . S
H2144 C2157 0.929 . S
H2145 C2155 0.929 . S
H2146 C2150 0.929 . S
H2147 C2156 0.929 . S
C2148 H2142 0.930 . S
C2148 C2149 1.367 . S
C2148 C2156 1.378 . S
C2149 C2148 1.367 . S
C2149 C2157 1.433 . S
C2150 H2146 0.929 . S
C2150 C2152 1.378 . S
C2150 C2154 1.350 . S
C2151 C2154 1.463 . S
C2151 C2156 1.350 . S
C2151 N2159 1.427 . S
C2152 H2143 0.930 . S
C2152 C2150 1.378 . S
C2152 C2153 1.367 . S
C2153 C2152 1.367 . S
C2153 C2155 1.433 . S
C2154 C2150 1.350 . S
C2154 C2151 1.463 . S
C2154 N2158 1.427 . S
C2155 H2145 0.929 . S
C2155 C2153 1.433 . S
C2155 N2158 1.384 . S
C2156 H2147 0.929 . S
C2156 C2148 1.378 . S
C2156 C2151 1.350 . S
C2157 H2144 0.929 . S
C2157 C2149 1.433 . S
C2157 N2159 1.384 . S
N2158 C2154 1.427 . S
N2158 C2155 1.384 . S
N2159 C2151 1.427 . S
N2159 C2157 1.384 . S
H2160 C2166 0.930 . S
H2161 C2170 0.930 . S
H2162 C2175 0.929 . S
H2163 C2173 0.929 . S
H2164 C2168 0.929 . S
H2165 C2174 0.929 . S
C2166 H2160 0.930 . S
C2166 C2167 1.367 . S
C2166 C2174 1.378 . S
C2167 C2166 1.367 . S
C2167 C2175 1.433 . S
C2168 H2164 0.929 . S
C2168 C2170 1.378 . S
C2168 C2172 1.350 . S
C2169 C2172 1.463 . S
C2169 C2174 1.350 . S
C2169 N2177 1.427 . S
C2170 H2161 0.930 . S
C2170 C2168 1.378 . S
C2170 C2171 1.367 . S
C2171 C2170 1.367 . S
C2171 C2173 1.433 . S
C2172 C2168 1.350 . S
C2172 C2169 1.463 . S
C2172 N2176 1.427 . S
C2173 H2163 0.929 . S
C2173 C2171 1.433 . S
C2173 N2176 1.384 . S
C2174 H2165 0.929 . S
C2174 C2166 1.378 . S
C2174 C2169 1.350 . S
C2175 H2162 0.929 . S
C2175 C2167 1.433 . S
C2175 N2177 1.384 . S
N2176 C2172 1.427 . S
N2176 C2173 1.384 . S
N2177 C2169 1.427 . S
N2177 C2175 1.384 . S
H2178 C2184 0.930 . S
H2179 C2188 0.930 . S
H2180 C2193 0.929 . S
H2181 C2191 0.929 . S
H2182 C2186 0.929 . S
H2183 C2192 0.929 . S
C2184 H2178 0.930 . S
C2184 C2185 1.367 . S
C2184 C2192 1.378 . S
C2185 C2184 1.367 . S
C2185 C2193 1.433 . S
C2186 H2182 0.929 . S
C2186 C2188 1.378 . S
C2186 C2190 1.350 . S
C2187 C2190 1.463 . S
C2187 C2192 1.350 . S
C2187 N2195 1.427 . S
C2188 H2179 0.930 . S
C2188 C2186 1.378 . S
C2188 C2189 1.367 . S
C2189 C2188 1.367 . S
C2189 C2191 1.433 . S
C2190 C2186 1.350 . S
C2190 C2187 1.463 . S
C2190 N2194 1.427 . S
C2191 H2181 0.929 . S
C2191 C2189 1.433 . S
C2191 N2194 1.384 . S
C2192 H2183 0.929 . S
C2192 C2184 1.378 . S
C2192 C2187 1.350 . S
C2193 H2180 0.929 . S
C2193 C2185 1.433 . S
C2193 N2195 1.384 . S
N2194 C2190 1.427 . S
N2194 C2191 1.384 . S
N2195 C2187 1.427 . S
N2195 C2193 1.384 . S
H2196 C2202 0.930 . S
H2197 C2206 0.930 . S
H2198 C2211 0.929 . S
H2199 C2209 0.929 . S
H2200 C2204 0.929 . S
H2201 C2210 0.929 . S
C2202 H2196 0.930 . S
C2202 C2203 1.367 . S
C2202 C2210 1.378 . S
C2203 C2202 1.367 . S
C2203 C2211 1.433 . S
C2204 H2200 0.929 . S
C2204 C2206 1.378 . S
C2204 C2208 1.350 . S
C2205 C2208 1.463 . S
C2205 C2210 1.350 . S
C2205 N2213 1.427 . S
C2206 H2197 0.930 . S
C2206 C2204 1.378 . S
C2206 C2207 1.367 . S
C2207 C2206 1.367 . S
C2207 C2209 1.433 . S
C2208 C2204 1.350 . S
C2208 C2205 1.463 . S
C2208 N2212 1.427 . S
C2209 H2199 0.929 . S
C2209 C2207 1.433 . S
C2209 N2212 1.384 . S
C2210 H2201 0.929 . S
C2210 C2202 1.378 . S
C2210 C2205 1.350 . S
C2211 H2198 0.929 . S
C2211 C2203 1.433 . S
C2211 N2213 1.384 . S
N2212 C2208 1.427 . S
N2212 C2209 1.384 . S
N2213 C2205 1.427 . S
N2213 C2211 1.384 . S
H2214 C2220 0.930 . S
H2215 C2224 0.930 . S
H2216 C2229 0.929 . S
H2217 C2227 0.929 . S
H2218 C2222 0.929 . S
H2219 C2228 0.929 . S
C2220 H2214 0.930 . S
C2220 C2221 1.367 . S
C2220 C2228 1.378 . S
C2221 C2220 1.367 . S
C2221 C2229 1.433 . S
C2222 H2218 0.929 . S
C2222 C2224 1.378 . S
C2222 C2226 1.350 . S
C2223 C2226 1.463 . S
C2223 C2228 1.350 . S
C2223 N2231 1.427 . S
C2224 H2215 0.930 . S
C2224 C2222 1.378 . S
C2224 C2225 1.367 . S
C2225 C2224 1.367 . S
C2225 C2227 1.433 . S
C2226 C2222 1.350 . S
C2226 C2223 1.463 . S
C2226 N2230 1.427 . S
C2227 H2217 0.929 . S
C2227 C2225 1.433 . S
C2227 N2230 1.384 . S
C2228 H2219 0.929 . S
C2228 C2220 1.378 . S
C2228 C2223 1.350 . S
C2229 H2216 0.929 . S
C2229 C2221 1.433 . S
C2229 N2231 1.384 . S
N2230 C2226 1.427 . S
N2230 C2227 1.384 . S
N2231 C2223 1.427 . S
N2231 C2229 1.384 . S
H2232 C2238 0.930 . S
H2233 C2242 0.930 . S
H2234 C2247 0.929 . S
H2235 C2245 0.929 . S
H2236 C2240 0.929 . S
H2237 C2246 0.929 . S
C2238 H2232 0.930 . S
C2238 C2239 1.367 . S
C2238 C2246 1.378 . S
C2239 C2238 1.367 . S
C2239 C2247 1.433 . S
C2240 H2236 0.929 . S
C2240 C2242 1.378 . S
C2240 C2244 1.350 . S
C2241 C2244 1.463 . S
C2241 C2246 1.350 . S
C2241 N2249 1.427 . S
C2242 H2233 0.930 . S
C2242 C2240 1.378 . S
C2242 C2243 1.367 . S
C2243 C2242 1.367 . S
C2243 C2245 1.433 . S
C2244 C2240 1.350 . S
C2244 C2241 1.463 . S
C2244 N2248 1.427 . S
C2245 H2235 0.929 . S
C2245 C2243 1.433 . S
C2245 N2248 1.384 . S
C2246 H2237 0.929 . S
C2246 C2238 1.378 . S
C2246 C2241 1.350 . S
C2247 H2234 0.929 . S
C2247 C2239 1.433 . S
C2247 N2249 1.384 . S
N2248 C2244 1.427 . S
N2248 C2245 1.384 . S
N2249 C2241 1.427 . S
N2249 C2247 1.384 . S
H2250 C2256 0.930 . S
H2251 C2260 0.930 . S
H2252 C2265 0.929 . S
H2253 C2263 0.929 . S
H2254 C2258 0.929 . S
H2255 C2264 0.929 . S
C2256 H2250 0.930 . S
C2256 C2257 1.367 . S
C2256 C2264 1.378 . S
C2257 C2256 1.367 . S
C2257 C2265 1.433 . S
C2258 H2254 0.929 . S
C2258 C2260 1.378 . S
C2258 C2262 1.350 . S
C2259 C2262 1.463 . S
C2259 C2264 1.350 . S
C2259 N2267 1.427 . S
C2260 H2251 0.930 . S
C2260 C2258 1.378 . S
C2260 C2261 1.367 . S
C2261 C2260 1.367 . S
C2261 C2263 1.433 . S
C2262 C2258 1.350 . S
C2262 C2259 1.463 . S
C2262 N2266 1.427 . S
C2263 H2253 0.929 . S
C2263 C2261 1.433 . S
C2263 N2266 1.384 . S
C2264 H2255 0.929 . S
C2264 C2256 1.378 . S
C2264 C2259 1.350 . S
C2265 H2252 0.929 . S
C2265 C2257 1.433 . S
C2265 N2267 1.384 . S
N2266 C2262 1.427 . S
N2266 C2263 1.384 . S
N2267 C2259 1.427 . S
N2267 C2265 1.384 . S
H2268 C2274 0.930 . S
H2269 C2278 0.930 . S
H2270 C2283 0.929 . S
H2271 C2281 0.929 . S
H2272 C2276 0.929 . S
H2273 C2282 0.929 . S
C2274 H2268 0.930 . S
C2274 C2275 1.367 . S
C2274 C2282 1.378 . S
C2275 C2274 1.367 . S
C2275 C2283 1.433 . S
C2276 H2272 0.929 . S
C2276 C2278 1.378 . S
C2276 C2280 1.350 . S
C2277 C2280 1.463 . S
C2277 C2282 1.350 . S
C2277 N2285 1.427 . S
C2278 H2269 0.930 . S
C2278 C2276 1.378 . S
C2278 C2279 1.367 . S
C2279 C2278 1.367 . S
C2279 C2281 1.433 . S
C2280 C2276 1.350 . S
C2280 C2277 1.463 . S
C2280 N2284 1.427 . S
C2281 H2271 0.929 . S
C2281 C2279 1.433 . S
C2281 N2284 1.384 . S
C2282 H2273 0.929 . S
C2282 C2274 1.378 . S
C2282 C2277 1.350 . S
C2283 H2270 0.929 . S
C2283 C2275 1.433 . S
C2283 N2285 1.384 . S
N2284 C2280 1.427 . S
N2284 C2281 1.384 . S
N2285 C2277 1.427 . S
N2285 C2283 1.384 . S
H2286 C2292 0.930 . S
H2287 C2296 0.930 . S
H2288 C2301 0.929 . S
H2289 C2299 0.929 . S
H2290 C2294 0.929 . S
H2291 C2300 0.929 . S
C2292 H2286 0.930 . S
C2292 C2293 1.367 . S
C2292 C2300 1.378 . S
C2293 C2292 1.367 . S
C2293 C2301 1.433 . S
C2294 H2290 0.929 . S
C2294 C2296 1.378 . S
C2294 C2298 1.350 . S
C2295 C2298 1.463 . S
C2295 C2300 1.350 . S
C2295 N2303 1.427 . S
C2296 H2287 0.930 . S
C2296 C2294 1.378 . S
C2296 C2297 1.367 . S
C2297 C2296 1.367 . S
C2297 C2299 1.433 . S
C2298 C2294 1.350 . S
C2298 C2295 1.463 . S
C2298 N2302 1.427 . S
C2299 H2289 0.929 . S
C2299 C2297 1.433 . S
C2299 N2302 1.384 . S
C2300 H2291 0.929 . S
C2300 C2292 1.378 . S
C2300 C2295 1.350 . S
C2301 H2288 0.929 . S
C2301 C2293 1.433 . S
C2301 N2303 1.384 . S
N2302 C2298 1.427 . S
N2302 C2299 1.384 . S
N2303 C2295 1.427 . S
N2303 C2301 1.384 . S
H2304 C2310 0.930 . S
H2305 C2314 0.930 . S
H2306 C2319 0.929 . S
H2307 C2317 0.929 . S
H2308 C2312 0.929 . S
H2309 C2318 0.929 . S
C2310 H2304 0.930 . S
C2310 C2311 1.367 . S
C2310 C2318 1.378 . S
C2311 C2310 1.367 . S
C2311 C2319 1.433 . S
C2312 H2308 0.929 . S
C2312 C2314 1.378 . S
C2312 C2316 1.350 . S
C2313 C2316 1.463 . S
C2313 C2318 1.350 . S
C2313 N2321 1.427 . S
C2314 H2305 0.930 . S
C2314 C2312 1.378 . S
C2314 C2315 1.367 . S
C2315 C2314 1.367 . S
C2315 C2317 1.433 . S
C2316 C2312 1.350 . S
C2316 C2313 1.463 . S
C2316 N2320 1.427 . S
C2317 H2307 0.929 . S
C2317 C2315 1.433 . S
C2317 N2320 1.384 . S
C2318 H2309 0.929 . S
C2318 C2310 1.378 . S
C2318 C2313 1.350 . S
C2319 H2306 0.929 . S
C2319 C2311 1.433 . S
C2319 N2321 1.384 . S
N2320 C2316 1.427 . S
N2320 C2317 1.384 . S
N2321 C2313 1.427 . S
N2321 C2319 1.384 . S
H2322 C2328 0.930 . S
H2323 C2332 0.930 . S
H2324 C2337 0.929 . S
H2325 C2335 0.929 . S
H2326 C2330 0.929 . S
H2327 C2336 0.929 . S
C2328 H2322 0.930 . S
C2328 C2329 1.367 . S
C2328 C2336 1.378 . S
C2329 C2328 1.367 . S
C2329 C2337 1.433 . S
C2330 H2326 0.929 . S
C2330 C2332 1.378 . S
C2330 C2334 1.350 . S
C2331 C2334 1.463 1_554 S
C2331 C2336 1.350 . S
C2331 N2339 1.427 1_554 S
C2332 H2323 0.930 . S
C2332 C2330 1.378 . S
C2332 C2333 1.367 . S
C2333 C2332 1.367 . S
C2333 C2335 1.433 . S
C2334 C2330 1.350 . S
C2334 C2331 1.463 1_556 S
C2334 N2338 1.427 . S
C2335 H2325 0.929 . S
C2335 C2333 1.433 . S
C2335 N2338 1.384 . S
C2336 H2327 0.929 . S
C2336 C2328 1.378 . S
C2336 C2331 1.350 . S
C2337 H2324 0.929 . S
C2337 C2329 1.433 . S
C2337 N2339 1.384 1_554 S
N2338 C2334 1.427 . S
N2338 C2335 1.384 . S
N2339 C2331 1.427 1_556 S
N2339 C2337 1.384 1_556 S
H2340 C2346 0.930 1_554 S
H2341 C2350 0.930 . S
H2342 C2355 0.929 . S
H2343 C2353 0.929 . S
H2344 C2348 0.929 . S
H2345 C2354 0.929 . S
C2346 H2340 0.930 1_556 S
C2346 C2347 1.367 . S
C2346 C2354 1.378 . S
C2347 C2346 1.367 . S
C2347 C2355 1.433 . S
C2348 H2344 0.929 . S
C2348 C2350 1.378 . S
C2348 C2352 1.350 . S
C2349 C2352 1.463 . S
C2349 C2354 1.350 . S
C2349 N2357 1.427 . S
C2350 H2341 0.930 . S
C2350 C2348 1.378 . S
C2350 C2351 1.367 . S
C2351 C2350 1.367 . S
C2351 C2353 1.433 . S
C2352 C2348 1.350 . S
C2352 C2349 1.463 . S
C2352 N2356 1.427 . S
C2353 H2343 0.929 . S
C2353 C2351 1.433 . S
C2353 N2356 1.384 . S
C2354 H2345 0.929 . S
C2354 C2346 1.378 . S
C2354 C2349 1.350 . S
C2355 H2342 0.929 . S
C2355 C2347 1.433 . S
C2355 N2357 1.384 . S
N2356 C2352 1.427 . S
N2356 C2353 1.384 . S
N2357 C2349 1.427 . S
N2357 C2355 1.384 . S
H2358 C2364 0.930 . S
H2359 C2368 0.930 . S
H2360 C2373 0.929 . S
H2361 C2371 0.929 . S
H2362 C2366 0.929 . S
H2363 C2372 0.929 . S
C2364 H2358 0.930 . S
C2364 C2365 1.367 . S
C2364 C2372 1.378 . S
C2365 C2364 1.367 . S
C2365 C2373 1.433 . S
C2366 H2362 0.929 . S
C2366 C2368 1.378 . S
C2366 C2370 1.350 . S
C2367 C2370 1.463 . S
C2367 C2372 1.350 . S
C2367 N2375 1.427 . S
C2368 H2359 0.930 . S
C2368 C2366 1.378 . S
C2368 C2369 1.367 . S
C2369 C2368 1.367 . S
C2369 C2371 1.433 . S
C2370 C2366 1.350 . S
C2370 C2367 1.463 . S
C2370 N2374 1.427 . S
C2371 H2361 0.929 . S
C2371 C2369 1.433 . S
C2371 N2374 1.384 . S
C2372 H2363 0.929 . S
C2372 C2364 1.378 . S
C2372 C2367 1.350 . S
C2373 H2360 0.929 . S
C2373 C2365 1.433 . S
C2373 N2375 1.384 . S
N2374 C2370 1.427 . S
N2374 C2371 1.384 . S
N2375 C2367 1.427 . S
N2375 C2373 1.384 . S
H2376 C2382 0.930 . S
H2377 C2386 0.930 . S
H2378 C2391 0.929 . S
H2379 C2389 0.929 . S
H2380 C2384 0.929 . S
H2381 C2390 0.929 . S
C2382 H2376 0.930 . S
C2382 C2383 1.367 . S
C2382 C2390 1.378 . S
C2383 C2382 1.367 . S
C2383 C2391 1.433 1_554 S
C2384 H2380 0.929 . S
C2384 C2386 1.378 . S
C2384 C2388 1.350 . S
C2385 C2388 1.463 . S
C2385 C2390 1.350 1_556 S
C2385 N2393 1.427 . S
C2386 H2377 0.930 . S
C2386 C2384 1.378 . S
C2386 C2387 1.367 . S
C2387 C2386 1.367 . S
C2387 C2389 1.433 . S
C2388 C2384 1.350 . S
C2388 C2385 1.463 . S
C2388 N2392 1.427 . S
C2389 H2379 0.929 . S
C2389 C2387 1.433 . S
C2389 N2392 1.384 . S
C2390 H2381 0.929 . S
C2390 C2382 1.378 . S
C2390 C2385 1.350 1_554 S
C2391 H2378 0.929 . S
C2391 C2383 1.433 1_556 S
C2391 N2393 1.384 . S
N2392 C2388 1.427 . S
N2392 C2389 1.384 . S
N2393 C2385 1.427 . S
N2393 C2391 1.384 . S
H2394 C2400 0.930 . S
H2395 C2404 0.930 . S
H2396 C2409 0.929 . S
H2397 C2407 0.929 . S
H2398 C2402 0.929 . S
H2399 C2408 0.929 . S
C2400 H2394 0.930 . S
C2400 C2401 1.367 . S
C2400 C2408 1.378 . S
C2401 C2400 1.367 . S
C2401 C2409 1.433 . S
C2402 H2398 0.929 . S
C2402 C2404 1.378 . S
C2402 C2406 1.350 . S
C2403 C2406 1.463 . S
C2403 C2408 1.350 . S
C2403 N2411 1.427 . S
C2404 H2395 0.930 . S
C2404 C2402 1.378 . S
C2404 C2405 1.367 . S
C2405 C2404 1.367 . S
C2405 C2407 1.433 . S
C2406 C2402 1.350 . S
C2406 C2403 1.463 . S
C2406 N2410 1.427 . S
C2407 H2397 0.929 . S
C2407 C2405 1.433 . S
C2407 N2410 1.384 . S
C2408 H2399 0.929 . S
C2408 C2400 1.378 . S
C2408 C2403 1.350 . S
C2409 H2396 0.929 . S
C2409 C2401 1.433 . S
C2409 N2411 1.384 . S
N2410 C2406 1.427 . S
N2410 C2407 1.384 . S
N2411 C2403 1.427 . S
N2411 C2409 1.384 . S
H2412 C2418 0.930 . S
H2413 C2422 0.930 . S
H2414 C2427 0.929 . S
H2415 C2425 0.929 . S
H2416 C2420 0.929 . S
H2417 C2426 0.929 . S
C2418 H2412 0.930 . S
C2418 C2419 1.367 . S
C2418 C2426 1.378 . S
C2419 C2418 1.367 . S
C2419 C2427 1.433 . S
C2420 H2416 0.929 . S
C2420 C2422 1.378 . S
C2420 C2424 1.350 . S
C2421 C2424 1.463 . S
C2421 C2426 1.350 . S
C2421 N2429 1.427 . S
C2422 H2413 0.930 . S
C2422 C2420 1.378 . S
C2422 C2423 1.367 . S
C2423 C2422 1.367 . S
C2423 C2425 1.433 . S
C2424 C2420 1.350 . S
C2424 C2421 1.463 . S
C2424 N2428 1.427 . S
C2425 H2415 0.929 . S
C2425 C2423 1.433 . S
C2425 N2428 1.384 . S
C2426 H2417 0.929 . S
C2426 C2418 1.378 . S
C2426 C2421 1.350 . S
C2427 H2414 0.929 . S
C2427 C2419 1.433 . S
C2427 N2429 1.384 . S
N2428 C2424 1.427 . S
N2428 C2425 1.384 . S
N2429 C2421 1.427 . S
N2429 C2427 1.384 . S
H2430 C2436 0.930 . S
H2431 C2440 0.930 . S
H2432 C2445 0.929 . S
H2433 C2443 0.929 . S
H2434 C2438 0.929 . S
H2435 C2444 0.929 . S
C2436 H2430 0.930 . S
C2436 C2437 1.367 . S
C2436 C2444 1.378 . S
C2437 C2436 1.367 . S
C2437 C2445 1.433 . S
C2438 H2434 0.929 . S
C2438 C2440 1.378 . S
C2438 C2442 1.350 . S
C2439 C2442 1.463 . S
C2439 C2444 1.350 . S
C2439 N2447 1.427 . S
C2440 H2431 0.930 . S
C2440 C2438 1.378 . S
C2440 C2441 1.367 . S
C2441 C2440 1.367 . S
C2441 C2443 1.433 . S
C2442 C2438 1.350 . S
C2442 C2439 1.463 . S
C2442 N2446 1.427 . S
C2443 H2433 0.929 . S
C2443 C2441 1.433 . S
C2443 N2446 1.384 . S
C2444 H2435 0.929 . S
C2444 C2436 1.378 . S
C2444 C2439 1.350 . S
C2445 H2432 0.929 . S
C2445 C2437 1.433 . S
C2445 N2447 1.384 . S
N2446 C2442 1.427 . S
N2446 C2443 1.384 . S
N2447 C2439 1.427 . S
N2447 C2445 1.384 . S
H2448 C2454 0.930 . S
H2449 C2458 0.930 . S
H2450 C2463 0.929 . S
H2451 C2461 0.929 . S
H2452 C2456 0.929 . S
H2453 C2462 0.929 . S
C2454 H2448 0.930 . S
C2454 C2455 1.367 . S
C2454 C2462 1.378 . S
C2455 C2454 1.367 . S
C2455 C2463 1.433 . S
C2456 H2452 0.929 . S
C2456 C2458 1.378 . S
C2456 C2460 1.350 . S
C2457 C2460 1.463 . S
C2457 C2462 1.350 . S
C2457 N2465 1.427 . S
C2458 H2449 0.930 . S
C2458 C2456 1.378 . S
C2458 C2459 1.367 . S
C2459 C2458 1.367 . S
C2459 C2461 1.433 . S
C2460 C2456 1.350 . S
C2460 C2457 1.463 . S
C2460 N2464 1.427 . S
C2461 H2451 0.929 . S
C2461 C2459 1.433 . S
C2461 N2464 1.384 . S
C2462 H2453 0.929 . S
C2462 C2454 1.378 . S
C2462 C2457 1.350 . S
C2463 H2450 0.929 . S
C2463 C2455 1.433 . S
C2463 N2465 1.384 . S
N2464 C2460 1.427 . S
N2464 C2461 1.384 . S
N2465 C2457 1.427 . S
N2465 C2463 1.384 . S
H2466 C2472 0.930 . S
H2467 C2476 0.930 . S
H2468 C2481 0.929 . S
H2469 C2479 0.929 . S
H2470 C2474 0.929 . S
H2471 C2480 0.929 . S
C2472 H2466 0.930 . S
C2472 C2473 1.367 . S
C2472 C2480 1.378 . S
C2473 C2472 1.367 . S
C2473 C2481 1.433 . S
C2474 H2470 0.929 . S
C2474 C2476 1.378 . S
C2474 C2478 1.350 . S
C2475 C2478 1.463 . S
C2475 C2480 1.350 . S
C2475 N2483 1.427 . S
C2476 H2467 0.930 . S
C2476 C2474 1.378 . S
C2476 C2477 1.367 . S
C2477 C2476 1.367 . S
C2477 C2479 1.433 . S
C2478 C2474 1.350 . S
C2478 C2475 1.463 . S
C2478 N2482 1.427 . S
C2479 H2469 0.929 . S
C2479 C2477 1.433 . S
C2479 N2482 1.384 . S
C2480 H2471 0.929 . S
C2480 C2472 1.378 . S
C2480 C2475 1.350 . S
C2481 H2468 0.929 . S
C2481 C2473 1.433 . S
C2481 N2483 1.384 . S
N2482 C2478 1.427 . S
N2482 C2479 1.384 . S
N2483 C2475 1.427 . S
N2483 C2481 1.384 . S
H2484 C2490 0.930 . S
H2485 C2494 0.930 . S
H2486 C2499 0.929 . S
H2487 C2497 0.929 . S
H2488 C2492 0.929 . S
H2489 C2498 0.929 . S
C2490 H2484 0.930 . S
C2490 C2491 1.367 . S
C2490 C2498 1.378 . S
C2491 C2490 1.367 . S
C2491 C2499 1.433 . S
C2492 H2488 0.929 . S
C2492 C2494 1.378 . S
C2492 C2496 1.350 . S
C2493 C2496 1.463 . S
C2493 C2498 1.350 . S
C2493 N2501 1.427 . S
C2494 H2485 0.930 . S
C2494 C2492 1.378 . S
C2494 C2495 1.367 . S
C2495 C2494 1.367 . S
C2495 C2497 1.433 . S
C2496 C2492 1.350 . S
C2496 C2493 1.463 . S
C2496 N2500 1.427 . S
C2497 H2487 0.929 . S
C2497 C2495 1.433 . S
C2497 N2500 1.384 . S
C2498 H2489 0.929 . S
C2498 C2490 1.378 . S
C2498 C2493 1.350 . S
C2499 H2486 0.929 . S
C2499 C2491 1.433 . S
C2499 N2501 1.384 . S
N2500 C2496 1.427 . S
N2500 C2497 1.384 . S
N2501 C2493 1.427 . S
N2501 C2499 1.384 . S
H2502 C2508 0.930 . S
H2503 C2512 0.930 . S
H2504 C2517 0.929 . S
H2505 C2515 0.929 . S
H2506 C2510 0.929 . S
H2507 C2516 0.929 . S
C2508 H2502 0.930 . S
C2508 C2509 1.367 . S
C2508 C2516 1.378 . S
C2509 C2508 1.367 . S
C2509 C2517 1.433 . S
C2510 H2506 0.929 . S
C2510 C2512 1.378 . S
C2510 C2514 1.350 . S
C2511 C2514 1.463 . S
C2511 C2516 1.350 . S
C2511 N2519 1.427 . S
C2512 H2503 0.930 . S
C2512 C2510 1.378 . S
C2512 C2513 1.367 . S
C2513 C2512 1.367 . S
C2513 C2515 1.433 . S
C2514 C2510 1.350 . S
C2514 C2511 1.463 . S
C2514 N2518 1.427 . S
C2515 H2505 0.929 . S
C2515 C2513 1.433 . S
C2515 N2518 1.384 . S
C2516 H2507 0.929 . S
C2516 C2508 1.378 . S
C2516 C2511 1.350 . S
C2517 H2504 0.929 . S
C2517 C2509 1.433 . S
C2517 N2519 1.384 . S
N2518 C2514 1.427 . S
N2518 C2515 1.384 . S
N2519 C2511 1.427 . S
N2519 C2517 1.384 . S
H2520 C2526 0.930 . S
H2521 C2530 0.930 . S
H2522 C2535 0.929 . S
H2523 C2533 0.929 . S
H2524 C2528 0.929 . S
H2525 C2534 0.929 . S
C2526 H2520 0.930 . S
C2526 C2527 1.367 . S
C2526 C2534 1.378 . S
C2527 C2526 1.367 . S
C2527 C2535 1.433 . S
C2528 H2524 0.929 . S
C2528 C2530 1.378 . S
C2528 C2532 1.350 . S
C2529 C2532 1.463 . S
C2529 C2534 1.350 . S
C2529 N2537 1.427 . S
C2530 H2521 0.930 . S
C2530 C2528 1.378 . S
C2530 C2531 1.367 . S
C2531 C2530 1.367 . S
C2531 C2533 1.433 . S
C2532 C2528 1.350 . S
C2532 C2529 1.463 . S
C2532 N2536 1.427 . S
C2533 H2523 0.929 . S
C2533 C2531 1.433 . S
C2533 N2536 1.384 . S
C2534 H2525 0.929 . S
C2534 C2526 1.378 . S
C2534 C2529 1.350 . S
C2535 H2522 0.929 . S
C2535 C2527 1.433 . S
C2535 N2537 1.384 . S
N2536 C2532 1.427 . S
N2536 C2533 1.384 . S
N2537 C2529 1.427 . S
N2537 C2535 1.384 . S
H2538 C2544 0.930 . S
H2539 C2548 0.930 . S
H2540 C2553 0.929 . S
H2541 C2551 0.929 1_545 S
H2542 C2546 0.929 . S
H2543 C2552 0.929 . S
C2544 H2538 0.930 . S
C2544 C2545 1.367 . S
C2544 C2552 1.378 . S
C2545 C2544 1.367 . S
C2545 C2553 1.433 . S
C2546 H2542 0.929 . S
C2546 C2548 1.378 . S
C2546 C2550 1.350 . S
C2547 C2550 1.463 . S
C2547 C2552 1.350 . S
C2547 N2555 1.427 . S
C2548 H2539 0.930 . S
C2548 C2546 1.378 . S
C2548 C2549 1.367 . S
C2549 C2548 1.367 . S
C2549 C2551 1.433 . S
C2550 C2546 1.350 . S
C2550 C2547 1.463 . S
C2550 N2554 1.427 . S
C2551 H2541 0.929 1_565 S
C2551 C2549 1.433 . S
C2551 N2554 1.384 . S
C2552 H2543 0.929 . S
C2552 C2544 1.378 . S
C2552 C2547 1.350 . S
C2553 H2540 0.929 . S
C2553 C2545 1.433 . S
C2553 N2555 1.384 . S
N2554 C2550 1.427 . S
N2554 C2551 1.384 . S
N2555 C2547 1.427 . S
N2555 C2553 1.384 . S
H2556 C2562 0.930 1_545 S
H2557 C2566 0.930 . S
H2558 C2571 0.929 . S
H2559 C2569 0.929 . S
H2560 C2564 0.929 . S
H2561 C2570 0.914 1_545 S
C2562 H2556 0.930 1_565 S
C2562 C2563 1.367 . S
C2562 C2570 1.391 . S
C2563 C2562 1.367 . S
C2563 C2571 1.433 . S
C2564 H2560 0.929 . S
C2564 C2566 1.378 . S
C2564 C2568 1.350 . S
C2565 C2568 1.463 . S
C2565 C2570 1.352 . S
C2565 N2573 1.427 . S
C2566 H2557 0.930 . S
C2566 C2564 1.378 . S
C2566 C2567 1.354 1_565 S
C2567 C2566 1.354 1_545 S
C2567 C2569 1.436 . S
C2568 C2564 1.350 . S
C2568 C2565 1.463 . S
C2568 N2572 1.427 1_565 S
C2569 H2559 0.929 . S
C2569 C2567 1.436 . S
C2569 N2572 1.384 . S
C2570 H2561 0.914 1_565 S
C2570 C2562 1.391 . S
C2570 C2565 1.352 . S
C2571 H2558 0.929 . S
C2571 C2563 1.433 . S
C2571 N2573 1.384 . S
N2572 C2568 1.427 1_545 S
N2572 C2569 1.384 . S
N2573 C2565 1.427 . S
N2573 C2571 1.384 . S
H2574 C2580 0.930 . S
H2575 C2584 0.930 . S
H2576 C2589 0.929 1_655 S
H2577 C2587 0.929 . S
H2578 C2582 0.929 . S
H2579 C2588 0.929 . S
C2580 H2574 0.930 . S
C2580 C2581 1.367 . S
C2580 C2588 1.378 . S
C2581 C2580 1.367 . S
C2581 C2589 1.433 . S
C2582 H2578 0.929 . S
C2582 C2584 1.378 . S
C2582 C2586 1.350 1_655 S
C2583 C2586 1.463 . S
C2583 C2588 1.350 . S
C2583 N2591 1.401 1_455 S
C2584 H2575 0.930 . S
C2584 C2582 1.378 . S
C2584 C2585 1.367 . S
C2585 C2584 1.367 . S
C2585 C2587 1.433 1_655 S
C2586 C2582 1.350 1_455 S
C2586 C2583 1.463 . S
C2586 N2590 1.427 . S
C2587 H2577 0.929 . S
C2587 C2585 1.433 1_455 S
C2587 N2590 1.384 . S
C2588 H2579 0.929 . S
C2588 C2580 1.378 . S
C2588 C2583 1.350 . S
C2589 H2576 0.929 1_455 S
C2589 C2581 1.433 . S
C2589 N2591 1.391 1_455 S
N2590 C2586 1.427 . S
N2590 C2587 1.384 . S
N2591 C2583 1.401 1_655 S
N2591 C2589 1.391 1_655 S
H2592 C2598 0.930 . S
H2593 C2602 0.930 . S
H2594 C2607 0.929 . S
H2595 C2605 0.929 . S
H2596 C2600 0.929 . S
H2597 C2606 0.929 . S
C2598 H2592 0.930 . S
C2598 C2599 1.367 . S
C2598 C2606 1.378 . S
C2599 C2598 1.367 . S
C2599 C2607 1.433 . S
C2600 H2596 0.929 . S
C2600 C2602 1.378 . S
C2600 C2604 1.350 . S
C2601 C2604 1.463 . S
C2601 C2606 1.350 . S
C2601 N2609 1.427 . S
C2602 H2593 0.930 . S
C2602 C2600 1.378 . S
C2602 C2603 1.367 . S
C2603 C2602 1.367 . S
C2603 C2605 1.433 . S
C2604 C2600 1.350 . S
C2604 C2601 1.463 . S
C2604 N2608 1.427 . S
C2605 H2595 0.929 . S
C2605 C2603 1.433 . S
C2605 N2608 1.384 . S
C2606 H2597 0.929 . S
C2606 C2598 1.378 . S
C2606 C2601 1.350 . S
C2607 H2594 0.929 . S
C2607 C2599 1.433 . S
C2607 N2609 1.384 . S
N2608 C2604 1.427 . S
N2608 C2605 1.384 . S
N2609 C2601 1.427 . S
N2609 C2607 1.384 . S
H2610 C2616 0.930 . S
H2611 C2620 0.930 . S
H2612 C2625 0.929 . S
H2613 C2623 0.929 . S
H2614 C2618 0.929 . S
H2615 C2624 0.929 . S
C2616 H2610 0.930 . S
C2616 C2617 1.367 . S
C2616 C2624 1.378 . S
C2617 C2616 1.367 . S
C2617 C2625 1.433 . S
C2618 H2614 0.929 . S
C2618 C2620 1.378 . S
C2618 C2622 1.350 . S
C2619 C2622 1.463 . S
C2619 C2624 1.350 . S
C2619 N2627 1.427 . S
C2620 H2611 0.930 . S
C2620 C2618 1.378 . S
C2620 C2621 1.367 . S
C2621 C2620 1.367 . S
C2621 C2623 1.433 . S
C2622 C2618 1.350 . S
C2622 C2619 1.463 . S
C2622 N2626 1.427 . S
C2623 H2613 0.929 . S
C2623 C2621 1.433 . S
C2623 N2626 1.384 . S
C2624 H2615 0.929 . S
C2624 C2616 1.378 . S
C2624 C2619 1.350 . S
C2625 H2612 0.929 . S
C2625 C2617 1.433 . S
C2625 N2627 1.384 . S
N2626 C2622 1.427 . S
N2626 C2623 1.384 . S
N2627 C2619 1.427 . S
N2627 C2625 1.384 . S
H2628 C2634 0.930 . S
H2629 C2638 0.930 . S
H2630 C2643 0.929 . S
H2631 C2641 0.929 . S
H2632 C2636 0.929 . S
H2633 C2642 0.929 . S
C2634 H2628 0.930 . S
C2634 C2635 1.367 . S
C2634 C2642 1.378 . S
C2635 C2634 1.367 . S
C2635 C2643 1.433 . S
C2636 H2632 0.929 . S
C2636 C2638 1.378 . S
C2636 C2640 1.350 . S
C2637 C2640 1.463 . S
C2637 C2642 1.350 . S
C2637 N2645 1.427 . S
C2638 H2629 0.930 . S
C2638 C2636 1.378 . S
C2638 C2639 1.367 . S
C2639 C2638 1.367 . S
C2639 C2641 1.433 . S
C2640 C2636 1.350 . S
C2640 C2637 1.463 . S
C2640 N2644 1.427 . S
C2641 H2631 0.929 . S
C2641 C2639 1.433 . S
C2641 N2644 1.384 . S
C2642 H2633 0.929 . S
C2642 C2634 1.378 . S
C2642 C2637 1.350 . S
C2643 H2630 0.929 . S
C2643 C2635 1.433 . S
C2643 N2645 1.384 . S
N2644 C2640 1.427 . S
N2644 C2641 1.384 . S
N2645 C2637 1.427 . S
N2645 C2643 1.384 . S
H2646 C2652 0.930 . S
H2647 C2656 0.930 . S
H2648 C2661 0.929 . S
H2649 C2659 0.929 . S
H2650 C2654 0.929 . S
H2651 C2660 0.929 . S
C2652 H2646 0.930 . S
C2652 C2653 1.367 . S
C2652 C2660 1.378 . S
C2653 C2652 1.367 . S
C2653 C2661 1.433 . S
C2654 H2650 0.929 . S
C2654 C2656 1.378 . S
C2654 C2658 1.350 . S
C2655 C2658 1.463 . S
C2655 C2660 1.350 . S
C2655 N2663 1.427 . S
C2656 H2647 0.930 . S
C2656 C2654 1.378 . S
C2656 C2657 1.367 . S
C2657 C2656 1.367 . S
C2657 C2659 1.433 . S
C2658 C2654 1.350 . S
C2658 C2655 1.463 . S
C2658 N2662 1.427 . S
C2659 H2649 0.929 . S
C2659 C2657 1.433 . S
C2659 N2662 1.384 . S
C2660 H2651 0.929 . S
C2660 C2652 1.378 . S
C2660 C2655 1.350 . S
C2661 H2648 0.929 . S
C2661 C2653 1.433 . S
C2661 N2663 1.384 . S
N2662 C2658 1.427 . S
N2662 C2659 1.384 . S
N2663 C2655 1.427 . S
N2663 C2661 1.384 . S
H2664 C2670 0.930 1_565 S
H2665 C2674 0.930 . S
H2666 C2679 0.929 . S
H2667 C2677 0.929 . S
H2668 C2672 0.929 . S
H2669 C2678 0.929 1_565 S
C2670 H2664 0.930 1_545 S
C2670 C2671 1.367 . S
C2670 C2678 1.378 . S
C2671 C2670 1.367 . S
C2671 C2679 1.433 . S
C2672 H2668 0.929 . S
C2672 C2674 1.378 . S
C2672 C2676 1.350 . S
C2673 C2676 1.463 . S
C2673 C2678 1.350 . S
C2673 N2681 1.427 . S
C2674 H2665 0.930 . S
C2674 C2672 1.378 . S
C2674 C2675 1.367 . S
C2675 C2674 1.367 . S
C2675 C2677 1.433 1_545 S
C2676 C2672 1.350 . S
C2676 C2673 1.463 . S
C2676 N2680 1.395 1_545 S
C2677 H2667 0.929 . S
C2677 C2675 1.433 1_565 S
C2677 N2680 1.400 . S
C2678 H2669 0.929 1_545 S
C2678 C2670 1.378 . S
C2678 C2673 1.350 . S
C2679 H2666 0.929 . S
C2679 C2671 1.433 . S
C2679 N2681 1.384 . S
N2680 C2676 1.395 1_565 S
N2680 C2677 1.400 . S
N2681 C2673 1.427 . S
N2681 C2679 1.384 . S
H2682 C2688 0.930 . S
H2683 C2692 0.915 1_455 S
H2684 C2697 0.929 . S
H2685 C2695 0.929 . S
H2686 C2690 0.929 1_455 S
H2687 C2696 0.929 . S
C2688 H2682 0.930 . S
C2688 C2689 1.367 . S
C2688 C2696 1.378 . S
C2689 C2688 1.367 . S
C2689 C2697 1.433 . S
C2690 H2686 0.929 1_655 S
C2690 C2692 1.356 . S
C2690 C2694 1.350 . S
C2691 C2694 1.463 . S
C2691 C2696 1.350 . S
C2691 N2699 1.427 . S
C2692 H2683 0.915 1_655 S
C2692 C2690 1.356 . S
C2692 C2693 1.408 . S
C2693 C2692 1.408 . S
C2693 C2695 1.433 . S
C2694 C2690 1.350 . S
C2694 C2691 1.463 . S
C2694 N2698 1.427 . S
C2695 H2685 0.929 . S
C2695 C2693 1.433 . S
C2695 N2698 1.384 . S
C2696 H2687 0.929 . S
C2696 C2688 1.378 . S
C2696 C2691 1.350 . S
C2697 H2684 0.929 . S
C2697 C2689 1.433 . S
C2697 N2699 1.384 . S
N2698 C2694 1.427 . S
N2698 C2695 1.384 . S
N2699 C2691 1.427 . S
N2699 C2697 1.384 . S
H2700 C2706 0.930 . S
H2701 C2710 0.930 . S
H2702 C2715 0.929 . S
H2703 C2713 0.929 . S
H2704 C2708 0.929 . S
H2705 C2714 0.929 . S
C2706 H2700 0.930 . S
C2706 C2707 1.367 . S
C2706 C2714 1.378 . S
C2707 C2706 1.367 . S
C2707 C2715 1.433 . S
C2708 H2704 0.929 . S
C2708 C2710 1.378 . S
C2708 C2712 1.350 . S
C2709 C2712 1.463 . S
C2709 C2714 1.350 . S
C2709 N2717 1.427 . S
C2710 H2701 0.930 . S
C2710 C2708 1.378 . S
C2710 C2711 1.367 . S
C2711 C2710 1.367 . S
C2711 C2713 1.433 . S
C2712 C2708 1.350 . S
C2712 C2709 1.463 . S
C2712 N2716 1.427 . S
C2713 H2703 0.929 . S
C2713 C2711 1.433 . S
C2713 N2716 1.384 . S
C2714 H2705 0.929 . S
C2714 C2706 1.378 . S
C2714 C2709 1.350 . S
C2715 H2702 0.929 . S
C2715 C2707 1.433 . S
C2715 N2717 1.384 . S
N2716 C2712 1.427 . S
N2716 C2713 1.384 . S
N2717 C2709 1.427 . S
N2717 C2715 1.384 . S
H2718 C2724 0.930 . S
H2719 C2728 0.930 . S
H2720 C2733 0.929 . S
H2721 C2731 0.929 . S
H2722 C2726 0.929 . S
H2723 C2732 0.929 . S
C2724 H2718 0.930 . S
C2724 C2725 1.367 . S
C2724 C2732 1.378 . S
C2725 C2724 1.367 . S
C2725 C2733 1.433 . S
C2726 H2722 0.929 . S
C2726 C2728 1.378 . S
C2726 C2730 1.350 . S
C2727 C2730 1.463 . S
C2727 C2732 1.350 . S
C2727 N2735 1.427 . S
C2728 H2719 0.930 . S
C2728 C2726 1.378 . S
C2728 C2729 1.367 . S
C2729 C2728 1.367 . S
C2729 C2731 1.433 . S
C2730 C2726 1.350 . S
C2730 C2727 1.463 . S
C2730 N2734 1.427 . S
C2731 H2721 0.929 . S
C2731 C2729 1.433 . S
C2731 N2734 1.384 . S
C2732 H2723 0.929 . S
C2732 C2724 1.378 . S
C2732 C2727 1.350 . S
C2733 H2720 0.929 . S
C2733 C2725 1.433 . S
C2733 N2735 1.384 . S
N2734 C2730 1.427 . S
N2734 C2731 1.384 . S
N2735 C2727 1.427 . S
N2735 C2733 1.384 . S
H2736 C2742 0.930 . S
H2737 C2746 0.930 . S
H2738 C2751 0.929 . S
H2739 C2749 0.929 . S
H2740 C2744 0.929 . S
H2741 C2750 0.929 . S
C2742 H2736 0.930 . S
C2742 C2743 1.367 . S
C2742 C2750 1.378 . S
C2743 C2742 1.367 . S
C2743 C2751 1.433 . S
C2744 H2740 0.929 . S
C2744 C2746 1.378 . S
C2744 C2748 1.350 . S
C2745 C2748 1.463 . S
C2745 C2750 1.350 . S
C2745 N2753 1.427 . S
C2746 H2737 0.930 . S
C2746 C2744 1.378 . S
C2746 C2747 1.367 . S
C2747 C2746 1.367 . S
C2747 C2749 1.433 . S
C2748 C2744 1.350 . S
C2748 C2745 1.463 . S
C2748 N2752 1.427 . S
C2749 H2739 0.929 . S
C2749 C2747 1.433 . S
C2749 N2752 1.384 . S
C2750 H2741 0.929 . S
C2750 C2742 1.378 . S
C2750 C2745 1.350 . S
C2751 H2738 0.929 . S
C2751 C2743 1.433 . S
C2751 N2753 1.384 . S
N2752 C2748 1.427 . S
N2752 C2749 1.384 . S
N2753 C2745 1.427 . S
N2753 C2751 1.384 . S
H2754 C2760 0.930 . S
H2755 C2764 0.930 . S
H2756 C2769 0.929 . S
H2757 C2767 0.929 . S
H2758 C2762 0.929 . S
H2759 C2768 0.929 . S
C2760 H2754 0.930 . S
C2760 C2761 1.367 . S
C2760 C2768 1.378 . S
C2761 C2760 1.367 . S
C2761 C2769 1.433 . S
C2762 H2758 0.929 . S
C2762 C2764 1.378 . S
C2762 C2766 1.350 . S
C2763 C2766 1.463 . S
C2763 C2768 1.350 . S
C2763 N2771 1.427 . S
C2764 H2755 0.930 . S
C2764 C2762 1.378 . S
C2764 C2765 1.367 . S
C2765 C2764 1.367 . S
C2765 C2767 1.433 . S
C2766 C2762 1.350 . S
C2766 C2763 1.463 . S
C2766 N2770 1.427 . S
C2767 H2757 0.929 . S
C2767 C2765 1.433 . S
C2767 N2770 1.384 . S
C2768 H2759 0.929 . S
C2768 C2760 1.378 . S
C2768 C2763 1.350 . S
C2769 H2756 0.929 . S
C2769 C2761 1.433 . S
C2769 N2771 1.384 . S
N2770 C2766 1.427 . S
N2770 C2767 1.384 . S
N2771 C2763 1.427 . S
N2771 C2769 1.384 . S
H2772 C2778 0.930 . S
H2773 C2782 0.930 . S
H2774 C2787 0.929 . S
H2775 C2785 0.929 . S
H2776 C2780 0.929 . S
H2777 C2786 0.929 . S
C2778 H2772 0.930 . S
C2778 C2779 1.367 . S
C2778 C2786 1.378 . S
C2779 C2778 1.367 . S
C2779 C2787 1.433 . S
C2780 H2776 0.929 . S
C2780 C2782 1.378 . S
C2780 C2784 1.350 . S
C2781 C2784 1.463 . S
C2781 C2786 1.350 . S
C2781 N2789 1.427 . S
C2782 H2773 0.930 . S
C2782 C2780 1.378 . S
C2782 C2783 1.367 . S
C2783 C2782 1.367 . S
C2783 C2785 1.433 . S
C2784 C2780 1.350 . S
C2784 C2781 1.463 . S
C2784 N2788 1.427 . S
C2785 H2775 0.929 . S
C2785 C2783 1.433 . S
C2785 N2788 1.384 . S
C2786 H2777 0.929 . S
C2786 C2778 1.378 . S
C2786 C2781 1.350 . S
C2787 H2774 0.929 . S
C2787 C2779 1.433 . S
C2787 N2789 1.384 . S
N2788 C2784 1.427 . S
N2788 C2785 1.384 . S
N2789 C2781 1.427 . S
N2789 C2787 1.384 . S
H2790 C2796 0.930 . S
H2791 C2800 0.930 . S
H2792 C2805 0.929 . S
H2793 C2803 0.929 . S
H2794 C2798 0.929 . S
H2795 C2804 0.929 . S
C2796 H2790 0.930 . S
C2796 C2797 1.367 . S
C2796 C2804 1.378 . S
C2797 C2796 1.367 . S
C2797 C2805 1.433 . S
C2798 H2794 0.929 . S
C2798 C2800 1.378 . S
C2798 C2802 1.350 . S
C2799 C2802 1.463 . S
C2799 C2804 1.350 . S
C2799 N2807 1.427 . S
C2800 H2791 0.930 . S
C2800 C2798 1.378 . S
C2800 C2801 1.367 . S
C2801 C2800 1.367 . S
C2801 C2803 1.433 . S
C2802 C2798 1.350 . S
C2802 C2799 1.463 . S
C2802 N2806 1.427 . S
C2803 H2793 0.929 . S
C2803 C2801 1.433 . S
C2803 N2806 1.384 . S
C2804 H2795 0.929 . S
C2804 C2796 1.378 . S
C2804 C2799 1.350 . S
C2805 H2792 0.929 . S
C2805 C2797 1.433 . S
C2805 N2807 1.384 . S
N2806 C2802 1.427 . S
N2806 C2803 1.384 . S
N2807 C2799 1.427 . S
N2807 C2805 1.384 . S
H2808 C2814 0.930 . S
H2809 C2818 0.930 . S
H2810 C2823 0.929 . S
H2811 C2821 0.929 . S
H2812 C2816 0.929 . S
H2813 C2822 0.929 . S
C2814 H2808 0.930 . S
C2814 C2815 1.367 . S
C2814 C2822 1.378 . S
C2815 C2814 1.367 . S
C2815 C2823 1.433 . S
C2816 H2812 0.929 . S
C2816 C2818 1.378 . S
C2816 C2820 1.350 . S
C2817 C2820 1.463 . S
C2817 C2822 1.350 . S
C2817 N2825 1.427 . S
C2818 H2809 0.930 . S
C2818 C2816 1.378 . S
C2818 C2819 1.367 . S
C2819 C2818 1.367 . S
C2819 C2821 1.433 . S
C2820 C2816 1.350 . S
C2820 C2817 1.463 . S
C2820 N2824 1.427 . S
C2821 H2811 0.929 . S
C2821 C2819 1.433 . S
C2821 N2824 1.384 . S
C2822 H2813 0.929 . S
C2822 C2814 1.378 . S
C2822 C2817 1.350 . S
C2823 H2810 0.929 . S
C2823 C2815 1.433 . S
C2823 N2825 1.384 . S
N2824 C2820 1.427 . S
N2824 C2821 1.384 . S
N2825 C2817 1.427 . S
N2825 C2823 1.384 . S
H2826 C2832 0.930 . S
H2827 C2836 0.941 . S
H2828 C2841 0.929 . S
H2829 C2839 0.929 . S
H2830 C2834 0.929 . S
H2831 C2840 0.929 . S
C2832 H2826 0.930 . S
C2832 C2833 1.367 . S
C2832 C2840 1.378 . S
C2833 C2832 1.367 . S
C2833 C2841 1.433 . S
C2834 H2830 0.929 . S
C2834 C2836 1.369 1_655 S
C2834 C2838 1.350 . S
C2835 C2838 1.463 . S
C2835 C2840 1.350 . S
C2835 N2843 1.427 . S
C2836 H2827 0.941 . S
C2836 C2834 1.369 1_455 S
C2836 C2837 1.365 1_455 S
C2837 C2836 1.365 1_655 S
C2837 C2839 1.433 . S
C2838 C2834 1.350 . S
C2838 C2835 1.463 . S
C2838 N2842 1.427 . S
C2839 H2829 0.929 . S
C2839 C2837 1.433 . S
C2839 N2842 1.384 . S
C2840 H2831 0.929 . S
C2840 C2832 1.378 . S
C2840 C2835 1.350 . S
C2841 H2828 0.929 . S
C2841 C2833 1.433 . S
C2841 N2843 1.384 . S
N2842 C2838 1.427 . S
N2842 C2839 1.384 . S
N2843 C2835 1.427 . S
N2843 C2841 1.384 . S
H2844 C2850 0.930 . S
H2845 C2854 0.930 . S
H2846 C2859 0.929 . S
H2847 C2857 0.929 . S
H2848 C2852 0.929 . S
H2849 C2858 0.929 . S
C2850 H2844 0.930 . S
C2850 C2851 1.367 . S
C2850 C2858 1.378 . S
C2851 C2850 1.367 . S
C2851 C2859 1.433 . S
C2852 H2848 0.929 . S
C2852 C2854 1.378 . S
C2852 C2856 1.350 . S
C2853 C2856 1.463 . S
C2853 C2858 1.350 . S
C2853 N2861 1.427 . S
C2854 H2845 0.930 . S
C2854 C2852 1.378 . S
C2854 C2855 1.367 . S
C2855 C2854 1.367 . S
C2855 C2857 1.433 . S
C2856 C2852 1.350 . S
C2856 C2853 1.463 . S
C2856 N2860 1.427 . S
C2857 H2847 0.929 . S
C2857 C2855 1.433 . S
C2857 N2860 1.384 . S
C2858 H2849 0.929 . S
C2858 C2850 1.378 . S
C2858 C2853 1.350 . S
C2859 H2846 0.929 . S
C2859 C2851 1.433 . S
C2859 N2861 1.384 . S
N2860 C2856 1.427 . S
N2860 C2857 1.384 . S
N2861 C2853 1.427 . S
N2861 C2859 1.384 . S
H2862 C2868 0.930 . S
H2863 C2872 0.930 . S
H2864 C2877 0.929 . S
H2865 C2875 0.929 . S
H2866 C2870 0.929 . S
H2867 C2876 0.929 . S
C2868 H2862 0.930 . S
C2868 C2869 1.367 . S
C2868 C2876 1.378 . S
C2869 C2868 1.367 . S
C2869 C2877 1.433 . S
C2870 H2866 0.929 . S
C2870 C2872 1.378 . S
C2870 C2874 1.350 1_565 S
C2871 C2874 1.463 . S
C2871 C2876 1.350 . S
C2871 N2879 1.427 . S
C2872 H2863 0.930 . S
C2872 C2870 1.378 . S
C2872 C2873 1.367 1_565 S
C2873 C2872 1.367 1_545 S
C2873 C2875 1.433 . S
C2874 C2870 1.350 1_545 S
C2874 C2871 1.463 . S
C2874 N2878 1.427 . S
C2875 H2865 0.929 . S
C2875 C2873 1.433 . S
C2875 N2878 1.384 . S
C2876 H2867 0.929 . S
C2876 C2868 1.378 . S
C2876 C2871 1.350 . S
C2877 H2864 0.929 . S
C2877 C2869 1.433 . S
C2877 N2879 1.384 . S
N2878 C2874 1.427 . S
N2878 C2875 1.384 . S
N2879 C2871 1.427 . S
N2879 C2877 1.384 . S
C1591 C8 1.209 1_655 S
C1595 C981 1.146 . S
C1609 C22 1.588 . S
C1613 C1061 1.561 . S
C1631 C1129 1.380 . S
C1627 C37 1.418 1_545 S
C1645 C36 1.735 1_565 S
C1649 C1209 1.763 . S
C1663 C9 1.501 1_455 S
C1667 C1283 1.502 . S
C1681 C23 1.628 . S
C1685 C1351 1.561 . S
C1699 C50 1.101 1_455 S
C1703 C1277 1.067 . S
C1721 C1357 1.485 . S
C1717 C64 1.451 . S
C1739 C1203 1.349 . S
C1735 C79 1.344 1_565 S
C1753 C78 1.685 . S
C1757 C1135 1.731 . S
C1775 C987 1.472 . S
C1771 C51 1.431 1_655 S
C1789 C65 1.453 . S
C1793 C1055 1.451 . S
C1807 C92 1.407 . S
C1811 C1425 1.305 . S
C1825 C106 1.631 . S
C1829 C1505 1.594 . S
C1847 C1573 1.527 . S
C1843 C121 1.596 . S
C1861 C120 1.887 . S
C1865 C321 1.859 . S
C1879 C93 1.652 . S
C1883 C395 1.616 . S
C1897 C107 1.652 . S
C1901 C463 1.574 . S
C1915 C134 1.133 . S
C1919 C389 1.094 . S
C1933 C148 1.488 . S
C1937 C469 1.516 . S
C1955 C315 1.408 . S
C1951 C163 1.418 . S
C1973 C1579 1.859 . S
C1969 C162 1.829 . S
C1991 C1431 1.520 . S
C1987 C135 1.507 . S
C2009 C1499 1.501 . S
C2005 C149 1.509 . S
C2023 C176 1.319 . S
C2027 C537 1.210 . S
C2041 C190 1.635 . S
C2045 C617 1.600 . S
C2059 C205 1.588 . S
C2063 C685 1.531 . S
C2077 C204 1.960 . S
C2081 C765 1.942 . S
C2099 C839 1.616 . S
C2095 C177 1.649 . S
C2117 C907 1.606 . S
C2113 C191 1.697 . S
C2135 C833 1.178 . S
C2131 C218 1.223 . S
C2153 C913 1.509 . S
C2149 C232 1.490 . S
C2167 C247 1.405 . S
C2171 C759 1.406 . S
C2189 C691 1.780 . S
C2185 C246 1.738 . S
C2203 C219 1.518 . S
C2207 C543 1.531 . S
C2225 C611 1.459 . S
C2221 C233 1.463 . S
C2243 C291 1.922 . S
C2239 C6 1.961 . S
C2257 C20 1.442 . S
C2261 C365 1.450 . S
C2279 C451 1.475 . S
C2275 C35 1.470 . S
C2297 C525 1.192 . S
C2293 C34 1.182 . S
C2315 C587 1.581 . S
C2311 C7 1.599 . S
C2333 C673 1.524 . S
C2329 C21 1.524 . S
C2347 C48 2.111 1_556 S
C2351 C661 2.004 . S
C2365 C62 1.601 . S
C2369 C513 1.541 . S
C2383 C77 1.663 . S
C2387 C599 1.612 . S
C2401 C76 1.392 . S
C2405 C377 1.338 . S
C2423 C439 1.685 . S
C2419 C49 1.768 . S
C2437 C63 1.715 . S
C2441 C303 1.663 . S
C2459 C735 1.899 . S
C2455 C90 1.929 . S
C2473 C104 1.523 1_545 S
C2477 C809 1.545 . S
C2491 C119 1.479 1_655 S
C2495 C895 1.492 . S
C2513 C969 1.117 . S
C2509 C118 1.097 . S
C2527 C91 1.556 . S
C2531 C1031 1.559 . S
C2545 C105 1.456 . S
C2549 C1117 1.479 . S
C2563 C132 1.918 . S
C2567 C1105 1.857 . S
C2581 C146 1.478 . S
C2585 C957 1.468 . S
C2603 C1043 1.571 . S
C2599 C161 1.606 . S
C2617 C160 1.381 . S
C2621 C821 1.346 . S
C2635 C133 1.776 . S
C2639 C883 1.723 . S
C2657 C747 1.730 . S
C2653 C147 1.769 . S
C2675 C1179 1.831 . S
C2671 C174 1.848 . S
C2689 C188 1.393 . S
C2693 C1253 1.411 . S
C2707 C203 1.439 . S
C2711 C1339 1.448 . S
C2729 C1413 1.191 . S
C2725 C202 1.183 . S
C2747 C1475 1.622 . S
C2743 C175 1.620 . S
C2761 C189 1.584 . S
C2765 C1561 1.593 . S
C2779 C216 2.080 . S
C2783 C1549 1.979 . S
C2797 C230 1.682 1_565 S
C2801 C1401 1.632 . S
C2819 C1487 1.620 . S
C2815 C245 1.659 1_455 S
C2837 C1265 1.190 . S
C2833 C244 1.191 . S
C2855 C1327 1.647 . S
C2851 C217 1.719 . S
C2869 C231 1.541 . S
C2873 C1191 1.544 . S
