# Generated by pormake.
# Topology dag, (6,3)-cn, num edge types: 1
# Building blocks:
#     Node 0, Type 0, BuildingBlock: IZENUY_clean_sbu_0, # of connection points: 6
#     Node 1, Type 0, BuildingBlock: IZENUY_clean_sbu_0, # of connection points: 6
#     Node 2, Type 0, BuildingBlock: IZENUY_clean_sbu_0, # of connection points: 6
#     Node 3, Type 0, BuildingBlock: IZENUY_clean_sbu_0, # of connection points: 6
#     Node 4, Type 1, BuildingBlock: MIDCAF_clean_linker_0, # of connection points: 3
#     Node 5, Type 1, BuildingBlock: MIDCAF_clean_linker_0, # of connection points: 3
#     Node 6, Type 1, BuildingBlock: MIDCAF_clean_linker_0, # of connection points: 3
#     Node 7, Type 1, BuildingBlock: MIDCAF_clean_linker_0, # of connection points: 3
#     Node 8, Type 1, BuildingBlock: MIDCAF_clean_linker_0, # of connection points: 3
#     Node 9, Type 1, BuildingBlock: MIDCAF_clean_linker_0, # of connection points: 3
#     Node 10, Type 1, BuildingBlock: MIDCAF_clean_linker_0, # of connection points: 3
#     Node 11, Type 1, BuildingBlock: MIDCAF_clean_linker_0, # of connection points: 3
#     Edge 12, Type (0, 1), BuildingBlock: EZIPEK_clean_linker_0, # of connection points: 2
#     Edge 13, Type (0, 1), BuildingBlock: EZIPEK_clean_linker_0, # of connection points: 2
#     Edge 14, Type (0, 1), BuildingBlock: EZIPEK_clean_linker_0, # of connection points: 2
#     Edge 15, Type (0, 1), BuildingBlock: EZIPEK_clean_linker_0, # of connection points: 2
#     Edge 16, Type (0, 1), BuildingBlock: EZIPEK_clean_linker_0, # of connection points: 2
#     Edge 17, Type (0, 1), BuildingBlock: EZIPEK_clean_linker_0, # of connection points: 2
#     Edge 18, Type (0, 1), BuildingBlock: EZIPEK_clean_linker_0, # of connection points: 2
#     Edge 19, Type (0, 1), BuildingBlock: EZIPEK_clean_linker_0, # of connection points: 2
#     Edge 20, Type (0, 1), BuildingBlock: EZIPEK_clean_linker_0, # of connection points: 2
#     Edge 21, Type (0, 1), BuildingBlock: EZIPEK_clean_linker_0, # of connection points: 2
#     Edge 22, Type (0, 1), BuildingBlock: EZIPEK_clean_linker_0, # of connection points: 2
#     Edge 23, Type (0, 1), BuildingBlock: EZIPEK_clean_linker_0, # of connection points: 2
#     Edge 24, Type (0, 1), BuildingBlock: EZIPEK_clean_linker_0, # of connection points: 2
#     Edge 25, Type (0, 1), BuildingBlock: EZIPEK_clean_linker_0, # of connection points: 2
#     Edge 26, Type (0, 1), BuildingBlock: EZIPEK_clean_linker_0, # of connection points: 2
#     Edge 27, Type (0, 1), BuildingBlock: EZIPEK_clean_linker_0, # of connection points: 2
#     Edge 28, Type (0, 1), BuildingBlock: EZIPEK_clean_linker_0, # of connection points: 2
#     Edge 29, Type (0, 1), BuildingBlock: EZIPEK_clean_linker_0, # of connection points: 2
#     Edge 30, Type (0, 1), BuildingBlock: EZIPEK_clean_linker_0, # of connection points: 2
#     Edge 31, Type (0, 1), BuildingBlock: EZIPEK_clean_linker_0, # of connection points: 2
#     Edge 32, Type (0, 1), BuildingBlock: EZIPEK_clean_linker_0, # of connection points: 2
#     Edge 33, Type (0, 1), BuildingBlock: EZIPEK_clean_linker_0, # of connection points: 2
#     Edge 34, Type (0, 1), BuildingBlock: EZIPEK_clean_linker_0, # of connection points: 2
#     Edge 35, Type (0, 1), BuildingBlock: EZIPEK_clean_linker_0, # of connection points: 2
# Relax obj value: 0.260
# Max RMSD: 0.197
# Mean RMSD: 0.161
data_MOF--net-dag--node1-IZENUY_clean_sbu_0--node2-MIDCAF_clean_linker_0--edge1-EZIPEK_clean_linker_0
_symmetry_space_group_name_H-M    P1
_symmetry_Int_Tables_number       1
_symmetry_cell_setting            triclinic
loop_
_symmetry_equiv_pos_as_xyz
'x, y, z'
_cell_length_a     36.374176
_cell_length_b     37.706454
_cell_length_c     31.943668
_cell_angle_alpha  94.945622
_cell_angle_beta   90.197795
_cell_angle_gamma 90.072514
loop_
_atom_site_label
_atom_site_type_symbol
_atom_site_fract_x
_atom_site_fract_y
_atom_site_fract_z
_atom_type_partial_charge
Fe0 Fe 0.21528 0.83081 0.0785 0.0
Fe1 Fe 0.14161 0.84559 0.03708 0.0
O2 O 0.17539 0.81506 0.05053 0.0
Fe3 Fe 0.16937 0.76891 0.03576 0.0
O4 O 0.17074 0.75876 0.09007 0.0
O5 O 0.22012 0.7908 0.10725 0.0
O6 O 0.18846 0.84973 0.1226 0.0
C7 C 0.16319 0.87209 0.1194 0.0
C8 C 0.24536 0.78064 0.02249 0.0
O9 O 0.14854 0.87645 0.08427 0.0
C10 C 0.14538 0.79693 0.96479 0.0
O11 O 0.21698 0.87408 0.05516 0.0
O12 O 0.17418 0.86867 0.00664 0.0
O13 O 0.21882 0.75997 0.02876 0.0
O14 O 0.24498 0.81293 0.03645 0.0
C15 C 0.09787 0.79216 0.06018 0.0
O16 O 0.12836 0.82036 0.98782 0.0
O17 O 0.16763 0.77601 0.98022 0.0
C18 C 0.20183 0.88464 0.02263 0.0
O19 O 0.10701 0.82434 0.0664 0.0
O20 O 0.11865 0.7696 0.04034 0.0
C21 C 0.19662 0.76746 0.11515 0.0
Fe22 Fe 0.71715 0.66329 0.47871 0.0
Fe23 Fe 0.66644 0.723 0.51676 0.0
O24 O 0.675 0.67703 0.503 0.0
Fe25 Fe 0.64151 0.64486 0.51318 0.0
O26 O 0.67502 0.61066 0.52448 0.0
O27 O 0.72923 0.63642 0.52116 0.0
O28 O 0.74462 0.69935 0.50586 0.0
C29 C 0.73849 0.71883 0.53936 0.0
C30 C 0.66501 0.61755 0.4359 0.0
O31 O 0.70621 0.72644 0.5511 0.0
C32 C 0.59943 0.7016 0.48521 0.0
O33 O 0.7077 0.68903 0.43468 0.0
O34 O 0.69265 0.73842 0.47235 0.0
O35 O 0.63844 0.62883 0.45828 0.0
O36 O 0.69782 0.62459 0.44691 0.0
C37 C 0.63553 0.68943 0.58491 0.0
O38 O 0.62606 0.72273 0.48343 0.0
O39 O 0.60215 0.67329 0.50355 0.0
C40 C 0.70246 0.72217 0.43776 0.0
O41 O 0.63846 0.71607 0.56354 0.0
O42 O 0.64184 0.65842 0.56884 0.0
C43 C 0.709 0.61215 0.53321 0.0
Fe44 Fe 0.83097 0.23267 0.02562 0.0
Fe45 Fe 0.84863 0.15404 0.03337 0.0
O46 O 0.82003 0.18681 0.01335 0.0
Fe47 Fe 0.78099 0.17412 0.98168 0.0
O48 O 0.79675 0.19936 0.93923 0.0
O49 O 0.81293 0.24815 0.97707 0.0
O50 O 0.87518 0.22744 -0.00048 0.0
C51 C 0.89918 0.20525 0.00867 0.0
C52 C 0.75599 0.23255 0.03666 0.0
O53 O 0.89128 0.1799 0.03056 0.0
C54 C 0.77733 0.12361 0.03849 0.0
O55 O 0.85153 0.22659 0.07716 0.0
O56 O 0.83982 0.17132 0.08711 0.0
O57 O 0.75226 0.21082 0.00434 0.0
O58 O 0.78737 0.24067 0.05187 0.0
C59 C 0.83607 0.12362 0.95328 0.0
O60 O 0.81189 0.12205 0.03955 0.0
O61 O 0.76094 0.14754 0.02069 0.0
C62 C 0.84698 0.20262 0.10195 0.0
O63 O 0.85918 0.13383 0.98132 0.0
O64 O 0.80323 0.1349 0.95431 0.0
C65 C 0.80438 0.23208 0.94223 0.0
Fe66 Fe 0.35874 0.34897 0.55148 0.0
Fe67 Fe 0.28207 0.33235 0.58462 0.0
O68 O 0.3251 0.31746 0.5634 0.0
Fe69 Fe 0.33453 0.27115 0.55411 0.0
O70 O 0.37415 0.27415 0.58883 0.0
O71 O 0.39818 0.32146 0.56376 0.0
O72 O 0.36062 0.36772 0.60541 0.0
C73 C 0.33344 0.37986 0.62622 0.0
C74 C 0.36603 0.30067 0.48347 0.0
O75 O 0.30083 0.37241 0.61448 0.0
C76 C 0.26317 0.27339 0.52745 0.0
O77 O 0.32567 0.38247 0.53699 0.0
O78 O 0.27161 0.35659 0.53941 0.0
O79 O 0.36328 0.27552 0.50721 0.0
O80 O 0.35915 0.33233 0.4968 0.0
C81 C 0.29664 0.27699 0.63198 0.0
O82 O 0.25557 0.295 0.55876 0.0
O83 O 0.2958 0.2647 0.51863 0.0
C84 C 0.29209 0.38033 0.5267 0.0
O85 O 0.28932 0.30952 0.63135 0.0
O86 O 0.30761 0.25851 0.59939 0.0
C87 C 0.40091 0.29478 0.58497 0.0
C88 C 0.95431 0.14554 0.21773 0.0
C89 C 0.9399 0.1783 0.23381 0.0
C90 C 0.95408 0.19502 0.27141 0.0
C91 C 0.98323 0.17945 0.292 0.0
H92 H 0.06731 0.20068 0.3819 0.0
H93 H 0.10879 0.23653 0.42919 0.0
H94 H 0.18896 0.15221 0.41845 0.0
H95 H 0.14795 0.11604 0.37178 0.0
H96 H 0.12863 0.04206 0.32304 0.0
H97 H 0.15313 0.98702 0.28723 0.0
H98 H 0.06689 0.98741 0.19442 0.0
H99 H 0.04186 0.04181 0.22987 0.0
H100 H 0.99361 0.1047 0.22461 0.0
H101 H 0.94347 0.13219 0.18888 0.0
H102 H 0.94291 0.2202 0.2844 0.0
H103 H 0.99411 0.19305 0.32064 0.0
N104 N 0.05004 0.14901 0.32597 0.0
N105 N 0.09079 0.10084 0.32758 0.0
N106 N 0.04051 0.09696 0.28167 0.0
C107 C 0.08059 0.13434 0.34213 0.0
C108 C 0.07077 0.08192 0.29747 0.0
C109 C 0.02982 0.13033 0.29569 0.0
C110 C 0.10429 0.15548 0.37283 0.0
C111 C 0.09365 0.18963 0.38977 0.0
C112 C 0.11726 0.21018 0.41673 0.0
C113 C 0.1519 0.197 0.42687 0.0
C114 C 0.16232 0.16278 0.41075 0.0
C115 C 0.13874 0.14216 0.38412 0.0
C116 C 0.0835 0.04666 0.2791 0.0
C117 C 0.11457 0.03021 0.29534 0.0
C118 C 0.12858 0.99877 0.27505 0.0
C119 C 0.11194 0.98356 0.23807 0.0
C120 C 0.08011 0.99895 0.22286 0.0
C121 C 0.06591 0.03011 0.24323 0.0
C122 C 0.99807 0.14671 0.27554 0.0
C123 C 0.98296 0.12985 0.23837 0.0
C124 C 0.42349 0.49398 0.74328 0.0
C125 C 0.38688 0.48555 0.75156 0.0
C126 C 0.36809 0.5049 0.78422 0.0
C127 C 0.3852 0.53375 0.80692 0.0
H128 H 0.35953 0.62093 0.88108 0.0
H129 H 0.31956 0.66173 0.92294 0.0
H130 H 0.40798 0.73776 0.94048 0.0
H131 H 0.44858 0.6972 0.89792 0.0
H132 H 0.51162 0.69032 0.82325 0.0
H133 H 0.55557 0.71565 0.77588 0.0
H134 H 0.57012 0.61226 0.7095 0.0
H135 H 0.52727 0.58651 0.75669 0.0
H136 H 0.46852 0.52933 0.75766 0.0
H137 H 0.43829 0.47919 0.7181 0.0
H138 H 0.33974 0.49865 0.79084 0.0
H139 H 0.36952 0.54915 0.83082 0.0
N140 N 0.41803 0.59892 0.84422 0.0
N141 N 0.46296 0.64355 0.84279 0.0
N142 N 0.46965 0.58954 0.80139 0.0
C143 C 0.43065 0.63182 0.85802 0.0
C144 C 0.48277 0.62237 0.81457 0.0
C145 C 0.43743 0.57751 0.81608 0.0
C146 C 0.40736 0.65578 0.88595 0.0
C147 C 0.37079 0.64618 0.89392 0.0
C148 C 0.34777 0.66947 0.91772 0.0
C149 C 0.36087 0.70267 0.93436 0.0
C150 C 0.39751 0.71221 0.92757 0.0
C151 C 0.42058 0.68899 0.90332 0.0
C152 C 0.51511 0.63651 0.79315 0.0
C153 C 0.52496 0.67275 0.79938 0.0
C154 C 0.55016 0.6873 0.77249 0.0
C155 C 0.56544 0.66583 0.73892 0.0
C156 C 0.55828 0.62922 0.73508 0.0
C157 C 0.53355 0.61463 0.76205 0.0
C158 C 0.42133 0.54368 0.79713 0.0
C159 C 0.44063 0.52272 0.76592 0.0
C160 C 0.72737 0.80506 0.26334 0.0
C161 C 0.74812 0.80283 0.30023 0.0
C162 C 0.78293 0.81893 0.30373 0.0
C163 C 0.79765 0.83527 0.27004 0.0
H164 H 0.87324 0.78416 0.16335 0.0
H165 H 0.93313 0.75968 0.1409 0.0
H166 H 0.9572 0.85547 0.08163 0.0
H167 H 0.89737 0.87994 0.10309 0.0
H168 H 0.83605 0.93553 0.09601 0.0
H169 H 0.81634 0.99166 0.07111 0.0
H170 H 0.71209 0.98304 0.13317 0.0
H171 H 0.7318 0.92659 0.15921 0.0
H172 H 0.72584 0.82321 0.20134 0.0
H173 H 0.70052 0.79266 0.26007 0.0
H174 H 0.79929 0.81754 0.33195 0.0
H175 H 0.82518 0.84628 0.27275 0.0
N176 N 0.82702 0.83618 0.18212 0.0
N177 N 0.83112 0.87859 0.13305 0.0
N178 N 0.78076 0.87935 0.1789 0.0
C179 C 0.84513 0.84971 0.15007 0.0
C180 C 0.79897 0.89356 0.14714 0.0
C181 C 0.79488 0.85073 0.19645 0.0
C182 C 0.8806 0.83413 0.13521 0.0
C183 C 0.89123 0.8 0.14542 0.0
C184 C 0.92534 0.78591 0.13262 0.0
C185 C 0.94959 0.80599 0.11011 0.0
C186 C 0.93884 0.83972 0.09924 0.0
C187 C 0.90461 0.85361 0.11148 0.0
C188 C 0.78561 0.92653 0.12991 0.0
C189 C 0.80882 0.94526 0.10437 0.0
C190 C 0.79766 0.97747 0.09013 0.0
C191 C 0.76301 0.99162 0.10078 0.0
C192 C 0.73912 0.97262 0.12507 0.0
C193 C 0.75045 0.94042 0.13984 0.0
C194 C 0.77733 0.83679 0.23288 0.0
C195 C 0.74174 0.82243 0.22999 0.0
C196 C 0.78785 0.3198 0.7685 0.0
C197 C 0.7755 0.2883 0.78418 0.0
C198 C 0.74805 0.26803 0.76262 0.0
C199 C 0.7315 0.28013 0.7271 0.0
H200 H 0.62935 0.27547 0.67678 0.0
H201 H 0.56447 0.25873 0.66856 0.0
H202 H 0.55118 0.33354 0.57504 0.0
H203 H 0.61575 0.35065 0.58282 0.0
H204 H 0.67704 0.40677 0.57142 0.0
H205 H 0.68807 0.46679 0.55149 0.0
H206 H 0.77498 0.48108 0.64342 0.0
H207 H 0.7642 0.42066 0.66402 0.0
H208 H 0.78023 0.35719 0.72247 0.0
H209 H 0.809 0.33575 0.78503 0.0
H210 H 0.73826 0.24366 0.77446 0.0
H211 H 0.70941 0.26445 0.71207 0.0
N212 N 0.68736 0.31348 0.66749 0.0
N213 N 0.6767 0.35891 0.62361 0.0
N214 N 0.73112 0.35881 0.6632 0.0
C215 C 0.66539 0.32861 0.63968 0.0
C216 C 0.7095 0.37416 0.63499 0.0
C217 C 0.72035 0.32817 0.67922 0.0
C218 C 0.62776 0.31472 0.63075 0.0
C219 C 0.61286 0.288 0.65392 0.0
C220 C 0.57583 0.27834 0.64935 0.0
C221 C 0.55329 0.29508 0.62138 0.0
C222 C 0.56835 0.32044 0.5968 0.0
C223 C 0.60525 0.33018 0.60139 0.0
C224 C 0.71947 0.40893 0.61969 0.0
C225 C 0.69878 0.42238 0.58729 0.0
C226 C 0.70505 0.45667 0.57573 0.0
C227 C 0.73206 0.47826 0.59627 0.0
C228 C 0.75394 0.46466 0.62738 0.0
C229 C 0.74774 0.43016 0.63898 0.0
C230 C 0.74207 0.31284 0.71259 0.0
C231 C 0.7713 0.33198 0.73284 0.0
C232 C 0.44498 0.36131 0.33893 0.0
C233 C 0.43811 0.32472 0.33261 0.0
C234 C 0.45276 0.3051 0.29724 0.0
C235 C 0.47628 0.3216 0.27015 0.0
H236 H 0.56043 0.29729 0.18539 0.0
H237 H 0.60408 0.26105 0.14195 0.0
H238 H 0.66029 0.35602 0.11127 0.0
H239 H 0.61708 0.39256 0.1544 0.0
H240 H 0.61734 0.45743 0.22452 0.0
H241 H 0.64795 0.50808 0.26322 0.0
H242 H 0.55876 0.51686 0.35188 0.0
H243 H 0.52773 0.46656 0.31368 0.0
H244 H 0.47381 0.40594 0.31873 0.0
H245 H 0.43366 0.37684 0.36598 0.0
H246 H 0.44756 0.27677 0.29194 0.0
H247 H 0.48868 0.30553 0.24425 0.0
N248 N 0.53329 0.3553 0.22317 0.0
N249 N 0.57338 0.40343 0.21726 0.0
N250 N 0.52582 0.40823 0.2664 0.0
C251 C 0.56258 0.36974 0.20433 0.0
C252 C 0.55513 0.42292 0.24821 0.0
C253 C 0.5145 0.3746 0.25402 0.0
C254 C 0.58544 0.34786 0.17374 0.0
C255 C 0.58167 0.31056 0.16888 0.0
C256 C 0.60658 0.28978 0.1442 0.0
C257 C 0.63538 0.30601 0.12387 0.0
C258 C 0.63822 0.34317 0.12696 0.0
C259 C 0.6135 0.36394 0.15169 0.0
C260 C 0.57028 0.45746 0.26633 0.0
C261 C 0.60374 0.47057 0.25168 0.0
C262 C 0.62129 0.49956 0.27362 0.0
C263 C 0.60559 0.51586 0.31037 0.0
C264 C 0.57117 0.50447 0.3235 0.0
C265 C 0.55356 0.47563 0.30161 0.0
C266 C 0.48516 0.35798 0.27799 0.0
C267 C 0.4681 0.37784 0.31185 0.0
C268 C 0.27239 0.18589 0.79999 0.0
C269 C 0.25864 0.21788 0.78698 0.0
C270 C 0.23239 0.2371 0.8116 0.0
C271 C 0.2191 0.22394 0.84816 0.0
H272 H 0.12778 0.23274 0.92438 0.0
H273 H 0.06321 0.24697 0.93973 0.0
H274 H 0.05505 0.15586 0.0118 0.0
H275 H 0.1194 0.1415 0.99731 0.0
H276 H 0.20523 0.10649 0.02157 0.0
H277 H 0.2131 0.04516 0.03892 0.0
H278 H 0.25834 0.01677 0.91607 0.0
H279 H 0.25122 0.0785 0.89861 0.0
H280 H 0.26977 0.14757 0.84553 0.0
H281 H 0.29262 0.17074 0.78118 0.0
H282 H 0.22154 0.26187 0.80191 0.0
H283 H 0.19826 0.23906 0.86601 0.0
N284 N 0.18323 0.18931 0.91383 0.0
N285 N 0.18158 0.14495 0.96067 0.0
N286 N 0.23004 0.1464 0.91261 0.0
C287 C 0.16613 0.17397 0.94542 0.0
C288 C 0.21356 0.13115 0.94469 0.0
C289 C 0.21528 0.17587 0.89743 0.0
C290 C 0.12882 0.18574 0.95925 0.0
C291 C 0.11249 0.216 0.94405 0.0
C292 C 0.07563 0.22425 0.95278 0.0
C293 C 0.0545 0.20222 0.97652 0.0
C294 C 0.07103 0.17302 0.99328 0.0
C295 C 0.10787 0.16494 0.98494 0.0
C296 C 0.22703 0.09709 0.9585 0.0
C297 C 0.21803 0.08751 0.99874 0.0
C298 C 0.22279 0.05257 0.00884 0.0
C299 C 0.23617 0.02655 0.9787 0.0
C300 C 0.24832 0.03663 0.93981 0.0
C301 C 0.24406 0.07186 0.92988 0.0
C302 C 0.23195 0.19133 0.86084 0.0
C303 C 0.25929 0.17277 0.83677 0.0
C304 C 0.26022 0.72182 0.28864 0.0
C305 C 0.23421 0.70145 0.26483 0.0
C306 C 0.22329 0.66829 0.27736 0.0
C307 C 0.23943 0.65504 0.31265 0.0
H308 H 0.24301 0.56685 0.38419 0.0
H309 H 0.23092 0.50702 0.40599 0.0
H310 H 0.31427 0.52294 0.50198 0.0
H311 H 0.32655 0.58232 0.48092 0.0
H312 H 0.38602 0.64078 0.47529 0.0
H313 H 0.44927 0.66054 0.48863 0.0
H314 H 0.43904 0.73511 0.39438 0.0
H315 H 0.37554 0.71579 0.38066 0.0
H316 H 0.29703 0.72478 0.34087 0.0
H317 H 0.26876 0.74753 0.27935 0.0
H318 H 0.20311 0.65235 0.25917 0.0
H319 H 0.23138 0.6289 0.32099 0.0
N320 N 0.27616 0.62866 0.3853 0.0
N321 N 0.32794 0.63035 0.42944 0.0
N322 N 0.31883 0.67534 0.38459 0.0
C323 C 0.29637 0.61405 0.41534 0.0
C324 C 0.33939 0.66098 0.41425 0.0
C325 C 0.28714 0.65958 0.37009 0.0
C326 C 0.28602 0.57934 0.43053 0.0
C327 C 0.25846 0.5578 0.41027 0.0
C328 C 0.25151 0.52365 0.42257 0.0
C329 C 0.27196 0.51071 0.45529 0.0
C330 C 0.29838 0.53255 0.47652 0.0
C331 C 0.30538 0.56649 0.4643 0.0
C332 C 0.37575 0.67638 0.42655 0.0
C333 C 0.39687 0.66179 0.45779 0.0
C334 C 0.43298 0.67309 0.46559 0.0
C335 C 0.44856 0.69912 0.44237 0.0
C336 C 0.42722 0.71504 0.41261 0.0
C337 C 0.39099 0.70387 0.40486 0.0
C338 C 0.26677 0.67478 0.33566 0.0
C339 C 0.27637 0.70865 0.32373 0.0
C340 C 0.9231 0.00086 0.83828 0.0
C341 C 0.88662 0.01125 0.83261 0.0
C342 C 0.86462 0.99216 0.80235 0.0
C343 C 0.87855 0.96188 0.77933 0.0
H344 H 0.85151 0.88035 0.69066 0.0
H345 H 0.81103 0.84265 0.6447 0.0
H346 H 0.89092 0.75815 0.64012 0.0
H347 H 0.93185 0.79547 0.68624 0.0
H348 H 0.00902 0.80797 0.73794 0.0
H349 H 0.06029 0.78036 0.77363 0.0
H350 H 0.05742 0.86573 0.87242 0.0
H351 H 0.00748 0.89378 0.8371 0.0
H352 H 0.96501 0.9628 0.82155 0.0
H353 H 0.94036 0.01533 0.86164 0.0
H354 H 0.83629 -0.00017 0.79784 0.0
H355 H 0.86054 0.94685 0.75729 0.0
N356 N 0.90749 0.896 0.7377 0.0
N357 N 0.95052 0.84951 0.73663 0.0
N358 N 0.95968 0.90164 0.78077 0.0
C359 C 0.91866 0.86301 0.72224 0.0
C360 C 0.9712 0.86876 0.7659 0.0
C361 C 0.92804 0.91559 0.76682 0.0
C362 C 0.89498 0.84096 0.69237 0.0
C363 C 0.86071 0.85384 0.67983 0.0
C364 C 0.83746 0.83237 0.65362 0.0
C365 C 0.84802 0.7977 0.63944 0.0
C366 C 0.88237 0.78486 0.65106 0.0
C367 C 0.90568 0.80629 0.67735 0.0
C368 C 0.00395 0.853 0.78477 0.0
C369 C 0.01959 0.82099 0.76707 0.0
C370 C 0.04879 0.80517 0.78733 0.0
C371 C 0.0621 0.8208 0.82589 0.0
C372 C 0.04727 0.85316 0.84282 0.0
C373 C 0.01869 0.86918 0.82245 0.0
C374 C 0.91462 0.95023 0.78648 0.0
C375 C 0.93703 0.97069 0.8154 0.0
C376 C 0.12164 0.89254 0.17901 0.0
C377 C 0.15405 0.89749 0.15565 0.0
C378 C 0.16078 0.958 0.18909 0.0
C379 C 0.12882 0.95282 0.21322 0.0
N380 N 0.08364 0.91316 0.23848 0.0
N381 N 0.20946 0.93093 0.14586 0.0
C382 C 0.1108 0.91934 0.21054 0.0
C383 C 0.17535 0.92889 0.16329 0.0
N384 N 0.10064 0.86277 0.1701 0.0
N385 N 0.17595 0.99119 0.18877 0.0
H386 H 0.22105 0.91006 0.12691 0.0
H387 H 0.22771 0.9518 0.15354 0.0
H388 H 0.16613 0.01342 0.20698 0.0
H389 H 0.19643 0.99741 0.16789 0.0
H390 H 0.0745 0.85946 0.18234 0.0
H391 H 0.10865 0.84206 0.14839 0.0
H392 H 0.0717 0.88829 0.24074 0.0
H393 H 0.07529 0.93231 0.26206 0.0
C394 C 0.57949 0.69545 0.63061 0.0
C395 C 0.61833 0.69322 0.62708 0.0
C396 C 0.62322 0.68041 0.70085 0.0
C397 C 0.58436 0.68154 0.70384 0.0
N398 N 0.52602 0.69881 0.67575 0.0
N399 N 0.67749 0.69347 0.66069 0.0
C400 C 0.56274 0.69228 0.67015 0.0
C401 C 0.64033 0.68894 0.66297 0.0
N402 N 0.5584 0.69825 0.59562 0.0
N403 N 0.64351 0.66995 0.73367 0.0
H404 H 0.69015 0.70066 0.63342 0.0
H405 H 0.69516 0.69338 0.68638 0.0
H406 H 0.63175 0.66517 0.76242 0.0
H407 H 0.67154 0.6645 0.73188 0.0
H408 H 0.52997 0.695 0.59478 0.0
H409 H 0.56962 0.70183 0.56649 0.0
H410 H 0.50965 0.7105 0.65396 0.0
H411 H 0.51232 0.69539 0.70371 0.0
C412 C 0.75201 0.06216 0.02536 0.0
C413 C 0.75692 0.09313 0.05318 0.0
C414 C 0.75414 0.05794 0.11373 0.0
C415 C 0.75271 0.0265 0.08585 0.0
N416 N 0.73867 0.99876 0.01701 0.0
N417 N 0.74795 0.12233 0.12178 0.0
C418 C 0.7475 0.02874 0.04215 0.0
C419 C 0.75283 0.09153 0.09683 0.0
N420 N 0.7536 0.06464 0.98302 0.0
N421 N 0.75939 0.05579 0.1558 0.0
H422 H 0.74608 0.14684 0.10901 0.0
H423 H 0.74197 0.12315 0.15371 0.0
H424 H 0.76031 0.03169 0.16947 0.0
H425 H 0.76496 0.07783 0.17681 0.0
H426 H 0.75536 0.04277 0.96091 0.0
H427 H 0.75394 0.08912 0.97016 0.0
H428 H 0.73188 0.99881 0.98533 0.0
H429 H 0.73502 0.97409 0.02895 0.0
C430 C 0.45115 0.3109 0.63614 0.0
C431 C 0.43728 0.28722 0.60302 0.0
C432 C 0.49856 0.26169 0.59044 0.0
C433 C 0.51311 0.28849 0.6198 0.0
N434 N 0.50448 0.33696 0.67312 0.0
N435 N 0.44441 0.23361 0.55713 0.0
C436 C 0.48961 0.3122 0.64405 0.0
C437 C 0.45994 0.26031 0.58303 0.0
N438 N 0.42709 0.33151 0.66031 0.0
N439 N 0.52201 0.23903 0.56803 0.0
H440 H 0.41628 0.2322 0.55092 0.0
H441 H 0.45865 0.21152 0.54398 0.0
H442 H 0.55025 0.23868 0.57385 0.0
H443 H 0.51408 0.22147 0.54271 0.0
H444 H 0.43439 0.3481 0.68672 0.0
H445 H 0.39876 0.32971 0.65569 0.0
H446 H 0.48977 0.35758 0.68892 0.0
H447 H 0.53237 0.33758 0.68088 0.0
C448 C 0.65897 0.55428 0.40548 0.0
C449 C 0.65728 0.59118 0.39996 0.0
C450 C 0.62573 0.57857 0.33245 0.0
C451 C 0.62687 0.54176 0.33833 0.0
N452 N 0.65228 0.49368 0.37426 0.0
N453 N 0.64928 0.63768 0.35373 0.0
C454 C 0.64613 0.52934 0.37286 0.0
C455 C 0.64388 0.6031 0.36191 0.0
N456 N 0.67131 0.54314 0.4426 0.0
N457 N 0.60618 0.59012 0.29965 0.0
H458 H 0.66314 0.65592 0.37458 0.0
H459 H 0.64304 0.64743 0.32503 0.0
H460 H 0.59348 0.57271 0.27685 0.0
H461 H 0.60068 0.61684 0.29645 0.0
H462 H 0.66876 0.51713 0.4508 0.0
H463 H 0.68252 0.56042 0.4664 0.0
H464 H 0.66939 0.48316 0.39625 0.0
H465 H 0.6428 0.47458 0.35115 0.0
C466 C 0.96211 0.22962 0.02511 0.0
C467 C 0.93802 0.21008 0.99672 0.0
C468 C 0.98988 0.19229 0.95077 0.0
C469 C 0.01436 0.208 0.98178 0.0
N470 N 0.02493 0.24081 0.04882 0.0
N471 N 0.9279 0.17224 0.93304 0.0
C472 C 0.00077 0.22675 0.01894 0.0
C473 C 0.95158 0.19159 0.9594 0.0
N474 N 0.94783 0.25118 0.05762 0.0
N475 N 0.00336 0.17812 0.91304 0.0
H476 H 0.89952 0.17279 0.93719 0.0
H477 H 0.93621 0.1544 0.90822 0.0
H478 H 0.03135 0.177 0.90612 0.0
H479 H 0.9869 0.16968 0.88739 0.0
H480 H 0.96344 0.26851 0.07762 0.0
H481 H 0.91962 0.25396 0.06248 0.0
H482 H 0.01716 0.25115 0.07873 0.0
H483 H 0.05334 0.24052 0.04445 0.0
C484 C 0.25457 0.43603 0.52382 0.0
C485 C 0.27659 0.40889 0.50305 0.0
C486 C 0.28776 0.44585 0.44507 0.0
C487 C 0.26756 0.47373 0.46694 0.0
N488 N 0.22349 0.49271 0.52008 0.0
N489 N 0.30407 0.38321 0.43924 0.0
C490 C 0.24801 0.46776 0.50395 0.0
C491 C 0.28976 0.41228 0.46194 0.0
N492 N 0.24197 0.43246 0.5635 0.0
N493 N 0.30669 0.45208 0.40954 0.0
H494 H 0.30492 0.35827 0.45098 0.0
H495 H 0.31156 0.38286 0.40778 0.0
H496 H 0.30503 0.47605 0.3956 0.0
H497 H 0.32552 0.43428 0.39505 0.0
H498 H 0.22996 0.45308 0.58244 0.0
H499 H 0.2452 0.40923 0.57857 0.0
H500 H 0.20588 0.48882 0.5449 0.0
H501 H 0.21845 0.51621 0.50601 0.0
C502 C 0.14572 0.81828 0.89317 0.0
C503 C 0.13491 0.79216 0.91998 0.0
C504 C 0.08224 0.7757 0.87485 0.0
C505 C 0.09119 0.80403 0.85014 0.0
N506 N 0.13697 0.8436 0.82644 0.0
N507 N 0.10211 0.73791 0.92846 0.0
C508 C 0.12518 0.82211 0.85599 0.0
C509 C 0.10649 0.7678 0.90773 0.0
N510 N 0.17421 0.84069 0.90466 0.0
N511 N 0.04934 0.7584 0.86928 0.0
H512 H 0.11949 0.73198 0.95293 0.0
H513 H 0.08364 0.71764 0.91896 0.0
H514 H 0.03104 0.76309 0.84522 0.0
H515 H 0.03928 0.74078 0.88987 0.0
H516 H 0.18077 0.8631 0.88929 0.0
H517 H 0.19048 0.83742 0.93095 0.0
H518 H 0.16272 0.85571 0.82719 0.0
H519 H 0.122 0.84652 0.79899 0.0
C520 C 0.85129 0.05937 0.93351 0.0
C521 C 0.84648 0.09447 0.9213 0.0
C522 C 0.86724 0.07487 0.84996 0.0
C523 C 0.87058 0.03969 0.86191 0.0
N524 N 0.85827 0.9966 0.91161 0.0
N525 N 0.84262 0.13415 0.86617 0.0
C526 C 0.86032 0.0314 0.90269 0.0
C527 C 0.85212 0.10174 0.87889 0.0
N528 N 0.84785 0.05272 0.9747 0.0
N529 N 0.87961 0.08279 0.81149 0.0
H530 H 0.83169 0.15436 0.8866 0.0
H531 H 0.84261 0.14003 0.83492 0.0
H532 H 0.89003 0.06356 0.78923 0.0
H533 H 0.88193 0.10865 0.80268 0.0
H534 H 0.85558 0.02887 0.98633 0.0
H535 H 0.83944 0.07179 0.99807 0.0
H536 H 0.84686 0.98852 0.93909 0.0
H537 H 0.86493 0.97532 0.88992 0.0
C538 C 0.42225 0.29134 0.43856 0.0
C539 C 0.38346 0.29472 0.44162 0.0
C540 C 0.37973 0.30847 0.3682 0.0
C541 C 0.41863 0.3072 0.36598 0.0
N542 N 0.47616 0.28793 0.39392 0.0
N543 N 0.32477 0.29526 0.40712 0.0
C544 C 0.43957 0.29509 0.39942 0.0
C545 C 0.36201 0.29951 0.40549 0.0
N546 N 0.44273 0.28701 0.47366 0.0
N547 N 0.36003 0.31971 0.33536 0.0
H548 H 0.31166 0.28793 0.43408 0.0
H549 H 0.30747 0.29581 0.38116 0.0
H550 H 0.37226 0.32486 0.30699 0.0
H551 H 0.33203 0.32533 0.33679 0.0
H552 H 0.47125 0.28922 0.47496 0.0
H553 H 0.43097 0.28288 0.50241 0.0
H554 H 0.49219 0.27568 0.41556 0.0
H555 H 0.48993 0.29136 0.36599 0.0
C556 C 0.24901 0.92967 0.00288 0.0
C557 C 0.2116 0.92001 0.00835 0.0
C558 C 0.19232 0.97661 0.98311 0.0
C559 C 0.22918 0.98857 0.98473 0.0
N560 N 0.293 0.97787 0.99915 0.0
N561 N 0.14784 0.93955 0.01334 0.0
C562 C 0.25777 0.96546 0.99534 0.0
C563 C 0.18321 0.94475 0.00081 0.0
N564 N 0.27596 0.90451 0.00333 0.0
N565 N 0.16581 0.99576 0.96464 0.0
H566 H 0.13945 0.91827 0.02954 0.0
H567 H 0.12747 0.95887 0.01226 0.0
H568 H 0.17136 0.01934 0.95097 0.0
H569 H 0.13919 0.9862 0.95893 0.0
H570 H 0.30324 0.90934 0.99579 0.0
H571 H 0.27044 0.87783 0.00708 0.0
H572 H 0.3144 0.96344 0.01122 0.0
H573 H 0.30026 0.00365 0.99283 0.0
C574 C 0.53895 0.7337 0.48923 0.0
C575 C 0.56346 0.70986 0.46684 0.0
C576 C 0.51354 0.68524 0.42197 0.0
C577 C 0.48838 0.70676 0.44664 0.0
N578 N 0.47657 0.75676 0.49675 0.0
N579 N 0.5773 0.6725 0.40435 0.0
C580 C 0.50102 0.73298 0.47791 0.0
C581 C 0.55168 0.68873 0.43061 0.0
N582 N 0.55185 0.75587 0.52214 0.0
N583 N 0.5008 0.66038 0.39165 0.0
H584 H 0.60541 0.67607 0.40975 0.0
H585 H 0.5711 0.6588 0.3755 0.0
H586 H 0.4731 0.65796 0.38331 0.0
H587 H 0.51729 0.64096 0.3761 0.0
H588 H 0.53523 0.77136 0.54284 0.0
H589 H 0.57975 0.75802 0.52957 0.0
H590 H 0.48392 0.77815 0.51786 0.0
H591 H 0.44865 0.75642 0.48909 0.0
C592 C 0.35212 0.39658 0.70079 0.0
C593 C 0.34036 0.40717 0.66137 0.0
C594 C 0.35151 0.46953 0.68534 0.0
C595 C 0.36738 0.4588 0.7229 0.0
N596 N 0.38417 0.41244 0.76667 0.0
N597 N 0.32558 0.45401 0.61702 0.0
C598 C 0.36768 0.42238 0.73098 0.0
C599 C 0.33878 0.44365 0.65416 0.0
N600 N 0.34743 0.36203 0.70956 0.0
N601 N 0.34905 0.50446 0.67772 0.0
H602 H 0.31564 0.4361 0.59302 0.0
H603 H 0.32438 0.48064 0.61049 0.0
H604 H 0.35757 0.52566 0.69869 0.0
H605 H 0.35757 0.52566 0.69869 0.0
H606 H 0.35239 0.35286 0.73886 0.0
H607 H 0.33559 0.3429 0.68812 0.0
H608 H 0.38925 0.38612 0.7723 0.0
H609 H 0.39463 0.43082 0.79 0.0
C610 C 0.03152 0.78248 0.04105 0.0
C611 C 0.05994 0.78288 0.07157 0.0
C612 C 0.01502 0.79141 0.12823 0.0
C613 C 0.98661 0.79235 0.09773 0.0
N614 N 0.96606 0.7782 0.0265 0.0
N615 N 0.07817 0.77538 0.1425 0.0
C616 C 0.99434 0.78418 0.0545 0.0
C617 C 0.05135 0.78304 0.11469 0.0
N618 N 0.04012 0.78262 -0.00051 0.0
N619 N 0.0079 0.80081 0.16968 0.0
H620 H 0.1048 0.76865 0.13271 0.0
H621 H 0.07322 0.77229 0.17408 0.0
H622 H 0.98174 0.80741 0.18099 0.0
H623 H 0.02839 0.80452 0.1925 0.0
H624 H 0.02096 0.78682 0.97614 0.0
H625 H 0.06701 0.78022 0.98863 0.0
H626 H 0.96983 0.76914 0.99509 0.0
H627 H 0.93854 0.77912 0.03571 0.0
C628 C 0.71328 0.57721 0.5955 0.0
C629 C 0.72511 0.58233 0.55428 0.0
C630 C 0.75355 0.52322 0.54864 0.0
C631 C 0.73541 0.51576 0.58605 0.0
N632 N 0.69804 0.5351 0.64595 0.0
N633 N 0.75744 0.56107 0.49119 0.0
C634 C 0.71584 0.54282 0.61021 0.0
C635 C 0.74629 0.55589 0.53103 0.0
N636 N 0.69974 0.60544 0.62041 0.0
N637 N 0.77748 0.49885 0.53001 0.0
H638 H 0.75368 0.58499 0.47769 0.0
H639 H 0.7687 0.54113 0.47059 0.0
H640 H 0.78303 0.47467 0.54236 0.0
H641 H 0.79419 0.50377 0.50475 0.0
H642 H 0.69333 0.60444 0.65203 0.0
H643 H 0.69844 0.63098 0.6103 0.0
H644 H 0.67965 0.55236 0.66212 0.0
H645 H 0.7001 0.51048 0.65834 0.0
C646 C 0.8889 0.23244 0.15741 0.0
C647 C 0.86006 0.20807 0.1466 0.0
C648 C 0.87475 0.17698 0.20886 0.0
C649 C 0.90953 0.19408 0.21058 0.0
N650 N 0.94984 0.23939 0.18724 0.0
N651 N 0.81772 0.16521 0.17012 0.0
C652 C 0.91644 0.22276 0.18575 0.0
C653 C 0.85024 0.18308 0.17541 0.0
N654 N 0.88927 0.26508 0.14207 0.0
N655 N 0.86576 0.15481 0.23892 0.0
H656 H 0.79809 0.17258 0.1487 0.0
H657 H 0.80996 0.1439 0.18675 0.0
H658 H 0.88332 0.15068 0.26395 0.0
H659 H 0.84034 0.14243 0.24096 0.0
H660 H 0.90876 0.28456 0.1511 0.0
H661 H 0.8671 0.27438 0.12537 0.0
H662 H 0.95747 0.25756 0.16602 0.0
H663 H 0.97078 0.23331 0.20779 0.0
C664 C 0.18599 0.75997 0.19125 0.0
C665 C 0.202 0.74739 0.15235 0.0
C666 C 0.23647 0.70223 0.18655 0.0
C667 C 0.2202 0.71453 0.22543 0.0
N668 N 0.17428 0.74958 0.264 0.0
N669 N 0.23491 0.70161 0.11065 0.0
C670 C 0.19322 0.7417 0.22749 0.0
C671 C 0.22483 0.71687 0.14926 0.0
N672 N 0.16477 0.78995 0.19371 0.0
N673 N 0.26426 0.67776 0.18556 0.0
H674 H 0.22674 0.71165 0.08269 0.0
H675 H 0.24852 0.67732 0.10609 0.0
H676 H 0.27315 0.66583 0.21205 0.0
H677 H 0.28028 0.67106 0.15911 0.0
H678 H 0.15578 0.80303 0.22183 0.0
H679 H 0.15758 0.80293 0.16739 0.0
H680 H 0.15183 0.76671 0.26663 0.0
H681 H 0.17912 0.73663 0.29107 0.0
C682 C 0.78938 0.76409 0.54579 0.0
C683 C 0.76958 0.73626 0.5629 0.0
C684 C 0.80214 0.74782 0.62986 0.0
C685 C 0.82273 0.7749 0.6124 0.0
N686 N 0.8421 0.80368 0.55169 0.0
N687 N 0.76377 0.69544 0.61646 0.0
C688 C 0.81826 0.78141 0.56964 0.0
C689 C 0.77799 0.72624 0.60356 0.0
N690 N 0.77963 0.77496 0.50756 0.0
N691 N 0.80459 0.74361 0.67186 0.0
H692 H 0.74663 0.67866 0.59743 0.0
H693 H 0.77162 0.68486 0.64418 0.0
H694 H 0.82221 0.7587 0.69216 0.0
H695 H 0.78713 0.72708 0.68718 0.0
H696 H 0.79001 0.79782 0.49575 0.0
H697 H 0.75922 0.76253 0.48866 0.0
H698 H 0.84275 0.80666 0.5196 0.0
H699 H 0.86352 0.81689 0.56835 0.0
C700 C 0.72019 0.24863 0.10244 0.0
C701 C 0.72273 0.24834 0.058 0.0
C702 C 0.66325 0.27923 0.05683 0.0
C703 C 0.66412 0.28424 0.10125 0.0
N704 N 0.69535 0.27738 0.1668 0.0
N705 N 0.69714 0.26578 0.99256 0.0
C706 C 0.69308 0.26989 0.12422 0.0
C707 C 0.69419 0.26394 0.03496 0.0
N708 N 0.74255 0.2272 0.12372 0.0
N709 N 0.63253 0.28858 0.03561 0.0
H710 H 0.71828 0.25412 0.97448 0.0
H711 H 0.67981 0.2811 0.97542 0.0
H712 H 0.60959 0.30025 0.0507 0.0
H713 H 0.62839 0.28195 0.00361 0.0
H714 H 0.73947 0.22366 0.1555 0.0
H715 H 0.76144 0.20974 0.10869 0.0
H716 H 0.71825 0.27115 0.18443 0.0
H717 H 0.67568 0.29233 0.18419 0.0
C718 C 0.315 0.25824 0.70248 0.0
C719 C 0.28797 0.25956 0.67048 0.0
C720 C 0.24441 0.22811 0.71237 0.0
C721 C 0.26987 0.23047 0.7462 0.0
N722 N 0.32773 0.25146 0.77596 0.0
N723 N 0.22488 0.2516 0.64787 0.0
C724 C 0.30487 0.24635 0.74191 0.0
C725 C 0.2521 0.24603 0.67615 0.0
N726 N 0.35035 0.2682 0.69509 0.0
N727 N 0.21321 0.20808 0.7145 0.0
H728 H 0.22924 0.26503 0.62119 0.0
H729 H 0.19731 0.24575 0.65275 0.0
H730 H 0.20672 0.19435 0.7405 0.0
H731 H 0.19559 0.20231 0.68905 0.0
H732 H 0.37219 0.26433 0.71534 0.0
H733 H 0.35839 0.27813 0.66711 0.0
H734 H 0.35176 0.2665 0.77616 0.0
H735 H 0.32132 0.2429 0.80526 0.0
C736 C 0.68988 0.76936 0.38794 0.0
C737 C 0.71348 0.74285 0.40222 0.0
C738 C 0.75568 0.75166 0.34454 0.0
C739 C 0.73495 0.78152 0.33424 0.0
N740 N 0.68564 0.82295 0.35158 0.0
N741 N 0.77409 0.71608 0.40005 0.0
C742 C 0.70294 0.79162 0.35748 0.0
C743 C 0.74787 0.73594 0.38217 0.0
N744 N 0.65451 0.77236 0.40188 0.0
N745 N 0.78231 0.73767 0.31794 0.0
H746 H 0.7709 0.70605 0.42919 0.0
H747 H 0.80073 0.71328 0.38834 0.0
H748 H 0.78807 0.74763 0.2892 0.0
H749 H 0.79576 0.71387 0.32234 0.0
H750 H 0.63522 0.78896 0.38938 0.0
H751 H 0.64331 0.75545 0.42252 0.0
H752 H 0.66443 0.83323 0.37081 0.0
H753 H 0.69472 0.84031 0.33008 0.0
C754 C 0.77775 0.28108 0.90204 0.0
C755 C 0.8024 0.25203 0.90409 0.0
C756 C 0.81571 0.25272 0.82888 0.0
C757 C 0.78778 0.27855 0.82593 0.0
N758 N 0.74061 0.31647 0.85828 0.0
N759 N 0.85442 0.22004 0.87417 0.0
C760 C 0.76882 0.29297 0.86225 0.0
C761 C 0.82416 0.24059 0.86873 0.0
N762 N 0.76374 0.29817 0.93796 0.0
N763 N 0.83303 0.2388 0.79326 0.0
H764 H 0.86226 0.21271 0.90363 0.0
H765 H 0.87359 0.2131 0.85079 0.0
H766 H 0.82857 0.24824 0.76391 0.0
H767 H 0.85036 0.2168 0.79223 0.0
H768 H 0.74921 0.32197 0.9387 0.0
H769 H 0.76925 0.29082 0.96794 0.0
H770 H 0.7221 0.32393 0.8822 0.0
H771 H 0.73389 0.32688 0.83004 0.0
C772 C 0.21612 0.22481 0.51747 0.0
C773 C 0.23308 0.25529 0.50287 0.0
C774 C 0.19676 0.24776 0.438 0.0
C775 C 0.1779 0.21889 0.45407 0.0
N776 N 0.16395 0.18467 0.51238 0.0
N777 N 0.23559 0.29965 0.45293 0.0
C778 C 0.18582 0.20891 0.49491 0.0
C779 C 0.2221 0.26802 0.46427 0.0
N780 N 0.22999 0.21007 0.55179 0.0
N781 N 0.1918 0.25477 0.39707 0.0
H782 H 0.25485 0.31475 0.47097 0.0
H783 H 0.2257 0.31225 0.42742 0.0
H784 H 0.17353 0.24055 0.37674 0.0
H785 H 0.20789 0.27278 0.38224 0.0
H786 H 0.22115 0.18575 0.56131 0.0
H787 H 0.2527 0.2205 0.56857 0.0
H788 H 0.1661 0.17904 0.54365 0.0
H789 H 0.14132 0.17265 0.49677 0.0
C790 C 0.30261 0.7442 0.02416 0.0
C791 C 0.27881 0.76558 0.00173 0.0
C792 C 0.31518 0.75247 0.93782 0.0
C793 C 0.33556 0.72721 0.95878 0.0
N794 N 0.34876 0.69769 0.02111 0.0
N795 N 0.26145 0.79063 0.93774 0.0
C796 C 0.32951 0.72291 0.00188 0.0
C797 C 0.28514 0.77029 0.95879 0.0
N798 N 0.30006 0.74509 0.06691 0.0
N799 N 0.32462 0.75931 0.89789 0.0
H800 H 0.24017 0.80514 0.95271 0.0
H801 H 0.26158 0.79188 0.90534 0.0
H802 H 0.34583 0.746 0.88124 0.0
H803 H 0.31338 0.77984 0.88224 0.0
H804 H 0.31863 0.73267 0.08572 0.0
H805 H 0.28118 0.76111 0.08412 0.0
H806 H 0.34248 0.69003 0.05079 0.0
H807 H 0.36999 0.68287 0.00637 0.0
loop_
_geom_bond_atom_site_label_1
_geom_bond_atom_site_label_2
_geom_bond_distance
_geom_bond_site_symmetry_2
_ccdc_geom_bond_type
Fe0 O2 1.918 . S
Fe0 O5 1.997 . S
Fe0 O6 2.002 . S
Fe0 O11 1.976 . S
Fe0 O14 1.996 . S
Fe1 O2 1.918 . S
Fe1 O9 1.997 . S
Fe1 O12 1.996 . S
Fe1 O16 1.976 1_554 S
Fe1 O19 2.002 . S
O2 Fe0 1.918 . S
O2 Fe1 1.918 . S
O2 Fe3 1.918 . S
Fe3 O2 1.918 . S
Fe3 O4 2.002 . S
Fe3 O13 1.976 . S
Fe3 O17 1.996 1_554 S
Fe3 O20 1.997 . S
O4 Fe3 2.002 . S
O4 C21 1.295 . S
O5 Fe0 1.997 . S
O5 C21 1.235 . S
O6 Fe0 2.002 . S
O6 C7 1.295 . S
C7 O6 1.295 . S
C7 O9 1.235 . S
C8 O13 1.287 . S
C8 O14 1.255 . S
O9 Fe1 1.997 . S
O9 C7 1.235 . S
C10 O16 1.287 . S
C10 O17 1.255 . S
O11 Fe0 1.976 . S
O11 C18 1.287 . S
O12 Fe1 1.996 . S
O12 C18 1.255 . S
O13 Fe3 1.976 . S
O13 C8 1.287 . S
O14 Fe0 1.996 . S
O14 C8 1.255 . S
C15 O19 1.295 . S
C15 O20 1.235 . S
O16 Fe1 1.976 1_556 S
O16 C10 1.287 . S
O17 Fe3 1.996 1_556 S
O17 C10 1.255 . S
C18 O11 1.287 . S
C18 O12 1.255 . S
O19 Fe1 2.002 . S
O19 C15 1.295 . S
O20 Fe3 1.997 . S
O20 C15 1.235 . S
C21 O4 1.295 . S
C21 O5 1.235 . S
Fe22 O24 1.918 . S
Fe22 O27 1.997 . S
Fe22 O28 2.002 . S
Fe22 O33 1.976 . S
Fe22 O36 1.996 . S
Fe23 O24 1.918 . S
Fe23 O31 1.997 . S
Fe23 O34 1.996 . S
Fe23 O38 1.976 . S
Fe23 O41 2.002 . S
O24 Fe22 1.918 . S
O24 Fe23 1.918 . S
O24 Fe25 1.918 . S
Fe25 O24 1.918 . S
Fe25 O26 2.002 . S
Fe25 O35 1.976 . S
Fe25 O39 1.996 . S
Fe25 O42 1.997 . S
O26 Fe25 2.002 . S
O26 C43 1.295 . S
O27 Fe22 1.997 . S
O27 C43 1.235 . S
O28 Fe22 2.002 . S
O28 C29 1.295 . S
C29 O28 1.295 . S
C29 O31 1.235 . S
C30 O35 1.287 . S
C30 O36 1.255 . S
O31 Fe23 1.997 . S
O31 C29 1.235 . S
C32 O38 1.287 . S
C32 O39 1.255 . S
O33 Fe22 1.976 . S
O33 C40 1.287 . S
O34 Fe23 1.996 . S
O34 C40 1.255 . S
O35 Fe25 1.976 . S
O35 C30 1.287 . S
O36 Fe22 1.996 . S
O36 C30 1.255 . S
C37 O41 1.295 . S
C37 O42 1.235 . S
O38 Fe23 1.976 . S
O38 C32 1.287 . S
O39 Fe25 1.996 . S
O39 C32 1.255 . S
C40 O33 1.287 . S
C40 O34 1.255 . S
O41 Fe23 2.002 . S
O41 C37 1.295 . S
O42 Fe25 1.997 . S
O42 C37 1.235 . S
C43 O26 1.295 . S
C43 O27 1.235 . S
Fe44 O46 1.918 . S
Fe44 O49 1.997 1_554 S
Fe44 O50 2.002 1_554 S
Fe44 O55 1.976 . S
Fe44 O58 1.996 . S
Fe45 O46 1.918 . S
Fe45 O53 1.997 1_554 S
Fe45 O56 1.996 . S
Fe45 O60 1.976 . S
Fe45 O63 2.002 1_554 S
O46 Fe44 1.918 . S
O46 Fe45 1.918 . S
O46 Fe47 1.918 1_554 S
Fe47 O46 1.918 1_556 S
Fe47 O48 2.002 . S
Fe47 O57 1.976 1_556 S
Fe47 O61 1.996 1_556 S
Fe47 O64 1.997 . S
O48 Fe47 2.002 . S
O48 C65 1.295 . S
O49 Fe44 1.997 1_556 S
O49 C65 1.235 . S
O50 Fe44 2.002 1_556 S
O50 C51 1.295 . S
C51 O50 1.295 . S
C51 O53 1.235 . S
C52 O57 1.287 . S
C52 O58 1.255 . S
O53 Fe45 1.997 1_556 S
O53 C51 1.235 . S
C54 O60 1.287 . S
C54 O61 1.255 . S
O55 Fe44 1.976 . S
O55 C62 1.287 . S
O56 Fe45 1.996 . S
O56 C62 1.255 . S
O57 Fe47 1.976 1_554 S
O57 C52 1.287 . S
O58 Fe44 1.996 . S
O58 C52 1.255 . S
C59 O63 1.295 . S
C59 O64 1.235 . S
O60 Fe45 1.976 . S
O60 C54 1.287 . S
O61 Fe47 1.996 1_554 S
O61 C54 1.255 . S
C62 O55 1.287 . S
C62 O56 1.255 . S
O63 Fe45 2.002 1_556 S
O63 C59 1.295 . S
O64 Fe47 1.997 . S
O64 C59 1.235 . S
C65 O48 1.295 . S
C65 O49 1.235 . S
Fe66 O68 1.918 . S
Fe66 O71 1.997 . S
Fe66 O72 2.002 . S
Fe66 O77 1.976 . S
Fe66 O80 1.996 . S
Fe67 O68 1.918 . S
Fe67 O75 1.997 . S
Fe67 O78 1.996 . S
Fe67 O82 1.976 . S
Fe67 O85 2.002 . S
O68 Fe66 1.918 . S
O68 Fe67 1.918 . S
O68 Fe69 1.918 . S
Fe69 O68 1.918 . S
Fe69 O70 2.002 . S
Fe69 O79 1.976 . S
Fe69 O83 1.996 . S
Fe69 O86 1.997 . S
O70 Fe69 2.002 . S
O70 C87 1.295 . S
O71 Fe66 1.997 . S
O71 C87 1.235 . S
O72 Fe66 2.002 . S
O72 C73 1.295 . S
C73 O72 1.295 . S
C73 O75 1.235 . S
C74 O79 1.287 . S
C74 O80 1.255 . S
O75 Fe67 1.997 . S
O75 C73 1.235 . S
C76 O82 1.287 . S
C76 O83 1.255 . S
O77 Fe66 1.976 . S
O77 C84 1.287 . S
O78 Fe67 1.996 . S
O78 C84 1.255 . S
O79 Fe69 1.976 . S
O79 C74 1.287 . S
O80 Fe66 1.996 . S
O80 C74 1.255 . S
C81 O85 1.295 . S
C81 O86 1.235 . S
O82 Fe67 1.976 . S
O82 C76 1.287 . S
O83 Fe69 1.996 . S
O83 C76 1.255 . S
C84 O77 1.287 . S
C84 O78 1.255 . S
O85 Fe67 2.002 . S
O85 C81 1.295 . S
O86 Fe69 1.997 . S
O86 C81 1.235 . S
C87 O70 1.295 . S
C87 O71 1.235 . S
C88 C89 1.384 . S
C88 H101 0.947 . S
C88 C123 1.382 . S
C89 C88 1.384 . S
C89 C90 1.378 . S
C90 C89 1.378 . S
C90 C91 1.378 1_655 S
C90 H102 0.952 . S
C91 C90 1.378 1_455 S
C91 H103 0.950 . S
C91 C122 1.383 . S
H92 C111 0.947 . S
H93 C112 0.946 . S
H94 C114 0.953 . S
H95 C115 0.945 . S
H96 C117 0.952 . S
H97 C118 0.949 . S
H98 C120 0.950 1_565 S
H99 C121 0.948 . S
H100 C123 0.951 . S
H101 C88 0.947 . S
H102 C90 0.952 . S
H103 C91 0.950 . S
N104 C107 1.382 . S
N104 C109 1.363 . S
N105 C107 1.371 . S
N105 C108 1.372 . S
N106 C108 1.361 . S
N106 C109 1.377 . S
C107 N104 1.382 . S
C107 N105 1.371 . S
C107 C110 1.480 . S
C108 N105 1.372 . S
C108 N106 1.361 . S
C108 C116 1.457 . S
C109 N104 1.363 . S
C109 N106 1.377 . S
C109 C122 1.479 . S
C110 C107 1.480 . S
C110 C111 1.383 . S
C110 C115 1.385 . S
C111 H92 0.947 . S
C111 C110 1.383 . S
C111 C112 1.388 . S
C112 H93 0.946 . S
C112 C111 1.388 . S
C112 C113 1.384 . S
C113 C112 1.384 . S
C113 C114 1.377 . S
C114 H94 0.953 . S
C114 C113 1.377 . S
C114 C115 1.369 . S
C115 H95 0.945 . S
C115 C110 1.385 . S
C115 C114 1.369 . S
C116 C108 1.457 . S
C116 C117 1.372 . S
C116 C121 1.364 . S
C117 H96 0.952 . S
C117 C116 1.372 . S
C117 C118 1.389 . S
C118 H97 0.949 . S
C118 C117 1.389 . S
C118 C119 1.387 1_545 S
C119 C118 1.387 1_565 S
C119 C120 1.372 1_565 S
C120 H98 0.950 1_545 S
C120 C119 1.372 1_545 S
C120 C121 1.379 . S
C121 H99 0.948 . S
C121 C116 1.364 . S
C121 C120 1.379 . S
C122 C91 1.383 . S
C122 C109 1.479 . S
C122 C123 1.398 1_455 S
C123 C88 1.382 . S
C123 H100 0.951 . S
C123 C122 1.398 1_655 S
C124 C125 1.384 . S
C124 H137 0.947 . S
C124 C159 1.382 . S
C125 C124 1.384 . S
C125 C126 1.378 . S
C126 C125 1.378 . S
C126 C127 1.378 . S
C126 H138 0.952 . S
C127 C126 1.378 . S
C127 H139 0.950 . S
C127 C158 1.383 . S
H128 C147 0.947 . S
H129 C148 0.946 . S
H130 C150 0.953 . S
H131 C151 0.945 . S
H132 C153 0.952 . S
H133 C154 0.949 . S
H134 C156 0.950 . S
H135 C157 0.948 . S
H136 C159 0.951 . S
H137 C124 0.947 . S
H138 C126 0.952 . S
H139 C127 0.950 . S
N140 C143 1.382 . S
N140 C145 1.363 . S
N141 C143 1.371 . S
N141 C144 1.372 . S
N142 C144 1.361 . S
N142 C145 1.377 . S
C143 N140 1.382 . S
C143 N141 1.371 . S
C143 C146 1.480 . S
C144 N141 1.372 . S
C144 N142 1.361 . S
C144 C152 1.457 . S
C145 N140 1.363 . S
C145 N142 1.377 . S
C145 C158 1.479 . S
C146 C143 1.480 . S
C146 C147 1.383 . S
C146 C151 1.385 . S
C147 H128 0.947 . S
C147 C146 1.383 . S
C147 C148 1.388 . S
C148 H129 0.946 . S
C148 C147 1.388 . S
C148 C149 1.384 . S
C149 C148 1.384 . S
C149 C150 1.377 . S
C150 H130 0.953 . S
C150 C149 1.377 . S
C150 C151 1.369 . S
C151 H131 0.945 . S
C151 C146 1.385 . S
C151 C150 1.369 . S
C152 C144 1.457 . S
C152 C153 1.372 . S
C152 C157 1.364 . S
C153 H132 0.952 . S
C153 C152 1.372 . S
C153 C154 1.389 . S
C154 H133 0.949 . S
C154 C153 1.389 . S
C154 C155 1.387 . S
C155 C154 1.387 . S
C155 C156 1.372 . S
C156 H134 0.950 . S
C156 C155 1.372 . S
C156 C157 1.379 . S
C157 H135 0.948 . S
C157 C152 1.364 . S
C157 C156 1.379 . S
C158 C127 1.383 . S
C158 C145 1.479 . S
C158 C159 1.398 . S
C159 C124 1.382 . S
C159 H136 0.951 . S
C159 C158 1.398 . S
C160 C161 1.384 . S
C160 H173 0.947 . S
C160 C195 1.382 . S
C161 C160 1.384 . S
C161 C162 1.378 . S
C162 C161 1.378 . S
C162 C163 1.378 . S
C162 H174 0.952 . S
C163 C162 1.378 . S
C163 H175 0.950 . S
C163 C194 1.383 . S
H164 C183 0.947 . S
H165 C184 0.946 . S
H166 C186 0.953 . S
H167 C187 0.945 . S
H168 C189 0.952 . S
H169 C190 0.949 . S
H170 C192 0.950 . S
H171 C193 0.948 . S
H172 C195 0.951 . S
H173 C160 0.947 . S
H174 C162 0.952 . S
H175 C163 0.950 . S
N176 C179 1.382 . S
N176 C181 1.363 . S
N177 C179 1.371 . S
N177 C180 1.372 . S
N178 C180 1.361 . S
N178 C181 1.377 . S
C179 N176 1.382 . S
C179 N177 1.371 . S
C179 C182 1.480 . S
C180 N177 1.372 . S
C180 N178 1.361 . S
C180 C188 1.457 . S
C181 N176 1.363 . S
C181 N178 1.377 . S
C181 C194 1.479 . S
C182 C179 1.480 . S
C182 C183 1.383 . S
C182 C187 1.385 . S
C183 H164 0.947 . S
C183 C182 1.383 . S
C183 C184 1.388 . S
C184 H165 0.946 . S
C184 C183 1.388 . S
C184 C185 1.384 . S
C185 C184 1.384 . S
C185 C186 1.377 . S
C186 H166 0.953 . S
C186 C185 1.377 . S
C186 C187 1.369 . S
C187 H167 0.945 . S
C187 C182 1.385 . S
C187 C186 1.369 . S
C188 C180 1.457 . S
C188 C189 1.372 . S
C188 C193 1.364 . S
C189 H168 0.952 . S
C189 C188 1.372 . S
C189 C190 1.389 . S
C190 H169 0.949 . S
C190 C189 1.389 . S
C190 C191 1.387 . S
C191 C190 1.387 . S
C191 C192 1.372 . S
C192 H170 0.950 . S
C192 C191 1.372 . S
C192 C193 1.379 . S
C193 H171 0.948 . S
C193 C188 1.364 . S
C193 C192 1.379 . S
C194 C163 1.383 . S
C194 C181 1.479 . S
C194 C195 1.398 . S
C195 C160 1.382 . S
C195 H172 0.951 . S
C195 C194 1.398 . S
C196 C197 1.384 . S
C196 H209 0.947 . S
C196 C231 1.382 . S
C197 C196 1.384 . S
C197 C198 1.378 . S
C198 C197 1.378 . S
C198 C199 1.378 . S
C198 H210 0.952 . S
C199 C198 1.378 . S
C199 H211 0.950 . S
C199 C230 1.383 . S
H200 C219 0.947 . S
H201 C220 0.946 . S
H202 C222 0.953 . S
H203 C223 0.945 . S
H204 C225 0.952 . S
H205 C226 0.949 . S
H206 C228 0.950 . S
H207 C229 0.948 . S
H208 C231 0.951 . S
H209 C196 0.947 . S
H210 C198 0.952 . S
H211 C199 0.950 . S
N212 C215 1.382 . S
N212 C217 1.363 . S
N213 C215 1.371 . S
N213 C216 1.372 . S
N214 C216 1.361 . S
N214 C217 1.377 . S
C215 N212 1.382 . S
C215 N213 1.371 . S
C215 C218 1.480 . S
C216 N213 1.372 . S
C216 N214 1.361 . S
C216 C224 1.457 . S
C217 N212 1.363 . S
C217 N214 1.377 . S
C217 C230 1.479 . S
C218 C215 1.480 . S
C218 C219 1.383 . S
C218 C223 1.385 . S
C219 H200 0.947 . S
C219 C218 1.383 . S
C219 C220 1.388 . S
C220 H201 0.946 . S
C220 C219 1.388 . S
C220 C221 1.384 . S
C221 C220 1.384 . S
C221 C222 1.377 . S
C222 H202 0.953 . S
C222 C221 1.377 . S
C222 C223 1.369 . S
C223 H203 0.945 . S
C223 C218 1.385 . S
C223 C222 1.369 . S
C224 C216 1.457 . S
C224 C225 1.372 . S
C224 C229 1.364 . S
C225 H204 0.952 . S
C225 C224 1.372 . S
C225 C226 1.389 . S
C226 H205 0.949 . S
C226 C225 1.389 . S
C226 C227 1.387 . S
C227 C226 1.387 . S
C227 C228 1.372 . S
C228 H206 0.950 . S
C228 C227 1.372 . S
C228 C229 1.379 . S
C229 H207 0.948 . S
C229 C224 1.364 . S
C229 C228 1.379 . S
C230 C199 1.383 . S
C230 C217 1.479 . S
C230 C231 1.398 . S
C231 C196 1.382 . S
C231 H208 0.951 . S
C231 C230 1.398 . S
C232 C233 1.384 . S
C232 H245 0.947 . S
C232 C267 1.382 . S
C233 C232 1.384 . S
C233 C234 1.378 . S
C234 C233 1.378 . S
C234 C235 1.378 . S
C234 H246 0.952 . S
C235 C234 1.378 . S
C235 H247 0.950 . S
C235 C266 1.383 . S
H236 C255 0.947 . S
H237 C256 0.946 . S
H238 C258 0.953 . S
H239 C259 0.945 . S
H240 C261 0.952 . S
H241 C262 0.949 . S
H242 C264 0.950 . S
H243 C265 0.948 . S
H244 C267 0.951 . S
H245 C232 0.947 . S
H246 C234 0.952 . S
H247 C235 0.950 . S
N248 C251 1.382 . S
N248 C253 1.363 . S
N249 C251 1.371 . S
N249 C252 1.372 . S
N250 C252 1.361 . S
N250 C253 1.377 . S
C251 N248 1.382 . S
C251 N249 1.371 . S
C251 C254 1.480 . S
C252 N249 1.372 . S
C252 N250 1.361 . S
C252 C260 1.457 . S
C253 N248 1.363 . S
C253 N250 1.377 . S
C253 C266 1.479 . S
C254 C251 1.480 . S
C254 C255 1.383 . S
C254 C259 1.385 . S
C255 H236 0.947 . S
C255 C254 1.383 . S
C255 C256 1.388 . S
C256 H237 0.946 . S
C256 C255 1.388 . S
C256 C257 1.384 . S
C257 C256 1.384 . S
C257 C258 1.377 . S
C258 H238 0.953 . S
C258 C257 1.377 . S
C258 C259 1.369 . S
C259 H239 0.945 . S
C259 C254 1.385 . S
C259 C258 1.369 . S
C260 C252 1.457 . S
C260 C261 1.372 . S
C260 C265 1.364 . S
C261 H240 0.952 . S
C261 C260 1.372 . S
C261 C262 1.389 . S
C262 H241 0.949 . S
C262 C261 1.389 . S
C262 C263 1.387 . S
C263 C262 1.387 . S
C263 C264 1.372 . S
C264 H242 0.950 . S
C264 C263 1.372 . S
C264 C265 1.379 . S
C265 H243 0.948 . S
C265 C260 1.364 . S
C265 C264 1.379 . S
C266 C235 1.383 . S
C266 C253 1.479 . S
C266 C267 1.398 . S
C267 C232 1.382 . S
C267 H244 0.951 . S
C267 C266 1.398 . S
C268 C269 1.384 . S
C268 H281 0.947 . S
C268 C303 1.382 . S
C269 C268 1.384 . S
C269 C270 1.378 . S
C270 C269 1.378 . S
C270 C271 1.378 . S
C270 H282 0.952 . S
C271 C270 1.378 . S
C271 H283 0.950 . S
C271 C302 1.383 . S
H272 C291 0.947 . S
H273 C292 0.946 . S
H274 C294 0.953 1_554 S
H275 C295 0.945 . S
H276 C297 0.952 . S
H277 C298 0.949 1_554 S
H278 C300 0.950 . S
H279 C301 0.948 . S
H280 C303 0.951 . S
H281 C268 0.947 . S
H282 C270 0.952 . S
H283 C271 0.950 . S
N284 C287 1.382 . S
N284 C289 1.363 . S
N285 C287 1.371 . S
N285 C288 1.372 . S
N286 C288 1.361 . S
N286 C289 1.377 . S
C287 N284 1.382 . S
C287 N285 1.371 . S
C287 C290 1.480 . S
C288 N285 1.372 . S
C288 N286 1.361 . S
C288 C296 1.457 . S
C289 N284 1.363 . S
C289 N286 1.377 . S
C289 C302 1.479 . S
C290 C287 1.480 . S
C290 C291 1.383 . S
C290 C295 1.385 . S
C291 H272 0.947 . S
C291 C290 1.383 . S
C291 C292 1.388 . S
C292 H273 0.946 . S
C292 C291 1.388 . S
C292 C293 1.384 . S
C293 C292 1.384 . S
C293 C294 1.377 . S
C294 H274 0.953 1_556 S
C294 C293 1.377 . S
C294 C295 1.369 . S
C295 H275 0.945 . S
C295 C290 1.385 . S
C295 C294 1.369 . S
C296 C288 1.457 . S
C296 C297 1.372 . S
C296 C301 1.364 . S
C297 H276 0.952 . S
C297 C296 1.372 . S
C297 C298 1.389 . S
C298 H277 0.949 1_556 S
C298 C297 1.389 . S
C298 C299 1.387 . S
C299 C298 1.387 . S
C299 C300 1.372 . S
C300 H278 0.950 . S
C300 C299 1.372 . S
C300 C301 1.379 . S
C301 H279 0.948 . S
C301 C296 1.364 . S
C301 C300 1.379 . S
C302 C271 1.383 . S
C302 C289 1.479 . S
C302 C303 1.398 . S
C303 C268 1.382 . S
C303 H280 0.951 . S
C303 C302 1.398 . S
C304 C305 1.384 . S
C304 H317 0.947 . S
C304 C339 1.382 . S
C305 C304 1.384 . S
C305 C306 1.378 . S
C306 C305 1.378 . S
C306 C307 1.378 . S
C306 H318 0.952 . S
C307 C306 1.378 . S
C307 H319 0.950 . S
C307 C338 1.383 . S
H308 C327 0.947 . S
H309 C328 0.946 . S
H310 C330 0.953 . S
H311 C331 0.945 . S
H312 C333 0.952 . S
H313 C334 0.949 . S
H314 C336 0.950 . S
H315 C337 0.948 . S
H316 C339 0.951 . S
H317 C304 0.947 . S
H318 C306 0.952 . S
H319 C307 0.950 . S
N320 C323 1.382 . S
N320 C325 1.363 . S
N321 C323 1.371 . S
N321 C324 1.372 . S
N322 C324 1.361 . S
N322 C325 1.377 . S
C323 N320 1.382 . S
C323 N321 1.371 . S
C323 C326 1.480 . S
C324 N321 1.372 . S
C324 N322 1.361 . S
C324 C332 1.457 . S
C325 N320 1.363 . S
C325 N322 1.377 . S
C325 C338 1.479 . S
C326 C323 1.480 . S
C326 C327 1.383 . S
C326 C331 1.385 . S
C327 H308 0.947 . S
C327 C326 1.383 . S
C327 C328 1.388 . S
C328 H309 0.946 . S
C328 C327 1.388 . S
C328 C329 1.384 . S
C329 C328 1.384 . S
C329 C330 1.377 . S
C330 H310 0.953 . S
C330 C329 1.377 . S
C330 C331 1.369 . S
C331 H311 0.945 . S
C331 C326 1.385 . S
C331 C330 1.369 . S
C332 C324 1.457 . S
C332 C333 1.372 . S
C332 C337 1.364 . S
C333 H312 0.952 . S
C333 C332 1.372 . S
C333 C334 1.389 . S
C334 H313 0.949 . S
C334 C333 1.389 . S
C334 C335 1.387 . S
C335 C334 1.387 . S
C335 C336 1.372 . S
C336 H314 0.950 . S
C336 C335 1.372 . S
C336 C337 1.379 . S
C337 H315 0.948 . S
C337 C332 1.364 . S
C337 C336 1.379 . S
C338 C307 1.383 . S
C338 C325 1.479 . S
C338 C339 1.398 . S
C339 C304 1.382 . S
C339 H316 0.951 . S
C339 C338 1.398 . S
C340 C341 1.384 1_565 S
C340 H353 0.947 1_565 S
C340 C375 1.382 . S
C341 C340 1.384 1_545 S
C341 C342 1.378 1_545 S
C342 C341 1.378 1_565 S
C342 C343 1.378 . S
C342 H354 0.952 . S
C343 C342 1.378 . S
C343 H355 0.950 . S
C343 C374 1.383 . S
H344 C363 0.947 . S
H345 C364 0.946 . S
H346 C366 0.953 . S
H347 C367 0.945 . S
H348 C369 0.948 1_655 S
H349 C370 0.949 . S
H350 C372 0.950 . S
H351 C373 0.948 1_655 S
H352 C375 0.951 . S
H353 C340 0.947 1_545 S
H354 C342 0.952 . S
H355 C343 0.950 . S
N356 C359 1.382 . S
N356 C361 1.363 . S
N357 C359 1.371 . S
N357 C360 1.372 . S
N358 C360 1.361 . S
N358 C361 1.377 . S
C359 N356 1.382 . S
C359 N357 1.371 . S
C359 C362 1.480 . S
C360 N357 1.372 . S
C360 N358 1.361 . S
C360 C368 1.457 . S
C361 N356 1.363 . S
C361 N358 1.377 . S
C361 C374 1.479 . S
C362 C359 1.480 . S
C362 C363 1.383 . S
C362 C367 1.385 . S
C363 H344 0.947 . S
C363 C362 1.383 . S
C363 C364 1.388 . S
C364 H345 0.946 . S
C364 C363 1.388 . S
C364 C365 1.384 . S
C365 C364 1.384 . S
C365 C366 1.377 . S
C366 H346 0.953 . S
C366 C365 1.377 . S
C366 C367 1.369 . S
C367 H347 0.945 . S
C367 C362 1.385 . S
C367 C366 1.369 . S
C368 C360 1.457 . S
C368 C369 1.368 1_655 S
C368 C373 1.364 1_655 S
C369 H348 0.948 1_455 S
C369 C368 1.368 1_455 S
C369 C370 1.396 . S
C370 H349 0.949 . S
C370 C369 1.396 . S
C370 C371 1.387 . S
C371 C370 1.387 . S
C371 C372 1.372 . S
C372 H350 0.950 . S
C372 C371 1.372 . S
C372 C373 1.379 . S
C373 H351 0.948 1_455 S
C373 C368 1.364 1_455 S
C373 C372 1.379 . S
C374 C343 1.383 . S
C374 C361 1.479 . S
C374 C375 1.398 . S
C375 C340 1.382 . S
C375 H352 0.951 . S
C375 C374 1.398 . S
C376 C377 1.363 . S
C376 C382 1.379 . S
C376 N384 1.356 . S
C377 C376 1.363 . S
C377 C383 1.363 . S
C378 C379 1.363 . S
C378 C383 1.379 . S
C378 N385 1.356 . S
C379 C378 1.363 . S
C379 C382 1.363 . S
N380 C382 1.356 . S
N380 H392 0.984 . S
N380 H393 0.985 . S
N381 C383 1.356 . S
N381 H386 0.984 . S
N381 H387 0.985 . S
C382 C376 1.379 . S
C382 C379 1.363 . S
C382 N380 1.356 . S
C383 C377 1.363 . S
C383 C378 1.379 . S
C383 N381 1.356 . S
N384 C376 1.356 . S
N384 H390 0.984 . S
N384 H391 0.984 . S
N385 C378 1.356 . S
N385 H388 0.984 1_565 S
N385 H389 0.985 1_565 S
H386 N381 0.984 . S
H387 N381 0.985 . S
H388 N385 0.984 1_545 S
H389 N385 0.985 1_545 S
H390 N384 0.984 . S
H391 N384 0.984 . S
H392 N380 0.984 . S
H393 N380 0.985 . S
C394 C395 1.363 . S
C394 C400 1.379 . S
C394 N402 1.356 . S
C395 C394 1.363 . S
C395 C401 1.363 . S
C396 C397 1.363 . S
C396 C401 1.379 . S
C396 N403 1.356 . S
C397 C396 1.363 . S
C397 C400 1.363 . S
N398 C400 1.356 . S
N398 H410 0.984 . S
N398 H411 0.985 . S
N399 C401 1.356 . S
N399 H404 0.984 . S
N399 H405 0.985 . S
C400 C394 1.379 . S
C400 C397 1.363 . S
C400 N398 1.356 . S
C401 C395 1.363 . S
C401 C396 1.379 . S
C401 N399 1.356 . S
N402 C394 1.356 . S
N402 H408 0.984 . S
N402 H409 0.984 . S
N403 C396 1.356 . S
N403 H406 0.984 . S
N403 H407 0.985 . S
H404 N399 0.984 . S
H405 N399 0.985 . S
H406 N403 0.984 . S
H407 N403 0.985 . S
H408 N402 0.984 . S
H409 N402 0.984 . S
H410 N398 0.984 . S
H411 N398 0.985 . S
C412 C413 1.363 . S
C412 C418 1.379 . S
C412 N420 1.356 1_554 S
C413 C412 1.363 . S
C413 C419 1.363 . S
C414 C415 1.363 1_545 S
C414 C419 1.379 . S
C414 N421 1.356 1_545 S
C415 C414 1.363 1_565 S
C415 C418 1.363 1_565 S
N416 C418 1.356 1_565 S
N416 H428 0.984 1_554 S
N416 H429 0.985 . S
N417 C419 1.356 . S
N417 H422 0.984 . S
N417 H423 0.985 . S
C418 C412 1.379 . S
C418 C415 1.363 1_545 S
C418 N416 1.356 1_545 S
C419 C413 1.363 . S
C419 C414 1.379 . S
C419 N417 1.356 . S
N420 C412 1.356 1_556 S
N420 H426 0.984 . S
N420 H427 0.984 . S
N421 C414 1.356 1_565 S
N421 H424 0.984 . S
N421 H425 0.985 1_565 S
H422 N417 0.984 . S
H423 N417 0.985 . S
H424 N421 0.984 . S
H425 N421 0.985 1_545 S
H426 N420 0.984 . S
H427 N420 0.984 . S
H428 N416 0.984 1_556 S
H429 N416 0.985 . S
C430 C431 1.363 . S
C430 C436 1.379 . S
C430 N438 1.356 . S
C431 C430 1.363 . S
C431 C437 1.363 . S
C432 C433 1.363 . S
C432 C437 1.379 . S
C432 N439 1.356 . S
C433 C432 1.363 . S
C433 C436 1.363 . S
N434 C436 1.356 . S
N434 H446 0.984 . S
N434 H447 0.985 . S
N435 C437 1.356 . S
N435 H440 0.984 . S
N435 H441 0.985 . S
C436 C430 1.379 . S
C436 C433 1.363 . S
C436 N434 1.356 . S
C437 C431 1.363 . S
C437 C432 1.379 . S
C437 N435 1.356 . S
N438 C430 1.356 . S
N438 H444 0.984 . S
N438 H445 0.984 . S
N439 C432 1.356 . S
N439 H442 0.984 . S
N439 H443 0.985 . S
H440 N435 0.984 . S
H441 N435 0.985 . S
H442 N439 0.984 . S
H443 N439 0.985 . S
H444 N438 0.984 . S
H445 N438 0.984 . S
H446 N434 0.984 . S
H447 N434 0.985 . S
C448 C449 1.363 . S
C448 C454 1.379 . S
C448 N456 1.356 . S
C449 C448 1.363 . S
C449 C455 1.363 . S
C450 C451 1.363 . S
C450 C455 1.379 . S
C450 N457 1.356 . S
C451 C450 1.363 . S
C451 C454 1.363 . S
N452 C454 1.356 . S
N452 H464 0.984 . S
N452 H465 0.985 . S
N453 C455 1.356 . S
N453 H458 0.984 . S
N453 H459 0.985 . S
C454 C448 1.379 . S
C454 C451 1.363 . S
C454 N452 1.356 . S
C455 C449 1.363 . S
C455 C450 1.379 . S
C455 N453 1.356 . S
N456 C448 1.356 . S
N456 H462 0.984 . S
N456 H463 0.984 . S
N457 C450 1.356 . S
N457 H460 0.984 . S
N457 H461 0.985 . S
H458 N453 0.984 . S
H459 N453 0.985 . S
H460 N457 0.984 . S
H461 N457 0.985 . S
H462 N456 0.984 . S
H463 N456 0.984 . S
H464 N452 0.984 . S
H465 N452 0.985 . S
C466 C467 1.363 1_554 S
C466 C472 1.379 1_655 S
C466 N474 1.356 . S
C467 C466 1.363 1_556 S
C467 C473 1.363 . S
C468 C469 1.363 . S
C468 C473 1.379 1_455 S
C468 N475 1.356 . S
C469 C468 1.363 . S
C469 C472 1.363 1_556 S
N470 C472 1.356 . S
N470 H482 0.984 . S
N470 H483 0.985 . S
N471 C473 1.356 . S
N471 H476 0.984 . S
N471 H477 0.985 . S
C472 C466 1.379 1_455 S
C472 C469 1.363 1_554 S
C472 N470 1.356 . S
C473 C467 1.363 . S
C473 C468 1.379 1_655 S
C473 N471 1.356 . S
N474 C466 1.356 . S
N474 H480 0.984 . S
N474 H481 0.984 . S
N475 C468 1.356 . S
N475 H478 0.984 . S
N475 H479 0.985 . S
H476 N471 0.984 . S
H477 N471 0.985 . S
H478 N475 0.984 . S
H479 N475 0.985 . S
H480 N474 0.984 . S
H481 N474 0.984 . S
H482 N470 0.984 . S
H483 N470 0.985 . S
C484 C485 1.363 . S
C484 C490 1.379 . S
C484 N492 1.356 . S
C485 C484 1.363 . S
C485 C491 1.363 . S
C486 C487 1.363 . S
C486 C491 1.379 . S
C486 N493 1.356 . S
C487 C486 1.363 . S
C487 C490 1.363 . S
N488 C490 1.356 . S
N488 H500 0.984 . S
N488 H501 0.985 . S
N489 C491 1.356 . S
N489 H494 0.984 . S
N489 H495 0.985 . S
C490 C484 1.379 . S
C490 C487 1.363 . S
C490 N488 1.356 . S
C491 C485 1.363 . S
C491 C486 1.379 . S
C491 N489 1.356 . S
N492 C484 1.356 . S
N492 H498 0.984 . S
N492 H499 0.984 . S
N493 C486 1.356 . S
N493 H496 0.984 . S
N493 H497 0.985 . S
H494 N489 0.984 . S
H495 N489 0.985 . S
H496 N493 0.984 . S
H497 N493 0.985 . S
H498 N492 0.984 . S
H499 N492 0.984 . S
H500 N488 0.984 . S
H501 N488 0.985 . S
C502 C503 1.363 . S
C502 C508 1.379 . S
C502 N510 1.356 . S
C503 C502 1.363 . S
C503 C509 1.363 . S
C504 C505 1.363 . S
C504 C509 1.379 . S
C504 N511 1.356 . S
C505 C504 1.363 . S
C505 C508 1.363 . S
N506 C508 1.356 . S
N506 H518 0.984 . S
N506 H519 0.985 . S
N507 C509 1.356 . S
N507 H512 0.984 . S
N507 H513 0.985 . S
C508 C502 1.379 . S
C508 C505 1.363 . S
C508 N506 1.356 . S
C509 C503 1.363 . S
C509 C504 1.379 . S
C509 N507 1.356 . S
N510 C502 1.356 . S
N510 H516 0.984 . S
N510 H517 0.984 . S
N511 C504 1.356 . S
N511 H514 0.984 . S
N511 H515 0.985 . S
H512 N507 0.984 . S
H513 N507 0.985 . S
H514 N511 0.984 . S
H515 N511 0.985 . S
H516 N510 0.984 . S
H517 N510 0.984 . S
H518 N506 0.984 . S
H519 N506 0.985 . S
C520 C521 1.363 . S
C520 C526 1.379 . S
C520 N528 1.356 . S
C521 C520 1.363 . S
C521 C527 1.363 . S
C522 C523 1.363 . S
C522 C527 1.379 . S
C522 N529 1.356 . S
C523 C522 1.363 . S
C523 C526 1.363 . S
N524 C526 1.356 1_565 S
N524 H536 0.984 . S
N524 H537 0.985 . S
N525 C527 1.356 . S
N525 H530 0.984 . S
N525 H531 0.985 . S
C526 C520 1.379 . S
C526 C523 1.363 . S
C526 N524 1.356 1_545 S
C527 C521 1.363 . S
C527 C522 1.379 . S
C527 N525 1.356 . S
N528 C520 1.356 . S
N528 H534 0.984 . S
N528 H535 0.984 . S
N529 C522 1.356 . S
N529 H532 0.984 . S
N529 H533 0.985 . S
H530 N525 0.984 . S
H531 N525 0.985 . S
H532 N529 0.984 . S
H533 N529 0.985 . S
H534 N528 0.984 . S
H535 N528 0.984 . S
H536 N524 0.984 . S
H537 N524 0.985 . S
C538 C539 1.363 . S
C538 C544 1.379 . S
C538 N546 1.356 . S
C539 C538 1.363 . S
C539 C545 1.363 . S
C540 C541 1.363 . S
C540 C545 1.379 . S
C540 N547 1.356 . S
C541 C540 1.363 . S
C541 C544 1.363 . S
N542 C544 1.356 . S
N542 H554 0.984 . S
N542 H555 0.985 . S
N543 C545 1.356 . S
N543 H548 0.984 . S
N543 H549 0.985 . S
C544 C538 1.379 . S
C544 C541 1.363 . S
C544 N542 1.356 . S
C545 C539 1.363 . S
C545 C540 1.379 . S
C545 N543 1.356 . S
N546 C538 1.356 . S
N546 H552 0.984 . S
N546 H553 0.984 . S
N547 C540 1.356 . S
N547 H550 0.984 . S
N547 H551 0.985 . S
H548 N543 0.984 . S
H549 N543 0.985 . S
H550 N547 0.984 . S
H551 N547 0.985 . S
H552 N546 0.984 . S
H553 N546 0.984 . S
H554 N542 0.984 . S
H555 N542 0.985 . S
C556 C557 1.363 . S
C556 C562 1.379 . S
C556 N564 1.356 . S
C557 C556 1.363 . S
C557 C563 1.363 1_554 S
C558 C559 1.363 . S
C558 C563 1.379 1_545 S
C558 N565 1.356 . S
C559 C558 1.363 . S
C559 C562 1.363 1_546 S
N560 C562 1.356 . S
N560 H572 0.984 . S
N560 H573 0.985 1_564 S
N561 C563 1.356 . S
N561 H566 0.984 1_556 S
N561 H567 0.985 . S
C562 C556 1.379 . S
C562 C559 1.363 1_564 S
C562 N560 1.356 . S
C563 C557 1.363 1_556 S
C563 C558 1.379 1_565 S
C563 N561 1.356 . S
N564 C556 1.356 . S
N564 H570 0.984 . S
N564 H571 0.984 . S
N565 C558 1.356 . S
N565 H568 0.984 . S
N565 H569 0.985 . S
H566 N561 0.984 1_554 S
H567 N561 0.985 . S
H568 N565 0.984 . S
H569 N565 0.985 . S
H570 N564 0.984 . S
H571 N564 0.984 . S
H572 N560 0.984 . S
H573 N560 0.985 1_546 S
C574 C575 1.363 . S
C574 C580 1.379 . S
C574 N582 1.356 . S
C575 C574 1.363 . S
C575 C581 1.363 . S
C576 C577 1.363 . S
C576 C581 1.379 . S
C576 N583 1.356 . S
C577 C576 1.363 . S
C577 C580 1.363 . S
N578 C580 1.356 . S
N578 H590 0.984 . S
N578 H591 0.985 . S
N579 C581 1.356 . S
N579 H584 0.984 . S
N579 H585 0.985 . S
C580 C574 1.379 . S
C580 C577 1.363 . S
C580 N578 1.356 . S
C581 C575 1.363 . S
C581 C576 1.379 . S
C581 N579 1.356 . S
N582 C574 1.356 . S
N582 H588 0.984 . S
N582 H589 0.984 . S
N583 C576 1.356 . S
N583 H586 0.984 . S
N583 H587 0.985 . S
H584 N579 0.984 . S
H585 N579 0.985 . S
H586 N583 0.984 . S
H587 N583 0.985 . S
H588 N582 0.984 . S
H589 N582 0.984 . S
H590 N578 0.984 . S
H591 N578 0.985 . S
C592 C593 1.363 . S
C592 C598 1.379 . S
C592 N600 1.356 . S
C593 C592 1.363 . S
C593 C599 1.363 . S
C594 C595 1.363 . S
C594 C599 1.379 . S
C594 N601 1.356 . S
C595 C594 1.363 . S
C595 C598 1.363 . S
N596 C598 1.356 . S
N596 H608 0.984 . S
N596 H609 0.985 . S
N597 C599 1.356 . S
N597 H602 0.984 . S
N597 H603 0.985 . S
C598 C592 1.379 . S
C598 C595 1.363 . S
C598 N596 1.356 . S
C599 C593 1.363 . S
C599 C594 1.379 . S
C599 N597 1.356 . S
N600 C592 1.356 . S
N600 H606 0.984 . S
N600 H607 0.984 . S
N601 C594 1.356 . S
N601 H604 0.984 . S
N601 H605 0.985 . S
H602 N597 0.984 . S
H603 N597 0.985 . S
H604 N601 0.984 . S
H605 N601 0.985 . S
H606 N600 0.984 . S
H607 N600 0.984 . S
H608 N596 0.984 . S
H609 N596 0.985 . S
C610 C611 1.363 . S
C610 C616 1.379 1_455 S
C610 N618 1.356 . S
C611 C610 1.363 . S
C611 C617 1.363 . S
C612 C613 1.363 . S
C612 C617 1.379 1_655 S
C612 N619 1.356 . S
C613 C612 1.363 . S
C613 C616 1.363 . S
N614 C616 1.356 . S
N614 H626 0.984 . S
N614 H627 0.985 . S
N615 C617 1.356 . S
N615 H620 0.984 . S
N615 H621 0.985 . S
C616 C610 1.379 1_655 S
C616 C613 1.363 . S
C616 N614 1.356 . S
C617 C611 1.363 . S
C617 C612 1.379 1_455 S
C617 N615 1.356 . S
N618 C610 1.356 . S
N618 H624 0.984 . S
N618 H625 0.984 . S
N619 C612 1.356 . S
N619 H622 0.984 . S
N619 H623 0.985 . S
H620 N615 0.984 . S
H621 N615 0.985 . S
H622 N619 0.984 . S
H623 N619 0.985 . S
H624 N618 0.984 . S
H625 N618 0.984 . S
H626 N614 0.984 . S
H627 N614 0.985 . S
C628 C629 1.363 . S
C628 C634 1.379 . S
C628 N636 1.356 . S
C629 C628 1.363 . S
C629 C635 1.363 . S
C630 C631 1.363 . S
C630 C635 1.379 . S
C630 N637 1.356 . S
C631 C630 1.363 . S
C631 C634 1.363 . S
N632 C634 1.356 . S
N632 H644 0.984 . S
N632 H645 0.985 . S
N633 C635 1.356 . S
N633 H638 0.984 . S
N633 H639 0.985 . S
C634 C628 1.379 . S
C634 C631 1.363 . S
C634 N632 1.356 . S
C635 C629 1.363 . S
C635 C630 1.379 . S
C635 N633 1.356 . S
N636 C628 1.356 . S
N636 H642 0.984 . S
N636 H643 0.984 . S
N637 C630 1.356 . S
N637 H640 0.984 . S
N637 H641 0.985 . S
H638 N633 0.984 . S
H639 N633 0.985 . S
H640 N637 0.984 . S
H641 N637 0.985 . S
H642 N636 0.984 . S
H643 N636 0.984 . S
H644 N632 0.984 . S
H645 N632 0.985 . S
C646 C647 1.363 . S
C646 C652 1.379 . S
C646 N654 1.356 . S
C647 C646 1.363 . S
C647 C653 1.363 . S
C648 C649 1.363 . S
C648 C653 1.379 . S
C648 N655 1.356 . S
C649 C648 1.363 . S
C649 C652 1.363 . S
N650 C652 1.356 . S
N650 H662 0.984 . S
N650 H663 0.985 . S
N651 C653 1.356 . S
N651 H656 0.984 . S
N651 H657 0.985 . S
C652 C646 1.379 . S
C652 C649 1.363 . S
C652 N650 1.356 . S
C653 C647 1.363 . S
C653 C648 1.379 . S
C653 N651 1.356 . S
N654 C646 1.356 . S
N654 H660 0.984 . S
N654 H661 0.984 . S
N655 C648 1.356 . S
N655 H658 0.984 . S
N655 H659 0.985 . S
H656 N651 0.984 . S
H657 N651 0.985 . S
H658 N655 0.984 . S
H659 N655 0.985 . S
H660 N654 0.984 . S
H661 N654 0.984 . S
H662 N650 0.984 . S
H663 N650 0.985 . S
C664 C665 1.363 . S
C664 C670 1.379 . S
C664 N672 1.356 . S
C665 C664 1.363 . S
C665 C671 1.363 . S
C666 C667 1.363 . S
C666 C671 1.379 . S
C666 N673 1.356 . S
C667 C666 1.363 . S
C667 C670 1.363 . S
N668 C670 1.356 . S
N668 H680 0.984 . S
N668 H681 0.985 . S
N669 C671 1.356 . S
N669 H674 0.984 . S
N669 H675 0.985 . S
C670 C664 1.379 . S
C670 C667 1.363 . S
C670 N668 1.356 . S
C671 C665 1.363 . S
C671 C666 1.379 . S
C671 N669 1.356 . S
N672 C664 1.356 . S
N672 H678 0.984 . S
N672 H679 0.984 . S
N673 C666 1.356 . S
N673 H676 0.984 . S
N673 H677 0.985 . S
H674 N669 0.984 . S
H675 N669 0.985 . S
H676 N673 0.984 . S
H677 N673 0.985 . S
H678 N672 0.984 . S
H679 N672 0.984 . S
H680 N668 0.984 . S
H681 N668 0.985 . S
C682 C683 1.363 . S
C682 C688 1.379 . S
C682 N690 1.356 . S
C683 C682 1.363 . S
C683 C689 1.363 . S
C684 C685 1.363 . S
C684 C689 1.379 . S
C684 N691 1.356 . S
C685 C684 1.363 . S
C685 C688 1.363 . S
N686 C688 1.356 . S
N686 H698 0.984 . S
N686 H699 0.985 . S
N687 C689 1.356 . S
N687 H692 0.984 . S
N687 H693 0.985 . S
C688 C682 1.379 . S
C688 C685 1.363 . S
C688 N686 1.356 . S
C689 C683 1.363 . S
C689 C684 1.379 . S
C689 N687 1.356 . S
N690 C682 1.356 . S
N690 H696 0.984 . S
N690 H697 0.984 . S
N691 C684 1.356 . S
N691 H694 0.984 . S
N691 H695 0.985 . S
H692 N687 0.984 . S
H693 N687 0.985 . S
H694 N691 0.984 . S
H695 N691 0.985 . S
H696 N690 0.984 . S
H697 N690 0.984 . S
H698 N686 0.984 . S
H699 N686 0.985 . S
C700 C701 1.363 . S
C700 C706 1.379 . S
C700 N708 1.356 . S
C701 C700 1.363 . S
C701 C707 1.363 . S
C702 C703 1.363 . S
C702 C707 1.379 . S
C702 N709 1.356 . S
C703 C702 1.363 . S
C703 C706 1.363 . S
N704 C706 1.356 . S
N704 H716 0.984 . S
N704 H717 0.985 . S
N705 C707 1.356 . S
N705 H710 0.984 . S
N705 H711 0.985 1_554 S
C706 C700 1.379 . S
C706 C703 1.363 . S
C706 N704 1.356 . S
C707 C701 1.363 . S
C707 C702 1.379 . S
C707 N705 1.356 . S
N708 C700 1.356 . S
N708 H714 0.984 . S
N708 H715 0.984 . S
N709 C702 1.356 . S
N709 H712 0.984 . S
N709 H713 0.985 . S
H710 N705 0.984 . S
H711 N705 0.985 1_556 S
H712 N709 0.984 . S
H713 N709 0.985 . S
H714 N708 0.984 . S
H715 N708 0.984 . S
H716 N704 0.984 . S
H717 N704 0.985 . S
C718 C719 1.363 . S
C718 C724 1.379 . S
C718 N726 1.356 . S
C719 C718 1.363 . S
C719 C725 1.363 . S
C720 C721 1.363 . S
C720 C725 1.379 . S
C720 N727 1.356 . S
C721 C720 1.363 . S
C721 C724 1.363 . S
N722 C724 1.356 . S
N722 H734 0.984 . S
N722 H735 0.985 . S
N723 C725 1.356 . S
N723 H728 0.984 . S
N723 H729 0.985 . S
C724 C718 1.379 . S
C724 C721 1.363 . S
C724 N722 1.356 . S
C725 C719 1.363 . S
C725 C720 1.379 . S
C725 N723 1.356 . S
N726 C718 1.356 . S
N726 H732 0.984 . S
N726 H733 0.984 . S
N727 C720 1.356 . S
N727 H730 0.984 . S
N727 H731 0.985 . S
H728 N723 0.984 . S
H729 N723 0.985 . S
H730 N727 0.984 . S
H731 N727 0.985 . S
H732 N726 0.984 . S
H733 N726 0.984 . S
H734 N722 0.984 . S
H735 N722 0.985 . S
C736 C737 1.363 . S
C736 C742 1.379 . S
C736 N744 1.356 . S
C737 C736 1.363 . S
C737 C743 1.363 . S
C738 C739 1.363 . S
C738 C743 1.379 . S
C738 N745 1.356 . S
C739 C738 1.363 . S
C739 C742 1.363 . S
N740 C742 1.356 . S
N740 H752 0.984 . S
N740 H753 0.985 . S
N741 C743 1.356 . S
N741 H746 0.984 . S
N741 H747 0.985 . S
C742 C736 1.379 . S
C742 C739 1.363 . S
C742 N740 1.356 . S
C743 C737 1.363 . S
C743 C738 1.379 . S
C743 N741 1.356 . S
N744 C736 1.356 . S
N744 H750 0.984 . S
N744 H751 0.984 . S
N745 C738 1.356 . S
N745 H748 0.984 . S
N745 H749 0.985 . S
H746 N741 0.984 . S
H747 N741 0.985 . S
H748 N745 0.984 . S
H749 N745 0.985 . S
H750 N744 0.984 . S
H751 N744 0.984 . S
H752 N740 0.984 . S
H753 N740 0.985 . S
C754 C755 1.363 . S
C754 C760 1.379 . S
C754 N762 1.356 . S
C755 C754 1.363 . S
C755 C761 1.363 . S
C756 C757 1.363 . S
C756 C761 1.379 . S
C756 N763 1.356 . S
C757 C756 1.363 . S
C757 C760 1.363 . S
N758 C760 1.356 . S
N758 H770 0.984 . S
N758 H771 0.985 . S
N759 C761 1.356 . S
N759 H764 0.984 . S
N759 H765 0.985 . S
C760 C754 1.379 . S
C760 C757 1.363 . S
C760 N758 1.356 . S
C761 C755 1.363 . S
C761 C756 1.379 . S
C761 N759 1.356 . S
N762 C754 1.356 . S
N762 H768 0.984 . S
N762 H769 0.984 . S
N763 C756 1.356 . S
N763 H766 0.984 . S
N763 H767 0.985 . S
H764 N759 0.984 . S
H765 N759 0.985 . S
H766 N763 0.984 . S
H767 N763 0.985 . S
H768 N762 0.984 . S
H769 N762 0.984 . S
H770 N758 0.984 . S
H771 N758 0.985 . S
C772 C773 1.363 . S
C772 C778 1.379 . S
C772 N780 1.356 . S
C773 C772 1.363 . S
C773 C779 1.363 . S
C774 C775 1.363 . S
C774 C779 1.379 . S
C774 N781 1.356 . S
C775 C774 1.363 . S
C775 C778 1.363 . S
N776 C778 1.356 . S
N776 H788 0.984 . S
N776 H789 0.985 . S
N777 C779 1.356 . S
N777 H782 0.984 . S
N777 H783 0.985 . S
C778 C772 1.379 . S
C778 C775 1.363 . S
C778 N776 1.356 . S
C779 C773 1.363 . S
C779 C774 1.379 . S
C779 N777 1.356 . S
N780 C772 1.356 . S
N780 H786 0.984 . S
N780 H787 0.984 . S
N781 C774 1.356 . S
N781 H784 0.984 . S
N781 H785 0.985 . S
H782 N777 0.984 . S
H783 N777 0.985 . S
H784 N781 0.984 . S
H785 N781 0.985 . S
H786 N780 0.984 . S
H787 N780 0.984 . S
H788 N776 0.984 . S
H789 N776 0.985 . S
C790 C791 1.364 1_556 S
C790 C796 1.383 . S
C790 N798 1.351 1_556 S
C791 C790 1.364 1_554 S
C791 C797 1.363 1_554 S
C792 C793 1.363 . S
C792 C797 1.379 . S
C792 N799 1.356 . S
C793 C792 1.363 . S
C793 C796 1.363 . S
N794 C796 1.356 . S
N794 H806 0.984 . S
N794 H807 0.985 . S
N795 C797 1.356 1_554 S
N795 H800 0.990 . S
N795 H801 0.981 1_554 S
C796 C790 1.383 . S
C796 C793 1.363 . S
C796 N794 1.356 . S
C797 C791 1.363 1_556 S
C797 C792 1.379 . S
C797 N795 1.356 1_556 S
N798 C790 1.351 1_554 S
N798 H804 0.984 . S
N798 H805 0.984 . S
N799 C792 1.356 . S
N799 H802 0.984 . S
N799 H803 0.985 . S
H800 N795 0.990 . S
H801 N795 0.981 1_556 S
H802 N799 0.984 . S
H803 N799 0.985 . S
H804 N798 0.984 . S
H805 N798 0.984 . S
H806 N794 0.984 . S
H807 N794 0.985 . S
C377 C7 1.738 . S
C379 C119 1.564 . S
C395 C37 1.770 . S
C397 C155 1.523 . S
C413 C54 1.907 . S
C415 C191 1.693 . S
C433 C221 1.564 . S
C431 C87 1.590 . S
C451 C263 1.525 . S
C449 C30 1.684 . S
C467 C51 1.640 . S
C469 C293 1.607 . S
C485 C84 1.949 . S
C487 C329 1.752 . S
C503 C10 1.725 . S
C505 C371 1.491 . S
C521 C59 1.728 . S
C523 C341 1.595 . S
C541 C233 1.519 . S
C539 C74 1.711 . S
C559 C299 1.793 . S
C557 C18 1.949 . S
C575 C32 1.632 . S
C577 C335 1.592 . S
C595 C125 1.591 . S
C593 C73 1.727 . S
C611 C15 1.626 . S
C613 C185 1.526 . S
C631 C227 1.836 . S
C629 C43 1.978 . S
C649 C89 1.521 . S
C647 C62 1.711 . S
C667 C305 1.669 . S
C665 C21 1.737 . S
C685 C365 1.410 . S
C683 C29 1.469 . S
C701 C52 1.441 . S
C703 C257 1.347 . S
C721 C269 1.636 . S
C719 C81 1.718 . S
C739 C161 1.565 . S
C737 C40 1.687 . S
C755 C65 1.705 . S
C757 C197 1.620 . S
C775 C113 1.356 . S
C773 C76 1.451 . S
C793 C149 1.405 . S
C791 C8 1.485 . S
