# Generated by pormake.
# Topology apo, (3,6)-cn, num edge types: 1
# Building blocks:
#     Node 0, Type 0, BuildingBlock: QEWDON_clean_linker_0, # of connection points: 3
#     Node 1, Type 0, BuildingBlock: QEWDON_clean_linker_0, # of connection points: 3
#     Node 2, Type 0, BuildingBlock: QEWDON_clean_linker_0, # of connection points: 3
#     Node 3, Type 0, BuildingBlock: QEWDON_clean_linker_0, # of connection points: 3
#     Node 4, Type 0, BuildingBlock: QEWDON_clean_linker_0, # of connection points: 3
#     Node 5, Type 0, BuildingBlock: QEWDON_clean_linker_0, # of connection points: 3
#     Node 6, Type 0, BuildingBlock: QEWDON_clean_linker_0, # of connection points: 3
#     Node 7, Type 0, BuildingBlock: QEWDON_clean_linker_0, # of connection points: 3
#     Node 8, Type 1, BuildingBlock: KUMBOL_clean_sbu_1, # of connection points: 6
#     Node 9, Type 1, BuildingBlock: KUMBOL_clean_sbu_1, # of connection points: 6
#     Node 10, Type 1, BuildingBlock: KUMBOL_clean_sbu_1, # of connection points: 6
#     Node 11, Type 1, BuildingBlock: KUMBOL_clean_sbu_1, # of connection points: 6
#     Edge 12, Type (0, 1), BuildingBlock: ZUJKAS_clean_linker_0, # of connection points: 2
#     Edge 13, Type (0, 1), BuildingBlock: ZUJKAS_clean_linker_0, # of connection points: 2
#     Edge 14, Type (0, 1), BuildingBlock: ZUJKAS_clean_linker_0, # of connection points: 2
#     Edge 15, Type (0, 1), BuildingBlock: ZUJKAS_clean_linker_0, # of connection points: 2
#     Edge 16, Type (0, 1), BuildingBlock: ZUJKAS_clean_linker_0, # of connection points: 2
#     Edge 17, Type (0, 1), BuildingBlock: ZUJKAS_clean_linker_0, # of connection points: 2
#     Edge 18, Type (0, 1), BuildingBlock: ZUJKAS_clean_linker_0, # of connection points: 2
#     Edge 19, Type (0, 1), BuildingBlock: ZUJKAS_clean_linker_0, # of connection points: 2
#     Edge 20, Type (0, 1), BuildingBlock: ZUJKAS_clean_linker_0, # of connection points: 2
#     Edge 21, Type (0, 1), BuildingBlock: ZUJKAS_clean_linker_0, # of connection points: 2
#     Edge 22, Type (0, 1), BuildingBlock: ZUJKAS_clean_linker_0, # of connection points: 2
#     Edge 23, Type (0, 1), BuildingBlock: ZUJKAS_clean_linker_0, # of connection points: 2
#     Edge 24, Type (0, 1), BuildingBlock: ZUJKAS_clean_linker_0, # of connection points: 2
#     Edge 25, Type (0, 1), BuildingBlock: ZUJKAS_clean_linker_0, # of connection points: 2
#     Edge 26, Type (0, 1), BuildingBlock: ZUJKAS_clean_linker_0, # of connection points: 2
#     Edge 27, Type (0, 1), BuildingBlock: ZUJKAS_clean_linker_0, # of connection points: 2
#     Edge 28, Type (0, 1), BuildingBlock: ZUJKAS_clean_linker_0, # of connection points: 2
#     Edge 29, Type (0, 1), BuildingBlock: ZUJKAS_clean_linker_0, # of connection points: 2
#     Edge 30, Type (0, 1), BuildingBlock: ZUJKAS_clean_linker_0, # of connection points: 2
#     Edge 31, Type (0, 1), BuildingBlock: ZUJKAS_clean_linker_0, # of connection points: 2
#     Edge 32, Type (0, 1), BuildingBlock: ZUJKAS_clean_linker_0, # of connection points: 2
#     Edge 33, Type (0, 1), BuildingBlock: ZUJKAS_clean_linker_0, # of connection points: 2
#     Edge 34, Type (0, 1), BuildingBlock: ZUJKAS_clean_linker_0, # of connection points: 2
#     Edge 35, Type (0, 1), BuildingBlock: ZUJKAS_clean_linker_0, # of connection points: 2
# Relax obj value: 0.074
# Max RMSD: 0.251
# Mean RMSD: 0.202
data_MOF--net-apo--node1-KUMBOL_clean_sbu_1--node2-QEWDON_clean_linker_0--edge1-ZUJKAS_clean_linker_0
_symmetry_space_group_name_H-M    P1
_symmetry_Int_Tables_number       1
_symmetry_cell_setting            triclinic
loop_
_symmetry_equiv_pos_as_xyz
'x, y, z'
_cell_length_a     38.047732
_cell_length_b     55.596136
_cell_length_c     65.062729
_cell_angle_alpha  90.002473
_cell_angle_beta   89.95631
_cell_angle_gamma 90.436218
loop_
_atom_site_label
_atom_site_type_symbol
_atom_site_fract_x
_atom_site_fract_y
_atom_site_fract_z
_atom_type_partial_charge
H0 H 0.2615 0.37751 0.39298 0.0
C1 C 0.27316 0.37893 0.4081 0.0
C2 C 0.30058 0.39583 0.41194 0.0
C3 C 0.26018 0.36429 0.42424 0.0
H4 H 0.331 0.41276 0.43623 0.0
C5 C 0.31305 0.39832 0.43221 0.0
C6 C 0.30245 0.38271 0.44777 0.0
C7 C 0.27686 0.36537 0.44355 0.0
C8 C 0.22723 0.34958 0.42269 0.0
H9 H 0.26885 0.35321 0.45575 0.0
C10 C 0.21901 0.33438 0.40583 0.0
C11 C 0.18899 0.31903 0.40673 0.0
C12 C 0.20408 0.35011 0.43961 0.0
H13 H 0.20845 0.36232 0.45235 0.0
C14 C 0.17581 0.33438 0.44091 0.0
H15 H 0.23584 0.33437 0.3924 0.0
C16 C 0.16888 0.31858 0.42496 0.0
H17 H 0.14725 0.30604 0.42699 0.0
H18 H 0.15931 0.3343 0.45447 0.0
H19 H 0.2512 0.14965 0.89153 0.0
C20 C 0.24176 0.14754 0.90711 0.0
C21 C 0.21574 0.12994 0.91185 0.0
C22 C 0.25662 0.16197 0.92283 0.0
H23 H 0.18806 0.11278 0.93708 0.0
C24 C 0.20594 0.12702 0.93263 0.0
C25 C 0.21867 0.1422 0.94811 0.0
C26 C 0.24335 0.15993 0.94298 0.0
C27 C 0.28875 0.1771 0.91948 0.0
H28 H 0.2538 0.1714 0.95502 0.0
C29 C 0.29306 0.19274 0.90246 0.0
C30 C 0.32404 0.20682 0.90061 0.0
C31 C 0.31589 0.17581 0.93419 0.0
H32 H 0.31397 0.16364 0.94715 0.0
C33 C 0.34593 0.19003 0.9325 0.0
H34 H 0.2727 0.19398 0.89088 0.0
C35 C 0.34999 0.20544 0.91589 0.0
H36 H 0.37365 0.21638 0.91491 0.0
H37 H 0.36626 0.189 0.94409 0.0
H38 H 0.7672 0.14911 0.6324 0.0
C39 C 0.77956 0.14928 0.61738 0.0
C40 C 0.80736 0.13342 0.61315 0.0
C41 C 0.76569 0.16371 0.60157 0.0
H42 H 0.84309 0.12037 0.59007 0.0
C43 C 0.82213 0.13291 0.59341 0.0
C44 C 0.80889 0.14732 0.57764 0.0
C45 C 0.78074 0.16269 0.58181 0.0
C46 C 0.73187 0.17648 0.60419 0.0
H47 H 0.76969 0.17332 0.56946 0.0
C48 C 0.72742 0.19557 0.6183 0.0
C49 C 0.69533 0.20827 0.61884 0.0
C50 C 0.70376 0.1698 0.59135 0.0
H51 H 0.70651 0.15515 0.58049 0.0
C52 C 0.67194 0.18187 0.59227 0.0
H53 H 0.74904 0.20104 0.62812 0.0
C54 C 0.66773 0.20096 0.60582 0.0
H55 H 0.64261 0.21001 0.60619 0.0
H56 H 0.65048 0.1765 0.58232 0.0
H57 H 0.75241 0.3774 0.13023 0.0
C58 C 0.73874 0.37749 0.11562 0.0
C59 C 0.71202 0.39453 0.11201 0.0
C60 C 0.74944 0.36188 0.09969 0.0
H61 H 0.67605 0.40893 0.08966 0.0
C62 C 0.69588 0.39547 0.09262 0.0
C63 C 0.70591 0.38002 0.07676 0.0
C64 C 0.73175 0.36282 0.08066 0.0
C65 C 0.78193 0.34697 0.10111 0.0
H66 H 0.73916 0.35064 0.06841 0.0
C67 C 0.79024 0.33236 0.1183 0.0
C68 C 0.82067 0.31771 0.1179 0.0
C69 C 0.80494 0.34714 0.08412 0.0
H70 H 0.80025 0.35869 0.07101 0.0
C71 C 0.83402 0.33229 0.08349 0.0
H72 H 0.7733 0.33232 0.13169 0.0
C73 C 0.84156 0.3175 0.10002 0.0
H74 H 0.86411 0.3058 0.09876 0.0
H75 H 0.85082 0.33221 0.07005 0.0
H76 H 0.73764 0.65708 0.62981 0.0
C77 C 0.73323 0.6524 0.61385 0.0
C78 C 0.71625 0.63054 0.60879 0.0
C79 C 0.7428 0.66876 0.59829 0.0
H80 H 0.69278 0.60971 0.58448 0.0
C81 C 0.70839 0.62552 0.5881 0.0
C82 C 0.71798 0.6415 0.57234 0.0
C83 C 0.73654 0.66254 0.57761 0.0
C84 C 0.75399 0.69387 0.60313 0.0
H85 H 0.74474 0.67488 0.56562 0.0
C86 C 0.78111 0.69947 0.61728 0.0
C87 C 0.79159 0.7237 0.62017 0.0
C88 C 0.73686 0.71277 0.59288 0.0
H89 H 0.7154 0.70913 0.58236 0.0
C90 C 0.74695 0.73656 0.59601 0.0
H91 H 0.79454 0.68523 0.6254 0.0
C92 C 0.77423 0.742 0.60942 0.0
H93 H 0.78171 0.76069 0.61156 0.0
H94 H 0.73361 0.75085 0.58793 0.0
H95 H 0.77946 0.87005 0.13033 0.0
C96 C 0.7823 0.87496 0.11429 0.0
C97 C 0.80114 0.89589 0.10892 0.0
C98 C 0.77083 0.85903 0.09889 0.0
H99 H 0.82453 0.9162 0.08444 0.0
C100 C 0.80807 0.90084 0.08811 0.0
C101 C 0.79614 0.88545 0.0724 0.0
C102 C 0.776 0.86517 0.0781 0.0
C103 C 0.76236 0.83359 0.10389 0.0
H104 H 0.7663 0.8529 0.06646 0.0
C105 C 0.73387 0.82658 0.11657 0.0
C106 C 0.72678 0.80185 0.11981 0.0
C107 C 0.78417 0.81583 0.09543 0.0
H108 H 0.80657 0.82077 0.08598 0.0
C109 C 0.77767 0.79159 0.09907 0.0
H110 H 0.71693 0.84008 0.12325 0.0
C111 C 0.74916 0.78462 0.11107 0.0
H112 H 0.74475 0.76558 0.1137 0.0
H113 H 0.79477 0.77814 0.09251 0.0
H114 H 0.23187 0.86663 0.38696 0.0
C115 C 0.22854 0.87176 0.40292 0.0
C116 C 0.21096 0.89317 0.4078 0.0
C117 C 0.23876 0.856 0.41871 0.0
H118 H 0.18872 0.91471 0.4318 0.0
C119 C 0.20409 0.89887 0.42839 0.0
C120 C 0.2148 0.88365 0.44434 0.0
C121 C 0.23315 0.86265 0.43932 0.0
C122 C 0.24959 0.83095 0.41418 0.0
H123 H 0.2416 0.85068 0.45147 0.0
C124 C 0.27659 0.82548 0.40008 0.0
C125 C 0.28673 0.80137 0.39723 0.0
C126 C 0.23223 0.81204 0.42454 0.0
H127 H 0.21087 0.81567 0.43509 0.0
C128 C 0.24193 0.78827 0.42139 0.0
H129 H 0.29021 0.83978 0.39193 0.0
C130 C 0.26914 0.78294 0.40794 0.0
H131 H 0.2764 0.7643 0.40575 0.0
H132 H 0.22838 0.77393 0.42947 0.0
H133 H 0.28147 0.65896 0.8881 0.0
C134 C 0.28745 0.65429 0.90386 0.0
C135 C 0.30725 0.63347 0.90827 0.0
C136 C 0.27654 0.66956 0.91999 0.0
H137 H 0.33689 0.61566 0.93192 0.0
C138 C 0.31769 0.6294 0.92869 0.0
C139 C 0.30478 0.64319 0.94493 0.0
C140 C 0.28266 0.66243 0.94042 0.0
C141 C 0.26304 0.69435 0.91629 0.0
H142 H 0.27171 0.67287 0.9529 0.0
C143 C 0.24013 0.70008 0.89995 0.0
C144 C 0.22876 0.72399 0.89741 0.0
C145 C 0.27448 0.71301 0.9295 0.0
H146 H 0.29323 0.70969 0.94167 0.0
C147 C 0.26249 0.73638 0.92716 0.0
H148 H 0.23139 0.68629 0.88931 0.0
C149 C 0.23969 0.74185 0.91126 0.0
H150 H 0.23101 0.76027 0.90949 0.0
H151 H 0.27134 0.75038 0.93754 0.0
C152 C 0.88716 0.0819 0.26954 0.0
C153 C 0.88313 0.03897 0.27623 0.0
C154 C 0.90281 0.06055 0.27591 0.0
C155 C 0.84821 0.03887 0.26921 0.0
C156 C 0.8519 0.08192 0.26286 0.0
C157 C 0.8327 0.06025 0.26248 0.0
N158 N 0.90637 0.10264 0.27002 0.0
C159 C 0.89148 0.12408 0.26501 0.0
C160 C 0.83687 0.10378 0.25698 0.0
C161 C 0.85666 0.12498 0.25824 0.0
Gd162 Gd 0.04454 0.09768 0.24068 0.0
Gd163 Gd 0.96394 0.09891 0.28229 0.0
N164 N 0.93704 0.061 0.28209 0.0
C165 C 0.89887 0.01825 0.28411 0.0
C166 C 0.95152 0.04142 0.29117 0.0
C167 C 0.93297 0.01961 0.29201 0.0
H168 H 0.97665 0.04294 0.29859 0.0
H169 H 0.94469 1.00402 0.29914 0.0
H170 H 0.03076 0.15507 0.2266 0.0
H171 H 0.90594 0.14057 0.26708 0.0
H172 H 0.0651 0.19239 0.22246 0.0
H173 H 0.8845 1.00137 0.28485 0.0
H174 H 0.8328 0.0224 0.26918 0.0
H175 H 0.10133 0.05584 0.25766 0.0
H176 H 0.80982 0.10455 0.25183 0.0
H177 H 0.84496 0.14206 0.25432 0.0
H178 H 0.18201 0.17051 0.24215 0.0
H179 H 0.80564 0.05991 0.25731 0.0
H180 H 0.20212 0.0895 0.26386 0.0
H181 H 0.164 0.05343 0.26673 0.0
N182 N 0.10308 0.09339 0.25126 0.0
C183 C 0.12378 0.11324 0.24889 0.0
C184 C 0.11723 0.07199 0.25723 0.0
C185 C 0.1744 0.0908 0.26025 0.0
C186 C 0.15295 0.07043 0.262 0.0
C187 C 0.16 0.1125 0.25348 0.0
H188 H 0.2086 0.13305 0.25452 0.0
N189 N 0.07351 0.13486 0.23813 0.0
C190 C 0.10873 0.13441 0.24178 0.0
C191 C 0.11356 0.1764 0.23244 0.0
C192 C 0.12962 0.15531 0.23927 0.0
C193 C 0.05799 0.15516 0.23084 0.0
C194 C 0.07762 0.17628 0.22812 0.0
O195 O 0.95512 0.0813 0.25124 0.0
O196 O 0.00848 0.06561 0.24235 0.0
O197 O 0.04178 0.10281 0.20669 0.0
O198 O 0.07771 0.07729 0.22092 0.0
O199 O 0.01405 0.0799 0.29163 0.0
O200 O 0.03885 0.06551 0.26161 0.0
O201 O 0.05422 0.11894 0.27018 0.0
O202 O 1.0002 0.13112 0.28341 0.0
O203 O 0.96854 0.09405 0.31572 0.0
O204 O 0.92403 0.11239 0.30257 0.0
O205 O 0.99399 0.11708 0.23248 0.0
O206 O 0.97037 0.13223 0.26275 0.0
C207 C 0.97429 0.06639 0.24043 0.0
C208 C 0.03626 0.06604 0.28175 0.0
C209 C 0.08155 0.07893 0.18415 0.0
C210 C 0.09464 0.0838 0.14749 0.0
C211 C 0.1183 0.04991 0.16637 0.0
C212 C 0.10179 0.05782 0.18415 0.0
C213 C 0.11479 0.06274 0.1482 0.0
C214 C 0.07812 0.09211 0.16564 0.0
C215 C 0.06689 0.08719 0.20407 0.0
C216 C 0.16563 0.15461 0.24392 0.0
C217 C 0.18076 0.13329 0.25102 0.0
H218 H 0.12868 0.19281 0.23033 0.0
C219 C 0.03482 0.13234 0.28254 0.0
C220 C 0.97519 0.13307 0.24264 0.0
C221 C 0.93509 0.12023 0.33756 0.0
C222 C 0.92527 0.1236 0.3745 0.0
C223 C 0.91728 0.15833 0.35242 0.0
C224 C 0.92672 0.14469 0.33535 0.0
C225 C 0.91652 0.14788 0.37188 0.0
C226 C 0.93437 0.10969 0.35728 0.0
C227 C 0.93885 0.10484 0.31928 0.0
H228 H 0.13416 0.03383 0.16672 0.0
H229 H 0.10533 0.0474 0.19805 0.0
H230 H 0.12842 0.05636 0.13464 0.0
H231 H 0.06318 0.10862 0.16537 0.0
H232 H 0.90992 0.17696 0.35053 0.0
H233 H 0.92629 0.15308 0.32033 0.0
H234 H 0.90846 0.15865 0.38491 0.0
H235 H 0.93985 0.0907 0.35913 0.0
C236 C 0.62669 0.44631 0.76726 0.0
C237 C 0.62914 0.48937 0.77362 0.0
C238 C 0.61007 0.46751 0.7732 0.0
C239 C 0.66458 0.48977 0.76756 0.0
C240 C 0.66231 0.4467 0.76126 0.0
C241 C 0.68106 0.46854 0.76134 0.0
N242 N 0.60831 0.42524 0.76786 0.0
C243 C 0.62397 0.40399 0.76301 0.0
C244 C 0.67829 0.42503 0.75572 0.0
C245 C 0.65904 0.40358 0.75665 0.0
Gd246 Gd 0.47009 0.42704 0.74039 0.0
Gd247 Gd 0.55088 0.42797 0.78034 0.0
N248 N 0.57567 0.46665 0.77912 0.0
C249 C 0.61233 0.51008 0.78069 0.0
C250 C 0.55984 0.48653 0.78703 0.0
C251 C 0.57765 0.50859 0.7876 0.0
H252 H 0.53409 0.48539 0.7937 0.0
H253 H 0.56488 0.52433 0.79382 0.0
H254 H 0.48516 0.36947 0.72727 0.0
H255 H 0.60995 0.38725 0.76485 0.0
H256 H 0.45338 0.33086 0.72734 0.0
H257 H 0.6262 0.52716 0.78142 0.0
H258 H 0.67963 0.50639 0.76788 0.0
H259 H 0.41217 0.46859 0.75614 0.0
H260 H 0.70563 0.4246 0.75107 0.0
H261 H 0.67138 0.38667 0.75287 0.0
H262 H 0.33939 0.35024 0.75374 0.0
H263 H 0.70851 0.46914 0.7569 0.0
H264 H 0.31594 0.43237 0.7708 0.0
H265 H 0.35115 0.46987 0.76876 0.0
N266 N 0.41274 0.43056 0.75301 0.0
C267 C 0.39369 0.40977 0.75358 0.0
C268 C 0.39775 0.452 0.75804 0.0
C269 C 0.34308 0.43162 0.7658 0.0
C270 C 0.36289 0.45283 0.76475 0.0
C271 C 0.35826 0.40979 0.75998 0.0
H272 H 0.31171 0.38785 0.76492 0.0
N273 N 0.44394 0.3888 0.74159 0.0
C274 C 0.40957 0.38838 0.74752 0.0
C275 C 0.40631 0.34575 0.74043 0.0
C276 C 0.39003 0.36672 0.74738 0.0
C277 C 0.4593 0.36867 0.73384 0.0
C278 C 0.44098 0.3468 0.73343 0.0
O279 O 0.55828 0.44432 0.74863 0.0
O280 O 0.50478 0.46001 0.73905 0.0
O281 O 0.47406 0.42025 0.70726 0.0
O282 O 0.43078 0.44076 0.71969 0.0
O283 O 0.5001 0.44655 0.78891 0.0
O284 O 0.47576 0.46109 0.75887 0.0
O285 O 0.46291 0.40975 0.77178 0.0
O286 O 0.51664 0.39476 0.78179 0.0
O287 O 0.54563 0.43349 0.8136 0.0
O288 O 0.5913 0.41592 0.80104 0.0
O289 O 0.52055 0.40774 0.7318 0.0
O290 O 0.54596 0.39381 0.76186 0.0
C291 C 0.53927 0.46014 0.73873 0.0
C292 C 0.48013 0.46187 0.77893 0.0
C293 C 0.44114 0.44498 0.68399 0.0
C294 C 0.42709 0.44417 0.64743 0.0
C295 C 0.42773 0.48205 0.66596 0.0
C296 C 0.43691 0.47007 0.68403 0.0
C297 C 0.4227 0.46918 0.64776 0.0
C298 C 0.43645 0.4321 0.66555 0.0
C299 C 0.44489 0.43153 0.70335 0.0
C300 C 0.35478 0.36672 0.75379 0.0
C301 C 0.33899 0.38816 0.76013 0.0
H302 H 0.3921 0.3288 0.73994 0.0
C303 C 0.48208 0.39396 0.78169 0.0
C304 C 0.54051 0.39242 0.74188 0.0
C305 C 0.57856 0.40766 0.83575 0.0
C306 C 0.59024 0.40348 0.87245 0.0
C307 C 0.5903 0.36832 0.8503 0.0
C308 C 0.58227 0.38268 0.8334 0.0
C309 C 0.59431 0.37863 0.8697 0.0
C310 C 0.58247 0.41805 0.8554 0.0
C311 C 0.57562 0.4233 0.81757 0.0
H312 H 0.42375 0.50131 0.66615 0.0
H313 H 0.4396 0.48029 0.69812 0.0
H314 H 0.41475 0.47866 0.63399 0.0
H315 H 0.43867 0.41266 0.66548 0.0
H316 H 0.59399 0.34918 0.84831 0.0
H317 H 0.58004 0.37437 0.81839 0.0
H318 H 0.60114 0.36723 0.88259 0.0
H319 H 0.58038 0.43736 0.85733 0.0
C320 C 0.8904 0.91312 0.76791 0.0
C321 C 0.87985 0.87205 0.77926 0.0
C322 C 0.90219 0.89233 0.77755 0.0
C323 C 0.84612 0.87264 0.77055 0.0
C324 C 0.85612 0.91397 0.75972 0.0
C325 C 0.83431 0.89352 0.7608 0.0
N326 N 0.91211 0.93267 0.767 0.0
C327 C 0.8999 0.95418 0.75997 0.0
C328 C 0.84446 0.93553 0.75108 0.0
C329 C 0.86627 0.95582 0.7515 0.0
Gd330 Gd 0.04805 0.92587 0.7373 0.0
Gd331 Gd 0.9682 0.92763 0.78134 0.0
N332 N 0.93529 0.89204 0.78548 0.0
C333 C 0.89196 0.85181 0.78984 0.0
C334 C 0.94649 0.8728 0.79669 0.0
C335 C 0.92527 0.85233 0.79881 0.0
H336 H 0.9713 0.87337 0.80463 0.0
H337 H 0.9345 0.83704 0.80752 0.0
H338 H 0.03603 0.98032 0.71725 0.0
H339 H 0.91557 0.97033 0.76129 0.0
H340 H 0.06902 0.01866 0.71337 0.0
H341 H 0.87559 0.8359 0.79148 0.0
H342 H 0.82877 0.85713 0.77154 0.0
H343 H 0.10925 0.88404 0.74959 0.0
H344 H 0.81829 0.93691 0.74464 0.0
H345 H 0.857 0.97283 0.74559 0.0
H346 H 0.18207 1.00206 0.74284 0.0
H347 H 0.808 0.8938 0.75445 0.0
H348 H 0.20478 0.92124 0.76441 0.0
H349 H 0.17028 0.88343 0.76225 0.0
N350 N 0.10797 0.92219 0.74631 0.0
C351 C 0.12729 0.94283 0.746 0.0
C352 C 0.12368 0.9008 0.75092 0.0
C353 C 0.17781 0.92168 0.75909 0.0
C354 C 0.15843 0.90031 0.75789 0.0
C355 C 0.16264 0.9432 0.75254 0.0
H356 H 0.20897 0.96554 0.75705 0.0
N357 N 0.07813 0.96236 0.73196 0.0
C358 C 0.11216 0.96341 0.73815 0.0
C359 C 0.11603 1.00501 0.72752 0.0
C360 C 0.13192 0.98489 0.73642 0.0
C361 C 0.0628 0.98163 0.72267 0.0
C362 C 0.08142 1.00328 0.72044 0.0
O363 O 0.95826 0.90657 0.75195 0.0
O364 O 0.01353 0.8936 0.74344 0.0
O365 O 0.0458 0.93207 0.70394 0.0
O366 O 0.06507 0.89861 0.71613 0.0
O367 O 0.01081 0.90106 0.78861 0.0
O368 O 0.05673 0.90125 0.76439 0.0
O369 O 0.04633 0.95736 0.75953 0.0
O370 O 0.02345 0.9403 0.78896 0.0
O371 O 0.95553 0.92117 0.81362 0.0
O372 O 0.94555 0.95634 0.79983 0.0
O373 O 0.99383 0.94014 0.73092 0.0
O374 O 0.97693 0.95972 0.76036 0.0
C375 C 0.97935 0.89246 0.74152 0.0
C376 C 0.04131 0.89374 0.7814 0.0
C377 C 0.08656 0.90967 0.68338 0.0
C378 C 0.10138 0.9095 0.64688 0.0
C379 C 0.14294 0.89429 0.67187 0.0
C380 C 0.11965 0.89969 0.68772 0.0
C381 C 0.13382 0.89903 0.65157 0.0
C382 C 0.07764 0.91483 0.6628 0.0
C383 C 0.05965 0.91132 0.69971 0.0
C384 C 0.16667 0.98562 0.74368 0.0
C385 C 0.18195 0.96484 0.75182 0.0
H386 H 0.13029 0.02185 0.72594 0.0
C387 C 0.04259 0.95684 0.77967 0.0
C388 C 0.97935 0.95854 0.74017 0.0
C389 C 0.92854 0.95116 0.83586 0.0
C390 C 0.91569 0.94561 0.87251 0.0
C391 C 0.89524 0.98119 0.8545 0.0
C392 C 0.9106 0.97312 0.83637 0.0
C393 C 0.89781 0.96764 0.87242 0.0
C394 C 0.93073 0.93719 0.85403 0.0
C395 C 0.94295 0.94261 0.81604 0.0
H396 H 0.16794 0.88604 0.6753 0.0
H397 H 0.12715 0.89529 0.70332 0.0
H398 H 0.15207 0.89439 0.63942 0.0
H399 H 0.0521 0.92221 0.65915 0.0
H400 H 0.88106 0.99799 0.85466 0.0
H401 H 0.9079 0.98394 0.82263 0.0
H402 H 0.88526 0.97425 0.88625 0.0
H403 H 0.94415 0.92007 0.85387 0.0
C404 C 0.62445 0.61649 0.26792 0.0
C405 C 0.62854 0.65929 0.27529 0.0
C406 C 0.60888 0.6377 0.27482 0.0
C407 C 0.66377 0.65933 0.2688 0.0
C408 C 0.65975 0.61654 0.26134 0.0
C409 C 0.6793 0.63805 0.26186 0.0
N410 N 0.60489 0.5959 0.26733 0.0
C411 C 0.61914 0.57472 0.26103 0.0
C412 C 0.6744 0.59494 0.25444 0.0
C413 C 0.65401 0.57394 0.25433 0.0
Gd414 Gd 0.46889 0.60275 0.23732 0.0
Gd415 Gd 0.548 0.59916 0.28031 0.0
N416 N 0.57451 0.63727 0.28082 0.0
C417 C 0.61228 0.68021 0.28239 0.0
C418 C 0.55894 0.6574 0.28841 0.0
C419 C 0.57741 0.67922 0.28908 0.0
H420 H 0.53265 0.65672 0.29438 0.0
H421 H 0.56487 0.6952 0.29498 0.0
H422 H 0.48295 0.54727 0.21863 0.0
H423 H 0.60396 0.55827 0.26168 0.0
H424 H 0.45007 0.50936 0.21382 0.0
H425 H 0.62653 0.69714 0.28302 0.0
H426 H 0.67927 0.67575 0.26912 0.0
H427 H 0.41029 0.64283 0.25437 0.0
H428 H 0.70147 0.59426 0.24931 0.0
H429 H 0.66525 0.5571 0.24932 0.0
H430 H 0.3337 0.52728 0.23758 0.0
H431 H 0.70651 0.63841 0.25692 0.0
H432 H 0.31185 0.60668 0.26307 0.0
H433 H 0.34849 0.64351 0.26574 0.0
N434 N 0.40945 0.60582 0.24662 0.0
C435 C 0.38933 0.58575 0.24404 0.0
C436 C 0.39495 0.62655 0.25373 0.0
C437 C 0.33909 0.60628 0.25822 0.0
C438 C 0.35973 0.62706 0.25986 0.0
C439 C 0.35368 0.58534 0.25 0.0
H440 H 0.30653 0.56338 0.25238 0.0
N441 N 0.43968 0.56597 0.23144 0.0
C442 C 0.40469 0.56538 0.23575 0.0
C443 C 0.40141 0.52373 0.22525 0.0
C444 C 0.38471 0.54411 0.2331 0.0
C445 C 0.45578 0.5464 0.22315 0.0
C446 C 0.43703 0.52495 0.22012 0.0
O447 O 0.55892 0.6159 0.24898 0.0
O448 O 0.50609 0.63328 0.24371 0.0
O449 O 0.47393 0.5995 0.20385 0.0
O450 O 0.44524 0.62895 0.2175 0.0
O451 O 0.49815 0.6183 0.29023 0.0
O452 O 0.47301 0.63284 0.2603 0.0
O453 O 0.45639 0.57797 0.26412 0.0
O454 O 0.50435 0.57305 0.28616 0.0
O455 O 0.55698 0.60747 0.31308 0.0
O456 O 0.57868 0.57509 0.29887 0.0
O457 O 0.51942 0.58361 0.2298 0.0
O458 O 0.5387 0.56654 0.26014 0.0
C459 C 0.53958 0.63208 0.23988 0.0
C460 C 0.47632 0.63261 0.28044 0.0
C461 C 0.42764 0.61729 0.18424 0.0
C462 C 0.41319 0.61704 0.1478 0.0
C463 C 0.36777 0.62486 0.17305 0.0
C464 C 0.39221 0.62216 0.18881 0.0
C465 C 0.37819 0.62242 0.15265 0.0
C466 C 0.43801 0.61452 0.1636 0.0
C467 C 0.45445 0.61832 0.20056 0.0
C468 C 0.34927 0.54357 0.23917 0.0
C469 C 0.33384 0.56411 0.24766 0.0
H470 H 0.38709 0.50699 0.22315 0.0
C471 C 0.47206 0.56834 0.28021 0.0
C472 C 0.5364 0.56684 0.23994 0.0
C473 C 0.59275 0.58074 0.33485 0.0
C474 C 0.60211 0.58376 0.37205 0.0
C475 C 0.63276 0.55348 0.35206 0.0
C476 C 0.61642 0.56146 0.33426 0.0
C477 C 0.62567 0.56445 0.37078 0.0
C478 C 0.58588 0.59218 0.35388 0.0
C479 C 0.57574 0.58812 0.31539 0.0
H480 H 0.34077 0.62919 0.17665 0.0
H481 H 0.38351 0.62462 0.20451 0.0
H482 H 0.35895 0.62486 0.14057 0.0
H483 H 0.46527 0.61105 0.15983 0.0
H484 H 0.65108 0.53871 0.35136 0.0
H485 H 0.6225 0.55246 0.31994 0.0
H486 H 0.63914 0.55799 0.38434 0.0
H487 H 0.56779 0.60712 0.35463 0.0
H488 H 0.14208 0.89889 0.39953 0.0
H489 H 0.11539 0.92873 0.3768 0.0
H490 H 0.21868 0.95355 0.3588 0.0
H491 H 0.24537 0.92311 0.38121 0.0
H492 H 0.12165 0.97723 0.37968 0.0
H493 H 0.17041 0.94646 0.30367 0.0
H494 H 0.17252 0.92792 0.3264 0.0
H495 H 0.2043 0.95157 0.3224 0.0
C496 C 0.15897 0.91036 0.39028 0.0
C497 C 0.19565 0.90859 0.39175 0.0
C498 C 0.14377 0.92749 0.37746 0.0
C499 C 0.165 0.94325 0.36595 0.0
C500 C 0.20178 0.94123 0.36718 0.0
H501 H 0.09794 0.07379 0.3016 0.0
H502 H 0.13146 0.04472 0.32222 0.0
C503 C 0.21702 0.92388 0.37991 0.0
C504 C 0.1484 0.96235 0.35342 0.0
H505 H 0.13995 0.98347 0.30436 0.0
C506 C 0.12578 0.97864 0.36323 0.0
C507 C 0.1536 0.96408 0.33193 0.0
C508 C 0.17626 0.94647 0.3204 0.0
C509 C 0.10824 0.99653 0.35209 0.0
C510 C 0.11354 0.9982 0.33067 0.0
C511 C 0.13629 0.98215 0.32085 0.0
C512 C 0.09405 0.01566 0.31801 0.0
C513 C 0.08343 1.01321 0.36308 0.0
C514 C 0.06267 1.00859 0.30841 0.0
C515 C 0.04437 0.02478 0.29606 0.0
C516 C 0.05646 0.04855 0.29382 0.0
C517 C 0.08793 0.05561 0.3034 0.0
C518 C 0.10693 0.03914 0.31519 0.0
H519 H 0.08369 1.01049 0.38 0.0
H520 H 0.09056 0.03221 0.3597 0.0
H521 H 0.05628 1.01013 0.35736 0.0
H522 H 0.05248 0.99048 0.3104 0.0
H523 H 0.02078 0.01869 0.28833 0.0
H524 H 0.32404 0.64163 0.86716 0.0
H525 H 0.34832 0.61267 0.84271 0.0
H526 H 0.34557 0.55778 0.88957 0.0
H527 H 0.31682 0.58504 0.91272 0.0
H528 H 0.40751 0.59144 0.84304 0.0
H529 H 0.30873 0.51817 0.84585 0.0
H530 H 0.30051 0.54705 0.85738 0.0
H531 H 0.32482 0.52434 0.8711 0.0
C532 C 0.32733 0.62318 0.87202 0.0
C533 C 0.31888 0.616 0.89219 0.0
C534 C 0.34169 0.60666 0.85808 0.0
C535 C 0.34835 0.5828 0.8641 0.0
C536 C 0.33964 0.57568 0.88412 0.0
H537 H 0.46911 0.46271 0.82034 0.0
H538 H 0.43817 0.49315 0.84033 0.0
C539 C 0.32399 0.59172 0.89765 0.0
C540 C 0.36656 0.56571 0.85015 0.0
H541 H 0.36607 0.50738 0.83349 0.0
C542 C 0.39801 0.57321 0.84066 0.0
C543 C 0.35454 0.54172 0.84718 0.0
C544 C 0.32011 0.53249 0.85578 0.0
C545 C 0.41808 0.55733 0.82876 0.0
C546 C 0.40637 0.53335 0.82626 0.0
C547 C 0.37495 0.52582 0.83555 0.0
C548 C 0.42641 0.51564 0.81413 0.0
C549 C 0.45222 0.56604 0.81947 0.0
C550 C 0.43 0.51828 0.7928 0.0
C551 C 0.4478 0.50096 0.78131 0.0
C552 C 0.46186 0.48057 0.79097 0.0
C553 C 0.45847 0.47815 0.81241 0.0
C554 C 0.44077 0.49549 0.82386 0.0
H555 H 0.46075 0.58363 0.82594 0.0
H556 H 0.47335 0.55269 0.82204 0.0
H557 H 0.44886 0.5682 0.80263 0.0
H558 H 0.41867 0.53359 0.785 0.0
H559 H 0.4504 0.50351 0.76488 0.0
H560 H 0.68129 0.64117 0.64452 0.0
H561 H 0.65324 0.6127 0.66835 0.0
H562 H 0.69185 0.5534 0.63231 0.0
H563 H 0.72071 0.58162 0.60886 0.0
H564 H 0.60124 0.57846 0.65718 0.0
H565 H 0.71796 0.53376 0.69073 0.0
H566 H 0.7209 0.56222 0.67743 0.0
H567 H 0.71727 0.53463 0.66315 0.0
C568 C 0.68462 0.62207 0.64203 0.0
C569 C 0.70335 0.61364 0.62487 0.0
C570 C 0.66831 0.60584 0.65552 0.0
C571 C 0.67075 0.58095 0.6522 0.0
C572 C 0.69015 0.5725 0.63539 0.0
H573 H 0.58574 0.45181 0.7082 0.0
H574 H 0.6162 0.48175 0.6868 0.0
C575 C 0.70644 0.58866 0.62193 0.0
C576 C 0.65142 0.56378 0.66558 0.0
H577 H 0.66248 0.51576 0.69754 0.0
C578 C 0.61458 0.56488 0.66618 0.0
C579 C 0.66891 0.54588 0.67703 0.0
C580 C 0.70846 0.54409 0.67724 0.0
C581 C 0.59468 0.54825 0.67765 0.0
C582 C 0.61222 0.53047 0.68927 0.0
C583 C 0.64908 0.52944 0.68868 0.0
C584 C 0.59295 0.5125 0.70192 0.0
C585 C 0.55509 0.54935 0.6766 0.0
C586 C 0.56995 0.51982 0.7176 0.0
C587 C 0.5519 0.50272 0.72942 0.0
C588 C 0.55748 0.47813 0.72611 0.0
C589 C 0.58113 0.47077 0.71089 0.0
C590 C 0.59849 0.48782 0.69874 0.0
H591 H 0.54604 0.55955 0.66293 0.0
H592 H 0.54333 0.53102 0.67609 0.0
H593 H 0.54501 0.55863 0.69048 0.0
H594 H 0.5662 0.53873 0.72084 0.0
H595 H 0.53424 0.50867 0.74143 0.0
H596 H 0.76991 0.9189 0.14143 0.0
H597 H 0.79775 0.94822 0.16486 0.0
H598 H 0.89771 0.93632 0.13538 0.0
H599 H 0.87015 0.90748 0.11202 0.0
H600 H 0.85487 0.94449 0.19245 0.0
H601 H 0.88492 1.00899 0.12974 0.0
H602 H 0.85405 0.98442 0.12674 0.0
H603 H 0.90053 0.97921 0.12461 0.0
C604 C 0.79786 0.92244 0.14018 0.0
C605 C 0.81784 0.91129 0.12477 0.0
C606 C 0.81368 0.93919 0.15346 0.0
C607 C 0.84959 0.94487 0.15145 0.0
C608 C 0.86979 0.93272 0.13679 0.0
H609 H 1.00403 0.03146 0.21631 0.0
H610 H 0.97341 1.00185 0.19468 0.0
C611 C 0.85406 0.91619 0.12353 0.0
C612 C 0.86634 0.96359 0.16441 0.0
H613 H 0.91388 0.0159 0.16171 0.0
C614 C 0.86752 0.9602 0.18577 0.0
C615 C 0.88262 0.98416 0.15563 0.0
C616 C 0.88022 0.9896 0.13295 0.0
C617 C 0.88558 0.9765 0.19852 0.0
C618 C 0.90276 0.99654 0.18961 0.0
C619 C 0.90108 1.00021 0.16835 0.0
C620 C 0.9214 0.01449 0.20231 0.0
C621 C 0.88667 0.97217 0.22139 0.0
C622 C 0.90218 0.03166 0.21315 0.0
C623 C 0.9195 0.04888 0.22505 0.0
C624 C 0.95632 0.0488 0.22687 0.0
C625 C 0.9756 0.03176 0.21561 0.0
C626 C 0.95821 0.01483 0.20328 0.0
H627 H 0.87583 0.95423 0.22563 0.0
H628 H 0.91411 0.97361 0.22709 0.0
H629 H 0.87107 0.98619 0.22933 0.0
H630 H 0.87374 0.03186 0.21228 0.0
H631 H 0.90387 0.06229 0.23268 0.0
H632 H 0.80645 0.08496 0.60904 0.0
H633 H 0.83339 0.05514 0.63164 0.0
H634 H 0.86485 0.11174 0.67328 0.0
H635 H 0.83696 0.1416 0.65083 0.0
H636 H 0.90217 0.05213 0.64163 0.0
H637 H 0.82305 0.06306 0.71258 0.0
H638 H 0.80946 0.07503 0.68807 0.0
H639 H 0.84188 0.09067 0.70324 0.0
C640 C 0.81853 0.09093 0.62326 0.0
C641 C 0.81947 0.1155 0.62835 0.0
C642 C 0.83403 0.07392 0.63609 0.0
C643 C 0.85088 0.08112 0.65428 0.0
C644 C 0.85128 0.10567 0.65959 0.0
H645 H 0.9722 1.00658 0.74763 0.0
H646 H 0.94207 0.03627 0.7261 0.0
C647 C 0.83541 0.12272 0.6468 0.0
C648 C 0.86958 0.06306 0.667 0.0
H649 H 0.87444 0.03936 0.71532 0.0
C650 C 0.89603 0.04927 0.65773 0.0
C651 C 0.86152 0.05929 0.68798 0.0
C652 C 0.83221 0.07261 0.69854 0.0
C653 C 0.91517 0.03222 0.66897 0.0
C654 C 0.90726 0.02856 0.69003 0.0
C655 C 0.88068 0.04227 0.69924 0.0
C656 C 0.92608 1.01059 0.70282 0.0
C657 C 0.94422 0.01876 0.65824 0.0
C658 C 0.92683 0.98626 0.69703 0.0
C659 C 0.94458 0.96946 0.70908 0.0
C660 C 0.96104 0.97652 0.72746 0.0
C661 C 0.95963 1.00071 0.73354 0.0
C662 C 0.94245 0.01763 0.72126 0.0
H663 H 0.9536 0.02846 0.64432 0.0
H664 H 0.96693 0.01588 0.66863 0.0
H665 H 0.93412 1.00092 0.65322 0.0
H666 H 0.91342 0.98018 0.6833 0.0
H667 H 0.94478 0.95082 0.70423 0.0
H668 H 0.70645 0.44292 0.10692 0.0
H669 H 0.67855 0.47172 0.13 0.0
H670 H 0.6643 0.41588 0.1753 0.0
H671 H 0.69212 0.38676 0.15204 0.0
H672 H 0.60847 0.46676 0.14491 0.0
H673 H 0.70606 0.47331 0.2082 0.0
H674 H 0.7171 0.46212 0.18297 0.0
H675 H 0.6935 0.4433 0.20075 0.0
C676 C 0.69784 0.43683 0.12193 0.0
C677 C 0.7013 0.41253 0.12767 0.0
C678 C 0.68184 0.45331 0.13507 0.0
C679 C 0.66935 0.44597 0.15436 0.0
C680 C 0.67414 0.42198 0.16056 0.0
H681 H 0.55593 0.52132 0.25131 0.0
H682 H 0.58697 0.49154 0.2303 0.0
C683 C 0.69014 0.40538 0.14734 0.0
C684 C 0.64963 0.46319 0.16737 0.0
H685 H 0.65197 0.49308 0.2132 0.0
C686 C 0.61794 0.47253 0.15985 0.0
C687 C 0.66207 0.47072 0.18681 0.0
C688 C 0.69668 0.46205 0.19518 0.0
C689 C 0.59806 0.48891 0.1714 0.0
C690 C 0.61058 0.49653 0.19086 0.0
C691 C 0.64227 0.48715 0.19836 0.0
C692 C 0.59157 0.51451 0.20355 0.0
C693 C 0.56355 0.49751 0.16276 0.0
C694 C 0.58434 0.53743 0.19564 0.0
C695 C 0.56637 0.55429 0.20751 0.0
C696 C 0.55585 0.5488 0.22771 0.0
C697 C 0.56377 0.52606 0.23582 0.0
C698 C 0.58145 0.50906 0.22382 0.0
H699 H 0.55293 0.48486 0.15104 0.0
H700 H 0.5436 0.49973 0.17506 0.0
H701 H 0.56767 0.51518 0.15516 0.0
H702 H 0.5928 0.54238 0.18031 0.0
H703 H 0.56111 0.57179 0.2009 0.0
H704 H 0.27105 0.41356 0.37571 0.0
H705 H 0.29858 0.44106 0.35088 0.0
H706 H 0.39207 0.4438 0.38827 0.0
H707 H 0.368 0.41371 0.41063 0.0
H708 H 0.31937 0.48503 0.35339 0.0
H709 H 0.43931 0.43332 0.33673 0.0
H710 H 0.40333 0.42035 0.35103 0.0
H711 H 0.43631 0.43858 0.36374 0.0
C712 C 0.29792 0.41932 0.37826 0.0
C713 C 0.31674 0.41147 0.39563 0.0
C714 C 0.31349 0.43536 0.36417 0.0
C715 C 0.34786 0.44418 0.36738 0.0
C716 C 0.3662 0.43665 0.38481 0.0
H717 H 0.48465 0.55582 0.32016 0.0
H718 H 0.45271 0.52637 0.3411 0.0
C719 C 0.35161 0.41983 0.39813 0.0
C720 C 0.36457 0.46185 0.35316 0.0
H721 H 0.44236 0.47571 0.32945 0.0
C722 C 0.34603 0.48275 0.34787 0.0
C723 C 0.39955 0.45905 0.34593 0.0
C724 C 0.42051 0.43647 0.34951 0.0
C725 C 0.36183 0.50112 0.33616 0.0
C726 C 0.39705 0.49855 0.32969 0.0
C727 C 0.41545 0.47766 0.33469 0.0
C728 C 0.41526 0.51712 0.31733 0.0
C729 C 0.3412 0.52345 0.33121 0.0
C730 C 0.40503 0.52137 0.297 0.0
C731 C 0.42337 0.53805 0.28498 0.0
C732 C 0.45223 0.55079 0.29297 0.0
C733 C 0.46251 0.54634 0.31341 0.0
C734 C 0.44423 0.52961 0.32545 0.0
H735 H 0.31659 0.52458 0.34035 0.0
H736 H 0.35734 0.53983 0.3341 0.0
H737 H 0.33408 0.52329 0.31467 0.0
H738 H 0.38329 0.51143 0.29028 0.0
H739 H 0.41548 0.54043 0.26933 0.0
H740 H 0.24128 0.1154 0.87342 0.0
H741 H 0.21309 0.08814 0.84882 0.0
H742 H 0.12659 0.07781 0.89079 0.0
H743 H 0.15038 0.10781 0.91319 0.0
H744 H 0.1972 0.04334 0.84883 0.0
H745 H 0.06984 0.08946 0.84298 0.0
H746 H 0.10674 0.10315 0.85588 0.0
H747 H 0.07807 0.08233 0.86929 0.0
C748 C 0.21567 0.10807 0.87717 0.0
C749 C 0.19888 0.11393 0.89586 0.0
C750 C 0.19977 0.09207 0.86313 0.0
C751 C 0.1671 0.08118 0.8676 0.0
C752 C 0.15095 0.08655 0.88637 0.0
H753 H 0.04305 0.9612 0.82177 0.0
H754 H 0.07482 0.99102 0.84256 0.0
C755 C 0.16564 0.10335 0.89973 0.0
C756 C 0.14982 0.06379 0.85318 0.0
H757 H 0.06977 0.04768 0.83323 0.0
C758 C 0.16947 0.04457 0.8452 0.0
C759 C 0.11352 0.06525 0.84819 0.0
C760 C 0.09104 0.08633 0.85438 0.0
C761 C 0.15359 0.02651 0.83309 0.0
C762 C 0.11714 0.0275 0.82909 0.0
C763 C 0.09763 0.04681 0.83666 0.0
C764 C 0.0988 1.00901 0.81657 0.0
C765 C 0.17557 1.00623 0.82483 0.0
C766 C 0.10101 1.0097 0.7951 0.0
C767 C 0.08219 0.99311 0.78318 0.0
C768 C 0.06155 0.97501 0.79243 0.0
C769 C 0.05915 0.97456 0.81404 0.0
C770 C 0.07738 0.99154 0.82598 0.0
H771 H 0.20278 1.00662 0.83101 0.0
H772 H 0.16317 0.98865 0.82866 0.0
H773 H 0.17688 1.00755 0.80781 0.0
H774 H 0.1168 0.02338 0.78753 0.0
H775 H 0.08342 0.99475 0.76672 0.0
H776 H 0.20806 0.10003 0.96911 0.0
H777 H 0.182 0.09466 1.00304 0.0
H778 H 0.17801 0.17165 0.01081 0.0
H779 H 0.20189 0.17719 0.97619 0.0
H780 H 0.20229 0.10629 0.04007 0.0
H781 H 0.07816 0.15427 0.02376 0.0
H782 H 0.10907 0.14646 1.00387 0.0
H783 H 0.11658 0.17256 0.01968 0.0
C784 C 0.20111 0.11586 0.97787 0.0
C785 C 0.20629 0.13906 0.96968 0.0
C786 C 0.1865 0.11276 0.99738 0.0
C787 C 0.17706 0.13274 1.0093 0.0
C788 C 0.18394 0.15594 1.00165 0.0
H789 H 0.1176 0.12953 0.13894 0.0
H790 H 0.13396 0.1446 0.10463 0.0
C791 C 0.19815 0.15908 0.98197 0.0
C792 C 0.16032 0.12908 0.02974 0.0
H793 H 0.08737 0.14215 0.05839 0.0
C794 C 0.17724 0.11422 0.04405 0.0
C795 C 0.12728 0.13912 0.03487 0.0
C796 C 0.1065 0.15378 0.01968 0.0
C797 C 0.16221 0.10926 0.06329 0.0
C798 C 0.12965 0.11969 0.06855 0.0
C799 C 0.11263 0.13456 0.05437 0.0
C800 C 0.11244 0.11393 0.08838 0.0
C801 C 0.18081 0.09247 0.07783 0.0
C802 C 0.09335 0.09242 0.09036 0.0
C803 C 0.08381 0.08395 0.1098 0.0
C804 C 0.09334 0.09679 0.1276 0.0
C805 C 0.10957 0.11945 0.12547 0.0
C806 C 0.11915 0.12795 0.10593 0.0
H807 H 0.20723 0.08733 0.07212 0.0
H808 H 0.18368 0.10101 0.09317 0.0
H809 H 0.1648 0.07586 0.07984 0.0
H810 H 0.08804 0.08135 0.077 0.0
H811 H 0.07153 0.06636 0.11104 0.0
H812 H 0.37142 0.38796 0.45812 0.0
H813 H 0.39621 0.3941 0.49244 0.0
H814 H 0.29207 0.39046 0.51862 0.0
H815 H 0.2672 0.38401 0.48433 0.0
H816 H 0.38322 0.43078 0.51936 0.0
H817 H 0.34542 0.34337 0.55433 0.0
H818 H 0.34381 0.34864 0.52697 0.0
H819 H 0.30924 0.35941 0.54335 0.0
C820 C 0.35389 0.38831 0.47124 0.0
C821 C 0.31745 0.38529 0.46864 0.0
C822 C 0.36805 0.39178 0.4908 0.0
C823 C 0.34605 0.39228 0.50811 0.0
C824 C 0.30961 0.38944 0.50554 0.0
H825 H 0.36474 0.42438 0.63636 0.0
H826 H 0.34821 0.40938 0.60224 0.0
C827 C 0.29543 0.3858 0.48597 0.0
C828 C 0.36118 0.39675 0.52873 0.0
H829 H 0.36684 0.37362 0.57719 0.0
C830 C 0.37996 0.41821 0.53199 0.0
C831 C 0.35683 0.38029 0.54511 0.0
C832 C 0.33801 0.35653 0.54227 0.0
C833 C 0.39346 0.42412 0.55142 0.0
C834 C 0.38876 0.40779 0.56795 0.0
C835 C 0.37053 0.38609 0.56453 0.0
C836 C 0.40025 0.41373 0.58918 0.0
C837 C 0.41133 0.44826 0.55415 0.0
C838 C 0.43534 0.42007 0.59347 0.0
C839 C 0.44464 0.42887 0.61289 0.0
C840 C 0.41917 0.43087 0.62837 0.0
C841 C 0.38474 0.42291 0.62457 0.0
C842 C 0.37534 0.41438 0.60512 0.0
H843 H 0.40452 0.46095 0.54159 0.0
H844 H 0.40404 0.4566 0.56904 0.0
H845 H 0.44024 0.44581 0.55387 0.0
H846 H 0.45524 0.41903 0.5816 0.0
H847 H 0.47137 0.43493 0.6156 0.0
H848 H 0.63784 0.38876 0.0652 0.0
H849 H 0.61608 0.3979 0.03067 0.0
H850 H 0.72065 0.38937 1.00625 0.0
H851 H 0.74257 0.38026 0.04063 0.0
H852 H 0.63539 0.43495 1.0043 0.0
H853 H 0.66251 0.34617 0.96895 0.0
H854 H 0.66318 0.35086 0.99639 0.0
H855 H 0.70029 0.35966 0.9809 0.0
C856 C 0.65615 0.38871 0.05245 0.0
C857 C 0.69187 0.38357 0.05565 0.0
C858 C 0.64369 0.39396 0.03274 0.0
C859 C 0.66665 0.39408 0.01586 0.0
C860 C 0.7023 0.38889 0.01898 0.0
H861 H 0.6489 0.42616 0.88665 0.0
H862 H 0.66592 0.42975 0.92297 0.0
C863 C 0.71476 0.38359 0.03865 0.0
C864 C 0.65346 0.39994 0.995 0.0
H865 H 0.64654 0.37766 0.94628 0.0
C866 C 0.6377 0.42241 0.99162 0.0
C867 C 0.65633 0.38349 0.97851 0.0
C868 C 0.67117 0.35861 0.98136 0.0
C869 C 0.62523 0.42893 0.97206 0.0
C870 C 0.6288 0.41264 0.9556 0.0
C871 C 0.64431 0.3902 0.95898 0.0
C872 C 0.61558 0.41775 0.9347 0.0
C873 C 0.6084 0.4531 0.96896 0.0
C874 C 0.58123 0.41083 0.92944 0.0
C875 C 0.57159 0.40866 0.90878 0.0
C876 C 0.59613 0.41353 0.89318 0.0
C877 C 0.62944 0.42264 0.89846 0.0
C878 C 0.63917 0.42463 0.91915 0.0
H879 H 0.60897 0.46422 0.98314 0.0
H880 H 0.62216 0.46299 0.95645 0.0
H881 H 0.58065 0.45051 0.96412 0.0
H882 H 0.56283 0.4052 0.94125 0.0
H883 H 0.54593 0.40135 0.905 0.0
H884 H 0.87713 0.14857 0.56481 0.0
H885 H 0.8997 0.13973 0.53035 0.0
H886 H 0.79363 0.1282 0.50883 0.0
H887 H 0.77104 0.13793 0.54302 0.0
H888 H 0.89617 0.0998 0.50848 0.0
H889 H 0.82945 0.17193 0.4651 0.0
H890 H 0.83041 0.17136 0.49279 0.0
H891 H 0.79875 0.15341 0.47889 0.0
C892 C 0.8587 0.14454 0.55258 0.0
C893 C 0.82237 0.14423 0.55645 0.0
C894 C 0.87157 0.13937 0.53296 0.0
C895 C 0.84837 0.1336 0.51688 0.0
C896 C 0.81203 0.13326 0.52078 0.0
H897 H 0.87346 0.09448 0.38933 0.0
H898 H 0.85739 0.09054 0.42575 0.0
C899 C 0.79912 0.1388 0.54032 0.0
C900 C 0.86227 0.12723 0.49625 0.0
H901 H 0.8558 0.14102 0.44528 0.0
C902 C 0.88743 0.10888 0.49467 0.0
C903 C 0.85106 0.13917 0.47822 0.0
C904 C 0.82624 0.16022 0.47883 0.0
C905 C 0.90134 0.10205 0.47552 0.0
C906 C 0.88938 0.1136 0.45758 0.0
C907 C 0.86431 0.13187 0.45912 0.0
C908 C 0.90408 0.10864 0.43698 0.0
C909 C 0.92859 0.08256 0.47447 0.0
C910 C 0.93643 0.11901 0.43143 0.0
C911 C 0.94547 0.12139 0.4107 0.0
C912 C 0.92239 0.11327 0.39533 0.0
C913 C 0.89182 0.10059 0.40096 0.0
C914 C 0.8826 0.09842 0.42171 0.0
H915 H 0.93238 0.07355 0.48954 0.0
H916 H 0.92085 0.06888 0.46285 0.0
H917 H 0.95409 0.0905 0.46952 0.0
H918 H 0.95311 0.12727 0.44297 0.0
H919 H 0.96896 0.13145 0.40663 0.0
H920 H 0.80676 0.85087 0.04233 0.0
H921 H 0.83105 0.85616 1.00812 0.0
H922 H 0.84223 0.93224 0.01871 0.0
H923 H 0.81493 0.92784 0.05239 0.0
H924 H 0.80545 0.89661 0.97528 0.0
H925 H 0.94448 0.89745 1.00186 0.0
H926 H 0.90981 0.88265 0.0162 0.0
H927 H 0.91279 0.91482 0.01604 0.0
C928 C 0.81316 0.86896 0.03744 0.0
C929 C 0.80859 0.8889 0.05063 0.0
C930 C 0.82771 0.87181 0.01784 0.0
C931 C 0.83894 0.89448 0.01108 0.0
C932 C 0.83406 0.91451 0.02381 0.0
H933 H 0.93862 0.96153 0.90959 0.0
H934 H 0.92419 0.94448 0.94313 0.0
C935 C 0.81865 0.91183 0.04323 0.0
C936 C 0.85541 0.89729 0.99058 0.0
H937 H 0.9345 0.9055 0.96662 0.0
C938 C 0.83367 0.8983 0.97327 0.0
C939 C 0.89218 0.89956 0.98818 0.0
C940 C 0.91642 0.89848 1.00648 0.0
C941 C 0.84761 0.90248 0.95357 0.0
C942 C 0.88453 0.90489 0.95103 0.0
C943 C 0.90632 0.9033 0.96844 0.0
C944 C 0.9003 0.91205 0.93093 0.0
C945 C 0.8224 0.90558 0.93588 0.0
C946 C 0.89407 0.89874 0.91285 0.0
C947 C 0.90216 0.90862 0.89353 0.0
C948 C 0.91688 0.93183 0.8921 0.0
C949 C 0.92677 0.94377 0.91027 0.0
C950 C 0.91855 0.934 0.92947 0.0
H951 H 0.79505 0.90859 0.94124 0.0
H952 H 0.83038 0.92102 0.92605 0.0
H953 H 0.82239 0.88908 0.9263 0.0
H954 H 0.88102 0.88139 0.91362 0.0
H955 H 0.89445 0.89895 0.87978 0.0
H956 H 0.70862 0.59851 0.55161 0.0
H957 H 0.68164 0.59233 0.51789 0.0
H958 H 0.67217 0.66895 0.51018 0.0
H959 H 0.69713 0.67544 0.54418 0.0
H960 H 0.61002 0.61334 0.50536 0.0
H961 H 0.72371 0.64144 0.45685 0.0
H962 H 0.72902 0.63086 0.48292 0.0
H963 H 0.71237 0.66044 0.47823 0.0
C964 C 0.70067 0.61411 0.54287 0.0
C965 C 0.7052 0.63752 0.55084 0.0
C966 C 0.68542 0.6105 0.52352 0.0
C967 C 0.67503 0.6302 0.51157 0.0
C968 C 0.68029 0.65353 0.51913 0.0
H969 H 0.60957 0.63119 0.38325 0.0
H970 H 0.61901 0.64601 0.41839 0.0
C971 C 0.695 0.65717 0.53856 0.0
C972 C 0.65774 0.62642 0.49142 0.0
H973 H 0.67118 0.63162 0.43981 0.0
C974 C 0.62325 0.61737 0.49098 0.0
C975 C 0.67493 0.63206 0.47279 0.0
C976 C 0.71214 0.64163 0.47253 0.0
C977 C 0.60541 0.6137 0.47229 0.0
C978 C 0.62299 0.61857 0.45348 0.0
C979 C 0.65739 0.62806 0.45409 0.0
C980 C 0.60816 0.61172 0.43304 0.0
C981 C 0.56781 0.60494 0.47308 0.0
C982 C 0.59686 0.58798 0.42955 0.0
C983 C 0.59061 0.57976 0.40961 0.0
C984 C 0.59652 0.59485 0.39258 0.0
C985 C 0.60471 0.61918 0.39606 0.0
C986 C 0.61047 0.62756 0.41616 0.0
H987 H 0.55438 0.61159 0.48712 0.0
H988 H 0.55266 0.61079 0.45942 0.0
H989 H 0.56746 0.58499 0.4738 0.0
H990 H 0.59554 0.57513 0.44203 0.0
H991 H 0.58411 0.56093 0.40737 0.0
H992 H 0.32084 0.59974 0.96276 0.0
H993 H 0.34788 0.59295 0.99621 0.0
H994 H 0.34141 0.66861 1.00982 0.0
H995 H 0.31674 0.67611 0.97586 0.0
H996 H 0.41565 0.62624 0.0118 0.0
H997 H 0.29244 0.62105 0.05814 0.0
H998 H 0.29327 0.61305 0.03123 0.0
H999 H 0.29662 0.644 0.03867 0.0
C1000 C 0.32547 0.61507 0.97267 0.0
C1001 C 0.31692 0.63856 0.96633 0.0
C1002 C 0.3407 0.61107 0.99184 0.0
C1003 C 0.3468 0.63033 1.00522 0.0
C1004 C 0.337 0.6536 0.99949 0.0
H1005 H 0.43841 0.65213 0.12277 0.0
H1006 H 0.43117 0.65286 0.0853 0.0
C1007 C 0.32243 0.65774 0.98015 0.0
C1008 C 0.36385 0.62613 0.02514 0.0
H1009 H 0.3461 0.61841 0.076 0.0
C1010 C 0.40061 0.62446 0.02589 0.0
C1011 C 0.34387 0.62377 0.04328 0.0
C1012 C 0.30432 0.62545 0.04298 0.0
C1013 C 0.41806 0.62073 0.04462 0.0
C1014 C 0.39805 0.61852 0.06278 0.0
C1015 C 0.36126 0.61995 0.06192 0.0
C1016 C 0.41421 0.61572 0.08322 0.0
C1017 C 0.45754 0.61905 0.045 0.0
C1018 C 0.40886 0.59425 0.09412 0.0
C1019 C 0.41313 0.5938 0.11542 0.0
C1020 C 0.42265 0.61485 0.12597 0.0
C1021 C 0.43159 0.63562 0.11482 0.0
C1022 C 0.42741 0.63605 0.09348 0.0
H1023 H 0.46906 0.61914 0.0293 0.0
H1024 H 0.46859 0.63449 0.05374 0.0
H1025 H 0.46553 0.60233 0.05303 0.0
H1026 H 0.39835 0.57848 0.08642 0.0
H1027 H 0.40567 0.57774 0.12383 0.0
H1028 H 0.20858 0.92716 0.46412 0.0
H1029 H 0.182 0.93475 0.49772 0.0
H1030 H 0.16819 0.85853 0.50701 0.0
H1031 H 0.19313 0.85067 0.47318 0.0
H1032 H 0.11033 0.91732 0.51049 0.0
H1033 H 0.22005 0.88526 0.55967 0.0
H1034 H 0.22644 0.89423 0.53323 0.0
H1035 H 0.20678 0.86559 0.53908 0.0
C1036 C 0.19985 0.91197 0.47325 0.0
C1037 C 0.20299 0.88829 0.46581 0.0
C1038 C 0.18477 0.91637 0.49246 0.0
C1039 C 0.17317 0.8972 0.50475 0.0
C1040 C 0.17723 0.87355 0.49776 0.0
H1041 H 0.06976 0.87874 0.62023 0.0
H1042 H 0.07917 0.87881 0.58291 0.0
C1043 C 0.19187 0.86911 0.47845 0.0
C1044 C 0.15603 0.90188 0.52471 0.0
H1045 H 0.16675 0.8948 0.57636 0.0
C1046 C 0.12264 0.91253 0.52493 0.0
C1047 C 0.17229 0.89557 0.54343 0.0
C1048 C 0.20848 0.88468 0.544 0.0
C1049 C 0.10484 0.91669 0.54353 0.0
C1050 C 0.12102 0.91014 0.56216 0.0
C1051 C 0.15448 0.89971 0.56193 0.0
C1052 C 0.10427 0.91382 0.58238 0.0
C1053 C 0.06893 0.92788 0.5433 0.0
C1054 C 0.11354 0.93406 0.59409 0.0
C1055 C 0.10805 0.93407 0.61534 0.0
C1056 C 0.09332 0.91382 0.62504 0.0
C1057 C 0.08063 0.89469 0.61299 0.0
C1058 C 0.08612 0.89468 0.59173 0.0
H1059 H 0.05979 0.93187 0.52745 0.0
H1060 H 0.04972 0.91554 0.55078 0.0
H1061 H 0.06944 0.94483 0.55232 0.0
H1062 H 0.12794 0.94885 0.58713 0.0
H1063 H 0.11853 0.9488 0.62442 0.0
H1064 H 0.12168 0.3079 0.3958 0.0
H1065 H 0.10145 0.27642 0.37346 0.0
H1066 H 0.20757 0.26552 0.35196 0.0
H1067 H 0.22903 0.29486 0.3773 0.0
H1068 H 0.09582 0.26983 0.33739 0.0
H1069 H 0.18833 0.19817 0.36153 0.0
H1070 H 0.18718 0.22681 0.37439 0.0
H1071 H 0.20935 0.22373 0.35001 0.0
C1072 C 0.14118 0.29839 0.38689 0.0
C1073 C 0.17733 0.30321 0.38934 0.0
C1074 C 0.12933 0.28052 0.37364 0.0
C1075 C 0.15287 0.26769 0.36129 0.0
C1076 C 0.18882 0.27411 0.36202 0.0
H1077 H 0.10212 0.14969 0.27856 0.0
H1078 H 0.12949 0.18335 0.2961 0.0
C1079 C 0.20106 0.29139 0.37621 0.0
C1080 C 0.13862 0.24782 0.34807 0.0
H1081 H 0.14646 0.18803 0.33651 0.0
C1082 C 0.10697 0.25193 0.33742 0.0
C1083 C 0.15309 0.22434 0.34767 0.0
C1084 C 0.18617 0.2179 0.35914 0.0
C1085 C 0.08877 0.23336 0.3273 0.0
C1086 C 0.10304 0.21 0.32716 0.0
C1087 C 0.13542 0.20596 0.33686 0.0
C1088 C 0.08548 0.18966 0.31637 0.0
C1089 C 0.05437 0.23896 0.31685 0.0
C1090 C 0.05159 0.18175 0.32193 0.0
C1091 C 0.03509 0.16307 0.31102 0.0
C1092 C 0.0526 0.15151 0.29474 0.0
C1093 C 0.08719 0.1587 0.29016 0.0
C1094 C 0.10319 0.17779 0.30052 0.0
H1095 H 0.05065 0.25861 0.31478 0.0
H1096 H 0.05276 0.23006 0.30161 0.0
H1097 H 0.03236 0.23211 0.32646 0.0
H1098 H 0.03788 0.19001 0.33466 0.0
H1099 H 0.00878 0.15757 0.31547 0.0
H1100 H 0.37721 0.20382 0.87332 0.0
H1101 H 0.39944 0.23589 0.85107 0.0
H1102 H 0.31002 0.27951 0.86676 0.0
H1103 H 0.28817 0.24743 0.88963 0.0
H1104 H 0.37718 0.26037 0.81826 0.0
H1105 H 0.391 0.32205 0.88497 0.0
H1106 H 0.38025 0.29059 0.88788 0.0
H1107 H 0.3468 0.3117 0.88071 0.0
C1108 C 0.36182 0.22001 0.87156 0.0
C1109 C 0.33098 0.22318 0.8831 0.0
C1110 C 0.37462 0.23839 0.85894 0.0
C1111 C 0.3569 0.26036 0.85763 0.0
C1112 C 0.32459 0.26291 0.86794 0.0
H1113 H 0.4135 0.3926 0.79407 0.0
H1114 H 0.38269 0.35988 0.81174 0.0
C1115 C 0.31177 0.24446 0.88069 0.0
C1116 C 0.37354 0.28075 0.84634 0.0
H1117 H 0.40603 0.33785 0.85238 0.0
C1118 C 0.38336 0.27733 0.82572 0.0
C1119 C 0.38222 0.30276 0.85619 0.0
C1120 C 0.37488 0.30699 0.8787 0.0
C1121 C 0.40121 0.29536 0.81466 0.0
C1122 C 0.40936 0.31736 0.82444 0.0
C1123 C 0.39945 0.32093 0.84496 0.0
C1124 C 0.42821 0.33694 0.81358 0.0
C1125 C 0.41121 0.2909 0.79255 0.0
C1126 C 0.46407 0.33487 0.80893 0.0
C1127 C 0.48178 0.35352 0.79874 0.0
C1128 C 0.46382 0.37448 0.79302 0.0
C1129 C 0.42797 0.37654 0.79796 0.0
C1130 C 0.41034 0.35794 0.80816 0.0
H1131 H 0.39881 0.27426 0.78636 0.0
H1132 H 0.40343 0.30638 0.78281 0.0
H1133 H 0.44017 0.28908 0.79139 0.0
H1134 H 0.47834 0.31885 0.81322 0.0
H1135 H 0.50939 0.35138 0.79515 0.0
H1136 H 0.66835 0.25165 0.60826 0.0
H1137 H 0.64668 0.28298 0.63125 0.0
H1138 H 0.68648 0.24408 0.68346 0.0
H1139 H 0.70792 0.21218 0.6604 0.0
H1140 H 0.59712 0.26517 0.66961 0.0
H1141 H 0.71398 0.32387 0.68413 0.0
H1142 H 0.70884 0.30773 0.6602 0.0
H1143 H 0.71879 0.29157 0.68325 0.0
C1144 C 0.673 0.2499 0.62462 0.0
C1145 C 0.68943 0.22928 0.63256 0.0
C1146 C 0.66061 0.26782 0.6377 0.0
C1147 C 0.66473 0.26569 0.65899 0.0
C1148 C 0.68308 0.24596 0.66701 0.0
H1149 H 0.57445 0.35276 0.75693 0.0
H1150 H 0.60472 0.32154 0.73735 0.0
C1151 C 0.69549 0.22787 0.65385 0.0
C1152 C 0.64714 0.28318 0.67265 0.0
H1153 H 0.66014 0.33575 0.69884 0.0
C1154 C 0.61091 0.28048 0.67618 0.0
C1155 C 0.6652 0.30322 0.68093 0.0
C1156 C 0.70388 0.30702 0.67701 0.0
C1157 C 0.59222 0.29747 0.68775 0.0
C1158 C 0.61025 0.31759 0.6959 0.0
C1159 C 0.64652 0.32019 0.69257 0.0
C1160 C 0.59164 0.33636 0.70765 0.0
C1161 C 0.55326 0.29409 0.69107 0.0
C1162 C 0.5742 0.35491 0.69734 0.0
C1163 C 0.55745 0.37305 0.70846 0.0
C1164 C 0.55774 0.37289 0.7301 0.0
C1165 C 0.57448 0.35383 0.74031 0.0
C1166 C 0.59159 0.33587 0.72918 0.0
H1167 H 0.54359 0.27652 0.68511 0.0
H1168 H 0.547 0.29531 0.70771 0.0
H1169 H 0.53887 0.30872 0.68316 0.0
H1170 H 0.57382 0.35544 0.6807 0.0
H1171 H 0.5445 0.38728 0.70006 0.0
H1172 H 0.88703 0.31205 0.13232 0.0
H1173 H 0.90878 0.28065 0.1545 0.0
H1174 H 0.8023 0.25811 0.16771 0.0
H1175 H 0.78033 0.28838 0.14341 0.0
H1176 H 0.90777 0.27015 0.19087 0.0
H1177 H 0.83812 0.19478 0.15203 0.0
H1178 H 0.83691 0.22506 0.14225 0.0
H1179 H 0.80879 0.21614 0.16326 0.0
C1180 C 0.86806 0.30032 0.13977 0.0
C1181 C 0.83195 0.30226 0.13546 0.0
C1182 C 0.8806 0.28237 0.15268 0.0
C1183 C 0.85743 0.26623 0.16239 0.0
C1184 C 0.82097 0.26954 0.15974 0.0
H1185 H 0.94037 0.17245 0.25759 0.0
H1186 H 0.90966 0.20325 0.23815 0.0
C1187 C 0.80832 0.28723 0.14618 0.0
C1188 C 0.87234 0.24613 0.17489 0.0
H1189 H 0.87229 0.18493 0.18116 0.0
C1190 C 0.89983 0.25155 0.18866 0.0
C1191 C 0.86271 0.22163 0.17189 0.0
C1192 C 0.83529 0.21399 0.15641 0.0
C1193 C 0.91811 0.23347 0.19911 0.0
C1194 C 0.90755 0.20922 0.1967 0.0
C1195 C 0.88004 0.2036 0.18313 0.0
C1196 C 0.92478 0.18958 0.20833 0.0
C1197 C 0.94967 0.24033 0.21195 0.0
C1198 C 0.94274 0.1712 0.19803 0.0
C1199 C 0.95922 0.15289 0.20914 0.0
C1200 C 0.95817 0.15268 0.23079 0.0
C1201 C 0.94078 0.17147 0.24098 0.0
C1202 C 0.92367 0.1894 0.22987 0.0
H1203 H 0.95881 0.25898 0.20875 0.0
H1204 H 0.94281 0.23913 0.22849 0.0
H1205 H 0.97175 0.22782 0.20899 0.0
H1206 H 0.94424 0.17113 0.1814 0.0
H1207 H 0.97285 0.13896 0.20074 0.0
H1208 H 0.79288 0.72189 0.66215 0.0
H1209 H 0.83085 0.74673 0.68442 0.0
H1210 H 0.89123 0.7689 0.63155 0.0
H1211 H 0.85353 0.74421 0.60939 0.0
H1212 H 0.91333 0.754 0.68833 0.0
H1213 H 0.83641 0.83011 0.65636 0.0
H1214 H 0.82026 0.79948 0.65617 0.0
H1215 H 0.85347 0.80874 0.63819 0.0
C1216 C 0.81524 0.73122 0.65549 0.0
C1217 C 0.82045 0.73111 0.63411 0.0
C1218 C 0.83671 0.74554 0.66816 0.0
C1219 C 0.86348 0.75989 0.65955 0.0
C1220 C 0.8706 0.75805 0.63846 0.0
H1221 H 0.98795 0.88326 0.7007 0.0
H1222 H 0.961 0.85037 0.68062 0.0
C1223 C 0.84925 0.74381 0.62585 0.0
C1224 C 0.88101 0.779 0.67183 0.0
H1225 H 0.884 0.84005 0.67806 0.0
C1226 C 0.90689 0.7728 0.68618 0.0
C1227 C 0.87248 0.80351 0.66895 0.0
C1228 C 0.84399 0.81101 0.65421 0.0
C1229 C 0.9249 0.7906 0.69751 0.0
C1230 C 0.91651 0.81511 0.69451 0.0
C1231 C 0.89055 0.82126 0.6802 0.0
C1232 C 0.93359 0.83463 0.70656 0.0
C1233 C 0.95327 0.7832 0.71233 0.0
C1234 C 0.92697 0.83672 0.72768 0.0
C1235 C 0.94213 0.85546 0.739 0.0
C1236 C 0.96393 0.87254 0.72946 0.0
C1237 C 0.97103 0.87033 0.70837 0.0
C1238 C 0.95565 0.85162 0.69694 0.0
H1239 H 0.96109 0.76416 0.71012 0.0
H1240 H 0.97686 0.79491 0.71053 0.0
H1241 H 0.94354 0.78531 0.72831 0.0
H1242 H 0.90989 0.82392 0.73541 0.0
H1243 H 0.9374 0.85629 0.75527 0.0
H1244 H 0.71027 0.81296 0.15976 0.0
H1245 H 0.67153 0.78922 0.1825 0.0
H1246 H 0.63861 0.74604 0.13088 0.0
H1247 H 0.67685 0.7696 0.10823 0.0
H1248 H 0.5837 0.76113 0.16647 0.0
H1249 H 0.70719 0.71364 0.18746 0.0
H1250 H 0.70727 0.74599 0.1853 0.0
H1251 H 0.70214 0.72786 0.16271 0.0
C1252 C 0.69372 0.79901 0.1532 0.0
C1253 C 0.69673 0.79295 0.13231 0.0
C1254 C 0.6718 0.7854 0.16618 0.0
C1255 C 0.65255 0.76577 0.15834 0.0
C1256 C 0.6532 0.76114 0.13719 0.0
H1257 H 0.58546 0.62942 0.20801 0.0
H1258 H 0.61088 0.66311 0.18842 0.0
C1259 C 0.67506 0.77461 0.12429 0.0
C1260 C 0.63575 0.74797 0.17222 0.0
H1261 H 0.65447 0.69794 0.20044 0.0
C1262 C 0.59905 0.74748 0.17418 0.0
C1263 C 0.65594 0.72991 0.18176 0.0
C1264 C 0.69535 0.72913 0.17928 0.0
C1265 C 0.58192 0.72916 0.18538 0.0
C1266 C 0.60221 0.7111 0.19505 0.0
C1267 C 0.63895 0.71182 0.19314 0.0
C1268 C 0.58607 0.69082 0.2067 0.0
C1269 C 0.54227 0.72879 0.18602 0.0
C1270 C 0.56398 0.69514 0.22359 0.0
C1271 C 0.54888 0.67594 0.23439 0.0
C1272 C 0.5566 0.65213 0.22894 0.0
C1273 C 0.57948 0.6477 0.21252 0.0
C1274 C 0.59385 0.66691 0.20136 0.0
H1275 H 0.53073 0.74015 0.17375 0.0
H1276 H 0.53192 0.71016 0.18434 0.0
H1277 H 0.53326 0.73594 0.20103 0.0
H1278 H 0.55855 0.71334 0.2285 0.0
H1279 H 0.53148 0.67969 0.24717 0.0
H1280 H 0.28807 0.80364 0.35536 0.0
H1281 H 0.32634 0.77957 0.33295 0.0
H1282 H 0.38656 0.75768 0.38574 0.0
H1283 H 0.34848 0.78151 0.40805 0.0
H1284 H 0.41048 0.77264 0.33013 0.0
H1285 H 0.3285 0.69694 0.36002 0.0
H1286 H 0.31356 0.7277 0.36014 0.0
H1287 H 0.34544 0.718 0.37861 0.0
C1288 C 0.31047 0.79455 0.36196 0.0
C1289 C 0.31553 0.79436 0.38334 0.0
C1290 C 0.33212 0.78073 0.34922 0.0
C1291 C 0.3589 0.76672 0.35782 0.0
C1292 C 0.36596 0.76838 0.3789 0.0
H1293 H 0.46965 0.63806 0.32219 0.0
H1294 H 0.44326 0.67194 0.34054 0.0
C1295 C 0.34437 0.78206 0.39158 0.0
C1296 C 0.37604 0.74773 0.34563 0.0
H1297 H 0.37699 0.68683 0.33941 0.0
C1298 C 0.40319 0.75387 0.33202 0.0
C1299 C 0.3663 0.72334 0.34824 0.0
C1300 C 0.33671 0.71595 0.36243 0.0
C1301 C 0.42168 0.73601 0.3213 0.0
C1302 C 0.41209 0.71152 0.32404 0.0
C1303 C 0.38452 0.70555 0.33746 0.0
C1304 C 0.42978 0.6917 0.31298 0.0
C1305 C 0.4519 0.74355 0.30764 0.0
C1306 C 0.43091 0.69154 0.29148 0.0
C1307 C 0.44662 0.67258 0.28105 0.0
C1308 C 0.46029 0.65279 0.29185 0.0
C1309 C 0.45908 0.6529 0.31342 0.0
C1310 C 0.44399 0.67222 0.32389 0.0
H1311 H 0.46246 0.76151 0.31203 0.0
H1312 H 0.47359 0.73033 0.30825 0.0
H1313 H 0.44254 0.74478 0.29153 0.0
H1314 H 0.41935 0.706 0.28268 0.0
H1315 H 0.44798 0.67355 0.26445 0.0
H1316 H 0.1579 0.71889 0.89265 0.0
H1317 H 0.12116 0.74322 0.86967 0.0
H1318 H 0.21481 0.77392 0.84248 0.0
H1319 H 0.25102 0.74898 0.86462 0.0
H1320 H 0.11908 0.79044 0.87102 0.0
H1321 H 0.15825 0.76544 0.79216 0.0
H1322 H 0.16945 0.74721 0.8141 0.0
H1323 H 0.19615 0.77292 0.80719 0.0
C1324 C 0.17037 0.72988 0.88094 0.0
C1325 C 0.20712 0.73175 0.87994 0.0
C1326 C 0.14949 0.74401 0.86805 0.0
C1327 C 0.16519 0.7602 0.85412 0.0
C1328 C 0.20197 0.76106 0.85254 0.0
H1329 H 0.10739 0.89401 0.7971 0.0
H1330 H 0.13629 0.86099 0.81565 0.0
C1331 C 0.2227 0.74679 0.86518 0.0
C1332 C 0.14383 0.77826 0.84305 0.0
H1333 H 0.13327 0.805 0.79622 0.0
C1334 C 0.12172 0.7933 0.8546 0.0
C1335 C 0.14735 0.78215 0.82163 0.0
C1336 C 0.16883 0.76587 0.80807 0.0
C1337 C 0.10404 0.81254 0.84537 0.0
C1338 C 0.10889 0.81687 0.82422 0.0
C1339 C 0.13018 0.80166 0.81256 0.0
C1340 C 0.09142 0.83693 0.81376 0.0
C1341 C 0.08077 0.82846 0.85821 0.0
C1342 C 0.05705 0.83396 0.80649 0.0
C1343 C 0.04077 0.85259 0.79592 0.0
C1344 C 0.05863 0.87441 0.79263 0.0
C1345 C 0.09321 0.8773 0.79966 0.0
C1346 C 0.10956 0.85861 0.81025 0.0
H1347 H 0.08079 0.82327 0.8747 0.0
H1348 H 0.08961 0.84748 0.85683 0.0
H1349 H 0.05339 0.82743 0.85236 0.0
H1350 H 0.04305 0.81713 0.80879 0.0
H1351 H 0.01462 0.84971 0.78983 0.0
loop_
_geom_bond_atom_site_label_1
_geom_bond_atom_site_label_2
_geom_bond_distance
_geom_bond_site_symmetry_2
_ccdc_geom_bond_type
H0 C1 0.949 . S
C1 H0 0.949 . S
C1 C2 1.395 . S
C1 C3 1.391 . S
C2 C1 1.395 . S
C2 C5 1.390 . S
C3 C1 1.391 . S
C3 C7 1.387 . S
C3 C8 1.491 . S
H4 C5 0.950 . S
C5 C2 1.390 . S
C5 H4 0.950 . S
C5 C6 1.378 . S
C6 C5 1.378 . S
C6 C7 1.409 . S
C7 C3 1.387 . S
C7 C6 1.409 . S
C7 H9 0.951 . S
C8 C3 1.491 . S
C8 C10 1.382 . S
C8 C12 1.404 . S
H9 C7 0.951 . S
C10 C8 1.382 . S
C10 C11 1.390 . S
C10 H15 0.949 . S
C11 C10 1.390 . S
C11 C16 1.399 . S
C12 C8 1.404 . S
C12 H13 0.950 . S
C12 C14 1.375 . S
H13 C12 0.950 . S
C14 C12 1.375 . S
C14 C16 1.382 . S
C14 H18 0.950 . S
H15 C10 0.949 . S
C16 C11 1.399 . S
C16 C14 1.382 . S
C16 H17 0.952 . S
H17 C16 0.952 . S
H18 C14 0.950 . S
H19 C20 0.949 . S
C20 H19 0.949 . S
C20 C21 1.395 . S
C20 C22 1.391 . S
C21 C20 1.395 . S
C21 C24 1.390 . S
C22 C20 1.391 . S
C22 C26 1.387 . S
C22 C27 1.491 . S
H23 C24 0.950 . S
C24 C21 1.390 . S
C24 H23 0.950 . S
C24 C25 1.378 . S
C25 C24 1.378 . S
C25 C26 1.409 . S
C26 C22 1.387 . S
C26 C25 1.409 . S
C26 H28 0.951 . S
C27 C22 1.491 . S
C27 C29 1.382 . S
C27 C31 1.404 . S
H28 C26 0.951 . S
C29 C27 1.382 . S
C29 C30 1.390 . S
C29 H34 0.949 . S
C30 C29 1.390 . S
C30 C35 1.399 . S
C31 C27 1.404 . S
C31 H32 0.950 . S
C31 C33 1.375 . S
H32 C31 0.950 . S
C33 C31 1.375 . S
C33 C35 1.382 . S
C33 H37 0.950 . S
H34 C29 0.949 . S
C35 C30 1.399 . S
C35 C33 1.382 . S
C35 H36 0.952 . S
H36 C35 0.952 . S
H37 C33 0.950 . S
H38 C39 0.949 . S
C39 H38 0.949 . S
C39 C40 1.395 . S
C39 C41 1.391 . S
C40 C39 1.395 . S
C40 C43 1.390 . S
C41 C39 1.391 . S
C41 C45 1.387 . S
C41 C46 1.491 . S
H42 C43 0.950 . S
C43 C40 1.390 . S
C43 H42 0.950 . S
C43 C44 1.378 . S
C44 C43 1.378 . S
C44 C45 1.409 . S
C45 C41 1.387 . S
C45 C44 1.409 . S
C45 H47 0.951 . S
C46 C41 1.491 . S
C46 C48 1.382 . S
C46 C50 1.404 . S
H47 C45 0.951 . S
C48 C46 1.382 . S
C48 C49 1.390 . S
C48 H53 0.949 . S
C49 C48 1.390 . S
C49 C54 1.399 . S
C50 C46 1.404 . S
C50 H51 0.950 . S
C50 C52 1.375 . S
H51 C50 0.950 . S
C52 C50 1.375 . S
C52 C54 1.382 . S
C52 H56 0.950 . S
H53 C48 0.949 . S
C54 C49 1.399 . S
C54 C52 1.382 . S
C54 H55 0.952 . S
H55 C54 0.952 . S
H56 C52 0.950 . S
H57 C58 0.949 . S
C58 H57 0.949 . S
C58 C59 1.395 . S
C58 C60 1.391 . S
C59 C58 1.395 . S
C59 C62 1.390 . S
C60 C58 1.391 . S
C60 C64 1.387 . S
C60 C65 1.491 . S
H61 C62 0.950 . S
C62 C59 1.390 . S
C62 H61 0.950 . S
C62 C63 1.378 . S
C63 C62 1.378 . S
C63 C64 1.409 . S
C64 C60 1.387 . S
C64 C63 1.409 . S
C64 H66 0.951 . S
C65 C60 1.491 . S
C65 C67 1.382 . S
C65 C69 1.404 . S
H66 C64 0.951 . S
C67 C65 1.382 . S
C67 C68 1.390 . S
C67 H72 0.949 . S
C68 C67 1.390 . S
C68 C73 1.399 . S
C69 C65 1.404 . S
C69 H70 0.950 . S
C69 C71 1.375 . S
H70 C69 0.950 . S
C71 C69 1.375 . S
C71 C73 1.382 . S
C71 H75 0.950 . S
H72 C67 0.949 . S
C73 C68 1.399 . S
C73 C71 1.382 . S
C73 H74 0.952 . S
H74 C73 0.952 . S
H75 C71 0.950 . S
H76 C77 0.949 . S
C77 H76 0.949 . S
C77 C78 1.395 . S
C77 C79 1.391 . S
C78 C77 1.395 . S
C78 C81 1.390 . S
C79 C77 1.391 . S
C79 C83 1.387 . S
C79 C84 1.491 . S
H80 C81 0.950 . S
C81 C78 1.390 . S
C81 H80 0.950 . S
C81 C82 1.378 . S
C82 C81 1.378 . S
C82 C83 1.409 . S
C83 C79 1.387 . S
C83 C82 1.409 . S
C83 H85 0.951 . S
C84 C79 1.491 . S
C84 C86 1.382 . S
C84 C88 1.404 . S
H85 C83 0.951 . S
C86 C84 1.382 . S
C86 C87 1.390 . S
C86 H91 0.949 . S
C87 C86 1.390 . S
C87 C92 1.399 . S
C88 C84 1.404 . S
C88 H89 0.950 . S
C88 C90 1.375 . S
H89 C88 0.950 . S
C90 C88 1.375 . S
C90 C92 1.382 . S
C90 H94 0.950 . S
H91 C86 0.949 . S
C92 C87 1.399 . S
C92 C90 1.382 . S
C92 H93 0.952 . S
H93 C92 0.952 . S
H94 C90 0.950 . S
H95 C96 0.949 . S
C96 H95 0.949 . S
C96 C97 1.395 . S
C96 C98 1.391 . S
C97 C96 1.395 . S
C97 C100 1.390 . S
C98 C96 1.391 . S
C98 C102 1.387 . S
C98 C103 1.491 . S
H99 C100 0.950 . S
C100 C97 1.390 . S
C100 H99 0.950 . S
C100 C101 1.378 . S
C101 C100 1.378 . S
C101 C102 1.409 . S
C102 C98 1.387 . S
C102 C101 1.409 . S
C102 H104 0.951 . S
C103 C98 1.491 . S
C103 C105 1.382 . S
C103 C107 1.404 . S
H104 C102 0.951 . S
C105 C103 1.382 . S
C105 C106 1.390 . S
C105 H110 0.949 . S
C106 C105 1.390 . S
C106 C111 1.399 . S
C107 C103 1.404 . S
C107 H108 0.950 . S
C107 C109 1.375 . S
H108 C107 0.950 . S
C109 C107 1.375 . S
C109 C111 1.382 . S
C109 H113 0.950 . S
H110 C105 0.949 . S
C111 C106 1.399 . S
C111 C109 1.382 . S
C111 H112 0.952 . S
H112 C111 0.952 . S
H113 C109 0.950 . S
H114 C115 0.949 . S
C115 H114 0.949 . S
C115 C116 1.395 . S
C115 C117 1.391 . S
C116 C115 1.395 . S
C116 C119 1.390 . S
C117 C115 1.391 . S
C117 C121 1.387 . S
C117 C122 1.491 . S
H118 C119 0.950 . S
C119 C116 1.390 . S
C119 H118 0.950 . S
C119 C120 1.378 . S
C120 C119 1.378 . S
C120 C121 1.409 . S
C121 C117 1.387 . S
C121 C120 1.409 . S
C121 H123 0.951 . S
C122 C117 1.491 . S
C122 C124 1.382 . S
C122 C126 1.404 . S
H123 C121 0.951 . S
C124 C122 1.382 . S
C124 C125 1.390 . S
C124 H129 0.949 . S
C125 C124 1.390 . S
C125 C130 1.399 . S
C126 C122 1.404 . S
C126 H127 0.950 . S
C126 C128 1.375 . S
H127 C126 0.950 . S
C128 C126 1.375 . S
C128 C130 1.382 . S
C128 H132 0.950 . S
H129 C124 0.949 . S
C130 C125 1.399 . S
C130 C128 1.382 . S
C130 H131 0.952 . S
H131 C130 0.952 . S
H132 C128 0.950 . S
H133 C134 0.949 . S
C134 H133 0.949 . S
C134 C135 1.395 . S
C134 C136 1.391 . S
C135 C134 1.395 . S
C135 C138 1.390 . S
C136 C134 1.391 . S
C136 C140 1.387 . S
C136 C141 1.491 . S
H137 C138 0.950 . S
C138 C135 1.390 . S
C138 H137 0.950 . S
C138 C139 1.378 . S
C139 C138 1.378 . S
C139 C140 1.409 . S
C140 C136 1.387 . S
C140 C139 1.409 . S
C140 H142 0.951 . S
C141 C136 1.491 . S
C141 C143 1.382 . S
C141 C145 1.404 . S
H142 C140 0.951 . S
C143 C141 1.382 . S
C143 C144 1.390 . S
C143 H148 0.949 . S
C144 C143 1.390 . S
C144 C149 1.399 . S
C145 C141 1.404 . S
C145 H146 0.950 . S
C145 C147 1.375 . S
H146 C145 0.950 . S
C147 C145 1.375 . S
C147 C149 1.382 . S
C147 H151 0.950 . S
H148 C143 0.949 . S
C149 C144 1.399 . S
C149 C147 1.382 . S
C149 H150 0.952 . S
H150 C149 0.952 . S
H151 C147 0.950 . S
C152 C154 1.422 . S
C152 C156 1.415 . S
C152 N158 1.369 . S
C153 C154 1.421 . S
C153 C155 1.417 . S
C153 C165 1.422 . S
C154 C152 1.422 . S
C154 C153 1.421 . S
C154 N164 1.359 . S
C155 C153 1.417 . S
C155 C157 1.329 . S
C155 H174 0.930 . S
C156 C152 1.415 . S
C156 C157 1.437 . S
C156 C160 1.413 . S
C157 C155 1.329 . S
C157 C156 1.437 . S
C157 H179 0.929 . S
N158 C152 1.369 . S
N158 C159 1.338 . S
N158 Gd163 2.622 . S
C159 N158 1.338 . S
C159 C161 1.378 . S
C159 H171 0.929 . S
C160 C156 1.413 . S
C160 C161 1.348 . S
C160 H176 0.931 . S
C161 C159 1.378 . S
C161 C160 1.348 . S
C161 H177 0.930 . S
Gd162 N182 2.622 . S
Gd162 N189 2.570 . S
Gd162 O196 2.364 . S
Gd162 O197 2.468 . S
Gd162 O198 2.427 . S
Gd162 O200 2.388 . S
Gd162 O201 2.386 . S
Gd162 O205 2.304 1_455 S
Gd162 C215 2.805 . S
Gd163 N158 2.622 . S
Gd163 N164 2.570 . S
Gd163 O195 2.386 . S
Gd163 O199 2.307 1_655 S
Gd163 O202 2.353 1_655 S
Gd163 O203 2.468 . S
Gd163 O204 2.427 . S
Gd163 O206 2.388 . S
Gd163 C227 2.805 . S
N164 C154 1.359 . S
N164 Gd163 2.570 . S
N164 C166 1.343 . S
C165 C153 1.422 . S
C165 C167 1.321 . S
C165 H173 0.931 1_545 S
C166 N164 1.343 . S
C166 C167 1.390 . S
C166 H168 0.931 . S
C167 C165 1.321 . S
C167 C166 1.390 . S
C167 H169 0.930 1_545 S
H168 C166 0.931 . S
H169 C167 0.930 1_565 S
H170 C193 0.931 . S
H171 C159 0.929 . S
H172 C194 0.930 . S
H173 C165 0.931 1_565 S
H174 C155 0.930 . S
H175 C184 0.929 . S
H176 C160 0.931 . S
H177 C161 0.930 . S
H178 C216 0.930 . S
H179 C157 0.929 . S
H180 C185 0.931 . S
H181 C186 0.930 . S
N182 Gd162 2.622 . S
N182 C183 1.369 . S
N182 C184 1.338 . S
C183 N182 1.369 . S
C183 C187 1.415 . S
C183 C190 1.422 . S
C184 H175 0.929 . S
C184 N182 1.338 . S
C184 C186 1.378 . S
C185 H180 0.931 . S
C185 C186 1.348 . S
C185 C187 1.413 . S
C186 H181 0.930 . S
C186 C184 1.378 . S
C186 C185 1.348 . S
C187 C183 1.415 . S
C187 C185 1.413 . S
C187 C217 1.437 . S
H188 C217 0.929 . S
N189 Gd162 2.570 . S
N189 C190 1.359 . S
N189 C193 1.343 . S
C190 C183 1.422 . S
C190 N189 1.359 . S
C190 C192 1.421 . S
C191 C192 1.422 . S
C191 C194 1.321 . S
C191 H218 0.931 . S
C192 C190 1.421 . S
C192 C191 1.422 . S
C192 C216 1.417 . S
C193 H170 0.931 . S
C193 N189 1.343 . S
C193 C194 1.390 . S
C194 H172 0.930 . S
C194 C191 1.321 . S
C194 C193 1.390 . S
O195 Gd163 2.386 . S
O195 C207 1.265 . S
O196 Gd162 2.364 . S
O196 C207 1.228 1_455 S
O197 Gd162 2.468 . S
O197 C215 1.263 . S
O198 Gd162 2.427 . S
O198 C215 1.252 . S
O199 Gd163 2.307 1_455 S
O199 C208 1.261 . S
O200 Gd162 2.388 . S
O200 C208 1.252 . S
O201 Gd162 2.386 . S
O201 C219 1.265 . S
O202 Gd163 2.353 1_455 S
O202 C219 1.242 . S
O203 Gd163 2.468 . S
O203 C227 1.263 . S
O204 Gd163 2.427 . S
O204 C227 1.252 . S
O205 Gd162 2.304 1_655 S
O205 C220 1.264 . S
O206 Gd163 2.388 . S
O206 C220 1.252 . S
C207 O195 1.265 . S
C207 O196 1.228 1_655 S
C208 O199 1.261 . S
C208 O200 1.252 . S
C209 C212 1.394 . S
C209 C214 1.370 . S
C209 C215 1.500 . S
C210 C213 1.383 . S
C210 C214 1.395 . S
C211 C212 1.396 . S
C211 C213 1.365 . S
C211 H228 0.929 . S
C212 C209 1.394 . S
C212 C211 1.396 . S
C212 H229 0.930 . S
C213 C210 1.383 . S
C213 C211 1.365 . S
C213 H230 0.931 . S
C214 C209 1.370 . S
C214 C210 1.395 . S
C214 H231 0.930 . S
C215 Gd162 2.805 . S
C215 O197 1.263 . S
C215 O198 1.252 . S
C215 C209 1.500 . S
C216 H178 0.930 . S
C216 C192 1.417 . S
C216 C217 1.329 . S
C217 C187 1.437 . S
C217 H188 0.929 . S
C217 C216 1.329 . S
H218 C191 0.931 . S
C219 O201 1.265 . S
C219 O202 1.242 . S
C220 O205 1.264 . S
C220 O206 1.252 . S
C221 C224 1.394 . S
C221 C226 1.370 . S
C221 C227 1.500 . S
C222 C225 1.383 . S
C222 C226 1.395 . S
C223 C224 1.396 . S
C223 C225 1.365 . S
C223 H232 0.929 . S
C224 C221 1.394 . S
C224 C223 1.396 . S
C224 H233 0.930 . S
C225 C222 1.383 . S
C225 C223 1.365 . S
C225 H234 0.931 . S
C226 C221 1.370 . S
C226 C222 1.395 . S
C226 H235 0.930 . S
C227 Gd163 2.805 . S
C227 O203 1.263 . S
C227 O204 1.252 . S
C227 C221 1.500 . S
H228 C211 0.929 . S
H229 C212 0.930 . S
H230 C213 0.931 . S
H231 C214 0.930 . S
H232 C223 0.929 . S
H233 C224 0.930 . S
H234 C225 0.931 . S
H235 C226 0.930 . S
C236 C238 1.422 . S
C236 C240 1.415 . S
C236 N242 1.369 . S
C237 C238 1.421 . S
C237 C239 1.417 . S
C237 C249 1.422 . S
C238 C236 1.422 . S
C238 C237 1.421 . S
C238 N248 1.359 . S
C239 C237 1.417 . S
C239 C241 1.329 . S
C239 H258 0.930 . S
C240 C236 1.415 . S
C240 C241 1.437 . S
C240 C244 1.413 . S
C241 C239 1.329 . S
C241 C240 1.437 . S
C241 H263 0.929 . S
N242 C236 1.369 . S
N242 C243 1.338 . S
N242 Gd247 2.622 . S
C243 N242 1.338 . S
C243 C245 1.378 . S
C243 H255 0.929 . S
C244 C240 1.413 . S
C244 C245 1.348 . S
C244 H260 0.931 . S
C245 C243 1.378 . S
C245 C244 1.348 . S
C245 H261 0.930 . S
Gd246 N266 2.622 . S
Gd246 N273 2.570 . S
Gd246 O280 2.353 . S
Gd246 O281 2.468 . S
Gd246 O282 2.427 . S
Gd246 O284 2.388 . S
Gd246 O285 2.386 . S
Gd246 O289 2.307 . S
Gd246 C299 2.805 . S
Gd247 N242 2.622 . S
Gd247 N248 2.570 . S
Gd247 O279 2.386 . S
Gd247 O283 2.307 . S
Gd247 O286 2.353 . S
Gd247 O287 2.468 . S
Gd247 O288 2.427 . S
Gd247 O290 2.388 . S
Gd247 C311 2.805 . S
N248 C238 1.359 . S
N248 Gd247 2.570 . S
N248 C250 1.343 . S
C249 C237 1.422 . S
C249 C251 1.321 . S
C249 H257 0.931 . S
C250 N248 1.343 . S
C250 C251 1.390 . S
C250 H252 0.931 . S
C251 C249 1.321 . S
C251 C250 1.390 . S
C251 H253 0.930 . S
H252 C250 0.931 . S
H253 C251 0.930 . S
H254 C277 0.931 . S
H255 C243 0.929 . S
H256 C278 0.930 . S
H257 C249 0.931 . S
H258 C239 0.930 . S
H259 C268 0.929 . S
H260 C244 0.931 . S
H261 C245 0.930 . S
H262 C300 0.930 . S
H263 C241 0.929 . S
H264 C269 0.931 . S
H265 C270 0.930 . S
N266 Gd246 2.622 . S
N266 C267 1.369 . S
N266 C268 1.338 . S
C267 N266 1.369 . S
C267 C271 1.415 . S
C267 C274 1.422 . S
C268 H259 0.929 . S
C268 N266 1.338 . S
C268 C270 1.378 . S
C269 H264 0.931 . S
C269 C270 1.348 . S
C269 C271 1.413 . S
C270 H265 0.930 . S
C270 C268 1.378 . S
C270 C269 1.348 . S
C271 C267 1.415 . S
C271 C269 1.413 . S
C271 C301 1.437 . S
H272 C301 0.929 . S
N273 Gd246 2.570 . S
N273 C274 1.359 . S
N273 C277 1.343 . S
C274 C267 1.422 . S
C274 N273 1.359 . S
C274 C276 1.421 . S
C275 C276 1.422 . S
C275 C278 1.321 . S
C275 H302 0.931 . S
C276 C274 1.421 . S
C276 C275 1.422 . S
C276 C300 1.417 . S
C277 H254 0.931 . S
C277 N273 1.343 . S
C277 C278 1.390 . S
C278 H256 0.930 . S
C278 C275 1.321 . S
C278 C277 1.390 . S
O279 Gd247 2.386 . S
O279 C291 1.265 . S
O280 Gd246 2.353 . S
O280 C291 1.242 . S
O281 Gd246 2.468 . S
O281 C299 1.263 . S
O282 Gd246 2.427 . S
O282 C299 1.252 . S
O283 Gd247 2.307 . S
O283 C292 1.261 . S
O284 Gd246 2.388 . S
O284 C292 1.252 . S
O285 Gd246 2.386 . S
O285 C303 1.265 . S
O286 Gd247 2.353 . S
O286 C303 1.242 . S
O287 Gd247 2.468 . S
O287 C311 1.263 . S
O288 Gd247 2.427 . S
O288 C311 1.252 . S
O289 Gd246 2.307 . S
O289 C304 1.261 . S
O290 Gd247 2.388 . S
O290 C304 1.252 . S
C291 O279 1.265 . S
C291 O280 1.242 . S
C292 O283 1.261 . S
C292 O284 1.252 . S
C293 C296 1.394 . S
C293 C298 1.370 . S
C293 C299 1.500 . S
C294 C297 1.383 . S
C294 C298 1.395 . S
C295 C296 1.396 . S
C295 C297 1.365 . S
C295 H312 0.929 . S
C296 C293 1.394 . S
C296 C295 1.396 . S
C296 H313 0.930 . S
C297 C294 1.383 . S
C297 C295 1.365 . S
C297 H314 0.931 . S
C298 C293 1.370 . S
C298 C294 1.395 . S
C298 H315 0.930 . S
C299 Gd246 2.805 . S
C299 O281 1.263 . S
C299 O282 1.252 . S
C299 C293 1.500 . S
C300 H262 0.930 . S
C300 C276 1.417 . S
C300 C301 1.329 . S
C301 C271 1.437 . S
C301 H272 0.929 . S
C301 C300 1.329 . S
H302 C275 0.931 . S
C303 O285 1.265 . S
C303 O286 1.242 . S
C304 O289 1.261 . S
C304 O290 1.252 . S
C305 C308 1.394 . S
C305 C310 1.370 . S
C305 C311 1.500 . S
C306 C309 1.383 . S
C306 C310 1.395 . S
C307 C308 1.396 . S
C307 C309 1.365 . S
C307 H316 0.929 . S
C308 C305 1.394 . S
C308 C307 1.396 . S
C308 H317 0.930 . S
C309 C306 1.383 . S
C309 C307 1.365 . S
C309 H318 0.931 . S
C310 C305 1.370 . S
C310 C306 1.395 . S
C310 H319 0.930 . S
C311 Gd247 2.805 . S
C311 O287 1.263 . S
C311 O288 1.252 . S
C311 C305 1.500 . S
H312 C295 0.929 . S
H313 C296 0.930 . S
H314 C297 0.931 . S
H315 C298 0.930 . S
H316 C307 0.929 . S
H317 C308 0.930 . S
H318 C309 0.931 . S
H319 C310 0.930 . S
C320 C322 1.422 . S
C320 C324 1.415 . S
C320 N326 1.369 . S
C321 C322 1.421 . S
C321 C323 1.417 . S
C321 C333 1.422 . S
C322 C320 1.422 . S
C322 C321 1.421 . S
C322 N332 1.359 . S
C323 C321 1.417 . S
C323 C325 1.329 . S
C323 H342 0.930 . S
C324 C320 1.415 . S
C324 C325 1.437 . S
C324 C328 1.413 . S
C325 C323 1.329 . S
C325 C324 1.437 . S
C325 H347 0.929 . S
N326 C320 1.369 . S
N326 C327 1.338 . S
N326 Gd331 2.622 . S
C327 N326 1.338 . S
C327 C329 1.378 . S
C327 H339 0.929 . S
C328 C324 1.413 . S
C328 C329 1.348 . S
C328 H344 0.931 . S
C329 C327 1.378 . S
C329 C328 1.348 . S
C329 H345 0.930 . S
Gd330 N350 2.622 . S
Gd330 N357 2.570 . S
Gd330 O364 2.353 . S
Gd330 O365 2.468 . S
Gd330 O366 2.427 . S
Gd330 O368 2.388 . S
Gd330 O369 2.386 . S
Gd330 O373 2.307 . S
Gd330 C383 2.805 . S
Gd331 N326 2.622 . S
Gd331 N332 2.570 . S
Gd331 O363 2.386 . S
Gd331 O367 2.307 1_655 S
Gd331 O370 2.353 1_655 S
Gd331 O371 2.468 . S
Gd331 O372 2.427 . S
Gd331 O374 2.388 . S
Gd331 C395 2.805 . S
N332 C322 1.359 . S
N332 Gd331 2.570 . S
N332 C334 1.343 . S
C333 C321 1.422 . S
C333 C335 1.321 . S
C333 H341 0.931 . S
C334 N332 1.343 . S
C334 C335 1.390 . S
C334 H336 0.931 . S
C335 C333 1.321 . S
C335 C334 1.390 . S
C335 H337 0.930 . S
H336 C334 0.931 . S
H337 C335 0.930 . S
H338 C361 0.931 . S
H339 C327 0.929 . S
H340 C362 0.930 1_545 S
H341 C333 0.931 . S
H342 C323 0.930 . S
H343 C352 0.929 . S
H344 C328 0.931 . S
H345 C329 0.930 . S
H346 C384 0.930 . S
H347 C325 0.929 . S
H348 C353 0.931 . S
H349 C354 0.930 . S
N350 Gd330 2.622 . S
N350 C351 1.369 . S
N350 C352 1.338 . S
C351 N350 1.369 . S
C351 C355 1.415 . S
C351 C358 1.422 . S
C352 H343 0.929 . S
C352 N350 1.338 . S
C352 C354 1.378 . S
C353 H348 0.931 . S
C353 C354 1.348 . S
C353 C355 1.413 . S
C354 H349 0.930 . S
C354 C352 1.378 . S
C354 C353 1.348 . S
C355 C351 1.415 . S
C355 C353 1.413 . S
C355 C385 1.437 . S
H356 C385 0.929 . S
N357 Gd330 2.570 . S
N357 C358 1.359 . S
N357 C361 1.343 . S
C358 C351 1.422 . S
C358 N357 1.359 . S
C358 C360 1.421 . S
C359 C360 1.422 . S
C359 C362 1.321 . S
C359 H386 0.931 1_565 S
C360 C358 1.421 . S
C360 C359 1.422 . S
C360 C384 1.417 . S
C361 H338 0.931 . S
C361 N357 1.343 . S
C361 C362 1.390 . S
C362 H340 0.930 1_565 S
C362 C359 1.321 . S
C362 C361 1.390 . S
O363 Gd331 2.386 . S
O363 C375 1.265 . S
O364 Gd330 2.353 . S
O364 C375 1.242 1_455 S
O365 Gd330 2.468 . S
O365 C383 1.263 . S
O366 Gd330 2.427 . S
O366 C383 1.252 . S
O367 Gd331 2.307 1_455 S
O367 C376 1.261 . S
O368 Gd330 2.388 . S
O368 C376 1.252 . S
O369 Gd330 2.386 . S
O369 C387 1.265 . S
O370 Gd331 2.353 1_455 S
O370 C387 1.242 . S
O371 Gd331 2.468 . S
O371 C395 1.263 . S
O372 Gd331 2.427 . S
O372 C395 1.252 . S
O373 Gd330 2.307 . S
O373 C388 1.261 1_455 S
O374 Gd331 2.388 . S
O374 C388 1.252 . S
C375 O363 1.265 . S
C375 O364 1.242 1_655 S
C376 O367 1.261 . S
C376 O368 1.252 . S
C377 C380 1.394 . S
C377 C382 1.370 . S
C377 C383 1.500 . S
C378 C381 1.383 . S
C378 C382 1.395 . S
C379 C380 1.396 . S
C379 C381 1.365 . S
C379 H396 0.929 . S
C380 C377 1.394 . S
C380 C379 1.396 . S
C380 H397 0.930 . S
C381 C378 1.383 . S
C381 C379 1.365 . S
C381 H398 0.931 . S
C382 C377 1.370 . S
C382 C378 1.395 . S
C382 H399 0.930 . S
C383 Gd330 2.805 . S
C383 O365 1.263 . S
C383 O366 1.252 . S
C383 C377 1.500 . S
C384 H346 0.930 . S
C384 C360 1.417 . S
C384 C385 1.329 . S
C385 C355 1.437 . S
C385 H356 0.929 . S
C385 C384 1.329 . S
H386 C359 0.931 1_545 S
C387 O369 1.265 . S
C387 O370 1.242 . S
C388 O373 1.261 1_655 S
C388 O374 1.252 . S
C389 C392 1.394 . S
C389 C394 1.370 . S
C389 C395 1.500 . S
C390 C393 1.383 . S
C390 C394 1.395 . S
C391 C392 1.396 . S
C391 C393 1.365 . S
C391 H400 0.929 . S
C392 C389 1.394 . S
C392 C391 1.396 . S
C392 H401 0.930 . S
C393 C390 1.383 . S
C393 C391 1.365 . S
C393 H402 0.931 . S
C394 C389 1.370 . S
C394 C390 1.395 . S
C394 H403 0.930 . S
C395 Gd331 2.805 . S
C395 O371 1.263 . S
C395 O372 1.252 . S
C395 C389 1.500 . S
H396 C379 0.929 . S
H397 C380 0.930 . S
H398 C381 0.931 . S
H399 C382 0.930 . S
H400 C391 0.929 . S
H401 C392 0.930 . S
H402 C393 0.931 . S
H403 C394 0.930 . S
C404 C406 1.422 . S
C404 C408 1.415 . S
C404 N410 1.369 . S
C405 C406 1.421 . S
C405 C407 1.417 . S
C405 C417 1.422 . S
C406 C404 1.422 . S
C406 C405 1.421 . S
C406 N416 1.359 . S
C407 C405 1.417 . S
C407 C409 1.329 . S
C407 H426 0.930 . S
C408 C404 1.415 . S
C408 C409 1.437 . S
C408 C412 1.413 . S
C409 C407 1.329 . S
C409 C408 1.437 . S
C409 H431 0.929 . S
N410 C404 1.369 . S
N410 C411 1.338 . S
N410 Gd415 2.622 . S
C411 N410 1.338 . S
C411 C413 1.378 . S
C411 H423 0.929 . S
C412 C408 1.413 . S
C412 C413 1.348 . S
C412 H428 0.931 . S
C413 C411 1.378 . S
C413 C412 1.348 . S
C413 H429 0.930 . S
Gd414 N434 2.622 . S
Gd414 N441 2.570 . S
Gd414 O448 2.353 . S
Gd414 O449 2.468 . S
Gd414 O450 2.427 . S
Gd414 O452 2.388 . S
Gd414 O453 2.386 . S
Gd414 O457 2.307 . S
Gd414 C467 2.805 . S
Gd415 N410 2.622 . S
Gd415 N416 2.570 . S
Gd415 O447 2.386 . S
Gd415 O451 2.307 . S
Gd415 O454 2.353 . S
Gd415 O455 2.468 . S
Gd415 O456 2.427 . S
Gd415 O458 2.388 . S
Gd415 C479 2.805 . S
N416 C406 1.359 . S
N416 Gd415 2.570 . S
N416 C418 1.343 . S
C417 C405 1.422 . S
C417 C419 1.321 . S
C417 H425 0.931 . S
C418 N416 1.343 . S
C418 C419 1.390 . S
C418 H420 0.931 . S
C419 C417 1.321 . S
C419 C418 1.390 . S
C419 H421 0.930 . S
H420 C418 0.931 . S
H421 C419 0.930 . S
H422 C445 0.931 . S
H423 C411 0.929 . S
H424 C446 0.930 . S
H425 C417 0.931 . S
H426 C407 0.930 . S
H427 C436 0.929 . S
H428 C412 0.931 . S
H429 C413 0.930 . S
H430 C468 0.930 . S
H431 C409 0.929 . S
H432 C437 0.931 . S
H433 C438 0.930 . S
N434 Gd414 2.622 . S
N434 C435 1.369 . S
N434 C436 1.338 . S
C435 N434 1.369 . S
C435 C439 1.415 . S
C435 C442 1.422 . S
C436 H427 0.929 . S
C436 N434 1.338 . S
C436 C438 1.378 . S
C437 H432 0.931 . S
C437 C438 1.348 . S
C437 C439 1.413 . S
C438 H433 0.930 . S
C438 C436 1.378 . S
C438 C437 1.348 . S
C439 C435 1.415 . S
C439 C437 1.413 . S
C439 C469 1.437 . S
H440 C469 0.929 . S
N441 Gd414 2.570 . S
N441 C442 1.359 . S
N441 C445 1.343 . S
C442 C435 1.422 . S
C442 N441 1.359 . S
C442 C444 1.421 . S
C443 C444 1.422 . S
C443 C446 1.321 . S
C443 H470 0.931 . S
C444 C442 1.421 . S
C444 C443 1.422 . S
C444 C468 1.417 . S
C445 H422 0.931 . S
C445 N441 1.343 . S
C445 C446 1.390 . S
C446 H424 0.930 . S
C446 C443 1.321 . S
C446 C445 1.390 . S
O447 Gd415 2.386 . S
O447 C459 1.265 . S
O448 Gd414 2.353 . S
O448 C459 1.242 . S
O449 Gd414 2.468 . S
O449 C467 1.263 . S
O450 Gd414 2.427 . S
O450 C467 1.252 . S
O451 Gd415 2.307 . S
O451 C460 1.261 . S
O452 Gd414 2.388 . S
O452 C460 1.252 . S
O453 Gd414 2.386 . S
O453 C471 1.265 . S
O454 Gd415 2.353 . S
O454 C471 1.242 . S
O455 Gd415 2.468 . S
O455 C479 1.263 . S
O456 Gd415 2.427 . S
O456 C479 1.252 . S
O457 Gd414 2.307 . S
O457 C472 1.261 . S
O458 Gd415 2.388 . S
O458 C472 1.252 . S
C459 O447 1.265 . S
C459 O448 1.242 . S
C460 O451 1.261 . S
C460 O452 1.252 . S
C461 C464 1.394 . S
C461 C466 1.370 . S
C461 C467 1.500 . S
C462 C465 1.383 . S
C462 C466 1.395 . S
C463 C464 1.396 . S
C463 C465 1.365 . S
C463 H480 0.929 . S
C464 C461 1.394 . S
C464 C463 1.396 . S
C464 H481 0.930 . S
C465 C462 1.383 . S
C465 C463 1.365 . S
C465 H482 0.931 . S
C466 C461 1.370 . S
C466 C462 1.395 . S
C466 H483 0.930 . S
C467 Gd414 2.805 . S
C467 O449 1.263 . S
C467 O450 1.252 . S
C467 C461 1.500 . S
C468 H430 0.930 . S
C468 C444 1.417 . S
C468 C469 1.329 . S
C469 C439 1.437 . S
C469 H440 0.929 . S
C469 C468 1.329 . S
H470 C443 0.931 . S
C471 O453 1.265 . S
C471 O454 1.242 . S
C472 O457 1.261 . S
C472 O458 1.252 . S
C473 C476 1.394 . S
C473 C478 1.370 . S
C473 C479 1.500 . S
C474 C477 1.383 . S
C474 C478 1.395 . S
C475 C476 1.396 . S
C475 C477 1.365 . S
C475 H484 0.929 . S
C476 C473 1.394 . S
C476 C475 1.396 . S
C476 H485 0.930 . S
C477 C474 1.383 . S
C477 C475 1.365 . S
C477 H486 0.931 . S
C478 C473 1.370 . S
C478 C474 1.395 . S
C478 H487 0.930 . S
C479 Gd415 2.805 . S
C479 O455 1.263 . S
C479 O456 1.252 . S
C479 C473 1.500 . S
H480 C463 0.929 . S
H481 C464 0.930 . S
H482 C465 0.931 . S
H483 C466 0.930 . S
H484 C475 0.929 . S
H485 C476 0.930 . S
H486 C477 0.931 . S
H487 C478 0.930 . S
H488 C496 0.929 . S
H489 C498 0.930 . S
H490 C500 0.930 . S
H491 C503 0.929 . S
H492 C506 0.930 . S
H493 C508 0.960 . S
H494 C508 0.960 . S
H495 C508 0.960 . S
C496 H488 0.929 . S
C496 C497 1.377 . S
C496 C498 1.384 . S
C497 C496 1.377 . S
C497 C503 1.390 . S
C498 H489 0.930 . S
C498 C496 1.384 . S
C498 C499 1.372 . S
C499 C498 1.372 . S
C499 C500 1.400 . S
C499 C504 1.490 . S
C500 H490 0.930 . S
C500 C499 1.400 . S
C500 C503 1.386 . S
H501 C517 0.930 . S
H502 C518 0.931 . S
C503 H491 0.929 . S
C503 C497 1.390 . S
C503 C500 1.386 . S
C504 C499 1.490 . S
C504 C506 1.395 . S
C504 C507 1.403 . S
H505 C511 0.930 . S
C506 H492 0.930 . S
C506 C504 1.395 . S
C506 C509 1.403 . S
C507 C504 1.403 . S
C507 C508 1.524 . S
C507 C511 1.400 . S
C508 H493 0.960 . S
C508 H494 0.960 . S
C508 H495 0.960 . S
C508 C507 1.524 . S
C509 C506 1.403 . S
C509 C510 1.392 . S
C509 C513 1.495 . S
C510 C509 1.392 . S
C510 C511 1.385 . S
C510 C512 1.478 1_565 S
C511 H505 0.930 . S
C511 C507 1.400 . S
C511 C510 1.385 . S
C512 C510 1.478 1_545 S
C512 C514 1.381 . S
C512 C518 1.383 . S
C513 C509 1.495 . S
C513 H519 0.959 . S
C513 H520 0.961 1_565 S
C513 H521 0.960 . S
C514 C512 1.381 . S
C514 C515 1.394 . S
C514 H522 0.930 1_545 S
C515 C514 1.394 . S
C515 C516 1.383 . S
C515 H523 0.929 . S
C516 C515 1.383 . S
C516 C517 1.377 . S
C517 H501 0.930 . S
C517 C516 1.377 . S
C517 C518 1.379 . S
C518 H502 0.931 . S
C518 C512 1.383 . S
C518 C517 1.379 . S
H519 C513 0.959 . S
H520 C513 0.961 1_545 S
H521 C513 0.960 . S
H522 C514 0.930 1_565 S
H523 C515 0.929 . S
H524 C532 0.929 . S
H525 C534 0.930 . S
H526 C536 0.930 . S
H527 C539 0.929 . S
H528 C542 0.930 . S
H529 C544 0.960 . S
H530 C544 0.960 . S
H531 C544 0.960 . S
C532 H524 0.929 . S
C532 C533 1.377 . S
C532 C534 1.384 . S
C533 C532 1.377 . S
C533 C539 1.390 . S
C534 H525 0.930 . S
C534 C532 1.384 . S
C534 C535 1.372 . S
C535 C534 1.372 . S
C535 C536 1.400 . S
C535 C540 1.490 . S
C536 H526 0.930 . S
C536 C535 1.400 . S
C536 C539 1.386 . S
H537 C553 0.930 . S
H538 C554 0.931 . S
C539 H527 0.929 . S
C539 C533 1.390 . S
C539 C536 1.386 . S
C540 C535 1.490 . S
C540 C542 1.395 . S
C540 C543 1.403 . S
H541 C547 0.930 . S
C542 H528 0.930 . S
C542 C540 1.395 . S
C542 C545 1.403 . S
C543 C540 1.403 . S
C543 C544 1.524 . S
C543 C547 1.400 . S
C544 H529 0.960 . S
C544 H530 0.960 . S
C544 H531 0.960 . S
C544 C543 1.524 . S
C545 C542 1.403 . S
C545 C546 1.392 . S
C545 C549 1.495 . S
C546 C545 1.392 . S
C546 C547 1.385 . S
C546 C548 1.478 . S
C547 H541 0.930 . S
C547 C543 1.400 . S
C547 C546 1.385 . S
C548 C546 1.478 . S
C548 C550 1.381 . S
C548 C554 1.383 . S
C549 C545 1.495 . S
C549 H555 0.959 . S
C549 H556 0.961 . S
C549 H557 0.960 . S
C550 C548 1.381 . S
C550 C551 1.394 . S
C550 H558 0.930 . S
C551 C550 1.394 . S
C551 C552 1.383 . S
C551 H559 0.929 . S
C552 C551 1.383 . S
C552 C553 1.377 . S
C553 H537 0.930 . S
C553 C552 1.377 . S
C553 C554 1.379 . S
C554 H538 0.931 . S
C554 C548 1.383 . S
C554 C553 1.379 . S
H555 C549 0.959 . S
H556 C549 0.961 . S
H557 C549 0.960 . S
H558 C550 0.930 . S
H559 C551 0.929 . S
H560 C568 0.929 . S
H561 C570 0.930 . S
H562 C572 0.930 . S
H563 C575 0.929 . S
H564 C578 0.930 . S
H565 C580 0.960 . S
H566 C580 0.960 . S
H567 C580 0.960 . S
C568 H560 0.929 . S
C568 C569 1.377 . S
C568 C570 1.384 . S
C569 C568 1.377 . S
C569 C575 1.390 . S
C570 H561 0.930 . S
C570 C568 1.384 . S
C570 C571 1.372 . S
C571 C570 1.372 . S
C571 C572 1.400 . S
C571 C576 1.490 . S
C572 H562 0.930 . S
C572 C571 1.400 . S
C572 C575 1.386 . S
H573 C589 0.930 . S
H574 C590 0.931 . S
C575 H563 0.929 . S
C575 C569 1.390 . S
C575 C572 1.386 . S
C576 C571 1.490 . S
C576 C578 1.395 . S
C576 C579 1.403 . S
H577 C583 0.930 . S
C578 H564 0.930 . S
C578 C576 1.395 . S
C578 C581 1.403 . S
C579 C576 1.403 . S
C579 C580 1.524 . S
C579 C583 1.400 . S
C580 H565 0.960 . S
C580 H566 0.960 . S
C580 H567 0.960 . S
C580 C579 1.524 . S
C581 C578 1.403 . S
C581 C582 1.392 . S
C581 C585 1.495 . S
C582 C581 1.392 . S
C582 C583 1.385 . S
C582 C584 1.478 . S
C583 H577 0.930 . S
C583 C579 1.400 . S
C583 C582 1.385 . S
C584 C582 1.478 . S
C584 C586 1.381 . S
C584 C590 1.383 . S
C585 C581 1.495 . S
C585 H591 0.959 . S
C585 H592 0.961 . S
C585 H593 0.960 . S
C586 C584 1.381 . S
C586 C587 1.394 . S
C586 H594 0.930 . S
C587 C586 1.394 . S
C587 C588 1.383 . S
C587 H595 0.929 . S
C588 C587 1.383 . S
C588 C589 1.377 . S
C589 H573 0.930 . S
C589 C588 1.377 . S
C589 C590 1.379 . S
C590 H574 0.931 . S
C590 C584 1.383 . S
C590 C589 1.379 . S
H591 C585 0.959 . S
H592 C585 0.961 . S
H593 C585 0.960 . S
H594 C586 0.930 . S
H595 C587 0.929 . S
H596 C604 0.929 . S
H597 C606 0.930 . S
H598 C608 0.930 . S
H599 C611 0.929 . S
H600 C614 0.930 . S
H601 C616 0.960 . S
H602 C616 0.960 . S
H603 C616 0.960 . S
C604 H596 0.929 . S
C604 C605 1.377 . S
C604 C606 1.384 . S
C605 C604 1.377 . S
C605 C611 1.390 . S
C606 H597 0.930 . S
C606 C604 1.384 . S
C606 C607 1.372 . S
C607 C606 1.372 . S
C607 C608 1.400 . S
C607 C612 1.490 . S
C608 H598 0.930 . S
C608 C607 1.400 . S
C608 C611 1.386 . S
H609 C625 0.930 . S
H610 C626 0.919 1_565 S
C611 H599 0.929 . S
C611 C605 1.390 . S
C611 C608 1.386 . S
C612 C607 1.490 . S
C612 C614 1.395 . S
C612 C615 1.403 . S
H613 C619 0.930 . S
C614 H600 0.930 . S
C614 C612 1.395 . S
C614 C617 1.403 . S
C615 C612 1.403 . S
C615 C616 1.524 . S
C615 C619 1.400 . S
C616 H601 0.960 . S
C616 H602 0.960 . S
C616 H603 0.960 . S
C616 C615 1.524 . S
C617 C614 1.403 . S
C617 C618 1.392 . S
C617 C621 1.495 . S
C618 C617 1.392 . S
C618 C619 1.385 . S
C618 C620 1.478 . S
C619 H613 0.930 . S
C619 C615 1.400 . S
C619 C618 1.385 . S
C620 C618 1.478 . S
C620 C622 1.381 1_565 S
C620 C626 1.381 1_565 S
C621 C617 1.495 . S
C621 H627 0.959 . S
C621 H628 0.961 . S
C621 H629 0.960 . S
C622 C620 1.381 1_545 S
C622 C623 1.394 . S
C622 H630 0.930 . S
C623 C622 1.394 . S
C623 C624 1.383 . S
C623 H631 0.929 . S
C624 C623 1.383 . S
C624 C625 1.377 . S
C625 H609 0.930 . S
C625 C624 1.377 . S
C625 C626 1.393 . S
C626 H610 0.919 1_545 S
C626 C620 1.381 1_545 S
C626 C625 1.393 . S
H627 C621 0.959 . S
H628 C621 0.961 . S
H629 C621 0.960 . S
H630 C622 0.930 . S
H631 C623 0.929 . S
H632 C640 0.929 . S
H633 C642 0.930 . S
H634 C644 0.930 . S
H635 C647 0.929 . S
H636 C650 0.930 . S
H637 C652 0.960 . S
H638 C652 0.960 . S
H639 C652 0.960 . S
C640 H632 0.929 . S
C640 C641 1.377 . S
C640 C642 1.384 . S
C641 C640 1.377 . S
C641 C647 1.390 . S
C642 H633 0.930 . S
C642 C640 1.384 . S
C642 C643 1.372 . S
C643 C642 1.372 . S
C643 C644 1.400 . S
C643 C648 1.490 . S
C644 H634 0.930 . S
C644 C643 1.400 . S
C644 C647 1.386 . S
H645 C661 0.930 . S
H646 C662 0.931 . S
C647 H635 0.929 . S
C647 C641 1.390 . S
C647 C644 1.386 . S
C648 C643 1.490 . S
C648 C650 1.395 . S
C648 C651 1.403 . S
H649 C655 0.930 . S
C650 H636 0.930 . S
C650 C648 1.395 . S
C650 C653 1.403 . S
C651 C648 1.403 . S
C651 C652 1.524 . S
C651 C655 1.400 . S
C652 H637 0.960 . S
C652 H638 0.960 . S
C652 H639 0.960 . S
C652 C651 1.524 . S
C653 C650 1.403 . S
C653 C654 1.392 . S
C653 C657 1.495 . S
C654 C653 1.392 . S
C654 C655 1.385 . S
C654 C656 1.478 1_545 S
C655 H649 0.930 . S
C655 C651 1.400 . S
C655 C654 1.385 . S
C656 C654 1.478 1_565 S
C656 C658 1.381 . S
C656 C662 1.383 1_565 S
C657 C653 1.495 . S
C657 H663 0.959 . S
C657 H664 0.961 . S
C657 H665 0.960 1_545 S
C658 C656 1.381 . S
C658 C659 1.394 . S
C658 H666 0.930 . S
C659 C658 1.394 . S
C659 C660 1.383 . S
C659 H667 0.929 . S
C660 C659 1.383 . S
C660 C661 1.377 . S
C661 H645 0.930 . S
C661 C660 1.377 . S
C661 C662 1.379 1_565 S
C662 H646 0.931 . S
C662 C656 1.383 1_545 S
C662 C661 1.379 1_545 S
H663 C657 0.959 . S
H664 C657 0.961 . S
H665 C657 0.960 1_565 S
H666 C658 0.930 . S
H667 C659 0.929 . S
H668 C676 0.929 . S
H669 C678 0.930 . S
H670 C680 0.930 . S
H671 C683 0.929 . S
H672 C686 0.930 . S
H673 C688 0.960 . S
H674 C688 0.960 . S
H675 C688 0.960 . S
C676 H668 0.929 . S
C676 C677 1.377 . S
C676 C678 1.384 . S
C677 C676 1.377 . S
C677 C683 1.390 . S
C678 H669 0.930 . S
C678 C676 1.384 . S
C678 C679 1.372 . S
C679 C678 1.372 . S
C679 C680 1.400 . S
C679 C684 1.490 . S
C680 H670 0.930 . S
C680 C679 1.400 . S
C680 C683 1.386 . S
H681 C697 0.930 . S
H682 C698 0.931 . S
C683 H671 0.929 . S
C683 C677 1.390 . S
C683 C680 1.386 . S
C684 C679 1.490 . S
C684 C686 1.395 . S
C684 C687 1.403 . S
H685 C691 0.930 . S
C686 H672 0.930 . S
C686 C684 1.395 . S
C686 C689 1.403 . S
C687 C684 1.403 . S
C687 C688 1.524 . S
C687 C691 1.400 . S
C688 H673 0.960 . S
C688 H674 0.960 . S
C688 H675 0.960 . S
C688 C687 1.524 . S
C689 C686 1.403 . S
C689 C690 1.392 . S
C689 C693 1.495 . S
C690 C689 1.392 . S
C690 C691 1.385 . S
C690 C692 1.478 . S
C691 H685 0.930 . S
C691 C687 1.400 . S
C691 C690 1.385 . S
C692 C690 1.478 . S
C692 C694 1.381 . S
C692 C698 1.383 . S
C693 C689 1.495 . S
C693 H699 0.959 . S
C693 H700 0.961 . S
C693 H701 0.960 . S
C694 C692 1.381 . S
C694 C695 1.394 . S
C694 H702 0.930 . S
C695 C694 1.394 . S
C695 C696 1.383 . S
C695 H703 0.929 . S
C696 C695 1.383 . S
C696 C697 1.377 . S
C697 H681 0.930 . S
C697 C696 1.377 . S
C697 C698 1.379 . S
C698 H682 0.931 . S
C698 C692 1.383 . S
C698 C697 1.379 . S
H699 C693 0.959 . S
H700 C693 0.961 . S
H701 C693 0.960 . S
H702 C694 0.930 . S
H703 C695 0.929 . S
H704 C712 0.929 . S
H705 C714 0.930 . S
H706 C716 0.930 . S
H707 C719 0.929 . S
H708 C722 0.930 . S
H709 C724 0.960 . S
H710 C724 0.960 . S
H711 C724 0.960 . S
C712 H704 0.929 . S
C712 C713 1.377 . S
C712 C714 1.384 . S
C713 C712 1.377 . S
C713 C719 1.390 . S
C714 H705 0.930 . S
C714 C712 1.384 . S
C714 C715 1.372 . S
C715 C714 1.372 . S
C715 C716 1.400 . S
C715 C720 1.490 . S
C716 H706 0.930 . S
C716 C715 1.400 . S
C716 C719 1.386 . S
H717 C733 0.930 . S
H718 C734 0.931 . S
C719 H707 0.929 . S
C719 C713 1.390 . S
C719 C716 1.386 . S
C720 C715 1.490 . S
C720 C722 1.395 . S
C720 C723 1.403 . S
H721 C727 0.930 . S
C722 H708 0.930 . S
C722 C720 1.395 . S
C722 C725 1.403 . S
C723 C720 1.403 . S
C723 C724 1.524 . S
C723 C727 1.400 . S
C724 H709 0.960 . S
C724 H710 0.960 . S
C724 H711 0.960 . S
C724 C723 1.524 . S
C725 C722 1.403 . S
C725 C726 1.392 . S
C725 C729 1.495 . S
C726 C725 1.392 . S
C726 C727 1.385 . S
C726 C728 1.478 . S
C727 H721 0.930 . S
C727 C723 1.400 . S
C727 C726 1.385 . S
C728 C726 1.478 . S
C728 C730 1.381 . S
C728 C734 1.383 . S
C729 C725 1.495 . S
C729 H735 0.959 . S
C729 H736 0.961 . S
C729 H737 0.960 . S
C730 C728 1.381 . S
C730 C731 1.394 . S
C730 H738 0.930 . S
C731 C730 1.394 . S
C731 C732 1.383 . S
C731 H739 0.929 . S
C732 C731 1.383 . S
C732 C733 1.377 . S
C733 H717 0.930 . S
C733 C732 1.377 . S
C733 C734 1.379 . S
C734 H718 0.931 . S
C734 C728 1.383 . S
C734 C733 1.379 . S
H735 C729 0.959 . S
H736 C729 0.961 . S
H737 C729 0.960 . S
H738 C730 0.930 . S
H739 C731 0.929 . S
H740 C748 0.929 . S
H741 C750 0.930 . S
H742 C752 0.930 . S
H743 C755 0.929 . S
H744 C758 0.930 . S
H745 C760 0.960 . S
H746 C760 0.960 . S
H747 C760 0.960 . S
C748 H740 0.929 . S
C748 C749 1.377 . S
C748 C750 1.384 . S
C749 C748 1.377 . S
C749 C755 1.390 . S
C750 H741 0.930 . S
C750 C748 1.384 . S
C750 C751 1.372 . S
C751 C750 1.372 . S
C751 C752 1.400 . S
C751 C756 1.490 . S
C752 H742 0.930 . S
C752 C751 1.400 . S
C752 C755 1.386 . S
H753 C769 0.930 . S
H754 C770 0.931 . S
C755 H743 0.929 . S
C755 C749 1.390 . S
C755 C752 1.386 . S
C756 C751 1.490 . S
C756 C758 1.395 . S
C756 C759 1.403 . S
H757 C763 0.930 . S
C758 H744 0.930 . S
C758 C756 1.395 . S
C758 C761 1.403 . S
C759 C756 1.403 . S
C759 C760 1.524 . S
C759 C763 1.400 . S
C760 H745 0.960 . S
C760 H746 0.960 . S
C760 H747 0.960 . S
C760 C759 1.524 . S
C761 C758 1.403 . S
C761 C762 1.392 . S
C761 C765 1.495 1_545 S
C762 C761 1.392 . S
C762 C763 1.385 . S
C762 C764 1.478 1_545 S
C763 H757 0.930 . S
C763 C759 1.400 . S
C763 C762 1.385 . S
C764 C762 1.478 1_565 S
C764 C766 1.381 . S
C764 C770 1.383 . S
C765 C761 1.495 1_565 S
C765 H771 0.959 . S
C765 H772 0.961 . S
C765 H773 0.960 . S
C766 C764 1.381 . S
C766 C767 1.394 . S
C766 H774 0.930 1_565 S
C767 C766 1.394 . S
C767 C768 1.383 . S
C767 H775 0.929 . S
C768 C767 1.383 . S
C768 C769 1.377 . S
C769 H753 0.930 . S
C769 C768 1.377 . S
C769 C770 1.379 . S
C770 H754 0.931 . S
C770 C764 1.383 . S
C770 C769 1.379 . S
H771 C765 0.959 . S
H772 C765 0.961 . S
H773 C765 0.960 . S
H774 C766 0.930 1_545 S
H775 C767 0.929 . S
H776 C784 0.929 . S
H777 C786 0.930 . S
H778 C788 0.930 1_554 S
H779 C791 0.929 . S
H780 C794 0.930 . S
H781 C796 0.960 . S
H782 C796 0.960 1_556 S
H783 C796 0.960 . S
C784 H776 0.929 . S
C784 C785 1.377 . S
C784 C786 1.384 . S
C785 C784 1.377 . S
C785 C791 1.390 . S
C786 H777 0.930 . S
C786 C784 1.384 . S
C786 C787 1.372 . S
C787 C786 1.372 . S
C787 C788 1.400 . S
C787 C792 1.490 1_556 S
C788 H778 0.930 1_556 S
C788 C787 1.400 . S
C788 C791 1.386 . S
H789 C805 0.930 . S
H790 C806 0.931 . S
C791 H779 0.929 . S
C791 C785 1.390 . S
C791 C788 1.386 . S
C792 C787 1.490 1_554 S
C792 C794 1.395 . S
C792 C795 1.403 . S
H793 C799 0.930 . S
C794 H780 0.930 . S
C794 C792 1.395 . S
C794 C797 1.403 . S
C795 C792 1.403 . S
C795 C796 1.524 . S
C795 C799 1.400 . S
C796 H781 0.960 . S
C796 H782 0.960 1_554 S
C796 H783 0.960 . S
C796 C795 1.524 . S
C797 C794 1.403 . S
C797 C798 1.392 . S
C797 C801 1.495 . S
C798 C797 1.392 . S
C798 C799 1.385 . S
C798 C800 1.478 . S
C799 H793 0.930 . S
C799 C795 1.400 . S
C799 C798 1.385 . S
C800 C798 1.478 . S
C800 C802 1.381 . S
C800 C806 1.383 . S
C801 C797 1.495 . S
C801 H807 0.959 . S
C801 H808 0.961 . S
C801 H809 0.960 . S
C802 C800 1.381 . S
C802 C803 1.394 . S
C802 H810 0.930 . S
C803 C802 1.394 . S
C803 C804 1.383 . S
C803 H811 0.929 . S
C804 C803 1.383 . S
C804 C805 1.377 . S
C805 H789 0.930 . S
C805 C804 1.377 . S
C805 C806 1.379 . S
C806 H790 0.931 . S
C806 C800 1.383 . S
C806 C805 1.379 . S
H807 C801 0.959 . S
H808 C801 0.961 . S
H809 C801 0.960 . S
H810 C802 0.930 . S
H811 C803 0.929 . S
H812 C820 0.929 . S
H813 C822 0.930 . S
H814 C824 0.930 . S
H815 C827 0.929 . S
H816 C830 0.930 . S
H817 C832 0.960 . S
H818 C832 0.960 . S
H819 C832 0.960 . S
C820 H812 0.929 . S
C820 C821 1.377 . S
C820 C822 1.384 . S
C821 C820 1.377 . S
C821 C827 1.390 . S
C822 H813 0.930 . S
C822 C820 1.384 . S
C822 C823 1.372 . S
C823 C822 1.372 . S
C823 C824 1.400 . S
C823 C828 1.490 . S
C824 H814 0.930 . S
C824 C823 1.400 . S
C824 C827 1.386 . S
H825 C841 0.930 . S
H826 C842 0.931 . S
C827 H815 0.929 . S
C827 C821 1.390 . S
C827 C824 1.386 . S
C828 C823 1.490 . S
C828 C830 1.395 . S
C828 C831 1.403 . S
H829 C835 0.930 . S
C830 H816 0.930 . S
C830 C828 1.395 . S
C830 C833 1.403 . S
C831 C828 1.403 . S
C831 C832 1.524 . S
C831 C835 1.400 . S
C832 H817 0.960 . S
C832 H818 0.960 . S
C832 H819 0.960 . S
C832 C831 1.524 . S
C833 C830 1.403 . S
C833 C834 1.392 . S
C833 C837 1.495 . S
C834 C833 1.392 . S
C834 C835 1.385 . S
C834 C836 1.478 . S
C835 H829 0.930 . S
C835 C831 1.400 . S
C835 C834 1.385 . S
C836 C834 1.478 . S
C836 C838 1.381 . S
C836 C842 1.383 . S
C837 C833 1.495 . S
C837 H843 0.959 . S
C837 H844 0.961 . S
C837 H845 0.960 . S
C838 C836 1.381 . S
C838 C839 1.394 . S
C838 H846 0.930 . S
C839 C838 1.394 . S
C839 C840 1.383 . S
C839 H847 0.929 . S
C840 C839 1.383 . S
C840 C841 1.377 . S
C841 H825 0.930 . S
C841 C840 1.377 . S
C841 C842 1.379 . S
C842 H826 0.931 . S
C842 C836 1.383 . S
C842 C841 1.379 . S
H843 C837 0.959 . S
H844 C837 0.961 . S
H845 C837 0.960 . S
H846 C838 0.930 . S
H847 C839 0.929 . S
H848 C856 0.929 . S
H849 C858 0.930 . S
H850 C860 0.930 1_556 S
H851 C863 0.929 . S
H852 C866 0.930 . S
H853 C868 0.960 . S
H854 C868 0.960 . S
H855 C868 0.960 . S
C856 H848 0.929 . S
C856 C857 1.377 . S
C856 C858 1.384 . S
C857 C856 1.377 . S
C857 C863 1.390 . S
C858 H849 0.930 . S
C858 C856 1.384 . S
C858 C859 1.372 . S
C859 C858 1.372 . S
C859 C860 1.400 . S
C859 C864 1.490 1_554 S
C860 H850 0.930 1_554 S
C860 C859 1.400 . S
C860 C863 1.386 . S
H861 C877 0.930 . S
H862 C878 0.931 . S
C863 H851 0.929 . S
C863 C857 1.390 . S
C863 C860 1.386 . S
C864 C859 1.490 1_556 S
C864 C866 1.395 . S
C864 C867 1.403 . S
H865 C871 0.930 . S
C866 H852 0.930 . S
C866 C864 1.395 . S
C866 C869 1.403 . S
C867 C864 1.403 . S
C867 C868 1.524 . S
C867 C871 1.400 . S
C868 H853 0.960 . S
C868 H854 0.960 . S
C868 H855 0.960 . S
C868 C867 1.524 . S
C869 C866 1.403 . S
C869 C870 1.392 . S
C869 C873 1.495 . S
C870 C869 1.392 . S
C870 C871 1.385 . S
C870 C872 1.478 . S
C871 H865 0.930 . S
C871 C867 1.400 . S
C871 C870 1.385 . S
C872 C870 1.478 . S
C872 C874 1.381 . S
C872 C878 1.383 . S
C873 C869 1.495 . S
C873 H879 0.959 . S
C873 H880 0.961 . S
C873 H881 0.960 . S
C874 C872 1.381 . S
C874 C875 1.394 . S
C874 H882 0.930 . S
C875 C874 1.394 . S
C875 C876 1.383 . S
C875 H883 0.929 . S
C876 C875 1.383 . S
C876 C877 1.377 . S
C877 H861 0.930 . S
C877 C876 1.377 . S
C877 C878 1.379 . S
C878 H862 0.931 . S
C878 C872 1.383 . S
C878 C877 1.379 . S
H879 C873 0.959 . S
H880 C873 0.961 . S
H881 C873 0.960 . S
H882 C874 0.930 . S
H883 C875 0.929 . S
H884 C892 0.929 . S
H885 C894 0.930 . S
H886 C896 0.930 . S
H887 C899 0.929 . S
H888 C902 0.930 . S
H889 C904 0.960 . S
H890 C904 0.960 . S
H891 C904 0.960 . S
C892 H884 0.929 . S
C892 C893 1.377 . S
C892 C894 1.384 . S
C893 C892 1.377 . S
C893 C899 1.390 . S
C894 H885 0.930 . S
C894 C892 1.384 . S
C894 C895 1.372 . S
C895 C894 1.372 . S
C895 C896 1.400 . S
C895 C900 1.490 . S
C896 H886 0.930 . S
C896 C895 1.400 . S
C896 C899 1.386 . S
H897 C913 0.930 . S
H898 C914 0.931 . S
C899 H887 0.929 . S
C899 C893 1.390 . S
C899 C896 1.386 . S
C900 C895 1.490 . S
C900 C902 1.395 . S
C900 C903 1.403 . S
H901 C907 0.930 . S
C902 H888 0.930 . S
C902 C900 1.395 . S
C902 C905 1.403 . S
C903 C900 1.403 . S
C903 C904 1.524 . S
C903 C907 1.400 . S
C904 H889 0.960 . S
C904 H890 0.960 . S
C904 H891 0.960 . S
C904 C903 1.524 . S
C905 C902 1.403 . S
C905 C906 1.392 . S
C905 C909 1.495 . S
C906 C905 1.392 . S
C906 C907 1.385 . S
C906 C908 1.478 . S
C907 H901 0.930 . S
C907 C903 1.400 . S
C907 C906 1.385 . S
C908 C906 1.478 . S
C908 C910 1.381 . S
C908 C914 1.383 . S
C909 C905 1.495 . S
C909 H915 0.959 . S
C909 H916 0.961 . S
C909 H917 0.960 . S
C910 C908 1.381 . S
C910 C911 1.394 . S
C910 H918 0.930 . S
C911 C910 1.394 . S
C911 C912 1.383 . S
C911 H919 0.929 . S
C912 C911 1.383 . S
C912 C913 1.377 . S
C913 H897 0.930 . S
C913 C912 1.377 . S
C913 C914 1.379 . S
C914 H898 0.931 . S
C914 C908 1.383 . S
C914 C913 1.379 . S
H915 C909 0.959 . S
H916 C909 0.961 . S
H917 C909 0.960 . S
H918 C910 0.930 . S
H919 C911 0.929 . S
H920 C928 0.929 . S
H921 C930 0.930 1_556 S
H922 C932 0.930 . S
H923 C935 0.929 . S
H924 C938 0.930 . S
H925 C940 0.960 . S
H926 C940 0.960 1_554 S
H927 C940 0.960 1_554 S
C928 H920 0.929 . S
C928 C929 1.377 . S
C928 C930 1.384 . S
C929 C928 1.377 . S
C929 C935 1.390 . S
C930 H921 0.930 1_554 S
C930 C928 1.384 . S
C930 C931 1.380 . S
C931 C930 1.380 . S
C931 C932 1.432 . S
C931 C936 1.452 1_554 S
C932 H922 0.930 . S
C932 C931 1.432 . S
C932 C935 1.386 . S
H933 C949 0.930 . S
H934 C950 0.931 . S
C935 H923 0.929 . S
C935 C929 1.390 . S
C935 C932 1.386 . S
C936 C931 1.452 1_556 S
C936 C938 1.395 . S
C936 C939 1.403 . S
H937 C943 0.930 . S
C938 H924 0.930 . S
C938 C936 1.395 . S
C938 C941 1.403 . S
C939 C936 1.403 . S
C939 C940 1.524 . S
C939 C943 1.400 . S
C940 H925 0.960 . S
C940 H926 0.960 1_556 S
C940 H927 0.960 1_556 S
C940 C939 1.524 . S
C941 C938 1.403 . S
C941 C942 1.392 . S
C941 C945 1.495 . S
C942 C941 1.392 . S
C942 C943 1.385 . S
C942 C944 1.478 . S
C943 H937 0.930 . S
C943 C939 1.400 . S
C943 C942 1.385 . S
C944 C942 1.478 . S
C944 C946 1.381 . S
C944 C950 1.383 . S
C945 C941 1.495 . S
C945 H951 0.959 . S
C945 H952 0.961 . S
C945 H953 0.960 . S
C946 C944 1.381 . S
C946 C947 1.394 . S
C946 H954 0.930 . S
C947 C946 1.394 . S
C947 C948 1.383 . S
C947 H955 0.929 . S
C948 C947 1.383 . S
C948 C949 1.377 . S
C949 H933 0.930 . S
C949 C948 1.377 . S
C949 C950 1.379 . S
C950 H934 0.931 . S
C950 C944 1.383 . S
C950 C949 1.379 . S
H951 C945 0.959 . S
H952 C945 0.961 . S
H953 C945 0.960 . S
H954 C946 0.930 . S
H955 C947 0.929 . S
H956 C964 0.929 . S
H957 C966 0.930 . S
H958 C968 0.930 . S
H959 C971 0.929 . S
H960 C974 0.930 . S
H961 C976 0.960 . S
H962 C976 0.960 . S
H963 C976 0.960 . S
C964 H956 0.929 . S
C964 C965 1.377 . S
C964 C966 1.384 . S
C965 C964 1.377 . S
C965 C971 1.390 . S
C966 H957 0.930 . S
C966 C964 1.384 . S
C966 C967 1.372 . S
C967 C966 1.372 . S
C967 C968 1.400 . S
C967 C972 1.490 . S
C968 H958 0.930 . S
C968 C967 1.400 . S
C968 C971 1.386 . S
H969 C985 0.930 . S
H970 C986 0.931 . S
C971 H959 0.929 . S
C971 C965 1.390 . S
C971 C968 1.386 . S
C972 C967 1.490 . S
C972 C974 1.395 . S
C972 C975 1.403 . S
H973 C979 0.930 . S
C974 H960 0.930 . S
C974 C972 1.395 . S
C974 C977 1.403 . S
C975 C972 1.403 . S
C975 C976 1.524 . S
C975 C979 1.400 . S
C976 H961 0.960 . S
C976 H962 0.960 . S
C976 H963 0.960 . S
C976 C975 1.524 . S
C977 C974 1.403 . S
C977 C978 1.392 . S
C977 C981 1.495 . S
C978 C977 1.392 . S
C978 C979 1.385 . S
C978 C980 1.478 . S
C979 H973 0.930 . S
C979 C975 1.400 . S
C979 C978 1.385 . S
C980 C978 1.478 . S
C980 C982 1.381 . S
C980 C986 1.383 . S
C981 C977 1.495 . S
C981 H987 0.959 . S
C981 H988 0.961 . S
C981 H989 0.960 . S
C982 C980 1.381 . S
C982 C983 1.394 . S
C982 H990 0.930 . S
C983 C982 1.394 . S
C983 C984 1.383 . S
C983 H991 0.929 . S
C984 C983 1.383 . S
C984 C985 1.377 . S
C985 H969 0.930 . S
C985 C984 1.377 . S
C985 C986 1.379 . S
C986 H970 0.931 . S
C986 C980 1.383 . S
C986 C985 1.379 . S
H987 C981 0.959 . S
H988 C981 0.961 . S
H989 C981 0.960 . S
H990 C982 0.930 . S
H991 C983 0.929 . S
H992 C1000 0.929 . S
H993 C1002 0.930 . S
H994 C1004 0.930 1_554 S
H995 C1007 0.929 . S
H996 C1010 0.930 . S
H997 C1012 0.960 . S
H998 C1012 0.960 . S
H999 C1012 0.960 . S
C1000 H992 0.929 . S
C1000 C1001 1.377 . S
C1000 C1002 1.384 . S
C1001 C1000 1.377 . S
C1001 C1007 1.390 . S
C1002 H993 0.930 . S
C1002 C1000 1.384 . S
C1002 C1003 1.372 . S
C1003 C1002 1.372 . S
C1003 C1004 1.400 . S
C1003 C1008 1.490 1_556 S
C1004 H994 0.930 1_556 S
C1004 C1003 1.400 . S
C1004 C1007 1.386 . S
H1005 C1021 0.930 . S
H1006 C1022 0.931 . S
C1007 H995 0.929 . S
C1007 C1001 1.390 . S
C1007 C1004 1.386 . S
C1008 C1003 1.490 1_554 S
C1008 C1010 1.395 . S
C1008 C1011 1.403 . S
H1009 C1015 0.930 . S
C1010 H996 0.930 . S
C1010 C1008 1.395 . S
C1010 C1013 1.403 . S
C1011 C1008 1.403 . S
C1011 C1012 1.524 . S
C1011 C1015 1.400 . S
C1012 H997 0.960 . S
C1012 H998 0.960 . S
C1012 H999 0.960 . S
C1012 C1011 1.524 . S
C1013 C1010 1.403 . S
C1013 C1014 1.392 . S
C1013 C1017 1.495 . S
C1014 C1013 1.392 . S
C1014 C1015 1.385 . S
C1014 C1016 1.478 . S
C1015 H1009 0.930 . S
C1015 C1011 1.400 . S
C1015 C1014 1.385 . S
C1016 C1014 1.478 . S
C1016 C1018 1.381 . S
C1016 C1022 1.383 . S
C1017 C1013 1.495 . S
C1017 H1023 0.959 . S
C1017 H1024 0.961 . S
C1017 H1025 0.960 . S
C1018 C1016 1.381 . S
C1018 C1019 1.394 . S
C1018 H1026 0.930 . S
C1019 C1018 1.394 . S
C1019 C1020 1.383 . S
C1019 H1027 0.929 . S
C1020 C1019 1.383 . S
C1020 C1021 1.377 . S
C1021 H1005 0.930 . S
C1021 C1020 1.377 . S
C1021 C1022 1.379 . S
C1022 H1006 0.931 . S
C1022 C1016 1.383 . S
C1022 C1021 1.379 . S
H1023 C1017 0.959 . S
H1024 C1017 0.961 . S
H1025 C1017 0.960 . S
H1026 C1018 0.930 . S
H1027 C1019 0.929 . S
H1028 C1036 0.929 . S
H1029 C1038 0.930 . S
H1030 C1040 0.930 . S
H1031 C1043 0.929 . S
H1032 C1046 0.930 . S
H1033 C1048 0.960 . S
H1034 C1048 0.960 . S
H1035 C1048 0.960 . S
C1036 H1028 0.929 . S
C1036 C1037 1.377 . S
C1036 C1038 1.384 . S
C1037 C1036 1.377 . S
C1037 C1043 1.390 . S
C1038 H1029 0.930 . S
C1038 C1036 1.384 . S
C1038 C1039 1.372 . S
C1039 C1038 1.372 . S
C1039 C1040 1.400 . S
C1039 C1044 1.490 . S
C1040 H1030 0.930 . S
C1040 C1039 1.400 . S
C1040 C1043 1.386 . S
H1041 C1057 0.930 . S
H1042 C1058 0.931 . S
C1043 H1031 0.929 . S
C1043 C1037 1.390 . S
C1043 C1040 1.386 . S
C1044 C1039 1.490 . S
C1044 C1046 1.395 . S
C1044 C1047 1.403 . S
H1045 C1051 0.930 . S
C1046 H1032 0.930 . S
C1046 C1044 1.395 . S
C1046 C1049 1.403 . S
C1047 C1044 1.403 . S
C1047 C1048 1.524 . S
C1047 C1051 1.400 . S
C1048 H1033 0.960 . S
C1048 H1034 0.960 . S
C1048 H1035 0.960 . S
C1048 C1047 1.524 . S
C1049 C1046 1.403 . S
C1049 C1050 1.392 . S
C1049 C1053 1.495 . S
C1050 C1049 1.392 . S
C1050 C1051 1.385 . S
C1050 C1052 1.478 . S
C1051 H1045 0.930 . S
C1051 C1047 1.400 . S
C1051 C1050 1.385 . S
C1052 C1050 1.478 . S
C1052 C1054 1.381 . S
C1052 C1058 1.383 . S
C1053 C1049 1.495 . S
C1053 H1059 0.959 . S
C1053 H1060 0.961 . S
C1053 H1061 0.960 . S
C1054 C1052 1.381 . S
C1054 C1055 1.394 . S
C1054 H1062 0.930 . S
C1055 C1054 1.394 . S
C1055 C1056 1.383 . S
C1055 H1063 0.929 . S
C1056 C1055 1.383 . S
C1056 C1057 1.377 . S
C1057 H1041 0.930 . S
C1057 C1056 1.377 . S
C1057 C1058 1.379 . S
C1058 H1042 0.931 . S
C1058 C1052 1.383 . S
C1058 C1057 1.379 . S
H1059 C1053 0.959 . S
H1060 C1053 0.961 . S
H1061 C1053 0.960 . S
H1062 C1054 0.930 . S
H1063 C1055 0.929 . S
H1064 C1072 0.929 . S
H1065 C1074 0.930 . S
H1066 C1076 0.930 . S
H1067 C1079 0.929 . S
H1068 C1082 0.930 . S
H1069 C1084 0.960 . S
H1070 C1084 0.960 . S
H1071 C1084 0.960 . S
C1072 H1064 0.929 . S
C1072 C1073 1.377 . S
C1072 C1074 1.384 . S
C1073 C1072 1.377 . S
C1073 C1079 1.390 . S
C1074 H1065 0.930 . S
C1074 C1072 1.384 . S
C1074 C1075 1.372 . S
C1075 C1074 1.372 . S
C1075 C1076 1.400 . S
C1075 C1080 1.490 . S
C1076 H1066 0.930 . S
C1076 C1075 1.400 . S
C1076 C1079 1.386 . S
H1077 C1093 0.930 . S
H1078 C1094 0.931 . S
C1079 H1067 0.929 . S
C1079 C1073 1.390 . S
C1079 C1076 1.386 . S
C1080 C1075 1.490 . S
C1080 C1082 1.395 . S
C1080 C1083 1.403 . S
H1081 C1087 0.930 . S
C1082 H1068 0.930 . S
C1082 C1080 1.395 . S
C1082 C1085 1.403 . S
C1083 C1080 1.403 . S
C1083 C1084 1.524 . S
C1083 C1087 1.400 . S
C1084 H1069 0.960 . S
C1084 H1070 0.960 . S
C1084 H1071 0.960 . S
C1084 C1083 1.524 . S
C1085 C1082 1.403 . S
C1085 C1086 1.392 . S
C1085 C1089 1.495 . S
C1086 C1085 1.392 . S
C1086 C1087 1.385 . S
C1086 C1088 1.478 . S
C1087 H1081 0.930 . S
C1087 C1083 1.400 . S
C1087 C1086 1.385 . S
C1088 C1086 1.478 . S
C1088 C1090 1.381 . S
C1088 C1094 1.383 . S
C1089 C1085 1.495 . S
C1089 H1095 0.959 . S
C1089 H1096 0.961 . S
C1089 H1097 0.960 . S
C1090 C1088 1.381 . S
C1090 C1091 1.394 . S
C1090 H1098 0.930 . S
C1091 C1090 1.394 . S
C1091 C1092 1.383 . S
C1091 H1099 0.929 . S
C1092 C1091 1.383 . S
C1092 C1093 1.377 . S
C1093 H1077 0.930 . S
C1093 C1092 1.377 . S
C1093 C1094 1.379 . S
C1094 H1078 0.931 . S
C1094 C1088 1.383 . S
C1094 C1093 1.379 . S
H1095 C1089 0.959 . S
H1096 C1089 0.961 . S
H1097 C1089 0.960 . S
H1098 C1090 0.930 . S
H1099 C1091 0.929 . S
H1100 C1108 0.929 . S
H1101 C1110 0.930 . S
H1102 C1112 0.930 . S
H1103 C1115 0.929 . S
H1104 C1118 0.930 . S
H1105 C1120 0.960 . S
H1106 C1120 0.960 . S
H1107 C1120 0.960 . S
C1108 H1100 0.929 . S
C1108 C1109 1.377 . S
C1108 C1110 1.384 . S
C1109 C1108 1.377 . S
C1109 C1115 1.390 . S
C1110 H1101 0.930 . S
C1110 C1108 1.384 . S
C1110 C1111 1.372 . S
C1111 C1110 1.372 . S
C1111 C1112 1.400 . S
C1111 C1116 1.490 . S
C1112 H1102 0.930 . S
C1112 C1111 1.400 . S
C1112 C1115 1.386 . S
H1113 C1129 0.930 . S
H1114 C1130 0.931 . S
C1115 H1103 0.929 . S
C1115 C1109 1.390 . S
C1115 C1112 1.386 . S
C1116 C1111 1.490 . S
C1116 C1118 1.395 . S
C1116 C1119 1.403 . S
H1117 C1123 0.930 . S
C1118 H1104 0.930 . S
C1118 C1116 1.395 . S
C1118 C1121 1.403 . S
C1119 C1116 1.403 . S
C1119 C1120 1.524 . S
C1119 C1123 1.400 . S
C1120 H1105 0.960 . S
C1120 H1106 0.960 . S
C1120 H1107 0.960 . S
C1120 C1119 1.524 . S
C1121 C1118 1.403 . S
C1121 C1122 1.392 . S
C1121 C1125 1.495 . S
C1122 C1121 1.392 . S
C1122 C1123 1.385 . S
C1122 C1124 1.478 . S
C1123 H1117 0.930 . S
C1123 C1119 1.400 . S
C1123 C1122 1.385 . S
C1124 C1122 1.478 . S
C1124 C1126 1.381 . S
C1124 C1130 1.383 . S
C1125 C1121 1.495 . S
C1125 H1131 0.959 . S
C1125 H1132 0.961 . S
C1125 H1133 0.960 . S
C1126 C1124 1.381 . S
C1126 C1127 1.394 . S
C1126 H1134 0.930 . S
C1127 C1126 1.394 . S
C1127 C1128 1.383 . S
C1127 H1135 0.929 . S
C1128 C1127 1.383 . S
C1128 C1129 1.377 . S
C1129 H1113 0.930 . S
C1129 C1128 1.377 . S
C1129 C1130 1.379 . S
C1130 H1114 0.931 . S
C1130 C1124 1.383 . S
C1130 C1129 1.379 . S
H1131 C1125 0.959 . S
H1132 C1125 0.961 . S
H1133 C1125 0.960 . S
H1134 C1126 0.930 . S
H1135 C1127 0.929 . S
H1136 C1144 0.929 . S
H1137 C1146 0.930 . S
H1138 C1148 0.930 . S
H1139 C1151 0.929 . S
H1140 C1154 0.930 . S
H1141 C1156 0.960 . S
H1142 C1156 0.960 . S
H1143 C1156 0.960 . S
C1144 H1136 0.929 . S
C1144 C1145 1.377 . S
C1144 C1146 1.384 . S
C1145 C1144 1.377 . S
C1145 C1151 1.390 . S
C1146 H1137 0.930 . S
C1146 C1144 1.384 . S
C1146 C1147 1.372 . S
C1147 C1146 1.372 . S
C1147 C1148 1.400 . S
C1147 C1152 1.490 . S
C1148 H1138 0.930 . S
C1148 C1147 1.400 . S
C1148 C1151 1.386 . S
H1149 C1165 0.930 . S
H1150 C1166 0.931 . S
C1151 H1139 0.929 . S
C1151 C1145 1.390 . S
C1151 C1148 1.386 . S
C1152 C1147 1.490 . S
C1152 C1154 1.395 . S
C1152 C1155 1.403 . S
H1153 C1159 0.930 . S
C1154 H1140 0.930 . S
C1154 C1152 1.395 . S
C1154 C1157 1.403 . S
C1155 C1152 1.403 . S
C1155 C1156 1.524 . S
C1155 C1159 1.400 . S
C1156 H1141 0.960 . S
C1156 H1142 0.960 . S
C1156 H1143 0.960 . S
C1156 C1155 1.524 . S
C1157 C1154 1.403 . S
C1157 C1158 1.392 . S
C1157 C1161 1.495 . S
C1158 C1157 1.392 . S
C1158 C1159 1.385 . S
C1158 C1160 1.478 . S
C1159 H1153 0.930 . S
C1159 C1155 1.400 . S
C1159 C1158 1.385 . S
C1160 C1158 1.478 . S
C1160 C1162 1.381 . S
C1160 C1166 1.383 . S
C1161 C1157 1.495 . S
C1161 H1167 0.959 . S
C1161 H1168 0.961 . S
C1161 H1169 0.960 . S
C1162 C1160 1.381 . S
C1162 C1163 1.394 . S
C1162 H1170 0.930 . S
C1163 C1162 1.394 . S
C1163 C1164 1.383 . S
C1163 H1171 0.929 . S
C1164 C1163 1.383 . S
C1164 C1165 1.377 . S
C1165 H1149 0.930 . S
C1165 C1164 1.377 . S
C1165 C1166 1.379 . S
C1166 H1150 0.931 . S
C1166 C1160 1.383 . S
C1166 C1165 1.379 . S
H1167 C1161 0.959 . S
H1168 C1161 0.961 . S
H1169 C1161 0.960 . S
H1170 C1162 0.930 . S
H1171 C1163 0.929 . S
H1172 C1180 0.929 . S
H1173 C1182 0.930 . S
H1174 C1184 0.930 . S
H1175 C1187 0.929 . S
H1176 C1190 0.930 . S
H1177 C1192 0.960 . S
H1178 C1192 0.960 . S
H1179 C1192 0.960 . S
C1180 H1172 0.929 . S
C1180 C1181 1.377 . S
C1180 C1182 1.384 . S
C1181 C1180 1.377 . S
C1181 C1187 1.390 . S
C1182 H1173 0.930 . S
C1182 C1180 1.384 . S
C1182 C1183 1.372 . S
C1183 C1182 1.372 . S
C1183 C1184 1.400 . S
C1183 C1188 1.490 . S
C1184 H1174 0.930 . S
C1184 C1183 1.400 . S
C1184 C1187 1.386 . S
H1185 C1201 0.930 . S
H1186 C1202 0.931 . S
C1187 H1175 0.929 . S
C1187 C1181 1.390 . S
C1187 C1184 1.386 . S
C1188 C1183 1.490 . S
C1188 C1190 1.395 . S
C1188 C1191 1.403 . S
H1189 C1195 0.930 . S
C1190 H1176 0.930 . S
C1190 C1188 1.395 . S
C1190 C1193 1.403 . S
C1191 C1188 1.403 . S
C1191 C1192 1.524 . S
C1191 C1195 1.400 . S
C1192 H1177 0.960 . S
C1192 H1178 0.960 . S
C1192 H1179 0.960 . S
C1192 C1191 1.524 . S
C1193 C1190 1.403 . S
C1193 C1194 1.392 . S
C1193 C1197 1.495 . S
C1194 C1193 1.392 . S
C1194 C1195 1.385 . S
C1194 C1196 1.478 . S
C1195 H1189 0.930 . S
C1195 C1191 1.400 . S
C1195 C1194 1.385 . S
C1196 C1194 1.478 . S
C1196 C1198 1.381 . S
C1196 C1202 1.383 . S
C1197 C1193 1.495 . S
C1197 H1203 0.959 . S
C1197 H1204 0.961 . S
C1197 H1205 0.960 . S
C1198 C1196 1.381 . S
C1198 C1199 1.394 . S
C1198 H1206 0.930 . S
C1199 C1198 1.394 . S
C1199 C1200 1.383 . S
C1199 H1207 0.929 . S
C1200 C1199 1.383 . S
C1200 C1201 1.377 . S
C1201 H1185 0.930 . S
C1201 C1200 1.377 . S
C1201 C1202 1.379 . S
C1202 H1186 0.931 . S
C1202 C1196 1.383 . S
C1202 C1201 1.379 . S
H1203 C1197 0.959 . S
H1204 C1197 0.961 . S
H1205 C1197 0.960 . S
H1206 C1198 0.930 . S
H1207 C1199 0.929 . S
H1208 C1216 0.929 . S
H1209 C1218 0.930 . S
H1210 C1220 0.930 . S
H1211 C1223 0.929 . S
H1212 C1226 0.930 . S
H1213 C1228 0.960 . S
H1214 C1228 0.960 . S
H1215 C1228 0.960 . S
C1216 H1208 0.929 . S
C1216 C1217 1.377 . S
C1216 C1218 1.384 . S
C1217 C1216 1.377 . S
C1217 C1223 1.390 . S
C1218 H1209 0.930 . S
C1218 C1216 1.384 . S
C1218 C1219 1.372 . S
C1219 C1218 1.372 . S
C1219 C1220 1.400 . S
C1219 C1224 1.490 . S
C1220 H1210 0.930 . S
C1220 C1219 1.400 . S
C1220 C1223 1.386 . S
H1221 C1237 0.930 . S
H1222 C1238 0.931 . S
C1223 H1211 0.929 . S
C1223 C1217 1.390 . S
C1223 C1220 1.386 . S
C1224 C1219 1.490 . S
C1224 C1226 1.395 . S
C1224 C1227 1.403 . S
H1225 C1231 0.930 . S
C1226 H1212 0.930 . S
C1226 C1224 1.395 . S
C1226 C1229 1.403 . S
C1227 C1224 1.403 . S
C1227 C1228 1.524 . S
C1227 C1231 1.400 . S
C1228 H1213 0.960 . S
C1228 H1214 0.960 . S
C1228 H1215 0.960 . S
C1228 C1227 1.524 . S
C1229 C1226 1.403 . S
C1229 C1230 1.392 . S
C1229 C1233 1.495 . S
C1230 C1229 1.392 . S
C1230 C1231 1.385 . S
C1230 C1232 1.478 . S
C1231 H1225 0.930 . S
C1231 C1227 1.400 . S
C1231 C1230 1.385 . S
C1232 C1230 1.478 . S
C1232 C1234 1.381 . S
C1232 C1238 1.383 . S
C1233 C1229 1.495 . S
C1233 H1239 0.959 . S
C1233 H1240 0.961 . S
C1233 H1241 0.960 . S
C1234 C1232 1.381 . S
C1234 C1235 1.394 . S
C1234 H1242 0.930 . S
C1235 C1234 1.394 . S
C1235 C1236 1.383 . S
C1235 H1243 0.929 . S
C1236 C1235 1.383 . S
C1236 C1237 1.377 . S
C1237 H1221 0.930 . S
C1237 C1236 1.377 . S
C1237 C1238 1.379 . S
C1238 H1222 0.931 . S
C1238 C1232 1.383 . S
C1238 C1237 1.379 . S
H1239 C1233 0.959 . S
H1240 C1233 0.961 . S
H1241 C1233 0.960 . S
H1242 C1234 0.930 . S
H1243 C1235 0.929 . S
H1244 C1252 0.929 . S
H1245 C1254 0.930 . S
H1246 C1256 0.930 . S
H1247 C1259 0.929 . S
H1248 C1262 0.930 . S
H1249 C1264 0.960 . S
H1250 C1264 0.960 . S
H1251 C1264 0.960 . S
C1252 H1244 0.929 . S
C1252 C1253 1.377 . S
C1252 C1254 1.384 . S
C1253 C1252 1.377 . S
C1253 C1259 1.390 . S
C1254 H1245 0.930 . S
C1254 C1252 1.384 . S
C1254 C1255 1.372 . S
C1255 C1254 1.372 . S
C1255 C1256 1.400 . S
C1255 C1260 1.490 . S
C1256 H1246 0.930 . S
C1256 C1255 1.400 . S
C1256 C1259 1.386 . S
H1257 C1273 0.930 . S
H1258 C1274 0.931 . S
C1259 H1247 0.929 . S
C1259 C1253 1.390 . S
C1259 C1256 1.386 . S
C1260 C1255 1.490 . S
C1260 C1262 1.395 . S
C1260 C1263 1.403 . S
H1261 C1267 0.930 . S
C1262 H1248 0.930 . S
C1262 C1260 1.395 . S
C1262 C1265 1.403 . S
C1263 C1260 1.403 . S
C1263 C1264 1.524 . S
C1263 C1267 1.400 . S
C1264 H1249 0.960 . S
C1264 H1250 0.960 . S
C1264 H1251 0.960 . S
C1264 C1263 1.524 . S
C1265 C1262 1.403 . S
C1265 C1266 1.392 . S
C1265 C1269 1.495 . S
C1266 C1265 1.392 . S
C1266 C1267 1.385 . S
C1266 C1268 1.478 . S
C1267 H1261 0.930 . S
C1267 C1263 1.400 . S
C1267 C1266 1.385 . S
C1268 C1266 1.478 . S
C1268 C1270 1.381 . S
C1268 C1274 1.383 . S
C1269 C1265 1.495 . S
C1269 H1275 0.959 . S
C1269 H1276 0.961 . S
C1269 H1277 0.960 . S
C1270 C1268 1.381 . S
C1270 C1271 1.394 . S
C1270 H1278 0.930 . S
C1271 C1270 1.394 . S
C1271 C1272 1.383 . S
C1271 H1279 0.929 . S
C1272 C1271 1.383 . S
C1272 C1273 1.377 . S
C1273 H1257 0.930 . S
C1273 C1272 1.377 . S
C1273 C1274 1.379 . S
C1274 H1258 0.931 . S
C1274 C1268 1.383 . S
C1274 C1273 1.379 . S
H1275 C1269 0.959 . S
H1276 C1269 0.961 . S
H1277 C1269 0.960 . S
H1278 C1270 0.930 . S
H1279 C1271 0.929 . S
H1280 C1288 0.929 . S
H1281 C1290 0.930 . S
H1282 C1292 0.930 . S
H1283 C1295 0.929 . S
H1284 C1298 0.930 . S
H1285 C1300 0.960 . S
H1286 C1300 0.960 . S
H1287 C1300 0.960 . S
C1288 H1280 0.929 . S
C1288 C1289 1.377 . S
C1288 C1290 1.384 . S
C1289 C1288 1.377 . S
C1289 C1295 1.390 . S
C1290 H1281 0.930 . S
C1290 C1288 1.384 . S
C1290 C1291 1.372 . S
C1291 C1290 1.372 . S
C1291 C1292 1.400 . S
C1291 C1296 1.490 . S
C1292 H1282 0.930 . S
C1292 C1291 1.400 . S
C1292 C1295 1.386 . S
H1293 C1309 0.930 . S
H1294 C1310 0.931 . S
C1295 H1283 0.929 . S
C1295 C1289 1.390 . S
C1295 C1292 1.386 . S
C1296 C1291 1.490 . S
C1296 C1298 1.395 . S
C1296 C1299 1.403 . S
H1297 C1303 0.930 . S
C1298 H1284 0.930 . S
C1298 C1296 1.395 . S
C1298 C1301 1.403 . S
C1299 C1296 1.403 . S
C1299 C1300 1.524 . S
C1299 C1303 1.400 . S
C1300 H1285 0.960 . S
C1300 H1286 0.960 . S
C1300 H1287 0.960 . S
C1300 C1299 1.524 . S
C1301 C1298 1.403 . S
C1301 C1302 1.392 . S
C1301 C1305 1.495 . S
C1302 C1301 1.392 . S
C1302 C1303 1.385 . S
C1302 C1304 1.478 . S
C1303 H1297 0.930 . S
C1303 C1299 1.400 . S
C1303 C1302 1.385 . S
C1304 C1302 1.478 . S
C1304 C1306 1.381 . S
C1304 C1310 1.383 . S
C1305 C1301 1.495 . S
C1305 H1311 0.959 . S
C1305 H1312 0.961 . S
C1305 H1313 0.960 . S
C1306 C1304 1.381 . S
C1306 C1307 1.394 . S
C1306 H1314 0.930 . S
C1307 C1306 1.394 . S
C1307 C1308 1.383 . S
C1307 H1315 0.929 . S
C1308 C1307 1.383 . S
C1308 C1309 1.377 . S
C1309 H1293 0.930 . S
C1309 C1308 1.377 . S
C1309 C1310 1.379 . S
C1310 H1294 0.931 . S
C1310 C1304 1.383 . S
C1310 C1309 1.379 . S
H1311 C1305 0.959 . S
H1312 C1305 0.961 . S
H1313 C1305 0.960 . S
H1314 C1306 0.930 . S
H1315 C1307 0.929 . S
H1316 C1324 0.929 . S
H1317 C1326 0.930 . S
H1318 C1328 0.930 . S
H1319 C1331 0.929 . S
H1320 C1334 0.930 . S
H1321 C1336 0.960 . S
H1322 C1336 0.960 . S
H1323 C1336 0.960 . S
C1324 H1316 0.929 . S
C1324 C1325 1.377 . S
C1324 C1326 1.384 . S
C1325 C1324 1.377 . S
C1325 C1331 1.390 . S
C1326 H1317 0.930 . S
C1326 C1324 1.384 . S
C1326 C1327 1.372 . S
C1327 C1326 1.372 . S
C1327 C1328 1.400 . S
C1327 C1332 1.490 . S
C1328 H1318 0.930 . S
C1328 C1327 1.400 . S
C1328 C1331 1.386 . S
H1329 C1345 0.930 . S
H1330 C1346 0.931 . S
C1331 H1319 0.929 . S
C1331 C1325 1.390 . S
C1331 C1328 1.386 . S
C1332 C1327 1.490 . S
C1332 C1334 1.395 . S
C1332 C1335 1.403 . S
H1333 C1339 0.930 . S
C1334 H1320 0.930 . S
C1334 C1332 1.395 . S
C1334 C1337 1.403 . S
C1335 C1332 1.403 . S
C1335 C1336 1.524 . S
C1335 C1339 1.400 . S
C1336 H1321 0.960 . S
C1336 H1322 0.960 . S
C1336 H1323 0.960 . S
C1336 C1335 1.524 . S
C1337 C1334 1.403 . S
C1337 C1338 1.392 . S
C1337 C1341 1.495 . S
C1338 C1337 1.392 . S
C1338 C1339 1.385 . S
C1338 C1340 1.478 . S
C1339 H1333 0.930 . S
C1339 C1335 1.400 . S
C1339 C1338 1.385 . S
C1340 C1338 1.478 . S
C1340 C1342 1.381 . S
C1340 C1346 1.383 . S
C1341 C1337 1.495 . S
C1341 H1347 0.959 . S
C1341 H1348 0.961 . S
C1341 H1349 0.960 . S
C1342 C1340 1.381 . S
C1342 C1343 1.394 . S
C1342 H1350 0.930 . S
C1343 C1342 1.394 . S
C1343 C1344 1.383 . S
C1343 H1351 0.929 . S
C1344 C1343 1.383 . S
C1344 C1345 1.377 . S
C1345 H1329 0.930 . S
C1345 C1344 1.377 . S
C1345 C1346 1.379 . S
C1346 H1330 0.931 . S
C1346 C1340 1.383 . S
C1346 C1345 1.379 . S
H1347 C1341 0.959 . S
H1348 C1341 0.961 . S
H1349 C1341 0.960 . S
H1350 C1342 0.930 . S
H1351 C1343 0.929 . S
C497 C116 1.839 . S
C516 C208 1.839 . S
C552 C292 1.823 . S
C533 C135 1.841 . S
C588 C291 1.840 . S
C569 C78 1.833 . S
C605 C97 1.832 . S
C624 C207 1.839 . S
C660 C388 1.838 . S
C641 C40 1.841 . S
C696 C472 1.836 . S
C677 C59 1.840 . S
C713 C2 1.833 . S
C732 C471 1.826 . S
C749 C21 1.833 . S
C768 C387 1.827 . S
C804 C210 1.552 . S
C785 C25 1.766 . S
C840 C294 1.587 . S
C821 C6 1.767 . S
C876 C306 1.548 . S
C857 C63 1.773 . S
C912 C222 1.554 . S
C893 C44 1.773 . S
C948 C390 1.555 . S
C929 C101 1.763 . S
C965 C82 1.765 . S
C984 C474 1.616 . S
C1020 C462 1.541 . S
C1001 C139 1.773 . S
C1037 C120 1.773 . S
C1056 C378 1.551 . S
C1092 C219 1.545 . S
C1073 C11 1.465 . S
C1128 C303 1.541 . S
C1109 C30 1.463 . S
C1145 C49 1.458 . S
C1164 C304 1.505 . S
C1200 C220 1.496 . S
C1181 C68 1.456 . S
C1236 C375 1.546 . S
C1217 C87 1.421 . S
C1253 C106 1.427 . S
C1272 C459 1.545 . S
C1289 C125 1.418 . S
C1308 C460 1.496 . S
C1325 C144 1.429 . S
C1344 C376 1.524 . S
