# Generated by pormake.
# Topology apo, (3,6)-cn, num edge types: 1
# Building blocks:
#     Node 0, Type 0, BuildingBlock: BETDAH_clean_linker_0, # of connection points: 3
#     Node 1, Type 0, BuildingBlock: BETDAH_clean_linker_0, # of connection points: 3
#     Node 2, Type 0, BuildingBlock: BETDAH_clean_linker_0, # of connection points: 3
#     Node 3, Type 0, BuildingBlock: BETDAH_clean_linker_0, # of connection points: 3
#     Node 4, Type 0, BuildingBlock: BETDAH_clean_linker_0, # of connection points: 3
#     Node 5, Type 0, BuildingBlock: BETDAH_clean_linker_0, # of connection points: 3
#     Node 6, Type 0, BuildingBlock: BETDAH_clean_linker_0, # of connection points: 3
#     Node 7, Type 0, BuildingBlock: BETDAH_clean_linker_0, # of connection points: 3
#     Node 8, Type 1, BuildingBlock: KUMJIN_clean_sbu_1, # of connection points: 6
#     Node 9, Type 1, BuildingBlock: KUMJIN_clean_sbu_1, # of connection points: 6
#     Node 10, Type 1, BuildingBlock: KUMJIN_clean_sbu_1, # of connection points: 6
#     Node 11, Type 1, BuildingBlock: KUMJIN_clean_sbu_1, # of connection points: 6
#     Edge 12, Type (0, 1), BuildingBlock: MIFKUJ_clean_linker_0, # of connection points: 2
#     Edge 13, Type (0, 1), BuildingBlock: MIFKUJ_clean_linker_0, # of connection points: 2
#     Edge 14, Type (0, 1), BuildingBlock: MIFKUJ_clean_linker_0, # of connection points: 2
#     Edge 15, Type (0, 1), BuildingBlock: MIFKUJ_clean_linker_0, # of connection points: 2
#     Edge 16, Type (0, 1), BuildingBlock: MIFKUJ_clean_linker_0, # of connection points: 2
#     Edge 17, Type (0, 1), BuildingBlock: MIFKUJ_clean_linker_0, # of connection points: 2
#     Edge 18, Type (0, 1), BuildingBlock: MIFKUJ_clean_linker_0, # of connection points: 2
#     Edge 19, Type (0, 1), BuildingBlock: MIFKUJ_clean_linker_0, # of connection points: 2
#     Edge 20, Type (0, 1), BuildingBlock: MIFKUJ_clean_linker_0, # of connection points: 2
#     Edge 21, Type (0, 1), BuildingBlock: MIFKUJ_clean_linker_0, # of connection points: 2
#     Edge 22, Type (0, 1), BuildingBlock: MIFKUJ_clean_linker_0, # of connection points: 2
#     Edge 23, Type (0, 1), BuildingBlock: MIFKUJ_clean_linker_0, # of connection points: 2
#     Edge 24, Type (0, 1), BuildingBlock: MIFKUJ_clean_linker_0, # of connection points: 2
#     Edge 25, Type (0, 1), BuildingBlock: MIFKUJ_clean_linker_0, # of connection points: 2
#     Edge 26, Type (0, 1), BuildingBlock: MIFKUJ_clean_linker_0, # of connection points: 2
#     Edge 27, Type (0, 1), BuildingBlock: MIFKUJ_clean_linker_0, # of connection points: 2
#     Edge 28, Type (0, 1), BuildingBlock: MIFKUJ_clean_linker_0, # of connection points: 2
#     Edge 29, Type (0, 1), BuildingBlock: MIFKUJ_clean_linker_0, # of connection points: 2
#     Edge 30, Type (0, 1), BuildingBlock: MIFKUJ_clean_linker_0, # of connection points: 2
#     Edge 31, Type (0, 1), BuildingBlock: MIFKUJ_clean_linker_0, # of connection points: 2
#     Edge 32, Type (0, 1), BuildingBlock: MIFKUJ_clean_linker_0, # of connection points: 2
#     Edge 33, Type (0, 1), BuildingBlock: MIFKUJ_clean_linker_0, # of connection points: 2
#     Edge 34, Type (0, 1), BuildingBlock: MIFKUJ_clean_linker_0, # of connection points: 2
#     Edge 35, Type (0, 1), BuildingBlock: MIFKUJ_clean_linker_0, # of connection points: 2
# Relax obj value: 0.037
# Max RMSD: 0.207
# Mean RMSD: 0.149
data_MOF--net-apo--node1-KUMJIN_clean_sbu_1--node2-BETDAH_clean_linker_0--edge1-MIFKUJ_clean_linker_0
_symmetry_space_group_name_H-M    P1
_symmetry_Int_Tables_number       1
_symmetry_cell_setting            triclinic
loop_
_symmetry_equiv_pos_as_xyz
'x, y, z'
_cell_length_a     35.099646
_cell_length_b     54.676246
_cell_length_c     65.381181
_cell_angle_alpha  89.591265
_cell_angle_beta   89.962399
_cell_angle_gamma 90.949697
loop_
_atom_site_label
_atom_site_type_symbol
_atom_site_fract_x
_atom_site_fract_y
_atom_site_fract_z
_atom_type_partial_charge
H0 H 0.33214 0.41695 0.42642 0.0
H1 H 0.27083 0.3733 0.38207 0.0
H2 H 0.28063 0.34837 0.44419 0.0
C3 C 0.31534 0.40085 0.42253 0.0
C4 C 0.30724 0.3834 0.4378 0.0
C5 C 0.30236 0.39756 0.40231 0.0
C6 C 0.28103 0.37619 0.3975 0.0
C7 C 0.27311 0.35858 0.41285 0.0
C8 C 0.28634 0.36235 0.43269 0.0
N9 N 0.25271 0.33642 0.40937 0.0
C10 C 0.23369 0.32951 0.39171 0.0
H11 H 0.18895 0.10331 0.92633 0.0
H12 H 0.26648 0.13561 0.88222 0.0
H13 H 0.26574 0.16153 0.94396 0.0
C14 C 0.21087 0.11675 0.92247 0.0
C15 C 0.22488 0.13252 0.93769 0.0
C16 C 0.22547 0.11766 0.90239 0.0
C17 C 0.25421 0.13511 0.89743 0.0
C18 C 0.26901 0.15061 0.91272 0.0
C19 C 0.25416 0.14923 0.93254 0.0
N20 N 0.30174 0.16574 0.90964 0.0
C21 C 0.30937 0.18025 0.89255 0.0
H22 H 0.84445 0.11133 0.58274 0.0
H23 H 0.76483 0.14301 0.62501 0.0
H24 H 0.76717 0.1659 0.56192 0.0
C25 C 0.82181 0.12396 0.58607 0.0
C26 C 0.80784 0.13859 0.57028 0.0
C27 C 0.8059 0.12478 0.60582 0.0
C28 C 0.7775 0.14211 0.60993 0.0
C29 C 0.76376 0.15712 0.59399 0.0
C30 C 0.77843 0.15477 0.57423 0.0
N31 N 0.73349 0.17363 0.59667 0.0
C32 C 0.72461 0.18561 0.61466 0.0
H33 H 0.6865 0.41042 0.08182 0.0
H34 H 0.76094 0.37665 0.12567 0.0
H35 H 0.76894 0.3584 0.06199 0.0
C36 C 0.70916 0.39782 0.08525 0.0
C37 C 0.72571 0.38459 0.06937 0.0
C38 C 0.72175 0.3953 0.10554 0.0
C39 C 0.75091 0.37866 0.11009 0.0
C40 C 0.76745 0.36504 0.09426 0.0
C41 C 0.75517 0.36845 0.07407 0.0
N42 N 0.79777 0.3486 0.09757 0.0
C43 C 0.80587 0.33622 0.11567 0.0
H44 H 0.67573 0.61655 0.5795 0.0
H45 H 0.76421 0.63841 0.62169 0.0
H46 H 0.76509 0.66604 0.5602 0.0
C47 C 0.70179 0.62661 0.58283 0.0
C48 C 0.71857 0.64101 0.56729 0.0
C49 C 0.71852 0.62448 0.60233 0.0
C50 C 0.75036 0.63967 0.60694 0.0
C51 C 0.76625 0.65529 0.59182 0.0
C52 C 0.75097 0.65524 0.57202 0.0
N53 N 0.80057 0.66876 0.59518 0.0
C54 C 0.80708 0.68455 0.61147 0.0
H55 H 0.80907 0.9225 0.07632 0.0
H56 H 0.77656 0.84669 0.07076 0.0
H57 H 0.78139 0.87968 0.12995 0.0
C58 C 0.79774 0.90577 0.08316 0.0
C59 C 0.7941 0.90394 0.10451 0.0
C60 C 0.79131 0.88515 0.0709 0.0
C61 C 0.77962 0.86299 0.08001 0.0
C62 C 0.77468 0.86118 0.10119 0.0
C63 C 0.78209 0.88165 0.11344 0.0
N64 N 0.77116 0.83769 0.11019 0.0
C65 C 0.73732 0.82829 0.11819 0.0
H66 H 0.18039 0.9064 0.42306 0.0
H67 H 0.25803 0.87438 0.38039 0.0
H68 H 0.264 0.85539 0.44417 0.0
C69 C 0.20378 0.89426 0.42012 0.0
C70 C 0.21998 0.88111 0.43636 0.0
C71 C 0.2176 0.89241 0.40002 0.0
C72 C 0.24719 0.87602 0.39583 0.0
C73 C 0.2632 0.86218 0.41184 0.0
C74 C 0.25019 0.86536 0.43196 0.0
N75 N 0.2939 0.84594 0.40875 0.0
C76 C 0.30093 0.83245 0.39116 0.0
H77 H 0.30952 0.59487 0.92315 0.0
H78 H 0.28612 0.6702 0.93573 0.0
H79 H 0.28048 0.64446 0.87423 0.0
C80 C 0.30032 0.6127 0.91802 0.0
C81 C 0.29511 0.6171 0.89698 0.0
C82 C 0.29725 0.63169 0.93225 0.0
C83 C 0.28666 0.6549 0.92529 0.0
C84 C 0.27938 0.65938 0.90466 0.0
C85 C 0.2836 0.6405 0.89039 0.0
N86 N 0.27518 0.68404 0.89855 0.0
C87 C 0.24706 0.69271 0.88565 0.0
Eu88 Eu 0.05722 0.11134 0.23321 0.0
C89 C 0.88191 0.10241 0.26177 0.0
N90 N 0.90551 0.12236 0.2611 0.0
C91 C 0.85477 0.14701 0.24837 0.0
C92 C 0.84346 0.1041 0.25573 0.0
C93 C 0.89262 0.14449 0.25455 0.0
C94 C 0.83003 0.12676 0.24904 0.0
C95 C 0.87316 0.05881 0.26769 0.0
C96 C 0.89668 0.07998 0.26767 0.0
C97 C 0.8346 0.06057 0.26228 0.0
C98 C 0.81981 0.08314 0.25627 0.0
Eu99 Eu 0.96802 0.11663 0.27323 0.0
N100 N 0.93448 0.07862 0.27219 0.0
C101 C 0.88926 0.03635 0.27273 0.0
C102 C 0.95053 0.05659 0.27631 0.0
C103 C 0.92822 0.03517 0.27676 0.0
H104 H 0.91129 0.16039 0.25461 0.0
H105 H 0.94113 0.01776 0.28015 0.0
H106 H 0.1248 0.07037 0.24351 0.0
H107 H 0.07347 0.20934 0.21621 0.0
H108 H 0.98054 0.05526 0.27887 0.0
H109 H 0.87192 0.0198 0.2732 0.0
H110 H 0.04078 0.16934 0.21688 0.0
H111 H 0.84463 0.16461 0.24326 0.0
H112 H 0.81613 0.04449 0.26231 0.0
H113 H 0.79015 0.08412 0.2518 0.0
H114 H 0.19309 0.06998 0.25254 0.0
H115 H 0.80069 0.12877 0.24426 0.0
H116 H 0.14072 0.21278 0.22724 0.0
N117 N 0.12291 0.10907 0.24063 0.0
C118 C 0.14295 0.13052 0.24068 0.0
C119 C 0.17933 0.08716 0.24932 0.0
C120 C 0.18206 0.13115 0.24568 0.0
C121 C 0.14064 0.08747 0.24427 0.0
C122 C 0.20006 0.10912 0.25025 0.0
N123 N 0.08667 0.15067 0.23065 0.0
C124 C 0.06894 0.17076 0.22303 0.0
C125 C 0.14477 0.17436 0.23479 0.0
C126 C 0.1244 0.15189 0.23544 0.0
C127 C 0.12587 0.1953 0.22826 0.0
C128 C 0.08792 0.19343 0.22208 0.0
H129 H 0.23003 0.10885 0.2542 0.0
H130 H 0.23198 0.15447 0.24972 0.0
H131 H 0.19937 0.19231 0.24008 0.0
O132 O 0.05967 0.11693 0.19974 0.0
O133 O 0.07134 0.13002 0.26335 0.0
O134 O 0.01333 0.14608 0.2701 0.0
O135 O 0.08318 0.08406 0.21378 0.0
O136 O 1.00305 0.13093 0.22282 0.0
O137 O 0.98186 0.14871 0.25238 0.0
O138 O 0.96673 0.11279 0.30719 0.0
O139 O 0.95628 0.09828 0.2429 0.0
O140 O 0.01379 0.08075 0.23783 0.0
O141 O 0.93345 0.14049 0.29132 0.0
O142 O 0.01712 0.09341 0.28493 0.0
O143 O 0.05841 0.08228 0.25833 0.0
C144 C 0.04946 0.1439 0.27449 0.0
C145 C 0.08901 0.08716 0.17692 0.0
C146 C 0.10129 0.09301 0.14048 0.0
C147 C 0.11156 0.06838 0.13906 0.0
C148 C 0.09968 0.06259 0.17515 0.0
C149 C 0.11085 0.05332 0.15632 0.0
C150 C 0.09006 0.10247 0.15946 0.0
C151 C 0.98194 0.14697 0.23238 0.0
C152 C 0.07739 0.09643 0.19708 0.0
C153 C 0.20202 0.15361 0.24576 0.0
C154 C 0.18345 0.17516 0.24028 0.0
C155 C 0.97767 0.08269 0.23328 0.0
C156 C 0.92747 0.14051 0.32794 0.0
C157 C 0.91629 0.13831 0.36469 0.0
C158 C 0.89628 0.16028 0.36357 0.0
C159 C 0.90729 0.16255 0.32725 0.0
C160 C 0.93205 0.12834 0.34686 0.0
C161 C 0.89187 0.17231 0.34496 0.0
C162 C 0.046 0.08095 0.27749 0.0
C163 C 0.94288 0.13076 0.30868 0.0
H164 H 0.12072 0.06092 0.12459 0.0
H165 H 0.09933 0.05047 0.18832 0.0
H166 H 0.11913 0.0344 0.15512 0.0
H167 H 0.08245 0.12154 0.16061 0.0
H168 H 0.88383 0.16803 0.37718 0.0
H169 H 0.90332 0.17235 0.31297 0.0
H170 H 0.94733 0.1113 0.3477 0.0
H171 H 0.87632 0.18923 0.34423 0.0
Eu172 Eu 0.46911 0.4085 0.73095 0.0
C173 C 0.64209 0.42134 0.76684 0.0
N174 N 0.6204 0.40056 0.76602 0.0
C175 C 0.67528 0.37766 0.75631 0.0
C176 C 0.68105 0.42126 0.76151 0.0
C177 C 0.63687 0.37864 0.76187 0.0
C178 C 0.69733 0.39914 0.75578 0.0
C179 C 0.64793 0.4641 0.77622 0.0
C180 C 0.62585 0.44247 0.77417 0.0
C181 C 0.68623 0.46441 0.76999 0.0
C182 C 0.70275 0.44303 0.76265 0.0
Eu183 Eu 0.55484 0.40463 0.77424 0.0
N184 N 0.58862 0.44172 0.7798 0.0
C185 C 0.63092 0.48469 0.78471 0.0
C186 C 0.57238 0.4613 0.78903 0.0
C187 C 0.5931 0.48318 0.79137 0.0
H188 H 0.62037 0.36178 0.76274 0.0
H189 H 0.57991 0.49884 0.79829 0.0
H190 H 0.41289 0.45161 0.75135 0.0
H191 H 0.43041 0.31673 0.70414 0.0
H192 H 0.54327 0.4601 0.7943 0.0
H193 H 0.64689 0.50167 0.78649 0.0
H194 H 0.47141 0.35318 0.70782 0.0
H195 H 0.68789 0.36033 0.75255 0.0
H196 H 0.70351 0.48095 0.77117 0.0
H197 H 0.73259 0.44338 0.75836 0.0
H198 H 0.34816 0.45468 0.76536 0.0
H199 H 0.72714 0.39831 0.75157 0.0
H200 H 0.36485 0.31662 0.71791 0.0
N201 N 0.40738 0.4137 0.7445 0.0
C202 C 0.38301 0.3942 0.74275 0.0
C203 C 0.35775 0.43749 0.75929 0.0
C204 C 0.34499 0.39561 0.74965 0.0
C205 C 0.39483 0.43548 0.75176 0.0
C206 C 0.3328 0.4174 0.75841 0.0
N207 N 0.43218 0.37233 0.72635 0.0
C208 C 0.44422 0.35275 0.71538 0.0
C209 C 0.37036 0.35304 0.73049 0.0
C210 C 0.39571 0.37301 0.73342 0.0
C211 C 0.38345 0.33233 0.72039 0.0
C212 C 0.42048 0.33227 0.71268 0.0
H213 H 0.30386 0.41916 0.76392 0.0
H214 H 0.29055 0.3765 0.75189 0.0
H215 H 0.31234 0.33982 0.73421 0.0
O216 O 0.45286 0.4039 0.69898 0.0
O217 O 0.45564 0.38913 0.76103 0.0
O218 O 0.51423 0.37328 0.76675 0.0
O219 O 0.44972 0.44009 0.71297 0.0
O220 O 0.51468 0.38076 0.72313 0.0
O221 O 0.56446 0.37997 0.74712 0.0
O222 O 0.54989 0.40922 0.80753 0.0
O223 O 0.55558 0.43749 0.75253 0.0
O224 O 0.53022 0.41988 0.72389 0.0
O225 O 0.57488 0.37673 0.79528 0.0
O226 O 0.49758 0.42084 0.78162 0.0
O227 O 0.47961 0.44078 0.75214 0.0
C228 C 0.47758 0.3734 0.77037 0.0
C229 C 0.43057 0.43671 0.67706 0.0
C230 C 0.41765 0.43185 0.64064 0.0
C231 C 0.40533 0.45612 0.63971 0.0
C232 C 0.41803 0.46093 0.67583 0.0
C233 C 0.40536 0.47051 0.65725 0.0
C234 C 0.42994 0.42208 0.65937 0.0
C235 C 0.54766 0.3728 0.73012 0.0
C236 C 0.44442 0.42681 0.69668 0.0
C237 C 0.31995 0.37563 0.74693 0.0
C238 C 0.33246 0.35461 0.73708 0.0
C239 C 0.54934 0.43771 0.73269 0.0
C240 C 0.5984 0.39031 0.82704 0.0
C241 C 0.61815 0.39155 0.8627 0.0
C242 C 0.65612 0.38859 0.8566 0.0
C243 C 0.6367 0.38772 0.82119 0.0
C244 C 0.58924 0.39244 0.8479 0.0
C245 C 0.66531 0.38679 0.83594 0.0
C246 C 0.48192 0.43939 0.7722 0.0
C247 C 0.56777 0.38914 0.81168 0.0
H248 H 0.3954 0.46384 0.62541 0.0
H249 H 0.41797 0.47248 0.68922 0.0
H250 H 0.39561 0.48916 0.65642 0.0
H251 H 0.43939 0.40331 0.66004 0.0
H252 H 0.67864 0.38757 0.86789 0.0
H253 H 0.64453 0.38595 0.80528 0.0
H254 H 0.5598 0.39424 0.85261 0.0
H255 H 0.69464 0.38443 0.83134 0.0
Eu256 Eu 0.04434 0.90669 0.73344 0.0
C257 C 0.87402 0.89326 0.76516 0.0
N258 N 0.89711 0.91346 0.76435 0.0
C259 C 0.84704 0.9365 0.74897 0.0
C260 C 0.83688 0.89368 0.75696 0.0
C261 C 0.88358 0.93519 0.75734 0.0
C262 C 0.8238 0.91554 0.74844 0.0
C263 C 0.86318 0.85155 0.77693 0.0
C264 C 0.88719 0.87238 0.77487 0.0
C265 C 0.82668 0.85159 0.76812 0.0
C266 C 0.81363 0.87256 0.75808 0.0
Eu267 Eu 0.95933 0.90906 0.77754 0.0
N268 N 0.92262 0.8729 0.78329 0.0
C269 C 0.87606 0.83164 0.78842 0.0
C270 C 0.93425 0.85413 0.79552 0.0
C271 C 0.91156 0.83307 0.79795 0.0
H272 H 0.90056 0.95169 0.75854 0.0
H273 H 0.92112 0.81817 0.80754 0.0
H274 H 0.10963 0.86316 0.7433 0.0
H275 H 0.07096 1.0025 0.71325 0.0
H276 H 0.96036 0.85569 0.80409 0.0
H277 H 0.85825 0.81551 0.79075 0.0
H278 H 0.03437 0.96341 0.71481 0.0
H279 H 0.83668 0.95376 0.7432 0.0
H280 H 0.80792 0.83573 0.76944 0.0
H281 H 0.78512 0.87249 0.75174 0.0
H282 H 0.17679 0.86083 0.75406 0.0
H283 H 0.7954 0.91663 0.74205 0.0
H284 H 0.13658 1.00469 0.72705 0.0
N285 N 0.10936 0.90213 0.74258 0.0
C286 C 0.13089 0.92299 0.74325 0.0
C287 C 0.16412 0.87846 0.75133 0.0
C288 C 0.16961 0.92248 0.74899 0.0
C289 C 0.12594 0.8799 0.74543 0.0
C290 C 0.18588 0.89988 0.75351 0.0
N291 N 0.07836 0.9442 0.72996 0.0
C292 C 0.06294 0.96433 0.72088 0.0
C293 C 0.13703 0.96645 0.73591 0.0
C294 C 0.115 0.94466 0.7366 0.0
C295 C 0.1206 0.98758 0.72781 0.0
C296 C 0.08359 0.98641 0.71997 0.0
H297 H 0.21554 0.8987 0.75794 0.0
H298 H 0.22087 0.94433 0.75387 0.0
H299 H 0.19221 0.9829 0.74256 0.0
O300 O 0.04167 0.91395 0.70028 0.0
O301 O 0.04313 0.93873 0.75542 0.0
O302 O 0.02122 0.91906 0.78404 0.0
O303 O 0.06491 0.88032 0.71137 0.0
O304 O 0.98693 0.92315 0.72636 0.0
O305 O 0.96801 0.94178 0.75613 0.0
O306 O 0.94319 0.90508 0.80988 0.0
O307 O 0.94557 0.89107 0.74696 0.0
O308 O 1.00362 0.87488 0.73984 0.0
O309 O 0.94439 0.94128 0.79543 0.0
O310 O 0.00387 0.88033 0.78411 0.0
O311 O 0.05345 0.88012 0.75992 0.0
C312 C 0.03961 0.93741 0.77536 0.0
C313 C 0.09123 0.89616 0.68087 0.0
C314 C 0.11576 0.89389 0.64598 0.0
C315 C 0.15307 0.89499 0.65369 0.0
C316 C 0.12885 0.89769 0.68815 0.0
C317 C 0.15951 0.89708 0.67463 0.0
C318 C 0.08473 0.89467 0.65963 0.0
C319 C 0.97082 0.94131 0.73601 0.0
C320 C 0.05917 0.89405 0.69543 0.0
C321 C 0.19122 0.94434 0.74926 0.0
C322 C 0.17493 0.96629 0.74277 0.0
C323 C 0.96661 0.87515 0.73736 0.0
C324 C 0.927 0.9395 0.83168 0.0
C325 C 0.90955 0.93614 0.86787 0.0
C326 C 0.90577 0.96165 0.86849 0.0
C327 C 0.92296 0.96497 0.83278 0.0
C328 C 0.9206 0.92505 0.84944 0.0
C329 C 0.91255 0.97592 0.85109 0.0
C330 C 0.03637 0.87219 0.77679 0.0
C331 C 0.9387 0.92845 0.81209 0.0
H332 H 0.17729 0.89432 0.64343 0.0
H333 H 0.13467 0.89881 0.70431 0.0
H334 H 0.18837 0.89793 0.68042 0.0
H335 H 0.05585 0.89332 0.65382 0.0
H336 H 0.89732 0.97054 0.8825 0.0
H337 H 0.92794 0.97651 0.81949 0.0
H338 H 0.92341 0.90536 0.84887 0.0
H339 H 0.90947 0.99556 0.85178 0.0
Eu340 Eu 0.46243 0.61241 0.22898 0.0
C341 C 0.6333 0.63403 0.26106 0.0
N342 N 0.61472 0.61204 0.26154 0.0
C343 C 0.67242 0.59203 0.25195 0.0
C344 C 0.67167 0.63601 0.25469 0.0
C345 C 0.6344 0.59105 0.25834 0.0
C346 C 0.69088 0.61467 0.2496 0.0
C347 C 0.63403 0.67712 0.2696 0.0
C348 C 0.61496 0.65427 0.26863 0.0
C349 C 0.67131 0.67954 0.26193 0.0
C350 C 0.69013 0.659 0.25453 0.0
Eu351 Eu 0.54975 0.6123 0.27189 0.0
N352 N 0.57886 0.65134 0.27588 0.0
C353 C 0.61544 0.69665 0.27882 0.0
C354 C 0.56171 0.66977 0.28621 0.0
C355 C 0.57939 0.69284 0.28749 0.0
H356 H 0.62065 0.57337 0.26057 0.0
H357 H 0.56526 0.70762 0.29518 0.0
H358 H 0.40781 0.66051 0.24115 0.0
H359 H 0.42357 0.51518 0.22311 0.0
H360 H 0.53416 0.66669 0.29318 0.0
H361 H 0.62911 0.71452 0.27985 0.0
H362 H 0.46676 0.55082 0.22262 0.0
H363 H 0.68745 0.57531 0.24891 0.0
H364 H 0.68626 0.69702 0.26228 0.0
H365 H 0.71939 0.66092 0.24939 0.0
H366 H 0.34193 0.668 0.25209 0.0
H367 H 0.72039 0.61538 0.24473 0.0
H368 H 0.35577 0.52012 0.23211 0.0
N369 N 0.39994 0.62188 0.23934 0.0
C370 C 0.37465 0.60276 0.24017 0.0
C371 C 0.35083 0.64955 0.24892 0.0
C372 C 0.33632 0.6064 0.24577 0.0
C373 C 0.38838 0.64515 0.24304 0.0
C374 C 0.32473 0.63009 0.2504 0.0
N375 N 0.42417 0.5763 0.23026 0.0
C376 C 0.43732 0.55356 0.22598 0.0
C377 C 0.36125 0.55929 0.23622 0.0
C378 C 0.38696 0.57943 0.23534 0.0
C379 C 0.37462 0.53601 0.23161 0.0
C380 C 0.41283 0.53315 0.22649 0.0
H381 H 0.29559 0.63359 0.25486 0.0
H382 H 0.28119 0.58891 0.25073 0.0
H383 H 0.30307 0.54768 0.24251 0.0
O384 O 0.44992 0.60326 0.19723 0.0
O385 O 0.45086 0.59405 0.25963 0.0
O386 O 0.51039 0.57968 0.26636 0.0
O387 O 0.44621 0.64085 0.20712 0.0
O388 O 0.50858 0.58533 0.22135 0.0
O389 O 0.55882 0.58578 0.24512 0.0
O390 O 0.54313 0.61428 0.30596 0.0
O391 O 0.54564 0.64496 0.25053 0.0
O392 O 0.52333 0.62457 0.22292 0.0
O393 O 0.5845 0.59053 0.29181 0.0
O394 O 0.49209 0.62841 0.28042 0.0
O395 O 0.4702 0.64516 0.24999 0.0
C396 C 0.47371 0.57986 0.27 0.0
C397 C 0.40945 0.62881 0.17825 0.0
C398 C 0.38449 0.63178 0.14351 0.0
C399 C 0.348 0.63566 0.15166 0.0
C400 C 0.37283 0.63263 0.18605 0.0
C401 C 0.34227 0.636 0.17277 0.0
C402 C 0.41515 0.6281 0.15695 0.0
C403 C 0.54199 0.57792 0.2281 0.0
C404 C 0.44214 0.62562 0.19195 0.0
C405 C 0.3107 0.58642 0.24646 0.0
C406 C 0.32314 0.56294 0.24175 0.0
C407 C 0.53904 0.64408 0.23086 0.0
C408 C 0.58414 0.58906 0.32845 0.0
C409 C 0.59589 0.59243 0.36519 0.0
C410 C 0.61625 0.57052 0.36455 0.0
C411 C 0.60452 0.56709 0.32841 0.0
C412 C 0.57994 0.60185 0.34699 0.0
C413 C 0.62047 0.55799 0.3463 0.0
C414 C 0.47168 0.64444 0.27014 0.0
C415 C 0.5706 0.59885 0.30864 0.0
H416 H 0.32379 0.63829 0.14166 0.0
H417 H 0.36781 0.63309 0.20233 0.0
H418 H 0.31405 0.63896 0.17885 0.0
H419 H 0.44347 0.62523 0.15087 0.0
H420 H 0.62954 0.56325 0.37822 0.0
H421 H 0.60863 0.55698 0.31441 0.0
H422 H 0.56493 0.61901 0.34724 0.0
H423 H 0.63651 0.54125 0.34599 0.0
H424 H 0.25616 0.9227 0.3732 0.0
H425 H 0.22905 0.95515 0.35177 0.0
H426 H 0.11597 0.93285 0.37097 0.0
H427 H 0.14277 0.90009 0.39164 0.0
H428 H 0.11424 0.94364 0.33272 0.0
H429 H 0.16641 0.98326 0.39218 0.0
H430 H 0.21566 0.99599 0.41698 0.0
H431 H 0.28016 0.03083 0.36881 0.0
H432 H 0.23151 0.01804 0.34367 0.0
H433 H 0.01366 0.05283 0.30847 0.0
H434 H 0.0439 0.02028 0.32825 0.0
H435 H 0.15154 0.03761 0.29942 0.0
H436 H 0.12132 0.06984 0.27963 0.0
H437 H 0.15742 0.02973 0.34163 0.0
H438 H 0.10498 0.99007 0.28258 0.0
H439 H 0.05629 0.97661 0.25774 0.0
H440 H 0.99183 0.94197 0.30603 0.0
H441 H 0.03991 0.95554 0.33123 0.0
C442 C 0.22549 0.92438 0.37237 0.0
C443 C 0.20158 0.9089 0.38412 0.0
C444 C 0.21003 0.94318 0.36041 0.0
C445 C 0.17043 0.94688 0.36009 0.0
C446 C 0.14657 0.93058 0.37102 0.0
C447 C 0.16193 0.91182 0.38284 0.0
C448 C 0.1534 0.96762 0.34854 0.0
C449 C 0.12342 0.96249 0.33494 0.0
C450 C 0.16581 0.99225 0.35099 0.0
C451 C 0.19556 0.99941 0.366 0.0
C452 C 0.19131 0.99339 0.38684 0.0
C453 C 0.21907 1.00068 0.40097 0.0
C454 C 0.25108 0.01414 0.39446 0.0
C455 C 0.2554 0.02035 0.37382 0.0
C456 C 0.22774 0.01309 0.35962 0.0
C457 C 0.0436 0.04949 0.30604 0.0
C458 C 0.0646 0.06298 0.29133 0.0
C459 C 0.0609 0.03094 0.31748 0.0
C460 C 0.09981 0.02608 0.31493 0.0
C461 C 0.12132 0.04065 0.30134 0.0
C462 C 0.10386 0.05881 0.28969 0.0
C463 C 0.11808 1.00564 0.32614 0.0
C464 C 0.14827 0.01086 0.33957 0.0
C465 C 0.10575 0.98109 0.3237 0.0
C466 C 0.07581 0.97406 0.3088 0.0
C467 C 0.08013 0.97992 0.28795 0.0
C468 C 0.05274 0.97219 0.2738 0.0
C469 C 0.02105 0.95846 0.28032 0.0
C470 C 0.01642 0.95263 0.30102 0.0
C471 C 0.04372 0.96034 0.31524 0.0
H472 H 1.00034 0.95215 0.26928 0.0
H473 H 0.27249 0.01982 0.40543 0.0
H474 H 0.28141 0.56744 0.89755 0.0
H475 H 0.31238 0.53657 0.87654 0.0
H476 H 0.37148 0.59378 0.84289 0.0
H477 H 0.34062 0.62458 0.86369 0.0
H478 H 0.34618 0.56017 0.81773 0.0
H479 H 0.41464 0.55971 0.88174 0.0
H480 H 0.42367 0.55512 0.91897 0.0
H481 H 0.38078 0.48122 0.91634 0.0
H482 H 0.37097 0.48546 0.87914 0.0
H483 H 0.48382 0.48889 0.7676 0.0
H484 H 0.45209 0.51903 0.78902 0.0
H485 H 0.40228 0.46049 0.82543 0.0
H486 H 0.43624 0.4306 0.80491 0.0
H487 H 0.42203 0.49434 0.84954 0.0
H488 H 0.3523 0.49474 0.78587 0.0
H489 H 0.34571 0.49854 0.7484 0.0
H490 H 0.39105 0.5719 0.75059 0.0
H491 H 0.39838 0.56841 0.78802 0.0
C492 C 0.30066 0.57341 0.88549 0.0
C493 C 0.30837 0.59849 0.88221 0.0
C494 C 0.3186 0.55575 0.87362 0.0
C495 C 0.34481 0.56283 0.85836 0.0
C496 C 0.35141 0.58786 0.85458 0.0
C497 C 0.33342 0.60549 0.86636 0.0
C498 C 0.36524 0.54435 0.84611 0.0
C499 C 0.36305 0.54591 0.82471 0.0
C500 C 0.38658 0.52535 0.85519 0.0
C501 C 0.39157 0.52303 0.87767 0.0
C502 C 0.40668 0.54258 0.88913 0.0
C503 C 0.41205 0.54002 0.91023 0.0
C504 C 0.40268 0.51793 0.92002 0.0
C505 C 0.38793 0.49834 0.90874 0.0
C506 C 0.38246 0.50082 0.88765 0.0
C507 C 0.46604 0.48261 0.7802 0.0
C508 C 0.46223 0.45758 0.78465 0.0
C509 C 0.44773 0.49977 0.79237 0.0
C510 C 0.42397 0.49209 0.80864 0.0
C511 C 0.42037 0.46696 0.81303 0.0
C512 C 0.43966 0.44989 0.80128 0.0
C513 C 0.40287 0.51012 0.82113 0.0
C514 C 0.40495 0.50849 0.84257 0.0
C515 C 0.38122 0.52899 0.81213 0.0
C516 C 0.37613 0.53124 0.78969 0.0
C517 C 0.361 0.51163 0.77833 0.0
C518 C 0.35715 0.51373 0.75711 0.0
C519 C 0.36803 0.53543 0.74712 0.0
C520 C 0.38266 0.5551 0.75834 0.0
C521 C 0.38663 0.55308 0.77955 0.0
H522 H 0.36506 0.53701 0.73069 0.0
H523 H 0.40695 0.51596 0.93634 0.0
H524 H 0.71727 0.62464 0.64489 0.0
H525 H 0.69104 0.59283 0.66786 0.0
H526 H 0.65858 0.54929 0.6159 0.0
H527 H 0.68716 0.57949 0.59302 0.0
H528 H 0.59792 0.56124 0.6487 0.0
H529 H 0.71946 0.52642 0.63497 0.0
H530 H 0.78944 0.52476 0.63298 0.0
H531 H 0.79733 0.53618 0.69776 0.0
H532 H 0.72728 0.53849 0.70005 0.0
H533 H 0.541 0.44512 0.69136 0.0
H534 H 0.56963 0.47769 0.67023 0.0
H535 H 0.62384 0.50835 0.72359 0.0
H536 H 0.59466 0.47628 0.74481 0.0
H537 H 0.67372 0.50387 0.69067 0.0
H538 H 0.54899 0.53574 0.70369 0.0
H539 H 0.47874 0.53496 0.7042 0.0
H540 H 0.47652 0.5264 0.63898 0.0
H541 H 0.54681 0.52679 0.6381 0.0
C542 C 0.70517 0.60816 0.6383 0.0
C543 C 0.70371 0.60518 0.61691 0.0
C544 C 0.68996 0.59006 0.65148 0.0
C545 C 0.67253 0.56886 0.64352 0.0
C546 C 0.67149 0.56565 0.62233 0.0
C547 C 0.68752 0.58326 0.60924 0.0
C548 C 0.65437 0.55017 0.6571 0.0
C549 C 0.61443 0.5486 0.65782 0.0
C550 C 0.67599 0.53378 0.669 0.0
C551 C 0.71814 0.5332 0.6676 0.0
C552 C 0.73611 0.5291 0.64873 0.0
C553 C 0.7758 0.5279 0.64756 0.0
C554 C 0.79785 0.53052 0.66521 0.0
C555 C 0.78022 0.5343 0.68408 0.0
C556 C 0.74053 0.53559 0.68531 0.0
C557 C 0.559 0.45878 0.69864 0.0
C558 C 0.56604 0.45776 0.71984 0.0
C559 C 0.57523 0.47746 0.68652 0.0
C560 C 0.59895 0.49548 0.69531 0.0
C561 C 0.60584 0.49458 0.71644 0.0
C562 C 0.58923 0.47612 0.72857 0.0
C563 C 0.61713 0.51501 0.68247 0.0
C564 C 0.65711 0.51668 0.68177 0.0
C565 C 0.5955 0.53128 0.67037 0.0
C566 C 0.55321 0.53101 0.67086 0.0
C567 C 0.53354 0.53345 0.68947 0.0
C568 C 0.4937 0.53313 0.68982 0.0
C569 C 0.47318 0.53054 0.67164 0.0
C570 C 0.49246 0.52835 0.65306 0.0
C571 C 0.5323 0.52864 0.65262 0.0
H572 H 0.44234 0.5303 0.67194 0.0
H573 H 0.82857 0.52948 0.6643 0.0
H574 H 0.7639 0.94793 0.1155 0.0
H575 H 0.79428 0.97952 0.13698 0.0
H576 H 0.89404 0.93479 0.14277 0.0
H577 H 0.8631 0.90311 0.12212 0.0
H578 H 0.87699 0.95158 0.17807 0.0
H579 H 0.88919 0.98736 0.11088 0.0
H580 H 0.86649 1.00285 0.07761 0.0
H581 H 0.79831 0.05589 0.10818 0.0
H582 H 0.82018 0.04047 0.14166 0.0
H583 H 0.00768 0.04108 0.21698 0.0
H584 H 0.97535 0.01114 0.19501 0.0
H585 H 0.87296 0.05361 0.19691 0.0
H586 H 0.9049 0.08355 0.21876 0.0
H587 H 0.89022 0.03891 0.15794 0.0
H588 H 0.8755 1.00206 0.22463 0.0
H589 H 0.89256 0.98377 0.25795 0.0
H590 H 0.96524 0.93293 0.228 0.0
H591 H 0.94834 0.95061 0.19443 0.0
C592 C 0.79223 0.94499 0.1215 0.0
C593 C 0.81122 0.92318 0.11744 0.0
C594 C 0.80972 0.96305 0.13359 0.0
C595 C 0.8467 0.95968 0.14136 0.0
C596 C 0.86552 0.93784 0.13706 0.0
C597 C 0.84791 0.91976 0.12529 0.0
C598 C 0.86564 0.9783 0.15457 0.0
C599 C 0.88039 0.9706 0.17346 0.0
C600 C 0.86917 1.0033 0.1489 0.0
C601 C 0.85599 0.01257 0.12878 0.0
C602 C 0.8691 1.00218 0.11051 0.0
C603 C 0.85643 0.01097 0.09162 0.0
C604 C 0.83088 0.03029 0.09078 0.0
C605 C 0.81804 0.04089 0.10885 0.0
C606 C 0.83058 0.03214 0.12779 0.0
C607 C 0.9783 0.04404 0.21271 0.0
C608 C 0.95883 0.06463 0.2197 0.0
C609 C 0.95982 0.02687 0.20023 0.0
C610 C 0.92167 0.03008 0.19445 0.0
C611 C 0.90238 0.05078 0.20119 0.0
C612 C 0.92069 0.06782 0.21376 0.0
C613 C 0.90186 0.01199 0.18121 0.0
C614 C 0.88695 0.01983 0.1624 0.0
C615 C 0.89827 0.98707 0.18685 0.0
C616 C 0.9109 0.97778 0.20704 0.0
C617 C 0.89557 0.98723 0.22516 0.0
C618 C 0.90505 0.97693 0.24407 0.0
C619 C 0.92994 0.95731 0.24507 0.0
C620 C 0.94589 0.94811 0.22718 0.0
C621 C 0.93629 0.9582 0.20821 0.0
H622 H 0.93644 0.94908 0.25972 0.0
H623 H 0.82111 0.03707 0.07614 0.0
H624 H 0.82045 0.13119 0.64696 0.0
H625 H 0.84472 0.10069 0.67121 0.0
H626 H 0.84398 0.04664 0.6234 0.0
H627 H 0.81781 0.07632 0.59972 0.0
H628 H 0.8224 0.02543 0.65563 0.0
H629 H 0.92684 0.07909 0.6393 0.0
H630 H 0.96225 0.11825 0.63601 0.0
H631 H 0.95439 0.12889 0.70087 0.0
H632 H 0.9184 0.08994 0.70452 0.0
H633 H 0.95507 0.94097 0.6951 0.0
H634 H 0.92457 0.97271 0.6748 0.0
H635 H 0.91521 0.01764 0.72847 0.0
H636 H 0.94684 0.98617 0.74884 0.0
H637 H 0.93952 0.0439 0.69539 0.0
H638 H 0.83678 0.98476 0.7091 0.0
H639 H 0.80653 0.94366 0.70857 0.0
H640 H 0.81984 0.94098 0.64339 0.0
H641 H 0.85006 0.98203 0.64347 0.0
C642 C 0.82494 0.11269 0.64177 0.0
C643 C 0.8179 0.10635 0.6213 0.0
C644 C 0.83922 0.09533 0.65556 0.0
C645 C 0.84704 0.07142 0.64906 0.0
C646 C 0.83852 0.06492 0.62885 0.0
C647 C 0.82392 0.08207 0.61521 0.0
C648 C 0.86463 0.05308 0.66297 0.0
C649 C 0.84815 0.02951 0.66421 0.0
C650 C 0.89818 0.05824 0.6743 0.0
C651 C 0.91946 0.08178 0.67215 0.0
C652 C 0.93232 0.08991 0.65284 0.0
C653 C 0.95256 0.11204 0.65091 0.0
C654 C 0.96044 0.1261 0.66821 0.0
C655 C 0.94816 0.11802 0.68748 0.0
C656 C 0.92784 0.09592 0.68949 0.0
C657 C 0.94663 0.95761 0.70263 0.0
C658 C 0.95292 0.96088 0.72369 0.0
C659 C 0.92891 0.97568 0.691 0.0
C660 C 0.91685 0.99735 0.70019 0.0
C661 C 0.92395 1.00096 0.7211 0.0
C662 C 0.94185 0.98291 0.73274 0.0
C663 C 0.89732 0.01638 0.68792 0.0
C664 C 0.91351 0.04002 0.68698 0.0
C665 C 0.86423 0.01106 0.6763 0.0
C666 C 0.84589 0.98641 0.67632 0.0
C667 C 0.83343 0.97535 0.69468 0.0
C668 C 0.81628 0.95208 0.69445 0.0
C669 C 0.81148 0.93968 0.676 0.0
C670 C 0.82362 0.95058 0.65768 0.0
C671 C 0.84063 0.97388 0.6578 0.0
H672 H 0.79826 0.92166 0.67589 0.0
H673 H 0.97616 0.14321 0.66669 0.0
H674 H 0.64657 0.403 0.11293 0.0
H675 H 0.61909 0.43503 0.13391 0.0
H676 H 0.73158 0.45675 0.15407 0.0
H677 H 0.7593 0.42452 0.13302 0.0
H678 H 0.68077 0.45773 0.18507 0.0
H679 H 0.68664 0.48875 0.1164 0.0
H680 H 0.67568 0.48946 0.07915 0.0
H681 H 0.55475 0.48679 0.08907 0.0
H682 H 0.56496 0.48568 0.12637 0.0
H683 H 0.61897 0.5712 0.22428 0.0
H684 H 0.652 0.54057 0.20462 0.0
H685 H 0.54458 0.5155 0.17988 0.0
H686 H 0.51167 0.54616 0.19964 0.0
H687 H 0.59694 0.5178 0.15102 0.0
H688 H 0.59055 0.48387 0.21916 0.0
H689 H 0.60051 0.48395 0.25649 0.0
H690 H 0.72123 0.49229 0.24746 0.0
H691 H 0.71192 0.49259 0.21005 0.0
C692 C 0.6654 0.4144 0.12206 0.0
C693 C 0.70509 0.41136 0.12128 0.0
C694 C 0.6497 0.43281 0.1339 0.0
C695 C 0.67334 0.44869 0.14514 0.0
C696 C 0.71284 0.44482 0.14536 0.0
C697 C 0.72862 0.4263 0.13349 0.0
C698 C 0.65665 0.46943 0.15642 0.0
C699 C 0.66292 0.47108 0.17756 0.0
C700 C 0.63278 0.48664 0.14669 0.0
C701 C 0.6266 0.48687 0.12421 0.0
C702 C 0.65772 0.48804 0.11065 0.0
C703 C 0.65163 0.48858 0.08951 0.0
C704 C 0.61455 0.48811 0.08175 0.0
C705 C 0.58346 0.48711 0.0951 0.0
C706 C 0.58939 0.48654 0.11624 0.0
C707 C 0.60218 0.55853 0.21554 0.0
C708 C 0.56229 0.56001 0.21512 0.0
C709 C 0.6212 0.54124 0.20388 0.0
C710 C 0.60067 0.52507 0.19132 0.0
C711 C 0.56103 0.5274 0.18983 0.0
C712 C 0.5421 0.54481 0.20145 0.0
C713 C 0.62045 0.50577 0.1797 0.0
C714 C 0.61489 0.50447 0.15849 0.0
C715 C 0.64482 0.48884 0.18935 0.0
C716 C 0.65051 0.48848 0.21182 0.0
C717 C 0.61919 0.48588 0.22514 0.0
C718 C 0.62472 0.48584 0.24631 0.0
C719 C 0.66147 0.48819 0.25434 0.0
C720 C 0.69278 0.49051 0.24122 0.0
C721 C 0.6874 0.4906 0.22003 0.0
H722 H 0.6657 0.48815 0.27074 0.0
H723 H 0.6099 0.48857 0.06539 0.0
H724 H 0.32541 0.39029 0.3626 0.0
H725 H 0.3504 0.42104 0.33847 0.0
H726 H 0.33009 0.47766 0.38263 0.0
H727 H 0.30293 0.44737 0.40614 0.0
H728 H 0.31604 0.4952 0.34754 0.0
H729 H 0.42038 0.45008 0.37512 0.0
H730 H 0.45795 0.41354 0.38322 0.0
H731 H 0.46824 0.39787 0.31921 0.0
H732 H 0.43026 0.43415 0.31074 0.0
H733 H 0.44157 0.5866 0.3071 0.0
H734 H 0.41056 0.55565 0.32905 0.0
H735 H 0.43303 0.50051 0.28379 0.0
H736 H 0.46708 0.53115 0.26286 0.0
H737 H 0.44469 0.48192 0.31874 0.0
H738 H 0.33963 0.53073 0.29252 0.0
H739 H 0.30475 0.56908 0.28723 0.0
H740 H 0.30007 0.58013 0.35208 0.0
H741 H 0.33492 0.54189 0.35782 0.0
C742 C 0.32543 0.40936 0.36696 0.0
C743 C 0.31276 0.41627 0.38647 0.0
C744 C 0.34025 0.42692 0.35326 0.0
C745 C 0.34324 0.45167 0.35891 0.0
C746 C 0.32857 0.45872 0.37792 0.0
C747 C 0.31333 0.44128 0.39146 0.0
C748 C 0.36266 0.4702 0.34549 0.0
C749 C 0.34428 0.49232 0.34135 0.0
C750 C 0.39946 0.46655 0.33725 0.0
C751 C 0.4221 0.44465 0.34231 0.0
C752 C 0.43038 0.43872 0.36278 0.0
C753 C 0.45179 0.41808 0.36744 0.0
C754 C 0.46537 0.40335 0.35174 0.0
C755 C 0.45763 0.40927 0.33135 0.0
C756 C 0.43617 0.42986 0.32661 0.0
C757 C 0.44005 0.56778 0.30204 0.0
C758 C 0.45641 0.5611 0.28339 0.0
C759 C 0.42191 0.55014 0.31442 0.0
C760 C 0.41833 0.52573 0.30788 0.0
C761 C 0.43514 0.51916 0.2892 0.0
C762 C 0.45444 0.53664 0.27719 0.0
C763 C 0.39795 0.50687 0.3206 0.0
C764 C 0.41625 0.4847 0.3247 0.0
C765 C 0.36138 0.51069 0.32913 0.0
C766 C 0.34006 0.53352 0.32558 0.0
C767 C 0.33126 0.54138 0.30565 0.0
C768 C 0.31151 0.56309 0.30257 0.0
C769 C 0.30035 0.57707 0.31928 0.0
C770 C 0.30874 0.5693 0.33914 0.0
C771 C 0.32839 0.54758 0.34233 0.0
H772 H 0.28512 0.59389 0.31683 0.0
H773 H 0.48197 0.3874 0.35537 0.0
H774 H 0.21723 0.06846 0.90794 0.0
H775 H 0.18781 0.03872 0.88498 0.0
H776 H 0.1726 0.09531 0.83955 0.0
H777 H 0.20153 0.12547 0.86286 0.0
H778 H 0.1079 0.06823 0.84495 0.0
H779 H 0.23981 0.05028 0.83334 0.0
H780 H 0.30554 0.04047 0.84342 0.0
H781 H 0.26539 0.9745 0.87289 0.0
H782 H 0.19936 0.98405 0.86318 0.0
H783 H 0.0583 0.98446 0.76457 0.0
H784 H 0.09041 0.01561 0.78544 0.0
H785 H 0.09587 0.96449 0.83582 0.0
H786 H 0.06314 0.93334 0.81512 0.0
H787 H 0.16629 0.98927 0.82677 0.0
H788 H 0.03632 1.00632 0.84015 0.0
H789 H 0.96927 0.01569 0.83286 0.0
H790 H 0.00389 0.08247 0.80276 0.0
H791 H 0.07132 0.07331 0.80955 0.0
C792 C 0.2078 0.07459 0.89301 0.0
C793 C 0.21146 0.09937 0.88726 0.0
C794 C 0.19123 0.05749 0.87982 0.0
C795 C 0.17816 0.06466 0.86043 0.0
C796 C 0.18252 0.08932 0.85441 0.0
C797 C 0.19928 0.1065 0.86766 0.0
C798 C 0.15841 0.04653 0.84698 0.0
C799 C 0.121 0.05121 0.84059 0.0
C800 C 0.17487 0.02385 0.84194 0.0
C801 C 0.21461 0.01798 0.84765 0.0
C802 C 0.24497 0.03376 0.84208 0.0
C803 C 0.28229 0.02823 0.8477 0.0
C804 C 0.28963 1.0069 0.85882 0.0
C805 C 0.25967 0.99102 0.86428 0.0
C806 C 0.2223 0.99646 0.85869 0.0
C807 C 0.06635 0.97984 0.78008 0.0
C808 C 0.05835 0.9564 0.78816 0.0
C809 C 0.0845 0.99771 0.79203 0.0
C810 C 0.09549 0.9924 0.8122 0.0
C811 C 0.08763 0.96898 0.82029 0.0
C812 C 0.06883 0.95124 0.80847 0.0
C813 C 0.11598 0.0111 0.82466 0.0
C814 C 0.15341 1.00645 0.83091 0.0
C815 C 0.09941 0.03369 0.82975 0.0
C816 C 0.05897 0.03892 0.82506 0.0
C817 C 0.02972 0.02282 0.83168 0.0
C818 C 0.99161 0.02813 0.82771 0.0
C819 C 0.98232 0.0496 0.81727 0.0
C820 C 0.01114 0.0658 0.81078 0.0
C821 C 0.04932 0.06055 0.81468 0.0
H822 H 0.95278 0.05372 0.81428 0.0
H823 H 0.31854 1.00266 0.86318 0.0
H824 H 0.26439 0.1387 0.97363 0.0
H825 H 0.23954 0.13823 0.00831 0.0
H826 H 0.12714 0.12081 0.98542 0.0
H827 H 0.15119 0.12328 0.95041 0.0
H828 H 0.12064 0.15225 0.01423 0.0
H829 H 0.18774 0.07728 0.0084 0.0
H830 H 0.24157 0.05012 1.00148 0.0
H831 H 0.30777 0.08605 0.04796 0.0
H832 H 0.25456 0.11369 0.05494 0.0
H833 H 0.05464 0.09275 0.10744 0.0
H834 H 0.07108 0.10804 0.07314 0.0
H835 H 0.17389 0.14119 0.09715 0.0
H836 H 0.15709 0.1262 0.13151 0.0
H837 H 0.18476 0.104 0.06825 0.0
H838 H 0.1121 0.17682 0.07544 0.0
H839 H 0.05551 0.20162 0.08221 0.0
H840 H 0.99575 0.16605 0.03315 0.0
H841 H 0.05171 0.14069 0.02632 0.0
C842 C 0.23422 0.13519 0.97583 0.0
C843 C 0.20984 0.13117 0.95904 0.0
C844 C 0.22014 0.13452 0.9958 0.0
C845 C 0.18153 0.12909 0.99959 0.0
C846 C 0.15707 0.12499 0.98293 0.0
C847 C 0.17101 0.1261 0.96288 0.0
C848 C 0.16674 0.12789 0.02092 0.0
C849 C 0.13438 0.14144 0.02599 0.0
C850 C 0.18503 0.11416 0.03641 0.0
C851 C 0.21729 0.09776 0.03202 0.0
C852 C 0.21391 0.07956 0.017 0.0
C853 C 0.2443 0.06405 0.01309 0.0
C854 C 0.27811 0.06641 0.02422 0.0
C855 C 0.2816 0.08427 0.03931 0.0
C856 C 0.25134 0.09987 0.04325 0.0
C857 C 0.0798 0.10428 0.10547 0.0
C858 C 0.10459 0.10846 0.12197 0.0
C859 C 0.0892 0.11298 0.08592 0.0
C860 C 0.12378 0.12566 0.08261 0.0
C861 C 0.14701 0.13153 0.09943 0.0
C862 C 0.13735 0.12309 0.11902 0.0
C863 C 0.13893 0.12846 0.06155 0.0
C864 C 0.17123 0.11498 0.05651 0.0
C865 C 0.12009 0.14181 0.04609 0.0
C866 C 0.08604 0.15664 0.05052 0.0
C867 C 0.08674 0.17403 0.06627 0.0
C868 C 0.05479 0.18826 0.07007 0.0
C869 C 0.02203 0.18538 0.05815 0.0
C870 C 0.02112 0.16824 0.0424 0.0
C871 C 0.05295 0.15394 0.03855 0.0
H872 H 0.99737 0.19646 0.06108 0.0
H873 H 0.30157 0.05435 0.0212 0.0
H874 H 0.37742 0.39998 0.45054 0.0
H875 H 0.40066 0.40316 0.48572 0.0
H876 H 0.29207 0.37625 0.50816 0.0
H877 H 0.26815 0.3741 0.47318 0.0
H878 H 0.31635 0.41341 0.53021 0.0
H879 H 0.37007 0.33879 0.50628 0.0
H880 H 0.4054 0.31406 0.48147 0.0
H881 H 0.50588 0.35826 0.49132 0.0
H882 H 0.47099 0.38344 0.51605 0.0
H883 H 0.36795 0.39504 0.63117 0.0
H884 H 0.35559 0.37891 0.5968 0.0
H885 H 0.45224 0.42007 0.57345 0.0
H886 H 0.46421 0.43648 0.60771 0.0
H887 H 0.43515 0.37274 0.55224 0.0
H888 H 0.37882 0.4492 0.57341 0.0
H889 H 0.3426 0.47476 0.59721 0.0
H890 H 0.24535 0.42664 0.5913 0.0
H891 H 0.28135 0.40051 0.56775 0.0
C892 C 0.35834 0.39508 0.46299 0.0
C893 C 0.32103 0.38664 0.45908 0.0
C894 C 0.37182 0.39659 0.48306 0.0
C895 C 0.34833 0.38946 0.49953 0.0
C896 C 0.31079 0.38163 0.49568 0.0
C897 C 0.29725 0.38027 0.47567 0.0
C898 C 0.36252 0.39052 0.52086 0.0
C899 C 0.34196 0.40415 0.53505 0.0
C900 C 0.39632 0.37879 0.52712 0.0
C901 C 0.41788 0.36307 0.51295 0.0
C902 C 0.3997 0.34325 0.50314 0.0
C903 C 0.41963 0.32917 0.48908 0.0
C904 C 0.45785 0.33461 0.4848 0.0
C905 C 0.47628 0.35406 0.49467 0.0
C906 C 0.45646 0.36822 0.50875 0.0
C907 C 0.38733 0.39984 0.61882 0.0
C908 C 0.41678 0.41708 0.62186 0.0
C909 C 0.38035 0.39061 0.59926 0.0
C910 C 0.40285 0.3985 0.5826 0.0
C911 C 0.43471 0.4137 0.58611 0.0
C912 C 0.44139 0.42316 0.60561 0.0
C913 C 0.38861 0.39539 0.56146 0.0
C914 C 0.40927 0.38163 0.54735 0.0
C915 C 0.35475 0.40691 0.55516 0.0
C916 C 0.33291 0.42275 0.56906 0.0
C917 C 0.34984 0.44395 0.57735 0.0
C918 C 0.32935 0.45855 0.59077 0.0
C919 C 0.29174 0.45227 0.59583 0.0
C920 C 0.27452 0.43143 0.58742 0.0
C921 C 0.29495 0.41671 0.57404 0.0
H922 H 0.2759 0.46361 0.60622 0.0
H923 H 0.4732 0.32374 0.47386 0.0
H924 H 0.71649 0.34915 0.04026 0.0
H925 H 0.69185 0.3538 0.00557 0.0
H926 H 0.6772 0.43095 0.01545 0.0
H927 H 0.70337 0.42677 0.04992 0.0
H928 H 0.61229 0.40679 0.9984 0.0
H929 H 0.74562 0.4163 0.98648 0.0
H930 H 0.81389 0.40656 0.98778 0.0
H931 H 0.79167 0.33925 0.95618 0.0
H932 H 0.72313 0.34837 0.95502 0.0
H933 H 0.61281 0.43227 0.88599 0.0
H934 H 0.61831 0.43371 0.92346 0.0
H935 H 0.6134 0.35491 0.92607 0.0
H936 H 0.60762 0.35348 0.88873 0.0
H937 H 0.68654 0.38381 0.93713 0.0
H938 H 0.55209 0.37413 0.95038 0.0
H939 H 0.48394 0.38425 0.9497 0.0
H940 H 0.50877 0.45306 0.97842 0.0
H941 H 0.57721 0.4435 0.979 0.0
C942 C 0.70873 0.36721 0.03499 0.0
C943 C 0.7119 0.38756 0.04797 0.0
C944 C 0.6944 0.36979 0.01519 0.0
C945 C 0.6827 0.39271 0.00801 0.0
C946 C 0.68585 0.41308 0.0208 0.0
C947 C 0.70065 0.4106 0.04053 0.0
C948 C 0.66673 0.39513 0.98718 0.0
C949 C 0.62863 0.40214 0.98493 0.0
C950 C 0.68803 0.38875 0.96973 0.0
C951 C 0.72912 0.38289 0.9709 0.0
C952 C 0.75519 0.39926 0.98006 0.0
C953 C 0.79397 0.39388 0.98071 0.0
C954 C 0.8071 0.37226 0.97213 0.0
C955 C 0.78146 0.35596 0.96287 0.0
C956 C 0.74264 0.36123 0.96222 0.0
C957 C 0.61108 0.41538 0.89473 0.0
C958 C 0.60967 0.39277 0.88471 0.0
C959 C 0.61415 0.4162 0.91606 0.0
C960 C 0.61607 0.39441 0.92745 0.0
C961 C 0.6115 0.37189 0.91751 0.0
C962 C 0.60823 0.37108 0.89626 0.0
C963 C 0.63183 0.39479 0.94838 0.0
C964 C 0.67018 0.38853 0.95059 0.0
C965 C 0.61076 0.40196 0.96568 0.0
C966 C 0.56991 0.40828 0.96437 0.0
C967 C 0.54316 0.39162 0.95618 0.0
C968 C 0.50442 0.3972 0.95593 0.0
C969 C 0.49205 0.41934 0.96391 0.0
C970 C 0.5184 0.43596 0.97216 0.0
C971 C 0.55717 0.43047 0.97245 0.0
H972 H 0.46203 0.42356 0.96379 0.0
H973 H 0.83715 0.36817 0.9726 0.0
H974 H 0.77082 0.12086 0.53701 0.0
H975 H 0.79693 0.11533 0.50249 0.0
H976 H 0.90493 0.14555 0.52239 0.0
H977 H 0.87899 0.15065 0.55701 0.0
H978 H 0.87673 0.16526 0.48496 0.0
H979 H 0.89815 0.08706 0.51708 0.0
H980 H 0.87733 0.05025 0.53628 0.0
H981 H 0.79949 0.0313 0.48807 0.0
H982 H 0.81933 0.06828 0.46873 0.0
H983 H 0.96985 0.14653 0.39374 0.0
H984 H 0.96036 0.13987 0.43051 0.0
H985 H 0.85652 0.09932 0.41803 0.0
H986 H 0.86672 0.10544 0.38129 0.0
H987 H 0.88645 0.08351 0.45298 0.0
H988 H 0.85652 0.16101 0.42278 0.0
H989 H 0.86793 0.19967 0.40392 0.0
H990 H 0.95228 0.22136 0.44803 0.0
H991 H 0.94165 0.1827 0.46705 0.0
C992 C 0.80007 0.12634 0.53389 0.0
C993 C 0.82307 0.13616 0.54943 0.0
C994 C 0.81497 0.12308 0.5143 0.0
C995 C 0.85292 0.12984 0.51001 0.0
C996 C 0.87565 0.14012 0.52548 0.0
C997 C 0.86093 0.14301 0.54515 0.0
C998 C 0.86878 0.1265 0.48928 0.0
C999 C 0.87964 0.14738 0.47808 0.0
C1000 C 0.87118 0.10318 0.48019 0.0
C1001 C 0.86006 0.08054 0.49152 0.0
C1002 C 0.87644 0.07512 0.51062 0.0
C1003 C 0.86481 0.05422 0.52153 0.0
C1004 C 0.83706 0.03846 0.51342 0.0
C1005 C 0.82098 0.04353 0.49434 0.0
C1006 C 0.83243 0.06445 0.48339 0.0
C1007 C 0.94618 0.13508 0.39888 0.0
C1008 C 0.91905 0.12637 0.38486 0.0
C1009 C 0.94048 0.13153 0.41986 0.0
C1010 C 0.9071 0.11975 0.42701 0.0
C1011 C 0.88231 0.10862 0.41288 0.0
C1012 C 0.88822 0.11199 0.3919 0.0
C1013 C 0.89496 0.12233 0.44864 0.0
C1014 C 0.88433 0.10137 0.45996 0.0
C1015 C 0.8919 0.14569 0.45776 0.0
C1016 C 0.89872 0.16879 0.44616 0.0
C1017 C 0.8778 0.1739 0.42834 0.0
C1018 C 0.88408 0.19583 0.41764 0.0
C1019 C 0.91099 0.21288 0.42469 0.0
C1020 C 0.93157 0.20808 0.44252 0.0
C1021 C 0.92543 0.18617 0.45327 0.0
H1022 H 0.91577 0.22985 0.4164 0.0
H1023 H 0.82806 0.02231 0.5219 0.0
H1024 H 0.75998 0.90955 0.0385 0.0
H1025 H 0.7828 0.90999 1.00285 0.0
H1026 H 0.87448 0.86233 0.01982 0.0
H1027 H 0.85127 0.86151 0.05522 0.0
H1028 H 0.89748 0.90422 0.99716 0.0
H1029 H 0.80521 0.83888 0.99429 0.0
H1030 H 0.74191 0.81939 0.99886 0.0
H1031 H 0.69327 0.87138 0.9573 0.0
H1032 H 0.75611 0.89152 0.95281 0.0
H1033 H 0.95571 0.90734 0.89177 0.0
H1034 H 0.94 0.89006 0.92574 0.0
H1035 H 0.82557 0.91713 0.91989 0.0
H1036 H 0.84091 0.93339 0.88611 0.0
H1037 H 0.82033 0.8769 0.93786 0.0
H1038 H 0.9069 0.9469 0.94539 0.0
H1039 H 0.96714 0.97072 0.94384 0.0
H1040 H 0.02341 0.91484 0.97836 0.0
H1041 H 0.96371 0.89045 0.97974 0.0
C1042 C 0.78479 0.89908 0.03447 0.0
C1043 C 0.80385 0.88537 0.04937 0.0
C1044 C 0.79772 0.89925 0.0142 0.0
C1045 C 0.83016 0.88602 0.00872 0.0
C1046 C 0.84931 0.87253 0.02372 0.0
C1047 C 0.83604 0.87202 0.04384 0.0
C1048 C 0.84506 0.88707 0.98751 0.0
C1049 C 0.88097 0.89792 0.98413 0.0
C1050 C 0.82322 0.87902 0.97066 0.0
C1051 C 0.78539 0.86684 0.97334 0.0
C1052 C 0.78097 0.84632 0.98628 0.0
C1053 C 0.74516 0.83513 0.98883 0.0
C1054 C 0.71358 0.84417 0.9784 0.0
C1055 C 0.71775 0.86441 0.96538 0.0
C1056 C 0.75346 0.87571 0.96283 0.0
C1057 C 0.927 0.90892 0.89765 0.0
C1058 C 0.89945 0.92171 0.88644 0.0
C1059 C 0.91814 0.89935 0.91714 0.0
C1060 C 0.88174 0.90269 0.9257 0.0
C1061 C 0.85387 0.91429 0.91383 0.0
C1062 C 0.86261 0.92365 0.89449 0.0
C1063 C 0.87214 0.89543 0.94719 0.0
C1064 C 0.83726 0.88303 0.95077 0.0
C1065 C 0.89465 0.90259 0.96425 0.0
C1066 C 0.93102 0.9166 0.96226 0.0
C1067 C 0.93228 0.93948 0.95231 0.0
C1068 C 0.96631 0.95313 0.95154 0.0
C1069 C 0.99914 0.94423 0.96089 0.0
C1070 C 0.99804 0.92164 0.971 0.0
C1071 C 0.96416 0.90786 0.97172 0.0
H1072 H 0.02537 0.95491 0.96039 0.0
H1073 H 0.68589 0.83546 0.98038 0.0
H1074 H 0.71414 0.67793 0.53833 0.0
H1075 H 0.69036 0.67488 0.50324 0.0
H1076 H 0.66378 0.59837 0.51312 0.0
H1077 H 0.68978 0.60083 0.54745 0.0
H1078 H 0.69392 0.60317 0.47791 0.0
H1079 H 0.59478 0.64541 0.51332 0.0
H1080 H 0.56859 0.67833 0.53444 0.0
H1081 H 0.60248 0.73157 0.48908 0.0
H1082 H 0.62938 0.69897 0.46781 0.0
H1083 H 0.56848 0.57398 0.40088 0.0
H1084 H 0.58374 0.5888 0.43511 0.0
H1085 H 0.63567 0.65384 0.40897 0.0
H1086 H 0.62057 0.63888 0.37444 0.0
H1087 H 0.5952 0.65856 0.45058 0.0
H1088 H 0.69194 0.61312 0.41469 0.0
H1089 H 0.71378 0.57824 0.39434 0.0
H1090 H 0.6799 0.52866 0.44247 0.0
H1091 H 0.65699 0.56322 0.46292 0.0
C1092 C 0.70357 0.6604 0.53297 0.0
C1093 C 0.70352 0.63971 0.54593 0.0
C1094 C 0.68953 0.65875 0.51294 0.0
C1095 C 0.67459 0.63648 0.50556 0.0
C1096 C 0.67491 0.61581 0.51841 0.0
C1097 C 0.68937 0.61735 0.53823 0.0
C1098 C 0.65907 0.63428 0.48441 0.0
C1099 C 0.67216 0.61524 0.47208 0.0
C1100 C 0.63113 0.65024 0.47649 0.0
C1101 C 0.61443 0.6698 0.48908 0.0
C1102 C 0.59684 0.66416 0.50791 0.0
C1103 C 0.58185 0.68275 0.5199 0.0
C1104 C 0.58396 0.70704 0.51313 0.0
C1105 C 0.60093 0.71276 0.49432 0.0
C1106 C 0.61602 0.69423 0.48228 0.0
C1107 C 0.58183 0.59188 0.40246 0.0
C1108 C 0.59369 0.6052 0.38506 0.0
C1109 C 0.59057 0.60031 0.422 0.0
C1110 C 0.61135 0.6222 0.42452 0.0
C1111 C 0.61961 0.63688 0.4073 0.0
C1112 C 0.61089 0.62838 0.38761 0.0
C1113 C 0.62967 0.62727 0.44452 0.0
C1114 C 0.61721 0.64675 0.4565 0.0
C1115 C 0.65783 0.6115 0.45233 0.0
C1116 C 0.67241 0.59075 0.44025 0.0
C1117 C 0.68884 0.59477 0.42086 0.0
C1118 C 0.70143 0.57505 0.40931 0.0
C1119 C 0.69816 0.55124 0.41709 0.0
C1120 C 0.68236 0.54711 0.43645 0.0
C1121 C 0.66956 0.56675 0.44803 0.0
H1122 H 0.70793 0.536 0.40813 0.0
H1123 H 0.57238 0.72141 0.52245 0.0
H1124 H 0.2678 0.65223 0.96697 0.0
H1125 H 0.2951 0.65153 1.00136 0.0
H1126 H 0.38233 0.6028 0.98093 0.0
H1127 H 0.35691 0.60447 0.94628 0.0
H1128 H 0.34171 0.58989 0.01923 0.0
H1129 H 0.40724 0.65681 0.98501 0.0
H1130 H 0.4111 0.69568 0.96575 0.0
H1131 H 0.35467 0.73239 0.01476 0.0
H1132 H 0.34947 0.69363 0.03408 0.0
H1133 H 0.42063 0.59815 0.11938 0.0
H1134 H 0.42006 0.59642 0.08181 0.0
H1135 H 0.35804 0.664 0.07986 0.0
H1136 H 0.36051 0.66632 0.11689 0.0
H1137 H 0.39928 0.66462 0.04961 0.0
H1138 H 0.31897 0.60086 0.08007 0.0
H1139 H 0.30234 0.56275 0.09867 0.0
H1140 H 0.37194 0.52183 0.05761 0.0
H1141 H 0.38974 0.55978 0.03909 0.0
C1142 C 0.2929 0.64144 0.96972 0.0
C1143 C 0.31018 0.6285 0.95374 0.0
C1144 C 0.30837 0.64104 0.98938 0.0
C1145 C 0.34096 0.62738 0.99348 0.0
C1146 C 0.35724 0.61353 0.97793 0.0
C1147 C 0.34228 0.61428 0.95818 0.0
C1148 C 0.35793 0.62746 0.01411 0.0
C1149 C 0.35489 0.60607 0.0259 0.0
C1150 C 0.37436 0.64881 0.02265 0.0
C1151 C 0.37765 0.67217 0.01094 0.0
C1152 C 0.39522 0.67307 0.9916 0.0
C1153 C 0.3977 0.69513 0.98067 0.0
C1154 C 0.38307 0.71648 0.989 0.0
C1155 C 0.36594 0.71583 0.00829 0.0
C1156 C 0.3632 0.69381 0.01923 0.0
C1157 C 0.40774 0.61287 0.11079 0.0
C1158 C 0.3898 0.63211 0.121 0.0
C1159 C 0.40705 0.61175 0.08935 0.0
C1160 C 0.38794 0.62968 0.07789 0.0
C1161 C 0.37262 0.64974 0.08818 0.0
C1162 C 0.3737 0.65098 0.10942 0.0
C1163 C 0.38114 0.62733 0.05548 0.0
C1164 C 0.38654 0.64825 0.04308 0.0
C1165 C 0.36542 0.60579 0.04659 0.0
C1166 C 0.35639 0.58325 0.0585 0.0
C1167 C 0.33129 0.5838 0.07525 0.0
C1168 C 0.32156 0.56222 0.08574 0.0
C1169 C 0.33626 0.53991 0.07941 0.0
C1170 C 0.3608 0.53914 0.0626 0.0
C1171 C 0.37084 0.56069 0.05216 0.0
H1172 H 0.32847 0.52319 0.08746 0.0
H1173 H 0.38509 0.73354 0.98054 0.0
H1174 H 0.18882 0.92195 0.45421 0.0
H1175 H 0.15914 0.92509 0.48752 0.0
H1176 H 0.19111 0.85103 0.50174 0.0
H1177 H 0.21664 0.84662 0.4674 0.0
H1178 H 0.12476 0.85655 0.5152 0.0
H1179 H 0.23902 0.90859 0.5208 0.0
H1180 H 0.28122 0.94307 0.51043 0.0
H1181 H 0.18949 0.99309 0.51859 0.0
H1182 H 0.14673 0.95888 0.52889 0.0
H1183 H 0.13587 0.85564 0.62256 0.0
H1184 H 0.1407 0.85475 0.58532 0.0
H1185 H 0.0904 0.92616 0.58171 0.0
H1186 H 0.08587 0.92704 0.61926 0.0
H1187 H 0.15515 0.92577 0.5613 0.0
H1188 H 0.04367 0.87481 0.5601 0.0
H1189 H 1.00082 0.84071 0.5705 0.0
H1190 H 0.08646 0.78906 0.5544 0.0
H1191 H 0.12987 0.82285 0.54399 0.0
C1192 C 0.18895 0.90603 0.46413 0.0
C1193 C 0.205 0.88386 0.45771 0.0
C1194 C 0.17258 0.9081 0.48352 0.0
C1195 C 0.17335 0.88849 0.49749 0.0
C1196 C 0.19004 0.86652 0.49134 0.0
C1197 C 0.20531 0.86415 0.47168 0.0
C1198 C 0.15627 0.89049 0.51834 0.0
C1199 C 0.13184 0.87158 0.52533 0.0
C1200 C 0.16377 0.91064 0.53138 0.0
C1201 C 0.18965 0.93118 0.52543 0.0
C1202 C 0.22786 0.92694 0.5203 0.0
C1203 C 0.25186 0.94643 0.51446 0.0
C1204 C 0.23801 0.97024 0.5138 0.0
C1205 C 0.20017 0.97464 0.51909 0.0
C1206 C 0.17607 0.95522 0.52496 0.0
C1207 C 0.12482 0.8708 0.61375 0.0
C1208 C 0.11039 0.89135 0.62366 0.0
C1209 C 0.12742 0.87027 0.59245 0.0
C1210 C 0.11571 0.89033 0.5806 0.0
C1211 C 0.09947 0.91043 0.59049 0.0
C1212 C 0.09664 0.91088 0.61189 0.0
C1213 C 0.12501 0.89133 0.55838 0.0
C1214 C 0.1478 0.91086 0.55109 0.0
C1215 C 0.11605 0.87176 0.54508 0.0
C1216 C 0.09007 0.85138 0.55136 0.0
C1217 C 0.05343 0.85619 0.55889 0.0
C1218 C 0.02902 0.83691 0.56474 0.0
C1219 C 0.04093 0.81274 0.56314 0.0
C1220 C 0.07725 0.80779 0.55561 0.0
C1221 C 0.10172 0.82699 0.54968 0.0
H1222 H 0.02201 0.79785 0.5677 0.0
H1223 H 0.25662 0.9853 0.50924 0.0
H1224 H 0.16 0.31739 0.39566 0.0
H1225 H 0.12453 0.28733 0.37517 0.0
H1226 H 0.22188 0.28022 0.3354 0.0
H1227 H 0.25731 0.31043 0.35596 0.0
H1228 H 0.15513 0.27941 0.314 0.0
H1229 H 0.20666 0.23985 0.37354 0.0
H1230 H 0.21801 0.23199 0.4102 0.0
H1231 H 0.09793 0.22094 0.4199 0.0
H1232 H 0.08581 0.22909 0.38333 0.0
H1233 H 0.12517 0.15722 0.27769 0.0
H1234 H 0.15199 0.19176 0.29669 0.0
H1235 H 0.04123 0.20638 0.32187 0.0
H1236 H 0.01363 0.17273 0.302 0.0
H1237 H 0.11036 0.20433 0.35046 0.0
H1238 H 0.05941 0.24246 0.29044 0.0
H1239 H 0.04914 0.24824 0.25344 0.0
H1240 H 0.16916 0.26061 0.24463 0.0
H1241 H 0.18028 0.25429 0.28155 0.0
C1242 C 0.1733 0.30989 0.38217 0.0
C1243 C 0.21097 0.31627 0.37708 0.0
C1244 C 0.15324 0.29257 0.37064 0.0
C1245 C 0.17079 0.28128 0.35396 0.0
C1246 C 0.20785 0.2887 0.34823 0.0
C1247 C 0.22797 0.306 0.35984 0.0
C1248 C 0.15131 0.26089 0.34315 0.0
C1249 C 0.14566 0.26292 0.32196 0.0
C1250 C 0.13819 0.23956 0.35362 0.0
C1251 C 0.14529 0.23545 0.37574 0.0
C1252 C 0.18263 0.23608 0.38354 0.0
C1253 C 0.18921 0.23149 0.40429 0.0
C1254 C 0.1587 0.22606 0.41738 0.0
C1255 C 0.12153 0.22522 0.40975 0.0
C1256 C 0.11479 0.22983 0.38901 0.0
C1257 C 0.10639 0.16789 0.28703 0.0
C1258 C 0.06707 0.16266 0.28782 0.0
C1259 C 0.12181 0.18754 0.29797 0.0
C1260 C 0.09839 0.20172 0.31039 0.0
C1261 C 0.05958 0.19573 0.31217 0.0
C1262 C 0.04395 0.17653 0.3008 0.0
C1263 C 0.11458 0.22289 0.32144 0.0
C1264 C 0.11962 0.22095 0.34262 0.0
C1265 C 0.12719 0.24423 0.31099 0.0
C1266 C 0.12073 0.24762 0.28873 0.0
C1267 C 0.08369 0.24607 0.28058 0.0
C1268 C 0.07768 0.24955 0.25964 0.0
C1269 C 0.10846 0.25488 0.24672 0.0
C1270 C 0.14534 0.25658 0.25469 0.0
C1271 C 0.15151 0.253 0.27561 0.0
H1272 H 0.10376 0.2576 0.23051 0.0
H1273 H 0.16387 0.22243 0.43343 0.0
H1274 H 0.36937 0.17716 0.86695 0.0
H1275 H 0.39876 0.21086 0.84713 0.0
H1276 H 0.31148 0.25934 0.86828 0.0
H1277 H 0.28188 0.22551 0.88774 0.0
H1278 H 0.32396 0.26627 0.82909 0.0
H1279 H 0.40311 0.2605 0.88852 0.0
H1280 H 0.44426 0.23995 0.91366 0.0
H1281 H 0.5237 0.22283 0.8661 0.0
H1282 H 0.48278 0.24303 0.84062 0.0
H1283 H 0.41068 0.37516 0.79152 0.0
H1284 H 0.38243 0.34352 0.81362 0.0
H1285 H 0.47602 0.29594 0.80011 0.0
H1286 H 0.50556 0.32824 0.77916 0.0
H1287 H 0.4603 0.28938 0.83712 0.0
H1288 H 0.37504 0.2864 0.77759 0.0
H1289 H 0.32935 0.30117 0.75186 0.0
H1290 H 0.26213 0.33325 0.79928 0.0
H1291 H 0.30685 0.31786 0.82533 0.0
C1292 C 0.35617 0.19493 0.86695 0.0
C1293 C 0.32314 0.19882 0.87846 0.0
C1294 C 0.37324 0.21425 0.85592 0.0
C1295 C 0.35775 0.2378 0.85649 0.0
C1296 C 0.32405 0.2414 0.86764 0.0
C1297 C 0.30699 0.22208 0.87861 0.0
C1298 C 0.37595 0.25857 0.84509 0.0
C1299 C 0.35367 0.27153 0.8311 0.0
C1300 C 0.41494 0.26516 0.84732 0.0
C1301 C 0.43968 0.25308 0.86263 0.0
C1302 C 0.42921 0.25219 0.88339 0.0
C1303 C 0.45253 0.24064 0.89771 0.0
C1304 C 0.48652 0.23003 0.89147 0.0
C1305 C 0.49734 0.23103 0.87091 0.0
C1306 C 0.47411 0.24255 0.85653 0.0
C1307 C 0.42515 0.35792 0.79328 0.0
C1308 C 0.46018 0.35411 0.78352 0.0
C1309 C 0.4088 0.33969 0.80578 0.0
C1310 C 0.42639 0.31689 0.8082 0.0
C1311 C 0.46166 0.31324 0.79855 0.0
C1312 C 0.47851 0.33171 0.78649 0.0
C1313 C 0.40833 0.29691 0.82081 0.0
C1314 C 0.4306 0.28415 0.83512 0.0
C1315 C 0.36931 0.29032 0.81888 0.0
C1316 C 0.34432 0.30123 0.80328 0.0
C1317 C 0.35069 0.29681 0.78245 0.0
C1318 C 0.32481 0.30512 0.76786 0.0
C1319 C 0.29287 0.3182 0.77393 0.0
C1320 C 0.28681 0.32308 0.79461 0.0
C1321 C 0.31224 0.31442 0.80929 0.0
H1322 H 0.27269 0.3245 0.76264 0.0
H1323 H 0.50453 0.22109 0.90258 0.0
H1324 H 0.65407 0.18533 0.63039 0.0
H1325 H 0.62599 0.21733 0.65142 0.0
H1326 H 0.73462 0.25543 0.65325 0.0
H1327 H 0.76275 0.22317 0.63231 0.0
H1328 H 0.69885 0.25753 0.68989 0.0
H1329 H 0.66673 0.27329 0.6199 0.0
H1330 H 0.64079 0.26583 0.58542 0.0
H1331 H 0.52973 0.25209 0.61101 0.0
H1332 H 0.55511 0.25915 0.64568 0.0
H1333 H 0.62094 0.37357 0.71689 0.0
H1334 H 0.65407 0.34106 0.6986 0.0
H1335 H 0.5512 0.29674 0.69966 0.0
H1336 H 0.5187 0.32873 0.71852 0.0
H1337 H 0.5861 0.29931 0.66125 0.0
H1338 H 0.61902 0.28339 0.73143 0.0
H1339 H 0.64401 0.29497 0.7653 0.0
H1340 H 0.75334 0.3117 0.73871 0.0
H1341 H 0.72879 0.30058 0.70459 0.0
C1342 C 0.67206 0.20024 0.63576 0.0
C1343 C 0.71049 0.20182 0.63008 0.0
C1344 C 0.65597 0.21863 0.64755 0.0
C1345 C 0.67807 0.23898 0.65362 0.0
C1346 C 0.71705 0.23992 0.6487 0.0
C1347 C 0.73313 0.2215 0.63687 0.0
C1348 C 0.66008 0.25963 0.66438 0.0
C1349 C 0.67449 0.26685 0.6835 0.0
C1350 C 0.62798 0.27164 0.65618 0.0
C1351 C 0.61297 0.26642 0.63542 0.0
C1352 C 0.6369 0.26834 0.6182 0.0
C1353 C 0.62226 0.26427 0.59861 0.0
C1354 C 0.58367 0.2584 0.59603 0.0
C1355 C 0.55964 0.25657 0.61303 0.0
C1356 C 0.57414 0.2606 0.63265 0.0
C1357 C 0.60555 0.35686 0.71313 0.0
C1358 C 0.56701 0.35384 0.71847 0.0
C1359 C 0.6244 0.33837 0.70275 0.0
C1360 C 0.60495 0.31659 0.69773 0.0
C1361 C 0.56649 0.31357 0.70316 0.0
C1362 C 0.54776 0.33198 0.71362 0.0
C1363 C 0.62449 0.29685 0.68676 0.0
C1364 C 0.61044 0.2899 0.66759 0.0
C1365 C 0.65688 0.28521 0.69487 0.0
C1366 C 0.67198 0.29135 0.71543 0.0
C1367 C 0.64833 0.28968 0.73278 0.0
C1368 C 0.66241 0.29614 0.75203 0.0
C1369 C 0.70022 0.30409 0.75415 0.0
C1370 C 0.72405 0.30553 0.73704 0.0
C1371 C 0.71008 0.29913 0.71774 0.0
H1372 H 0.71107 0.30913 0.76906 0.0
H1373 H 0.57236 0.25535 0.58085 0.0
H1374 H 0.7675 0.29872 0.13398 0.0
H1375 H 0.79537 0.26631 0.15519 0.0
H1376 H 0.90471 0.30345 0.15214 0.0
H1377 H 0.8768 0.33568 0.13089 0.0
H1378 H 0.91116 0.25615 0.14248 0.0
H1379 H 0.85336 0.30158 0.19629 0.0
H1380 H 0.80138 0.322 0.21451 0.0
H1381 H 0.73938 0.2538 0.21902 0.0
H1382 H 0.79077 0.23304 0.20055 0.0
H1383 H 0.99218 0.19618 0.23465 0.0
H1384 H 0.96019 0.22777 0.21438 0.0
H1385 H 0.89234 0.17198 0.18471 0.0
H1386 H 0.92659 0.14018 0.20381 0.0
H1387 H 0.86449 0.22714 0.21021 0.0
H1388 H 0.9229 0.18291 0.15285 0.0
H1389 H 0.9773 0.16398 0.1356 0.0
H1390 H 0.03974 0.23208 0.13794 0.0
H1391 H 0.98617 0.25115 0.156 0.0
C1392 C 0.79721 0.3002 0.13836 0.0
C1393 C 0.82001 0.31975 0.13118 0.0
C1394 C 0.81317 0.28167 0.15038 0.0
C1395 C 0.8522 0.28242 0.1553 0.0
C1396 C 0.87461 0.30243 0.14854 0.0
C1397 C 0.85862 0.32094 0.13659 0.0
C1398 C 0.87017 0.26178 0.16651 0.0
C1399 C 0.90096 0.24992 0.15733 0.0
C1400 C 0.85671 0.25335 0.18577 0.0
C1401 C 0.82571 0.26581 0.19682 0.0
C1402 C 0.82847 0.29098 0.20099 0.0
C1403 C 0.79915 0.30261 0.2114 0.0
C1404 C 0.76704 0.28922 0.21786 0.0
C1405 C 0.76423 0.26416 0.21397 0.0
C1406 C 0.79346 0.25245 0.20354 0.0
C1407 C 0.97087 0.19071 0.22353 0.0
C1408 C 0.96237 0.16585 0.22032 0.0
C1409 C 0.95263 0.2087 0.21203 0.0
C1410 C 0.92458 0.20215 0.19772 0.0
C1411 C 0.9148 0.17734 0.19519 0.0
C1412 C 0.93421 0.15925 0.20609 0.0
C1413 C 0.90487 0.22147 0.18601 0.0
C1414 C 0.87415 0.23324 0.19522 0.0
C1415 C 0.91837 0.22983 0.16678 0.0
C1416 C 0.95092 0.21825 0.15634 0.0
C1417 C 0.94859 0.19367 0.15022 0.0
C1418 C 0.97921 0.18295 0.14018 0.0
C1419 C 0.01209 0.19677 0.13581 0.0
C1420 C 0.01438 0.22134 0.14148 0.0
C1421 C 0.98395 0.23208 0.15169 0.0
H1422 H 0.03566 0.18848 0.12791 0.0
H1423 H 0.74437 0.29826 0.22594 0.0
H1424 H 0.78371 0.73128 0.61244 0.0
H1425 H 0.80977 0.76444 0.63367 0.0
H1426 H 0.8857 0.71349 0.66266 0.0
H1427 H 0.85909 0.68033 0.64163 0.0
H1428 H 0.85743 0.74244 0.69034 0.0
H1429 H 0.91591 0.75455 0.62505 0.0
H1430 H 0.9194 0.76068 0.5877 0.0
H1431 H 0.85775 0.82751 0.59301 0.0
H1432 H 0.85335 0.82159 0.63038 0.0
H1433 H 0.99304 0.82966 0.72919 0.0
H1434 H 0.96341 0.79796 0.70793 0.0
H1435 H 0.86964 0.84554 0.69497 0.0
H1436 H 0.89866 0.87724 0.7168 0.0
H1437 H 0.90708 0.81949 0.65892 0.0
H1438 H 0.84092 0.80311 0.72321 0.0
H1439 H 0.83628 0.79592 0.76035 0.0
H1440 H 0.91697 0.73801 0.75611 0.0
H1441 H 0.92096 0.7443 0.7187 0.0
C1442 C 0.80554 0.72719 0.62361 0.0
C1443 C 0.81917 0.70333 0.62568 0.0
C1444 C 0.82076 0.74617 0.63555 0.0
C1445 C 0.85021 0.74163 0.6496 0.0
C1446 C 0.8631 0.71753 0.65195 0.0
C1447 C 0.84782 0.69857 0.64002 0.0
C1448 C 0.86737 0.76186 0.66197 0.0
C1449 C 0.86865 0.75911 0.68333 0.0
C1450 C 0.88157 0.78395 0.65303 0.0
C1451 C 0.88388 0.78745 0.63052 0.0
C1452 C 0.90274 0.77042 0.61824 0.0
C1453 C 0.90496 0.77389 0.59706 0.0
C1454 C 0.8887 0.79442 0.58798 0.0
C1455 C 0.87026 0.81157 0.60006 0.0
C1456 C 0.8679 0.80818 0.62125 0.0
C1457 C 0.96609 0.83341 0.72183 0.0
C1458 C 0.94817 0.85595 0.72467 0.0
C1459 C 0.9492 0.81526 0.7097 0.0
C1460 C 0.91441 0.81942 0.69981 0.0
C1461 C 0.89655 0.842 0.70243 0.0
C1462 C 0.91304 0.86001 0.71497 0.0
C1463 C 0.89666 0.79991 0.68706 0.0
C1464 C 0.89561 0.80277 0.66573 0.0
C1465 C 0.88294 0.77783 0.69589 0.0
C1466 C 0.88151 0.77432 0.7183 0.0
C1467 C 0.85786 0.78896 0.73025 0.0
C1468 C 0.85528 0.78502 0.75133 0.0
C1469 C 0.87676 0.76678 0.76068 0.0
C1470 C 0.90049 0.75221 0.74888 0.0
C1471 C 0.9027 0.75582 0.72771 0.0
H1472 H 0.8748 0.76384 0.77704 0.0
H1473 H 0.89048 0.79709 0.57158 0.0
H1474 H 0.71051 0.83123 0.15667 0.0
H1475 H 0.66773 0.80144 0.17361 0.0
H1476 H 0.65368 0.76293 0.11666 0.0
H1477 H 0.69618 0.79294 0.09969 0.0
H1478 H 0.58698 0.76195 0.14013 0.0
H1479 H 0.71907 0.74429 0.14778 0.0
H1480 H 0.78638 0.75303 0.15613 0.0
H1481 H 0.75565 0.76759 0.2184 0.0
H1482 H 0.68801 0.75934 0.21033 0.0
H1483 H 0.54193 0.64562 0.18893 0.0
H1484 H 0.56792 0.67871 0.16732 0.0
H1485 H 0.59096 0.72179 0.22108 0.0
H1486 H 0.56496 0.68904 0.24261 0.0
H1487 H 0.65257 0.71887 0.19678 0.0
H1488 H 0.51866 0.73561 0.18815 0.0
H1489 H 0.45228 0.7253 0.17883 0.0
H1490 H 0.48739 0.70988 0.1174 0.0
H1491 H 0.55411 0.71977 0.12644 0.0
C1492 C 0.69729 0.81682 0.14771 0.0
C1493 C 0.70628 0.81422 0.12698 0.0
C1494 C 0.67306 0.79978 0.15736 0.0
C1495 C 0.65799 0.77978 0.14644 0.0
C1496 C 0.66496 0.77821 0.12535 0.0
C1497 C 0.68918 0.7953 0.11569 0.0
C1498 C 0.63888 0.75921 0.15751 0.0
C1499 C 0.60134 0.75236 0.15241 0.0
C1500 C 0.65773 0.74663 0.17345 0.0
C1501 C 0.69842 0.75147 0.17839 0.0
C1502 C 0.72662 0.74957 0.16321 0.0
C1503 C 0.76484 0.75441 0.1679 0.0
C1504 C 0.77527 0.76094 0.18777 0.0
C1505 C 0.74751 0.76258 0.203 0.0
C1506 C 0.70923 0.75782 0.19838 0.0
C1507 C 0.55229 0.66223 0.19611 0.0
C1508 C 0.55214 0.66452 0.21754 0.0
C1509 C 0.56695 0.68116 0.18374 0.0
C1510 C 0.58141 0.70272 0.1926 0.0
C1511 C 0.58018 0.70526 0.21392 0.0
C1512 C 0.56552 0.68644 0.22624 0.0
C1513 C 0.60013 0.72211 0.17997 0.0
C1514 C 0.63798 0.72852 0.1846 0.0
C1515 C 0.5816 0.73399 0.16352 0.0
C1516 C 0.54146 0.72819 0.15804 0.0
C1517 C 0.51229 0.72983 0.1727 0.0
C1518 C 0.47459 0.72409 0.16746 0.0
C1519 C 0.46564 0.71686 0.14755 0.0
C1520 C 0.49437 0.71544 0.13282 0.0
C1521 C 0.53213 0.72113 0.13799 0.0
H1522 H 0.43644 0.71242 0.14353 0.0
H1523 H 0.80489 0.76467 0.19137 0.0
H1524 H 0.36391 0.83585 0.36753 0.0
H1525 H 0.39001 0.8038 0.34574 0.0
H1526 H 0.2928 0.75725 0.35967 0.0
H1527 H 0.26704 0.7893 0.38168 0.0
H1528 H 0.35843 0.73263 0.36378 0.0
H1529 H 0.30418 0.78488 0.31176 0.0
H1530 H 0.29466 0.82423 0.29394 0.0
H1531 H 0.41455 0.82985 0.28124 0.0
H1532 H 0.42482 0.79064 0.29915 0.0
H1533 H 0.40976 0.63865 0.29486 0.0
H1534 H 0.37618 0.67044 0.31362 0.0
H1535 H 0.45739 0.72452 0.29112 0.0
H1536 H 0.48813 0.69305 0.27077 0.0
H1537 H 0.39671 0.74516 0.29142 0.0
H1538 H 0.45405 0.69551 0.34394 0.0
H1539 H 0.46722 0.65738 0.36289 0.0
H1540 H 0.34813 0.64821 0.37651 0.0
H1541 H 0.33419 0.68613 0.35745 0.0
C1542 C 0.34779 0.81897 0.36552 0.0
C1543 C 0.31321 0.81512 0.3759 0.0
C1544 C 0.36272 0.80062 0.35312 0.0
C1545 C 0.34327 0.77807 0.35085 0.0
C1546 C 0.30834 0.77444 0.36109 0.0
C1547 C 0.29344 0.79282 0.37349 0.0
C1548 C 0.36005 0.75801 0.33848 0.0
C1549 C 0.36637 0.73524 0.34786 0.0
C1550 C 0.37154 0.76153 0.3179 0.0
C1551 C 0.36527 0.78492 0.3069 0.0
C1552 C 0.32852 0.79457 0.30525 0.0
C1553 C 0.32299 0.81684 0.29512 0.0
C1554 C 0.35398 0.82955 0.28649 0.0
C1555 C 0.39056 0.81999 0.28792 0.0
C1556 C 0.39624 0.79773 0.29803 0.0
C1557 C 0.42021 0.65739 0.29399 0.0
C1558 C 0.45176 0.66347 0.28169 0.0
C1559 C 0.40129 0.67558 0.30488 0.0
C1560 C 0.41471 0.70005 0.30448 0.0
C1561 C 0.44623 0.70595 0.29191 0.0
C1562 C 0.46406 0.68795 0.28036 0.0
C1563 C 0.39586 0.71962 0.31674 0.0
C1564 C 0.38898 0.74237 0.30734 0.0
C1565 C 0.38463 0.71621 0.33747 0.0
C1566 C 0.39305 0.69354 0.34911 0.0
C1567 C 0.43066 0.68529 0.3509 0.0
C1568 C 0.43826 0.66373 0.36166 0.0
C1569 C 0.40852 0.65036 0.37085 0.0
C1570 C 0.37113 0.65857 0.36936 0.0
C1571 C 0.36337 0.6801 0.3586 0.0
H1572 H 0.41445 0.63366 0.37917 0.0
H1573 H 0.34965 0.8468 0.27868 0.0
H1574 H 0.16981 0.68846 0.883 0.0
H1575 H 0.12702 0.71844 0.86706 0.0
H1576 H 0.22479 0.76213 0.84846 0.0
H1577 H 0.26705 0.73243 0.86437 0.0
H1578 H 0.17072 0.78996 0.86557 0.0
H1579 H 0.17595 0.7238 0.81596 0.0
H1580 H 0.16528 0.68163 0.80387 0.0
H1581 H 0.04554 0.68727 0.81612 0.0
H1582 H 0.05564 0.72932 0.8287 0.0
H1583 H 0.11094 0.87061 0.78799 0.0
H1584 H 0.14179 0.839 0.80854 0.0
H1585 H 0.03427 0.79988 0.81392 0.0
H1586 H 0.00471 0.83009 0.79169 0.0
H1587 H 0.08481 0.76911 0.8079 0.0
H1588 H 0.07616 0.83596 0.85388 0.0
H1589 H 0.08437 0.87846 0.86565 0.0
H1590 H 0.2059 0.87219 0.86158 0.0
H1591 H 0.19846 0.82979 0.84942 0.0
C1592 C 0.18189 0.70429 0.87515 0.0
C1593 C 0.22148 0.70809 0.87439 0.0
C1594 C 0.15757 0.72143 0.8662 0.0
C1595 C 0.17278 0.7425 0.85652 0.0
C1596 C 0.21244 0.74606 0.85586 0.0
C1597 C 0.23655 0.72899 0.8647 0.0
C1598 C 0.14804 0.76098 0.84679 0.0
C1599 C 0.15198 0.78547 0.8529 0.0
C1600 C 0.12247 0.75496 0.83083 0.0
C1601 C 0.11666 0.72955 0.82358 0.0
C1602 C 0.14743 0.71594 0.81633 0.0
C1603 C 0.14147 0.69207 0.80935 0.0
C1604 C 0.10478 0.68174 0.80931 0.0
C1605 C 0.07397 0.69526 0.81624 0.0
C1606 C 0.0798 0.71908 0.82332 0.0
C1607 C 0.09418 0.85503 0.79333 0.0
C1608 C 0.05528 0.85298 0.78867 0.0
C1609 C 0.11159 0.83722 0.8054 0.0
C1610 C 0.09012 0.81737 0.81335 0.0
C1611 C 0.05136 0.81517 0.80828 0.0
C1612 C 0.03424 0.83268 0.79589 0.0
C1613 C 0.10831 0.79833 0.8262 0.0
C1614 C 0.10299 0.77371 0.82077 0.0
C1615 C 0.13216 0.80424 0.84299 0.0
C1616 C 0.13672 0.82969 0.85058 0.0
C1617 C 0.10464 0.84367 0.85537 0.0
C1618 C 0.10916 0.86776 0.86211 0.0
C1619 C 0.14562 0.87803 0.86432 0.0
C1620 C 0.17766 0.86421 0.85984 0.0
C1621 C 0.17331 0.84014 0.85304 0.0
H1622 H 0.14906 0.89668 0.86953 0.0
H1623 H 0.10022 0.66329 0.80383 0.0
loop_
_geom_bond_atom_site_label_1
_geom_bond_atom_site_label_2
_geom_bond_distance
_geom_bond_site_symmetry_2
_ccdc_geom_bond_type
H0 C3 0.929 . S
H1 C6 0.929 . S
H2 C8 0.930 . S
C3 H0 0.929 . S
C3 C4 1.398 . S
C3 C5 1.396 . S
C4 C3 1.398 . S
C4 C8 1.407 . S
C5 C3 1.396 . S
C5 C6 1.394 . S
C6 H1 0.929 . S
C6 C5 1.394 . S
C6 C7 1.382 . S
C7 C6 1.382 . S
C7 C8 1.392 . S
C7 N9 1.420 . S
C8 H2 0.930 . S
C8 C4 1.407 . S
C8 C7 1.392 . S
N9 C7 1.420 . S
N9 C10 1.244 . S
C10 N9 1.244 . S
H11 C14 0.929 . S
H12 C17 0.929 . S
H13 C19 0.930 . S
C14 H11 0.929 . S
C14 C15 1.398 . S
C14 C16 1.396 . S
C15 C14 1.398 . S
C15 C19 1.407 . S
C16 C14 1.396 . S
C16 C17 1.394 . S
C17 H12 0.929 . S
C17 C16 1.394 . S
C17 C18 1.382 . S
C18 C17 1.382 . S
C18 C19 1.392 . S
C18 N20 1.420 . S
C19 H13 0.930 . S
C19 C15 1.407 . S
C19 C18 1.392 . S
N20 C18 1.420 . S
N20 C21 1.244 . S
C21 N20 1.244 . S
H22 C25 0.929 . S
H23 C28 0.929 . S
H24 C30 0.930 . S
C25 H22 0.929 . S
C25 C26 1.398 . S
C25 C27 1.396 . S
C26 C25 1.398 . S
C26 C30 1.407 . S
C27 C25 1.396 . S
C27 C28 1.394 . S
C28 H23 0.929 . S
C28 C27 1.394 . S
C28 C29 1.382 . S
C29 C28 1.382 . S
C29 C30 1.392 . S
C29 N31 1.420 . S
C30 H24 0.930 . S
C30 C26 1.407 . S
C30 C29 1.392 . S
N31 C29 1.420 . S
N31 C32 1.244 . S
C32 N31 1.244 . S
H33 C36 0.929 . S
H34 C39 0.929 . S
H35 C41 0.930 . S
C36 H33 0.929 . S
C36 C37 1.398 . S
C36 C38 1.396 . S
C37 C36 1.398 . S
C37 C41 1.407 . S
C38 C36 1.396 . S
C38 C39 1.394 . S
C39 H34 0.929 . S
C39 C38 1.394 . S
C39 C40 1.382 . S
C40 C39 1.382 . S
C40 C41 1.392 . S
C40 N42 1.420 . S
C41 H35 0.930 . S
C41 C37 1.407 . S
C41 C40 1.392 . S
N42 C40 1.420 . S
N42 C43 1.244 . S
C43 N42 1.244 . S
H44 C47 0.929 . S
H45 C50 0.929 . S
H46 C52 0.930 . S
C47 H44 0.929 . S
C47 C48 1.398 . S
C47 C49 1.396 . S
C48 C47 1.398 . S
C48 C52 1.407 . S
C49 C47 1.396 . S
C49 C50 1.394 . S
C50 H45 0.929 . S
C50 C49 1.394 . S
C50 C51 1.382 . S
C51 C50 1.382 . S
C51 C52 1.392 . S
C51 N53 1.420 . S
C52 H46 0.930 . S
C52 C48 1.407 . S
C52 C51 1.392 . S
N53 C51 1.420 . S
N53 C54 1.244 . S
C54 N53 1.244 . S
H55 C58 0.929 . S
H56 C61 0.929 . S
H57 C63 0.930 . S
C58 H55 0.929 . S
C58 C59 1.398 . S
C58 C60 1.396 . S
C59 C58 1.398 . S
C59 C63 1.407 . S
C60 C58 1.396 . S
C60 C61 1.394 . S
C61 H56 0.929 . S
C61 C60 1.394 . S
C61 C62 1.382 . S
C62 C61 1.382 . S
C62 C63 1.392 . S
C62 N64 1.420 . S
C63 H57 0.930 . S
C63 C59 1.407 . S
C63 C62 1.392 . S
N64 C62 1.420 . S
N64 C65 1.244 . S
C65 N64 1.244 . S
H66 C69 0.929 . S
H67 C72 0.929 . S
H68 C74 0.930 . S
C69 H66 0.929 . S
C69 C70 1.398 . S
C69 C71 1.396 . S
C70 C69 1.398 . S
C70 C74 1.407 . S
C71 C69 1.396 . S
C71 C72 1.394 . S
C72 H67 0.929 . S
C72 C71 1.394 . S
C72 C73 1.382 . S
C73 C72 1.382 . S
C73 C74 1.392 . S
C73 N75 1.420 . S
C74 H68 0.930 . S
C74 C70 1.407 . S
C74 C73 1.392 . S
N75 C73 1.420 . S
N75 C76 1.244 . S
C76 N75 1.244 . S
H77 C80 0.929 . S
H78 C83 0.929 . S
H79 C85 0.930 . S
C80 H77 0.929 . S
C80 C81 1.398 . S
C80 C82 1.396 . S
C81 C80 1.398 . S
C81 C85 1.407 . S
C82 C80 1.396 . S
C82 C83 1.394 . S
C83 H78 0.929 . S
C83 C82 1.394 . S
C83 C84 1.382 . S
C84 C83 1.382 . S
C84 C85 1.392 . S
C84 N86 1.420 . S
C85 H79 0.930 . S
C85 C81 1.407 . S
C85 C84 1.392 . S
N86 C84 1.420 . S
N86 C87 1.244 . S
C87 N86 1.244 . S
Eu88 N117 2.600 . S
Eu88 N123 2.562 . S
Eu88 O132 2.462 . S
Eu88 O133 2.373 . S
Eu88 O135 2.432 . S
Eu88 O136 2.291 . S
Eu88 O140 2.335 . S
Eu88 O143 2.372 . S
Eu88 C152 2.787 . S
C89 N90 1.365 . S
C89 C92 1.405 . S
C89 C96 1.448 . S
N90 C89 1.365 . S
N90 C93 1.319 . S
N90 Eu99 2.600 . S
C91 C93 1.397 . S
C91 C94 1.367 . S
C91 H111 0.931 . S
C92 C89 1.405 . S
C92 C94 1.403 . S
C92 C98 1.439 . S
C93 N90 1.319 . S
C93 C91 1.397 . S
C93 H104 0.930 . S
C94 C91 1.367 . S
C94 C92 1.403 . S
C94 H115 0.929 . S
C95 C96 1.430 . S
C95 C97 1.387 . S
C95 C101 1.404 . S
C96 C89 1.448 . S
C96 C95 1.430 . S
C96 N100 1.351 . S
C97 C95 1.387 . S
C97 C98 1.374 . S
C97 H112 0.931 . S
C98 C92 1.439 . S
C98 C97 1.374 . S
C98 H113 0.931 . S
Eu99 N90 2.600 . S
Eu99 N100 2.562 . S
Eu99 O134 2.335 1_655 S
Eu99 O137 2.372 . S
Eu99 O138 2.462 . S
Eu99 O139 2.373 . S
Eu99 O141 2.432 . S
Eu99 O142 2.291 1_655 S
Eu99 C163 2.787 . S
N100 C96 1.351 . S
N100 Eu99 2.562 . S
N100 C102 1.325 . S
C101 C95 1.404 . S
C101 C103 1.366 . S
C101 H109 0.930 . S
C102 N100 1.325 . S
C102 C103 1.416 . S
C102 H108 0.929 . S
C103 C101 1.366 . S
C103 C102 1.416 . S
C103 H105 0.930 . S
H104 C93 0.930 . S
H105 C103 0.930 . S
H106 C121 0.930 . S
H107 C128 0.930 . S
H108 C102 0.929 . S
H109 C101 0.930 . S
H110 C124 0.929 . S
H111 C91 0.931 . S
H112 C97 0.931 . S
H113 C98 0.931 . S
H114 C119 0.931 . S
H115 C94 0.929 . S
H116 C127 0.930 . S
N117 Eu88 2.600 . S
N117 C118 1.365 . S
N117 C121 1.319 . S
C118 N117 1.365 . S
C118 C120 1.405 . S
C118 C126 1.448 . S
C119 H114 0.931 . S
C119 C121 1.397 . S
C119 C122 1.367 . S
C120 C118 1.405 . S
C120 C122 1.403 . S
C120 C153 1.439 . S
C121 H106 0.930 . S
C121 N117 1.319 . S
C121 C119 1.397 . S
C122 C119 1.367 . S
C122 C120 1.403 . S
C122 H129 0.929 . S
N123 Eu88 2.562 . S
N123 C124 1.325 . S
N123 C126 1.351 . S
C124 H110 0.929 . S
C124 N123 1.325 . S
C124 C128 1.416 . S
C125 C126 1.430 . S
C125 C127 1.404 . S
C125 C154 1.387 . S
C126 C118 1.448 . S
C126 N123 1.351 . S
C126 C125 1.430 . S
C127 H116 0.930 . S
C127 C125 1.404 . S
C127 C128 1.366 . S
C128 H107 0.930 . S
C128 C124 1.416 . S
C128 C127 1.366 . S
H129 C122 0.929 . S
H130 C153 0.931 . S
H131 C154 0.931 . S
O132 Eu88 2.462 . S
O132 C152 1.252 . S
O133 Eu88 2.373 . S
O133 C144 1.249 . S
O134 Eu99 2.335 1_455 S
O134 C144 1.264 . S
O135 Eu88 2.432 . S
O135 C152 1.268 . S
O136 Eu88 2.291 . S
O136 C151 1.255 1_455 S
O137 Eu99 2.372 . S
O137 C151 1.257 . S
O138 Eu99 2.462 . S
O138 C163 1.252 . S
O139 Eu99 2.373 . S
O139 C155 1.249 . S
O140 Eu88 2.335 . S
O140 C155 1.264 1_455 S
O141 Eu99 2.432 . S
O141 C163 1.268 . S
O142 Eu99 2.291 1_455 S
O142 C162 1.255 . S
O143 Eu88 2.372 . S
O143 C162 1.257 . S
C144 O133 1.249 . S
C144 O134 1.264 . S
C145 C148 1.382 . S
C145 C150 1.390 . S
C145 C152 1.506 . S
C146 C147 1.398 . S
C146 C150 1.392 . S
C147 C146 1.398 . S
C147 C149 1.372 . S
C147 H164 0.931 . S
C148 C145 1.382 . S
C148 C149 1.390 . S
C148 H165 0.931 . S
C149 C147 1.372 . S
C149 C148 1.390 . S
C149 H166 0.929 . S
C150 C145 1.390 . S
C150 C146 1.392 . S
C150 H167 0.930 . S
C151 O136 1.255 1_655 S
C151 O137 1.257 . S
C152 Eu88 2.787 . S
C152 O132 1.252 . S
C152 O135 1.268 . S
C152 C145 1.506 . S
C153 C120 1.439 . S
C153 H130 0.931 . S
C153 C154 1.374 . S
C154 C125 1.387 . S
C154 H131 0.931 . S
C154 C153 1.374 . S
C155 O139 1.249 . S
C155 O140 1.264 1_655 S
C156 C159 1.382 . S
C156 C160 1.390 . S
C156 C163 1.506 . S
C157 C158 1.398 . S
C157 C160 1.392 . S
C158 C157 1.398 . S
C158 C161 1.372 . S
C158 H168 0.931 . S
C159 C156 1.382 . S
C159 C161 1.390 . S
C159 H169 0.931 . S
C160 C156 1.390 . S
C160 C157 1.392 . S
C160 H170 0.930 . S
C161 C158 1.372 . S
C161 C159 1.390 . S
C161 H171 0.929 . S
C162 O142 1.255 . S
C162 O143 1.257 . S
C163 Eu99 2.787 . S
C163 O138 1.252 . S
C163 O141 1.268 . S
C163 C156 1.506 . S
H164 C147 0.931 . S
H165 C148 0.931 . S
H166 C149 0.929 . S
H167 C150 0.930 . S
H168 C158 0.931 . S
H169 C159 0.931 . S
H170 C160 0.930 . S
H171 C161 0.929 . S
Eu172 N201 2.600 . S
Eu172 N207 2.562 . S
Eu172 O216 2.462 . S
Eu172 O217 2.373 . S
Eu172 O219 2.432 . S
Eu172 O220 2.291 . S
Eu172 O224 2.335 . S
Eu172 O227 2.372 . S
Eu172 C236 2.787 . S
C173 N174 1.365 . S
C173 C176 1.405 . S
C173 C180 1.448 . S
N174 C173 1.365 . S
N174 C177 1.319 . S
N174 Eu183 2.600 . S
C175 C177 1.397 . S
C175 C178 1.367 . S
C175 H195 0.931 . S
C176 C173 1.405 . S
C176 C178 1.403 . S
C176 C182 1.439 . S
C177 N174 1.319 . S
C177 C175 1.397 . S
C177 H188 0.930 . S
C178 C175 1.367 . S
C178 C176 1.403 . S
C178 H199 0.929 . S
C179 C180 1.430 . S
C179 C181 1.387 . S
C179 C185 1.404 . S
C180 C173 1.448 . S
C180 C179 1.430 . S
C180 N184 1.351 . S
C181 C179 1.387 . S
C181 C182 1.374 . S
C181 H196 0.931 . S
C182 C176 1.439 . S
C182 C181 1.374 . S
C182 H197 0.931 . S
Eu183 N174 2.600 . S
Eu183 N184 2.562 . S
Eu183 O218 2.335 . S
Eu183 O221 2.372 . S
Eu183 O222 2.462 . S
Eu183 O223 2.373 . S
Eu183 O225 2.432 . S
Eu183 O226 2.291 . S
Eu183 C247 2.787 . S
N184 C180 1.351 . S
N184 Eu183 2.562 . S
N184 C186 1.325 . S
C185 C179 1.404 . S
C185 C187 1.366 . S
C185 H193 0.930 . S
C186 N184 1.325 . S
C186 C187 1.416 . S
C186 H192 0.929 . S
C187 C185 1.366 . S
C187 C186 1.416 . S
C187 H189 0.930 . S
H188 C177 0.930 . S
H189 C187 0.930 . S
H190 C205 0.930 . S
H191 C212 0.930 . S
H192 C186 0.929 . S
H193 C185 0.930 . S
H194 C208 0.929 . S
H195 C175 0.931 . S
H196 C181 0.931 . S
H197 C182 0.931 . S
H198 C203 0.931 . S
H199 C178 0.929 . S
H200 C211 0.930 . S
N201 Eu172 2.600 . S
N201 C202 1.365 . S
N201 C205 1.319 . S
C202 N201 1.365 . S
C202 C204 1.405 . S
C202 C210 1.448 . S
C203 H198 0.931 . S
C203 C205 1.397 . S
C203 C206 1.367 . S
C204 C202 1.405 . S
C204 C206 1.403 . S
C204 C237 1.439 . S
C205 H190 0.930 . S
C205 N201 1.319 . S
C205 C203 1.397 . S
C206 C203 1.367 . S
C206 C204 1.403 . S
C206 H213 0.929 . S
N207 Eu172 2.562 . S
N207 C208 1.325 . S
N207 C210 1.351 . S
C208 H194 0.929 . S
C208 N207 1.325 . S
C208 C212 1.416 . S
C209 C210 1.430 . S
C209 C211 1.404 . S
C209 C238 1.387 . S
C210 C202 1.448 . S
C210 N207 1.351 . S
C210 C209 1.430 . S
C211 H200 0.930 . S
C211 C209 1.404 . S
C211 C212 1.366 . S
C212 H191 0.930 . S
C212 C208 1.416 . S
C212 C211 1.366 . S
H213 C206 0.929 . S
H214 C237 0.931 . S
H215 C238 0.931 . S
O216 Eu172 2.462 . S
O216 C236 1.252 . S
O217 Eu172 2.373 . S
O217 C228 1.249 . S
O218 Eu183 2.335 . S
O218 C228 1.264 . S
O219 Eu172 2.432 . S
O219 C236 1.268 . S
O220 Eu172 2.291 . S
O220 C235 1.255 . S
O221 Eu183 2.372 . S
O221 C235 1.257 . S
O222 Eu183 2.462 . S
O222 C247 1.252 . S
O223 Eu183 2.373 . S
O223 C239 1.249 . S
O224 Eu172 2.335 . S
O224 C239 1.264 . S
O225 Eu183 2.432 . S
O225 C247 1.268 . S
O226 Eu183 2.291 . S
O226 C246 1.255 . S
O227 Eu172 2.372 . S
O227 C246 1.257 . S
C228 O217 1.249 . S
C228 O218 1.264 . S
C229 C232 1.382 . S
C229 C234 1.390 . S
C229 C236 1.506 . S
C230 C231 1.398 . S
C230 C234 1.392 . S
C231 C230 1.398 . S
C231 C233 1.372 . S
C231 H248 0.931 . S
C232 C229 1.382 . S
C232 C233 1.390 . S
C232 H249 0.931 . S
C233 C231 1.372 . S
C233 C232 1.390 . S
C233 H250 0.929 . S
C234 C229 1.390 . S
C234 C230 1.392 . S
C234 H251 0.930 . S
C235 O220 1.255 . S
C235 O221 1.257 . S
C236 Eu172 2.787 . S
C236 O216 1.252 . S
C236 O219 1.268 . S
C236 C229 1.506 . S
C237 C204 1.439 . S
C237 H214 0.931 . S
C237 C238 1.374 . S
C238 C209 1.387 . S
C238 H215 0.931 . S
C238 C237 1.374 . S
C239 O223 1.249 . S
C239 O224 1.264 . S
C240 C243 1.382 . S
C240 C244 1.390 . S
C240 C247 1.506 . S
C241 C242 1.398 . S
C241 C244 1.392 . S
C242 C241 1.398 . S
C242 C245 1.372 . S
C242 H252 0.931 . S
C243 C240 1.382 . S
C243 C245 1.390 . S
C243 H253 0.931 . S
C244 C240 1.390 . S
C244 C241 1.392 . S
C244 H254 0.930 . S
C245 C242 1.372 . S
C245 C243 1.390 . S
C245 H255 0.929 . S
C246 O226 1.255 . S
C246 O227 1.257 . S
C247 Eu183 2.787 . S
C247 O222 1.252 . S
C247 O225 1.268 . S
C247 C240 1.506 . S
H248 C231 0.931 . S
H249 C232 0.931 . S
H250 C233 0.929 . S
H251 C234 0.930 . S
H252 C242 0.931 . S
H253 C243 0.931 . S
H254 C244 0.930 . S
H255 C245 0.929 . S
Eu256 N285 2.600 . S
Eu256 N291 2.562 . S
Eu256 O300 2.462 . S
Eu256 O301 2.373 . S
Eu256 O303 2.432 . S
Eu256 O304 2.291 . S
Eu256 O308 2.335 . S
Eu256 O311 2.372 . S
Eu256 C320 2.787 . S
C257 N258 1.365 . S
C257 C260 1.405 . S
C257 C264 1.448 . S
N258 C257 1.365 . S
N258 C261 1.319 . S
N258 Eu267 2.600 . S
C259 C261 1.397 . S
C259 C262 1.367 . S
C259 H279 0.931 . S
C260 C257 1.405 . S
C260 C262 1.403 . S
C260 C266 1.439 . S
C261 N258 1.319 . S
C261 C259 1.397 . S
C261 H272 0.930 . S
C262 C259 1.367 . S
C262 C260 1.403 . S
C262 H283 0.929 . S
C263 C264 1.430 . S
C263 C265 1.387 . S
C263 C269 1.404 . S
C264 C257 1.448 . S
C264 C263 1.430 . S
C264 N268 1.351 . S
C265 C263 1.387 . S
C265 C266 1.374 . S
C265 H280 0.931 . S
C266 C260 1.439 . S
C266 C265 1.374 . S
C266 H281 0.931 . S
Eu267 N258 2.600 . S
Eu267 N268 2.562 . S
Eu267 O302 2.335 1_655 S
Eu267 O305 2.372 . S
Eu267 O306 2.462 . S
Eu267 O307 2.373 . S
Eu267 O309 2.432 . S
Eu267 O310 2.291 1_655 S
Eu267 C331 2.787 . S
N268 C264 1.351 . S
N268 Eu267 2.562 . S
N268 C270 1.325 . S
C269 C263 1.404 . S
C269 C271 1.366 . S
C269 H277 0.930 . S
C270 N268 1.325 . S
C270 C271 1.416 . S
C270 H276 0.929 . S
C271 C269 1.366 . S
C271 C270 1.416 . S
C271 H273 0.930 . S
H272 C261 0.930 . S
H273 C271 0.930 . S
H274 C289 0.930 . S
H275 C296 0.930 . S
H276 C270 0.929 . S
H277 C269 0.930 . S
H278 C292 0.929 . S
H279 C259 0.931 . S
H280 C265 0.931 . S
H281 C266 0.931 . S
H282 C287 0.931 . S
H283 C262 0.929 . S
H284 C295 0.930 . S
N285 Eu256 2.600 . S
N285 C286 1.365 . S
N285 C289 1.319 . S
C286 N285 1.365 . S
C286 C288 1.405 . S
C286 C294 1.448 . S
C287 H282 0.931 . S
C287 C289 1.397 . S
C287 C290 1.367 . S
C288 C286 1.405 . S
C288 C290 1.403 . S
C288 C321 1.439 . S
C289 H274 0.930 . S
C289 N285 1.319 . S
C289 C287 1.397 . S
C290 C287 1.367 . S
C290 C288 1.403 . S
C290 H297 0.929 . S
N291 Eu256 2.562 . S
N291 C292 1.325 . S
N291 C294 1.351 . S
C292 H278 0.929 . S
C292 N291 1.325 . S
C292 C296 1.416 . S
C293 C294 1.430 . S
C293 C295 1.404 . S
C293 C322 1.387 . S
C294 C286 1.448 . S
C294 N291 1.351 . S
C294 C293 1.430 . S
C295 H284 0.930 . S
C295 C293 1.404 . S
C295 C296 1.366 . S
C296 H275 0.930 . S
C296 C292 1.416 . S
C296 C295 1.366 . S
H297 C290 0.929 . S
H298 C321 0.931 . S
H299 C322 0.931 . S
O300 Eu256 2.462 . S
O300 C320 1.252 . S
O301 Eu256 2.373 . S
O301 C312 1.249 . S
O302 Eu267 2.335 1_455 S
O302 C312 1.264 . S
O303 Eu256 2.432 . S
O303 C320 1.268 . S
O304 Eu256 2.291 . S
O304 C319 1.255 1_455 S
O305 Eu267 2.372 . S
O305 C319 1.257 . S
O306 Eu267 2.462 . S
O306 C331 1.252 . S
O307 Eu267 2.373 . S
O307 C323 1.249 . S
O308 Eu256 2.335 . S
O308 C323 1.264 1_455 S
O309 Eu267 2.432 . S
O309 C331 1.268 . S
O310 Eu267 2.291 1_455 S
O310 C330 1.255 . S
O311 Eu256 2.372 . S
O311 C330 1.257 . S
C312 O301 1.249 . S
C312 O302 1.264 . S
C313 C316 1.382 . S
C313 C318 1.390 . S
C313 C320 1.506 . S
C314 C315 1.398 . S
C314 C318 1.392 . S
C315 C314 1.398 . S
C315 C317 1.372 . S
C315 H332 0.931 . S
C316 C313 1.382 . S
C316 C317 1.390 . S
C316 H333 0.931 . S
C317 C315 1.372 . S
C317 C316 1.390 . S
C317 H334 0.929 . S
C318 C313 1.390 . S
C318 C314 1.392 . S
C318 H335 0.930 . S
C319 O304 1.255 1_655 S
C319 O305 1.257 . S
C320 Eu256 2.787 . S
C320 O300 1.252 . S
C320 O303 1.268 . S
C320 C313 1.506 . S
C321 C288 1.439 . S
C321 H298 0.931 . S
C321 C322 1.374 . S
C322 C293 1.387 . S
C322 H299 0.931 . S
C322 C321 1.374 . S
C323 O307 1.249 . S
C323 O308 1.264 1_655 S
C324 C327 1.382 . S
C324 C328 1.390 . S
C324 C331 1.506 . S
C325 C326 1.398 . S
C325 C328 1.392 . S
C326 C325 1.398 . S
C326 C329 1.372 . S
C326 H336 0.931 . S
C327 C324 1.382 . S
C327 C329 1.390 . S
C327 H337 0.931 . S
C328 C324 1.390 . S
C328 C325 1.392 . S
C328 H338 0.930 . S
C329 C326 1.372 . S
C329 C327 1.390 . S
C329 H339 0.929 . S
C330 O310 1.255 . S
C330 O311 1.257 . S
C331 Eu267 2.787 . S
C331 O306 1.252 . S
C331 O309 1.268 . S
C331 C324 1.506 . S
H332 C315 0.931 . S
H333 C316 0.931 . S
H334 C317 0.929 . S
H335 C318 0.930 . S
H336 C326 0.931 . S
H337 C327 0.931 . S
H338 C328 0.930 . S
H339 C329 0.929 . S
Eu340 N369 2.600 . S
Eu340 N375 2.562 . S
Eu340 O384 2.462 . S
Eu340 O385 2.373 . S
Eu340 O387 2.432 . S
Eu340 O388 2.291 . S
Eu340 O392 2.335 . S
Eu340 O395 2.372 . S
Eu340 C404 2.787 . S
C341 N342 1.365 . S
C341 C344 1.405 . S
C341 C348 1.448 . S
N342 C341 1.365 . S
N342 C345 1.319 . S
N342 Eu351 2.600 . S
C343 C345 1.397 . S
C343 C346 1.367 . S
C343 H363 0.931 . S
C344 C341 1.405 . S
C344 C346 1.403 . S
C344 C350 1.439 . S
C345 N342 1.319 . S
C345 C343 1.397 . S
C345 H356 0.930 . S
C346 C343 1.367 . S
C346 C344 1.403 . S
C346 H367 0.929 . S
C347 C348 1.430 . S
C347 C349 1.387 . S
C347 C353 1.404 . S
C348 C341 1.448 . S
C348 C347 1.430 . S
C348 N352 1.351 . S
C349 C347 1.387 . S
C349 C350 1.374 . S
C349 H364 0.931 . S
C350 C344 1.439 . S
C350 C349 1.374 . S
C350 H365 0.931 . S
Eu351 N342 2.600 . S
Eu351 N352 2.562 . S
Eu351 O386 2.335 . S
Eu351 O389 2.372 . S
Eu351 O390 2.462 . S
Eu351 O391 2.373 . S
Eu351 O393 2.432 . S
Eu351 O394 2.291 . S
Eu351 C415 2.787 . S
N352 C348 1.351 . S
N352 Eu351 2.562 . S
N352 C354 1.325 . S
C353 C347 1.404 . S
C353 C355 1.366 . S
C353 H361 0.930 . S
C354 N352 1.325 . S
C354 C355 1.416 . S
C354 H360 0.929 . S
C355 C353 1.366 . S
C355 C354 1.416 . S
C355 H357 0.930 . S
H356 C345 0.930 . S
H357 C355 0.930 . S
H358 C373 0.930 . S
H359 C380 0.930 . S
H360 C354 0.929 . S
H361 C353 0.930 . S
H362 C376 0.929 . S
H363 C343 0.931 . S
H364 C349 0.931 . S
H365 C350 0.931 . S
H366 C371 0.931 . S
H367 C346 0.929 . S
H368 C379 0.930 . S
N369 Eu340 2.600 . S
N369 C370 1.365 . S
N369 C373 1.319 . S
C370 N369 1.365 . S
C370 C372 1.405 . S
C370 C378 1.448 . S
C371 H366 0.931 . S
C371 C373 1.397 . S
C371 C374 1.367 . S
C372 C370 1.405 . S
C372 C374 1.403 . S
C372 C405 1.439 . S
C373 H358 0.930 . S
C373 N369 1.319 . S
C373 C371 1.397 . S
C374 C371 1.367 . S
C374 C372 1.403 . S
C374 H381 0.929 . S
N375 Eu340 2.562 . S
N375 C376 1.325 . S
N375 C378 1.351 . S
C376 H362 0.929 . S
C376 N375 1.325 . S
C376 C380 1.416 . S
C377 C378 1.430 . S
C377 C379 1.404 . S
C377 C406 1.387 . S
C378 C370 1.448 . S
C378 N375 1.351 . S
C378 C377 1.430 . S
C379 H368 0.930 . S
C379 C377 1.404 . S
C379 C380 1.366 . S
C380 H359 0.930 . S
C380 C376 1.416 . S
C380 C379 1.366 . S
H381 C374 0.929 . S
H382 C405 0.931 . S
H383 C406 0.931 . S
O384 Eu340 2.462 . S
O384 C404 1.252 . S
O385 Eu340 2.373 . S
O385 C396 1.249 . S
O386 Eu351 2.335 . S
O386 C396 1.264 . S
O387 Eu340 2.432 . S
O387 C404 1.268 . S
O388 Eu340 2.291 . S
O388 C403 1.255 . S
O389 Eu351 2.372 . S
O389 C403 1.257 . S
O390 Eu351 2.462 . S
O390 C415 1.252 . S
O391 Eu351 2.373 . S
O391 C407 1.249 . S
O392 Eu340 2.335 . S
O392 C407 1.264 . S
O393 Eu351 2.432 . S
O393 C415 1.268 . S
O394 Eu351 2.291 . S
O394 C414 1.255 . S
O395 Eu340 2.372 . S
O395 C414 1.257 . S
C396 O385 1.249 . S
C396 O386 1.264 . S
C397 C400 1.382 . S
C397 C402 1.390 . S
C397 C404 1.506 . S
C398 C399 1.398 . S
C398 C402 1.392 . S
C399 C398 1.398 . S
C399 C401 1.372 . S
C399 H416 0.931 . S
C400 C397 1.382 . S
C400 C401 1.390 . S
C400 H417 0.931 . S
C401 C399 1.372 . S
C401 C400 1.390 . S
C401 H418 0.929 . S
C402 C397 1.390 . S
C402 C398 1.392 . S
C402 H419 0.930 . S
C403 O388 1.255 . S
C403 O389 1.257 . S
C404 Eu340 2.787 . S
C404 O384 1.252 . S
C404 O387 1.268 . S
C404 C397 1.506 . S
C405 C372 1.439 . S
C405 H382 0.931 . S
C405 C406 1.374 . S
C406 C377 1.387 . S
C406 H383 0.931 . S
C406 C405 1.374 . S
C407 O391 1.249 . S
C407 O392 1.264 . S
C408 C411 1.382 . S
C408 C412 1.390 . S
C408 C415 1.506 . S
C409 C410 1.398 . S
C409 C412 1.392 . S
C410 C409 1.398 . S
C410 C413 1.372 . S
C410 H420 0.931 . S
C411 C408 1.382 . S
C411 C413 1.390 . S
C411 H421 0.931 . S
C412 C408 1.390 . S
C412 C409 1.392 . S
C412 H422 0.930 . S
C413 C410 1.372 . S
C413 C411 1.390 . S
C413 H423 0.929 . S
C414 O394 1.255 . S
C414 O395 1.257 . S
C415 Eu351 2.787 . S
C415 O390 1.252 . S
C415 O393 1.268 . S
C415 C408 1.506 . S
H416 C399 0.931 . S
H417 C400 0.931 . S
H418 C401 0.929 . S
H419 C402 0.930 . S
H420 C410 0.931 . S
H421 C411 0.931 . S
H422 C412 0.930 . S
H423 C413 0.929 . S
H424 C442 0.951 . S
H425 C444 0.951 . S
H426 C446 0.950 . S
H427 C447 0.950 . S
H428 C449 0.950 . S
H429 C452 0.950 . S
H430 C453 0.950 . S
H431 C455 0.950 . S
H432 C456 0.950 . S
H433 C457 0.951 . S
H434 C459 0.951 . S
H435 C461 0.950 . S
H436 C462 0.950 . S
H437 C464 0.988 . S
H438 C467 0.950 . S
H439 C468 0.950 . S
H440 C470 0.950 1_655 S
H441 C471 0.950 . S
C442 H424 0.951 . S
C442 C443 1.366 . S
C442 C444 1.388 . S
C443 C442 1.366 . S
C443 C447 1.385 . S
C444 H425 0.951 . S
C444 C442 1.388 . S
C444 C445 1.366 . S
C445 C444 1.366 . S
C445 C446 1.414 . S
C445 C448 1.499 . S
C446 H426 0.950 . S
C446 C445 1.414 . S
C446 C447 1.374 . S
C447 H427 0.950 . S
C447 C443 1.385 . S
C447 C446 1.374 . S
C448 C445 1.499 . S
C448 C449 1.373 . S
C448 C450 1.389 . S
C449 H428 0.950 . S
C449 C448 1.373 . S
C449 C465 1.377 . S
C450 C448 1.389 . S
C450 C451 1.524 . S
C450 C464 1.349 1_565 S
C451 C450 1.524 . S
C451 C452 1.397 . S
C451 C456 1.363 1_565 S
C452 H429 0.950 . S
C452 C451 1.397 . S
C452 C453 1.334 . S
C453 H430 0.950 . S
C453 C452 1.334 . S
C453 C454 1.287 1_565 S
C454 C453 1.287 1_545 S
C454 C455 1.524 . S
C454 H473 0.913 . S
C455 H431 0.950 . S
C455 C454 1.524 . S
C455 C456 1.415 . S
C456 H432 0.950 . S
C456 C451 1.363 1_545 S
C456 C455 1.415 . S
C457 H433 0.951 . S
C457 C458 1.366 . S
C457 C459 1.388 . S
C458 C457 1.366 . S
C458 C462 1.385 . S
C459 H434 0.951 . S
C459 C457 1.388 . S
C459 C460 1.366 . S
C460 C459 1.366 . S
C460 C461 1.414 . S
C460 C463 1.499 1_545 S
C461 H435 0.950 . S
C461 C460 1.414 . S
C461 C462 1.374 . S
C462 H436 0.950 . S
C462 C458 1.385 . S
C462 C461 1.374 . S
C463 C460 1.499 1_565 S
C463 C464 1.364 1_565 S
C463 C465 1.389 . S
C464 H437 0.988 . S
C464 C450 1.349 1_545 S
C464 C463 1.364 1_545 S
C465 C449 1.377 . S
C465 C463 1.389 . S
C465 C466 1.524 . S
C466 C465 1.524 . S
C466 C467 1.397 . S
C466 C471 1.363 . S
C467 H438 0.950 . S
C467 C466 1.397 . S
C467 C468 1.334 . S
C468 H439 0.950 . S
C468 C467 1.334 . S
C468 C469 1.287 . S
C469 C468 1.287 . S
C469 C470 1.524 . S
C469 H472 0.999 . S
C470 H440 0.950 1_455 S
C470 C469 1.524 . S
C470 C471 1.415 . S
C471 H441 0.950 . S
C471 C466 1.363 . S
C471 C470 1.415 . S
H472 C469 0.999 . S
H473 C454 0.913 . S
H474 C492 0.951 . S
H475 C494 0.951 . S
H476 C496 0.950 . S
H477 C497 0.950 . S
H478 C499 0.950 . S
H479 C502 0.950 . S
H480 C503 0.950 . S
H481 C505 0.950 . S
H482 C506 0.950 . S
H483 C507 0.951 . S
H484 C509 0.951 . S
H485 C511 0.950 . S
H486 C512 0.950 . S
H487 C514 0.950 . S
H488 C517 0.950 . S
H489 C518 0.950 . S
H490 C520 0.950 . S
H491 C521 0.950 . S
C492 H474 0.951 . S
C492 C493 1.366 . S
C492 C494 1.388 . S
C493 C492 1.366 . S
C493 C497 1.385 . S
C494 H475 0.951 . S
C494 C492 1.388 . S
C494 C495 1.366 . S
C495 C494 1.366 . S
C495 C496 1.414 . S
C495 C498 1.499 . S
C496 H476 0.950 . S
C496 C495 1.414 . S
C496 C497 1.374 . S
C497 H477 0.950 . S
C497 C493 1.385 . S
C497 C496 1.374 . S
C498 C495 1.499 . S
C498 C499 1.373 . S
C498 C500 1.389 . S
C499 H478 0.950 . S
C499 C498 1.373 . S
C499 C515 1.377 . S
C500 C498 1.389 . S
C500 C501 1.524 . S
C500 C514 1.377 . S
C501 C500 1.524 . S
C501 C502 1.397 . S
C501 C506 1.363 . S
C502 H479 0.950 . S
C502 C501 1.397 . S
C502 C503 1.334 . S
C503 H480 0.950 . S
C503 C502 1.334 . S
C503 C504 1.287 . S
C504 C503 1.287 . S
C504 C505 1.524 . S
C504 H523 0.913 . S
C505 H481 0.950 . S
C505 C504 1.524 . S
C505 C506 1.415 . S
C506 H482 0.950 . S
C506 C501 1.363 . S
C506 C505 1.415 . S
C507 H483 0.951 . S
C507 C508 1.366 . S
C507 C509 1.388 . S
C508 C507 1.366 . S
C508 C512 1.385 . S
C509 H484 0.951 . S
C509 C507 1.388 . S
C509 C510 1.366 . S
C510 C509 1.366 . S
C510 C511 1.414 . S
C510 C513 1.499 . S
C511 H485 0.950 . S
C511 C510 1.414 . S
C511 C512 1.374 . S
C512 H486 0.950 . S
C512 C508 1.385 . S
C512 C511 1.374 . S
C513 C510 1.499 . S
C513 C514 1.373 . S
C513 C515 1.389 . S
C514 H487 0.950 . S
C514 C500 1.377 . S
C514 C513 1.373 . S
C515 C499 1.377 . S
C515 C513 1.389 . S
C515 C516 1.524 . S
C516 C515 1.524 . S
C516 C517 1.397 . S
C516 C521 1.363 . S
C517 H488 0.950 . S
C517 C516 1.397 . S
C517 C518 1.334 . S
C518 H489 0.950 . S
C518 C517 1.334 . S
C518 C519 1.287 . S
C519 C518 1.287 . S
C519 C520 1.524 . S
C519 H522 0.999 . S
C520 H490 0.950 . S
C520 C519 1.524 . S
C520 C521 1.415 . S
C521 H491 0.950 . S
C521 C516 1.363 . S
C521 C520 1.415 . S
H522 C519 0.999 . S
H523 C504 0.913 . S
H524 C542 0.951 . S
H525 C544 0.951 . S
H526 C546 0.950 . S
H527 C547 0.950 . S
H528 C549 0.950 . S
H529 C552 0.950 . S
H530 C553 0.950 . S
H531 C555 0.950 . S
H532 C556 0.950 . S
H533 C557 0.951 . S
H534 C559 0.951 . S
H535 C561 0.950 . S
H536 C562 0.950 . S
H537 C564 0.950 . S
H538 C567 0.950 . S
H539 C568 0.950 . S
H540 C570 0.950 . S
H541 C571 0.950 . S
C542 H524 0.951 . S
C542 C543 1.366 . S
C542 C544 1.388 . S
C543 C542 1.366 . S
C543 C547 1.385 . S
C544 H525 0.951 . S
C544 C542 1.388 . S
C544 C545 1.366 . S
C545 C544 1.366 . S
C545 C546 1.414 . S
C545 C548 1.499 . S
C546 H526 0.950 . S
C546 C545 1.414 . S
C546 C547 1.374 . S
C547 H527 0.950 . S
C547 C543 1.385 . S
C547 C546 1.374 . S
C548 C545 1.499 . S
C548 C549 1.373 . S
C548 C550 1.389 . S
C549 H528 0.950 . S
C549 C548 1.373 . S
C549 C565 1.377 . S
C550 C548 1.389 . S
C550 C551 1.524 . S
C550 C564 1.377 . S
C551 C550 1.524 . S
C551 C552 1.397 . S
C551 C556 1.363 . S
C552 H529 0.950 . S
C552 C551 1.397 . S
C552 C553 1.334 . S
C553 H530 0.950 . S
C553 C552 1.334 . S
C553 C554 1.287 . S
C554 C553 1.287 . S
C554 C555 1.524 . S
C554 H573 0.913 . S
C555 H531 0.950 . S
C555 C554 1.524 . S
C555 C556 1.415 . S
C556 H532 0.950 . S
C556 C551 1.363 . S
C556 C555 1.415 . S
C557 H533 0.951 . S
C557 C558 1.366 . S
C557 C559 1.388 . S
C558 C557 1.366 . S
C558 C562 1.385 . S
C559 H534 0.951 . S
C559 C557 1.388 . S
C559 C560 1.366 . S
C560 C559 1.366 . S
C560 C561 1.414 . S
C560 C563 1.499 . S
C561 H535 0.950 . S
C561 C560 1.414 . S
C561 C562 1.374 . S
C562 H536 0.950 . S
C562 C558 1.385 . S
C562 C561 1.374 . S
C563 C560 1.499 . S
C563 C564 1.373 . S
C563 C565 1.389 . S
C564 H537 0.950 . S
C564 C550 1.377 . S
C564 C563 1.373 . S
C565 C549 1.377 . S
C565 C563 1.389 . S
C565 C566 1.524 . S
C566 C565 1.524 . S
C566 C567 1.397 . S
C566 C571 1.363 . S
C567 H538 0.950 . S
C567 C566 1.397 . S
C567 C568 1.334 . S
C568 H539 0.950 . S
C568 C567 1.334 . S
C568 C569 1.287 . S
C569 C568 1.287 . S
C569 C570 1.524 . S
C569 H572 0.999 . S
C570 H540 0.950 . S
C570 C569 1.524 . S
C570 C571 1.415 . S
C571 H541 0.950 . S
C571 C566 1.363 . S
C571 C570 1.415 . S
H572 C569 0.999 . S
H573 C554 0.913 . S
H574 C592 0.951 . S
H575 C594 0.951 . S
H576 C596 0.950 . S
H577 C597 0.950 . S
H578 C599 0.950 . S
H579 C602 0.950 . S
H580 C603 0.962 . S
H581 C605 0.950 . S
H582 C606 0.950 . S
H583 C607 0.951 . S
H584 C609 0.929 1_565 S
H585 C611 0.950 . S
H586 C612 0.950 . S
H587 C614 0.950 . S
H588 C617 0.950 . S
H589 C618 0.950 . S
H590 C620 0.950 . S
H591 C621 0.950 . S
C592 H574 0.951 . S
C592 C593 1.366 . S
C592 C594 1.388 . S
C593 C592 1.366 . S
C593 C597 1.385 . S
C594 H575 0.951 . S
C594 C592 1.388 . S
C594 C595 1.366 . S
C595 C594 1.366 . S
C595 C596 1.414 . S
C595 C598 1.499 . S
C596 H576 0.950 . S
C596 C595 1.414 . S
C596 C597 1.374 . S
C597 H577 0.950 . S
C597 C593 1.385 . S
C597 C596 1.374 . S
C598 C595 1.499 . S
C598 C599 1.373 . S
C598 C600 1.389 . S
C599 H578 0.950 . S
C599 C598 1.373 . S
C599 C615 1.377 . S
C600 C598 1.389 . S
C600 C601 1.524 1_565 S
C600 C614 1.377 1_565 S
C601 C600 1.524 1_545 S
C601 C602 1.397 1_545 S
C601 C606 1.363 . S
C602 H579 0.950 . S
C602 C601 1.397 1_565 S
C602 C603 1.343 . S
C603 H580 0.962 . S
C603 C602 1.343 . S
C603 C604 1.267 1_565 S
C604 C603 1.267 1_545 S
C604 C605 1.524 . S
C604 H623 0.913 . S
C605 H581 0.950 . S
C605 C604 1.524 . S
C605 C606 1.415 . S
C606 H582 0.950 . S
C606 C601 1.363 . S
C606 C605 1.415 . S
C607 H583 0.951 . S
C607 C608 1.366 . S
C607 C609 1.388 . S
C608 C607 1.366 . S
C608 C612 1.385 . S
C609 H584 0.929 1_545 S
C609 C607 1.388 . S
C609 C610 1.366 . S
C610 C609 1.366 . S
C610 C611 1.414 . S
C610 C613 1.498 . S
C611 H585 0.950 . S
C611 C610 1.414 . S
C611 C612 1.374 . S
C612 H586 0.950 . S
C612 C608 1.385 . S
C612 C611 1.374 . S
C613 C610 1.498 . S
C613 C614 1.373 . S
C613 C615 1.390 1_545 S
C614 H587 0.950 . S
C614 C600 1.377 1_545 S
C614 C613 1.373 . S
C615 C599 1.377 . S
C615 C613 1.390 1_565 S
C615 C616 1.524 . S
C616 C615 1.524 . S
C616 C617 1.397 . S
C616 C621 1.363 . S
C617 H588 0.950 . S
C617 C616 1.397 . S
C617 C618 1.334 . S
C618 H589 0.950 . S
C618 C617 1.334 . S
C618 C619 1.287 . S
C619 C618 1.287 . S
C619 C620 1.524 . S
C619 H622 0.999 . S
C620 H590 0.950 . S
C620 C619 1.524 . S
C620 C621 1.415 . S
C621 H591 0.950 . S
C621 C616 1.363 . S
C621 C620 1.415 . S
H622 C619 0.999 . S
H623 C604 0.913 . S
H624 C642 0.951 . S
H625 C644 0.951 . S
H626 C646 0.950 . S
H627 C647 0.950 . S
H628 C649 0.950 . S
H629 C652 0.950 . S
H630 C653 0.950 . S
H631 C655 0.950 . S
H632 C656 0.950 . S
H633 C657 0.951 . S
H634 C659 0.951 . S
H635 C661 0.950 1_545 S
H636 C662 0.950 . S
H637 C664 0.950 . S
H638 C667 0.950 . S
H639 C668 0.950 . S
H640 C670 0.950 . S
H641 C671 0.950 . S
C642 H624 0.951 . S
C642 C643 1.366 . S
C642 C644 1.388 . S
C643 C642 1.366 . S
C643 C647 1.385 . S
C644 H625 0.951 . S
C644 C642 1.388 . S
C644 C645 1.366 . S
C645 C644 1.366 . S
C645 C646 1.414 . S
C645 C648 1.499 . S
C646 H626 0.950 . S
C646 C645 1.414 . S
C646 C647 1.374 . S
C647 H627 0.950 . S
C647 C643 1.385 . S
C647 C646 1.374 . S
C648 C645 1.499 . S
C648 C649 1.373 . S
C648 C650 1.389 . S
C649 H628 0.950 . S
C649 C648 1.373 . S
C649 C665 1.384 . S
C650 C648 1.389 . S
C650 C651 1.524 . S
C650 C664 1.377 . S
C651 C650 1.524 . S
C651 C652 1.397 . S
C651 C656 1.363 . S
C652 H629 0.950 . S
C652 C651 1.397 . S
C652 C653 1.334 . S
C653 H630 0.950 . S
C653 C652 1.334 . S
C653 C654 1.287 . S
C654 C653 1.287 . S
C654 C655 1.524 . S
C654 H673 0.913 . S
C655 H631 0.950 . S
C655 C654 1.524 . S
C655 C656 1.415 . S
C656 H632 0.950 . S
C656 C651 1.363 . S
C656 C655 1.415 . S
C657 H633 0.951 . S
C657 C658 1.366 . S
C657 C659 1.388 . S
C658 C657 1.366 . S
C658 C662 1.385 . S
C659 H634 0.951 . S
C659 C657 1.388 . S
C659 C660 1.366 . S
C660 C659 1.366 . S
C660 C661 1.414 . S
C660 C663 1.499 1_565 S
C661 H635 0.950 1_565 S
C661 C660 1.414 . S
C661 C662 1.374 . S
C662 H636 0.950 . S
C662 C658 1.385 . S
C662 C661 1.374 . S
C663 C660 1.499 1_545 S
C663 C664 1.373 . S
C663 C665 1.392 . S
C664 H637 0.950 . S
C664 C650 1.377 . S
C664 C663 1.373 . S
C665 C649 1.384 . S
C665 C663 1.392 . S
C665 C666 1.515 1_545 S
C666 C665 1.515 1_565 S
C666 C667 1.397 . S
C666 C671 1.363 . S
C667 H638 0.950 . S
C667 C666 1.397 . S
C667 C668 1.334 . S
C668 H639 0.950 . S
C668 C667 1.334 . S
C668 C669 1.287 . S
C669 C668 1.287 . S
C669 C670 1.524 . S
C669 H672 0.999 . S
C670 H640 0.950 . S
C670 C669 1.524 . S
C670 C671 1.415 . S
C671 H641 0.950 . S
C671 C666 1.363 . S
C671 C670 1.415 . S
H672 C669 0.999 . S
H673 C654 0.913 . S
H674 C692 0.951 . S
H675 C694 0.951 . S
H676 C696 0.950 . S
H677 C697 0.950 . S
H678 C699 0.950 . S
H679 C702 0.950 . S
H680 C703 0.950 . S
H681 C705 0.950 . S
H682 C706 0.950 . S
H683 C707 0.951 . S
H684 C709 0.951 . S
H685 C711 0.950 . S
H686 C712 0.950 . S
H687 C714 0.950 . S
H688 C717 0.950 . S
H689 C718 0.950 . S
H690 C720 0.950 . S
H691 C721 0.950 . S
C692 H674 0.951 . S
C692 C693 1.366 . S
C692 C694 1.388 . S
C693 C692 1.366 . S
C693 C697 1.385 . S
C694 H675 0.951 . S
C694 C692 1.388 . S
C694 C695 1.366 . S
C695 C694 1.366 . S
C695 C696 1.414 . S
C695 C698 1.499 . S
C696 H676 0.950 . S
C696 C695 1.414 . S
C696 C697 1.374 . S
C697 H677 0.950 . S
C697 C693 1.385 . S
C697 C696 1.374 . S
C698 C695 1.499 . S
C698 C699 1.373 . S
C698 C700 1.389 . S
C699 H678 0.950 . S
C699 C698 1.373 . S
C699 C715 1.377 . S
C700 C698 1.389 . S
C700 C701 1.524 . S
C700 C714 1.377 . S
C701 C700 1.524 . S
C701 C702 1.397 . S
C701 C706 1.363 . S
C702 H679 0.950 . S
C702 C701 1.397 . S
C702 C703 1.334 . S
C703 H680 0.950 . S
C703 C702 1.334 . S
C703 C704 1.287 . S
C704 C703 1.287 . S
C704 C705 1.524 . S
C704 H723 0.913 . S
C705 H681 0.950 . S
C705 C704 1.524 . S
C705 C706 1.415 . S
C706 H682 0.950 . S
C706 C701 1.363 . S
C706 C705 1.415 . S
C707 H683 0.951 . S
C707 C708 1.366 . S
C707 C709 1.388 . S
C708 C707 1.366 . S
C708 C712 1.385 . S
C709 H684 0.951 . S
C709 C707 1.388 . S
C709 C710 1.366 . S
C710 C709 1.366 . S
C710 C711 1.414 . S
C710 C713 1.499 . S
C711 H685 0.950 . S
C711 C710 1.414 . S
C711 C712 1.374 . S
C712 H686 0.950 . S
C712 C708 1.385 . S
C712 C711 1.374 . S
C713 C710 1.499 . S
C713 C714 1.373 . S
C713 C715 1.389 . S
C714 H687 0.950 . S
C714 C700 1.377 . S
C714 C713 1.373 . S
C715 C699 1.377 . S
C715 C713 1.389 . S
C715 C716 1.524 . S
C716 C715 1.524 . S
C716 C717 1.397 . S
C716 C721 1.363 . S
C717 H688 0.950 . S
C717 C716 1.397 . S
C717 C718 1.334 . S
C718 H689 0.950 . S
C718 C717 1.334 . S
C718 C719 1.287 . S
C719 C718 1.287 . S
C719 C720 1.524 . S
C719 H722 0.999 . S
C720 H690 0.950 . S
C720 C719 1.524 . S
C720 C721 1.415 . S
C721 H691 0.950 . S
C721 C716 1.363 . S
C721 C720 1.415 . S
H722 C719 0.999 . S
H723 C704 0.913 . S
H724 C742 0.951 . S
H725 C744 0.951 . S
H726 C746 0.950 . S
H727 C747 0.950 . S
H728 C749 0.950 . S
H729 C752 0.950 . S
H730 C753 0.950 . S
H731 C755 0.950 . S
H732 C756 0.950 . S
H733 C757 0.951 . S
H734 C759 0.951 . S
H735 C761 0.950 . S
H736 C762 0.950 . S
H737 C764 0.950 . S
H738 C767 0.950 . S
H739 C768 0.950 . S
H740 C770 0.950 . S
H741 C771 0.950 . S
C742 H724 0.951 . S
C742 C743 1.366 . S
C742 C744 1.388 . S
C743 C742 1.366 . S
C743 C747 1.385 . S
C744 H725 0.951 . S
C744 C742 1.388 . S
C744 C745 1.366 . S
C745 C744 1.366 . S
C745 C746 1.414 . S
C745 C748 1.499 . S
C746 H726 0.950 . S
C746 C745 1.414 . S
C746 C747 1.374 . S
C747 H727 0.950 . S
C747 C743 1.385 . S
C747 C746 1.374 . S
C748 C745 1.499 . S
C748 C749 1.373 . S
C748 C750 1.389 . S
C749 H728 0.950 . S
C749 C748 1.373 . S
C749 C765 1.377 . S
C750 C748 1.389 . S
C750 C751 1.524 . S
C750 C764 1.377 . S
C751 C750 1.524 . S
C751 C752 1.397 . S
C751 C756 1.363 . S
C752 H729 0.950 . S
C752 C751 1.397 . S
C752 C753 1.334 . S
C753 H730 0.950 . S
C753 C752 1.334 . S
C753 C754 1.287 . S
C754 C753 1.287 . S
C754 C755 1.524 . S
C754 H773 0.913 . S
C755 H731 0.950 . S
C755 C754 1.524 . S
C755 C756 1.415 . S
C756 H732 0.950 . S
C756 C751 1.363 . S
C756 C755 1.415 . S
C757 H733 0.951 . S
C757 C758 1.366 . S
C757 C759 1.388 . S
C758 C757 1.366 . S
C758 C762 1.385 . S
C759 H734 0.951 . S
C759 C757 1.388 . S
C759 C760 1.366 . S
C760 C759 1.366 . S
C760 C761 1.414 . S
C760 C763 1.499 . S
C761 H735 0.950 . S
C761 C760 1.414 . S
C761 C762 1.374 . S
C762 H736 0.950 . S
C762 C758 1.385 . S
C762 C761 1.374 . S
C763 C760 1.499 . S
C763 C764 1.373 . S
C763 C765 1.389 . S
C764 H737 0.950 . S
C764 C750 1.377 . S
C764 C763 1.373 . S
C765 C749 1.377 . S
C765 C763 1.389 . S
C765 C766 1.524 . S
C766 C765 1.524 . S
C766 C767 1.397 . S
C766 C771 1.363 . S
C767 H738 0.950 . S
C767 C766 1.397 . S
C767 C768 1.334 . S
C768 H739 0.950 . S
C768 C767 1.334 . S
C768 C769 1.287 . S
C769 C768 1.287 . S
C769 C770 1.524 . S
C769 H772 0.999 . S
C770 H740 0.950 . S
C770 C769 1.524 . S
C770 C771 1.415 . S
C771 H741 0.950 . S
C771 C766 1.363 . S
C771 C770 1.415 . S
H772 C769 0.999 . S
H773 C754 0.913 . S
H774 C792 0.951 . S
H775 C794 0.951 . S
H776 C796 0.950 . S
H777 C797 0.950 . S
H778 C799 0.950 . S
H779 C802 0.950 . S
H780 C803 0.950 . S
H781 C805 0.950 . S
H782 C806 0.950 . S
H783 C807 0.951 . S
H784 C809 0.951 1_545 S
H785 C811 0.950 . S
H786 C812 0.950 . S
H787 C814 0.950 . S
H788 C817 0.950 . S
H789 C818 0.950 . S
H790 C820 0.950 . S
H791 C821 0.950 . S
C792 H774 0.951 . S
C792 C793 1.366 . S
C792 C794 1.388 . S
C793 C792 1.366 . S
C793 C797 1.385 . S
C794 H775 0.951 . S
C794 C792 1.388 . S
C794 C795 1.366 . S
C795 C794 1.366 . S
C795 C796 1.414 . S
C795 C798 1.499 . S
C796 H776 0.950 . S
C796 C795 1.414 . S
C796 C797 1.374 . S
C797 H777 0.950 . S
C797 C793 1.385 . S
C797 C796 1.374 . S
C798 C795 1.499 . S
C798 C799 1.373 . S
C798 C800 1.389 . S
C799 H778 0.950 . S
C799 C798 1.373 . S
C799 C815 1.377 . S
C800 C798 1.389 . S
C800 C801 1.524 . S
C800 C814 1.377 1_545 S
C801 C800 1.524 . S
C801 C802 1.397 . S
C801 C806 1.363 1_545 S
C802 H779 0.950 . S
C802 C801 1.397 . S
C802 C803 1.334 . S
C803 H780 0.950 . S
C803 C802 1.334 . S
C803 C804 1.287 1_545 S
C804 C803 1.287 1_565 S
C804 C805 1.524 . S
C804 H823 0.913 . S
C805 H781 0.950 . S
C805 C804 1.524 . S
C805 C806 1.415 . S
C806 H782 0.950 . S
C806 C801 1.363 1_565 S
C806 C805 1.415 . S
C807 H783 0.951 . S
C807 C808 1.366 . S
C807 C809 1.388 . S
C808 C807 1.366 . S
C808 C812 1.385 . S
C809 H784 0.951 1_565 S
C809 C807 1.388 . S
C809 C810 1.366 . S
C810 C809 1.366 . S
C810 C811 1.414 . S
C810 C813 1.499 1_565 S
C811 H785 0.950 . S
C811 C810 1.414 . S
C811 C812 1.374 . S
C812 H786 0.950 . S
C812 C808 1.385 . S
C812 C811 1.374 . S
C813 C810 1.499 1_545 S
C813 C814 1.373 1_545 S
C813 C815 1.389 . S
C814 H787 0.950 . S
C814 C800 1.377 1_565 S
C814 C813 1.373 1_565 S
C815 C799 1.377 . S
C815 C813 1.389 . S
C815 C816 1.524 . S
C816 C815 1.524 . S
C816 C817 1.397 . S
C816 C821 1.363 . S
C817 H788 0.950 . S
C817 C816 1.397 . S
C817 C818 1.334 1_455 S
C818 H789 0.950 . S
C818 C817 1.334 1_655 S
C818 C819 1.287 . S
C819 C818 1.287 . S
C819 C820 1.524 1_655 S
C819 H822 0.999 . S
C820 H790 0.950 . S
C820 C819 1.524 1_455 S
C820 C821 1.415 . S
C821 H791 0.950 . S
C821 C816 1.363 . S
C821 C820 1.415 . S
H822 C819 0.999 . S
H823 C804 0.913 . S
H824 C842 0.951 . S
H825 C844 0.951 1_554 S
H826 C846 0.950 . S
H827 C847 0.950 . S
H828 C849 0.950 . S
H829 C852 0.950 . S
H830 C853 0.950 1_556 S
H831 C855 0.950 . S
H832 C856 0.950 . S
H833 C857 0.951 . S
H834 C859 0.951 . S
H835 C861 0.950 . S
H836 C862 0.950 . S
H837 C864 0.950 . S
H838 C867 0.950 . S
H839 C868 0.950 . S
H840 C870 0.961 . S
H841 C871 0.950 . S
C842 H824 0.951 . S
C842 C843 1.366 . S
C842 C844 1.388 . S
C843 C842 1.366 . S
C843 C847 1.385 . S
C844 H825 0.951 1_556 S
C844 C842 1.388 . S
C844 C845 1.366 . S
C845 C844 1.366 . S
C845 C846 1.414 . S
C845 C848 1.499 1_556 S
C846 H826 0.950 . S
C846 C845 1.414 . S
C846 C847 1.374 . S
C847 H827 0.950 . S
C847 C843 1.385 . S
C847 C846 1.374 . S
C848 C845 1.499 1_554 S
C848 C849 1.373 . S
C848 C850 1.389 . S
C849 H828 0.950 . S
C849 C848 1.373 . S
C849 C865 1.377 . S
C850 C848 1.389 . S
C850 C851 1.524 . S
C850 C864 1.377 . S
C851 C850 1.524 . S
C851 C852 1.397 . S
C851 C856 1.363 . S
C852 H829 0.950 . S
C852 C851 1.397 . S
C852 C853 1.334 . S
C853 H830 0.950 1_554 S
C853 C852 1.334 . S
C853 C854 1.287 . S
C854 C853 1.287 . S
C854 C855 1.524 . S
C854 H873 0.913 . S
C855 H831 0.950 . S
C855 C854 1.524 . S
C855 C856 1.415 . S
C856 H832 0.950 . S
C856 C851 1.363 . S
C856 C855 1.415 . S
C857 H833 0.951 . S
C857 C858 1.366 . S
C857 C859 1.388 . S
C858 C857 1.366 . S
C858 C862 1.385 . S
C859 H834 0.951 . S
C859 C857 1.388 . S
C859 C860 1.366 . S
C860 C859 1.366 . S
C860 C861 1.414 . S
C860 C863 1.499 . S
C861 H835 0.950 . S
C861 C860 1.414 . S
C861 C862 1.374 . S
C862 H836 0.950 . S
C862 C858 1.385 . S
C862 C861 1.374 . S
C863 C860 1.499 . S
C863 C864 1.373 . S
C863 C865 1.389 . S
C864 H837 0.950 . S
C864 C850 1.377 . S
C864 C863 1.373 . S
C865 C849 1.377 . S
C865 C863 1.389 . S
C865 C866 1.524 . S
C866 C865 1.524 . S
C866 C867 1.397 . S
C866 C871 1.363 . S
C867 H838 0.950 . S
C867 C866 1.397 . S
C867 C868 1.334 . S
C868 H839 0.950 . S
C868 C867 1.334 . S
C868 C869 1.287 . S
C869 C868 1.287 . S
C869 C870 1.524 . S
C869 H872 0.999 . S
C870 H840 0.961 . S
C870 C869 1.524 . S
C870 C871 1.415 . S
C871 H841 0.950 . S
C871 C866 1.363 . S
C871 C870 1.415 . S
H872 C869 0.999 . S
H873 C854 0.913 . S
H874 C892 0.951 . S
H875 C894 0.951 . S
H876 C896 0.950 . S
H877 C897 0.950 . S
H878 C899 0.950 . S
H879 C902 0.950 . S
H880 C903 0.950 . S
H881 C905 0.950 . S
H882 C906 0.950 . S
H883 C907 0.951 . S
H884 C909 0.951 . S
H885 C911 0.950 . S
H886 C912 0.950 . S
H887 C914 0.950 . S
H888 C917 0.950 . S
H889 C918 0.950 . S
H890 C920 0.950 . S
H891 C921 0.950 . S
C892 H874 0.951 . S
C892 C893 1.366 . S
C892 C894 1.388 . S
C893 C892 1.366 . S
C893 C897 1.385 . S
C894 H875 0.951 . S
C894 C892 1.388 . S
C894 C895 1.366 . S
C895 C894 1.366 . S
C895 C896 1.414 . S
C895 C898 1.499 . S
C896 H876 0.950 . S
C896 C895 1.414 . S
C896 C897 1.374 . S
C897 H877 0.950 . S
C897 C893 1.385 . S
C897 C896 1.374 . S
C898 C895 1.499 . S
C898 C899 1.373 . S
C898 C900 1.389 . S
C899 H878 0.950 . S
C899 C898 1.373 . S
C899 C915 1.377 . S
C900 C898 1.389 . S
C900 C901 1.524 . S
C900 C914 1.377 . S
C901 C900 1.524 . S
C901 C902 1.397 . S
C901 C906 1.363 . S
C902 H879 0.950 . S
C902 C901 1.397 . S
C902 C903 1.334 . S
C903 H880 0.950 . S
C903 C902 1.334 . S
C903 C904 1.287 . S
C904 C903 1.287 . S
C904 C905 1.524 . S
C904 H923 0.913 . S
C905 H881 0.950 . S
C905 C904 1.524 . S
C905 C906 1.415 . S
C906 H882 0.950 . S
C906 C901 1.363 . S
C906 C905 1.415 . S
C907 H883 0.951 . S
C907 C908 1.366 . S
C907 C909 1.388 . S
C908 C907 1.366 . S
C908 C912 1.385 . S
C909 H884 0.951 . S
C909 C907 1.388 . S
C909 C910 1.366 . S
C910 C909 1.366 . S
C910 C911 1.414 . S
C910 C913 1.499 . S
C911 H885 0.950 . S
C911 C910 1.414 . S
C911 C912 1.374 . S
C912 H886 0.950 . S
C912 C908 1.385 . S
C912 C911 1.374 . S
C913 C910 1.499 . S
C913 C914 1.373 . S
C913 C915 1.389 . S
C914 H887 0.950 . S
C914 C900 1.377 . S
C914 C913 1.373 . S
C915 C899 1.377 . S
C915 C913 1.389 . S
C915 C916 1.524 . S
C916 C915 1.524 . S
C916 C917 1.397 . S
C916 C921 1.363 . S
C917 H888 0.950 . S
C917 C916 1.397 . S
C917 C918 1.334 . S
C918 H889 0.950 . S
C918 C917 1.334 . S
C918 C919 1.287 . S
C919 C918 1.287 . S
C919 C920 1.524 . S
C919 H922 0.999 . S
C920 H890 0.950 . S
C920 C919 1.524 . S
C920 C921 1.415 . S
C921 H891 0.950 . S
C921 C916 1.363 . S
C921 C920 1.415 . S
H922 C919 0.999 . S
H923 C904 0.913 . S
H924 C942 0.951 . S
H925 C944 0.951 . S
H926 C946 0.950 . S
H927 C947 0.950 . S
H928 C949 0.950 . S
H929 C952 0.950 . S
H930 C953 0.950 . S
H931 C955 0.950 . S
H932 C956 0.950 . S
H933 C957 0.951 . S
H934 C959 0.951 . S
H935 C961 0.950 . S
H936 C962 0.950 . S
H937 C964 0.950 . S
H938 C967 0.950 . S
H939 C968 0.950 . S
H940 C970 0.950 . S
H941 C971 0.950 . S
C942 H924 0.951 . S
C942 C943 1.366 . S
C942 C944 1.388 . S
C943 C942 1.366 . S
C943 C947 1.385 . S
C944 H925 0.951 . S
C944 C942 1.388 . S
C944 C945 1.366 . S
C945 C944 1.366 . S
C945 C946 1.414 . S
C945 C948 1.499 1_554 S
C946 H926 0.950 . S
C946 C945 1.414 . S
C946 C947 1.374 . S
C947 H927 0.950 . S
C947 C943 1.385 . S
C947 C946 1.374 . S
C948 C945 1.499 1_556 S
C948 C949 1.373 . S
C948 C950 1.389 . S
C949 H928 0.950 . S
C949 C948 1.373 . S
C949 C965 1.377 . S
C950 C948 1.389 . S
C950 C951 1.524 . S
C950 C964 1.377 . S
C951 C950 1.524 . S
C951 C952 1.397 . S
C951 C956 1.363 . S
C952 H929 0.950 . S
C952 C951 1.397 . S
C952 C953 1.334 . S
C953 H930 0.950 . S
C953 C952 1.334 . S
C953 C954 1.287 . S
C954 C953 1.287 . S
C954 C955 1.524 . S
C954 H973 0.913 . S
C955 H931 0.950 . S
C955 C954 1.524 . S
C955 C956 1.415 . S
C956 H932 0.950 . S
C956 C951 1.363 . S
C956 C955 1.415 . S
C957 H933 0.951 . S
C957 C958 1.366 . S
C957 C959 1.388 . S
C958 C957 1.366 . S
C958 C962 1.385 . S
C959 H934 0.951 . S
C959 C957 1.388 . S
C959 C960 1.366 . S
C960 C959 1.366 . S
C960 C961 1.414 . S
C960 C963 1.499 . S
C961 H935 0.950 . S
C961 C960 1.414 . S
C961 C962 1.374 . S
C962 H936 0.950 . S
C962 C958 1.385 . S
C962 C961 1.374 . S
C963 C960 1.499 . S
C963 C964 1.373 . S
C963 C965 1.389 . S
C964 H937 0.950 . S
C964 C950 1.377 . S
C964 C963 1.373 . S
C965 C949 1.377 . S
C965 C963 1.389 . S
C965 C966 1.524 . S
C966 C965 1.524 . S
C966 C967 1.397 . S
C966 C971 1.363 . S
C967 H938 0.950 . S
C967 C966 1.397 . S
C967 C968 1.334 . S
C968 H939 0.950 . S
C968 C967 1.334 . S
C968 C969 1.287 . S
C969 C968 1.287 . S
C969 C970 1.524 . S
C969 H972 0.999 . S
C970 H940 0.950 . S
C970 C969 1.524 . S
C970 C971 1.415 . S
C971 H941 0.950 . S
C971 C966 1.363 . S
C971 C970 1.415 . S
H972 C969 0.999 . S
H973 C954 0.913 . S
H974 C992 0.951 . S
H975 C994 0.951 . S
H976 C996 0.950 . S
H977 C997 0.950 . S
H978 C999 0.950 . S
H979 C1002 0.950 . S
H980 C1003 0.950 . S
H981 C1005 0.950 . S
H982 C1006 0.950 . S
H983 C1007 0.951 . S
H984 C1009 0.951 . S
H985 C1011 0.950 . S
H986 C1012 0.950 . S
H987 C1014 0.950 . S
H988 C1017 0.950 . S
H989 C1018 0.950 . S
H990 C1020 0.950 . S
H991 C1021 0.950 . S
C992 H974 0.951 . S
C992 C993 1.366 . S
C992 C994 1.388 . S
C993 C992 1.366 . S
C993 C997 1.385 . S
C994 H975 0.951 . S
C994 C992 1.388 . S
C994 C995 1.366 . S
C995 C994 1.366 . S
C995 C996 1.414 . S
C995 C998 1.499 . S
C996 H976 0.950 . S
C996 C995 1.414 . S
C996 C997 1.374 . S
C997 H977 0.950 . S
C997 C993 1.385 . S
C997 C996 1.374 . S
C998 C995 1.499 . S
C998 C999 1.373 . S
C998 C1000 1.389 . S
C999 H978 0.950 . S
C999 C998 1.373 . S
C999 C1015 1.377 . S
C1000 C998 1.389 . S
C1000 C1001 1.524 . S
C1000 C1014 1.377 . S
C1001 C1000 1.524 . S
C1001 C1002 1.397 . S
C1001 C1006 1.363 . S
C1002 H979 0.950 . S
C1002 C1001 1.397 . S
C1002 C1003 1.334 . S
C1003 H980 0.950 . S
C1003 C1002 1.334 . S
C1003 C1004 1.287 . S
C1004 C1003 1.287 . S
C1004 C1005 1.524 . S
C1004 H1023 0.913 . S
C1005 H981 0.950 . S
C1005 C1004 1.524 . S
C1005 C1006 1.415 . S
C1006 H982 0.950 . S
C1006 C1001 1.363 . S
C1006 C1005 1.415 . S
C1007 H983 0.951 . S
C1007 C1008 1.366 . S
C1007 C1009 1.388 . S
C1008 C1007 1.366 . S
C1008 C1012 1.385 . S
C1009 H984 0.951 . S
C1009 C1007 1.388 . S
C1009 C1010 1.366 . S
C1010 C1009 1.366 . S
C1010 C1011 1.414 . S
C1010 C1013 1.499 . S
C1011 H985 0.950 . S
C1011 C1010 1.414 . S
C1011 C1012 1.374 . S
C1012 H986 0.950 . S
C1012 C1008 1.385 . S
C1012 C1011 1.374 . S
C1013 C1010 1.499 . S
C1013 C1014 1.373 . S
C1013 C1015 1.389 . S
C1014 H987 0.950 . S
C1014 C1000 1.377 . S
C1014 C1013 1.373 . S
C1015 C999 1.377 . S
C1015 C1013 1.389 . S
C1015 C1016 1.524 . S
C1016 C1015 1.524 . S
C1016 C1017 1.397 . S
C1016 C1021 1.363 . S
C1017 H988 0.950 . S
C1017 C1016 1.397 . S
C1017 C1018 1.334 . S
C1018 H989 0.950 . S
C1018 C1017 1.334 . S
C1018 C1019 1.287 . S
C1019 C1018 1.287 . S
C1019 C1020 1.524 . S
C1019 H1022 0.999 . S
C1020 H990 0.950 . S
C1020 C1019 1.524 . S
C1020 C1021 1.415 . S
C1021 H991 0.950 . S
C1021 C1016 1.363 . S
C1021 C1020 1.415 . S
H1022 C1019 0.999 . S
H1023 C1004 0.913 . S
H1024 C1042 0.951 . S
H1025 C1044 0.951 . S
H1026 C1046 0.950 . S
H1027 C1047 0.950 . S
H1028 C1049 0.950 . S
H1029 C1052 0.950 . S
H1030 C1053 0.950 . S
H1031 C1055 0.950 . S
H1032 C1056 0.950 . S
H1033 C1057 0.951 . S
H1034 C1059 0.951 . S
H1035 C1061 0.950 . S
H1036 C1062 0.950 . S
H1037 C1064 0.950 . S
H1038 C1067 0.950 . S
H1039 C1068 0.950 . S
H1040 C1070 0.950 1_455 S
H1041 C1071 0.950 . S
C1042 H1024 0.951 . S
C1042 C1043 1.366 . S
C1042 C1044 1.388 . S
C1043 C1042 1.366 . S
C1043 C1047 1.385 . S
C1044 H1025 0.951 . S
C1044 C1042 1.388 . S
C1044 C1045 1.366 . S
C1045 C1044 1.366 . S
C1045 C1046 1.414 . S
C1045 C1048 1.499 1_554 S
C1046 H1026 0.950 . S
C1046 C1045 1.414 . S
C1046 C1047 1.374 . S
C1047 H1027 0.950 . S
C1047 C1043 1.385 . S
C1047 C1046 1.374 . S
C1048 C1045 1.499 1_556 S
C1048 C1049 1.373 . S
C1048 C1050 1.389 . S
C1049 H1028 0.950 . S
C1049 C1048 1.373 . S
C1049 C1065 1.377 . S
C1050 C1048 1.389 . S
C1050 C1051 1.524 . S
C1050 C1064 1.377 . S
C1051 C1050 1.524 . S
C1051 C1052 1.397 . S
C1051 C1056 1.363 . S
C1052 H1029 0.950 . S
C1052 C1051 1.397 . S
C1052 C1053 1.334 . S
C1053 H1030 0.950 . S
C1053 C1052 1.334 . S
C1053 C1054 1.287 . S
C1054 C1053 1.287 . S
C1054 C1055 1.524 . S
C1054 H1073 0.913 . S
C1055 H1031 0.950 . S
C1055 C1054 1.524 . S
C1055 C1056 1.415 . S
C1056 H1032 0.950 . S
C1056 C1051 1.363 . S
C1056 C1055 1.415 . S
C1057 H1033 0.951 . S
C1057 C1058 1.366 . S
C1057 C1059 1.388 . S
C1058 C1057 1.366 . S
C1058 C1062 1.385 . S
C1059 H1034 0.951 . S
C1059 C1057 1.388 . S
C1059 C1060 1.366 . S
C1060 C1059 1.366 . S
C1060 C1061 1.414 . S
C1060 C1063 1.499 . S
C1061 H1035 0.950 . S
C1061 C1060 1.414 . S
C1061 C1062 1.374 . S
C1062 H1036 0.950 . S
C1062 C1058 1.385 . S
C1062 C1061 1.374 . S
C1063 C1060 1.499 . S
C1063 C1064 1.373 . S
C1063 C1065 1.389 . S
C1064 H1037 0.950 . S
C1064 C1050 1.377 . S
C1064 C1063 1.373 . S
C1065 C1049 1.377 . S
C1065 C1063 1.389 . S
C1065 C1066 1.524 . S
C1066 C1065 1.524 . S
C1066 C1067 1.397 . S
C1066 C1071 1.363 . S
C1067 H1038 0.950 . S
C1067 C1066 1.397 . S
C1067 C1068 1.334 . S
C1068 H1039 0.950 . S
C1068 C1067 1.334 . S
C1068 C1069 1.287 . S
C1069 C1068 1.287 . S
C1069 C1070 1.524 . S
C1069 H1072 0.999 1_655 S
C1070 H1040 0.950 1_655 S
C1070 C1069 1.524 . S
C1070 C1071 1.415 . S
C1071 H1041 0.950 . S
C1071 C1066 1.363 . S
C1071 C1070 1.415 . S
H1072 C1069 0.999 1_455 S
H1073 C1054 0.913 . S
H1074 C1092 0.951 . S
H1075 C1094 0.951 . S
H1076 C1096 0.950 . S
H1077 C1097 0.950 . S
H1078 C1099 0.950 . S
H1079 C1102 0.950 . S
H1080 C1103 0.950 . S
H1081 C1105 0.950 . S
H1082 C1106 0.950 . S
H1083 C1107 0.951 . S
H1084 C1109 0.951 . S
H1085 C1111 0.950 . S
H1086 C1112 0.950 . S
H1087 C1114 0.950 . S
H1088 C1117 0.950 . S
H1089 C1118 0.950 . S
H1090 C1120 0.950 . S
H1091 C1121 0.950 . S
C1092 H1074 0.951 . S
C1092 C1093 1.366 . S
C1092 C1094 1.388 . S
C1093 C1092 1.366 . S
C1093 C1097 1.385 . S
C1094 H1075 0.951 . S
C1094 C1092 1.388 . S
C1094 C1095 1.366 . S
C1095 C1094 1.366 . S
C1095 C1096 1.414 . S
C1095 C1098 1.499 . S
C1096 H1076 0.950 . S
C1096 C1095 1.414 . S
C1096 C1097 1.374 . S
C1097 H1077 0.950 . S
C1097 C1093 1.385 . S
C1097 C1096 1.374 . S
C1098 C1095 1.499 . S
C1098 C1099 1.373 . S
C1098 C1100 1.389 . S
C1099 H1078 0.950 . S
C1099 C1098 1.373 . S
C1099 C1115 1.377 . S
C1100 C1098 1.389 . S
C1100 C1101 1.524 . S
C1100 C1114 1.377 . S
C1101 C1100 1.524 . S
C1101 C1102 1.397 . S
C1101 C1106 1.363 . S
C1102 H1079 0.950 . S
C1102 C1101 1.397 . S
C1102 C1103 1.334 . S
C1103 H1080 0.950 . S
C1103 C1102 1.334 . S
C1103 C1104 1.287 . S
C1104 C1103 1.287 . S
C1104 C1105 1.524 . S
C1104 H1123 0.913 . S
C1105 H1081 0.950 . S
C1105 C1104 1.524 . S
C1105 C1106 1.415 . S
C1106 H1082 0.950 . S
C1106 C1101 1.363 . S
C1106 C1105 1.415 . S
C1107 H1083 0.951 . S
C1107 C1108 1.366 . S
C1107 C1109 1.388 . S
C1108 C1107 1.366 . S
C1108 C1112 1.385 . S
C1109 H1084 0.951 . S
C1109 C1107 1.388 . S
C1109 C1110 1.366 . S
C1110 C1109 1.366 . S
C1110 C1111 1.414 . S
C1110 C1113 1.499 . S
C1111 H1085 0.950 . S
C1111 C1110 1.414 . S
C1111 C1112 1.374 . S
C1112 H1086 0.950 . S
C1112 C1108 1.385 . S
C1112 C1111 1.374 . S
C1113 C1110 1.499 . S
C1113 C1114 1.373 . S
C1113 C1115 1.389 . S
C1114 H1087 0.950 . S
C1114 C1100 1.377 . S
C1114 C1113 1.373 . S
C1115 C1099 1.377 . S
C1115 C1113 1.389 . S
C1115 C1116 1.524 . S
C1116 C1115 1.524 . S
C1116 C1117 1.397 . S
C1116 C1121 1.363 . S
C1117 H1088 0.950 . S
C1117 C1116 1.397 . S
C1117 C1118 1.334 . S
C1118 H1089 0.950 . S
C1118 C1117 1.334 . S
C1118 C1119 1.287 . S
C1119 C1118 1.287 . S
C1119 C1120 1.524 . S
C1119 H1122 0.999 . S
C1120 H1090 0.950 . S
C1120 C1119 1.524 . S
C1120 C1121 1.415 . S
C1121 H1091 0.950 . S
C1121 C1116 1.363 . S
C1121 C1120 1.415 . S
H1122 C1119 0.999 . S
H1123 C1104 0.913 . S
H1124 C1142 0.951 . S
H1125 C1144 0.951 . S
H1126 C1146 0.950 . S
H1127 C1147 0.950 . S
H1128 C1149 0.950 . S
H1129 C1152 0.950 . S
H1130 C1153 0.950 . S
H1131 C1155 0.950 . S
H1132 C1156 0.950 . S
H1133 C1157 0.951 . S
H1134 C1159 0.951 . S
H1135 C1161 0.950 . S
H1136 C1162 0.950 . S
H1137 C1164 0.950 . S
H1138 C1167 0.950 . S
H1139 C1168 0.950 . S
H1140 C1170 0.950 . S
H1141 C1171 0.950 . S
C1142 H1124 0.951 . S
C1142 C1143 1.366 . S
C1142 C1144 1.388 . S
C1143 C1142 1.366 . S
C1143 C1147 1.385 . S
C1144 H1125 0.951 . S
C1144 C1142 1.388 . S
C1144 C1145 1.366 . S
C1145 C1144 1.366 . S
C1145 C1146 1.414 . S
C1145 C1148 1.499 1_556 S
C1146 H1126 0.950 . S
C1146 C1145 1.414 . S
C1146 C1147 1.374 . S
C1147 H1127 0.950 . S
C1147 C1143 1.385 . S
C1147 C1146 1.374 . S
C1148 C1145 1.499 1_554 S
C1148 C1149 1.373 . S
C1148 C1150 1.389 . S
C1149 H1128 0.950 . S
C1149 C1148 1.373 . S
C1149 C1165 1.377 . S
C1150 C1148 1.389 . S
C1150 C1151 1.524 . S
C1150 C1164 1.377 . S
C1151 C1150 1.524 . S
C1151 C1152 1.397 1_554 S
C1151 C1156 1.363 . S
C1152 H1129 0.950 . S
C1152 C1151 1.397 1_556 S
C1152 C1153 1.334 . S
C1153 H1130 0.950 . S
C1153 C1152 1.334 . S
C1153 C1154 1.287 . S
C1154 C1153 1.287 . S
C1154 C1155 1.524 1_556 S
C1154 H1173 0.913 . S
C1155 H1131 0.950 . S
C1155 C1154 1.524 1_554 S
C1155 C1156 1.415 . S
C1156 H1132 0.950 . S
C1156 C1151 1.363 . S
C1156 C1155 1.415 . S
C1157 H1133 0.951 . S
C1157 C1158 1.366 . S
C1157 C1159 1.388 . S
C1158 C1157 1.366 . S
C1158 C1162 1.385 . S
C1159 H1134 0.951 . S
C1159 C1157 1.388 . S
C1159 C1160 1.366 . S
C1160 C1159 1.366 . S
C1160 C1161 1.414 . S
C1160 C1163 1.499 . S
C1161 H1135 0.950 . S
C1161 C1160 1.414 . S
C1161 C1162 1.374 . S
C1162 H1136 0.950 . S
C1162 C1158 1.385 . S
C1162 C1161 1.374 . S
C1163 C1160 1.499 . S
C1163 C1164 1.373 . S
C1163 C1165 1.389 . S
C1164 H1137 0.950 . S
C1164 C1150 1.377 . S
C1164 C1163 1.373 . S
C1165 C1149 1.377 . S
C1165 C1163 1.389 . S
C1165 C1166 1.524 . S
C1166 C1165 1.524 . S
C1166 C1167 1.397 . S
C1166 C1171 1.363 . S
C1167 H1138 0.950 . S
C1167 C1166 1.397 . S
C1167 C1168 1.334 . S
C1168 H1139 0.950 . S
C1168 C1167 1.334 . S
C1168 C1169 1.287 . S
C1169 C1168 1.287 . S
C1169 C1170 1.524 . S
C1169 H1172 0.999 . S
C1170 H1140 0.950 . S
C1170 C1169 1.524 . S
C1170 C1171 1.415 . S
C1171 H1141 0.950 . S
C1171 C1166 1.363 . S
C1171 C1170 1.415 . S
H1172 C1169 0.999 . S
H1173 C1154 0.913 . S
H1174 C1192 0.951 . S
H1175 C1194 0.951 . S
H1176 C1196 0.950 . S
H1177 C1197 0.950 . S
H1178 C1199 0.950 . S
H1179 C1202 0.950 . S
H1180 C1203 0.950 . S
H1181 C1205 0.950 . S
H1182 C1206 0.950 . S
H1183 C1207 0.951 . S
H1184 C1209 0.951 . S
H1185 C1211 0.950 . S
H1186 C1212 0.950 . S
H1187 C1214 0.950 . S
H1188 C1217 0.950 . S
H1189 C1218 0.950 . S
H1190 C1220 0.950 . S
H1191 C1221 0.950 . S
C1192 H1174 0.951 . S
C1192 C1193 1.366 . S
C1192 C1194 1.388 . S
C1193 C1192 1.366 . S
C1193 C1197 1.385 . S
C1194 H1175 0.951 . S
C1194 C1192 1.388 . S
C1194 C1195 1.366 . S
C1195 C1194 1.366 . S
C1195 C1196 1.414 . S
C1195 C1198 1.499 . S
C1196 H1176 0.950 . S
C1196 C1195 1.414 . S
C1196 C1197 1.374 . S
C1197 H1177 0.950 . S
C1197 C1193 1.385 . S
C1197 C1196 1.374 . S
C1198 C1195 1.499 . S
C1198 C1199 1.373 . S
C1198 C1200 1.389 . S
C1199 H1178 0.950 . S
C1199 C1198 1.373 . S
C1199 C1215 1.377 . S
C1200 C1198 1.389 . S
C1200 C1201 1.524 . S
C1200 C1214 1.377 . S
C1201 C1200 1.524 . S
C1201 C1202 1.397 . S
C1201 C1206 1.363 . S
C1202 H1179 0.950 . S
C1202 C1201 1.397 . S
C1202 C1203 1.334 . S
C1203 H1180 0.950 . S
C1203 C1202 1.334 . S
C1203 C1204 1.287 . S
C1204 C1203 1.287 . S
C1204 C1205 1.524 . S
C1204 H1223 0.913 . S
C1205 H1181 0.950 . S
C1205 C1204 1.524 . S
C1205 C1206 1.415 . S
C1206 H1182 0.950 . S
C1206 C1201 1.363 . S
C1206 C1205 1.415 . S
C1207 H1183 0.951 . S
C1207 C1208 1.366 . S
C1207 C1209 1.388 . S
C1208 C1207 1.366 . S
C1208 C1212 1.385 . S
C1209 H1184 0.951 . S
C1209 C1207 1.388 . S
C1209 C1210 1.366 . S
C1210 C1209 1.366 . S
C1210 C1211 1.414 . S
C1210 C1213 1.499 . S
C1211 H1185 0.950 . S
C1211 C1210 1.414 . S
C1211 C1212 1.374 . S
C1212 H1186 0.950 . S
C1212 C1208 1.385 . S
C1212 C1211 1.374 . S
C1213 C1210 1.499 . S
C1213 C1214 1.373 . S
C1213 C1215 1.389 . S
C1214 H1187 0.950 . S
C1214 C1200 1.377 . S
C1214 C1213 1.373 . S
C1215 C1199 1.377 . S
C1215 C1213 1.389 . S
C1215 C1216 1.524 . S
C1216 C1215 1.524 . S
C1216 C1217 1.397 . S
C1216 C1221 1.363 . S
C1217 H1188 0.950 . S
C1217 C1216 1.397 . S
C1217 C1218 1.334 . S
C1218 H1189 0.950 . S
C1218 C1217 1.334 . S
C1218 C1219 1.287 . S
C1219 C1218 1.287 . S
C1219 C1220 1.524 . S
C1219 H1222 0.999 . S
C1220 H1190 0.950 . S
C1220 C1219 1.524 . S
C1220 C1221 1.415 . S
C1221 H1191 0.950 . S
C1221 C1216 1.363 . S
C1221 C1220 1.415 . S
H1222 C1219 0.999 . S
H1223 C1204 0.913 . S
H1224 C1242 0.951 . S
H1225 C1244 0.951 . S
H1226 C1246 0.950 . S
H1227 C1247 0.950 . S
H1228 C1249 0.950 . S
H1229 C1252 0.950 . S
H1230 C1253 0.950 . S
H1231 C1255 0.950 . S
H1232 C1256 0.950 . S
H1233 C1257 0.951 . S
H1234 C1259 0.951 . S
H1235 C1261 0.950 . S
H1236 C1262 0.950 . S
H1237 C1264 0.950 . S
H1238 C1267 0.950 . S
H1239 C1268 0.950 . S
H1240 C1270 0.950 . S
H1241 C1271 0.950 . S
C1242 H1224 0.951 . S
C1242 C1243 1.366 . S
C1242 C1244 1.388 . S
C1243 C1242 1.366 . S
C1243 C1247 1.385 . S
C1244 H1225 0.951 . S
C1244 C1242 1.388 . S
C1244 C1245 1.366 . S
C1245 C1244 1.366 . S
C1245 C1246 1.414 . S
C1245 C1248 1.499 . S
C1246 H1226 0.950 . S
C1246 C1245 1.414 . S
C1246 C1247 1.374 . S
C1247 H1227 0.950 . S
C1247 C1243 1.385 . S
C1247 C1246 1.374 . S
C1248 C1245 1.499 . S
C1248 C1249 1.373 . S
C1248 C1250 1.389 . S
C1249 H1228 0.950 . S
C1249 C1248 1.373 . S
C1249 C1265 1.377 . S
C1250 C1248 1.389 . S
C1250 C1251 1.524 . S
C1250 C1264 1.377 . S
C1251 C1250 1.524 . S
C1251 C1252 1.397 . S
C1251 C1256 1.363 . S
C1252 H1229 0.950 . S
C1252 C1251 1.397 . S
C1252 C1253 1.334 . S
C1253 H1230 0.950 . S
C1253 C1252 1.334 . S
C1253 C1254 1.287 . S
C1254 C1253 1.287 . S
C1254 C1255 1.524 . S
C1254 H1273 0.913 . S
C1255 H1231 0.950 . S
C1255 C1254 1.524 . S
C1255 C1256 1.415 . S
C1256 H1232 0.950 . S
C1256 C1251 1.363 . S
C1256 C1255 1.415 . S
C1257 H1233 0.951 . S
C1257 C1258 1.366 . S
C1257 C1259 1.388 . S
C1258 C1257 1.366 . S
C1258 C1262 1.385 . S
C1259 H1234 0.951 . S
C1259 C1257 1.388 . S
C1259 C1260 1.366 . S
C1260 C1259 1.366 . S
C1260 C1261 1.414 . S
C1260 C1263 1.499 . S
C1261 H1235 0.950 . S
C1261 C1260 1.414 . S
C1261 C1262 1.374 . S
C1262 H1236 0.950 . S
C1262 C1258 1.385 . S
C1262 C1261 1.374 . S
C1263 C1260 1.499 . S
C1263 C1264 1.373 . S
C1263 C1265 1.389 . S
C1264 H1237 0.950 . S
C1264 C1250 1.377 . S
C1264 C1263 1.373 . S
C1265 C1249 1.377 . S
C1265 C1263 1.389 . S
C1265 C1266 1.524 . S
C1266 C1265 1.524 . S
C1266 C1267 1.397 . S
C1266 C1271 1.363 . S
C1267 H1238 0.950 . S
C1267 C1266 1.397 . S
C1267 C1268 1.334 . S
C1268 H1239 0.950 . S
C1268 C1267 1.334 . S
C1268 C1269 1.287 . S
C1269 C1268 1.287 . S
C1269 C1270 1.524 . S
C1269 H1272 0.999 . S
C1270 H1240 0.950 . S
C1270 C1269 1.524 . S
C1270 C1271 1.415 . S
C1271 H1241 0.950 . S
C1271 C1266 1.363 . S
C1271 C1270 1.415 . S
H1272 C1269 0.999 . S
H1273 C1254 0.913 . S
H1274 C1292 0.951 . S
H1275 C1294 0.951 . S
H1276 C1296 0.950 . S
H1277 C1297 0.950 . S
H1278 C1299 0.950 . S
H1279 C1302 0.950 . S
H1280 C1303 0.950 . S
H1281 C1305 0.950 . S
H1282 C1306 0.950 . S
H1283 C1307 0.951 . S
H1284 C1309 0.951 . S
H1285 C1311 0.950 . S
H1286 C1312 0.950 . S
H1287 C1314 0.950 . S
H1288 C1317 0.950 . S
H1289 C1318 0.950 . S
H1290 C1320 0.950 . S
H1291 C1321 0.950 . S
C1292 H1274 0.951 . S
C1292 C1293 1.366 . S
C1292 C1294 1.388 . S
C1293 C1292 1.366 . S
C1293 C1297 1.385 . S
C1294 H1275 0.951 . S
C1294 C1292 1.388 . S
C1294 C1295 1.366 . S
C1295 C1294 1.366 . S
C1295 C1296 1.414 . S
C1295 C1298 1.499 . S
C1296 H1276 0.950 . S
C1296 C1295 1.414 . S
C1296 C1297 1.374 . S
C1297 H1277 0.950 . S
C1297 C1293 1.385 . S
C1297 C1296 1.374 . S
C1298 C1295 1.499 . S
C1298 C1299 1.373 . S
C1298 C1300 1.389 . S
C1299 H1278 0.950 . S
C1299 C1298 1.373 . S
C1299 C1315 1.377 . S
C1300 C1298 1.389 . S
C1300 C1301 1.524 . S
C1300 C1314 1.377 . S
C1301 C1300 1.524 . S
C1301 C1302 1.397 . S
C1301 C1306 1.363 . S
C1302 H1279 0.950 . S
C1302 C1301 1.397 . S
C1302 C1303 1.334 . S
C1303 H1280 0.950 . S
C1303 C1302 1.334 . S
C1303 C1304 1.287 . S
C1304 C1303 1.287 . S
C1304 C1305 1.524 . S
C1304 H1323 0.913 . S
C1305 H1281 0.950 . S
C1305 C1304 1.524 . S
C1305 C1306 1.415 . S
C1306 H1282 0.950 . S
C1306 C1301 1.363 . S
C1306 C1305 1.415 . S
C1307 H1283 0.951 . S
C1307 C1308 1.366 . S
C1307 C1309 1.388 . S
C1308 C1307 1.366 . S
C1308 C1312 1.385 . S
C1309 H1284 0.951 . S
C1309 C1307 1.388 . S
C1309 C1310 1.366 . S
C1310 C1309 1.366 . S
C1310 C1311 1.414 . S
C1310 C1313 1.499 . S
C1311 H1285 0.950 . S
C1311 C1310 1.414 . S
C1311 C1312 1.374 . S
C1312 H1286 0.950 . S
C1312 C1308 1.385 . S
C1312 C1311 1.374 . S
C1313 C1310 1.499 . S
C1313 C1314 1.373 . S
C1313 C1315 1.389 . S
C1314 H1287 0.950 . S
C1314 C1300 1.377 . S
C1314 C1313 1.373 . S
C1315 C1299 1.377 . S
C1315 C1313 1.389 . S
C1315 C1316 1.524 . S
C1316 C1315 1.524 . S
C1316 C1317 1.397 . S
C1316 C1321 1.363 . S
C1317 H1288 0.950 . S
C1317 C1316 1.397 . S
C1317 C1318 1.334 . S
C1318 H1289 0.950 . S
C1318 C1317 1.334 . S
C1318 C1319 1.287 . S
C1319 C1318 1.287 . S
C1319 C1320 1.524 . S
C1319 H1322 0.999 . S
C1320 H1290 0.950 . S
C1320 C1319 1.524 . S
C1320 C1321 1.415 . S
C1321 H1291 0.950 . S
C1321 C1316 1.363 . S
C1321 C1320 1.415 . S
H1322 C1319 0.999 . S
H1323 C1304 0.913 . S
H1324 C1342 0.951 . S
H1325 C1344 0.951 . S
H1326 C1346 0.950 . S
H1327 C1347 0.950 . S
H1328 C1349 0.950 . S
H1329 C1352 0.950 . S
H1330 C1353 0.950 . S
H1331 C1355 0.950 . S
H1332 C1356 0.950 . S
H1333 C1357 0.951 . S
H1334 C1359 0.951 . S
H1335 C1361 0.950 . S
H1336 C1362 0.950 . S
H1337 C1364 0.950 . S
H1338 C1367 0.950 . S
H1339 C1368 0.950 . S
H1340 C1370 0.950 . S
H1341 C1371 0.950 . S
C1342 H1324 0.951 . S
C1342 C1343 1.366 . S
C1342 C1344 1.388 . S
C1343 C1342 1.366 . S
C1343 C1347 1.385 . S
C1344 H1325 0.951 . S
C1344 C1342 1.388 . S
C1344 C1345 1.366 . S
C1345 C1344 1.366 . S
C1345 C1346 1.414 . S
C1345 C1348 1.499 . S
C1346 H1326 0.950 . S
C1346 C1345 1.414 . S
C1346 C1347 1.374 . S
C1347 H1327 0.950 . S
C1347 C1343 1.385 . S
C1347 C1346 1.374 . S
C1348 C1345 1.499 . S
C1348 C1349 1.373 . S
C1348 C1350 1.389 . S
C1349 H1328 0.950 . S
C1349 C1348 1.373 . S
C1349 C1365 1.377 . S
C1350 C1348 1.389 . S
C1350 C1351 1.524 . S
C1350 C1364 1.377 . S
C1351 C1350 1.524 . S
C1351 C1352 1.397 . S
C1351 C1356 1.363 . S
C1352 H1329 0.950 . S
C1352 C1351 1.397 . S
C1352 C1353 1.334 . S
C1353 H1330 0.950 . S
C1353 C1352 1.334 . S
C1353 C1354 1.287 . S
C1354 C1353 1.287 . S
C1354 C1355 1.524 . S
C1354 H1373 0.913 . S
C1355 H1331 0.950 . S
C1355 C1354 1.524 . S
C1355 C1356 1.415 . S
C1356 H1332 0.950 . S
C1356 C1351 1.363 . S
C1356 C1355 1.415 . S
C1357 H1333 0.951 . S
C1357 C1358 1.366 . S
C1357 C1359 1.388 . S
C1358 C1357 1.366 . S
C1358 C1362 1.385 . S
C1359 H1334 0.951 . S
C1359 C1357 1.388 . S
C1359 C1360 1.366 . S
C1360 C1359 1.366 . S
C1360 C1361 1.414 . S
C1360 C1363 1.499 . S
C1361 H1335 0.950 . S
C1361 C1360 1.414 . S
C1361 C1362 1.374 . S
C1362 H1336 0.950 . S
C1362 C1358 1.385 . S
C1362 C1361 1.374 . S
C1363 C1360 1.499 . S
C1363 C1364 1.373 . S
C1363 C1365 1.389 . S
C1364 H1337 0.950 . S
C1364 C1350 1.377 . S
C1364 C1363 1.373 . S
C1365 C1349 1.377 . S
C1365 C1363 1.389 . S
C1365 C1366 1.524 . S
C1366 C1365 1.524 . S
C1366 C1367 1.397 . S
C1366 C1371 1.363 . S
C1367 H1338 0.950 . S
C1367 C1366 1.397 . S
C1367 C1368 1.334 . S
C1368 H1339 0.950 . S
C1368 C1367 1.334 . S
C1368 C1369 1.287 . S
C1369 C1368 1.287 . S
C1369 C1370 1.524 . S
C1369 H1372 0.999 . S
C1370 H1340 0.950 . S
C1370 C1369 1.524 . S
C1370 C1371 1.415 . S
C1371 H1341 0.950 . S
C1371 C1366 1.363 . S
C1371 C1370 1.415 . S
H1372 C1369 0.999 . S
H1373 C1354 0.913 . S
H1374 C1392 0.951 . S
H1375 C1394 0.951 . S
H1376 C1396 0.950 . S
H1377 C1397 0.950 . S
H1378 C1399 0.950 . S
H1379 C1402 0.950 . S
H1380 C1403 0.950 . S
H1381 C1405 0.950 . S
H1382 C1406 0.950 . S
H1383 C1407 0.951 1_455 S
H1384 C1409 0.951 . S
H1385 C1411 0.950 . S
H1386 C1412 0.950 . S
H1387 C1414 0.950 . S
H1388 C1417 0.950 . S
H1389 C1418 0.950 . S
H1390 C1420 0.950 . S
H1391 C1421 0.950 . S
C1392 H1374 0.951 . S
C1392 C1393 1.366 . S
C1392 C1394 1.388 . S
C1393 C1392 1.366 . S
C1393 C1397 1.385 . S
C1394 H1375 0.951 . S
C1394 C1392 1.388 . S
C1394 C1395 1.366 . S
C1395 C1394 1.366 . S
C1395 C1396 1.414 . S
C1395 C1398 1.499 . S
C1396 H1376 0.950 . S
C1396 C1395 1.414 . S
C1396 C1397 1.374 . S
C1397 H1377 0.950 . S
C1397 C1393 1.385 . S
C1397 C1396 1.374 . S
C1398 C1395 1.499 . S
C1398 C1399 1.373 . S
C1398 C1400 1.389 . S
C1399 H1378 0.950 . S
C1399 C1398 1.373 . S
C1399 C1415 1.377 . S
C1400 C1398 1.389 . S
C1400 C1401 1.524 . S
C1400 C1414 1.377 . S
C1401 C1400 1.524 . S
C1401 C1402 1.397 . S
C1401 C1406 1.363 . S
C1402 H1379 0.950 . S
C1402 C1401 1.397 . S
C1402 C1403 1.334 . S
C1403 H1380 0.950 . S
C1403 C1402 1.334 . S
C1403 C1404 1.287 . S
C1404 C1403 1.287 . S
C1404 C1405 1.524 . S
C1404 H1423 0.913 . S
C1405 H1381 0.950 . S
C1405 C1404 1.524 . S
C1405 C1406 1.415 . S
C1406 H1382 0.950 . S
C1406 C1401 1.363 . S
C1406 C1405 1.415 . S
C1407 H1383 0.951 1_655 S
C1407 C1408 1.366 . S
C1407 C1409 1.388 . S
C1408 C1407 1.366 . S
C1408 C1412 1.385 . S
C1409 H1384 0.951 . S
C1409 C1407 1.388 . S
C1409 C1410 1.366 . S
C1410 C1409 1.366 . S
C1410 C1411 1.414 . S
C1410 C1413 1.499 . S
C1411 H1385 0.950 . S
C1411 C1410 1.414 . S
C1411 C1412 1.374 . S
C1412 H1386 0.950 . S
C1412 C1408 1.385 . S
C1412 C1411 1.374 . S
C1413 C1410 1.499 . S
C1413 C1414 1.373 . S
C1413 C1415 1.389 . S
C1414 H1387 0.950 . S
C1414 C1400 1.377 . S
C1414 C1413 1.373 . S
C1415 C1399 1.377 . S
C1415 C1413 1.389 . S
C1415 C1416 1.524 . S
C1416 C1415 1.524 . S
C1416 C1417 1.397 . S
C1416 C1421 1.363 . S
C1417 H1388 0.950 . S
C1417 C1416 1.397 . S
C1417 C1418 1.334 . S
C1418 H1389 0.950 . S
C1418 C1417 1.334 . S
C1418 C1419 1.287 1_655 S
C1419 C1418 1.287 1_455 S
C1419 C1420 1.524 . S
C1419 H1422 0.999 . S
C1420 H1390 0.950 . S
C1420 C1419 1.524 . S
C1420 C1421 1.415 1_455 S
C1421 H1391 0.950 . S
C1421 C1416 1.363 . S
C1421 C1420 1.415 1_655 S
H1422 C1419 0.999 . S
H1423 C1404 0.913 . S
H1424 C1442 0.951 . S
H1425 C1444 0.951 . S
H1426 C1446 0.950 . S
H1427 C1447 0.950 . S
H1428 C1449 0.950 . S
H1429 C1452 0.950 . S
H1430 C1453 0.950 . S
H1431 C1455 0.950 . S
H1432 C1456 0.950 . S
H1433 C1457 0.951 . S
H1434 C1459 0.951 . S
H1435 C1461 0.950 . S
H1436 C1462 0.950 . S
H1437 C1464 0.950 . S
H1438 C1467 0.950 . S
H1439 C1468 0.950 . S
H1440 C1470 0.950 . S
H1441 C1471 0.950 . S
C1442 H1424 0.951 . S
C1442 C1443 1.366 . S
C1442 C1444 1.388 . S
C1443 C1442 1.366 . S
C1443 C1447 1.385 . S
C1444 H1425 0.951 . S
C1444 C1442 1.388 . S
C1444 C1445 1.366 . S
C1445 C1444 1.366 . S
C1445 C1446 1.414 . S
C1445 C1448 1.499 . S
C1446 H1426 0.950 . S
C1446 C1445 1.414 . S
C1446 C1447 1.374 . S
C1447 H1427 0.950 . S
C1447 C1443 1.385 . S
C1447 C1446 1.374 . S
C1448 C1445 1.499 . S
C1448 C1449 1.373 . S
C1448 C1450 1.389 . S
C1449 H1428 0.950 . S
C1449 C1448 1.373 . S
C1449 C1465 1.377 . S
C1450 C1448 1.389 . S
C1450 C1451 1.524 . S
C1450 C1464 1.377 . S
C1451 C1450 1.524 . S
C1451 C1452 1.397 . S
C1451 C1456 1.363 . S
C1452 H1429 0.950 . S
C1452 C1451 1.397 . S
C1452 C1453 1.334 . S
C1453 H1430 0.950 . S
C1453 C1452 1.334 . S
C1453 C1454 1.287 . S
C1454 C1453 1.287 . S
C1454 C1455 1.524 . S
C1454 H1473 0.913 . S
C1455 H1431 0.950 . S
C1455 C1454 1.524 . S
C1455 C1456 1.415 . S
C1456 H1432 0.950 . S
C1456 C1451 1.363 . S
C1456 C1455 1.415 . S
C1457 H1433 0.951 . S
C1457 C1458 1.366 . S
C1457 C1459 1.388 . S
C1458 C1457 1.366 . S
C1458 C1462 1.385 . S
C1459 H1434 0.951 . S
C1459 C1457 1.388 . S
C1459 C1460 1.366 . S
C1460 C1459 1.366 . S
C1460 C1461 1.414 . S
C1460 C1463 1.499 . S
C1461 H1435 0.950 . S
C1461 C1460 1.414 . S
C1461 C1462 1.374 . S
C1462 H1436 0.950 . S
C1462 C1458 1.385 . S
C1462 C1461 1.374 . S
C1463 C1460 1.499 . S
C1463 C1464 1.373 . S
C1463 C1465 1.389 . S
C1464 H1437 0.950 . S
C1464 C1450 1.377 . S
C1464 C1463 1.373 . S
C1465 C1449 1.377 . S
C1465 C1463 1.389 . S
C1465 C1466 1.524 . S
C1466 C1465 1.524 . S
C1466 C1467 1.397 . S
C1466 C1471 1.363 . S
C1467 H1438 0.950 . S
C1467 C1466 1.397 . S
C1467 C1468 1.334 . S
C1468 H1439 0.950 . S
C1468 C1467 1.334 . S
C1468 C1469 1.287 . S
C1469 C1468 1.287 . S
C1469 C1470 1.524 . S
C1469 H1472 0.999 . S
C1470 H1440 0.950 . S
C1470 C1469 1.524 . S
C1470 C1471 1.415 . S
C1471 H1441 0.950 . S
C1471 C1466 1.363 . S
C1471 C1470 1.415 . S
H1472 C1469 0.999 . S
H1473 C1454 0.913 . S
H1474 C1492 0.951 . S
H1475 C1494 0.951 . S
H1476 C1496 0.950 . S
H1477 C1497 0.950 . S
H1478 C1499 0.950 . S
H1479 C1502 0.950 . S
H1480 C1503 0.950 . S
H1481 C1505 0.950 . S
H1482 C1506 0.950 . S
H1483 C1507 0.951 . S
H1484 C1509 0.951 . S
H1485 C1511 0.950 . S
H1486 C1512 0.950 . S
H1487 C1514 0.950 . S
H1488 C1517 0.950 . S
H1489 C1518 0.950 . S
H1490 C1520 0.950 . S
H1491 C1521 0.950 . S
C1492 H1474 0.951 . S
C1492 C1493 1.366 . S
C1492 C1494 1.388 . S
C1493 C1492 1.366 . S
C1493 C1497 1.385 . S
C1494 H1475 0.951 . S
C1494 C1492 1.388 . S
C1494 C1495 1.366 . S
C1495 C1494 1.366 . S
C1495 C1496 1.414 . S
C1495 C1498 1.499 . S
C1496 H1476 0.950 . S
C1496 C1495 1.414 . S
C1496 C1497 1.374 . S
C1497 H1477 0.950 . S
C1497 C1493 1.385 . S
C1497 C1496 1.374 . S
C1498 C1495 1.499 . S
C1498 C1499 1.373 . S
C1498 C1500 1.389 . S
C1499 H1478 0.950 . S
C1499 C1498 1.373 . S
C1499 C1515 1.377 . S
C1500 C1498 1.389 . S
C1500 C1501 1.524 . S
C1500 C1514 1.377 . S
C1501 C1500 1.524 . S
C1501 C1502 1.397 . S
C1501 C1506 1.363 . S
C1502 H1479 0.950 . S
C1502 C1501 1.397 . S
C1502 C1503 1.334 . S
C1503 H1480 0.950 . S
C1503 C1502 1.334 . S
C1503 C1504 1.287 . S
C1504 C1503 1.287 . S
C1504 C1505 1.524 . S
C1504 H1523 0.913 . S
C1505 H1481 0.950 . S
C1505 C1504 1.524 . S
C1505 C1506 1.415 . S
C1506 H1482 0.950 . S
C1506 C1501 1.363 . S
C1506 C1505 1.415 . S
C1507 H1483 0.951 . S
C1507 C1508 1.366 . S
C1507 C1509 1.388 . S
C1508 C1507 1.366 . S
C1508 C1512 1.385 . S
C1509 H1484 0.951 . S
C1509 C1507 1.388 . S
C1509 C1510 1.366 . S
C1510 C1509 1.366 . S
C1510 C1511 1.414 . S
C1510 C1513 1.499 . S
C1511 H1485 0.950 . S
C1511 C1510 1.414 . S
C1511 C1512 1.374 . S
C1512 H1486 0.950 . S
C1512 C1508 1.385 . S
C1512 C1511 1.374 . S
C1513 C1510 1.499 . S
C1513 C1514 1.373 . S
C1513 C1515 1.389 . S
C1514 H1487 0.950 . S
C1514 C1500 1.377 . S
C1514 C1513 1.373 . S
C1515 C1499 1.377 . S
C1515 C1513 1.389 . S
C1515 C1516 1.524 . S
C1516 C1515 1.524 . S
C1516 C1517 1.397 . S
C1516 C1521 1.363 . S
C1517 H1488 0.950 . S
C1517 C1516 1.397 . S
C1517 C1518 1.334 . S
C1518 H1489 0.950 . S
C1518 C1517 1.334 . S
C1518 C1519 1.287 . S
C1519 C1518 1.287 . S
C1519 C1520 1.524 . S
C1519 H1522 0.999 . S
C1520 H1490 0.950 . S
C1520 C1519 1.524 . S
C1520 C1521 1.415 . S
C1521 H1491 0.950 . S
C1521 C1516 1.363 . S
C1521 C1520 1.415 . S
H1522 C1519 0.999 . S
H1523 C1504 0.913 . S
H1524 C1542 0.951 . S
H1525 C1544 0.951 . S
H1526 C1546 0.950 . S
H1527 C1547 0.950 . S
H1528 C1549 0.950 . S
H1529 C1552 0.950 . S
H1530 C1553 0.950 . S
H1531 C1555 0.950 . S
H1532 C1556 0.950 . S
H1533 C1557 0.951 . S
H1534 C1559 0.951 . S
H1535 C1561 0.950 . S
H1536 C1562 0.950 . S
H1537 C1564 0.950 . S
H1538 C1567 0.950 . S
H1539 C1568 0.950 . S
H1540 C1570 0.950 . S
H1541 C1571 0.950 . S
C1542 H1524 0.951 . S
C1542 C1543 1.366 . S
C1542 C1544 1.388 . S
C1543 C1542 1.366 . S
C1543 C1547 1.385 . S
C1544 H1525 0.951 . S
C1544 C1542 1.388 . S
C1544 C1545 1.366 . S
C1545 C1544 1.366 . S
C1545 C1546 1.414 . S
C1545 C1548 1.499 . S
C1546 H1526 0.950 . S
C1546 C1545 1.414 . S
C1546 C1547 1.374 . S
C1547 H1527 0.950 . S
C1547 C1543 1.385 . S
C1547 C1546 1.374 . S
C1548 C1545 1.499 . S
C1548 C1549 1.373 . S
C1548 C1550 1.389 . S
C1549 H1528 0.950 . S
C1549 C1548 1.373 . S
C1549 C1565 1.377 . S
C1550 C1548 1.389 . S
C1550 C1551 1.524 . S
C1550 C1564 1.377 . S
C1551 C1550 1.524 . S
C1551 C1552 1.397 . S
C1551 C1556 1.363 . S
C1552 H1529 0.950 . S
C1552 C1551 1.397 . S
C1552 C1553 1.334 . S
C1553 H1530 0.950 . S
C1553 C1552 1.334 . S
C1553 C1554 1.287 . S
C1554 C1553 1.287 . S
C1554 C1555 1.524 . S
C1554 H1573 0.913 . S
C1555 H1531 0.950 . S
C1555 C1554 1.524 . S
C1555 C1556 1.415 . S
C1556 H1532 0.950 . S
C1556 C1551 1.363 . S
C1556 C1555 1.415 . S
C1557 H1533 0.951 . S
C1557 C1558 1.366 . S
C1557 C1559 1.388 . S
C1558 C1557 1.366 . S
C1558 C1562 1.385 . S
C1559 H1534 0.951 . S
C1559 C1557 1.388 . S
C1559 C1560 1.366 . S
C1560 C1559 1.366 . S
C1560 C1561 1.414 . S
C1560 C1563 1.499 . S
C1561 H1535 0.950 . S
C1561 C1560 1.414 . S
C1561 C1562 1.374 . S
C1562 H1536 0.950 . S
C1562 C1558 1.385 . S
C1562 C1561 1.374 . S
C1563 C1560 1.499 . S
C1563 C1564 1.373 . S
C1563 C1565 1.389 . S
C1564 H1537 0.950 . S
C1564 C1550 1.377 . S
C1564 C1563 1.373 . S
C1565 C1549 1.377 . S
C1565 C1563 1.389 . S
C1565 C1566 1.524 . S
C1566 C1565 1.524 . S
C1566 C1567 1.397 . S
C1566 C1571 1.363 . S
C1567 H1538 0.950 . S
C1567 C1566 1.397 . S
C1567 C1568 1.334 . S
C1568 H1539 0.950 . S
C1568 C1567 1.334 . S
C1568 C1569 1.287 . S
C1569 C1568 1.287 . S
C1569 C1570 1.524 . S
C1569 H1572 0.999 . S
C1570 H1540 0.950 . S
C1570 C1569 1.524 . S
C1570 C1571 1.415 . S
C1571 H1541 0.950 . S
C1571 C1566 1.363 . S
C1571 C1570 1.415 . S
H1572 C1569 0.999 . S
H1573 C1554 0.913 . S
H1574 C1592 0.951 . S
H1575 C1594 0.951 . S
H1576 C1596 0.950 . S
H1577 C1597 0.950 . S
H1578 C1599 0.950 . S
H1579 C1602 0.950 . S
H1580 C1603 0.950 . S
H1581 C1605 0.950 . S
H1582 C1606 0.950 . S
H1583 C1607 0.951 . S
H1584 C1609 0.951 . S
H1585 C1611 0.950 . S
H1586 C1612 0.950 . S
H1587 C1614 0.950 . S
H1588 C1617 0.950 . S
H1589 C1618 0.950 . S
H1590 C1620 0.950 . S
H1591 C1621 0.950 . S
C1592 H1574 0.951 . S
C1592 C1593 1.366 . S
C1592 C1594 1.388 . S
C1593 C1592 1.366 . S
C1593 C1597 1.385 . S
C1594 H1575 0.951 . S
C1594 C1592 1.388 . S
C1594 C1595 1.366 . S
C1595 C1594 1.366 . S
C1595 C1596 1.414 . S
C1595 C1598 1.499 . S
C1596 H1576 0.950 . S
C1596 C1595 1.414 . S
C1596 C1597 1.374 . S
C1597 H1577 0.950 . S
C1597 C1593 1.385 . S
C1597 C1596 1.374 . S
C1598 C1595 1.499 . S
C1598 C1599 1.373 . S
C1598 C1600 1.389 . S
C1599 H1578 0.950 . S
C1599 C1598 1.373 . S
C1599 C1615 1.377 . S
C1600 C1598 1.389 . S
C1600 C1601 1.524 . S
C1600 C1614 1.377 . S
C1601 C1600 1.524 . S
C1601 C1602 1.397 . S
C1601 C1606 1.363 . S
C1602 H1579 0.950 . S
C1602 C1601 1.397 . S
C1602 C1603 1.334 . S
C1603 H1580 0.950 . S
C1603 C1602 1.334 . S
C1603 C1604 1.287 . S
C1604 C1603 1.287 . S
C1604 C1605 1.524 . S
C1604 H1623 0.913 . S
C1605 H1581 0.950 . S
C1605 C1604 1.524 . S
C1605 C1606 1.415 . S
C1606 H1582 0.950 . S
C1606 C1601 1.363 . S
C1606 C1605 1.415 . S
C1607 H1583 0.951 . S
C1607 C1608 1.366 . S
C1607 C1609 1.388 . S
C1608 C1607 1.366 . S
C1608 C1612 1.385 . S
C1609 H1584 0.951 . S
C1609 C1607 1.388 . S
C1609 C1610 1.366 . S
C1610 C1609 1.366 . S
C1610 C1611 1.414 . S
C1610 C1613 1.499 . S
C1611 H1585 0.950 . S
C1611 C1610 1.414 . S
C1611 C1612 1.374 . S
C1612 H1586 0.950 . S
C1612 C1608 1.385 . S
C1612 C1611 1.374 . S
C1613 C1610 1.499 . S
C1613 C1614 1.373 . S
C1613 C1615 1.389 . S
C1614 H1587 0.950 . S
C1614 C1600 1.377 . S
C1614 C1613 1.373 . S
C1615 C1599 1.377 . S
C1615 C1613 1.389 . S
C1615 C1616 1.524 . S
C1616 C1615 1.524 . S
C1616 C1617 1.397 . S
C1616 C1621 1.363 . S
C1617 H1588 0.950 . S
C1617 C1616 1.397 . S
C1617 C1618 1.334 . S
C1618 H1589 0.950 . S
C1618 C1617 1.334 . S
C1618 C1619 1.287 . S
C1619 C1618 1.287 . S
C1619 C1620 1.524 . S
C1619 H1622 0.999 . S
C1620 H1590 0.950 . S
C1620 C1619 1.524 . S
C1620 C1621 1.415 . S
C1621 H1591 0.950 . S
C1621 C1616 1.363 . S
C1621 C1620 1.415 . S
H1622 C1619 0.999 . S
H1623 C1604 0.913 . S
C443 C71 1.681 . S
C458 C162 1.663 . S
C508 C246 1.633 . S
C493 C81 1.648 . S
C558 C239 1.672 . S
C543 C49 1.672 . S
C593 C59 1.640 . S
C608 C155 1.640 . S
C658 C319 1.664 . S
C643 C27 1.678 . S
C708 C403 1.708 . S
C693 C38 1.723 . S
C743 C5 1.669 . S
C758 C396 1.671 . S
C793 C16 1.715 . S
C808 C312 1.719 . S
C858 C146 1.419 . S
C843 C15 1.574 . S
C908 C230 1.434 . S
C893 C4 1.588 . S
C958 C241 1.390 . S
C943 C37 1.585 . S
C1008 C157 1.399 . S
C993 C26 1.598 . S
C1058 C325 1.485 . S
C1043 C60 1.629 . S
C1093 C48 1.664 . S
C1108 C409 1.503 . S
C1158 C398 1.447 . S
C1143 C82 1.640 . S
C1193 C70 1.674 . S
C1208 C314 1.462 . S
C1258 C144 1.511 . S
C1243 C10 1.502 . S
C1308 C228 1.570 . S
C1293 C21 1.562 . S
C1343 C32 1.498 . S
C1358 C235 1.483 . S
C1408 C151 1.539 . S
C1393 C43 1.558 . S
C1458 C323 1.622 . S
C1443 C54 1.608 . S
C1493 C65 1.563 . S
C1508 C407 1.561 . S
C1543 C76 1.608 . S
C1558 C414 1.597 . S
C1593 C87 1.558 . S
C1608 C330 1.532 . S
