# Generated by pormake.
# Topology pyr, (3,6)-cn, num edge types: 1
# Building blocks:
#     Node 0, Type 0, BuildingBlock: BELTOD_clean_linker_0, # of connection points: 3
#     Node 1, Type 0, BuildingBlock: BELTOD_clean_linker_0, # of connection points: 3
#     Node 2, Type 0, BuildingBlock: BELTOD_clean_linker_0, # of connection points: 3
#     Node 3, Type 0, BuildingBlock: BELTOD_clean_linker_0, # of connection points: 3
#     Node 4, Type 0, BuildingBlock: BELTOD_clean_linker_0, # of connection points: 3
#     Node 5, Type 0, BuildingBlock: BELTOD_clean_linker_0, # of connection points: 3
#     Node 6, Type 0, BuildingBlock: BELTOD_clean_linker_0, # of connection points: 3
#     Node 7, Type 0, BuildingBlock: BELTOD_clean_linker_0, # of connection points: 3
#     Node 8, Type 1, BuildingBlock: VOLQOD_clean_sbu_1, # of connection points: 6
#     Node 9, Type 1, BuildingBlock: VOLQOD_clean_sbu_1, # of connection points: 6
#     Node 10, Type 1, BuildingBlock: VOLQOD_clean_sbu_1, # of connection points: 6
#     Node 11, Type 1, BuildingBlock: VOLQOD_clean_sbu_1, # of connection points: 6
#     Edge 12, Type (0, 1), BuildingBlock: AJUNOK_clean_linker_0, # of connection points: 2
#     Edge 13, Type (0, 1), BuildingBlock: AJUNOK_clean_linker_0, # of connection points: 2
#     Edge 14, Type (0, 1), BuildingBlock: AJUNOK_clean_linker_0, # of connection points: 2
#     Edge 15, Type (0, 1), BuildingBlock: AJUNOK_clean_linker_0, # of connection points: 2
#     Edge 16, Type (0, 1), BuildingBlock: AJUNOK_clean_linker_0, # of connection points: 2
#     Edge 17, Type (0, 1), BuildingBlock: AJUNOK_clean_linker_0, # of connection points: 2
#     Edge 18, Type (0, 1), BuildingBlock: AJUNOK_clean_linker_0, # of connection points: 2
#     Edge 19, Type (0, 1), BuildingBlock: AJUNOK_clean_linker_0, # of connection points: 2
#     Edge 20, Type (0, 1), BuildingBlock: AJUNOK_clean_linker_0, # of connection points: 2
#     Edge 21, Type (0, 1), BuildingBlock: AJUNOK_clean_linker_0, # of connection points: 2
#     Edge 22, Type (0, 1), BuildingBlock: AJUNOK_clean_linker_0, # of connection points: 2
#     Edge 23, Type (0, 1), BuildingBlock: AJUNOK_clean_linker_0, # of connection points: 2
#     Edge 24, Type (0, 1), BuildingBlock: AJUNOK_clean_linker_0, # of connection points: 2
#     Edge 25, Type (0, 1), BuildingBlock: AJUNOK_clean_linker_0, # of connection points: 2
#     Edge 26, Type (0, 1), BuildingBlock: AJUNOK_clean_linker_0, # of connection points: 2
#     Edge 27, Type (0, 1), BuildingBlock: AJUNOK_clean_linker_0, # of connection points: 2
#     Edge 28, Type (0, 1), BuildingBlock: AJUNOK_clean_linker_0, # of connection points: 2
#     Edge 29, Type (0, 1), BuildingBlock: AJUNOK_clean_linker_0, # of connection points: 2
#     Edge 30, Type (0, 1), BuildingBlock: AJUNOK_clean_linker_0, # of connection points: 2
#     Edge 31, Type (0, 1), BuildingBlock: AJUNOK_clean_linker_0, # of connection points: 2
#     Edge 32, Type (0, 1), BuildingBlock: AJUNOK_clean_linker_0, # of connection points: 2
#     Edge 33, Type (0, 1), BuildingBlock: AJUNOK_clean_linker_0, # of connection points: 2
#     Edge 34, Type (0, 1), BuildingBlock: AJUNOK_clean_linker_0, # of connection points: 2
#     Edge 35, Type (0, 1), BuildingBlock: AJUNOK_clean_linker_0, # of connection points: 2
# Relax obj value: 0.036
# Max RMSD: 0.117
# Mean RMSD: 0.050
data_MOF--net-pry--node1-VOLQOD_clean_sbu_1--node2-BELTOD_clean_linker_0--edge1-AJUNOK_clean_linker_0
_symmetry_space_group_name_H-M    P1
_symmetry_Int_Tables_number       1
_symmetry_cell_setting            triclinic
loop_
_symmetry_equiv_pos_as_xyz
'x, y, z'
_cell_length_a     32.780766
_cell_length_b     33.114188
_cell_length_c     32.665299
_cell_angle_alpha  89.857859
_cell_angle_beta   90.314696
_cell_angle_gamma 90.184213
loop_
_atom_site_label
_atom_site_type_symbol
_atom_site_fract_x
_atom_site_fract_y
_atom_site_fract_z
_atom_type_partial_charge
P0 P 0.17342 0.17559 0.1771 0.0
H1 H 0.2451 0.1928 0.12862 0.0
H2 H 0.29185 0.14993 0.09044 0.0
H3 H 0.2156 0.04629 0.11569 0.0
H4 H 0.16923 0.08928 0.1546 0.0
H5 H 0.11643 0.23715 0.20146 0.0
H6 H 0.07666 0.28639 0.16248 0.0
H7 H 0.11205 0.22834 0.04989 0.0
H8 H 0.15264 0.17964 0.08907 0.0
H9 H 0.19282 0.15923 0.26235 0.0
H10 H 0.09796 0.12749 0.17618 0.0
O11 O 0.20456 0.20817 0.20067 0.0
H12 H 0.15839 0.12085 0.31556 0.0
H13 H 0.06399 0.08699 0.22918 0.0
C14 C 0.20441 0.14402 0.14534 0.0
C15 C 0.23834 0.16088 0.1258 0.0
C16 C 0.26482 0.13644 0.10372 0.0
C17 C 0.25763 0.0947 0.10066 0.0
C18 C 0.22227 0.07824 0.11834 0.0
C19 C 0.19575 0.1028 0.14051 0.0
C20 C 0.13779 0.20521 0.14813 0.0
C21 C 0.11501 0.2346 0.16842 0.0
C22 C 0.09219 0.26258 0.14614 0.0
C23 C 0.09185 0.26154 0.10314 0.0
C24 C 0.11253 0.23029 0.08298 0.0
C25 C 0.13555 0.20236 0.10536 0.0
C26 C 0.14754 0.14667 0.21562 0.0
C27 C 0.16453 0.14391 0.25487 0.0
C28 C 0.14498 0.1216 0.28519 0.0
C29 C 0.10835 0.10098 0.27665 0.0
C30 C 0.0917 0.1032 0.23692 0.0
C31 C 0.11115 0.12608 0.20662 0.0
P32 P 0.42482 0.91415 0.59822 0.0
H33 H 0.49921 0.93834 0.64131 0.0
H34 H 0.51428 0.95091 0.71382 0.0
H35 H 0.38912 0.92355 0.74406 0.0
H36 H 0.37416 0.91124 0.67179 0.0
H37 H 0.44559 0.87344 0.52214 0.0
H38 H 0.45809 0.80233 0.50548 0.0
H39 H 0.43991 0.77012 0.63226 0.0
H40 H 0.42777 0.84091 0.64878 0.0
H41 H 0.37815 0.98835 0.59814 0.0
H42 H 0.3547 0.86162 0.57796 0.0
O43 O 0.45306 0.94457 0.56895 0.0
H44 H 0.30533 0.00253 0.58972 0.0
H45 H 0.28229 0.87578 0.56831 0.0
C46 C 0.43545 0.92471 0.65115 0.0
C47 C 0.475 0.93535 0.66355 0.0
C48 C 0.48362 0.94219 0.70491 0.0
C49 C 0.45282 0.93807 0.73441 0.0
C50 C 0.41326 0.92727 0.72184 0.0
C51 C 0.40472 0.92032 0.68055 0.0
C52 C 0.43691 0.86253 0.58683 0.0
C53 C 0.44494 0.8511 0.54641 0.0
C54 C 0.45175 0.81056 0.53688 0.0
C55 C 0.45055 0.78096 0.56773 0.0
C56 C 0.44198 0.79251 0.60812 0.0
C57 C 0.43504 0.83297 0.61756 0.0
C58 C 0.37187 0.92412 0.5882 0.0
C59 C 0.3574 0.9637 0.59138 0.0
C60 C 0.31587 0.97172 0.58665 0.0
C61 C 0.28815 0.94018 0.57877 0.0
C62 C 0.30285 0.90054 0.57521 0.0
C63 C 0.34438 0.89253 0.58019 0.0
P64 P 0.65577 0.34576 0.85388 0.0
H65 H 0.68616 0.33461 0.93799 0.0
H66 H 0.73369 0.37363 0.97966 0.0
H67 H 0.74111 0.4633 0.88356 0.0
H68 H 0.69068 0.42627 0.84408 0.0
H69 H 0.63196 0.26528 0.8289 0.0
H70 H 0.59363 0.21132 0.86239 0.0
H71 H 0.57228 0.28886 0.96605 0.0
H72 H 0.60991 0.34362 0.9317 0.0
H73 H 0.67446 0.38481 0.77659 0.0
H74 H 0.56937 0.37033 0.85428 0.0
O75 O 0.69095 0.32161 0.82658 0.0
H76 H 0.63281 0.42096 0.72642 0.0
H77 H 0.52727 0.40634 0.80361 0.0
C78 C 0.68344 0.37817 0.88847 0.0
C79 C 0.69618 0.36376 0.92683 0.0
C80 C 0.72402 0.38585 0.95041 0.0
C81 C 0.7411 0.42192 0.93526 0.0
C82 C 0.72763 0.43657 0.89708 0.0
C83 C 0.69889 0.41505 0.87412 0.0
C84 C 0.62507 0.30783 0.87853 0.0
C85 C 0.61893 0.27084 0.85875 0.0
C86 C 0.59676 0.24016 0.8777 0.0
C87 C 0.58023 0.24607 0.91676 0.0
C88 C 0.58505 0.28367 0.93601 0.0
C89 C 0.60672 0.31471 0.91659 0.0
C90 C 0.62485 0.37437 0.81877 0.0
C91 C 0.64243 0.38953 0.7829 0.0
C92 C 0.6187 0.41036 0.7544 0.0
C93 C 0.57688 0.41616 0.76117 0.0
C94 C 0.55941 0.40185 0.79762 0.0
C95 C 0.5834 0.38133 0.82647 0.0
P96 P 0.84738 0.657 0.37299 0.0
H97 H 0.92187 0.69676 0.34728 0.0
H98 H 0.96447 0.74814 0.37956 0.0
H99 H 0.8943 0.73686 0.49055 0.0
H100 H 0.85315 0.6839 0.4589 0.0
H101 H 0.82046 0.62822 0.29355 0.0
H102 H 0.85515 0.59164 0.2391 0.0
H103 H 0.96112 0.57775 0.31694 0.0
H104 H 0.92603 0.61437 0.3717 0.0
H105 H 0.78058 0.68153 0.42463 0.0
H106 H 0.83925 0.56999 0.39122 0.0
O107 O 0.81884 0.69024 0.3473 0.0
H108 H 0.72763 0.64364 0.46036 0.0
H109 H 0.78584 0.5318 0.42679 0.0
C110 C 0.8846 0.68609 0.40076 0.0
C111 C 0.91674 0.704 0.37915 0.0
C112 C 0.94091 0.73359 0.39751 0.0
C113 C 0.93266 0.74651 0.43752 0.0
C114 C 0.90189 0.72697 0.45995 0.0
C115 C 0.87803 0.6969 0.44167 0.0
C116 C 0.8713 0.62512 0.33593 0.0
C117 C 0.85102 0.61702 0.29905 0.0
C118 C 0.87072 0.59592 0.26812 0.0
C119 C 0.91097 0.58258 0.27375 0.0
C120 C 0.93033 0.58847 0.31174 0.0
C121 C 0.91038 0.60934 0.34287 0.0
C122 C 0.81359 0.62858 0.40515 0.0
C123 C 0.78254 0.6489 0.42581 0.0
C124 C 0.75248 0.62724 0.44642 0.0
C125 C 0.75292 0.58484 0.44651 0.0
C126 C 0.78502 0.5645 0.42719 0.0
C127 C 0.81543 0.5863 0.40687 0.0
P128 P 0.92779 0.93103 0.94652 0.0
H129 H 0.8849 0.97291 0.01264 0.0
H130 H 0.81263 0.98491 0.02557 0.0
H131 H 0.7816 0.91979 0.915 0.0
H132 H 0.85375 0.91173 0.90032 0.0
H133 H -0.00013 0.89036 0.98033 0.0
H134 H 0.01651 0.81877 0.99073 0.0
H135 H 0.89621 0.78562 0.94788 0.0
H136 H 0.88026 0.85602 0.93652 0.0
H137 H 0.89462 0.98882 0.8871 0.0
H138 H 0.9886 0.89791 0.89033 0.0
O139 O 0.95662 0.96088 0.97597 0.0
H140 H 0.90765 0.00026 0.81449 0.0
H141 H 0.00324 0.91077 0.81827 0.0
C142 C 0.87466 0.9411 0.95574 0.0
C143 C 0.86249 0.96159 0.99105 0.0
C144 C 0.82105 0.96783 -0.00128 0.0
C145 C 0.79108 0.95239 0.97189 0.0
C146 C 0.80368 0.93225 0.93631 0.0
C147 C 0.84501 0.92721 0.92807 0.0
C148 C 0.93861 0.87885 0.9581 0.0
C149 C 0.97699 0.86766 0.97353 0.0
C150 C 0.9865 0.82684 0.9794 0.0
C151 C 0.95782 0.79671 0.96952 0.0
C152 C 0.91923 0.80815 0.95487 0.0
C153 C 0.90991 0.84872 0.94882 0.0
C154 C 0.93949 0.94134 0.89374 0.0
C155 C 0.91797 0.97119 0.8722 0.0
C156 C 0.9257 0.978 0.83075 0.0
C157 C 0.95576 0.95568 0.81036 0.0
C158 C 0.97882 0.92735 0.8327 0.0
C159 C 0.97066 0.92018 0.87402 0.0
P160 P 0.63462 0.1436 0.38463 0.0
H161 H 0.65433 0.19901 0.45027 0.0
H162 H 0.61386 0.25163 0.48299 0.0
H163 H 0.50507 0.20441 0.4255 0.0
H164 H 0.54503 0.15047 0.39457 0.0
H165 H 0.71181 0.11428 0.35522 0.0
H166 H 0.77051 0.0834 0.38898 0.0
H167 H 0.70556 0.08281 0.50369 0.0
H168 H 0.64653 0.11407 0.46951 0.0
H169 H 0.57284 0.16103 0.32343 0.0
H170 H 0.63642 0.05577 0.36838 0.0
O171 O 0.65676 0.17854 0.35524 0.0
H172 H 0.5421 0.12055 0.26887 0.0
H173 H 0.60709 0.0157 0.31236 0.0
C174 C 0.6029 0.17114 0.4195 0.0
C175 C 0.6215 0.19873 0.44624 0.0
C176 C 0.59842 0.22876 0.46492 0.0
C177 C 0.55657 0.2319 0.45645 0.0
C178 C 0.53736 0.20233 0.43242 0.0
C179 C 0.56036 0.17176 0.41444 0.0
C180 C 0.67531 0.11719 0.41006 0.0
C181 C 0.71009 0.10735 0.3876 0.0
C182 C 0.74349 0.08953 0.40686 0.0
C183 C 0.7427 0.08118 0.44902 0.0
C184 C 0.70715 0.08963 0.47129 0.0
C185 C 0.67347 0.10735 0.45181 0.0
C186 C 0.60655 0.11139 0.35024 0.0
C187 C 0.5793 0.12899 0.32226 0.0
C188 C 0.56173 0.10591 0.29116 0.0
C189 C 0.57204 0.0651 0.28692 0.0
C190 C 0.59842 0.04708 0.31554 0.0
C191 C 0.61526 0.07002 0.34737 0.0
P192 P 0.42282 0.57592 0.08171 0.0
H193 H 0.37898 0.55936 0.00576 0.0
H194 H 0.30636 0.55027 0.98986 0.0
H195 H 0.27773 0.56306 0.11806 0.0
H196 H 0.34999 0.57292 0.13364 0.0
H197 H 0.49922 0.6175 0.06376 0.0
H198 H 0.51624 0.68913 0.05419 0.0
H199 H 0.38888 0.71971 0.06586 0.0
H200 H 0.37215 0.64859 0.07608 0.0
H201 H 0.44211 0.50217 0.12676 0.0
H202 H 0.42525 0.62843 0.15392 0.0
O203 O 0.45165 0.54595 0.05288 0.0
H204 H 0.45375 0.48836 0.19966 0.0
H205 H 0.4377 0.61495 0.22641 0.0
C206 C 0.36994 0.56577 0.07093 0.0
C207 C 0.35708 0.55963 0.03046 0.0
C208 C 0.31567 0.55441 0.02144 0.0
C209 C 0.28653 0.55546 0.05284 0.0
C210 C 0.29956 0.56207 0.09331 0.0
C211 C 0.34093 0.56731 0.10227 0.0
C212 C 0.43441 0.6277 0.06991 0.0
C213 C 0.47496 0.63963 0.06371 0.0
C214 C 0.48465 0.68044 0.05835 0.0
C215 C 0.4539 0.70985 0.05972 0.0
C216 C 0.41323 0.69767 0.06534 0.0
C217 C 0.4036 0.65695 0.07068 0.0
C218 C 0.43387 0.56641 0.13483 0.0
C219 C 0.4416 0.52697 0.1483 0.0
C220 C 0.44833 0.51916 0.18986 0.0
C221 C 0.44723 0.55073 0.21854 0.0
C222 C 0.43885 0.59011 0.20493 0.0
C223 C 0.43209 0.59786 0.16343 0.0
P224 P 0.11163 0.40428 0.63909 0.0
H225 H 0.1506 0.32583 0.63875 0.0
H226 H 0.12887 0.25962 0.6145 0.0
H227 H 0.01879 0.31204 0.56459 0.0
H228 H 0.04081 0.37885 0.58928 0.0
H229 H 0.16833 0.47032 0.65226 0.0
H230 H 0.22364 0.49656 0.61042 0.0
H231 H 0.18066 0.42575 0.5081 0.0
H232 H 0.12426 0.40023 0.54982 0.0
H233 H 0.03328 0.37677 0.67095 0.0
H234 H 0.09907 0.48945 0.66053 0.0
O235 O 0.14217 0.39322 0.67859 0.0
H236 H 0.99426 0.4041 0.72719 0.0
H237 H 0.06176 0.51575 0.71891 0.0
C238 C 0.09663 0.35686 0.61695 0.0
C239 C 0.12179 0.32322 0.62259 0.0
C240 C 0.10948 0.28544 0.60854 0.0
C241 C 0.07186 0.28073 0.58838 0.0
C242 C 0.04752 0.31486 0.58088 0.0
C243 C 0.06009 0.35288 0.59478 0.0
C244 C 0.14223 0.43324 0.60426 0.0
C245 C 0.16943 0.46193 0.62027 0.0
C246 C 0.20115 0.47687 0.59636 0.0
C247 C 0.2065 0.46275 0.55632 0.0
C248 C 0.17712 0.43684 0.53905 0.0
C249 C 0.14496 0.42226 0.56291 0.0
C250 C 0.06963 0.43082 0.66152 0.0
C251 C 0.03794 0.40812 0.67898 0.0
C252 C 0.01573 0.42365 0.71155 0.0
C253 C 0.02611 0.4614 0.72803 0.0
C254 C 0.05348 0.48637 0.70686 0.0
C255 C 0.07508 0.47113 0.67356 0.0
O256 O 0.99724 0.09749 0.56709 0.0
Zn257 Zn 0.97526 0.04051 0.56399 0.0
O258 O 0.00975 0.00672 0.52933 0.0
Zn259 Zn 0.98001 0.99243 0.47963 0.0
Zn260 Zn 0.05805 0.03663 0.5137 0.0
Zn261 Zn 0.02664 0.95797 0.55895 0.0
O262 O 0.97741 0.93248 0.47433 0.0
O263 O 0.00647 0.90766 0.53048 0.0
O264 O 0.91778 0.04411 0.54135 0.0
O265 O 0.92245 0.01202 0.48205 0.0
O266 O 0.00587 0.01489 0.42818 0.0
O267 O 0.06397 0.03929 0.45318 0.0
O268 O 0.10892 0.0114 0.53505 0.0
O269 O 0.97273 0.01761 0.62126 0.0
O270 O 0.08816 0.95425 0.56363 0.0
O271 O 0.00466 0.95869 0.61627 0.0
C272 C 0.02955 0.11393 0.55328 0.0
C273 C 0.98807 0.90257 0.49644 0.0
C274 C 0.04068 0.03118 0.4231 0.0
C275 C 0.9017 0.0316 0.5081 0.0
C276 C 0.11668 0.97835 0.5533 0.0
C277 C 0.98484 0.98447 0.63704 0.0
O278 O 0.05541 0.09361 0.53312 0.0
O279 O 0.49442 0.07628 0.97252 0.0
Zn280 Zn 0.4716 0.02055 0.98084 0.0
O281 O 0.50766 0.98899 0.0164 0.0
Zn282 Zn 0.53093 0.94463 0.98502 0.0
Zn283 Zn 0.55155 0.02325 0.03727 0.0
Zn284 Zn 0.47647 0.96769 0.06247 0.0
O285 O 0.51389 0.89089 0.00857 0.0
O286 O 0.47401 0.90709 0.06063 0.0
O287 O 0.46634 0.99578 0.9247 0.0
O288 O 0.51126 0.94595 0.92683 0.0
O289 O 0.59233 0.94771 0.98368 0.0
O290 O 0.60627 0.00137 0.02219 0.0
O291 O 0.55112 0.02563 0.09838 0.0
O292 O 0.41592 0.02703 0.00575 0.0
O293 O 0.5007 0.98454 0.11676 0.0
O294 O 0.41952 0.98957 0.06194 0.0
C295 C 0.52427 0.09586 0.98778 0.0
C296 C 0.49076 0.88064 0.03808 0.0
C297 C 0.61769 0.97173 0.00051 0.0
C298 C 0.48526 0.96706 0.9073 0.0
C299 C 0.52997 0.00827 0.12584 0.0
C300 C 0.39971 0.01295 0.03816 0.0
O301 O 0.54813 0.07959 0.01391 0.0
O302 O 0.52145 0.50845 0.59735 0.0
Zn303 Zn 0.51954 0.53337 0.54146 0.0
O304 O 0.48519 0.50249 0.50413 0.0
Zn305 Zn 0.51868 0.47967 0.46083 0.0
Zn306 Zn 0.45942 0.45871 0.53481 0.0
Zn307 Zn 0.44387 0.53816 0.47993 0.0
O308 O 0.49901 0.49736 0.40549 0.0
O309 O 0.44848 0.53975 0.41819 0.0
O310 O 0.577 0.53622 0.52135 0.0
O311 O 0.57712 0.49788 0.4659 0.0
O312 O 0.51757 0.41914 0.46227 0.0
O313 O 0.47674 0.40432 0.51426 0.0
O314 O 0.39864 0.46236 0.52967 0.0
O315 O 0.49992 0.59025 0.54658 0.0
O316 O 0.38731 0.51823 0.4934 0.0
O317 O 0.4493 0.5951 0.50161 0.0
C318 C 0.50225 0.47949 0.61428 0.0
C319 C 0.47155 0.52155 0.393 0.0
C320 C 0.49995 0.39349 0.48528 0.0
C321 C 0.59572 0.52048 0.49141 0.0
C322 C 0.37435 0.48728 0.51261 0.0
C323 C 0.47257 0.61097 0.52855 0.0
O324 O 0.4761 0.45887 0.59429 0.0
O325 O 0.96407 0.50228 0.10164 0.0
Zn326 Zn 0.97034 0.47913 0.04551 0.0
O327 O 0.00148 0.51596 0.01115 0.0
Zn328 Zn 0.96524 0.53933 0.96972 0.0
Zn329 Zn 0.0261 0.55865 0.04427 0.0
Zn330 Zn 0.04437 0.4856 0.98498 0.0
O331 O 0.98168 0.52238 0.91285 0.0
O332 O 0.03515 0.48305 0.92483 0.0
O333 O 0.91448 0.46994 0.02201 0.0
O334 O 0.90741 0.51914 0.97615 0.0
O335 O 0.96685 0.59988 0.97192 0.0
O336 O 0.0105 0.61354 0.0223 0.0
O337 O 0.08772 0.55516 0.04436 0.0
O338 O -0.00245 0.42507 0.05151 0.0
O339 O 0.09947 0.50914 0.99673 0.0
O340 O 0.04735 0.42899 0.00626 0.0
C341 C 0.98045 0.532 0.12021 0.0
C342 C 0.00955 0.49889 0.90025 0.0
C343 C 0.98661 0.62515 0.99374 0.0
C344 C 0.89285 0.48947 0.9963 0.0
C345 C 0.11243 0.53491 0.02254 0.0
C346 C 0.02769 0.4093 0.03317 0.0
O347 O 0.0055 0.55543 0.10213 0.0
C348 C 0.11208 0.0538 0.33619 0.0
C349 C 0.08814 0.07775 0.30981 0.0
C350 C 0.09572 0.03701 0.3718 0.0
C351 C 0.0546 0.04274 0.38195 0.0
H352 H 0.14419 0.04926 0.3301 0.0
H353 H 0.11577 0.02043 0.39225 0.0
S354 S 0.97803 0.10029 0.32206 0.0
N355 N 0.02056 0.10482 0.29552 0.0
N356 N 0.98949 0.0717 0.36198 0.0
C357 C 0.02953 0.06426 0.35466 0.0
C358 C 0.04638 0.0821 0.31862 0.0
C359 C 0.43733 0.97127 0.80113 0.0
C360 C 0.46175 0.94486 0.77833 0.0
C361 C 0.44513 0.97818 0.84274 0.0
C362 C 0.47744 0.95863 0.86328 0.0
H363 H 0.41224 0.98707 0.78656 0.0
H364 H 0.42555 -0.001 0.85886 0.0
S365 S 0.54943 0.8853 0.81709 0.0
N366 N 0.51874 0.89823 0.77908 0.0
N367 N 0.53375 0.91107 0.8572 0.0
C368 C 0.50189 0.93177 0.8407 0.0
C369 C 0.494 0.92498 0.79827 0.0
C370 C 0.56422 0.47259 0.71218 0.0
C371 C 0.55185 0.43541 0.7288 0.0
C372 C 0.54588 0.48801 0.67669 0.0
C373 C 0.51473 0.46658 0.65612 0.0
H374 H 0.58943 0.4891 0.72581 0.0
H375 H 0.55776 0.516 0.66426 0.0
S376 S 0.46889 0.36933 0.68996 0.0
N377 N 0.50471 0.3789 0.72434 0.0
N378 N 0.46995 0.40764 0.65753 0.0
C379 C 0.50029 0.43053 0.67411 0.0
C380 C 0.51895 0.41498 0.71045 0.0
C381 C 0.91544 0.53425 0.21564 0.0
C382 C 0.93317 0.56554 0.2386 0.0
C383 C 0.93229 0.52217 0.1784 0.0
C384 C 0.96723 0.54135 0.16245 0.0
H385 H 0.88753 0.51992 0.2259 0.0
H386 H 0.9166 0.49884 0.16121 0.0
S387 S 0.02696 0.6229 0.21298 0.0
N388 N 0.98881 0.61384 0.24451 0.0
N389 N 0.02081 0.59118 0.1745 0.0
C390 C 0.98645 0.57134 0.18631 0.0
C391 C 0.96935 0.58341 0.22441 0.0
C392 C 0.30599 0.07942 0.0439 0.0
C393 C 0.28891 0.06859 0.08175 0.0
C394 C 0.3403 0.05945 0.02871 0.0
C395 C 0.35909 0.02804 0.05098 0.0
H396 H 0.29362 0.10456 0.02659 0.0
H397 H 0.35324 0.07014 0.00023 0.0
S398 S 0.32349 0.9858 0.15018 0.0
N399 N 0.29136 0.02278 0.13992 0.0
N400 N 0.35545 0.98471 0.11133 0.0
C401 C 0.34062 0.01525 0.08772 0.0
C402 C 0.30565 0.03565 0.10312 0.0
C403 C 0.23214 0.9807 0.5473 0.0
C404 C 0.24416 0.949 0.57328 0.0
C405 C 0.19095 0.98988 0.54134 0.0
C406 C 0.15997 0.9677 0.56105 0.0
H407 H 0.25477 -0.00169 0.531 0.0
H408 H 0.18346 0.01443 0.52067 0.0
S409 S 0.17565 0.88291 0.63402 0.0
N410 N 0.22218 0.89632 0.62028 0.0
N411 N 0.14446 0.91317 0.6087 0.0
C412 C 0.1716 0.93598 0.58739 0.0
C413 C 0.21373 0.92672 0.59355 0.0
C414 C 0.80798 0.41595 0.97193 0.0
C415 C 0.7768 0.44082 0.95623 0.0
C416 C 0.84451 0.43227 0.98683 0.0
C417 C 0.85174 0.47411 0.98594 0.0
H418 H 0.80513 0.38337 0.97096 0.0
H419 H 0.8681 0.4117 0.99711 0.0
S420 S 0.77824 0.55295 0.95355 0.0
N421 N 0.75384 0.50995 0.94554 0.0
N422 N 0.82359 0.54049 0.97179 0.0
C423 C 0.82034 0.49957 0.97212 0.0
C424 C 0.78265 0.48298 0.95768 0.0
C425 C 0.69582 0.53618 0.43601 0.0
C426 C 0.71712 0.56253 0.46218 0.0
C427 C 0.65745 0.52094 0.4467 0.0
C428 C 0.63896 0.53155 0.48399 0.0
H429 H 0.70777 0.52919 0.40599 0.0
H430 H 0.64142 0.50233 0.4246 0.0
S431 S 0.68593 0.59419 0.56606 0.0
N432 N 0.71979 0.59464 0.52884 0.0
N433 N 0.64767 0.56605 0.54937 0.0
C434 C 0.6615 0.55551 0.51173 0.0
C435 C 0.70055 0.57104 0.5007 0.0
C436 C 0.03452 0.30976 0.09058 0.0
C437 C 0.07338 0.29548 0.08 0.0
C438 C 0.01917 0.34563 0.07381 0.0
C439 C 0.04216 0.36869 0.04587 0.0
H440 H 0.01634 0.2937 0.11298 0.0
H441 H 0.98957 0.35595 0.08391 0.0
S442 S 0.14523 0.34315 0.00684 0.0
N443 N 0.13407 0.30622 0.03892 0.0
N444 N 0.10519 0.37322 0.00679 0.0
C445 C 0.08037 0.35362 0.03356 0.0
C446 C 0.09598 0.31714 0.05077 0.0
C447 C 0.57748 0.19711 0.97473 0.0
C448 C 0.56064 0.21175 0.938 0.0
C449 C 0.56427 0.16041 0.99161 0.0
C450 C 0.53353 0.13718 0.97248 0.0
H451 H 0.60248 0.21308 0.98937 0.0
H452 H 0.57931 0.14957 0.0191 0.0
S453 S 0.47637 0.16566 0.87813 0.0
N454 N 0.5095 0.20273 0.88486 0.0
N455 N 0.48408 0.13395 0.91646 0.0
C456 C 0.51471 0.15303 0.93699 0.0
C457 C 0.52848 0.19022 0.91974 0.0
C458 C 0.95028 0.81879 0.42742 0.0
C459 C 0.95113 0.78448 0.4528 0.0
C460 C 0.96327 0.85636 0.44167 0.0
C461 C 0.97768 0.86138 0.48201 0.0
H462 H 0.93806 0.81697 0.39659 0.0
H463 H 0.9612 0.88183 0.4209 0.0
S464 S 0.98869 0.78019 0.55996 0.0
N465 N 0.96955 0.75706 0.51941 0.0
N466 N 0.99391 0.82808 0.54669 0.0
C467 C 0.97998 0.827 0.50745 0.0
C468 C 0.96659 0.78852 0.49279 0.0
C469 C 0.43479 0.71946 0.52621 0.0
C470 C 0.45737 0.73793 0.55772 0.0
C471 C 0.43984 0.67846 0.51708 0.0
C472 C 0.46792 0.6544 0.53894 0.0
H473 H 0.41255 0.73671 0.50889 0.0
H474 H 0.42148 0.66562 0.49268 0.0
S475 S 0.53601 0.68953 0.6232 0.0
N476 N 0.50979 0.72998 0.60986 0.0
N477 N 0.51948 0.65295 0.59309 0.0
C478 C 0.49113 0.67288 0.57027 0.0
C479 C 0.48579 0.71459 0.57958 0.0
C480 C 0.96516 0.00161 0.75001 0.0
C481 C 0.96299 0.96214 0.76596 0.0
C482 C 0.97169 0.00852 0.70822 0.0
C483 C 0.97669 0.97623 0.68081 0.0
H484 H 0.96229 0.02743 0.77007 0.0
H485 H 0.97355 0.03945 0.69748 0.0
S486 S 0.97038 0.86713 0.70641 0.0
N487 N 0.96369 0.89031 0.75053 0.0
N488 N 0.97712 0.90328 0.6722 0.0
C489 C 0.97417 0.9366 0.69623 0.0
C490 C 0.96707 0.92956 0.73872 0.0
C491 C 0.59081 0.03451 0.22056 0.0
C492 C 0.56035 0.04382 0.24905 0.0
C493 C 0.5806 0.02162 0.18106 0.0
C494 C 0.53962 0.01684 0.16904 0.0
H495 H 0.62267 0.03934 0.22816 0.0
H496 H 0.60494 0.01633 0.15942 0.0
S497 S 0.44873 0.03451 0.23351 0.0
N498 N 0.48783 0.04582 0.26355 0.0
N499 N 0.46848 0.02019 0.18945 0.0
C500 C 0.50893 0.02391 0.198 0.0
C501 C 0.51935 0.03787 0.238 0.0
C502 C 0.42664 0.55772 0.29181 0.0
C503 C 0.45411 0.5427 0.26272 0.0
C504 C 0.43254 0.55075 0.33375 0.0
C505 C 0.46623 0.52852 0.3483 0.0
H506 H 0.40009 0.57468 0.28205 0.0
H507 H 0.4103 0.56276 0.35485 0.0
S508 S 0.54835 0.48461 0.28428 0.0
N509 N 0.51703 0.50608 0.25108 0.0
N510 N 0.52824 0.49257 0.32976 0.0
C511 C 0.49416 0.5136 0.31935 0.0
C512 C 0.48806 0.52075 0.27664 0.0
C513 C 0.00023 0.50592 0.78435 0.0
C514 C 0.01794 0.46949 0.77165 0.0
C515 C 0.99664 0.51501 0.82616 0.0
C516 C 0.0116 0.48837 0.85638 0.0
H517 H 0.98961 0.52761 0.76185 0.0
H518 H 0.98312 0.54353 0.83482 0.0
S519 S 0.06074 0.38911 0.8385 0.0
N520 N 0.05062 0.40677 0.79231 0.0
N521 N 0.04384 0.42363 0.87047 0.0
C522 C 0.02899 0.45169 0.84385 0.0
C523 C 0.0322 0.44233 0.80158 0.0
C524 C 0.7196 0.96619 0.94791 0.0
C525 C 0.74677 0.95734 0.98034 0.0
C526 C 0.67763 0.96992 0.95456 0.0
C527 C 0.66146 0.96589 0.99398 0.0
H528 H 0.73082 0.97067 0.91711 0.0
H529 H 0.65779 0.97685 0.92886 0.0
S530 S 0.71797 0.94096 0.08904 0.0
N531 N 0.7533 0.94229 0.0532 0.0
N532 N 0.67458 0.95198 0.06571 0.0
C533 C 0.68782 0.95731 0.02672 0.0
C534 C 0.73047 0.95245 0.01991 0.0
C535 C 0.80052 0.03251 0.45157 0.0
C536 C 0.77991 0.06521 0.4692 0.0
C537 C 0.83908 0.02083 0.46566 0.0
C538 C 0.85866 0.04141 0.49798 0.0
H539 H 0.78725 0.01659 0.42576 0.0
H540 H 0.8541 0.99613 0.45021 0.0
S541 S 0.81628 0.12773 0.55616 0.0
N542 N 0.78075 0.11693 0.52183 0.0
N543 N 0.85322 0.0948 0.5488 0.0
C544 C 0.83741 0.07291 0.51732 0.0
C545 C 0.79803 0.08484 0.50282 0.0
C546 C 0.21397 0.57771 0.05915 0.0
C547 C 0.24251 0.5502 0.04356 0.0
C548 C 0.1721 0.57286 0.05173 0.0
C549 C 0.1571 0.54026 0.02842 0.0
H550 H 0.22411 0.60331 0.07717 0.0
H551 H 0.15138 0.59484 0.06451 0.0
S552 S 0.21953 0.45877 0.98222 0.0
N553 N 0.2531 0.48865 0.00485 0.0
N554 N 0.17457 0.47942 0.99047 0.0
C555 C 0.1855 0.51253 0.01254 0.0
C556 C 0.22813 0.51754 0.0202 0.0
C557 C 0.26269 0.508 0.53218 0.0
C558 C 0.24646 0.46889 0.53659 0.0
C559 C 0.30378 0.51385 0.52192 0.0
C560 C 0.33006 0.48075 0.51684 0.0
H561 H 0.24392 0.53413 0.53839 0.0
H562 H 0.31555 0.54442 0.52031 0.0
S563 S 0.30154 0.3724 0.52192 0.0
N564 N 0.25898 0.39671 0.53239 0.0
N565 N 0.33624 0.40768 0.51363 0.0
C566 C 0.31365 0.44158 0.51919 0.0
C567 C 0.27179 0.43565 0.52892 0.0
C568 C 0.98394 0.73856 0.01118 0.0
C569 C 0.96778 0.75331 0.97413 0.0
C570 C 0.99063 0.69712 0.01704 0.0
C571 C 0.98125 0.66896 0.98609 0.0
H572 H 0.9904 0.75905 0.03621 0.0
H573 H 0.00228 0.68705 0.04642 0.0
S574 S 0.94307 0.69304 0.88162 0.0
N575 N 0.94617 0.7372 0.90476 0.0
N576 N 0.95812 0.65938 0.91581 0.0
C577 C 0.96642 0.6836 0.94838 0.0
C578 C 0.95986 0.72574 0.94239 0.0
C579 C 0.48791 0.76686 0.02277 0.0
C580 C 0.46418 0.75326 0.05574 0.0
C581 C 0.49673 0.80798 0.01763 0.0
C582 C 0.48228 0.83711 0.04539 0.0
H583 H 0.49905 0.74563 0.00029 0.0
H584 H 0.51458 0.81695 0.99131 0.0
S585 S 0.42167 0.81606 0.13898 0.0
N586 N 0.42849 0.77133 0.11798 0.0
N587 N 0.44472 0.84865 0.1085 0.0
C588 C 0.4593 0.82358 0.07915 0.0
C589 C 0.45033 0.78169 0.08426 0.0
C590 C 0.08486 0.21467 0.55477 0.0
C591 C 0.05824 0.23979 0.57644 0.0
C592 C 0.07486 0.17437 0.54693 0.0
C593 C 0.03788 0.15741 0.56067 0.0
H594 H 0.11401 0.22613 0.54431 0.0
H595 H 0.09682 0.15628 0.53052 0.0
S596 S 0.95707 0.21139 0.61793 0.0
N597 N 0.99305 0.24567 0.61087 0.0
N598 N 0.9738 0.16979 0.59597 0.0
C599 C 0.01044 0.18265 0.58156 0.0
C600 C 0.02069 0.22387 0.58941 0.0
C601 C 0.52551 0.29572 0.43243 0.0
C602 C 0.53558 0.27012 0.4653 0.0
C603 C 0.51262 0.33533 0.43925 0.0
C604 C 0.50854 0.35033 0.47919 0.0
H605 H 0.5297 0.28572 0.40117 0.0
H606 H 0.50676 0.35467 0.41307 0.0
S607 S 0.52873 0.29432 0.57562 0.0
N608 N 0.5394 0.26168 0.53903 0.0
N609 N 0.51363 0.33598 0.55213 0.0
C610 C 0.5165 0.32434 0.51239 0.0
C611 C 0.53054 0.28424 0.50537 0.0
loop_
_geom_bond_atom_site_label_1
_geom_bond_atom_site_label_2
_geom_bond_distance
_geom_bond_site_symmetry_2
_ccdc_geom_bond_type
P0 O11 1.490 . S
P0 C14 1.812 . S
P0 C20 1.803 . S
P0 C26 1.819 . S
H1 C15 0.941 . S
H2 C16 0.939 . S
H3 C18 0.940 . S
H4 C19 0.940 . S
H5 C21 0.939 . S
H6 C22 0.942 . S
H7 C24 0.940 . S
H8 C25 0.939 . S
H9 C27 0.941 . S
H10 C31 0.939 . S
O11 P0 1.490 . S
H12 C28 0.939 . S
H13 C30 0.940 . S
C14 P0 1.812 . S
C14 C15 1.389 . S
C14 C19 1.391 . S
C15 H1 0.941 . S
C15 C14 1.389 . S
C15 C16 1.397 . S
C16 H2 0.939 . S
C16 C15 1.397 . S
C16 C17 1.378 . S
C17 C16 1.378 . S
C17 C18 1.378 . S
C18 H3 0.940 . S
C18 C17 1.378 . S
C18 C19 1.396 . S
C19 H4 0.940 . S
C19 C14 1.391 . S
C19 C18 1.396 . S
C20 P0 1.803 . S
C20 C21 1.378 . S
C20 C25 1.400 . S
C21 H5 0.939 . S
C21 C20 1.378 . S
C21 C22 1.361 . S
C22 H6 0.942 . S
C22 C21 1.361 . S
C22 C23 1.369 . S
C23 C22 1.369 . S
C23 C24 1.404 . S
C24 H7 0.940 . S
C24 C23 1.404 . S
C24 C25 1.389 . S
C25 H8 0.939 . S
C25 C20 1.400 . S
C25 C24 1.389 . S
C26 P0 1.819 . S
C26 C27 1.391 . S
C26 C31 1.391 . S
C27 H9 0.941 . S
C27 C26 1.391 . S
C27 C28 1.396 . S
C28 H12 0.939 . S
C28 C27 1.396 . S
C28 C29 1.397 . S
C29 C28 1.397 . S
C29 C30 1.385 . S
C30 H13 0.940 . S
C30 C29 1.385 . S
C30 C31 1.388 . S
C31 H10 0.939 . S
C31 C26 1.391 . S
C31 C30 1.388 . S
P32 O43 1.490 . S
P32 C46 1.812 . S
P32 C52 1.803 . S
P32 C58 1.819 . S
H33 C47 0.941 . S
H34 C48 0.939 . S
H35 C50 0.940 . S
H36 C51 0.940 . S
H37 C53 0.939 . S
H38 C54 0.942 . S
H39 C56 0.940 . S
H40 C57 0.939 . S
H41 C59 0.941 . S
H42 C63 0.939 . S
O43 P32 1.490 . S
H44 C60 0.939 . S
H45 C62 0.940 . S
C46 P32 1.812 . S
C46 C47 1.389 . S
C46 C51 1.391 . S
C47 H33 0.941 . S
C47 C46 1.389 . S
C47 C48 1.397 . S
C48 H34 0.939 . S
C48 C47 1.397 . S
C48 C49 1.378 . S
C49 C48 1.378 . S
C49 C50 1.378 . S
C50 H35 0.940 . S
C50 C49 1.378 . S
C50 C51 1.396 . S
C51 H36 0.940 . S
C51 C46 1.391 . S
C51 C50 1.396 . S
C52 P32 1.803 . S
C52 C53 1.378 . S
C52 C57 1.400 . S
C53 H37 0.939 . S
C53 C52 1.378 . S
C53 C54 1.361 . S
C54 H38 0.942 . S
C54 C53 1.361 . S
C54 C55 1.369 . S
C55 C54 1.369 . S
C55 C56 1.404 . S
C56 H39 0.940 . S
C56 C55 1.404 . S
C56 C57 1.389 . S
C57 H40 0.939 . S
C57 C52 1.400 . S
C57 C56 1.389 . S
C58 P32 1.819 . S
C58 C59 1.391 . S
C58 C63 1.391 . S
C59 H41 0.941 . S
C59 C58 1.391 . S
C59 C60 1.396 . S
C60 H44 0.939 . S
C60 C59 1.396 . S
C60 C61 1.397 . S
C61 C60 1.397 . S
C61 C62 1.385 . S
C62 H45 0.940 . S
C62 C61 1.385 . S
C62 C63 1.388 . S
C63 H42 0.939 . S
C63 C58 1.391 . S
C63 C62 1.388 . S
P64 O75 1.490 . S
P64 C78 1.812 . S
P64 C84 1.803 . S
P64 C90 1.819 . S
H65 C79 0.941 . S
H66 C80 0.939 . S
H67 C82 0.940 . S
H68 C83 0.940 . S
H69 C85 0.939 . S
H70 C86 0.942 . S
H71 C88 0.940 . S
H72 C89 0.939 . S
H73 C91 0.941 . S
H74 C95 0.939 . S
O75 P64 1.490 . S
H76 C92 0.939 . S
H77 C94 0.940 . S
C78 P64 1.812 . S
C78 C79 1.389 . S
C78 C83 1.391 . S
C79 H65 0.941 . S
C79 C78 1.389 . S
C79 C80 1.397 . S
C80 H66 0.939 . S
C80 C79 1.397 . S
C80 C81 1.378 . S
C81 C80 1.378 . S
C81 C82 1.378 . S
C82 H67 0.940 . S
C82 C81 1.378 . S
C82 C83 1.396 . S
C83 H68 0.940 . S
C83 C78 1.391 . S
C83 C82 1.396 . S
C84 P64 1.803 . S
C84 C85 1.378 . S
C84 C89 1.400 . S
C85 H69 0.939 . S
C85 C84 1.378 . S
C85 C86 1.361 . S
C86 H70 0.942 . S
C86 C85 1.361 . S
C86 C87 1.369 . S
C87 C86 1.369 . S
C87 C88 1.404 . S
C88 H71 0.940 . S
C88 C87 1.404 . S
C88 C89 1.389 . S
C89 H72 0.939 . S
C89 C84 1.400 . S
C89 C88 1.389 . S
C90 P64 1.819 . S
C90 C91 1.391 . S
C90 C95 1.391 . S
C91 H73 0.941 . S
C91 C90 1.391 . S
C91 C92 1.396 . S
C92 H76 0.939 . S
C92 C91 1.396 . S
C92 C93 1.397 . S
C93 C92 1.397 . S
C93 C94 1.385 . S
C94 H77 0.940 . S
C94 C93 1.385 . S
C94 C95 1.388 . S
C95 H74 0.939 . S
C95 C90 1.391 . S
C95 C94 1.388 . S
P96 O107 1.490 . S
P96 C110 1.812 . S
P96 C116 1.803 . S
P96 C122 1.819 . S
H97 C111 0.941 . S
H98 C112 0.939 . S
H99 C114 0.940 . S
H100 C115 0.940 . S
H101 C117 0.939 . S
H102 C118 0.942 . S
H103 C120 0.940 . S
H104 C121 0.939 . S
H105 C123 0.941 . S
H106 C127 0.939 . S
O107 P96 1.490 . S
H108 C124 0.939 . S
H109 C126 0.940 . S
C110 P96 1.812 . S
C110 C111 1.389 . S
C110 C115 1.391 . S
C111 H97 0.941 . S
C111 C110 1.389 . S
C111 C112 1.397 . S
C112 H98 0.939 . S
C112 C111 1.397 . S
C112 C113 1.378 . S
C113 C112 1.378 . S
C113 C114 1.378 . S
C114 H99 0.940 . S
C114 C113 1.378 . S
C114 C115 1.396 . S
C115 H100 0.940 . S
C115 C110 1.391 . S
C115 C114 1.396 . S
C116 P96 1.803 . S
C116 C117 1.378 . S
C116 C121 1.400 . S
C117 H101 0.939 . S
C117 C116 1.378 . S
C117 C118 1.361 . S
C118 H102 0.942 . S
C118 C117 1.361 . S
C118 C119 1.369 . S
C119 C118 1.369 . S
C119 C120 1.404 . S
C120 H103 0.940 . S
C120 C119 1.404 . S
C120 C121 1.389 . S
C121 H104 0.939 . S
C121 C116 1.400 . S
C121 C120 1.389 . S
C122 P96 1.819 . S
C122 C123 1.391 . S
C122 C127 1.391 . S
C123 H105 0.941 . S
C123 C122 1.391 . S
C123 C124 1.396 . S
C124 H108 0.939 . S
C124 C123 1.396 . S
C124 C125 1.397 . S
C125 C124 1.397 . S
C125 C126 1.385 . S
C126 H109 0.940 . S
C126 C125 1.385 . S
C126 C127 1.388 . S
C127 H106 0.939 . S
C127 C122 1.391 . S
C127 C126 1.388 . S
P128 O139 1.490 . S
P128 C142 1.812 . S
P128 C148 1.803 . S
P128 C154 1.819 . S
H129 C143 0.941 . S
H130 C144 0.942 . S
H131 C146 0.940 . S
H132 C147 0.940 . S
H133 C149 0.953 . S
H134 C150 0.942 1_455 S
H135 C152 0.940 . S
H136 C153 0.939 . S
H137 C155 0.941 . S
H138 C159 0.939 . S
O139 P128 1.490 . S
H140 C156 0.939 . S
H141 C158 0.940 . S
C142 P128 1.812 . S
C142 C143 1.389 1_556 S
C142 C147 1.391 . S
C143 H129 0.941 . S
C143 C142 1.389 1_554 S
C143 C144 1.397 . S
C144 H130 0.942 . S
C144 C143 1.397 . S
C144 C145 1.378 1_554 S
C145 C144 1.378 1_556 S
C145 C146 1.378 . S
C146 H131 0.940 . S
C146 C145 1.378 . S
C146 C147 1.396 . S
C147 H132 0.940 . S
C147 C142 1.391 . S
C147 C146 1.396 . S
C148 P128 1.803 . S
C148 C149 1.378 . S
C148 C153 1.400 . S
C149 H133 0.953 . S
C149 C148 1.378 . S
C149 C150 1.361 . S
C150 H134 0.942 1_655 S
C150 C149 1.361 . S
C150 C151 1.369 . S
C151 C150 1.369 . S
C151 C152 1.404 . S
C152 H135 0.940 . S
C152 C151 1.404 . S
C152 C153 1.389 . S
C153 H136 0.939 . S
C153 C148 1.400 . S
C153 C152 1.389 . S
C154 P128 1.819 . S
C154 C155 1.391 1_565 S
C154 C159 1.391 . S
C155 H137 0.941 . S
C155 C154 1.391 1_545 S
C155 C156 1.396 . S
C156 H140 0.939 . S
C156 C155 1.396 . S
C156 C157 1.397 1_545 S
C157 C156 1.397 1_565 S
C157 C158 1.385 . S
C158 H141 0.940 . S
C158 C157 1.385 . S
C158 C159 1.388 . S
C159 H138 0.939 . S
C159 C154 1.391 . S
C159 C158 1.388 . S
P160 O171 1.490 . S
P160 C174 1.812 . S
P160 C180 1.803 . S
P160 C186 1.819 . S
H161 C175 0.941 . S
H162 C176 0.939 . S
H163 C178 0.940 . S
H164 C179 0.940 . S
H165 C181 0.939 . S
H166 C182 0.942 . S
H167 C184 0.940 . S
H168 C185 0.939 . S
H169 C187 0.941 . S
H170 C191 0.939 . S
O171 P160 1.490 . S
H172 C188 0.939 . S
H173 C190 0.957 . S
C174 P160 1.812 . S
C174 C175 1.389 . S
C174 C179 1.391 . S
C175 H161 0.941 . S
C175 C174 1.389 . S
C175 C176 1.397 . S
C176 H162 0.939 . S
C176 C175 1.397 . S
C176 C177 1.378 . S
C177 C176 1.378 . S
C177 C178 1.378 . S
C178 H163 0.940 . S
C178 C177 1.378 . S
C178 C179 1.396 . S
C179 H164 0.940 . S
C179 C174 1.391 . S
C179 C178 1.396 . S
C180 P160 1.803 . S
C180 C181 1.378 . S
C180 C185 1.400 . S
C181 H165 0.939 . S
C181 C180 1.378 . S
C181 C182 1.361 . S
C182 H166 0.942 . S
C182 C181 1.361 . S
C182 C183 1.369 . S
C183 C182 1.369 . S
C183 C184 1.404 . S
C184 H167 0.940 . S
C184 C183 1.404 . S
C184 C185 1.389 . S
C185 H168 0.939 . S
C185 C180 1.400 . S
C185 C184 1.389 . S
C186 P160 1.819 . S
C186 C187 1.391 . S
C186 C191 1.391 . S
C187 H169 0.941 . S
C187 C186 1.391 . S
C187 C188 1.396 . S
C188 H172 0.939 . S
C188 C187 1.396 . S
C188 C189 1.397 . S
C189 C188 1.397 . S
C189 C190 1.385 . S
C190 H173 0.957 . S
C190 C189 1.385 . S
C190 C191 1.388 . S
C191 H170 0.939 . S
C191 C186 1.391 . S
C191 C190 1.388 . S
P192 O203 1.490 . S
P192 C206 1.812 . S
P192 C212 1.803 . S
P192 C218 1.819 . S
H193 C207 0.941 . S
H194 C208 0.939 1_556 S
H195 C210 0.940 . S
H196 C211 0.940 . S
H197 C213 0.939 . S
H198 C214 0.942 . S
H199 C216 0.940 . S
H200 C217 0.939 . S
H201 C219 0.941 . S
H202 C223 0.939 . S
O203 P192 1.490 . S
H204 C220 0.939 . S
H205 C222 0.940 . S
C206 P192 1.812 . S
C206 C207 1.389 . S
C206 C211 1.391 . S
C207 H193 0.941 . S
C207 C206 1.389 . S
C207 C208 1.397 . S
C208 H194 0.939 1_554 S
C208 C207 1.397 . S
C208 C209 1.378 . S
C209 C208 1.378 . S
C209 C210 1.378 . S
C210 H195 0.940 . S
C210 C209 1.378 . S
C210 C211 1.396 . S
C211 H196 0.940 . S
C211 C206 1.391 . S
C211 C210 1.396 . S
C212 P192 1.803 . S
C212 C213 1.378 . S
C212 C217 1.400 . S
C213 H197 0.939 . S
C213 C212 1.378 . S
C213 C214 1.361 . S
C214 H198 0.942 . S
C214 C213 1.361 . S
C214 C215 1.369 . S
C215 C214 1.369 . S
C215 C216 1.404 . S
C216 H199 0.940 . S
C216 C215 1.404 . S
C216 C217 1.389 . S
C217 H200 0.939 . S
C217 C212 1.400 . S
C217 C216 1.389 . S
C218 P192 1.819 . S
C218 C219 1.391 . S
C218 C223 1.391 . S
C219 H201 0.941 . S
C219 C218 1.391 . S
C219 C220 1.396 . S
C220 H204 0.939 . S
C220 C219 1.396 . S
C220 C221 1.397 . S
C221 C220 1.397 . S
C221 C222 1.385 . S
C222 H205 0.940 . S
C222 C221 1.385 . S
C222 C223 1.388 . S
C223 H202 0.939 . S
C223 C218 1.391 . S
C223 C222 1.388 . S
P224 O235 1.490 . S
P224 C238 1.812 . S
P224 C244 1.803 . S
P224 C250 1.819 . S
H225 C239 0.941 . S
H226 C240 0.939 . S
H227 C242 0.940 . S
H228 C243 0.940 . S
H229 C245 0.939 . S
H230 C246 0.942 . S
H231 C248 0.940 . S
H232 C249 0.939 . S
H233 C251 0.941 . S
H234 C255 0.939 . S
O235 P224 1.490 . S
H236 C252 0.939 . S
H237 C254 0.940 . S
C238 P224 1.812 . S
C238 C239 1.389 . S
C238 C243 1.391 . S
C239 H225 0.941 . S
C239 C238 1.389 . S
C239 C240 1.397 . S
C240 H226 0.939 . S
C240 C239 1.397 . S
C240 C241 1.378 . S
C241 C240 1.378 . S
C241 C242 1.378 . S
C242 H227 0.940 . S
C242 C241 1.378 . S
C242 C243 1.396 . S
C243 H228 0.940 . S
C243 C238 1.391 . S
C243 C242 1.396 . S
C244 P224 1.803 . S
C244 C245 1.378 . S
C244 C249 1.400 . S
C245 H229 0.939 . S
C245 C244 1.378 . S
C245 C246 1.361 . S
C246 H230 0.942 . S
C246 C245 1.361 . S
C246 C247 1.369 . S
C247 C246 1.369 . S
C247 C248 1.404 . S
C248 H231 0.940 . S
C248 C247 1.404 . S
C248 C249 1.389 . S
C249 H232 0.939 . S
C249 C244 1.400 . S
C249 C248 1.389 . S
C250 P224 1.819 . S
C250 C251 1.391 . S
C250 C255 1.391 . S
C251 H233 0.941 . S
C251 C250 1.391 . S
C251 C252 1.396 . S
C252 H236 0.939 . S
C252 C251 1.396 . S
C252 C253 1.397 . S
C253 C252 1.397 . S
C253 C254 1.385 . S
C254 H237 0.940 . S
C254 C253 1.385 . S
C254 C255 1.388 . S
C255 H234 0.939 . S
C255 C250 1.391 . S
C255 C254 1.388 . S
O256 Zn257 1.953 . S
O256 C272 1.225 1_655 S
Zn257 O256 1.953 . S
Zn257 O258 1.949 1_655 S
Zn257 O264 1.919 . S
Zn257 O269 1.924 . S
O258 Zn257 1.949 1_455 S
O258 Zn259 1.923 1_445 S
O258 Zn260 1.950 . S
O258 Zn261 1.945 1_545 S
Zn259 O258 1.923 1_665 S
Zn259 O262 1.933 . S
Zn259 O265 1.941 1_565 S
Zn259 O266 1.965 1_665 S
Zn260 O258 1.950 . S
Zn260 O267 1.938 . S
Zn260 O268 1.906 1_545 S
Zn260 O278 1.953 . S
Zn261 O258 1.945 1_565 S
Zn261 O263 1.932 1_455 S
Zn261 O270 1.977 . S
Zn261 O271 1.910 1_455 S
O262 Zn259 1.933 . S
O262 C273 1.226 . S
O263 Zn261 1.932 1_655 S
O263 C273 1.307 . S
O264 Zn257 1.919 . S
O264 C275 1.253 . S
O265 Zn259 1.941 1_545 S
O265 C275 1.283 . S
O266 Zn259 1.965 1_445 S
O266 C274 1.303 . S
O267 Zn260 1.938 . S
O267 C274 1.247 . S
O268 Zn260 1.906 1_565 S
O268 C276 1.304 . S
O269 Zn257 1.924 . S
O269 C277 1.311 1_545 S
O270 Zn261 1.977 . S
O270 C276 1.272 . S
O271 Zn261 1.910 1_655 S
O271 C277 1.231 . S
C272 O256 1.225 1_455 S
C272 O278 1.298 . S
C273 O262 1.226 . S
C273 O263 1.307 . S
C274 O266 1.303 . S
C274 O267 1.247 . S
C275 O264 1.253 . S
C275 O265 1.283 . S
C276 O268 1.304 . S
C276 O270 1.272 . S
C277 O269 1.311 1_565 S
C277 O271 1.231 . S
O278 Zn260 1.953 . S
O278 C272 1.298 . S
O279 Zn280 1.953 . S
O279 C295 1.225 . S
Zn280 O279 1.953 . S
Zn280 O281 1.949 1_556 S
Zn280 O287 1.919 . S
Zn280 O292 1.924 1_556 S
O281 Zn280 1.949 1_554 S
O281 Zn282 1.923 1_545 S
O281 Zn283 1.950 . S
O281 Zn284 1.945 1_545 S
Zn282 O281 1.923 1_565 S
Zn282 O285 1.933 . S
Zn282 O288 1.941 1_554 S
Zn282 O289 1.965 1_554 S
Zn283 O281 1.950 . S
Zn283 O290 1.938 . S
Zn283 O291 1.906 . S
Zn283 O301 1.953 . S
Zn284 O281 1.945 1_565 S
Zn284 O286 1.932 . S
Zn284 O293 1.977 1_565 S
Zn284 O294 1.910 1_565 S
O285 Zn282 1.933 . S
O285 C296 1.226 . S
O286 Zn284 1.932 . S
O286 C296 1.307 . S
O287 Zn280 1.919 . S
O287 C298 1.253 1_545 S
O288 Zn282 1.941 1_556 S
O288 C298 1.283 . S
O289 Zn282 1.965 1_556 S
O289 C297 1.303 . S
O290 Zn283 1.938 . S
O290 C297 1.247 1_544 S
O291 Zn283 1.906 . S
O291 C299 1.304 . S
O292 Zn280 1.924 1_554 S
O292 C300 1.311 . S
O293 Zn284 1.977 1_545 S
O293 C299 1.272 . S
O294 Zn284 1.910 1_545 S
O294 C300 1.231 . S
C295 O279 1.225 . S
C295 O301 1.298 1_556 S
C296 O285 1.226 . S
C296 O286 1.307 . S
C297 O289 1.303 . S
C297 O290 1.247 1_566 S
C298 O287 1.253 1_565 S
C298 O288 1.283 . S
C299 O291 1.304 . S
C299 O293 1.272 . S
C300 O292 1.311 . S
C300 O294 1.231 . S
O301 Zn283 1.953 . S
O301 C295 1.298 1_554 S
O302 Zn303 1.953 . S
O302 C318 1.225 . S
Zn303 O302 1.953 . S
Zn303 O304 1.949 . S
Zn303 O310 1.919 . S
Zn303 O315 1.924 . S
O304 Zn303 1.949 . S
O304 Zn305 1.923 . S
O304 Zn306 1.950 . S
O304 Zn307 1.945 . S
Zn305 O304 1.923 . S
Zn305 O308 1.933 . S
Zn305 O311 1.941 . S
Zn305 O312 1.965 . S
Zn306 O304 1.950 . S
Zn306 O313 1.938 . S
Zn306 O314 1.906 . S
Zn306 O324 1.953 . S
Zn307 O304 1.945 . S
Zn307 O309 1.932 . S
Zn307 O316 1.977 . S
Zn307 O317 1.910 . S
O308 Zn305 1.933 . S
O308 C319 1.226 . S
O309 Zn307 1.932 . S
O309 C319 1.307 . S
O310 Zn303 1.919 . S
O310 C321 1.253 . S
O311 Zn305 1.941 . S
O311 C321 1.283 . S
O312 Zn305 1.965 . S
O312 C320 1.303 . S
O313 Zn306 1.938 . S
O313 C320 1.247 . S
O314 Zn306 1.906 . S
O314 C322 1.304 . S
O315 Zn303 1.924 . S
O315 C323 1.311 . S
O316 Zn307 1.977 . S
O316 C322 1.272 . S
O317 Zn307 1.910 . S
O317 C323 1.231 . S
C318 O302 1.225 . S
C318 O324 1.298 . S
C319 O308 1.226 . S
C319 O309 1.307 . S
C320 O312 1.303 . S
C320 O313 1.247 . S
C321 O310 1.253 . S
C321 O311 1.283 . S
C322 O314 1.304 . S
C322 O316 1.272 . S
C323 O315 1.311 . S
C323 O317 1.231 . S
O324 Zn306 1.953 . S
O324 C318 1.298 . S
O325 Zn326 1.953 . S
O325 C341 1.225 . S
Zn326 O325 1.953 . S
Zn326 O327 1.949 1_655 S
Zn326 O333 1.919 . S
Zn326 O338 1.924 . S
O327 Zn326 1.949 1_455 S
O327 Zn328 1.923 1_454 S
O327 Zn329 1.950 . S
O327 Zn330 1.945 1_554 S
Zn328 O327 1.923 1_656 S
Zn328 O331 1.933 1_655 S
Zn328 O334 1.941 . S
Zn328 O335 1.965 . S
Zn329 O327 1.950 . S
Zn329 O336 1.938 . S
Zn329 O337 1.906 . S
Zn329 O347 1.953 . S
Zn330 O327 1.945 1_556 S
Zn330 O332 1.932 . S
Zn330 O339 1.977 1_556 S
Zn330 O340 1.910 1_556 S
O331 Zn328 1.933 1_455 S
O331 C342 1.226 . S
O332 Zn330 1.932 . S
O332 C342 1.307 . S
O333 Zn326 1.919 . S
O333 C344 1.253 1_554 S
O334 Zn328 1.941 . S
O334 C344 1.283 . S
O335 Zn328 1.965 . S
O335 C343 1.303 . S
O336 Zn329 1.938 . S
O336 C343 1.247 1_454 S
O337 Zn329 1.906 . S
O337 C345 1.304 . S
O338 Zn326 1.924 . S
O338 C346 1.311 1_655 S
O339 Zn330 1.977 1_554 S
O339 C345 1.272 . S
O340 Zn330 1.910 1_554 S
O340 C346 1.231 . S
C341 O325 1.225 . S
C341 O347 1.298 1_655 S
C342 O331 1.226 . S
C342 O332 1.307 . S
C343 O335 1.303 . S
C343 O336 1.247 1_656 S
C344 O333 1.253 1_556 S
C344 O334 1.283 . S
C345 O337 1.304 . S
C345 O339 1.272 . S
C346 O338 1.311 1_455 S
C346 O340 1.231 . S
O347 Zn329 1.953 . S
O347 C341 1.298 1_455 S
C348 C349 1.369 . S
C348 C350 1.419 . S
C348 H352 0.930 . S
C349 C348 1.369 . S
C349 C358 1.429 . S
C350 C348 1.419 . S
C350 C351 1.363 . S
C350 H353 0.929 . S
C351 C350 1.363 . S
C351 C357 1.428 . S
H352 C348 0.930 . S
H353 C350 0.929 . S
S354 N355 1.613 . S
S354 N356 1.610 . S
N355 S354 1.613 . S
N355 C358 1.350 . S
N356 S354 1.610 . S
N356 C357 1.351 . S
C357 C351 1.428 . S
C357 N356 1.351 . S
C357 C358 1.434 . S
C358 C349 1.429 . S
C358 N355 1.350 . S
C358 C357 1.434 . S
C359 C360 1.369 . S
C359 C361 1.419 . S
C359 H363 0.930 . S
C360 C359 1.369 . S
C360 C369 1.429 . S
C361 C359 1.419 . S
C361 C362 1.363 . S
C361 H364 0.929 . S
C362 C361 1.363 . S
C362 C368 1.428 . S
H363 C359 0.930 . S
H364 C361 0.929 . S
S365 N366 1.613 . S
S365 N367 1.610 . S
N366 S365 1.613 . S
N366 C369 1.350 . S
N367 S365 1.610 . S
N367 C368 1.351 . S
C368 C362 1.428 . S
C368 N367 1.351 . S
C368 C369 1.434 . S
C369 C360 1.429 . S
C369 N366 1.350 . S
C369 C368 1.434 . S
C370 C371 1.369 . S
C370 C372 1.419 . S
C370 H374 0.930 . S
C371 C370 1.369 . S
C371 C380 1.429 . S
C372 C370 1.419 . S
C372 C373 1.363 . S
C372 H375 0.929 . S
C373 C372 1.363 . S
C373 C379 1.428 . S
H374 C370 0.930 . S
H375 C372 0.929 . S
S376 N377 1.613 . S
S376 N378 1.610 . S
N377 S376 1.613 . S
N377 C380 1.350 . S
N378 S376 1.610 . S
N378 C379 1.351 . S
C379 C373 1.428 . S
C379 N378 1.351 . S
C379 C380 1.434 . S
C380 C371 1.429 . S
C380 N377 1.350 . S
C380 C379 1.434 . S
C381 C382 1.369 . S
C381 C383 1.419 . S
C381 H385 0.930 . S
C382 C381 1.369 . S
C382 C391 1.429 . S
C383 C381 1.419 . S
C383 C384 1.363 . S
C383 H386 0.929 . S
C384 C383 1.363 . S
C384 C390 1.428 . S
H385 C381 0.930 . S
H386 C383 0.929 . S
S387 N388 1.613 . S
S387 N389 1.610 . S
N388 S387 1.613 . S
N388 C391 1.350 . S
N389 S387 1.610 . S
N389 C390 1.351 . S
C390 C384 1.428 . S
C390 N389 1.351 . S
C390 C391 1.434 . S
C391 C382 1.429 . S
C391 N388 1.350 . S
C391 C390 1.434 . S
C392 C393 1.369 . S
C392 C394 1.419 . S
C392 H396 0.930 . S
C393 C392 1.369 . S
C393 C402 1.429 . S
C394 C392 1.419 . S
C394 C395 1.363 . S
C394 H397 0.929 . S
C395 C394 1.363 . S
C395 C401 1.428 . S
H396 C392 0.930 . S
H397 C394 0.929 . S
S398 N399 1.613 . S
S398 N400 1.610 . S
N399 S398 1.613 . S
N399 C402 1.350 . S
N400 S398 1.610 . S
N400 C401 1.351 . S
C401 C395 1.428 . S
C401 N400 1.351 . S
C401 C402 1.434 . S
C402 C393 1.429 . S
C402 N399 1.350 . S
C402 C401 1.434 . S
C403 C404 1.369 . S
C403 C405 1.419 . S
C403 H407 0.930 . S
C404 C403 1.369 . S
C404 C413 1.429 . S
C405 C403 1.419 . S
C405 C406 1.363 . S
C405 H408 0.929 . S
C406 C405 1.363 . S
C406 C412 1.428 . S
H407 C403 0.930 . S
H408 C405 0.929 . S
S409 N410 1.613 . S
S409 N411 1.610 . S
N410 S409 1.613 . S
N410 C413 1.350 . S
N411 S409 1.610 . S
N411 C412 1.351 . S
C412 C406 1.428 . S
C412 N411 1.351 . S
C412 C413 1.434 . S
C413 C404 1.429 . S
C413 N410 1.350 . S
C413 C412 1.434 . S
C414 C415 1.369 . S
C414 C416 1.419 . S
C414 H418 0.930 . S
C415 C414 1.369 . S
C415 C424 1.429 . S
C416 C414 1.419 . S
C416 C417 1.363 . S
C416 H419 0.929 . S
C417 C416 1.363 . S
C417 C423 1.428 . S
H418 C414 0.930 . S
H419 C416 0.929 . S
S420 N421 1.613 . S
S420 N422 1.610 . S
N421 S420 1.613 . S
N421 C424 1.350 . S
N422 S420 1.610 . S
N422 C423 1.351 . S
C423 C417 1.428 . S
C423 N422 1.351 . S
C423 C424 1.434 . S
C424 C415 1.429 . S
C424 N421 1.350 . S
C424 C423 1.434 . S
C425 C426 1.369 . S
C425 C427 1.419 . S
C425 H429 0.930 . S
C426 C425 1.369 . S
C426 C435 1.429 . S
C427 C425 1.419 . S
C427 C428 1.363 . S
C427 H430 0.929 . S
C428 C427 1.363 . S
C428 C434 1.428 . S
H429 C425 0.930 . S
H430 C427 0.929 . S
S431 N432 1.613 . S
S431 N433 1.610 . S
N432 S431 1.613 . S
N432 C435 1.350 . S
N433 S431 1.610 . S
N433 C434 1.351 . S
C434 C428 1.428 . S
C434 N433 1.351 . S
C434 C435 1.434 . S
C435 C426 1.429 . S
C435 N432 1.350 . S
C435 C434 1.434 . S
C436 C437 1.369 . S
C436 C438 1.419 . S
C436 H440 0.930 . S
C437 C436 1.369 . S
C437 C446 1.429 . S
C438 C436 1.419 . S
C438 C439 1.363 . S
C438 H441 0.929 1_455 S
C439 C438 1.363 . S
C439 C445 1.428 . S
H440 C436 0.930 . S
H441 C438 0.929 1_655 S
S442 N443 1.613 . S
S442 N444 1.610 . S
N443 S442 1.613 . S
N443 C446 1.350 . S
N444 S442 1.610 . S
N444 C445 1.351 . S
C445 C439 1.428 . S
C445 N444 1.351 . S
C445 C446 1.434 . S
C446 C437 1.429 . S
C446 N443 1.350 . S
C446 C445 1.434 . S
C447 C448 1.369 . S
C447 C449 1.419 . S
C447 H451 0.930 . S
C448 C447 1.369 . S
C448 C457 1.429 . S
C449 C447 1.419 . S
C449 C450 1.363 . S
C449 H452 0.929 . S
C450 C449 1.363 . S
C450 C456 1.428 . S
H451 C447 0.930 . S
H452 C449 0.929 . S
S453 N454 1.613 . S
S453 N455 1.610 . S
N454 S453 1.613 . S
N454 C457 1.350 1_554 S
N455 S453 1.610 . S
N455 C456 1.351 1_554 S
C456 C450 1.428 . S
C456 N455 1.351 1_556 S
C456 C457 1.434 . S
C457 C448 1.429 . S
C457 N454 1.350 1_556 S
C457 C456 1.434 . S
C458 C459 1.369 . S
C458 C460 1.419 . S
C458 H462 0.930 . S
C459 C458 1.369 . S
C459 C468 1.429 . S
C460 C458 1.419 . S
C460 C461 1.363 . S
C460 H463 0.929 . S
C461 C460 1.363 . S
C461 C467 1.428 . S
H462 C458 0.930 . S
H463 C460 0.929 . S
S464 N465 1.613 1_455 S
S464 N466 1.613 . S
N465 S464 1.613 1_655 S
N465 C468 1.350 . S
N466 S464 1.613 . S
N466 C467 1.340 1_455 S
C467 C461 1.428 . S
C467 N466 1.340 1_655 S
C467 C468 1.434 . S
C468 C459 1.429 . S
C468 N465 1.350 . S
C468 C467 1.434 . S
C469 C470 1.369 . S
C469 C471 1.419 . S
C469 H473 0.930 . S
C470 C469 1.369 . S
C470 C479 1.429 . S
C471 C469 1.419 . S
C471 C472 1.363 . S
C471 H474 0.929 . S
C472 C471 1.363 . S
C472 C478 1.428 . S
H473 C469 0.930 . S
H474 C471 0.929 . S
S475 N476 1.613 . S
S475 N477 1.610 . S
N476 S475 1.613 . S
N476 C479 1.350 . S
N477 S475 1.610 . S
N477 C478 1.351 . S
C478 C472 1.428 . S
C478 N477 1.351 . S
C478 C479 1.434 . S
C479 C470 1.429 . S
C479 N476 1.350 . S
C479 C478 1.434 . S
C480 C481 1.369 1_545 S
C480 C482 1.419 . S
C480 H484 0.930 . S
C481 C480 1.369 1_565 S
C481 C490 1.429 . S
C482 C480 1.419 . S
C482 C483 1.363 1_545 S
C482 H485 0.929 . S
C483 C482 1.363 1_565 S
C483 C489 1.428 . S
H484 C480 0.930 . S
H485 C482 0.929 . S
S486 N487 1.613 . S
S486 N488 1.610 . S
N487 S486 1.613 . S
N487 C490 1.350 . S
N488 S486 1.610 . S
N488 C489 1.351 . S
C489 C483 1.428 . S
C489 N488 1.351 . S
C489 C490 1.434 . S
C490 C481 1.429 . S
C490 N487 1.350 . S
C490 C489 1.434 . S
C491 C492 1.369 . S
C491 C493 1.419 . S
C491 H495 0.930 . S
C492 C491 1.369 . S
C492 C501 1.429 . S
C493 C491 1.419 . S
C493 C494 1.363 . S
C493 H496 0.929 . S
C494 C493 1.363 . S
C494 C500 1.428 . S
H495 C491 0.930 . S
H496 C493 0.929 . S
S497 N498 1.613 . S
S497 N499 1.610 . S
N498 S497 1.613 . S
N498 C501 1.350 1_565 S
N499 S497 1.610 . S
N499 C500 1.351 1_565 S
C500 C494 1.428 . S
C500 N499 1.351 1_545 S
C500 C501 1.434 . S
C501 C492 1.429 . S
C501 N498 1.350 1_545 S
C501 C500 1.434 . S
C502 C503 1.369 . S
C502 C504 1.419 . S
C502 H506 0.930 . S
C503 C502 1.369 . S
C503 C512 1.429 . S
C504 C502 1.419 . S
C504 C505 1.363 . S
C504 H507 0.929 . S
C505 C504 1.363 . S
C505 C511 1.428 . S
H506 C502 0.930 . S
H507 C504 0.929 . S
S508 N509 1.613 . S
S508 N510 1.610 . S
N509 S508 1.613 . S
N509 C512 1.350 . S
N510 S508 1.610 . S
N510 C511 1.351 . S
C511 C505 1.428 . S
C511 N510 1.351 . S
C511 C512 1.434 . S
C512 C503 1.429 . S
C512 N509 1.350 . S
C512 C511 1.434 . S
C513 C514 1.369 . S
C513 C515 1.419 . S
C513 H517 0.930 . S
C514 C513 1.369 . S
C514 C523 1.429 . S
C515 C513 1.419 . S
C515 C516 1.363 . S
C515 H518 0.929 . S
C516 C515 1.363 . S
C516 C522 1.428 . S
H517 C513 0.930 . S
H518 C515 0.929 . S
S519 N520 1.613 . S
S519 N521 1.610 . S
N520 S519 1.613 . S
N520 C523 1.350 . S
N521 S519 1.610 . S
N521 C522 1.351 . S
C522 C516 1.428 . S
C522 N521 1.351 . S
C522 C523 1.434 . S
C523 C514 1.429 . S
C523 N520 1.350 . S
C523 C522 1.434 . S
C524 C525 1.369 . S
C524 C526 1.419 . S
C524 H528 0.930 . S
C525 C524 1.369 . S
C525 C534 1.429 1_556 S
C526 C524 1.419 . S
C526 C527 1.363 . S
C526 H529 0.929 . S
C527 C526 1.363 . S
C527 C533 1.428 1_556 S
H528 C524 0.930 . S
H529 C526 0.929 . S
S530 N531 1.613 . S
S530 N532 1.610 . S
N531 S530 1.613 . S
N531 C534 1.350 . S
N532 S530 1.610 . S
N532 C533 1.351 . S
C533 C527 1.428 1_554 S
C533 N532 1.351 . S
C533 C534 1.434 . S
C534 C525 1.429 1_554 S
C534 N531 1.350 . S
C534 C533 1.434 . S
C535 C536 1.369 1_565 S
C535 C537 1.419 . S
C535 H539 0.930 . S
C536 C535 1.369 1_545 S
C536 C545 1.429 . S
C537 C535 1.419 . S
C537 C538 1.363 1_565 S
C537 H540 0.929 . S
C538 C537 1.363 1_545 S
C538 C544 1.428 . S
H539 C535 0.930 . S
H540 C537 0.929 . S
S541 N542 1.613 . S
S541 N543 1.610 . S
N542 S541 1.613 . S
N542 C545 1.350 . S
N543 S541 1.610 . S
N543 C544 1.351 . S
C544 C538 1.428 . S
C544 N543 1.351 . S
C544 C545 1.434 . S
C545 C536 1.429 . S
C545 N542 1.350 . S
C545 C544 1.434 . S
C546 C547 1.369 . S
C546 C548 1.419 . S
C546 H550 0.930 . S
C547 C546 1.369 . S
C547 C556 1.429 . S
C548 C546 1.419 . S
C548 C549 1.363 . S
C548 H551 0.929 . S
C549 C548 1.363 . S
C549 C555 1.428 1_554 S
H550 C546 0.930 . S
H551 C548 0.929 . S
S552 N553 1.613 . S
S552 N554 1.610 . S
N553 S552 1.613 . S
N553 C556 1.350 1_556 S
N554 S552 1.610 . S
N554 C555 1.351 . S
C555 C549 1.428 1_556 S
C555 N554 1.351 . S
C555 C556 1.434 1_556 S
C556 C547 1.429 . S
C556 N553 1.350 1_554 S
C556 C555 1.434 1_554 S
C557 C558 1.369 . S
C557 C559 1.419 . S
C557 H561 0.930 . S
C558 C557 1.369 . S
C558 C567 1.429 . S
C559 C557 1.419 . S
C559 C560 1.363 . S
C559 H562 0.929 . S
C560 C559 1.363 . S
C560 C566 1.428 . S
H561 C557 0.930 . S
H562 C559 0.929 . S
S563 N564 1.613 . S
S563 N565 1.610 . S
N564 S563 1.613 . S
N564 C567 1.350 . S
N565 S563 1.610 . S
N565 C566 1.351 . S
C566 C560 1.428 . S
C566 N565 1.351 . S
C566 C567 1.434 . S
C567 C558 1.429 . S
C567 N564 1.350 . S
C567 C566 1.434 . S
C568 C569 1.369 1_554 S
C568 C570 1.419 . S
C568 H572 0.930 . S
C569 C568 1.369 1_556 S
C569 C578 1.429 . S
C570 C568 1.419 . S
C570 C571 1.363 1_554 S
C570 H573 0.929 . S
C571 C570 1.363 1_556 S
C571 C577 1.428 . S
H572 C568 0.930 . S
H573 C570 0.929 . S
S574 N575 1.613 . S
S574 N576 1.610 . S
N575 S574 1.613 . S
N575 C578 1.350 . S
N576 S574 1.610 . S
N576 C577 1.351 . S
C577 C571 1.428 . S
C577 N576 1.351 . S
C577 C578 1.434 . S
C578 C569 1.429 . S
C578 N575 1.350 . S
C578 C577 1.434 . S
C579 C580 1.369 . S
C579 C581 1.419 . S
C579 H583 0.930 . S
C580 C579 1.369 . S
C580 C589 1.429 . S
C581 C579 1.419 . S
C581 C582 1.363 . S
C581 H584 0.929 . S
C582 C581 1.363 . S
C582 C588 1.428 . S
H583 C579 0.930 . S
H584 C581 0.929 . S
S585 N586 1.613 . S
S585 N587 1.610 . S
N586 S585 1.613 . S
N586 C589 1.350 . S
N587 S585 1.610 . S
N587 C588 1.351 . S
C588 C582 1.428 . S
C588 N587 1.351 . S
C588 C589 1.434 . S
C589 C580 1.429 . S
C589 N586 1.350 . S
C589 C588 1.434 . S
C590 C591 1.369 . S
C590 C592 1.419 . S
C590 H594 0.930 . S
C591 C590 1.369 . S
C591 C600 1.429 . S
C592 C590 1.419 . S
C592 C593 1.363 . S
C592 H595 0.929 . S
C593 C592 1.363 . S
C593 C599 1.428 . S
H594 C590 0.930 . S
H595 C592 0.929 . S
S596 N597 1.613 . S
S596 N598 1.610 . S
N597 S596 1.613 . S
N597 C600 1.350 1_655 S
N598 S596 1.610 . S
N598 C599 1.351 1_655 S
C599 C593 1.428 . S
C599 N598 1.351 1_455 S
C599 C600 1.434 . S
C600 C591 1.429 . S
C600 N597 1.350 1_455 S
C600 C599 1.434 . S
C601 C602 1.369 . S
C601 C603 1.419 . S
C601 H605 0.930 . S
C602 C601 1.369 . S
C602 C611 1.429 . S
C603 C601 1.419 . S
C603 C604 1.363 . S
C603 H606 0.929 . S
C604 C603 1.363 . S
C604 C610 1.428 . S
H605 C601 0.930 . S
H606 C603 0.929 . S
S607 N608 1.613 . S
S607 N609 1.610 . S
N608 S607 1.613 . S
N608 C611 1.350 . S
N609 S607 1.610 . S
N609 C610 1.351 . S
C610 C604 1.428 . S
C610 N609 1.351 . S
C610 C611 1.434 . S
C611 C602 1.429 . S
C611 N608 1.350 . S
C611 C610 1.434 . S
C349 C29 1.548 . S
C351 C274 1.612 . S
C360 C49 1.564 . S
C362 C298 1.516 . S
C373 C318 1.495 . S
C371 C93 1.382 . S
C382 C119 1.341 . S
C384 C341 1.447 . S
C395 C300 1.616 . S
C393 C17 1.605 . S
C406 C276 1.645 . S
C404 C61 1.692 . S
C417 C344 1.543 . S
C415 C81 1.514 . S
C428 C321 1.583 . S
C426 C125 1.529 . S
C437 C23 1.367 . S
C439 C346 1.384 . S
C450 C295 1.602 . S
C448 C87 1.512 . S
C459 C113 1.555 . S
C461 C273 1.644 . S
C470 C55 1.446 . S
C472 C323 1.398 . S
C483 C277 1.677 . S
C481 C157 1.681 . S
C492 C189 1.511 . S
C494 C299 1.638 . S
C503 C221 1.771 . S
C505 C319 1.756 . S
C514 C253 1.599 . S
C516 C342 1.769 . S
C525 C145 1.686 . S
C527 C297 1.617 . S
C538 C275 1.625 . S
C536 C183 1.441 . S
C549 C345 1.541 . S
C547 C209 1.588 . S
C560 C322 1.532 . S
C558 C247 1.452 . S
C569 C151 1.882 . S
C571 C343 1.807 . S
C582 C296 1.615 . S
C580 C215 1.639 . S
C593 C272 1.643 . S
C591 C241 1.505 . S
C602 C177 1.717 . S
C604 C320 1.813 . S
