# Generated by pormake.
# Topology tsx, (6,3)-cn, num edge types: 1
# Building blocks:
#     Node 0, Type 0, BuildingBlock: CIFDUS_clean_sbu_1, # of connection points: 6
#     Node 1, Type 0, BuildingBlock: CIFDUS_clean_sbu_1, # of connection points: 6
#     Node 2, Type 1, BuildingBlock: CUQRIR_clean_linker_1, # of connection points: 3
#     Node 3, Type 1, BuildingBlock: CUQRIR_clean_linker_1, # of connection points: 3
#     Node 4, Type 1, BuildingBlock: CUQRIR_clean_linker_1, # of connection points: 3
#     Node 5, Type 1, BuildingBlock: CUQRIR_clean_linker_1, # of connection points: 3
#     Edge 6, Type (0, 1), BuildingBlock: ZUJKAS_clean_linker_0, # of connection points: 2
#     Edge 7, Type (0, 1), BuildingBlock: ZUJKAS_clean_linker_0, # of connection points: 2
#     Edge 8, Type (0, 1), BuildingBlock: ZUJKAS_clean_linker_0, # of connection points: 2
#     Edge 9, Type (0, 1), BuildingBlock: ZUJKAS_clean_linker_0, # of connection points: 2
#     Edge 10, Type (0, 1), BuildingBlock: ZUJKAS_clean_linker_0, # of connection points: 2
#     Edge 11, Type (0, 1), BuildingBlock: ZUJKAS_clean_linker_0, # of connection points: 2
#     Edge 12, Type (0, 1), BuildingBlock: ZUJKAS_clean_linker_0, # of connection points: 2
#     Edge 13, Type (0, 1), BuildingBlock: ZUJKAS_clean_linker_0, # of connection points: 2
#     Edge 14, Type (0, 1), BuildingBlock: ZUJKAS_clean_linker_0, # of connection points: 2
#     Edge 15, Type (0, 1), BuildingBlock: ZUJKAS_clean_linker_0, # of connection points: 2
#     Edge 16, Type (0, 1), BuildingBlock: ZUJKAS_clean_linker_0, # of connection points: 2
#     Edge 17, Type (0, 1), BuildingBlock: ZUJKAS_clean_linker_0, # of connection points: 2
# Relax obj value: 0.155
# Max RMSD: 0.176
# Mean RMSD: 0.162
data_MOF--net-tsx--node1-CIFDUS_clean_sbu_1--node2-CUQRIR_clean_linker_1--edge1-ZUJKAS_clean_linker_0
_symmetry_space_group_name_H-M    P1
_symmetry_Int_Tables_number       1
_symmetry_cell_setting            triclinic
loop_
_symmetry_equiv_pos_as_xyz
'x, y, z'
_cell_length_a     22.611299
_cell_length_b     27.50489
_cell_length_c     42.958108
_cell_angle_alpha  86.575919
_cell_angle_beta   91.347487
_cell_angle_gamma 90.891136
loop_
_atom_site_label
_atom_site_type_symbol
_atom_site_fract_x
_atom_site_fract_y
_atom_site_fract_z
_atom_type_partial_charge
O0 O 0.02736 0.10146 0.00458 0.0
Mn1 Mn 0.07699 0.03896 0.00021 0.0
O2 O 0.96233 0.09239 0.96559 0.0
Mn3 Mn 0.97716 0.02717 0.96205 0.0
O4 O 0.12537 0.97496 -0.00528 0.0
O5 O 0.15014 0.0825 0.00538 0.0
Mn6 Mn 0.20265 0.04418 0.02491 0.0
O7 O 0.07486 0.02414 0.04868 0.0
O8 O 0.22061 0.99569 -0.00055 0.0
O9 O 0.0877 0.05628 0.95184 0.0
O10 O 0.02067 0.01199 0.92884 0.0
O11 O 0.24108 0.10244 0.01966 0.0
O12 O 0.17124 0.02518 0.06328 0.0
C13 C 0.94955 0.97174 0.99124 0.0
C14 C 0.98579 0.11778 0.98632 0.0
C15 C 0.18042 0.96616 0.99147 0.0
C16 C 0.19127 0.1161 0.00678 0.0
C17 C 0.11657 0.01936 0.0696 0.0
C18 C 0.06851 0.03556 0.92765 0.0
O19 O 1.00076 0.9939 -0.0028 0.0
O20 O 0.91576 0.98843 0.96834 0.0
O21 O 0.52706 0.60766 0.50043 0.0
Mn22 Mn 0.57529 0.54292 0.50009 0.0
O23 O 0.47045 0.59882 0.45805 0.0
Mn24 Mn 0.48397 0.53289 0.45693 0.0
O25 O 0.62095 0.47653 0.4981 0.0
O26 O 0.65146 0.58434 0.50813 0.0
Mn27 Mn 0.68654 0.54396 0.53676 0.0
O28 O 0.55821 0.53047 0.54827 0.0
O29 O 0.70797 0.48562 0.52239 0.0
O30 O 0.5968 0.55746 0.45232 0.0
O31 O 0.53278 0.51341 0.4272 0.0
O32 O 0.73939 0.59219 0.53267 0.0
O33 O 0.64533 0.54094 0.57286 0.0
C34 C 0.44655 0.48035 0.48538 0.0
C35 C 0.48932 0.62433 0.47987 0.0
C36 C 0.67206 0.46045 0.50689 0.0
C37 C 0.69973 0.61051 0.51325 0.0
C38 C 0.59001 0.53345 0.57335 0.0
C39 C 0.58131 0.53584 0.42777 0.0
O40 O 0.49746 0.50078 0.49389 0.0
O41 O 0.41968 0.49688 0.46001 0.0
C42 C 1.00694 0.99904 0.44166 0.0
N43 N 0.04692 0.97975 0.42298 0.0
N44 N 0.9861 0.04181 0.42866 0.0
C45 C 0.98056 0.97111 0.4691 0.0
C46 C 0.01569 0.04776 0.40162 0.0
N47 N 0.05152 0.00981 0.39776 0.0
C48 C 0.01053 0.09094 0.37854 0.0
H49 H 0.97221 0.93297 0.46304 0.0
H50 H 0.93869 0.98729 0.47605 0.0
H51 H 0.01246 0.96948 0.48896 0.0
H52 H 1.00087 0.12451 0.39046 0.0
H53 H 0.97435 0.08401 0.36142 0.0
H54 H 0.05215 0.09655 0.36552 0.0
C55 C 0.03367 0.07011 0.55659 0.0
N56 N 0.05463 0.09841 0.5791 0.0
N57 N 0.98329 0.04662 0.56578 0.0
C58 C 0.06728 0.06128 0.52781 0.0
C59 C 0.97538 0.06121 0.59491 0.0
N60 N 0.01871 0.09278 0.60306 0.0
C61 C 0.92983 0.03971 0.61688 0.0
H62 H 0.06642 0.09448 0.51183 0.0
H63 H 0.04899 0.02992 0.51579 0.0
H64 H 0.11435 0.05435 0.53423 0.0
H65 H 0.94713 0.00537 0.62827 0.0
H66 H 0.88818 0.03105 0.6041 0.0
H67 H 0.92037 0.06501 0.63525 0.0
C68 C 0.55578 0.52408 0.944 0.0
N69 N 0.57784 0.49319 0.924 0.0
N70 N 0.50789 0.54705 0.93113 0.0
C71 C 0.585 0.53555 0.97447 0.0
C72 C 0.50228 0.52968 0.90246 0.0
N73 N 0.5446 0.49673 0.89809 0.0
C74 C 0.45951 0.54875 0.87749 0.0
H75 H 0.56134 0.51582 -0.00627 0.0
H76 H 0.58335 0.57519 0.97756 0.0
H77 H 0.63189 0.52415 0.97558 0.0
H78 H 0.48309 0.5752 0.86148 0.0
H79 H 0.42181 0.56727 0.88755 0.0
H80 H 0.4425 0.51858 0.86361 0.0
C81 C 0.5011 0.58516 0.05732 0.0
N82 N 0.53413 0.60504 0.08015 0.0
N83 N 0.46657 0.54828 0.06926 0.0
C84 C 0.5005 0.60259 0.02371 0.0
C85 C 0.47983 0.54623 0.10012 0.0
N86 N 0.521 0.58047 0.10668 0.0
C87 C 0.45264 0.51026 0.12355 0.0
H88 H 0.46437 0.62907 0.01979 0.0
H89 H 0.49078 0.57182 0.00898 0.0
H90 H 0.54287 0.62063 0.01703 0.0
H91 H 0.46013 0.47272 0.1165 0.0
H92 H 0.40413 0.51566 0.12357 0.0
H93 H 0.4708 0.51405 0.14748 0.0
H94 H 0.13853 0.18106 0.04118 0.0
H95 H 0.17311 0.26569 0.0435 0.0
H96 H 0.27048 0.25269 0.95948 0.0
H97 H 0.23671 0.16785 0.95744 0.0
H98 H 0.31285 0.27096 0.04277 0.0
H99 H 0.19339 0.39965 0.95924 0.0
H100 H 0.1567 0.34696 0.97769 0.0
H101 H 0.20948 0.33911 0.94801 0.0
C102 C 0.16393 0.1973 0.02205 0.0
C103 C 0.18377 0.16831 -0.0013 0.0
C104 C 0.18444 0.24543 0.02366 0.0
C105 C 0.22424 0.26541 0.00162 0.0
C106 C 0.23913 0.23818 0.97644 0.0
H107 H 0.50518 0.47806 0.03443 0.0
H108 H 0.44574 0.41129 0.01356 0.0
C109 C 0.21913 0.1899 0.97505 0.0
C110 C 0.25869 0.31009 0.00821 0.0
H111 H 0.27391 0.43161 0.98799 0.0
C112 C 0.30437 0.30612 0.03083 0.0
C113 C 0.24768 0.35562 -0.00758 0.0
C114 C 0.1991 0.36113 0.96796 0.0
C115 C 0.33918 0.34666 0.03827 0.0
C116 C 0.32822 0.39242 0.02252 0.0
C117 C 0.28239 0.39644 -0.00011 0.0
C118 C 0.36273 0.43655 0.03033 0.0
C119 C 0.38681 0.34033 0.06334 0.0
C120 C 0.33543 0.47393 0.04535 0.0
C121 C 0.36931 0.51228 0.05675 0.0
C122 C 0.43073 0.51391 0.05306 0.0
C123 C 0.45766 0.47784 0.03678 0.0
C124 C 0.42386 0.43958 0.02527 0.0
H125 H 0.38141 0.30552 0.07755 0.0
H126 H 0.43065 0.34018 0.05226 0.0
H127 H 0.38669 0.37089 0.0791 0.0
H128 H 0.28837 0.47222 0.04955 0.0
H129 H 0.34813 0.53967 0.06954 0.0
H130 H 0.27096 0.9506 0.95381 0.0
H131 H 0.3188 0.87333 0.94646 0.0
H132 H 0.18599 0.79755 0.00204 0.0
H133 H 0.1368 0.87529 0.0088 0.0
H134 H 0.36517 0.8164 -0.00353 0.0
H135 H 0.20112 0.71094 0.92817 0.0
H136 H 0.19659 0.7761 0.93064 0.0
H137 H 0.17531 0.73589 0.96305 0.0
C138 C 0.25096 0.91726 0.96368 0.0
C139 C 0.20003 0.91872 0.98166 0.0
C140 C 0.27851 0.87322 0.95964 0.0
C141 C 0.25601 0.8297 0.97368 0.0
C142 C 0.20353 0.83062 0.99056 0.0
H143 H 0.40509 0.53933 0.96098 0.0
H144 H 0.34391 0.60678 0.97624 0.0
C145 C 0.17536 0.87492 -0.00568 0.0
C146 C 0.29082 0.78464 0.97246 0.0
H147 H 0.29065 0.67263 0.94246 0.0
C148 C 0.3488 0.78476 0.98483 0.0
C149 C 0.26912 0.74327 0.95768 0.0
C150 C 0.20727 0.74133 0.9439 0.0
C151 C 0.38626 0.74513 0.98221 0.0
C152 C 0.36563 0.7045 0.96607 0.0
C153 C 0.30676 0.7037 0.95472 0.0
C154 C 0.40472 0.66355 0.9593 0.0
C155 C 0.44741 0.74776 -0.00311 0.0
C156 C 0.45923 0.67275 0.94477 0.0
C157 C 0.49446 0.63427 0.93688 0.0
C158 C 0.47526 0.58607 0.94275 0.0
C159 C 0.42069 0.57652 0.95681 0.0
C160 C 0.38585 0.61496 0.96529 0.0
H161 H 0.47787 0.76624 0.97994 0.0
H162 H 0.44761 0.76951 0.01788 0.0
H163 H 0.4648 0.71121 0.00377 0.0
H164 H 0.47387 0.70968 0.93871 0.0
H165 H 0.5358 0.64194 0.92522 0.0
H166 H 0.94659 0.94353 0.05466 0.0
H167 H 0.8887 0.87371 0.07752 0.0
H168 H 0.84379 0.83023 0.98492 0.0
H169 H 0.90334 0.89645 0.9627 0.0
H170 H 0.77402 0.85894 0.07225 0.0
H171 H 0.8758 0.70085 0.02306 0.0
H172 H 0.91188 0.75986 0.02161 0.0
H173 H 0.8576 0.74471 0.99207 0.0
C174 C 0.92651 0.91756 0.03948 0.0
C175 C 0.92981 0.92516 0.00693 0.0
C176 C 0.89281 0.8781 0.05244 0.0
C177 C 0.8624 0.84593 0.033 0.0
C178 C 0.86811 0.85296 0.00065 0.0
H179 H 0.5263 0.69699 0.05465 0.0
H180 H 0.60832 0.75573 0.04611 0.0
C181 C 0.90202 0.89136 0.9879 0.0
C182 C 0.81988 0.808 0.04553 0.0
H183 H 0.7716 0.69152 0.03522 0.0
C184 C 0.77428 0.82204 0.06466 0.0
C185 C 0.81993 0.75954 0.0359 0.0
C186 C 0.86939 0.74036 0.0173 0.0
C187 C 0.72759 0.78985 0.07312 0.0
C188 C 0.72559 0.74275 0.06154 0.0
C189 C 0.77248 0.72793 0.04367 0.0
C190 C 0.6753 0.7082 0.06748 0.0
C191 C 0.68076 0.80661 0.09434 0.0
C192 C 0.68573 0.66163 0.08156 0.0
C193 C 0.63915 0.62815 0.08598 0.0
C194 C 0.58133 0.64051 0.07639 0.0
C195 C 0.57065 0.68696 0.06229 0.0
C196 C 0.61733 0.72051 0.05773 0.0
H197 H 0.69727 0.83701 0.10824 0.0
H198 H 0.64215 0.81989 0.08003 0.0
H199 H 0.66551 0.7763 0.11058 0.0
H200 H 0.73007 0.65108 0.08897 0.0
H201 H 0.64835 0.59215 0.09634 0.0
H202 H 0.93377 0.15784 0.03544 0.0
H203 H 0.86868 0.22916 0.03103 0.0
H204 H 0.91837 0.25727 0.93529 0.0
H205 H 0.98255 0.18639 0.93951 0.0
H206 H 0.89454 0.34362 0.99194 0.0
H207 H 0.72546 0.20999 0.95181 0.0
H208 H 0.78205 0.19275 0.98058 0.0
H209 H 0.80126 0.20423 0.94056 0.0
C210 C 0.93272 0.1807 0.01401 0.0
C211 C 0.96331 0.16726 0.98788 0.0
C212 C 0.89537 0.22104 0.01143 0.0
C213 C 0.88895 0.24813 0.98281 0.0
C214 C 0.9232 0.2369 0.95757 0.0
H215 H 0.68355 0.48289 0.89696 0.0
H216 H 0.75942 0.42278 0.91291 0.0
C217 C 0.95993 0.19664 0.96005 0.0
C218 C 0.84089 0.28345 0.97744 0.0
H219 H 0.70081 0.29297 0.94654 0.0
C220 C 0.85193 0.33267 0.98234 0.0
C221 C 0.78561 0.26872 0.96486 0.0
C222 C 0.77231 0.21605 0.95913 0.0
C223 C 0.80899 0.36792 0.97438 0.0
C224 C 0.75445 0.35336 0.96082 0.0
C225 C 0.74293 0.30392 0.95674 0.0
C226 C 0.70866 0.38896 0.95066 0.0
C227 C 0.82193 0.42044 0.98054 0.0
C228 C 0.65477 0.38879 0.96611 0.0
C229 C 0.61151 0.42253 0.95677 0.0
C230 C 0.62128 0.45661 0.9317 0.0
C231 C 0.67476 0.45632 0.91591 0.0
C232 C 0.71823 0.42256 0.92529 0.0
H233 H 0.8611 0.42439 -0.00366 0.0
H234 H 0.8308 0.44116 0.95814 0.0
H235 H 0.78316 0.43695 0.99105 0.0
H236 H 0.64658 0.36299 0.98565 0.0
H237 H 0.57046 0.42254 0.96927 0.0
H238 H 0.62596 0.69017 0.50656 0.0
H239 H 0.66091 0.77565 0.50253 0.0
H240 H 0.83922 0.72641 0.49168 0.0
H241 H 0.80406 0.64324 0.49284 0.0
H242 H 0.72562 0.81713 0.5415 0.0
H243 H 0.85308 0.83838 0.43442 0.0
H244 H 0.80395 0.78685 0.44141 0.0
H245 H 0.8798 0.78528 0.45583 0.0
C246 C 0.67184 0.69812 0.50129 0.0
C247 C 0.71218 0.66009 0.49959 0.0
C248 C 0.69214 0.74692 0.49956 0.0
C249 C 0.75294 0.75816 0.49632 0.0
C250 C 0.79201 0.71983 0.49282 0.0
H251 H 0.01446 0.95348 0.56136 0.0
H252 H 0.95187 0.88729 0.5418 0.0
C253 C 0.77172 0.67179 0.49371 0.0
C254 C 0.77765 0.80814 0.50081 0.0
H255 H 0.89101 0.88479 0.47799 0.0
C256 C 0.76063 0.83255 0.52702 0.0
C257 C 0.82337 0.82905 0.48201 0.0
C258 C 0.84042 0.80859 0.4517 0.0
C259 C 0.7906 0.87492 0.53599 0.0
C260 C 0.83939 0.893 0.51864 0.0
C261 C 0.85441 0.87035 0.49163 0.0
C262 C 0.87748 0.93358 0.52918 0.0
C263 C 0.77172 0.89893 0.56476 0.0
C264 C 0.85675 0.98154 0.52802 0.0
C265 C 0.89271 0.01914 0.53887 0.0
C266 C 0.94982 0.00936 0.55088 0.0
C267 C 0.97086 0.96164 0.55165 0.0
C268 C 0.93506 0.92403 0.54072 0.0
H269 H 0.73728 0.8773 0.57767 0.0
H270 H 0.81037 0.9044 0.58067 0.0
H271 H 0.75352 0.93535 0.55787 0.0
H272 H 0.81268 0.98976 0.519 0.0
H273 H 0.87569 0.05574 0.5386 0.0
H274 H 0.73813 0.39953 0.54443 0.0
H275 H 0.78199 0.32274 0.53206 0.0
H276 H 0.69506 0.33274 0.44152 0.0
H277 H 0.6504 0.41028 0.45396 0.0
H278 H 0.73211 0.23348 0.51429 0.0
H279 H 0.87441 0.32249 0.42322 0.0
H280 H 0.83672 0.35627 0.45134 0.0
H281 H 0.7967 0.33449 0.41822 0.0
C282 C 0.72777 0.38516 0.52197 0.0
C283 C 0.69105 0.41099 0.50008 0.0
C284 C 0.75284 0.34121 0.51497 0.0
C285 C 0.74253 0.32234 0.48574 0.0
C286 C 0.70412 0.34703 0.46412 0.0
H287 H 0.8921 0.08007 0.39613 0.0
H288 H 0.82981 0.14621 0.41146 0.0
C289 C 0.67821 0.391 0.4713 0.0
C290 C 0.7739 0.27777 0.47783 0.0
H291 H 0.87798 0.23682 0.42972 0.0
C292 C 0.76379 0.23408 0.4957 0.0
C293 C 0.81626 0.27893 0.45408 0.0
C294 C 0.83231 0.32558 0.43574 0.0
C295 C 0.79378 0.19122 0.48987 0.0
C296 C 0.83511 0.1922 0.46563 0.0
C297 C 0.84564 0.236 0.44801 0.0
C298 C 0.86824 0.14844 0.45795 0.0
C299 C 0.78062 0.14516 0.50945 0.0
C300 C 0.90954 0.12686 0.47922 0.0
C301 C 0.9457 0.08954 0.47017 0.0
C302 C 0.94183 0.07356 0.43979 0.0
C303 C 0.89759 0.09288 0.41935 0.0
C304 C 0.86174 0.13041 0.42817 0.0
H305 H 0.73834 0.14744 0.52191 0.0
H306 H 0.77836 0.11315 0.49486 0.0
H307 H 0.81669 0.13907 0.52715 0.0
H308 H 0.91561 0.14018 0.50232 0.0
H309 H 0.97831 0.07455 0.48639 0.0
H310 H 0.34857 0.43254 0.46665 0.0
H311 H 0.2985 0.36361 0.49107 0.0
H312 H 0.4272 0.35876 0.56686 0.0
H313 H 0.47903 0.4306 0.54213 0.0
H314 H 0.33954 0.27314 0.50312 0.0
H315 H 0.26784 0.35339 0.61196 0.0
H316 H 0.29679 0.39051 0.57957 0.0
H317 H 0.34586 0.35423 0.60446 0.0
C318 C 0.36687 0.41765 0.48865 0.0
C319 C 0.41811 0.4378 0.50244 0.0
C320 C 0.33782 0.37767 0.50257 0.0
C321 C 0.35865 0.35596 0.53086 0.0
C322 C 0.40991 0.37539 0.54512 0.0
H323 H 0.16174 0.09801 0.60873 0.0
H324 H 0.2417 0.15897 0.60105 0.0
C325 C 0.43962 0.41622 0.53095 0.0
C326 C 0.32542 0.31273 0.54406 0.0
H327 H 0.22799 0.27676 0.60096 0.0
C328 C 0.31618 0.27349 0.52487 0.0
C329 C 0.29428 0.31343 0.57223 0.0
C330 C 0.30112 0.35517 0.59328 0.0
C331 C 0.27466 0.23648 0.53224 0.0
C332 C 0.24205 0.23824 0.55973 0.0
C333 C 0.25336 0.27574 0.57989 0.0
C334 C 0.19289 0.20342 0.56638 0.0
C335 C 0.26391 0.19681 0.5099 0.0
C336 C 0.13911 0.20877 0.54968 0.0
C337 C 0.09356 0.17447 0.55434 0.0
C338 C 0.1011 0.13442 0.57576 0.0
C339 C 0.15463 0.12926 0.5927 0.0
C340 C 0.20024 0.16379 0.58817 0.0
H341 H 0.29914 0.19609 0.49235 0.0
H342 H 0.26126 0.16066 0.5228 0.0
H343 H 0.22095 0.20302 0.49736 0.0
H344 H 0.13276 0.23913 0.53274 0.0
H345 H 0.05249 0.17875 0.54103 0.0
H346 H 0.47678 0.69292 0.4329 0.0
H347 H 0.40554 0.75913 0.42955 0.0
H348 H 0.36198 0.72727 0.52582 0.0
H349 H 0.43444 0.661 0.52942 0.0
H350 H 0.26498 0.72239 0.47096 0.0
H351 H 0.39406 0.89569 0.47635 0.0
H352 H 0.42454 0.84738 0.45536 0.0
H353 H 0.41762 0.83972 0.49686 0.0
C354 C 0.4539 0.70142 0.45374 0.0
C355 C 0.46173 0.67237 0.48155 0.0
C356 C 0.41293 0.73901 0.45173 0.0
C357 C 0.37851 0.74802 0.4774 0.0
C358 C 0.38849 0.72099 0.50581 0.0
H359 H 0.11474 0.97638 0.47533 0.0
H360 H 0.19214 0.91794 0.49062 0.0
C361 C 0.43032 0.6836 0.50797 0.0
C362 C 0.32788 0.78163 0.47309 0.0
H363 H 0.29346 0.90175 0.4607 0.0
C364 C 0.27095 0.76166 0.46906 0.0
C365 C 0.33595 0.83266 0.47048 0.0
C366 C 0.39622 0.85553 0.4751 0.0
C367 C 0.2219 0.79147 0.46194 0.0
C368 C 0.23014 0.84263 0.45836 0.0
C369 C 0.28704 0.86257 0.4632 0.0
C370 C 0.18051 0.87621 0.44972 0.0
C371 C 0.16171 0.76781 0.45847 0.0
C372 C 0.14781 0.87227 0.42169 0.0
C373 C 0.10261 0.90517 0.41324 0.0
C374 C 0.08971 0.94294 0.4325 0.0
C375 C 0.12256 0.94681 0.46048 0.0
C376 C 0.16732 0.9138 0.46903 0.0
H377 H 0.16016 0.73089 0.47045 0.0
H378 H 0.12683 0.79026 0.46804 0.0
H379 H 0.15153 0.76389 0.43335 0.0
H380 H 0.15793 0.84427 0.40603 0.0
H381 H 0.07806 0.90118 0.39161 0.0
H382 H 0.19337 0.9895 0.11616 0.0
H383 H 0.17628 0.98062 0.17182 0.0
H384 H 0.99263 0.01549 0.15555 0.0
H385 H 1.00928 0.02503 0.09895 0.0
H386 H 0.10853 0.06923 0.20497 0.0
H387 H 0.0232 0.87819 0.21826 0.0
H388 H 0.07413 0.89608 0.18771 0.0
H389 H 1.00014 0.91853 0.18564 0.0
C390 C 0.14902 0.99503 0.12413 0.0
C391 C 0.10274 0.00849 0.10295 0.0
C392 C 0.13947 0.98982 0.15606 0.0
C393 C 0.08344 0.9976 0.16769 0.0
C394 C 0.03628 0.00934 0.14683 0.0
H395 H 0.97432 0.96901 0.35946 0.0
H396 H 0.984 0.96348 0.30323 0.0
C397 C 0.0458 0.01462 0.11457 0.0
C398 C 0.07631 0.99572 0.20187 0.0
H399 H 0.04524 0.91785 0.26431 0.0
C400 C 0.09418 0.03637 0.21806 0.0
C401 C 0.05767 0.9528 0.21863 0.0
C402 C 0.03754 0.90866 0.20189 0.0
C403 C 0.09394 0.03525 0.25079 0.0
C404 C 0.07756 0.99153 0.26782 0.0
C405 C 0.0588 0.95108 0.2514 0.0
C406 C 0.07539 0.98822 0.3025 0.0
C407 C 0.10987 0.08139 0.2666 0.0
C408 C 0.12437 0.00151 0.32124 0.0
C409 C 0.11833 0.0054 0.35342 0.0
C410 C 0.06386 0.99454 0.36723 0.0
C411 C 0.01678 0.97705 0.34903 0.0
C412 C 0.02231 0.97415 0.31696 0.0
H413 H 0.10459 0.11417 0.25042 0.0
H414 H 0.08203 0.08564 0.28718 0.0
H415 H 0.15691 0.08005 0.27452 0.0
H416 H 0.16645 0.01091 0.3108 0.0
H417 H 0.15494 0.01913 0.3672 0.0
H418 H 0.08122 0.12713 0.90117 0.0
H419 H 0.08263 0.14848 0.84486 0.0
H420 H 0.10334 0.99694 0.82733 0.0
H421 H 0.09899 0.97543 0.88337 0.0
H422 H 0.1524 0.13641 0.79367 0.0
H423 H 0.94476 0.02767 0.78592 0.0
H424 H 0.97866 0.0419 0.82276 0.0
H425 H 1.00549 0.99228 0.80174 0.0
C426 C 0.08835 0.09873 0.88529 0.0
C427 C 0.09014 0.04971 0.89639 0.0
C428 C 0.08865 0.11087 0.85315 0.0
C429 C 0.09131 0.07412 0.83191 0.0
C430 C 0.09958 0.02571 0.8433 0.0
H431 H 0.09457 0.03989 0.63836 0.0
H432 H 0.11422 0.0448 0.6945 0.0
C433 C 0.09795 0.0135 0.87527 0.0
C434 C 0.07945 0.08532 0.79813 0.0
H435 H 0.98899 0.05333 0.73764 0.0
C436 C 0.11636 0.11863 0.78147 0.0
C437 C 0.03146 0.06295 0.78233 0.0
C438 C 0.98745 0.02963 0.79917 0.0
C439 C 0.10834 0.128 0.7491 0.0
C440 C 0.06257 0.10349 0.73328 0.0
C441 C 0.02423 0.07186 0.75003 0.0
C442 C 0.05707 0.10619 0.69895 0.0
C443 C 0.14944 0.16294 0.73165 0.0
C444 C 0.01903 0.13956 0.68302 0.0
C445 C 1.0085 0.13707 0.65086 0.0
C446 C 0.03585 0.10115 0.63464 0.0
C447 C 0.07462 0.0686 0.65055 0.0
C448 C 0.08549 0.07126 0.68244 0.0
H449 H 0.18069 0.18152 0.74753 0.0
H450 H 0.17517 0.14289 0.71497 0.0
H451 H 0.12328 0.19083 0.71783 0.0
H452 H 0.99612 0.16627 0.69561 0.0
H453 H 0.97744 0.16166 0.63887 0.0
H454 H 0.60718 0.59462 0.61902 0.0
H455 H 0.59186 0.57714 0.67452 0.0
H456 H 0.50341 0.44195 0.65469 0.0
H457 H 0.51989 0.45927 0.59853 0.0
H458 H 0.49738 0.55957 0.7113 0.0
H459 H 0.64084 0.39691 0.71236 0.0
H460 H 0.63488 0.4401 0.67919 0.0
H461 H 0.57692 0.39586 0.68672 0.0
C462 C 0.58289 0.56182 0.62642 0.0
C463 C 0.56438 0.52839 0.60459 0.0
C464 C 0.57446 0.55172 0.65816 0.0
C465 C 0.54764 0.50778 0.66886 0.0
C466 C 0.52527 0.47568 0.64695 0.0
H467 H 0.49644 0.4239 0.86644 0.0
H468 H 0.50012 0.41855 0.80946 0.0
C469 C 0.53366 0.48593 0.6149 0.0
C470 C 0.54671 0.49545 0.70302 0.0
H471 H 0.6054 0.41836 0.76082 0.0
C472 C 0.52033 0.52833 0.72206 0.0
C473 C 0.57765 0.45511 0.71711 0.0
C474 C 0.60969 0.4201 0.69791 0.0
C475 C 0.52466 0.52239 0.75469 0.0
C476 C 0.55612 0.48248 0.7687 0.0
C477 C 0.5812 0.44878 0.74986 0.0
C478 C 0.5646 0.47697 0.80298 0.0
C479 C 0.4967 0.5595 0.77405 0.0
C480 C 0.60177 0.50984 0.81811 0.0
C481 C 0.59978 0.51259 0.85039 0.0
C482 C 0.56109 0.48229 0.86799 0.0
C483 C 0.52756 0.44667 0.85322 0.0
C484 C 0.52939 0.44391 0.8208 0.0
H485 H 0.46483 0.58275 0.76013 0.0
H486 H 0.47339 0.54131 0.79413 0.0
H487 H 0.53185 0.58348 0.78352 0.0
H488 H 0.629 0.53578 0.8047 0.0
H489 H 0.62453 0.54121 0.86136 0.0
H490 H 0.61114 0.62603 0.4026 0.0
H491 H 0.61468 0.64804 0.34634 0.0
H492 H 0.60769 0.49587 0.32738 0.0
H493 H 0.60322 0.4739 0.38326 0.0
H494 H 0.68421 0.61869 0.29191 0.0
H495 H 0.44948 0.55673 0.2914 0.0
H496 H 0.49034 0.56824 0.3269 0.0
H497 H 0.49986 0.51213 0.30828 0.0
C498 C 0.61339 0.59735 0.38646 0.0
C499 C 0.6072 0.54829 0.39716 0.0
C500 C 0.61472 0.60994 0.35435 0.0
C501 C 0.61025 0.57356 0.3328 0.0
C502 C 0.61046 0.52447 0.34368 0.0
H503 H 0.60055 0.52831 0.1409 0.0
H504 H 0.62693 0.53758 0.19614 0.0
C505 C 0.60862 0.51194 0.37558 0.0
C506 C 0.59809 0.58614 0.29928 0.0
H507 H 0.49418 0.56978 0.24171 0.0
C508 C 0.64249 0.60858 0.28095 0.0
C509 C 0.54307 0.57379 0.28517 0.0
C510 C 0.49268 0.55182 0.30397 0.0
C511 C 0.63439 0.61622 0.24846 0.0
C512 C 0.58087 0.60102 0.23428 0.0
C513 C 0.53534 0.58112 0.25278 0.0
C514 C 0.57294 0.6011 0.20008 0.0
C515 C 0.68321 0.63944 0.22921 0.0
C516 C 0.53485 0.63432 0.18411 0.0
C517 C 0.52062 0.62932 0.15259 0.0
C518 C 0.5436 0.59069 0.13706 0.0
C519 C 0.58323 0.55857 0.15269 0.0
C520 C 0.59809 0.56389 0.18402 0.0
H521 H 0.71837 0.65578 0.24394 0.0
H522 H 0.70334 0.61146 0.21535 0.0
H523 H 0.66498 0.66813 0.21254 0.0
H524 H 0.51462 0.66291 0.1963 0.0
H525 H 0.48941 0.65391 0.14071 0.0
loop_
_geom_bond_atom_site_label_1
_geom_bond_atom_site_label_2
_geom_bond_distance
_geom_bond_site_symmetry_2
_ccdc_geom_bond_type
O0 Mn1 2.163 . S
O0 C14 1.244 1_454 S
Mn1 O0 2.163 . S
Mn1 O4 2.160 1_545 S
Mn1 O5 2.221 . S
Mn1 O7 2.163 . S
Mn1 O9 2.160 1_554 S
Mn1 O19 2.207 1_444 S
O2 Mn3 2.087 . S
O2 C14 1.256 . S
Mn3 O2 2.087 . S
Mn3 O10 2.089 . S
Mn3 O19 2.302 1_545 S
Mn3 O20 2.251 1_546 S
O4 Mn1 2.160 1_565 S
O4 C15 1.238 . S
O5 Mn1 2.221 . S
O5 Mn6 2.290 . S
O5 C16 1.278 . S
Mn6 O5 2.290 . S
Mn6 O8 2.089 1_545 S
Mn6 O11 2.251 . S
Mn6 O12 2.087 . S
O7 Mn1 2.163 . S
O7 C17 1.244 . S
O8 Mn6 2.089 1_565 S
O8 C15 1.256 . S
O9 Mn1 2.160 1_556 S
O9 C18 1.239 . S
O10 Mn3 2.089 . S
O10 C18 1.256 1_655 S
O11 Mn6 2.251 . S
O11 C16 1.241 . S
O12 Mn6 2.087 . S
O12 C17 1.256 . S
C13 O19 1.292 1_554 S
C13 O20 1.241 . S
C14 O0 1.244 1_656 S
C14 O2 1.256 . S
C15 O4 1.238 . S
C15 O8 1.256 . S
C16 O5 1.278 . S
C16 O11 1.241 . S
C17 O7 1.244 . S
C17 O12 1.256 . S
C18 O9 1.239 . S
C18 O10 1.256 1_455 S
O19 Mn1 2.207 1_666 S
O19 Mn3 2.302 1_565 S
O19 C13 1.292 1_556 S
O20 Mn3 2.251 1_564 S
O20 C13 1.241 . S
O21 Mn22 2.163 . S
O21 C35 1.244 . S
Mn22 O21 2.163 . S
Mn22 O25 2.160 . S
Mn22 O26 2.221 . S
Mn22 O28 2.163 . S
Mn22 O30 2.160 . S
Mn22 O40 2.221 . S
O23 Mn24 2.087 . S
O23 C35 1.256 . S
Mn24 O23 2.087 . S
Mn24 O31 2.089 . S
Mn24 O40 2.290 . S
Mn24 O41 2.251 . S
O25 Mn22 2.160 . S
O25 C36 1.239 . S
O26 Mn22 2.221 . S
O26 Mn27 2.290 . S
O26 C37 1.278 . S
Mn27 O26 2.290 . S
Mn27 O29 2.089 . S
Mn27 O32 2.251 . S
Mn27 O33 2.087 . S
O28 Mn22 2.163 . S
O28 C38 1.244 . S
O29 Mn27 2.089 . S
O29 C36 1.256 . S
O30 Mn22 2.160 . S
O30 C39 1.239 . S
O31 Mn24 2.089 . S
O31 C39 1.256 . S
O32 Mn27 2.251 . S
O32 C37 1.241 . S
O33 Mn27 2.087 . S
O33 C38 1.256 . S
C34 O40 1.278 . S
C34 O41 1.241 . S
C35 O21 1.244 . S
C35 O23 1.256 . S
C36 O25 1.239 . S
C36 O29 1.256 . S
C37 O26 1.278 . S
C37 O32 1.241 . S
C38 O28 1.244 . S
C38 O33 1.256 . S
C39 O30 1.239 . S
C39 O31 1.256 . S
O40 Mn22 2.221 . S
O40 Mn24 2.290 . S
O40 C34 1.278 . S
O41 Mn24 2.251 . S
O41 C34 1.241 . S
C42 N43 1.317 1_545 S
C42 N44 1.348 . S
C42 C45 1.488 . S
N43 C42 1.317 1_565 S
N43 N47 1.370 1_565 S
N44 C42 1.348 . S
N44 C46 1.346 . S
C45 C42 1.488 . S
C45 H49 0.947 1_545 S
C45 H50 0.982 . S
C45 H51 0.949 1_545 S
C46 N44 1.346 . S
C46 N47 1.307 . S
C46 C48 1.486 1_455 S
N47 N43 1.370 1_545 S
N47 C46 1.307 . S
C48 C46 1.486 1_655 S
C48 H52 0.960 . S
C48 H53 0.960 . S
C48 H54 0.959 . S
H49 C45 0.947 1_565 S
H50 C45 0.982 . S
H51 C45 0.949 1_565 S
H52 C48 0.960 . S
H53 C48 0.960 . S
H54 C48 0.959 . S
C55 N56 1.317 . S
C55 N57 1.348 1_455 S
C55 C58 1.485 . S
N56 C55 1.317 . S
N56 N60 1.370 . S
N57 C55 1.348 1_655 S
N57 C59 1.346 . S
C58 C55 1.485 . S
C58 H62 0.960 1_455 S
C58 H63 0.961 . S
C58 H64 0.960 . S
C59 N57 1.346 . S
C59 N60 1.307 1_655 S
C59 C61 1.486 . S
N60 N56 1.370 . S
N60 C59 1.307 1_455 S
C61 C59 1.486 . S
C61 H65 0.960 1_545 S
C61 H66 0.960 . S
C61 H67 0.959 . S
H62 C58 0.960 1_655 S
H63 C58 0.961 . S
H64 C58 0.960 . S
H65 C61 0.960 1_565 S
H66 C61 0.960 . S
H67 C61 0.959 . S
C68 N69 1.317 . S
C68 N70 1.348 . S
C68 C71 1.485 1_556 S
N69 C68 1.317 . S
N69 N73 1.370 . S
N70 C68 1.348 . S
N70 C72 1.346 . S
C71 C68 1.485 1_554 S
C71 H75 0.960 . S
C71 H76 0.961 . S
C71 H77 0.960 . S
C72 N70 1.346 . S
C72 N73 1.307 . S
C72 C74 1.486 . S
N73 N69 1.370 . S
N73 C72 1.307 . S
C74 C72 1.486 . S
C74 H78 0.960 . S
C74 H79 0.960 . S
C74 H80 0.959 . S
H75 C71 0.960 . S
H76 C71 0.961 . S
H77 C71 0.960 . S
H78 C74 0.960 . S
H79 C74 0.960 . S
H80 C74 0.959 . S
C81 N82 1.317 . S
C81 N83 1.348 . S
C81 C84 1.485 . S
N82 C81 1.317 . S
N82 N86 1.370 . S
N83 C81 1.348 . S
N83 C85 1.346 . S
C84 C81 1.485 . S
C84 H88 0.960 . S
C84 H89 0.974 . S
C84 H90 0.960 . S
C85 N83 1.346 . S
C85 N86 1.307 . S
C85 C87 1.486 . S
N86 N82 1.370 . S
N86 C85 1.307 . S
C87 C85 1.486 . S
C87 H91 0.960 . S
C87 H92 0.960 . S
C87 H93 0.959 . S
H88 C84 0.960 . S
H89 C84 0.974 . S
H90 C84 0.960 . S
H91 C87 0.960 . S
H92 C87 0.960 . S
H93 C87 0.959 . S
H94 C102 0.929 . S
H95 C104 0.930 . S
H96 C106 0.930 . S
H97 C109 0.929 . S
H98 C112 0.930 . S
H99 C114 0.960 . S
H100 C114 0.960 . S
H101 C114 0.960 . S
C102 H94 0.929 . S
C102 C103 1.377 . S
C102 C104 1.384 . S
C103 C102 1.377 . S
C103 C109 1.390 1_554 S
C104 H95 0.930 . S
C104 C102 1.384 . S
C104 C105 1.372 . S
C105 C104 1.372 . S
C105 C106 1.400 1_554 S
C105 C110 1.490 . S
C106 H96 0.930 . S
C106 C105 1.400 1_556 S
C106 C109 1.386 . S
H107 C123 0.930 . S
H108 C124 0.931 1_556 S
C109 H97 0.929 . S
C109 C103 1.390 1_556 S
C109 C106 1.386 . S
C110 C105 1.490 . S
C110 C112 1.395 . S
C110 C113 1.403 . S
H111 C117 0.930 . S
C112 H98 0.930 . S
C112 C110 1.395 . S
C112 C115 1.403 . S
C113 C110 1.403 . S
C113 C114 1.524 1_554 S
C113 C117 1.400 . S
C114 H99 0.960 . S
C114 H100 0.960 . S
C114 H101 0.960 . S
C114 C113 1.524 1_556 S
C115 C112 1.403 . S
C115 C116 1.392 . S
C115 C119 1.495 . S
C116 C115 1.392 . S
C116 C117 1.385 . S
C116 C118 1.478 . S
C117 H111 0.930 . S
C117 C113 1.400 . S
C117 C116 1.385 . S
C118 C116 1.478 . S
C118 C120 1.381 . S
C118 C124 1.383 . S
C119 C115 1.495 . S
C119 H125 0.959 . S
C119 H126 0.961 . S
C119 H127 0.960 . S
C120 C118 1.381 . S
C120 C121 1.394 . S
C120 H128 0.930 . S
C121 C120 1.394 . S
C121 C122 1.383 . S
C121 H129 0.929 . S
C122 C121 1.383 . S
C122 C123 1.377 . S
C123 H107 0.930 . S
C123 C122 1.377 . S
C123 C124 1.379 . S
C124 H108 0.931 1_554 S
C124 C118 1.383 . S
C124 C123 1.379 . S
H125 C119 0.959 . S
H126 C119 0.961 . S
H127 C119 0.960 . S
H128 C120 0.930 . S
H129 C121 0.929 . S
H130 C138 0.929 . S
H131 C140 0.930 . S
H132 C142 0.930 . S
H133 C145 0.929 . S
H134 C148 0.921 1_554 S
H135 C150 0.960 . S
H136 C150 0.960 . S
H137 C150 0.960 . S
C138 H130 0.929 . S
C138 C139 1.377 1_556 S
C138 C140 1.384 . S
C139 C138 1.377 1_554 S
C139 C145 1.390 . S
C140 H131 0.930 . S
C140 C138 1.384 . S
C140 C141 1.372 . S
C141 C140 1.372 . S
C141 C142 1.400 1_556 S
C141 C146 1.490 . S
C142 H132 0.930 . S
C142 C141 1.400 1_554 S
C142 C145 1.386 . S
H143 C159 0.930 1_554 S
H144 C160 0.931 1_554 S
C145 H133 0.929 . S
C145 C139 1.390 . S
C145 C142 1.386 . S
C146 C141 1.490 . S
C146 C148 1.400 . S
C146 C149 1.403 . S
H147 C153 0.930 . S
C148 H134 0.921 1_556 S
C148 C146 1.400 . S
C148 C151 1.407 . S
C149 C146 1.403 . S
C149 C150 1.524 . S
C149 C153 1.400 . S
C150 H135 0.960 . S
C150 H136 0.960 . S
C150 H137 0.960 . S
C150 C149 1.524 . S
C151 C148 1.407 . S
C151 C152 1.392 . S
C151 C155 1.495 1_556 S
C152 C151 1.392 . S
C152 C153 1.385 . S
C152 C154 1.478 . S
C153 H147 0.930 . S
C153 C149 1.400 . S
C153 C152 1.385 . S
C154 C152 1.478 . S
C154 C156 1.381 . S
C154 C160 1.383 . S
C155 C151 1.495 1_554 S
C155 H161 0.959 . S
C155 H162 0.961 . S
C155 H163 0.960 1_554 S
C156 C154 1.381 . S
C156 C157 1.394 . S
C156 H164 0.930 . S
C157 C156 1.394 . S
C157 C158 1.383 . S
C157 H165 0.929 . S
C158 C157 1.383 . S
C158 C159 1.377 . S
C159 H143 0.930 1_556 S
C159 C158 1.377 . S
C159 C160 1.379 . S
C160 H144 0.931 1_556 S
C160 C154 1.383 . S
C160 C159 1.379 . S
H161 C155 0.959 . S
H162 C155 0.961 . S
H163 C155 0.960 1_556 S
H164 C156 0.930 . S
H165 C157 0.929 . S
H166 C174 0.929 . S
H167 C176 0.930 . S
H168 C178 0.930 1_556 S
H169 C181 0.954 . S
H170 C184 0.930 . S
H171 C186 0.960 . S
H172 C186 0.960 1_554 S
H173 C186 0.960 . S
C174 H166 0.929 . S
C174 C175 1.377 . S
C174 C176 1.384 . S
C175 C174 1.377 . S
C175 C181 1.369 1_554 S
C176 H167 0.930 . S
C176 C174 1.384 . S
C176 C177 1.372 . S
C177 C176 1.372 . S
C177 C178 1.400 . S
C177 C182 1.490 . S
C178 H168 0.930 1_554 S
C178 C177 1.400 . S
C178 C181 1.382 1_554 S
H179 C195 0.930 . S
H180 C196 0.931 . S
C181 H169 0.954 . S
C181 C175 1.369 1_556 S
C181 C178 1.382 1_556 S
C182 C177 1.490 . S
C182 C184 1.395 . S
C182 C185 1.403 . S
H183 C189 0.930 . S
C184 H170 0.930 . S
C184 C182 1.395 . S
C184 C187 1.403 . S
C185 C182 1.403 . S
C185 C186 1.524 1_554 S
C185 C189 1.400 . S
C186 H171 0.960 . S
C186 H172 0.960 1_556 S
C186 H173 0.960 . S
C186 C185 1.524 1_556 S
C187 C184 1.403 . S
C187 C188 1.392 . S
C187 C191 1.495 . S
C188 C187 1.392 . S
C188 C189 1.385 . S
C188 C190 1.478 . S
C189 H183 0.930 . S
C189 C185 1.400 . S
C189 C188 1.385 . S
C190 C188 1.478 . S
C190 C192 1.381 . S
C190 C196 1.383 . S
C191 C187 1.495 . S
C191 H197 0.959 . S
C191 H198 0.961 . S
C191 H199 0.960 . S
C192 C190 1.381 . S
C192 C193 1.394 . S
C192 H200 0.930 . S
C193 C192 1.394 . S
C193 C194 1.383 . S
C193 H201 0.929 . S
C194 C193 1.383 . S
C194 C195 1.377 . S
C195 H179 0.930 . S
C195 C194 1.377 . S
C195 C196 1.379 . S
C196 H180 0.931 . S
C196 C190 1.383 . S
C196 C195 1.379 . S
H197 C191 0.959 . S
H198 C191 0.961 . S
H199 C191 0.960 . S
H200 C192 0.930 . S
H201 C193 0.929 . S
H202 C210 0.929 . S
H203 C212 0.930 . S
H204 C214 0.930 . S
H205 C217 0.929 . S
H206 C220 0.930 . S
H207 C222 0.960 . S
H208 C222 0.960 . S
H209 C222 0.960 . S
C210 H202 0.929 . S
C210 C211 1.377 1_554 S
C210 C212 1.384 . S
C211 C210 1.377 1_556 S
C211 C217 1.390 . S
C212 H203 0.930 . S
C212 C210 1.384 . S
C212 C213 1.372 1_554 S
C213 C212 1.372 1_556 S
C213 C214 1.400 . S
C213 C218 1.490 . S
C214 H204 0.930 . S
C214 C213 1.400 . S
C214 C217 1.386 . S
H215 C231 0.930 . S
H216 C232 0.931 . S
C217 H205 0.929 . S
C217 C211 1.390 . S
C217 C214 1.386 . S
C218 C213 1.490 . S
C218 C220 1.395 . S
C218 C221 1.403 . S
H219 C225 0.930 . S
C220 H206 0.930 . S
C220 C218 1.395 . S
C220 C223 1.403 . S
C221 C218 1.403 . S
C221 C222 1.524 . S
C221 C225 1.400 . S
C222 H207 0.960 . S
C222 H208 0.960 . S
C222 H209 0.960 . S
C222 C221 1.524 . S
C223 C220 1.403 . S
C223 C224 1.392 . S
C223 C227 1.495 . S
C224 C223 1.392 . S
C224 C225 1.385 . S
C224 C226 1.478 . S
C225 H219 0.930 . S
C225 C221 1.400 . S
C225 C224 1.385 . S
C226 C224 1.478 . S
C226 C228 1.381 . S
C226 C232 1.383 . S
C227 C223 1.495 . S
C227 H233 0.947 1_556 S
C227 H234 0.961 . S
C227 H235 0.960 1_556 S
C228 C226 1.381 . S
C228 C229 1.394 . S
C228 H236 0.930 1_556 S
C229 C228 1.394 . S
C229 C230 1.383 . S
C229 H237 0.930 1_556 S
C230 C229 1.383 . S
C230 C231 1.377 . S
C231 H215 0.930 . S
C231 C230 1.377 . S
C231 C232 1.379 . S
C232 H216 0.931 . S
C232 C226 1.383 . S
C232 C231 1.379 . S
H233 C227 0.947 1_554 S
H234 C227 0.961 . S
H235 C227 0.960 1_554 S
H236 C228 0.930 1_554 S
H237 C229 0.930 1_554 S
H238 C246 0.929 . S
H239 C248 0.930 . S
H240 C250 0.930 . S
H241 C253 0.929 . S
H242 C256 0.930 . S
H243 C258 0.960 . S
H244 C258 0.960 . S
H245 C258 0.960 . S
C246 H238 0.929 . S
C246 C247 1.377 . S
C246 C248 1.384 . S
C247 C246 1.377 . S
C247 C253 1.390 . S
C248 H239 0.930 . S
C248 C246 1.384 . S
C248 C249 1.372 . S
C249 C248 1.372 . S
C249 C250 1.400 . S
C249 C254 1.490 . S
C250 H240 0.930 . S
C250 C249 1.400 . S
C250 C253 1.386 . S
H251 C267 0.930 . S
H252 C268 0.931 . S
C253 H241 0.929 . S
C253 C247 1.390 . S
C253 C250 1.386 . S
C254 C249 1.490 . S
C254 C256 1.395 . S
C254 C257 1.403 . S
H255 C261 0.930 . S
C256 H242 0.930 . S
C256 C254 1.395 . S
C256 C259 1.403 . S
C257 C254 1.403 . S
C257 C258 1.524 . S
C257 C261 1.400 . S
C258 H243 0.960 . S
C258 H244 0.960 . S
C258 H245 0.960 . S
C258 C257 1.524 . S
C259 C256 1.403 . S
C259 C260 1.392 . S
C259 C263 1.495 . S
C260 C259 1.392 . S
C260 C261 1.385 . S
C260 C262 1.478 . S
C261 H255 0.930 . S
C261 C257 1.400 . S
C261 C260 1.385 . S
C262 C260 1.478 . S
C262 C264 1.381 . S
C262 C268 1.383 . S
C263 C259 1.495 . S
C263 H269 0.959 . S
C263 H270 0.961 . S
C263 H271 0.960 . S
C264 C262 1.381 . S
C264 C265 1.394 1_565 S
C264 H272 0.930 . S
C265 C264 1.394 1_545 S
C265 C266 1.383 . S
C265 H273 0.929 . S
C266 C265 1.383 . S
C266 C267 1.377 1_545 S
C267 H251 0.930 . S
C267 C266 1.377 1_565 S
C267 C268 1.379 . S
C268 H252 0.931 . S
C268 C262 1.383 . S
C268 C267 1.379 . S
H269 C263 0.959 . S
H270 C263 0.961 . S
H271 C263 0.960 . S
H272 C264 0.930 . S
H273 C265 0.929 . S
H274 C282 0.929 . S
H275 C284 0.930 . S
H276 C286 0.930 . S
H277 C289 0.929 . S
H278 C292 0.930 . S
H279 C294 0.960 . S
H280 C294 0.960 . S
H281 C294 0.960 . S
C282 H274 0.929 . S
C282 C283 1.377 . S
C282 C284 1.384 . S
C283 C282 1.377 . S
C283 C289 1.390 . S
C284 H275 0.930 . S
C284 C282 1.384 . S
C284 C285 1.372 . S
C285 C284 1.372 . S
C285 C286 1.400 . S
C285 C290 1.490 . S
C286 H276 0.930 . S
C286 C285 1.400 . S
C286 C289 1.386 . S
H287 C303 0.930 . S
H288 C304 0.931 . S
C289 H277 0.929 . S
C289 C283 1.390 . S
C289 C286 1.386 . S
C290 C285 1.490 . S
C290 C292 1.395 . S
C290 C293 1.403 . S
H291 C297 0.930 . S
C292 H278 0.930 . S
C292 C290 1.395 . S
C292 C295 1.403 . S
C293 C290 1.403 . S
C293 C294 1.524 . S
C293 C297 1.400 . S
C294 H279 0.960 . S
C294 H280 0.960 . S
C294 H281 0.960 . S
C294 C293 1.524 . S
C295 C292 1.403 . S
C295 C296 1.392 . S
C295 C299 1.495 . S
C296 C295 1.392 . S
C296 C297 1.385 . S
C296 C298 1.478 . S
C297 H291 0.930 . S
C297 C293 1.400 . S
C297 C296 1.385 . S
C298 C296 1.478 . S
C298 C300 1.381 . S
C298 C304 1.383 . S
C299 C295 1.495 . S
C299 H305 0.959 . S
C299 H306 0.961 . S
C299 H307 0.960 . S
C300 C298 1.381 . S
C300 C301 1.394 . S
C300 H308 0.930 . S
C301 C300 1.394 . S
C301 C302 1.383 . S
C301 H309 0.929 . S
C302 C301 1.383 . S
C302 C303 1.377 . S
C303 H287 0.930 . S
C303 C302 1.377 . S
C303 C304 1.379 . S
C304 H288 0.931 . S
C304 C298 1.383 . S
C304 C303 1.379 . S
H305 C299 0.959 . S
H306 C299 0.961 . S
H307 C299 0.960 . S
H308 C300 0.930 . S
H309 C301 0.929 . S
H310 C318 0.929 . S
H311 C320 0.930 . S
H312 C322 0.930 . S
H313 C325 0.929 . S
H314 C328 0.930 . S
H315 C330 0.960 . S
H316 C330 0.960 . S
H317 C330 0.960 . S
C318 H310 0.929 . S
C318 C319 1.377 . S
C318 C320 1.384 . S
C319 C318 1.377 . S
C319 C325 1.390 . S
C320 H311 0.930 . S
C320 C318 1.384 . S
C320 C321 1.372 . S
C321 C320 1.372 . S
C321 C322 1.400 . S
C321 C326 1.490 . S
C322 H312 0.930 . S
C322 C321 1.400 . S
C322 C325 1.386 . S
H323 C339 0.930 . S
H324 C340 0.931 . S
C325 H313 0.929 . S
C325 C319 1.390 . S
C325 C322 1.386 . S
C326 C321 1.490 . S
C326 C328 1.395 . S
C326 C329 1.403 . S
H327 C333 0.930 . S
C328 H314 0.930 . S
C328 C326 1.395 . S
C328 C331 1.403 . S
C329 C326 1.403 . S
C329 C330 1.524 . S
C329 C333 1.400 . S
C330 H315 0.960 . S
C330 H316 0.960 . S
C330 H317 0.960 . S
C330 C329 1.524 . S
C331 C328 1.403 . S
C331 C332 1.392 . S
C331 C335 1.495 . S
C332 C331 1.392 . S
C332 C333 1.385 . S
C332 C334 1.478 . S
C333 H327 0.930 . S
C333 C329 1.400 . S
C333 C332 1.385 . S
C334 C332 1.478 . S
C334 C336 1.381 . S
C334 C340 1.383 . S
C335 C331 1.495 . S
C335 H341 0.959 . S
C335 H342 0.961 . S
C335 H343 0.960 . S
C336 C334 1.381 . S
C336 C337 1.394 . S
C336 H344 0.930 . S
C337 C336 1.394 . S
C337 C338 1.383 . S
C337 H345 0.929 . S
C338 C337 1.383 . S
C338 C339 1.377 . S
C339 H323 0.930 . S
C339 C338 1.377 . S
C339 C340 1.379 . S
C340 H324 0.931 . S
C340 C334 1.383 . S
C340 C339 1.379 . S
H341 C335 0.959 . S
H342 C335 0.961 . S
H343 C335 0.960 . S
H344 C336 0.930 . S
H345 C337 0.929 . S
H346 C354 0.929 . S
H347 C356 0.930 . S
H348 C358 0.930 . S
H349 C361 0.929 . S
H350 C364 0.930 . S
H351 C366 0.960 . S
H352 C366 0.960 . S
H353 C366 0.960 . S
C354 H346 0.929 . S
C354 C355 1.377 . S
C354 C356 1.384 . S
C355 C354 1.377 . S
C355 C361 1.390 . S
C356 H347 0.930 . S
C356 C354 1.384 . S
C356 C357 1.372 . S
C357 C356 1.372 . S
C357 C358 1.400 . S
C357 C362 1.490 . S
C358 H348 0.930 . S
C358 C357 1.400 . S
C358 C361 1.386 . S
H359 C375 0.930 . S
H360 C376 0.931 . S
C361 H349 0.929 . S
C361 C355 1.390 . S
C361 C358 1.386 . S
C362 C357 1.490 . S
C362 C364 1.395 . S
C362 C365 1.403 . S
H363 C369 0.930 . S
C364 H350 0.930 . S
C364 C362 1.395 . S
C364 C367 1.403 . S
C365 C362 1.403 . S
C365 C366 1.524 . S
C365 C369 1.400 . S
C366 H351 0.960 . S
C366 H352 0.960 . S
C366 H353 0.960 . S
C366 C365 1.524 . S
C367 C364 1.403 . S
C367 C368 1.392 . S
C367 C371 1.495 . S
C368 C367 1.392 . S
C368 C369 1.385 . S
C368 C370 1.478 . S
C369 H363 0.930 . S
C369 C365 1.400 . S
C369 C368 1.385 . S
C370 C368 1.478 . S
C370 C372 1.381 . S
C370 C376 1.383 . S
C371 C367 1.495 . S
C371 H377 0.959 . S
C371 H378 0.961 . S
C371 H379 0.960 . S
C372 C370 1.381 . S
C372 C373 1.394 . S
C372 H380 0.930 . S
C373 C372 1.394 . S
C373 C374 1.383 . S
C373 H381 0.929 . S
C374 C373 1.383 . S
C374 C375 1.377 . S
C375 H359 0.930 . S
C375 C374 1.377 . S
C375 C376 1.379 . S
C376 H360 0.931 . S
C376 C370 1.383 . S
C376 C375 1.379 . S
H377 C371 0.959 . S
H378 C371 0.961 . S
H379 C371 0.960 . S
H380 C372 0.930 . S
H381 C373 0.929 . S
H382 C390 0.929 . S
H383 C392 0.930 . S
H384 C394 0.930 1_655 S
H385 C397 0.929 1_655 S
H386 C400 0.930 . S
H387 C402 0.960 1_655 S
H388 C402 0.960 . S
H389 C402 0.960 1_655 S
C390 H382 0.929 . S
C390 C391 1.377 . S
C390 C392 1.384 . S
C391 C390 1.377 . S
C391 C397 1.390 . S
C392 H383 0.930 . S
C392 C390 1.384 . S
C392 C393 1.372 . S
C393 C392 1.372 . S
C393 C394 1.400 . S
C393 C398 1.490 . S
C394 H384 0.930 1_455 S
C394 C393 1.400 . S
C394 C397 1.386 . S
H395 C411 0.930 1_655 S
H396 C412 0.931 1_655 S
C397 H385 0.929 1_455 S
C397 C391 1.390 . S
C397 C394 1.386 . S
C398 C393 1.490 . S
C398 C400 1.395 . S
C398 C401 1.403 1_545 S
H399 C405 0.930 . S
C400 H386 0.930 . S
C400 C398 1.395 . S
C400 C403 1.403 . S
C401 C398 1.403 1_565 S
C401 C402 1.524 . S
C401 C405 1.400 . S
C402 H387 0.960 1_455 S
C402 H388 0.960 . S
C402 H389 0.960 1_455 S
C402 C401 1.524 . S
C403 C400 1.403 . S
C403 C404 1.392 . S
C403 C407 1.495 . S
C404 C403 1.392 . S
C404 C405 1.385 1_545 S
C404 C406 1.478 . S
C405 H399 0.930 . S
C405 C401 1.400 . S
C405 C404 1.385 1_565 S
C406 C404 1.478 . S
C406 C408 1.381 . S
C406 C412 1.383 . S
C407 C403 1.495 . S
C407 H413 0.959 . S
C407 H414 0.961 . S
C407 H415 0.960 . S
C408 C406 1.381 . S
C408 C409 1.394 1_545 S
C408 H416 0.930 . S
C409 C408 1.394 1_565 S
C409 C410 1.383 1_565 S
C409 H417 0.929 . S
C410 C409 1.383 1_545 S
C410 C411 1.378 . S
C411 H395 0.930 1_455 S
C411 C410 1.378 . S
C411 C412 1.379 . S
C412 H396 0.931 1_455 S
C412 C406 1.383 . S
C412 C411 1.379 . S
H413 C407 0.959 . S
H414 C407 0.961 . S
H415 C407 0.960 . S
H416 C408 0.930 . S
H417 C409 0.929 . S
H418 C426 0.929 . S
H419 C428 0.930 . S
H420 C430 0.939 . S
H421 C433 0.929 1_565 S
H422 C436 0.930 . S
H423 C438 0.960 1_565 S
H424 C438 0.960 . S
H425 C438 0.960 1_565 S
C426 H418 0.929 . S
C426 C427 1.377 . S
C426 C428 1.384 . S
C427 C426 1.377 . S
C427 C433 1.390 . S
C428 H419 0.930 . S
C428 C426 1.384 . S
C428 C429 1.372 . S
C429 C428 1.372 . S
C429 C430 1.400 . S
C429 C434 1.490 . S
C430 H420 0.939 . S
C430 C429 1.400 . S
C430 C433 1.386 . S
H431 C447 0.930 . S
H432 C448 0.931 . S
C433 H421 0.929 1_545 S
C433 C427 1.390 . S
C433 C430 1.386 . S
C434 C429 1.490 . S
C434 C436 1.395 . S
C434 C437 1.403 . S
H435 C441 0.930 1_655 S
C436 H422 0.930 . S
C436 C434 1.395 . S
C436 C439 1.403 . S
C437 C434 1.403 . S
C437 C438 1.524 1_455 S
C437 C441 1.400 . S
C438 H423 0.960 1_545 S
C438 H424 0.960 . S
C438 H425 0.960 1_545 S
C438 C437 1.524 1_655 S
C439 C436 1.403 . S
C439 C440 1.392 . S
C439 C443 1.495 . S
C440 C439 1.392 . S
C440 C441 1.385 . S
C440 C442 1.478 . S
C441 H435 0.930 1_455 S
C441 C437 1.400 . S
C441 C440 1.385 . S
C442 C440 1.478 . S
C442 C444 1.381 . S
C442 C448 1.383 . S
C443 C439 1.495 . S
C443 H449 0.959 . S
C443 H450 0.961 . S
C443 H451 0.960 . S
C444 C442 1.381 . S
C444 C445 1.394 . S
C444 H452 0.930 . S
C445 C444 1.394 . S
C445 C446 1.383 . S
C445 H453 0.929 1_455 S
C446 C445 1.383 . S
C446 C447 1.377 . S
C447 H431 0.930 . S
C447 C446 1.377 . S
C447 C448 1.379 . S
C448 H432 0.931 . S
C448 C442 1.383 . S
C448 C447 1.379 . S
H449 C443 0.959 . S
H450 C443 0.961 . S
H451 C443 0.960 . S
H452 C444 0.930 . S
H453 C445 0.929 1_655 S
H454 C462 0.929 . S
H455 C464 0.930 . S
H456 C466 0.930 . S
H457 C469 0.929 . S
H458 C472 0.930 . S
H459 C474 0.960 . S
H460 C474 0.960 . S
H461 C474 0.960 . S
C462 H454 0.929 . S
C462 C463 1.377 . S
C462 C464 1.384 . S
C463 C462 1.377 . S
C463 C469 1.390 . S
C464 H455 0.930 . S
C464 C462 1.384 . S
C464 C465 1.372 . S
C465 C464 1.372 . S
C465 C466 1.400 . S
C465 C470 1.490 . S
C466 H456 0.930 . S
C466 C465 1.400 . S
C466 C469 1.386 . S
H467 C483 0.930 . S
H468 C484 0.931 . S
C469 H457 0.929 . S
C469 C463 1.390 . S
C469 C466 1.386 . S
C470 C465 1.490 . S
C470 C472 1.395 . S
C470 C473 1.403 . S
H471 C477 0.930 . S
C472 H458 0.930 . S
C472 C470 1.395 . S
C472 C475 1.403 . S
C473 C470 1.403 . S
C473 C474 1.524 . S
C473 C477 1.400 . S
C474 H459 0.960 . S
C474 H460 0.960 . S
C474 H461 0.960 . S
C474 C473 1.524 . S
C475 C472 1.403 . S
C475 C476 1.392 . S
C475 C479 1.495 . S
C476 C475 1.392 . S
C476 C477 1.385 . S
C476 C478 1.478 . S
C477 H471 0.930 . S
C477 C473 1.400 . S
C477 C476 1.385 . S
C478 C476 1.478 . S
C478 C480 1.381 . S
C478 C484 1.383 . S
C479 C475 1.495 . S
C479 H485 0.959 . S
C479 H486 0.961 . S
C479 H487 0.960 . S
C480 C478 1.381 . S
C480 C481 1.394 . S
C480 H488 0.930 . S
C481 C480 1.394 . S
C481 C482 1.383 . S
C481 H489 0.929 . S
C482 C481 1.383 . S
C482 C483 1.377 . S
C483 H467 0.930 . S
C483 C482 1.377 . S
C483 C484 1.379 . S
C484 H468 0.931 . S
C484 C478 1.383 . S
C484 C483 1.379 . S
H485 C479 0.959 . S
H486 C479 0.961 . S
H487 C479 0.960 . S
H488 C480 0.930 . S
H489 C481 0.929 . S
H490 C498 0.929 . S
H491 C500 0.930 . S
H492 C502 0.930 . S
H493 C505 0.929 . S
H494 C508 0.930 . S
H495 C510 0.960 . S
H496 C510 0.960 . S
H497 C510 0.960 . S
C498 H490 0.929 . S
C498 C499 1.377 . S
C498 C500 1.384 . S
C499 C498 1.377 . S
C499 C505 1.390 . S
C500 H491 0.930 . S
C500 C498 1.384 . S
C500 C501 1.372 . S
C501 C500 1.372 . S
C501 C502 1.400 . S
C501 C506 1.490 . S
C502 H492 0.930 . S
C502 C501 1.400 . S
C502 C505 1.386 . S
H503 C519 0.930 . S
H504 C520 0.931 . S
C505 H493 0.929 . S
C505 C499 1.390 . S
C505 C502 1.386 . S
C506 C501 1.490 . S
C506 C508 1.395 . S
C506 C509 1.403 . S
H507 C513 0.930 . S
C508 H494 0.930 . S
C508 C506 1.395 . S
C508 C511 1.403 . S
C509 C506 1.403 . S
C509 C510 1.524 . S
C509 C513 1.400 . S
C510 H495 0.960 . S
C510 H496 0.960 . S
C510 H497 0.960 . S
C510 C509 1.524 . S
C511 C508 1.403 . S
C511 C512 1.392 . S
C511 C515 1.495 . S
C512 C511 1.392 . S
C512 C513 1.385 . S
C512 C514 1.478 . S
C513 H507 0.930 . S
C513 C509 1.400 . S
C513 C512 1.385 . S
C514 C512 1.478 . S
C514 C516 1.381 . S
C514 C520 1.383 . S
C515 C511 1.495 . S
C515 H521 0.959 . S
C515 H522 0.961 . S
C515 H523 0.960 . S
C516 C514 1.381 . S
C516 C517 1.394 . S
C516 H524 0.930 . S
C517 C516 1.394 . S
C517 C518 1.383 . S
C517 H525 0.929 . S
C518 C517 1.383 . S
C518 C519 1.377 . S
C519 H503 0.930 . S
C519 C518 1.377 . S
C519 C520 1.379 . S
C520 H504 0.931 . S
C520 C514 1.383 . S
C520 C519 1.379 . S
H521 C515 0.959 . S
H522 C515 0.961 . S
H523 C515 0.960 . S
H524 C516 0.930 . S
H525 C517 0.929 . S
C122 N83 1.292 . S
C103 C16 1.150 . S
C139 C15 1.385 . S
C158 N70 1.376 . S
C175 C13 1.344 . S
C194 N82 1.550 . S
C211 C14 1.397 . S
C230 N69 1.448 . S
C247 C37 1.158 . S
C266 N57 1.307 . S
C283 C36 1.381 . S
C302 N44 1.392 1_655 S
C338 N56 1.537 . S
C319 C34 1.328 . S
C374 N43 1.467 . S
C355 C35 1.401 . S
C391 C17 1.568 . S
C410 N47 1.581 . S
C427 C18 1.398 . S
C446 N60 1.452 . S
C482 N73 1.572 . S
C463 C38 1.563 . S
C499 C39 1.400 . S
C518 N86 1.448 . S
