# Generated by pormake.
# Topology wbl, (4,4)-cn, num edge types: 1
# Building blocks:
#     Node 0, Type 0, BuildingBlock: MUDLON_clean_linker_0, # of connection points: 4
#     Node 1, Type 0, BuildingBlock: MUDLON_clean_linker_0, # of connection points: 4
#     Node 2, Type 0, BuildingBlock: MUDLON_clean_linker_0, # of connection points: 4
#     Node 3, Type 0, BuildingBlock: MUDLON_clean_linker_0, # of connection points: 4
#     Node 4, Type 0, BuildingBlock: MUDLON_clean_linker_0, # of connection points: 4
#     Node 5, Type 0, BuildingBlock: MUDLON_clean_linker_0, # of connection points: 4
#     Node 6, Type 0, BuildingBlock: MUDLON_clean_linker_0, # of connection points: 4
#     Node 7, Type 0, BuildingBlock: MUDLON_clean_linker_0, # of connection points: 4
#     Node 8, Type 1, BuildingBlock: KUFVIS_clean_sbu_0, # of connection points: 4
#     Node 9, Type 1, BuildingBlock: KUFVIS_clean_sbu_0, # of connection points: 4
#     Node 10, Type 1, BuildingBlock: KUFVIS_clean_sbu_0, # of connection points: 4
#     Node 11, Type 1, BuildingBlock: KUFVIS_clean_sbu_0, # of connection points: 4
#     Node 12, Type 1, BuildingBlock: KUFVIS_clean_sbu_0, # of connection points: 4
#     Node 13, Type 1, BuildingBlock: KUFVIS_clean_sbu_0, # of connection points: 4
#     Node 14, Type 1, BuildingBlock: KUFVIS_clean_sbu_0, # of connection points: 4
#     Node 15, Type 1, BuildingBlock: KUFVIS_clean_sbu_0, # of connection points: 4
#     Edge 16, Type (0, 1), BuildingBlock: UVAHIK_clean_linker_0, # of connection points: 2
#     Edge 17, Type (0, 1), BuildingBlock: UVAHIK_clean_linker_0, # of connection points: 2
#     Edge 18, Type (0, 1), BuildingBlock: UVAHIK_clean_linker_0, # of connection points: 2
#     Edge 19, Type (0, 1), BuildingBlock: UVAHIK_clean_linker_0, # of connection points: 2
#     Edge 20, Type (0, 1), BuildingBlock: UVAHIK_clean_linker_0, # of connection points: 2
#     Edge 21, Type (0, 1), BuildingBlock: UVAHIK_clean_linker_0, # of connection points: 2
#     Edge 22, Type (0, 1), BuildingBlock: UVAHIK_clean_linker_0, # of connection points: 2
#     Edge 23, Type (0, 1), BuildingBlock: UVAHIK_clean_linker_0, # of connection points: 2
#     Edge 24, Type (0, 1), BuildingBlock: UVAHIK_clean_linker_0, # of connection points: 2
#     Edge 25, Type (0, 1), BuildingBlock: UVAHIK_clean_linker_0, # of connection points: 2
#     Edge 26, Type (0, 1), BuildingBlock: UVAHIK_clean_linker_0, # of connection points: 2
#     Edge 27, Type (0, 1), BuildingBlock: UVAHIK_clean_linker_0, # of connection points: 2
#     Edge 28, Type (0, 1), BuildingBlock: UVAHIK_clean_linker_0, # of connection points: 2
#     Edge 29, Type (0, 1), BuildingBlock: UVAHIK_clean_linker_0, # of connection points: 2
#     Edge 30, Type (0, 1), BuildingBlock: UVAHIK_clean_linker_0, # of connection points: 2
#     Edge 31, Type (0, 1), BuildingBlock: UVAHIK_clean_linker_0, # of connection points: 2
#     Edge 32, Type (0, 1), BuildingBlock: UVAHIK_clean_linker_0, # of connection points: 2
#     Edge 33, Type (0, 1), BuildingBlock: UVAHIK_clean_linker_0, # of connection points: 2
#     Edge 34, Type (0, 1), BuildingBlock: UVAHIK_clean_linker_0, # of connection points: 2
#     Edge 35, Type (0, 1), BuildingBlock: UVAHIK_clean_linker_0, # of connection points: 2
#     Edge 36, Type (0, 1), BuildingBlock: UVAHIK_clean_linker_0, # of connection points: 2
#     Edge 37, Type (0, 1), BuildingBlock: UVAHIK_clean_linker_0, # of connection points: 2
#     Edge 38, Type (0, 1), BuildingBlock: UVAHIK_clean_linker_0, # of connection points: 2
#     Edge 39, Type (0, 1), BuildingBlock: UVAHIK_clean_linker_0, # of connection points: 2
#     Edge 40, Type (0, 1), BuildingBlock: UVAHIK_clean_linker_0, # of connection points: 2
#     Edge 41, Type (0, 1), BuildingBlock: UVAHIK_clean_linker_0, # of connection points: 2
#     Edge 42, Type (0, 1), BuildingBlock: UVAHIK_clean_linker_0, # of connection points: 2
#     Edge 43, Type (0, 1), BuildingBlock: UVAHIK_clean_linker_0, # of connection points: 2
#     Edge 44, Type (0, 1), BuildingBlock: UVAHIK_clean_linker_0, # of connection points: 2
#     Edge 45, Type (0, 1), BuildingBlock: UVAHIK_clean_linker_0, # of connection points: 2
#     Edge 46, Type (0, 1), BuildingBlock: UVAHIK_clean_linker_0, # of connection points: 2
#     Edge 47, Type (0, 1), BuildingBlock: UVAHIK_clean_linker_0, # of connection points: 2
# Relax obj value: 0.115
# Max RMSD: 0.122
# Mean RMSD: 0.119
data_MOF--net-wbl--node1-KUFVIS_clean_sbu_0--node2-MUDLON_clean_linker_0--edge1-UVAHIK_clean_linker_0
_symmetry_space_group_name_H-M    P1
_symmetry_Int_Tables_number       1
_symmetry_cell_setting            triclinic
loop_
_symmetry_equiv_pos_as_xyz
'x, y, z'
_cell_length_a     65.26769
_cell_length_b     65.247622
_cell_length_c     92.358215
_cell_angle_alpha  89.999094
_cell_angle_beta   90.625548
_cell_angle_gamma 90.007175
loop_
_atom_site_label
_atom_site_type_symbol
_atom_site_fract_x
_atom_site_fract_y
_atom_site_fract_z
_atom_type_partial_charge
H0 H 0.11861 0.99857 0.32388 0.0
N1 N 0.09189 0.98851 0.30318 0.0
H2 H 0.1255 0.98039 0.34666 0.0
H3 H 0.0708 0.95521 0.31353 0.0
H4 H 0.07744 0.93719 0.33615 0.0
H5 H 0.09154 0.94919 0.29267 0.0
H6 H 0.1176 0.93413 0.27738 0.0
H7 H 0.11893 0.00875 0.28743 0.0
H8 H 0.14431 0.99414 0.27115 0.0
H9 H 0.08113 0.02733 0.30634 0.0
H10 H 0.05807 0.96878 0.29218 0.0
H11 H 0.04693 0.04209 0.30383 0.0
H12 H 0.02345 0.98274 0.29086 0.0
H13 H 0.95184 0.07629 0.31613 0.0
H14 H 0.94021 0.08914 0.33938 0.0
H15 H 0.9198 0.02827 0.35076 0.0
H16 H 0.9318 0.01546 0.3274 0.0
H17 H 0.91369 0.02092 0.29532 0.0
H18 H 0.88776 0.03828 0.28048 0.0
H19 H 0.92774 0.09068 0.27656 0.0
H20 H 0.95402 0.07277 0.29101 0.0
H21 H 0.9824 0.05221 0.32025 0.0
H22 H 0.01715 0.04151 0.31688 0.0
H23 H 0.99829 0.00365 0.28069 0.0
N24 N 0.94798 0.03699 0.30588 0.0
H25 H 0.96273 0.01354 0.28475 0.0
C26 C 0.09424 0.97838 0.31698 0.0
C27 C 0.10944 0.98531 0.32661 0.0
C28 C 0.11331 0.97494 0.3396 0.0
C29 C 0.10206 0.9573 0.34316 0.0
C30 C 0.08653 0.95058 0.33362 0.0
C31 C 0.08262 0.96103 0.32068 0.0
C32 C 0.10366 0.98008 0.29151 0.0
C33 C 0.10283 0.95916 0.28791 0.0
C34 C 0.11774 0.95056 0.27899 0.0
C35 C 0.13349 0.9628 0.27326 0.0
C36 C 0.1329 0.98409 0.27575 0.0
C37 C 0.11825 0.99256 0.28489 0.0
C38 C 0.07203 0.99693 0.29983 0.0
C39 C 0.0686 0.01769 0.30268 0.0
C40 C 0.04896 0.026 0.3014 0.0
C41 C 0.03214 0.01355 0.29752 0.0
C42 C 0.03589 0.99291 0.29385 0.0
C43 C 0.0557 0.98474 0.29482 0.0
C44 C 0.94267 0.0448 0.32 0.0
C45 C 0.94484 0.06568 0.32358 0.0
C46 C 0.93813 0.07304 0.3369 0.0
C47 C 0.92896 0.05978 0.34692 0.0
C48 C 0.92702 0.03887 0.34338 0.0
C49 C 0.93381 0.03151 0.33005 0.0
C50 C 0.93553 0.04566 0.29446 0.0
C51 C 0.91712 0.03584 0.29081 0.0
C52 C 0.90236 0.04578 0.28233 0.0
C53 C 0.90568 0.06591 0.27751 0.0
C54 C 0.92476 0.07523 0.28027 0.0
C55 C 0.93972 0.06505 0.28853 0.0
C56 C 0.96946 0.03371 0.30273 0.0
C57 C 0.98539 0.04185 0.31142 0.0
C58 C 0.00565 0.03575 0.30939 0.0
C59 C 0.01076 0.0216 0.29851 0.0
C60 C 0.99501 0.01426 0.28937 0.0
C61 C 0.97464 0.02012 0.29155 0.0
H62 H 0.95866 0.41423 0.56051 0.0
N63 N 0.94319 0.44439 0.54273 0.0
H64 H 0.94695 0.40554 0.58444 0.0
H65 H 0.91634 0.46489 0.55863 0.0
H66 H 0.90543 0.45723 0.58332 0.0
H67 H 0.91011 0.43965 0.52616 0.0
H68 H 0.8996 0.4089 0.51302 0.0
H69 H 0.96806 0.41146 0.53663 0.0
H70 H 0.95709 0.38007 0.52493 0.0
H71 H 0.98343 0.4371 0.5501 0.0
H72 H 0.94229 0.48151 0.53114 0.0
H73 H 0.01167 0.46148 0.54839 0.0
H74 H 0.97053 0.50622 0.52958 0.0
H75 H 0.08856 0.52529 0.55983 0.0
H76 H 0.10073 0.53532 0.58406 0.0
H77 H 0.05433 0.58245 0.58542 0.0
H78 H 0.04242 0.5725 0.56141 0.0
H79 H 0.03305 0.57456 0.53641 0.0
H80 H 0.04264 0.60656 0.52497 0.0
H81 H 0.10311 0.58228 0.51702 0.0
H82 H 0.0936 0.55055 0.5293 0.0
H83 H 0.06098 0.50621 0.5323 0.0
H84 H 0.03301 0.48118 0.53016 0.0
H85 H 0.99137 0.52522 0.54857 0.0
N86 N 0.05961 0.54336 0.54387 0.0
H87 H 0.01923 0.54984 0.5509 0.0
C88 C 0.93808 0.44008 0.55758 0.0
C89 C 0.94698 0.4237 0.56527 0.0
C90 C 0.94038 0.41886 0.57918 0.0
C91 C 0.9251 0.43058 0.58594 0.0
C92 C 0.91686 0.44751 0.57841 0.0
C93 C 0.92321 0.45209 0.56436 0.0
C94 C 0.9396 0.42779 0.53269 0.0
C95 C 0.92064 0.42687 0.5255 0.0
C96 C 0.91455 0.40908 0.5182 0.0
C97 C 0.92712 0.39151 0.51828 0.0
C98 C 0.94685 0.3931 0.52455 0.0
C99 C 0.95313 0.41114 0.53148 0.0
C100 C 0.96071 0.45742 0.54055 0.0
C101 C 0.98052 0.45189 0.54525 0.0
C102 C 0.99669 0.46591 0.54431 0.0
C103 C 0.9933 0.48578 0.53887 0.0
C104 C 0.97358 0.49108 0.53391 0.0
C105 C 0.9575 0.47698 0.5347 0.0
C106 C 0.06467 0.54808 0.55874 0.0
C107 C 0.08086 0.53755 0.56549 0.0
C108 C 0.08775 0.54329 0.5793 0.0
C109 C 0.0786 0.55981 0.58655 0.0
C110 C 0.06188 0.56987 0.57999 0.0
C111 C 0.05494 0.56404 0.56625 0.0
C112 C 0.06275 0.56011 0.53393 0.0
C113 C 0.04824 0.57585 0.53201 0.0
C114 C 0.05376 0.59426 0.52534 0.0
C115 C 0.07382 0.59725 0.52029 0.0
C116 C 0.0877 0.58078 0.52111 0.0
C117 C 0.08223 0.5625 0.52794 0.0
C118 C 0.04228 0.52999 0.54156 0.0
C119 C 0.04573 0.51051 0.53568 0.0
C120 C 0.02981 0.49622 0.53455 0.0
C121 C 0.01 0.50127 0.53917 0.0
C122 C 0.00641 0.52099 0.54473 0.0
C123 C 0.02241 0.53517 0.54603 0.0
H124 H 0.60145 0.50645 0.82634 0.0
N125 N 0.58545 0.4926 0.80167 0.0
H126 H 0.60542 0.48786 0.84918 0.0
H127 H 0.57068 0.45438 0.80745 0.0
H128 H 0.57357 0.43598 0.83038 0.0
H129 H 0.57593 0.46293 0.78188 0.0
H130 H 0.6005 0.44489 0.76642 0.0
H131 H 0.62408 0.50263 0.79728 0.0
H132 H 0.64874 0.48475 0.78223 0.0
H133 H 0.58441 0.5306 0.79146 0.0
H134 H 0.54539 0.47968 0.8022 0.0
H135 H 0.5543 0.55206 0.78725 0.0
H136 H 0.51531 0.50128 0.79916 0.0
H137 H 0.45521 0.61942 0.80802 0.0
H138 H 0.44287 0.62759 0.83221 0.0
H139 H 0.44646 0.5634 0.84371 0.0
H140 H 0.45789 0.55539 0.81924 0.0
H141 H 0.43229 0.55334 0.79843 0.0
H142 H 0.39821 0.55577 0.7873 0.0
H143 H 0.4162 0.61132 0.76554 0.0
H144 H 0.4506 0.60845 0.77635 0.0
H145 H 0.50116 0.59156 0.80233 0.0
H146 H 0.53081 0.56909 0.80134 0.0
H147 H 0.49222 0.52015 0.78509 0.0
N148 N 0.46234 0.58258 0.79696 0.0
H149 H 0.46255 0.54236 0.78688 0.0
C150 C 0.58563 0.48192 0.81531 0.0
C151 C 0.59516 0.49115 0.82727 0.0
C152 C 0.59732 0.48049 0.84032 0.0
C153 C 0.5898 0.46036 0.84168 0.0
C154 C 0.57982 0.45131 0.82969 0.0
C155 C 0.57791 0.46192 0.8166 0.0
C156 C 0.59832 0.48409 0.79068 0.0
C157 C 0.59173 0.46796 0.78171 0.0
C158 C 0.60582 0.45761 0.77298 0.0
C159 C 0.62666 0.46328 0.77309 0.0
C160 C 0.63283 0.48011 0.78162 0.0
C161 C 0.61879 0.49036 0.79028 0.0
C162 C 0.56727 0.5037 0.79741 0.0
C163 C 0.56931 0.52404 0.79284 0.0
C164 C 0.55203 0.53635 0.79063 0.0
C165 C 0.53224 0.52867 0.79323 0.0
C166 C 0.5302 0.50784 0.797 0.0
C167 C 0.54752 0.49542 0.79891 0.0
C168 C 0.45755 0.58691 0.81187 0.0
C169 C 0.45356 0.6072 0.81587 0.0
C170 C 0.44659 0.61182 0.82972 0.0
C171 C 0.44359 0.59616 0.83996 0.0
C172 C 0.44824 0.57582 0.83605 0.0
C173 C 0.455 0.57121 0.82211 0.0
C174 C 0.44421 0.58057 0.78799 0.0
C175 C 0.42928 0.5655 0.79074 0.0
C176 C 0.40974 0.56697 0.78445 0.0
C177 C 0.40464 0.58377 0.77563 0.0
C178 C 0.41982 0.59822 0.77231 0.0
C179 C 0.43946 0.59651 0.77836 0.0
C180 C 0.4795 0.56889 0.7948 0.0
C181 C 0.49913 0.57601 0.79846 0.0
C182 C 0.51614 0.56311 0.79775 0.0
C183 C 0.51408 0.54267 0.79307 0.0
C184 C 0.49444 0.53565 0.78898 0.0
C185 C 0.47731 0.54852 0.78993 0.0
H186 H 0.46913 0.94213 0.07116 0.0
N187 N 0.44478 0.95296 0.04795 0.0
H188 H 0.45757 0.93266 0.09514 0.0
H189 H 0.40692 0.95544 0.05811 0.0
H190 H 0.39516 0.94662 0.08244 0.0
H191 H 0.42298 0.94797 0.02374 0.0
H192 H 0.41698 0.91597 0.01045 0.0
H193 H 0.46501 0.91651 0.05239 0.0
H194 H 0.45872 0.88465 0.0396 0.0
H195 H 0.48621 0.94485 0.04762 0.0
H196 H 0.44128 0.99302 0.04392 0.0
H197 H 0.51362 0.97004 0.04663 0.0
H198 H 0.46875 0.01846 0.04242 0.0
H199 H 0.58767 0.03278 0.06687 0.0
H200 H 0.59994 0.04227 0.09117 0.0
H201 H 0.55703 0.09268 0.09164 0.0
H202 H 0.54524 0.0834 0.06743 0.0
H203 H 0.53192 0.08075 0.04062 0.0
H204 H 0.53946 0.11381 0.02944 0.0
H205 H 0.60364 0.09806 0.02831 0.0
H206 H 0.59601 0.06485 0.03936 0.0
H207 H 0.55976 0.01874 0.0347 0.0
H208 H 0.53136 0.99445 0.0319 0.0
H209 H 0.49357 0.03346 0.0584 0.0
N210 N 0.5607 0.05286 0.05034 0.0
H211 H 0.52161 0.05776 0.06069 0.0
C212 C 0.43883 0.94955 0.06276 0.0
C213 C 0.45299 0.9434 0.0735 0.0
C214 C 0.44633 0.93805 0.08731 0.0
C215 C 0.4254 0.93881 0.09075 0.0
C216 C 0.41135 0.94555 0.08011 0.0
C217 C 0.41804 0.95079 0.06627 0.0
C218 C 0.44434 0.93476 0.03906 0.0
C219 C 0.43119 0.93427 0.02698 0.0
C220 C 0.42765 0.91593 0.01951 0.0
C221 C 0.43719 0.89764 0.02404 0.0
C222 C 0.45126 0.89843 0.03568 0.0
C223 C 0.45484 0.91676 0.04309 0.0
C224 C 0.46155 0.96706 0.0459 0.0
C225 C 0.48217 0.9608 0.04636 0.0
C226 C 0.49793 0.9753 0.04569 0.0
C227 C 0.49344 0.99635 0.04451 0.0
C228 C 0.47279 0.00244 0.04358 0.0
C229 C 0.45707 0.98794 0.04431 0.0
C230 C 0.56561 0.05729 0.0653 0.0
C231 C 0.58074 0.04565 0.07235 0.0
C232 C 0.58767 0.05108 0.08622 0.0
C233 C 0.57958 0.06835 0.09325 0.0
C234 C 0.56381 0.0795 0.0864 0.0
C235 C 0.5569 0.07406 0.07258 0.0
C236 C 0.56348 0.0702 0.04085 0.0
C237 C 0.54751 0.08402 0.03755 0.0
C238 C 0.55183 0.10298 0.03117 0.0
C239 C 0.57216 0.10853 0.02817 0.0
C240 C 0.58786 0.09422 0.03063 0.0
C241 C 0.58351 0.07522 0.03682 0.0
C242 C 0.54298 0.04 0.04794 0.0
C243 C 0.54522 0.02212 0.03971 0.0
C244 C 0.52903 0.0082 0.03823 0.0
C245 C 0.51018 0.01189 0.04501 0.0
C246 C 0.50776 0.03019 0.05288 0.0
C247 C 0.52393 0.04411 0.05431 0.0
H248 H 0.1005 0.53139 0.93568 0.0
N249 N 0.06715 0.53473 0.95159 0.0
H250 H 0.10783 0.54887 0.91282 0.0
H251 H 0.04 0.55785 0.93572 0.0
H252 H 0.04706 0.57495 0.91263 0.0
H253 H 0.05912 0.5744 0.95896 0.0
H254 H 0.08212 0.59639 0.97323 0.0
H255 H 0.09637 0.52193 0.96956 0.0
H256 H 0.11934 0.54363 0.98388 0.0
H257 H 0.06321 0.49479 0.94808 0.0
H258 H 0.03018 0.54857 0.9614 0.0
H259 H 0.0328 0.47379 0.95188 0.0
H260 H 0.99947 0.52759 0.96549 0.0
H261 H 0.96023 0.41041 0.94542 0.0
H262 H 0.95066 0.39804 0.92113 0.0
H263 H 0.91111 0.45052 0.91542 0.0
H264 H 0.92096 0.46292 0.93937 0.0
H265 H 0.91368 0.46943 0.96293 0.0
H266 H 0.88225 0.4608 0.97546 0.0
H267 H 0.91101 0.40567 0.99201 0.0
H268 H 0.94163 0.4136 0.97815 0.0
H269 H 0.98265 0.43711 0.97064 0.0
H270 H 0.01176 0.4607 0.97107 0.0
H271 H 0.97378 0.50764 0.95155 0.0
N272 N 0.94605 0.44339 0.95895 0.0
H273 H 0.94458 0.48408 0.95168 0.0
C274 C 0.0697 0.54309 0.9373 0.0
C275 C 0.08868 0.54064 0.93058 0.0
C276 C 0.09289 0.55075 0.91764 0.0
C277 C 0.07803 0.5633 0.91106 0.0
C278 C 0.05871 0.56526 0.9175 0.0
C279 C 0.05464 0.55542 0.93063 0.0
C280 C 0.07626 0.54656 0.96311 0.0
C281 C 0.0718 0.5675 0.96482 0.0
C282 C 0.08503 0.58005 0.97289 0.0
C283 C 0.10271 0.57179 0.97951 0.0
C284 C 0.10581 0.55048 0.97902 0.0
C285 C 0.09271 0.53802 0.97084 0.0
C286 C 0.04894 0.5231 0.95449 0.0
C287 C 0.04936 0.50198 0.95197 0.0
C288 C 0.032 0.49003 0.95425 0.0
C289 C 0.01372 0.49896 0.95914 0.0
C290 C 0.01328 0.52025 0.96167 0.0
C291 C 0.03081 0.53224 0.9594 0.0
C292 C 0.94122 0.43742 0.9443 0.0
C293 C 0.94968 0.41931 0.93883 0.0
C294 C 0.94422 0.41231 0.925 0.0
C295 C 0.93 0.42325 0.91649 0.0
C296 C 0.92188 0.44165 0.92185 0.0
C297 C 0.92756 0.44877 0.93558 0.0
C298 C 0.92973 0.44174 0.96922 0.0
C299 C 0.91322 0.45552 0.96926 0.0
C300 C 0.89525 0.45064 0.97666 0.0
C301 C 0.8937 0.43215 0.98448 0.0
C302 C 0.91121 0.4196 0.98565 0.0
C303 C 0.9289 0.42424 0.97794 0.0
C304 C 0.9616 0.45873 0.96101 0.0
C305 C 0.98055 0.45264 0.96676 0.0
C306 C 0.99717 0.46609 0.96686 0.0
C307 C 0.99521 0.48594 0.96107 0.0
C308 C 0.97581 0.49247 0.9561 0.0
C309 C 0.9591 0.47897 0.95609 0.0
H310 H 0.54451 0.41698 0.19226 0.0
N311 N 0.55732 0.45011 0.20841 0.0
H312 H 0.55696 0.40689 0.1688 0.0
H313 H 0.58243 0.47107 0.1914 0.0
H314 H 0.59406 0.46179 0.16716 0.0
H315 H 0.59083 0.44746 0.22478 0.0
H316 H 0.60229 0.418 0.23898 0.0
H317 H 0.53325 0.41734 0.21618 0.0
H318 H 0.54511 0.38719 0.22902 0.0
H319 H 0.51806 0.44023 0.19991 0.0
H320 H 0.5552 0.48725 0.21984 0.0
H321 H 0.48818 0.46268 0.20088 0.0
H322 H 0.5253 0.50997 0.22072 0.0
H323 H 0.41015 0.52342 0.18544 0.0
H324 H 0.40023 0.53593 0.16133 0.0
H325 H 0.44229 0.58666 0.16636 0.0
H326 H 0.45156 0.57448 0.19043 0.0
H327 H 0.4612 0.56914 0.21796 0.0
H328 H 0.45082 0.60057 0.22998 0.0
H329 H 0.38742 0.5824 0.22604 0.0
H330 H 0.3979 0.55074 0.21397 0.0
H331 H 0.43526 0.5041 0.21575 0.0
H332 H 0.46462 0.48081 0.21845 0.0
H333 H 0.50436 0.52762 0.20134 0.0
N334 N 0.43494 0.54157 0.20456 0.0
H335 H 0.47522 0.55054 0.19855 0.0
C336 C 0.56281 0.44473 0.19379 0.0
C337 C 0.55536 0.42689 0.18699 0.0
C338 C 0.56238 0.42121 0.17335 0.0
C339 C 0.57665 0.43343 0.16598 0.0
C340 C 0.58345 0.4517 0.17259 0.0
C341 C 0.57667 0.45719 0.18638 0.0
C342 C 0.56146 0.43449 0.2191 0.0
C343 C 0.58058 0.43456 0.22611 0.0
C344 C 0.5872 0.41752 0.23403 0.0
C345 C 0.57499 0.39974 0.23478 0.0
C346 C 0.55507 0.40044 0.22875 0.0
C347 C 0.54827 0.41774 0.22118 0.0
C348 C 0.53892 0.46206 0.20993 0.0
C349 C 0.51975 0.45521 0.20476 0.0
C350 C 0.50264 0.46809 0.20531 0.0
C351 C 0.50442 0.4881 0.21085 0.0
C352 C 0.5235 0.49469 0.21629 0.0
C353 C 0.54053 0.48174 0.21587 0.0
C354 C 0.43159 0.54787 0.18974 0.0
C355 C 0.41742 0.53704 0.18119 0.0
C356 C 0.41183 0.5442 0.16744 0.0
C357 C 0.42035 0.56241 0.16198 0.0
C358 C 0.43519 0.57278 0.17034 0.0
C359 C 0.44072 0.56565 0.18408 0.0
C360 C 0.43025 0.55744 0.21492 0.0
C361 C 0.44512 0.57141 0.22004 0.0
C362 C 0.43916 0.58949 0.22697 0.0
C363 C 0.4183 0.59403 0.22877 0.0
C364 C 0.4036 0.57938 0.22465 0.0
C365 C 0.40956 0.56124 0.21788 0.0
C366 C 0.45291 0.52912 0.20709 0.0
C367 C 0.45037 0.50937 0.21276 0.0
C368 C 0.46709 0.49608 0.21421 0.0
C369 C 0.48678 0.50243 0.21014 0.0
C370 C 0.48942 0.52239 0.20475 0.0
C371 C 0.47266 0.53555 0.20314 0.0
H372 H 0.40015 0.99711 0.42544 0.0
N373 N 0.41639 0.9865 0.45077 0.0
H374 H 0.39837 0.97659 0.40329 0.0
H375 H 0.43359 0.94875 0.44689 0.0
H376 H 0.43242 0.92828 0.42472 0.0
H377 H 0.4265 0.95864 0.47185 0.0
H378 H 0.40256 0.9419 0.48827 0.0
H379 H 0.37755 0.99604 0.4548 0.0
H380 H 0.35336 0.97914 0.4708 0.0
H381 H 0.41852 0.02695 0.44985 0.0
H382 H 0.45443 0.97313 0.45927 0.0
H383 H 0.44902 0.04835 0.45263 0.0
H384 H 0.48499 0.99438 0.46249 0.0
H385 H 0.52976 0.11052 0.4385 0.0
H386 H 0.5435 0.12171 0.41531 0.0
H387 H 0.57409 0.06323 0.41087 0.0
H388 H 0.56191 0.05318 0.43449 0.0
H389 H 0.56418 0.04462 0.46109 0.0
H390 H 0.59786 0.04823 0.47273 0.0
H391 H 0.58747 0.11314 0.47767 0.0
H392 H 0.55366 0.10942 0.46621 0.0
H393 H 0.50423 0.08445 0.46626 0.0
H394 H 0.47447 0.06193 0.46879 0.0
H395 H 0.50736 0.01357 0.44707 0.0
N396 N 0.53907 0.07655 0.45295 0.0
H397 H 0.537 0.03575 0.44511 0.0
C398 C 0.41703 0.97453 0.43772 0.0
C399 C 0.40737 0.98216 0.42525 0.0
C400 C 0.40647 0.97044 0.41262 0.0
C401 C 0.4153 0.95078 0.41222 0.0
C402 C 0.42528 0.94326 0.42471 0.0
C403 C 0.42614 0.95503 0.43737 0.0
C404 C 0.40373 0.97866 0.46213 0.0
C405 C 0.41068 0.96351 0.47181 0.0
C406 C 0.3969 0.95382 0.48112 0.0
C407 C 0.37596 0.95906 0.48084 0.0
C408 C 0.36938 0.97489 0.47155 0.0
C409 C 0.38314 0.98456 0.46234 0.0
C410 C 0.43416 0.99855 0.45437 0.0
C411 C 0.43295 0.01984 0.45286 0.0
C412 C 0.4504 0.03203 0.45452 0.0
C413 C 0.46953 0.02311 0.45777 0.0
C414 C 0.47057 0.00173 0.45981 0.0
C415 C 0.45304 0.98954 0.4581 0.0
C416 C 0.54436 0.08091 0.43816 0.0
C417 C 0.53913 0.10005 0.43234 0.0
C418 C 0.547 0.10636 0.41904 0.0
C419 C 0.56011 0.09347 0.41115 0.0
C420 C 0.56445 0.07382 0.41671 0.0
C421 C 0.55698 0.06776 0.43015 0.0
C422 C 0.55634 0.07684 0.46279 0.0
C423 C 0.56876 0.05949 0.46511 0.0
C424 C 0.58805 0.06156 0.47176 0.0
C425 C 0.59525 0.08099 0.47594 0.0
C426 C 0.58227 0.09802 0.47446 0.0
C427 C 0.56295 0.0959 0.46804 0.0
C428 C 0.52281 0.06203 0.45539 0.0
C429 C 0.50506 0.06887 0.46226 0.0
C430 C 0.48804 0.05602 0.46359 0.0
C431 C 0.4884 0.03597 0.45799 0.0
C432 C 0.50655 0.02884 0.45163 0.0
C433 C 0.52359 0.04169 0.45037 0.0
H434 H 0.03308 0.93439 0.68202 0.0
N435 N 0.05712 0.945 0.70551 0.0
H436 H 0.04493 0.92622 0.65793 0.0
H437 H 0.09478 0.94946 0.69534 0.0
H438 H 0.10682 0.94186 0.67088 0.0
H439 H 0.0794 0.93956 0.72942 0.0
H440 H 0.08666 0.90717 0.74182 0.0
H441 H 0.03756 0.90837 0.70051 0.0
H442 H 0.04538 0.87598 0.71224 0.0
H443 H 0.01572 0.93743 0.70379 0.0
H444 H 0.06075 0.98371 0.71376 0.0
H445 H 0.98851 0.9626 0.70604 0.0
H446 H 0.03353 0.00884 0.71725 0.0
H447 H 0.90378 0.05547 0.70459 0.0
H448 H 0.88835 0.06594 0.68166 0.0
H449 H 0.94513 0.05213 0.65999 0.0
H450 H 0.96079 0.04336 0.68293 0.0
H451 H 0.96166 0.08173 0.70006 0.0
H452 H 0.95754 0.11609 0.70988 0.0
H453 H 0.92332 0.09124 0.74561 0.0
H454 H 0.92747 0.05671 0.73559 0.0
H455 H 0.94098 0.00851 0.71919 0.0
H456 H 0.96862 0.98328 0.72047 0.0
H457 H 0.01083 0.02882 0.70431 0.0
N458 N 0.9429 0.04699 0.70997 0.0
H459 H 0.98353 0.05398 0.70403 0.0
C460 C 0.06308 0.94262 0.6906 0.0
C461 C 0.04914 0.93639 0.67974 0.0
C462 C 0.05597 0.93176 0.66584 0.0
C463 C 0.07687 0.9333 0.66243 0.0
C464 C 0.09067 0.9402 0.67318 0.0
C465 C 0.08381 0.94476 0.6871 0.0
C466 C 0.05815 0.92645 0.71399 0.0
C467 C 0.07155 0.92577 0.72591 0.0
C468 C 0.07584 0.9072 0.73286 0.0
C469 C 0.06692 0.88881 0.72789 0.0
C470 C 0.05246 0.88977 0.71648 0.0
C471 C 0.04803 0.90839 0.70965 0.0
C472 C 0.04039 0.95883 0.70829 0.0
C473 C 0.01978 0.95299 0.70661 0.0
C474 C 0.00412 0.96746 0.70813 0.0
C475 C 0.00866 0.98799 0.71171 0.0
C476 C 0.02932 0.99342 0.71409 0.0
C477 C 0.04495 0.97904 0.71226 0.0
C478 C 0.93349 0.04874 0.69573 0.0
C479 C 0.91277 0.05441 0.69483 0.0
C480 C 0.90395 0.06033 0.68164 0.0
C481 C 0.91553 0.06025 0.66887 0.0
C482 C 0.93587 0.05309 0.66961 0.0
C483 C 0.94485 0.04772 0.68287 0.0
C484 C 0.94495 0.06654 0.71717 0.0
C485 C 0.95398 0.08351 0.7103 0.0
C486 C 0.95151 0.10324 0.71591 0.0
C487 C 0.93989 0.10644 0.72845 0.0
C488 C 0.93209 0.08931 0.73581 0.0
C489 C 0.93464 0.06957 0.73022 0.0
C490 C 0.96003 0.03309 0.71147 0.0
C491 C 0.95631 0.01303 0.71615 0.0
C492 C 0.97214 0.99858 0.71671 0.0
C493 C 0.99209 0.00379 0.71234 0.0
C494 C 0.99586 0.02415 0.708 0.0
C495 C 0.98011 0.03867 0.70774 0.0
Mn496 Mn 0.34441 0.66365 0.00456 0.0
Mn497 Mn 0.34734 0.61202 0.00637 0.0
C498 C 0.3489 0.64767 0.0267 0.0
C499 C 0.35988 0.69553 0.00135 0.0
C500 C 0.30748 0.63509 0.00173 0.0
O501 O 0.35021 0.65535 0.98369 0.0
O502 O 0.35435 0.62125 0.98657 0.0
C503 C 0.39203 0.60709 0.0025 0.0
N504 N 0.3749 0.60385 0.01047 0.0
C505 C 0.39403 0.5848 0.02836 0.0
C506 C 0.41186 0.58783 0.02031 0.0
C507 C 0.41086 0.5991 0.00735 0.0
C508 C 0.37572 0.5932 0.02302 0.0
H509 H 0.3913 0.61572 0.99253 0.0
C510 C 0.35451 0.63755 0.97883 0.0
O511 O 0.34046 0.69281 0.99886 0.0
O512 O 0.37039 0.67962 0.00545 0.0
N513 N 0.34106 0.60095 0.02499 0.0
C514 C 0.32264 0.60017 0.03178 0.0
C515 C 0.3211 0.58986 0.04507 0.0
C516 C 0.33843 0.58026 0.05115 0.0
C517 C 0.35715 0.58104 0.04386 0.0
C518 C 0.35776 0.59152 0.03065 0.0
H519 H 0.30924 0.6074 0.02711 0.0
O520 O 0.3417 0.6662 0.02605 0.0
O521 O 0.35344 0.63919 0.01442 0.0
O522 O 0.31491 0.6531 0.00281 0.0
O523 O 0.31834 0.61884 0.00242 0.0
C524 C 0.37528 0.57199 0.04926 0.0
C525 C 0.39373 0.57397 0.04156 0.0
H526 H 0.42642 0.58169 0.02401 0.0
H527 H 0.42458 0.60157 0.0011 0.0
H528 H 0.3066 0.58931 0.05062 0.0
H529 H 0.33722 0.57241 0.06144 0.0
H530 H 0.37527 0.56374 0.05943 0.0
H531 H 0.40764 0.56724 0.04595 0.0
Mn532 Mn 0.35345 0.84486 0.25581 0.0
Mn533 Mn 0.40479 0.84748 0.2597 0.0
C534 C 0.36794 0.84915 0.2786 0.0
C535 C 0.32224 0.86114 0.2512 0.0
C536 C 0.38168 0.8079 0.2537 0.0
O537 O 0.36336 0.85064 0.23532 0.0
O538 O 0.39698 0.85604 0.23976 0.0
C539 C 0.41104 0.89226 0.25705 0.0
N540 N 0.4132 0.87461 0.2648 0.0
C541 C 0.43102 0.89231 0.28401 0.0
C542 C 0.42911 0.91065 0.2762 0.0
C543 C 0.41901 0.91063 0.26268 0.0
C544 C 0.42281 0.87447 0.27783 0.0
H545 H 0.40326 0.89231 0.24667 0.0
C546 C 0.38125 0.85605 0.23131 0.0
O547 O 0.32457 0.84165 0.24886 0.0
O548 O 0.33811 0.87113 0.25597 0.0
N549 N 0.41413 0.8399 0.27868 0.0
C550 C 0.41338 0.82124 0.28528 0.0
C551 C 0.42202 0.81885 0.29917 0.0
C552 C 0.43146 0.8356 0.30607 0.0
C553 C 0.43216 0.85462 0.29903 0.0
C554 C 0.42333 0.85607 0.28518 0.0
H555 H 0.40617 0.8083 0.28002 0.0
O556 O 0.34941 0.84211 0.27722 0.0
O557 O 0.37723 0.85352 0.26663 0.0
O558 O 0.36366 0.81528 0.2546 0.0
O559 O 0.3979 0.81878 0.25475 0.0
C560 C 0.44097 0.87226 0.3053 0.0
C561 C 0.44039 0.8911 0.29779 0.0
H562 H 0.43516 0.92487 0.28053 0.0
H563 H 0.41738 0.92474 0.25662 0.0
H564 H 0.42138 0.80413 0.30455 0.0
H565 H 0.438 0.83373 0.31682 0.0
H566 H 0.44792 0.8716 0.31599 0.0
H567 H 0.44691 0.90463 0.30284 0.0
Mn568 Mn 0.15946 0.84343 0.49897 0.0
Mn569 Mn 0.10936 0.85078 0.49129 0.0
C570 C 0.14891 0.8502 0.47546 0.0
C571 C 0.19119 0.85675 0.50601 0.0
C572 C 0.12794 0.80888 0.49738 0.0
O573 O 0.14717 0.84912 0.51876 0.0
O574 O 0.11467 0.85668 0.51214 0.0
C575 C 0.10702 0.89563 0.49585 0.0
N576 N 0.10444 0.87905 0.48706 0.0
C577 C 0.09248 0.90033 0.46744 0.0
C578 C 0.09488 0.91762 0.47631 0.0
C579 C 0.10221 0.91525 0.49057 0.0
C580 C 0.09742 0.88115 0.47332 0.0
H581 H 0.11275 0.8939 0.5068 0.0
C582 C 0.12906 0.85521 0.52166 0.0
O583 O 0.18699 0.83743 0.50764 0.0
O584 O 0.17684 0.86829 0.50065 0.0
N585 N 0.10241 0.84595 0.47138 0.0
C586 C 0.10207 0.82788 0.46397 0.0
C587 C 0.0956 0.82767 0.44942 0.0
C588 C 0.08947 0.84599 0.44265 0.0
C589 C 0.08983 0.86436 0.45052 0.0
C590 C 0.09625 0.86361 0.46503 0.0
H591 H 0.1068 0.81376 0.46909 0.0
O592 O 0.16639 0.84133 0.47792 0.0
O593 O 0.13827 0.85473 0.48679 0.0
O594 O 0.14649 0.81485 0.49869 0.0
O595 O 0.11297 0.82113 0.49507 0.0
C596 C 0.08443 0.88345 0.44445 0.0
C597 C 0.08579 0.90143 0.4529 0.0
H598 H 0.09131 0.93279 0.47226 0.0
H599 H 0.10421 0.92853 0.49746 0.0
H600 H 0.09541 0.81343 0.44341 0.0
H601 H 0.08468 0.84579 0.43139 0.0
H602 H 0.0795 0.88452 0.43324 0.0
H603 H 0.0819 0.91605 0.44805 0.0
Mn604 Mn 0.15601 0.65183 0.74617 0.0
Mn605 Mn 0.14925 0.60067 0.74434 0.0
C606 C 0.15138 0.63622 0.72387 0.0
C607 C 0.14251 0.68463 0.74926 0.0
C608 C 0.19037 0.62093 0.75045 0.0
O609 O 0.14918 0.64371 0.76696 0.0
O610 O 0.14017 0.61065 0.76352 0.0
C611 C 0.10397 0.59867 0.7452 0.0
N612 N 0.12187 0.5941 0.73849 0.0
C613 C 0.10404 0.57567 0.71964 0.0
C614 C 0.08542 0.57994 0.72645 0.0
C615 C 0.08539 0.59159 0.73925 0.0
C616 C 0.12206 0.58315 0.72607 0.0
H617 H 0.10388 0.6077 0.75499 0.0
C618 C 0.1417 0.62676 0.7714 0.0
O619 O 0.16164 0.68064 0.75206 0.0
O620 O 0.13114 0.66944 0.74495 0.0
N621 N 0.15721 0.58913 0.72619 0.0
C622 C 0.17629 0.58759 0.72044 0.0
C623 C 0.17888 0.57717 0.70728 0.0
C624 C 0.16189 0.56825 0.70027 0.0
C625 C 0.14245 0.56987 0.70646 0.0
C626 C 0.1408 0.58044 0.71959 0.0
H627 H 0.18944 0.5943 0.72582 0.0
O628 O 0.15959 0.65431 0.72471 0.0
O629 O 0.14582 0.62809 0.73604 0.0
O630 O 0.18457 0.63933 0.74829 0.0
O631 O 0.17818 0.6056 0.75016 0.0
C632 C 0.12459 0.56164 0.70003 0.0
C633 C 0.10539 0.5646 0.70659 0.0
H634 H 0.07105 0.57456 0.72187 0.0
H635 H 0.07107 0.59511 0.7445 0.0
H636 H 0.19394 0.576 0.70257 0.0
H637 H 0.16393 0.5603 0.69009 0.0
H638 H 0.12541 0.55332 0.6899 0.0
H639 H 0.09172 0.55855 0.70138 0.0
Mn640 Mn 0.84102 0.15264 0.50923 0.0
Mn641 Mn 0.849 0.10227 0.51545 0.0
C642 C 0.84443 0.14076 0.53275 0.0
C643 C 0.85372 0.18525 0.50411 0.0
C644 C 0.80769 0.12007 0.50678 0.0
O645 O 0.84948 0.14161 0.48943 0.0
O646 O 0.85814 0.10935 0.4957 0.0
C647 C 0.89435 0.10203 0.51526 0.0
N648 N 0.87646 0.09792 0.52213 0.0
C649 C 0.89448 0.08389 0.54273 0.0
C650 C 0.91311 0.08788 0.53585 0.0
C651 C 0.91304 0.09706 0.52208 0.0
C652 C 0.87635 0.08929 0.53544 0.0
H653 H 0.89434 0.10907 0.50468 0.0
C654 C 0.85696 0.124 0.4865 0.0
O655 O 0.83492 0.18022 0.50102 0.0
O656 O 0.86528 0.17118 0.50984 0.0
N657 N 0.84094 0.09321 0.53424 0.0
C658 C 0.82167 0.09083 0.53953 0.0
C659 C 0.81902 0.08174 0.55316 0.0
C660 C 0.83617 0.07502 0.56114 0.0
C661 C 0.85585 0.0776 0.55548 0.0
C662 C 0.85752 0.08656 0.54177 0.0
H663 H 0.8084 0.09571 0.53337 0.0
O664 O 0.83585 0.15834 0.53021 0.0
O665 O 0.85112 0.13095 0.52152 0.0
O666 O 0.813 0.13887 0.50718 0.0
O667 O 0.82014 0.10524 0.50895 0.0
C668 C 0.87387 0.07169 0.56292 0.0
C669 C 0.89318 0.07497 0.55659 0.0
H670 H 0.92756 0.08407 0.54106 0.0
H671 H 0.92735 0.10026 0.51673 0.0
H672 H 0.80379 0.0798 0.55746 0.0
H673 H 0.83403 0.06786 0.57159 0.0
H674 H 0.87307 0.06481 0.57357 0.0
H675 H 0.90694 0.07062 0.56249 0.0
Mn676 Mn 0.8475 0.34978 0.7533 0.0
Mn677 Mn 0.89814 0.35905 0.75667 0.0
C678 C 0.86182 0.35493 0.77605 0.0
C679 C 0.81451 0.36244 0.74911 0.0
C680 C 0.88021 0.31687 0.75034 0.0
O681 O 0.8562 0.3569 0.73275 0.0
O682 O 0.88864 0.36742 0.73703 0.0
C683 C 0.89789 0.40437 0.75521 0.0
N684 N 0.90307 0.3868 0.7623 0.0
C685 C 0.91992 0.40573 0.78135 0.0
C686 C 0.91498 0.42404 0.77417 0.0
C687 C 0.90382 0.42335 0.76108 0.0
C688 C 0.91357 0.38729 0.77499 0.0
H689 H 0.88926 0.4039 0.74518 0.0
C690 C 0.87299 0.36504 0.72869 0.0
O691 O 0.81897 0.34335 0.74665 0.0
O692 O 0.82923 0.37411 0.75379 0.0
N693 N 0.90933 0.35188 0.77523 0.0
C694 C 0.91163 0.33296 0.78128 0.0
C695 C 0.92172 0.33103 0.79472 0.0
C696 C 0.92957 0.34852 0.8017 0.0
C697 C 0.92721 0.36779 0.79519 0.0
C698 C 0.91698 0.36878 0.78181 0.0
H699 H 0.90578 0.31943 0.77593 0.0
O700 O 0.84416 0.34598 0.77467 0.0
O701 O 0.87029 0.36098 0.76413 0.0
O702 O 0.86137 0.32172 0.75165 0.0
O703 O 0.8948 0.3299 0.75122 0.0
C704 C 0.93437 0.3861 0.80154 0.0
C705 C 0.93062 0.40507 0.79468 0.0
H706 H 0.91949 0.43871 0.77867 0.0
H707 H 0.8998 0.43742 0.75553 0.0
H708 H 0.92348 0.31609 0.79968 0.0
H709 H 0.93727 0.34698 0.81209 0.0
H710 H 0.94246 0.38579 0.81184 0.0
H711 H 0.93582 0.41908 0.79983 0.0
Mn712 Mn 0.65369 0.35253 0.99861 0.0
Mn713 Mn 0.60319 0.36254 0.99566 0.0
C714 C 0.6394 0.35979 0.97615 0.0
C715 C 0.68706 0.36387 0.00308 0.0
C716 C 0.62067 0.31989 0.00069 0.0
O717 O 0.64512 0.35845 0.01941 0.0
O718 O 0.61278 0.36966 0.01551 0.0
C719 C 0.60353 0.40773 0.99852 0.0
N720 N 0.59842 0.39062 0.99085 0.0
C721 C 0.58207 0.41078 0.97222 0.0
C722 C 0.58693 0.4286 0.98001 0.0
C723 C 0.5978 0.42707 0.99318 0.0
C724 C 0.58815 0.39193 0.97809 0.0
H725 H 0.61198 0.40661 0.00859 0.0
C726 C 0.62845 0.36661 0.02373 0.0
O727 O 0.68192 0.34483 0.00495 0.0
O728 O 0.67271 0.37638 0.99893 0.0
N729 N 0.59222 0.35654 0.97682 0.0
C730 C 0.59025 0.33806 0.97009 0.0
C731 C 0.58067 0.33703 0.95642 0.0
C732 C 0.57307 0.35496 0.94988 0.0
C733 C 0.57518 0.37378 0.95706 0.0
C734 C 0.58485 0.37387 0.97067 0.0
H735 H 0.59599 0.32421 0.97507 0.0
O736 O 0.65683 0.3503 0.97709 0.0
O737 O 0.6311 0.36491 0.98833 0.0
O738 O 0.63947 0.32465 -0.00076 0.0
O739 O 0.60616 0.33304 0.00036 0.0
C740 C 0.56835 0.39251 0.95115 0.0
C741 C 0.57182 0.411 0.95871 0.0
H742 H 0.58262 0.44356 0.97589 0.0
H743 H 0.60177 0.44077 -0.00081 0.0
H744 H 0.57914 0.32244 0.95093 0.0
H745 H 0.56579 0.35411 0.9393 0.0
H746 H 0.56075 0.39291 0.94067 0.0
H747 H 0.56687 0.42534 0.95392 0.0
Mn748 Mn 0.66632 0.16274 0.24965 0.0
Mn749 Mn 0.66001 0.11134 0.24994 0.0
C750 C 0.66035 0.14545 0.22822 0.0
C751 C 0.65326 0.19577 0.252 0.0
C752 C 0.70136 0.13205 0.25327 0.0
O753 O 0.66044 0.15647 0.27081 0.0
O754 O 0.65403 0.12252 0.26944 0.0
C755 C 0.61519 0.10967 0.25436 0.0
N756 N 0.63189 0.10469 0.24639 0.0
C757 C 0.61115 0.08583 0.2293 0.0
C758 C 0.59373 0.09064 0.23738 0.0
C759 C 0.59576 0.10267 0.24994 0.0
C760 C 0.6301 0.09325 0.23424 0.0
H761 H 0.6167 0.11892 0.26401 0.0
C762 C 0.65507 0.13946 0.27644 0.0
O763 O 0.67252 0.19182 0.25426 0.0
O764 O 0.64149 0.18046 0.24851 0.0
N765 N 0.66515 0.09848 0.23172 0.0
C766 C 0.68331 0.09607 0.22477 0.0
C767 C 0.68385 0.08486 0.2118 0.0
C768 C 0.66579 0.07606 0.2062 0.0
C769 C 0.64734 0.07854 0.21363 0.0
C770 C 0.64775 0.08982 0.22653 0.0
H771 H 0.69725 0.10272 0.22905 0.0
O772 O 0.66872 0.1635 0.22812 0.0
O773 O 0.65547 0.1382 0.24084 0.0
O774 O 0.69505 0.15036 0.25149 0.0
O775 O 0.68949 0.11649 0.25339 0.0
C776 C 0.62852 0.07048 0.20866 0.0
C777 C 0.61042 0.07421 0.21645 0.0
H778 H 0.57871 0.08531 0.23399 0.0
H779 H 0.58237 0.10652 0.2562 0.0
H780 H 0.69815 0.08301 0.20613 0.0
H781 H 0.66624 0.06754 0.19614 0.0
H782 H 0.62775 0.06164 0.19874 0.0
H783 H 0.59598 0.06823 0.21238 0.0
C784 C 0.14958 0.93519 0.25785 0.0
C785 C 0.15155 0.95321 0.26615 0.0
C786 C 0.16697 0.92506 0.25269 0.0
C787 C 0.22221 0.93177 0.24557 0.0
H788 H 0.22695 0.87435 0.25586 0.0
C789 C 0.3001 0.89226 0.25273 0.0
C790 C 0.30222 0.87145 0.24918 0.0
C791 C 0.28101 0.90184 0.25183 0.0
C792 C 0.22579 0.89025 0.2526 0.0
H793 H 0.17362 0.9747 0.2753 0.0
H794 H 0.20357 0.95747 0.26597 0.0
H795 H 0.19443 0.89206 0.25914 0.0
H796 H 0.28605 0.84449 0.24146 0.0
H797 H 0.25265 0.86132 0.23969 0.0
H798 H 0.2536 0.93015 0.23928 0.0
C799 C 0.18859 0.95125 0.26337 0.0
C800 C 0.20713 0.9004 0.2545 0.0
C801 C 0.17131 0.9612 0.26867 0.0
C802 C 0.28489 0.86054 0.24432 0.0
C803 C 0.26574 0.87015 0.24338 0.0
C804 C 0.2408 0.92161 0.24357 0.0
C805 C 0.18666 0.93289 0.25555 0.0
C806 C 0.20533 0.92141 0.2514 0.0
C807 C 0.26353 0.89088 0.24729 0.0
C808 C 0.24301 0.90088 0.24747 0.0
H809 H 0.13464 0.92871 0.25549 0.0
H810 H 0.16504 0.911 0.24659 0.0
H811 H 0.22117 0.9479 0.24288 0.0
H812 H 0.31312 0.90111 0.25655 0.0
H813 H 0.27987 0.9177 0.25518 0.0
C814 C 0.10041 0.62509 0.51949 0.0
C815 C 0.08077 0.61797 0.51555 0.0
C816 C 0.10643 0.64512 0.51631 0.0
C817 C 0.09297 0.691 0.49419 0.0
H818 H 0.12384 0.7196 0.52409 0.0
C819 C 0.13842 0.77276 0.50349 0.0
C820 C 0.1234 0.78663 0.49855 0.0
C821 C 0.13392 0.75188 0.50483 0.0
C822 C 0.11544 0.71177 0.51556 0.0
H823 H 0.05236 0.62633 0.50466 0.0
H824 H 0.06262 0.66148 0.49953 0.0
H825 H 0.11465 0.68381 0.52758 0.0
H826 H 0.09192 0.78921 0.49088 0.0
H827 H 0.08417 0.75285 0.49321 0.0
H828 H 0.09341 0.71925 0.48235 0.0
C829 C 0.0735 0.65144 0.50492 0.0
C830 C 0.11019 0.6912 0.51753 0.0
C831 C 0.06751 0.63132 0.50801 0.0
C832 C 0.10387 0.77903 0.49478 0.0
C833 C 0.09944 0.75814 0.49601 0.0
C834 C 0.0981 0.71164 0.49227 0.0
C835 C 0.09294 0.6587 0.50923 0.0
C836 C 0.09886 0.68052 0.50689 0.0
C837 C 0.11437 0.74434 0.50113 0.0
C838 C 0.10936 0.72226 0.50295 0.0
H839 H 0.11099 0.61545 0.52549 0.0
H840 H 0.12165 0.65002 0.51958 0.0
H841 H 0.0845 0.68321 0.48567 0.0
H842 H 0.15362 0.77803 0.50647 0.0
H843 H 0.14581 0.74159 0.50869 0.0
C844 C 0.37132 0.57251 0.76429 0.0
C845 C 0.38301 0.58756 0.77147 0.0
C846 C 0.35051 0.57588 0.76129 0.0
C847 C 0.30596 0.60028 0.77538 0.0
H848 H 0.28333 0.60225 0.73638 0.0
C849 C 0.2189 0.59996 0.76116 0.0
C850 C 0.21244 0.61698 0.75296 0.0
C851 C 0.23979 0.59606 0.76333 0.0
C852 C 0.2895 0.60166 0.74731 0.0
H853 H 0.38221 0.61769 0.7813 0.0
H854 H 0.34568 0.62328 0.77643 0.0
H855 H 0.3201 0.59556 0.7401 0.0
H856 H 0.22275 0.64302 0.74039 0.0
H857 H 0.25932 0.63576 0.74384 0.0
H858 H 0.27534 0.60596 0.78262 0.0
C859 C 0.35272 0.60912 0.7729 0.0
C860 C 0.31041 0.59778 0.74942 0.0
C861 C 0.37357 0.60598 0.77559 0.0
C862 C 0.22728 0.62989 0.74686 0.0
C863 C 0.24815 0.62569 0.74874 0.0
C864 C 0.28499 0.60367 0.77328 0.0
C865 C 0.34101 0.59408 0.76578 0.0
C866 C 0.31881 0.59727 0.76347 0.0
C867 C 0.25456 0.6088 0.75703 0.0
C868 C 0.27664 0.60459 0.75923 0.0
H869 H 0.37828 0.55817 0.76108 0.0
H870 H 0.34169 0.56406 0.75582 0.0
H871 H 0.31215 0.59991 0.78631 0.0
H872 H 0.20781 0.58977 0.76601 0.0
H873 H 0.24442 0.58293 0.76976 0.0
C874 C 0.44571 0.86182 0.01587 0.0
C875 C 0.4312 0.87755 0.01761 0.0
C876 C 0.43957 0.84219 0.01155 0.0
C877 C 0.39678 0.8126 0.99514 0.0
H878 H 0.41764 0.7683 0.01908 0.0
C879 C 0.35726 0.73355 0.99812 0.0
C880 C 0.36943 0.71603 0.00027 0.0
C881 C 0.36608 0.75308 0.99825 0.0
C882 C 0.41192 0.78037 0.01208 0.0
H883 H 0.39885 0.88497 0.01571 0.0
H884 H 0.38826 0.85091 0.00798 0.0
H885 H 0.431 0.8028 0.02242 0.0
H886 H 0.40052 0.70519 0.00363 0.0
H887 H 0.41599 0.7392 0.00353 0.0
H888 H 0.37754 0.7902 0.98488 0.0
C889 C 0.40441 0.8538 0.00987 0.0
C890 C 0.41959 0.80019 0.01402 0.0
C891 C 0.41052 0.87338 0.01427 0.0
C892 C 0.3907 0.7184 0.00206 0.0
C893 C 0.39955 0.73792 0.00209 0.0
C894 C 0.38919 0.79273 0.99313 0.0
C895 C 0.4188 0.83787 0.00877 0.0
C896 C 0.4119 0.81658 0.00572 0.0
C897 C 0.38732 0.75555 0.00044 0.0
C898 C 0.39645 0.77641 0.00172 0.0
H899 H 0.4618 0.86457 0.0181 0.0
H900 H 0.45106 0.8303 0.01058 0.0
H901 H 0.39073 0.82488 0.98846 0.0
H902 H 0.34081 0.73224 0.99675 0.0
H903 H 0.35612 0.76627 0.99714 0.0
C904 C 0.1312 0.58025 0.99709 0.0
C905 C 0.11957 0.58532 0.98469 0.0
C906 C 0.14967 0.59037 0.0001 0.0
C907 C 0.19106 0.61312 0.98 0.0
H908 H 0.21322 0.62873 0.01755 0.0
C909 C 0.27721 0.61483 0.99318 0.0
C910 C 0.28508 0.63265 -0.00028 0.0
C911 C 0.25611 0.61212 0.9915 0.0
C912 C 0.20713 0.62461 0.00699 0.0
H913 H 0.11762 0.60584 0.96623 0.0
H914 H 0.14974 0.62347 0.97154 0.0
H915 H 0.17684 0.61953 0.01513 0.0
H916 H 0.27699 0.66153 0.00979 0.0
H917 H 0.23986 0.65648 0.00715 0.0
H918 H 0.22143 0.61733 0.97196 0.0
C919 C 0.14459 0.61165 0.97889 0.0
C920 C 0.18641 0.61927 0.00562 0.0
C921 C 0.12608 0.60167 0.97595 0.0
C922 C 0.27136 0.6477 0.00462 0.0
C923 C 0.25017 0.64478 0.00319 0.0
C924 C 0.21177 0.61811 0.98141 0.0
C925 C 0.15692 0.6056 0.99069 0.0
C926 C 0.17824 0.61327 0.99213 0.0
C927 C 0.2424 0.627 0.99656 0.0
C928 C 0.22006 0.62364 0.99494 0.0
H929 H 0.12651 0.5678 0.00406 0.0
H930 H 0.15889 0.58535 0.00926 0.0
H931 H 0.18527 0.60831 0.9695 0.0
H932 H 0.28737 0.60297 0.98927 0.0
H933 H 0.25048 0.5982 0.98645 0.0
C934 C 0.39735 0.62554 0.22467 0.0
C935 C 0.41187 0.61491 0.23315 0.0
C936 C 0.39275 0.64599 0.22763 0.0
C937 C 0.3933 0.68589 0.25522 0.0
H938 H 0.39947 0.72336 0.22291 0.0
C939 C 0.36873 0.77178 0.25576 0.0
C940 C 0.38412 0.78556 0.25152 0.0
C941 C 0.37144 0.75064 0.25405 0.0
C942 C 0.39766 0.71305 0.232 0.0
H943 H 0.43242 0.61709 0.25166 0.0
H944 H 0.42398 0.65295 0.25705 0.0
H945 H 0.40496 0.68663 0.21931 0.0
H946 H 0.41426 0.78798 0.24199 0.0
H947 H 0.41867 0.75112 0.23864 0.0
H948 H 0.38578 0.71242 0.26786 0.0
C949 C 0.4163 0.64537 0.24807 0.0
C950 C 0.40069 0.69208 0.22994 0.0
C951 C 0.42118 0.62495 0.24496 0.0
C952 C 0.40214 0.77777 0.24539 0.0
C953 C 0.40466 0.7567 0.24343 0.0
C954 C 0.38987 0.70688 0.25722 0.0
C955 C 0.40236 0.65618 0.23923 0.0
C956 C 0.39866 0.67832 0.24153 0.0
C957 C 0.38939 0.74295 0.24779 0.0
C958 C 0.3922 0.72064 0.24565 0.0
H959 H 0.39013 0.61829 0.21538 0.0
H960 H 0.38188 0.65397 0.2207 0.0
H961 H 0.39159 0.67556 0.2643 0.0
H962 H 0.35474 0.77731 0.2606 0.0
H963 H 0.35941 0.74031 0.25744 0.0
C964 C 0.36217 0.9256 0.49014 0.0
C965 C 0.36063 0.94706 0.48916 0.0
C966 C 0.34624 0.91403 0.49601 0.0
C967 C 0.29665 0.91811 0.51591 0.0
H968 H 0.2824 0.87014 0.49315 0.0
C969 C 0.21475 0.8865 0.5096 0.0
C970 C 0.21182 0.86518 0.50906 0.0
C971 C 0.23446 0.89474 0.51068 0.0
C972 C 0.28636 0.88326 0.49981 0.0
H973 H 0.34174 0.97323 0.49464 0.0
H974 H 0.31372 0.95312 0.50427 0.0
H975 H 0.31448 0.88784 0.48868 0.0
H976 H 0.22716 0.83573 0.5098 0.0
H977 H 0.26175 0.85019 0.51146 0.0
H978 H 0.2678 0.91404 0.52643 0.0
C979 C 0.32729 0.94514 0.50069 0.0
C980 C 0.30482 0.89343 0.49728 0.0
C981 C 0.34329 0.95671 0.49496 0.0
C982 C 0.22895 0.85223 0.51021 0.0
C983 C 0.24873 0.86049 0.51109 0.0
C984 C 0.27807 0.90805 0.51832 0.0
C985 C 0.3283 0.9236 0.50093 0.0
C986 C 0.31001 0.91128 0.50506 0.0
C987 C 0.25169 0.88184 0.51107 0.0
C988 C 0.27254 0.89078 0.51007 0.0
H989 H 0.37522 0.91759 0.48573 0.0
H990 H 0.34775 0.8975 0.49628 0.0
H991 H 0.30031 0.93154 0.52232 0.0
H992 H 0.20183 0.89688 0.50878 0.0
H993 H 0.23624 0.91124 0.5105 0.0
C994 C 0.09484 0.86543 0.73697 0.0
C995 C 0.07401 0.8686 0.7336 0.0
C996 C 0.10203 0.84602 0.74087 0.0
C997 C 0.08552 0.79373 0.75214 0.0
H998 H 0.13733 0.77791 0.73528 0.0
C999 C 0.11339 0.70959 0.74758 0.0
C1000 C 0.13429 0.70573 0.75019 0.0
C1001 C 0.10592 0.72969 0.74735 0.0
C1002 C 0.12298 0.78216 0.74025 0.0
H1003 H 0.04425 0.85381 0.73242 0.0
H1004 H 0.05692 0.8198 0.7387 0.0
H1005 H 0.12445 0.81249 0.73166 0.0
H1006 H 0.16364 0.71988 0.75504 0.0
H1007 H 0.15061 0.75494 0.75461 0.0
H1008 H 0.0839 0.76302 0.76035 0.0
C1009 C 0.06768 0.83243 0.73851 0.0
C1010 C 0.11559 0.80204 0.7382 0.0
C1011 C 0.06044 0.85192 0.73472 0.0
C1012 C 0.14747 0.72234 0.75296 0.0
C1013 C 0.14002 0.74243 0.75263 0.0
C1014 C 0.09288 0.77375 0.7541 0.0
C1015 C 0.08865 0.82915 0.74136 0.0
C1016 C 0.09674 0.80811 0.74409 0.0
C1017 C 0.11922 0.74635 0.74963 0.0
C1018 C 0.11167 0.76774 0.74813 0.0
H1019 H 0.10585 0.87777 0.73608 0.0
H1020 H 0.11821 0.84418 0.74326 0.0
H1021 H 0.07109 0.79792 0.757 0.0
H1022 H 0.10284 0.69712 0.74541 0.0
H1023 H 0.08985 0.73221 0.74489 0.0
C1024 C 0.64155 0.42935 0.76558 0.0
C1025 C 0.64239 0.45089 0.76543 0.0
C1026 C 0.65792 0.4177 0.76039 0.0
C1027 C 0.70748 0.42148 0.74035 0.0
H1028 H 0.72299 0.37568 0.76488 0.0
C1029 C 0.79018 0.39182 0.74681 0.0
C1030 C 0.79348 0.37055 0.74729 0.0
C1031 C 0.7703 0.39974 0.74622 0.0
C1032 C 0.7187 0.3882 0.75777 0.0
H1033 H 0.66051 0.47699 0.75867 0.0
H1034 H 0.68924 0.45687 0.75022 0.0
H1035 H 0.69045 0.39294 0.76874 0.0
H1036 H 0.77857 0.34087 0.7472 0.0
H1037 H 0.74367 0.35479 0.74648 0.0
H1038 H 0.73641 0.41732 0.72995 0.0
C1039 C 0.6759 0.44883 0.75416 0.0
C1040 C 0.69997 0.3981 0.75993 0.0
C1041 C 0.65948 0.46044 0.75921 0.0
C1042 C 0.77648 0.35733 0.74682 0.0
C1043 C 0.75654 0.36528 0.74647 0.0
C1044 C 0.72632 0.41173 0.73832 0.0
C1045 C 0.6756 0.4273 0.75502 0.0
C1046 C 0.69428 0.41517 0.75145 0.0
C1047 C 0.75327 0.38658 0.7463 0.0
C1048 C 0.73229 0.39526 0.74719 0.0
H1049 H 0.62869 0.42143 0.77035 0.0
H1050 H 0.65693 0.40116 0.76097 0.0
H1051 H 0.70347 0.43424 0.73338 0.0
H1052 H 0.80297 0.4024 0.74712 0.0
H1053 H 0.76826 0.41622 0.74625 0.0
C1054 C 0.56688 0.13986 0.01266 0.0
C1055 C 0.57727 0.12987 0.02404 0.0
C1056 C 0.57141 0.16031 0.00933 0.0
C1057 C 0.58959 0.20746 0.0259 0.0
H1058 H 0.60453 0.225 0.98729 0.0
C1059 C 0.59665 0.29262 0.00929 0.0
C1060 C 0.61526 0.29804 0.00278 0.0
C1061 C 0.5916 0.27204 0.01143 0.0
C1062 C 0.60036 0.22026 0.99811 0.0
H1063 H 0.60027 0.13341 0.04097 0.0
H1064 H 0.60785 0.16917 0.03533 0.0
H1065 H 0.59624 0.18884 0.99178 0.0
H1066 H 0.64295 0.28606 0.99312 0.0
H1067 H 0.63383 0.25001 0.99662 0.0
H1068 H 0.59347 0.23883 0.03224 0.0
C1069 C 0.59643 0.16115 0.02889 0.0
C1070 C 0.59551 0.19968 0.00065 0.0
C1071 C 0.5922 0.14067 0.03203 0.0
C1072 C 0.62855 0.28239 0.99825 0.0
C1073 C 0.6233 0.26178 0.00015 0.0
C1074 C 0.59404 0.22807 0.02332 0.0
C1075 C 0.58605 0.17118 0.01755 0.0
C1076 C 0.59028 0.19308 0.0146 0.0
C1077 C 0.60485 0.25643 0.00687 0.0
C1078 C 0.59963 0.23464 0.00943 0.0
H1079 H 0.5553 0.13185 0.00636 0.0
H1080 H 0.56315 0.16777 0.00056 0.0
H1081 H 0.58551 0.20275 0.03675 0.0
H1082 H 0.58609 0.3043 0.01292 0.0
H1083 H 0.57724 0.2683 0.01658 0.0
C1084 C 0.87518 0.06934 0.26091 0.0
C1085 C 0.88824 0.07784 0.27151 0.0
C1086 C 0.85662 0.07889 0.25733 0.0
C1087 C 0.81739 0.10799 0.27495 0.0
H1088 H 0.79391 0.11597 0.23659 0.0
C1089 C 0.73065 0.11125 0.26285 0.0
C1090 C 0.7236 0.12844 0.25511 0.0
C1091 C 0.75162 0.10755 0.26445 0.0
C1092 C 0.80038 0.11395 0.24734 0.0
H1093 H 0.89256 0.1034 0.28623 0.0
H1094 H 0.85998 0.11991 0.2801 0.0
H1095 H 0.82998 0.10566 0.23924 0.0
H1096 H 0.73295 0.15509 0.24281 0.0
H1097 H 0.76979 0.14819 0.24527 0.0
H1098 H 0.78763 0.11533 0.28304 0.0
C1099 C 0.86421 0.10598 0.2745 0.0
C1100 C 0.82091 0.10801 0.24886 0.0
C1101 C 0.8829 0.09662 0.27791 0.0
C1102 C 0.73797 0.1418 0.24891 0.0
C1103 C 0.75898 0.13782 0.25024 0.0
C1104 C 0.79682 0.11351 0.27343 0.0
C1105 C 0.85066 0.0969 0.26447 0.0
C1106 C 0.82954 0.10486 0.26268 0.0
C1107 C 0.76595 0.12072 0.25809 0.0
C1108 C 0.7881 0.11636 0.25962 0.0
H1109 H 0.87895 0.05487 0.25584 0.0
H1110 H 0.84638 0.07153 0.24962 0.0
H1111 H 0.82361 0.10544 0.28572 0.0
H1112 H 0.71995 0.10071 0.26778 0.0
H1113 H 0.75667 0.09419 0.27048 0.0
C1114 C 0.8981 0.36643 0.51477 0.0
C1115 C 0.91899 0.37125 0.5132 0.0
C1116 C 0.89069 0.34688 0.5115 0.0
C1117 C 0.90477 0.29659 0.49457 0.0
H1118 H 0.86183 0.27666 0.51963 0.0
C1119 C 0.8823 0.21085 0.50286 0.0
C1120 C 0.86122 0.20645 0.50213 0.0
C1121 C 0.88923 0.23114 0.50225 0.0
C1122 C 0.87369 0.28209 0.51246 0.0
H1123 H 0.9482 0.35905 0.50612 0.0
H1124 H 0.93558 0.32467 0.5014 0.0
H1125 H 0.87422 0.31153 0.52242 0.0
H1126 H 0.83093 0.21979 0.49984 0.0
H1127 H 0.84304 0.25524 0.49916 0.0
H1128 H 0.90476 0.26643 0.48522 0.0
C1129 C 0.92476 0.33621 0.50485 0.0
C1130 C 0.88075 0.30218 0.51397 0.0
C1131 C 0.93211 0.35596 0.50781 0.0
C1132 C 0.84726 0.22268 0.50041 0.0
C1133 C 0.85416 0.24296 0.50007 0.0
C1134 C 0.89795 0.2763 0.49328 0.0
C1135 C 0.90399 0.33127 0.50691 0.0
C1136 C 0.89634 0.30981 0.50501 0.0
C1137 C 0.87518 0.24739 0.50117 0.0
C1138 C 0.88229 0.26892 0.50218 0.0
H1139 H 0.88741 0.37748 0.51906 0.0
H1140 H 0.8745 0.34397 0.51286 0.0
H1141 H 0.91656 0.30189 0.48733 0.0
H1142 H 0.89342 0.19865 0.50416 0.0
H1143 H 0.90551 0.23417 0.5032 0.0
C1144 C 0.62895 0.09797 0.47231 0.0
C1145 C 0.61697 0.08401 0.48012 0.0
C1146 C 0.64967 0.10053 0.47566 0.0
C1147 C 0.68717 0.09828 0.50438 0.0
H1148 H 0.72707 0.09224 0.4738 0.0
C1149 C 0.77043 0.12931 0.50728 0.0
C1150 C 0.78588 0.11509 0.50398 0.0
C1151 C 0.7498 0.12437 0.505 0.0
C1152 C 0.71609 0.09389 0.48244 0.0
H1153 H 0.61709 0.06188 0.49758 0.0
H1154 H 0.65353 0.06691 0.50382 0.0
H1155 H 0.69077 0.08552 0.46868 0.0
H1156 H 0.79182 0.08465 0.49557 0.0
H1157 H 0.75573 0.07632 0.49116 0.0
H1158 H 0.71245 0.10735 0.518 0.0
C1159 C 0.64678 0.07566 0.49502 0.0
C1160 C 0.69539 0.09012 0.47951 0.0
C1161 C 0.62605 0.07276 0.49145 0.0
C1162 C 0.78027 0.09591 0.49824 0.0
C1163 C 0.75967 0.09115 0.49568 0.0
C1164 C 0.70785 0.10247 0.50723 0.0
C1165 C 0.65876 0.08944 0.48704 0.0
C1166 C 0.68076 0.09235 0.49044 0.0
C1167 C 0.74426 0.1053 0.49911 0.0
C1168 C 0.72246 0.10035 0.49627 0.0
H1169 H 0.62233 0.10666 0.46343 0.0
H1170 H 0.6586 0.11131 0.46942 0.0
H1171 H 0.67612 0.10021 0.51293 0.0
H1172 H 0.77426 0.14416 0.51181 0.0
H1173 H 0.73818 0.13558 0.50763 0.0
C1174 C 0.91391 0.13209 0.73672 0.0
C1175 C 0.93422 0.12759 0.73289 0.0
C1176 C 0.9079 0.15225 0.73951 0.0
C1177 C 0.92757 0.20383 0.7486 0.0
H1178 H 0.87673 0.22243 0.73088 0.0
C1179 C 0.87085 0.27945 0.74883 0.0
C1180 C 0.88575 0.295 0.74818 0.0
C1181 C 0.87643 0.25882 0.7474 0.0
C1182 C 0.89082 0.21744 0.73608 0.0
H1183 H 0.96429 0.1407 0.72947 0.0
H1184 H 0.95378 0.17597 0.73427 0.0
H1185 H 0.88725 0.1868 0.72814 0.0
H1186 H 0.9182 0.30091 0.74524 0.0
H1187 H 0.92774 0.26519 0.74248 0.0
H1188 H 0.93116 0.23443 0.75655 0.0
C1189 C 0.94252 0.16386 0.73517 0.0
C1190 C 0.89686 0.197 0.7345 0.0
C1191 C 0.94851 0.14368 0.73231 0.0
C1192 C 0.90628 0.28941 0.74588 0.0
C1193 C 0.91182 0.26885 0.7444 0.0
C1194 C 0.9215 0.22425 0.75023 0.0
C1195 C 0.92207 0.16841 0.73858 0.0
C1196 C 0.91537 0.18999 0.74068 0.0
C1197 C 0.89701 0.25327 0.74525 0.0
C1198 C 0.90311 0.23135 0.74389 0.0
H1199 H 0.90243 0.12012 0.73709 0.0
H1200 H 0.89209 0.15522 0.74227 0.0
H1201 H 0.94176 0.19884 0.75367 0.0
H1202 H 0.85492 0.28315 0.75066 0.0
H1203 H 0.86464 0.24721 0.74825 0.0
C1204 C 0.85844 0.43888 0.99465 0.0
C1205 C 0.87351 0.42495 0.99005 0.0
C1206 C 0.83874 0.43207 0.99815 0.0
C1207 C 0.80417 0.38769 0.99138 0.0
H1208 H 0.76991 0.41426 0.01982 0.0
C1209 C 0.72453 0.35641 0.0057 0.0
C1210 C 0.70855 0.37078 0.0047 0.0
C1211 C 0.74496 0.36285 0.00571 0.0
C1212 C 0.77935 0.40673 0.01184 0.0
H1213 H 0.87947 0.39265 0.98605 0.0
H1214 H 0.84597 0.38085 0.99303 0.0
H1215 H 0.80534 0.42561 0.01681 0.0
H1216 H 0.70141 0.40321 0.00363 0.0
H1217 H 0.73715 0.41446 0.00386 0.0
H1218 H 0.77827 0.36869 0.98655 0.0
C1219 C 0.84906 0.39714 0.99346 0.0
C1220 C 0.79961 0.41328 0.01005 0.0
C1221 C 0.86856 0.40395 0.98973 0.0
C1222 C 0.7134 0.39177 0.00436 0.0
C1223 C 0.73384 0.39823 0.00457 0.0
C1224 C 0.78409 0.38099 0.99332 0.0
C1225 C 0.83368 0.41113 0.99733 0.0
C1226 C 0.81228 0.40389 -0.00027 0.0
C1227 C 0.74982 0.38381 0.00493 0.0
C1228 C 0.77143 0.39049 0.0035 0.0
H1229 H 0.86168 0.45512 0.9953 0.0
H1230 H 0.82733 0.44336 0.00102 0.0
H1231 H 0.81317 0.3804 0.98305 0.0
H1232 H 0.72129 0.34013 0.00599 0.0
H1233 H 0.75699 0.35143 0.00613 0.0
C1234 C 0.57122 0.36482 0.24643 0.0
C1235 C 0.58376 0.38 0.24027 0.0
C1236 C 0.57903 0.34531 0.24956 0.0
C1237 C 0.6223 0.31148 0.23907 0.0
H1238 H 0.60196 0.27665 0.26975 0.0
C1239 C 0.65889 0.23362 0.2529 0.0
C1240 C 0.64529 0.21693 0.25286 0.0
C1241 C 0.65145 0.25369 0.25275 0.0
C1242 C 0.60771 0.28625 0.26113 0.0
H1243 H 0.61483 0.38644 0.23328 0.0
H1244 H 0.62857 0.35332 0.23969 0.0
H1245 H 0.5894 0.31186 0.26753 0.0
H1246 H 0.61325 0.20814 0.25318 0.0
H1247 H 0.60025 0.24337 0.2532 0.0
H1248 H 0.64091 0.28599 0.23291 0.0
C1249 C 0.61246 0.35613 0.24156 0.0
C1250 C 0.60047 0.30639 0.25979 0.0
C1251 C 0.6046 0.37544 0.23816 0.0
C1252 C 0.62409 0.22071 0.25315 0.0
C1253 C 0.61665 0.24083 0.25325 0.0
C1254 C 0.62975 0.29155 0.24057 0.0
C1255 C 0.59967 0.34056 0.24684 0.0
C1256 C 0.60765 0.31927 0.24871 0.0
C1257 C 0.63027 0.25748 0.25279 0.0
C1258 C 0.62249 0.27873 0.25157 0.0
H1259 H 0.55522 0.36778 0.24853 0.0
H1260 H 0.56863 0.33376 0.25359 0.0
H1261 H 0.6278 0.32061 0.23013 0.0
H1262 H 0.6753 0.2312 0.25267 0.0
H1263 H 0.66226 0.26628 0.25249 0.0
C1264 C 0.10797 0.92411 0.35629 0.0
C1265 C 0.10686 0.94562 0.35657 0.0
C1266 C 0.11301 0.91311 0.36882 0.0
C1267 C 0.13778 0.9194 0.4048 0.0
H1268 H 0.1103 0.86827 0.41367 0.0
C1269 C 0.14248 0.88132 0.46083 0.0
C1270 C 0.14492 0.86 0.46141 0.0
C1271 C 0.13886 0.89111 0.44765 0.0
C1272 C 0.11828 0.88239 0.41122 0.0
H1273 H 0.10969 0.97244 0.37029 0.0
H1274 H 0.11823 0.95329 0.3922 0.0
H1275 H 0.10126 0.88683 0.39153 0.0
H1276 H 0.1469 0.83218 0.44877 0.0
H1277 H 0.14012 0.84932 0.42548 0.0
H1278 H 0.1545 0.91514 0.42463 0.0
C1279 C 0.11565 0.9449 0.38223 0.0
C1280 C 0.11311 0.89303 0.39855 0.0
C1281 C 0.11071 0.95589 0.36969 0.0
C1282 C 0.14461 0.84862 0.44853 0.0
C1283 C 0.1407 0.8584 0.43529 0.0
C1284 C 0.14284 0.90883 0.41748 0.0
C1285 C 0.11699 0.92338 0.38194 0.0
C1286 C 0.12271 0.91175 0.39524 0.0
C1287 C 0.13769 0.87975 0.43475 0.0
C1288 C 0.13306 0.89029 0.42088 0.0
H1289 H 0.10538 0.91577 0.3463 0.0
H1290 H 0.11419 0.89658 0.36815 0.0
H1291 H 0.14579 0.93353 0.40245 0.0
H1292 H 0.14321 0.89042 0.47064 0.0
H1293 H 0.13648 0.90754 0.44759 0.0
C1294 C 0.09222 0.55331 0.61169 0.0
C1295 C 0.08696 0.56717 0.60062 0.0
C1296 C 0.09999 0.56043 0.62493 0.0
C1297 C 0.12573 0.60461 0.64204 0.0
H1298 H 0.10299 0.58307 0.6775 0.0
C1299 C 0.12408 0.62367 0.70722 0.0
C1300 C 0.14484 0.62799 0.70977 0.0
C1301 C 0.11753 0.61621 0.69379 0.0
C1302 C 0.10957 0.58924 0.66773 0.0
H1303 H 0.08619 0.59929 0.5946 0.0
H1304 H 0.09966 0.6117 0.61773 0.0
H1305 H 0.09103 0.5698 0.6543 0.0
H1306 H 0.17491 0.62924 0.70025 0.0
H1307 H 0.16365 0.61561 0.67675 0.0
H1308 H 0.14404 0.6243 0.65545 0.0
C1309 C 0.0978 0.59535 0.61617 0.0
C1310 C 0.10279 0.58151 0.65442 0.0
C1311 C 0.08987 0.58826 0.60299 0.0
C1312 C 0.15887 0.62562 0.69853 0.0
C1313 C 0.15237 0.61797 0.68509 0.0
C1314 C 0.13266 0.61222 0.65537 0.0
C1315 C 0.10286 0.58153 0.6273 0.0
C1316 C 0.1107 0.58919 0.64143 0.0
C1317 C 0.13161 0.61304 0.68259 0.0
C1318 C 0.12461 0.60468 0.66839 0.0
H1319 H 0.09007 0.53698 0.61017 0.0
H1320 H 0.10389 0.54941 0.6333 0.0
H1321 H 0.13217 0.61076 0.63219 0.0
H1322 H 0.11291 0.62609 0.71565 0.0
H1323 H 0.10137 0.61307 0.69217 0.0
C1324 C 0.42074 0.58751 0.86085 0.0
C1325 C 0.43481 0.60096 0.8544 0.0
C1326 C 0.41195 0.59227 0.87415 0.0
C1327 C 0.3988 0.63511 0.89786 0.0
H1328 H 0.3971 0.59345 0.92773 0.0
C1329 C 0.37111 0.6513 0.95642 0.0
C1330 C 0.36101 0.63532 0.96363 0.0
C1331 C 0.37954 0.64802 0.94272 0.0
C1332 C 0.3971 0.60519 0.91945 0.0
H1333 H 0.45084 0.6299 0.85714 0.0
H1334 H 0.43506 0.63836 0.88023 0.0
H1335 H 0.41318 0.5858 0.90473 0.0
H1336 H 0.35063 0.60385 0.96178 0.0
H1337 H 0.36452 0.59838 0.93781 0.0
H1338 H 0.38235 0.6544 0.91247 0.0
C1339 C 0.43085 0.62418 0.87488 0.0
C1340 C 0.40644 0.60081 0.90629 0.0
C1341 C 0.43984 0.61932 0.86164 0.0
C1342 C 0.35859 0.61638 0.95658 0.0
C1343 C 0.36672 0.6132 0.94287 0.0
C1344 C 0.38923 0.63945 0.911 0.0
C1345 C 0.41683 0.61068 0.88127 0.0
C1346 C 0.40732 0.61567 0.89534 0.0
C1347 C 0.37781 0.62876 0.93592 0.0
C1348 C 0.38814 0.62448 0.92193 0.0
H1349 H 0.41613 0.57347 0.85548 0.0
H1350 H 0.40099 0.5817 0.87875 0.0
H1351 H 0.39913 0.64681 0.88954 0.0
H1352 H 0.3733 0.66603 0.96162 0.0
H1353 H 0.38807 0.66033 0.93774 0.0
C1354 C 0.42992 0.93604 0.11775 0.0
C1355 C 0.41826 0.93187 0.10521 0.0
C1356 C 0.42388 0.92851 0.1312 0.0
C1357 C 0.39186 0.88817 0.14786 0.0
H1358 H 0.40228 0.91975 0.18273 0.0
C1359 C 0.3684 0.86208 0.20581 0.0
C1360 C 0.384 0.86391 0.21638 0.0
C1361 C 0.37095 0.87048 0.19198 0.0
C1362 C 0.39933 0.91074 0.17308 0.0
H1363 H 0.3909 0.91663 0.09708 0.0
H1364 H 0.38 0.90413 0.12062 0.0
H1365 H 0.40918 0.93491 0.15918 0.0
H1366 H 0.41457 0.87591 0.22057 0.0
H1367 H 0.41881 0.89055 0.19662 0.0
H1368 H 0.3819 0.86404 0.16191 0.0
C1369 C 0.39404 0.91292 0.12001 0.0
C1370 C 0.40335 0.91938 0.15958 0.0
C1371 C 0.40015 0.92035 0.10652 0.0
C1372 C 0.40221 0.87415 0.21274 0.0
C1373 C 0.40462 0.8827 0.19904 0.0
C1374 C 0.38764 0.8796 0.16139 0.0
C1375 C 0.40593 0.91674 0.13251 0.0
C1376 C 0.40005 0.90808 0.14679 0.0
C1377 C 0.38899 0.8811 0.18855 0.0
C1378 C 0.39171 0.89067 0.17413 0.0
H1379 H 0.44381 0.94507 0.11719 0.0
H1380 H 0.4336 0.93156 0.14054 0.0
H1381 H 0.38934 0.87892 0.13827 0.0
H1382 H 0.3542 0.85429 0.20824 0.0
H1383 H 0.35865 0.86906 0.18408 0.0
C1384 C 0.10075 0.58674 0.89711 0.0
C1385 C 0.08301 0.57463 0.89768 0.0
C1386 C 0.10617 0.59661 0.88428 0.0
C1387 C 0.08642 0.61 0.84724 0.0
H1388 H 0.14425 0.61064 0.83797 0.0
C1389 C 0.11821 0.61137 0.78951 0.0
C1390 C 0.13389 0.62539 0.78634 0.0
C1391 C 0.11118 0.60915 0.80362 0.0
C1392 C 0.12809 0.61088 0.84052 0.0
H1393 H 0.05684 0.56347 0.88546 0.0
H1394 H 0.06663 0.5799 0.86285 0.0
H1395 H 0.13345 0.59879 0.86169 0.0
H1396 H 0.15441 0.64822 0.79547 0.0
H1397 H 0.14251 0.64373 0.82045 0.0
H1398 H 0.08118 0.62087 0.8256 0.0
C1399 C 0.07613 0.58241 0.87237 0.0
C1400 C 0.12184 0.60414 0.85414 0.0
C1401 C 0.07053 0.57285 0.88529 0.0
C1402 C 0.14226 0.63735 0.7976 0.0
C1403 C 0.13552 0.63477 0.81185 0.0
C1404 C 0.09268 0.6164 0.83354 0.0
C1405 C 0.09415 0.59428 0.87164 0.0
C1406 C 0.10088 0.60325 0.85761 0.0
C1407 C 0.11994 0.62059 0.81494 0.0
C1408 C 0.11353 0.61658 0.82999 0.0
H1409 H 0.11047 0.58856 0.90661 0.0
H1410 H 0.11986 0.60597 0.88429 0.0
H1411 H 0.07021 0.61005 0.84959 0.0
H1412 H 0.11138 0.60197 0.78109 0.0
H1413 H 0.09931 0.59797 0.80575 0.0
C1414 C 0.40966 0.59233 0.14662 0.0
C1415 C 0.41308 0.57113 0.14798 0.0
C1416 C 0.40249 0.60063 0.13359 0.0
C1417 C 0.39872 0.58998 0.09446 0.0
H1418 H 0.35815 0.63337 0.095 0.0
C1419 C 0.37646 0.63384 0.04258 0.0
C1420 C 0.35583 0.6392 0.04063 0.0
C1421 C 0.38339 0.62601 0.05581 0.0
C1422 C 0.36932 0.62112 0.09461 0.0
H1423 H 0.41171 0.54205 0.13665 0.0
H1424 H 0.39885 0.55652 0.11392 0.0
H1425 H 0.36977 0.61808 0.11768 0.0
H1426 H 0.32644 0.64193 0.051 0.0
H1427 H 0.33821 0.6274 0.07406 0.0
H1428 H 0.39821 0.5928 0.07146 0.0
C1429 C 0.40195 0.56674 0.12293 0.0
C1430 C 0.37618 0.61253 0.10765 0.0
C1431 C 0.40912 0.55842 0.13598 0.0
C1432 C 0.34236 0.63751 0.05227 0.0
C1433 C 0.34919 0.62937 0.06547 0.0
C1434 C 0.39188 0.59858 0.08143 0.0
C1435 C 0.39853 0.58795 0.12159 0.0
C1436 C 0.39097 0.59687 0.10772 0.0
C1437 C 0.36979 0.62336 0.06739 0.0
C1438 C 0.37706 0.61425 0.08131 0.0
H1439 H 0.41226 0.60253 0.15571 0.0
H1440 H 0.40025 0.61705 0.13288 0.0
H1441 H 0.41032 0.57813 0.09414 0.0
H1442 H 0.38724 0.6357 0.03383 0.0
H1443 H 0.39945 0.62212 0.05695 0.0
C1444 C 0.40918 0.91698 0.39978 0.0
C1445 C 0.41354 0.93806 0.3989 0.0
C1446 C 0.40634 0.90532 0.3872 0.0
C1447 C 0.41522 0.90607 0.34752 0.0
H1448 H 0.36975 0.86784 0.3461 0.0
C1449 C 0.3806 0.87774 0.29385 0.0
C1450 C 0.3751 0.85705 0.29265 0.0
C1451 C 0.38681 0.88585 0.30715 0.0
C1452 C 0.3827 0.87821 0.34638 0.0
H1453 H 0.41901 0.96322 0.38409 0.0
H1454 H 0.41352 0.94311 0.36224 0.0
H1455 H 0.37825 0.88522 0.36877 0.0
H1456 H 0.37044 0.82879 0.30439 0.0
H1457 H 0.38157 0.84291 0.32786 0.0
H1458 H 0.41918 0.89969 0.32505 0.0
C1459 C 0.41253 0.93547 0.37262 0.0
C1460 C 0.3876 0.88817 0.35938 0.0
C1461 C 0.41542 0.94709 0.38517 0.0
C1462 C 0.37505 0.84471 0.30508 0.0
C1463 C 0.38131 0.85282 0.31846 0.0
C1464 C 0.41023 0.89625 0.33453 0.0
C1465 C 0.40779 0.91448 0.37347 0.0
C1466 C 0.40371 0.90249 0.36004 0.0
C1467 C 0.38737 0.87348 0.31961 0.0
C1468 C 0.39372 0.88245 0.33374 0.0
H1469 H 0.40744 0.90957 0.41019 0.0
H1470 H 0.40293 0.88915 0.38825 0.0
H1471 H 0.428 0.91667 0.3477 0.0
H1472 H 0.37999 0.88771 0.28447 0.0
H1473 H 0.39087 0.90193 0.30771 0.0
C1474 C 0.07256 0.93088 0.63539 0.0
C1475 C 0.08425 0.92682 0.64794 0.0
C1476 C 0.0788 0.92363 0.62191 0.0
C1477 C 0.11165 0.88407 0.60518 0.0
H1478 H 0.10188 0.91614 0.57044 0.0
C1479 C 0.13905 0.85979 0.5479 0.0
C1480 C 0.12459 0.86217 0.5366 0.0
C1481 C 0.13511 0.86756 0.56172 0.0
C1482 C 0.10459 0.90696 0.58005 0.0
H1483 H 0.11189 0.91208 0.65604 0.0
H1484 H 0.12312 0.90003 0.63246 0.0
H1485 H 0.09378 0.93065 0.594 0.0
H1486 H 0.0945 0.87438 0.53115 0.0
H1487 H 0.08777 0.88784 0.55515 0.0
H1488 H 0.12258 0.86041 0.59111 0.0
C1489 C 0.10891 0.90853 0.63309 0.0
C1490 C 0.09991 0.91525 0.59355 0.0
C1491 C 0.10261 0.91571 0.6466 0.0
C1492 C 0.10602 0.87222 0.53954 0.0
C1493 C 0.10219 0.88011 0.55328 0.0
C1494 C 0.11648 0.87583 0.59165 0.0
C1495 C 0.09698 0.91222 0.62059 0.0
C1496 C 0.10312 0.90382 0.60628 0.0
C1497 C 0.11675 0.87805 0.56449 0.0
C1498 C 0.11273 0.88709 0.57893 0.0
H1499 H 0.05847 0.93959 0.63598 0.0
H1500 H 0.06908 0.92658 0.61256 0.0
H1501 H 0.11408 0.87471 0.61472 0.0
H1502 H 0.15351 0.85214 0.54603 0.0
H1503 H 0.14664 0.86582 0.57016 0.0
C1504 C 0.59209 0.45868 0.86887 0.0
C1505 C 0.59293 0.4487 0.8554 0.0
C1506 C 0.59598 0.44797 0.88169 0.0
C1507 C 0.62034 0.4003 0.89562 0.0
H1508 H 0.59202 0.41543 0.93067 0.0
C1509 C 0.63078 0.35632 0.94984 0.0
C1510 C 0.63266 0.36857 0.96225 0.0
C1511 C 0.62501 0.36509 0.93657 0.0
C1512 C 0.60004 0.41098 0.92099 0.0
H1513 H 0.59841 0.41941 0.84497 0.0
H1514 H 0.60421 0.40056 0.86735 0.0
H1515 H 0.58286 0.43204 0.90799 0.0
H1516 H 0.63176 0.39959 0.97048 0.0
H1517 H 0.62158 0.41497 0.94741 0.0
H1518 H 0.63731 0.37902 0.90872 0.0
C1519 C 0.60102 0.41682 0.86798 0.0
C1520 C 0.5949 0.42063 0.90797 0.0
C1521 C 0.59736 0.42759 0.85513 0.0
C1522 C 0.6296 0.38977 0.96112 0.0
C1523 C 0.62383 0.39854 0.94793 0.0
C1524 C 0.62526 0.39042 0.90864 0.0
C1525 C 0.60056 0.4269 0.88144 0.0
C1526 C 0.60519 0.41566 0.89513 0.0
C1527 C 0.62135 0.3863 0.93551 0.0
C1528 C 0.61532 0.39583 0.9215 0.0
H1529 H 0.58845 0.47484 0.86954 0.0
H1530 H 0.59576 0.45637 0.8918 0.0
H1531 H 0.62884 0.39628 0.88603 0.0
H1532 H 0.63351 0.33996 0.95046 0.0
H1533 H 0.62321 0.35527 0.92719 0.0
C1534 C 0.59316 0.06142 0.11839 0.0
C1535 C 0.58827 0.07543 0.10732 0.0
C1536 C 0.60158 0.06827 0.13152 0.0
C1537 C 0.62954 0.11188 0.14785 0.0
H1538 H 0.60915 0.09036 0.18405 0.0
C1539 C 0.66625 0.1336 0.20296 0.0
C1540 C 0.65296 0.13633 0.21461 0.0
C1541 C 0.65894 0.12544 0.18989 0.0
C1542 C 0.61504 0.09654 0.17405 0.0
H1543 H 0.58873 0.10755 0.10126 0.0
H1544 H 0.60309 0.11949 0.12419 0.0
H1545 H 0.59538 0.07737 0.16122 0.0
H1546 H 0.62148 0.13448 0.22156 0.0
H1547 H 0.60851 0.12055 0.1987 0.0
H1548 H 0.64883 0.13142 0.16063 0.0
C1549 C 0.60054 0.10321 0.12271 0.0
C1550 C 0.60725 0.08895 0.16096 0.0
C1551 C 0.59206 0.09639 0.10964 0.0
C1552 C 0.6321 0.13177 0.21284 0.0
C1553 C 0.62473 0.12379 0.19976 0.0
C1554 C 0.63739 0.1194 0.16094 0.0
C1555 C 0.60541 0.08924 0.1338 0.0
C1556 C 0.6143 0.09665 0.14771 0.0
C1557 C 0.63808 0.12038 0.18815 0.0
C1558 C 0.63017 0.11191 0.17421 0.0
H1559 H 0.59032 0.04519 0.11694 0.0
H1560 H 0.60531 0.05712 0.13983 0.0
H1561 H 0.63543 0.11799 0.13782 0.0
H1562 H 0.68235 0.13741 0.20408 0.0
H1563 H 0.66968 0.12288 0.18123 0.0
C1564 C 0.91103 0.08674 0.36157 0.0
C1565 C 0.92124 0.06776 0.36092 0.0
C1566 C 0.90351 0.09408 0.3747 0.0
C1567 C 0.88767 0.07628 0.41072 0.0
H1568 H 0.89507 0.13297 0.42233 0.0
C1569 C 0.87534 0.10144 0.46909 0.0
C1570 C 0.86458 0.11973 0.47172 0.0
C1571 C 0.88165 0.09642 0.45519 0.0
C1572 C 0.89265 0.11718 0.41914 0.0
H1573 H 0.93198 0.04192 0.37366 0.0
H1574 H 0.91877 0.05466 0.39652 0.0
H1575 H 0.90731 0.12154 0.3987 0.0
H1576 H 0.8526 0.1474 0.46173 0.0
H1577 H 0.86366 0.13846 0.43723 0.0
H1578 H 0.87316 0.0718 0.4311 0.0
C1579 C 0.91631 0.06371 0.38683 0.0
C1580 C 0.89967 0.11062 0.40563 0.0
C1581 C 0.92388 0.0564 0.37372 0.0
C1582 C 0.86081 0.13318 0.46008 0.0
C1583 C 0.86718 0.1281 0.44607 0.0
C1584 C 0.88066 0.08281 0.42416 0.0
C1585 C 0.90594 0.08258 0.38746 0.0
C1586 C 0.89755 0.09 0.4014 0.0
C1587 C 0.87737 0.10947 0.44347 0.0
C1588 C 0.8834 0.10323 0.42865 0.0
H1589 H 0.90849 0.09575 0.35187 0.0
H1590 H 0.8954 0.10856 0.37481 0.0
H1591 H 0.88536 0.06042 0.40764 0.0
H1592 H 0.87884 0.09081 0.47778 0.0
H1593 H 0.88992 0.08221 0.45363 0.0
C1594 C 0.89681 0.42762 0.60427 0.0
C1595 C 0.91752 0.42477 0.60057 0.0
C1596 C 0.88961 0.42143 0.61779 0.0
C1597 C 0.89774 0.38431 0.64615 0.0
H1598 H 0.87459 0.42361 0.67293 0.0
C1599 C 0.86382 0.36286 0.70226 0.0
C1600 C 0.87465 0.37243 0.71363 0.0
C1601 C 0.86654 0.36929 0.68793 0.0
C1602 C 0.88081 0.41247 0.66547 0.0
H1603 H 0.94691 0.41365 0.60863 0.0
H1604 H 0.93399 0.40201 0.63186 0.0
H1605 H 0.8844 0.43473 0.64856 0.0
H1606 H 0.89621 0.39667 0.71899 0.0
H1607 H 0.90035 0.40827 0.69408 0.0
H1608 H 0.8942 0.36207 0.66305 0.0
C1609 C 0.92346 0.40909 0.62421 0.0
C1610 C 0.88637 0.4188 0.65159 0.0
C1611 C 0.93079 0.41567 0.61085 0.0
C1612 C 0.88771 0.38894 0.71046 0.0
C1613 C 0.89001 0.39566 0.69624 0.0
C1614 C 0.89175 0.37788 0.65991 0.0
C1615 C 0.90283 0.41187 0.62777 0.0
C1616 C 0.89526 0.40485 0.64195 0.0
C1617 C 0.87968 0.38574 0.68485 0.0
C1618 C 0.88361 0.392 0.66976 0.0
H1619 H 0.886 0.43421 0.59662 0.0
H1620 H 0.8736 0.42367 0.62033 0.0
H1621 H 0.90452 0.3733 0.63884 0.0
H1622 H 0.85372 0.35006 0.70439 0.0
H1623 H 0.85846 0.36142 0.67927 0.0
C1624 C 0.59026 0.09456 0.39442 0.0
C1625 C 0.57022 0.10086 0.3977 0.0
C1626 C 0.59996 0.10153 0.38196 0.0
C1627 C 0.58934 0.1264 0.34633 0.0
H1628 H 0.64862 0.13085 0.34606 0.0
C1629 C 0.6364 0.15519 0.29716 0.0
C1630 C 0.64843 0.13919 0.29164 0.0
C1631 C 0.62766 0.15345 0.31088 0.0
C1632 C 0.63205 0.12981 0.34606 0.0
H1633 H 0.5448 0.11971 0.39024 0.0
H1634 H 0.56214 0.13282 0.36903 0.0
H1635 H 0.63127 0.12276 0.36861 0.0
H1636 H 0.66166 0.10942 0.29628 0.0
H1637 H 0.64709 0.10683 0.32052 0.0
H1638 H 0.59038 0.13395 0.32374 0.0
C1639 C 0.57017 0.12194 0.37588 0.0
C1640 C 0.62207 0.12494 0.35892 0.0
C1641 C 0.56029 0.11462 0.38822 0.0
C1642 C 0.65244 0.12195 0.30031 0.0
C1643 C 0.64417 0.12048 0.31415 0.0
C1644 C 0.59933 0.13174 0.33356 0.0
C1645 C 0.59014 0.11543 0.37254 0.0
C1646 C 0.60059 0.12263 0.35916 0.0
C1647 C 0.63135 0.13598 0.31939 0.0
C1648 C 0.62077 0.13305 0.33328 0.0
H1649 H 0.5987 0.08437 0.40155 0.0
H1650 H 0.61513 0.09576 0.3797 0.0
H1651 H 0.57287 0.12451 0.34595 0.0
H1652 H 0.63293 0.16854 0.2906 0.0
H1653 H 0.61776 0.16555 0.31475 0.0
C1654 C 0.88589 0.06758 0.6518 0.0
C1655 C 0.90695 0.06889 0.65511 0.0
C1656 C 0.87779 0.07692 0.63936 0.0
C1657 C 0.89109 0.11547 0.61089 0.0
H1658 H 0.84526 0.09074 0.59042 0.0
C1659 C 0.87081 0.13244 0.5513 0.0
C1660 C 0.85008 0.13491 0.5476 0.0
C1661 C 0.8765 0.12661 0.56531 0.0
C1662 C 0.85798 0.09787 0.59607 0.0
H1663 H 0.93594 0.08119 0.64764 0.0
H1664 H 0.92222 0.09586 0.6256 0.0
H1665 H 0.85805 0.07501 0.6126 0.0
H1666 H 0.81907 0.13477 0.55559 0.0
H1667 H 0.82896 0.12386 0.58019 0.0
H1668 H 0.89164 0.13761 0.59376 0.0
C1669 C 0.91171 0.08833 0.63286 0.0
C1670 C 0.86527 0.08895 0.60888 0.0
C1671 C 0.91972 0.07941 0.64543 0.0
C1672 C 0.83512 0.13251 0.55824 0.0
C1673 C 0.84077 0.12629 0.57223 0.0
C1674 C 0.88411 0.12405 0.5979 0.0
C1675 C 0.89059 0.08748 0.62972 0.0
C1676 C 0.88211 0.09749 0.61641 0.0
C1677 C 0.86152 0.12311 0.57584 0.0
C1678 C 0.86766 0.11518 0.59027 0.0
H1679 H 0.87554 0.05939 0.65882 0.0
H1680 H 0.86142 0.07606 0.63746 0.0
H1681 H 0.90363 0.12294 0.61655 0.0
H1682 H 0.88259 0.13471 0.54328 0.0
H1683 H 0.89258 0.12414 0.56776 0.0
C1684 C 0.93755 0.40881 0.89197 0.0
C1685 C 0.9232 0.41531 0.90221 0.0
C1686 C 0.93104 0.4017 0.8784 0.0
C1687 C 0.8874 0.37888 0.85912 0.0
H1688 H 0.9119 0.40212 0.8248 0.0
C1689 C 0.87117 0.34692 0.80167 0.0
C1690 C 0.86924 0.36125 0.79044 0.0
C1691 C 0.87777 0.35316 0.81544 0.0
C1692 C 0.90496 0.39538 0.83424 0.0
H1693 H 0.89083 0.41902 0.9065 0.0
H1694 H 0.87942 0.40633 0.88282 0.0
H1695 H 0.92384 0.41309 0.84865 0.0
H1696 H 0.87083 0.3934 0.78488 0.0
H1697 H 0.88228 0.40444 0.80892 0.0
H1698 H 0.86846 0.3612 0.84474 0.0
C1699 C 0.89569 0.40686 0.88526 0.0
C1700 C 0.91187 0.40162 0.84791 0.0
C1701 C 0.90221 0.41426 0.89874 0.0
C1702 C 0.87299 0.38201 0.7933 0.0
C1703 C 0.8795 0.38829 0.80705 0.0
C1704 C 0.88069 0.37239 0.84544 0.0
C1705 C 0.91004 0.40065 0.87493 0.0
C1706 C 0.9031 0.3935 0.86047 0.0
C1707 C 0.88213 0.37392 0.81826 0.0
C1708 C 0.88937 0.3806 0.83283 0.0
H1709 H 0.95382 0.40954 0.89437 0.0
H1710 H 0.9424 0.3969 0.87063 0.0
H1711 H 0.8804 0.37237 0.86866 0.0
H1712 H 0.86794 0.33086 0.79971 0.0
H1713 H 0.87974 0.34168 0.82381 0.0
C1714 C 0.60509 0.43087 0.14775 0.0
C1715 C 0.58466 0.42683 0.15164 0.0
C1716 C 0.61268 0.42414 0.13446 0.0
C1717 C 0.60609 0.38501 0.10685 0.0
H1718 H 0.62767 0.42448 0.07956 0.0
C1719 C 0.63834 0.36392 0.05006 0.0
C1720 C 0.62705 0.37354 0.03893 0.0
C1721 C 0.63605 0.37016 0.06448 0.0
C1722 C 0.62193 0.4133 0.08717 0.0
H1723 H 0.55616 0.41289 0.14423 0.0
H1724 H 0.56977 0.40047 0.12141 0.0
H1725 H 0.61797 0.43574 0.10388 0.0
H1726 H 0.60505 0.39762 0.03412 0.0
H1727 H 0.60166 0.40885 0.05912 0.0
H1728 H 0.60984 0.36261 0.09008 0.0
C1729 C 0.57981 0.40883 0.12873 0.0
C1730 C 0.61643 0.4197 0.10104 0.0
C1731 C 0.57208 0.4159 0.14185 0.0
C1732 C 0.61392 0.38984 0.04243 0.0
C1733 C 0.61204 0.39637 0.05673 0.0
C1734 C 0.61199 0.37852 0.09309 0.0
C1735 C 0.60016 0.41288 0.12493 0.0
C1736 C 0.60802 0.4057 0.11086 0.0
C1737 C 0.6229 0.38647 0.06788 0.0
C1738 C 0.61951 0.39271 0.08304 0.0
H1739 H 0.61538 0.4389 0.15505 0.0
H1740 H 0.62846 0.4274 0.13174 0.0
H1741 H 0.5997 0.37395 0.1143 0.0
H1742 H 0.64851 0.35128 0.04768 0.0
H1743 H 0.64452 0.36229 0.07296 0.0
loop_
_geom_bond_atom_site_label_1
_geom_bond_atom_site_label_2
_geom_bond_distance
_geom_bond_site_symmetry_2
_ccdc_geom_bond_type
H0 C27 0.929 . S
N1 C26 1.433 . S
N1 C32 1.435 . S
N1 C38 1.423 . S
H2 C28 0.930 . S
H3 C31 0.931 . S
H4 C30 0.929 . S
H5 C33 0.930 . S
H6 C34 0.932 . S
H7 C37 0.929 . S
H8 C36 0.931 . S
H9 C39 0.929 . S
H10 C43 0.932 . S
H11 C40 0.931 . S
H12 C42 0.929 . S
H13 C45 0.929 . S
H14 C46 0.930 . S
H15 C48 0.929 . S
H16 C49 0.931 . S
H17 C51 0.930 . S
H18 C52 0.932 . S
H19 C54 0.931 . S
H20 C55 0.929 . S
H21 C57 0.929 . S
H22 C58 0.931 . S
H23 C60 0.929 . S
N24 C44 1.433 . S
N24 C50 1.435 . S
N24 C56 1.423 . S
H25 C61 0.932 . S
C26 N1 1.433 . S
C26 C27 1.363 . S
C26 C31 1.370 . S
C27 H0 0.929 . S
C27 C26 1.363 . S
C27 C28 1.385 . S
C28 H2 0.930 . S
C28 C27 1.385 . S
C28 C29 1.357 . S
C29 C28 1.357 . S
C29 C30 1.406 . S
C30 H4 0.929 . S
C30 C29 1.406 . S
C30 C31 1.391 . S
C31 H3 0.931 . S
C31 C26 1.370 . S
C31 C30 1.391 . S
C32 N1 1.435 . S
C32 C33 1.358 . S
C32 C37 1.371 . S
C33 H5 0.930 . S
C33 C32 1.358 . S
C33 C34 1.405 . S
C34 H6 0.932 . S
C34 C33 1.405 . S
C34 C35 1.383 . S
C35 C34 1.383 . S
C35 C36 1.393 . S
C36 H8 0.931 . S
C36 C35 1.393 . S
C36 C37 1.382 . S
C37 H7 0.929 . S
C37 C32 1.371 . S
C37 C36 1.382 . S
C38 N1 1.423 . S
C38 C39 1.362 . S
C38 C43 1.388 . S
C39 H9 0.929 . S
C39 C38 1.362 . S
C39 C40 1.376 1_565 S
C40 H11 0.931 . S
C40 C39 1.376 1_545 S
C40 C41 1.396 . S
C41 C40 1.396 . S
C41 C42 1.348 1_545 S
C41 C59 1.472 . S
C42 H12 0.929 . S
C42 C41 1.348 1_565 S
C42 C43 1.443 . S
C43 H10 0.932 . S
C43 C38 1.388 . S
C43 C42 1.443 . S
C44 N24 1.433 . S
C44 C45 1.363 . S
C44 C49 1.370 . S
C45 H13 0.929 . S
C45 C44 1.363 . S
C45 C46 1.385 . S
C46 H14 0.930 . S
C46 C45 1.385 . S
C46 C47 1.357 . S
C47 C46 1.357 . S
C47 C48 1.406 . S
C48 H15 0.929 . S
C48 C47 1.406 . S
C48 C49 1.391 . S
C49 H16 0.931 . S
C49 C44 1.370 . S
C49 C48 1.391 . S
C50 N24 1.435 . S
C50 C51 1.358 . S
C50 C55 1.371 . S
C51 H17 0.930 . S
C51 C50 1.358 . S
C51 C52 1.405 . S
C52 H18 0.932 . S
C52 C51 1.405 . S
C52 C53 1.383 . S
C53 C52 1.383 . S
C53 C54 1.393 . S
C54 H19 0.931 . S
C54 C53 1.393 . S
C54 C55 1.382 . S
C55 H20 0.929 . S
C55 C50 1.371 . S
C55 C54 1.382 . S
C56 N24 1.423 . S
C56 C57 1.362 . S
C56 C61 1.388 . S
C57 H21 0.929 . S
C57 C56 1.362 . S
C57 C58 1.376 1_655 S
C58 H22 0.931 . S
C58 C57 1.376 1_455 S
C58 C59 1.396 . S
C59 C41 1.472 . S
C59 C58 1.396 . S
C59 C60 1.348 1_455 S
C60 H23 0.929 . S
C60 C59 1.348 1_655 S
C60 C61 1.443 . S
C61 H25 0.932 . S
C61 C56 1.388 . S
C61 C60 1.443 . S
H62 C89 0.929 . S
N63 C88 1.433 . S
N63 C94 1.435 . S
N63 C100 1.423 . S
H64 C90 0.930 . S
H65 C93 0.931 . S
H66 C92 0.929 . S
H67 C95 0.930 . S
H68 C96 0.932 . S
H69 C99 0.929 . S
H70 C98 0.931 . S
H71 C101 0.929 . S
H72 C105 0.932 . S
H73 C102 0.931 . S
H74 C104 0.929 . S
H75 C107 0.929 . S
H76 C108 0.930 . S
H77 C110 0.929 . S
H78 C111 0.931 . S
H79 C113 0.930 . S
H80 C114 0.932 . S
H81 C116 0.931 . S
H82 C117 0.929 . S
H83 C119 0.929 . S
H84 C120 0.931 . S
H85 C122 0.929 . S
N86 C106 1.433 . S
N86 C112 1.435 . S
N86 C118 1.423 . S
H87 C123 0.932 . S
C88 N63 1.433 . S
C88 C89 1.363 . S
C88 C93 1.370 . S
C89 H62 0.929 . S
C89 C88 1.363 . S
C89 C90 1.385 . S
C90 H64 0.930 . S
C90 C89 1.385 . S
C90 C91 1.357 . S
C91 C90 1.357 . S
C91 C92 1.406 . S
C92 H66 0.929 . S
C92 C91 1.406 . S
C92 C93 1.391 . S
C93 H65 0.931 . S
C93 C88 1.370 . S
C93 C92 1.391 . S
C94 N63 1.435 . S
C94 C95 1.358 . S
C94 C99 1.371 . S
C95 H67 0.930 . S
C95 C94 1.358 . S
C95 C96 1.405 . S
C96 H68 0.932 . S
C96 C95 1.405 . S
C96 C97 1.383 . S
C97 C96 1.383 . S
C97 C98 1.393 . S
C98 H70 0.931 . S
C98 C97 1.393 . S
C98 C99 1.382 . S
C99 H69 0.929 . S
C99 C94 1.371 . S
C99 C98 1.382 . S
C100 N63 1.423 . S
C100 C101 1.362 . S
C100 C105 1.388 . S
C101 H71 0.929 . S
C101 C100 1.362 . S
C101 C102 1.376 1_655 S
C102 H73 0.931 . S
C102 C101 1.376 1_455 S
C102 C103 1.396 . S
C103 C102 1.396 . S
C103 C104 1.348 1_455 S
C103 C121 1.472 . S
C104 H74 0.929 . S
C104 C103 1.348 1_655 S
C104 C105 1.443 . S
C105 H72 0.932 . S
C105 C100 1.388 . S
C105 C104 1.443 . S
C106 N86 1.433 . S
C106 C107 1.363 . S
C106 C111 1.370 . S
C107 H75 0.929 . S
C107 C106 1.363 . S
C107 C108 1.385 . S
C108 H76 0.930 . S
C108 C107 1.385 . S
C108 C109 1.357 . S
C109 C108 1.357 . S
C109 C110 1.406 . S
C110 H77 0.929 . S
C110 C109 1.406 . S
C110 C111 1.391 . S
C111 H78 0.931 . S
C111 C106 1.370 . S
C111 C110 1.391 . S
C112 N86 1.435 . S
C112 C113 1.358 . S
C112 C117 1.371 . S
C113 H79 0.930 . S
C113 C112 1.358 . S
C113 C114 1.405 . S
C114 H80 0.932 . S
C114 C113 1.405 . S
C114 C115 1.383 . S
C115 C114 1.383 . S
C115 C116 1.393 . S
C116 H81 0.931 . S
C116 C115 1.393 . S
C116 C117 1.382 . S
C117 H82 0.929 . S
C117 C112 1.371 . S
C117 C116 1.382 . S
C118 N86 1.423 . S
C118 C119 1.362 . S
C118 C123 1.388 . S
C119 H83 0.929 . S
C119 C118 1.362 . S
C119 C120 1.376 . S
C120 H84 0.931 . S
C120 C119 1.376 . S
C120 C121 1.396 . S
C121 C103 1.472 . S
C121 C120 1.396 . S
C121 C122 1.348 . S
C122 H85 0.929 . S
C122 C121 1.348 . S
C122 C123 1.443 . S
C123 H87 0.932 . S
C123 C118 1.388 . S
C123 C122 1.443 . S
H124 C151 0.929 . S
N125 C150 1.433 . S
N125 C156 1.435 . S
N125 C162 1.423 . S
H126 C152 0.930 . S
H127 C155 0.931 . S
H128 C154 0.929 . S
H129 C157 0.930 . S
H130 C158 0.932 . S
H131 C161 0.929 . S
H132 C160 0.931 . S
H133 C163 0.929 . S
H134 C167 0.932 . S
H135 C164 0.931 . S
H136 C166 0.929 . S
H137 C169 0.929 . S
H138 C170 0.930 . S
H139 C172 0.929 . S
H140 C173 0.931 . S
H141 C175 0.930 . S
H142 C176 0.932 . S
H143 C178 0.931 . S
H144 C179 0.929 . S
H145 C181 0.929 . S
H146 C182 0.931 . S
H147 C184 0.929 . S
N148 C168 1.433 . S
N148 C174 1.435 . S
N148 C180 1.423 . S
H149 C185 0.932 . S
C150 N125 1.433 . S
C150 C151 1.363 . S
C150 C155 1.370 . S
C151 H124 0.929 . S
C151 C150 1.363 . S
C151 C152 1.385 . S
C152 H126 0.930 . S
C152 C151 1.385 . S
C152 C153 1.357 . S
C153 C152 1.357 . S
C153 C154 1.406 . S
C154 H128 0.929 . S
C154 C153 1.406 . S
C154 C155 1.391 . S
C155 H127 0.931 . S
C155 C150 1.370 . S
C155 C154 1.391 . S
C156 N125 1.435 . S
C156 C157 1.358 . S
C156 C161 1.371 . S
C157 H129 0.930 . S
C157 C156 1.358 . S
C157 C158 1.405 . S
C158 H130 0.932 . S
C158 C157 1.405 . S
C158 C159 1.383 . S
C159 C158 1.383 . S
C159 C160 1.393 . S
C160 H132 0.931 . S
C160 C159 1.393 . S
C160 C161 1.382 . S
C161 H131 0.929 . S
C161 C156 1.371 . S
C161 C160 1.382 . S
C162 N125 1.423 . S
C162 C163 1.362 . S
C162 C167 1.388 . S
C163 H133 0.929 . S
C163 C162 1.362 . S
C163 C164 1.376 . S
C164 H135 0.931 . S
C164 C163 1.376 . S
C164 C165 1.396 . S
C165 C164 1.396 . S
C165 C166 1.348 . S
C165 C183 1.472 . S
C166 H136 0.929 . S
C166 C165 1.348 . S
C166 C167 1.443 . S
C167 H134 0.932 . S
C167 C162 1.388 . S
C167 C166 1.443 . S
C168 N148 1.433 . S
C168 C169 1.363 . S
C168 C173 1.370 . S
C169 H137 0.929 . S
C169 C168 1.363 . S
C169 C170 1.385 . S
C170 H138 0.930 . S
C170 C169 1.385 . S
C170 C171 1.357 . S
C171 C170 1.357 . S
C171 C172 1.406 . S
C172 H139 0.929 . S
C172 C171 1.406 . S
C172 C173 1.391 . S
C173 H140 0.931 . S
C173 C168 1.370 . S
C173 C172 1.391 . S
C174 N148 1.435 . S
C174 C175 1.358 . S
C174 C179 1.371 . S
C175 H141 0.930 . S
C175 C174 1.358 . S
C175 C176 1.405 . S
C176 H142 0.932 . S
C176 C175 1.405 . S
C176 C177 1.383 . S
C177 C176 1.383 . S
C177 C178 1.393 . S
C178 H143 0.931 . S
C178 C177 1.393 . S
C178 C179 1.382 . S
C179 H144 0.929 . S
C179 C174 1.371 . S
C179 C178 1.382 . S
C180 N148 1.423 . S
C180 C181 1.362 . S
C180 C185 1.388 . S
C181 H145 0.929 . S
C181 C180 1.362 . S
C181 C182 1.376 . S
C182 H146 0.931 . S
C182 C181 1.376 . S
C182 C183 1.396 . S
C183 C165 1.472 . S
C183 C182 1.396 . S
C183 C184 1.348 . S
C184 H147 0.929 . S
C184 C183 1.348 . S
C184 C185 1.443 . S
C185 H149 0.932 . S
C185 C180 1.388 . S
C185 C184 1.443 . S
H186 C213 0.929 . S
N187 C212 1.433 . S
N187 C218 1.435 . S
N187 C224 1.423 . S
H188 C214 0.930 . S
H189 C217 0.931 . S
H190 C216 0.929 . S
H191 C219 0.930 . S
H192 C220 0.932 . S
H193 C223 0.929 . S
H194 C222 0.931 . S
H195 C225 0.929 . S
H196 C229 0.932 . S
H197 C226 0.931 . S
H198 C228 0.929 . S
H199 C231 0.929 . S
H200 C232 0.930 . S
H201 C234 0.929 . S
H202 C235 0.931 . S
H203 C237 0.930 . S
H204 C238 0.932 . S
H205 C240 0.931 . S
H206 C241 0.929 . S
H207 C243 0.929 . S
H208 C244 0.931 1_565 S
H209 C246 0.929 . S
N210 C230 1.433 . S
N210 C236 1.435 . S
N210 C242 1.423 . S
H211 C247 0.932 . S
C212 N187 1.433 . S
C212 C213 1.363 . S
C212 C217 1.370 . S
C213 H186 0.929 . S
C213 C212 1.363 . S
C213 C214 1.385 . S
C214 H188 0.930 . S
C214 C213 1.385 . S
C214 C215 1.357 . S
C215 C214 1.357 . S
C215 C216 1.406 . S
C216 H190 0.929 . S
C216 C215 1.406 . S
C216 C217 1.391 . S
C217 H189 0.931 . S
C217 C212 1.370 . S
C217 C216 1.391 . S
C218 N187 1.435 . S
C218 C219 1.358 . S
C218 C223 1.371 . S
C219 H191 0.930 . S
C219 C218 1.358 . S
C219 C220 1.405 . S
C220 H192 0.932 . S
C220 C219 1.405 . S
C220 C221 1.383 . S
C221 C220 1.383 . S
C221 C222 1.393 . S
C222 H194 0.931 . S
C222 C221 1.393 . S
C222 C223 1.382 . S
C223 H193 0.929 . S
C223 C218 1.371 . S
C223 C222 1.382 . S
C224 N187 1.423 . S
C224 C225 1.362 . S
C224 C229 1.388 . S
C225 H195 0.929 . S
C225 C224 1.362 . S
C225 C226 1.376 . S
C226 H197 0.931 . S
C226 C225 1.376 . S
C226 C227 1.396 . S
C227 C226 1.396 . S
C227 C228 1.348 . S
C227 C245 1.472 1_565 S
C228 H198 0.929 . S
C228 C227 1.348 . S
C228 C229 1.443 . S
C229 H196 0.932 . S
C229 C224 1.388 . S
C229 C228 1.443 . S
C230 N210 1.433 . S
C230 C231 1.363 . S
C230 C235 1.370 . S
C231 H199 0.929 . S
C231 C230 1.363 . S
C231 C232 1.385 . S
C232 H200 0.930 . S
C232 C231 1.385 . S
C232 C233 1.357 . S
C233 C232 1.357 . S
C233 C234 1.406 . S
C234 H201 0.929 . S
C234 C233 1.406 . S
C234 C235 1.391 . S
C235 H202 0.931 . S
C235 C230 1.370 . S
C235 C234 1.391 . S
C236 N210 1.435 . S
C236 C237 1.358 . S
C236 C241 1.371 . S
C237 H203 0.930 . S
C237 C236 1.358 . S
C237 C238 1.405 . S
C238 H204 0.932 . S
C238 C237 1.405 . S
C238 C239 1.383 . S
C239 C238 1.383 . S
C239 C240 1.393 . S
C240 H205 0.931 . S
C240 C239 1.393 . S
C240 C241 1.382 . S
C241 H206 0.929 . S
C241 C236 1.371 . S
C241 C240 1.382 . S
C242 N210 1.423 . S
C242 C243 1.362 . S
C242 C247 1.388 . S
C243 H207 0.929 . S
C243 C242 1.362 . S
C243 C244 1.376 . S
C244 H208 0.931 1_545 S
C244 C243 1.376 . S
C244 C245 1.396 . S
C245 C227 1.472 1_545 S
C245 C244 1.396 . S
C245 C246 1.348 . S
C246 H209 0.929 . S
C246 C245 1.348 . S
C246 C247 1.443 . S
C247 H211 0.932 . S
C247 C242 1.388 . S
C247 C246 1.443 . S
H248 C275 0.929 . S
N249 C274 1.433 . S
N249 C280 1.435 . S
N249 C286 1.423 . S
H250 C276 0.930 . S
H251 C279 0.931 . S
H252 C278 0.929 . S
H253 C281 0.930 . S
H254 C282 0.932 . S
H255 C285 0.929 . S
H256 C284 0.931 . S
H257 C287 0.929 . S
H258 C291 0.932 . S
H259 C288 0.931 . S
H260 C290 0.929 . S
H261 C293 0.929 . S
H262 C294 0.930 . S
H263 C296 0.929 . S
H264 C297 0.931 . S
H265 C299 0.930 . S
H266 C300 0.932 . S
H267 C302 0.931 . S
H268 C303 0.929 . S
H269 C305 0.929 . S
H270 C306 0.927 1_455 S
H271 C308 0.929 . S
N272 C292 1.433 . S
N272 C298 1.435 . S
N272 C304 1.423 . S
H273 C309 0.932 . S
C274 N249 1.433 . S
C274 C275 1.363 . S
C274 C279 1.370 . S
C275 H248 0.929 . S
C275 C274 1.363 . S
C275 C276 1.385 . S
C276 H250 0.930 . S
C276 C275 1.385 . S
C276 C277 1.357 . S
C277 C276 1.357 . S
C277 C278 1.406 . S
C278 H252 0.929 . S
C278 C277 1.406 . S
C278 C279 1.391 . S
C279 H251 0.931 . S
C279 C274 1.370 . S
C279 C278 1.391 . S
C280 N249 1.435 . S
C280 C281 1.358 . S
C280 C285 1.371 . S
C281 H253 0.930 . S
C281 C280 1.358 . S
C281 C282 1.405 . S
C282 H254 0.932 . S
C282 C281 1.405 . S
C282 C283 1.383 . S
C283 C282 1.383 . S
C283 C284 1.393 . S
C284 H256 0.931 . S
C284 C283 1.393 . S
C284 C285 1.382 . S
C285 H255 0.929 . S
C285 C280 1.371 . S
C285 C284 1.382 . S
C286 N249 1.423 . S
C286 C287 1.362 . S
C286 C291 1.388 . S
C287 H257 0.929 . S
C287 C286 1.362 . S
C287 C288 1.376 . S
C288 H259 0.931 . S
C288 C287 1.376 . S
C288 C289 1.396 . S
C289 C288 1.396 . S
C289 C290 1.348 . S
C289 C307 1.472 . S
C290 H260 0.929 . S
C290 C289 1.348 . S
C290 C291 1.443 . S
C291 H258 0.932 . S
C291 C286 1.388 . S
C291 C290 1.443 . S
C292 N272 1.433 . S
C292 C293 1.363 . S
C292 C297 1.370 . S
C293 H261 0.929 . S
C293 C292 1.363 . S
C293 C294 1.385 . S
C294 H262 0.930 . S
C294 C293 1.385 . S
C294 C295 1.357 . S
C295 C294 1.357 . S
C295 C296 1.406 . S
C296 H263 0.929 . S
C296 C295 1.406 . S
C296 C297 1.391 . S
C297 H264 0.931 . S
C297 C292 1.370 . S
C297 C296 1.391 . S
C298 N272 1.435 . S
C298 C299 1.358 . S
C298 C303 1.371 . S
C299 H265 0.930 . S
C299 C298 1.358 . S
C299 C300 1.405 . S
C300 H266 0.932 . S
C300 C299 1.405 . S
C300 C301 1.383 . S
C301 C300 1.383 . S
C301 C302 1.393 . S
C302 H267 0.931 . S
C302 C301 1.393 . S
C302 C303 1.382 . S
C303 H268 0.929 . S
C303 C298 1.371 . S
C303 C302 1.382 . S
C304 N272 1.423 . S
C304 C305 1.362 . S
C304 C309 1.388 . S
C305 H269 0.929 . S
C305 C304 1.362 . S
C305 C306 1.381 . S
C306 H270 0.927 1_655 S
C306 C305 1.381 . S
C306 C307 1.395 1_655 S
C307 C289 1.472 . S
C307 C306 1.395 1_455 S
C307 C308 1.348 1_455 S
C308 H271 0.929 . S
C308 C307 1.348 1_655 S
C308 C309 1.443 . S
C309 H273 0.932 . S
C309 C304 1.388 . S
C309 C308 1.443 . S
H310 C337 0.929 . S
N311 C336 1.433 . S
N311 C342 1.435 . S
N311 C348 1.423 . S
H312 C338 0.930 . S
H313 C341 0.931 . S
H314 C340 0.929 . S
H315 C343 0.930 . S
H316 C344 0.932 . S
H317 C347 0.929 . S
H318 C346 0.931 . S
H319 C349 0.929 . S
H320 C353 0.932 . S
H321 C350 0.931 . S
H322 C352 0.929 . S
H323 C355 0.929 . S
H324 C356 0.930 . S
H325 C358 0.929 . S
H326 C359 0.931 . S
H327 C361 0.930 . S
H328 C362 0.932 . S
H329 C364 0.931 . S
H330 C365 0.929 . S
H331 C367 0.929 . S
H332 C368 0.931 . S
H333 C370 0.929 . S
N334 C354 1.433 . S
N334 C360 1.435 . S
N334 C366 1.423 . S
H335 C371 0.932 . S
C336 N311 1.433 . S
C336 C337 1.363 . S
C336 C341 1.370 . S
C337 H310 0.929 . S
C337 C336 1.363 . S
C337 C338 1.385 . S
C338 H312 0.930 . S
C338 C337 1.385 . S
C338 C339 1.357 . S
C339 C338 1.357 . S
C339 C340 1.406 . S
C340 H314 0.929 . S
C340 C339 1.406 . S
C340 C341 1.391 . S
C341 H313 0.931 . S
C341 C336 1.370 . S
C341 C340 1.391 . S
C342 N311 1.435 . S
C342 C343 1.358 . S
C342 C347 1.371 . S
C343 H315 0.930 . S
C343 C342 1.358 . S
C343 C344 1.405 . S
C344 H316 0.932 . S
C344 C343 1.405 . S
C344 C345 1.383 . S
C345 C344 1.383 . S
C345 C346 1.393 . S
C346 H318 0.931 . S
C346 C345 1.393 . S
C346 C347 1.382 . S
C347 H317 0.929 . S
C347 C342 1.371 . S
C347 C346 1.382 . S
C348 N311 1.423 . S
C348 C349 1.362 . S
C348 C353 1.388 . S
C349 H319 0.929 . S
C349 C348 1.362 . S
C349 C350 1.376 . S
C350 H321 0.931 . S
C350 C349 1.376 . S
C350 C351 1.396 . S
C351 C350 1.396 . S
C351 C352 1.348 . S
C351 C369 1.472 . S
C352 H322 0.929 . S
C352 C351 1.348 . S
C352 C353 1.443 . S
C353 H320 0.932 . S
C353 C348 1.388 . S
C353 C352 1.443 . S
C354 N334 1.433 . S
C354 C355 1.363 . S
C354 C359 1.370 . S
C355 H323 0.929 . S
C355 C354 1.363 . S
C355 C356 1.385 . S
C356 H324 0.930 . S
C356 C355 1.385 . S
C356 C357 1.357 . S
C357 C356 1.357 . S
C357 C358 1.406 . S
C358 H325 0.929 . S
C358 C357 1.406 . S
C358 C359 1.391 . S
C359 H326 0.931 . S
C359 C354 1.370 . S
C359 C358 1.391 . S
C360 N334 1.435 . S
C360 C361 1.358 . S
C360 C365 1.371 . S
C361 H327 0.930 . S
C361 C360 1.358 . S
C361 C362 1.405 . S
C362 H328 0.932 . S
C362 C361 1.405 . S
C362 C363 1.383 . S
C363 C362 1.383 . S
C363 C364 1.393 . S
C364 H329 0.931 . S
C364 C363 1.393 . S
C364 C365 1.382 . S
C365 H330 0.929 . S
C365 C360 1.371 . S
C365 C364 1.382 . S
C366 N334 1.423 . S
C366 C367 1.362 . S
C366 C371 1.388 . S
C367 H331 0.929 . S
C367 C366 1.362 . S
C367 C368 1.376 . S
C368 H332 0.931 . S
C368 C367 1.376 . S
C368 C369 1.396 . S
C369 C351 1.472 . S
C369 C368 1.396 . S
C369 C370 1.348 . S
C370 H333 0.929 . S
C370 C369 1.348 . S
C370 C371 1.443 . S
C371 H335 0.932 . S
C371 C366 1.388 . S
C371 C370 1.443 . S
H372 C399 0.929 . S
N373 C398 1.433 . S
N373 C404 1.435 . S
N373 C410 1.423 . S
H374 C400 0.930 . S
H375 C403 0.931 . S
H376 C402 0.929 . S
H377 C405 0.930 . S
H378 C406 0.932 . S
H379 C409 0.929 . S
H380 C408 0.931 . S
H381 C411 0.929 . S
H382 C415 0.932 . S
H383 C412 0.931 . S
H384 C414 0.929 . S
H385 C417 0.929 . S
H386 C418 0.930 . S
H387 C420 0.929 . S
H388 C421 0.931 . S
H389 C423 0.930 . S
H390 C424 0.932 . S
H391 C426 0.931 . S
H392 C427 0.929 . S
H393 C429 0.929 . S
H394 C430 0.931 . S
H395 C432 0.929 . S
N396 C416 1.433 . S
N396 C422 1.435 . S
N396 C428 1.423 . S
H397 C433 0.932 . S
C398 N373 1.433 . S
C398 C399 1.363 . S
C398 C403 1.370 . S
C399 H372 0.929 . S
C399 C398 1.363 . S
C399 C400 1.385 . S
C400 H374 0.930 . S
C400 C399 1.385 . S
C400 C401 1.357 . S
C401 C400 1.357 . S
C401 C402 1.406 . S
C402 H376 0.929 . S
C402 C401 1.406 . S
C402 C403 1.391 . S
C403 H375 0.931 . S
C403 C398 1.370 . S
C403 C402 1.391 . S
C404 N373 1.435 . S
C404 C405 1.358 . S
C404 C409 1.371 . S
C405 H377 0.930 . S
C405 C404 1.358 . S
C405 C406 1.405 . S
C406 H378 0.932 . S
C406 C405 1.405 . S
C406 C407 1.383 . S
C407 C406 1.383 . S
C407 C408 1.393 . S
C408 H380 0.931 . S
C408 C407 1.393 . S
C408 C409 1.382 . S
C409 H379 0.929 . S
C409 C404 1.371 . S
C409 C408 1.382 . S
C410 N373 1.423 . S
C410 C411 1.362 . S
C410 C415 1.388 . S
C411 H381 0.929 . S
C411 C410 1.362 . S
C411 C412 1.376 1_565 S
C412 H383 0.931 . S
C412 C411 1.376 1_545 S
C412 C413 1.396 . S
C413 C412 1.396 . S
C413 C414 1.348 1_545 S
C413 C431 1.472 . S
C414 H384 0.929 . S
C414 C413 1.348 1_565 S
C414 C415 1.443 . S
C415 H382 0.932 . S
C415 C410 1.388 . S
C415 C414 1.443 . S
C416 N396 1.433 . S
C416 C417 1.363 . S
C416 C421 1.370 . S
C417 H385 0.929 . S
C417 C416 1.363 . S
C417 C418 1.385 . S
C418 H386 0.930 . S
C418 C417 1.385 . S
C418 C419 1.357 . S
C419 C418 1.357 . S
C419 C420 1.406 . S
C420 H387 0.929 . S
C420 C419 1.406 . S
C420 C421 1.391 . S
C421 H388 0.931 . S
C421 C416 1.370 . S
C421 C420 1.391 . S
C422 N396 1.435 . S
C422 C423 1.358 . S
C422 C427 1.371 . S
C423 H389 0.930 . S
C423 C422 1.358 . S
C423 C424 1.405 . S
C424 H390 0.932 . S
C424 C423 1.405 . S
C424 C425 1.383 . S
C425 C424 1.383 . S
C425 C426 1.393 . S
C426 H391 0.931 . S
C426 C425 1.393 . S
C426 C427 1.382 . S
C427 H392 0.929 . S
C427 C422 1.371 . S
C427 C426 1.382 . S
C428 N396 1.423 . S
C428 C429 1.362 . S
C428 C433 1.388 . S
C429 H393 0.929 . S
C429 C428 1.362 . S
C429 C430 1.376 . S
C430 H394 0.931 . S
C430 C429 1.376 . S
C430 C431 1.396 . S
C431 C413 1.472 . S
C431 C430 1.396 . S
C431 C432 1.348 . S
C432 H395 0.929 . S
C432 C431 1.348 . S
C432 C433 1.443 . S
C433 H397 0.932 . S
C433 C428 1.388 . S
C433 C432 1.443 . S
H434 C461 0.929 . S
N435 C460 1.433 . S
N435 C466 1.435 . S
N435 C472 1.423 . S
H436 C462 0.930 . S
H437 C465 0.931 . S
H438 C464 0.929 . S
H439 C467 0.930 . S
H440 C468 0.932 . S
H441 C471 0.929 . S
H442 C470 0.931 . S
H443 C473 0.929 . S
H444 C477 0.932 . S
H445 C474 0.931 . S
H446 C476 0.929 . S
H447 C479 0.929 . S
H448 C480 0.930 . S
H449 C482 0.929 . S
H450 C483 0.931 . S
H451 C485 0.930 . S
H452 C486 0.932 . S
H453 C488 0.931 . S
H454 C489 0.929 . S
H455 C491 0.929 . S
H456 C492 0.931 1_565 S
H457 C494 0.929 . S
N458 C478 1.433 . S
N458 C484 1.435 . S
N458 C490 1.423 . S
H459 C495 0.932 . S
C460 N435 1.433 . S
C460 C461 1.363 . S
C460 C465 1.370 . S
C461 H434 0.929 . S
C461 C460 1.363 . S
C461 C462 1.385 . S
C462 H436 0.930 . S
C462 C461 1.385 . S
C462 C463 1.357 . S
C463 C462 1.357 . S
C463 C464 1.406 . S
C464 H438 0.929 . S
C464 C463 1.406 . S
C464 C465 1.391 . S
C465 H437 0.931 . S
C465 C460 1.370 . S
C465 C464 1.391 . S
C466 N435 1.435 . S
C466 C467 1.358 . S
C466 C471 1.371 . S
C467 H439 0.930 . S
C467 C466 1.358 . S
C467 C468 1.405 . S
C468 H440 0.932 . S
C468 C467 1.405 . S
C468 C469 1.383 . S
C469 C468 1.383 . S
C469 C470 1.393 . S
C470 H442 0.931 . S
C470 C469 1.393 . S
C470 C471 1.382 . S
C471 H441 0.929 . S
C471 C466 1.371 . S
C471 C470 1.382 . S
C472 N435 1.423 . S
C472 C473 1.362 . S
C472 C477 1.388 . S
C473 H443 0.929 . S
C473 C472 1.362 . S
C473 C474 1.376 1_455 S
C474 H445 0.931 . S
C474 C473 1.376 1_655 S
C474 C475 1.396 . S
C475 C474 1.396 . S
C475 C476 1.348 1_655 S
C475 C493 1.472 1_565 S
C476 H446 0.929 . S
C476 C475 1.348 1_455 S
C476 C477 1.443 . S
C477 H444 0.932 . S
C477 C472 1.388 . S
C477 C476 1.443 . S
C478 N458 1.433 . S
C478 C479 1.363 . S
C478 C483 1.370 . S
C479 H447 0.929 . S
C479 C478 1.363 . S
C479 C480 1.385 . S
C480 H448 0.930 . S
C480 C479 1.385 . S
C480 C481 1.357 . S
C481 C480 1.357 . S
C481 C482 1.406 . S
C482 H449 0.929 . S
C482 C481 1.406 . S
C482 C483 1.391 . S
C483 H450 0.931 . S
C483 C478 1.370 . S
C483 C482 1.391 . S
C484 N458 1.435 . S
C484 C485 1.358 . S
C484 C489 1.371 . S
C485 H451 0.930 . S
C485 C484 1.358 . S
C485 C486 1.405 . S
C486 H452 0.932 . S
C486 C485 1.405 . S
C486 C487 1.383 . S
C487 C486 1.383 . S
C487 C488 1.393 . S
C488 H453 0.931 . S
C488 C487 1.393 . S
C488 C489 1.382 . S
C489 H454 0.929 . S
C489 C484 1.371 . S
C489 C488 1.382 . S
C490 N458 1.423 . S
C490 C491 1.362 . S
C490 C495 1.388 . S
C491 H455 0.929 . S
C491 C490 1.362 . S
C491 C492 1.376 . S
C492 H456 0.931 1_545 S
C492 C491 1.376 . S
C492 C493 1.396 . S
C493 C475 1.472 1_545 S
C493 C492 1.396 . S
C493 C494 1.348 . S
C494 H457 0.929 . S
C494 C493 1.348 . S
C494 C495 1.443 . S
C495 H459 0.932 . S
C495 C490 1.388 . S
C495 C494 1.443 . S
Mn496 O501 2.095 1_554 S
Mn496 O511 2.162 . S
Mn496 O512 2.297 . S
Mn496 O520 2.385 . S
Mn496 O521 2.209 . S
Mn496 O522 2.093 . S
Mn497 O502 2.117 1_554 S
Mn497 N504 2.259 . S
Mn497 N513 2.287 . S
Mn497 O521 2.218 . S
Mn497 O523 2.117 1_554 S
C498 O520 1.234 . S
C498 O521 1.283 . S
C499 O511 1.281 . S
C499 O512 1.236 . S
C500 O522 1.241 1_556 S
C500 O523 1.264 . S
O501 Mn496 2.095 1_556 S
O501 C510 1.250 . S
O502 Mn497 2.117 1_556 S
O502 C510 1.258 . S
C503 N504 1.298 1_556 S
C503 C507 1.445 1_556 S
C503 H509 0.974 . S
N504 Mn497 2.259 . S
N504 C503 1.298 1_554 S
N504 C508 1.362 . S
C505 C506 1.258 . S
C505 C508 1.431 . S
C505 C525 1.449 . S
C506 C505 1.258 . S
C506 C507 1.477 . S
C506 H526 0.931 . S
C507 C503 1.445 1_554 S
C507 C506 1.477 . S
C507 H527 0.930 1_554 S
C508 N504 1.362 . S
C508 C505 1.431 . S
C508 C518 1.476 . S
H509 C503 0.974 . S
C510 O501 1.250 . S
C510 O502 1.258 . S
O511 Mn496 2.162 . S
O511 C499 1.281 . S
O512 Mn496 2.297 . S
O512 C499 1.236 . S
N513 Mn497 2.287 . S
N513 C514 1.328 . S
N513 C518 1.318 . S
C514 N513 1.328 . S
C514 C515 1.457 . S
C514 H519 0.929 . S
C515 C514 1.457 . S
C515 C516 1.291 . S
C515 H528 0.931 . S
C516 C515 1.291 . S
C516 C517 1.373 . S
C516 H529 0.929 . S
C517 C516 1.373 . S
C517 C518 1.396 . S
C517 C524 1.403 . S
C518 C508 1.476 . S
C518 N513 1.318 . S
C518 C517 1.396 . S
H519 C514 0.929 . S
O520 Mn496 2.385 . S
O520 C498 1.234 . S
O521 Mn496 2.209 . S
O521 Mn497 2.218 . S
O521 C498 1.283 . S
O522 Mn496 2.093 . S
O522 C500 1.241 1_554 S
O523 Mn497 2.117 1_556 S
O523 C500 1.264 . S
C524 C517 1.403 . S
C524 C525 1.399 . S
C524 H530 0.929 . S
C525 C505 1.449 . S
C525 C524 1.399 . S
C525 H531 0.930 . S
H526 C506 0.931 . S
H527 C507 0.930 1_556 S
H528 C515 0.931 . S
H529 C516 0.929 . S
H530 C524 0.929 . S
H531 C525 0.930 . S
Mn532 O537 2.095 . S
Mn532 O547 2.162 . S
Mn532 O548 2.297 . S
Mn532 O556 2.385 . S
Mn532 O557 2.209 . S
Mn532 O558 2.094 . S
Mn533 O538 2.121 . S
Mn533 N540 2.257 . S
Mn533 N549 2.282 . S
Mn533 O557 2.215 . S
Mn533 O559 2.117 . S
C534 O556 1.234 . S
C534 O557 1.283 . S
C535 O547 1.281 . S
C535 O548 1.236 . S
C536 O558 1.240 . S
C536 O559 1.264 . S
O537 Mn532 2.095 . S
O537 C546 1.250 . S
O538 Mn533 2.121 . S
O538 C546 1.258 . S
C539 N540 1.326 . S
C539 C543 1.460 . S
C539 H545 0.929 . S
N540 Mn533 2.257 . S
N540 C539 1.326 . S
N540 C544 1.362 . S
C541 C542 1.258 . S
C541 C544 1.431 . S
C541 C561 1.449 . S
C542 C541 1.258 . S
C542 C543 1.477 . S
C542 H562 0.931 . S
C543 C539 1.460 . S
C543 C542 1.477 . S
C543 H563 0.930 . S
C544 N540 1.362 . S
C544 C541 1.431 . S
C544 C554 1.476 . S
H545 C539 0.929 . S
C546 O537 1.250 . S
C546 O538 1.258 . S
O547 Mn532 2.162 . S
O547 C535 1.281 . S
O548 Mn532 2.297 . S
O548 C535 1.236 . S
N549 Mn533 2.282 . S
N549 C550 1.328 . S
N549 C554 1.318 . S
C550 N549 1.328 . S
C550 C551 1.457 . S
C550 H555 0.929 . S
C551 C550 1.457 . S
C551 C552 1.291 . S
C551 H564 0.931 . S
C552 C551 1.291 . S
C552 C553 1.373 . S
C552 H565 0.929 . S
C553 C552 1.373 . S
C553 C554 1.396 . S
C553 C560 1.403 . S
C554 C544 1.476 . S
C554 N549 1.318 . S
C554 C553 1.396 . S
H555 C550 0.929 . S
O556 Mn532 2.385 . S
O556 C534 1.234 . S
O557 Mn532 2.209 . S
O557 Mn533 2.215 . S
O557 C534 1.283 . S
O558 Mn532 2.094 . S
O558 C536 1.240 . S
O559 Mn533 2.117 . S
O559 C536 1.264 . S
C560 C553 1.403 . S
C560 C561 1.399 . S
C560 H566 0.929 . S
C561 C541 1.449 . S
C561 C560 1.399 . S
C561 H567 0.930 . S
H562 C542 0.931 . S
H563 C543 0.930 . S
H564 C551 0.931 . S
H565 C552 0.929 . S
H566 C560 0.929 . S
H567 C561 0.930 . S
Mn568 O573 2.095 . S
Mn568 O583 2.162 . S
Mn568 O584 2.297 . S
Mn568 O592 2.385 . S
Mn568 O593 2.209 . S
Mn568 O594 2.094 . S
Mn569 O574 2.121 . S
Mn569 N576 2.257 . S
Mn569 N585 2.282 . S
Mn569 O593 2.215 . S
Mn569 O595 2.117 . S
C570 O592 1.234 . S
C570 O593 1.283 . S
C571 O583 1.281 . S
C571 O584 1.236 . S
C572 O594 1.240 . S
C572 O595 1.264 . S
O573 Mn568 2.095 . S
O573 C582 1.250 . S
O574 Mn569 2.121 . S
O574 C582 1.258 . S
C575 N576 1.326 . S
C575 C579 1.460 . S
C575 H581 0.929 . S
N576 Mn569 2.257 . S
N576 C575 1.326 . S
N576 C580 1.362 . S
C577 C578 1.258 . S
C577 C580 1.431 . S
C577 C597 1.449 . S
C578 C577 1.258 . S
C578 C579 1.477 . S
C578 H598 0.931 . S
C579 C575 1.460 . S
C579 C578 1.477 . S
C579 H599 0.930 . S
C580 N576 1.362 . S
C580 C577 1.431 . S
C580 C590 1.476 . S
H581 C575 0.929 . S
C582 O573 1.250 . S
C582 O574 1.258 . S
O583 Mn568 2.162 . S
O583 C571 1.281 . S
O584 Mn568 2.297 . S
O584 C571 1.236 . S
N585 Mn569 2.282 . S
N585 C586 1.328 . S
N585 C590 1.318 . S
C586 N585 1.328 . S
C586 C587 1.457 . S
C586 H591 0.929 . S
C587 C586 1.457 . S
C587 C588 1.291 . S
C587 H600 0.931 . S
C588 C587 1.291 . S
C588 C589 1.373 . S
C588 H601 0.929 . S
C589 C588 1.373 . S
C589 C590 1.396 . S
C589 C596 1.403 . S
C590 C580 1.476 . S
C590 N585 1.318 . S
C590 C589 1.396 . S
H591 C586 0.929 . S
O592 Mn568 2.385 . S
O592 C570 1.234 . S
O593 Mn568 2.209 . S
O593 Mn569 2.215 . S
O593 C570 1.283 . S
O594 Mn568 2.094 . S
O594 C572 1.240 . S
O595 Mn569 2.117 . S
O595 C572 1.264 . S
C596 C589 1.403 . S
C596 C597 1.399 . S
C596 H602 0.929 . S
C597 C577 1.449 . S
C597 C596 1.399 . S
C597 H603 0.930 . S
H598 C578 0.931 . S
H599 C579 0.930 . S
H600 C587 0.931 . S
H601 C588 0.929 . S
H602 C596 0.929 . S
H603 C597 0.930 . S
Mn604 O609 2.095 . S
Mn604 O619 2.162 . S
Mn604 O620 2.297 . S
Mn604 O628 2.385 . S
Mn604 O629 2.209 . S
Mn604 O630 2.094 . S
Mn605 O610 2.121 . S
Mn605 N612 2.257 . S
Mn605 N621 2.282 . S
Mn605 O629 2.215 . S
Mn605 O631 2.117 . S
C606 O628 1.234 . S
C606 O629 1.283 . S
C607 O619 1.281 . S
C607 O620 1.236 . S
C608 O630 1.240 . S
C608 O631 1.264 . S
O609 Mn604 2.095 . S
O609 C618 1.250 . S
O610 Mn605 2.121 . S
O610 C618 1.258 . S
C611 N612 1.326 . S
C611 C615 1.460 . S
C611 H617 0.929 . S
N612 Mn605 2.257 . S
N612 C611 1.326 . S
N612 C616 1.362 . S
C613 C614 1.258 . S
C613 C616 1.431 . S
C613 C633 1.449 . S
C614 C613 1.258 . S
C614 C615 1.477 . S
C614 H634 0.931 . S
C615 C611 1.460 . S
C615 C614 1.477 . S
C615 H635 0.930 . S
C616 N612 1.362 . S
C616 C613 1.431 . S
C616 C626 1.476 . S
H617 C611 0.929 . S
C618 O609 1.250 . S
C618 O610 1.258 . S
O619 Mn604 2.162 . S
O619 C607 1.281 . S
O620 Mn604 2.297 . S
O620 C607 1.236 . S
N621 Mn605 2.282 . S
N621 C622 1.328 . S
N621 C626 1.318 . S
C622 N621 1.328 . S
C622 C623 1.457 . S
C622 H627 0.929 . S
C623 C622 1.457 . S
C623 C624 1.291 . S
C623 H636 0.931 . S
C624 C623 1.291 . S
C624 C625 1.373 . S
C624 H637 0.929 . S
C625 C624 1.373 . S
C625 C626 1.396 . S
C625 C632 1.403 . S
C626 C616 1.476 . S
C626 N621 1.318 . S
C626 C625 1.396 . S
H627 C622 0.929 . S
O628 Mn604 2.385 . S
O628 C606 1.234 . S
O629 Mn604 2.209 . S
O629 Mn605 2.215 . S
O629 C606 1.283 . S
O630 Mn604 2.094 . S
O630 C608 1.240 . S
O631 Mn605 2.117 . S
O631 C608 1.264 . S
C632 C625 1.403 . S
C632 C633 1.399 . S
C632 H638 0.929 . S
C633 C613 1.449 . S
C633 C632 1.399 . S
C633 H639 0.930 . S
H634 C614 0.931 . S
H635 C615 0.930 . S
H636 C623 0.931 . S
H637 C624 0.929 . S
H638 C632 0.929 . S
H639 C633 0.930 . S
Mn640 O645 2.095 . S
Mn640 O655 2.162 . S
Mn640 O656 2.297 . S
Mn640 O664 2.385 . S
Mn640 O665 2.209 . S
Mn640 O666 2.094 . S
Mn641 O646 2.121 . S
Mn641 N648 2.257 . S
Mn641 N657 2.282 . S
Mn641 O665 2.215 . S
Mn641 O667 2.117 . S
C642 O664 1.234 . S
C642 O665 1.283 . S
C643 O655 1.281 . S
C643 O656 1.236 . S
C644 O666 1.240 . S
C644 O667 1.264 . S
O645 Mn640 2.095 . S
O645 C654 1.250 . S
O646 Mn641 2.121 . S
O646 C654 1.258 . S
C647 N648 1.326 . S
C647 C651 1.460 . S
C647 H653 0.929 . S
N648 Mn641 2.257 . S
N648 C647 1.326 . S
N648 C652 1.362 . S
C649 C650 1.258 . S
C649 C652 1.431 . S
C649 C669 1.449 . S
C650 C649 1.258 . S
C650 C651 1.477 . S
C650 H670 0.931 . S
C651 C647 1.460 . S
C651 C650 1.477 . S
C651 H671 0.930 . S
C652 N648 1.362 . S
C652 C649 1.431 . S
C652 C662 1.476 . S
H653 C647 0.929 . S
C654 O645 1.250 . S
C654 O646 1.258 . S
O655 Mn640 2.162 . S
O655 C643 1.281 . S
O656 Mn640 2.297 . S
O656 C643 1.236 . S
N657 Mn641 2.282 . S
N657 C658 1.328 . S
N657 C662 1.318 . S
C658 N657 1.328 . S
C658 C659 1.457 . S
C658 H663 0.929 . S
C659 C658 1.457 . S
C659 C660 1.291 . S
C659 H672 0.931 . S
C660 C659 1.291 . S
C660 C661 1.373 . S
C660 H673 0.929 . S
C661 C660 1.373 . S
C661 C662 1.396 . S
C661 C668 1.403 . S
C662 C652 1.476 . S
C662 N657 1.318 . S
C662 C661 1.396 . S
H663 C658 0.929 . S
O664 Mn640 2.385 . S
O664 C642 1.234 . S
O665 Mn640 2.209 . S
O665 Mn641 2.215 . S
O665 C642 1.283 . S
O666 Mn640 2.094 . S
O666 C644 1.240 . S
O667 Mn641 2.117 . S
O667 C644 1.264 . S
C668 C661 1.403 . S
C668 C669 1.399 . S
C668 H674 0.929 . S
C669 C649 1.449 . S
C669 C668 1.399 . S
C669 H675 0.930 . S
H670 C650 0.931 . S
H671 C651 0.930 . S
H672 C659 0.931 . S
H673 C660 0.929 . S
H674 C668 0.929 . S
H675 C669 0.930 . S
Mn676 O681 2.095 . S
Mn676 O691 2.162 . S
Mn676 O692 2.297 . S
Mn676 O700 2.385 . S
Mn676 O701 2.209 . S
Mn676 O702 2.094 . S
Mn677 O682 2.121 . S
Mn677 N684 2.257 . S
Mn677 N693 2.282 . S
Mn677 O701 2.215 . S
Mn677 O703 2.117 . S
C678 O700 1.234 . S
C678 O701 1.283 . S
C679 O691 1.281 . S
C679 O692 1.236 . S
C680 O702 1.240 . S
C680 O703 1.264 . S
O681 Mn676 2.095 . S
O681 C690 1.250 . S
O682 Mn677 2.121 . S
O682 C690 1.258 . S
C683 N684 1.326 . S
C683 C687 1.460 . S
C683 H689 0.929 . S
N684 Mn677 2.257 . S
N684 C683 1.326 . S
N684 C688 1.362 . S
C685 C686 1.258 . S
C685 C688 1.431 . S
C685 C705 1.449 . S
C686 C685 1.258 . S
C686 C687 1.477 . S
C686 H706 0.931 . S
C687 C683 1.460 . S
C687 C686 1.477 . S
C687 H707 0.930 . S
C688 N684 1.362 . S
C688 C685 1.431 . S
C688 C698 1.476 . S
H689 C683 0.929 . S
C690 O681 1.250 . S
C690 O682 1.258 . S
O691 Mn676 2.162 . S
O691 C679 1.281 . S
O692 Mn676 2.297 . S
O692 C679 1.236 . S
N693 Mn677 2.282 . S
N693 C694 1.328 . S
N693 C698 1.318 . S
C694 N693 1.328 . S
C694 C695 1.457 . S
C694 H699 0.929 . S
C695 C694 1.457 . S
C695 C696 1.291 . S
C695 H708 0.931 . S
C696 C695 1.291 . S
C696 C697 1.373 . S
C696 H709 0.929 . S
C697 C696 1.373 . S
C697 C698 1.396 . S
C697 C704 1.403 . S
C698 C688 1.476 . S
C698 N693 1.318 . S
C698 C697 1.396 . S
H699 C694 0.929 . S
O700 Mn676 2.385 . S
O700 C678 1.234 . S
O701 Mn676 2.209 . S
O701 Mn677 2.215 . S
O701 C678 1.283 . S
O702 Mn676 2.094 . S
O702 C680 1.240 . S
O703 Mn677 2.117 . S
O703 C680 1.264 . S
C704 C697 1.403 . S
C704 C705 1.399 . S
C704 H710 0.929 . S
C705 C685 1.449 . S
C705 C704 1.399 . S
C705 H711 0.930 . S
H706 C686 0.931 . S
H707 C687 0.930 . S
H708 C695 0.931 . S
H709 C696 0.929 . S
H710 C704 0.929 . S
H711 C705 0.930 . S
Mn712 O717 2.095 . S
Mn712 O727 2.162 . S
Mn712 O728 2.299 . S
Mn712 O736 2.385 1_554 S
Mn712 O737 2.209 1_554 S
Mn712 O738 2.094 . S
Mn713 O718 2.121 . S
Mn713 N720 2.245 1_554 S
Mn713 N729 2.282 1_554 S
Mn713 O737 2.215 1_554 S
Mn713 O739 2.117 . S
C714 O736 1.234 . S
C714 O737 1.283 . S
C715 O727 1.289 . S
C715 O728 1.235 . S
C716 O738 1.240 . S
C716 O739 1.264 . S
O717 Mn712 2.095 . S
O717 C726 1.250 . S
O718 Mn713 2.121 . S
O718 C726 1.258 . S
C719 N720 1.302 1_554 S
C719 C723 1.460 . S
C719 H725 0.929 . S
N720 Mn713 2.245 1_556 S
N720 C719 1.302 1_556 S
N720 C724 1.401 . S
C721 C722 1.258 . S
C721 C724 1.431 . S
C721 C741 1.449 . S
C722 C721 1.258 . S
C722 C723 1.477 1_556 S
C722 H742 0.931 . S
C723 C719 1.460 . S
C723 C722 1.477 1_554 S
C723 H743 0.930 . S
C724 N720 1.401 . S
C724 C721 1.431 . S
C724 C734 1.476 . S
H725 C719 0.929 . S
C726 O717 1.250 . S
C726 O718 1.258 . S
O727 Mn712 2.162 . S
O727 C715 1.289 . S
O728 Mn712 2.299 . S
O728 C715 1.235 . S
N729 Mn713 2.282 1_556 S
N729 C730 1.328 . S
N729 C734 1.318 . S
C730 N729 1.328 . S
C730 C731 1.457 . S
C730 H735 0.929 . S
C731 C730 1.457 . S
C731 C732 1.291 . S
C731 H744 0.931 . S
C732 C731 1.291 . S
C732 C733 1.373 . S
C732 H745 0.929 . S
C733 C732 1.373 . S
C733 C734 1.396 . S
C733 C740 1.403 . S
C734 C724 1.476 . S
C734 N729 1.318 . S
C734 C733 1.396 . S
H735 C730 0.929 . S
O736 Mn712 2.385 1_556 S
O736 C714 1.234 . S
O737 Mn712 2.209 1_556 S
O737 Mn713 2.215 1_556 S
O737 C714 1.283 . S
O738 Mn712 2.094 . S
O738 C716 1.240 . S
O739 Mn713 2.117 . S
O739 C716 1.264 . S
C740 C733 1.403 . S
C740 C741 1.399 . S
C740 H746 0.929 . S
C741 C721 1.449 . S
C741 C740 1.399 . S
C741 H747 0.930 . S
H742 C722 0.931 . S
H743 C723 0.930 . S
H744 C731 0.931 . S
H745 C732 0.929 . S
H746 C740 0.929 . S
H747 C741 0.930 . S
Mn748 O753 2.095 . S
Mn748 O763 2.162 . S
Mn748 O764 2.297 . S
Mn748 O772 2.385 . S
Mn748 O773 2.209 . S
Mn748 O774 2.094 . S
Mn749 O754 2.121 . S
Mn749 N756 2.257 . S
Mn749 N765 2.282 . S
Mn749 O773 2.215 . S
Mn749 O775 2.117 . S
C750 O772 1.234 . S
C750 O773 1.283 . S
C751 O763 1.281 . S
C751 O764 1.236 . S
C752 O774 1.240 . S
C752 O775 1.264 . S
O753 Mn748 2.095 . S
O753 C762 1.250 . S
O754 Mn749 2.121 . S
O754 C762 1.258 . S
C755 N756 1.326 . S
C755 C759 1.460 . S
C755 H761 0.929 . S
N756 Mn749 2.257 . S
N756 C755 1.326 . S
N756 C760 1.362 . S
C757 C758 1.258 . S
C757 C760 1.431 . S
C757 C777 1.449 . S
C758 C757 1.258 . S
C758 C759 1.477 . S
C758 H778 0.931 . S
C759 C755 1.460 . S
C759 C758 1.477 . S
C759 H779 0.930 . S
C760 N756 1.362 . S
C760 C757 1.431 . S
C760 C770 1.476 . S
H761 C755 0.929 . S
C762 O753 1.250 . S
C762 O754 1.258 . S
O763 Mn748 2.162 . S
O763 C751 1.281 . S
O764 Mn748 2.297 . S
O764 C751 1.236 . S
N765 Mn749 2.282 . S
N765 C766 1.328 . S
N765 C770 1.318 . S
C766 N765 1.328 . S
C766 C767 1.457 . S
C766 H771 0.929 . S
C767 C766 1.457 . S
C767 C768 1.291 . S
C767 H780 0.931 . S
C768 C767 1.291 . S
C768 C769 1.373 . S
C768 H781 0.929 . S
C769 C768 1.373 . S
C769 C770 1.396 . S
C769 C776 1.403 . S
C770 C760 1.476 . S
C770 N765 1.318 . S
C770 C769 1.396 . S
H771 C766 0.929 . S
O772 Mn748 2.385 . S
O772 C750 1.234 . S
O773 Mn748 2.209 . S
O773 Mn749 2.215 . S
O773 C750 1.283 . S
O774 Mn748 2.094 . S
O774 C752 1.240 . S
O775 Mn749 2.117 . S
O775 C752 1.264 . S
C776 C769 1.403 . S
C776 C777 1.399 . S
C776 H782 0.929 . S
C777 C757 1.449 . S
C777 C776 1.399 . S
C777 H783 0.930 . S
H778 C758 0.931 . S
H779 C759 0.930 . S
H780 C767 0.931 . S
H781 C768 0.929 . S
H782 C776 0.929 . S
H783 C777 0.930 . S
C784 C785 1.349 . S
C784 C786 1.327 . S
C784 H809 0.950 . S
C785 C784 1.349 . S
C785 C801 1.349 . S
C786 C784 1.327 . S
C786 C805 1.429 . S
C786 H810 0.950 . S
C787 C804 1.574 . S
C787 C806 1.368 . S
C787 H811 0.949 . S
H788 C792 0.949 . S
C789 C790 1.349 . S
C789 C791 1.327 . S
C789 H812 0.950 . S
C790 C789 1.349 . S
C790 C802 1.349 . S
C791 C789 1.327 . S
C791 C807 1.429 . S
C791 H813 0.950 . S
C792 H788 0.949 . S
C792 C800 1.574 . S
C792 C808 1.368 . S
H793 C801 0.950 . S
H794 C799 0.950 . S
H795 C800 0.949 . S
H796 C802 0.950 . S
H797 C803 0.950 . S
H798 C804 0.949 . S
C799 H794 0.950 . S
C799 C801 1.327 . S
C799 C805 1.429 . S
C800 C792 1.574 . S
C800 H795 0.949 . S
C800 C806 1.368 . S
C801 C785 1.349 . S
C801 H793 0.950 . S
C801 C799 1.327 . S
C802 C790 1.349 . S
C802 H796 0.950 . S
C802 C803 1.327 . S
C803 H797 0.950 . S
C803 C802 1.327 . S
C803 C807 1.429 . S
C804 C787 1.574 . S
C804 H798 0.949 . S
C804 C808 1.368 . S
C805 C786 1.429 . S
C805 C799 1.429 . S
C805 C806 1.523 . S
C806 C787 1.368 . S
C806 C800 1.368 . S
C806 C805 1.523 . S
C807 C791 1.429 . S
C807 C803 1.429 . S
C807 C808 1.523 . S
C808 C792 1.368 . S
C808 C804 1.368 . S
C808 C807 1.523 . S
H809 C784 0.950 . S
H810 C786 0.950 . S
H811 C787 0.949 . S
H812 C789 0.950 . S
H813 C791 0.950 . S
C814 C815 1.349 . S
C814 C816 1.327 . S
C814 H839 0.950 . S
C815 C814 1.349 . S
C815 C831 1.349 . S
C816 C814 1.327 . S
C816 C835 1.429 . S
C816 H840 0.950 . S
C817 C834 1.574 . S
C817 C836 1.368 . S
C817 H841 0.949 . S
H818 C822 0.949 . S
C819 C820 1.349 . S
C819 C821 1.327 . S
C819 H842 0.950 . S
C820 C819 1.349 . S
C820 C832 1.349 . S
C821 C819 1.327 . S
C821 C837 1.429 . S
C821 H843 0.950 . S
C822 H818 0.949 . S
C822 C830 1.574 . S
C822 C838 1.368 . S
H823 C831 0.950 . S
H824 C829 0.950 . S
H825 C830 0.949 . S
H826 C832 0.950 . S
H827 C833 0.950 . S
H828 C834 0.949 . S
C829 H824 0.950 . S
C829 C831 1.327 . S
C829 C835 1.429 . S
C830 C822 1.574 . S
C830 H825 0.949 . S
C830 C836 1.368 . S
C831 C815 1.349 . S
C831 H823 0.950 . S
C831 C829 1.327 . S
C832 C820 1.349 . S
C832 H826 0.950 . S
C832 C833 1.327 . S
C833 H827 0.950 . S
C833 C832 1.327 . S
C833 C837 1.429 . S
C834 C817 1.574 . S
C834 H828 0.949 . S
C834 C838 1.368 . S
C835 C816 1.429 . S
C835 C829 1.429 . S
C835 C836 1.523 . S
C836 C817 1.368 . S
C836 C830 1.368 . S
C836 C835 1.523 . S
C837 C821 1.429 . S
C837 C833 1.429 . S
C837 C838 1.523 . S
C838 C822 1.368 . S
C838 C834 1.368 . S
C838 C837 1.523 . S
H839 C814 0.950 . S
H840 C816 0.950 . S
H841 C817 0.949 . S
H842 C819 0.950 . S
H843 C821 0.950 . S
C844 C845 1.349 . S
C844 C846 1.327 . S
C844 H869 0.950 . S
C845 C844 1.349 . S
C845 C861 1.349 . S
C846 C844 1.327 . S
C846 C865 1.429 . S
C846 H870 0.950 . S
C847 C864 1.574 . S
C847 C866 1.368 . S
C847 H871 0.949 . S
H848 C852 0.949 . S
C849 C850 1.349 . S
C849 C851 1.327 . S
C849 H872 0.950 . S
C850 C849 1.349 . S
C850 C862 1.349 . S
C851 C849 1.327 . S
C851 C867 1.429 . S
C851 H873 0.950 . S
C852 H848 0.949 . S
C852 C860 1.574 . S
C852 C868 1.368 . S
H853 C861 0.950 . S
H854 C859 0.950 . S
H855 C860 0.949 . S
H856 C862 0.950 . S
H857 C863 0.950 . S
H858 C864 0.949 . S
C859 H854 0.950 . S
C859 C861 1.327 . S
C859 C865 1.429 . S
C860 C852 1.574 . S
C860 H855 0.949 . S
C860 C866 1.368 . S
C861 C845 1.349 . S
C861 H853 0.950 . S
C861 C859 1.327 . S
C862 C850 1.349 . S
C862 H856 0.950 . S
C862 C863 1.327 . S
C863 H857 0.950 . S
C863 C862 1.327 . S
C863 C867 1.429 . S
C864 C847 1.574 . S
C864 H858 0.949 . S
C864 C868 1.368 . S
C865 C846 1.429 . S
C865 C859 1.429 . S
C865 C866 1.523 . S
C866 C847 1.368 . S
C866 C860 1.368 . S
C866 C865 1.523 . S
C867 C851 1.429 . S
C867 C863 1.429 . S
C867 C868 1.523 . S
C868 C852 1.368 . S
C868 C864 1.368 . S
C868 C867 1.523 . S
H869 C844 0.950 . S
H870 C846 0.950 . S
H871 C847 0.949 . S
H872 C849 0.950 . S
H873 C851 0.950 . S
C874 C875 1.349 . S
C874 C876 1.327 . S
C874 H899 0.942 1_554 S
C875 C874 1.349 . S
C875 C891 1.349 . S
C876 C874 1.327 . S
C876 C895 1.429 . S
C876 H900 0.950 1_554 S
C877 C894 1.574 . S
C877 C896 1.368 . S
C877 H901 0.949 . S
H878 C882 0.923 1_556 S
C879 C880 1.349 . S
C879 C881 1.327 . S
C879 H902 0.950 . S
C880 C879 1.349 . S
C880 C892 1.349 1_554 S
C881 C879 1.327 . S
C881 C897 1.429 . S
C881 H903 0.950 . S
C882 H878 0.923 1_554 S
C882 C890 1.577 . S
C882 C898 1.395 . S
H883 C891 0.950 . S
H884 C889 0.950 . S
H885 C890 0.949 1_556 S
H886 C892 0.950 . S
H887 C893 0.950 . S
H888 C894 0.949 . S
C889 H884 0.950 . S
C889 C891 1.327 . S
C889 C895 1.429 . S
C890 C882 1.577 . S
C890 H885 0.949 1_554 S
C890 C896 1.368 . S
C891 C875 1.349 . S
C891 H883 0.950 . S
C891 C889 1.327 . S
C892 C880 1.349 1_556 S
C892 H886 0.950 . S
C892 C893 1.327 . S
C893 H887 0.950 . S
C893 C892 1.327 . S
C893 C897 1.429 1_556 S
C894 C877 1.574 . S
C894 H888 0.949 . S
C894 C898 1.368 . S
C895 C876 1.429 . S
C895 C889 1.429 . S
C895 C896 1.523 . S
C896 C877 1.368 . S
C896 C890 1.368 . S
C896 C895 1.523 . S
C897 C881 1.429 . S
C897 C893 1.429 1_554 S
C897 C898 1.523 . S
C898 C882 1.395 . S
C898 C894 1.368 . S
C898 C897 1.523 . S
H899 C874 0.942 1_556 S
H900 C876 0.950 1_556 S
H901 C877 0.949 . S
H902 C879 0.950 . S
H903 C881 0.950 . S
C904 C905 1.349 . S
C904 C906 1.327 . S
C904 H929 0.950 1_556 S
C905 C904 1.349 . S
C905 C921 1.349 . S
C906 C904 1.327 . S
C906 C925 1.429 . S
C906 H930 0.950 1_556 S
C907 C924 1.574 . S
C907 C926 1.368 . S
C907 H931 0.949 . S
H908 C912 0.949 . S
C909 C910 1.349 . S
C909 C911 1.327 . S
C909 H932 0.950 . S
C910 C909 1.349 . S
C910 C922 1.349 1_556 S
C911 C909 1.327 . S
C911 C927 1.429 . S
C911 H933 0.950 . S
C912 H908 0.949 . S
C912 C920 1.581 . S
C912 C928 1.368 1_554 S
H913 C921 0.950 . S
H914 C919 0.950 . S
H915 C920 0.997 . S
H916 C922 0.950 . S
H917 C923 0.950 . S
H918 C924 0.949 . S
C919 H914 0.950 . S
C919 C921 1.327 . S
C919 C925 1.429 . S
C920 C912 1.581 . S
C920 H915 0.997 . S
C920 C926 1.312 1_554 S
C921 C905 1.349 . S
C921 H913 0.950 . S
C921 C919 1.327 . S
C922 C910 1.349 1_554 S
C922 H916 0.950 . S
C922 C923 1.327 . S
C923 H917 0.950 . S
C923 C922 1.327 . S
C923 C927 1.429 1_554 S
C924 C907 1.574 . S
C924 H918 0.949 . S
C924 C928 1.368 . S
C925 C906 1.429 . S
C925 C919 1.429 . S
C925 C926 1.523 . S
C926 C907 1.368 . S
C926 C920 1.312 1_556 S
C926 C925 1.523 . S
C927 C911 1.429 . S
C927 C923 1.429 1_556 S
C927 C928 1.523 . S
C928 C912 1.368 1_556 S
C928 C924 1.368 . S
C928 C927 1.523 . S
H929 C904 0.950 1_554 S
H930 C906 0.950 1_554 S
H931 C907 0.949 . S
H932 C909 0.950 . S
H933 C911 0.950 . S
C934 C935 1.349 . S
C934 C936 1.327 . S
C934 H959 0.950 . S
C935 C934 1.349 . S
C935 C951 1.349 . S
C936 C934 1.327 . S
C936 C955 1.429 . S
C936 H960 0.950 . S
C937 C954 1.574 . S
C937 C956 1.368 . S
C937 H961 0.949 . S
H938 C942 0.949 . S
C939 C940 1.349 . S
C939 C941 1.327 . S
C939 H962 0.950 . S
C940 C939 1.349 . S
C940 C952 1.349 . S
C941 C939 1.327 . S
C941 C957 1.429 . S
C941 H963 0.950 . S
C942 H938 0.949 . S
C942 C950 1.574 . S
C942 C958 1.368 . S
H943 C951 0.950 . S
H944 C949 0.950 . S
H945 C950 0.949 . S
H946 C952 0.950 . S
H947 C953 0.950 . S
H948 C954 0.949 . S
C949 H944 0.950 . S
C949 C951 1.327 . S
C949 C955 1.429 . S
C950 C942 1.574 . S
C950 H945 0.949 . S
C950 C956 1.368 . S
C951 C935 1.349 . S
C951 H943 0.950 . S
C951 C949 1.327 . S
C952 C940 1.349 . S
C952 H946 0.950 . S
C952 C953 1.327 . S
C953 H947 0.950 . S
C953 C952 1.327 . S
C953 C957 1.429 . S
C954 C937 1.574 . S
C954 H948 0.949 . S
C954 C958 1.368 . S
C955 C936 1.429 . S
C955 C949 1.429 . S
C955 C956 1.523 . S
C956 C937 1.368 . S
C956 C950 1.368 . S
C956 C955 1.523 . S
C957 C941 1.429 . S
C957 C953 1.429 . S
C957 C958 1.523 . S
C958 C942 1.368 . S
C958 C954 1.368 . S
C958 C957 1.523 . S
H959 C934 0.950 . S
H960 C936 0.950 . S
H961 C937 0.949 . S
H962 C939 0.950 . S
H963 C941 0.950 . S
C964 C965 1.349 . S
C964 C966 1.327 . S
C964 H989 0.950 . S
C965 C964 1.349 . S
C965 C981 1.349 . S
C966 C964 1.327 . S
C966 C985 1.429 . S
C966 H990 0.950 . S
C967 C984 1.574 . S
C967 C986 1.368 . S
C967 H991 0.949 . S
H968 C972 0.949 . S
C969 C970 1.349 . S
C969 C971 1.327 . S
C969 H992 0.950 . S
C970 C969 1.349 . S
C970 C982 1.349 . S
C971 C969 1.327 . S
C971 C987 1.429 . S
C971 H993 0.950 . S
C972 H968 0.949 . S
C972 C980 1.574 . S
C972 C988 1.368 . S
H973 C981 0.950 . S
H974 C979 0.950 . S
H975 C980 0.949 . S
H976 C982 0.950 . S
H977 C983 0.950 . S
H978 C984 0.949 . S
C979 H974 0.950 . S
C979 C981 1.327 . S
C979 C985 1.429 . S
C980 C972 1.574 . S
C980 H975 0.949 . S
C980 C986 1.368 . S
C981 C965 1.349 . S
C981 H973 0.950 . S
C981 C979 1.327 . S
C982 C970 1.349 . S
C982 H976 0.950 . S
C982 C983 1.327 . S
C983 H977 0.950 . S
C983 C982 1.327 . S
C983 C987 1.429 . S
C984 C967 1.574 . S
C984 H978 0.949 . S
C984 C988 1.368 . S
C985 C966 1.429 . S
C985 C979 1.429 . S
C985 C986 1.523 . S
C986 C967 1.368 . S
C986 C980 1.368 . S
C986 C985 1.523 . S
C987 C971 1.429 . S
C987 C983 1.429 . S
C987 C988 1.523 . S
C988 C972 1.368 . S
C988 C984 1.368 . S
C988 C987 1.523 . S
H989 C964 0.950 . S
H990 C966 0.950 . S
H991 C967 0.949 . S
H992 C969 0.950 . S
H993 C971 0.950 . S
C994 C995 1.349 . S
C994 C996 1.327 . S
C994 H1019 0.950 . S
C995 C994 1.349 . S
C995 C1011 1.349 . S
C996 C994 1.327 . S
C996 C1015 1.429 . S
C996 H1020 0.950 . S
C997 C1014 1.574 . S
C997 C1016 1.368 . S
C997 H1021 0.949 . S
H998 C1002 0.949 . S
C999 C1000 1.349 . S
C999 C1001 1.327 . S
C999 H1022 0.950 . S
C1000 C999 1.349 . S
C1000 C1012 1.349 . S
C1001 C999 1.327 . S
C1001 C1017 1.429 . S
C1001 H1023 0.950 . S
C1002 H998 0.949 . S
C1002 C1010 1.574 . S
C1002 C1018 1.368 . S
H1003 C1011 0.950 . S
H1004 C1009 0.950 . S
H1005 C1010 0.949 . S
H1006 C1012 0.950 . S
H1007 C1013 0.950 . S
H1008 C1014 0.949 . S
C1009 H1004 0.950 . S
C1009 C1011 1.327 . S
C1009 C1015 1.429 . S
C1010 C1002 1.574 . S
C1010 H1005 0.949 . S
C1010 C1016 1.368 . S
C1011 C995 1.349 . S
C1011 H1003 0.950 . S
C1011 C1009 1.327 . S
C1012 C1000 1.349 . S
C1012 H1006 0.950 . S
C1012 C1013 1.327 . S
C1013 H1007 0.950 . S
C1013 C1012 1.327 . S
C1013 C1017 1.429 . S
C1014 C997 1.574 . S
C1014 H1008 0.949 . S
C1014 C1018 1.368 . S
C1015 C996 1.429 . S
C1015 C1009 1.429 . S
C1015 C1016 1.523 . S
C1016 C997 1.368 . S
C1016 C1010 1.368 . S
C1016 C1015 1.523 . S
C1017 C1001 1.429 . S
C1017 C1013 1.429 . S
C1017 C1018 1.523 . S
C1018 C1002 1.368 . S
C1018 C1014 1.368 . S
C1018 C1017 1.523 . S
H1019 C994 0.950 . S
H1020 C996 0.950 . S
H1021 C997 0.949 . S
H1022 C999 0.950 . S
H1023 C1001 0.950 . S
C1024 C1025 1.349 . S
C1024 C1026 1.327 . S
C1024 H1049 0.950 . S
C1025 C1024 1.349 . S
C1025 C1041 1.349 . S
C1026 C1024 1.327 . S
C1026 C1045 1.429 . S
C1026 H1050 0.950 . S
C1027 C1044 1.574 . S
C1027 C1046 1.368 . S
C1027 H1051 0.949 . S
H1028 C1032 0.949 . S
C1029 C1030 1.349 . S
C1029 C1031 1.327 . S
C1029 H1052 0.950 . S
C1030 C1029 1.349 . S
C1030 C1042 1.349 . S
C1031 C1029 1.327 . S
C1031 C1047 1.429 . S
C1031 H1053 0.950 . S
C1032 H1028 0.949 . S
C1032 C1040 1.574 . S
C1032 C1048 1.368 . S
H1033 C1041 0.950 . S
H1034 C1039 0.950 . S
H1035 C1040 0.949 . S
H1036 C1042 0.950 . S
H1037 C1043 0.950 . S
H1038 C1044 0.949 . S
C1039 H1034 0.950 . S
C1039 C1041 1.327 . S
C1039 C1045 1.429 . S
C1040 C1032 1.574 . S
C1040 H1035 0.949 . S
C1040 C1046 1.368 . S
C1041 C1025 1.349 . S
C1041 H1033 0.950 . S
C1041 C1039 1.327 . S
C1042 C1030 1.349 . S
C1042 H1036 0.950 . S
C1042 C1043 1.327 . S
C1043 H1037 0.950 . S
C1043 C1042 1.327 . S
C1043 C1047 1.429 . S
C1044 C1027 1.574 . S
C1044 H1038 0.949 . S
C1044 C1048 1.368 . S
C1045 C1026 1.429 . S
C1045 C1039 1.429 . S
C1045 C1046 1.523 . S
C1046 C1027 1.368 . S
C1046 C1040 1.368 . S
C1046 C1045 1.523 . S
C1047 C1031 1.429 . S
C1047 C1043 1.429 . S
C1047 C1048 1.523 . S
C1048 C1032 1.368 . S
C1048 C1044 1.368 . S
C1048 C1047 1.523 . S
H1049 C1024 0.950 . S
H1050 C1026 0.950 . S
H1051 C1027 0.949 . S
H1052 C1029 0.950 . S
H1053 C1031 0.950 . S
C1054 C1055 1.349 . S
C1054 C1056 1.327 . S
C1054 H1079 0.950 . S
C1055 C1054 1.349 . S
C1055 C1071 1.349 . S
C1056 C1054 1.327 . S
C1056 C1075 1.429 . S
C1056 H1080 0.950 . S
C1057 C1074 1.574 . S
C1057 C1076 1.368 . S
C1057 H1081 0.949 . S
H1058 C1062 0.949 1_556 S
C1059 C1060 1.349 . S
C1059 C1061 1.327 . S
C1059 H1082 0.950 . S
C1060 C1059 1.349 . S
C1060 C1072 1.373 . S
C1061 C1059 1.327 . S
C1061 C1077 1.429 . S
C1061 H1083 0.950 . S
C1062 H1058 0.949 1_554 S
C1062 C1070 1.574 . S
C1062 C1078 1.368 . S
H1063 C1071 0.950 . S
H1064 C1069 0.950 . S
H1065 C1070 0.922 1_556 S
H1066 C1072 0.922 1_556 S
H1067 C1073 0.950 1_556 S
H1068 C1074 0.949 . S
C1069 H1064 0.950 . S
C1069 C1071 1.327 . S
C1069 C1075 1.429 . S
C1070 C1062 1.574 . S
C1070 H1065 0.922 1_554 S
C1070 C1076 1.368 . S
C1071 C1055 1.349 . S
C1071 H1063 0.950 . S
C1071 C1069 1.327 . S
C1072 C1060 1.373 . S
C1072 H1066 0.922 1_554 S
C1072 C1073 1.331 . S
C1073 H1067 0.950 1_554 S
C1073 C1072 1.331 . S
C1073 C1077 1.429 . S
C1074 C1057 1.574 . S
C1074 H1068 0.949 . S
C1074 C1078 1.368 . S
C1075 C1056 1.429 . S
C1075 C1069 1.429 . S
C1075 C1076 1.523 . S
C1076 C1057 1.368 . S
C1076 C1070 1.368 . S
C1076 C1075 1.523 . S
C1077 C1061 1.429 . S
C1077 C1073 1.429 . S
C1077 C1078 1.523 . S
C1078 C1062 1.368 . S
C1078 C1074 1.368 . S
C1078 C1077 1.523 . S
H1079 C1054 0.950 . S
H1080 C1056 0.950 . S
H1081 C1057 0.949 . S
H1082 C1059 0.950 . S
H1083 C1061 0.950 . S
C1084 C1085 1.349 . S
C1084 C1086 1.327 . S
C1084 H1109 0.950 . S
C1085 C1084 1.349 . S
C1085 C1101 1.349 . S
C1086 C1084 1.327 . S
C1086 C1105 1.429 . S
C1086 H1110 0.950 . S
C1087 C1104 1.574 . S
C1087 C1106 1.368 . S
C1087 H1111 0.949 . S
H1088 C1092 0.949 . S
C1089 C1090 1.349 . S
C1089 C1091 1.327 . S
C1089 H1112 0.950 . S
C1090 C1089 1.349 . S
C1090 C1102 1.349 . S
C1091 C1089 1.327 . S
C1091 C1107 1.429 . S
C1091 H1113 0.950 . S
C1092 H1088 0.949 . S
C1092 C1100 1.574 . S
C1092 C1108 1.368 . S
H1093 C1101 0.950 . S
H1094 C1099 0.950 . S
H1095 C1100 0.949 . S
H1096 C1102 0.950 . S
H1097 C1103 0.950 . S
H1098 C1104 0.949 . S
C1099 H1094 0.950 . S
C1099 C1101 1.327 . S
C1099 C1105 1.429 . S
C1100 C1092 1.574 . S
C1100 H1095 0.949 . S
C1100 C1106 1.368 . S
C1101 C1085 1.349 . S
C1101 H1093 0.950 . S
C1101 C1099 1.327 . S
C1102 C1090 1.349 . S
C1102 H1096 0.950 . S
C1102 C1103 1.327 . S
C1103 H1097 0.950 . S
C1103 C1102 1.327 . S
C1103 C1107 1.429 . S
C1104 C1087 1.574 . S
C1104 H1098 0.949 . S
C1104 C1108 1.368 . S
C1105 C1086 1.429 . S
C1105 C1099 1.429 . S
C1105 C1106 1.523 . S
C1106 C1087 1.368 . S
C1106 C1100 1.368 . S
C1106 C1105 1.523 . S
C1107 C1091 1.429 . S
C1107 C1103 1.429 . S
C1107 C1108 1.523 . S
C1108 C1092 1.368 . S
C1108 C1104 1.368 . S
C1108 C1107 1.523 . S
H1109 C1084 0.950 . S
H1110 C1086 0.950 . S
H1111 C1087 0.949 . S
H1112 C1089 0.950 . S
H1113 C1091 0.950 . S
C1114 C1115 1.349 . S
C1114 C1116 1.327 . S
C1114 H1139 0.950 . S
C1115 C1114 1.349 . S
C1115 C1131 1.349 . S
C1116 C1114 1.327 . S
C1116 C1135 1.429 . S
C1116 H1140 0.950 . S
C1117 C1134 1.574 . S
C1117 C1136 1.368 . S
C1117 H1141 0.949 . S
H1118 C1122 0.949 . S
C1119 C1120 1.349 . S
C1119 C1121 1.327 . S
C1119 H1142 0.950 . S
C1120 C1119 1.349 . S
C1120 C1132 1.349 . S
C1121 C1119 1.327 . S
C1121 C1137 1.429 . S
C1121 H1143 0.950 . S
C1122 H1118 0.949 . S
C1122 C1130 1.574 . S
C1122 C1138 1.368 . S
H1123 C1131 0.950 . S
H1124 C1129 0.950 . S
H1125 C1130 0.949 . S
H1126 C1132 0.950 . S
H1127 C1133 0.950 . S
H1128 C1134 0.949 . S
C1129 H1124 0.950 . S
C1129 C1131 1.327 . S
C1129 C1135 1.429 . S
C1130 C1122 1.574 . S
C1130 H1125 0.949 . S
C1130 C1136 1.368 . S
C1131 C1115 1.349 . S
C1131 H1123 0.950 . S
C1131 C1129 1.327 . S
C1132 C1120 1.349 . S
C1132 H1126 0.950 . S
C1132 C1133 1.327 . S
C1133 H1127 0.950 . S
C1133 C1132 1.327 . S
C1133 C1137 1.429 . S
C1134 C1117 1.574 . S
C1134 H1128 0.949 . S
C1134 C1138 1.368 . S
C1135 C1116 1.429 . S
C1135 C1129 1.429 . S
C1135 C1136 1.523 . S
C1136 C1117 1.368 . S
C1136 C1130 1.368 . S
C1136 C1135 1.523 . S
C1137 C1121 1.429 . S
C1137 C1133 1.429 . S
C1137 C1138 1.523 . S
C1138 C1122 1.368 . S
C1138 C1134 1.368 . S
C1138 C1137 1.523 . S
H1139 C1114 0.950 . S
H1140 C1116 0.950 . S
H1141 C1117 0.949 . S
H1142 C1119 0.950 . S
H1143 C1121 0.950 . S
C1144 C1145 1.349 . S
C1144 C1146 1.327 . S
C1144 H1169 0.950 . S
C1145 C1144 1.349 . S
C1145 C1161 1.349 . S
C1146 C1144 1.327 . S
C1146 C1165 1.429 . S
C1146 H1170 0.950 . S
C1147 C1164 1.574 . S
C1147 C1166 1.368 . S
C1147 H1171 0.949 . S
H1148 C1152 0.949 . S
C1149 C1150 1.349 . S
C1149 C1151 1.327 . S
C1149 H1172 0.950 . S
C1150 C1149 1.349 . S
C1150 C1162 1.349 . S
C1151 C1149 1.327 . S
C1151 C1167 1.429 . S
C1151 H1173 0.950 . S
C1152 H1148 0.949 . S
C1152 C1160 1.574 . S
C1152 C1168 1.368 . S
H1153 C1161 0.950 . S
H1154 C1159 0.950 . S
H1155 C1160 0.949 . S
H1156 C1162 0.950 . S
H1157 C1163 0.950 . S
H1158 C1164 0.949 . S
C1159 H1154 0.950 . S
C1159 C1161 1.327 . S
C1159 C1165 1.429 . S
C1160 C1152 1.574 . S
C1160 H1155 0.949 . S
C1160 C1166 1.368 . S
C1161 C1145 1.349 . S
C1161 H1153 0.950 . S
C1161 C1159 1.327 . S
C1162 C1150 1.349 . S
C1162 H1156 0.950 . S
C1162 C1163 1.327 . S
C1163 H1157 0.950 . S
C1163 C1162 1.327 . S
C1163 C1167 1.429 . S
C1164 C1147 1.574 . S
C1164 H1158 0.949 . S
C1164 C1168 1.368 . S
C1165 C1146 1.429 . S
C1165 C1159 1.429 . S
C1165 C1166 1.523 . S
C1166 C1147 1.368 . S
C1166 C1160 1.368 . S
C1166 C1165 1.523 . S
C1167 C1151 1.429 . S
C1167 C1163 1.429 . S
C1167 C1168 1.523 . S
C1168 C1152 1.368 . S
C1168 C1164 1.368 . S
C1168 C1167 1.523 . S
H1169 C1144 0.950 . S
H1170 C1146 0.950 . S
H1171 C1147 0.949 . S
H1172 C1149 0.950 . S
H1173 C1151 0.950 . S
C1174 C1175 1.349 . S
C1174 C1176 1.327 . S
C1174 H1199 0.950 . S
C1175 C1174 1.349 . S
C1175 C1191 1.349 . S
C1176 C1174 1.327 . S
C1176 C1195 1.429 . S
C1176 H1200 0.950 . S
C1177 C1194 1.574 . S
C1177 C1196 1.368 . S
C1177 H1201 0.949 . S
H1178 C1182 0.949 . S
C1179 C1180 1.349 . S
C1179 C1181 1.327 . S
C1179 H1202 0.950 . S
C1180 C1179 1.349 . S
C1180 C1192 1.349 . S
C1181 C1179 1.327 . S
C1181 C1197 1.429 . S
C1181 H1203 0.950 . S
C1182 H1178 0.949 . S
C1182 C1190 1.574 . S
C1182 C1198 1.368 . S
H1183 C1191 0.950 . S
H1184 C1189 0.950 . S
H1185 C1190 0.949 . S
H1186 C1192 0.950 . S
H1187 C1193 0.950 . S
H1188 C1194 0.949 . S
C1189 H1184 0.950 . S
C1189 C1191 1.327 . S
C1189 C1195 1.429 . S
C1190 C1182 1.574 . S
C1190 H1185 0.949 . S
C1190 C1196 1.368 . S
C1191 C1175 1.349 . S
C1191 H1183 0.950 . S
C1191 C1189 1.327 . S
C1192 C1180 1.349 . S
C1192 H1186 0.950 . S
C1192 C1193 1.327 . S
C1193 H1187 0.950 . S
C1193 C1192 1.327 . S
C1193 C1197 1.429 . S
C1194 C1177 1.574 . S
C1194 H1188 0.949 . S
C1194 C1198 1.368 . S
C1195 C1176 1.429 . S
C1195 C1189 1.429 . S
C1195 C1196 1.523 . S
C1196 C1177 1.368 . S
C1196 C1190 1.368 . S
C1196 C1195 1.523 . S
C1197 C1181 1.429 . S
C1197 C1193 1.429 . S
C1197 C1198 1.523 . S
C1198 C1182 1.368 . S
C1198 C1194 1.368 . S
C1198 C1197 1.523 . S
H1199 C1174 0.950 . S
H1200 C1176 0.950 . S
H1201 C1177 0.949 . S
H1202 C1179 0.950 . S
H1203 C1181 0.950 . S
C1204 C1205 1.349 . S
C1204 C1206 1.327 . S
C1204 H1229 0.950 . S
C1205 C1204 1.349 . S
C1205 C1221 1.349 . S
C1206 C1204 1.327 . S
C1206 C1225 1.429 . S
C1206 H1230 0.969 . S
C1207 C1224 1.574 . S
C1207 C1226 1.368 . S
C1207 H1231 0.949 . S
H1208 C1212 0.941 1_554 S
C1209 C1210 1.349 . S
C1209 C1211 1.327 . S
C1209 H1232 0.950 . S
C1210 C1209 1.349 . S
C1210 C1222 1.349 1_556 S
C1211 C1209 1.327 . S
C1211 C1227 1.429 . S
C1211 H1233 0.950 . S
C1212 H1208 0.941 1_556 S
C1212 C1220 1.576 . S
C1212 C1228 1.376 . S
H1213 C1221 0.950 . S
H1214 C1219 0.950 . S
H1215 C1220 0.949 1_554 S
H1216 C1222 0.950 . S
H1217 C1223 0.950 . S
H1218 C1224 0.949 . S
C1219 H1214 0.950 . S
C1219 C1221 1.327 . S
C1219 C1225 1.429 . S
C1220 C1212 1.576 . S
C1220 H1215 0.949 1_556 S
C1220 C1226 1.368 . S
C1221 C1205 1.349 . S
C1221 H1213 0.950 . S
C1221 C1219 1.327 . S
C1222 C1210 1.349 1_554 S
C1222 H1216 0.950 . S
C1222 C1223 1.327 . S
C1223 H1217 0.950 . S
C1223 C1222 1.327 . S
C1223 C1227 1.429 1_554 S
C1224 C1207 1.574 . S
C1224 H1218 0.949 . S
C1224 C1228 1.368 . S
C1225 C1206 1.429 . S
C1225 C1219 1.429 . S
C1225 C1226 1.523 . S
C1226 C1207 1.368 . S
C1226 C1220 1.368 . S
C1226 C1225 1.523 . S
C1227 C1211 1.429 . S
C1227 C1223 1.429 1_556 S
C1227 C1228 1.523 . S
C1228 C1212 1.376 . S
C1228 C1224 1.368 . S
C1228 C1227 1.523 . S
H1229 C1204 0.950 . S
H1230 C1206 0.969 . S
H1231 C1207 0.949 . S
H1232 C1209 0.950 . S
H1233 C1211 0.950 . S
C1234 C1235 1.349 . S
C1234 C1236 1.327 . S
C1234 H1259 0.950 . S
C1235 C1234 1.349 . S
C1235 C1251 1.349 . S
C1236 C1234 1.327 . S
C1236 C1255 1.429 . S
C1236 H1260 0.950 . S
C1237 C1254 1.574 . S
C1237 C1256 1.368 . S
C1237 H1261 0.949 . S
H1238 C1242 0.949 . S
C1239 C1240 1.349 . S
C1239 C1241 1.327 . S
C1239 H1262 0.950 . S
C1240 C1239 1.349 . S
C1240 C1252 1.349 . S
C1241 C1239 1.327 . S
C1241 C1257 1.429 . S
C1241 H1263 0.950 . S
C1242 H1238 0.949 . S
C1242 C1250 1.574 . S
C1242 C1258 1.368 . S
H1243 C1251 0.950 . S
H1244 C1249 0.950 . S
H1245 C1250 0.949 . S
H1246 C1252 0.950 . S
H1247 C1253 0.950 . S
H1248 C1254 0.949 . S
C1249 H1244 0.950 . S
C1249 C1251 1.327 . S
C1249 C1255 1.429 . S
C1250 C1242 1.574 . S
C1250 H1245 0.949 . S
C1250 C1256 1.368 . S
C1251 C1235 1.349 . S
C1251 H1243 0.950 . S
C1251 C1249 1.327 . S
C1252 C1240 1.349 . S
C1252 H1246 0.950 . S
C1252 C1253 1.327 . S
C1253 H1247 0.950 . S
C1253 C1252 1.327 . S
C1253 C1257 1.429 . S
C1254 C1237 1.574 . S
C1254 H1248 0.949 . S
C1254 C1258 1.368 . S
C1255 C1236 1.429 . S
C1255 C1249 1.429 . S
C1255 C1256 1.523 . S
C1256 C1237 1.368 . S
C1256 C1250 1.368 . S
C1256 C1255 1.523 . S
C1257 C1241 1.429 . S
C1257 C1253 1.429 . S
C1257 C1258 1.523 . S
C1258 C1242 1.368 . S
C1258 C1254 1.368 . S
C1258 C1257 1.523 . S
H1259 C1234 0.950 . S
H1260 C1236 0.950 . S
H1261 C1237 0.949 . S
H1262 C1239 0.950 . S
H1263 C1241 0.950 . S
C1264 C1265 1.349 . S
C1264 C1266 1.327 . S
C1264 H1289 0.950 . S
C1265 C1264 1.349 . S
C1265 C1281 1.349 . S
C1266 C1264 1.327 . S
C1266 C1285 1.429 . S
C1266 H1290 0.950 . S
C1267 C1284 1.574 . S
C1267 C1286 1.368 . S
C1267 H1291 0.949 . S
H1268 C1272 0.949 . S
C1269 C1270 1.349 . S
C1269 C1271 1.327 . S
C1269 H1292 0.950 . S
C1270 C1269 1.349 . S
C1270 C1282 1.349 . S
C1271 C1269 1.327 . S
C1271 C1287 1.429 . S
C1271 H1293 0.950 . S
C1272 H1268 0.949 . S
C1272 C1280 1.574 . S
C1272 C1288 1.368 . S
H1273 C1281 0.950 . S
H1274 C1279 0.950 . S
H1275 C1280 0.949 . S
H1276 C1282 0.950 . S
H1277 C1283 0.950 . S
H1278 C1284 0.949 . S
C1279 H1274 0.950 . S
C1279 C1281 1.327 . S
C1279 C1285 1.429 . S
C1280 C1272 1.574 . S
C1280 H1275 0.949 . S
C1280 C1286 1.368 . S
C1281 C1265 1.349 . S
C1281 H1273 0.950 . S
C1281 C1279 1.327 . S
C1282 C1270 1.349 . S
C1282 H1276 0.950 . S
C1282 C1283 1.327 . S
C1283 H1277 0.950 . S
C1283 C1282 1.327 . S
C1283 C1287 1.429 . S
C1284 C1267 1.574 . S
C1284 H1278 0.949 . S
C1284 C1288 1.368 . S
C1285 C1266 1.429 . S
C1285 C1279 1.429 . S
C1285 C1286 1.523 . S
C1286 C1267 1.368 . S
C1286 C1280 1.368 . S
C1286 C1285 1.523 . S
C1287 C1271 1.429 . S
C1287 C1283 1.429 . S
C1287 C1288 1.523 . S
C1288 C1272 1.368 . S
C1288 C1284 1.368 . S
C1288 C1287 1.523 . S
H1289 C1264 0.950 . S
H1290 C1266 0.950 . S
H1291 C1267 0.949 . S
H1292 C1269 0.950 . S
H1293 C1271 0.950 . S
C1294 C1295 1.349 . S
C1294 C1296 1.327 . S
C1294 H1319 0.950 . S
C1295 C1294 1.349 . S
C1295 C1311 1.349 . S
C1296 C1294 1.327 . S
C1296 C1315 1.429 . S
C1296 H1320 0.950 . S
C1297 C1314 1.574 . S
C1297 C1316 1.368 . S
C1297 H1321 0.949 . S
H1298 C1302 0.949 . S
C1299 C1300 1.349 . S
C1299 C1301 1.327 . S
C1299 H1322 0.950 . S
C1300 C1299 1.349 . S
C1300 C1312 1.349 . S
C1301 C1299 1.327 . S
C1301 C1317 1.429 . S
C1301 H1323 0.950 . S
C1302 H1298 0.949 . S
C1302 C1310 1.574 . S
C1302 C1318 1.368 . S
H1303 C1311 0.950 . S
H1304 C1309 0.950 . S
H1305 C1310 0.949 . S
H1306 C1312 0.950 . S
H1307 C1313 0.950 . S
H1308 C1314 0.949 . S
C1309 H1304 0.950 . S
C1309 C1311 1.327 . S
C1309 C1315 1.429 . S
C1310 C1302 1.574 . S
C1310 H1305 0.949 . S
C1310 C1316 1.368 . S
C1311 C1295 1.349 . S
C1311 H1303 0.950 . S
C1311 C1309 1.327 . S
C1312 C1300 1.349 . S
C1312 H1306 0.950 . S
C1312 C1313 1.327 . S
C1313 H1307 0.950 . S
C1313 C1312 1.327 . S
C1313 C1317 1.429 . S
C1314 C1297 1.574 . S
C1314 H1308 0.949 . S
C1314 C1318 1.368 . S
C1315 C1296 1.429 . S
C1315 C1309 1.429 . S
C1315 C1316 1.523 . S
C1316 C1297 1.368 . S
C1316 C1310 1.368 . S
C1316 C1315 1.523 . S
C1317 C1301 1.429 . S
C1317 C1313 1.429 . S
C1317 C1318 1.523 . S
C1318 C1302 1.368 . S
C1318 C1314 1.368 . S
C1318 C1317 1.523 . S
H1319 C1294 0.950 . S
H1320 C1296 0.950 . S
H1321 C1297 0.949 . S
H1322 C1299 0.950 . S
H1323 C1301 0.950 . S
C1324 C1325 1.349 . S
C1324 C1326 1.327 . S
C1324 H1349 0.950 . S
C1325 C1324 1.349 . S
C1325 C1341 1.349 . S
C1326 C1324 1.327 . S
C1326 C1345 1.429 . S
C1326 H1350 0.950 . S
C1327 C1344 1.574 . S
C1327 C1346 1.368 . S
C1327 H1351 0.949 . S
H1328 C1332 0.949 . S
C1329 C1330 1.349 . S
C1329 C1331 1.327 . S
C1329 H1352 0.950 . S
C1330 C1329 1.349 . S
C1330 C1342 1.349 . S
C1331 C1329 1.327 . S
C1331 C1347 1.429 . S
C1331 H1353 0.950 . S
C1332 H1328 0.949 . S
C1332 C1340 1.574 . S
C1332 C1348 1.368 . S
H1333 C1341 0.950 . S
H1334 C1339 0.950 . S
H1335 C1340 0.949 . S
H1336 C1342 0.950 . S
H1337 C1343 0.950 . S
H1338 C1344 0.949 . S
C1339 H1334 0.950 . S
C1339 C1341 1.327 . S
C1339 C1345 1.429 . S
C1340 C1332 1.574 . S
C1340 H1335 0.949 . S
C1340 C1346 1.368 . S
C1341 C1325 1.349 . S
C1341 H1333 0.950 . S
C1341 C1339 1.327 . S
C1342 C1330 1.349 . S
C1342 H1336 0.950 . S
C1342 C1343 1.327 . S
C1343 H1337 0.950 . S
C1343 C1342 1.327 . S
C1343 C1347 1.429 . S
C1344 C1327 1.574 . S
C1344 H1338 0.949 . S
C1344 C1348 1.368 . S
C1345 C1326 1.429 . S
C1345 C1339 1.429 . S
C1345 C1346 1.523 . S
C1346 C1327 1.368 . S
C1346 C1340 1.368 . S
C1346 C1345 1.523 . S
C1347 C1331 1.429 . S
C1347 C1343 1.429 . S
C1347 C1348 1.523 . S
C1348 C1332 1.368 . S
C1348 C1344 1.368 . S
C1348 C1347 1.523 . S
H1349 C1324 0.950 . S
H1350 C1326 0.950 . S
H1351 C1327 0.949 . S
H1352 C1329 0.950 . S
H1353 C1331 0.950 . S
C1354 C1355 1.349 . S
C1354 C1356 1.327 . S
C1354 H1379 0.950 . S
C1355 C1354 1.349 . S
C1355 C1371 1.349 . S
C1356 C1354 1.327 . S
C1356 C1375 1.429 . S
C1356 H1380 0.950 . S
C1357 C1374 1.574 . S
C1357 C1376 1.368 . S
C1357 H1381 0.949 . S
H1358 C1362 0.949 . S
C1359 C1360 1.349 . S
C1359 C1361 1.327 . S
C1359 H1382 0.950 . S
C1360 C1359 1.349 . S
C1360 C1372 1.349 . S
C1361 C1359 1.327 . S
C1361 C1377 1.429 . S
C1361 H1383 0.950 . S
C1362 H1358 0.949 . S
C1362 C1370 1.574 . S
C1362 C1378 1.368 . S
H1363 C1371 0.950 . S
H1364 C1369 0.950 . S
H1365 C1370 0.949 . S
H1366 C1372 0.950 . S
H1367 C1373 0.950 . S
H1368 C1374 0.949 . S
C1369 H1364 0.950 . S
C1369 C1371 1.327 . S
C1369 C1375 1.429 . S
C1370 C1362 1.574 . S
C1370 H1365 0.949 . S
C1370 C1376 1.368 . S
C1371 C1355 1.349 . S
C1371 H1363 0.950 . S
C1371 C1369 1.327 . S
C1372 C1360 1.349 . S
C1372 H1366 0.950 . S
C1372 C1373 1.327 . S
C1373 H1367 0.950 . S
C1373 C1372 1.327 . S
C1373 C1377 1.429 . S
C1374 C1357 1.574 . S
C1374 H1368 0.949 . S
C1374 C1378 1.368 . S
C1375 C1356 1.429 . S
C1375 C1369 1.429 . S
C1375 C1376 1.523 . S
C1376 C1357 1.368 . S
C1376 C1370 1.368 . S
C1376 C1375 1.523 . S
C1377 C1361 1.429 . S
C1377 C1373 1.429 . S
C1377 C1378 1.523 . S
C1378 C1362 1.368 . S
C1378 C1374 1.368 . S
C1378 C1377 1.523 . S
H1379 C1354 0.950 . S
H1380 C1356 0.950 . S
H1381 C1357 0.949 . S
H1382 C1359 0.950 . S
H1383 C1361 0.950 . S
C1384 C1385 1.349 . S
C1384 C1386 1.327 . S
C1384 H1409 0.950 . S
C1385 C1384 1.349 . S
C1385 C1401 1.349 . S
C1386 C1384 1.327 . S
C1386 C1405 1.429 . S
C1386 H1410 0.950 . S
C1387 C1404 1.574 . S
C1387 C1406 1.368 . S
C1387 H1411 0.949 . S
H1388 C1392 0.949 . S
C1389 C1390 1.349 . S
C1389 C1391 1.327 . S
C1389 H1412 0.950 . S
C1390 C1389 1.349 . S
C1390 C1402 1.349 . S
C1391 C1389 1.327 . S
C1391 C1407 1.429 . S
C1391 H1413 0.950 . S
C1392 H1388 0.949 . S
C1392 C1400 1.574 . S
C1392 C1408 1.368 . S
H1393 C1401 0.950 . S
H1394 C1399 0.950 . S
H1395 C1400 0.949 . S
H1396 C1402 0.950 . S
H1397 C1403 0.950 . S
H1398 C1404 0.949 . S
C1399 H1394 0.950 . S
C1399 C1401 1.327 . S
C1399 C1405 1.429 . S
C1400 C1392 1.574 . S
C1400 H1395 0.949 . S
C1400 C1406 1.368 . S
C1401 C1385 1.349 . S
C1401 H1393 0.950 . S
C1401 C1399 1.327 . S
C1402 C1390 1.349 . S
C1402 H1396 0.950 . S
C1402 C1403 1.327 . S
C1403 H1397 0.950 . S
C1403 C1402 1.327 . S
C1403 C1407 1.429 . S
C1404 C1387 1.574 . S
C1404 H1398 0.949 . S
C1404 C1408 1.368 . S
C1405 C1386 1.429 . S
C1405 C1399 1.429 . S
C1405 C1406 1.523 . S
C1406 C1387 1.368 . S
C1406 C1400 1.368 . S
C1406 C1405 1.523 . S
C1407 C1391 1.429 . S
C1407 C1403 1.429 . S
C1407 C1408 1.523 . S
C1408 C1392 1.368 . S
C1408 C1404 1.368 . S
C1408 C1407 1.523 . S
H1409 C1384 0.950 . S
H1410 C1386 0.950 . S
H1411 C1387 0.949 . S
H1412 C1389 0.950 . S
H1413 C1391 0.950 . S
C1414 C1415 1.349 . S
C1414 C1416 1.327 . S
C1414 H1439 0.950 . S
C1415 C1414 1.349 . S
C1415 C1431 1.349 . S
C1416 C1414 1.327 . S
C1416 C1435 1.429 . S
C1416 H1440 0.950 . S
C1417 C1434 1.574 . S
C1417 C1436 1.368 . S
C1417 H1441 0.949 . S
H1418 C1422 0.949 . S
C1419 C1420 1.349 . S
C1419 C1421 1.327 . S
C1419 H1442 0.950 . S
C1420 C1419 1.349 . S
C1420 C1432 1.349 . S
C1421 C1419 1.327 . S
C1421 C1437 1.429 . S
C1421 H1443 0.950 . S
C1422 H1418 0.949 . S
C1422 C1430 1.574 . S
C1422 C1438 1.368 . S
H1423 C1431 0.950 . S
H1424 C1429 0.950 . S
H1425 C1430 0.949 . S
H1426 C1432 0.950 . S
H1427 C1433 0.950 . S
H1428 C1434 0.949 . S
C1429 H1424 0.950 . S
C1429 C1431 1.327 . S
C1429 C1435 1.429 . S
C1430 C1422 1.574 . S
C1430 H1425 0.949 . S
C1430 C1436 1.368 . S
C1431 C1415 1.349 . S
C1431 H1423 0.950 . S
C1431 C1429 1.327 . S
C1432 C1420 1.349 . S
C1432 H1426 0.950 . S
C1432 C1433 1.327 . S
C1433 H1427 0.950 . S
C1433 C1432 1.327 . S
C1433 C1437 1.429 . S
C1434 C1417 1.574 . S
C1434 H1428 0.949 . S
C1434 C1438 1.368 . S
C1435 C1416 1.429 . S
C1435 C1429 1.429 . S
C1435 C1436 1.523 . S
C1436 C1417 1.368 . S
C1436 C1430 1.368 . S
C1436 C1435 1.523 . S
C1437 C1421 1.429 . S
C1437 C1433 1.429 . S
C1437 C1438 1.523 . S
C1438 C1422 1.368 . S
C1438 C1434 1.368 . S
C1438 C1437 1.523 . S
H1439 C1414 0.950 . S
H1440 C1416 0.950 . S
H1441 C1417 0.949 . S
H1442 C1419 0.950 . S
H1443 C1421 0.950 . S
C1444 C1445 1.349 . S
C1444 C1446 1.327 . S
C1444 H1469 0.950 . S
C1445 C1444 1.349 . S
C1445 C1461 1.349 . S
C1446 C1444 1.327 . S
C1446 C1465 1.429 . S
C1446 H1470 0.950 . S
C1447 C1464 1.574 . S
C1447 C1466 1.368 . S
C1447 H1471 0.949 . S
H1448 C1452 0.949 . S
C1449 C1450 1.349 . S
C1449 C1451 1.327 . S
C1449 H1472 0.950 . S
C1450 C1449 1.349 . S
C1450 C1462 1.349 . S
C1451 C1449 1.327 . S
C1451 C1467 1.429 . S
C1451 H1473 0.950 . S
C1452 H1448 0.949 . S
C1452 C1460 1.574 . S
C1452 C1468 1.368 . S
H1453 C1461 0.950 . S
H1454 C1459 0.950 . S
H1455 C1460 0.949 . S
H1456 C1462 0.950 . S
H1457 C1463 0.950 . S
H1458 C1464 0.949 . S
C1459 H1454 0.950 . S
C1459 C1461 1.327 . S
C1459 C1465 1.429 . S
C1460 C1452 1.574 . S
C1460 H1455 0.949 . S
C1460 C1466 1.368 . S
C1461 C1445 1.349 . S
C1461 H1453 0.950 . S
C1461 C1459 1.327 . S
C1462 C1450 1.349 . S
C1462 H1456 0.950 . S
C1462 C1463 1.327 . S
C1463 H1457 0.950 . S
C1463 C1462 1.327 . S
C1463 C1467 1.429 . S
C1464 C1447 1.574 . S
C1464 H1458 0.949 . S
C1464 C1468 1.368 . S
C1465 C1446 1.429 . S
C1465 C1459 1.429 . S
C1465 C1466 1.523 . S
C1466 C1447 1.368 . S
C1466 C1460 1.368 . S
C1466 C1465 1.523 . S
C1467 C1451 1.429 . S
C1467 C1463 1.429 . S
C1467 C1468 1.523 . S
C1468 C1452 1.368 . S
C1468 C1464 1.368 . S
C1468 C1467 1.523 . S
H1469 C1444 0.950 . S
H1470 C1446 0.950 . S
H1471 C1447 0.949 . S
H1472 C1449 0.950 . S
H1473 C1451 0.950 . S
C1474 C1475 1.349 . S
C1474 C1476 1.327 . S
C1474 H1499 0.950 . S
C1475 C1474 1.349 . S
C1475 C1491 1.349 . S
C1476 C1474 1.327 . S
C1476 C1495 1.429 . S
C1476 H1500 0.950 . S
C1477 C1494 1.574 . S
C1477 C1496 1.368 . S
C1477 H1501 0.949 . S
H1478 C1482 0.949 . S
C1479 C1480 1.349 . S
C1479 C1481 1.327 . S
C1479 H1502 0.950 . S
C1480 C1479 1.349 . S
C1480 C1492 1.349 . S
C1481 C1479 1.327 . S
C1481 C1497 1.429 . S
C1481 H1503 0.950 . S
C1482 H1478 0.949 . S
C1482 C1490 1.574 . S
C1482 C1498 1.368 . S
H1483 C1491 0.950 . S
H1484 C1489 0.950 . S
H1485 C1490 0.949 . S
H1486 C1492 0.950 . S
H1487 C1493 0.950 . S
H1488 C1494 0.949 . S
C1489 H1484 0.950 . S
C1489 C1491 1.327 . S
C1489 C1495 1.429 . S
C1490 C1482 1.574 . S
C1490 H1485 0.949 . S
C1490 C1496 1.368 . S
C1491 C1475 1.349 . S
C1491 H1483 0.950 . S
C1491 C1489 1.327 . S
C1492 C1480 1.349 . S
C1492 H1486 0.950 . S
C1492 C1493 1.327 . S
C1493 H1487 0.950 . S
C1493 C1492 1.327 . S
C1493 C1497 1.429 . S
C1494 C1477 1.574 . S
C1494 H1488 0.949 . S
C1494 C1498 1.368 . S
C1495 C1476 1.429 . S
C1495 C1489 1.429 . S
C1495 C1496 1.523 . S
C1496 C1477 1.368 . S
C1496 C1490 1.368 . S
C1496 C1495 1.523 . S
C1497 C1481 1.429 . S
C1497 C1493 1.429 . S
C1497 C1498 1.523 . S
C1498 C1482 1.368 . S
C1498 C1494 1.368 . S
C1498 C1497 1.523 . S
H1499 C1474 0.950 . S
H1500 C1476 0.950 . S
H1501 C1477 0.949 . S
H1502 C1479 0.950 . S
H1503 C1481 0.950 . S
C1504 C1505 1.349 . S
C1504 C1506 1.327 . S
C1504 H1529 0.950 . S
C1505 C1504 1.349 . S
C1505 C1521 1.349 . S
C1506 C1504 1.327 . S
C1506 C1525 1.429 . S
C1506 H1530 0.950 . S
C1507 C1524 1.574 . S
C1507 C1526 1.368 . S
C1507 H1531 0.949 . S
H1508 C1512 0.949 . S
C1509 C1510 1.349 . S
C1509 C1511 1.327 . S
C1509 H1532 0.950 . S
C1510 C1509 1.349 . S
C1510 C1522 1.349 . S
C1511 C1509 1.327 . S
C1511 C1527 1.429 . S
C1511 H1533 0.950 . S
C1512 H1508 0.949 . S
C1512 C1520 1.574 . S
C1512 C1528 1.368 . S
H1513 C1521 0.950 . S
H1514 C1519 0.950 . S
H1515 C1520 0.949 . S
H1516 C1522 0.950 . S
H1517 C1523 0.950 . S
H1518 C1524 0.949 . S
C1519 H1514 0.950 . S
C1519 C1521 1.327 . S
C1519 C1525 1.429 . S
C1520 C1512 1.574 . S
C1520 H1515 0.949 . S
C1520 C1526 1.368 . S
C1521 C1505 1.349 . S
C1521 H1513 0.950 . S
C1521 C1519 1.327 . S
C1522 C1510 1.349 . S
C1522 H1516 0.950 . S
C1522 C1523 1.327 . S
C1523 H1517 0.950 . S
C1523 C1522 1.327 . S
C1523 C1527 1.429 . S
C1524 C1507 1.574 . S
C1524 H1518 0.949 . S
C1524 C1528 1.368 . S
C1525 C1506 1.429 . S
C1525 C1519 1.429 . S
C1525 C1526 1.523 . S
C1526 C1507 1.368 . S
C1526 C1520 1.368 . S
C1526 C1525 1.523 . S
C1527 C1511 1.429 . S
C1527 C1523 1.429 . S
C1527 C1528 1.523 . S
C1528 C1512 1.368 . S
C1528 C1524 1.368 . S
C1528 C1527 1.523 . S
H1529 C1504 0.950 . S
H1530 C1506 0.950 . S
H1531 C1507 0.949 . S
H1532 C1509 0.950 . S
H1533 C1511 0.950 . S
C1534 C1535 1.349 . S
C1534 C1536 1.327 . S
C1534 H1559 0.950 . S
C1535 C1534 1.349 . S
C1535 C1551 1.349 . S
C1536 C1534 1.327 . S
C1536 C1555 1.429 . S
C1536 H1560 0.950 . S
C1537 C1554 1.574 . S
C1537 C1556 1.368 . S
C1537 H1561 0.949 . S
H1538 C1542 0.949 . S
C1539 C1540 1.349 . S
C1539 C1541 1.327 . S
C1539 H1562 0.950 . S
C1540 C1539 1.349 . S
C1540 C1552 1.349 . S
C1541 C1539 1.327 . S
C1541 C1557 1.429 . S
C1541 H1563 0.950 . S
C1542 H1538 0.949 . S
C1542 C1550 1.574 . S
C1542 C1558 1.368 . S
H1543 C1551 0.950 . S
H1544 C1549 0.950 . S
H1545 C1550 0.949 . S
H1546 C1552 0.950 . S
H1547 C1553 0.950 . S
H1548 C1554 0.949 . S
C1549 H1544 0.950 . S
C1549 C1551 1.327 . S
C1549 C1555 1.429 . S
C1550 C1542 1.574 . S
C1550 H1545 0.949 . S
C1550 C1556 1.368 . S
C1551 C1535 1.349 . S
C1551 H1543 0.950 . S
C1551 C1549 1.327 . S
C1552 C1540 1.349 . S
C1552 H1546 0.950 . S
C1552 C1553 1.327 . S
C1553 H1547 0.950 . S
C1553 C1552 1.327 . S
C1553 C1557 1.429 . S
C1554 C1537 1.574 . S
C1554 H1548 0.949 . S
C1554 C1558 1.368 . S
C1555 C1536 1.429 . S
C1555 C1549 1.429 . S
C1555 C1556 1.523 . S
C1556 C1537 1.368 . S
C1556 C1550 1.368 . S
C1556 C1555 1.523 . S
C1557 C1541 1.429 . S
C1557 C1553 1.429 . S
C1557 C1558 1.523 . S
C1558 C1542 1.368 . S
C1558 C1554 1.368 . S
C1558 C1557 1.523 . S
H1559 C1534 0.950 . S
H1560 C1536 0.950 . S
H1561 C1537 0.949 . S
H1562 C1539 0.950 . S
H1563 C1541 0.950 . S
C1564 C1565 1.349 . S
C1564 C1566 1.327 . S
C1564 H1589 0.950 . S
C1565 C1564 1.349 . S
C1565 C1581 1.349 . S
C1566 C1564 1.327 . S
C1566 C1585 1.429 . S
C1566 H1590 0.950 . S
C1567 C1584 1.574 . S
C1567 C1586 1.368 . S
C1567 H1591 0.949 . S
H1568 C1572 0.949 . S
C1569 C1570 1.349 . S
C1569 C1571 1.327 . S
C1569 H1592 0.950 . S
C1570 C1569 1.349 . S
C1570 C1582 1.349 . S
C1571 C1569 1.327 . S
C1571 C1587 1.429 . S
C1571 H1593 0.950 . S
C1572 H1568 0.949 . S
C1572 C1580 1.574 . S
C1572 C1588 1.368 . S
H1573 C1581 0.950 . S
H1574 C1579 0.950 . S
H1575 C1580 0.949 . S
H1576 C1582 0.950 . S
H1577 C1583 0.950 . S
H1578 C1584 0.949 . S
C1579 H1574 0.950 . S
C1579 C1581 1.327 . S
C1579 C1585 1.429 . S
C1580 C1572 1.574 . S
C1580 H1575 0.949 . S
C1580 C1586 1.368 . S
C1581 C1565 1.349 . S
C1581 H1573 0.950 . S
C1581 C1579 1.327 . S
C1582 C1570 1.349 . S
C1582 H1576 0.950 . S
C1582 C1583 1.327 . S
C1583 H1577 0.950 . S
C1583 C1582 1.327 . S
C1583 C1587 1.429 . S
C1584 C1567 1.574 . S
C1584 H1578 0.949 . S
C1584 C1588 1.368 . S
C1585 C1566 1.429 . S
C1585 C1579 1.429 . S
C1585 C1586 1.523 . S
C1586 C1567 1.368 . S
C1586 C1580 1.368 . S
C1586 C1585 1.523 . S
C1587 C1571 1.429 . S
C1587 C1583 1.429 . S
C1587 C1588 1.523 . S
C1588 C1572 1.368 . S
C1588 C1584 1.368 . S
C1588 C1587 1.523 . S
H1589 C1564 0.950 . S
H1590 C1566 0.950 . S
H1591 C1567 0.949 . S
H1592 C1569 0.950 . S
H1593 C1571 0.950 . S
C1594 C1595 1.349 . S
C1594 C1596 1.327 . S
C1594 H1619 0.950 . S
C1595 C1594 1.349 . S
C1595 C1611 1.349 . S
C1596 C1594 1.327 . S
C1596 C1615 1.429 . S
C1596 H1620 0.950 . S
C1597 C1614 1.574 . S
C1597 C1616 1.368 . S
C1597 H1621 0.949 . S
H1598 C1602 0.949 . S
C1599 C1600 1.349 . S
C1599 C1601 1.327 . S
C1599 H1622 0.950 . S
C1600 C1599 1.349 . S
C1600 C1612 1.349 . S
C1601 C1599 1.327 . S
C1601 C1617 1.429 . S
C1601 H1623 0.950 . S
C1602 H1598 0.949 . S
C1602 C1610 1.574 . S
C1602 C1618 1.368 . S
H1603 C1611 0.950 . S
H1604 C1609 0.950 . S
H1605 C1610 0.949 . S
H1606 C1612 0.950 . S
H1607 C1613 0.950 . S
H1608 C1614 0.949 . S
C1609 H1604 0.950 . S
C1609 C1611 1.327 . S
C1609 C1615 1.429 . S
C1610 C1602 1.574 . S
C1610 H1605 0.949 . S
C1610 C1616 1.368 . S
C1611 C1595 1.349 . S
C1611 H1603 0.950 . S
C1611 C1609 1.327 . S
C1612 C1600 1.349 . S
C1612 H1606 0.950 . S
C1612 C1613 1.327 . S
C1613 H1607 0.950 . S
C1613 C1612 1.327 . S
C1613 C1617 1.429 . S
C1614 C1597 1.574 . S
C1614 H1608 0.949 . S
C1614 C1618 1.368 . S
C1615 C1596 1.429 . S
C1615 C1609 1.429 . S
C1615 C1616 1.523 . S
C1616 C1597 1.368 . S
C1616 C1610 1.368 . S
C1616 C1615 1.523 . S
C1617 C1601 1.429 . S
C1617 C1613 1.429 . S
C1617 C1618 1.523 . S
C1618 C1602 1.368 . S
C1618 C1614 1.368 . S
C1618 C1617 1.523 . S
H1619 C1594 0.950 . S
H1620 C1596 0.950 . S
H1621 C1597 0.949 . S
H1622 C1599 0.950 . S
H1623 C1601 0.950 . S
C1624 C1625 1.349 . S
C1624 C1626 1.327 . S
C1624 H1649 0.950 . S
C1625 C1624 1.349 . S
C1625 C1641 1.349 . S
C1626 C1624 1.327 . S
C1626 C1645 1.429 . S
C1626 H1650 0.950 . S
C1627 C1644 1.574 . S
C1627 C1646 1.368 . S
C1627 H1651 0.949 . S
H1628 C1632 0.949 . S
C1629 C1630 1.349 . S
C1629 C1631 1.327 . S
C1629 H1652 0.950 . S
C1630 C1629 1.349 . S
C1630 C1642 1.349 . S
C1631 C1629 1.327 . S
C1631 C1647 1.429 . S
C1631 H1653 0.950 . S
C1632 H1628 0.949 . S
C1632 C1640 1.574 . S
C1632 C1648 1.368 . S
H1633 C1641 0.950 . S
H1634 C1639 0.950 . S
H1635 C1640 0.949 . S
H1636 C1642 0.950 . S
H1637 C1643 0.950 . S
H1638 C1644 0.949 . S
C1639 H1634 0.950 . S
C1639 C1641 1.327 . S
C1639 C1645 1.429 . S
C1640 C1632 1.574 . S
C1640 H1635 0.949 . S
C1640 C1646 1.368 . S
C1641 C1625 1.349 . S
C1641 H1633 0.950 . S
C1641 C1639 1.327 . S
C1642 C1630 1.349 . S
C1642 H1636 0.950 . S
C1642 C1643 1.327 . S
C1643 H1637 0.950 . S
C1643 C1642 1.327 . S
C1643 C1647 1.429 . S
C1644 C1627 1.574 . S
C1644 H1638 0.949 . S
C1644 C1648 1.368 . S
C1645 C1626 1.429 . S
C1645 C1639 1.429 . S
C1645 C1646 1.523 . S
C1646 C1627 1.368 . S
C1646 C1640 1.368 . S
C1646 C1645 1.523 . S
C1647 C1631 1.429 . S
C1647 C1643 1.429 . S
C1647 C1648 1.523 . S
C1648 C1632 1.368 . S
C1648 C1644 1.368 . S
C1648 C1647 1.523 . S
H1649 C1624 0.950 . S
H1650 C1626 0.950 . S
H1651 C1627 0.949 . S
H1652 C1629 0.950 . S
H1653 C1631 0.950 . S
C1654 C1655 1.349 . S
C1654 C1656 1.327 . S
C1654 H1679 0.950 . S
C1655 C1654 1.349 . S
C1655 C1671 1.349 . S
C1656 C1654 1.327 . S
C1656 C1675 1.429 . S
C1656 H1680 0.950 . S
C1657 C1674 1.574 . S
C1657 C1676 1.368 . S
C1657 H1681 0.949 . S
H1658 C1662 0.949 . S
C1659 C1660 1.349 . S
C1659 C1661 1.327 . S
C1659 H1682 0.950 . S
C1660 C1659 1.349 . S
C1660 C1672 1.349 . S
C1661 C1659 1.327 . S
C1661 C1677 1.429 . S
C1661 H1683 0.950 . S
C1662 H1658 0.949 . S
C1662 C1670 1.574 . S
C1662 C1678 1.368 . S
H1663 C1671 0.950 . S
H1664 C1669 0.950 . S
H1665 C1670 0.949 . S
H1666 C1672 0.950 . S
H1667 C1673 0.950 . S
H1668 C1674 0.949 . S
C1669 H1664 0.950 . S
C1669 C1671 1.327 . S
C1669 C1675 1.429 . S
C1670 C1662 1.574 . S
C1670 H1665 0.949 . S
C1670 C1676 1.368 . S
C1671 C1655 1.349 . S
C1671 H1663 0.950 . S
C1671 C1669 1.327 . S
C1672 C1660 1.349 . S
C1672 H1666 0.950 . S
C1672 C1673 1.327 . S
C1673 H1667 0.950 . S
C1673 C1672 1.327 . S
C1673 C1677 1.429 . S
C1674 C1657 1.574 . S
C1674 H1668 0.949 . S
C1674 C1678 1.368 . S
C1675 C1656 1.429 . S
C1675 C1669 1.429 . S
C1675 C1676 1.523 . S
C1676 C1657 1.368 . S
C1676 C1670 1.368 . S
C1676 C1675 1.523 . S
C1677 C1661 1.429 . S
C1677 C1673 1.429 . S
C1677 C1678 1.523 . S
C1678 C1662 1.368 . S
C1678 C1674 1.368 . S
C1678 C1677 1.523 . S
H1679 C1654 0.950 . S
H1680 C1656 0.950 . S
H1681 C1657 0.949 . S
H1682 C1659 0.950 . S
H1683 C1661 0.950 . S
C1684 C1685 1.349 . S
C1684 C1686 1.327 . S
C1684 H1709 0.950 . S
C1685 C1684 1.349 . S
C1685 C1701 1.349 . S
C1686 C1684 1.327 . S
C1686 C1705 1.429 . S
C1686 H1710 0.950 . S
C1687 C1704 1.574 . S
C1687 C1706 1.368 . S
C1687 H1711 0.949 . S
H1688 C1692 0.949 . S
C1689 C1690 1.349 . S
C1689 C1691 1.327 . S
C1689 H1712 0.950 . S
C1690 C1689 1.349 . S
C1690 C1702 1.349 . S
C1691 C1689 1.327 . S
C1691 C1707 1.429 . S
C1691 H1713 0.950 . S
C1692 H1688 0.949 . S
C1692 C1700 1.574 . S
C1692 C1708 1.368 . S
H1693 C1701 0.950 . S
H1694 C1699 0.950 . S
H1695 C1700 0.949 . S
H1696 C1702 0.950 . S
H1697 C1703 0.950 . S
H1698 C1704 0.949 . S
C1699 H1694 0.950 . S
C1699 C1701 1.327 . S
C1699 C1705 1.429 . S
C1700 C1692 1.574 . S
C1700 H1695 0.949 . S
C1700 C1706 1.368 . S
C1701 C1685 1.349 . S
C1701 H1693 0.950 . S
C1701 C1699 1.327 . S
C1702 C1690 1.349 . S
C1702 H1696 0.950 . S
C1702 C1703 1.327 . S
C1703 H1697 0.950 . S
C1703 C1702 1.327 . S
C1703 C1707 1.429 . S
C1704 C1687 1.574 . S
C1704 H1698 0.949 . S
C1704 C1708 1.368 . S
C1705 C1686 1.429 . S
C1705 C1699 1.429 . S
C1705 C1706 1.523 . S
C1706 C1687 1.368 . S
C1706 C1700 1.368 . S
C1706 C1705 1.523 . S
C1707 C1691 1.429 . S
C1707 C1703 1.429 . S
C1707 C1708 1.523 . S
C1708 C1692 1.368 . S
C1708 C1704 1.368 . S
C1708 C1707 1.523 . S
H1709 C1684 0.950 . S
H1710 C1686 0.950 . S
H1711 C1687 0.949 . S
H1712 C1689 0.950 . S
H1713 C1691 0.950 . S
C1714 C1715 1.349 . S
C1714 C1716 1.327 . S
C1714 H1739 0.950 . S
C1715 C1714 1.349 . S
C1715 C1731 1.349 . S
C1716 C1714 1.327 . S
C1716 C1735 1.429 . S
C1716 H1740 0.950 . S
C1717 C1734 1.574 . S
C1717 C1736 1.368 . S
C1717 H1741 0.949 . S
H1718 C1722 0.949 . S
C1719 C1720 1.349 . S
C1719 C1721 1.327 . S
C1719 H1742 0.950 . S
C1720 C1719 1.349 . S
C1720 C1732 1.349 . S
C1721 C1719 1.327 . S
C1721 C1737 1.429 . S
C1721 H1743 0.950 . S
C1722 H1718 0.949 . S
C1722 C1730 1.574 . S
C1722 C1738 1.368 . S
H1723 C1731 0.950 . S
H1724 C1729 0.950 . S
H1725 C1730 0.949 . S
H1726 C1732 0.950 . S
H1727 C1733 0.950 . S
H1728 C1734 0.949 . S
C1729 H1724 0.950 . S
C1729 C1731 1.327 . S
C1729 C1735 1.429 . S
C1730 C1722 1.574 . S
C1730 H1725 0.949 . S
C1730 C1736 1.368 . S
C1731 C1715 1.349 . S
C1731 H1723 0.950 . S
C1731 C1729 1.327 . S
C1732 C1720 1.349 . S
C1732 H1726 0.950 . S
C1732 C1733 1.327 . S
C1733 H1727 0.950 . S
C1733 C1732 1.327 . S
C1733 C1737 1.429 . S
C1734 C1717 1.574 . S
C1734 H1728 0.949 . S
C1734 C1738 1.368 . S
C1735 C1716 1.429 . S
C1735 C1729 1.429 . S
C1735 C1736 1.523 . S
C1736 C1717 1.368 . S
C1736 C1730 1.368 . S
C1736 C1735 1.523 . S
C1737 C1721 1.429 . S
C1737 C1733 1.429 . S
C1737 C1738 1.523 . S
C1738 C1722 1.368 . S
C1738 C1734 1.368 . S
C1738 C1737 1.523 . S
H1739 C1714 0.950 . S
H1740 C1716 0.950 . S
H1741 C1717 0.949 . S
H1742 C1719 0.950 . S
H1743 C1721 0.950 . S
C790 C535 1.369 . S
C785 C35 1.248 . S
C820 C572 1.350 . S
C815 C115 1.255 . S
C850 C608 1.378 . S
C845 C177 1.276 . S
C875 C221 1.269 . S
C880 C499 1.398 . S
C905 C283 1.266 . S
C910 C500 1.378 . S
C935 C363 1.255 . S
C940 C536 1.350 . S
C970 C571 1.369 . S
C965 C407 1.248 . S
C1000 C607 1.398 . S
C995 C469 1.269 . S
C1025 C159 1.248 . S
C1030 C679 1.369 . S
C1060 C716 1.350 . S
C1055 C239 1.255 . S
C1085 C53 1.275 . S
C1090 C752 1.378 . S
C1120 C643 1.398 . S
C1115 C97 1.269 . S
C1145 C425 1.276 . S
C1150 C644 1.378 . S
C1175 C487 1.255 . S
C1180 C680 1.349 . S
C1210 C715 1.363 1_556 S
C1205 C301 1.258 . S
C1235 C345 1.269 . S
C1240 C751 1.398 . S
C1270 C570 1.865 . S
C1265 C29 1.838 . S
C1300 C606 1.845 . S
C1295 C109 1.786 . S
C1325 C171 1.731 . S
C1330 C510 1.661 . S
C1355 C215 1.782 . S
C1360 C546 1.681 . S
C1385 C277 1.761 . S
C1390 C618 1.662 . S
C1420 C498 1.846 . S
C1415 C357 1.787 . S
C1450 C534 1.865 . S
C1445 C401 1.838 . S
C1480 C582 1.682 . S
C1475 C463 1.782 . S
C1510 C714 1.865 . S
C1505 C153 1.838 . S
C1540 C750 1.845 . S
C1535 C233 1.786 . S
C1565 C47 1.731 . S
C1570 C654 1.662 . S
C1600 C690 1.681 . S
C1595 C91 1.781 . S
C1630 C762 1.662 . S
C1625 C419 1.731 . S
C1655 C481 1.786 . S
C1660 C642 1.845 . S
C1690 C678 1.865 . S
C1685 C295 1.809 . S
C1720 C726 1.682 . S
C1715 C339 1.782 . S
