# Generated by pormake.
# Topology nom, (4,4)-cn, num edge types: 1
# Building blocks:
#     Node 0, Type 0, BuildingBlock: NAHDIM_clean_linker_0, # of connection points: 4
#     Node 1, Type 0, BuildingBlock: NAHDIM_clean_linker_0, # of connection points: 4
#     Node 2, Type 0, BuildingBlock: NAHDIM_clean_linker_0, # of connection points: 4
#     Node 3, Type 0, BuildingBlock: NAHDIM_clean_linker_0, # of connection points: 4
#     Node 4, Type 0, BuildingBlock: NAHDIM_clean_linker_0, # of connection points: 4
#     Node 5, Type 0, BuildingBlock: NAHDIM_clean_linker_0, # of connection points: 4
#     Node 6, Type 1, BuildingBlock: AZAVOO_clean_sbu_0, # of connection points: 4
#     Node 7, Type 1, BuildingBlock: AZAVOO_clean_sbu_0, # of connection points: 4
#     Node 8, Type 1, BuildingBlock: AZAVOO_clean_sbu_0, # of connection points: 4
#     Node 9, Type 1, BuildingBlock: AZAVOO_clean_sbu_0, # of connection points: 4
#     Node 10, Type 1, BuildingBlock: AZAVOO_clean_sbu_0, # of connection points: 4
#     Node 11, Type 1, BuildingBlock: AZAVOO_clean_sbu_0, # of connection points: 4
#     Edge 12, Type (0, 1), BuildingBlock: XIVTED_clean_linker_0, # of connection points: 2
#     Edge 13, Type (0, 1), BuildingBlock: XIVTED_clean_linker_0, # of connection points: 2
#     Edge 14, Type (0, 1), BuildingBlock: XIVTED_clean_linker_0, # of connection points: 2
#     Edge 15, Type (0, 1), BuildingBlock: XIVTED_clean_linker_0, # of connection points: 2
#     Edge 16, Type (0, 1), BuildingBlock: XIVTED_clean_linker_0, # of connection points: 2
#     Edge 17, Type (0, 1), BuildingBlock: XIVTED_clean_linker_0, # of connection points: 2
#     Edge 18, Type (0, 1), BuildingBlock: XIVTED_clean_linker_0, # of connection points: 2
#     Edge 19, Type (0, 1), BuildingBlock: XIVTED_clean_linker_0, # of connection points: 2
#     Edge 20, Type (0, 1), BuildingBlock: XIVTED_clean_linker_0, # of connection points: 2
#     Edge 21, Type (0, 1), BuildingBlock: XIVTED_clean_linker_0, # of connection points: 2
#     Edge 22, Type (0, 1), BuildingBlock: XIVTED_clean_linker_0, # of connection points: 2
#     Edge 23, Type (0, 1), BuildingBlock: XIVTED_clean_linker_0, # of connection points: 2
#     Edge 24, Type (0, 1), BuildingBlock: XIVTED_clean_linker_0, # of connection points: 2
#     Edge 25, Type (0, 1), BuildingBlock: XIVTED_clean_linker_0, # of connection points: 2
#     Edge 26, Type (0, 1), BuildingBlock: XIVTED_clean_linker_0, # of connection points: 2
#     Edge 27, Type (0, 1), BuildingBlock: XIVTED_clean_linker_0, # of connection points: 2
#     Edge 28, Type (0, 1), BuildingBlock: XIVTED_clean_linker_0, # of connection points: 2
#     Edge 29, Type (0, 1), BuildingBlock: XIVTED_clean_linker_0, # of connection points: 2
#     Edge 30, Type (0, 1), BuildingBlock: XIVTED_clean_linker_0, # of connection points: 2
#     Edge 31, Type (0, 1), BuildingBlock: XIVTED_clean_linker_0, # of connection points: 2
#     Edge 32, Type (0, 1), BuildingBlock: XIVTED_clean_linker_0, # of connection points: 2
#     Edge 33, Type (0, 1), BuildingBlock: XIVTED_clean_linker_0, # of connection points: 2
#     Edge 34, Type (0, 1), BuildingBlock: XIVTED_clean_linker_0, # of connection points: 2
#     Edge 35, Type (0, 1), BuildingBlock: XIVTED_clean_linker_0, # of connection points: 2
# Relax obj value: 0.096
# Max RMSD: 0.170
# Mean RMSD: 0.147
data_MOF--net-nom--node1-AZAVOO_clean_sbu_0--node2-NAHDIM_clean_linker_0--edge1-XIVTED_clean_linker_0
_symmetry_space_group_name_H-M    P1
_symmetry_Int_Tables_number       1
_symmetry_cell_setting            triclinic
loop_
_symmetry_equiv_pos_as_xyz
'x, y, z'
_cell_length_a     57.774809
_cell_length_b     58.386566
_cell_length_c     68.463134
_cell_angle_alpha  90.899697
_cell_angle_beta   90.985269
_cell_angle_gamma 120.00919
loop_
_atom_site_label
_atom_site_type_symbol
_atom_site_fract_x
_atom_site_fract_y
_atom_site_fract_z
_atom_type_partial_charge
C0 C 0.13244 0.60614 0.23317 0.0
C1 C 0.1477 0.60746 0.25207 0.0
C2 C 0.11283 0.59523 0.27578 0.0
C3 C 0.1067 0.56932 0.27976 0.0
C4 C 0.08166 0.55098 0.28686 0.0
C5 C 0.06238 0.55874 0.28998 0.0
C6 C 0.06886 0.58512 0.28663 0.0
C7 C 0.09424 0.60317 0.27982 0.0
C8 C 0.07563 0.52318 0.29076 0.0
C9 C 0.04875 0.59403 0.28977 0.0
C10 C 0.94794 0.42422 0.20022 0.0
C11 C 0.93951 0.44527 0.2014 0.0
C12 C 0.94223 0.45786 0.23537 0.0
C13 C 0.94522 0.4826 0.23995 0.0
C14 C 0.9605 0.49733 0.25646 0.0
C15 C 0.97316 0.48701 0.26845 0.0
C16 C 0.9698 0.46175 0.26392 0.0
C17 C 0.95392 0.44725 0.24758 0.0
C18 C 0.96342 0.52405 0.26093 0.0
C19 C 0.98332 0.45027 0.27614 0.0
C20 C 0.8779 0.42832 0.37513 0.0
C21 C 0.88357 0.45356 0.36947 0.0
C22 C 0.90999 0.4736 0.36663 0.0
C23 C 0.93107 0.46808 0.36916 0.0
C24 C 0.92548 0.443 0.37575 0.0
C25 C 0.89889 0.42352 0.37893 0.0
C26 C 0.91529 0.50045 0.36041 0.0
C27 C 0.94748 0.43652 0.37876 0.0
C28 C 0.11306 0.63765 0.42985 0.0
C29 C 0.10249 0.60785 0.43058 0.0
C30 C 0.05708 0.57696 0.41897 0.0
C31 C 0.03528 0.57929 0.41267 0.0
C32 C 0.01712 0.56186 0.39833 0.0
C33 C 0.02042 0.54101 0.3907 0.0
C34 C 0.04152 0.53754 0.39805 0.0
C35 C 0.05991 0.55585 0.41193 0.0
C36 C 0.9948 0.56613 0.391 0.0
C37 C 0.0449 0.5148 0.391 0.0
C38 C 0.03502 0.53883 0.29572 0.0
C39 C 0.01694 0.52284 0.28091 0.0
C40 C 0.99098 0.50321 0.2851 0.0
C41 C 0.9827 0.49926 0.30468 0.0
C42 C 0.95675 0.47968 0.30945 0.0
C43 C 0.94893 0.47573 0.32879 0.0
C44 C 0.96659 0.49153 0.34409 0.0
C45 C 0.95864 0.48798 0.36378 0.0
C46 C 0.97674 0.50396 0.37862 0.0
C47 C 0.00263 0.52379 0.37437 0.0
C48 C 0.01089 0.52775 0.35475 0.0
C49 C 0.03667 0.54772 0.34989 0.0
C50 C 0.04472 0.55123 0.33061 0.0
C51 C 0.0271 0.53531 0.31537 0.0
C52 C 0.00087 0.51535 0.31987 0.0
C53 C 0.9928 0.51149 0.3396 0.0
C54 C 0.81743 0.37378 0.35706 0.0
C55 C 0.83168 0.40302 0.36351 0.0
O56 O 0.13635 0.6129 0.26788 0.0
O57 O 0.07493 0.59521 0.43202 0.0
O58 O 0.85238 0.40815 0.37662 0.0
O59 O 0.92792 0.44421 0.21918 0.0
H60 H 0.14667 0.58808 0.25375 0.0
H61 H 0.11136 0.58986 0.23377 0.0
H62 H 0.13258 0.62505 0.23109 0.0
H63 H 0.14163 0.60216 0.22038 0.0
H64 H 0.12144 0.56335 0.27747 0.0
H65 H 0.09933 0.62333 0.27692 0.0
H66 H 0.05984 0.50914 0.28025 0.0
H67 H 0.09352 0.52093 0.28934 0.0
H68 H 0.06786 0.51758 0.3057 0.0
H69 H 0.0567 0.61507 0.28604 0.0
H70 H 0.03041 0.5815 0.28068 0.0
H71 H 0.04288 0.59153 0.30528 0.0
H72 H 0.95768 0.46512 0.19997 0.0
H73 H 0.95585 0.42392 0.1856 0.0
H74 H 0.96412 0.42878 0.21119 0.0
H75 H 0.93066 0.40431 0.20294 0.0
H76 H 0.93577 0.49041 0.23046 0.0
H77 H 0.95089 0.42775 0.24413 0.0
H78 H 0.95911 0.52552 0.2765 0.0
H79 H 0.98436 0.53974 0.25854 0.0
H80 H 0.94989 0.52789 0.25156 0.0
H81 H 0.9806 0.43149 0.26965 0.0
H82 H 0.00506 0.46467 0.27779 0.0
H83 H 0.97496 0.44633 0.29098 0.0
H84 H 0.83977 0.41425 0.3499 0.0
H85 H 0.86736 0.45755 0.36715 0.0
H86 H 0.89428 0.40405 0.38355 0.0
H87 H 0.92128 0.5033 0.34493 0.0
H88 H 0.89739 0.5027 0.36178 0.0
H89 H 0.93203 0.5163 0.36936 0.0
H90 H 0.93974 0.41588 0.38347 0.0
H91 H 0.95833 0.43934 0.36497 0.0
H92 H 0.96212 0.45027 0.39002 0.0
H93 H 0.10814 0.60179 0.41676 0.0
H94 H 0.13495 0.64864 0.42754 0.0
H95 H 0.10312 0.64184 0.4175 0.0
H96 H 0.10886 0.64501 0.44365 0.0
H97 H 0.03313 0.59546 0.41852 0.0
H98 H 0.07639 0.55365 0.41738 0.0
H99 H 0.9949 0.56706 0.37481 0.0
H100 H 0.97527 0.54917 0.39505 0.0
H101 H 0.99642 0.58459 0.3972 0.0
H102 H 0.05912 0.51218 0.40054 0.0
H103 H 0.02534 0.4961 0.39044 0.0
H104 H 0.05267 0.51856 0.37599 0.0
H105 H 0.02322 0.52562 0.26586 0.0
H106 H 0.94223 0.46708 0.29829 0.0
H107 H 0.92879 0.46016 0.33156 0.0
H108 H 0.97044 0.5012 0.39366 0.0
H109 H 0.05103 0.56083 0.36093 0.0
H110 H 0.06488 0.56672 0.32778 0.0
H111 H 0.80029 0.36911 0.34695 0.0
H112 H 0.83157 0.36945 0.34925 0.0
H113 H 0.81006 0.36074 0.36982 0.0
C114 C 0.42321 0.88305 0.5775 0.0
C115 C 0.42325 0.86896 0.55842 0.0
C116 C 0.43513 0.90449 0.53568 0.0
C117 C 0.46208 0.9125 0.53269 0.0
C118 C 0.47992 0.93813 0.52658 0.0
C119 C 0.47062 0.9561 0.52352 0.0
C120 C 0.44325 0.94776 0.52589 0.0
C121 C 0.42575 0.92184 0.53166 0.0
C122 C 0.50881 0.94615 0.52365 0.0
C123 C 0.43264 0.96643 0.52285 0.0
C124 C 0.57762 0.10909 0.63208 0.0
C125 C 0.56045 0.08886 0.61707 0.0
C126 C 0.56031 0.07654 0.583 0.0
C127 C 0.53316 0.06734 0.57869 0.0
C128 C 0.52076 0.05233 0.56158 0.0
C129 C 0.53554 0.0455 0.54884 0.0
C130 C 0.56285 0.05446 0.55327 0.0
C131 C 0.57504 0.0705 0.57005 0.0
C132 C 0.49174 0.0436 0.55726 0.0
C133 C 0.57908 0.04678 0.54051 0.0
C134 C 0.5963 0.14773 0.44793 0.0
C135 C 0.56993 0.1412 0.45184 0.0
C136 C 0.54964 0.11464 0.45287 0.0
C137 C 0.55598 0.09433 0.45013 0.0
C138 C 0.5822 0.1009 0.44509 0.0
C139 C 0.60197 0.12759 0.44385 0.0
C140 C 0.52167 0.10827 0.45758 0.0
C141 C 0.58958 0.07976 0.44178 0.0
C142 C 0.40676 0.8984 0.40215 0.0
C143 C 0.4327 0.9155 0.39144 0.0
C144 C 0.45403 0.9625 0.39958 0.0
C145 C 0.44563 0.97937 0.4072 0.0
C146 C 0.46231 0.0004 0.42011 0.0
C147 C 0.48807 0.00472 0.42515 0.0
C148 C 0.49754 0.98921 0.416 0.0
C149 C 0.48038 0.96822 0.40325 0.0
C150 C 0.45183 0.01696 0.42928 0.0
C151 C 0.52525 0.99391 0.42054 0.0
C152 C 0.48976 0.98398 0.51886 0.0
C153 C 0.50436 0.00136 0.53438 0.0
C154 C 0.52198 0.02817 0.53137 0.0
C155 C 0.52547 0.03801 0.51225 0.0
C156 C 0.54276 0.0649 0.50866 0.0
C157 C 0.54649 0.07423 0.48974 0.0
C158 C 0.53246 0.05719 0.4737 0.0
C159 C 0.53604 0.06652 0.4544 0.0
C160 C 0.52134 0.04915 0.43883 0.0
C161 C 0.50329 0.02247 0.44204 0.0
C162 C 0.49986 0.01268 0.46118 0.0
C163 C 0.48221 0.98582 0.46483 0.0
C164 C 0.47903 0.97633 0.48367 0.0
C165 C 0.49314 0.99336 0.49963 0.0
C166 C 0.51107 0.02048 0.49632 0.0
C167 C 0.51445 0.03014 0.47705 0.0
C168 C 0.64678 0.21028 0.46802 0.0
C169 C 0.61846 0.19405 0.45919 0.0
O170 O 0.41782 0.88033 0.54265 0.0
O171 O 0.43615 0.94057 0.38914 0.0
O172 O 0.61679 0.17313 0.44816 0.0
O173 O 0.57283 0.09113 0.59947 0.0
H174 H 0.44327 0.87085 0.55707 0.0
H175 H 0.43921 0.90415 0.57746 0.0
H176 H 0.40367 0.88212 0.57919 0.0
H177 H 0.42708 0.87374 0.59023 0.0
H178 H 0.46925 0.89879 0.53499 0.0
H179 H 0.40483 0.91532 0.5338 0.0
H180 H 0.52159 0.96132 0.53495 0.0
H181 H 0.51231 0.92914 0.52465 0.0
H182 H 0.5152 0.95517 0.50915 0.0
H183 H 0.41115 0.95729 0.5263 0.0
H184 H 0.44425 0.98457 0.53218 0.0
H185 H 0.43514 0.97257 0.50741 0.0
H186 H 0.54882 0.06811 0.6221 0.0
H187 H 0.55725 0.13284 0.63649 0.0
H188 H 0.58018 0.09774 0.64432 0.0
H189 H 0.59892 0.11796 0.62717 0.0
H190 H 0.52154 0.07204 0.58846 0.0
H191 H 0.59598 0.07769 0.57349 0.0
H192 H 0.48865 0.04673 0.54168 0.0
H193 H 0.47928 0.02214 0.55995 0.0
H194 H 0.48456 0.05438 0.5666 0.0
H195 H 0.59828 0.05128 0.5478 0.0
H196 H 0.56759 0.02534 0.53655 0.0
H197 H 0.58368 0.05787 0.52677 0.0
H198 H 0.60474 0.18655 0.4717 0.0
H199 H 0.5652 0.15675 0.45425 0.0
H200 H 0.62228 0.13289 0.44048 0.0
H201 H 0.51708 0.10065 0.47261 0.0
H202 H 0.51916 0.1259 0.45671 0.0
H203 H 0.50692 0.09253 0.44739 0.0
H204 H 0.61088 0.08816 0.43796 0.0
H205 H 0.58586 0.06805 0.45517 0.0
H206 H 0.57679 0.06597 0.42979 0.0
H207 H 0.44899 0.91621 0.40084 0.0
H208 H 0.40317 0.87793 0.40348 0.0
H209 H 0.40837 0.90686 0.4171 0.0
H210 H 0.38936 0.89768 0.39439 0.0
H211 H 0.42544 0.97513 0.40387 0.0
H212 H 0.48734 0.95593 0.39652 0.0
H213 H 0.44899 0.01288 0.44511 0.0
H214 H 0.4666 0.03831 0.42792 0.0
H215 H 0.43246 0.01278 0.42248 0.0
H216 H 0.53069 0.9822 0.41063 0.0
H217 H 0.5402 0.01523 0.41934 0.0
H218 H 0.52632 0.98833 0.43582 0.0
H219 H 0.50163 0.99398 0.54911 0.0
H220 H 0.5538 0.07904 0.52042 0.0
H221 H 0.5604 0.09506 0.48792 0.0
H222 H 0.52412 0.05642 0.42408 0.0
H223 H 0.47066 0.97172 0.45318 0.0
H224 H 0.4653 0.95546 0.48556 0.0
H225 H 0.66174 0.21821 0.45635 0.0
H226 H 0.64862 0.22705 0.47717 0.0
H227 H 0.6513 0.19761 0.47744 0.0
C228 C 0.59552 0.44208 0.71465 0.0
C229 C 0.58279 0.42457 0.69618 0.0
C230 C 0.55092 0.43885 0.68626 0.0
C231 C 0.57003 0.46396 0.67983 0.0
C232 C 0.56259 0.48255 0.6746 0.0
C233 C 0.5355 0.47584 0.67564 0.0
C234 C 0.51609 0.45033 0.68146 0.0
C235 C 0.52409 0.43213 0.68664 0.0
C236 C 0.58374 0.5096 0.66834 0.0
C237 C 0.48701 0.44253 0.68256 0.0
C238 C 0.56912 0.58087 0.78648 0.0
C239 C 0.54416 0.57434 0.77411 0.0
C240 C 0.54272 0.57628 0.73852 0.0
C241 C 0.51689 0.5546 0.73513 0.0
C242 C 0.50929 0.54152 0.71678 0.0
C243 C 0.5279 0.55033 0.70161 0.0
C244 C 0.5531 0.57353 0.70455 0.0
C245 C 0.56004 0.5864 0.72298 0.0
C246 C 0.48195 0.51735 0.71395 0.0
C247 C 0.57341 0.58364 0.68868 0.0
C248 C 0.46654 0.60444 0.60114 0.0
C249 C 0.44819 0.57927 0.60781 0.0
C250 C 0.45541 0.55977 0.60985 0.0
C251 C 0.48163 0.5657 0.60536 0.0
C252 C 0.49983 0.59073 0.59795 0.0
C253 C 0.49188 0.60969 0.5957 0.0
C254 C 0.43516 0.53297 0.61711 0.0
C255 C 0.52787 0.59767 0.59286 0.0
C256 C 0.5208 0.41493 0.55586 0.0
C257 C 0.53157 0.441 0.54513 0.0
C258 C 0.5072 0.46381 0.55238 0.0
C259 C 0.48183 0.4559 0.55946 0.0
C260 C 0.4779 0.47216 0.57273 0.0
C261 C 0.49987 0.49698 0.57869 0.0
C262 C 0.525 0.50604 0.57011 0.0
C263 C 0.52839 0.48933 0.557 0.0
C264 C 0.45076 0.46214 0.58135 0.0
C265 C 0.54865 0.53275 0.57568 0.0
C266 C 0.52776 0.49599 0.6716 0.0
C267 C 0.52942 0.51254 0.68709 0.0
C268 C 0.5233 0.53261 0.68443 0.0
C269 C 0.51462 0.53598 0.66581 0.0
C270 C 0.50765 0.5555 0.66264 0.0
C271 C 0.49954 0.55881 0.64411 0.0
C272 C 0.49822 0.54277 0.62804 0.0
C273 C 0.49023 0.54606 0.60909 0.0
C274 C 0.49037 0.53058 0.59331 0.0
C275 C 0.4979 0.5115 0.59599 0.0
C276 C 0.5048 0.50714 0.61494 0.0
C277 C 0.51155 0.48742 0.61821 0.0
C278 C 0.51877 0.48353 0.63678 0.0
C279 C 0.51985 0.49941 0.65277 0.0
C280 C 0.51311 0.5194 0.64988 0.0
C281 C 0.50525 0.52304 0.63095 0.0
C282 C 0.45608 0.65682 0.61792 0.0
C283 C 0.44349 0.62749 0.61209 0.0
O284 O 0.5574 0.42073 0.69252 0.0
O285 O 0.51097 0.44626 0.54165 0.0
O286 O 0.46057 0.62413 0.59996 0.0
O287 O 0.55188 0.58739 0.75661 0.0
H288 H 0.59556 0.43409 0.68347 0.0
H289 H 0.59827 0.4621 0.7127 0.0
H290 H 0.58267 0.4332 0.72741 0.0
H291 H 0.61551 0.44438 0.71785 0.0
H292 H 0.59083 0.4694 0.67908 0.0
H293 H 0.50946 0.41266 0.69144 0.0
H294 H 0.58522 0.52485 0.67899 0.0
H295 H 0.60372 0.51133 0.66735 0.0
H296 H 0.57802 0.51394 0.65389 0.0
H297 H 0.47425 0.42167 0.68687 0.0
H298 H 0.4848 0.45567 0.69334 0.0
H299 H 0.47966 0.44518 0.66815 0.0
H300 H 0.53336 0.55248 0.77151 0.0
H301 H 0.56337 0.57086 0.80071 0.0
H302 H 0.58118 0.57379 0.77868 0.0
H303 H 0.58177 0.60255 0.78924 0.0
H304 H 0.50288 0.54744 0.74689 0.0
H305 H 0.57971 0.60352 0.72566 0.0
H306 H 0.47297 0.51765 0.69954 0.0
H307 H 0.48386 0.49936 0.71413 0.0
H308 H 0.46823 0.51592 0.72564 0.0
H309 H 0.59159 0.60264 0.69299 0.0
H310 H 0.57945 0.56877 0.68519 0.0
H311 H 0.56443 0.58656 0.67516 0.0
H312 H 0.44129 0.61705 0.62603 0.0
H313 H 0.42822 0.57476 0.61143 0.0
H314 H 0.50576 0.62906 0.59031 0.0
H315 H 0.44125 0.5305 0.63204 0.0
H316 H 0.41479 0.53041 0.61766 0.0
H317 H 0.43441 0.51706 0.60754 0.0
H318 H 0.54011 0.61853 0.58841 0.0
H319 H 0.53795 0.59443 0.6056 0.0
H320 H 0.52705 0.58448 0.58069 0.0
H321 H 0.54735 0.45641 0.55505 0.0
H322 H 0.53679 0.40985 0.558 0.0
H323 H 0.51383 0.41701 0.57046 0.0
H324 H 0.50363 0.39848 0.54765 0.0
H325 H 0.46547 0.43634 0.55545 0.0
H326 H 0.54776 0.49589 0.55077 0.0
H327 H 0.45176 0.45813 0.59705 0.0
H328 H 0.44479 0.47747 0.58044 0.0
H329 H 0.43516 0.44369 0.57382 0.0
H330 H 0.56581 0.5382 0.56602 0.0
H331 H 0.54288 0.54824 0.57498 0.0
H332 H 0.55522 0.53249 0.59097 0.0
H333 H 0.53611 0.51009 0.70142 0.0
H334 H 0.5084 0.5684 0.67448 0.0
H335 H 0.49451 0.57424 0.64252 0.0
H336 H 0.48482 0.5336 0.57876 0.0
H337 H 0.51128 0.47465 0.60646 0.0
H338 H 0.52372 0.46805 0.63841 0.0
H339 H 0.46047 0.6692 0.60484 0.0
H340 H 0.44245 0.66002 0.62739 0.0
H341 H 0.47515 0.66341 0.62625 0.0
C342 C 0.14435 0.54913 0.917 0.0
C343 C 0.15857 0.56333 0.89857 0.0
C344 C 0.12234 0.54769 0.87381 0.0
C345 C 0.11962 0.57021 0.87238 0.0
C346 C 0.09626 0.56829 0.86418 0.0
C347 C 0.07515 0.54334 0.85746 0.0
C348 C 0.07828 0.52078 0.85832 0.0
C349 C 0.10212 0.52347 0.86613 0.0
C350 C 0.09397 0.59287 0.86297 0.0
C351 C 0.05641 0.49368 0.85138 0.0
C352 C 0.92743 0.48292 0.96108 0.0
C353 C 0.94545 0.48786 0.94459 0.0
C354 C 0.96172 0.51384 0.91541 0.0
C355 C 0.96579 0.49496 0.90543 0.0
C356 C 0.97861 0.50054 0.88758 0.0
C357 C 0.98841 0.52587 0.87966 0.0
C358 C 0.98389 0.54481 0.88932 0.0
C359 C 0.97023 0.53839 0.90701 0.0
C360 C 0.98286 0.47963 0.87774 0.0
C361 C 0.99428 0.57203 0.88131 0.0
C362 C 0.88208 0.48497 0.7726 0.0
C363 C 0.8885 0.46722 0.7814 0.0
C364 C 0.91522 0.4741 0.7849 0.0
C365 C 0.93592 0.49955 0.77996 0.0
C366 C 0.92952 0.51715 0.77052 0.0
C367 C 0.9026 0.50942 0.7667 0.0
C368 C 0.92125 0.45425 0.79409 0.0
C369 C 0.95107 0.5443 0.76483 0.0
C370 C 0.11249 0.49611 0.72542 0.0
C371 C 0.0977 0.51135 0.72188 0.0
C372 C 0.05341 0.49853 0.73329 0.0
C373 C 0.03306 0.47741 0.74297 0.0
C374 C 0.01682 0.48149 0.75589 0.0
C375 C 0.02068 0.50728 0.75867 0.0
C376 C 0.03987 0.52834 0.74769 0.0
C377 C 0.05625 0.52379 0.73521 0.0
C378 C 0.99625 0.45846 0.76713 0.0
C379 C 0.04372 0.55581 0.74971 0.0
C380 C 0.04892 0.54034 0.85151 0.0
C381 C 0.03245 0.53954 0.86647 0.0
C382 C 0.00602 0.53302 0.86263 0.0
C383 C 0.99594 0.52847 0.84315 0.0
C384 C 0.96961 0.5224 0.83872 0.0
C385 C 0.95945 0.5166 0.81957 0.0
C386 C 0.97494 0.51571 0.80424 0.0
C387 C 0.96418 0.50786 0.78497 0.0
C388 C 0.97986 0.50628 0.77026 0.0
C389 C 0.00618 0.51243 0.77423 0.0
C390 C 0.01756 0.52105 0.79326 0.0
C391 C 0.04416 0.52783 0.79766 0.0
C392 C 0.05481 0.53516 0.8166 0.0
C393 C 0.03903 0.53516 0.83196 0.0
C394 C 0.01239 0.52912 0.82778 0.0
C395 C 0.00174 0.52231 0.80836 0.0
C396 C 0.81752 0.47625 0.78354 0.0
C397 C 0.83559 0.46414 0.78199 0.0
O398 O 0.14427 0.54854 0.88211 0.0
O399 O 0.07043 0.49408 0.72265 0.0
O400 O 0.85637 0.47919 0.76975 0.0
O401 O 0.95014 0.50912 0.93318 0.0
H402 H 0.16016 0.58309 0.89877 0.0
H403 H 0.12423 0.54721 0.91733 0.0
H404 H 0.14191 0.52901 0.91731 0.0
H405 H 0.15594 0.56063 0.93028 0.0
H406 H 0.13568 0.58936 0.87739 0.0
H407 H 0.10471 0.50635 0.86693 0.0
H408 H 0.07993 0.59223 0.87411 0.0
H409 H 0.11355 0.61122 0.86562 0.0
H410 H 0.08576 0.59376 0.84839 0.0
H411 H 0.05949 0.47771 0.85719 0.0
H412 H 0.03646 0.49 0.85573 0.0
H413 H 0.05628 0.49236 0.83519 0.0
H414 H 0.96375 0.48661 0.94792 0.0
H415 H 0.8911 0.44404 0.95266 0.0
H416 H 0.94017 0.48591 0.97462 0.0
H417 H 0.92639 0.50154 0.96368 0.0
H418 H 0.9594 0.47583 0.91157 0.0
H419 H 0.96695 0.55284 0.91469 0.0
H420 H 0.97928 0.47889 0.8617 0.0
H421 H 0.00387 0.48458 0.88045 0.0
H422 H 0.96955 0.45964 0.88348 0.0
H423 H 0.98819 0.58418 0.89011 0.0
H424 H 0.01646 0.5824 0.88108 0.0
H425 H 0.98684 0.57041 0.866 0.0
H426 H 0.84366 0.46511 0.79709 0.0
H427 H 0.87272 0.44793 0.78548 0.0
H428 H 0.89742 0.52283 0.75969 0.0
H429 H 0.92826 0.4605 0.80947 0.0
H430 H 0.90338 0.43411 0.79404 0.0
H431 H 0.93744 0.45332 0.78626 0.0
H432 H 0.94271 0.55625 0.75873 0.0
H433 H 0.96413 0.55508 0.77777 0.0
H434 H 0.9638 0.54236 0.75372 0.0
H435 H 0.10451 0.52656 0.73397 0.0
H436 H 0.13443 0.50955 0.72454 0.0
H437 H 0.10819 0.48769 0.74023 0.0
H438 H 0.10603 0.47956 0.71454 0.0
H439 H 0.0308 0.45792 0.74109 0.0
H440 H 0.07145 0.54 0.72715 0.0
H441 H 7e-05 0.4629 0.78308 0.0
H442 H 0.97602 0.45531 0.76359 0.0
H443 H 0.99633 0.43983 0.76372 0.0
H444 H 0.05681 0.56909 0.73832 0.0
H445 H 0.02409 0.55495 0.74876 0.0
H446 H 0.05296 0.56451 0.76428 0.0
H447 H 0.03974 0.54219 0.88153 0.0
H448 H 0.9566 0.52208 0.85004 0.0
H449 H 0.93907 0.51218 0.81702 0.0
H450 H 0.97121 0.49941 0.75568 0.0
H451 H 0.05707 0.52743 0.78656 0.0
H452 H 0.0754 0.54021 0.81914 0.0
H453 H 0.80954 0.47735 0.76892 0.0
H454 H 0.80053 0.46429 0.79315 0.0
H455 H 0.82912 0.49662 0.78998 0.0
C456 C 0.47161 0.88845 0.90565 0.0
C457 C 0.44937 0.87346 0.92016 0.0
C458 C 0.46285 0.90564 0.94677 0.0
C459 C 0.44226 0.91171 0.94673 0.0
C460 C 0.44716 0.93669 0.95322 0.0
C461 C 0.47328 0.95602 0.95967 0.0
C462 C 0.49387 0.9495 0.96041 0.0
C463 C 0.48815 0.9241 0.9543 0.0
C464 C 0.42456 0.94263 0.95272 0.0
C465 C 0.52207 0.96932 0.96721 0.0
C466 C 0.56176 0.10856 0.85588 0.0
C467 C 0.55611 0.09301 0.87371 0.0
C468 C 0.52326 0.07302 0.89904 0.0
C469 C 0.53828 0.06433 0.90975 0.0
C470 C 0.52841 0.04984 0.92667 0.0
C471 C 0.50249 0.04294 0.93277 0.0
C472 C 0.48696 0.05107 0.92187 0.0
C473 C 0.49776 0.0664 0.90526 0.0
C474 C 0.54564 0.04138 0.93772 0.0
C475 C 0.45896 0.04331 0.92763 0.0
C476 C 0.53621 0.15451 0.03416 0.0
C477 C 0.55499 0.14777 0.02759 0.0
C478 C 0.54838 0.12121 0.02569 0.0
C479 C 0.52225 0.101 0.03003 0.0
C480 C 0.50363 0.10778 0.03734 0.0
C481 C 0.51103 0.13454 0.03956 0.0
C482 C 0.56918 0.1148 0.01869 0.0
C483 C 0.47572 0.08675 0.04233 0.0
C484 C 0.52538 0.92827 0.08673 0.0
C485 C 0.50978 0.94241 0.09144 0.0
C486 C 0.52272 0.98662 0.08127 0.0
C487 C 0.54384 0.00615 0.07105 0.0
C488 C 0.53954 0.02195 0.05797 0.0
C489 C 0.51357 0.01853 0.05561 0.0
C490 C 0.49267 0.00044 0.06732 0.0
C491 C 0.4974 0.9844 0.07992 0.0
C492 C 0.56248 0.04145 0.04601 0.0
C493 C 0.4651 0.99715 0.06578 0.0
C494 C 0.47956 0.98362 0.96381 0.0
C495 C 0.48305 -0.00059 0.94775 0.0
C496 C 0.49181 0.02635 0.95016 0.0
C497 C 0.49554 0.03766 0.96917 0.0
C498 C 0.50311 0.06441 0.97215 0.0
C499 C 0.508 0.07567 0.99091 0.0
C500 C 0.50694 0.061 0.00732 0.0
C501 C 0.5141 0.07282 0.02631 0.0
C502 C 0.51478 0.05815 0.04203 0.0
C503 C 0.50792 0.03169 0.03939 0.0
C504 C 0.49893 0.01903 0.02079 0.0
C505 C 0.49051 0.99203 0.01784 0.0
C506 C 0.48291 0.98007 -0.00067 0.0
C507 C 0.48472 0.99494 0.98291 0.0
C508 C 0.49263 0.02205 0.98558 0.0
C509 C 0.49912 0.03394 0.00462 0.0
C510 C 0.54591 0.21703 0.01828 0.0
C511 C 0.55821 0.19977 0.02293 0.0
O512 O 0.45898 0.88242 0.93908 0.0
O513 O 0.52703 0.96949 0.09167 0.0
O514 O 0.54163 0.17997 0.03527 0.0
O515 O 0.53267 0.08762 0.88274 0.0
H516 H 0.43265 0.8771 0.91654 0.0
H517 H 0.47816 0.90987 0.90644 0.0
H518 H 0.48915 0.88607 0.90905 0.0
H519 H 0.46423 0.88102 0.89048 0.0
H520 H 0.4224 0.89698 0.94151 0.0
H521 H 0.50377 0.91896 0.9545 0.0
H522 H 0.4275 0.95614 0.94059 0.0
H523 H 0.40478 0.92442 0.95043 0.0
H524 H 0.42448 0.95277 0.96655 0.0
H525 H 0.53666 0.96345 0.96234 0.0
H526 H 0.52831 0.98933 0.9618 0.0
H527 H 0.52306 0.9706 0.98342 0.0
H528 H 0.57383 0.10007 0.88382 0.0
H529 H 0.5581 0.0801 0.83208 0.0
H530 H 0.54905 0.11826 0.85632 0.0
H531 H 0.58117 0.12754 0.85913 0.0
H532 H 0.55781 0.06869 0.90511 0.0
H533 H 0.48617 0.07295 0.89688 0.0
H534 H 0.54521 0.04458 0.95371 0.0
H535 H 0.53772 0.01995 0.93483 0.0
H536 H 0.56678 0.05223 0.93319 0.0
H537 H 0.44901 0.05017 0.91711 0.0
H538 H 0.44676 0.02146 0.92855 0.0
H539 H 0.45949 0.05187 0.94233 0.0
H540 H 0.55927 0.19091 0.00866 0.0
H541 H 0.57482 0.16318 0.02395 0.0
H542 H 0.49682 0.13998 0.04487 0.0
H543 H 0.56394 0.10652 0.00352 0.0
H544 H 0.58949 0.13255 0.01883 0.0
H545 H 0.56966 0.09961 0.02797 0.0
H546 H 0.46327 0.09529 0.04711 0.0
H547 H 0.46574 0.07338 0.02942 0.0
H548 H 0.47674 0.07455 0.05423 0.0
H549 H 0.49436 0.93639 0.07944 0.0
H550 H 0.51196 0.90647 0.08691 0.0
H551 H 0.53374 0.9336 0.07192 0.0
H552 H 0.54223 0.93411 0.09741 0.0
H553 H 0.56339 0.00792 0.07252 0.0
H554 H 0.48126 0.96979 0.0884 0.0
H555 H 0.55735 0.03685 0.03019 0.0
H556 H 0.56606 0.06172 0.04901 0.0
H557 H 0.58128 0.04125 0.04928 0.0
H558 H 0.45231 0.98541 0.07789 0.0
H559 H 0.46644 0.01681 0.0659 0.0
H560 H 0.45529 0.98687 0.05172 0.0
H561 H 0.48072 0.99101 0.9331 0.0
H562 H 0.50524 0.0769 0.96 0.0
H563 H 0.51348 0.09628 0.9923 0.0
H564 H 0.5216 0.06769 0.05636 0.0
H565 H 0.48968 0.97977 0.0298 0.0
H566 H 0.4764 0.9592 0.99797 0.0
H567 H 0.55904 0.23321 0.00851 0.0
H568 H 0.52616 0.20483 0.01069 0.0
H569 H 0.54292 0.22581 0.03185 0.0
C570 C 0.5738 0.44539 0.07701 0.0
C571 C 0.58693 0.4563 0.09726 0.0
C572 C 0.57279 0.48891 0.10464 0.0
C573 C 0.54572 0.47055 0.10769 0.0
C574 C 0.52747 0.47911 0.11172 0.0
C575 C 0.53649 0.50653 0.11294 0.0
C576 C 0.56371 0.52504 0.11004 0.0
C577 C 0.58149 0.51594 0.10591 0.0
C578 C 0.49852 0.45889 0.11473 0.0
C579 C 0.57401 0.55441 0.11137 0.0
C580 C 0.45249 0.55674 0.00054 0.0
C581 C 0.46063 0.54871 0.01858 0.0
C582 C 0.45764 0.54793 0.05318 0.0
C583 C 0.47965 0.56783 0.0637 0.0
C584 C 0.48882 0.56219 0.08107 0.0
C585 C 0.47539 0.53609 0.08805 0.0
C586 C 0.45249 0.51615 0.07776 0.0
C587 C 0.44389 0.52233 0.06034 0.0
C588 C 0.51335 0.5839 0.09163 0.0
C589 C 0.43756 0.48825 0.08494 0.0
C590 C 0.40464 0.5669 0.19343 0.0
C591 C 0.43067 0.58602 0.18851 0.0
C592 C 0.45047 0.57914 0.18589 0.0
C593 C 0.44387 0.55247 0.1878 0.0
C594 C 0.41793 0.53338 0.19351 0.0
C595 C 0.39873 0.54099 0.19653 0.0
C596 C 0.47827 0.60029 0.18074 0.0
C597 C 0.41032 0.50483 0.19594 0.0
C598 C 0.59476 0.51267 0.24175 0.0
C599 C 0.5668 0.50105 0.25009 0.0
C600 C 0.54354 0.52407 0.24025 0.0
C601 C 0.55158 0.54914 0.23313 0.0
C602 C 0.53593 0.55278 0.21899 0.0
C603 C 0.51149 0.5308 0.2122 0.0
C604 C 0.50236 0.50576 0.22046 0.0
C605 C 0.51852 0.50265 0.23445 0.0
C606 C 0.54603 0.57983 0.21067 0.0
C607 C 0.47603 0.48211 0.21395 0.0
C608 C 0.51749 0.51582 0.11754 0.0
C609 C 0.50475 0.52075 0.10201 0.0
C610 C 0.48649 0.52938 0.10533 0.0
C611 C 0.48019 0.53259 0.12467 0.0
C612 C 0.4611 0.54015 0.12855 0.0
C613 C 0.45531 0.54356 0.14767 0.0
C614 C 0.46886 0.54015 0.16365 0.0
C615 C 0.46378 0.54438 0.18315 0.0
C616 C 0.47786 0.54114 0.19865 0.0
C617 C 0.49681 0.53346 0.19523 0.0
C618 C 0.50189 0.52874 0.17588 0.0
C619 C 0.5206 0.52064 0.17199 0.0
C620 C 0.52555 0.51616 0.15292 0.0
C621 C 0.51228 0.51994 0.13698 0.0
C622 C 0.49343 0.5282 0.14055 0.0
C623 C 0.48802 0.53232 0.16004 0.0
C624 C 0.35259 0.58001 0.17845 0.0
C625 C 0.38213 0.59096 0.18391 0.0
O626 O 0.59117 0.48165 0.10035 0.0
O627 O 0.56049 0.52092 0.25235 0.0
O628 O 0.38475 0.57273 0.19504 0.0
O629 O 0.45063 0.55312 0.03557 0.0
H630 H 0.57386 0.44311 0.10874 0.0
H631 H 0.554 0.44408 0.07581 0.0
H632 H 0.58655 0.45846 0.06538 0.0
H633 H 0.57072 0.4252 0.07445 0.0
H634 H 0.53858 0.44955 0.10691 0.0
H635 H 0.60239 0.52996 0.1036 0.0
H636 H 0.48556 0.46202 0.10423 0.0
H637 H 0.49447 0.43827 0.1128 0.0
H638 H 0.49286 0.46145 0.12968 0.0
H639 H 0.59585 0.56626 0.10899 0.0
H640 H 0.56337 0.55975 0.10029 0.0
H641 H 0.56983 0.55983 0.12597 0.0
H642 H 0.45977 0.52918 0.01779 0.0
H643 H 0.49082 0.59067 0.99041 0.0
H644 H 0.4404 0.53778 0.99166 0.0
H645 H 0.43467 0.55897 0.0041 0.0
H646 H 0.49009 0.58756 0.05794 0.0
H647 H 0.42682 0.50714 0.05201 0.0
H648 H 0.50863 0.58592 0.10699 0.0
H649 H 0.52936 0.57865 0.09198 0.0
H650 H 0.52109 0.60329 0.08456 0.0
H651 H 0.41914 0.47545 0.07599 0.0
H652 H 0.45074 0.47948 0.08452 0.0
H653 H 0.432 0.4884 0.10037 0.0
H654 H 0.39243 0.59357 0.1698 0.0
H655 H 0.43562 0.60632 0.18669 0.0
H656 H 0.37868 0.52648 0.20061 0.0
H657 H 0.48189 0.5974 0.16527 0.0
H658 H 0.48119 0.62051 0.18265 0.0
H659 H 0.49345 0.5988 0.18996 0.0
H660 H 0.38887 0.49213 0.1993 0.0
H661 H 0.41451 0.497 0.18238 0.0
H662 H 0.42263 0.50345 0.20799 0.0
H663 H 0.55288 0.48554 0.23932 0.0
H664 H 0.60039 0.49712 0.24023 0.0
H665 H 0.59496 0.52057 0.22706 0.0
H666 H 0.60991 0.52909 0.25131 0.0
H667 H 0.57074 0.56562 0.23801 0.0
H668 H 0.51183 0.48345 0.24065 0.0
H669 H 0.5498 0.57915 0.19487 0.0
H670 H 0.53059 0.58575 0.21197 0.0
H671 H 0.56479 0.59513 0.21815 0.0
H672 H 0.4707 0.46459 0.22298 0.0
H673 H 0.45982 0.48704 0.21473 0.0
H674 H 0.47715 0.47683 0.19848 0.0
H675 H 0.50933 0.51812 0.08712 0.0
H676 H 0.45031 0.54337 0.11682 0.0
H677 H 0.44027 0.54919 0.14975 0.0
H678 H 0.47408 0.54469 0.21355 0.0
H679 H 0.53162 0.51761 0.18363 0.0
H680 H 0.54012 0.50991 0.15083 0.0
H681 H 0.35003 0.59453 0.16972 0.0
H682 H 0.34501 0.56149 0.16948 0.0
H683 H 0.34037 0.57543 0.1917 0.0
Mg684 Mg 0.61475 0.39169 0.38308 0.0
O685 O 0.60611 0.40729 0.41124 0.0
O686 O 0.62906 0.45147 0.41087 0.0
Mg687 Mg 0.64941 0.4638 0.38133 0.0
C688 C 0.61335 0.42989 0.41919 0.0
C689 C 0.60771 0.33669 0.38784 0.0
O690 O 0.62045 0.34443 0.37138 0.0
O691 O 0.65734 0.40527 0.39345 0.0
O692 O 0.67855 0.4488 0.38881 0.0
O693 O 0.57913 0.38969 0.36799 0.0
O694 O 0.61972 0.42471 0.3686 0.0
C695 C 0.67874 0.42771 0.39325 0.0
C696 C 0.5949 0.41401 0.36331 0.0
O697 O 0.60095 0.35172 0.39657 0.0
Mg698 Mg 0.23645 0.62706 0.58699 0.0
O699 O 0.21212 0.61348 0.55821 0.0
O700 O 0.18849 0.56922 0.5579 0.0
Mg701 Mg 0.19697 0.55478 0.58673 0.0
C702 C 0.19552 0.59132 0.54994 0.0
C703 C 0.28791 0.679 0.58163 0.0
O704 O 0.29495 0.66565 0.5932 0.0
O705 O 0.26427 0.61328 0.57594 0.0
O706 O 0.24124 0.56955 0.57968 0.0
O707 O 0.20354 0.6289 0.60234 0.0
O708 O 0.20777 0.5934 0.60036 0.0
C709 C 0.26276 0.59074 0.57566 0.0
C710 C 0.19441 0.60426 0.60629 0.0
O711 O 0.26365 0.66838 0.57572 0.0
Mg712 Mg 0.6334 0.24773 0.75426 0.0
O713 O 0.63185 0.22262 0.72788 0.0
O714 O 0.65377 0.20142 0.73596 0.0
Mg715 Mg 0.67111 0.21497 0.76712 0.0
C716 C 0.64002 0.2065 0.72382 0.0
C717 C 0.59791 0.27023 0.73881 0.0
O718 O 0.58309 0.25615 0.75317 0.0
O719 O 0.67628 0.27798 0.74848 0.0
O720 O 0.69902 0.25851 0.75866 0.0
O721 O 0.59674 0.21327 0.76555 0.0
O722 O 0.63799 0.22252 0.77292 0.0
C723 C 0.69826 0.27846 0.75195 0.0
C724 C 0.61263 0.20675 0.77422 0.0
O725 O 0.61926 0.26998 0.73522 0.0
Mg726 Mg 0.40553 0.64026 0.87388 0.0
O727 O 0.41689 0.6226 0.89973 0.0
O728 O 0.40227 0.58026 0.89123 0.0
Mg729 Mg 0.38181 0.57096 0.86099 0.0
C730 C 0.41402 0.5999 0.90332 0.0
C731 C 0.39887 0.68633 0.88685 0.0
O732 O 0.38063 0.67426 0.87285 0.0
O733 O 0.36259 0.61851 0.88276 0.0
O734 O 0.34769 0.57661 0.87317 0.0
O735 O 0.44401 0.65187 0.8601 0.0
O736 O 0.40726 0.6132 0.85471 0.0
C737 C 0.34385 0.59456 0.88075 0.0
C738 C 0.43246 0.62843 0.85196 0.0
O739 O 0.41329 0.67654 0.89194 0.0
Mg740 Mg 0.76954 0.40579 0.05833 0.0
O741 O 0.79805 0.40762 0.08306 0.0
O742 O 0.81861 0.38672 0.07106 0.0
Mg743 Mg 0.80383 0.37177 0.03973 0.0
C744 C 0.81484 0.3995 0.08478 0.0
C745 C 0.74828 0.43998 0.07737 0.0
O746 O 0.76599 0.45708 0.0656 0.0
O747 O 0.74095 0.3623 0.06349 0.0
O748 O 0.76112 0.34245 0.04937 0.0
O749 O 0.80175 0.44356 0.0459 0.0
O750 O 0.79437 0.40362 0.03792 0.0
C751 C 0.74114 0.34144 0.05792 0.0
C752 C 0.80868 0.4288 0.03627 0.0
O753 O 0.74625 0.41738 0.07883 0.0
Mg754 Mg 0.38994 0.79625 0.22158 0.0
O755 O 0.40383 0.81872 0.25093 0.0
O756 O 0.44851 0.83895 0.25207 0.0
Mg757 Mg 0.46297 0.83325 0.2223 0.0
C758 C 0.42632 0.83302 0.25986 0.0
C759 C 0.33726 0.74545 0.22574 0.0
O760 O 0.35069 0.73918 0.21357 0.0
O761 O 0.40281 0.76733 0.23137 0.0
O762 O 0.4469 0.7888 0.22714 0.0
O763 O 0.3891 0.83014 0.20764 0.0
O764 O 0.42438 0.8249 0.20903 0.0
C765 C 0.42508 0.7678 0.23092 0.0
C766 C 0.41399 0.83896 0.20382 0.0
O767 O 0.348 0.76912 0.23241 0.0
H768 H 0.17152 0.6615 0.2594 0.0
H769 H 0.31242 0.69235 0.21808 0.0
H770 H 0.18943 0.60141 0.24043 0.0
H771 H 0.30018 0.75221 0.24585 0.0
H772 H 0.26712 0.65899 0.22605 0.0
H773 H 0.21824 0.69528 0.25453 0.0
C774 C 0.18541 0.65541 0.2545 0.0
C775 C 0.17677 0.62857 0.25069 0.0
C776 C 0.27431 0.67939 0.23049 0.0
C777 C 0.22995 0.66707 0.24463 0.0
C778 C 0.3002 0.6985 0.22589 0.0
C779 C 0.31007 0.72515 0.23122 0.0
C780 C 0.25798 0.68692 0.24037 0.0
C781 C 0.29335 0.73188 0.24144 0.0
C782 C 0.21201 0.67467 0.25166 0.0
C783 C 0.19539 0.62182 0.24385 0.0
N784 N 0.26802 0.71289 0.24559 0.0
N785 N 0.22104 0.64092 0.24101 0.0
H786 H 0.63168 0.2083 0.42098 0.0
H787 H 0.58554 0.31652 0.42309 0.0
H788 H 0.5919 0.22015 0.46953 0.0
H789 H 0.62193 0.30159 0.37361 0.0
H790 H 0.58418 0.27887 0.43931 0.0
H791 H 0.62496 0.24001 0.40238 0.0
C792 C 0.62111 0.21727 0.42758 0.0
C793 C 0.61198 0.21135 0.44671 0.0
C794 C 0.59225 0.2837 0.42483 0.0
C795 C 0.60477 0.24814 0.42572 0.0
C796 C 0.593 0.30518 0.41555 0.0
C797 C 0.60409 0.31239 0.39703 0.0
C798 C 0.60276 0.26938 0.41557 0.0
C799 C 0.61338 0.2969 0.38794 0.0
C800 C 0.61737 0.23545 0.41701 0.0
C801 C 0.59895 0.22397 0.45473 0.0
N802 N 0.61269 0.27629 0.39736 0.0
N803 N 0.59584 0.24187 0.44424 0.0
H804 H 0.43125 0.64284 0.57721 0.0
H805 H 0.27329 0.55252 0.58826 0.0
H806 H 0.39436 0.58895 0.62412 0.0
H807 H 0.30996 0.62803 0.56032 0.0
H808 H 0.31753 0.55725 0.59314 0.0
H809 H 0.38662 0.62941 0.56334 0.0
C810 C 0.41376 0.62801 0.58446 0.0
C811 C 0.41643 0.61735 0.60204 0.0
C812 C 0.31576 0.5725 0.58559 0.0
C813 C 0.36562 0.60151 0.58605 0.0
C814 C 0.29051 0.56974 0.58264 0.0
C815 C 0.28795 0.59011 0.57412 0.0
C816 C 0.33852 0.59561 0.57976 0.0
C817 C 0.31105 0.612 0.56718 0.0
C818 C 0.38839 0.62033 0.57653 0.0
C819 C 0.39317 0.59787 0.61068 0.0
N820 N 0.33543 0.61431 0.57034 0.0
N821 N 0.36873 0.59066 0.60265 0.0
H822 H 0.825 0.41919 0.80126 0.0
H823 H 0.70746 0.32146 0.73076 0.0
H824 H 0.81048 0.44459 0.74587 0.0
H825 H 0.74585 0.29431 0.77144 0.0
H826 H 0.74542 0.36643 0.73499 0.0
H827 H 0.79645 0.37316 0.79026 0.0
C828 C 0.81595 0.41503 0.7867 0.0
C829 C 0.81986 0.43569 0.77453 0.0
C830 C 0.74578 0.35053 0.74268 0.0
C831 C 0.78686 0.3831 0.76193 0.0
C832 C 0.72412 0.32487 0.74028 0.0
C833 C 0.72334 0.30416 0.75095 0.0
C834 C 0.76648 0.3556 0.75616 0.0
C835 C 0.74555 0.30968 0.76298 0.0
C836 C 0.79977 0.38878 0.78039 0.0
C837 C 0.80772 0.4292 0.75577 0.0
N838 N 0.76596 0.33498 0.76559 0.0
N839 N 0.79139 0.40345 0.75015 0.0
H840 H 0.40432 0.83573 0.90045 0.0
H841 H 0.43833 0.71961 0.91324 0.0
H842 H 0.47221 0.84504 0.9344 0.0
H843 H 0.37145 0.71204 0.87876 0.0
H844 H 0.44891 0.76417 0.92375 0.0
H845 H 0.38994 0.78906 0.89475 0.0
C846 C 0.41596 0.82779 0.90695 0.0
C847 C 0.43924 0.84413 0.91814 0.0
C848 C 0.43181 0.75266 0.914 0.0
C849 C 0.42324 0.79081 0.9114 0.0
C850 C 0.42573 0.7272 0.90803 0.0
C851 C 0.40412 0.71216 0.89496 0.0
C852 C 0.41617 0.76311 0.90683 0.0
C853 C 0.38843 0.72297 0.88872 0.0
C854 C 0.40782 0.80117 0.90365 0.0
C855 C 0.45392 0.83298 0.9259 0.0
N856 N 0.39487 0.74781 0.89461 0.0
N857 N 0.44572 0.80701 0.92234 0.0
H858 H 0.63619 0.49474 0.08474 0.0
H859 H 0.70479 0.40652 0.09857 0.0
H860 H 0.59736 0.41857 0.11156 0.0
H861 H 0.74456 0.48473 0.07481 0.0
H862 H 0.66724 0.41257 0.10704 0.0
H863 H 0.67766 0.49326 0.08415 0.0
C864 C 0.63655 0.47791 0.09084 0.0
C865 C 0.61342 0.45693 0.09853 0.0
C866 C 0.68433 0.42853 0.1002 0.0
C867 C 0.66069 0.45476 0.09743 0.0
C868 C 0.70584 0.42513 0.09541 0.0
C869 C 0.72771 0.44501 0.08569 0.0
C870 C 0.68464 0.45192 0.09516 0.0
C871 C 0.728 0.46874 0.08207 0.0
C872 C 0.66021 0.47702 0.09044 0.0
C873 C 0.61486 0.4353 0.10576 0.0
N874 N 0.70665 0.4714 0.08659 0.0
N875 N 0.63804 0.4347 0.10494 0.0
H876 H 0.3687 0.844 0.55034 0.0
H877 H 0.34179 0.70436 0.58854 0.0
H878 H 0.43086 0.82826 0.56925 0.0
H879 H 0.27967 0.71557 0.56256 0.0
H880 H 0.37455 0.74976 0.58114 0.0
H881 H 0.33561 0.79716 0.55422 0.0
C882 C 0.3754 0.83058 0.55501 0.0
C883 C 0.40262 0.83987 0.55911 0.0
C884 C 0.35379 0.74232 0.57696 0.0
C885 C 0.3649 0.78653 0.56403 0.0
C886 C 0.33502 0.71636 0.58122 0.0
C887 C 0.3079 0.70617 0.57626 0.0
C888 C 0.34545 0.75841 0.56777 0.0
C889 C 0.30038 0.72264 0.56668 0.0
C890 C 0.35652 0.8039 0.55729 0.0
C891 C 0.41015 0.82181 0.56562 0.0
N892 N 0.31904 0.74804 0.56285 0.0
N893 N 0.39141 0.79606 0.56791 0.0
H894 H 0.54543 0.38193 0.71639 0.0
H895 H 0.62576 0.30375 0.70964 0.0
H896 H 0.61678 0.40786 0.68331 0.0
H897 H 0.55658 0.27956 0.74507 0.0
H898 H 0.61902 0.3385 0.69625 0.0
H899 H 0.54567 0.34116 0.72364 0.0
C900 C 0.56088 0.37878 0.71038 0.0
C901 C 0.58094 0.39811 0.69902 0.0
C902 C 0.60516 0.32545 0.70681 0.0
C903 C 0.58168 0.35182 0.70758 0.0
C904 C 0.60896 0.30554 0.71446 0.0
C905 C 0.59191 0.28894 0.72872 0.0
C906 C 0.58421 0.32885 0.71351 0.0
C907 C 0.57037 0.29208 0.73426 0.0
C908 C 0.56107 0.35559 0.71457 0.0
C909 C 0.6008 0.39332 0.69192 0.0
N910 N 0.56729 0.31184 0.72679 0.0
N911 N 0.60074 0.37071 0.69639 0.0
H912 H 0.20622 0.6082 0.90813 0.0
H913 H 0.29706 0.54675 0.87679 0.0
H914 H 0.17392 0.52675 0.88938 0.0
H915 H 0.32842 0.62748 0.89749 0.0
H916 H 0.25192 0.5379 0.88356 0.0
H917 H 0.25131 0.61461 0.90654 0.0
C918 C 0.20868 0.59169 0.90365 0.0
C919 C 0.18642 0.56712 0.89839 0.0
C920 C 0.26873 0.55748 0.88674 0.0
C921 C 0.23787 0.57416 0.89667 0.0
C922 C 0.29452 0.56255 0.8829 0.0
C923 C 0.31661 0.58797 0.88638 0.0
C924 C 0.265 0.578 0.89406 0.0
C925 C 0.31205 0.60763 0.89439 0.0
C926 C 0.23439 0.5953 0.90279 0.0
C927 C 0.19064 0.54617 0.89313 0.0
N928 N 0.28679 0.60227 0.89782 0.0
N929 N 0.2159 0.55023 0.89222 0.0
H930 H 0.57283 0.22609 0.05887 0.0
H931 H 0.72937 0.29449 0.03983 0.0
H932 H 0.60633 0.21083 0.00786 0.0
H933 H 0.69514 0.32968 0.07694 0.0
H934 H 0.68507 0.2556 0.03485 0.0
H935 H 0.61831 0.25648 0.07174 0.0
C936 C 0.58977 0.22895 0.05051 0.0
C937 C 0.58589 0.21626 0.03217 0.0
C938 C 0.68737 0.27168 0.04433 0.0
C939 C 0.63768 0.25049 0.04687 0.0
C940 C 0.71269 0.29386 0.04729 0.0
C941 C 0.71594 0.31568 0.05851 0.0
C942 C 0.66517 0.2712 0.05275 0.0
C943 C 0.69352 0.31353 0.0679 0.0
C944 C 0.61563 0.2462 0.05785 0.0
C945 C 0.60847 0.2204 0.02198 0.0
N946 N 0.669 0.29182 0.06462 0.0
N947 N 0.63339 0.23724 0.02943 0.0
H948 H 0.42171 0.63969 0.17273 0.0
H949 H 0.38637 0.72091 0.24531 0.0
H950 H 0.36859 0.60177 0.22008 0.0
H951 H 0.46188 0.7561 0.21635 0.0
H952 H 0.38024 0.67709 0.23787 0.0
H953 H 0.43745 0.68257 0.1892 0.0
C954 C 0.41354 0.64041 0.1867 0.0
C955 C 0.39358 0.61722 0.19494 0.0
C956 C 0.39844 0.69444 0.23356 0.0
C957 C 0.4112 0.66622 0.21375 0.0
C958 C 0.40197 0.71946 0.23781 0.0
C959 C 0.42449 0.7422 0.23119 0.0
C960 C 0.41726 0.69216 0.22225 0.0
C961 C 0.44412 0.73913 0.22163 0.0
C962 C 0.42261 0.66486 0.19614 0.0
C963 C 0.38375 0.61926 0.21312 0.0
N964 N 0.43975 0.71454 0.21703 0.0
N965 N 0.39232 0.64341 0.22177 0.0
H966 H 0.80047 0.38247 0.39596 0.0
H967 H 0.72816 0.46785 0.38361 0.0
H968 H 0.81963 0.44068 0.35176 0.0
H969 H 0.68863 0.38928 0.40681 0.0
H970 H 0.7688 0.46521 0.38037 0.0
H971 H 0.76601 0.39174 0.40783 0.0
C972 C 0.79755 0.39731 0.38886 0.0
C973 C 0.81246 0.41038 0.37255 0.0
C974 C 0.75133 0.44875 0.38647 0.0
C975 C 0.77382 0.42156 0.38638 0.0
C976 C 0.72814 0.45027 0.38845 0.0
C977 C 0.70475 0.42857 0.39522 0.0
C978 C 0.75126 0.42552 0.39149 0.0
C979 C 0.70607 0.40635 0.40129 0.0
C980 C 0.77799 0.40262 0.39566 0.0
C981 C 0.80832 0.42988 0.36418 0.0
N982 N 0.72887 0.40529 0.39911 0.0
N983 N 0.78931 0.43479 0.37113 0.0
H984 H 0.07989 0.58147 0.46503 0.0
H985 H 0.21642 0.62796 0.52144 0.0
H986 H 0.15465 0.62045 0.43509 0.0
H987 H 0.14563 0.55516 0.53568 0.0
H988 H 0.19371 0.62938 0.49128 0.0
H989 H 0.10296 0.57501 0.4928 0.0
C990 C 0.10109 0.58855 0.46418 0.0
C991 C 0.11541 0.6017 0.44765 0.0
C992 C 0.18329 0.61299 0.50095 0.0
C993 C 0.14189 0.59478 0.47964 0.0
C994 C 0.19616 0.61222 0.51815 0.0
C995 C 0.18286 0.59141 0.53104 0.0
C996 C 0.15672 0.59321 0.49689 0.0
C997 C 0.15664 0.57147 0.52607 0.0
C998 C 0.1142 0.58478 0.48006 0.0
C999 C 0.14291 0.61041 0.44758 0.0
N1000 N 0.14425 0.57306 0.5095 0.0
N1001 N 0.15534 0.60715 0.46342 0.0
H1002 H 0.57972 0.14274 0.59643 0.0
H1003 H 0.62072 0.15374 0.71875 0.0
H1004 H 0.52022 0.0773 0.64812 0.0
H1005 H 0.63574 0.22331 0.68761 0.0
H1006 H 0.59688 0.12639 0.68958 0.0
H1007 H 0.61317 0.17482 0.6293 0.0
C1008 C 0.57395 0.13758 0.61138 0.0
C1009 C 0.54792 0.10386 0.61851 0.0
C1010 C 0.60589 0.1477 0.68912 0.0
C1011 C 0.5866 0.14377 0.65568 0.0
C1012 C 0.61962 0.16328 0.7056 0.0
C1013 C 0.63011 0.19074 0.70548 0.0
C1014 C 0.60342 0.15982 0.67235 0.0
C1015 C 0.62782 0.20216 0.6882 0.0
C1016 C 0.5952 0.15616 0.6316 0.0
C1017 C 0.53637 0.09637 0.64398 0.0
N1018 N 0.61473 0.1866 0.67221 0.0
N1019 N 0.55877 0.11649 0.65998 0.0
H1020 H 0.55441 0.62462 0.78329 0.0
H1021 H 0.41579 0.5792 0.83535 0.0
H1022 H 0.49455 0.54264 0.78933 0.0
H1023 H 0.48461 0.65762 0.84197 0.0
H1024 H 0.44235 0.56571 0.81591 0.0
H1025 H 0.52687 0.63754 0.802 0.0
C1026 C 0.53539 0.60937 0.78853 0.0
C1027 C 0.52673 0.58255 0.78484 0.0
C1028 C 0.4516 0.58584 0.82169 0.0
C1029 C 0.4951 0.5971 0.80619 0.0
C1030 C 0.43647 0.59355 0.8328 0.0
C1031 C 0.44803 0.61954 0.84041 0.0
C1032 C 0.47835 0.60435 0.81798 0.0
C1033 C 0.47488 0.63734 0.83648 0.0
C1034 C 0.51972 0.61671 0.79923 0.0
C1035 C 0.50192 0.56353 0.79189 0.0
N1036 N 0.48909 0.62944 0.8255 0.0
N1037 N 0.48692 0.57117 0.80223 0.0
H1038 H 0.93789 0.43553 0.95744 0.0
H1039 H 0.82377 0.46962 0.01139 0.0
H1040 H 0.89455 0.48486 0.92528 0.0
H1041 H 0.84536 0.41311 0.03175 0.0
H1042 H 0.85691 0.48204 0.98565 0.0
H1043 H 0.907 0.43213 0.99103 0.0
C1044 C 0.92332 0.44201 0.95704 0.0
C1045 C 0.9229 0.46443 0.93833 0.0
C1046 C 0.8546 0.46723 0.99598 0.0
C1047 C 0.88595 0.45751 0.97756 0.0
C1048 C 0.83592 0.46029 0.01069 0.0
C1049 C 0.83165 0.44002 0.02339 0.0
C1050 C 0.86918 0.45402 0.99436 0.0
C1051 C 0.84768 0.42839 0.02192 0.0
C1052 C 0.90581 0.44188 0.97807 0.0
C1053 C 0.89607 0.47323 0.93685 0.0
N1054 N 0.8657 0.43548 0.00755 0.0
N1055 N 0.88208 0.47076 0.95776 0.0
H1056 H 0.53316 0.94972 0.12821 0.0
H1057 H 0.3939 0.86229 0.18 0.0
H1058 H 0.45609 0.91668 0.09869 0.0
H1059 H 0.46819 0.86858 0.19991 0.0
H1060 H 0.41808 0.89432 0.15481 0.0
H1061 H 0.51066 0.93142 0.15889 0.0
C1062 C 0.51151 0.93881 0.12826 0.0
C1063 C 0.49641 0.93409 0.11085 0.0
C1064 C 0.42911 0.88902 0.16496 0.0
C1065 C 0.4707 0.91372 0.14579 0.0
C1066 C 0.41539 0.87089 0.17941 0.0
C1067 C 0.42901 0.86241 0.19182 0.0
C1068 C 0.45663 0.89887 0.16312 0.0
C1069 C 0.45684 0.87421 0.19041 0.0
C1070 C 0.49874 0.92848 0.14572 0.0
C1071 C 0.46844 0.92035 0.11174 0.0
N1072 N 0.46972 0.89166 0.17615 0.0
N1073 N 0.45646 0.91045 0.1289 0.0
H1074 H 0.53811 0.44848 0.25909 0.0
H1075 H 0.61903 0.46732 0.35774 0.0
H1076 H 0.59248 0.52526 0.28506 0.0
H1077 H 0.54967 0.39309 0.34 0.0
H1078 H 0.60757 0.48938 0.33265 0.0
H1079 H 0.53989 0.42803 0.28954 0.0
C1080 C 0.5502 0.46103 0.2713 0.0
C1081 C 0.56545 0.48855 0.2695 0.0
C1082 C 0.59459 0.46834 0.33443 0.0
C1083 C 0.56781 0.46533 0.30431 0.0
C1084 C 0.60116 0.4557 0.34876 0.0
C1085 C 0.58549 0.42826 0.3508 0.0
C1086 C 0.57246 0.45333 0.32177 0.0
C1087 C 0.56238 0.41428 0.33886 0.0
C1088 C 0.55116 0.44937 0.2887 0.0
C1089 C 0.58068 0.50393 0.2858 0.0
N1090 N 0.55681 0.42689 0.3246 0.0
N1091 N 0.58177 0.49209 0.30244 0.0
H1092 H 0.46719 0.89969 0.37788 0.0
H1093 H 0.38564 0.83556 0.2778 0.0
H1094 H 0.39776 0.90441 0.36003 0.0
H1095 H 0.468 0.85589 0.28676 0.0
H1096 H 0.38734 0.8557 0.30973 0.0
H1097 H 0.46576 0.87919 0.34605 0.0
C1098 C 0.45161 0.89634 0.36726 0.0
C1099 C 0.43233 0.90339 0.37168 0.0
C1100 C 0.40502 0.85574 0.30469 0.0
C1101 C 0.4305 0.87989 0.33537 0.0
C1102 C 0.40404 0.8441 0.28651 0.0
C1103 C 0.42674 0.84407 0.27956 0.0
C1104 C 0.42875 0.86714 0.31612 0.0
C1105 C 0.45006 0.85557 0.29149 0.0
C1106 C 0.45083 0.8847 0.34913 0.0
C1107 C 0.41274 0.89888 0.35732 0.0
N1108 N 0.45044 0.86657 0.30922 0.0
N1109 N 0.4122 0.88722 0.33986 0.0
H1110 H 0.5827 0.47427 0.53324 0.0
H1111 H 0.56967 0.39028 0.43664 0.0
H1112 H 0.50844 0.4062 0.51347 0.0
H1113 H 0.63083 0.47228 0.44486 0.0
H1114 H 0.54969 0.39328 0.46706 0.0
H1115 H 0.60313 0.47178 0.50281 0.0
C1116 C 0.57073 0.45877 0.52251 0.0
C1117 C 0.54398 0.44012 0.52604 0.0
C1118 C 0.56749 0.4106 0.46219 0.0
C1119 C 0.56722 0.43709 0.49131 0.0
C1120 C 0.57903 0.40887 0.4449 0.0
C1121 C 0.60197 0.43109 0.43815 0.0
C1122 C 0.57915 0.43459 0.47298 0.0
C1123 C 0.6131 0.45469 0.44945 0.0
C1124 C 0.58237 0.45739 0.50516 0.0
C1125 C 0.52926 0.42065 0.51151 0.0
N1126 N 0.60164 0.45579 0.46635 0.0
N1127 N 0.54115 0.41949 0.49486 0.0
H1128 H 0.08664 0.48819 0.68491 0.0
H1129 H 0.17416 0.62543 0.63204 0.0
H1130 H 0.12423 0.56452 0.71464 0.0
H1131 H 0.16319 0.55076 0.61033 0.0
H1132 H 0.14362 0.60225 0.6584 0.0
H1133 H 0.10307 0.51027 0.65383 0.0
C1134 C 0.0981 0.5096 0.68483 0.0
C1135 C 0.1046 0.52458 0.70237 0.0
C1136 C 0.14756 0.59093 0.64762 0.0
C1137 C 0.12297 0.54985 0.66701 0.0
C1138 C 0.16481 0.60409 0.63251 0.0
C1139 C 0.17159 0.59003 0.6192 0.0
C1140 C 0.13683 0.56354 0.64924 0.0
C1141 C 0.15891 0.56242 0.62049 0.0
C1142 C 0.10739 0.52215 0.66715 0.0
C1143 C 0.11912 0.55226 0.70147 0.0
N1144 N 0.14233 0.55008 0.6354 0.0
N1145 N 0.128 0.56402 0.6841 0.0
H1146 H 0.50374 0.06193 0.84776 0.0
H1147 H 0.64132 0.18814 0.79353 0.0
H1148 H 0.6026 0.08858 0.85958 0.0
H1149 H 0.56027 0.16944 0.7803 0.0
H1150 H 0.62426 0.14925 0.81346 0.0
H1151 H 0.52301 0.10023 0.81702 0.0
C1152 C 0.5244 0.07177 0.84351 0.0
C1153 C 0.55203 0.07398 0.85944 0.0
C1154 C 0.61016 0.15347 0.80607 0.0
C1155 C 0.57204 0.11556 0.82185 0.0
C1156 C 0.6199 0.1757 0.79461 0.0
C1157 C 0.60221 0.18211 0.7852 0.0
C1158 C 0.58253 0.13761 0.80832 0.0
C1159 C 0.57461 0.16525 0.78733 0.0
C1160 C 0.53673 0.09644 0.8254 0.0
C1161 C 0.58674 0.08864 0.85099 0.0
N1162 N 0.56557 0.1438 0.79884 0.0
N1163 N 0.59332 0.10993 0.83394 0.0
H1164 H 0.49576 0.54196 0.98981 0.0
H1165 H 0.42874 0.63038 0.93728 0.0
H1166 H 0.47623 0.60753 0.02735 0.0
H1167 H 0.42558 0.561 0.91121 0.0
H1168 H 0.44858 0.62375 0.96718 0.0
H1169 H 0.47304 0.55328 0.956 0.0
C1170 C 0.49023 0.55713 0.9903 0.0
C1171 C 0.48474 0.57047 0.01347 0.0
C1172 C 0.44339 0.60999 0.9549 0.0
C1173 C 0.46111 0.58451 0.97281 0.0
C1174 C 0.43219 0.61379 0.93783 0.0
C1175 C 0.42546 0.5962 0.92171 0.0
C1176 C 0.44827 0.58878 0.95562 0.0
C1177 C 0.43029 0.57498 0.92327 0.0
C1178 C 0.47455 0.56293 0.96996 0.0
C1179 C 0.47769 0.59832 0.01395 0.0
N1180 N 0.4416 0.572 0.93986 0.0
N1181 N 0.46421 0.6005 0.99346 0.0
H1182 H 0.95162 0.46051 0.16377 0.0
H1183 H 0.80375 0.40825 0.12218 0.0
H1184 H 0.88372 0.41932 0.2006 0.0
H1185 H 0.86535 0.40756 0.08784 0.0
H1186 H 0.83373 0.42086 0.15128 0.0
H1187 H 0.92095 0.45034 0.13561 0.0
C1188 C 0.93026 0.44968 0.16596 0.0
C1189 C 0.92026 0.44106 0.18458 0.0
C1190 C 0.84052 0.41789 0.13733 0.0
C1191 C 0.88513 0.42934 0.15251 0.0
C1192 C 0.82353 0.41078 0.12078 0.0
C1193 C 0.83204 0.40667 0.10264 0.0
C1194 C 0.86635 0.4216 0.13552 0.0
C1195 C 0.85787 0.41022 0.10158 0.0
C1196 C 0.91282 0.44377 0.14992 0.0
C1197 C 0.89235 0.42671 0.18657 0.0
N1198 N 0.87418 0.41769 0.11775 0.0
N1199 N 0.87573 0.4214 0.17072 0.0
loop_
_geom_bond_atom_site_label_1
_geom_bond_atom_site_label_2
_geom_bond_distance
_geom_bond_site_symmetry_2
_ccdc_geom_bond_type
C0 C1 1.560 . S
C0 H61 0.959 . S
C0 H62 0.959 . S
C0 H63 0.960 . S
C1 C0 1.560 . S
C1 O56 1.426 . S
C1 H60 0.980 . S
C2 C3 1.407 . S
C2 C7 1.418 . S
C2 O56 1.334 . S
C3 C2 1.407 . S
C3 C4 1.360 . S
C3 H64 0.929 . S
C4 C3 1.360 . S
C4 C5 1.401 . S
C4 C8 1.527 . S
C5 C4 1.401 . S
C5 C6 1.405 . S
C5 C38 1.587 . S
C6 C5 1.405 . S
C6 C7 1.332 . S
C6 C9 1.496 . S
C7 C2 1.418 . S
C7 C6 1.332 . S
C7 H65 0.929 . S
C8 C4 1.527 . S
C8 H66 0.959 . S
C8 H67 0.961 . S
C8 H68 0.961 . S
C9 C6 1.496 . S
C9 H69 0.960 . S
C9 H70 0.960 . S
C9 H71 0.961 . S
C10 C11 1.517 . S
C10 H73 0.961 . S
C10 H74 0.960 . S
C10 H75 0.959 . S
C11 C10 1.517 . S
C11 O59 1.468 . S
C11 H72 0.980 . S
C12 C13 1.349 . S
C12 C17 1.367 . S
C12 O59 1.408 . S
C13 C12 1.349 . S
C13 C14 1.407 . S
C13 H76 0.930 . S
C14 C13 1.407 . S
C14 C15 1.449 . S
C14 C18 1.535 . S
C15 C14 1.449 . S
C15 C16 1.384 . S
C15 C40 1.553 1_655 S
C16 C15 1.384 . S
C16 C17 1.364 . S
C16 C19 1.450 . S
C17 C12 1.367 . S
C17 C16 1.364 . S
C17 H77 0.931 . S
C18 C14 1.535 . S
C18 H78 0.959 1_655 S
C18 H79 0.961 . S
C18 H80 0.959 . S
C19 C16 1.450 . S
C19 H81 0.960 . S
C19 H82 0.960 1_655 S
C19 H83 0.960 . S
C20 C21 1.309 . S
C20 C25 1.304 . S
C20 O58 1.435 . S
C21 C20 1.309 . S
C21 C22 1.476 . S
C21 H85 0.930 . S
C22 C21 1.476 . S
C22 C23 1.400 . S
C22 C26 1.567 . S
C23 C22 1.400 . S
C23 C24 1.373 . S
C23 C45 1.432 . S
C24 C23 1.373 . S
C24 C25 1.339 . S
C24 C27 1.530 . S
C25 C20 1.304 . S
C25 C24 1.339 . S
C25 H86 0.930 . S
C26 C22 1.567 . S
C26 H87 0.961 . S
C26 H88 0.960 . S
C26 H89 0.958 . S
C27 C24 1.530 . S
C27 H90 0.961 . S
C27 H91 0.960 . S
C27 H92 0.960 . S
C28 C29 1.530 . S
C28 H94 0.961 . S
C28 H95 0.961 . S
C28 H96 0.959 . S
C29 C28 1.530 . S
C29 O57 1.412 . S
C29 H93 0.980 . S
C30 C31 1.288 . S
C30 C35 1.377 . S
C30 O57 1.393 . S
C31 C30 1.288 . S
C31 C32 1.369 . S
C31 H97 0.932 . S
C32 C31 1.369 . S
C32 C33 1.398 . S
C32 C36 1.527 . S
C33 C32 1.398 . S
C33 C34 1.380 . S
C33 C47 1.497 . S
C34 C33 1.380 . S
C34 C35 1.383 . S
C34 C37 1.603 . S
C35 C30 1.377 . S
C35 C34 1.383 . S
C35 H98 0.929 . S
C36 C32 1.527 . S
C36 H99 0.961 . S
C36 H100 0.959 1_455 S
C36 H101 0.959 . S
C37 C34 1.603 . S
C37 H102 0.960 . S
C37 H103 0.962 . S
C37 H104 0.961 . S
C38 C5 1.587 . S
C38 C39 1.360 . S
C38 C51 1.412 . S
C39 C38 1.360 . S
C39 C40 1.365 . S
C39 H105 0.929 . S
C40 C15 1.553 1_455 S
C40 C39 1.365 . S
C40 C41 1.404 1_455 S
C41 C40 1.404 1_655 S
C41 C42 1.395 . S
C41 C52 1.451 1_655 S
C42 C41 1.395 . S
C42 C43 1.322 . S
C42 H106 0.930 . S
C43 C42 1.322 . S
C43 C44 1.459 . S
C43 H107 0.929 . S
C44 C43 1.459 . S
C44 C45 1.445 . S
C44 C53 1.395 1_655 S
C45 C23 1.432 . S
C45 C44 1.445 . S
C45 C46 1.370 . S
C46 C45 1.370 . S
C46 C47 1.438 1_655 S
C46 H108 0.930 . S
C47 C33 1.497 . S
C47 C46 1.438 1_455 S
C47 C48 1.360 . S
C48 C47 1.360 . S
C48 C49 1.401 . S
C48 C53 1.446 . S
C49 C48 1.401 . S
C49 C50 1.347 . S
C49 H109 0.929 . S
C50 C49 1.347 . S
C50 C51 1.455 . S
C50 H110 0.930 . S
C51 C38 1.412 . S
C51 C50 1.455 . S
C51 C52 1.331 . S
C52 C41 1.451 1_455 S
C52 C51 1.331 . S
C52 C53 1.497 . S
C53 C44 1.395 1_455 S
C53 C48 1.446 . S
C53 C52 1.497 . S
C54 C55 1.582 . S
C54 H111 0.962 . S
C54 H112 0.959 . S
C54 H113 0.958 . S
C55 C54 1.582 . S
C55 O58 1.458 . S
C55 H84 0.980 . S
O56 C1 1.426 . S
O56 C2 1.334 . S
O57 C29 1.412 . S
O57 C30 1.393 . S
O58 C20 1.435 . S
O58 C55 1.458 . S
O59 C11 1.468 . S
O59 C12 1.408 . S
H60 C1 0.980 . S
H61 C0 0.959 . S
H62 C0 0.959 . S
H63 C0 0.960 . S
H64 C3 0.929 . S
H65 C7 0.929 . S
H66 C8 0.959 . S
H67 C8 0.961 . S
H68 C8 0.961 . S
H69 C9 0.960 . S
H70 C9 0.960 . S
H71 C9 0.961 . S
H72 C11 0.980 . S
H73 C10 0.961 . S
H74 C10 0.960 . S
H75 C10 0.959 . S
H76 C13 0.930 . S
H77 C17 0.931 . S
H78 C18 0.959 1_455 S
H79 C18 0.961 . S
H80 C18 0.959 . S
H81 C19 0.960 . S
H82 C19 0.960 1_455 S
H83 C19 0.960 . S
H84 C55 0.980 . S
H85 C21 0.930 . S
H86 C25 0.930 . S
H87 C26 0.961 . S
H88 C26 0.960 . S
H89 C26 0.958 . S
H90 C27 0.961 . S
H91 C27 0.960 . S
H92 C27 0.960 . S
H93 C29 0.980 . S
H94 C28 0.961 . S
H95 C28 0.961 . S
H96 C28 0.959 . S
H97 C31 0.932 . S
H98 C35 0.929 . S
H99 C36 0.961 . S
H100 C36 0.959 1_655 S
H101 C36 0.959 . S
H102 C37 0.960 . S
H103 C37 0.962 . S
H104 C37 0.961 . S
H105 C39 0.929 . S
H106 C42 0.930 . S
H107 C43 0.929 . S
H108 C46 0.930 . S
H109 C49 0.929 . S
H110 C50 0.930 . S
H111 C54 0.962 . S
H112 C54 0.959 . S
H113 C54 0.958 . S
C114 C115 1.560 . S
C114 H175 0.959 . S
C114 H176 0.959 . S
C114 H177 0.960 . S
C115 C114 1.560 . S
C115 O170 1.426 . S
C115 H174 0.980 . S
C116 C117 1.407 . S
C116 C121 1.418 . S
C116 O170 1.334 . S
C117 C116 1.407 . S
C117 C118 1.360 . S
C117 H178 0.929 . S
C118 C117 1.360 . S
C118 C119 1.401 . S
C118 C122 1.527 . S
C119 C118 1.401 . S
C119 C120 1.405 . S
C119 C152 1.587 . S
C120 C119 1.405 . S
C120 C121 1.332 . S
C120 C123 1.496 . S
C121 C116 1.418 . S
C121 C120 1.332 . S
C121 H179 0.929 . S
C122 C118 1.527 . S
C122 H180 0.959 . S
C122 H181 0.961 . S
C122 H182 0.961 . S
C123 C120 1.496 . S
C123 H183 0.960 . S
C123 H184 0.960 . S
C123 H185 0.961 . S
C124 C125 1.517 . S
C124 H187 0.961 . S
C124 H188 0.960 . S
C124 H189 0.959 . S
C125 C124 1.517 . S
C125 O173 1.468 . S
C125 H186 0.980 . S
C126 C127 1.349 . S
C126 C131 1.367 . S
C126 O173 1.408 . S
C127 C126 1.349 . S
C127 C128 1.407 . S
C127 H190 0.930 . S
C128 C127 1.407 . S
C128 C129 1.449 . S
C128 C132 1.535 . S
C129 C128 1.449 . S
C129 C130 1.384 . S
C129 C154 1.553 . S
C130 C129 1.384 . S
C130 C131 1.364 . S
C130 C133 1.450 . S
C131 C126 1.367 . S
C131 C130 1.364 . S
C131 H191 0.931 . S
C132 C128 1.535 . S
C132 H192 0.959 . S
C132 H193 0.961 . S
C132 H194 0.959 . S
C133 C130 1.450 . S
C133 H195 0.960 . S
C133 H196 0.960 . S
C133 H197 0.960 . S
C134 C135 1.309 . S
C134 C139 1.304 . S
C134 O172 1.435 . S
C135 C134 1.309 . S
C135 C136 1.476 . S
C135 H199 0.930 . S
C136 C135 1.476 . S
C136 C137 1.400 . S
C136 C140 1.567 . S
C137 C136 1.400 . S
C137 C138 1.373 . S
C137 C159 1.432 . S
C138 C137 1.373 . S
C138 C139 1.339 . S
C138 C141 1.530 . S
C139 C134 1.304 . S
C139 C138 1.339 . S
C139 H200 0.930 . S
C140 C136 1.567 . S
C140 H201 0.961 . S
C140 H202 0.960 . S
C140 H203 0.958 . S
C141 C138 1.530 . S
C141 H204 0.961 . S
C141 H205 0.960 . S
C141 H206 0.960 . S
C142 C143 1.530 . S
C142 H208 0.961 . S
C142 H209 0.961 . S
C142 H210 0.959 . S
C143 C142 1.530 . S
C143 O171 1.412 . S
C143 H207 0.980 . S
C144 C145 1.288 . S
C144 C149 1.377 . S
C144 O171 1.393 . S
C145 C144 1.288 . S
C145 C146 1.369 . S
C145 H211 0.932 . S
C146 C145 1.369 . S
C146 C147 1.398 . S
C146 C150 1.527 1_565 S
C147 C146 1.398 . S
C147 C148 1.380 . S
C147 C161 1.497 1_565 S
C148 C147 1.380 . S
C148 C149 1.383 . S
C148 C151 1.603 . S
C149 C144 1.377 . S
C149 C148 1.383 . S
C149 H212 0.929 . S
C150 C146 1.527 1_545 S
C150 H213 0.961 . S
C150 H214 0.959 . S
C150 H215 0.959 . S
C151 C148 1.603 . S
C151 H216 0.960 . S
C151 H217 0.962 1_565 S
C151 H218 0.961 . S
C152 C119 1.587 . S
C152 C153 1.360 . S
C152 C165 1.412 . S
C153 C152 1.360 . S
C153 C154 1.365 1_565 S
C153 H219 0.929 . S
C154 C129 1.553 . S
C154 C153 1.365 1_545 S
C154 C155 1.404 . S
C155 C154 1.404 . S
C155 C156 1.395 . S
C155 C166 1.451 . S
C156 C155 1.395 . S
C156 C157 1.322 . S
C156 H220 0.930 . S
C157 C156 1.322 . S
C157 C158 1.459 . S
C157 H221 0.929 . S
C158 C157 1.459 . S
C158 C159 1.445 . S
C158 C167 1.395 . S
C159 C137 1.432 . S
C159 C158 1.445 . S
C159 C160 1.370 . S
C160 C159 1.370 . S
C160 C161 1.438 . S
C160 H222 0.930 . S
C161 C147 1.497 1_545 S
C161 C160 1.438 . S
C161 C162 1.360 . S
C162 C161 1.360 . S
C162 C163 1.401 1_545 S
C162 C167 1.446 . S
C163 C162 1.401 1_565 S
C163 C164 1.347 . S
C163 H223 0.929 . S
C164 C163 1.347 . S
C164 C165 1.455 . S
C164 H224 0.930 . S
C165 C152 1.412 . S
C165 C164 1.455 . S
C165 C166 1.331 1_565 S
C166 C155 1.451 . S
C166 C165 1.331 1_545 S
C166 C167 1.497 . S
C167 C158 1.395 . S
C167 C162 1.446 . S
C167 C166 1.497 . S
C168 C169 1.582 . S
C168 H225 0.962 . S
C168 H226 0.959 . S
C168 H227 0.958 . S
C169 C168 1.582 . S
C169 O172 1.458 . S
C169 H198 0.980 . S
O170 C115 1.426 . S
O170 C116 1.334 . S
O171 C143 1.412 . S
O171 C144 1.393 . S
O172 C134 1.435 . S
O172 C169 1.458 . S
O173 C125 1.468 . S
O173 C126 1.408 . S
H174 C115 0.980 . S
H175 C114 0.959 . S
H176 C114 0.959 . S
H177 C114 0.960 . S
H178 C117 0.929 . S
H179 C121 0.929 . S
H180 C122 0.959 . S
H181 C122 0.961 . S
H182 C122 0.961 . S
H183 C123 0.960 . S
H184 C123 0.960 . S
H185 C123 0.961 . S
H186 C125 0.980 . S
H187 C124 0.961 . S
H188 C124 0.960 . S
H189 C124 0.959 . S
H190 C127 0.930 . S
H191 C131 0.931 . S
H192 C132 0.959 . S
H193 C132 0.961 . S
H194 C132 0.959 . S
H195 C133 0.960 . S
H196 C133 0.960 . S
H197 C133 0.960 . S
H198 C169 0.980 . S
H199 C135 0.930 . S
H200 C139 0.930 . S
H201 C140 0.961 . S
H202 C140 0.960 . S
H203 C140 0.958 . S
H204 C141 0.961 . S
H205 C141 0.960 . S
H206 C141 0.960 . S
H207 C143 0.980 . S
H208 C142 0.961 . S
H209 C142 0.961 . S
H210 C142 0.959 . S
H211 C145 0.932 . S
H212 C149 0.929 . S
H213 C150 0.961 . S
H214 C150 0.959 . S
H215 C150 0.959 . S
H216 C151 0.960 . S
H217 C151 0.962 1_545 S
H218 C151 0.961 . S
H219 C153 0.929 . S
H220 C156 0.930 . S
H221 C157 0.929 . S
H222 C160 0.930 . S
H223 C163 0.929 . S
H224 C164 0.930 . S
H225 C168 0.962 . S
H226 C168 0.959 . S
H227 C168 0.958 . S
C228 C229 1.560 . S
C228 H289 0.959 . S
C228 H290 0.959 . S
C228 H291 0.960 . S
C229 C228 1.560 . S
C229 O284 1.426 . S
C229 H288 0.980 . S
C230 C231 1.407 . S
C230 C235 1.418 . S
C230 O284 1.334 . S
C231 C230 1.407 . S
C231 C232 1.360 . S
C231 H292 0.929 . S
C232 C231 1.360 . S
C232 C233 1.401 . S
C232 C236 1.527 . S
C233 C232 1.401 . S
C233 C234 1.405 . S
C233 C266 1.587 . S
C234 C233 1.405 . S
C234 C235 1.332 . S
C234 C237 1.496 . S
C235 C230 1.418 . S
C235 C234 1.332 . S
C235 H293 0.929 . S
C236 C232 1.527 . S
C236 H294 0.959 . S
C236 H295 0.961 . S
C236 H296 0.961 . S
C237 C234 1.496 . S
C237 H297 0.960 . S
C237 H298 0.960 . S
C237 H299 0.961 . S
C238 C239 1.517 . S
C238 H301 0.961 . S
C238 H302 0.960 . S
C238 H303 0.959 . S
C239 C238 1.517 . S
C239 O287 1.468 . S
C239 H300 0.980 . S
C240 C241 1.349 . S
C240 C245 1.367 . S
C240 O287 1.408 . S
C241 C240 1.349 . S
C241 C242 1.407 . S
C241 H304 0.930 . S
C242 C241 1.407 . S
C242 C243 1.449 . S
C242 C246 1.535 . S
C243 C242 1.449 . S
C243 C244 1.384 . S
C243 C268 1.553 . S
C244 C243 1.384 . S
C244 C245 1.364 . S
C244 C247 1.450 . S
C245 C240 1.367 . S
C245 C244 1.364 . S
C245 H305 0.931 . S
C246 C242 1.535 . S
C246 H306 0.959 . S
C246 H307 0.961 . S
C246 H308 0.959 . S
C247 C244 1.450 . S
C247 H309 0.960 . S
C247 H310 0.960 . S
C247 H311 0.960 . S
C248 C249 1.309 . S
C248 C253 1.304 . S
C248 O286 1.435 . S
C249 C248 1.309 . S
C249 C250 1.476 . S
C249 H313 0.930 . S
C250 C249 1.476 . S
C250 C251 1.400 . S
C250 C254 1.567 . S
C251 C250 1.400 . S
C251 C252 1.373 . S
C251 C273 1.432 . S
C252 C251 1.373 . S
C252 C253 1.339 . S
C252 C255 1.530 . S
C253 C248 1.304 . S
C253 C252 1.339 . S
C253 H314 0.930 . S
C254 C250 1.567 . S
C254 H315 0.961 . S
C254 H316 0.960 . S
C254 H317 0.958 . S
C255 C252 1.530 . S
C255 H318 0.961 . S
C255 H319 0.960 . S
C255 H320 0.960 . S
C256 C257 1.530 . S
C256 H322 0.961 . S
C256 H323 0.961 . S
C256 H324 0.959 . S
C257 C256 1.530 . S
C257 O285 1.412 . S
C257 H321 0.980 . S
C258 C259 1.288 . S
C258 C263 1.377 . S
C258 O285 1.393 . S
C259 C258 1.288 . S
C259 C260 1.369 . S
C259 H325 0.932 . S
C260 C259 1.369 . S
C260 C261 1.398 . S
C260 C264 1.527 . S
C261 C260 1.398 . S
C261 C262 1.380 . S
C261 C275 1.497 . S
C262 C261 1.380 . S
C262 C263 1.383 . S
C262 C265 1.603 . S
C263 C258 1.377 . S
C263 C262 1.383 . S
C263 H326 0.929 . S
C264 C260 1.527 . S
C264 H327 0.961 . S
C264 H328 0.959 . S
C264 H329 0.959 . S
C265 C262 1.603 . S
C265 H330 0.960 . S
C265 H331 0.962 . S
C265 H332 0.961 . S
C266 C233 1.587 . S
C266 C267 1.360 . S
C266 C279 1.412 . S
C267 C266 1.360 . S
C267 C268 1.365 . S
C267 H333 0.929 . S
C268 C243 1.553 . S
C268 C267 1.365 . S
C268 C269 1.404 . S
C269 C268 1.404 . S
C269 C270 1.395 . S
C269 C280 1.451 . S
C270 C269 1.395 . S
C270 C271 1.322 . S
C270 H334 0.930 . S
C271 C270 1.322 . S
C271 C272 1.459 . S
C271 H335 0.929 . S
C272 C271 1.459 . S
C272 C273 1.445 . S
C272 C281 1.395 . S
C273 C251 1.432 . S
C273 C272 1.445 . S
C273 C274 1.370 . S
C274 C273 1.370 . S
C274 C275 1.438 . S
C274 H336 0.930 . S
C275 C261 1.497 . S
C275 C274 1.438 . S
C275 C276 1.360 . S
C276 C275 1.360 . S
C276 C277 1.401 . S
C276 C281 1.446 . S
C277 C276 1.401 . S
C277 C278 1.347 . S
C277 H337 0.929 . S
C278 C277 1.347 . S
C278 C279 1.455 . S
C278 H338 0.930 . S
C279 C266 1.412 . S
C279 C278 1.455 . S
C279 C280 1.331 . S
C280 C269 1.451 . S
C280 C279 1.331 . S
C280 C281 1.497 . S
C281 C272 1.395 . S
C281 C276 1.446 . S
C281 C280 1.497 . S
C282 C283 1.582 . S
C282 H339 0.962 . S
C282 H340 0.959 . S
C282 H341 0.958 . S
C283 C282 1.582 . S
C283 O286 1.458 . S
C283 H312 0.980 . S
O284 C229 1.426 . S
O284 C230 1.334 . S
O285 C257 1.412 . S
O285 C258 1.393 . S
O286 C248 1.435 . S
O286 C283 1.458 . S
O287 C239 1.468 . S
O287 C240 1.408 . S
H288 C229 0.980 . S
H289 C228 0.959 . S
H290 C228 0.959 . S
H291 C228 0.960 . S
H292 C231 0.929 . S
H293 C235 0.929 . S
H294 C236 0.959 . S
H295 C236 0.961 . S
H296 C236 0.961 . S
H297 C237 0.960 . S
H298 C237 0.960 . S
H299 C237 0.961 . S
H300 C239 0.980 . S
H301 C238 0.961 . S
H302 C238 0.960 . S
H303 C238 0.959 . S
H304 C241 0.930 . S
H305 C245 0.931 . S
H306 C246 0.959 . S
H307 C246 0.961 . S
H308 C246 0.959 . S
H309 C247 0.960 . S
H310 C247 0.960 . S
H311 C247 0.960 . S
H312 C283 0.980 . S
H313 C249 0.930 . S
H314 C253 0.930 . S
H315 C254 0.961 . S
H316 C254 0.960 . S
H317 C254 0.958 . S
H318 C255 0.961 . S
H319 C255 0.960 . S
H320 C255 0.960 . S
H321 C257 0.980 . S
H322 C256 0.961 . S
H323 C256 0.961 . S
H324 C256 0.959 . S
H325 C259 0.932 . S
H326 C263 0.929 . S
H327 C264 0.961 . S
H328 C264 0.959 . S
H329 C264 0.959 . S
H330 C265 0.960 . S
H331 C265 0.962 . S
H332 C265 0.961 . S
H333 C267 0.929 . S
H334 C270 0.930 . S
H335 C271 0.929 . S
H336 C274 0.930 . S
H337 C277 0.929 . S
H338 C278 0.930 . S
H339 C282 0.962 . S
H340 C282 0.959 . S
H341 C282 0.958 . S
C342 C343 1.560 . S
C342 H403 0.959 . S
C342 H404 0.959 . S
C342 H405 0.960 . S
C343 C342 1.560 . S
C343 O398 1.426 . S
C343 H402 0.980 . S
C344 C345 1.407 . S
C344 C349 1.418 . S
C344 O398 1.334 . S
C345 C344 1.407 . S
C345 C346 1.360 . S
C345 H406 0.929 . S
C346 C345 1.360 . S
C346 C347 1.401 . S
C346 C350 1.527 . S
C347 C346 1.401 . S
C347 C348 1.405 . S
C347 C380 1.587 . S
C348 C347 1.405 . S
C348 C349 1.332 . S
C348 C351 1.496 . S
C349 C344 1.418 . S
C349 C348 1.332 . S
C349 H407 0.929 . S
C350 C346 1.527 . S
C350 H408 0.959 . S
C350 H409 0.961 . S
C350 H410 0.961 . S
C351 C348 1.496 . S
C351 H411 0.960 . S
C351 H412 0.960 . S
C351 H413 0.961 . S
C352 C353 1.517 . S
C352 H415 0.961 . S
C352 H416 0.960 . S
C352 H417 0.959 . S
C353 C352 1.517 . S
C353 O401 1.468 . S
C353 H414 0.980 . S
C354 C355 1.349 . S
C354 C359 1.367 . S
C354 O401 1.408 . S
C355 C354 1.349 . S
C355 C356 1.407 . S
C355 H418 0.930 . S
C356 C355 1.407 . S
C356 C357 1.449 . S
C356 C360 1.535 . S
C357 C356 1.449 . S
C357 C358 1.384 . S
C357 C382 1.553 1_655 S
C358 C357 1.384 . S
C358 C359 1.364 . S
C358 C361 1.450 . S
C359 C354 1.367 . S
C359 C358 1.364 . S
C359 H419 0.931 . S
C360 C356 1.535 . S
C360 H420 0.959 1_655 S
C360 H421 0.961 1_655 S
C360 H422 0.959 . S
C361 C358 1.450 . S
C361 H423 0.960 . S
C361 H424 0.960 1_655 S
C361 H425 0.960 . S
C362 C363 1.309 . S
C362 C367 1.304 . S
C362 O400 1.435 . S
C363 C362 1.309 . S
C363 C364 1.476 . S
C363 H427 0.930 . S
C364 C363 1.476 . S
C364 C365 1.400 . S
C364 C368 1.567 . S
C365 C364 1.400 . S
C365 C366 1.373 . S
C365 C387 1.432 . S
C366 C365 1.373 . S
C366 C367 1.339 . S
C366 C369 1.530 . S
C367 C362 1.304 . S
C367 C366 1.339 . S
C367 H428 0.930 . S
C368 C364 1.567 . S
C368 H429 0.961 . S
C368 H430 0.960 . S
C368 H431 0.958 . S
C369 C366 1.530 . S
C369 H432 0.961 . S
C369 H433 0.960 . S
C369 H434 0.960 . S
C370 C371 1.530 . S
C370 H436 0.961 . S
C370 H437 0.961 . S
C370 H438 0.959 . S
C371 C370 1.530 . S
C371 O399 1.412 . S
C371 H435 0.980 . S
C372 C373 1.288 . S
C372 C377 1.377 . S
C372 O399 1.393 . S
C373 C372 1.288 . S
C373 C374 1.369 . S
C373 H439 0.932 . S
C374 C373 1.369 . S
C374 C375 1.398 . S
C374 C378 1.527 . S
C375 C374 1.398 . S
C375 C376 1.380 . S
C375 C389 1.497 . S
C376 C375 1.380 . S
C376 C377 1.383 . S
C376 C379 1.603 . S
C377 C372 1.377 . S
C377 C376 1.383 . S
C377 H440 0.929 . S
C378 C374 1.527 . S
C378 H441 0.961 . S
C378 H442 0.959 1_455 S
C378 H443 0.959 . S
C379 C376 1.603 . S
C379 H444 0.960 . S
C379 H445 0.962 . S
C379 H446 0.961 . S
C380 C347 1.587 . S
C380 C381 1.360 . S
C380 C393 1.412 . S
C381 C380 1.360 . S
C381 C382 1.365 . S
C381 H447 0.929 . S
C382 C357 1.553 1_455 S
C382 C381 1.365 . S
C382 C383 1.410 . S
C383 C382 1.410 . S
C383 C384 1.382 1_455 S
C383 C394 1.461 . S
C384 C383 1.382 1_655 S
C384 C385 1.322 . S
C384 H448 0.930 . S
C385 C384 1.322 . S
C385 C386 1.459 . S
C385 H449 0.929 . S
C386 C385 1.459 . S
C386 C387 1.445 . S
C386 C395 1.395 1_655 S
C387 C365 1.432 . S
C387 C386 1.445 . S
C387 C388 1.370 . S
C388 C387 1.370 . S
C388 C389 1.438 1_655 S
C388 H450 0.930 . S
C389 C375 1.497 . S
C389 C388 1.438 1_455 S
C389 C390 1.360 . S
C390 C389 1.360 . S
C390 C391 1.401 . S
C390 C395 1.446 . S
C391 C390 1.401 . S
C391 C392 1.347 . S
C391 H451 0.929 . S
C392 C391 1.347 . S
C392 C393 1.455 . S
C392 H452 0.930 . S
C393 C380 1.412 . S
C393 C392 1.455 . S
C393 C394 1.331 . S
C394 C383 1.461 . S
C394 C393 1.331 . S
C394 C395 1.497 . S
C395 C386 1.395 1_455 S
C395 C390 1.446 . S
C395 C394 1.497 . S
C396 C397 1.582 . S
C396 H453 0.962 . S
C396 H454 0.959 . S
C396 H455 0.958 . S
C397 C396 1.582 . S
C397 O400 1.458 . S
C397 H426 0.980 . S
O398 C343 1.426 . S
O398 C344 1.334 . S
O399 C371 1.412 . S
O399 C372 1.393 . S
O400 C362 1.435 . S
O400 C397 1.458 . S
O401 C353 1.468 . S
O401 C354 1.408 . S
H402 C343 0.980 . S
H403 C342 0.959 . S
H404 C342 0.959 . S
H405 C342 0.960 . S
H406 C345 0.929 . S
H407 C349 0.929 . S
H408 C350 0.959 . S
H409 C350 0.961 . S
H410 C350 0.961 . S
H411 C351 0.960 . S
H412 C351 0.960 . S
H413 C351 0.961 . S
H414 C353 0.980 . S
H415 C352 0.961 . S
H416 C352 0.960 . S
H417 C352 0.959 . S
H418 C355 0.930 . S
H419 C359 0.931 . S
H420 C360 0.959 1_455 S
H421 C360 0.961 1_455 S
H422 C360 0.959 . S
H423 C361 0.960 . S
H424 C361 0.960 1_455 S
H425 C361 0.960 . S
H426 C397 0.980 . S
H427 C363 0.930 . S
H428 C367 0.930 . S
H429 C368 0.961 . S
H430 C368 0.960 . S
H431 C368 0.958 . S
H432 C369 0.961 . S
H433 C369 0.960 . S
H434 C369 0.960 . S
H435 C371 0.980 . S
H436 C370 0.961 . S
H437 C370 0.961 . S
H438 C370 0.959 . S
H439 C373 0.932 . S
H440 C377 0.929 . S
H441 C378 0.961 . S
H442 C378 0.959 1_655 S
H443 C378 0.959 . S
H444 C379 0.960 . S
H445 C379 0.962 . S
H446 C379 0.961 . S
H447 C381 0.929 . S
H448 C384 0.930 . S
H449 C385 0.929 . S
H450 C388 0.930 . S
H451 C391 0.929 . S
H452 C392 0.930 . S
H453 C396 0.962 . S
H454 C396 0.959 . S
H455 C396 0.958 . S
C456 C457 1.560 . S
C456 H517 0.959 . S
C456 H518 0.959 . S
C456 H519 0.960 . S
C457 C456 1.560 . S
C457 O512 1.426 . S
C457 H516 0.980 . S
C458 C459 1.407 . S
C458 C463 1.418 . S
C458 O512 1.334 . S
C459 C458 1.407 . S
C459 C460 1.360 . S
C459 H520 0.929 . S
C460 C459 1.360 . S
C460 C461 1.401 . S
C460 C464 1.527 . S
C461 C460 1.401 . S
C461 C462 1.405 . S
C461 C494 1.587 . S
C462 C461 1.405 . S
C462 C463 1.332 . S
C462 C465 1.496 . S
C463 C458 1.418 . S
C463 C462 1.332 . S
C463 H521 0.929 . S
C464 C460 1.527 . S
C464 H522 0.959 . S
C464 H523 0.961 . S
C464 H524 0.961 . S
C465 C462 1.496 . S
C465 H525 0.960 . S
C465 H526 0.960 . S
C465 H527 0.961 . S
C466 C467 1.517 . S
C466 H529 0.961 . S
C466 H530 0.960 . S
C466 H531 0.959 . S
C467 C466 1.517 . S
C467 O515 1.468 . S
C467 H528 0.980 . S
C468 C469 1.349 . S
C468 C473 1.367 . S
C468 O515 1.408 . S
C469 C468 1.349 . S
C469 C470 1.407 . S
C469 H532 0.930 . S
C470 C469 1.407 . S
C470 C471 1.449 . S
C470 C474 1.535 . S
C471 C470 1.449 . S
C471 C472 1.384 . S
C471 C496 1.553 . S
C472 C471 1.384 . S
C472 C473 1.364 . S
C472 C475 1.450 . S
C473 C468 1.367 . S
C473 C472 1.364 . S
C473 H533 0.931 . S
C474 C470 1.535 . S
C474 H534 0.959 . S
C474 H535 0.961 . S
C474 H536 0.959 . S
C475 C472 1.450 . S
C475 H537 0.960 . S
C475 H538 0.960 . S
C475 H539 0.960 . S
C476 C477 1.309 . S
C476 C481 1.304 . S
C476 O514 1.435 . S
C477 C476 1.309 . S
C477 C478 1.476 . S
C477 H541 0.930 . S
C478 C477 1.476 . S
C478 C479 1.400 . S
C478 C482 1.567 . S
C479 C478 1.400 . S
C479 C480 1.373 . S
C479 C501 1.432 . S
C480 C479 1.373 . S
C480 C481 1.339 . S
C480 C483 1.530 . S
C481 C476 1.304 . S
C481 C480 1.339 . S
C481 H542 0.930 . S
C482 C478 1.567 . S
C482 H543 0.961 . S
C482 H544 0.960 . S
C482 H545 0.958 . S
C483 C480 1.530 . S
C483 H546 0.961 . S
C483 H547 0.960 . S
C483 H548 0.960 . S
C484 C485 1.530 . S
C484 H550 0.961 . S
C484 H551 0.961 . S
C484 H552 0.959 . S
C485 C484 1.530 . S
C485 O513 1.412 . S
C485 H549 0.980 . S
C486 C487 1.288 . S
C486 C491 1.377 . S
C486 O513 1.393 . S
C487 C486 1.288 . S
C487 C488 1.369 1_565 S
C487 H553 0.932 . S
C488 C487 1.369 1_545 S
C488 C489 1.398 . S
C488 C492 1.527 . S
C489 C488 1.398 . S
C489 C490 1.380 1_545 S
C489 C503 1.497 . S
C490 C489 1.380 1_565 S
C490 C491 1.383 . S
C490 C493 1.603 . S
C491 C486 1.377 . S
C491 C490 1.383 . S
C491 H554 0.929 . S
C492 C488 1.527 . S
C492 H555 0.961 . S
C492 H556 0.959 . S
C492 H557 0.959 . S
C493 C490 1.603 . S
C493 H558 0.960 . S
C493 H559 0.962 1_565 S
C493 H560 0.961 . S
C494 C461 1.587 . S
C494 C495 1.360 . S
C494 C507 1.412 . S
C495 C494 1.360 . S
C495 C496 1.365 1_565 S
C495 H561 0.929 . S
C496 C471 1.553 . S
C496 C495 1.365 1_545 S
C496 C497 1.404 . S
C497 C496 1.404 . S
C497 C498 1.395 . S
C497 C508 1.451 . S
C498 C497 1.395 . S
C498 C499 1.322 . S
C498 H562 0.930 . S
C499 C498 1.322 . S
C499 C500 1.459 . S
C499 H563 0.929 . S
C500 C499 1.459 . S
C500 C501 1.445 1_556 S
C500 C509 1.395 . S
C501 C479 1.432 . S
C501 C500 1.445 1_554 S
C501 C502 1.370 . S
C502 C501 1.370 . S
C502 C503 1.438 . S
C502 H564 0.930 . S
C503 C489 1.497 . S
C503 C502 1.438 . S
C503 C504 1.360 . S
C504 C503 1.360 . S
C504 C505 1.401 1_545 S
C504 C509 1.446 1_554 S
C505 C504 1.401 1_565 S
C505 C506 1.347 1_554 S
C505 H565 0.929 . S
C506 C505 1.347 1_556 S
C506 C507 1.455 . S
C506 H566 0.930 . S
C507 C494 1.412 . S
C507 C506 1.455 . S
C507 C508 1.331 1_565 S
C508 C497 1.451 . S
C508 C507 1.331 1_545 S
C508 C509 1.497 . S
C509 C500 1.395 . S
C509 C504 1.446 1_556 S
C509 C508 1.497 . S
C510 C511 1.582 . S
C510 H567 0.962 . S
C510 H568 0.959 . S
C510 H569 0.958 . S
C511 C510 1.582 . S
C511 O514 1.458 . S
C511 H540 0.980 . S
O512 C457 1.426 . S
O512 C458 1.334 . S
O513 C485 1.412 . S
O513 C486 1.393 . S
O514 C476 1.435 . S
O514 C511 1.458 . S
O515 C467 1.468 . S
O515 C468 1.408 . S
H516 C457 0.980 . S
H517 C456 0.959 . S
H518 C456 0.959 . S
H519 C456 0.960 . S
H520 C459 0.929 . S
H521 C463 0.929 . S
H522 C464 0.959 . S
H523 C464 0.961 . S
H524 C464 0.961 . S
H525 C465 0.960 . S
H526 C465 0.960 . S
H527 C465 0.961 . S
H528 C467 0.980 . S
H529 C466 0.961 . S
H530 C466 0.960 . S
H531 C466 0.959 . S
H532 C469 0.930 . S
H533 C473 0.931 . S
H534 C474 0.959 . S
H535 C474 0.961 . S
H536 C474 0.959 . S
H537 C475 0.960 . S
H538 C475 0.960 . S
H539 C475 0.960 . S
H540 C511 0.980 . S
H541 C477 0.930 . S
H542 C481 0.930 . S
H543 C482 0.961 . S
H544 C482 0.960 . S
H545 C482 0.958 . S
H546 C483 0.961 . S
H547 C483 0.960 . S
H548 C483 0.960 . S
H549 C485 0.980 . S
H550 C484 0.961 . S
H551 C484 0.961 . S
H552 C484 0.959 . S
H553 C487 0.932 . S
H554 C491 0.929 . S
H555 C492 0.961 . S
H556 C492 0.959 . S
H557 C492 0.959 . S
H558 C493 0.960 . S
H559 C493 0.962 1_545 S
H560 C493 0.961 . S
H561 C495 0.929 . S
H562 C498 0.930 . S
H563 C499 0.929 . S
H564 C502 0.930 . S
H565 C505 0.929 . S
H566 C506 0.930 . S
H567 C510 0.962 . S
H568 C510 0.959 . S
H569 C510 0.958 . S
C570 C571 1.560 . S
C570 H631 0.959 . S
C570 H632 0.959 . S
C570 H633 0.960 . S
C571 C570 1.560 . S
C571 O626 1.426 . S
C571 H630 0.980 . S
C572 C573 1.407 . S
C572 C577 1.418 . S
C572 O626 1.334 . S
C573 C572 1.407 . S
C573 C574 1.360 . S
C573 H634 0.929 . S
C574 C573 1.360 . S
C574 C575 1.401 . S
C574 C578 1.527 . S
C575 C574 1.401 . S
C575 C576 1.405 . S
C575 C608 1.587 . S
C576 C575 1.405 . S
C576 C577 1.332 . S
C576 C579 1.496 . S
C577 C572 1.418 . S
C577 C576 1.332 . S
C577 H635 0.929 . S
C578 C574 1.527 . S
C578 H636 0.959 . S
C578 H637 0.961 . S
C578 H638 0.961 . S
C579 C576 1.496 . S
C579 H639 0.960 . S
C579 H640 0.960 . S
C579 H641 0.961 . S
C580 C581 1.517 . S
C580 H643 0.961 . S
C580 H644 0.960 . S
C580 H645 0.959 . S
C581 C580 1.517 . S
C581 O629 1.468 . S
C581 H642 0.980 . S
C582 C583 1.349 . S
C582 C587 1.367 . S
C582 O629 1.408 . S
C583 C582 1.349 . S
C583 C584 1.407 . S
C583 H646 0.930 . S
C584 C583 1.407 . S
C584 C585 1.449 . S
C584 C588 1.535 . S
C585 C584 1.449 . S
C585 C586 1.384 . S
C585 C610 1.553 . S
C586 C585 1.384 . S
C586 C587 1.364 . S
C586 C589 1.450 . S
C587 C582 1.367 . S
C587 C586 1.364 . S
C587 H647 0.931 . S
C588 C584 1.535 . S
C588 H648 0.959 . S
C588 H649 0.961 . S
C588 H650 0.959 . S
C589 C586 1.450 . S
C589 H651 0.960 . S
C589 H652 0.960 . S
C589 H653 0.960 . S
C590 C591 1.309 . S
C590 C595 1.304 . S
C590 O628 1.435 . S
C591 C590 1.309 . S
C591 C592 1.476 . S
C591 H655 0.930 . S
C592 C591 1.476 . S
C592 C593 1.400 . S
C592 C596 1.567 . S
C593 C592 1.400 . S
C593 C594 1.373 . S
C593 C615 1.432 . S
C594 C593 1.373 . S
C594 C595 1.339 . S
C594 C597 1.530 . S
C595 C590 1.304 . S
C595 C594 1.339 . S
C595 H656 0.930 . S
C596 C592 1.567 . S
C596 H657 0.961 . S
C596 H658 0.960 . S
C596 H659 0.958 . S
C597 C594 1.530 . S
C597 H660 0.961 . S
C597 H661 0.960 . S
C597 H662 0.960 . S
C598 C599 1.530 . S
C598 H664 0.961 . S
C598 H665 0.961 . S
C598 H666 0.959 . S
C599 C598 1.530 . S
C599 O627 1.412 . S
C599 H663 0.980 . S
C600 C601 1.288 . S
C600 C605 1.377 . S
C600 O627 1.393 . S
C601 C600 1.288 . S
C601 C602 1.369 . S
C601 H667 0.932 . S
C602 C601 1.369 . S
C602 C603 1.398 . S
C602 C606 1.527 . S
C603 C602 1.398 . S
C603 C604 1.380 . S
C603 C617 1.497 . S
C604 C603 1.380 . S
C604 C605 1.383 . S
C604 C607 1.603 . S
C605 C600 1.377 . S
C605 C604 1.383 . S
C605 H668 0.929 . S
C606 C602 1.527 . S
C606 H669 0.961 . S
C606 H670 0.959 . S
C606 H671 0.959 . S
C607 C604 1.603 . S
C607 H672 0.960 . S
C607 H673 0.962 . S
C607 H674 0.961 . S
C608 C575 1.587 . S
C608 C609 1.360 . S
C608 C621 1.412 . S
C609 C608 1.360 . S
C609 C610 1.365 . S
C609 H675 0.929 . S
C610 C585 1.553 . S
C610 C609 1.365 . S
C610 C611 1.404 . S
C611 C610 1.404 . S
C611 C612 1.395 . S
C611 C622 1.451 . S
C612 C611 1.395 . S
C612 C613 1.322 . S
C612 H676 0.930 . S
C613 C612 1.322 . S
C613 C614 1.459 . S
C613 H677 0.929 . S
C614 C613 1.459 . S
C614 C615 1.445 . S
C614 C623 1.395 . S
C615 C593 1.432 . S
C615 C614 1.445 . S
C615 C616 1.370 . S
C616 C615 1.370 . S
C616 C617 1.438 . S
C616 H678 0.930 . S
C617 C603 1.497 . S
C617 C616 1.438 . S
C617 C618 1.360 . S
C618 C617 1.360 . S
C618 C619 1.401 . S
C618 C623 1.446 . S
C619 C618 1.401 . S
C619 C620 1.347 . S
C619 H679 0.929 . S
C620 C619 1.347 . S
C620 C621 1.455 . S
C620 H680 0.930 . S
C621 C608 1.412 . S
C621 C620 1.455 . S
C621 C622 1.331 . S
C622 C611 1.451 . S
C622 C621 1.331 . S
C622 C623 1.497 . S
C623 C614 1.395 . S
C623 C618 1.446 . S
C623 C622 1.497 . S
C624 C625 1.582 . S
C624 H681 0.962 . S
C624 H682 0.959 . S
C624 H683 0.958 . S
C625 C624 1.582 . S
C625 O628 1.458 . S
C625 H654 0.980 . S
O626 C571 1.426 . S
O626 C572 1.334 . S
O627 C599 1.412 . S
O627 C600 1.393 . S
O628 C590 1.435 . S
O628 C625 1.458 . S
O629 C581 1.468 . S
O629 C582 1.408 . S
H630 C571 0.980 . S
H631 C570 0.959 . S
H632 C570 0.959 . S
H633 C570 0.960 . S
H634 C573 0.929 . S
H635 C577 0.929 . S
H636 C578 0.959 . S
H637 C578 0.961 . S
H638 C578 0.961 . S
H639 C579 0.960 . S
H640 C579 0.960 . S
H641 C579 0.961 . S
H642 C581 0.980 . S
H643 C580 0.961 . S
H644 C580 0.960 . S
H645 C580 0.959 . S
H646 C583 0.930 . S
H647 C587 0.931 . S
H648 C588 0.959 . S
H649 C588 0.961 . S
H650 C588 0.959 . S
H651 C589 0.960 . S
H652 C589 0.960 . S
H653 C589 0.960 . S
H654 C625 0.980 . S
H655 C591 0.930 . S
H656 C595 0.930 . S
H657 C596 0.961 . S
H658 C596 0.960 . S
H659 C596 0.958 . S
H660 C597 0.961 . S
H661 C597 0.960 . S
H662 C597 0.960 . S
H663 C599 0.980 . S
H664 C598 0.961 . S
H665 C598 0.961 . S
H666 C598 0.959 . S
H667 C601 0.932 . S
H668 C605 0.929 . S
H669 C606 0.961 . S
H670 C606 0.959 . S
H671 C606 0.959 . S
H672 C607 0.960 . S
H673 C607 0.962 . S
H674 C607 0.961 . S
H675 C609 0.929 . S
H676 C612 0.930 . S
H677 C613 0.929 . S
H678 C616 0.930 . S
H679 C619 0.929 . S
H680 C620 0.930 . S
H681 C624 0.962 . S
H682 C624 0.959 . S
H683 C624 0.958 . S
Mg684 O685 2.028 . S
Mg684 O691 1.986 . S
Mg684 O693 2.114 . S
Mg684 O694 2.251 . S
Mg684 O697 2.010 . S
O685 Mg684 2.028 . S
O685 C688 1.250 . S
O686 Mg687 2.028 . S
O686 C688 1.248 . S
Mg687 O686 2.028 . S
Mg687 O692 2.032 . S
Mg687 O694 2.079 . S
C688 O685 1.250 . S
C688 O686 1.248 . S
C689 O690 1.264 . S
C689 O697 1.249 . S
O690 C689 1.264 . S
O691 Mg684 1.986 . S
O691 C695 1.246 . S
O692 Mg687 2.032 . S
O692 C695 1.259 . S
O693 Mg684 2.114 . S
O693 C696 1.252 . S
O694 Mg684 2.251 . S
O694 Mg687 2.079 . S
O694 C696 1.273 . S
C695 O691 1.246 . S
C695 O692 1.259 . S
C696 O693 1.252 . S
C696 O694 1.273 . S
O697 Mg684 2.010 . S
O697 C689 1.249 . S
Mg698 O699 2.028 . S
Mg698 O705 1.986 . S
Mg698 O707 2.114 . S
Mg698 O708 2.251 . S
Mg698 O711 2.010 . S
O699 Mg698 2.028 . S
O699 C702 1.250 . S
O700 Mg701 2.028 . S
O700 C702 1.248 . S
Mg701 O700 2.028 . S
Mg701 O706 2.032 . S
Mg701 O708 2.079 . S
C702 O699 1.250 . S
C702 O700 1.248 . S
C703 O704 1.264 . S
C703 O711 1.249 . S
O704 C703 1.264 . S
O705 Mg698 1.986 . S
O705 C709 1.246 . S
O706 Mg701 2.032 . S
O706 C709 1.259 . S
O707 Mg698 2.114 . S
O707 C710 1.252 . S
O708 Mg698 2.251 . S
O708 Mg701 2.079 . S
O708 C710 1.273 . S
C709 O705 1.246 . S
C709 O706 1.259 . S
C710 O707 1.252 . S
C710 O708 1.273 . S
O711 Mg698 2.010 . S
O711 C703 1.249 . S
Mg712 O713 2.028 . S
Mg712 O719 1.986 . S
Mg712 O721 2.114 . S
Mg712 O722 2.251 . S
Mg712 O725 2.010 . S
O713 Mg712 2.028 . S
O713 C716 1.250 . S
O714 Mg715 2.028 . S
O714 C716 1.248 . S
Mg715 O714 2.028 . S
Mg715 O720 2.032 . S
Mg715 O722 2.079 . S
C716 O713 1.250 . S
C716 O714 1.248 . S
C717 O718 1.264 . S
C717 O725 1.249 . S
O718 C717 1.264 . S
O719 Mg712 1.986 . S
O719 C723 1.246 . S
O720 Mg715 2.032 . S
O720 C723 1.259 . S
O721 Mg712 2.114 . S
O721 C724 1.252 . S
O722 Mg712 2.251 . S
O722 Mg715 2.079 . S
O722 C724 1.273 . S
C723 O719 1.246 . S
C723 O720 1.259 . S
C724 O721 1.252 . S
C724 O722 1.273 . S
O725 Mg712 2.010 . S
O725 C717 1.249 . S
Mg726 O727 2.028 . S
Mg726 O733 1.986 . S
Mg726 O735 2.114 . S
Mg726 O736 2.251 . S
Mg726 O739 2.010 . S
O727 Mg726 2.028 . S
O727 C730 1.250 . S
O728 Mg729 2.028 . S
O728 C730 1.248 . S
Mg729 O728 2.028 . S
Mg729 O734 2.032 . S
Mg729 O736 2.079 . S
C730 O727 1.250 . S
C730 O728 1.248 . S
C731 O732 1.264 . S
C731 O739 1.249 . S
O732 C731 1.264 . S
O733 Mg726 1.986 . S
O733 C737 1.246 . S
O734 Mg729 2.032 . S
O734 C737 1.259 . S
O735 Mg726 2.114 . S
O735 C738 1.252 . S
O736 Mg726 2.251 . S
O736 Mg729 2.079 . S
O736 C738 1.273 . S
C737 O733 1.246 . S
C737 O734 1.259 . S
C738 O735 1.252 . S
C738 O736 1.273 . S
O739 Mg726 2.010 . S
O739 C731 1.249 . S
Mg740 O741 2.028 . S
Mg740 O747 1.986 . S
Mg740 O749 2.114 . S
Mg740 O750 2.251 . S
Mg740 O753 2.010 . S
O741 Mg740 2.028 . S
O741 C744 1.250 . S
O742 Mg743 2.028 . S
O742 C744 1.248 . S
Mg743 O742 2.028 . S
Mg743 O748 2.032 . S
Mg743 O750 2.079 . S
C744 O741 1.250 . S
C744 O742 1.248 . S
C745 O746 1.264 . S
C745 O753 1.249 . S
O746 C745 1.264 . S
O747 Mg740 1.986 . S
O747 C751 1.246 . S
O748 Mg743 2.032 . S
O748 C751 1.259 . S
O749 Mg740 2.114 . S
O749 C752 1.252 . S
O750 Mg740 2.251 . S
O750 Mg743 2.079 . S
O750 C752 1.273 . S
C751 O747 1.246 . S
C751 O748 1.259 . S
C752 O749 1.252 . S
C752 O750 1.273 . S
O753 Mg740 2.010 . S
O753 C745 1.249 . S
Mg754 O755 2.028 . S
Mg754 O761 1.986 . S
Mg754 O763 2.114 . S
Mg754 O764 2.251 . S
Mg754 O767 2.010 . S
O755 Mg754 2.028 . S
O755 C758 1.250 . S
O756 Mg757 2.028 . S
O756 C758 1.248 . S
Mg757 O756 2.028 . S
Mg757 O762 2.032 . S
Mg757 O764 2.079 . S
C758 O755 1.250 . S
C758 O756 1.248 . S
C759 O760 1.264 . S
C759 O767 1.249 . S
O760 C759 1.264 . S
O761 Mg754 1.986 . S
O761 C765 1.246 . S
O762 Mg757 2.032 . S
O762 C765 1.259 . S
O763 Mg754 2.114 . S
O763 C766 1.252 . S
O764 Mg754 2.251 . S
O764 Mg757 2.079 . S
O764 C766 1.273 . S
C765 O761 1.246 . S
C765 O762 1.259 . S
C766 O763 1.252 . S
C766 O764 1.273 . S
O767 Mg754 2.010 . S
O767 C759 1.249 . S
H768 C774 0.930 . S
H769 C778 0.930 . S
H770 C783 0.929 . S
H771 C781 0.929 . S
H772 C776 0.929 . S
H773 C782 0.929 . S
C774 H768 0.930 . S
C774 C775 1.367 . S
C774 C782 1.378 . S
C775 C774 1.367 . S
C775 C783 1.433 . S
C776 H772 0.929 . S
C776 C778 1.378 . S
C776 C780 1.350 . S
C777 C780 1.463 . S
C777 C782 1.350 . S
C777 N785 1.427 . S
C778 H769 0.930 . S
C778 C776 1.378 . S
C778 C779 1.367 . S
C779 C778 1.367 . S
C779 C781 1.433 . S
C780 C776 1.350 . S
C780 C777 1.463 . S
C780 N784 1.427 . S
C781 H771 0.929 . S
C781 C779 1.433 . S
C781 N784 1.384 . S
C782 H773 0.929 . S
C782 C774 1.378 . S
C782 C777 1.350 . S
C783 H770 0.929 . S
C783 C775 1.433 . S
C783 N785 1.384 . S
N784 C780 1.427 . S
N784 C781 1.384 . S
N785 C777 1.427 . S
N785 C783 1.384 . S
H786 C792 0.930 . S
H787 C796 0.930 . S
H788 C801 0.929 . S
H789 C799 0.929 . S
H790 C794 0.929 . S
H791 C800 0.929 . S
C792 H786 0.930 . S
C792 C793 1.367 . S
C792 C800 1.378 . S
C793 C792 1.367 . S
C793 C801 1.433 . S
C794 H790 0.929 . S
C794 C796 1.378 . S
C794 C798 1.350 . S
C795 C798 1.463 . S
C795 C800 1.350 . S
C795 N803 1.427 . S
C796 H787 0.930 . S
C796 C794 1.378 . S
C796 C797 1.367 . S
C797 C796 1.367 . S
C797 C799 1.433 . S
C798 C794 1.350 . S
C798 C795 1.463 . S
C798 N802 1.427 . S
C799 H789 0.929 . S
C799 C797 1.433 . S
C799 N802 1.384 . S
C800 H791 0.929 . S
C800 C792 1.378 . S
C800 C795 1.350 . S
C801 H788 0.929 . S
C801 C793 1.433 . S
C801 N803 1.384 . S
N802 C798 1.427 . S
N802 C799 1.384 . S
N803 C795 1.427 . S
N803 C801 1.384 . S
H804 C810 0.930 . S
H805 C814 0.930 . S
H806 C819 0.929 . S
H807 C817 0.929 . S
H808 C812 0.929 . S
H809 C818 0.929 . S
C810 H804 0.930 . S
C810 C811 1.367 . S
C810 C818 1.378 . S
C811 C810 1.367 . S
C811 C819 1.433 . S
C812 H808 0.929 . S
C812 C814 1.378 . S
C812 C816 1.350 . S
C813 C816 1.463 . S
C813 C818 1.350 . S
C813 N821 1.427 . S
C814 H805 0.930 . S
C814 C812 1.378 . S
C814 C815 1.367 . S
C815 C814 1.367 . S
C815 C817 1.433 . S
C816 C812 1.350 . S
C816 C813 1.463 . S
C816 N820 1.427 . S
C817 H807 0.929 . S
C817 C815 1.433 . S
C817 N820 1.384 . S
C818 H809 0.929 . S
C818 C810 1.378 . S
C818 C813 1.350 . S
C819 H806 0.929 . S
C819 C811 1.433 . S
C819 N821 1.384 . S
N820 C816 1.427 . S
N820 C817 1.384 . S
N821 C813 1.427 . S
N821 C819 1.384 . S
H822 C828 0.930 . S
H823 C832 0.930 . S
H824 C837 0.929 . S
H825 C835 0.929 . S
H826 C830 0.929 . S
H827 C836 0.929 . S
C828 H822 0.930 . S
C828 C829 1.367 . S
C828 C836 1.378 . S
C829 C828 1.367 . S
C829 C837 1.433 . S
C830 H826 0.929 . S
C830 C832 1.378 . S
C830 C834 1.350 . S
C831 C834 1.463 . S
C831 C836 1.350 . S
C831 N839 1.427 . S
C832 H823 0.930 . S
C832 C830 1.378 . S
C832 C833 1.367 . S
C833 C832 1.367 . S
C833 C835 1.433 . S
C834 C830 1.350 . S
C834 C831 1.463 . S
C834 N838 1.427 . S
C835 H825 0.929 . S
C835 C833 1.433 . S
C835 N838 1.384 . S
C836 H827 0.929 . S
C836 C828 1.378 . S
C836 C831 1.350 . S
C837 H824 0.929 . S
C837 C829 1.433 . S
C837 N839 1.384 . S
N838 C834 1.427 . S
N838 C835 1.384 . S
N839 C831 1.427 . S
N839 C837 1.384 . S
H840 C846 0.930 . S
H841 C850 0.930 . S
H842 C855 0.929 . S
H843 C853 0.929 . S
H844 C848 0.929 . S
H845 C854 0.929 . S
C846 H840 0.930 . S
C846 C847 1.367 . S
C846 C854 1.378 . S
C847 C846 1.367 . S
C847 C855 1.433 . S
C848 H844 0.929 . S
C848 C850 1.378 . S
C848 C852 1.350 . S
C849 C852 1.463 . S
C849 C854 1.350 . S
C849 N857 1.427 . S
C850 H841 0.930 . S
C850 C848 1.378 . S
C850 C851 1.367 . S
C851 C850 1.367 . S
C851 C853 1.433 . S
C852 C848 1.350 . S
C852 C849 1.463 . S
C852 N856 1.427 . S
C853 H843 0.929 . S
C853 C851 1.433 . S
C853 N856 1.384 . S
C854 H845 0.929 . S
C854 C846 1.378 . S
C854 C849 1.350 . S
C855 H842 0.929 . S
C855 C847 1.433 . S
C855 N857 1.384 . S
N856 C852 1.427 . S
N856 C853 1.384 . S
N857 C849 1.427 . S
N857 C855 1.384 . S
H858 C864 0.930 . S
H859 C868 0.930 . S
H860 C873 0.929 . S
H861 C871 0.929 . S
H862 C866 0.929 . S
H863 C872 0.929 . S
C864 H858 0.930 . S
C864 C865 1.367 . S
C864 C872 1.378 . S
C865 C864 1.367 . S
C865 C873 1.433 . S
C866 H862 0.929 . S
C866 C868 1.378 . S
C866 C870 1.350 . S
C867 C870 1.463 . S
C867 C872 1.350 . S
C867 N875 1.427 . S
C868 H859 0.930 . S
C868 C866 1.378 . S
C868 C869 1.367 . S
C869 C868 1.367 . S
C869 C871 1.433 . S
C870 C866 1.350 . S
C870 C867 1.463 . S
C870 N874 1.427 . S
C871 H861 0.929 . S
C871 C869 1.433 . S
C871 N874 1.384 . S
C872 H863 0.929 . S
C872 C864 1.378 . S
C872 C867 1.350 . S
C873 H860 0.929 . S
C873 C865 1.433 . S
C873 N875 1.384 . S
N874 C870 1.427 . S
N874 C871 1.384 . S
N875 C867 1.427 . S
N875 C873 1.384 . S
H876 C882 0.930 . S
H877 C886 0.930 . S
H878 C891 0.929 . S
H879 C889 0.929 . S
H880 C884 0.929 . S
H881 C890 0.929 . S
C882 H876 0.930 . S
C882 C883 1.367 . S
C882 C890 1.378 . S
C883 C882 1.367 . S
C883 C891 1.433 . S
C884 H880 0.929 . S
C884 C886 1.378 . S
C884 C888 1.350 . S
C885 C888 1.463 . S
C885 C890 1.350 . S
C885 N893 1.427 . S
C886 H877 0.930 . S
C886 C884 1.378 . S
C886 C887 1.367 . S
C887 C886 1.367 . S
C887 C889 1.433 . S
C888 C884 1.350 . S
C888 C885 1.463 . S
C888 N892 1.427 . S
C889 H879 0.929 . S
C889 C887 1.433 . S
C889 N892 1.384 . S
C890 H881 0.929 . S
C890 C882 1.378 . S
C890 C885 1.350 . S
C891 H878 0.929 . S
C891 C883 1.433 . S
C891 N893 1.384 . S
N892 C888 1.427 . S
N892 C889 1.384 . S
N893 C885 1.427 . S
N893 C891 1.384 . S
H894 C900 0.930 . S
H895 C904 0.930 . S
H896 C909 0.929 . S
H897 C907 0.929 . S
H898 C902 0.929 . S
H899 C908 0.929 . S
C900 H894 0.930 . S
C900 C901 1.367 . S
C900 C908 1.378 . S
C901 C900 1.367 . S
C901 C909 1.433 . S
C902 H898 0.929 . S
C902 C904 1.378 . S
C902 C906 1.350 . S
C903 C906 1.463 . S
C903 C908 1.350 . S
C903 N911 1.427 . S
C904 H895 0.930 . S
C904 C902 1.378 . S
C904 C905 1.367 . S
C905 C904 1.367 . S
C905 C907 1.433 . S
C906 C902 1.350 . S
C906 C903 1.463 . S
C906 N910 1.427 . S
C907 H897 0.929 . S
C907 C905 1.433 . S
C907 N910 1.384 . S
C908 H899 0.929 . S
C908 C900 1.378 . S
C908 C903 1.350 . S
C909 H896 0.929 . S
C909 C901 1.433 . S
C909 N911 1.384 . S
N910 C906 1.427 . S
N910 C907 1.384 . S
N911 C903 1.427 . S
N911 C909 1.384 . S
H912 C918 0.930 . S
H913 C922 0.930 . S
H914 C927 0.929 . S
H915 C925 0.929 . S
H916 C920 0.929 . S
H917 C926 0.929 . S
C918 H912 0.930 . S
C918 C919 1.367 . S
C918 C926 1.378 . S
C919 C918 1.367 . S
C919 C927 1.433 . S
C920 H916 0.929 . S
C920 C922 1.378 . S
C920 C924 1.350 . S
C921 C924 1.463 . S
C921 C926 1.350 . S
C921 N929 1.427 . S
C922 H913 0.930 . S
C922 C920 1.378 . S
C922 C923 1.367 . S
C923 C922 1.367 . S
C923 C925 1.433 . S
C924 C920 1.350 . S
C924 C921 1.463 . S
C924 N928 1.427 . S
C925 H915 0.929 . S
C925 C923 1.433 . S
C925 N928 1.384 . S
C926 H917 0.929 . S
C926 C918 1.378 . S
C926 C921 1.350 . S
C927 H914 0.929 . S
C927 C919 1.433 . S
C927 N929 1.384 . S
N928 C924 1.427 . S
N928 C925 1.384 . S
N929 C921 1.427 . S
N929 C927 1.384 . S
H930 C936 0.930 . S
H931 C940 0.930 . S
H932 C945 0.929 . S
H933 C943 0.929 . S
H934 C938 0.929 . S
H935 C944 0.929 . S
C936 H930 0.930 . S
C936 C937 1.367 . S
C936 C944 1.378 . S
C937 C936 1.367 . S
C937 C945 1.433 . S
C938 H934 0.929 . S
C938 C940 1.378 . S
C938 C942 1.350 . S
C939 C942 1.463 . S
C939 C944 1.350 . S
C939 N947 1.427 . S
C940 H931 0.930 . S
C940 C938 1.378 . S
C940 C941 1.367 . S
C941 C940 1.367 . S
C941 C943 1.433 . S
C942 C938 1.350 . S
C942 C939 1.463 . S
C942 N946 1.427 . S
C943 H933 0.929 . S
C943 C941 1.433 . S
C943 N946 1.384 . S
C944 H935 0.929 . S
C944 C936 1.378 . S
C944 C939 1.350 . S
C945 H932 0.929 . S
C945 C937 1.433 . S
C945 N947 1.384 . S
N946 C942 1.427 . S
N946 C943 1.384 . S
N947 C939 1.427 . S
N947 C945 1.384 . S
H948 C954 0.930 . S
H949 C958 0.930 . S
H950 C963 0.929 . S
H951 C961 0.929 . S
H952 C956 0.929 . S
H953 C962 0.929 . S
C954 H948 0.930 . S
C954 C955 1.367 . S
C954 C962 1.378 . S
C955 C954 1.367 . S
C955 C963 1.433 . S
C956 H952 0.929 . S
C956 C958 1.378 . S
C956 C960 1.350 . S
C957 C960 1.463 . S
C957 C962 1.350 . S
C957 N965 1.427 . S
C958 H949 0.930 . S
C958 C956 1.378 . S
C958 C959 1.367 . S
C959 C958 1.367 . S
C959 C961 1.433 . S
C960 C956 1.350 . S
C960 C957 1.463 . S
C960 N964 1.427 . S
C961 H951 0.929 . S
C961 C959 1.433 . S
C961 N964 1.384 . S
C962 H953 0.929 . S
C962 C954 1.378 . S
C962 C957 1.350 . S
C963 H950 0.929 . S
C963 C955 1.433 . S
C963 N965 1.384 . S
N964 C960 1.427 . S
N964 C961 1.384 . S
N965 C957 1.427 . S
N965 C963 1.384 . S
H966 C972 0.930 . S
H967 C976 0.930 . S
H968 C981 0.929 . S
H969 C979 0.929 . S
H970 C974 0.929 . S
H971 C980 0.929 . S
C972 H966 0.930 . S
C972 C973 1.367 . S
C972 C980 1.378 . S
C973 C972 1.367 . S
C973 C981 1.433 . S
C974 H970 0.929 . S
C974 C976 1.378 . S
C974 C978 1.350 . S
C975 C978 1.463 . S
C975 C980 1.350 . S
C975 N983 1.427 . S
C976 H967 0.930 . S
C976 C974 1.378 . S
C976 C977 1.367 . S
C977 C976 1.367 . S
C977 C979 1.433 . S
C978 C974 1.350 . S
C978 C975 1.463 . S
C978 N982 1.427 . S
C979 H969 0.929 . S
C979 C977 1.433 . S
C979 N982 1.384 . S
C980 H971 0.929 . S
C980 C972 1.378 . S
C980 C975 1.350 . S
C981 H968 0.929 . S
C981 C973 1.433 . S
C981 N983 1.384 . S
N982 C978 1.427 . S
N982 C979 1.384 . S
N983 C975 1.427 . S
N983 C981 1.384 . S
H984 C990 0.930 . S
H985 C994 0.930 . S
H986 C999 0.929 . S
H987 C997 0.929 . S
H988 C992 0.929 . S
H989 C998 0.929 . S
C990 H984 0.930 . S
C990 C991 1.367 . S
C990 C998 1.378 . S
C991 C990 1.367 . S
C991 C999 1.433 . S
C992 H988 0.929 . S
C992 C994 1.378 . S
C992 C996 1.350 . S
C993 C996 1.463 . S
C993 C998 1.350 . S
C993 N1001 1.427 . S
C994 H985 0.930 . S
C994 C992 1.378 . S
C994 C995 1.367 . S
C995 C994 1.367 . S
C995 C997 1.433 . S
C996 C992 1.350 . S
C996 C993 1.463 . S
C996 N1000 1.427 . S
C997 H987 0.929 . S
C997 C995 1.433 . S
C997 N1000 1.384 . S
C998 H989 0.929 . S
C998 C990 1.378 . S
C998 C993 1.350 . S
C999 H986 0.929 . S
C999 C991 1.433 . S
C999 N1001 1.384 . S
N1000 C996 1.427 . S
N1000 C997 1.384 . S
N1001 C993 1.427 . S
N1001 C999 1.384 . S
H1002 C1008 0.930 . S
H1003 C1012 0.930 . S
H1004 C1017 0.929 . S
H1005 C1015 0.929 . S
H1006 C1010 0.929 . S
H1007 C1016 0.929 . S
C1008 H1002 0.930 . S
C1008 C1009 1.367 . S
C1008 C1016 1.378 . S
C1009 C1008 1.367 . S
C1009 C1017 1.433 . S
C1010 H1006 0.929 . S
C1010 C1012 1.378 . S
C1010 C1014 1.350 . S
C1011 C1014 1.463 . S
C1011 C1016 1.350 . S
C1011 N1019 1.427 . S
C1012 H1003 0.930 . S
C1012 C1010 1.378 . S
C1012 C1013 1.367 . S
C1013 C1012 1.367 . S
C1013 C1015 1.433 . S
C1014 C1010 1.350 . S
C1014 C1011 1.463 . S
C1014 N1018 1.427 . S
C1015 H1005 0.929 . S
C1015 C1013 1.433 . S
C1015 N1018 1.384 . S
C1016 H1007 0.929 . S
C1016 C1008 1.378 . S
C1016 C1011 1.350 . S
C1017 H1004 0.929 . S
C1017 C1009 1.433 . S
C1017 N1019 1.384 . S
N1018 C1014 1.427 . S
N1018 C1015 1.384 . S
N1019 C1011 1.427 . S
N1019 C1017 1.384 . S
H1020 C1026 0.930 . S
H1021 C1030 0.930 . S
H1022 C1035 0.929 . S
H1023 C1033 0.929 . S
H1024 C1028 0.929 . S
H1025 C1034 0.929 . S
C1026 H1020 0.930 . S
C1026 C1027 1.367 . S
C1026 C1034 1.378 . S
C1027 C1026 1.367 . S
C1027 C1035 1.433 . S
C1028 H1024 0.929 . S
C1028 C1030 1.378 . S
C1028 C1032 1.350 . S
C1029 C1032 1.463 . S
C1029 C1034 1.350 . S
C1029 N1037 1.427 . S
C1030 H1021 0.930 . S
C1030 C1028 1.378 . S
C1030 C1031 1.367 . S
C1031 C1030 1.367 . S
C1031 C1033 1.433 . S
C1032 C1028 1.350 . S
C1032 C1029 1.463 . S
C1032 N1036 1.427 . S
C1033 H1023 0.929 . S
C1033 C1031 1.433 . S
C1033 N1036 1.384 . S
C1034 H1025 0.929 . S
C1034 C1026 1.378 . S
C1034 C1029 1.350 . S
C1035 H1022 0.929 . S
C1035 C1027 1.433 . S
C1035 N1037 1.384 . S
N1036 C1032 1.427 . S
N1036 C1033 1.384 . S
N1037 C1029 1.427 . S
N1037 C1035 1.384 . S
H1038 C1044 0.930 . S
H1039 C1048 0.930 . S
H1040 C1053 0.929 . S
H1041 C1051 0.929 . S
H1042 C1046 0.929 . S
H1043 C1052 0.929 . S
C1044 H1038 0.930 . S
C1044 C1045 1.367 . S
C1044 C1052 1.378 . S
C1045 C1044 1.367 . S
C1045 C1053 1.433 . S
C1046 H1042 0.929 . S
C1046 C1048 1.378 1_556 S
C1046 C1050 1.350 . S
C1047 C1050 1.463 . S
C1047 C1052 1.350 . S
C1047 N1055 1.427 . S
C1048 H1039 0.930 . S
C1048 C1046 1.378 1_554 S
C1048 C1049 1.367 . S
C1049 C1048 1.367 . S
C1049 C1051 1.433 . S
C1050 C1046 1.350 . S
C1050 C1047 1.463 . S
C1050 N1054 1.427 1_556 S
C1051 H1041 0.929 . S
C1051 C1049 1.433 . S
C1051 N1054 1.384 . S
C1052 H1043 0.929 . S
C1052 C1044 1.378 . S
C1052 C1047 1.350 . S
C1053 H1040 0.929 . S
C1053 C1045 1.433 . S
C1053 N1055 1.384 . S
N1054 C1050 1.427 1_554 S
N1054 C1051 1.384 . S
N1055 C1047 1.427 . S
N1055 C1053 1.384 . S
H1056 C1062 0.930 . S
H1057 C1066 0.930 . S
H1058 C1071 0.929 . S
H1059 C1069 0.929 . S
H1060 C1064 0.929 . S
H1061 C1070 0.929 . S
C1062 H1056 0.930 . S
C1062 C1063 1.367 . S
C1062 C1070 1.378 . S
C1063 C1062 1.367 . S
C1063 C1071 1.433 . S
C1064 H1060 0.929 . S
C1064 C1066 1.378 . S
C1064 C1068 1.350 . S
C1065 C1068 1.463 . S
C1065 C1070 1.350 . S
C1065 N1073 1.427 . S
C1066 H1057 0.930 . S
C1066 C1064 1.378 . S
C1066 C1067 1.367 . S
C1067 C1066 1.367 . S
C1067 C1069 1.433 . S
C1068 C1064 1.350 . S
C1068 C1065 1.463 . S
C1068 N1072 1.427 . S
C1069 H1059 0.929 . S
C1069 C1067 1.433 . S
C1069 N1072 1.384 . S
C1070 H1061 0.929 . S
C1070 C1062 1.378 . S
C1070 C1065 1.350 . S
C1071 H1058 0.929 . S
C1071 C1063 1.433 . S
C1071 N1073 1.384 . S
N1072 C1068 1.427 . S
N1072 C1069 1.384 . S
N1073 C1065 1.427 . S
N1073 C1071 1.384 . S
H1074 C1080 0.930 . S
H1075 C1084 0.930 . S
H1076 C1089 0.929 . S
H1077 C1087 0.929 . S
H1078 C1082 0.929 . S
H1079 C1088 0.929 . S
C1080 H1074 0.930 . S
C1080 C1081 1.367 . S
C1080 C1088 1.378 . S
C1081 C1080 1.367 . S
C1081 C1089 1.433 . S
C1082 H1078 0.929 . S
C1082 C1084 1.378 . S
C1082 C1086 1.350 . S
C1083 C1086 1.463 . S
C1083 C1088 1.350 . S
C1083 N1091 1.427 . S
C1084 H1075 0.930 . S
C1084 C1082 1.378 . S
C1084 C1085 1.367 . S
C1085 C1084 1.367 . S
C1085 C1087 1.433 . S
C1086 C1082 1.350 . S
C1086 C1083 1.463 . S
C1086 N1090 1.427 . S
C1087 H1077 0.929 . S
C1087 C1085 1.433 . S
C1087 N1090 1.384 . S
C1088 H1079 0.929 . S
C1088 C1080 1.378 . S
C1088 C1083 1.350 . S
C1089 H1076 0.929 . S
C1089 C1081 1.433 . S
C1089 N1091 1.384 . S
N1090 C1086 1.427 . S
N1090 C1087 1.384 . S
N1091 C1083 1.427 . S
N1091 C1089 1.384 . S
H1092 C1098 0.930 . S
H1093 C1102 0.930 . S
H1094 C1107 0.929 . S
H1095 C1105 0.929 . S
H1096 C1100 0.929 . S
H1097 C1106 0.929 . S
C1098 H1092 0.930 . S
C1098 C1099 1.367 . S
C1098 C1106 1.378 . S
C1099 C1098 1.367 . S
C1099 C1107 1.433 . S
C1100 H1096 0.929 . S
C1100 C1102 1.378 . S
C1100 C1104 1.350 . S
C1101 C1104 1.463 . S
C1101 C1106 1.350 . S
C1101 N1109 1.427 . S
C1102 H1093 0.930 . S
C1102 C1100 1.378 . S
C1102 C1103 1.367 . S
C1103 C1102 1.367 . S
C1103 C1105 1.433 . S
C1104 C1100 1.350 . S
C1104 C1101 1.463 . S
C1104 N1108 1.427 . S
C1105 H1095 0.929 . S
C1105 C1103 1.433 . S
C1105 N1108 1.384 . S
C1106 H1097 0.929 . S
C1106 C1098 1.378 . S
C1106 C1101 1.350 . S
C1107 H1094 0.929 . S
C1107 C1099 1.433 . S
C1107 N1109 1.384 . S
N1108 C1104 1.427 . S
N1108 C1105 1.384 . S
N1109 C1101 1.427 . S
N1109 C1107 1.384 . S
H1110 C1116 0.930 . S
H1111 C1120 0.930 . S
H1112 C1125 0.929 . S
H1113 C1123 0.929 . S
H1114 C1118 0.929 . S
H1115 C1124 0.929 . S
C1116 H1110 0.930 . S
C1116 C1117 1.367 . S
C1116 C1124 1.378 . S
C1117 C1116 1.367 . S
C1117 C1125 1.433 . S
C1118 H1114 0.929 . S
C1118 C1120 1.378 . S
C1118 C1122 1.350 . S
C1119 C1122 1.463 . S
C1119 C1124 1.350 . S
C1119 N1127 1.427 . S
C1120 H1111 0.930 . S
C1120 C1118 1.378 . S
C1120 C1121 1.367 . S
C1121 C1120 1.367 . S
C1121 C1123 1.433 . S
C1122 C1118 1.350 . S
C1122 C1119 1.463 . S
C1122 N1126 1.427 . S
C1123 H1113 0.929 . S
C1123 C1121 1.433 . S
C1123 N1126 1.384 . S
C1124 H1115 0.929 . S
C1124 C1116 1.378 . S
C1124 C1119 1.350 . S
C1125 H1112 0.929 . S
C1125 C1117 1.433 . S
C1125 N1127 1.384 . S
N1126 C1122 1.427 . S
N1126 C1123 1.384 . S
N1127 C1119 1.427 . S
N1127 C1125 1.384 . S
H1128 C1134 0.930 . S
H1129 C1138 0.930 . S
H1130 C1143 0.929 . S
H1131 C1141 0.929 . S
H1132 C1136 0.929 . S
H1133 C1142 0.929 . S
C1134 H1128 0.930 . S
C1134 C1135 1.367 . S
C1134 C1142 1.378 . S
C1135 C1134 1.367 . S
C1135 C1143 1.433 . S
C1136 H1132 0.929 . S
C1136 C1138 1.378 . S
C1136 C1140 1.350 . S
C1137 C1140 1.463 . S
C1137 C1142 1.350 . S
C1137 N1145 1.427 . S
C1138 H1129 0.930 . S
C1138 C1136 1.378 . S
C1138 C1139 1.367 . S
C1139 C1138 1.367 . S
C1139 C1141 1.433 . S
C1140 C1136 1.350 . S
C1140 C1137 1.463 . S
C1140 N1144 1.427 . S
C1141 H1131 0.929 . S
C1141 C1139 1.433 . S
C1141 N1144 1.384 . S
C1142 H1133 0.929 . S
C1142 C1134 1.378 . S
C1142 C1137 1.350 . S
C1143 H1130 0.929 . S
C1143 C1135 1.433 . S
C1143 N1145 1.384 . S
N1144 C1140 1.427 . S
N1144 C1141 1.384 . S
N1145 C1137 1.427 . S
N1145 C1143 1.384 . S
H1146 C1152 0.930 . S
H1147 C1156 0.930 . S
H1148 C1161 0.929 . S
H1149 C1159 0.929 . S
H1150 C1154 0.929 . S
H1151 C1160 0.929 . S
C1152 H1146 0.930 . S
C1152 C1153 1.367 . S
C1152 C1160 1.378 . S
C1153 C1152 1.367 . S
C1153 C1161 1.433 . S
C1154 H1150 0.929 . S
C1154 C1156 1.378 . S
C1154 C1158 1.350 . S
C1155 C1158 1.463 . S
C1155 C1160 1.350 . S
C1155 N1163 1.427 . S
C1156 H1147 0.930 . S
C1156 C1154 1.378 . S
C1156 C1157 1.367 . S
C1157 C1156 1.367 . S
C1157 C1159 1.433 . S
C1158 C1154 1.350 . S
C1158 C1155 1.463 . S
C1158 N1162 1.427 . S
C1159 H1149 0.929 . S
C1159 C1157 1.433 . S
C1159 N1162 1.384 . S
C1160 H1151 0.929 . S
C1160 C1152 1.378 . S
C1160 C1155 1.350 . S
C1161 H1148 0.929 . S
C1161 C1153 1.433 . S
C1161 N1163 1.384 . S
N1162 C1158 1.427 . S
N1162 C1159 1.384 . S
N1163 C1155 1.427 . S
N1163 C1161 1.384 . S
H1164 C1170 0.930 . S
H1165 C1174 0.930 . S
H1166 C1179 0.929 . S
H1167 C1177 0.929 . S
H1168 C1172 0.929 . S
H1169 C1178 0.929 . S
C1170 H1164 0.930 . S
C1170 C1171 1.367 . S
C1170 C1178 1.378 1_554 S
C1171 C1170 1.367 . S
C1171 C1179 1.433 . S
C1172 H1168 0.929 . S
C1172 C1174 1.378 . S
C1172 C1176 1.350 . S
C1173 C1176 1.463 . S
C1173 C1178 1.350 . S
C1173 N1181 1.427 1_556 S
C1174 H1165 0.930 . S
C1174 C1172 1.378 . S
C1174 C1175 1.367 . S
C1175 C1174 1.367 . S
C1175 C1177 1.433 . S
C1176 C1172 1.350 . S
C1176 C1173 1.463 . S
C1176 N1180 1.427 . S
C1177 H1167 0.929 . S
C1177 C1175 1.433 . S
C1177 N1180 1.384 . S
C1178 H1169 0.929 . S
C1178 C1170 1.378 1_556 S
C1178 C1173 1.350 . S
C1179 H1166 0.929 . S
C1179 C1171 1.433 . S
C1179 N1181 1.384 . S
N1180 C1176 1.427 . S
N1180 C1177 1.384 . S
N1181 C1173 1.427 1_554 S
N1181 C1179 1.384 . S
H1182 C1188 0.930 . S
H1183 C1192 0.930 . S
H1184 C1197 0.929 . S
H1185 C1195 0.929 . S
H1186 C1190 0.929 . S
H1187 C1196 0.929 . S
C1188 H1182 0.930 . S
C1188 C1189 1.367 . S
C1188 C1196 1.378 . S
C1189 C1188 1.367 . S
C1189 C1197 1.433 . S
C1190 H1186 0.929 . S
C1190 C1192 1.378 . S
C1190 C1194 1.350 . S
C1191 C1194 1.463 . S
C1191 C1196 1.350 . S
C1191 N1199 1.427 . S
C1192 H1183 0.930 . S
C1192 C1190 1.378 . S
C1192 C1193 1.367 . S
C1193 C1192 1.367 . S
C1193 C1195 1.433 . S
C1194 C1190 1.350 . S
C1194 C1191 1.463 . S
C1194 N1198 1.427 . S
C1195 H1185 0.929 . S
C1195 C1193 1.433 . S
C1195 N1198 1.384 . S
C1196 H1187 0.929 . S
C1196 C1188 1.378 . S
C1196 C1191 1.350 . S
C1197 H1184 0.929 . S
C1197 C1189 1.433 . S
C1197 N1199 1.384 . S
N1198 C1194 1.427 . S
N1198 C1195 1.384 . S
N1199 C1191 1.427 . S
N1199 C1197 1.384 . S
C779 C759 1.289 . S
C775 C1 1.187 . S
C793 C169 1.551 . S
C797 C689 1.468 . S
C811 C283 1.465 . S
C815 C709 1.768 . S
C829 C397 1.254 . S
C833 C723 1.528 . S
C851 C731 1.154 . S
C847 C457 1.043 . S
C865 C571 1.071 . S
C869 C745 1.165 . S
C883 C115 1.226 . S
C887 C703 1.305 . S
C901 C229 1.056 . S
C905 C717 1.182 . S
C919 C343 1.057 . S
C923 C737 1.410 . S
C941 C751 1.608 . S
C937 C511 1.332 . S
C959 C765 1.723 . S
C955 C625 1.455 . S
C977 C695 1.796 . S
C973 C55 1.513 . S
C991 C29 1.105 . S
C995 C702 1.376 . S
C1009 C125 0.952 . S
C1013 C716 1.467 . S
C1031 C738 1.415 . S
C1027 C239 0.886 . S
C1045 C353 0.867 . S
C1049 C752 1.404 . S
C1067 C766 1.326 . S
C1063 C485 1.033 . S
C1085 C696 1.371 . S
C1081 C599 1.102 . S
C1103 C758 1.375 . S
C1099 C143 1.120 . S
C1117 C257 1.089 . S
C1121 C688 1.361 . S
C1139 C710 1.327 . S
C1135 C371 1.077 . S
C1153 C467 0.866 . S
C1157 C724 1.404 . S
C1171 C581 0.868 . S
C1175 C730 1.440 . S
C1189 C11 0.911 . S
C1193 C744 1.477 . S
