# Generated by pormake.
# Topology zzz, (3,6)-cn, num edge types: 1
# Building blocks:
#     Node 0, Type 0, BuildingBlock: MIDCAF_clean_linker_0, # of connection points: 3
#     Node 1, Type 0, BuildingBlock: MIDCAF_clean_linker_0, # of connection points: 3
#     Node 2, Type 0, BuildingBlock: MIDCAF_clean_linker_0, # of connection points: 3
#     Node 3, Type 0, BuildingBlock: MIDCAF_clean_linker_0, # of connection points: 3
#     Node 4, Type 0, BuildingBlock: MIDCAF_clean_linker_0, # of connection points: 3
#     Node 5, Type 0, BuildingBlock: MIDCAF_clean_linker_0, # of connection points: 3
#     Node 6, Type 0, BuildingBlock: MIDCAF_clean_linker_0, # of connection points: 3
#     Node 7, Type 0, BuildingBlock: MIDCAF_clean_linker_0, # of connection points: 3
#     Node 8, Type 1, BuildingBlock: KUMJIN_clean_sbu_1, # of connection points: 6
#     Node 9, Type 1, BuildingBlock: KUMJIN_clean_sbu_1, # of connection points: 6
#     Node 10, Type 1, BuildingBlock: KUMJIN_clean_sbu_1, # of connection points: 6
#     Node 11, Type 1, BuildingBlock: KUMJIN_clean_sbu_1, # of connection points: 6
#     Edge 12, Type (0, 1), BuildingBlock: EZIPEK_clean_linker_0, # of connection points: 2
#     Edge 13, Type (0, 1), BuildingBlock: EZIPEK_clean_linker_0, # of connection points: 2
#     Edge 14, Type (0, 1), BuildingBlock: EZIPEK_clean_linker_0, # of connection points: 2
#     Edge 15, Type (0, 1), BuildingBlock: EZIPEK_clean_linker_0, # of connection points: 2
#     Edge 16, Type (0, 1), BuildingBlock: EZIPEK_clean_linker_0, # of connection points: 2
#     Edge 17, Type (0, 1), BuildingBlock: EZIPEK_clean_linker_0, # of connection points: 2
#     Edge 18, Type (0, 1), BuildingBlock: EZIPEK_clean_linker_0, # of connection points: 2
#     Edge 19, Type (0, 1), BuildingBlock: EZIPEK_clean_linker_0, # of connection points: 2
#     Edge 20, Type (0, 1), BuildingBlock: EZIPEK_clean_linker_0, # of connection points: 2
#     Edge 21, Type (0, 1), BuildingBlock: EZIPEK_clean_linker_0, # of connection points: 2
#     Edge 22, Type (0, 1), BuildingBlock: EZIPEK_clean_linker_0, # of connection points: 2
#     Edge 23, Type (0, 1), BuildingBlock: EZIPEK_clean_linker_0, # of connection points: 2
#     Edge 24, Type (0, 1), BuildingBlock: EZIPEK_clean_linker_0, # of connection points: 2
#     Edge 25, Type (0, 1), BuildingBlock: EZIPEK_clean_linker_0, # of connection points: 2
#     Edge 26, Type (0, 1), BuildingBlock: EZIPEK_clean_linker_0, # of connection points: 2
#     Edge 27, Type (0, 1), BuildingBlock: EZIPEK_clean_linker_0, # of connection points: 2
#     Edge 28, Type (0, 1), BuildingBlock: EZIPEK_clean_linker_0, # of connection points: 2
#     Edge 29, Type (0, 1), BuildingBlock: EZIPEK_clean_linker_0, # of connection points: 2
#     Edge 30, Type (0, 1), BuildingBlock: EZIPEK_clean_linker_0, # of connection points: 2
#     Edge 31, Type (0, 1), BuildingBlock: EZIPEK_clean_linker_0, # of connection points: 2
#     Edge 32, Type (0, 1), BuildingBlock: EZIPEK_clean_linker_0, # of connection points: 2
#     Edge 33, Type (0, 1), BuildingBlock: EZIPEK_clean_linker_0, # of connection points: 2
#     Edge 34, Type (0, 1), BuildingBlock: EZIPEK_clean_linker_0, # of connection points: 2
#     Edge 35, Type (0, 1), BuildingBlock: EZIPEK_clean_linker_0, # of connection points: 2
# Relax obj value: 0.356
# Max RMSD: 0.206
# Mean RMSD: 0.185
data_MOF--net-zzz--node1-KUMJIN_clean_sbu_1--node2-MIDCAF_clean_linker_0--edge1-EZIPEK_clean_linker_0
_symmetry_space_group_name_H-M    P1
_symmetry_Int_Tables_number       1
_symmetry_cell_setting            triclinic
loop_
_symmetry_equiv_pos_as_xyz
'x, y, z'
_cell_length_a     43.619127
_cell_length_b     43.61971
_cell_length_c     16.379906
_cell_angle_alpha  89.963571
_cell_angle_beta   89.443179
_cell_angle_gamma 90.269699
loop_
_atom_site_label
_atom_site_type_symbol
_atom_site_fract_x
_atom_site_fract_y
_atom_site_fract_z
_atom_type_partial_charge
C0 C 0.86776 0.56968 0.3498 0.0
C1 C 0.85772 0.55437 0.42027 0.0
C2 C 0.82621 0.54686 0.42711 0.0
C3 C 0.80533 0.55473 0.36455 0.0
H4 H 0.71842 0.52474 0.15245 0.0
H5 H 0.67227 0.51163 0.07301 0.0
H6 H 0.66165 0.60691 1.00962 0.0
H7 H 0.70497 0.62011 0.09405 0.0
H8 H 0.77132 0.61624 0.94681 0.0
H9 H 0.80317 0.62499 0.82906 0.0
H10 H 0.87837 0.64993 0.98805 0.0
H11 H 0.8464 0.63983 0.10476 0.0
H12 H 0.85662 0.5893 0.23531 0.0
H13 H 0.8918 0.57555 0.34221 0.0
H14 H 0.8178 0.53483 0.48072 0.0
H15 H 0.78133 0.54879 0.37188 0.0
N16 N 0.76452 0.57126 0.21624 0.0
N17 N 0.76195 0.60069 0.09559 0.0
N18 N 0.8073 0.59962 0.16842 0.0
C19 C 0.74801 0.58193 0.1505 0.0
C20 C 0.79128 0.60968 0.1036 0.0
C21 C 0.79465 0.58065 0.22561 0.0
C22 C 0.71556 0.57352 0.1302 0.0
C23 C 0.70517 0.54297 0.12537 0.0
C24 C 0.67904 0.53545 0.07842 0.0
C25 C 0.66346 0.55814 0.033 0.0
C26 C 0.67282 0.58874 0.04301 0.0
C27 C 0.69781 0.59629 0.09202 0.0
C28 C 0.80701 0.62543 0.03508 0.0
C29 C 0.79457 0.62421 0.95637 0.0
C30 C 0.8132 0.62932 0.88795 0.0
C31 C 0.8448 0.63561 0.89675 0.0
C32 C 0.85506 0.64301 0.97628 0.0
C33 C 0.8366 0.63729 0.04459 0.0
C34 C 0.81551 0.57038 0.29384 0.0
C35 C 0.84721 0.57752 0.28814 0.0
C36 C 0.97091 0.85818 0.36705 0.0
C37 C 0.98415 0.8505 0.44192 0.0
C38 C 0.99212 0.81951 0.455 0.0
C39 C 0.98655 0.79682 0.39486 0.0
H40 H 0.93755 0.67918 0.18214 0.0
H41 H 0.9504 0.6362 0.09266 0.0
H42 H 0.04036 0.67463 0.05177 0.0
H43 H 0.027 0.71861 0.13952 0.0
H44 H 0.89021 0.81506 0.13577 0.0
H45 H 0.87428 0.84312 1.01611 0.0
H46 H 0.92622 0.78053 0.86348 0.0
H47 H 0.9385 0.75098 0.98141 0.0
H48 H 0.95464 0.84304 0.25139 0.0
H49 H 0.96478 0.88173 0.35455 0.0
H50 H 1.00251 0.81284 0.51206 0.0
H51 H 0.99257 0.77325 0.40747 0.0
N52 N 0.97713 0.75238 0.24975 0.0
N53 N 0.9471 0.74243 0.13384 0.0
N54 N 0.94294 0.78959 0.19948 0.0
C55 C 0.96812 0.73288 0.18807 0.0
C56 C 0.93444 0.77044 0.1385 0.0
C57 C 0.96397 0.78106 0.25614 0.0
C58 C 0.98145 0.70217 0.16995 0.0
C59 C 0.96064 0.67779 0.15746 0.0
C60 C 0.96777 0.65339 0.10489 0.0
C61 C 0.99615 0.65228 0.06388 0.0
C62 C 0.0182 0.67499 0.08215 0.0
C63 C 1.01081 0.69985 0.13395 0.0
C64 C 0.91699 0.78193 0.06822 0.0
C65 C 0.89718 0.80689 0.07599 0.0
C66 C 0.8884 0.82322 1.00665 0.0
C67 C 0.90141 0.81637 0.92932 0.0
C68 C 0.91649 0.78795 0.92108 0.0
C69 C 0.924 0.77085 0.98979 0.0
C70 C 0.97258 0.8045 0.32032 0.0
C71 C 0.96514 0.8357 0.30772 0.0
C72 C 0.71578 0.99086 0.52981 0.0
C73 C 0.70196 0.01979 0.53759 0.0
C74 C 0.71622 0.04476 0.49727 0.0
C75 C 0.74118 0.04021 0.44304 0.0
H76 H 0.84792 0.03665 0.26129 0.0
H77 H 0.89412 0.04332 0.17345 0.0
H78 H 0.85593 0.98106 0.99728 0.0
H79 H 0.81112 0.97382 0.08287 0.0
H80 H 0.72852 1.00772 0.0691 0.0
H81 H 0.67539 0.01674 0.02812 0.0
H82 H 0.64329 0.9588 0.22493 0.0
H83 H 0.69603 0.9491 0.26457 0.0
H84 H 0.7486 0.96321 0.46563 0.0
H85 H 0.70553 0.97111 0.5597 0.0
H86 H 0.70627 0.0674 0.50195 0.0
H87 H 0.74878 0.05923 0.40528 0.0
N88 N 0.79086 1.00847 0.30745 0.0
N89 N 0.77108 0.9905 0.18216 0.0
N90 N 0.73993 0.99089 0.29799 0.0
C91 C 0.79525 1.0014 0.22573 0.0
C92 C 0.74368 0.98487 0.21815 0.0
C93 C 0.76264 1.00269 0.34345 0.0
C94 C 0.82525 1.00495 0.17967 0.0
C95 C 0.84954 0.02421 0.20426 0.0
C96 C 0.87591 0.02819 0.15368 0.0
C97 C 0.87846 1.01301 0.07762 0.0
C98 C 0.85462 0.99333 0.05471 0.0
C99 C 0.82872 0.98931 0.10451 0.0
C100 C 0.71609 0.97829 0.17096 0.0
C101 C 0.7102 0.99547 0.10036 0.0
C102 C 0.67993 1.00096 0.07761 0.0
C103 C 0.65575 0.98925 0.1256 0.0
C104 C 0.66181 0.9684 0.1883 0.0
C105 C 0.6919 0.96271 0.21042 0.0
C106 C 0.75289 1.01065 0.4284 0.0
C107 C 0.741 0.98646 0.47679 0.0
C108 C 0.60289 0.71556 0.94391 0.0
C109 C 0.6026 0.7381 0.88255 0.0
C110 C 0.61511 0.76706 0.89913 0.0
C111 C 0.61998 0.77558 0.98034 0.0
H112 H 0.5094 0.80791 0.0942 0.0
H113 H 0.49732 0.85285 1.00978 0.0
H114 H 0.57248 0.90193 0.11854 0.0
H115 H 0.58392 0.8577 0.20302 0.0
H116 H 0.52756 0.7493 0.36743 0.0
H117 H 0.51762 0.70562 0.4606 0.0
H118 H 0.59 0.65465 0.34379 0.0
H119 H 0.60041 0.69718 0.25332 0.0
H120 H 0.60513 0.70655 0.0711 0.0
H121 H 0.59469 0.69251 0.93196 0.0
H122 H 0.6168 0.78425 0.85152 0.0
H123 H 0.62457 0.79947 0.99378 0.0
N124 N 0.5847 0.79291 0.11843 0.0
N125 N 0.55585 0.77975 0.23603 0.0
N126 N 0.59257 0.7459 0.18118 0.0
C127 C 0.56323 0.80036 0.17489 0.0
C128 C 0.57142 0.75231 0.24013 0.0
C129 C 0.59935 0.76582 0.12031 0.0
C130 C 0.54689 0.8295 0.1582 0.0
C131 C 0.52201 0.82904 0.10388 0.0
C132 C 0.51555 0.85456 0.05399 0.0
C133 C 0.534 0.88113 0.0566 0.0
C134 C 0.55754 0.88223 0.11475 0.0
C135 C 0.56379 0.8569 0.16481 0.0
C136 C 0.56477 0.72727 0.30182 0.0
C137 C 0.54149 0.72891 0.36203 0.0
C138 C 0.53577 0.70386 0.4154 0.0
C139 C 0.55305 0.67659 0.40932 0.0
C140 C 0.57627 0.67518 0.34999 0.0
C141 C 0.58213 0.69993 0.29781 0.0
C142 C 0.61339 0.75463 0.04379 0.0
C143 C 0.60908 0.72364 0.02407 0.0
C144 C 0.17103 0.49592 0.06744 0.0
C145 C 0.1757 0.49703 0.98276 0.0
C146 C 0.2059 0.49404 0.95202 0.0
C147 C 0.23067 0.48859 1.005 0.0
H148 H 0.35624 0.45496 0.18148 0.0
H149 H 0.40054 0.46632 0.2688 0.0
H150 H 0.34668 0.53292 0.40014 0.0
H151 H 0.30315 0.52263 0.31086 0.0
H152 H 0.2849 0.42584 0.40568 0.0
H153 H 0.26133 0.44426 0.53135 0.0
H154 H 0.17334 0.44612 0.41435 0.0
H155 H 0.19656 0.42764 0.28851 0.0
H156 H 0.19072 0.48833 0.18477 0.0
H157 H 0.14813 0.49821 0.09284 0.0
H158 H 0.21022 0.49495 0.88693 0.0
H159 H 0.25334 0.48486 0.97951 0.0
N160 N 0.27828 0.48501 0.15337 0.0
N161 N 0.28646 0.45207 0.26503 0.0
N162 N 0.23921 0.45184 0.20059 0.0
C163 C 0.29731 0.47358 0.21246 0.0
C164 C 0.25746 0.44119 0.26053 0.0
C165 C 0.24912 0.47324 0.14619 0.0
C166 C 0.32641 0.4886 0.23733 0.0
C167 C 0.35448 0.47326 0.22591 0.0
C168 C 0.37964 0.47932 0.27699 0.0
C169 C 0.37683 0.49993 0.34287 0.0
C170 C 0.34949 0.51671 0.35058 0.0
C171 C 0.32472 0.51123 0.29834 0.0
C172 C 0.24299 0.42827 0.33535 0.0
C173 C 0.2602 0.42822 0.40777 0.0
C174 C 0.24677 0.43881 0.48009 0.0
C175 C 0.21606 0.44806 0.47994 0.0
C176 C 0.19737 0.43988 0.4143 0.0
C177 C 0.2108 0.42924 0.34217 0.0
C178 C 0.22558 0.48581 0.08959 0.0
C179 C 0.19554 0.49031 0.11994 0.0
C180 C 1.01073 0.20124 0.98925 0.0
C181 C 0.03139 0.18905 0.93096 0.0
C182 C 0.05765 0.20631 0.91083 0.0
C183 C 0.06409 0.23396 0.95099 0.0
H184 H 0.06278 0.37179 0.13519 0.0
H185 H 0.05253 0.41306 0.23405 0.0
H186 H 1.00602 0.34854 0.39174 0.0
H187 H 0.01592 0.30741 0.29257 0.0
H188 H 0.10724 0.28619 0.32889 0.0
H189 H 0.09761 0.24084 0.4109 0.0
H190 H 0.12717 0.1836 0.21113 0.0
H191 H 0.13627 0.22913 0.12788 0.0
H192 H 1.00214 0.23666 0.07856 0.0
H193 H 0.99021 0.18854 1.00584 0.0
H194 H 0.07391 0.19772 0.86608 0.0
H195 H 0.08558 0.24553 0.93729 0.0
N196 N 0.04148 0.29278 0.10308 0.0
N197 N 0.08226 0.30203 0.19366 0.0
N198 N 0.08494 0.26106 0.10295 0.0
C199 C 0.05487 0.31055 0.16251 0.0
C200 C 0.09738 0.27712 0.1651 0.0
C201 C 0.05732 0.26822 0.07147 0.0
C202 C 0.03919 0.33648 0.20449 0.0
C203 C 0.04896 0.36677 0.1889 0.0
C204 C 0.04343 0.39033 0.24596 0.0
C205 C 0.02846 0.38402 0.32064 0.0
C206 C 0.01732 0.35413 0.33443 0.0
C207 C 0.02264 0.33066 0.2771 0.0
C208 C 0.11882 0.26066 0.21923 0.0
C209 C 0.11369 0.26416 0.30363 0.0
C210 C 0.10788 0.23812 0.35085 0.0
C211 C 0.1096 0.20909 0.31452 0.0
C212 C 0.1246 0.206 0.23885 0.0
C213 C 0.13008 0.23221 0.19157 0.0
C214 C 0.04447 0.24548 1.01249 0.0
C215 C 0.01725 0.22911 0.02979 0.0
C216 C 0.33389 0.01572 0.9836 0.0
C217 C 0.33904 0.03152 0.90961 0.0
C218 C 0.31582 0.05101 0.88138 0.0
C219 C 0.28922 0.05627 0.92839 0.0
H220 H 0.17168 0.03549 0.14224 0.0
H221 H 0.13026 0.02405 0.24196 0.0
H222 H 0.19247 0.04145 0.43952 0.0
H223 H 0.2334 0.05308 0.34102 0.0
H224 H 0.26807 0.11356 0.31938 0.0
H225 H 0.31892 0.10421 0.3727 0.0
H226 H 0.35876 0.12783 0.13918 0.0
H227 H 0.30786 0.13764 0.08595 0.0
H228 H 0.30507 1.01039 0.09032 0.0
H229 H 0.35139 1.00068 1.00723 0.0
H230 H 0.31907 0.06354 0.82481 0.0
H231 H 0.27319 0.07349 0.90794 0.0
N232 N 0.24234 0.04346 0.11213 0.0
N233 N 0.24081 0.08658 0.19914 0.0
N234 N 0.2747 0.08587 0.08861 0.0
C235 C 0.22936 0.05876 0.17731 0.0
C236 C 0.26353 0.10035 0.15546 0.0
C237 C 0.26497 0.05764 0.06658 0.0
C238 C 0.20599 0.04481 0.23358 0.0
C239 C 0.17668 0.03595 0.20687 0.0
C240 C 0.15292 0.02976 0.26394 0.0
C241 C 0.15806 0.03219 0.34869 0.0
C242 C 0.18773 0.03958 0.3749 0.0
C243 C 0.21122 0.046 0.31831 0.0
C244 C 0.28419 0.12263 0.1959 0.0
C245 C 0.28765 0.11903 0.28074 0.0
C246 C 0.31684 0.11336 0.3115 0.0
C247 C 0.34216 0.11346 0.25804 0.0
C248 C 0.33923 0.12665 0.18047 0.0
C249 C 0.30997 0.13257 0.15043 0.0
C250 C 0.28473 0.04195 1.0047 0.0
C251 C 0.30704 0.02084 0.03048 0.0
C252 C 0.42464 0.3311 0.39018 0.0
C253 C 0.43169 0.31295 0.45797 0.0
C254 C 0.42429 0.28161 0.45679 0.0
C255 C 0.41827 0.26751 0.38192 0.0
H256 H 0.45871 0.18098 0.2085 0.0
H257 H 0.47442 0.13903 0.29725 0.0
H258 H 0.55266 0.19187 0.374 0.0
H259 H 0.53685 0.23421 0.28423 0.0
H260 H 0.47163 0.34764 0.17118 0.0
H261 H 0.48191 0.39051 0.08013 0.0
H262 H 0.52014 0.32889 0.90132 0.0
H263 H 0.50926 0.28489 0.99301 0.0
H264 H 0.41754 0.3313 0.26192 0.0
H265 H 0.42889 0.3556 0.39116 0.0
H266 H 0.4285 0.26742 0.50978 0.0
H267 H 0.41825 0.24269 0.37965 0.0
N268 N 0.45484 0.24598 0.253 0.0
N269 N 0.49269 0.25988 0.15575 0.0
N270 N 0.45153 0.2928 0.18617 0.0
C271 C 0.48071 0.23898 0.2106 0.0
C272 C 0.47736 0.28689 0.14223 0.0
C273 C 0.44018 0.27289 0.24221 0.0
C274 C 0.49682 0.21079 0.23783 0.0
C275 C 0.47997 0.18323 0.24173 0.0
C276 C 0.4886 0.1594 0.29406 0.0
C277 C 0.51405 0.16253 0.34546 0.0
C278 C 0.53251 0.18901 0.33663 0.0
C279 C 0.52384 0.213 0.28385 0.0
C280 C 0.48928 0.31249 0.08939 0.0
C281 C 0.48246 0.3429 0.11277 0.0
C282 C 0.48837 0.36766 0.06073 0.0
C283 C 0.50149 0.36307 0.98347 0.0
C284 C 0.50986 0.33301 0.96065 0.0
C285 C 0.50384 0.30788 1.01329 0.0
C286 C 0.42073 0.28495 0.30962 0.0
C287 C 0.41804 0.31701 0.31602 0.0
Eu288 Eu 0.98556 0.02812 0.62223 0.0
C289 C 0.11674 0.02079 0.80065 0.0
N290 N 0.10151 1.00127 0.7509 0.0
C291 C 0.14774 0.99311 0.6731 0.0
C292 C 0.14787 0.0282 0.78696 0.0
C293 C 0.11709 0.98593 0.6908 0.0
C294 C 0.16306 0.01482 0.72043 0.0
C295 C 0.11765 0.04807 0.92917 0.0
C296 C 0.10193 0.03072 0.87012 0.0
C297 C 0.14808 0.05723 0.9137 0.0
C298 C 0.16316 0.04738 0.84243 0.0
Eu299 Eu 0.04803 0.99414 0.77751 0.0
N300 N 0.07287 0.02089 0.88345 0.0
C301 C 0.10276 0.0543 1.00343 0.0
C302 C 0.05913 0.02472 0.95778 0.0
C303 C 0.07359 0.04199 1.01845 0.0
H304 H 0.10588 0.96824 0.65565 0.0
H305 H 0.06226 0.04575 0.07664 0.0
H306 H 0.91395 0.02879 0.70429 0.0
H307 H 0.0275 0.97038 0.34668 0.0
H308 H 0.03668 0.01493 0.96934 0.0
H309 H 0.11403 0.06746 0.05063 0.0
H310 H 0.02895 1.00774 0.45915 0.0
H311 H 0.1596 0.98161 0.62361 0.0
H312 H 0.16049 0.07087 0.9578 0.0
H313 H 0.187 0.0536 0.8326 0.0
H314 H 0.86505 1.00141 0.68675 0.0
H315 H 0.18694 0.01998 0.70749 0.0
H316 H 0.98127 0.93835 0.32691 0.0
N317 N 0.937 1.00445 0.60925 0.0
C318 C 0.9343 0.98388 0.54717 0.0
C319 C 0.88442 0.99609 0.64754 0.0
C320 C 0.90644 0.96813 0.53418 0.0
C321 C 0.91238 1.01131 0.65791 0.0
C322 C 0.88149 0.97425 0.58585 0.0
N323 N 0.98612 0.9941 0.50971 0.0
C324 C 1.00964 0.99252 0.45458 0.0
C325 C 0.95703 0.95778 0.43049 0.0
C326 C 0.95948 0.97857 0.49617 0.0
C327 C 0.98223 0.95409 0.37798 0.0
C328 C 1.00844 0.97197 0.38922 0.0
H329 H 0.85973 0.96259 0.57787 0.0
H330 H 0.88305 0.93461 0.4593 0.0
H331 H 0.92718 0.92576 0.36824 0.0
O332 O 0.98469 0.05247 0.50656 0.0
O333 O 0.98269 0.97692 0.658 0.0
O334 O 0.03296 0.96791 0.66484 0.0
O335 O 0.95339 0.06587 0.60249 0.0
O336 O 0.03648 0.03766 0.5941 0.0
O337 O 0.05744 0.99372 0.64099 0.0
O338 O 0.02617 0.96123 0.85825 0.0
O339 O 0.04117 0.04588 0.79812 0.0
O340 O 1.00182 0.06363 0.71483 0.0
O341 O 0.07317 0.95381 0.82134 0.0
O342 O 1.00021 1.00344 0.83342 0.0
O343 O 0.96583 0.0298 0.75057 0.0
C344 C 1.00528 0.95705 0.65479 0.0
C345 C 0.97641 0.10544 0.52259 0.0
C346 C 0.01393 0.14273 0.47143 0.0
C347 C 0.99709 0.16631 0.50869 0.0
C348 C 0.9599 0.1294 0.55932 0.0
C349 C 0.97027 0.15963 0.55247 0.0
C350 C 1.0035 0.11237 0.47809 0.0
C351 C 0.05913 0.0179 0.59386 0.0
C352 C 0.96586 0.07336 0.53258 0.0
C353 C 0.90424 0.94698 0.46992 0.0
C354 C 0.92942 0.94186 0.41818 0.0
C355 C 0.02248 0.06769 0.77249 0.0
C356 C 0.04079 0.90987 0.83619 0.0
C357 C 1.00098 0.87078 0.82274 0.0
C358 C 0.0235 0.84792 0.82291 0.0
C359 C 0.06314 0.88683 0.83635 0.0
C360 C 1.01 0.90158 0.82426 0.0
C361 C 0.05452 0.85604 0.82784 0.0
C362 C 0.97354 0.01718 0.82057 0.0
C363 C 0.04885 0.94198 0.85587 0.0
H364 H 1.00467 0.18992 0.50339 0.0
H365 H 0.93906 0.12474 0.59373 0.0
H366 H 0.95745 0.17796 0.58113 0.0
H367 H 0.01653 0.09439 0.44836 0.0
H368 H 0.01705 0.82392 0.82183 0.0
H369 H 0.08709 0.89257 0.84478 0.0
H370 H 0.9924 0.91888 0.82317 0.0
H371 H 0.07182 0.83834 0.82863 0.0
Eu372 Eu 0.52003 0.05756 0.79344 0.0
C373 C 0.55571 0.93909 0.57633 0.0
N374 N 0.54775 0.96792 0.55473 0.0
C375 C 0.58644 0.96817 0.44955 0.0
C376 C 0.58024 0.92391 0.53721 0.0
C377 C 0.56181 0.98214 0.49 0.0
C378 C 0.59602 0.93909 0.4741 0.0
C379 C 0.54381 0.89325 0.65385 0.0
C380 C 0.53777 0.92404 0.63353 0.0
C381 C 0.56933 0.87852 0.61889 0.0
C382 C 0.58749 0.89382 0.56048 0.0
Eu383 Eu 0.50878 0.99186 0.63334 0.0
N384 N 0.51295 0.93877 0.66431 0.0
C385 C 0.52332 0.87787 0.70606 0.0
C386 C 0.49151 0.92307 0.70943 0.0
C387 C 0.49673 0.89269 0.73268 0.0
H388 H 0.55477 1.00478 0.47166 0.0
H389 H 0.48019 0.8807 0.77083 0.0
H390 H 0.47947 0.11932 0.744 0.0
H391 H 0.62831 0.05072 0.95964 0.0
H392 H 0.47069 0.93429 0.72948 0.0
H393 H 0.5272 0.85425 0.72355 0.0
H394 H 0.58136 0.03084 0.89703 0.0
H395 H 0.59806 0.97987 0.39975 0.0
H396 H 0.57457 0.85498 0.63443 0.0
H397 H 0.60648 0.88186 0.53191 0.0
H398 H 0.48453 0.17578 0.74587 0.0
H399 H 0.61501 0.92825 0.4425 0.0
H400 H 0.63937 0.10636 0.9576 0.0
N401 N 0.52366 0.11162 0.79279 0.0
C402 C 0.54944 0.12435 0.82397 0.0
C403 C 0.50302 0.16159 0.76775 0.0
C404 C 0.55333 0.15646 0.82665 0.0
C405 C 0.50023 0.12965 0.76649 0.0
C406 C 0.52981 0.17508 0.79727 0.0
N407 N 0.56608 0.07451 0.85616 0.0
C408 C 0.58588 0.05511 0.89442 0.0
C409 C 0.59789 0.11765 0.89266 0.0
C410 C 0.57136 0.1052 0.85651 0.0
C411 C 0.61877 0.09771 0.92905 0.0
C412 C 0.6126 0.06632 0.93041 0.0
H413 H 0.53191 0.19984 0.79831 0.0
H414 H 0.58363 0.19352 0.86232 0.0
H415 H 0.62269 0.15951 0.92017 0.0
O416 O 0.4894 0.03519 0.88077 0.0
O417 O 0.50634 0.07486 0.66726 0.0
O418 O 0.5274 0.0379 0.58511 0.0
O419 O 0.50075 0.08293 0.89642 0.0
O420 O 0.56701 0.04701 0.73371 0.0
O421 O 0.55932 1.00654 0.64288 0.0
O422 O 0.47204 1.01357 0.5655 0.0
O423 O 0.50097 0.98034 0.76659 0.0
O424 O 0.5374 1.00913 0.8283 0.0
O425 O 0.48379 0.96628 0.54065 0.0
O426 O 0.47191 1.0015 0.72967 0.0
O427 O 0.47522 0.05238 0.72377 0.0
C428 C 0.51774 0.06624 0.59612 0.0
C429 C 0.49524 0.05347 1.01268 0.0
C430 C 0.53315 0.03585 0.10771 0.0
C431 C 0.51444 0.04505 0.17251 0.0
C432 C 0.47723 0.06465 0.07724 0.0
C433 C 0.48697 0.06043 0.15753 0.0
C434 C 0.52303 0.03914 0.02833 0.0
C435 C 0.57725 0.02665 0.67995 0.0
C436 C 0.48736 0.05901 0.92825 0.0
C437 C 0.58014 0.16892 0.86017 0.0
C438 C 0.60238 0.14956 0.8931 0.0
C439 C 0.52168 0.98328 0.82301 0.0
C440 C 0.46287 0.99568 0.4325 0.0
C441 C 0.43677 0.02486 0.32768 0.0
C442 C 0.45346 1.00904 0.2674 0.0
C443 C 0.48011 0.98061 0.37185 0.0
C444 C 0.44108 0.0175 0.40989 0.0
C445 C 0.47517 0.98716 0.28953 0.0
C446 C 0.45781 0.02797 0.73373 0.0
C447 C 0.46709 0.98965 0.51984 0.0
H448 H 0.52147 0.0401 0.23354 0.0
H449 H 0.45598 0.07658 0.0656 0.0
H450 H 0.47317 0.06881 0.20793 0.0
H451 H 0.53719 0.03106 0.9785 0.0
H452 H 0.44933 1.01331 0.20337 0.0
H453 H 0.49723 0.96379 0.38785 0.0
H454 H 0.42763 0.02914 0.45645 0.0
H455 H 0.48812 0.97523 0.24278 0.0
Eu456 Eu 0.54115 0.49377 0.62191 0.0
C457 C 0.4306 0.51095 0.84423 0.0
N458 N 0.43864 0.52779 0.77756 0.0
C459 C 0.38792 0.52112 0.72411 0.0
C460 C 0.40149 0.49686 0.85097 0.0
C461 C 0.41691 0.53493 0.72108 0.0
C462 C 0.38041 0.50137 0.78837 0.0
C463 C 0.44286 0.49381 0.98078 0.0
C464 C 0.45079 0.50957 0.90834 0.0
C465 C 0.41468 0.47819 0.98599 0.0
C466 C 0.394 0.47973 0.92115 0.0
Eu467 Eu 0.49005 0.54691 0.77296 0.0
N468 N 0.47762 0.52512 0.9015 0.0
C469 C 0.46312 0.49501 0.04652 0.0
C470 C 0.4966 0.528 0.96694 0.0
C471 C 0.4899 0.51258 0.03992 0.0
H472 H 0.42162 0.55148 0.67363 0.0
H473 H 0.50542 0.51417 0.09083 0.0
H474 H 0.61105 0.52544 0.59794 0.0
H475 H 0.47036 0.44663 0.37668 0.0
H476 H 0.51746 0.54137 0.96164 0.0
H477 H 0.45792 0.48317 0.1032 0.0
H478 H 0.4925 0.4484 0.51501 0.0
H479 H 0.37123 0.5261 0.67751 0.0
H480 H 0.40828 0.46565 0.04075 0.0
H481 H 0.37193 0.4684 0.92693 0.0
H482 H 0.6397 0.55547 0.49357 0.0
H483 H 0.35784 0.49093 0.79106 0.0
H484 H 0.48954 0.48205 0.26933 0.0
N485 N 0.57276 0.51751 0.52139 0.0
C486 C 0.5611 0.51994 0.4454 0.0
C487 C 0.61753 0.54573 0.4793 0.0
C488 C 0.57654 0.53671 0.38386 0.0
C489 C 0.6014 0.52859 0.53798 0.0
C490 C 0.60475 0.55036 0.40236 0.0
N491 N 0.52248 0.48572 0.48745 0.0
C492 C 0.50087 0.4641 0.46866 0.0
C493 C 0.52344 0.50299 0.34767 0.0
C494 C 0.53497 0.50345 0.42776 0.0
C495 C 0.49915 0.48305 0.33004 0.0
C496 C 0.48835 0.46296 0.39036 0.0
H497 H 0.61731 0.56353 0.35689 0.0
H498 H 0.57515 0.55143 0.25748 0.0
H499 H 0.52857 0.52181 0.22576 0.0
O500 O 0.56318 0.45289 0.5698 0.0
O501 O 0.55129 0.54517 0.62294 0.0
O502 O 0.50424 0.56613 0.64763 0.0
O503 O 0.56719 0.46283 0.69745 0.0
O504 O 0.48875 0.49203 0.61205 0.0
O505 O 0.47381 0.54045 0.64192 0.0
O506 O 0.50856 0.58966 0.82 0.0
O507 O 0.51 0.5018 0.81955 0.0
O508 O 0.50415 0.4737 0.70506 0.0
O509 O 0.45972 0.58422 0.81218 0.0
O510 O 0.53981 0.54319 0.81408 0.0
O511 O 0.57081 0.51842 0.71835 0.0
C512 C 0.53187 0.5678 0.61479 0.0
C513 C 0.56156 0.41142 0.6646 0.0
C514 C 0.52521 0.36912 0.65527 0.0
C515 C 0.53729 0.35625 0.72642 0.0
C516 C 0.57388 0.39799 0.73498 0.0
C517 C 0.56174 0.37057 0.76571 0.0
C518 C 0.53741 0.39661 0.62434 0.0
C519 C 0.47026 0.51528 0.59923 0.0
C520 C 0.57138 0.44255 0.64092 0.0
C521 C 0.56392 0.53826 0.30537 0.0
C522 C 0.53738 0.5214 0.28729 0.0
C523 C 0.50705 0.47499 0.78453 0.0
C524 C 0.48204 0.63096 0.76688 0.0
C525 C 0.51089 0.67598 0.72281 0.0
C526 C 0.4968 0.67457 0.64633 0.0
C527 C 0.46741 0.63025 0.69066 0.0
C528 C 0.50263 0.65477 0.78374 0.0
C529 C 0.47453 0.65222 0.63118 0.0
C530 C 0.56693 0.53342 0.78824 0.0
C531 C 0.48233 0.60355 0.81938 0.0
H532 H 0.5281 0.33496 0.75051 0.0
H533 H 0.59225 0.40925 0.76762 0.0
H534 H 0.57106 0.3606 0.82062 0.0
H535 H 0.52753 0.40663 0.57012 0.0
H536 H 0.50336 0.69043 0.5984 0.0
H537 H 0.45179 0.6118 0.67539 0.0
H538 H 0.51472 0.65493 0.84134 0.0
H539 H 0.46383 0.65104 0.5719 0.0
Eu540 Eu 0.03915 0.54048 0.62388 0.0
C541 C 0.0261 0.41282 0.76964 0.0
N542 N 1.00369 0.42859 0.73164 0.0
C543 C 0.99399 0.38509 0.64528 0.0
C544 C 0.03454 0.38309 0.74417 0.0
C545 C 0.98615 0.41423 0.67411 0.0
C546 C 0.01878 0.36971 0.67922 0.0
C547 C 0.05921 0.40833 0.88647 0.0
C548 C 0.03825 0.42519 0.83931 0.0
C549 C 0.06956 0.37977 0.8582 0.0
C550 C 0.05725 0.36716 0.78692 0.0
Eu551 Eu 0.99405 0.47995 0.77646 0.0
N552 N 0.02727 0.4525 0.86513 0.0
C553 C 0.0681 0.42012 0.9621 0.0
C554 C 0.03369 0.46262 0.94218 0.0
C555 C 0.05476 0.44711 0.99083 0.0
H556 H 0.96653 0.42566 0.6485 0.0
H557 H 0.06051 0.45586 0.05061 0.0
H558 H 0.99759 0.60495 0.60364 0.0
H559 H 0.09702 0.47762 0.37827 0.0
H560 H 0.023 0.48315 0.9653 0.0
H561 H 0.08421 0.40795 1.00009 0.0
H562 H 0.09053 0.49785 0.51836 0.0
H563 H 0.98078 0.37447 0.59728 0.0
H564 H 0.08608 0.36672 0.89271 0.0
H565 H 0.06441 0.34454 0.76752 0.0
H566 H 0.96469 0.62937 0.49976 0.0
H567 H 0.02463 0.347 0.65748 0.0
H568 H 0.06147 0.4936 0.26946 0.0
N569 N 1.01109 0.56848 0.52588 0.0
C570 C 0.01197 0.55759 0.44835 0.0
C571 C 0.97761 0.60899 0.4847 0.0
C572 C 0.99387 0.57074 0.38686 0.0
C573 C 0.99614 0.59519 0.54339 0.0
C574 C 0.97587 0.59624 0.40657 0.0
N575 N 0.05115 0.52416 0.48933 0.0
C576 C 0.07498 0.50504 0.47108 0.0
C577 C 0.03558 0.5239 0.34868 0.0
C578 C 0.03265 0.53465 0.42952 0.0
C579 C 0.05855 0.50255 0.33073 0.0
C580 C 0.07871 0.49354 0.39191 0.0
H581 H 0.96157 0.60699 0.36111 0.0
H582 H 0.98091 0.56804 0.25975 0.0
H583 H 0.01751 0.52688 0.2262 0.0
O584 O 0.0767 0.5663 0.56691 0.0
O585 O 0.98657 0.5402 0.60878 0.0
O586 O 0.96144 0.50353 0.68901 0.0
O587 O 0.06364 0.57595 0.69138 0.0
O588 O 0.046 0.489 0.61436 0.0
O589 O 0.99748 0.47312 0.63755 0.0
O590 O 0.9683 0.48375 0.89082 0.0
O591 O 0.04022 0.50082 0.81452 0.0
O592 O 0.0676 0.50617 0.69559 0.0
O593 O 0.95037 0.45567 0.79591 0.0
O594 O 0.9958 0.52879 0.82802 0.0
O595 O 0.01982 0.56333 0.73886 0.0
C596 C 0.96165 0.52493 0.6321 0.0
C597 C 0.11624 0.5765 0.66108 0.0
C598 C 0.16424 0.54829 0.65885 0.0
C599 C 0.17674 0.56907 0.71485 0.0
C600 C 0.1288 0.59706 0.71767 0.0
C601 C 0.15889 0.59324 0.74464 0.0
C602 C 0.13399 0.55187 0.63301 0.0
C603 C 0.0229 0.4714 0.59444 0.0
C604 C 0.08428 0.57988 0.63461 0.0
C605 C 0.99521 0.55874 0.30736 0.0
C606 C 0.01604 0.53534 0.28828 0.0
C607 C 0.06656 0.50385 0.7756 0.0
C608 C 0.91569 0.48593 0.87011 0.0
C609 C 0.888 0.53378 0.85251 0.0
C610 C 0.86216 0.52035 0.89023 0.0
C611 C 0.88984 0.47278 0.90771 0.0
C612 C 0.91437 0.51616 0.84059 0.0
C613 C 0.86305 0.48993 0.91707 0.0
C614 C 1.00603 0.55656 0.80897 0.0
C615 C 0.94457 0.46898 0.86486 0.0
H616 H 0.20021 0.56667 0.73478 0.0
H617 H 0.11528 0.61591 0.74125 0.0
H618 H 0.16847 0.60917 0.78824 0.0
H619 H 0.12458 0.53562 0.58985 0.0
H620 H 0.84144 0.53354 0.89968 0.0
H621 H 0.89051 0.44948 0.93056 0.0
H622 H 0.93426 0.52659 0.81181 0.0
H623 H 0.8431 0.47979 0.9464 0.0
C624 C 0.11981 0.99868 0.42662 0.0
C625 C 0.13248 0.02813 0.41067 0.0
C626 C 0.10123 0.04894 0.52407 0.0
C627 C 0.08501 0.02076 0.53177 0.0
N628 N 0.07794 0.96865 0.48296 0.0
N629 N 0.13178 0.08244 0.43747 0.0
C630 C 0.09418 0.9955 0.48136 0.0
C631 C 0.12219 0.05355 0.45759 0.0
N632 N 0.13298 0.97345 0.39172 0.0
N633 N 0.09829 0.07072 0.58343 0.0
H634 H 0.14661 0.08702 0.38859 0.0
H635 H 0.12273 0.102 0.46465 0.0
H636 H 0.08391 0.0681 0.63425 0.0
H637 H 0.11287 0.08964 0.58704 0.0
H638 H 0.12743 0.95106 0.40853 0.0
H639 H 0.15155 0.97482 0.35125 0.0
H640 H 0.08123 0.95105 0.44091 0.0
H641 H 0.05911 0.9648 0.52079 0.0
C642 C 0.52134 0.14512 0.49382 0.0
C643 C 0.52023 0.13824 0.40915 0.0
C644 C 0.52096 0.08327 0.44415 0.0
C645 C 0.52205 0.09023 0.52908 0.0
N646 N 0.54336 0.12779 0.61979 0.0
N647 N 0.53357 0.10087 0.30753 0.0
C648 C 0.52794 0.12125 0.5502 0.0
C649 C 0.5245 0.10733 0.38537 0.0
N650 N 0.51564 0.174 0.52173 0.0
N651 N 0.5151 0.05427 0.41784 0.0
H652 H 0.53632 0.11773 0.26277 0.0
H653 H 0.54294 0.0797 0.29266 0.0
H654 H 0.51062 0.03584 0.45584 0.0
H655 H 0.51073 0.04946 0.35713 0.0
H656 H 0.5145 0.17899 0.58399 0.0
H657 H 0.50935 0.19199 0.48361 0.0
H658 H 0.55058 0.14996 0.63412 0.0
H659 H 0.55286 0.1104 0.65509 0.0
C660 C 0.41655 0.5317 0.41659 0.0
C661 C 0.40137 0.50322 0.40693 0.0
C662 C 0.42825 0.48384 0.52901 0.0
C663 C 0.44414 0.5124 0.53771 0.0
N664 N 0.4404 0.5672 0.50816 0.0
N665 N 0.39382 0.45107 0.45159 0.0
C666 C 0.43469 0.53743 0.48703 0.0
C667 C 0.40761 0.47897 0.46245 0.0
N668 N 0.41474 0.55325 0.3562 0.0
N669 N 0.43008 0.46258 0.59002 0.0
H670 H 0.37624 0.44734 0.41015 0.0
H671 H 0.40081 0.43105 0.48041 0.0
H672 H 0.44204 0.46654 0.64348 0.0
H673 H 0.41681 0.44276 0.59329 0.0
H674 H 0.42841 0.57293 0.3548 0.0
H675 H 0.40215 0.5499 0.30309 0.0
H676 H 0.43039 0.5857 0.47841 0.0
H677 H 0.45215 0.57424 0.55941 0.0
C678 C 1.00369 0.42941 0.39327 0.0
C679 C 0.02763 0.40753 0.38819 0.0
C680 C 0.048 0.42678 0.51857 0.0
C681 C 0.02509 0.44991 0.52182 0.0
N682 N 0.98556 0.4773 0.45095 0.0
N683 N 0.07604 0.38933 0.43798 0.0
C684 C 1.00408 0.45226 0.45605 0.0
C685 C 0.05086 0.40752 0.44837 0.0
N686 N 0.98019 0.42805 0.33888 0.0
N687 N 0.06607 0.42196 0.58471 0.0
H688 H 0.07869 0.37438 0.38877 0.0
H689 H 0.09546 0.39091 0.47423 0.0
H690 H 0.06382 0.43482 0.63756 0.0
H691 H 0.0808 0.4034 0.59062 0.0
H692 H 0.96026 0.44095 0.34476 0.0
H693 H 0.97964 0.4123 0.29099 0.0
H694 H 0.97217 0.48224 0.40038 0.0
H695 H 0.98592 0.49483 0.49397 0.0
C696 C 0.91034 0.0436 0.97337 0.0
C697 C 0.90575 0.01651 0.02049 0.0
C698 C 0.94308 0.99 0.93199 0.0
C699 C 0.95019 0.0176 0.88979 0.0
N700 N 0.94339 0.07248 0.88091 0.0
N701 N 0.92382 0.96624 0.05606 0.0
C702 C 0.93463 0.04497 0.91358 0.0
C703 C 0.92422 0.99055 1.00353 0.0
N704 N 0.89067 0.06763 0.98287 0.0
N705 N 0.95206 0.96265 0.89975 0.0
H706 H 0.91046 0.96591 0.10926 0.0
H707 H 0.93918 0.9481 0.05109 0.0
H708 H 0.96303 0.96092 0.84325 0.0
H709 H 0.94475 0.94175 0.9233 0.0
H710 H 0.89042 0.08647 0.94378 0.0
H711 H 0.87299 0.06771 0.02617 0.0
H712 H 0.9354 0.09346 0.90251 0.0
H713 H 0.96073 0.07465 0.83727 0.0
C714 C 0.50497 0.92723 1.00132 0.0
C715 C 0.53013 0.90678 0.99505 0.0
C716 C 0.55074 0.93764 0.87958 0.0
C717 C 0.52505 0.95756 0.88429 0.0
N718 N 0.47374 0.9659 0.93675 0.0
N719 N 0.57341 0.88872 0.91678 0.0
C720 C 0.50099 0.95072 0.94127 0.0
C721 C 0.552 0.91094 0.93078 0.0
N722 N 0.4855 0.92516 0.06701 0.0
N723 N 0.57383 0.94395 0.8251 0.0
H724 H 0.57489 0.86894 0.95234 0.0
H725 H 0.58796 0.88844 0.86607 0.0
H726 H 0.57253 0.96157 0.78225 0.0
H727 H 0.59488 0.93281 0.82484 0.0
H728 H 0.46916 0.94173 0.08105 0.0
H729 H 0.48749 0.90832 0.11184 0.0
H730 H 0.45431 0.95964 0.97035 0.0
H731 H 0.4694 0.98285 0.89383 0.0
C732 C 0.64484 0.5293 0.90603 0.0
C733 C 0.63908 0.55051 0.9703 0.0
C734 C 0.59271 0.56606 0.89701 0.0
C735 C 0.59432 0.54027 0.84375 0.0
N736 N 0.62313 0.49408 0.80959 0.0
N737 N 0.60215 0.58437 0.03356 0.0
C738 C 0.62071 0.52092 0.85146 0.0
C739 C 0.61127 0.56732 0.96799 0.0
N740 N 0.67375 0.51827 0.89324 0.0
N741 N 0.57531 0.59074 0.87672 0.0
H742 H 0.61414 0.58462 0.08837 0.0
H743 H 0.58095 0.59534 0.03585 0.0
H744 H 0.56565 0.59283 0.81902 0.0
H745 H 0.57485 0.61079 0.9114 0.0
H746 H 0.67968 0.50522 0.84222 0.0
H747 H 0.69257 0.52515 0.92748 0.0
H748 H 0.64002 0.47792 0.82193 0.0
H749 H 0.60734 0.48652 0.76783 0.0
C750 C 1.00677 0.59739 0.01987 0.0
C751 C 1.00149 0.62838 0.99842 0.0
C752 C 0.99695 0.61247 0.85415 0.0
C753 C 1.00448 0.58158 0.87438 0.0
N754 N 0.02636 0.54837 0.97681 0.0
N755 N 0.99735 0.66631 0.89201 0.0
C756 C 0.01191 0.57501 0.9575 0.0
C757 C 0.9989 0.63618 0.9145 0.0
N758 N 1.00724 0.58912 0.10026 0.0
N759 N 0.98565 0.61907 0.77886 0.0
H760 H 0.99644 0.68426 0.93388 0.0
H761 H 0.99915 0.67359 0.83155 0.0
H762 H 0.98219 0.60242 0.73481 0.0
H763 H 0.97646 0.64025 0.76322 0.0
H764 H 1.00687 0.56633 0.11924 0.0
H765 H 1.0059 0.60493 0.14789 0.0
H766 H 0.03496 0.54362 0.03454 0.0
H767 H 0.03371 0.53295 0.93291 0.0
C768 C 0.09471 0.16867 0.41599 0.0
C769 C 0.08806 0.18504 0.34384 0.0
C770 C 0.03637 0.16262 0.34169 0.0
C771 C 0.04123 0.15082 0.42065 0.0
N772 N 0.07553 0.13769 0.52844 0.0
N773 N 0.05177 0.19944 0.23924 0.0
C774 C 0.07076 0.1521 0.45604 0.0
C775 C 0.0589 0.18199 0.30581 0.0
N776 N 0.12394 0.16906 0.44545 0.0
N777 N 1.01 0.15536 0.30147 0.0
H778 H 0.06716 0.21421 0.21036 0.0
H779 H 0.02975 0.20109 0.21574 0.0
H780 H 0.99302 0.14132 0.32709 0.0
H781 H 1.00633 0.16056 0.24028 0.0
H782 H 0.13107 0.15666 0.49601 0.0
H783 H 0.14182 0.1807 0.41588 0.0
H784 H 0.09441 0.14151 0.56542 0.0
H785 H 0.06031 0.12109 0.54995 0.0
C786 C 0.36336 0.06029 0.25036 0.0
C787 C 0.36739 0.09161 0.27269 0.0
C788 C 0.41789 0.07963 0.32797 0.0
C789 C 0.41363 0.04829 0.30549 0.0
N790 N 0.38121 1.00841 0.24974 0.0
N791 N 0.39927 0.13219 0.32374 0.0
C792 C 0.38626 0.03868 0.26735 0.0
C793 C 0.39491 0.1016 0.30923 0.0
N794 N 0.33751 0.04995 0.21312 0.0
N795 N 0.44362 0.08815 0.36905 0.0
H796 H 0.38259 0.1486 0.3116 0.0
H797 H 0.41975 0.14176 0.34358 0.0
H798 H 0.46193 0.07341 0.37723 0.0
H799 H 0.4464 0.10912 0.39829 0.0
H800 H 0.31896 0.06359 0.19732 0.0
H801 H 0.31896 0.06359 0.19732 0.0
H802 H 0.36136 1.00061 0.22116 0.0
H803 H 0.39623 0.9909 0.2654 0.0
C804 C 0.44636 0.34736 0.57388 0.0
C805 C 0.45474 0.32479 0.51591 0.0
C806 C 0.50854 0.32888 0.55723 0.0
C807 C 0.50057 0.35312 0.61041 0.0
N808 N 0.46318 0.38936 0.65928 0.0
N809 N 0.49581 0.2966 0.44648 0.0
C810 C 0.46976 0.36339 0.61635 0.0
C811 C 0.48606 0.31607 0.50634 0.0
N812 N 0.41605 0.35319 0.58865 0.0
N813 N 0.53819 0.31894 0.55138 0.0
H814 H 0.48191 0.28695 0.40187 0.0
H815 H 0.48191 0.28695 0.40187 0.0
H816 H 0.55608 0.32819 0.58536 0.0
H817 H 0.54479 0.30104 0.51282 0.0
H818 H 0.40823 0.36724 0.63572 0.0
H819 H 0.3985 0.34183 0.55792 0.0
H820 H 0.44175 0.39969 0.66023 0.0
H821 H 0.48 0.40204 0.6888 0.0
C822 C 0.19394 0.46905 0.61035 0.0
C823 C 0.20663 0.47411 0.53182 0.0
C824 C 0.19577 0.52907 0.54194 0.0
C825 C 0.18308 0.52397 0.62063 0.0
N826 N 0.17758 0.49155 0.73827 0.0
N827 N 0.2265 0.5095 0.43009 0.0
C828 C 0.18454 0.49467 0.65755 0.0
C829 C 0.20978 0.50436 0.49994 0.0
N830 N 0.18988 0.4398 0.63849 0.0
N831 N 0.19349 0.55734 0.50633 0.0
H832 H 0.23674 0.4921 0.39612 0.0
H833 H 0.23247 0.53128 0.4091 0.0
H834 H 0.18505 0.57649 0.53717 0.0
H835 H 0.19843 0.56154 0.44501 0.0
H836 H 0.17743 0.43447 0.69123 0.0
H837 H 0.19731 0.42061 0.60596 0.0
H838 H 0.18157 0.47149 0.77084 0.0
H839 H 0.17102 0.51017 0.77399 0.0
C840 C 0.92206 0.83376 0.79309 0.0
C841 C 0.90879 0.84171 0.86943 0.0
C842 C 0.95131 0.87444 0.90097 0.0
C843 C 0.9679 0.86294 0.83243 0.0
N844 N 0.96602 0.83846 0.70023 0.0
N845 N 0.90021 0.88793 0.94533 0.0
C846 C 0.95214 0.845 0.77315 0.0
C847 C 0.91967 0.86872 0.9054 0.0
N848 N 0.90645 0.814 0.74414 0.0
N849 N 0.96559 0.88836 0.96484 0.0
H850 H 0.87649 0.88487 0.94193 0.0
H851 H 0.90761 0.90811 0.97307 0.0
H852 H 0.98931 0.89069 0.96875 0.0
H853 H 0.95361 0.89458 1.01772 0.0
H854 H 0.91487 0.80534 0.68924 0.0
H855 H 0.88456 0.80628 0.76095 0.0
H856 H 0.95565 0.82609 0.65371 0.0
H857 H 0.98772 0.84693 0.68473 0.0
C858 C 0.61871 0.03252 0.14422 0.0
C859 C 0.62456 1.00188 0.11928 0.0
C860 C 0.56972 0.99253 0.10747 0.0
C861 C 0.56421 0.02395 0.12073 0.0
N862 N 0.58379 0.07537 0.13849 0.0
N863 N 0.60612 0.95453 0.06217 0.0
C864 C 0.58879 0.04448 0.13546 0.0
C865 C 0.60019 0.98234 0.09676 0.0
N866 N 0.64124 0.04977 0.17944 0.0
N867 N 0.54587 0.97227 0.10793 0.0
H868 H 0.62829 0.94635 0.05236 0.0
H869 H 0.58906 0.94131 0.03553 0.0
H870 H 0.52309 0.979 0.11541 0.0
H871 H 0.54929 0.94876 0.11065 0.0
H872 H 0.63712 0.07106 0.2061 0.0
H873 H 0.66335 0.04169 0.18927 0.0
H874 H 0.60152 0.09145 0.13967 0.0
H875 H 0.56208 0.08503 0.13318 0.0
C876 C 0.59138 0.70425 0.76722 0.0
C877 C 0.58425 0.73161 0.80852 0.0
C878 C 0.53161 0.72804 0.75738 0.0
C879 C 0.53708 0.69696 0.73753 0.0
N880 N 0.5722 0.65434 0.73195 0.0
N881 N 0.54696 0.77114 0.84008 0.0
C882 C 0.56715 0.68487 0.74277 0.0
C883 C 0.55446 0.74461 0.8005 0.0
N884 N 0.62128 0.69583 0.75802 0.0
N885 N 0.50424 0.74126 0.73855 0.0
H886 H 0.56277 0.78512 0.86919 0.0
H887 H 0.52451 0.77887 0.84673 0.0
H888 H 0.48644 0.72929 0.71075 0.0
H889 H 0.5002 0.76469 0.74414 0.0
H890 H 0.62808 0.6767 0.72443 0.0
H891 H 0.63915 0.70993 0.77789 0.0
H892 H 0.59285 0.6439 0.74685 0.0
H893 H 0.55501 0.6391 0.71464 0.0
C894 C 0.85686 0.60762 0.76723 0.0
C895 C 0.86747 0.62671 0.83045 0.0
C896 C 0.90521 0.58914 0.86775 0.0
C897 C 0.88713 0.56652 0.82738 0.0
N898 N 0.85232 0.55524 0.71746 0.0
N899 N 0.91622 0.64387 0.87656 0.0
C900 C 0.86533 0.57614 0.76861 0.0
C901 C 0.89726 0.6203 0.85668 0.0
N902 N 0.83897 0.61988 0.70811 0.0
N903 N 0.92753 0.58126 0.92147 0.0
H904 H 0.90931 0.6666 0.8688 0.0
H905 H 0.9385 0.64064 0.89636 0.0
H906 H 0.93356 0.55869 0.93387 0.0
H907 H 0.93862 0.59737 0.95787 0.0
H908 H 0.83145 0.60776 0.6573 0.0
H909 H 0.83343 0.64317 0.70932 0.0
H910 H 0.83455 0.56043 0.67789 0.0
H911 H 0.85961 0.53249 0.71525 0.0
C912 C 0.02182 0.15573 0.80639 0.0
C913 C 0.02649 0.15799 0.89184 0.0
C914 C 0.02243 0.10165 0.90049 0.0
C915 C 0.02344 0.09897 0.81382 0.0
N916 N 0.02716 0.12505 0.68426 0.0
N917 N 0.036 0.13182 0.01897 0.0
C918 C 0.02374 0.1265 0.76686 0.0
C919 C 0.02814 0.13058 0.93854 0.0
N920 N 0.01477 0.18148 0.76301 0.0
N921 N 0.01356 0.0772 0.94689 0.0
H922 H 0.04062 0.15232 0.04928 0.0
H923 H 0.0406 0.11226 0.05327 0.0
H924 H 1.0067 0.05652 0.92116 0.0
H925 H 1.00944 0.07867 1.00956 0.0
H926 H 1.00771 0.18101 0.70247 0.0
H927 H 0.01287 0.20306 0.78998 0.0
H928 H 0.03054 0.14445 0.64831 0.0
H929 H 0.02972 0.10451 0.6527 0.0
C930 C 0.38912 0.05573 0.86256 0.0
C931 C 0.36936 0.02979 0.86404 0.0
C932 C 0.40529 1.00344 0.76956 0.0
C933 C 0.42493 0.02989 0.7676 0.0
N934 N 0.42456 0.08515 0.78019 0.0
N935 N 0.35609 0.98052 0.80874 0.0
C936 C 0.41387 0.05722 0.80513 0.0
C937 C 0.37688 1.00395 0.81503 0.0
N938 N 0.38442 0.07916 0.91647 0.0
N939 N 0.41292 0.9782 0.7246 0.0
H940 H 0.33545 0.98008 0.84139 0.0
H941 H 0.35818 0.96238 0.76793 0.0
H942 H 0.42842 0.97911 0.67586 0.0
H943 H 0.40334 0.95658 0.73397 0.0
H944 H 0.40001 0.09715 0.92342 0.0
H945 H 0.36672 0.07896 0.9598 0.0
H946 H 0.41615 0.10578 0.80312 0.0
H947 H 0.43705 0.08789 0.72624 0.0
C948 C 0.47972 0.39817 0.87621 0.0
C949 C 0.50465 0.39011 0.92678 0.0
C950 C 0.53175 0.43741 0.88373 0.0
C951 C 0.50609 0.44616 0.83582 0.0
N952 N 0.45295 0.43821 0.80374 0.0
N953 N 0.55303 0.40342 0.98655 0.0
C954 C 0.47936 0.42741 0.83694 0.0
C955 C 0.53032 0.41014 0.93257 0.0
N956 N 0.45633 0.37767 0.86506 0.0
N957 N 0.55785 0.45479 0.8813 0.0
H958 H 0.55351 0.38301 0.01975 0.0
H959 H 0.57052 0.41858 1.00201 0.0
H960 H 0.55927 0.4756 0.85059 0.0
H961 H 0.57868 0.44793 0.90557 0.0
H962 H 0.43903 0.38069 0.82249 0.0
H963 H 0.45553 0.3563 0.89363 0.0
H964 H 0.43169 0.42753 0.81077 0.0
H965 H 0.45183 0.4594 0.77502 0.0
C966 C 0.13428 0.52795 0.91261 0.0
C967 C 0.14847 0.49925 0.92722 0.0
C968 C 0.1121 0.47486 0.83284 0.0
C969 C 0.09579 0.50281 0.8246 0.0
N970 N 0.08941 0.55538 0.86659 0.0
N971 N 0.14731 0.4443 0.91231 0.0
C972 C 0.10637 0.5292 0.86739 0.0
C973 C 0.13623 0.47239 0.89074 0.0
N974 N 0.14792 0.55417 0.9403 0.0
N975 N 0.10515 0.45074 0.78354 0.0
H976 H 0.16529 0.4415 0.95313 0.0
H977 H 0.13707 0.42373 0.89483 0.0
H978 H 0.08737 0.4517 0.74212 0.0
H979 H 0.11838 0.43098 0.77932 0.0
H980 H 0.14076 0.57608 0.92427 0.0
H981 H 0.16806 0.55404 0.97412 0.0
H982 H 0.09385 0.57428 0.90347 0.0
H983 H 0.06926 0.55724 0.83375 0.0
C984 C 0.01995 0.8861 0.51972 0.0
C985 C 0.98977 0.87517 0.50549 0.0
C986 C 0.9704 0.91257 0.60782 0.0
C987 C 1.00035 0.92549 0.61537 0.0
N988 N 0.05395 0.91108 0.61419 0.0
N989 N 0.93585 0.87752 0.53736 0.0
C990 C 0.02534 0.90846 0.5817 0.0
C991 C 0.96489 0.88823 0.55038 0.0
N992 N 0.04367 0.87601 0.47188 0.0
N993 N 0.94794 0.92148 0.66135 0.0
H994 H 0.93124 0.8586 0.50051 0.0
H995 H 0.91614 0.888 0.55987 0.0
H996 H 0.95224 0.93616 0.71009 0.0
H997 H 0.92616 0.91174 0.66445 0.0
H998 H 0.06539 0.88605 0.47259 0.0
H999 H 0.04098 0.85956 0.4263 0.0
H1000 H 0.07236 0.89752 0.59577 0.0
H1001 H 0.05824 0.92263 0.66843 0.0
C1002 C 0.66561 0.01623 0.66221 0.0
C1003 C 0.67056 0.02299 0.57783 0.0
C1004 C 0.61667 0.03916 0.56969 0.0
C1005 C 0.61033 0.02829 0.64993 0.0
N1006 N 0.62903 1.00316 0.77023 0.0
N1007 N 0.64744 0.03349 0.44726 0.0
C1008 C 0.63496 0.01595 0.69572 0.0
C1009 C 0.6451 0.03233 0.53047 0.0
N1010 N 0.69022 1.01088 0.71098 0.0
N1011 N 0.59607 0.05759 0.53198 0.0
H1012 H 0.66723 0.02732 0.41519 0.0
H1013 H 0.62861 0.03724 0.40987 0.0
H1014 H 0.57723 0.06612 0.56344 0.0
H1015 H 0.60018 0.068 0.4756 0.0
H1016 H 0.68851 1.00877 0.7742 0.0
H1017 H 0.71273 1.01128 0.6889 0.0
H1018 H 0.64517 0.99083 0.80308 0.0
H1019 H 0.6072 1.00309 0.79643 0.0
C1020 C 0.52271 0.62871 0.44769 0.0
C1021 C 0.54755 0.64895 0.46341 0.0
C1022 C 0.56619 0.61268 0.5684 0.0
C1023 C 0.5396 0.59414 0.55782 0.0
N1024 N 0.50263 0.57714 0.46039 0.0
N1025 N 0.5926 0.66104 0.54096 0.0
C1026 C 0.52043 0.60023 0.4903 0.0
C1027 C 0.56949 0.64085 0.52356 0.0
N1028 N 0.50098 0.63665 0.39211 0.0
N1029 N 0.58874 0.60305 0.61963 0.0
H1030 H 0.5951 0.68214 0.51157 0.0
H1031 H 0.6081 0.65816 0.58811 0.0
H1032 H 0.5863 0.58437 0.6587 0.0
H1033 H 0.61058 0.61272 0.62105 0.0
H1034 H 0.48044 0.62463 0.38559 0.0
H1035 H 0.50243 0.65643 0.35652 0.0
H1036 H 0.49133 0.5784 0.40475 0.0
H1037 H 0.50211 0.55537 0.4866 0.0
C1038 C 0.89329 0.51546 0.4848 0.0
C1039 C 0.881 0.54557 0.48416 0.0
C1040 C 0.9184 0.56069 0.59015 0.0
C1041 C 0.93197 0.53112 0.58699 0.0
N1042 N 0.92592 0.47787 0.54868 0.0
N1043 N 0.88208 0.59735 0.53454 0.0
C1044 C 0.91743 0.50777 0.53974 0.0
C1045 C 0.89358 0.56827 0.53685 0.0
N1046 N 0.88327 0.49456 0.42871 0.0
N1047 N 0.92788 0.5807 0.64885 0.0
H1048 H 0.86283 0.60311 0.50056 0.0
H1049 H 0.89202 0.61608 0.56347 0.0
H1050 H 0.94341 0.57422 0.69344 0.0
H1051 H 0.91833 0.60214 0.65947 0.0
H1052 H 0.89423 0.47386 0.41694 0.0
H1053 H 0.86523 0.4988 0.389 0.0
H1054 H 0.91364 0.45947 0.52483 0.0
H1055 H 0.94385 0.47087 0.58523 0.0
loop_
_geom_bond_atom_site_label_1
_geom_bond_atom_site_label_2
_geom_bond_distance
_geom_bond_site_symmetry_2
_ccdc_geom_bond_type
C0 C1 1.384 . S
C0 H13 0.947 . S
C0 C35 1.382 . S
C1 C0 1.384 . S
C1 C2 1.378 . S
C2 C1 1.378 . S
C2 C3 1.378 . S
C2 H14 0.952 . S
C3 C2 1.378 . S
C3 H15 0.950 . S
C3 C34 1.383 . S
H4 C23 0.947 . S
H5 C24 0.946 . S
H6 C26 0.953 . S
H7 C27 0.945 . S
H8 C29 0.952 . S
H9 C30 0.949 1_556 S
H10 C32 0.950 . S
H11 C33 0.948 . S
H12 C35 0.951 . S
H13 C0 0.947 . S
H14 C2 0.952 . S
H15 C3 0.950 . S
N16 C19 1.382 . S
N16 C21 1.363 . S
N17 C19 1.371 . S
N17 C20 1.372 . S
N18 C20 1.361 . S
N18 C21 1.377 . S
C19 N16 1.382 . S
C19 N17 1.371 . S
C19 C22 1.480 . S
C20 N17 1.372 . S
C20 N18 1.361 . S
C20 C28 1.457 . S
C21 N16 1.363 . S
C21 N18 1.377 . S
C21 C34 1.479 . S
C22 C19 1.480 . S
C22 C23 1.383 . S
C22 C27 1.385 . S
C23 H4 0.947 . S
C23 C22 1.383 . S
C23 C24 1.388 . S
C24 H5 0.946 . S
C24 C23 1.388 . S
C24 C25 1.384 . S
C25 C24 1.384 . S
C25 C26 1.377 . S
C26 H6 0.953 . S
C26 C25 1.377 . S
C26 C27 1.369 . S
C27 H7 0.945 . S
C27 C22 1.385 . S
C27 C26 1.369 . S
C28 C20 1.457 . S
C28 C29 1.372 . S
C28 C33 1.364 . S
C29 H8 0.952 . S
C29 C28 1.372 . S
C29 C30 1.389 . S
C30 H9 0.949 1_554 S
C30 C29 1.389 . S
C30 C31 1.387 . S
C31 C30 1.387 . S
C31 C32 1.372 . S
C32 H10 0.950 . S
C32 C31 1.372 . S
C32 C33 1.379 . S
C33 H11 0.948 . S
C33 C28 1.364 . S
C33 C32 1.379 . S
C34 C3 1.383 . S
C34 C21 1.479 . S
C34 C35 1.398 . S
C35 C0 1.382 . S
C35 H12 0.951 . S
C35 C34 1.398 . S
C36 C37 1.384 . S
C36 H49 0.947 . S
C36 C71 1.382 . S
C37 C36 1.384 . S
C37 C38 1.378 . S
C38 C37 1.378 . S
C38 C39 1.378 . S
C38 H50 0.952 . S
C39 C38 1.378 . S
C39 H51 0.950 . S
C39 C70 1.383 . S
H40 C59 0.947 . S
H41 C60 0.946 . S
H42 C62 0.953 . S
H43 C63 0.945 . S
H44 C65 0.952 . S
H45 C66 0.949 1_556 S
H46 C68 0.950 . S
H47 C69 0.948 . S
H48 C71 0.951 . S
H49 C36 0.947 . S
H50 C38 0.952 . S
H51 C39 0.950 . S
N52 C55 1.382 . S
N52 C57 1.363 . S
N53 C55 1.371 . S
N53 C56 1.372 . S
N54 C56 1.361 . S
N54 C57 1.377 . S
C55 N52 1.382 . S
C55 N53 1.371 . S
C55 C58 1.480 . S
C56 N53 1.372 . S
C56 N54 1.361 . S
C56 C64 1.457 . S
C57 N52 1.363 . S
C57 N54 1.377 . S
C57 C70 1.479 . S
C58 C55 1.480 . S
C58 C59 1.383 . S
C58 C63 1.385 . S
C59 H40 0.947 . S
C59 C58 1.383 . S
C59 C60 1.388 . S
C60 H41 0.946 . S
C60 C59 1.388 . S
C60 C61 1.384 . S
C61 C60 1.384 . S
C61 C62 1.377 . S
C62 H42 0.953 . S
C62 C61 1.377 . S
C62 C63 1.369 . S
C63 H43 0.945 . S
C63 C58 1.385 . S
C63 C62 1.369 . S
C64 C56 1.457 . S
C64 C65 1.372 . S
C64 C69 1.364 . S
C65 H44 0.952 . S
C65 C64 1.372 . S
C65 C66 1.389 . S
C66 H45 0.949 1_554 S
C66 C65 1.389 . S
C66 C67 1.387 . S
C67 C66 1.387 . S
C67 C68 1.372 . S
C68 H46 0.950 . S
C68 C67 1.372 . S
C68 C69 1.379 . S
C69 H47 0.948 . S
C69 C64 1.364 . S
C69 C68 1.379 . S
C70 C39 1.383 . S
C70 C57 1.479 . S
C70 C71 1.398 . S
C71 C36 1.382 . S
C71 H48 0.951 . S
C71 C70 1.398 . S
C72 C73 1.384 . S
C72 H85 0.947 . S
C72 C107 1.382 . S
C73 C72 1.384 . S
C73 C74 1.378 . S
C74 C73 1.378 . S
C74 C75 1.378 . S
C74 H86 0.952 . S
C75 C74 1.378 . S
C75 H87 0.950 . S
C75 C106 1.383 . S
H76 C95 0.947 . S
H77 C96 0.946 . S
H78 C98 0.953 . S
H79 C99 0.945 . S
H80 C101 0.952 . S
H81 C102 0.949 1_556 S
H82 C104 0.950 . S
H83 C105 0.948 . S
H84 C107 0.951 . S
H85 C72 0.947 . S
H86 C74 0.952 . S
H87 C75 0.950 . S
N88 C91 1.382 . S
N88 C93 1.363 . S
N89 C91 1.371 . S
N89 C92 1.372 . S
N90 C92 1.361 . S
N90 C93 1.377 . S
C91 N88 1.382 . S
C91 N89 1.371 . S
C91 C94 1.480 . S
C92 N89 1.372 . S
C92 N90 1.361 . S
C92 C100 1.457 . S
C93 N88 1.363 . S
C93 N90 1.377 . S
C93 C106 1.479 . S
C94 C91 1.480 . S
C94 C95 1.383 . S
C94 C99 1.385 . S
C95 H76 0.947 . S
C95 C94 1.383 . S
C95 C96 1.388 . S
C96 H77 0.946 . S
C96 C95 1.388 . S
C96 C97 1.384 . S
C97 C96 1.384 . S
C97 C98 1.377 . S
C98 H78 0.953 . S
C98 C97 1.377 . S
C98 C99 1.369 . S
C99 H79 0.945 . S
C99 C94 1.385 . S
C99 C98 1.369 . S
C100 C92 1.457 . S
C100 C101 1.372 . S
C100 C105 1.364 . S
C101 H80 0.952 . S
C101 C100 1.372 . S
C101 C102 1.389 . S
C102 H81 0.949 1_554 S
C102 C101 1.389 . S
C102 C103 1.387 . S
C103 C102 1.387 . S
C103 C104 1.372 . S
C104 H82 0.950 . S
C104 C103 1.372 . S
C104 C105 1.379 . S
C105 H83 0.948 . S
C105 C100 1.364 . S
C105 C104 1.379 . S
C106 C75 1.383 . S
C106 C93 1.479 . S
C106 C107 1.398 . S
C107 C72 1.382 . S
C107 H84 0.951 . S
C107 C106 1.398 . S
C108 C109 1.384 . S
C108 H121 0.947 . S
C108 C143 1.382 . S
C109 C108 1.384 . S
C109 C110 1.378 . S
C110 C109 1.378 . S
C110 C111 1.378 . S
C110 H122 0.952 1_554 S
C111 C110 1.378 . S
C111 H123 0.950 . S
C111 C142 1.383 . S
H112 C131 0.947 . S
H113 C132 0.946 . S
H114 C134 0.953 . S
H115 C135 0.945 . S
H116 C137 0.952 . S
H117 C138 0.949 . S
H118 C140 0.950 . S
H119 C141 0.948 . S
H120 C143 0.951 . S
H121 C108 0.947 . S
H122 C110 0.952 1_556 S
H123 C111 0.950 . S
N124 C127 1.382 . S
N124 C129 1.363 . S
N125 C127 1.371 . S
N125 C128 1.372 . S
N126 C128 1.361 . S
N126 C129 1.377 . S
C127 N124 1.382 . S
C127 N125 1.371 . S
C127 C130 1.480 . S
C128 N125 1.372 . S
C128 N126 1.361 . S
C128 C136 1.457 . S
C129 N124 1.363 . S
C129 N126 1.377 . S
C129 C142 1.479 . S
C130 C127 1.480 . S
C130 C131 1.383 . S
C130 C135 1.385 . S
C131 H112 0.947 . S
C131 C130 1.383 . S
C131 C132 1.388 . S
C132 H113 0.946 . S
C132 C131 1.388 . S
C132 C133 1.384 . S
C133 C132 1.384 . S
C133 C134 1.377 . S
C134 H114 0.953 . S
C134 C133 1.377 . S
C134 C135 1.369 . S
C135 H115 0.945 . S
C135 C130 1.385 . S
C135 C134 1.369 . S
C136 C128 1.457 . S
C136 C137 1.372 . S
C136 C141 1.364 . S
C137 H116 0.952 . S
C137 C136 1.372 . S
C137 C138 1.389 . S
C138 H117 0.949 . S
C138 C137 1.389 . S
C138 C139 1.387 . S
C139 C138 1.387 . S
C139 C140 1.372 . S
C140 H118 0.950 . S
C140 C139 1.372 . S
C140 C141 1.379 . S
C141 H119 0.948 . S
C141 C136 1.364 . S
C141 C140 1.379 . S
C142 C111 1.383 . S
C142 C129 1.479 . S
C142 C143 1.398 . S
C143 C108 1.382 . S
C143 H120 0.951 . S
C143 C142 1.398 . S
C144 C145 1.384 . S
C144 H157 0.947 . S
C144 C179 1.382 . S
C145 C144 1.384 . S
C145 C146 1.378 . S
C146 C145 1.378 . S
C146 C147 1.378 . S
C146 H158 0.952 . S
C147 C146 1.378 . S
C147 H159 0.950 . S
C147 C178 1.383 . S
H148 C167 0.947 1_556 S
H149 C168 0.946 . S
H150 C170 0.953 . S
H151 C171 0.945 . S
H152 C173 0.952 . S
H153 C174 0.949 . S
H154 C176 0.950 . S
H155 C177 0.948 . S
H156 C179 0.951 . S
H157 C144 0.947 . S
H158 C146 0.952 . S
H159 C147 0.950 . S
N160 C163 1.382 1_556 S
N160 C165 1.363 . S
N161 C163 1.371 . S
N161 C164 1.372 . S
N162 C164 1.361 . S
N162 C165 1.377 1_554 S
C163 N160 1.382 1_554 S
C163 N161 1.371 . S
C163 C166 1.480 . S
C164 N161 1.372 . S
C164 N162 1.361 . S
C164 C172 1.457 . S
C165 N160 1.363 . S
C165 N162 1.377 1_556 S
C165 C178 1.479 . S
C166 C163 1.480 . S
C166 C167 1.383 . S
C166 C171 1.385 . S
C167 H148 0.947 1_554 S
C167 C166 1.383 . S
C167 C168 1.388 . S
C168 H149 0.946 . S
C168 C167 1.388 . S
C168 C169 1.384 . S
C169 C168 1.384 . S
C169 C170 1.377 . S
C170 H150 0.953 . S
C170 C169 1.377 . S
C170 C171 1.369 . S
C171 H151 0.945 . S
C171 C166 1.385 . S
C171 C170 1.369 . S
C172 C164 1.457 . S
C172 C173 1.372 . S
C172 C177 1.364 . S
C173 H152 0.952 . S
C173 C172 1.372 . S
C173 C174 1.389 . S
C174 H153 0.949 . S
C174 C173 1.389 . S
C174 C175 1.387 . S
C175 C174 1.387 . S
C175 C176 1.372 . S
C176 H154 0.950 . S
C176 C175 1.372 . S
C176 C177 1.379 . S
C177 H155 0.948 . S
C177 C172 1.364 . S
C177 C176 1.379 . S
C178 C147 1.383 . S
C178 C165 1.479 . S
C178 C179 1.398 . S
C179 C144 1.382 . S
C179 H156 0.951 . S
C179 C178 1.398 . S
C180 C181 1.384 . S
C180 H193 0.947 . S
C180 C215 1.382 . S
C181 C180 1.384 . S
C181 C182 1.378 . S
C182 C181 1.378 . S
C182 C183 1.378 . S
C182 H194 0.952 . S
C183 C182 1.378 . S
C183 H195 0.950 . S
C183 C214 1.383 . S
H184 C203 0.947 1_556 S
H185 C204 0.946 . S
H186 C206 0.953 . S
H187 C207 0.945 . S
H188 C209 0.952 . S
H189 C210 0.949 . S
H190 C212 0.950 . S
H191 C213 0.948 . S
H192 C215 0.951 . S
H193 C180 0.947 . S
H194 C182 0.952 . S
H195 C183 0.950 . S
N196 C199 1.382 1_556 S
N196 C201 1.363 . S
N197 C199 1.371 . S
N197 C200 1.372 . S
N198 C200 1.361 . S
N198 C201 1.377 1_554 S
C199 N196 1.382 1_554 S
C199 N197 1.371 . S
C199 C202 1.480 . S
C200 N197 1.372 . S
C200 N198 1.361 . S
C200 C208 1.457 . S
C201 N196 1.363 . S
C201 N198 1.377 1_556 S
C201 C214 1.479 . S
C202 C199 1.480 . S
C202 C203 1.383 . S
C202 C207 1.385 . S
C203 H184 0.947 1_554 S
C203 C202 1.383 . S
C203 C204 1.388 . S
C204 H185 0.946 . S
C204 C203 1.388 . S
C204 C205 1.384 . S
C205 C204 1.384 . S
C205 C206 1.377 . S
C206 H186 0.953 . S
C206 C205 1.377 . S
C206 C207 1.369 . S
C207 H187 0.945 . S
C207 C202 1.385 . S
C207 C206 1.369 . S
C208 C200 1.457 . S
C208 C209 1.372 . S
C208 C213 1.364 . S
C209 H188 0.952 . S
C209 C208 1.372 . S
C209 C210 1.389 . S
C210 H189 0.949 . S
C210 C209 1.389 . S
C210 C211 1.387 . S
C211 C210 1.387 . S
C211 C212 1.372 . S
C212 H190 0.950 . S
C212 C211 1.372 . S
C212 C213 1.379 . S
C213 H191 0.948 . S
C213 C208 1.364 . S
C213 C212 1.379 . S
C214 C183 1.383 . S
C214 C201 1.479 . S
C214 C215 1.398 . S
C215 C180 1.382 . S
C215 H192 0.951 . S
C215 C214 1.398 . S
C216 C217 1.384 . S
C216 H229 0.947 . S
C216 C251 1.382 . S
C217 C216 1.384 . S
C217 C218 1.378 . S
C218 C217 1.378 . S
C218 C219 1.378 . S
C218 H230 0.952 . S
C219 C218 1.378 . S
C219 H231 0.950 . S
C219 C250 1.383 . S
H220 C239 0.947 1_556 S
H221 C240 0.946 . S
H222 C242 0.953 . S
H223 C243 0.945 . S
H224 C245 0.952 . S
H225 C246 0.949 . S
H226 C248 0.950 . S
H227 C249 0.948 . S
H228 C251 0.951 . S
H229 C216 0.947 . S
H230 C218 0.952 . S
H231 C219 0.950 . S
N232 C235 1.382 1_556 S
N232 C237 1.363 . S
N233 C235 1.371 . S
N233 C236 1.372 . S
N234 C236 1.361 . S
N234 C237 1.377 1_554 S
C235 N232 1.382 1_554 S
C235 N233 1.371 . S
C235 C238 1.480 . S
C236 N233 1.372 . S
C236 N234 1.361 . S
C236 C244 1.457 . S
C237 N232 1.363 . S
C237 N234 1.377 1_556 S
C237 C250 1.479 . S
C238 C235 1.480 . S
C238 C239 1.383 . S
C238 C243 1.385 . S
C239 H220 0.947 1_554 S
C239 C238 1.383 . S
C239 C240 1.388 . S
C240 H221 0.946 . S
C240 C239 1.388 . S
C240 C241 1.384 . S
C241 C240 1.384 . S
C241 C242 1.377 . S
C242 H222 0.953 . S
C242 C241 1.377 . S
C242 C243 1.369 . S
C243 H223 0.945 . S
C243 C238 1.385 . S
C243 C242 1.369 . S
C244 C236 1.457 . S
C244 C245 1.372 . S
C244 C249 1.364 . S
C245 H224 0.952 . S
C245 C244 1.372 . S
C245 C246 1.389 . S
C246 H225 0.949 . S
C246 C245 1.389 . S
C246 C247 1.387 . S
C247 C246 1.387 . S
C247 C248 1.372 . S
C248 H226 0.950 . S
C248 C247 1.372 . S
C248 C249 1.379 . S
C249 H227 0.948 . S
C249 C244 1.364 . S
C249 C248 1.379 . S
C250 C219 1.383 . S
C250 C237 1.479 . S
C250 C251 1.398 . S
C251 C216 1.382 . S
C251 H228 0.951 . S
C251 C250 1.398 . S
C252 C253 1.384 . S
C252 H265 0.947 . S
C252 C287 1.382 . S
C253 C252 1.384 . S
C253 C254 1.378 . S
C254 C253 1.378 . S
C254 C255 1.378 . S
C254 H266 0.952 . S
C255 C254 1.378 . S
C255 H267 0.950 . S
C255 C286 1.383 . S
H256 C275 0.947 . S
H257 C276 0.946 . S
H258 C278 0.953 1_556 S
H259 C279 0.945 1_556 S
H260 C281 0.952 . S
H261 C282 0.949 . S
H262 C284 0.950 . S
H263 C285 0.948 . S
H264 C287 0.951 . S
H265 C252 0.947 . S
H266 C254 0.952 . S
H267 C255 0.950 . S
N268 C271 1.382 . S
N268 C273 1.363 . S
N269 C271 1.371 1_556 S
N269 C272 1.372 . S
N270 C272 1.361 1_554 S
N270 C273 1.377 . S
C271 N268 1.382 . S
C271 N269 1.371 1_554 S
C271 C274 1.480 . S
C272 N269 1.372 . S
C272 N270 1.361 1_556 S
C272 C280 1.457 . S
C273 N268 1.363 . S
C273 N270 1.377 . S
C273 C286 1.479 . S
C274 C271 1.480 . S
C274 C275 1.383 . S
C274 C279 1.385 . S
C275 H256 0.947 . S
C275 C274 1.383 . S
C275 C276 1.388 . S
C276 H257 0.946 . S
C276 C275 1.388 . S
C276 C277 1.384 . S
C277 C276 1.384 . S
C277 C278 1.377 . S
C278 H258 0.953 1_554 S
C278 C277 1.377 . S
C278 C279 1.369 . S
C279 H259 0.945 1_554 S
C279 C274 1.385 . S
C279 C278 1.369 . S
C280 C272 1.457 . S
C280 C281 1.372 . S
C280 C285 1.364 . S
C281 H260 0.952 . S
C281 C280 1.372 . S
C281 C282 1.389 . S
C282 H261 0.949 . S
C282 C281 1.389 . S
C282 C283 1.387 . S
C283 C282 1.387 . S
C283 C284 1.372 . S
C284 H262 0.950 . S
C284 C283 1.372 . S
C284 C285 1.379 . S
C285 H263 0.948 . S
C285 C280 1.364 . S
C285 C284 1.379 . S
C286 C255 1.383 . S
C286 C273 1.479 . S
C286 C287 1.398 . S
C287 C252 1.382 . S
C287 H264 0.951 . S
C287 C286 1.398 . S
Eu288 N317 2.600 . S
Eu288 N323 2.562 . S
Eu288 O332 2.462 . S
Eu288 O333 2.373 1_545 S
Eu288 O335 2.432 . S
Eu288 O336 2.291 1_655 S
Eu288 O340 2.335 1_655 S
Eu288 O343 2.372 . S
Eu288 C352 2.787 . S
C289 N290 1.381 . S
C289 C292 1.405 . S
C289 C296 1.448 . S
N290 C289 1.381 . S
N290 C293 1.315 1_545 S
N290 Eu299 2.592 1_545 S
C291 C293 1.397 1_545 S
C291 C294 1.367 . S
C291 H311 0.931 . S
C292 C289 1.405 . S
C292 C294 1.403 . S
C292 C298 1.439 . S
C293 N290 1.315 1_565 S
C293 C291 1.397 1_565 S
C293 H304 0.930 . S
C294 C291 1.367 . S
C294 C292 1.403 . S
C294 H315 0.929 . S
C295 C296 1.430 . S
C295 C297 1.387 1_556 S
C295 C301 1.404 1_556 S
C296 C289 1.448 . S
C296 C295 1.430 . S
C296 N300 1.351 . S
C297 C295 1.387 1_554 S
C297 C298 1.374 1_554 S
C297 H312 0.931 . S
C298 C292 1.439 . S
C298 C297 1.374 1_556 S
C298 H313 0.931 . S
Eu299 N290 2.592 1_565 S
Eu299 N300 2.562 1_565 S
Eu299 O334 2.335 . S
Eu299 O337 2.372 . S
Eu299 O338 2.462 . S
Eu299 O339 2.373 1_565 S
Eu299 O341 2.432 . S
Eu299 O342 2.290 1_465 S
Eu299 C363 2.787 . S
N300 C296 1.351 . S
N300 Eu299 2.562 1_545 S
N300 C302 1.325 . S
C301 C295 1.404 1_554 S
C301 C303 1.366 . S
C301 H309 0.930 . S
C302 N300 1.325 . S
C302 C303 1.416 1_556 S
C302 H308 0.929 . S
C303 C301 1.366 . S
C303 C302 1.416 1_554 S
C303 H305 0.930 . S
H304 C293 0.930 . S
H305 C303 0.930 . S
H306 C321 0.930 . S
H307 C328 0.930 1_455 S
H308 C302 0.929 . S
H309 C301 0.930 . S
H310 C324 0.929 1_455 S
H311 C291 0.931 . S
H312 C297 0.931 . S
H313 C298 0.931 . S
H314 C319 0.931 . S
H315 C294 0.929 . S
H316 C327 0.930 . S
N317 Eu288 2.600 . S
N317 C318 1.355 1_545 S
N317 C321 1.319 . S
C318 N317 1.355 1_565 S
C318 C320 1.413 . S
C318 C326 1.450 . S
C319 H314 0.931 . S
C319 C321 1.397 . S
C319 C322 1.367 1_545 S
C320 C318 1.413 . S
C320 C322 1.403 . S
C320 C353 1.439 . S
C321 H306 0.930 . S
C321 N317 1.319 . S
C321 C319 1.397 . S
C322 C319 1.367 1_565 S
C322 C320 1.403 . S
C322 H329 0.929 . S
N323 Eu288 2.562 . S
N323 C324 1.325 . S
N323 C326 1.351 1_545 S
C324 H310 0.929 1_655 S
C324 N323 1.325 . S
C324 C328 1.416 1_545 S
C325 C326 1.430 . S
C325 C327 1.404 . S
C325 C354 1.387 . S
C326 C318 1.450 . S
C326 N323 1.351 1_565 S
C326 C325 1.430 . S
C327 H316 0.930 . S
C327 C325 1.404 . S
C327 C328 1.366 . S
C328 H307 0.930 1_655 S
C328 C324 1.416 1_565 S
C328 C327 1.366 . S
H329 C322 0.929 . S
H330 C353 0.931 . S
H331 C354 0.931 . S
O332 Eu288 2.462 . S
O332 C352 1.252 . S
O333 Eu288 2.373 1_565 S
O333 C344 1.249 . S
O334 Eu299 2.335 . S
O334 C344 1.264 1_455 S
O335 Eu288 2.432 . S
O335 C352 1.268 . S
O336 Eu288 2.291 1_455 S
O336 C351 1.255 . S
O337 Eu299 2.372 . S
O337 C351 1.257 1_565 S
O338 Eu299 2.462 . S
O338 C363 1.252 . S
O339 Eu299 2.373 1_545 S
O339 C355 1.249 . S
O340 Eu288 2.335 1_455 S
O340 C355 1.264 . S
O341 Eu299 2.432 . S
O341 C363 1.268 . S
O342 Eu299 2.290 1_645 S
O342 C362 1.256 . S
O343 Eu288 2.372 . S
O343 C362 1.257 . S
C344 O333 1.249 . S
C344 O334 1.264 1_655 S
C345 C348 1.382 . S
C345 C350 1.390 . S
C345 C352 1.506 . S
C346 C347 1.398 . S
C346 C350 1.392 . S
C347 C346 1.398 . S
C347 C349 1.372 . S
C347 H364 0.931 . S
C348 C345 1.382 . S
C348 C349 1.390 . S
C348 H365 0.931 . S
C349 C347 1.372 . S
C349 C348 1.390 . S
C349 H366 0.929 . S
C350 C345 1.390 . S
C350 C346 1.392 . S
C350 H367 0.930 1_655 S
C351 O336 1.255 . S
C351 O337 1.257 1_545 S
C352 Eu288 2.787 . S
C352 O332 1.252 . S
C352 O335 1.268 . S
C352 C345 1.506 . S
C353 C320 1.439 . S
C353 H330 0.931 . S
C353 C354 1.374 . S
C354 C325 1.387 . S
C354 H331 0.931 . S
C354 C353 1.374 . S
C355 O339 1.249 . S
C355 O340 1.264 . S
C356 C359 1.382 . S
C356 C360 1.390 . S
C356 C363 1.506 . S
C357 C358 1.398 . S
C357 C360 1.392 . S
C358 C357 1.398 . S
C358 C361 1.372 . S
C358 H368 0.931 . S
C359 C356 1.382 . S
C359 C361 1.390 . S
C359 H369 0.931 . S
C360 C356 1.390 . S
C360 C357 1.392 . S
C360 H370 0.930 . S
C361 C358 1.372 . S
C361 C359 1.390 . S
C361 H371 0.929 . S
C362 O342 1.256 . S
C362 O343 1.257 . S
C363 Eu299 2.787 . S
C363 O338 1.252 . S
C363 O341 1.268 . S
C363 C356 1.506 . S
H364 C347 0.931 . S
H365 C348 0.931 . S
H366 C349 0.929 . S
H367 C350 0.930 1_455 S
H368 C358 0.931 . S
H369 C359 0.931 . S
H370 C360 0.930 . S
H371 C361 0.929 . S
Eu372 N401 2.600 . S
Eu372 N407 2.562 . S
Eu372 O416 2.462 . S
Eu372 O417 2.373 . S
Eu372 O419 2.432 . S
Eu372 O420 2.291 . S
Eu372 O424 2.335 1_545 S
Eu372 O427 2.372 . S
Eu372 C436 2.787 . S
C373 N374 1.365 . S
C373 C376 1.405 . S
C373 C380 1.448 . S
N374 C373 1.365 . S
N374 C377 1.319 . S
N374 Eu383 2.600 . S
C375 C377 1.397 . S
C375 C378 1.367 . S
C375 H395 0.931 . S
C376 C373 1.405 . S
C376 C378 1.403 . S
C376 C382 1.439 . S
C377 N374 1.319 . S
C377 C375 1.397 . S
C377 H388 0.930 . S
C378 C375 1.367 . S
C378 C376 1.403 . S
C378 H399 0.929 . S
C379 C380 1.430 . S
C379 C381 1.387 . S
C379 C385 1.404 . S
C380 C373 1.448 . S
C380 C379 1.430 . S
C380 N384 1.351 . S
C381 C379 1.387 . S
C381 C382 1.374 . S
C381 H396 0.931 . S
C382 C376 1.439 . S
C382 C381 1.374 . S
C382 H397 0.931 . S
Eu383 N374 2.600 . S
Eu383 N384 2.562 . S
Eu383 O418 2.335 1_565 S
Eu383 O421 2.372 . S
Eu383 O422 2.462 . S
Eu383 O423 2.373 . S
Eu383 O425 2.432 . S
Eu383 O426 2.276 1_565 S
Eu383 C447 2.787 . S
N384 C380 1.351 . S
N384 Eu383 2.562 . S
N384 C386 1.325 . S
C385 C379 1.404 . S
C385 C387 1.366 . S
C385 H393 0.930 . S
C386 N384 1.325 . S
C386 C387 1.416 . S
C386 H392 0.929 . S
C387 C385 1.366 . S
C387 C386 1.416 . S
C387 H389 0.930 . S
H388 C377 0.930 . S
H389 C387 0.930 . S
H390 C405 0.930 . S
H391 C412 0.930 . S
H392 C386 0.929 . S
H393 C385 0.930 . S
H394 C408 0.929 . S
H395 C375 0.931 . S
H396 C381 0.931 . S
H397 C382 0.931 . S
H398 C403 0.931 . S
H399 C378 0.929 . S
H400 C411 0.930 . S
N401 Eu372 2.600 . S
N401 C402 1.365 . S
N401 C405 1.319 . S
C402 N401 1.365 . S
C402 C404 1.405 . S
C402 C410 1.448 . S
C403 H398 0.931 . S
C403 C405 1.397 . S
C403 C406 1.367 . S
C404 C402 1.405 . S
C404 C406 1.403 . S
C404 C437 1.439 . S
C405 H390 0.930 . S
C405 N401 1.319 . S
C405 C403 1.397 . S
C406 C403 1.367 . S
C406 C404 1.403 . S
C406 H413 0.929 . S
N407 Eu372 2.562 . S
N407 C408 1.325 . S
N407 C410 1.351 . S
C408 H394 0.929 . S
C408 N407 1.325 . S
C408 C412 1.416 . S
C409 C410 1.430 . S
C409 C411 1.404 . S
C409 C438 1.387 . S
C410 C402 1.448 . S
C410 N407 1.351 . S
C410 C409 1.430 . S
C411 H400 0.930 . S
C411 C409 1.404 . S
C411 C412 1.366 . S
C412 H391 0.930 . S
C412 C408 1.416 . S
C412 C411 1.366 . S
H413 C406 0.929 . S
H414 C437 0.931 . S
H415 C438 0.931 . S
O416 Eu372 2.462 . S
O416 C436 1.252 . S
O417 Eu372 2.373 . S
O417 C428 1.249 . S
O418 Eu383 2.335 1_545 S
O418 C428 1.264 . S
O419 Eu372 2.432 . S
O419 C436 1.268 . S
O420 Eu372 2.291 . S
O420 C435 1.255 1_545 S
O421 Eu383 2.372 . S
O421 C435 1.257 . S
O422 Eu383 2.462 . S
O422 C447 1.252 . S
O423 Eu383 2.373 . S
O423 C439 1.249 . S
O424 Eu372 2.335 1_565 S
O424 C439 1.264 . S
O425 Eu383 2.432 . S
O425 C447 1.268 . S
O426 Eu383 2.276 1_545 S
O426 C446 1.278 . S
O427 Eu372 2.372 . S
O427 C446 1.257 . S
C428 O417 1.249 . S
C428 O418 1.264 . S
C429 C432 1.382 1_556 S
C429 C434 1.390 . S
C429 C436 1.506 . S
C430 C431 1.398 1_556 S
C430 C434 1.392 . S
C431 C430 1.398 1_554 S
C431 C433 1.372 . S
C431 H448 0.931 . S
C432 C429 1.382 1_554 S
C432 C433 1.390 . S
C432 H449 0.931 . S
C433 C431 1.372 . S
C433 C432 1.390 . S
C433 H450 0.929 . S
C434 C429 1.390 . S
C434 C430 1.392 . S
C434 H451 0.930 . S
C435 O420 1.255 1_565 S
C435 O421 1.257 . S
C436 Eu372 2.787 . S
C436 O416 1.252 . S
C436 O419 1.268 . S
C436 C429 1.506 . S
C437 C404 1.439 . S
C437 H414 0.931 . S
C437 C438 1.374 . S
C438 C409 1.387 . S
C438 H415 0.931 . S
C438 C437 1.374 . S
C439 O423 1.249 . S
C439 O424 1.264 . S
C440 C443 1.382 . S
C440 C444 1.390 . S
C440 C447 1.506 . S
C441 C442 1.398 . S
C441 C444 1.392 . S
C442 C441 1.398 . S
C442 C445 1.372 . S
C442 H452 0.931 . S
C443 C440 1.382 . S
C443 C445 1.390 . S
C443 H453 0.931 . S
C444 C440 1.390 . S
C444 C441 1.392 . S
C444 H454 0.942 . S
C445 C442 1.372 . S
C445 C443 1.390 . S
C445 H455 0.929 . S
C446 O426 1.278 . S
C446 O427 1.257 . S
C447 Eu383 2.787 . S
C447 O422 1.252 . S
C447 O425 1.268 . S
C447 C440 1.506 . S
H448 C431 0.931 . S
H449 C432 0.931 . S
H450 C433 0.929 . S
H451 C434 0.930 . S
H452 C442 0.931 . S
H453 C443 0.931 . S
H454 C444 0.942 . S
H455 C445 0.929 . S
Eu456 N485 2.600 . S
Eu456 N491 2.562 . S
Eu456 O500 2.462 . S
Eu456 O501 2.373 . S
Eu456 O503 2.432 . S
Eu456 O504 2.291 . S
Eu456 O508 2.335 . S
Eu456 O511 2.372 . S
Eu456 C520 2.787 . S
C457 N458 1.365 . S
C457 C460 1.405 . S
C457 C464 1.448 . S
N458 C457 1.365 . S
N458 C461 1.319 . S
N458 Eu467 2.600 . S
C459 C461 1.397 . S
C459 C462 1.367 . S
C459 H479 0.931 . S
C460 C457 1.405 . S
C460 C462 1.403 . S
C460 C466 1.439 . S
C461 N458 1.319 . S
C461 C459 1.397 . S
C461 H472 0.930 . S
C462 C459 1.367 . S
C462 C460 1.403 . S
C462 H483 0.929 . S
C463 C464 1.430 . S
C463 C465 1.387 1_556 S
C463 C469 1.404 1_556 S
C464 C457 1.448 . S
C464 C463 1.430 . S
C464 N468 1.351 . S
C465 C463 1.387 1_554 S
C465 C466 1.374 1_554 S
C465 H480 0.931 . S
C466 C460 1.439 . S
C466 C465 1.374 1_556 S
C466 H481 0.931 . S
Eu467 N458 2.600 . S
Eu467 N468 2.562 . S
Eu467 O502 2.335 . S
Eu467 O505 2.372 . S
Eu467 O506 2.462 . S
Eu467 O507 2.373 . S
Eu467 O509 2.432 . S
Eu467 O510 2.291 . S
Eu467 C531 2.787 . S
N468 C464 1.351 . S
N468 Eu467 2.562 . S
N468 C470 1.325 . S
C469 C463 1.404 1_554 S
C469 C471 1.366 . S
C469 H477 0.930 . S
C470 N468 1.325 . S
C470 C471 1.416 1_556 S
C470 H476 0.929 . S
C471 C469 1.366 . S
C471 C470 1.416 1_554 S
C471 H473 0.930 . S
H472 C461 0.930 . S
H473 C471 0.930 . S
H474 C489 0.930 . S
H475 C496 0.930 . S
H476 C470 0.929 . S
H477 C469 0.930 . S
H478 C492 0.929 . S
H479 C459 0.931 . S
H480 C465 0.931 . S
H481 C466 0.931 . S
H482 C487 0.931 . S
H483 C462 0.929 . S
H484 C495 0.930 . S
N485 Eu456 2.600 . S
N485 C486 1.365 . S
N485 C489 1.319 . S
C486 N485 1.365 . S
C486 C488 1.405 . S
C486 C494 1.448 . S
C487 H482 0.931 . S
C487 C489 1.397 . S
C487 C490 1.367 . S
C488 C486 1.405 . S
C488 C490 1.403 . S
C488 C521 1.439 . S
C489 H474 0.930 . S
C489 N485 1.319 . S
C489 C487 1.397 . S
C490 C487 1.367 . S
C490 C488 1.403 . S
C490 H497 0.929 . S
N491 Eu456 2.562 . S
N491 C492 1.325 . S
N491 C494 1.351 . S
C492 H478 0.929 . S
C492 N491 1.325 . S
C492 C496 1.416 . S
C493 C494 1.430 . S
C493 C495 1.404 . S
C493 C522 1.387 . S
C494 C486 1.448 . S
C494 N491 1.351 . S
C494 C493 1.430 . S
C495 H484 0.930 . S
C495 C493 1.404 . S
C495 C496 1.366 . S
C496 H475 0.930 . S
C496 C492 1.416 . S
C496 C495 1.366 . S
H497 C490 0.929 . S
H498 C521 0.931 . S
H499 C522 0.931 . S
O500 Eu456 2.462 . S
O500 C520 1.252 . S
O501 Eu456 2.373 . S
O501 C512 1.249 . S
O502 Eu467 2.335 . S
O502 C512 1.264 . S
O503 Eu456 2.432 . S
O503 C520 1.268 . S
O504 Eu456 2.291 . S
O504 C519 1.255 . S
O505 Eu467 2.372 . S
O505 C519 1.257 . S
O506 Eu467 2.462 . S
O506 C531 1.252 . S
O507 Eu467 2.373 . S
O507 C523 1.249 . S
O508 Eu456 2.335 . S
O508 C523 1.264 . S
O509 Eu467 2.432 . S
O509 C531 1.268 . S
O510 Eu467 2.291 . S
O510 C530 1.255 . S
O511 Eu456 2.372 . S
O511 C530 1.257 . S
C512 O501 1.249 . S
C512 O502 1.264 . S
C513 C516 1.382 . S
C513 C518 1.390 . S
C513 C520 1.506 . S
C514 C515 1.398 . S
C514 C518 1.392 . S
C515 C514 1.398 . S
C515 C517 1.372 . S
C515 H532 0.931 . S
C516 C513 1.382 . S
C516 C517 1.390 . S
C516 H533 0.931 . S
C517 C515 1.372 . S
C517 C516 1.390 . S
C517 H534 0.929 . S
C518 C513 1.390 . S
C518 C514 1.392 . S
C518 H535 0.930 . S
C519 O504 1.255 . S
C519 O505 1.257 . S
C520 Eu456 2.787 . S
C520 O500 1.252 . S
C520 O503 1.268 . S
C520 C513 1.506 . S
C521 C488 1.439 . S
C521 H498 0.931 . S
C521 C522 1.374 . S
C522 C493 1.387 . S
C522 H499 0.931 . S
C522 C521 1.374 . S
C523 O507 1.249 . S
C523 O508 1.264 . S
C524 C527 1.382 . S
C524 C528 1.390 . S
C524 C531 1.506 . S
C525 C526 1.398 . S
C525 C528 1.392 . S
C526 C525 1.398 . S
C526 C529 1.372 . S
C526 H536 0.931 . S
C527 C524 1.382 . S
C527 C529 1.390 . S
C527 H537 0.931 . S
C528 C524 1.390 . S
C528 C525 1.392 . S
C528 H538 0.930 . S
C529 C526 1.372 . S
C529 C527 1.390 . S
C529 H539 0.929 . S
C530 O510 1.255 . S
C530 O511 1.257 . S
C531 Eu467 2.787 . S
C531 O506 1.252 . S
C531 O509 1.268 . S
C531 C524 1.506 . S
H532 C515 0.931 . S
H533 C516 0.931 . S
H534 C517 0.929 . S
H535 C518 0.930 . S
H536 C526 0.931 . S
H537 C527 0.931 . S
H538 C528 0.930 . S
H539 C529 0.929 . S
Eu540 N569 2.600 . S
Eu540 N575 2.562 . S
Eu540 O584 2.462 . S
Eu540 O585 2.373 1_455 S
Eu540 O587 2.432 . S
Eu540 O588 2.291 . S
Eu540 O592 2.335 . S
Eu540 O595 2.372 . S
Eu540 C604 2.787 . S
C541 N542 1.365 1_455 S
C541 C544 1.405 . S
C541 C548 1.448 . S
N542 C541 1.365 1_655 S
N542 C545 1.319 . S
N542 Eu551 2.600 . S
C543 C545 1.397 1_455 S
C543 C546 1.367 . S
C543 H563 0.931 . S
C544 C541 1.405 . S
C544 C546 1.403 . S
C544 C550 1.439 . S
C545 N542 1.319 . S
C545 C543 1.397 1_655 S
C545 H556 0.930 . S
C546 C543 1.367 . S
C546 C544 1.403 . S
C546 H567 0.929 . S
C547 C548 1.430 . S
C547 C549 1.387 1_556 S
C547 C553 1.404 1_556 S
C548 C541 1.448 . S
C548 C547 1.430 . S
C548 N552 1.351 . S
C549 C547 1.387 1_554 S
C549 C550 1.374 1_554 S
C549 H564 0.931 . S
C550 C544 1.439 . S
C550 C549 1.374 1_556 S
C550 H565 0.931 . S
Eu551 N542 2.600 . S
Eu551 N552 2.562 1_655 S
Eu551 O586 2.335 . S
Eu551 O589 2.372 . S
Eu551 O590 2.462 . S
Eu551 O591 2.373 1_655 S
Eu551 O593 2.432 . S
Eu551 O594 2.291 . S
Eu551 C615 2.787 . S
N552 C548 1.351 . S
N552 Eu551 2.562 1_455 S
N552 C554 1.325 . S
C553 C547 1.404 1_554 S
C553 C555 1.366 . S
C553 H561 0.930 . S
C554 N552 1.325 . S
C554 C555 1.416 1_556 S
C554 H560 0.929 1_455 S
C555 C553 1.366 . S
C555 C554 1.416 1_554 S
C555 H557 0.930 . S
H556 C545 0.930 . S
H557 C555 0.930 . S
H558 C573 0.930 . S
H559 C580 0.930 . S
H560 C554 0.929 1_655 S
H561 C553 0.930 . S
H562 C576 0.929 . S
H563 C543 0.931 . S
H564 C549 0.931 . S
H565 C550 0.931 . S
H566 C571 0.931 . S
H567 C546 0.929 . S
H568 C579 0.930 . S
N569 Eu540 2.600 . S
N569 C570 1.365 1_455 S
N569 C573 1.319 . S
C570 N569 1.365 1_655 S
C570 C572 1.405 . S
C570 C578 1.448 . S
C571 H566 0.931 . S
C571 C573 1.397 . S
C571 C574 1.367 1_455 S
C572 C570 1.405 . S
C572 C574 1.403 . S
C572 C605 1.439 . S
C573 H558 0.930 . S
C573 N569 1.319 . S
C573 C571 1.397 . S
C574 C571 1.367 1_655 S
C574 C572 1.403 . S
C574 H581 0.929 . S
N575 Eu540 2.562 . S
N575 C576 1.325 . S
N575 C578 1.351 1_455 S
C576 H562 0.929 . S
C576 N575 1.325 . S
C576 C580 1.416 1_455 S
C577 C578 1.430 . S
C577 C579 1.404 . S
C577 C606 1.387 . S
C578 C570 1.448 . S
C578 N575 1.351 1_655 S
C578 C577 1.430 . S
C579 H568 0.930 . S
C579 C577 1.404 . S
C579 C580 1.366 . S
C580 H559 0.930 . S
C580 C576 1.416 1_655 S
C580 C579 1.366 . S
H581 C574 0.929 . S
H582 C605 0.931 . S
H583 C606 0.931 . S
O584 Eu540 2.462 . S
O584 C604 1.252 . S
O585 Eu540 2.373 1_655 S
O585 C596 1.249 . S
O586 Eu551 2.335 . S
O586 C596 1.264 . S
O587 Eu540 2.432 . S
O587 C604 1.268 . S
O588 Eu540 2.291 . S
O588 C603 1.255 . S
O589 Eu551 2.372 . S
O589 C603 1.257 1_655 S
O590 Eu551 2.462 . S
O590 C615 1.252 . S
O591 Eu551 2.373 1_455 S
O591 C607 1.249 . S
O592 Eu540 2.335 . S
O592 C607 1.264 . S
O593 Eu551 2.432 . S
O593 C615 1.268 . S
O594 Eu551 2.291 . S
O594 C614 1.255 1_655 S
O595 Eu540 2.372 . S
O595 C614 1.257 . S
C596 O585 1.249 . S
C596 O586 1.264 . S
C597 C600 1.382 . S
C597 C602 1.390 . S
C597 C604 1.506 . S
C598 C599 1.398 . S
C598 C602 1.392 . S
C599 C598 1.398 . S
C599 C601 1.372 . S
C599 H616 0.931 . S
C600 C597 1.382 . S
C600 C601 1.390 . S
C600 H617 0.931 . S
C601 C599 1.372 . S
C601 C600 1.390 . S
C601 H618 0.929 . S
C602 C597 1.390 . S
C602 C598 1.392 . S
C602 H619 0.930 . S
C603 O588 1.255 . S
C603 O589 1.257 1_455 S
C604 Eu540 2.787 . S
C604 O584 1.252 . S
C604 O587 1.268 . S
C604 C597 1.506 . S
C605 C572 1.439 . S
C605 H582 0.931 . S
C605 C606 1.374 . S
C606 C577 1.387 . S
C606 H583 0.931 . S
C606 C605 1.374 . S
C607 O591 1.249 . S
C607 O592 1.264 . S
C608 C611 1.382 . S
C608 C612 1.390 . S
C608 C615 1.506 . S
C609 C610 1.398 . S
C609 C612 1.392 . S
C610 C609 1.398 . S
C610 C613 1.372 . S
C610 H620 0.931 . S
C611 C608 1.382 . S
C611 C613 1.390 . S
C611 H621 0.931 . S
C612 C608 1.390 . S
C612 C609 1.392 . S
C612 H622 0.930 . S
C613 C610 1.372 . S
C613 C611 1.390 . S
C613 H623 0.929 . S
C614 O594 1.255 1_455 S
C614 O595 1.257 . S
C615 Eu551 2.787 . S
C615 O590 1.252 . S
C615 O593 1.268 . S
C615 C608 1.506 . S
H616 C599 0.931 . S
H617 C600 0.931 . S
H618 C601 0.929 . S
H619 C602 0.930 . S
H620 C610 0.931 . S
H621 C611 0.931 . S
H622 C612 0.930 . S
H623 C613 0.929 . S
C624 C625 1.363 . S
C624 C630 1.379 . S
C624 N632 1.356 1_545 S
C625 C624 1.363 . S
C625 C631 1.363 . S
C626 C627 1.363 . S
C626 C631 1.379 . S
C626 N633 1.356 . S
C627 C626 1.363 . S
C627 C630 1.363 . S
N628 C630 1.356 1_565 S
N628 H640 0.984 . S
N628 H641 0.985 . S
N629 C631 1.356 . S
N629 H634 0.984 . S
N629 H635 0.985 . S
C630 C624 1.379 . S
C630 C627 1.363 . S
C630 N628 1.356 1_545 S
C631 C625 1.363 . S
C631 C626 1.379 . S
C631 N629 1.356 . S
N632 C624 1.356 1_565 S
N632 H638 0.984 . S
N632 H639 0.984 1_565 S
N633 C626 1.356 . S
N633 H636 0.984 . S
N633 H637 0.985 . S
H634 N629 0.984 . S
H635 N629 0.985 . S
H636 N633 0.984 . S
H637 N633 0.985 . S
H638 N632 0.984 . S
H639 N632 0.984 1_545 S
H640 N628 0.984 . S
H641 N628 0.985 . S
C642 C643 1.363 . S
C642 C648 1.379 . S
C642 N650 1.356 . S
C643 C642 1.363 . S
C643 C649 1.363 . S
C644 C645 1.363 . S
C644 C649 1.379 . S
C644 N651 1.356 . S
C645 C644 1.363 . S
C645 C648 1.363 . S
N646 C648 1.356 . S
N646 H658 0.984 . S
N646 H659 0.985 . S
N647 C649 1.356 . S
N647 H652 0.984 . S
N647 H653 0.985 . S
C648 C642 1.379 . S
C648 C645 1.363 . S
C648 N646 1.356 . S
C649 C643 1.363 . S
C649 C644 1.379 . S
C649 N647 1.356 . S
N650 C642 1.356 . S
N650 H656 0.984 . S
N650 H657 0.984 . S
N651 C644 1.356 . S
N651 H654 0.984 . S
N651 H655 0.985 . S
H652 N647 0.984 . S
H653 N647 0.985 . S
H654 N651 0.984 . S
H655 N651 0.985 . S
H656 N650 0.984 . S
H657 N650 0.984 . S
H658 N646 0.984 . S
H659 N646 0.985 . S
C660 C661 1.363 . S
C660 C666 1.379 . S
C660 N668 1.356 . S
C661 C660 1.363 . S
C661 C667 1.363 . S
C662 C663 1.363 . S
C662 C667 1.379 . S
C662 N669 1.356 . S
C663 C662 1.363 . S
C663 C666 1.363 . S
N664 C666 1.356 . S
N664 H676 0.984 . S
N664 H677 0.985 . S
N665 C667 1.356 . S
N665 H670 0.984 . S
N665 H671 0.985 . S
C666 C660 1.379 . S
C666 C663 1.363 . S
C666 N664 1.356 . S
C667 C661 1.363 . S
C667 C662 1.379 . S
C667 N665 1.356 . S
N668 C660 1.356 . S
N668 H674 0.984 . S
N668 H675 0.984 . S
N669 C662 1.356 . S
N669 H672 0.984 . S
N669 H673 0.985 . S
H670 N665 0.984 . S
H671 N665 0.985 . S
H672 N669 0.984 . S
H673 N669 0.985 . S
H674 N668 0.984 . S
H675 N668 0.984 . S
H676 N664 0.984 . S
H677 N664 0.985 . S
C678 C679 1.363 . S
C678 C684 1.379 . S
C678 N686 1.356 . S
C679 C678 1.363 . S
C679 C685 1.363 . S
C680 C681 1.363 . S
C680 C685 1.379 . S
C680 N687 1.356 . S
C681 C680 1.363 . S
C681 C684 1.363 . S
N682 C684 1.356 1_655 S
N682 H694 0.984 . S
N682 H695 0.985 . S
N683 C685 1.356 . S
N683 H688 0.984 . S
N683 H689 0.985 . S
C684 C678 1.379 . S
C684 C681 1.363 . S
C684 N682 1.356 1_455 S
C685 C679 1.363 . S
C685 C680 1.379 . S
C685 N683 1.356 . S
N686 C678 1.356 . S
N686 H692 0.984 1_455 S
N686 H693 0.984 . S
N687 C680 1.356 . S
N687 H690 0.984 . S
N687 H691 0.985 . S
H688 N683 0.984 . S
H689 N683 0.985 . S
H690 N687 0.984 . S
H691 N687 0.985 . S
H692 N686 0.984 1_655 S
H693 N686 0.984 . S
H694 N682 0.984 . S
H695 N682 0.985 . S
C696 C697 1.363 1_545 S
C696 C702 1.379 1_554 S
C696 N704 1.356 . S
C697 C696 1.363 1_565 S
C697 C703 1.363 . S
C698 C699 1.363 . S
C698 C703 1.379 1_556 S
C698 N705 1.356 . S
C699 C698 1.363 . S
C699 C702 1.363 1_565 S
N700 C702 1.356 . S
N700 H712 0.984 . S
N700 H713 0.985 . S
N701 C703 1.356 . S
N701 H706 0.984 . S
N701 H707 0.985 . S
C702 C696 1.379 1_556 S
C702 C699 1.363 1_545 S
C702 N700 1.356 . S
C703 C697 1.363 . S
C703 C698 1.379 1_554 S
C703 N701 1.356 . S
N704 C696 1.356 . S
N704 H710 0.984 . S
N704 H711 0.984 . S
N705 C698 1.356 . S
N705 H708 0.984 . S
N705 H709 0.985 . S
H706 N701 0.984 . S
H707 N701 0.985 . S
H708 N705 0.984 . S
H709 N705 0.985 . S
H710 N704 0.984 . S
H711 N704 0.984 . S
H712 N700 0.984 . S
H713 N700 0.985 . S
C714 C715 1.363 . S
C714 C720 1.379 1_554 S
C714 N722 1.356 . S
C715 C714 1.363 . S
C715 C721 1.363 . S
C716 C717 1.363 . S
C716 C721 1.379 1_556 S
C716 N723 1.356 . S
C717 C716 1.363 . S
C717 C720 1.363 . S
N718 C720 1.356 . S
N718 H730 0.984 1_565 S
N718 H731 0.985 . S
N719 C721 1.356 . S
N719 H724 0.984 . S
N719 H725 0.985 . S
C720 C714 1.379 1_556 S
C720 C717 1.363 . S
C720 N718 1.356 . S
C721 C715 1.363 . S
C721 C716 1.379 1_554 S
C721 N719 1.356 . S
N722 C714 1.356 . S
N722 H728 0.984 1_565 S
N722 H729 0.984 . S
N723 C716 1.356 . S
N723 H726 0.984 . S
N723 H727 0.985 . S
H724 N719 0.984 . S
H725 N719 0.985 . S
H726 N723 0.984 . S
H727 N723 0.985 . S
H728 N722 0.984 1_545 S
H729 N722 0.984 . S
H730 N718 0.984 1_545 S
H731 N718 0.985 . S
C732 C733 1.363 . S
C732 C738 1.379 1_554 S
C732 N740 1.356 . S
C733 C732 1.363 . S
C733 C739 1.363 . S
C734 C735 1.363 . S
C734 C739 1.379 1_556 S
C734 N741 1.356 . S
C735 C734 1.363 . S
C735 C738 1.363 . S
N736 C738 1.356 . S
N736 H748 0.984 . S
N736 H749 0.985 . S
N737 C739 1.356 . S
N737 H742 0.984 . S
N737 H743 0.985 . S
C738 C732 1.379 1_556 S
C738 C735 1.363 . S
C738 N736 1.356 . S
C739 C733 1.363 . S
C739 C734 1.379 1_554 S
C739 N737 1.356 . S
N740 C732 1.356 . S
N740 H746 0.984 . S
N740 H747 0.984 . S
N741 C734 1.356 . S
N741 H744 0.984 . S
N741 H745 0.985 . S
H742 N737 0.984 . S
H743 N737 0.985 . S
H744 N741 0.984 . S
H745 N741 0.985 . S
H746 N740 0.984 . S
H747 N740 0.984 . S
H748 N736 0.984 . S
H749 N736 0.985 . S
C750 C751 1.363 . S
C750 C756 1.379 1_554 S
C750 N758 1.356 . S
C751 C750 1.363 . S
C751 C757 1.363 . S
C752 C753 1.363 . S
C752 C757 1.379 1_556 S
C752 N759 1.356 . S
C753 C752 1.363 . S
C753 C756 1.363 . S
N754 C756 1.356 1_455 S
N754 H766 0.984 . S
N754 H767 0.985 . S
N755 C757 1.356 . S
N755 H760 0.984 . S
N755 H761 0.985 . S
C756 C750 1.379 1_556 S
C756 C753 1.363 . S
C756 N754 1.356 1_655 S
C757 C751 1.363 . S
C757 C752 1.379 1_554 S
C757 N755 1.356 . S
N758 C750 1.356 . S
N758 H764 0.984 1_655 S
N758 H765 0.984 . S
N759 C752 1.356 . S
N759 H762 0.984 . S
N759 H763 0.985 . S
H760 N755 0.984 . S
H761 N755 0.985 . S
H762 N759 0.984 . S
H763 N759 0.985 . S
H764 N758 0.984 1_455 S
H765 N758 0.984 . S
H766 N754 0.984 . S
H767 N754 0.985 . S
C768 C769 1.363 . S
C768 C774 1.379 . S
C768 N776 1.356 . S
C769 C768 1.363 . S
C769 C775 1.363 . S
C770 C771 1.363 . S
C770 C775 1.379 1_655 S
C770 N777 1.356 . S
C771 C770 1.363 . S
C771 C774 1.363 1_655 S
N772 C774 1.356 . S
N772 H784 0.984 . S
N772 H785 0.985 1_455 S
N773 C775 1.356 . S
N773 H778 0.984 . S
N773 H779 0.985 . S
C774 C768 1.379 . S
C774 C771 1.363 1_455 S
C774 N772 1.356 . S
C775 C769 1.363 . S
C775 C770 1.379 1_455 S
C775 N773 1.356 . S
N776 C768 1.356 . S
N776 H782 0.984 . S
N776 H783 0.984 . S
N777 C770 1.356 . S
N777 H780 0.984 . S
N777 H781 0.985 . S
H778 N773 0.984 . S
H779 N773 0.985 . S
H780 N777 0.984 . S
H781 N777 0.985 . S
H782 N776 0.984 . S
H783 N776 0.984 . S
H784 N772 0.984 . S
H785 N772 0.985 1_655 S
C786 C787 1.363 . S
C786 C792 1.379 1_545 S
C786 N794 1.356 . S
C787 C786 1.363 . S
C787 C793 1.363 . S
C788 C789 1.363 1_545 S
C788 C793 1.379 . S
C788 N795 1.356 . S
C789 C788 1.363 1_565 S
C789 C792 1.363 . S
N790 C792 1.356 . S
N790 H802 0.984 . S
N790 H803 0.985 . S
N791 C793 1.356 . S
N791 H796 0.984 . S
N791 H797 0.985 . S
C792 C786 1.379 1_565 S
C792 C789 1.363 . S
C792 N790 1.356 . S
C793 C787 1.363 . S
C793 C788 1.379 . S
C793 N791 1.356 . S
N794 C786 1.356 . S
N794 H800 0.984 1_545 S
N794 H801 0.984 . S
N795 C788 1.356 . S
N795 H798 0.984 . S
N795 H799 0.985 . S
H796 N791 0.984 . S
H797 N791 0.985 . S
H798 N795 0.984 . S
H799 N795 0.985 . S
H800 N794 0.984 1_565 S
H801 N794 0.984 . S
H802 N790 0.984 . S
H803 N790 0.985 . S
C804 C805 1.363 . S
C804 C810 1.379 . S
C804 N812 1.356 . S
C805 C804 1.363 . S
C805 C811 1.363 . S
C806 C807 1.363 . S
C806 C811 1.379 . S
C806 N813 1.356 . S
C807 C806 1.363 . S
C807 C810 1.363 . S
N808 C810 1.356 . S
N808 H820 0.984 . S
N808 H821 0.985 . S
N809 C811 1.356 . S
N809 H814 0.984 . S
N809 H815 0.985 . S
C810 C804 1.379 . S
C810 C807 1.363 . S
C810 N808 1.356 . S
C811 C805 1.363 . S
C811 C806 1.379 . S
C811 N809 1.356 . S
N812 C804 1.356 . S
N812 H818 0.984 . S
N812 H819 0.984 . S
N813 C806 1.356 . S
N813 H816 0.984 . S
N813 H817 0.985 . S
H814 N809 0.984 . S
H815 N809 0.985 . S
H816 N813 0.984 . S
H817 N813 0.985 . S
H818 N812 0.984 . S
H819 N812 0.984 . S
H820 N808 0.984 . S
H821 N808 0.985 . S
C822 C823 1.363 . S
C822 C828 1.379 . S
C822 N830 1.356 . S
C823 C822 1.363 . S
C823 C829 1.363 . S
C824 C825 1.363 . S
C824 C829 1.379 . S
C824 N831 1.356 . S
C825 C824 1.363 . S
C825 C828 1.363 . S
N826 C828 1.356 . S
N826 H838 0.984 . S
N826 H839 0.985 . S
N827 C829 1.356 . S
N827 H832 0.984 . S
N827 H833 0.985 . S
C828 C822 1.379 . S
C828 C825 1.363 . S
C828 N826 1.356 . S
C829 C823 1.363 . S
C829 C824 1.379 . S
C829 N827 1.356 . S
N830 C822 1.356 . S
N830 H836 0.984 . S
N830 H837 0.984 . S
N831 C824 1.356 . S
N831 H834 0.984 . S
N831 H835 0.985 . S
H832 N827 0.984 . S
H833 N827 0.985 . S
H834 N831 0.984 . S
H835 N831 0.985 . S
H836 N830 0.984 . S
H837 N830 0.984 . S
H838 N826 0.984 . S
H839 N826 0.985 . S
C840 C841 1.363 1_556 S
C840 C846 1.379 1_655 S
C840 N848 1.356 . S
C841 C840 1.363 1_554 S
C841 C847 1.363 . S
C842 C843 1.363 1_554 S
C842 C847 1.379 1_455 S
C842 N849 1.356 . S
C843 C842 1.363 1_556 S
C843 C846 1.363 . S
N844 C846 1.356 . S
N844 H856 0.984 . S
N844 H857 0.985 . S
N845 C847 1.356 . S
N845 H850 0.984 . S
N845 H851 0.985 . S
C846 C840 1.379 1_455 S
C846 C843 1.363 . S
C846 N844 1.356 . S
C847 C841 1.363 . S
C847 C842 1.379 1_655 S
C847 N845 1.356 . S
N848 C840 1.356 . S
N848 H854 0.984 . S
N848 H855 0.984 . S
N849 C842 1.356 . S
N849 H852 0.984 . S
N849 H853 0.985 . S
H850 N845 0.984 . S
H851 N845 0.985 . S
H852 N849 0.984 . S
H853 N849 0.985 . S
H854 N848 0.984 . S
H855 N848 0.984 . S
H856 N844 0.984 . S
H857 N844 0.985 . S
C858 C859 1.363 1_556 S
C858 C864 1.379 1_565 S
C858 N866 1.356 . S
C859 C858 1.363 1_554 S
C859 C865 1.363 . S
C860 C861 1.363 1_554 S
C860 C865 1.379 1_545 S
C860 N867 1.356 . S
C861 C860 1.363 1_556 S
C861 C864 1.363 . S
N862 C864 1.356 . S
N862 H874 0.984 . S
N862 H875 0.985 . S
N863 C865 1.356 . S
N863 H868 0.984 . S
N863 H869 0.985 . S
C864 C858 1.379 1_545 S
C864 C861 1.363 . S
C864 N862 1.356 . S
C865 C859 1.363 . S
C865 C860 1.379 1_565 S
C865 N863 1.356 . S
N866 C858 1.356 . S
N866 H872 0.984 . S
N866 H873 0.984 . S
N867 C860 1.356 . S
N867 H870 0.984 . S
N867 H871 0.985 . S
H868 N863 0.984 . S
H869 N863 0.985 . S
H870 N867 0.984 . S
H871 N867 0.985 . S
H872 N866 0.984 . S
H873 N866 0.984 . S
H874 N862 0.984 . S
H875 N862 0.985 . S
C876 C877 1.363 . S
C876 C882 1.379 1_554 S
C876 N884 1.356 . S
C877 C876 1.363 . S
C877 C883 1.363 . S
C878 C879 1.363 . S
C878 C883 1.379 1_556 S
C878 N885 1.356 . S
C879 C878 1.363 . S
C879 C882 1.363 . S
N880 C882 1.356 . S
N880 H892 0.984 . S
N880 H893 0.985 . S
N881 C883 1.356 . S
N881 H886 0.984 . S
N881 H887 0.985 . S
C882 C876 1.379 1_556 S
C882 C879 1.363 . S
C882 N880 1.356 . S
C883 C877 1.363 . S
C883 C878 1.379 1_554 S
C883 N881 1.356 . S
N884 C876 1.356 . S
N884 H890 0.984 . S
N884 H891 0.984 . S
N885 C878 1.356 . S
N885 H888 0.984 . S
N885 H889 0.985 . S
H886 N881 0.984 . S
H887 N881 0.985 . S
H888 N885 0.984 . S
H889 N885 0.985 . S
H890 N884 0.984 . S
H891 N884 0.984 . S
H892 N880 0.984 . S
H893 N880 0.985 . S
C894 C895 1.363 1_556 S
C894 C900 1.379 . S
C894 N902 1.356 . S
C895 C894 1.363 1_554 S
C895 C901 1.363 . S
C896 C897 1.363 1_554 S
C896 C901 1.379 . S
C896 N903 1.356 . S
C897 C896 1.363 1_556 S
C897 C900 1.363 . S
N898 C900 1.356 . S
N898 H910 0.984 . S
N898 H911 0.985 . S
N899 C901 1.356 . S
N899 H904 0.984 . S
N899 H905 0.985 . S
C900 C894 1.379 . S
C900 C897 1.363 . S
C900 N898 1.356 . S
C901 C895 1.363 . S
C901 C896 1.379 . S
C901 N899 1.356 . S
N902 C894 1.356 . S
N902 H908 0.984 . S
N902 H909 0.984 . S
N903 C896 1.356 . S
N903 H906 0.984 . S
N903 H907 0.985 . S
H904 N899 0.984 . S
H905 N899 0.985 . S
H906 N903 0.984 . S
H907 N903 0.985 . S
H908 N902 0.984 . S
H909 N902 0.984 . S
H910 N898 0.984 . S
H911 N898 0.985 . S
C912 C913 1.363 . S
C912 C918 1.379 . S
C912 N920 1.356 . S
C913 C912 1.363 . S
C913 C919 1.363 . S
C914 C915 1.363 . S
C914 C919 1.379 . S
C914 N921 1.356 . S
C915 C914 1.363 . S
C915 C918 1.363 . S
N916 C918 1.356 . S
N916 H928 0.984 1_455 S
N916 H929 0.985 . S
N917 C919 1.356 . S
N917 H922 0.984 . S
N917 H923 0.985 . S
C918 C912 1.379 . S
C918 C915 1.363 . S
C918 N916 1.356 . S
C919 C913 1.363 . S
C919 C914 1.379 . S
C919 N917 1.356 . S
N920 C912 1.356 . S
N920 H926 0.984 1_455 S
N920 H927 0.984 . S
N921 C914 1.356 . S
N921 H924 0.984 . S
N921 H925 0.985 . S
H922 N917 0.984 . S
H923 N917 0.985 . S
H924 N921 0.984 . S
H925 N921 0.985 . S
H926 N920 0.984 1_655 S
H927 N920 0.984 . S
H928 N916 0.984 1_655 S
H929 N916 0.985 . S
C930 C931 1.363 . S
C930 C936 1.379 . S
C930 N938 1.356 . S
C931 C930 1.363 . S
C931 C937 1.363 . S
C932 C933 1.363 . S
C932 C937 1.379 . S
C932 N939 1.356 1_545 S
C933 C932 1.363 . S
C933 C936 1.363 . S
N934 C936 1.356 . S
N934 H946 0.984 . S
N934 H947 0.985 . S
N935 C937 1.356 1_565 S
N935 H940 0.984 1_565 S
N935 H941 0.985 . S
C936 C930 1.379 . S
C936 C933 1.363 . S
C936 N934 1.356 . S
C937 C931 1.363 . S
C937 C932 1.379 . S
C937 N935 1.356 1_545 S
N938 C930 1.356 . S
N938 H944 0.984 . S
N938 H945 0.984 . S
N939 C932 1.356 1_565 S
N939 H942 0.984 . S
N939 H943 0.985 . S
H940 N935 0.984 1_545 S
H941 N935 0.985 . S
H942 N939 0.984 . S
H943 N939 0.985 . S
H944 N938 0.984 . S
H945 N938 0.984 . S
H946 N934 0.984 . S
H947 N934 0.985 . S
C948 C949 1.363 . S
C948 C954 1.379 . S
C948 N956 1.356 . S
C949 C948 1.363 . S
C949 C955 1.363 . S
C950 C951 1.363 . S
C950 C955 1.379 . S
C950 N957 1.356 . S
C951 C950 1.363 . S
C951 C954 1.363 . S
N952 C954 1.356 . S
N952 H964 0.984 . S
N952 H965 0.985 . S
N953 C955 1.356 . S
N953 H958 0.984 . S
N953 H959 0.985 . S
C954 C948 1.379 . S
C954 C951 1.363 . S
C954 N952 1.356 . S
C955 C949 1.363 . S
C955 C950 1.379 . S
C955 N953 1.356 . S
N956 C948 1.356 . S
N956 H962 0.984 . S
N956 H963 0.984 . S
N957 C950 1.356 . S
N957 H960 0.984 . S
N957 H961 0.985 . S
H958 N953 0.984 . S
H959 N953 0.985 . S
H960 N957 0.984 . S
H961 N957 0.985 . S
H962 N956 0.984 . S
H963 N956 0.984 . S
H964 N952 0.984 . S
H965 N952 0.985 . S
C966 C967 1.363 . S
C966 C972 1.379 . S
C966 N974 1.356 . S
C967 C966 1.363 . S
C967 C973 1.363 . S
C968 C969 1.363 . S
C968 C973 1.379 . S
C968 N975 1.356 . S
C969 C968 1.363 . S
C969 C972 1.363 . S
N970 C972 1.356 . S
N970 H982 0.984 . S
N970 H983 0.985 . S
N971 C973 1.356 . S
N971 H976 0.984 . S
N971 H977 0.985 . S
C972 C966 1.379 . S
C972 C969 1.363 . S
C972 N970 1.356 . S
C973 C967 1.363 . S
C973 C968 1.379 . S
C973 N971 1.356 . S
N974 C966 1.356 . S
N974 H980 0.984 . S
N974 H981 0.984 . S
N975 C968 1.356 . S
N975 H978 0.984 . S
N975 H979 0.985 . S
H976 N971 0.984 . S
H977 N971 0.985 . S
H978 N975 0.984 . S
H979 N975 0.985 . S
H980 N974 0.984 . S
H981 N974 0.984 . S
H982 N970 0.984 . S
H983 N970 0.985 . S
C984 C985 1.363 . S
C984 C990 1.379 . S
C984 N992 1.356 1_655 S
C985 C984 1.363 . S
C985 C991 1.363 . S
C986 C987 1.363 . S
C986 C991 1.379 . S
C986 N993 1.356 . S
C987 C986 1.363 . S
C987 C990 1.363 . S
N988 C990 1.356 1_455 S
N988 H1000 0.984 . S
N988 H1001 0.985 . S
N989 C991 1.356 . S
N989 H994 0.984 . S
N989 H995 0.985 . S
C990 C984 1.379 . S
C990 C987 1.363 . S
C990 N988 1.356 1_655 S
C991 C985 1.363 . S
C991 C986 1.379 . S
C991 N989 1.356 . S
N992 C984 1.356 1_455 S
N992 H998 0.984 . S
N992 H999 0.980 1_455 S
N993 C986 1.356 . S
N993 H996 0.984 . S
N993 H997 0.985 . S
H994 N989 0.984 . S
H995 N989 0.985 . S
H996 N993 0.984 . S
H997 N993 0.985 . S
H998 N992 0.984 . S
H999 N992 0.980 1_655 S
H1000 N988 0.984 . S
H1001 N988 0.985 . S
C1002 C1003 1.363 . S
C1002 C1008 1.379 . S
C1002 N1010 1.356 . S
C1003 C1002 1.363 . S
C1003 C1009 1.363 1_565 S
C1004 C1005 1.363 1_545 S
C1004 C1009 1.379 . S
C1004 N1011 1.356 . S
C1005 C1004 1.363 1_565 S
C1005 C1008 1.363 . S
N1006 C1008 1.356 . S
N1006 H1018 0.984 . S
N1006 H1019 0.985 . S
N1007 C1009 1.356 . S
N1007 H1012 0.984 . S
N1007 H1013 0.985 . S
C1008 C1002 1.379 . S
C1008 C1005 1.363 . S
C1008 N1006 1.356 . S
C1009 C1003 1.363 1_545 S
C1009 C1004 1.379 . S
C1009 N1007 1.356 . S
N1010 C1002 1.356 . S
N1010 H1016 0.984 . S
N1010 H1017 0.984 . S
N1011 C1004 1.356 . S
N1011 H1014 0.984 . S
N1011 H1015 0.985 . S
H1012 N1007 0.984 . S
H1013 N1007 0.985 . S
H1014 N1011 0.984 . S
H1015 N1011 0.985 . S
H1016 N1010 0.984 . S
H1017 N1010 0.984 . S
H1018 N1006 0.984 . S
H1019 N1006 0.985 . S
C1020 C1021 1.363 . S
C1020 C1026 1.379 . S
C1020 N1028 1.356 . S
C1021 C1020 1.363 . S
C1021 C1027 1.363 . S
C1022 C1023 1.363 . S
C1022 C1027 1.379 . S
C1022 N1029 1.356 . S
C1023 C1022 1.363 . S
C1023 C1026 1.363 . S
N1024 C1026 1.356 . S
N1024 H1036 0.984 . S
N1024 H1037 0.985 . S
N1025 C1027 1.356 . S
N1025 H1030 0.984 . S
N1025 H1031 0.985 . S
C1026 C1020 1.379 . S
C1026 C1023 1.363 . S
C1026 N1024 1.356 . S
C1027 C1021 1.363 . S
C1027 C1022 1.379 . S
C1027 N1025 1.356 . S
N1028 C1020 1.356 . S
N1028 H1034 0.984 . S
N1028 H1035 0.984 . S
N1029 C1022 1.356 . S
N1029 H1032 0.984 . S
N1029 H1033 0.985 . S
H1030 N1025 0.984 . S
H1031 N1025 0.985 . S
H1032 N1029 0.984 . S
H1033 N1029 0.985 . S
H1034 N1028 0.984 . S
H1035 N1028 0.984 . S
H1036 N1024 0.984 . S
H1037 N1024 0.985 . S
C1038 C1039 1.363 . S
C1038 C1044 1.379 . S
C1038 N1046 1.356 . S
C1039 C1038 1.363 . S
C1039 C1045 1.363 . S
C1040 C1041 1.363 . S
C1040 C1045 1.379 . S
C1040 N1047 1.356 . S
C1041 C1040 1.363 . S
C1041 C1044 1.363 . S
N1042 C1044 1.356 . S
N1042 H1054 0.984 . S
N1042 H1055 0.985 . S
N1043 C1045 1.356 . S
N1043 H1048 0.984 . S
N1043 H1049 0.985 . S
C1044 C1038 1.379 . S
C1044 C1041 1.363 . S
C1044 N1042 1.356 . S
C1045 C1039 1.363 . S
C1045 C1040 1.379 . S
C1045 N1043 1.356 . S
N1046 C1038 1.356 . S
N1046 H1052 0.984 . S
N1046 H1053 0.984 . S
N1047 C1040 1.356 . S
N1047 H1050 0.984 . S
N1047 H1051 0.985 . S
H1048 N1043 0.984 . S
H1049 N1043 0.985 . S
H1050 N1047 0.984 . S
H1051 N1047 0.985 . S
H1052 N1046 0.984 . S
H1053 N1046 0.984 . S
H1054 N1042 0.984 . S
H1055 N1042 0.985 . S
C625 C241 2.527 . S
C627 C351 2.822 . S
C645 C428 2.840 . S
C643 C277 2.602 . S
C663 C519 2.828 . S
C661 C169 2.530 . S
C681 C603 2.814 . S
C679 C205 2.521 . S
C699 C362 2.822 1_565 S
C697 C97 2.498 . S
C715 C133 2.630 . S
C717 C439 2.840 . S
C733 C25 2.503 . S
C735 C530 2.828 . S
C751 C61 2.492 . S
C753 C614 2.814 1_655 S
C771 C346 0.772 . S
C769 C211 0.768 . S
C789 C441 0.765 . S
C787 C247 0.763 . S
C807 C514 0.781 . S
C805 C253 0.770 . S
C823 C175 0.763 . S
C825 C598 0.766 . S
C841 C67 0.764 . S
C843 C357 0.772 . S
C861 C430 0.765 . S
C859 C103 0.760 . S
C879 C525 0.780 . S
C877 C109 0.775 . S
C895 C31 0.760 . S
C897 C609 0.766 . S
C913 C181 2.927 . S
C915 C355 3.288 . S
C931 C217 2.927 . S
C933 C446 3.385 . S
C951 C523 3.308 . S
C949 C283 2.848 . S
C969 C607 3.300 . S
C967 C145 2.938 . S
C985 C37 2.915 . S
C987 C344 3.288 . S
C1005 C435 3.385 . S
C1003 C73 2.914 . S
C1023 C512 3.307 . S
C1021 C139 2.864 . S
C1039 C1 2.927 . S
C1041 C596 3.300 . S
