# Generated by pormake.
# Topology eea, (3,6)-cn, num edge types: 1
# Building blocks:
#     Node 0, Type 0, BuildingBlock: CUQRIR_clean_linker_1, # of connection points: 3
#     Node 1, Type 0, BuildingBlock: CUQRIR_clean_linker_1, # of connection points: 3
#     Node 2, Type 0, BuildingBlock: CUQRIR_clean_linker_1, # of connection points: 3
#     Node 3, Type 0, BuildingBlock: CUQRIR_clean_linker_1, # of connection points: 3
#     Node 4, Type 0, BuildingBlock: CUQRIR_clean_linker_1, # of connection points: 3
#     Node 5, Type 0, BuildingBlock: CUQRIR_clean_linker_1, # of connection points: 3
#     Node 6, Type 0, BuildingBlock: CUQRIR_clean_linker_1, # of connection points: 3
#     Node 7, Type 0, BuildingBlock: CUQRIR_clean_linker_1, # of connection points: 3
#     Node 8, Type 0, BuildingBlock: CUQRIR_clean_linker_1, # of connection points: 3
#     Node 9, Type 0, BuildingBlock: CUQRIR_clean_linker_1, # of connection points: 3
#     Node 10, Type 0, BuildingBlock: CUQRIR_clean_linker_1, # of connection points: 3
#     Node 11, Type 0, BuildingBlock: CUQRIR_clean_linker_1, # of connection points: 3
#     Node 12, Type 0, BuildingBlock: CUQRIR_clean_linker_1, # of connection points: 3
#     Node 13, Type 0, BuildingBlock: CUQRIR_clean_linker_1, # of connection points: 3
#     Node 14, Type 0, BuildingBlock: CUQRIR_clean_linker_1, # of connection points: 3
#     Node 15, Type 0, BuildingBlock: CUQRIR_clean_linker_1, # of connection points: 3
#     Node 16, Type 0, BuildingBlock: CUQRIR_clean_linker_1, # of connection points: 3
#     Node 17, Type 0, BuildingBlock: CUQRIR_clean_linker_1, # of connection points: 3
#     Node 18, Type 1, BuildingBlock: KUMBOL_clean_sbu_0, # of connection points: 6
#     Node 19, Type 1, BuildingBlock: KUMBOL_clean_sbu_0, # of connection points: 6
#     Node 20, Type 1, BuildingBlock: KUMBOL_clean_sbu_0, # of connection points: 6
#     Node 21, Type 1, BuildingBlock: KUMBOL_clean_sbu_0, # of connection points: 6
#     Node 22, Type 1, BuildingBlock: KUMBOL_clean_sbu_0, # of connection points: 6
#     Node 23, Type 1, BuildingBlock: KUMBOL_clean_sbu_0, # of connection points: 6
#     Node 24, Type 1, BuildingBlock: KUMBOL_clean_sbu_0, # of connection points: 6
#     Node 25, Type 1, BuildingBlock: KUMBOL_clean_sbu_0, # of connection points: 6
#     Node 26, Type 1, BuildingBlock: KUMBOL_clean_sbu_0, # of connection points: 6
#     Edge 27, Type (0, 1), BuildingBlock: UVAHIK_clean_linker_0, # of connection points: 2
#     Edge 28, Type (0, 1), BuildingBlock: UVAHIK_clean_linker_0, # of connection points: 2
#     Edge 29, Type (0, 1), BuildingBlock: UVAHIK_clean_linker_0, # of connection points: 2
#     Edge 30, Type (0, 1), BuildingBlock: UVAHIK_clean_linker_0, # of connection points: 2
#     Edge 31, Type (0, 1), BuildingBlock: UVAHIK_clean_linker_0, # of connection points: 2
#     Edge 32, Type (0, 1), BuildingBlock: UVAHIK_clean_linker_0, # of connection points: 2
#     Edge 33, Type (0, 1), BuildingBlock: UVAHIK_clean_linker_0, # of connection points: 2
#     Edge 34, Type (0, 1), BuildingBlock: UVAHIK_clean_linker_0, # of connection points: 2
#     Edge 35, Type (0, 1), BuildingBlock: UVAHIK_clean_linker_0, # of connection points: 2
#     Edge 36, Type (0, 1), BuildingBlock: UVAHIK_clean_linker_0, # of connection points: 2
#     Edge 37, Type (0, 1), BuildingBlock: UVAHIK_clean_linker_0, # of connection points: 2
#     Edge 38, Type (0, 1), BuildingBlock: UVAHIK_clean_linker_0, # of connection points: 2
#     Edge 39, Type (0, 1), BuildingBlock: UVAHIK_clean_linker_0, # of connection points: 2
#     Edge 40, Type (0, 1), BuildingBlock: UVAHIK_clean_linker_0, # of connection points: 2
#     Edge 41, Type (0, 1), BuildingBlock: UVAHIK_clean_linker_0, # of connection points: 2
#     Edge 42, Type (0, 1), BuildingBlock: UVAHIK_clean_linker_0, # of connection points: 2
#     Edge 43, Type (0, 1), BuildingBlock: UVAHIK_clean_linker_0, # of connection points: 2
#     Edge 44, Type (0, 1), BuildingBlock: UVAHIK_clean_linker_0, # of connection points: 2
#     Edge 45, Type (0, 1), BuildingBlock: UVAHIK_clean_linker_0, # of connection points: 2
#     Edge 46, Type (0, 1), BuildingBlock: UVAHIK_clean_linker_0, # of connection points: 2
#     Edge 47, Type (0, 1), BuildingBlock: UVAHIK_clean_linker_0, # of connection points: 2
#     Edge 48, Type (0, 1), BuildingBlock: UVAHIK_clean_linker_0, # of connection points: 2
#     Edge 49, Type (0, 1), BuildingBlock: UVAHIK_clean_linker_0, # of connection points: 2
#     Edge 50, Type (0, 1), BuildingBlock: UVAHIK_clean_linker_0, # of connection points: 2
#     Edge 51, Type (0, 1), BuildingBlock: UVAHIK_clean_linker_0, # of connection points: 2
#     Edge 52, Type (0, 1), BuildingBlock: UVAHIK_clean_linker_0, # of connection points: 2
#     Edge 53, Type (0, 1), BuildingBlock: UVAHIK_clean_linker_0, # of connection points: 2
#     Edge 54, Type (0, 1), BuildingBlock: UVAHIK_clean_linker_0, # of connection points: 2
#     Edge 55, Type (0, 1), BuildingBlock: UVAHIK_clean_linker_0, # of connection points: 2
#     Edge 56, Type (0, 1), BuildingBlock: UVAHIK_clean_linker_0, # of connection points: 2
#     Edge 57, Type (0, 1), BuildingBlock: UVAHIK_clean_linker_0, # of connection points: 2
#     Edge 58, Type (0, 1), BuildingBlock: UVAHIK_clean_linker_0, # of connection points: 2
#     Edge 59, Type (0, 1), BuildingBlock: UVAHIK_clean_linker_0, # of connection points: 2
#     Edge 60, Type (0, 1), BuildingBlock: UVAHIK_clean_linker_0, # of connection points: 2
#     Edge 61, Type (0, 1), BuildingBlock: UVAHIK_clean_linker_0, # of connection points: 2
#     Edge 62, Type (0, 1), BuildingBlock: UVAHIK_clean_linker_0, # of connection points: 2
#     Edge 63, Type (0, 1), BuildingBlock: UVAHIK_clean_linker_0, # of connection points: 2
#     Edge 64, Type (0, 1), BuildingBlock: UVAHIK_clean_linker_0, # of connection points: 2
#     Edge 65, Type (0, 1), BuildingBlock: UVAHIK_clean_linker_0, # of connection points: 2
#     Edge 66, Type (0, 1), BuildingBlock: UVAHIK_clean_linker_0, # of connection points: 2
#     Edge 67, Type (0, 1), BuildingBlock: UVAHIK_clean_linker_0, # of connection points: 2
#     Edge 68, Type (0, 1), BuildingBlock: UVAHIK_clean_linker_0, # of connection points: 2
#     Edge 69, Type (0, 1), BuildingBlock: UVAHIK_clean_linker_0, # of connection points: 2
#     Edge 70, Type (0, 1), BuildingBlock: UVAHIK_clean_linker_0, # of connection points: 2
#     Edge 71, Type (0, 1), BuildingBlock: UVAHIK_clean_linker_0, # of connection points: 2
#     Edge 72, Type (0, 1), BuildingBlock: UVAHIK_clean_linker_0, # of connection points: 2
#     Edge 73, Type (0, 1), BuildingBlock: UVAHIK_clean_linker_0, # of connection points: 2
#     Edge 74, Type (0, 1), BuildingBlock: UVAHIK_clean_linker_0, # of connection points: 2
#     Edge 75, Type (0, 1), BuildingBlock: UVAHIK_clean_linker_0, # of connection points: 2
#     Edge 76, Type (0, 1), BuildingBlock: UVAHIK_clean_linker_0, # of connection points: 2
#     Edge 77, Type (0, 1), BuildingBlock: UVAHIK_clean_linker_0, # of connection points: 2
#     Edge 78, Type (0, 1), BuildingBlock: UVAHIK_clean_linker_0, # of connection points: 2
#     Edge 79, Type (0, 1), BuildingBlock: UVAHIK_clean_linker_0, # of connection points: 2
#     Edge 80, Type (0, 1), BuildingBlock: UVAHIK_clean_linker_0, # of connection points: 2
# Relax obj value: 0.039
# Max RMSD: 0.194
# Mean RMSD: 0.139
data_MOF--net-eea--node1-KUMBOL_clean_sbu_0--node2-CUQRIR_clean_linker_1--edge1-UVAHIK_clean_linker_0
_symmetry_space_group_name_H-M    P1
_symmetry_Int_Tables_number       1
_symmetry_cell_setting            triclinic
loop_
_symmetry_equiv_pos_as_xyz
'x, y, z'
_cell_length_a     63.496446
_cell_length_b     68.010836
_cell_length_c     79.38849
_cell_angle_alpha  83.088156
_cell_angle_beta   90.092016
_cell_angle_gamma 118.5022
loop_
_atom_site_label
_atom_site_type_symbol
_atom_site_fract_x
_atom_site_fract_y
_atom_site_fract_z
_atom_type_partial_charge
C0 C 0.2204 0.10098 0.41134 0.0
N1 N 0.22734 0.11785 0.42112 0.0
N2 N 0.22528 0.08462 0.41859 0.0
C3 C 0.21112 0.10156 0.39393 0.0
C4 C 0.23556 0.09222 0.43309 0.0
N5 N 0.23704 0.11246 0.43454 0.0
C6 C 0.24244 0.07908 0.44652 0.0
H7 H 0.19124 0.09346 0.39514 0.0
H8 H 0.21629 0.09222 0.38576 0.0
H9 H 0.21818 0.1192 0.38767 0.0
H10 H 0.26148 0.08358 0.44392 0.0
H11 H 0.23112 0.06063 0.44646 0.0
H12 H 0.24056 0.08324 0.45933 0.0
C13 C 0.90495 0.11321 0.41173 0.0
N14 N 0.91485 0.12999 0.42167 0.0
N15 N 0.88259 0.09737 0.41813 0.0
C16 C 0.9165 0.11271 0.39536 0.0
C17 C 0.87922 0.1052 0.43224 0.0
N18 N 0.89869 0.12502 0.43434 0.0
C19 C 0.85678 0.09341 0.44395 0.0
H20 H 0.91242 0.12244 0.38485 0.0
H21 H 0.90938 0.09514 0.39255 0.0
H22 H 0.93625 0.12051 0.39569 0.0
H23 H 0.85855 0.08127 0.45372 0.0
H24 H 0.84078 0.08391 0.43681 0.0
H25 H 0.85389 0.10541 0.4506 0.0
C26 C 0.93207 0.86161 0.41771 0.0
N27 N 0.94103 0.85141 0.42899 0.0
N28 N 0.91124 0.85946 0.4241 0.0
C29 C 0.94107 0.86968 0.39933 0.0
C30 C 0.90804 0.84777 0.43977 0.0
N31 N 0.92588 0.84255 0.44268 0.0
C32 C 0.88584 0.83918 0.45136 0.0
H33 H 0.93193 0.87851 0.39269 0.0
H34 H 0.93786 0.85498 0.39287 0.0
H35 H 0.96069 0.88135 0.3984 0.0
H36 H 0.87189 0.82277 0.44796 0.0
H37 H 0.87858 0.85121 0.44977 0.0
H38 H 0.88979 0.83667 0.46483 0.0
C39 C 0.07508 0.15016 0.62277 0.0
N40 N 0.09383 0.15945 0.61101 0.0
N41 N 0.05661 0.15305 0.61686 0.0
C42 C 0.07656 0.14236 0.64109 0.0
C43 C 0.06481 0.16431 0.60102 0.0
N44 N 0.08748 0.16842 0.5975 0.0
C45 C 0.05156 0.17355 0.58983 0.0
H46 H 0.05866 0.13383 0.64808 0.0
H47 H 0.08885 0.15717 0.64728 0.0
H48 H 0.08404 0.13053 0.64189 0.0
H49 H 0.05568 0.19038 0.59309 0.0
H50 H 0.03188 0.16228 0.59199 0.0
H51 H 0.0571 0.17542 0.57623 0.0
C52 C 0.79239 0.90519 0.62675 0.0
N53 N 0.78546 0.88843 0.61688 0.0
N54 N 0.78825 0.92195 0.61935 0.0
C55 C 0.80486 0.90602 0.64299 0.0
C56 C 0.77866 0.91484 0.60456 0.0
N57 N 0.77716 0.89461 0.603 0.0
C58 C 0.76978 0.92718 0.59198 0.0
H59 H 0.79121 0.89779 0.65385 0.0
H60 H 0.81702 0.92374 0.645 0.0
H61 H 0.81541 0.8969 0.6428 0.0
H62 H 0.78496 0.93942 0.58293 0.0
H63 H 0.76286 0.93665 0.59854 0.0
H64 H 0.75544 0.91546 0.58458 0.0
C65 C 0.11465 0.91425 0.63112 0.0
N66 N 0.10569 0.8966 0.62194 0.0
N67 N 0.13684 0.93036 0.62463 0.0
C68 C 0.10187 0.91566 0.6465 0.0
C69 C 0.14117 0.9218 0.61131 0.0
N70 N 0.12241 0.90127 0.60976 0.0
C71 C 0.16391 0.93321 0.59993 0.0
H72 H 0.08896 0.92158 0.64224 0.0
H73 H 0.1145 0.92773 0.65459 0.0
H74 H 0.09169 0.89879 0.65417 0.0
H75 H 0.17483 0.95135 0.60114 0.0
H76 H 0.15958 0.93133 0.58647 0.0
H77 H 0.17495 0.92487 0.6034 0.0
C78 C 0.88495 0.43435 0.74521 0.0
N79 N 0.8929 0.45151 0.75481 0.0
N80 N 0.89165 0.41886 0.75142 0.0
C81 C 0.8726 0.43366 0.72893 0.0
C82 C 0.90401 0.42717 0.76506 0.0
N83 N 0.90499 0.44708 0.76704 0.0
C84 C 0.91362 0.415 0.77715 0.0
H85 H 0.85293 0.42526 0.73191 0.0
H86 H 0.87636 0.42391 0.72027 0.0
H87 H 0.87849 0.45096 0.72234 0.0
H88 H 0.93258 0.42067 0.77307 0.0
H89 H 0.90318 0.39647 0.77716 0.0
H90 H 0.91305 0.41884 0.79028 0.0
C91 C 0.57091 0.44664 0.74617 0.0
N92 N 0.58097 0.46352 0.75601 0.0
N93 N 0.5486 0.43087 0.75271 0.0
C94 C 0.58226 0.44598 0.72976 0.0
C95 C 0.54542 0.43883 0.7668 0.0
N96 N 0.56496 0.45868 0.76875 0.0
C97 C 0.52316 0.42709 0.77867 0.0
H98 H 0.57825 0.45579 0.71927 0.0
H99 H 0.57495 0.42839 0.72696 0.0
H100 H 0.602 0.45361 0.73004 0.0
H101 H 0.52511 0.41503 0.78843 0.0
H102 H 0.50704 0.41748 0.77167 0.0
H103 H 0.52035 0.43912 0.78533 0.0
C104 C 0.60003 0.19839 0.75171 0.0
N105 N 0.60862 0.1883 0.76339 0.0
N106 N 0.57855 0.19558 0.75736 0.0
C107 C 0.61022 0.20709 0.73361 0.0
C108 C 0.57455 0.18354 0.77296 0.0
N109 N 0.59258 0.17879 0.77656 0.0
C110 C 0.55156 0.17428 0.7838 0.0
H111 H 0.60107 0.21563 0.72657 0.0
H112 H 0.60812 0.19275 0.7271 0.0
H113 H 0.62968 0.21917 0.73336 0.0
H114 H 0.53817 0.15802 0.77983 0.0
H115 H 0.5441 0.18614 0.78201 0.0
H116 H 0.55457 0.17132 0.79743 0.0
C117 C 0.74255 0.48807 0.95955 0.0
N118 N 0.76091 0.49455 0.94791 0.0
N119 N 0.72393 0.48935 0.95226 0.0
C120 C 0.74416 0.48393 0.97843 0.0
C121 C 0.73161 0.49666 0.93566 0.0
N122 N 0.7541 0.49979 0.93298 0.0
C123 C 0.71882 0.50441 0.92275 0.0
H124 H 0.72618 0.472 0.98472 0.0
H125 H 0.75092 0.50016 0.98366 0.0
H126 H 0.75672 0.4771 0.98134 0.0
H127 H 0.72883 0.5231 0.91987 0.0
H128 H 0.70015 0.49903 0.92742 0.0
H129 H 0.71835 0.49741 0.91075 0.0
C130 C 0.459 0.2387 0.96126 0.0
N131 N 0.4527 0.22231 0.95108 0.0
N132 N 0.45519 0.25565 0.95378 0.0
C133 C 0.46899 0.2384 0.97845 0.0
C134 C 0.44648 0.24901 0.93869 0.0
N135 N 0.44506 0.22886 0.93702 0.0
C136 C 0.43975 0.26236 0.92536 0.0
H137 H 0.46129 0.24505 0.98735 0.0
H138 H 0.48871 0.24958 0.97712 0.0
H139 H 0.46561 0.22137 0.984 0.0
H140 H 0.45014 0.28071 0.9262 0.0
H141 H 0.42034 0.25688 0.92733 0.0
H142 H 0.44297 0.25925 0.91245 0.0
C143 C 0.7838 0.24682 0.96441 0.0
N144 N 0.77427 0.22952 0.9549 0.0
N145 N 0.8061 0.26269 0.95796 0.0
C146 C 0.77236 0.24736 0.9808 0.0
C147 C 0.80983 0.25445 0.94424 0.0
N148 N 0.79068 0.23425 0.94244 0.0
C149 C 0.83162 0.26685 0.93197 0.0
H150 H 0.76047 0.25493 0.97791 0.0
H151 H 0.78615 0.25777 0.98919 0.0
H152 H 0.76137 0.23005 0.98764 0.0
H153 H 0.84499 0.26131 0.9358 0.0
H154 H 0.83999 0.28536 0.93205 0.0
H155 H 0.82685 0.26306 0.91886 0.0
C156 C 0.55363 0.76945 0.07713 0.0
N157 N 0.55949 0.78535 0.08767 0.0
N158 N 0.55479 0.75122 0.08505 0.0
C159 C 0.54498 0.77092 0.05961 0.0
C160 C 0.56152 0.75658 0.10078 0.0
N161 N 0.5641 0.77719 0.10245 0.0
C162 C 0.56754 0.74249 0.11397 0.0
H163 H 0.53523 0.78084 0.05874 0.0
H164 H 0.533 0.75386 0.0562 0.0
H165 H 0.56072 0.77953 0.05027 0.0
H166 H 0.5731 0.73163 0.10796 0.0
H167 H 0.55142 0.73146 0.12265 0.0
H168 H 0.5822 0.75335 0.12162 0.0
C169 C 0.23716 0.78209 0.07823 0.0
N170 N 0.24754 0.79832 0.08855 0.0
N171 N 0.21556 0.76539 0.08525 0.0
C172 C 0.24804 0.78248 0.06129 0.0
C173 C 0.21325 0.7721 0.10022 0.0
N174 N 0.23263 0.79201 0.10227 0.0
C175 C 0.19142 0.75989 0.11246 0.0
H176 H 0.24174 0.79085 0.05121 0.0
H177 H 0.24234 0.76506 0.0586 0.0
H178 H 0.2679 0.79206 0.06069 0.0
H179 H 0.194 0.74805 0.12203 0.0
H180 H 0.17505 0.75009 0.10576 0.0
H181 H 0.18877 0.77195 0.11928 0.0
C182 C 0.2674 0.53053 0.08658 0.0
N183 N 0.27603 0.52018 0.098 0.0
N184 N 0.24653 0.52855 0.09275 0.0
C185 C 0.27666 0.5385 0.06824 0.0
C186 C 0.24304 0.51688 0.10846 0.0
N187 N 0.26067 0.51143 0.11158 0.0
C188 C 0.22064 0.50839 0.11981 0.0
H189 H 0.26781 0.54754 0.06149 0.0
H190 H 0.27329 0.52372 0.06183 0.0
H191 H 0.29632 0.54995 0.06742 0.0
H192 H 0.20663 0.49214 0.11623 0.0
H193 H 0.21365 0.52062 0.11817 0.0
H194 H 0.22425 0.50564 0.13334 0.0
C195 C 0.40927 0.81608 0.29138 0.0
N196 N 0.42659 0.82623 0.27856 0.0
N197 N 0.38949 0.81776 0.28716 0.0
C198 C 0.41327 0.80835 0.30909 0.0
C199 C 0.39543 0.82923 0.27125 0.0
N200 N 0.41806 0.83467 0.26608 0.0
C201 C 0.38004 0.83749 0.26171 0.0
H202 H 0.39627 0.79945 0.3172 0.0
H203 H 0.42633 0.82322 0.31488 0.0
H204 H 0.42101 0.79684 0.30862 0.0
H205 H 0.38314 0.85357 0.26594 0.0
H206 H 0.36076 0.82502 0.26451 0.0
H207 H 0.3845 0.84045 0.24781 0.0
C208 C 0.1222 0.56893 0.29627 0.0
N209 N 0.11654 0.55308 0.28568 0.0
N210 N 0.11907 0.58632 0.28889 0.0
C211 C 0.13308 0.5686 0.3131 0.0
C212 C 0.1115 0.58058 0.27338 0.0
N213 N 0.11027 0.56058 0.27133 0.0
C214 C 0.10347 0.5936 0.26072 0.0
H215 H 0.11849 0.55978 0.32331 0.0
H216 H 0.14492 0.58601 0.31592 0.0
H217 H 0.14368 0.55951 0.31318 0.0
H218 H 0.11893 0.60557 0.25177 0.0
H219 H 0.09683 0.60335 0.26719 0.0
H220 H 0.08902 0.58209 0.25325 0.0
C221 C 0.44858 0.58028 0.29715 0.0
N222 N 0.43968 0.56267 0.28795 0.0
N223 N 0.47081 0.59639 0.29074 0.0
C224 C 0.43566 0.58169 0.31246 0.0
C225 C 0.47523 0.58785 0.27744 0.0
N226 N 0.45648 0.56734 0.27582 0.0
C227 C 0.49804 0.59928 0.26613 0.0
H228 H 0.42277 0.5876 0.30812 0.0
H229 H 0.44819 0.59375 0.32059 0.0
H230 H 0.42544 0.56481 0.32013 0.0
H231 H 0.50892 0.59074 0.26948 0.0
H232 H 0.50909 0.61735 0.26752 0.0
H233 H 0.49375 0.59766 0.25264 0.0
Gd234 Gd 0.52309 0.02069 0.04057 0.0
Gd235 Gd 0.50483 0.99683 1.00026 0.0
C236 C 0.43346 0.93371 0.99639 0.0
C237 C 0.4464 0.90649 0.99118 0.0
C238 C 0.47588 0.94507 0.99425 0.0
C239 C 0.45767 0.95024 0.99689 0.0
C240 C 0.4705 0.92328 0.991 0.0
C241 C 0.42792 0.91169 0.9939 0.0
C242 C 0.41559 0.93997 0.99796 0.0
C243 C 0.42213 0.9624 0.99934 0.0
N244 N 0.46366 0.97172 0.99912 0.0
C245 C 0.4464 0.97822 0.99967 0.0
H246 H 0.45116 0.99546 1.00086 0.0
C247 C 0.51751 0.95818 0.98955 0.0
N248 N 0.49894 0.96169 0.99408 0.0
C249 C 0.51309 0.93682 0.98631 0.0
C250 C 0.48949 0.91921 0.98724 0.0
H251 H 0.53579 0.97172 0.9889 0.0
H252 H 0.40942 0.89872 0.99363 0.0
H253 H 0.57633 0.02098 0.03882 0.0
H254 H 0.39678 0.92776 0.99771 0.0
H255 H 0.40848 0.96752 1.00025 0.0
H256 H 0.44189 0.88959 0.98887 0.0
H257 H 0.49463 0.046 0.05546 0.0
H258 H 0.63234 0.08827 0.04077 0.0
H259 H 0.61928 0.04819 0.03839 0.0
H260 H 0.58951 0.12777 0.05209 0.0
H261 H 0.52787 0.93394 0.98312 0.0
H262 H 0.48611 0.90269 0.98468 0.0
H263 H 0.62104 0.11801 0.04558 0.0
H264 H 0.50379 0.08387 0.06191 0.0
N265 N 0.56474 0.04533 0.04095 0.0
C266 C 0.61336 0.07635 0.04099 0.0
C267 C 0.60606 0.05374 0.03969 0.0
C268 C 0.59603 0.08312 0.04319 0.0
C269 C 0.57157 0.06693 0.0433 0.0
C270 C 0.58156 0.03832 0.03996 0.0
N271 N 0.53082 0.05591 0.04799 0.0
C272 C 0.55398 0.07242 0.0469 0.0
C273 C 0.51809 0.08093 0.0576 0.0
C274 C 0.54175 0.09848 0.05563 0.0
C275 C 0.51297 0.05953 0.05398 0.0
C276 C 0.56013 0.09424 0.05054 0.0
H277 H 0.54571 0.11502 0.05854 0.0
O278 O 0.50557 0.01146 0.06593 0.0
O279 O 0.49481 0.99437 0.02741 0.0
O280 O 0.49309 0.02324 1.00272 0.0
O281 O 0.51507 0.04513 0.0236 0.0
O282 O 0.48302 0.00735 0.04499 0.0
O283 O 0.53437 1.00406 0.06074 0.0
O284 O 0.52578 0.00839 0.97619 0.0
O285 O 0.53256 0.02422 0.01313 0.0
O286 O 0.53493 0.99451 0.03666 0.0
O287 O 0.50808 0.97093 0.01881 0.0
O288 O 0.54498 0.01013 0.99681 0.0
O289 O 0.49144 0.00801 0.97796 0.0
C290 C 0.47616 0.99279 0.03443 0.0
C291 C 0.58441 0.11082 0.04954 0.0
C292 C 0.60235 0.10526 0.04584 0.0
C293 C 0.51946 1.00361 0.07222 0.0
C294 C 0.52925 0.01032 0.08855 0.0
C295 C 0.54761 0.03221 0.08979 0.0
C296 C 0.52025 0.99423 0.10309 0.0
C297 C 0.52935 0.99979 0.119 0.0
C298 C 0.55687 0.03788 0.10553 0.0
C299 C 0.54785 0.0218 0.12007 0.0
C300 C 0.50107 0.04138 0.01064 0.0
C301 C 0.55138 0.02577 0.00643 0.0
C302 C 0.50976 0.01184 0.96806 0.0
C303 C 0.50481 1.00395 0.9514 0.0
C304 C 0.48989 0.98116 0.94975 0.0
C305 C 0.51646 0.01959 0.93691 0.0
C306 C 0.51352 0.01267 0.92071 0.0
C307 C 0.48685 0.97412 0.93367 0.0
C308 C 0.49867 0.98974 0.9192 0.0
C309 C 0.52374 0.97487 0.03064 0.0
H310 H 0.5548 0.04481 0.07865 0.0
H311 H 0.50631 0.97724 0.10193 0.0
H312 H 0.57103 0.0548 0.10647 0.0
H313 H 0.55508 0.02668 0.13217 0.0
H314 H 0.48081 0.96887 0.96083 0.0
H315 H 0.52828 0.03714 0.93832 0.0
H316 H 0.47536 0.95651 0.93241 0.0
H317 H 0.49598 0.98396 0.90685 0.0
Gd318 Gd 0.99243 0.50843 0.03957 0.0
Gd319 Gd 0.02393 0.52705 0.99605 0.0
C320 C 0.09421 0.52482 0.98925 0.0
C321 C 0.12324 0.5646 0.98241 0.0
C322 C 0.08084 0.55286 0.98729 0.0
C323 C 0.07571 0.53058 0.99043 0.0
C324 C 0.10453 0.57007 0.9826 0.0
C325 C 0.11808 0.54199 0.98577 0.0
C326 C 0.08805 0.50197 0.99104 0.0
C327 C 0.0639 0.48557 0.99327 0.0
N328 N 0.05242 0.51444 0.99363 0.0
C329 C 0.04621 0.49213 0.99437 0.0
H330 H 0.02768 0.4792 0.99628 0.0
C331 C 0.0658 0.57849 0.98103 0.0
N332 N 0.06231 0.55747 0.98737 0.0
C333 C 0.08898 0.5962 0.97637 0.0
C334 C 0.10851 0.59207 0.9775 0.0
H335 H 0.05067 0.58169 0.9802 0.0
H336 H 0.13258 0.53792 0.98507 0.0
H337 H 0.99323 0.55878 0.03809 0.0
H338 H 0.10172 0.49683 0.99025 0.0
H339 H 0.0589 0.46784 0.99431 0.0
H340 H 0.14162 0.57763 0.97909 0.0
H341 H 0.96122 0.45416 0.05605 0.0
H342 H 0.92086 0.54673 0.04161 0.0
H343 H 0.96449 0.57323 0.03842 0.0
H344 H 0.87493 0.46614 0.05342 0.0
H345 H 0.09175 0.61299 0.97191 0.0
H346 H 0.12644 0.60577 0.97378 0.0
H347 H 0.88747 0.50665 0.04672 0.0
H348 H 0.91887 0.42517 0.06346 0.0
N349 N 0.96637 0.52412 0.04091 0.0
C350 C 0.93344 0.54021 0.04156 0.0
C351 C 0.95805 0.5552 0.03981 0.0
C352 C 0.92541 0.51696 0.04378 0.0
C353 C 0.94255 0.50937 0.04357 0.0
C354 C 0.97435 0.54684 0.03968 0.0
N355 N 0.9527 0.4803 0.04785 0.0
C356 C 0.93547 0.48666 0.04707 0.0
C357 C 0.92325 0.44236 0.05872 0.0
C358 C 0.90506 0.44831 0.05673 0.0
C359 C 0.94716 0.45879 0.05455 0.0
C360 C 0.91111 0.47081 0.05124 0.0
H361 H 0.88656 0.43561 0.06006 0.0
O362 O 0.99718 0.49256 0.06368 0.0
O363 O 0.02369 0.51491 0.02322 0.0
O364 O 0.99666 0.48934 0.99959 0.0
O365 O 0.97203 0.47947 0.02461 0.0
O366 O 0.01081 0.48687 0.04141 0.0
O367 O 0.00384 0.52711 0.06111 0.0
O368 O 0.01548 0.54066 0.9724 0.0
O369 O 0.99234 0.51999 0.01229 0.0
O370 O 0.02137 0.54542 0.0367 0.0
O371 O 0.04535 0.5554 0.01135 0.0
O372 O 0.0053 0.54832 0.9944 0.0
O373 O 0.01498 0.50845 0.97435 0.0
C374 C 0.02744 0.49912 0.0296 0.0
C375 C 0.89378 0.4781 0.05052 0.0
C376 C 0.90093 0.50116 0.04674 0.0
C377 C 0.0025 0.51005 0.0714 0.0
C378 C 0.99017 0.50562 0.08819 0.0
C379 C 0.96578 0.49962 0.08966 0.0
C380 C 0.00312 0.50806 0.10287 0.0
C381 C 0.99185 0.50487 0.11899 0.0
C382 C 0.95443 0.49612 0.10562 0.0
C383 C 0.96735 0.49882 0.1202 0.0
C384 C 0.97778 0.47495 0.01005 0.0
C385 C 0.98837 0.53565 0.00592 0.0
C386 C 0.01304 0.52413 0.96441 0.0
C387 C 0.02526 0.53053 0.94735 0.0
C388 C 0.05028 0.54381 0.94509 0.0
C389 C 0.01176 0.52333 0.93313 0.0
C390 C 0.02318 0.52948 0.91667 0.0
C391 C 0.06169 0.55023 0.92885 0.0
C392 C 0.0483 0.54323 0.91473 0.0
C393 C 0.04019 0.55969 0.0262 0.0
H394 H 0.95558 0.49784 0.07851 0.0
H395 H 0.02207 0.51303 0.1017 0.0
H396 H 0.93559 0.49149 0.10668 0.0
H397 H 0.95818 0.4961 0.13243 0.0
H398 H 0.06103 0.54927 0.9558 0.0
H399 H 0.99247 0.51265 0.93496 0.0
H400 H 0.081 0.56067 0.92721 0.0
H401 H 0.05765 0.5487 0.90227 0.0
Gd402 Gd 0.49048 0.50729 1.00163 0.0
Gd403 Gd 0.50147 0.48938 0.04573 0.0
C404 C 0.57052 0.48663 0.05743 0.0
C405 C 0.55611 0.44624 0.06382 0.0
C406 C 0.52815 0.46048 0.05682 0.0
C407 C 0.54684 0.48235 0.05471 0.0
C408 C 0.53245 0.44217 0.0618 0.0
C409 C 0.57513 0.46844 0.06162 0.0
C410 C 0.58875 0.50907 0.05624 0.0
C411 C 0.58299 0.52652 0.05298 0.0
N412 N 0.54171 0.4995 0.0507 0.0
C413 C 0.55921 0.5214 0.05043 0.0
H414 H 0.55508 0.53507 0.04777 0.0
C415 C 0.48617 0.4362 0.05898 0.0
N416 N 0.50553 0.4572 0.05486 0.0
C417 C 0.48952 0.41748 0.06385 0.0
C418 C 0.51278 0.42043 0.06505 0.0
H419 H 0.46817 0.43385 0.05797 0.0
H420 H 0.59324 0.47138 0.06358 0.0
H421 H 0.43615 0.46191 1.00148 0.0
H422 H 0.60719 0.51308 0.05818 0.0
H423 H 0.59688 0.54393 0.05232 0.0
H424 H 0.55983 0.43238 0.06748 0.0
H425 H 0.52412 0.56204 0.98695 0.0
H426 H 0.38438 0.48466 0.9924 0.0
H427 H 0.39416 0.45348 0.99836 0.0
H428 H 0.43292 0.56507 0.98 0.0
H429 H 0.47417 0.40079 0.06667 0.0
H430 H 0.51533 0.40591 0.06889 0.0
H431 H 0.399 0.52643 0.98579 0.0
H432 H 0.51858 0.59518 0.97743 0.0
N433 N 0.45008 0.49756 0.99778 0.0
C434 C 0.40288 0.48848 0.99376 0.0
C435 C 0.40833 0.47083 0.99707 0.0
C436 C 0.42145 0.51082 0.99168 0.0
C437 C 0.44519 0.51484 0.99368 0.0
C438 C 0.43221 0.4757 0.99881 0.0
N439 N 0.48674 0.53944 0.99178 0.0
C440 C 0.46416 0.53652 0.99056 0.0
C441 C 0.50312 0.5788 0.98118 0.0
C442 C 0.47997 0.57629 0.98074 0.0
C443 C 0.5062 0.56002 0.98653 0.0
C444 C 0.4601 0.55488 0.98519 0.0
H445 H 0.47762 0.59084 0.97653 0.0
O446 O 0.51412 0.51794 0.97877 0.0
O447 O 0.515 0.50183 0.01888 0.0
O448 O 0.51482 0.52743 0.04048 0.0
O449 O 0.49478 0.53409 0.01749 0.0
O450 O 0.53088 0.52932 1.00031 0.0
O451 O 0.47953 0.48798 0.98027 0.0
O452 O 0.47804 0.4771 0.06879 0.0
O453 O 0.47699 0.49518 0.02862 0.0
O454 O 0.47704 0.46926 0.00717 0.0
O455 O 0.4992 0.46397 0.02911 0.0
O456 O 0.46117 0.46725 0.04672 0.0
O457 O 0.511 0.50886 0.06701 0.0
C458 C 0.53491 0.51785 0.0128 0.0
C459 C 0.43644 0.55115 0.98393 0.0
C460 C 0.41714 0.52915 0.98721 0.0
C461 C 0.4988 0.50199 0.97067 0.0
C462 C 0.49524 0.50926 0.95311 0.0
C463 C 0.48292 0.52169 0.95025 0.0
C464 C 0.50484 0.50449 0.93909 0.0
C465 C 0.50236 0.51234 0.92225 0.0
C466 C 0.48062 0.52972 0.93376 0.0
C467 C 0.49037 0.52529 0.91989 0.0
C468 C 0.50732 0.54017 0.03106 0.0
C469 C 0.45702 0.47918 0.03465 0.0
C470 C 0.49241 0.49376 0.07676 0.0
C471 C 0.49706 0.48746 0.09426 0.0
C472 C 0.50687 0.47287 0.09735 0.0
C473 C 0.49138 0.49577 0.10803 0.0
C474 C 0.4955 0.48949 0.12484 0.0
C475 C 0.51077 0.46642 0.11388 0.0
C476 C 0.50508 0.47455 0.12752 0.0
C477 C 0.48601 0.45734 0.01592 0.0
H478 H 0.47525 0.52535 0.96076 0.0
H479 H 0.51401 0.49455 0.94136 0.0
H480 H 0.47136 0.53958 0.9317 0.0
H481 H 0.4887 0.53232 0.90731 0.0
H482 H 0.51137 0.46632 0.08702 0.0
H483 H 0.48407 0.50728 0.10562 0.0
H484 H 0.51815 0.45498 0.11614 0.0
H485 H 0.50798 0.46891 0.14023 0.0
Gd486 Gd 0.19028 0.35342 0.37469 0.0
Gd487 Gd 0.17151 0.32912 0.33457 0.0
C488 C 0.09993 0.2661 0.331 0.0
C489 C 0.11265 0.2386 0.32619 0.0
C490 C 0.1423 0.27723 0.32895 0.0
C491 C 0.12418 0.28257 0.33143 0.0
C492 C 0.13678 0.25531 0.32596 0.0
C493 C 0.09426 0.24398 0.32872 0.0
C494 C 0.08216 0.2725 0.33247 0.0
C495 C 0.08882 0.29499 0.33374 0.0
N496 N 0.1303 0.30412 0.33351 0.0
C497 C 0.11312 0.31074 0.33402 0.0
H498 H 0.11798 0.32802 0.33511 0.0
C499 C 0.1839 0.29003 0.32444 0.0
N500 N 0.16541 0.29378 0.32874 0.0
C501 C 0.17934 0.26853 0.32149 0.0
C502 C 0.15569 0.25101 0.32245 0.0
H503 H 0.20222 0.3035 0.32378 0.0
H504 H 0.07572 0.23105 0.32851 0.0
H505 H 0.24344 0.35361 0.37276 0.0
H506 H 0.06332 0.26034 0.33228 0.0
H507 H 0.07524 0.3002 0.33459 0.0
H508 H 0.10803 0.2216 0.32406 0.0
H509 H 0.16213 0.37891 0.3897 0.0
H510 H 0.29963 0.42097 0.37415 0.0
H511 H 0.28644 0.3808 0.37203 0.0
H512 H 0.25709 0.46071 0.3855 0.0
H513 H 0.19406 0.26547 0.31849 0.0
H514 H 0.1522 0.23438 0.3201 0.0
H515 H 0.28849 0.45085 0.37887 0.0
H516 H 0.17147 0.41687 0.39605 0.0
N517 N 0.23197 0.37805 0.37481 0.0
C518 C 0.28064 0.40906 0.37451 0.0
C519 C 0.27326 0.3864 0.37336 0.0
C520 C 0.26337 0.41589 0.37674 0.0
C521 C 0.23889 0.39971 0.37702 0.0
C522 C 0.24874 0.37098 0.37379 0.0
N523 N 0.1982 0.38876 0.38193 0.0
C524 C 0.22137 0.40527 0.38066 0.0
C525 C 0.18568 0.41389 0.39163 0.0
C526 C 0.20934 0.43145 0.38944 0.0
C527 C 0.18046 0.39243 0.38807 0.0
C528 C 0.22762 0.42715 0.38421 0.0
H529 H 0.21338 0.44803 0.39229 0.0
O530 O 0.17289 0.34428 0.40007 0.0
O531 O 0.16176 0.32706 0.36171 0.0
O532 O 0.15998 0.35567 0.33692 0.0
O533 O 0.18225 0.3778 0.3576 0.0
O534 O 0.15025 0.34024 0.3793 0.0
O535 O 0.20186 0.3371 0.39491 0.0
O536 O 0.19225 0.34018 0.31044 0.0
O537 O 0.19943 0.35658 0.34724 0.0
O538 O 0.20195 0.32706 0.37084 0.0
O539 O 0.1745 0.30333 0.35336 0.0
O540 O 0.21164 0.34232 0.33095 0.0
O541 O 0.15814 0.34026 0.31225 0.0
C542 C 0.14321 0.32562 0.36879 0.0
C543 C 0.25191 0.44372 0.38302 0.0
C544 C 0.26978 0.4381 0.37926 0.0
C545 C 0.18694 0.33663 0.40638 0.0
C546 C 0.19676 0.34356 0.42266 0.0
C547 C 0.21287 0.36614 0.42416 0.0
C548 C 0.18997 0.32706 0.43691 0.0
C549 C 0.19889 0.3329 0.45282 0.0
C550 C 0.22199 0.37212 0.43987 0.0
C551 C 0.21506 0.35565 0.45414 0.0
C552 C 0.16819 0.37398 0.34466 0.0
C553 C 0.21818 0.35806 0.34049 0.0
C554 C 0.17632 0.34378 0.30233 0.0
C555 C 0.17116 0.3358 0.28571 0.0
C556 C 0.15603 0.31302 0.28414 0.0
C557 C 0.18282 0.35133 0.27119 0.0
C558 C 0.17967 0.34434 0.255 0.0
C559 C 0.15278 0.3059 0.26808 0.0
C560 C 0.1646 0.32142 0.25356 0.0
C561 C 0.19043 0.30733 0.36498 0.0
H562 H 0.21837 0.37906 0.41324 0.0
H563 H 0.17785 0.30959 0.4355 0.0
H564 H 0.23437 0.38958 0.44102 0.0
H565 H 0.22206 0.36078 0.46624 0.0
H566 H 0.14696 0.3008 0.29526 0.0
H567 H 0.19482 0.36886 0.27255 0.0
H568 H 0.14113 0.2883 0.26688 0.0
H569 H 0.16175 0.31559 0.24123 0.0
Gd570 Gd 0.65707 0.84274 0.37163 0.0
Gd571 Gd 0.68904 0.86095 0.32837 0.0
C572 C 0.75675 0.85395 0.32231 0.0
C573 C 0.78775 0.89309 0.31569 0.0
C574 C 0.74594 0.88374 0.32006 0.0
C575 C 0.73931 0.8611 0.32322 0.0
C576 C 0.77011 0.89996 0.31565 0.0
C577 C 0.78108 0.8701 0.31905 0.0
C578 C 0.74915 0.83079 0.32418 0.0
C579 C 0.72465 0.81546 0.32631 0.0
N580 N 0.71564 0.846 0.32627 0.0
C581 C 0.70804 0.82338 0.32718 0.0
H582 H 0.68927 0.81118 0.32903 0.0
C583 C 0.73343 0.91124 0.31371 0.0
N584 N 0.72841 0.88971 0.31991 0.0
C585 C 0.75715 0.92801 0.30934 0.0
C586 C 0.77565 0.92244 0.31063 0.0
H587 H 0.71912 0.91558 0.31278 0.0
H588 H 0.79477 0.86494 0.31856 0.0
H589 H 0.65267 0.89037 0.36942 0.0
H590 H 0.76197 0.8246 0.32358 0.0
H591 H 0.71852 0.7975 0.32744 0.0
H592 H 0.80648 0.90533 0.31259 0.0
H593 H 0.63064 0.78863 0.38884 0.0
H594 H 0.57825 0.87219 0.37314 0.0
H595 H 0.62099 0.90146 0.36946 0.0
H596 H 0.53907 0.79158 0.38666 0.0
H597 H 0.76113 0.9452 0.30499 0.0
H598 H 0.794 0.93541 0.30713 0.0
H599 H 0.54771 0.83102 0.37921 0.0
H600 H 0.58955 0.75723 0.39699 0.0
N601 N 0.6282 0.85508 0.37263 0.0
C602 C 0.5921 0.8672 0.37314 0.0
C603 C 0.61621 0.88376 0.37112 0.0
C604 C 0.58621 0.84439 0.37579 0.0
C605 C 0.60494 0.83883 0.3756 0.0
C606 C 0.63415 0.87738 0.37114 0.0
N607 N 0.61875 0.81231 0.38033 0.0
C608 C 0.60004 0.81668 0.37955 0.0
C609 C 0.59222 0.77382 0.39196 0.0
C610 C 0.57254 0.77765 0.39001 0.0
C611 C 0.6154 0.79158 0.38738 0.0
C612 C 0.57635 0.79941 0.38413 0.0
H613 H 0.55461 0.76391 0.39367 0.0
O614 O 0.66673 0.83051 0.39535 0.0
O615 O 0.68871 0.84935 0.35563 0.0
O616 O 0.66061 0.82365 0.33167 0.0
O617 O 0.63624 0.81384 0.35682 0.0
O618 O 0.67558 0.82131 0.37389 0.0
O619 O 0.66353 0.86093 0.39347 0.0
O620 O 0.68419 0.87648 0.30414 0.0
O621 O 0.65754 0.85476 0.34432 0.0
O622 O 0.68457 0.88027 0.36814 0.0
O623 O 0.71028 0.88911 0.3439 0.0
O624 O 0.67149 0.88315 0.3265 0.0
O625 O 0.67676 0.84167 0.3072 0.0
C626 C 0.69234 0.83354 0.36214 0.0
C627 C 0.55744 0.80465 0.38342 0.0
C628 C 0.56237 0.82711 0.37921 0.0
C629 C 0.66713 0.84624 0.40341 0.0
C630 C 0.65459 0.83862 0.42042 0.0
C631 C 0.62947 0.82692 0.42228 0.0
C632 C 0.66793 0.84244 0.43498 0.0
C633 C 0.65627 0.83416 0.45142 0.0
C634 C 0.61776 0.81851 0.43841 0.0
C635 C 0.63096 0.82187 0.45286 0.0
C636 C 0.64178 0.80936 0.34218 0.0
C637 C 0.65412 0.87072 0.33779 0.0
C638 C 0.6783 0.85865 0.29671 0.0
C639 C 0.69021 0.86233 0.27989 0.0
C640 C 0.71512 0.87084 0.27795 0.0
C641 C 0.67635 0.85644 0.2657 0.0
C642 C 0.68726 0.85873 0.24964 0.0
C643 C 0.72608 0.87341 0.26202 0.0
C644 C 0.71227 0.86732 0.24795 0.0
C645 C 0.70424 0.89401 0.35819 0.0
H646 H 0.61889 0.82415 0.4113 0.0
H647 H 0.68733 0.85201 0.4334 0.0
H648 H 0.59834 0.80918 0.43972 0.0
H649 H 0.62123 0.81459 0.46514 0.0
H650 H 0.72605 0.87531 0.28872 0.0
H651 H 0.65704 0.84952 0.26726 0.0
H652 H 0.74531 0.87999 0.26061 0.0
H653 H 0.72115 0.86939 0.23572 0.0
Gd654 Gd 0.1594 0.84009 0.33618 0.0
Gd655 Gd 0.16895 0.82142 0.38058 0.0
C656 C 0.23774 0.81763 0.3917 0.0
C657 C 0.22255 0.77728 0.39937 0.0
C658 C 0.19509 0.79208 0.39222 0.0
C659 C 0.2141 0.81369 0.38926 0.0
C660 C 0.19896 0.77368 0.3979 0.0
C661 C 0.24193 0.79924 0.39623 0.0
C662 C 0.25629 0.83995 0.39015 0.0
C663 C 0.25086 0.85762 0.38696 0.0
N664 N 0.20928 0.831 0.38513 0.0
C665 C 0.2271 0.85281 0.38468 0.0
H666 H 0.22329 0.86668 0.38207 0.0
C667 C 0.15308 0.76903 0.39668 0.0
N668 N 0.1726 0.78933 0.39091 0.0
C669 C 0.15594 0.75021 0.40233 0.0
C670 C 0.17898 0.75244 0.40263 0.0
H671 H 0.13525 0.76725 0.39637 0.0
H672 H 0.26 0.8019 0.39793 0.0
H673 H 0.10582 0.79394 0.33498 0.0
H674 H 0.2747 0.84371 0.39188 0.0
H675 H 0.26498 0.87495 0.38612 0.0
H676 H 0.22594 0.76332 0.40348 0.0
H677 H 0.19209 0.8953 0.32286 0.0
H678 H 0.05296 0.81524 0.32566 0.0
H679 H 0.06372 0.78467 0.33127 0.0
H680 H 0.09972 0.89595 0.31517 0.0
H681 H 0.14039 0.734 0.40642 0.0
H682 H 0.18117 0.73786 0.40709 0.0
H683 H 0.06653 0.85687 0.31991 0.0
H684 H 0.18559 0.9281 0.31403 0.0
N685 N 0.1189 0.82948 0.33184 0.0
C686 C 0.07152 0.81944 0.32724 0.0
C687 C 0.07754 0.80214 0.33036 0.0
C688 C 0.08965 0.84195 0.32568 0.0
C689 C 0.1135 0.84647 0.32794 0.0
C690 C 0.10149 0.80749 0.33243 0.0
N691 N 0.15483 0.87189 0.32681 0.0
C692 C 0.13208 0.86841 0.32535 0.0
C693 C 0.17038 0.91142 0.31726 0.0
C694 C 0.147 0.90828 0.31656 0.0
C695 C 0.174 0.89286 0.32217 0.0
C696 C 0.12748 0.88652 0.32035 0.0
H697 H 0.14423 0.92267 0.31268 0.0
O698 O 0.18237 0.85336 0.3128 0.0
O699 O 0.18285 0.83332 0.3537 0.0
O700 O 0.18354 0.85966 0.37504 0.0
O701 O 0.16309 0.86627 0.35241 0.0
O702 O 0.19993 0.86103 0.33543 0.0
O703 O 0.15059 0.82059 0.31503 0.0
O704 O 0.14533 0.81048 0.4035 0.0
O705 O 0.14524 0.82785 0.36302 0.0
O706 O 0.14666 0.80229 0.34064 0.0
O707 O 0.16304 0.79357 0.3652 0.0
O708 O 0.12859 0.80009 0.38124 0.0
O709 O 0.1789 0.84154 0.40148 0.0
C710 C 0.20314 0.84878 0.34779 0.0
C711 C 0.10366 0.88224 0.31883 0.0
C712 C 0.08477 0.85998 0.32152 0.0
C713 C 0.16861 0.8362 0.30506 0.0
C714 C 0.16307 0.84154 0.2876 0.0
C715 C 0.14713 0.85026 0.28487 0.0
C716 C 0.17338 0.83755 0.27356 0.0
C717 C 0.16749 0.84197 0.25687 0.0
C718 C 0.14147 0.85493 0.26842 0.0
C719 C 0.15149 0.85079 0.25453 0.0
C720 C 0.17588 0.87238 0.36582 0.0
C721 C 0.12502 0.81207 0.36887 0.0
C722 C 0.16007 0.82712 0.41129 0.0
C723 C 0.16448 0.82098 0.4289 0.0
C724 C 0.17486 0.80688 0.43219 0.0
C725 C 0.15826 0.82912 0.44254 0.0
C726 C 0.16241 0.82313 0.45942 0.0
C727 C 0.17866 0.80062 0.4488 0.0
C728 C 0.17243 0.80857 0.46231 0.0
C729 C 0.15224 0.78867 0.35079 0.0
H730 H 0.13898 0.85336 0.29545 0.0
H731 H 0.18553 0.83059 0.27565 0.0
H732 H 0.12919 0.86171 0.26643 0.0
H733 H 0.14684 0.85469 0.24189 0.0
H734 H 0.17997 0.80063 0.42196 0.0
H735 H 0.15062 0.84033 0.43997 0.0
H736 H 0.18646 0.78954 0.45121 0.0
H737 H 0.17535 0.80315 0.47508 0.0
Gd738 Gd 0.85524 0.6865 0.70745 0.0
Gd739 Gd 0.83778 0.6628 0.66705 0.0
C740 C 0.76614 0.6001 0.66296 0.0
C741 C 0.77872 0.57241 0.65846 0.0
C742 C 0.80846 0.61096 0.66134 0.0
C743 C 0.7904 0.61645 0.66357 0.0
C744 C 0.80287 0.589 0.65841 0.0
C745 C 0.76038 0.57794 0.66075 0.0
C746 C 0.74845 0.60666 0.66418 0.0
C747 C 0.75522 0.62919 0.66538 0.0
N748 N 0.7966 0.63805 0.66559 0.0
C749 C 0.77953 0.64482 0.66585 0.0
H750 H 0.78448 0.66213 0.6669 0.0
C751 C 0.85007 0.62353 0.6572 0.0
N752 N 0.83159 0.6274 0.66129 0.0
C753 C 0.84544 0.60198 0.65432 0.0
C754 C 0.82174 0.58456 0.65513 0.0
H755 H 0.86841 0.63693 0.65667 0.0
H756 H 0.74184 0.5651 0.66041 0.0
H757 H 0.909 0.68798 0.70573 0.0
H758 H 0.72961 0.59459 0.66384 0.0
H759 H 0.74171 0.63452 0.66604 0.0
H760 H 0.77404 0.55538 0.65639 0.0
H761 H 0.82551 0.71036 0.72283 0.0
H762 H 0.96383 0.75558 0.70849 0.0
H763 H 0.95176 0.71582 0.7056 0.0
H764 H 0.91926 0.79321 0.72051 0.0
H765 H 0.86013 0.59881 0.6515 0.0
H766 H 0.8182 0.5679 0.65284 0.0
H767 H 0.95151 0.78451 0.71376 0.0
H768 H 0.83365 0.74765 0.72997 0.0
N769 N 0.89665 0.71171 0.70816 0.0
C770 C 0.94496 0.74339 0.70856 0.0
C771 C 0.93821 0.72096 0.70699 0.0
C772 C 0.92722 0.74961 0.71087 0.0
C773 C 0.90292 0.7331 0.71078 0.0
C774 C 0.91385 0.70519 0.70708 0.0
N775 N 0.86192 0.72119 0.71532 0.0
C776 C 0.88491 0.73802 0.71447 0.0
C777 C 0.84824 0.74523 0.72551 0.0
C778 C 0.87171 0.76314 0.72374 0.0
C779 C 0.84369 0.72414 0.72148 0.0
C780 C 0.89049 0.75955 0.71847 0.0
H781 H 0.87522 0.77943 0.72694 0.0
O782 O 0.83544 0.67425 0.73203 0.0
O783 O 0.82724 0.66019 0.69409 0.0
O784 O 0.82649 0.68962 0.66917 0.0
O785 O 0.84768 0.71122 0.69045 0.0
O786 O 0.81518 0.6735 0.71124 0.0
O787 O 0.86818 0.6723 0.72832 0.0
O788 O 0.859 0.67369 0.64314 0.0
O789 O 0.86524 0.69004 0.6801 0.0
O790 O 0.86744 0.6605 0.70368 0.0
O791 O 0.84045 0.63688 0.68594 0.0
O792 O 0.87794 0.67598 0.66397 0.0
O793 O 0.82508 0.6742 0.64449 0.0
C794 C 0.80849 0.65883 0.70077 0.0
C795 C 0.9146 0.77647 0.71768 0.0
C796 C 0.93295 0.77151 0.71385 0.0
C797 C 0.85087 0.66886 0.73902 0.0
C798 C 0.85746 0.67508 0.75603 0.0
C799 C 0.86847 0.69762 0.75904 0.0
C800 C 0.85152 0.6578 0.76959 0.0
C801 C 0.85554 0.66264 0.78642 0.0
C802 C 0.87307 0.70272 0.77563 0.0
C803 C 0.86648 0.6854 0.78926 0.0
C804 C 0.83419 0.70767 0.67719 0.0
C805 C 0.88417 0.69162 0.67358 0.0
C806 C 0.84337 0.67752 0.63478 0.0
C807 C 0.83844 0.66951 0.61816 0.0
C808 C 0.8233 0.64673 0.61659 0.0
C809 C 0.85026 0.68501 0.60364 0.0
C810 C 0.84727 0.67796 0.58747 0.0
C811 C 0.82021 0.63956 0.60056 0.0
C812 C 0.83219 0.65503 0.58605 0.0
C813 C 0.8561 0.6408 0.69777 0.0
H814 H 0.87325 0.71117 0.74867 0.0
H815 H 0.84357 0.64052 0.76693 0.0
H816 H 0.88138 0.72013 0.77797 0.0
H817 H 0.86951 0.68988 0.802 0.0
H818 H 0.81409 0.63455 0.6277 0.0
H819 H 0.86225 0.70254 0.60499 0.0
H820 H 0.80856 0.62195 0.59936 0.0
H821 H 0.82944 0.64915 0.57374 0.0
Gd822 Gd 0.3243 0.17554 0.70575 0.0
Gd823 Gd 0.3556 0.19501 0.66219 0.0
C824 C 0.42497 0.19131 0.65474 0.0
C825 C 0.45468 0.23095 0.6484 0.0
C826 C 0.41249 0.21993 0.65341 0.0
C827 C 0.40684 0.1975 0.65617 0.0
C828 C 0.43633 0.23688 0.64885 0.0
C829 C 0.449 0.20818 0.65138 0.0
C830 C 0.41831 0.16836 0.65618 0.0
C831 C 0.39403 0.1523 0.65837 0.0
N832 N 0.38342 0.18168 0.6593 0.0
C833 C 0.37672 0.15929 0.65976 0.0
H834 H 0.35811 0.14659 0.66165 0.0
C835 C 0.39828 0.24629 0.64777 0.0
N836 N 0.3943 0.225 0.65373 0.0
C837 C 0.42163 0.26375 0.64326 0.0
C838 C 0.44083 0.25912 0.64414 0.0
H839 H 0.38341 0.24987 0.64713 0.0
H840 H 0.46322 0.20376 0.65049 0.0
H841 H 0.32042 0.22335 0.70496 0.0
H842 H 0.43168 0.16289 0.65517 0.0
H843 H 0.38864 0.13452 0.65915 0.0
H844 H 0.47317 0.24376 0.64518 0.0
H845 H 0.29749 0.12104 0.72198 0.0
H846 H 0.24622 0.20567 0.70967 0.0
H847 H 0.28905 0.23471 0.706 0.0
H848 H 0.20639 0.12488 0.72142 0.0
H849 H 0.4248 0.28074 0.63911 0.0
H850 H 0.4589 0.27263 0.64053 0.0
H851 H 0.21539 0.16455 0.715 0.0
H852 H 0.25631 0.08968 0.7299 0.0
N853 N 0.29572 0.18811 0.70771 0.0
C854 C 0.25994 0.20056 0.70927 0.0
C855 C 0.2841 0.21698 0.70726 0.0
C856 C 0.25384 0.1777 0.71136 0.0
C857 C 0.27241 0.17197 0.71068 0.0
C858 C 0.30187 0.21043 0.70672 0.0
N859 N 0.28587 0.14515 0.71434 0.0
C860 C 0.2673 0.14971 0.71403 0.0
C861 C 0.25911 0.10644 0.72531 0.0
C862 C 0.23956 0.11052 0.7238 0.0
C863 C 0.28235 0.12418 0.72086 0.0
C864 C 0.24356 0.13249 0.7185 0.0
H865 H 0.22159 0.0968 0.72736 0.0
O866 O 0.33324 0.16205 0.72924 0.0
O867 O 0.35569 0.18268 0.68924 0.0
O868 O 0.32792 0.15744 0.6653 0.0
O869 O 0.30356 0.14707 0.69054 0.0
O870 O 0.34316 0.15442 0.70724 0.0
O871 O 0.33225 0.19354 0.72776 0.0
O872 O 0.34813 0.20975 0.63866 0.0
O873 O 0.32414 0.18788 0.67862 0.0
O874 O 0.35175 0.21306 0.70265 0.0
O875 O 0.37698 0.22279 0.67798 0.0
O876 O 0.33728 0.21652 0.66103 0.0
O877 O 0.34558 0.17669 0.64034 0.0
C878 C 0.35964 0.16693 0.69538 0.0
C879 C 0.2248 0.13792 0.71827 0.0
C880 C 0.22993 0.1605 0.71465 0.0
C881 C 0.33487 0.1781 0.73749 0.0
C882 C 0.32249 0.17086 0.75454 0.0
C883 C 0.29737 0.15951 0.75649 0.0
C884 C 0.33593 0.17491 0.76905 0.0
C885 C 0.32435 0.16732 0.78552 0.0
C886 C 0.28574 0.15176 0.77266 0.0
C887 C 0.29904 0.15544 0.78707 0.0
C888 C 0.30916 0.1429 0.67579 0.0
C889 C 0.32029 0.20372 0.67249 0.0
C890 C 0.34466 0.19302 0.63052 0.0
C891 C 0.35684 0.19909 0.61347 0.0
C892 C 0.38192 0.21167 0.61124 0.0
C893 C 0.34324 0.19225 0.59924 0.0
C894 C 0.35463 0.19811 0.58278 0.0
C895 C 0.39332 0.21774 0.59503 0.0
C896 C 0.37984 0.21114 0.58089 0.0
C897 C 0.37114 0.22719 0.69257 0.0
H898 H 0.28672 0.15655 0.74554 0.0
H899 H 0.35536 0.18416 0.76743 0.0
H900 H 0.26632 0.14274 0.77405 0.0
H901 H 0.2894 0.14874 0.79941 0.0
H902 H 0.39272 0.21686 0.62197 0.0
H903 H 0.32388 0.18213 0.60106 0.0
H904 H 0.41268 0.22765 0.59341 0.0
H905 H 0.38921 0.21643 0.56844 0.0
Gd906 Gd 0.82618 0.17493 0.66798 0.0
Gd907 Gd 0.83426 0.15495 0.71246 0.0
C908 C 0.90405 0.15333 0.72381 0.0
C909 C 0.89006 0.11311 0.73105 0.0
C910 C 0.86171 0.12683 0.72384 0.0
C911 C 0.88024 0.14874 0.72122 0.0
C912 C 0.86626 0.10881 0.72938 0.0
C913 C 0.90895 0.13535 0.72822 0.0
C914 C 0.92208 0.17586 0.72246 0.0
C915 C 0.91597 0.19308 0.71932 0.0
N916 N 0.87478 0.16566 0.71716 0.0
C917 C 0.89207 0.18766 0.7169 0.0
H918 H 0.88775 0.2012 0.71433 0.0
C919 C 0.81982 0.10267 0.72781 0.0
N920 N 0.83897 0.12335 0.72231 0.0
C921 C 0.82338 0.08421 0.73331 0.0
C922 C 0.84671 0.0872 0.73379 0.0
H923 H 0.80177 0.10034 0.72736 0.0
H924 H 0.92717 0.13853 0.73004 0.0
H925 H 0.77237 0.12846 0.66798 0.0
H926 H 0.9406 0.18011 0.72432 0.0
H927 H 0.92969 0.21056 0.71864 0.0
H928 H 0.89398 0.09946 0.73507 0.0
H929 H 0.85789 0.2288 0.65112 0.0
H930 H 0.71892 0.14925 0.65998 0.0
H931 H 0.73002 0.11889 0.6654 0.0
H932 H 0.76536 0.22972 0.64678 0.0
H933 H 0.80814 0.0677 0.73716 0.0
H934 H 0.84944 0.0729 0.73813 0.0
H935 H 0.73226 0.19077 0.65338 0.0
H936 H 0.85111 0.26115 0.64107 0.0
N937 N 0.78531 0.16401 0.66455 0.0
C938 C 0.73759 0.15358 0.66113 0.0
C939 C 0.7438 0.13641 0.66412 0.0
C940 C 0.75567 0.17614 0.65897 0.0
C941 C 0.77968 0.18083 0.66067 0.0
C942 C 0.76791 0.14194 0.66554 0.0
N943 N 0.82099 0.20618 0.65793 0.0
C944 C 0.79817 0.2027 0.65725 0.0
C945 C 0.83605 0.24484 0.64574 0.0
C946 C 0.81274 0.24195 0.6462 0.0
C947 C 0.83984 0.22655 0.65139 0.0
C948 C 0.79336 0.22054 0.65163 0.0
H949 H 0.80982 0.2561 0.64174 0.0
O950 O 0.85032 0.18694 0.64524 0.0
O951 O 0.84885 0.16721 0.68573 0.0
O952 O 0.84739 0.19292 0.70841 0.0
O953 O 0.83396 0.20347 0.68301 0.0
O954 O 0.86656 0.19544 0.66786 0.0
O955 O 0.81626 0.15657 0.6461 0.0
O956 O 0.81012 0.14211 0.73524 0.0
O957 O 0.81162 0.16288 0.69482 0.0
O958 O 0.81359 0.13716 0.67189 0.0
O959 O 0.82843 0.12737 0.69682 0.0
O960 O 0.79402 0.13423 0.71222 0.0
O961 O 0.84299 0.17377 0.73407 0.0
C962 C 0.86931 0.18278 0.68016 0.0
C963 C 0.76945 0.21619 0.65083 0.0
C964 C 0.75061 0.19401 0.65456 0.0
C965 C 0.83557 0.17113 0.63678 0.0
C966 C 0.83214 0.17861 0.61923 0.0
C967 C 0.82034 0.19152 0.6164 0.0
C968 C 0.84096 0.17317 0.60519 0.0
C969 C 0.83819 0.18083 0.58837 0.0
C970 C 0.81798 0.19954 0.59992 0.0
C971 C 0.82696 0.19444 0.58604 0.0
C972 C 0.84377 0.20759 0.69783 0.0
C973 C 0.79111 0.14734 0.70039 0.0
C974 C 0.82413 0.15856 0.7435 0.0
C975 C 0.82826 0.15209 0.76111 0.0
C976 C 0.83817 0.13761 0.76442 0.0
C977 C 0.82237 0.16047 0.77475 0.0
C978 C 0.82641 0.15438 0.79163 0.0
C979 C 0.84186 0.13124 0.78104 0.0
C980 C 0.83599 0.13946 0.79454 0.0
C981 C 0.8184 0.12305 0.68211 0.0
H982 H 0.81301 0.1955 0.6269 0.0
H983 H 0.84959 0.16274 0.6074 0.0
H984 H 0.80916 0.2098 0.59789 0.0
H985 H 0.82514 0.20132 0.57343 0.0
H986 H 0.84304 0.13116 0.75421 0.0
H987 H 0.81509 0.17198 0.77218 0.0
H988 H 0.84933 0.11989 0.78346 0.0
H989 H 0.83885 0.13399 0.80731 0.0
C990 C 0.29176 0.81653 0.08585 0.0
C991 C 0.27066 0.81833 0.0854 0.0
C992 C 0.31401 0.83525 0.08021 0.0
C993 C 0.3404 0.89212 0.05361 0.0
H994 H 0.39959 0.89918 0.07246 0.0
C995 C 0.43193 0.97444 0.04083 0.0
C996 C 0.45233 0.97229 0.03725 0.0
C997 C 0.40967 0.9553 0.04554 0.0
C998 C 0.38323 0.89731 0.06694 0.0
H999 H 0.25613 0.84099 0.07901 0.0
H1000 H 0.29499 0.87416 0.07016 0.0
H1001 H 0.36136 0.86745 0.0842 0.0
H1002 H 0.46555 0.94837 0.03624 0.0
H1003 H 0.42663 0.91484 0.04465 0.0
H1004 H 0.36247 0.92255 0.03675 0.0
C1005 C 0.29453 0.85821 0.07437 0.0
C1006 C 0.36121 0.87904 0.07366 0.0
C1007 C 0.27225 0.83935 0.07978 0.0
C1008 C 0.45005 0.95055 0.03854 0.0
C1009 C 0.42782 0.93137 0.04353 0.0
C1010 C 0.3624 0.91056 0.04709 0.0
C1011 C 0.31576 0.85638 0.07414 0.0
C1012 C 0.33938 0.87612 0.06712 0.0
C1013 C 0.40741 0.93354 0.04724 0.0
C1014 C 0.38408 0.91339 0.05367 0.0
H1015 H 0.2908 0.80032 0.08991 0.0
H1016 H 0.32967 0.83285 0.08005 0.0
H1017 H 0.32421 0.89033 0.04787 0.0
H1018 H 0.43331 0.99102 0.04019 0.0
H1019 H 0.39438 0.95758 0.04846 0.0
C1020 C 0.21236 0.50575 0.07689 0.0
C1021 C 0.22725 0.52653 0.08248 0.0
C1022 C 0.19245 0.50277 0.06794 0.0
C1023 C 0.16417 0.53117 0.04283 0.0
H1024 H 0.1048 0.48028 0.06333 0.0
C1025 C 0.07149 0.52314 0.03074 0.0
C1026 C 0.05158 0.50159 0.03118 0.0
C1027 C 0.09408 0.52557 0.03401 0.0
C1028 C 0.1212 0.49423 0.05714 0.0
H1029 H 0.23417 0.56079 0.08271 0.0
H1030 H 0.19891 0.55572 0.06678 0.0
H1031 H 0.14278 0.48641 0.07443 0.0
H1032 H 0.03934 0.46568 0.03542 0.0
H1033 H 0.07913 0.46979 0.0407 0.0
H1034 H 0.14253 0.53899 0.02547 0.0
C1035 C 0.20274 0.54177 0.06934 0.0
C1036 C 0.14294 0.49782 0.0636 0.0
C1037 C 0.22267 0.54468 0.07846 0.0
C1038 C 0.05458 0.48246 0.03487 0.0
C1039 C 0.07728 0.48486 0.03795 0.0
C1040 C 0.14236 0.52741 0.03618 0.0
C1041 C 0.18722 0.52062 0.06435 0.0
C1042 C 0.16456 0.51647 0.05667 0.0
C1043 C 0.0972 0.50646 0.03791 0.0
C1044 C 0.1206 0.5091 0.04347 0.0
H1045 H 0.21595 0.4917 0.07988 0.0
H1046 H 0.18088 0.4864 0.06409 0.0
H1047 H 0.18069 0.54554 0.03719 0.0
H1048 H 0.06955 0.53816 0.02839 0.0
H1049 H 0.10885 0.54242 0.03422 0.0
C1050 C 0.56132 0.73094 0.06355 0.0
C1051 C 0.54949 0.73054 0.0786 0.0
C1052 C 0.55709 0.71073 0.05786 0.0
C1053 C 0.53501 0.65025 0.0735 0.0
H1054 H 0.52959 0.64314 0.0257 0.0
C1055 C 0.52989 0.57186 0.04828 0.0
C1056 C 0.51324 0.56252 0.03599 0.0
C1057 C 0.53508 0.59277 0.05307 0.0
C1058 C 0.53095 0.64481 0.03911 0.0
H1059 H 0.52351 0.70907 0.09921 0.0
H1060 H 0.51591 0.67369 0.08933 0.0
H1061 H 0.53636 0.67866 0.03474 0.0
H1062 H 0.48864 0.56775 0.0194 0.0
H1063 H 0.49776 0.60412 0.02768 0.0
H1064 H 0.52912 0.61629 0.07794 0.0
C1065 C 0.52879 0.6895 0.08204 0.0
C1066 C 0.53507 0.66526 0.04427 0.0
C1067 C 0.53302 0.70968 0.08768 0.0
C1068 C 0.50192 0.57459 0.02864 0.0
C1069 C 0.50715 0.5955 0.03339 0.0
C1070 C 0.53095 0.62984 0.06835 0.0
C1071 C 0.54095 0.68975 0.06715 0.0
C1072 C 0.53701 0.66818 0.06154 0.0
C1073 C 0.52374 0.60484 0.04571 0.0
C1074 C 0.52875 0.62682 0.0511 0.0
H1075 H 0.57424 0.74689 0.05646 0.0
H1076 H 0.56692 0.71154 0.04643 0.0
H1077 H 0.53673 0.65201 0.08688 0.0
H1078 H 0.53898 0.56306 0.0542 0.0
H1079 H 0.54814 0.59958 0.06246 0.0
C1080 C 0.84586 0.28714 0.96811 0.0
C1081 C 0.82266 0.28321 0.96442 0.0
C1082 C 0.86252 0.30755 0.97341 0.0
C1083 C 0.87683 0.36721 0.972 0.0
H1084 H 0.91878 0.36792 0.00774 0.0
C1085 C 0.95821 0.45016 0.98741 0.0
C1086 C 0.96135 0.45262 1.00472 0.0
C1087 C 0.94149 0.42945 0.98247 0.0
C1088 C 0.90715 0.36805 0.99778 0.0
H1089 H 0.79849 0.2973 0.96349 0.0
H1090 H 0.82758 0.33315 0.97284 0.0
H1091 H 0.88858 0.33192 0.99978 0.0
H1092 H 0.95017 0.43483 0.03029 0.0
H1093 H 0.92099 0.39894 0.02178 0.0
H1094 H 0.89534 0.40336 0.97008 0.0
C1095 C 0.833 0.32051 0.97153 0.0
C1096 C 0.88995 0.34739 0.99312 0.0
C1097 C 0.81627 0.29997 0.96635 0.0
C1098 C 0.94786 0.43372 0.01691 0.0
C1099 C 0.93131 0.413 0.01199 0.0
C1100 C 0.89418 0.3879 0.97658 0.0
C1101 C 0.85641 0.32462 0.97505 0.0
C1102 C 0.87452 0.34667 0.98018 0.0
C1103 C 0.92772 0.41061 0.99471 0.0
C1104 C 0.90955 0.3886 0.98956 0.0
H1105 H 0.85112 0.2744 0.96674 0.0
H1106 H 0.8804 0.31016 0.97585 0.0
H1107 H 0.86543 0.36733 0.96187 0.0
H1108 H 0.96828 0.46439 0.97768 0.0
H1109 H 0.93941 0.42815 0.96904 0.0
C1110 C 0.68572 0.47545 0.96886 0.0
C1111 C 0.70706 0.49343 0.96106 0.0
C1112 C 0.66975 0.47975 0.97782 0.0
C1113 C 0.65295 0.52399 0.97996 0.0
H1114 H 0.61702 0.48676 0.0216 0.0
C1115 C 0.57941 0.53695 0.00953 0.0
C1116 C 0.55752 0.51695 0.0129 0.0
C1117 C 0.6007 0.53606 0.00709 0.0
C1118 C 0.62703 0.49734 0.01001 0.0
H1119 H 0.72936 0.52966 0.95675 0.0
H1120 H 0.70159 0.53739 0.97243 0.0
H1121 H 0.6484 0.48079 0.00915 0.0
H1122 H 0.54056 0.48042 0.01609 0.0
H1123 H 0.57739 0.47877 0.01192 0.0
H1124 H 0.63114 0.53999 0.98039 0.0
C1125 C 0.69682 0.52002 0.97146 0.0
C1126 C 0.64486 0.49386 1.00286 0.0
C1127 C 0.71264 0.51569 0.96251 0.0
C1128 C 0.55722 0.49608 0.0141 0.0
C1129 C 0.57841 0.49516 0.0117 0.0
C1130 C 0.63516 0.52745 0.98707 0.0
C1131 C 0.67511 0.50211 0.97909 0.0
C1132 C 0.65764 0.50687 0.98758 0.0
C1133 C 0.60027 0.51512 0.00771 0.0
C1134 C 0.62166 0.51384 1.00196 0.0
H1135 H 0.68145 0.4582 0.96792 0.0
H1136 H 0.65303 0.46563 0.98341 0.0
H1137 H 0.66228 0.5341 0.96805 0.0
H1138 H 0.57995 0.55322 0.00837 0.0
H1139 H 0.61734 0.55172 1.00411 0.0
C1140 C 0.43933 0.18561 0.96885 0.0
C1141 C 0.45327 0.20133 0.9549 0.0
C1142 C 0.44248 0.16687 0.97418 0.0
C1143 C 0.46189 0.12828 0.96194 0.0
H1144 H 0.48488 0.12748 0.00715 0.0
C1145 C 0.49657 0.06604 0.98664 0.0
C1146 C 0.49431 0.05871 1.00415 0.0
C1147 C 0.49065 0.08279 0.98035 0.0
C1148 C 0.47799 0.12701 0.99464 0.0
H1149 H 0.48049 0.20941 0.93506 0.0
H1150 H 0.48519 0.17586 0.94381 0.0
H1151 H 0.47451 0.15658 0.99634 0.0
H1152 H 0.48302 0.06221 0.02876 0.0
H1153 H 0.4716 0.09058 0.01793 0.0
H1154 H 0.46434 0.0983 0.96032 0.0
C1155 C 0.47211 0.17826 0.95077 0.0
C1156 C 0.47222 0.14386 0.98843 0.0
C1157 C 0.46933 0.1973 0.94569 0.0
C1158 C 0.4855 0.06801 0.01525 0.0
C1159 C 0.47902 0.08436 0.00897 0.0
C1160 C 0.4671 0.11106 0.96829 0.0
C1161 C 0.45917 0.16323 0.96534 0.0
C1162 C 0.46429 0.14474 0.97199 0.0
C1163 C 0.4817 0.09222 0.99141 0.0
C1164 C 0.47544 0.11024 0.98472 0.0
H1165 H 0.42676 0.18843 0.97604 0.0
H1166 H 0.43222 0.15544 0.9854 0.0
H1167 H 0.45569 0.12859 0.94923 0.0
H1168 H 0.50345 0.05916 0.97782 0.0
H1169 H 0.49353 0.08855 0.96683 0.0
C1170 C 0.75051 0.18774 0.95988 0.0
C1171 C 0.75155 0.20898 0.95843 0.0
C1172 C 0.72882 0.16794 0.96486 0.0
C1173 C 0.66999 0.14758 0.98809 0.0
H1174 H 0.65111 0.09372 0.96678 0.0
C1175 C 0.57601 0.06819 1.00241 0.0
C1176 C 0.57458 0.04689 1.00269 0.0
C1177 C 0.5977 0.088 0.99746 0.0
C1178 C 0.65622 0.10847 0.97309 0.0
H1179 H 0.73063 0.22612 0.96037 0.0
H1180 H 0.69276 0.19166 0.9692 0.0
H1181 H 0.68842 0.12786 0.9569 0.0
H1182 H 0.59454 0.02958 0.99783 0.0
H1183 H 0.63246 0.06396 0.98957 0.0
H1184 H 0.63796 0.12815 1.00443 0.0
C1185 C 0.70872 0.19024 0.96673 0.0
C1186 C 0.67765 0.12812 0.96735 0.0
C1187 C 0.73035 0.20997 0.96163 0.0
C1188 C 0.5952 0.0458 0.99785 0.0
C1189 C 0.61689 0.06554 0.99298 0.0
C1190 C 0.64862 0.12788 0.99391 0.0
C1191 C 0.7077 0.16895 0.96861 0.0
C1192 C 0.68482 0.14797 0.97473 0.0
C1193 C 0.61844 0.08696 0.99252 0.0
C1194 C 0.64138 0.10801 0.98648 0.0
H1195 H 0.76665 0.18653 0.95772 0.0
H1196 H 0.72878 0.15189 0.96629 0.0
H1197 H 0.67511 0.16245 0.99426 0.0
H1198 H 0.56026 0.06956 0.0057 0.0
H1199 H 0.59801 0.1041 0.99708 0.0
C1200 C 0.79822 0.51994 0.95985 0.0
C1201 C 0.78509 0.50074 0.95188 0.0
C1202 C 0.82069 0.52482 0.96558 0.0
C1203 C 0.86908 0.50899 0.96318 0.0
H1204 H 0.88549 0.53468 0.00549 0.0
C1205 C 0.94491 0.51023 1.00328 0.0
C1206 C 0.964 0.53219 1.00329 0.0
C1207 C 0.92263 0.50689 0.99811 0.0
C1208 C 0.88105 0.52759 0.99365 0.0
H1209 H 0.78439 0.47139 0.94364 0.0
H1210 H 0.82348 0.47916 0.95429 0.0
H1211 H 0.84746 0.5276 0.99347 0.0
H1212 H 0.97487 0.56783 0.99819 0.0
H1213 H 0.93528 0.5619 0.98952 0.0
H1214 H 0.90238 0.50814 0.96394 0.0
C1215 C 0.81699 0.49104 0.9556 0.0
C1216 C 0.85943 0.52368 0.98665 0.0
C1217 C 0.79465 0.48648 0.94953 0.0
C1218 C 0.96026 0.55077 0.99849 0.0
C1219 C 0.93777 0.5474 0.99358 0.0
C1220 C 0.89044 0.5125 0.97036 0.0
C1221 C 0.83015 0.51015 0.9639 0.0
C1222 C 0.85322 0.5144 0.97128 0.0
C1223 C 0.91908 0.52545 0.99296 0.0
C1224 C 0.89653 0.52186 0.98558 0.0
H1225 H 0.79078 0.53093 0.96186 0.0
H1226 H 0.83048 0.53994 0.97152 0.0
H1227 H 0.86514 0.50221 0.95121 0.0
H1228 H 0.94739 0.49562 0.00659 0.0
H1229 H 0.90834 0.48984 0.99768 0.0
C1230 C 0.47954 0.28998 0.96722 0.0
C1231 C 0.45779 0.27525 0.96079 0.0
C1232 C 0.48197 0.30905 0.97389 0.0
C1233 C 0.45945 0.34941 0.97069 0.0
H1234 H 0.48297 0.36159 0.01539 0.0
C1235 C 0.46252 0.42422 1.00029 0.0
C1236 C 0.48152 0.43566 0.0105 0.0
C1237 C 0.45881 0.40403 0.99485 0.0
C1238 C 0.47675 0.35872 1.00277 0.0
H1239 H 0.42146 0.26862 0.95653 0.0
H1240 H 0.42596 0.30247 0.96756 0.0
H1241 H 0.47888 0.32799 1.00448 0.0
H1242 H 0.5117 0.435 0.02289 0.0
H1243 H 0.50589 0.4005 0.01293 0.0
H1244 H 0.45814 0.38041 0.96852 0.0
C1245 C 0.44108 0.2992 0.9675 0.0
C1246 C 0.47429 0.33937 0.99658 0.0
C1247 C 0.43853 0.27994 0.96115 0.0
C1248 C 0.49671 0.42649 0.01517 0.0
C1249 C 0.49327 0.40654 0.00951 0.0
C1250 C 0.46232 0.36898 0.97672 0.0
C1251 C 0.46282 0.31394 0.97395 0.0
C1252 C 0.46556 0.3345 0.98051 0.0
C1253 C 0.47429 0.395 0.99923 0.0
C1254 C 0.47096 0.37393 0.99288 0.0
H1255 H 0.49475 0.28692 0.96682 0.0
H1256 H 0.49899 0.32026 0.97865 0.0
H1257 H 0.45291 0.34615 0.95817 0.0
H1258 H 0.45039 0.43076 0.99657 0.0
H1259 H 0.44368 0.39548 0.98728 0.0
C1260 C 0.18994 0.72389 0.08885 0.0
C1261 C 0.19893 0.74495 0.07866 0.0
C1262 C 0.17285 0.70416 0.08293 0.0
C1263 C 0.14837 0.67904 0.0441 0.0
H1264 H 0.09236 0.63762 0.07385 0.0
C1265 C 0.06963 0.60118 0.02053 0.0
C1266 C 0.05745 0.5813 0.03207 0.0
C1267 C 0.08658 0.62134 0.02604 0.0
C1268 C 0.10802 0.64873 0.06542 0.0
H1269 H 0.19727 0.76183 0.05421 0.0
H1270 H 0.16784 0.7272 0.04356 0.0
H1271 H 0.12292 0.67197 0.08362 0.0
H1272 H 0.05347 0.56697 0.05849 0.0
H1273 H 0.08341 0.60179 0.06809 0.0
H1274 H 0.13395 0.65564 0.02605 0.0
C1275 C 0.17399 0.72599 0.05618 0.0
C1276 C 0.12553 0.66854 0.07104 0.0
C1277 C 0.19088 0.74579 0.06223 0.0
C1278 C 0.06241 0.58207 0.0493 0.0
C1279 C 0.07958 0.60214 0.0548 0.0
C1280 C 0.13102 0.65907 0.03855 0.0
C1281 C 0.16456 0.70496 0.06655 0.0
C1282 C 0.14592 0.68394 0.06046 0.0
C1283 C 0.092 0.62212 0.04325 0.0
C1284 C 0.11053 0.64357 0.04912 0.0
H1285 H 0.19613 0.72275 0.10146 0.0
H1286 H 0.16622 0.68821 0.09114 0.0
H1287 H 0.164 0.69044 0.0357 0.0
H1288 H 0.06575 0.6013 0.00728 0.0
H1289 H 0.09521 0.63637 0.01678 0.0
C1290 C 0.31741 0.53018 0.08961 0.0
C1291 C 0.29354 0.51362 0.09381 0.0
C1292 C 0.33351 0.52466 0.08228 0.0
C1293 C 0.34576 0.47874 0.0764 0.0
H1294 H 0.38036 0.51671 0.03459 0.0
C1295 C 0.41301 0.46199 0.04101 0.0
C1296 C 0.43513 0.48128 0.0361 0.0
C1297 C 0.39301 0.46413 0.04555 0.0
C1298 C 0.37094 0.50601 0.04628 0.0
H1299 H 0.26761 0.47839 0.09406 0.0
H1300 H 0.29608 0.46838 0.08188 0.0
H1301 H 0.352 0.5244 0.04939 0.0
H1302 H 0.45366 0.51787 0.03189 0.0
H1303 H 0.41923 0.52169 0.03984 0.0
H1304 H 0.36536 0.46092 0.07379 0.0
C1305 C 0.30234 0.4856 0.08424 0.0
C1306 C 0.35476 0.51045 0.05474 0.0
C1307 C 0.28617 0.49123 0.09134 0.0
C1308 C 0.43676 0.50269 0.0352 0.0
C1309 C 0.41689 0.50485 0.03978 0.0
C1310 C 0.3622 0.47447 0.06806 0.0
C1311 C 0.32595 0.50242 0.07921 0.0
C1312 C 0.34233 0.49707 0.07 0.0
C1313 C 0.39497 0.48563 0.04551 0.0
C1314 C 0.37527 0.4883 0.05305 0.0
H1315 H 0.32321 0.54754 0.09133 0.0
H1316 H 0.35173 0.53785 0.07867 0.0
H1317 H 0.33636 0.46821 0.08816 0.0
H1318 H 0.41142 0.44531 0.0419 0.0
H1319 H 0.37627 0.44898 0.04964 0.0
C1320 C 0.57199 0.8219 0.06987 0.0
C1321 C 0.55886 0.80633 0.08411 0.0
C1322 C 0.5698 0.84137 0.06553 0.0
C1323 C 0.52709 0.86269 0.07033 0.0
H1324 H 0.58098 0.92063 0.05251 0.0
C1325 C 0.51423 0.93432 0.03377 0.0
C1326 C 0.52893 0.95643 0.03739 0.0
C1327 C 0.51866 0.91673 0.04033 0.0
C1328 C 0.56578 0.90461 0.05759 0.0
H1329 H 0.53372 0.79895 0.10528 0.0
H1330 H 0.52989 0.83312 0.09785 0.0
H1331 H 0.58794 0.88907 0.06312 0.0
H1332 H 0.55989 0.97732 0.05079 0.0
H1333 H 0.5676 0.94652 0.06227 0.0
H1334 H 0.5049 0.87814 0.06476 0.0
C1335 C 0.54174 0.83024 0.08991 0.0
C1336 C 0.56974 0.88649 0.06353 0.0
C1337 C 0.54405 0.81083 0.09428 0.0
C1338 C 0.54824 0.96052 0.04772 0.0
C1339 C 0.55274 0.94289 0.05423 0.0
C1340 C 0.52312 0.88075 0.0643 0.0
C1341 C 0.55432 0.84558 0.07534 0.0
C1342 C 0.55041 0.86526 0.06987 0.0
C1343 C 0.53792 0.92077 0.05068 0.0
C1344 C 0.54238 0.90188 0.05772 0.0
H1345 H 0.58361 0.81873 0.06195 0.0
H1346 H 0.5796 0.85271 0.05417 0.0
H1347 H 0.51177 0.84653 0.07496 0.0
H1348 H 0.49907 0.93046 0.02599 0.0
H1349 H 0.50707 0.89995 0.03717 0.0
C1350 C 0.93945 0.17141 0.41466 0.0
C1351 C 0.93793 0.1501 0.4186 0.0
C1352 C 0.96164 0.19058 0.40952 0.0
C1353 C 0.02824 0.21139 0.40742 0.0
H1354 H 0.02899 0.25657 0.37225 0.0
C1355 C 0.11682 0.28342 0.3728 0.0
C1356 C 0.1193 0.30522 0.37164 0.0
C1357 C 0.09454 0.26433 0.37776 0.0
C1358 C 0.02907 0.24414 0.38213 0.0
H1359 H 0.95829 0.13213 0.42126 0.0
H1360 H 0.99689 0.16518 0.41184 0.0
H1361 H 0.9908 0.22415 0.38332 0.0
H1362 H 0.10056 0.32413 0.37485 0.0
H1363 H 0.06156 0.29085 0.38321 0.0
H1364 H 0.06663 0.23129 0.40592 0.0
C1365 C 0.98121 0.16746 0.41281 0.0
C1366 C 0.00712 0.22557 0.3886 0.0
C1367 C 0.95908 0.14842 0.4181 0.0
C1368 C 0.09903 0.30751 0.37538 0.0
C1369 C 0.07671 0.28845 0.38013 0.0
C1370 C 0.05019 0.22982 0.40081 0.0
C1371 C 0.98283 0.18882 0.40814 0.0
C1372 C 0.00631 0.20891 0.40141 0.0
C1373 C 0.07425 0.26662 0.38167 0.0
C1374 C 0.0509 0.24649 0.38813 0.0
H1375 H 0.92333 0.17307 0.41503 0.0
H1376 H 0.96209 0.20672 0.40645 0.0
H1377 H 0.02852 0.19926 0.41746 0.0
H1378 H 0.13222 0.28112 0.37039 0.0
H1379 H 0.09323 0.24775 0.37872 0.0
C1380 C 0.88799 0.87637 0.40996 0.0
C1381 C 0.89184 0.85779 0.4141 0.0
C1382 C 0.86798 0.87388 0.4011 0.0
C1383 C 0.80722 0.83087 0.39619 0.0
H1384 H 0.80729 0.87212 0.35793 0.0
C1385 C 0.71911 0.81653 0.36758 0.0
C1386 C 0.71639 0.83579 0.36376 0.0
C1387 C 0.74171 0.81869 0.3707 0.0
C1388 C 0.80699 0.86054 0.36868 0.0
H1389 H 0.87916 0.82262 0.41193 0.0
H1390 H 0.84398 0.81805 0.39659 0.0
H1391 H 0.84539 0.87795 0.36937 0.0
H1392 H 0.73473 0.87238 0.3608 0.0
H1393 H 0.77392 0.87624 0.36666 0.0
H1394 H 0.76904 0.81401 0.39619 0.0
C1395 C 0.85616 0.83444 0.40017 0.0
C1396 C 0.82876 0.86388 0.37517 0.0
C1397 C 0.87614 0.83699 0.40887 0.0
C1398 C 0.73648 0.85725 0.36324 0.0
C1399 C 0.75898 0.85945 0.36654 0.0
C1400 C 0.78552 0.82769 0.38987 0.0
C1401 C 0.85165 0.85273 0.39648 0.0
C1402 C 0.82899 0.84912 0.38904 0.0
C1403 C 0.76181 0.84019 0.37057 0.0
C1404 C 0.78511 0.84257 0.37613 0.0
H1405 H 0.90012 0.8925 0.41392 0.0
H1406 H 0.86474 0.88818 0.39846 0.0
H1407 H 0.80692 0.81943 0.40706 0.0
H1408 H 0.70375 0.79982 0.3682 0.0
H1409 H 0.74334 0.80352 0.37354 0.0
C1410 C 0.23891 0.05776 0.41195 0.0
C1411 C 0.22081 0.06399 0.41234 0.0
C1412 C 0.23433 0.03732 0.40658 0.0
C1413 C 0.18361 0.98169 0.39884 0.0
H1414 H 0.23438 0.97623 0.37634 0.0
C1415 C 0.1674 0.90471 0.3658 0.0
C1416 C 0.18169 0.89462 0.3708 0.0
C1417 C 0.17238 0.92547 0.37071 0.0
C1418 C 0.22009 0.97753 0.38269 0.0
H1419 H 0.18389 0.054 0.40715 0.0
H1420 H 0.17613 0.01896 0.39679 0.0
H1421 H 0.24251 0.01256 0.38445 0.0
H1422 H 0.21262 0.89859 0.38466 0.0
H1423 H 0.22169 0.93528 0.39289 0.0
H1424 H 0.16104 0.94674 0.39643 0.0
C1425 C 0.19369 0.02937 0.40118 0.0
C1426 C 0.22473 0.99831 0.38745 0.0
C1427 C 0.19819 0.04964 0.40686 0.0
C1428 C 0.20126 0.9059 0.38065 0.0
C1429 C 0.20652 0.92691 0.38529 0.0
C1430 C 0.17888 0.96105 0.39378 0.0
C1431 C 0.21162 0.02276 0.40114 0.0
C1432 C 0.20659 1.0007 0.39569 0.0
C1433 C 0.19201 0.93679 0.38047 0.0
C1434 C 0.1971 0.95875 0.38574 0.0
H1435 H 0.2566 0.0687 0.41589 0.0
H1436 H 0.24856 0.03282 0.40701 0.0
H1437 H 0.16926 0.98257 0.40547 0.0
H1438 H 0.15209 0.89641 0.3583 0.0
H1439 H 0.161 0.93279 0.36676 0.0
C1440 C 0.4926 0.63809 0.28617 0.0
C1441 C 0.48639 0.61768 0.2966 0.0
C1442 C 0.5092 0.65875 0.29119 0.0
C1443 C 0.53625 0.68675 0.32835 0.0
H1444 H 0.5891 0.72892 0.29636 0.0
C1445 C 0.6141 0.76767 0.34876 0.0
C1446 C 0.62511 0.78723 0.33681 0.0
C1447 C 0.59748 0.74695 0.34386 0.0
C1448 C 0.57429 0.71761 0.30541 0.0
H1449 H 0.49218 0.60271 0.3205 0.0
H1450 H 0.5207 0.63893 0.32967 0.0
H1451 H 0.55887 0.69331 0.28798 0.0
H1452 H 0.6274 0.80047 0.3103 0.0
H1453 H 0.59785 0.76464 0.30174 0.0
H1454 H 0.55101 0.71113 0.34563 0.0
C1455 C 0.51286 0.63897 0.31755 0.0
C1456 C 0.55699 0.69708 0.30059 0.0
C1457 C 0.49656 0.61829 0.31236 0.0
C1458 C 0.61935 0.78561 0.31977 0.0
C1459 C 0.60242 0.76496 0.31488 0.0
C1460 C 0.55331 0.70743 0.33309 0.0
C1461 C 0.51962 0.65943 0.30691 0.0
C1462 C 0.53782 0.68138 0.31202 0.0
C1463 C 0.59111 0.74527 0.32686 0.0
C1464 C 0.57272 0.72319 0.32173 0.0
H1465 H 0.4849 0.63794 0.27397 0.0
H1466 H 0.51385 0.67421 0.28279 0.0
H1467 H 0.52154 0.6751 0.33738 0.0
H1468 H 0.61863 0.76827 0.36189 0.0
H1469 H 0.58982 0.73222 0.35343 0.0
C1470 C 0.38118 0.83872 0.30664 0.0
C1471 C 0.37337 0.81908 0.29897 0.0
C1472 C 0.365 0.84178 0.31634 0.0
C1473 C 0.30635 0.81478 0.3394 0.0
H1474 H 0.30295 0.86823 0.31994 0.0
C1475 C 0.22248 0.82447 0.34823 0.0
C1476 C 0.22471 0.84608 0.34755 0.0
C1477 C 0.24271 0.82185 0.3461 0.0
C1478 C 0.30397 0.85357 0.32593 0.0
H1479 H 0.34334 0.78683 0.29577 0.0
H1480 H 0.31459 0.79195 0.31311 0.0
H1481 H 0.33466 0.86153 0.30979 0.0
H1482 H 0.24953 0.88191 0.34421 0.0
H1483 H 0.28528 0.87747 0.34113 0.0
H1484 H 0.2757 0.80682 0.35564 0.0
C1485 C 0.33326 0.8049 0.31165 0.0
C1486 C 0.32207 0.84967 0.31999 0.0
C1487 C 0.3495 0.80197 0.30175 0.0
C1488 C 0.24751 0.86508 0.3449 0.0
C1489 C 0.26787 0.86248 0.34305 0.0
C1490 C 0.28844 0.81889 0.34562 0.0
C1491 C 0.34081 0.82512 0.31861 0.0
C1492 C 0.32309 0.83003 0.3264 0.0
C1493 C 0.26566 0.84083 0.3432 0.0
C1494 C 0.28665 0.83805 0.33862 0.0
H1495 H 0.39963 0.85206 0.30447 0.0
H1496 H 0.37119 0.85747 0.3216 0.0
H1497 H 0.30699 0.79961 0.3446 0.0
H1498 H 0.20504 0.80957 0.34977 0.0
H1499 H 0.24014 0.80496 0.34591 0.0
C1500 C 0.13087 0.5269 0.27833 0.0
C1501 C 0.11754 0.53225 0.28925 0.0
C1502 C 0.13459 0.50832 0.28316 0.0
C1503 C 0.14211 0.47783 0.32098 0.0
H1504 H 0.12869 0.42901 0.29484 0.0
C1505 C 0.15445 0.40204 0.34896 0.0
C1506 C 0.16162 0.3914 0.33795 0.0
C1507 C 0.14823 0.41851 0.3425 0.0
C1508 C 0.13299 0.44269 0.30221 0.0
H1509 H 0.0963 0.52168 0.3131 0.0
H1510 H 0.10345 0.4897 0.32182 0.0
H1511 H 0.11927 0.45886 0.28381 0.0
H1512 H 0.16801 0.38954 0.31157 0.0
H1513 H 0.15834 0.419 0.3002 0.0
H1514 H 0.15675 0.46261 0.33905 0.0
C1515 C 0.11106 0.49984 0.30959 0.0
C1516 C 0.12741 0.4597 0.29589 0.0
C1517 C 0.10701 0.51809 0.30463 0.0
C1518 C 0.16242 0.39746 0.32034 0.0
C1519 C 0.15669 0.41427 0.31384 0.0
C1520 C 0.14814 0.46116 0.32714 0.0
C1521 C 0.12531 0.49506 0.29908 0.0
C1522 C 0.13169 0.47727 0.30532 0.0
C1523 C 0.14949 0.42508 0.32482 0.0
C1524 C 0.14346 0.44316 0.31796 0.0
H1525 H 0.13933 0.53769 0.26648 0.0
H1526 H 0.14568 0.50497 0.27485 0.0
H1527 H 0.1459 0.49141 0.32839 0.0
H1528 H 0.15301 0.39722 0.36256 0.0
H1529 H 0.14213 0.42583 0.35143 0.0
C1530 C 0.4167 0.52092 0.29367 0.0
C1531 C 0.41716 0.54192 0.29145 0.0
C1532 C 0.39519 0.50096 0.2987 0.0
C1533 C 0.33595 0.48028 0.32112 0.0
H1534 H 0.31815 0.42586 0.30081 0.0
C1535 C 0.2426 0.40047 0.3361 0.0
C1536 C 0.2413 0.37921 0.33657 0.0
C1537 C 0.26419 0.4203 0.33101 0.0
C1538 C 0.32296 0.44076 0.30686 0.0
H1539 H 0.39533 0.55841 0.29184 0.0
H1540 H 0.35782 0.52369 0.30089 0.0
H1541 H 0.35528 0.46012 0.29076 0.0
H1542 H 0.26141 0.36197 0.33191 0.0
H1543 H 0.29922 0.3964 0.32349 0.0
H1544 H 0.30392 0.4609 0.33744 0.0
C1545 C 0.37411 0.52261 0.29901 0.0
C1546 C 0.34427 0.46048 0.30101 0.0
C1547 C 0.39555 0.54249 0.29381 0.0
C1548 C 0.26198 0.37816 0.33178 0.0
C1549 C 0.28359 0.39794 0.32681 0.0
C1550 C 0.31475 0.4605 0.3271 0.0
C1551 C 0.37369 0.50159 0.30174 0.0
C1552 C 0.35101 0.48053 0.30801 0.0
C1553 C 0.285 0.41934 0.32615 0.0
C1554 C 0.30787 0.44043 0.32002 0.0
H1555 H 0.43315 0.52005 0.29209 0.0
H1556 H 0.39557 0.4851 0.30076 0.0
H1557 H 0.34077 0.49532 0.32699 0.0
H1558 H 0.2268 0.40179 0.33934 0.0
H1559 H 0.26435 0.43635 0.33046 0.0
C1560 C 0.46777 0.85532 0.28211 0.0
C1561 C 0.45145 0.83284 0.28048 0.0
C1562 C 0.49089 0.86111 0.28703 0.0
C1563 C 0.53436 0.83918 0.29353 0.0
H1564 H 0.55775 0.88045 0.32726 0.0
C1565 C 0.61058 0.84581 0.33474 0.0
C1566 C 0.63002 0.86764 0.33442 0.0
C1567 C 0.58879 0.8427 0.32864 0.0
C1568 C 0.55146 0.86903 0.31777 0.0
H1569 H 0.44615 0.79888 0.28216 0.0
H1570 H 0.48639 0.80865 0.29118 0.0
H1571 H 0.52044 0.87324 0.31401 0.0
H1572 H 0.64188 0.90334 0.3279 0.0
H1573 H 0.60335 0.8979 0.31735 0.0
H1574 H 0.56503 0.83447 0.29775 0.0
C1575 C 0.48175 0.82202 0.28829 0.0
C1576 C 0.53022 0.865 0.31008 0.0
C1577 C 0.45873 0.81634 0.28319 0.0
C1578 C 0.62702 0.88637 0.32843 0.0
C1579 C 0.60507 0.88326 0.32244 0.0
C1580 C 0.55539 0.84301 0.30136 0.0
C1581 C 0.49792 0.8444 0.29066 0.0
C1582 C 0.52133 0.84989 0.29795 0.0
C1583 C 0.58605 0.86136 0.32203 0.0
C1584 C 0.56399 0.8578 0.31364 0.0
H1585 H 0.46222 0.86817 0.2804 0.0
H1586 H 0.50301 0.87854 0.28846 0.0
H1587 H 0.52829 0.82778 0.28403 0.0
H1588 H 0.61243 0.83105 0.33904 0.0
H1589 H 0.57427 0.82565 0.32863 0.0
C1590 C 0.1363 0.62773 0.28631 0.0
C1591 C 0.12288 0.60632 0.29583 0.0
C1592 C 0.13905 0.64707 0.29265 0.0
C1593 C 0.13848 0.67026 0.33173 0.0
H1594 H 0.12463 0.71216 0.30262 0.0
C1595 C 0.13888 0.74719 0.35626 0.0
C1596 C 0.14745 0.76723 0.3449 0.0
C1597 C 0.13514 0.72715 0.35056 0.0
C1598 C 0.12895 0.70088 0.31086 0.0
H1599 H 0.10213 0.58828 0.31948 0.0
H1600 H 0.10756 0.62226 0.33089 0.0
H1601 H 0.12048 0.6783 0.29223 0.0
H1602 H 0.15896 0.78218 0.31867 0.0
H1603 H 0.15321 0.74756 0.30875 0.0
H1604 H 0.14769 0.69306 0.35019 0.0
C1605 C 0.11582 0.62403 0.31848 0.0
C1606 C 0.12645 0.6814 0.3049 0.0
C1607 C 0.11277 0.60464 0.31201 0.0
C1608 C 0.15208 0.76688 0.32769 0.0
C1609 C 0.14867 0.74696 0.32201 0.0
C1610 C 0.14134 0.68993 0.33762 0.0
C1611 C 0.12875 0.64541 0.30876 0.0
C1612 C 0.13122 0.66593 0.31525 0.0
C1613 C 0.14014 0.72678 0.33336 0.0
C1614 C 0.13667 0.70556 0.32725 0.0
H1615 H 0.1446 0.62945 0.27394 0.0
H1616 H 0.14937 0.66337 0.28499 0.0
H1617 H 0.14246 0.65868 0.33992 0.0
H1618 H 0.13457 0.74686 0.36948 0.0
H1619 H 0.12804 0.71191 0.35963 0.0
C1620 C 0.85549 0.05611 0.4219 0.0
C1621 C 0.86584 0.07706 0.41146 0.0
C1622 C 0.83804 0.03662 0.4159 0.0
C1623 C 0.81464 0.01124 0.37704 0.0
H1624 H 0.75619 0.97281 0.4054 0.0
C1625 C 0.73509 0.93507 0.3525 0.0
C1626 C 0.72141 0.91559 0.36412 0.0
C1627 C 0.75228 0.95505 0.35811 0.0
C1628 C 0.77251 0.98307 0.39738 0.0
H1629 H 0.8663 0.09403 0.38651 0.0
H1630 H 0.83627 0.05977 0.37573 0.0
H1631 H 0.78751 0.00659 0.41538 0.0
H1632 H 0.71495 0.90179 0.39079 0.0
H1633 H 0.74531 0.93625 0.40058 0.0
H1634 H 0.80014 0.98752 0.35924 0.0
C1635 C 0.84161 0.05845 0.38861 0.0
C1636 C 0.79045 1.00254 0.40311 0.0
C1637 C 0.85882 0.07803 0.39472 0.0
C1638 C 0.72505 0.9166 0.38152 0.0
C1639 C 0.74247 0.93647 0.38713 0.0
C1640 C 0.79685 0.99158 0.3714 0.0
C1641 C 0.83078 0.03756 0.3992 0.0
C1642 C 0.81173 0.01687 0.39302 0.0
C1643 C 0.75648 0.95601 0.3755 0.0
C1644 C 0.77546 0.97716 0.38147 0.0
H1645 H 0.86083 0.05489 0.43477 0.0
H1646 H 0.8303 0.02075 0.4243 0.0
H1647 H 0.83094 0.02181 0.36904 0.0
H1648 H 0.73229 0.93502 0.33908 0.0
H1649 H 0.76213 0.96978 0.34875 0.0
C1650 C 0.98259 0.86216 0.42046 0.0
C1651 C 0.95885 0.8453 0.42468 0.0
C1652 C 0.99906 0.85698 0.41327 0.0
C1653 C 0.01215 0.81127 0.40795 0.0
H1654 H 0.04862 0.85011 0.36693 0.0
C1655 C 0.08084 0.79509 0.37398 0.0
C1656 C 0.10319 0.81436 0.3697 0.0
C1657 C 0.0607 0.79725 0.37803 0.0
C1658 C 0.03865 0.83916 0.37841 0.0
H1659 H 0.93351 0.80989 0.42507 0.0
H1660 H 0.96257 0.80048 0.41305 0.0
H1661 H 0.01942 0.85741 0.38104 0.0
H1662 H 0.122 0.85094 0.36623 0.0
H1663 H 0.08728 0.85481 0.3733 0.0
H1664 H 0.03195 0.79354 0.40579 0.0
C1665 C 0.96848 0.81769 0.41531 0.0
C1666 C 0.022 0.84337 0.38648 0.0
C1667 C 0.95196 0.82298 0.42231 0.0
C1668 C 0.10494 0.83579 0.36899 0.0
C1669 C 0.08492 0.83798 0.37308 0.0
C1670 C 0.029 0.80719 0.39998 0.0
C1671 C 0.992 0.83477 0.41032 0.0
C1672 C 0.00889 0.82968 0.40146 0.0
C1673 C 0.06272 0.81875 0.37816 0.0
C1674 C 0.04272 0.82132 0.38527 0.0
H1675 H 0.98803 0.87948 0.42213 0.0
H1676 H 0.01719 0.87038 0.40972 0.0
H1677 H 0.00227 0.80051 0.41951 0.0
H1678 H 0.07916 0.77838 0.37475 0.0
H1679 H 0.04377 0.7821 0.38165 0.0
C1680 C 0.20221 0.13575 0.41358 0.0
C1681 C 0.22461 0.13781 0.41769 0.0
C1682 C 0.19975 0.15492 0.40863 0.0
C1683 C 0.22496 0.21522 0.41061 0.0
H1684 H 0.19482 0.21565 0.36816 0.0
C1685 C 0.21646 0.29311 0.38007 0.0
C1686 C 0.19561 0.28884 0.37151 0.0
C1687 C 0.22123 0.27543 0.38591 0.0
C1688 C 0.20293 0.21575 0.38017 0.0
H1689 H 0.26185 0.16145 0.42046 0.0
H1690 H 0.25741 0.19527 0.41232 0.0
H1691 H 0.20035 0.18345 0.37871 0.0
H1692 H 0.16304 0.26251 0.36288 0.0
H1693 H 0.17089 0.23185 0.37342 0.0
H1694 H 0.22685 0.24719 0.41241 0.0
C1695 C 0.24182 0.17874 0.41279 0.0
C1696 C 0.20621 0.1973 0.38616 0.0
C1697 C 0.24435 0.15946 0.4175 0.0
C1698 C 0.17948 0.26649 0.36918 0.0
C1699 C 0.18408 0.24885 0.37517 0.0
C1700 C 0.22134 0.23361 0.40476 0.0
C1701 C 0.21959 0.1766 0.40795 0.0
C1702 C 0.21707 0.19674 0.40149 0.0
C1703 C 0.20513 0.25304 0.38348 0.0
C1704 C 0.21004 0.23402 0.38951 0.0
H1705 H 0.18668 0.11922 0.41392 0.0
H1706 H 0.18233 0.15279 0.4052 0.0
H1707 H 0.23331 0.21516 0.42252 0.0
H1708 H 0.22927 0.31015 0.38204 0.0
H1709 H 0.23775 0.27941 0.39207 0.0
C1710 C 0.62518 0.48192 0.75215 0.0
C1711 C 0.60404 0.48362 0.75273 0.0
C1712 C 0.64724 0.50089 0.74657 0.0
C1713 C 0.67271 0.55853 0.72162 0.0
H1714 H 0.73263 0.56481 0.73853 0.0
C1715 C 0.76429 0.64054 0.70725 0.0
C1716 C 0.78464 0.63834 0.70361 0.0
C1717 C 0.74205 0.62145 0.71216 0.0
C1718 C 0.71607 0.56317 0.73352 0.0
H1719 H 0.58939 0.50654 0.74902 0.0
H1720 H 0.62805 0.54009 0.73992 0.0
H1721 H 0.69473 0.53293 0.75058 0.0
H1722 H 0.79776 0.61435 0.70262 0.0
H1723 H 0.75891 0.58092 0.71122 0.0
H1724 H 0.69425 0.5892 0.70485 0.0
C1725 C 0.62763 0.52398 0.74315 0.0
C1726 C 0.69424 0.54483 0.74044 0.0
C1727 C 0.60551 0.50488 0.74859 0.0
C1728 C 0.7823 0.61658 0.70496 0.0
C1729 C 0.76009 0.59745 0.71008 0.0
C1730 C 0.69455 0.577 0.71484 0.0
C1731 C 0.64879 0.52219 0.74167 0.0
C1732 C 0.67217 0.54216 0.73459 0.0
C1733 C 0.73975 0.59967 0.71395 0.0
C1734 C 0.71652 0.57956 0.72068 0.0
H1735 H 0.62442 0.46567 0.75545 0.0
H1736 H 0.6629 0.49859 0.74554 0.0
H1737 H 0.65626 0.55694 0.71646 0.0
H1738 H 0.76569 0.65714 0.70657 0.0
H1739 H 0.72686 0.62381 0.7152 0.0
C1740 C 0.55489 0.21187 0.74303 0.0
C1741 C 0.55975 0.19385 0.74667 0.0
C1742 C 0.53512 0.2091 0.73376 0.0
C1743 C 0.47583 0.16507 0.72737 0.0
H1744 H 0.47482 0.20733 0.69037 0.0
C1745 C 0.38695 0.15034 0.69985 0.0
C1746 C 0.38384 0.16946 0.69664 0.0
C1747 C 0.40973 0.15273 0.70258 0.0
C1748 C 0.47481 0.19544 0.70077 0.0
H1749 H 0.54917 0.15942 0.74321 0.0
H1750 H 0.51437 0.15434 0.72714 0.0
H1751 H 0.51315 0.21373 0.7017 0.0
H1752 H 0.40169 0.20599 0.69445 0.0
H1753 H 0.44114 0.21023 0.69971 0.0
H1754 H 0.43768 0.14739 0.72725 0.0
C1755 C 0.52563 0.17052 0.73138 0.0
C1756 C 0.49672 0.19911 0.70718 0.0
C1757 C 0.54539 0.17338 0.74049 0.0
C1758 C 0.40372 0.19099 0.69639 0.0
C1759 C 0.4264 0.19341 0.69934 0.0
C1760 C 0.45397 0.16159 0.72116 0.0
C1761 C 0.52004 0.1882 0.72823 0.0
C1762 C 0.49732 0.18402 0.72062 0.0
C1763 C 0.42963 0.1743 0.70271 0.0
C1764 C 0.45315 0.17686 0.70792 0.0
H1765 H 0.56596 0.22773 0.74777 0.0
H1766 H 0.53101 0.2229 0.73157 0.0
H1767 H 0.47583 0.15336 0.73791 0.0
H1768 H 0.37174 0.13357 0.70026 0.0
H1769 H 0.41165 0.13767 0.70491 0.0
C1770 C 0.90623 0.3944 0.74124 0.0
C1771 C 0.88712 0.39838 0.74497 0.0
C1772 C 0.90186 0.37404 0.73584 0.0
C1773 C 0.8547 0.3148 0.73688 0.0
H1774 H 0.89575 0.31406 0.70113 0.0
C1775 C 0.84965 0.23188 0.72069 0.0
C1776 C 0.85035 0.22977 0.70333 0.0
C1777 C 0.85454 0.25254 0.72585 0.0
C1778 C 0.88405 0.31397 0.71108 0.0
H1779 H 0.84859 0.3846 0.74586 0.0
H1780 H 0.84074 0.3489 0.7362 0.0
H1781 H 0.90281 0.35003 0.70935 0.0
H1782 H 0.85798 0.24805 0.67792 0.0
H1783 H 0.86604 0.28384 0.68677 0.0
H1784 H 0.83573 0.27873 0.73844 0.0
C1785 C 0.85912 0.36139 0.73762 0.0
C1786 C 0.88823 0.33458 0.7159 0.0
C1787 C 0.86355 0.38183 0.74297 0.0
C1788 C 0.85666 0.2489 0.69131 0.0
C1789 C 0.86164 0.26956 0.69643 0.0
C1790 C 0.85057 0.29417 0.73211 0.0
C1791 C 0.87823 0.3572 0.73409 0.0
C1792 C 0.87359 0.33526 0.72884 0.0
C1793 C 0.86046 0.27161 0.71376 0.0
C1794 C 0.86517 0.29351 0.71912 0.0
H1795 H 0.92454 0.40704 0.74265 0.0
H1796 H 0.91697 0.3713 0.73339 0.0
H1797 H 0.84324 0.3147 0.74702 0.0
H1798 H 0.84483 0.21745 0.73031 0.0
H1799 H 0.85376 0.25361 0.73932 0.0
C1800 C 0.15864 0.97205 0.62008 0.0
C1801 C 0.15251 0.95163 0.63046 0.0
C1802 C 0.17541 0.99268 0.62504 0.0
C1803 C 0.20334 0.02058 0.66207 0.0
H1804 H 0.25563 0.06275 0.62967 0.0
C1805 C 0.28195 0.10113 0.68217 0.0
C1806 C 0.29264 0.12081 0.67031 0.0
C1807 C 0.26523 0.08047 0.67725 0.0
C1808 C 0.24099 0.05143 0.63884 0.0
H1809 H 0.15861 0.9366 0.65422 0.0
H1810 H 0.18746 0.97278 0.66328 0.0
H1811 H 0.22505 0.02721 0.62142 0.0
H1812 H 0.29438 0.13429 0.64393 0.0
H1813 H 0.26466 0.09852 0.63535 0.0
H1814 H 0.21864 0.04487 0.67937 0.0
C1815 C 0.17942 0.97286 0.65124 0.0
C1816 C 0.22348 0.03095 0.63409 0.0
C1817 C 0.16294 0.9522 0.64612 0.0
C1818 C 0.28655 0.11934 0.65333 0.0
C1819 C 0.26952 0.09874 0.64843 0.0
C1820 C 0.22062 0.0412 0.66676 0.0
C1821 C 0.18611 0.99333 0.64064 0.0
C1822 C 0.20451 0.01524 0.64567 0.0
C1823 C 0.25845 0.07896 0.66034 0.0
C1824 C 0.23983 0.05695 0.65525 0.0
H1825 H 0.15075 0.97193 0.60797 0.0
H1826 H 0.18 0.00816 0.61667 0.0
H1827 H 0.18879 0.00893 0.67122 0.0
H1828 H 0.28675 0.10161 0.69524 0.0
H1829 H 0.25778 0.06566 0.68675 0.0
C1830 C 0.01695 0.1371 0.63204 0.0
C1831 C 0.03979 0.15535 0.6273 0.0
C1832 C 1.0004 0.14008 0.64157 0.0
C1833 C 0.98589 0.18425 0.648 0.0
H1834 H 0.94393 0.14238 0.68602 0.0
C1835 C 0.91358 0.19913 0.677 0.0
C1836 C 0.89087 0.18006 0.67995 0.0
C1837 C 0.93389 0.19669 0.67446 0.0
C1838 C 0.95549 0.15418 0.67538 0.0
H1839 H 0.06408 0.19043 0.62908 0.0
H1840 H 0.03522 0.19585 0.64564 0.0
H1841 H 0.9752 0.13609 0.6737 0.0
H1842 H 0.87136 0.14351 0.68243 0.0
H1843 H 0.90651 0.13918 0.67754 0.0
H1844 H 0.96577 0.20178 0.64893 0.0
C1845 C 0.02989 0.17935 0.64198 0.0
C1846 C 0.97333 0.15056 0.66836 0.0
C1847 C 0.04633 0.17633 0.63257 0.0
C1848 C 0.88874 0.15848 0.68058 0.0
C1849 C 0.90897 0.15601 0.67784 0.0
C1850 C 0.96798 0.18773 0.65485 0.0
C1851 C 0.00665 0.16138 0.64631 0.0
C1852 C 0.98853 0.16549 0.65452 0.0
C1853 C 0.9317 0.17512 0.6743 0.0
C1854 C 0.95238 0.17262 0.6685 0.0
H1855 H 0.01186 0.12082 0.62807 0.0
H1856 H 0.98251 0.12601 0.64466 0.0
H1857 H 0.99714 0.19583 0.63715 0.0
H1858 H 0.91553 0.21593 0.67638 0.0
H1859 H 0.95121 0.21173 0.67206 0.0
C1860 C 0.79844 0.86105 0.61021 0.0
C1861 C 0.78599 0.86744 0.62104 0.0
C1862 C 0.80161 0.84224 0.61541 0.0
C1863 C 0.80872 0.81195 0.65376 0.0
H1864 H 0.79478 0.76305 0.62757 0.0
C1865 C 0.82034 0.73565 0.68156 0.0
C1866 C 0.82759 0.7251 0.67052 0.0
C1867 C 0.81418 0.75217 0.67516 0.0
C1868 C 0.7992 0.77674 0.63496 0.0
H1869 H 0.76611 0.85872 0.64529 0.0
H1870 H 0.77224 0.82625 0.65464 0.0
H1871 H 0.78585 0.7932 0.61653 0.0
H1872 H 0.8341 0.72344 0.6441 0.0
H1873 H 0.82447 0.75297 0.63285 0.0
H1874 H 0.82301 0.79639 0.67185 0.0
C1875 C 0.77951 0.83572 0.64216 0.0
C1876 C 0.7939 0.79392 0.62864 0.0
C1877 C 0.776 0.85423 0.63684 0.0
C1878 C 0.82846 0.73128 0.65291 0.0
C1879 C 0.82276 0.74814 0.64647 0.0
C1880 C 0.81446 0.79507 0.65993 0.0
C1881 C 0.79272 0.82979 0.63163 0.0
C1882 C 0.79843 0.81158 0.63806 0.0
C1883 C 0.81553 0.75888 0.6575 0.0
C1884 C 0.80962 0.77707 0.65071 0.0
H1885 H 0.8067 0.87122 0.59813 0.0
H1886 H 0.81199 0.83809 0.6071 0.0
H1887 H 0.81275 0.82558 0.66116 0.0
H1888 H 0.81883 0.73074 0.69514 0.0
H1889 H 0.80805 0.75945 0.68412 0.0
C1890 C 0.06158 0.87642 0.62792 0.0
C1891 C 0.08318 0.87585 0.6255 0.0
C1892 C 0.04013 0.85652 0.63308 0.0
C1893 C 0.01035 0.79442 0.6348 0.0
H1894 H 0.96975 0.79452 0.6712 0.0
C1895 C 0.92805 0.71188 0.66516 0.0
C1896 C 0.90728 0.71282 0.66986 0.0
C1897 C 0.94967 0.73171 0.66034 0.0
C1898 C 0.98065 0.79421 0.66087 0.0
H1899 H 0.09918 0.85399 0.62604 0.0
H1900 H 0.0616 0.81902 0.63464 0.0
H1901 H 0.00663 0.82902 0.66091 0.0
H1902 H 0.89266 0.7353 0.6727 0.0
H1903 H 0.93023 0.76996 0.66407 0.0
H1904 H 0.98429 0.75982 0.63445 0.0
C1905 C 0.06122 0.83488 0.63265 0.0
C1906 C 0.00187 0.81403 0.65499 0.0
C1907 C 0.08273 0.85485 0.62766 0.0
C1908 C 0.90851 0.73405 0.6695 0.0
C1909 C 0.93012 0.75393 0.66456 0.0
C1910 C 0.98904 0.77466 0.64056 0.0
C1911 C 0.03971 0.8355 0.63571 0.0
C1912 C 0.01702 0.8144 0.64188 0.0
C1913 C 0.951 0.75307 0.65975 0.0
C1914 C 0.97386 0.77422 0.65371 0.0
H1915 H 0.06136 0.89234 0.626 0.0
H1916 H 0.02385 0.85759 0.63499 0.0
H1917 H 0.02142 0.79415 0.62456 0.0
H1918 H 0.92755 0.69573 0.66524 0.0
H1919 H 0.96536 0.73025 0.65706 0.0
C1920 C 0.12444 0.14839 0.61896 0.0
C1921 C 0.11805 0.16536 0.61482 0.0
C1922 C 0.14661 0.1536 0.62556 0.0
C1923 C 0.20707 0.19955 0.62951 0.0
H1924 H 0.20528 0.1621 0.671 0.0
C1925 C 0.29262 0.21924 0.66469 0.0
C1926 C 0.29599 0.20054 0.66988 0.0
C1927 C 0.27023 0.21611 0.65972 0.0
C1928 C 0.20611 0.17262 0.65936 0.0
H1929 H 0.12943 0.20092 0.61402 0.0
H1930 H 0.1687 0.21034 0.625 0.0
H1931 H 0.16816 0.15385 0.65717 0.0
H1932 H 0.27877 0.16397 0.67383 0.0
H1933 H 0.24001 0.15846 0.66508 0.0
H1934 H 0.24505 0.21794 0.63134 0.0
C1935 C 0.15669 0.19305 0.6231 0.0
C1936 C 0.18489 0.16786 0.65144 0.0
C1937 C 0.13441 0.18775 0.6167 0.0
C1938 C 0.27658 0.1787 0.67029 0.0
C1939 C 0.25429 0.17555 0.66528 0.0
C1940 C 0.22835 0.20419 0.63732 0.0
C1941 C 0.16272 0.17592 0.62798 0.0
C1942 C 0.18523 0.18115 0.63636 0.0
C1943 C 0.25098 0.19421 0.65958 0.0
C1944 C 0.22814 0.19063 0.65225 0.0
H1945 H 0.11185 0.13102 0.61768 0.0
H1946 H 0.15099 0.14014 0.62907 0.0
H1947 H 0.20778 0.21 0.61786 0.0
H1948 H 0.30745 0.23623 0.66414 0.0
H1949 H 0.26816 0.23082 0.65561 0.0
C1950 C 0.80408 0.96328 0.61605 0.0
C1951 C 0.79192 0.94207 0.62605 0.0
C1952 C 0.80671 0.98266 0.62228 0.0
C1953 C 0.80773 0.00636 0.66158 0.0
H1954 H 0.79152 0.04711 0.6332 0.0
C1955 C 0.8059 0.0817 0.6871 0.0
C1956 C 0.81382 0.10181 0.6759 0.0
C1957 C 0.80263 0.06194 0.68116 0.0
C1958 C 0.79649 0.03615 0.64123 0.0
H1959 H 0.77313 0.92442 0.65037 0.0
H1960 H 0.77831 0.95842 0.66155 0.0
H1961 H 0.78796 0.01357 0.62258 0.0
H1962 H 0.82455 0.11708 0.64966 0.0
H1963 H 0.81953 0.08293 0.6393 0.0
H1964 H 0.81688 0.0291 0.68007 0.0
C1965 C 0.78577 0.96005 0.64887 0.0
C1966 C 0.79435 0.01686 0.63514 0.0
C1967 C 0.78286 0.94064 0.64253 0.0
C1968 C 0.81818 0.10174 0.65858 0.0
C1969 C 0.81521 0.0821 0.65264 0.0
C1970 C 0.81018 0.02581 0.66761 0.0
C1971 C 0.79753 0.98124 0.63875 0.0
C1972 C 0.79993 1.00176 0.64524 0.0
C1973 C 0.80744 0.06189 0.66385 0.0
C1974 C 0.80459 0.04099 0.65752 0.0
H1975 H 0.81153 0.96482 0.6034 0.0
H1976 H 0.81612 0.9988 0.61428 0.0
H1977 H 0.81238 0.99512 0.66959 0.0
H1978 H 0.8018 0.08109 0.7004 0.0
H1979 H 0.79608 0.04665 0.69013 0.0
C1980 C 0.52449 0.41137 0.72949 0.0
C1981 C 0.53176 0.4105 0.74616 0.0
C1982 C 0.50733 0.39172 0.72344 0.0
C1983 C 0.457 0.33517 0.73815 0.0
H1984 H 0.4661 0.32134 0.69367 0.0
C1985 C 0.39249 0.24928 0.71601 0.0
C1986 C 0.38823 0.24868 0.69866 0.0
C1987 C 0.40981 0.26913 0.72171 0.0
C1988 C 0.46299 0.32505 0.70602 0.0
H1989 H 0.52721 0.38843 0.76943 0.0
H1990 H 0.49684 0.35412 0.75907 0.0
H1991 H 0.49669 0.35568 0.70352 0.0
H1992 H 0.39781 0.26879 0.67388 0.0
H1993 H 0.42756 0.30346 0.68371 0.0
H1994 H 0.42313 0.30495 0.7406 0.0
C1995 C 0.50431 0.36998 0.75067 0.0
C1996 C 0.48065 0.34475 0.71169 0.0
C1997 C 0.52168 0.38957 0.75661 0.0
C1998 C 0.40116 0.26852 0.68722 0.0
C1999 C 0.41827 0.28845 0.69292 0.0
C2000 C 0.4392 0.31562 0.73241 0.0
C2001 C 0.49683 0.37081 0.73403 0.0
C2002 C 0.47793 0.35 0.72786 0.0
C2003 C 0.42309 0.28903 0.71025 0.0
C2004 C 0.44194 0.31016 0.71628 0.0
H2005 H 0.53177 0.42735 0.72126 0.0
H2006 H 0.50182 0.39298 0.71061 0.0
H2007 H 0.45419 0.33888 0.75059 0.0
H2008 H 0.38295 0.23419 0.72513 0.0
H2009 H 0.41313 0.26864 0.7351 0.0
C2010 C 0.65093 0.20023 0.75637 0.0
C2011 C 0.62725 0.18291 0.75979 0.0
C2012 C 0.66837 0.19579 0.74983 0.0
C2013 C 0.6736 0.15476 0.72593 0.0
H2014 H 0.7401 0.18601 0.73719 0.0
C2015 C 0.74768 0.13283 0.70759 0.0
C2016 C 0.77038 0.15117 0.70233 0.0
C2017 C 0.72903 0.13653 0.71284 0.0
C2018 C 0.72162 0.17737 0.73379 0.0
H2019 H 0.60299 0.14739 0.75957 0.0
H2020 H 0.63366 0.13915 0.74897 0.0
H2021 H 0.71033 0.19191 0.75181 0.0
H2022 H 0.79121 0.18772 0.69791 0.0
H2023 H 0.75869 0.19415 0.70697 0.0
H2024 H 0.68505 0.13982 0.70817 0.0
C2025 C 0.63879 0.1563 0.75095 0.0
C2026 C 0.70456 0.18072 0.74217 0.0
C2027 C 0.62134 0.16085 0.75731 0.0
C2028 C 0.77385 0.17325 0.70169 0.0
C2029 C 0.7553 0.17695 0.70702 0.0
C2030 C 0.69067 0.15122 0.71767 0.0
C2031 C 0.66238 0.17384 0.74671 0.0
C2032 C 0.68036 0.16954 0.7383 0.0
C2033 C 0.73299 0.15864 0.71317 0.0
C2034 C 0.71483 0.16262 0.72146 0.0
H2035 H 0.6556 0.21738 0.75805 0.0
H2036 H 0.68626 0.20976 0.74653 0.0
H2037 H 0.65519 0.1462 0.7224 0.0
H2038 H 0.74471 0.11568 0.70833 0.0
H2039 H 0.71199 0.12213 0.7176 0.0
C2040 C 0.90976 0.49308 0.75073 0.0
C2041 C 0.88988 0.47135 0.75186 0.0
C2042 C 0.90699 0.51224 0.74616 0.0
C2043 C 0.86997 0.52986 0.72075 0.0
H2044 H 0.89265 0.58114 0.74571 0.0
C2045 C 0.84464 0.59985 0.70248 0.0
C2046 C 0.86106 0.62223 0.70451 0.0
C2047 C 0.84896 0.58212 0.70876 0.0
C2048 C 0.88656 0.56717 0.73839 0.0
H2049 H 0.85145 0.45258 0.75008 0.0
H2050 H 0.84666 0.48596 0.74151 0.0
H2051 H 0.89907 0.54919 0.75615 0.0
H2052 H 0.89497 0.64355 0.71473 0.0
H2053 H 0.90303 0.61267 0.72517 0.0
H2054 H 0.8582 0.54777 0.70266 0.0
C2055 C 0.86437 0.4882 0.74411 0.0
C2056 C 0.89014 0.54882 0.74447 0.0
C2057 C 0.86709 0.46915 0.74896 0.0
C2058 C 0.88193 0.62647 0.71301 0.0
C2059 C 0.88646 0.6087 0.71909 0.0
C2060 C 0.86678 0.5483 0.71451 0.0
C2061 C 0.88434 0.50992 0.7424 0.0
C2062 C 0.88155 0.52986 0.73582 0.0
C2063 C 0.87003 0.58624 0.71702 0.0
C2064 C 0.87467 0.56711 0.72336 0.0
H2065 H 0.92755 0.4952 0.75275 0.0
H2066 H 0.92268 0.52881 0.74487 0.0
H2067 H 0.86355 0.51561 0.71367 0.0
H2068 H 0.82819 0.59592 0.69622 0.0
H2069 H 0.83551 0.5651 0.70728 0.0
C2070 C 0.43554 0.87347 0.25141 0.0
C2071 C 0.43232 0.85151 0.25214 0.0
C2072 C 0.44789 0.88958 0.23742 0.0
C2073 C 0.48941 0.90378 0.19992 0.0
H2074 H 0.45946 0.93966 0.18277 0.0
C2075 C 0.53426 0.98041 0.14662 0.0
C2076 C 0.51924 0.98265 0.13438 0.0
C2077 C 0.52456 0.96408 0.16099 0.0
C2078 C 0.46798 0.92969 0.1873 0.0
H2079 H 0.44042 0.82925 0.2396 0.0
H2080 H 0.46199 0.85748 0.21467 0.0
H2081 H 0.44133 0.91165 0.20776 0.0
H2082 H 0.48223 0.96961 0.12772 0.0
H2083 H 0.46541 0.94096 0.15253 0.0
H2084 H 0.51584 0.92167 0.17912 0.0
C2085 C 0.45498 0.86226 0.22494 0.0
C2086 C 0.45775 0.91381 0.20177 0.0
C2087 C 0.44262 0.84612 0.23907 0.0
C2088 C 0.49434 0.96819 0.13681 0.0
C2089 C 0.48467 0.95192 0.15113 0.0
C2090 C 0.4997 0.91976 0.18539 0.0
C2091 C 0.45727 0.88404 0.22382 0.0
C2092 C 0.46836 0.90072 0.2083 0.0
C2093 C 0.49963 0.94972 0.16343 0.0
C2094 C 0.48905 0.93286 0.17892 0.0
H2095 H 0.42827 0.87804 0.26167 0.0
H2096 H 0.44991 0.90635 0.23718 0.0
H2097 H 0.49806 0.89403 0.20471 0.0
H2098 H 0.55354 0.99115 0.14502 0.0
H2099 H 0.53653 0.96293 0.17031 0.0
C2100 C 0.08137 0.52959 0.25654 0.0
C2101 C 0.10313 0.54965 0.25631 0.0
C2102 C 0.07158 0.52209 0.24123 0.0
C2103 C 0.07119 0.54721 0.1981 0.0
H2104 H 0.03662 0.48573 0.18776 0.0
C2105 C 0.00363 0.52174 0.14608 0.0
C2106 C 0.00569 0.5086 0.13449 0.0
C2107 C 0.01667 0.52552 0.16063 0.0
C2108 C 0.04636 0.50298 0.19046 0.0
H2109 H 0.1327 0.57665 0.24037 0.0
H2110 H 0.11591 0.56358 0.2136 0.0
H2111 H 0.05837 0.49353 0.21387 0.0
H2112 H 0.02279 0.48883 0.12916 0.0
H2113 H 0.04549 0.49526 0.15485 0.0
H2114 H 0.05888 0.55668 0.17501 0.0
C2115 C 0.10615 0.55375 0.22548 0.0
C2116 C 0.05866 0.50742 0.20542 0.0
C2117 C 0.11586 0.56114 0.24072 0.0
C2118 C 0.02096 0.49914 0.13784 0.0
C2119 C 0.03379 0.50266 0.15257 0.0
C2120 C 0.05869 0.54275 0.18335 0.0
C2121 C 0.08345 0.53467 0.22553 0.0
C2122 C 0.07119 0.52961 0.20939 0.0
C2123 C 0.03189 0.51604 0.16404 0.0
C2124 C 0.046 0.5206 0.1794 0.0
H2125 H 0.07123 0.52067 0.26848 0.0
H2126 H 0.05403 0.50736 0.24167 0.0
H2127 H 0.08038 0.56445 0.2009 0.0
H2128 H 0.99215 0.52939 0.14378 0.0
H2129 H 0.01472 0.53578 0.1693 0.0
C2130 C 0.43834 0.55096 0.24995 0.0
C2131 C 0.45475 0.554 0.26255 0.0
C2132 C 0.44023 0.54242 0.2351 0.0
C2133 C 0.48686 0.54139 0.20864 0.0
H2134 H 0.43477 0.49723 0.18591 0.0
C2135 C 0.50554 0.50387 0.15309 0.0
C2136 C 0.49008 0.49833 0.13968 0.0
C2137 C 0.50003 0.51078 0.16756 0.0
C2138 C 0.4495 0.50985 0.19194 0.0
H2139 H 0.48464 0.54901 0.27032 0.0
H2140 H 0.48805 0.53409 0.24451 0.0
H2141 H 0.42622 0.50745 0.21265 0.0
H2142 H 0.45677 0.49622 0.13098 0.0
H2143 H 0.44746 0.50899 0.15611 0.0
H2144 H 0.51014 0.54428 0.18801 0.0
C2145 C 0.47399 0.53861 0.24585 0.0
C2146 C 0.44457 0.51561 0.20732 0.0
C2147 C 0.47198 0.54698 0.26065 0.0
C2148 C 0.46918 0.50047 0.14099 0.0
C2149 C 0.46368 0.50751 0.15552 0.0
C2150 C 0.49174 0.53584 0.19327 0.0
C2151 C 0.45868 0.53695 0.23263 0.0
C2152 C 0.46329 0.53116 0.21599 0.0
C2153 C 0.479 0.51265 0.16906 0.0
C2154 C 0.47323 0.51969 0.18482 0.0
H2155 H 0.42504 0.55645 0.25118 0.0
H2156 H 0.42815 0.54132 0.22517 0.0
H2157 H 0.50162 0.55387 0.21476 0.0
H2158 H 0.52198 0.5028 0.15247 0.0
H2159 H 0.51215 0.51424 0.17774 0.0
C2160 C 0.94097 0.46738 0.78245 0.0
C2161 C 0.91667 0.46055 0.78025 0.0
C2162 C 0.95148 0.4765 0.79702 0.0
C2163 C 0.94655 0.50247 0.8337 0.0
H2164 H 0.98038 0.47258 0.85549 0.0
C2165 C 0.98661 0.52016 0.89976 0.0
C2166 C 0.00924 0.52136 0.90154 0.0
C2167 C 0.97394 0.51288 0.88529 0.0
C2168 C 0.97128 0.48134 0.84951 0.0
H2169 H 0.88456 0.45917 0.79077 0.0
H2170 H 0.9031 0.4756 0.81644 0.0
H2171 H 0.96167 0.4615 0.82906 0.0
H2172 H 0.03595 0.51532 0.88958 0.0
H2173 H 0.01443 0.50347 0.86431 0.0
H2174 H 0.95666 0.52266 0.85406 0.0
C2175 C 0.91397 0.47376 0.80689 0.0
C2176 C 0.96051 0.47493 0.83436 0.0
C2177 C 0.90339 0.46447 0.79227 0.0
C2178 C 0.01876 0.51495 0.88857 0.0
C2179 C 0.0062 0.50781 0.87414 0.0
C2180 C 0.95758 0.50907 0.84886 0.0
C2181 C 0.93789 0.47909 0.80967 0.0
C2182 C 0.94833 0.48563 0.82615 0.0
C2183 C 0.9836 0.5066 0.87229 0.0
C2184 C 0.9704 0.49879 0.85681 0.0
H2185 H 0.9515 0.46465 0.7732 0.0
H2186 H 0.97008 0.48086 0.79866 0.0
H2187 H 0.93724 0.51096 0.82763 0.0
H2188 H 0.97882 0.52515 0.90942 0.0
H2189 H 0.95649 0.51198 0.88436 0.0
C2190 C 0.58056 0.46962 0.7965 0.0
C2191 C 0.56786 0.47158 0.78252 0.0
C2192 C 0.57847 0.47742 0.81166 0.0
C2193 C 0.55272 0.51016 0.8308 0.0
H2194 H 0.54723 0.47094 0.8722 0.0
C2195 C 0.50027 0.50461 0.89181 0.0
C2196 C 0.5122 0.50745 0.90705 0.0
C2197 C 0.51015 0.50191 0.87711 0.0
C2198 C 0.54897 0.48218 0.86077 0.0
H2199 H 0.54407 0.48404 0.77291 0.0
H2200 H 0.53987 0.49733 0.79922 0.0
H2201 H 0.56006 0.46468 0.84529 0.0
H2202 H 0.54374 0.50868 0.91864 0.0
H2203 H 0.56041 0.50291 0.89301 0.0
H2204 H 0.54027 0.52678 0.84626 0.0
C2205 C 0.55191 0.49027 0.79867 0.0
C2206 C 0.55649 0.47873 0.8453 0.0
C2207 C 0.55425 0.48269 0.78353 0.0
C2208 C 0.53386 0.50641 0.90727 0.0
C2209 C 0.54354 0.50325 0.89255 0.0
C2210 C 0.54481 0.51333 0.84619 0.0
C2211 C 0.5634 0.48716 0.81318 0.0
C2212 C 0.55807 0.49242 0.82999 0.0
C2213 C 0.53199 0.50142 0.87724 0.0
C2214 C 0.54248 0.49917 0.86129 0.0
H2215 H 0.591 0.46091 0.79595 0.0
H2216 H 0.58806 0.47514 0.82235 0.0
H2217 H 0.55426 0.52148 0.81948 0.0
H2218 H 0.48319 0.50452 0.89115 0.0
H2219 H 0.50058 0.50005 0.8656 0.0
C2220 C 0.60819 0.16695 0.80204 0.0
C2221 C 0.59133 0.16163 0.78964 0.0
C2222 C 0.6053 0.15057 0.81569 0.0
C2223 C 0.57019 0.0887 0.83112 0.0
H2224 H 0.57623 0.10842 0.87552 0.0
C2225 C 0.53832 0.02517 0.89303 0.0
C2226 C 0.52603 0.02952 0.90553 0.0
C2227 C 0.55061 0.04144 0.87899 0.0
C2228 C 0.57438 0.10261 0.86322 0.0
H2229 H 0.55952 0.13507 0.78072 0.0
H2230 H 0.55394 0.10662 0.80459 0.0
H2231 H 0.59057 0.13634 0.85018 0.0
H2232 H 0.51655 0.05407 0.91297 0.0
H2233 H 0.53741 0.08217 0.88837 0.0
H2234 H 0.5526 0.05493 0.84408 0.0
C2235 C 0.56947 0.1232 0.80397 0.0
C2236 C 0.58297 0.11867 0.84868 0.0
C2237 C 0.5724 0.13952 0.79043 0.0
C2238 C 0.52615 0.05037 0.90365 0.0
C2239 C 0.53826 0.06654 0.8896 0.0
C2240 C 0.56144 0.07265 0.84565 0.0
C2241 C 0.58557 0.12861 0.81699 0.0
C2242 C 0.58032 0.11187 0.83242 0.0
C2243 C 0.55071 0.06233 0.8771 0.0
C2244 C 0.56279 0.07939 0.86185 0.0
H2245 H 0.62304 0.18393 0.80144 0.0
H2246 H 0.61821 0.15519 0.82539 0.0
H2247 H 0.56827 0.08291 0.8188 0.0
H2248 H 0.53876 0.00934 0.89427 0.0
H2249 H 0.56021 0.03772 0.8697 0.0
C2250 C 0.11421 0.17766 0.57195 0.0
C2251 C 0.10371 0.18446 0.58391 0.0
C2252 C 0.12873 0.19313 0.55812 0.0
C2253 C 0.16336 0.25432 0.54242 0.0
H2254 H 0.14643 0.23587 0.49782 0.0
C2255 C 0.20729 0.31543 0.48003 0.0
C2256 C 0.19102 0.31526 0.46793 0.0
C2257 C 0.19971 0.29869 0.49417 0.0
C2258 C 0.15142 0.24123 0.5102 0.0
H2259 H 0.10105 0.21259 0.5917 0.0
H2260 H 0.12627 0.23968 0.5676 0.0
H2261 H 0.12841 0.20807 0.52318 0.0
H2262 H 0.15387 0.29755 0.46144 0.0
H2263 H 0.14079 0.26836 0.48592 0.0
H2264 H 0.18564 0.28766 0.52946 0.0
C2265 C 0.12336 0.22252 0.56873 0.0
C2266 C 0.1413 0.22527 0.5247 0.0
C2267 C 0.10872 0.20705 0.58237 0.0
C2268 C 0.16702 0.29796 0.4703 0.0
C2269 C 0.1595 0.28119 0.48434 0.0
C2270 C 0.17359 0.27025 0.52792 0.0
C2271 C 0.13322 0.21567 0.55629 0.0
C2272 C 0.14669 0.23178 0.54097 0.0
C2273 C 0.17573 0.28137 0.49643 0.0
C2274 C 0.16723 0.26399 0.51167 0.0
H2275 H 0.11061 0.16029 0.57312 0.0
H2276 H 0.13626 0.18744 0.54879 0.0
H2277 H 0.16801 0.25976 0.55481 0.0
H2278 H 0.22597 0.32833 0.47848 0.0
H2279 H 0.21264 0.29917 0.50325 0.0
C2280 C 0.78074 0.88509 0.57466 0.0
C2281 C 0.76662 0.88158 0.58938 0.0
C2282 C 0.76999 0.87636 0.55997 0.0
C2283 C 0.71031 0.83918 0.54305 0.0
H2284 H 0.74091 0.87845 0.50084 0.0
C2285 C 0.66065 0.84067 0.48218 0.0
C2286 C 0.67021 0.83819 0.46705 0.0
C2287 C 0.67318 0.84375 0.49696 0.0
C2288 C 0.7323 0.86721 0.51252 0.0
H2289 H 0.7305 0.86634 0.60061 0.0
H2290 H 0.71136 0.85171 0.57491 0.0
H2291 H 0.76128 0.88709 0.52711 0.0
H2292 H 0.7009 0.83721 0.45591 0.0
H2293 H 0.72325 0.84383 0.48158 0.0
H2294 H 0.68065 0.82023 0.52835 0.0
C2295 C 0.73077 0.86033 0.57465 0.0
C2296 C 0.74403 0.87202 0.52762 0.0
C2297 C 0.74163 0.86867 0.58943 0.0
C2298 C 0.693 0.83939 0.46713 0.0
C2299 C 0.70578 0.84299 0.48187 0.0
C2300 C 0.6984 0.83469 0.52799 0.0
C2301 C 0.74477 0.86453 0.55953 0.0
C2302 C 0.73311 0.85821 0.54319 0.0
C2303 C 0.69586 0.84497 0.49695 0.0
C2304 C 0.7092 0.84879 0.51263 0.0
H2305 H 0.80006 0.89543 0.57436 0.0
H2306 H 0.78149 0.87955 0.5488 0.0
H2307 H 0.70146 0.82781 0.5546 0.0
H2308 H 0.64354 0.84052 0.48263 0.0
H2309 H 0.66533 0.84561 0.50837 0.0
C2310 C 0.10412 0.88468 0.58399 0.0
C2311 C 0.12063 0.88786 0.59653 0.0
C2312 C 0.10599 0.8761 0.56915 0.0
C2313 C 0.1527 0.87563 0.54254 0.0
H2314 H 0.10098 0.83052 0.52019 0.0
C2315 C 0.17223 0.83806 0.48746 0.0
C2316 C 0.15671 0.83201 0.47411 0.0
C2317 C 0.16653 0.84503 0.50181 0.0
C2318 C 0.11559 0.84342 0.52611 0.0
H2319 H 0.15066 0.88306 0.60424 0.0
H2320 H 0.15406 0.86812 0.57843 0.0
H2321 H 0.09224 0.84076 0.54688 0.0
H2322 H 0.12311 0.82911 0.46535 0.0
H2323 H 0.11345 0.84198 0.4903 0.0
H2324 H 0.17604 0.87879 0.52186 0.0
C2325 C 0.13992 0.87253 0.57981 0.0
C2326 C 0.11056 0.84917 0.54145 0.0
C2327 C 0.13793 0.88092 0.5946 0.0
C2328 C 0.13555 0.83374 0.47534 0.0
C2329 C 0.12986 0.84084 0.48976 0.0
C2330 C 0.15768 0.87009 0.52719 0.0
C2331 C 0.12452 0.87076 0.56664 0.0
C2332 C 0.12917 0.86504 0.54999 0.0
C2333 C 0.14525 0.84647 0.50325 0.0
C2334 C 0.13931 0.85359 0.5189 0.0
H2335 H 0.09077 0.89009 0.58523 0.0
H2336 H 0.09385 0.87491 0.55924 0.0
H2337 H 0.16736 0.88835 0.54857 0.0
H2338 H 0.18887 0.83732 0.48689 0.0
H2339 H 0.17872 0.84887 0.51196 0.0
C2340 C 0.59283 0.80974 0.11597 0.0
C2341 C 0.57198 0.78872 0.11717 0.0
C2342 C 0.60272 0.81905 0.13072 0.0
C2343 C 0.60661 0.79978 0.17486 0.0
H2344 H 0.63564 0.86297 0.181 0.0
C2345 C 0.67602 0.83783 0.22438 0.0
C2346 C 0.67259 0.85152 0.23476 0.0
C2347 C 0.66222 0.83082 0.21041 0.0
C2348 C 0.62746 0.84525 0.17948 0.0
H2349 H 0.544 0.76176 0.1343 0.0
H2350 H 0.56128 0.77784 0.16014 0.0
H2351 H 0.61326 0.85024 0.15573 0.0
H2352 H 0.65221 0.86884 0.23856 0.0
H2353 H 0.62817 0.85678 0.21388 0.0
H2354 H 0.62117 0.7948 0.19833 0.0
C2355 C 0.57021 0.78702 0.1479 0.0
C2356 C 0.6148 0.83802 0.165 0.0
C2357 C 0.5603 0.77785 0.13318 0.0
C2358 C 0.65513 0.8582 0.23081 0.0
C2359 C 0.64153 0.85144 0.21666 0.0
C2360 C 0.6195 0.80705 0.18916 0.0
C2361 C 0.59193 0.80738 0.14686 0.0
C2362 C 0.60432 0.8152 0.16253 0.0
C2363 C 0.64485 0.83757 0.20639 0.0
C2364 C 0.6302 0.82987 0.19157 0.0
H2365 H 0.60214 0.81829 0.10372 0.0
H2366 H 0.61952 0.83472 0.12953 0.0
H2367 H 0.59899 0.78215 0.17322 0.0
H2368 H 0.68921 0.83229 0.22719 0.0
H2369 H 0.66528 0.82027 0.20264 0.0
C2370 C 0.23814 0.79249 0.13287 0.0
C2371 C 0.23643 0.80329 0.11713 0.0
C2372 C 0.2353 0.79977 0.14806 0.0
C2373 C 0.20543 0.82962 0.16439 0.0
H2374 H 0.23319 0.82133 0.20641 0.0
C2375 C 0.1626 0.82698 0.22891 0.0
C2376 C 0.17758 0.83735 0.24178 0.0
C2377 C 0.17203 0.82411 0.21406 0.0
C2378 C 0.22542 0.82399 0.19478 0.0
H2379 H 0.23117 0.83053 0.10481 0.0
H2380 H 0.22745 0.84418 0.1312 0.0
H2381 H 0.24796 0.81645 0.17969 0.0
H2382 H 0.21425 0.85233 0.24926 0.0
H2383 H 0.23088 0.84757 0.22318 0.0
H2384 H 0.18319 0.83751 0.17931 0.0
C2385 C 0.23057 0.82979 0.13194 0.0
C2386 C 0.23374 0.82096 0.17943 0.0
C2387 C 0.23323 0.82234 0.11676 0.0
C2388 C 0.20221 0.84417 0.23963 0.0
C2389 C 0.21172 0.84143 0.22466 0.0
C2390 C 0.19723 0.83274 0.17966 0.0
C2391 C 0.23066 0.81808 0.14785 0.0
C2392 C 0.22363 0.82343 0.16402 0.0
C2393 C 0.19679 0.83167 0.21153 0.0
C2394 C 0.20677 0.82959 0.19515 0.0
H2395 H 0.24009 0.77746 0.1334 0.0
H2396 H 0.23522 0.79008 0.15995 0.0
H2397 H 0.19688 0.83139 0.15293 0.0
H2398 H 0.14347 0.82111 0.23029 0.0
H2399 H 0.15979 0.81592 0.20453 0.0
C2400 C 0.27622 0.49884 0.13674 0.0
C2401 C 0.25915 0.494 0.1245 0.0
C2402 C 0.2731 0.48223 0.15027 0.0
C2403 C 0.23684 0.42044 0.1655 0.0
H2404 H 0.24376 0.43985 0.21006 0.0
C2405 C 0.20425 0.35654 0.22725 0.0
C2406 C 0.19223 0.36111 0.23979 0.0
C2407 C 0.2167 0.37278 0.21322 0.0
C2408 C 0.24168 0.43413 0.19771 0.0
H2409 H 0.22667 0.46808 0.11576 0.0
H2410 H 0.22074 0.43922 0.1394 0.0
H2411 H 0.25851 0.46796 0.18482 0.0
H2412 H 0.18337 0.38602 0.24732 0.0
H2413 H 0.20454 0.41408 0.22277 0.0
H2414 H 0.21865 0.3866 0.17832 0.0
C2415 C 0.2366 0.45559 0.13875 0.0
C2416 C 0.2505 0.45028 0.18323 0.0
C2417 C 0.23974 0.47214 0.12534 0.0
C2418 C 0.19275 0.38214 0.23797 0.0
C2419 C 0.20504 0.39828 0.22394 0.0
C2420 C 0.22789 0.40429 0.17997 0.0
C2421 C 0.25294 0.46053 0.1516 0.0
C2422 C 0.24751 0.44361 0.16693 0.0
C2423 C 0.21725 0.39387 0.21141 0.0
C2424 C 0.22956 0.41094 0.19622 0.0
H2425 H 0.29142 0.51562 0.13611 0.0
H2426 H 0.28617 0.48648 0.15985 0.0
H2427 H 0.23464 0.41474 0.15313 0.0
H2428 H 0.20438 0.34057 0.22844 0.0
H2429 H 0.22608 0.3689 0.20389 0.0
C2430 C 0.7879 0.53478 0.91861 0.0
C2431 C 0.76973 0.51256 0.91812 0.0
C2432 C 0.80032 0.54865 0.90364 0.0
C2433 C 0.78841 0.55933 0.86074 0.0
H2434 H 0.85721 0.59699 0.85203 0.0
C2435 C 0.82681 0.62315 0.8 0.0
C2436 C 0.84755 0.64391 0.80087 0.0
C2437 C 0.81912 0.60558 0.81346 0.0
C2438 C 0.83795 0.58683 0.85434 0.0
H2439 H 0.75045 0.48711 0.9019 0.0
H2440 H 0.77167 0.51169 0.8754 0.0
H2441 H 0.8414 0.5686 0.87727 0.0
H2442 H 0.87654 0.66214 0.81679 0.0
H2443 H 0.86216 0.63216 0.84072 0.0
H2444 H 0.78451 0.57822 0.83871 0.0
C2445 C 0.77666 0.51816 0.88744 0.0
C2446 C 0.82897 0.57043 0.8687 0.0
C2447 C 0.76461 0.50416 0.90249 0.0
C2448 C 0.8603 0.64658 0.81568 0.0
C2449 C 0.85227 0.62914 0.82934 0.0
C2450 C 0.7973 0.57599 0.84663 0.0
C2451 C 0.79426 0.54067 0.88789 0.0
C2452 C 0.80413 0.55661 0.87201 0.0
C2453 C 0.8315 0.6084 0.82844 0.0
C2454 C 0.82221 0.59008 0.84323 0.0
H2455 H 0.79146 0.54188 0.93043 0.0
H2456 H 0.81351 0.56606 0.90426 0.0
H2457 H 0.76914 0.54914 0.86323 0.0
H2458 H 0.81612 0.62043 0.78903 0.0
H2459 H 0.80334 0.58979 0.81206 0.0
C2460 C 0.40872 0.20622 0.92278 0.0
C2461 C 0.43362 0.21559 0.92368 0.0
C2462 C 0.39778 0.19754 0.90814 0.0
C2463 C 0.4125 0.20319 0.86197 0.0
H2464 H 0.34604 0.15658 0.86305 0.0
C2465 C 0.36057 0.17171 0.80153 0.0
C2466 C 0.33835 0.17167 0.80109 0.0
C2467 C 0.37322 0.17529 0.81634 0.0
C2468 C 0.36463 0.16961 0.86257 0.0
H2469 H 0.46673 0.22312 0.91033 0.0
H2470 H 0.44764 0.2068 0.88496 0.0
H2471 H 0.36625 0.16412 0.88951 0.0
H2472 H 0.31268 0.17625 0.81595 0.0
H2473 H 0.33428 0.18156 0.84177 0.0
H2474 H 0.41071 0.20838 0.8349 0.0
C2475 C 0.43645 0.20643 0.8954 0.0
C2476 C 0.37623 0.17404 0.87774 0.0
C2477 C 0.44739 0.21536 0.91002 0.0
C2478 C 0.32933 0.1755 0.81584 0.0
C2479 C 0.34175 0.17867 0.83067 0.0
C2480 C 0.40098 0.19848 0.84676 0.0
C2481 C 0.41155 0.19797 0.89406 0.0
C2482 C 0.40016 0.19129 0.87772 0.0
C2483 C 0.36377 0.17853 0.8311 0.0
C2484 C 0.37678 0.182 0.84696 0.0
H2485 H 0.39797 0.20679 0.93309 0.0
H2486 H 0.3787 0.19165 0.90759 0.0
H2487 H 0.43078 0.21682 0.86136 0.0
H2488 H 0.36801 0.16854 0.79057 0.0
H2489 H 0.39016 0.17505 0.81636 0.0
C2490 C 0.80622 0.21452 0.92661 0.0
C2491 C 0.78862 0.22093 0.92909 0.0
C2492 C 0.80777 0.20608 0.91174 0.0
C2493 C 0.77686 0.18181 0.87404 0.0
H2494 H 0.84177 0.21144 0.85336 0.0
C2495 C 0.8001 0.16546 0.80768 0.0
C2496 C 0.82113 0.16355 0.8063 0.0
C2497 C 0.79478 0.17282 0.8221 0.0
C2498 C 0.82356 0.20276 0.859 0.0
H2499 H 0.75784 0.22227 0.91863 0.0
H2500 H 0.7602 0.20706 0.89246 0.0
H2501 H 0.83391 0.22148 0.8801 0.0
H2502 H 0.85344 0.16876 0.81881 0.0
H2503 H 0.84399 0.18088 0.84386 0.0
H2504 H 0.76663 0.16275 0.85299 0.0
C2505 C 0.77289 0.20866 0.90203 0.0
C2506 C 0.81905 0.20856 0.87436 0.0
C2507 C 0.77144 0.21725 0.91697 0.0
C2508 C 0.8369 0.16967 0.8195 0.0
C2509 C 0.83161 0.17694 0.83384 0.0
C2510 C 0.78142 0.17583 0.85865 0.0
C2511 C 0.79166 0.20379 0.89899 0.0
C2512 C 0.79575 0.19794 0.88223 0.0
C2513 C 0.81044 0.17857 0.83542 0.0
C2514 C 0.80493 0.18599 0.85106 0.0
H2515 H 0.81953 0.21712 0.93588 0.0
H2516 H 0.82211 0.20203 0.90997 0.0
H2517 H 0.75871 0.17335 0.87978 0.0
H2518 H 0.78747 0.16078 0.79781 0.0
H2519 H 0.77844 0.17408 0.82278 0.0
C2520 C 0.23493 0.13154 0.45861 0.0
C2521 C 0.2482 0.12605 0.4478 0.0
C2522 C 0.24535 0.14248 0.47269 0.0
C2523 C 0.30442 0.17441 0.49115 0.0
H2524 H 0.26759 0.14986 0.53455 0.0
C2525 C 0.34968 0.18436 0.55431 0.0
C2526 C 0.34055 0.19068 0.56757 0.0
C2527 C 0.33729 0.17845 0.53963 0.0
C2528 C 0.27799 0.15711 0.52249 0.0
H2529 H 0.28264 0.12823 0.44256 0.0
H2530 H 0.30089 0.14704 0.46706 0.0
H2531 H 0.2481 0.13709 0.50843 0.0
H2532 H 0.31076 0.19523 0.5758 0.0
H2533 H 0.2888 0.18434 0.55019 0.0
H2534 H 0.33449 0.19379 0.50523 0.0
C2535 C 0.2826 0.14325 0.46478 0.0
C2536 C 0.26682 0.14986 0.50751 0.0
C2537 C 0.27218 0.13235 0.45082 0.0
C2538 C 0.31826 0.19028 0.56593 0.0
C2539 C 0.30571 0.18414 0.55124 0.0
C2540 C 0.31558 0.1815 0.50608 0.0
C2541 C 0.26924 0.14817 0.47606 0.0
C2542 C 0.28007 0.15803 0.4917 0.0
C2543 C 0.3153 0.17847 0.53784 0.0
C2544 C 0.30264 0.17255 0.52195 0.0
H2545 H 0.21634 0.1267 0.45646 0.0
H2546 H 0.23464 0.14621 0.48104 0.0
H2547 H 0.31504 0.18144 0.47916 0.0
H2548 H 0.36644 0.18386 0.55527 0.0
H2549 H 0.34488 0.17366 0.52969 0.0
C2550 C 0.91306 0.13509 0.46251 0.0
C2551 C 0.9013 0.13778 0.44815 0.0
C2552 C 0.90989 0.14212 0.4778 0.0
C2553 C 0.86258 0.14464 0.50067 0.0
H2554 H 0.90975 0.18165 0.53023 0.0
C2555 C 0.83342 0.17111 0.55849 0.0
C2556 C 0.84657 0.17473 0.57314 0.0
C2557 C 0.84163 0.16685 0.54377 0.0
C2558 C 0.89631 0.17093 0.5223 0.0
H2559 H 0.87836 0.15099 0.43795 0.0
H2560 H 0.87257 0.16316 0.46463 0.0
H2561 H 0.923 0.17561 0.50325 0.0
H2562 H 0.87864 0.17598 0.58372 0.0
H2563 H 0.89241 0.16739 0.55824 0.0
H2564 H 0.83587 0.13898 0.51966 0.0
C2565 C 0.88428 0.15573 0.46415 0.0
C2566 C 0.90396 0.16765 0.50678 0.0
C2567 C 0.88776 0.14902 0.44888 0.0
C2568 C 0.86791 0.17318 0.57276 0.0
C2569 C 0.87601 0.16858 0.558 0.0
C2570 C 0.85496 0.14751 0.51624 0.0
C2571 C 0.89461 0.15161 0.47892 0.0
C2572 C 0.88712 0.15482 0.49567 0.0
C2573 C 0.86305 0.1655 0.54322 0.0
C2574 C 0.87163 0.1611 0.52719 0.0
H2575 H 0.92329 0.12615 0.46221 0.0
H2576 H 0.918 0.13869 0.489 0.0
H2577 H 0.84921 0.13422 0.49254 0.0
H2578 H 0.81665 0.17164 0.55829 0.0
H2579 H 0.83123 0.16502 0.53269 0.0
C2580 C 0.90565 0.80339 0.45672 0.0
C2581 C 0.92486 0.82539 0.45565 0.0
C2582 C 0.90283 0.78715 0.47029 0.0
C2583 C 0.91727 0.78302 0.51476 0.0
H2584 H 0.88582 0.7191 0.51069 0.0
C2585 C 0.86044 0.71568 0.57026 0.0
C2586 C 0.85993 0.69465 0.57224 0.0
C2587 C 0.8726 0.73165 0.55612 0.0
C2588 C 0.89496 0.73686 0.51211 0.0
H2589 H 0.95711 0.84758 0.46699 0.0
H2590 H 0.95246 0.81897 0.491 0.0
H2591 H 0.90136 0.74673 0.4852 0.0
H2592 H 0.87208 0.67398 0.56107 0.0
H2593 H 0.89359 0.70201 0.53634 0.0
H2594 H 0.9109 0.77317 0.54166 0.0
C2595 C 0.93929 0.81437 0.48148 0.0
C2596 C 0.90365 0.75272 0.49746 0.0
C2597 C 0.94208 0.83067 0.46779 0.0
C2598 C 0.87192 0.68995 0.55976 0.0
C2599 C 0.88426 0.70602 0.54562 0.0
C2600 C 0.90873 0.76716 0.52942 0.0
C2601 C 0.9193 0.79254 0.48307 0.0
C2602 C 0.91417 0.77597 0.49859 0.0
C2603 C 0.88472 0.72707 0.54362 0.0
C2604 C 0.89676 0.74388 0.52824 0.0
H2605 H 0.89244 0.79901 0.44724 0.0
H2606 H 0.88709 0.77067 0.47114 0.0
H2607 H 0.92517 0.80076 0.51612 0.0
H2608 H 0.85108 0.71966 0.57955 0.0
H2609 H 0.87204 0.74742 0.55481 0.0
loop_
_geom_bond_atom_site_label_1
_geom_bond_atom_site_label_2
_geom_bond_distance
_geom_bond_site_symmetry_2
_ccdc_geom_bond_type
C0 N1 1.317 . S
C0 N2 1.348 . S
C0 C3 1.485 . S
N1 C0 1.317 . S
N1 N5 1.370 . S
N2 C0 1.348 . S
N2 C4 1.346 . S
C3 C0 1.485 . S
C3 H7 0.960 . S
C3 H8 0.961 . S
C3 H9 0.960 . S
C4 N2 1.346 . S
C4 N5 1.307 . S
C4 C6 1.486 . S
N5 N1 1.370 . S
N5 C4 1.307 . S
C6 C4 1.486 . S
C6 H10 0.960 . S
C6 H11 0.960 . S
C6 H12 0.959 . S
H7 C3 0.960 . S
H8 C3 0.961 . S
H9 C3 0.960 . S
H10 C6 0.960 . S
H11 C6 0.960 . S
H12 C6 0.959 . S
C13 N14 1.317 . S
C13 N15 1.348 . S
C13 C16 1.485 . S
N14 C13 1.317 . S
N14 N18 1.370 . S
N15 C13 1.348 . S
N15 C17 1.346 . S
C16 C13 1.485 . S
C16 H20 0.960 . S
C16 H21 0.961 . S
C16 H22 0.960 . S
C17 N15 1.346 . S
C17 N18 1.307 . S
C17 C19 1.486 . S
N18 N14 1.370 . S
N18 C17 1.307 . S
C19 C17 1.486 . S
C19 H23 0.960 . S
C19 H24 0.960 . S
C19 H25 0.959 . S
H20 C16 0.960 . S
H21 C16 0.961 . S
H22 C16 0.960 . S
H23 C19 0.960 . S
H24 C19 0.960 . S
H25 C19 0.959 . S
C26 N27 1.317 . S
C26 N28 1.348 . S
C26 C29 1.485 . S
N27 C26 1.317 . S
N27 N31 1.370 . S
N28 C26 1.348 . S
N28 C30 1.346 . S
C29 C26 1.485 . S
C29 H33 0.960 . S
C29 H34 0.961 . S
C29 H35 0.960 . S
C30 N28 1.346 . S
C30 N31 1.307 . S
C30 C32 1.486 . S
N31 N27 1.370 . S
N31 C30 1.307 . S
C32 C30 1.486 . S
C32 H36 0.960 . S
C32 H37 0.960 . S
C32 H38 0.959 . S
H33 C29 0.960 . S
H34 C29 0.961 . S
H35 C29 0.960 . S
H36 C32 0.960 . S
H37 C32 0.960 . S
H38 C32 0.959 . S
C39 N40 1.317 . S
C39 N41 1.348 . S
C39 C42 1.485 . S
N40 C39 1.317 . S
N40 N44 1.370 . S
N41 C39 1.348 . S
N41 C43 1.346 . S
C42 C39 1.485 . S
C42 H46 0.960 . S
C42 H47 0.961 . S
C42 H48 0.960 . S
C43 N41 1.346 . S
C43 N44 1.307 . S
C43 C45 1.486 . S
N44 N40 1.370 . S
N44 C43 1.307 . S
C45 C43 1.486 . S
C45 H49 0.960 . S
C45 H50 0.960 . S
C45 H51 0.959 . S
H46 C42 0.960 . S
H47 C42 0.961 . S
H48 C42 0.960 . S
H49 C45 0.960 . S
H50 C45 0.960 . S
H51 C45 0.959 . S
C52 N53 1.317 . S
C52 N54 1.348 . S
C52 C55 1.485 . S
N53 C52 1.317 . S
N53 N57 1.370 . S
N54 C52 1.348 . S
N54 C56 1.346 . S
C55 C52 1.485 . S
C55 H59 0.960 . S
C55 H60 0.961 . S
C55 H61 0.960 . S
C56 N54 1.346 . S
C56 N57 1.307 . S
C56 C58 1.486 . S
N57 N53 1.370 . S
N57 C56 1.307 . S
C58 C56 1.486 . S
C58 H62 0.960 . S
C58 H63 0.960 . S
C58 H64 0.959 . S
H59 C55 0.960 . S
H60 C55 0.961 . S
H61 C55 0.960 . S
H62 C58 0.960 . S
H63 C58 0.960 . S
H64 C58 0.959 . S
C65 N66 1.317 . S
C65 N67 1.348 . S
C65 C68 1.485 . S
N66 C65 1.317 . S
N66 N70 1.370 . S
N67 C65 1.348 . S
N67 C69 1.346 . S
C68 C65 1.485 . S
C68 H72 0.960 . S
C68 H73 0.961 . S
C68 H74 0.960 . S
C69 N67 1.346 . S
C69 N70 1.307 . S
C69 C71 1.486 . S
N70 N66 1.370 . S
N70 C69 1.307 . S
C71 C69 1.486 . S
C71 H75 0.960 . S
C71 H76 0.960 . S
C71 H77 0.959 . S
H72 C68 0.960 . S
H73 C68 0.961 . S
H74 C68 0.960 . S
H75 C71 0.960 . S
H76 C71 0.960 . S
H77 C71 0.959 . S
C78 N79 1.317 . S
C78 N80 1.348 . S
C78 C81 1.485 . S
N79 C78 1.317 . S
N79 N83 1.370 . S
N80 C78 1.348 . S
N80 C82 1.346 . S
C81 C78 1.485 . S
C81 H85 0.960 . S
C81 H86 0.961 . S
C81 H87 0.960 . S
C82 N80 1.346 . S
C82 N83 1.307 . S
C82 C84 1.486 . S
N83 N79 1.370 . S
N83 C82 1.307 . S
C84 C82 1.486 . S
C84 H88 0.960 . S
C84 H89 0.960 . S
C84 H90 0.959 . S
H85 C81 0.960 . S
H86 C81 0.961 . S
H87 C81 0.960 . S
H88 C84 0.960 . S
H89 C84 0.960 . S
H90 C84 0.959 . S
C91 N92 1.317 . S
C91 N93 1.348 . S
C91 C94 1.485 . S
N92 C91 1.317 . S
N92 N96 1.370 . S
N93 C91 1.348 . S
N93 C95 1.346 . S
C94 C91 1.485 . S
C94 H98 0.960 . S
C94 H99 0.961 . S
C94 H100 0.960 . S
C95 N93 1.346 . S
C95 N96 1.307 . S
C95 C97 1.486 . S
N96 N92 1.370 . S
N96 C95 1.307 . S
C97 C95 1.486 . S
C97 H101 0.960 . S
C97 H102 0.960 . S
C97 H103 0.959 . S
H98 C94 0.960 . S
H99 C94 0.961 . S
H100 C94 0.960 . S
H101 C97 0.960 . S
H102 C97 0.960 . S
H103 C97 0.959 . S
C104 N105 1.317 . S
C104 N106 1.348 . S
C104 C107 1.485 . S
N105 C104 1.317 . S
N105 N109 1.370 . S
N106 C104 1.348 . S
N106 C108 1.346 . S
C107 C104 1.485 . S
C107 H111 0.960 . S
C107 H112 0.961 . S
C107 H113 0.960 . S
C108 N106 1.346 . S
C108 N109 1.307 . S
C108 C110 1.486 . S
N109 N105 1.370 . S
N109 C108 1.307 . S
C110 C108 1.486 . S
C110 H114 0.960 . S
C110 H115 0.960 . S
C110 H116 0.959 . S
H111 C107 0.960 . S
H112 C107 0.961 . S
H113 C107 0.960 . S
H114 C110 0.960 . S
H115 C110 0.960 . S
H116 C110 0.959 . S
C117 N118 1.317 . S
C117 N119 1.348 . S
C117 C120 1.485 . S
N118 C117 1.317 . S
N118 N122 1.370 . S
N119 C117 1.348 . S
N119 C121 1.346 . S
C120 C117 1.485 . S
C120 H124 0.960 . S
C120 H125 0.961 . S
C120 H126 0.960 . S
C121 N119 1.346 . S
C121 N122 1.307 . S
C121 C123 1.486 . S
N122 N118 1.370 . S
N122 C121 1.307 . S
C123 C121 1.486 . S
C123 H127 0.960 . S
C123 H128 0.960 . S
C123 H129 0.959 . S
H124 C120 0.960 . S
H125 C120 0.961 . S
H126 C120 0.960 . S
H127 C123 0.960 . S
H128 C123 0.960 . S
H129 C123 0.959 . S
C130 N131 1.317 . S
C130 N132 1.348 . S
C130 C133 1.485 . S
N131 C130 1.317 . S
N131 N135 1.370 . S
N132 C130 1.348 . S
N132 C134 1.346 . S
C133 C130 1.485 . S
C133 H137 0.960 . S
C133 H138 0.961 . S
C133 H139 0.960 . S
C134 N132 1.346 . S
C134 N135 1.307 . S
C134 C136 1.486 . S
N135 N131 1.370 . S
N135 C134 1.307 . S
C136 C134 1.486 . S
C136 H140 0.960 . S
C136 H141 0.960 . S
C136 H142 0.959 . S
H137 C133 0.960 . S
H138 C133 0.961 . S
H139 C133 0.960 . S
H140 C136 0.960 . S
H141 C136 0.960 . S
H142 C136 0.959 . S
C143 N144 1.317 . S
C143 N145 1.348 . S
C143 C146 1.485 . S
N144 C143 1.317 . S
N144 N148 1.370 . S
N145 C143 1.348 . S
N145 C147 1.346 . S
C146 C143 1.485 . S
C146 H150 0.960 . S
C146 H151 0.961 . S
C146 H152 0.960 . S
C147 N145 1.346 . S
C147 N148 1.307 . S
C147 C149 1.486 . S
N148 N144 1.370 . S
N148 C147 1.307 . S
C149 C147 1.486 . S
C149 H153 0.960 . S
C149 H154 0.960 . S
C149 H155 0.959 . S
H150 C146 0.960 . S
H151 C146 0.961 . S
H152 C146 0.960 . S
H153 C149 0.960 . S
H154 C149 0.960 . S
H155 C149 0.959 . S
C156 N157 1.317 . S
C156 N158 1.348 . S
C156 C159 1.485 . S
N157 C156 1.317 . S
N157 N161 1.370 . S
N158 C156 1.348 . S
N158 C160 1.346 . S
C159 C156 1.485 . S
C159 H163 0.960 . S
C159 H164 0.961 . S
C159 H165 0.960 . S
C160 N158 1.346 . S
C160 N161 1.307 . S
C160 C162 1.486 . S
N161 N157 1.370 . S
N161 C160 1.307 . S
C162 C160 1.486 . S
C162 H166 0.960 . S
C162 H167 0.960 . S
C162 H168 0.959 . S
H163 C159 0.960 . S
H164 C159 0.961 . S
H165 C159 0.960 . S
H166 C162 0.960 . S
H167 C162 0.960 . S
H168 C162 0.959 . S
C169 N170 1.317 . S
C169 N171 1.348 . S
C169 C172 1.485 . S
N170 C169 1.317 . S
N170 N174 1.370 . S
N171 C169 1.348 . S
N171 C173 1.346 . S
C172 C169 1.485 . S
C172 H176 0.960 . S
C172 H177 0.961 . S
C172 H178 0.960 . S
C173 N171 1.346 . S
C173 N174 1.307 . S
C173 C175 1.486 . S
N174 N170 1.370 . S
N174 C173 1.307 . S
C175 C173 1.486 . S
C175 H179 0.960 . S
C175 H180 0.960 . S
C175 H181 0.959 . S
H176 C172 0.960 . S
H177 C172 0.961 . S
H178 C172 0.960 . S
H179 C175 0.960 . S
H180 C175 0.960 . S
H181 C175 0.959 . S
C182 N183 1.317 . S
C182 N184 1.348 . S
C182 C185 1.485 . S
N183 C182 1.317 . S
N183 N187 1.370 . S
N184 C182 1.348 . S
N184 C186 1.346 . S
C185 C182 1.485 . S
C185 H189 0.960 . S
C185 H190 0.961 . S
C185 H191 0.960 . S
C186 N184 1.346 . S
C186 N187 1.307 . S
C186 C188 1.486 . S
N187 N183 1.370 . S
N187 C186 1.307 . S
C188 C186 1.486 . S
C188 H192 0.960 . S
C188 H193 0.960 . S
C188 H194 0.959 . S
H189 C185 0.960 . S
H190 C185 0.961 . S
H191 C185 0.960 . S
H192 C188 0.960 . S
H193 C188 0.960 . S
H194 C188 0.959 . S
C195 N196 1.317 . S
C195 N197 1.348 . S
C195 C198 1.485 . S
N196 C195 1.317 . S
N196 N200 1.370 . S
N197 C195 1.348 . S
N197 C199 1.346 . S
C198 C195 1.485 . S
C198 H202 0.960 . S
C198 H203 0.961 . S
C198 H204 0.960 . S
C199 N197 1.346 . S
C199 N200 1.307 . S
C199 C201 1.486 . S
N200 N196 1.370 . S
N200 C199 1.307 . S
C201 C199 1.486 . S
C201 H205 0.960 . S
C201 H206 0.960 . S
C201 H207 0.959 . S
H202 C198 0.960 . S
H203 C198 0.961 . S
H204 C198 0.960 . S
H205 C201 0.960 . S
H206 C201 0.960 . S
H207 C201 0.959 . S
C208 N209 1.317 . S
C208 N210 1.348 . S
C208 C211 1.485 . S
N209 C208 1.317 . S
N209 N213 1.370 . S
N210 C208 1.348 . S
N210 C212 1.346 . S
C211 C208 1.485 . S
C211 H215 0.960 . S
C211 H216 0.961 . S
C211 H217 0.960 . S
C212 N210 1.346 . S
C212 N213 1.307 . S
C212 C214 1.486 . S
N213 N209 1.370 . S
N213 C212 1.307 . S
C214 C212 1.486 . S
C214 H218 0.960 . S
C214 H219 0.960 . S
C214 H220 0.959 . S
H215 C211 0.960 . S
H216 C211 0.961 . S
H217 C211 0.960 . S
H218 C214 0.960 . S
H219 C214 0.960 . S
H220 C214 0.959 . S
C221 N222 1.317 . S
C221 N223 1.348 . S
C221 C224 1.485 . S
N222 C221 1.317 . S
N222 N226 1.370 . S
N223 C221 1.348 . S
N223 C225 1.346 . S
C224 C221 1.485 . S
C224 H228 0.960 . S
C224 H229 0.961 . S
C224 H230 0.960 . S
C225 N223 1.346 . S
C225 N226 1.307 . S
C225 C227 1.486 . S
N226 N222 1.370 . S
N226 C225 1.307 . S
C227 C225 1.486 . S
C227 H231 0.960 . S
C227 H232 0.960 . S
C227 H233 0.959 . S
H228 C224 0.960 . S
H229 C224 0.961 . S
H230 C224 0.960 . S
H231 C227 0.960 . S
H232 C227 0.960 . S
H233 C227 0.959 . S
Gd234 N265 2.661 . S
Gd234 N271 2.601 . S
Gd234 O278 2.545 . S
Gd234 O279 2.606 1_545 S
Gd234 O281 2.429 . S
Gd234 O282 2.545 1_545 S
Gd234 O283 2.412 1_545 S
Gd234 O285 2.362 . S
Gd234 O286 2.324 1_545 S
Gd234 C293 2.828 1_545 S
Gd235 N244 2.661 . S
Gd235 N248 2.601 . S
Gd235 O279 2.362 1_556 S
Gd235 O280 2.324 1_565 S
Gd235 O284 2.545 . S
Gd235 O285 2.606 1_566 S
Gd235 O287 2.429 1_556 S
Gd235 O288 2.545 1_565 S
Gd235 O289 2.412 1_565 S
Gd235 C302 2.828 1_565 S
C236 C239 1.417 . S
C236 C241 1.431 . S
C236 C242 1.412 . S
C237 C240 1.437 . S
C237 C241 1.317 . S
C237 H256 0.929 . S
C238 C239 1.426 . S
C238 C240 1.413 . S
C238 N248 1.359 . S
C239 C236 1.417 . S
C239 C238 1.426 . S
C239 N244 1.350 . S
C240 C237 1.437 . S
C240 C238 1.413 . S
C240 C250 1.391 . S
C241 C236 1.431 . S
C241 C237 1.317 . S
C241 H252 0.930 . S
C242 C236 1.412 . S
C242 C243 1.355 . S
C242 H254 0.930 . S
C243 C242 1.355 . S
C243 C245 1.402 . S
C243 H255 0.930 . S
N244 Gd235 2.661 . S
N244 C239 1.350 . S
N244 C245 1.307 . S
C245 C243 1.402 . S
C245 N244 1.307 . S
C245 H246 0.930 1_565 S
H246 C245 0.930 1_545 S
C247 N248 1.334 . S
C247 C249 1.394 . S
C247 H251 0.930 . S
N248 Gd235 2.601 . S
N248 C238 1.359 . S
N248 C247 1.334 . S
C249 C247 1.394 . S
C249 C250 1.359 . S
C249 H261 0.930 . S
C250 C240 1.391 . S
C250 C249 1.359 . S
C250 H262 0.929 . S
H251 C247 0.930 . S
H252 C241 0.930 . S
H253 C270 0.930 . S
H254 C242 0.930 . S
H255 C243 0.930 . S
H256 C237 0.929 . S
H257 C275 0.930 . S
H258 C266 0.930 . S
H259 C267 0.930 . S
H260 C291 0.929 . S
H261 C249 0.930 . S
H262 C250 0.929 . S
H263 C292 0.930 . S
H264 C273 0.930 . S
N265 Gd234 2.661 . S
N265 C269 1.350 . S
N265 C270 1.307 . S
C266 H258 0.930 . S
C266 C267 1.355 . S
C266 C268 1.412 . S
C267 H259 0.930 . S
C267 C266 1.355 . S
C267 C270 1.402 . S
C268 C266 1.412 . S
C268 C269 1.417 . S
C268 C292 1.431 . S
C269 N265 1.350 . S
C269 C268 1.417 . S
C269 C272 1.426 . S
C270 H253 0.930 . S
C270 N265 1.307 . S
C270 C267 1.402 . S
N271 Gd234 2.601 . S
N271 C272 1.359 . S
N271 C275 1.334 . S
C272 C269 1.426 . S
C272 N271 1.359 . S
C272 C276 1.413 . S
C273 H264 0.930 . S
C273 C274 1.359 . S
C273 C275 1.394 . S
C274 C273 1.359 . S
C274 C276 1.391 . S
C274 H277 0.929 . S
C275 H257 0.930 . S
C275 N271 1.334 . S
C275 C273 1.394 . S
C276 C272 1.413 . S
C276 C274 1.391 . S
C276 C291 1.437 . S
H277 C274 0.929 . S
O278 Gd234 2.545 . S
O278 C293 1.258 1_545 S
O279 Gd234 2.606 1_565 S
O279 Gd235 2.362 1_554 S
O279 C290 1.284 . S
O280 Gd235 2.324 1_545 S
O280 C300 1.254 1_556 S
O281 Gd234 2.429 . S
O281 C300 1.268 . S
O282 Gd234 2.545 1_565 S
O282 C290 1.250 . S
O283 Gd234 2.412 1_565 S
O283 C293 1.252 . S
O284 Gd235 2.545 . S
O284 C302 1.258 1_565 S
O285 Gd234 2.362 . S
O285 Gd235 2.606 1_544 S
O285 C301 1.284 . S
O286 Gd234 2.324 1_565 S
O286 C309 1.254 . S
O287 Gd235 2.429 1_554 S
O287 C309 1.268 . S
O288 Gd235 2.545 1_545 S
O288 C301 1.250 1_556 S
O289 Gd235 2.412 1_545 S
O289 C302 1.252 . S
C290 O279 1.284 . S
C290 O282 1.250 . S
C291 H260 0.929 . S
C291 C276 1.437 . S
C291 C292 1.317 . S
C292 H263 0.930 . S
C292 C268 1.431 . S
C292 C291 1.317 . S
C293 Gd234 2.828 1_565 S
C293 O278 1.258 1_565 S
C293 O283 1.252 . S
C293 C294 1.497 . S
C294 C293 1.497 . S
C294 C295 1.395 . S
C294 C296 1.380 . S
C295 C294 1.395 . S
C295 C298 1.398 . S
C295 H310 0.930 1_565 S
C296 C294 1.380 . S
C296 C297 1.391 . S
C296 H311 0.930 . S
C297 C296 1.391 . S
C297 C299 1.387 . S
C298 C295 1.398 . S
C298 C299 1.380 . S
C298 H312 0.930 . S
C299 C297 1.387 . S
C299 C298 1.380 . S
C299 H313 0.930 . S
C300 O280 1.254 1_554 S
C300 O281 1.268 . S
C301 O285 1.284 . S
C301 O288 1.250 1_554 S
C302 Gd235 2.828 1_545 S
C302 O284 1.258 1_545 S
C302 O289 1.252 . S
C302 C303 1.497 . S
C303 C302 1.497 . S
C303 C304 1.395 . S
C303 C305 1.380 . S
C304 C303 1.395 . S
C304 C307 1.398 . S
C304 H314 0.930 1_545 S
C305 C303 1.380 . S
C305 C306 1.391 . S
C305 H315 0.930 . S
C306 C305 1.391 . S
C306 C308 1.387 . S
C307 C304 1.398 . S
C307 C308 1.380 . S
C307 H316 0.930 . S
C308 C306 1.387 . S
C308 C307 1.380 . S
C308 H317 0.930 . S
C309 O286 1.254 . S
C309 O287 1.268 . S
H310 C295 0.930 1_545 S
H311 C296 0.930 . S
H312 C298 0.930 . S
H313 C299 0.930 . S
H314 C304 0.930 1_565 S
H315 C305 0.930 . S
H316 C307 0.930 . S
H317 C308 0.930 . S
Gd318 N349 2.661 . S
Gd318 N355 2.601 . S
Gd318 O362 2.545 . S
Gd318 O363 2.606 1_655 S
Gd318 O365 2.429 . S
Gd318 O366 2.545 1_655 S
Gd318 O367 2.412 1_655 S
Gd318 O369 2.362 . S
Gd318 O370 2.324 1_655 S
Gd318 C377 2.828 . S
Gd319 N328 2.661 . S
Gd319 N332 2.601 . S
Gd319 O363 2.362 1_556 S
Gd319 O364 2.324 1_455 S
Gd319 O368 2.545 . S
Gd319 O369 2.606 1_456 S
Gd319 O371 2.429 . S
Gd319 O372 2.545 1_455 S
Gd319 O373 2.412 . S
Gd319 C386 2.828 . S
C320 C323 1.417 . S
C320 C325 1.431 . S
C320 C326 1.412 . S
C321 C324 1.437 . S
C321 C325 1.317 . S
C321 H340 0.929 . S
C322 C323 1.426 . S
C322 C324 1.413 . S
C322 N332 1.359 . S
C323 C320 1.417 . S
C323 C322 1.426 . S
C323 N328 1.350 . S
C324 C321 1.437 . S
C324 C322 1.413 . S
C324 C334 1.391 . S
C325 C320 1.431 . S
C325 C321 1.317 . S
C325 H336 0.930 . S
C326 C320 1.412 . S
C326 C327 1.355 . S
C326 H338 0.930 . S
C327 C326 1.355 . S
C327 C329 1.402 . S
C327 H339 0.930 . S
N328 Gd319 2.661 . S
N328 C323 1.350 . S
N328 C329 1.307 . S
C329 C327 1.402 . S
C329 N328 1.307 . S
C329 H330 0.930 . S
H330 C329 0.930 . S
C331 N332 1.334 . S
C331 C333 1.394 . S
C331 H335 0.930 . S
N332 Gd319 2.601 . S
N332 C322 1.359 . S
N332 C331 1.334 . S
C333 C331 1.394 . S
C333 C334 1.359 . S
C333 H345 0.930 . S
C334 C324 1.391 . S
C334 C333 1.359 . S
C334 H346 0.929 . S
H335 C331 0.930 . S
H336 C325 0.930 . S
H337 C354 0.930 . S
H338 C326 0.930 . S
H339 C327 0.930 . S
H340 C321 0.929 . S
H341 C359 0.930 . S
H342 C350 0.930 . S
H343 C351 0.930 . S
H344 C375 0.929 . S
H345 C333 0.930 . S
H346 C334 0.929 . S
H347 C376 0.930 . S
H348 C357 0.930 . S
N349 Gd318 2.661 . S
N349 C353 1.350 . S
N349 C354 1.307 . S
C350 H342 0.930 . S
C350 C351 1.355 . S
C350 C352 1.412 . S
C351 H343 0.930 . S
C351 C350 1.355 . S
C351 C354 1.402 . S
C352 C350 1.412 . S
C352 C353 1.417 . S
C352 C376 1.431 . S
C353 N349 1.350 . S
C353 C352 1.417 . S
C353 C356 1.426 . S
C354 H337 0.930 . S
C354 N349 1.307 . S
C354 C351 1.402 . S
N355 Gd318 2.601 . S
N355 C356 1.359 . S
N355 C359 1.334 . S
C356 C353 1.426 . S
C356 N355 1.359 . S
C356 C360 1.413 . S
C357 H348 0.930 . S
C357 C358 1.359 . S
C357 C359 1.394 . S
C358 C357 1.359 . S
C358 C360 1.391 . S
C358 H361 0.929 . S
C359 H341 0.930 . S
C359 N355 1.334 . S
C359 C357 1.394 . S
C360 C356 1.413 . S
C360 C358 1.391 . S
C360 C375 1.437 . S
H361 C358 0.929 . S
O362 Gd318 2.545 . S
O362 C377 1.258 . S
O363 Gd318 2.606 1_455 S
O363 Gd319 2.362 1_554 S
O363 C374 1.284 . S
O364 Gd319 2.324 1_655 S
O364 C384 1.226 1_556 S
O365 Gd318 2.429 . S
O365 C384 1.315 . S
O366 Gd318 2.545 1_455 S
O366 C374 1.250 . S
O367 Gd318 2.412 1_455 S
O367 C377 1.252 1_455 S
O368 Gd319 2.545 . S
O368 C386 1.258 . S
O369 Gd318 2.362 . S
O369 Gd319 2.606 1_654 S
O369 C385 1.284 1_554 S
O370 Gd318 2.324 1_455 S
O370 C393 1.254 . S
O371 Gd319 2.429 . S
O371 C393 1.268 1_556 S
O372 Gd319 2.545 1_655 S
O372 C385 1.250 . S
O373 Gd319 2.412 . S
O373 C386 1.252 . S
C374 O363 1.284 . S
C374 O366 1.250 . S
C375 H344 0.929 . S
C375 C360 1.437 . S
C375 C376 1.317 . S
C376 H347 0.930 . S
C376 C352 1.431 . S
C376 C375 1.317 . S
C377 Gd318 2.828 . S
C377 O362 1.258 . S
C377 O367 1.252 1_655 S
C377 C378 1.497 1_655 S
C378 C377 1.497 1_455 S
C378 C379 1.395 1_455 S
C378 C380 1.380 . S
C379 C378 1.395 1_655 S
C379 C382 1.398 . S
C379 H394 0.930 . S
C380 C378 1.380 . S
C380 C381 1.391 . S
C380 H395 0.930 . S
C381 C380 1.391 . S
C381 C383 1.387 . S
C382 C379 1.398 . S
C382 C383 1.380 1_655 S
C382 H396 0.930 . S
C383 C381 1.387 . S
C383 C382 1.380 1_455 S
C383 H397 0.930 . S
C384 O364 1.226 1_554 S
C384 O365 1.315 . S
C385 O369 1.284 1_556 S
C385 O372 1.250 . S
C386 Gd319 2.828 . S
C386 O368 1.258 . S
C386 O373 1.252 . S
C386 C387 1.497 . S
C387 C386 1.497 . S
C387 C388 1.395 . S
C387 C389 1.380 1_455 S
C388 C387 1.395 . S
C388 C391 1.398 . S
C388 H398 0.930 . S
C389 C387 1.380 1_655 S
C389 C390 1.391 . S
C389 H399 0.930 . S
C390 C389 1.391 . S
C390 C392 1.387 1_655 S
C391 C388 1.398 . S
C391 C392 1.380 . S
C391 H400 0.930 . S
C392 C390 1.387 1_455 S
C392 C391 1.380 . S
C392 H401 0.930 . S
C393 O370 1.254 . S
C393 O371 1.268 1_554 S
H394 C379 0.930 . S
H395 C380 0.930 . S
H396 C382 0.930 . S
H397 C383 0.930 . S
H398 C388 0.930 . S
H399 C389 0.930 . S
H400 C391 0.930 . S
H401 C392 0.930 . S
Gd402 N433 2.661 1_554 S
Gd402 N439 2.601 1_554 S
Gd402 O446 2.545 1_554 S
Gd402 O447 2.606 . S
Gd402 O449 2.429 . S
Gd402 O450 2.545 1_554 S
Gd402 O451 2.412 1_554 S
Gd402 O453 2.362 . S
Gd402 O454 2.324 . S
Gd402 C461 2.828 1_554 S
Gd403 N412 2.661 . S
Gd403 N416 2.601 . S
Gd403 O447 2.362 . S
Gd403 O448 2.324 . S
Gd403 O452 2.545 . S
Gd403 O453 2.606 . S
Gd403 O455 2.429 . S
Gd403 O456 2.545 . S
Gd403 O457 2.412 . S
Gd403 C470 2.828 . S
C404 C407 1.417 . S
C404 C409 1.431 . S
C404 C410 1.412 . S
C405 C408 1.437 . S
C405 C409 1.317 . S
C405 H424 0.929 . S
C406 C407 1.426 . S
C406 C408 1.413 . S
C406 N416 1.359 . S
C407 C404 1.417 . S
C407 C406 1.426 . S
C407 N412 1.350 . S
C408 C405 1.437 . S
C408 C406 1.413 . S
C408 C418 1.391 . S
C409 C404 1.431 . S
C409 C405 1.317 . S
C409 H420 0.930 . S
C410 C404 1.412 . S
C410 C411 1.355 . S
C410 H422 0.930 . S
C411 C410 1.355 . S
C411 C413 1.402 . S
C411 H423 0.930 . S
N412 Gd403 2.661 . S
N412 C407 1.350 . S
N412 C413 1.307 . S
C413 C411 1.402 . S
C413 N412 1.307 . S
C413 H414 0.930 . S
H414 C413 0.930 . S
C415 N416 1.334 . S
C415 C417 1.394 . S
C415 H419 0.930 . S
N416 Gd403 2.601 . S
N416 C406 1.359 . S
N416 C415 1.334 . S
C417 C415 1.394 . S
C417 C418 1.359 . S
C417 H429 0.930 . S
C418 C408 1.391 . S
C418 C417 1.359 . S
C418 H430 0.929 . S
H419 C415 0.930 . S
H420 C409 0.930 . S
H421 C438 0.930 . S
H422 C410 0.930 . S
H423 C411 0.930 . S
H424 C405 0.929 . S
H425 C443 0.930 . S
H426 C434 0.930 . S
H427 C435 0.930 . S
H428 C459 0.929 . S
H429 C417 0.930 . S
H430 C418 0.929 . S
H431 C460 0.930 . S
H432 C441 0.930 . S
N433 Gd402 2.661 1_556 S
N433 C437 1.350 . S
N433 C438 1.307 1_556 S
C434 H426 0.930 . S
C434 C435 1.355 1_556 S
C434 C436 1.412 . S
C435 H427 0.930 . S
C435 C434 1.355 1_554 S
C435 C438 1.402 . S
C436 C434 1.412 . S
C436 C437 1.417 . S
C436 C460 1.431 . S
C437 N433 1.350 . S
C437 C436 1.417 . S
C437 C440 1.426 . S
C438 H421 0.930 . S
C438 N433 1.307 1_554 S
C438 C435 1.402 . S
N439 Gd402 2.601 1_556 S
N439 C440 1.359 . S
N439 C443 1.334 . S
C440 C437 1.426 . S
C440 N439 1.359 . S
C440 C444 1.413 . S
C441 H432 0.930 . S
C441 C442 1.359 . S
C441 C443 1.394 . S
C442 C441 1.359 . S
C442 C444 1.391 . S
C442 H445 0.929 . S
C443 H425 0.930 . S
C443 N439 1.334 . S
C443 C441 1.394 . S
C444 C440 1.413 . S
C444 C442 1.391 . S
C444 C459 1.437 . S
H445 C442 0.929 . S
O446 Gd402 2.545 1_556 S
O446 C461 1.258 . S
O447 Gd402 2.606 . S
O447 Gd403 2.362 . S
O447 C458 1.284 . S
O448 Gd403 2.324 . S
O448 C468 1.254 . S
O449 Gd402 2.429 . S
O449 C468 1.268 . S
O450 Gd402 2.545 1_556 S
O450 C458 1.250 1_556 S
O451 Gd402 2.412 1_556 S
O451 C461 1.252 . S
O452 Gd403 2.545 . S
O452 C470 1.258 . S
O453 Gd402 2.362 . S
O453 Gd403 2.606 . S
O453 C469 1.284 . S
O454 Gd402 2.324 . S
O454 C477 1.254 . S
O455 Gd403 2.429 . S
O455 C477 1.268 . S
O456 Gd403 2.545 . S
O456 C469 1.250 . S
O457 Gd403 2.412 . S
O457 C470 1.252 . S
C458 O447 1.284 . S
C458 O450 1.250 1_554 S
C459 H428 0.929 . S
C459 C444 1.437 . S
C459 C460 1.317 . S
C460 H431 0.930 . S
C460 C436 1.431 . S
C460 C459 1.317 . S
C461 Gd402 2.828 1_556 S
C461 O446 1.258 . S
C461 O451 1.252 . S
C461 C462 1.497 . S
C462 C461 1.497 . S
C462 C463 1.395 . S
C462 C464 1.380 . S
C463 C462 1.395 . S
C463 C466 1.398 . S
C463 H478 0.930 . S
C464 C462 1.380 . S
C464 C465 1.391 . S
C464 H479 0.930 . S
C465 C464 1.391 . S
C465 C467 1.387 . S
C466 C463 1.398 . S
C466 C467 1.380 . S
C466 H480 0.930 . S
C467 C465 1.387 . S
C467 C466 1.380 . S
C467 H481 0.930 . S
C468 O448 1.254 . S
C468 O449 1.268 . S
C469 O453 1.284 . S
C469 O456 1.250 . S
C470 Gd403 2.828 . S
C470 O452 1.258 . S
C470 O457 1.252 . S
C470 C471 1.497 . S
C471 C470 1.497 . S
C471 C472 1.395 . S
C471 C473 1.380 . S
C472 C471 1.395 . S
C472 C475 1.398 . S
C472 H482 0.930 . S
C473 C471 1.380 . S
C473 C474 1.391 . S
C473 H483 0.930 . S
C474 C473 1.391 . S
C474 C476 1.387 . S
C475 C472 1.398 . S
C475 C476 1.380 . S
C475 H484 0.930 . S
C476 C474 1.387 . S
C476 C475 1.380 . S
C476 H485 0.930 . S
C477 O454 1.254 . S
C477 O455 1.268 . S
H478 C463 0.930 . S
H479 C464 0.930 . S
H480 C466 0.930 . S
H481 C467 0.930 . S
H482 C472 0.930 . S
H483 C473 0.930 . S
H484 C475 0.930 . S
H485 C476 0.930 . S
Gd486 N517 2.661 . S
Gd486 N523 2.601 . S
Gd486 O530 2.545 . S
Gd486 O531 2.606 . S
Gd486 O533 2.429 . S
Gd486 O534 2.545 . S
Gd486 O535 2.412 . S
Gd486 O537 2.362 . S
Gd486 O538 2.324 . S
Gd486 C545 2.828 . S
Gd487 N496 2.661 . S
Gd487 N500 2.601 . S
Gd487 O531 2.362 . S
Gd487 O532 2.324 . S
Gd487 O536 2.545 . S
Gd487 O537 2.606 . S
Gd487 O539 2.429 . S
Gd487 O540 2.545 . S
Gd487 O541 2.412 . S
Gd487 C554 2.828 . S
C488 C491 1.417 . S
C488 C493 1.431 . S
C488 C494 1.412 . S
C489 C492 1.437 . S
C489 C493 1.317 . S
C489 H508 0.929 . S
C490 C491 1.426 . S
C490 C492 1.413 . S
C490 N500 1.359 . S
C491 C488 1.417 . S
C491 C490 1.426 . S
C491 N496 1.350 . S
C492 C489 1.437 . S
C492 C490 1.413 . S
C492 C502 1.391 . S
C493 C488 1.431 . S
C493 C489 1.317 . S
C493 H504 0.930 . S
C494 C488 1.412 . S
C494 C495 1.355 . S
C494 H506 0.930 . S
C495 C494 1.355 . S
C495 C497 1.402 . S
C495 H507 0.930 . S
N496 Gd487 2.661 . S
N496 C491 1.350 . S
N496 C497 1.307 . S
C497 C495 1.402 . S
C497 N496 1.307 . S
C497 H498 0.930 . S
H498 C497 0.930 . S
C499 N500 1.334 . S
C499 C501 1.394 . S
C499 H503 0.930 . S
N500 Gd487 2.601 . S
N500 C490 1.359 . S
N500 C499 1.334 . S
C501 C499 1.394 . S
C501 C502 1.359 . S
C501 H513 0.930 . S
C502 C492 1.391 . S
C502 C501 1.359 . S
C502 H514 0.929 . S
H503 C499 0.930 . S
H504 C493 0.930 . S
H505 C522 0.930 . S
H506 C494 0.930 . S
H507 C495 0.930 . S
H508 C489 0.929 . S
H509 C527 0.930 . S
H510 C518 0.930 . S
H511 C519 0.930 . S
H512 C543 0.929 . S
H513 C501 0.930 . S
H514 C502 0.929 . S
H515 C544 0.930 . S
H516 C525 0.930 . S
N517 Gd486 2.661 . S
N517 C521 1.350 . S
N517 C522 1.307 . S
C518 H510 0.930 . S
C518 C519 1.355 . S
C518 C520 1.412 . S
C519 H511 0.930 . S
C519 C518 1.355 . S
C519 C522 1.402 . S
C520 C518 1.412 . S
C520 C521 1.417 . S
C520 C544 1.431 . S
C521 N517 1.350 . S
C521 C520 1.417 . S
C521 C524 1.426 . S
C522 H505 0.930 . S
C522 N517 1.307 . S
C522 C519 1.402 . S
N523 Gd486 2.601 . S
N523 C524 1.359 . S
N523 C527 1.334 . S
C524 C521 1.426 . S
C524 N523 1.359 . S
C524 C528 1.413 . S
C525 H516 0.930 . S
C525 C526 1.359 . S
C525 C527 1.394 . S
C526 C525 1.359 . S
C526 C528 1.391 . S
C526 H529 0.929 . S
C527 H509 0.930 . S
C527 N523 1.334 . S
C527 C525 1.394 . S
C528 C524 1.413 . S
C528 C526 1.391 . S
C528 C543 1.437 . S
H529 C526 0.929 . S
O530 Gd486 2.545 . S
O530 C545 1.258 . S
O531 Gd486 2.606 . S
O531 Gd487 2.362 . S
O531 C542 1.284 . S
O532 Gd487 2.324 . S
O532 C552 1.254 . S
O533 Gd486 2.429 . S
O533 C552 1.268 . S
O534 Gd486 2.545 . S
O534 C542 1.250 . S
O535 Gd486 2.412 . S
O535 C545 1.252 . S
O536 Gd487 2.545 . S
O536 C554 1.258 . S
O537 Gd486 2.362 . S
O537 Gd487 2.606 . S
O537 C553 1.284 . S
O538 Gd486 2.324 . S
O538 C561 1.254 . S
O539 Gd487 2.429 . S
O539 C561 1.268 . S
O540 Gd487 2.545 . S
O540 C553 1.250 . S
O541 Gd487 2.412 . S
O541 C554 1.252 . S
C542 O531 1.284 . S
C542 O534 1.250 . S
C543 H512 0.929 . S
C543 C528 1.437 . S
C543 C544 1.317 . S
C544 H515 0.930 . S
C544 C520 1.431 . S
C544 C543 1.317 . S
C545 Gd486 2.828 . S
C545 O530 1.258 . S
C545 O535 1.252 . S
C545 C546 1.497 . S
C546 C545 1.497 . S
C546 C547 1.395 . S
C546 C548 1.380 . S
C547 C546 1.395 . S
C547 C550 1.398 . S
C547 H562 0.930 . S
C548 C546 1.380 . S
C548 C549 1.391 . S
C548 H563 0.930 . S
C549 C548 1.391 . S
C549 C551 1.387 . S
C550 C547 1.398 . S
C550 C551 1.380 . S
C550 H564 0.930 . S
C551 C549 1.387 . S
C551 C550 1.380 . S
C551 H565 0.930 . S
C552 O532 1.254 . S
C552 O533 1.268 . S
C553 O537 1.284 . S
C553 O540 1.250 . S
C554 Gd487 2.828 . S
C554 O536 1.258 . S
C554 O541 1.252 . S
C554 C555 1.497 . S
C555 C554 1.497 . S
C555 C556 1.395 . S
C555 C557 1.380 . S
C556 C555 1.395 . S
C556 C559 1.398 . S
C556 H566 0.930 . S
C557 C555 1.380 . S
C557 C558 1.391 . S
C557 H567 0.930 . S
C558 C557 1.391 . S
C558 C560 1.387 . S
C559 C556 1.398 . S
C559 C560 1.380 . S
C559 H568 0.930 . S
C560 C558 1.387 . S
C560 C559 1.380 . S
C560 H569 0.930 . S
C561 O538 1.254 . S
C561 O539 1.268 . S
H562 C547 0.930 . S
H563 C548 0.930 . S
H564 C550 0.930 . S
H565 C551 0.930 . S
H566 C556 0.930 . S
H567 C557 0.930 . S
H568 C559 0.930 . S
H569 C560 0.930 . S
Gd570 N601 2.661 . S
Gd570 N607 2.601 . S
Gd570 O614 2.545 . S
Gd570 O615 2.606 . S
Gd570 O617 2.429 . S
Gd570 O618 2.545 . S
Gd570 O619 2.412 . S
Gd570 O621 2.362 . S
Gd570 O622 2.324 . S
Gd570 C629 2.828 . S
Gd571 N580 2.661 . S
Gd571 N584 2.601 . S
Gd571 O615 2.362 . S
Gd571 O616 2.324 . S
Gd571 O620 2.545 . S
Gd571 O621 2.606 . S
Gd571 O623 2.429 . S
Gd571 O624 2.545 . S
Gd571 O625 2.412 . S
Gd571 C638 2.828 . S
C572 C575 1.417 . S
C572 C577 1.431 . S
C572 C578 1.412 . S
C573 C576 1.437 . S
C573 C577 1.317 . S
C573 H592 0.929 . S
C574 C575 1.426 . S
C574 C576 1.413 . S
C574 N584 1.359 . S
C575 C572 1.417 . S
C575 C574 1.426 . S
C575 N580 1.350 . S
C576 C573 1.437 . S
C576 C574 1.413 . S
C576 C586 1.391 . S
C577 C572 1.431 . S
C577 C573 1.317 . S
C577 H588 0.930 . S
C578 C572 1.412 . S
C578 C579 1.355 . S
C578 H590 0.930 . S
C579 C578 1.355 . S
C579 C581 1.402 . S
C579 H591 0.930 . S
N580 Gd571 2.661 . S
N580 C575 1.350 . S
N580 C581 1.307 . S
C581 C579 1.402 . S
C581 N580 1.307 . S
C581 H582 0.930 . S
H582 C581 0.930 . S
C583 N584 1.334 . S
C583 C585 1.394 . S
C583 H587 0.930 . S
N584 Gd571 2.601 . S
N584 C574 1.359 . S
N584 C583 1.334 . S
C585 C583 1.394 . S
C585 C586 1.359 . S
C585 H597 0.930 . S
C586 C576 1.391 . S
C586 C585 1.359 . S
C586 H598 0.929 . S
H587 C583 0.930 . S
H588 C577 0.930 . S
H589 C606 0.930 . S
H590 C578 0.930 . S
H591 C579 0.930 . S
H592 C573 0.929 . S
H593 C611 0.930 . S
H594 C602 0.930 . S
H595 C603 0.930 . S
H596 C627 0.929 . S
H597 C585 0.930 . S
H598 C586 0.929 . S
H599 C628 0.930 . S
H600 C609 0.930 . S
N601 Gd570 2.661 . S
N601 C605 1.350 . S
N601 C606 1.307 . S
C602 H594 0.930 . S
C602 C603 1.355 . S
C602 C604 1.412 . S
C603 H595 0.930 . S
C603 C602 1.355 . S
C603 C606 1.402 . S
C604 C602 1.412 . S
C604 C605 1.417 . S
C604 C628 1.431 . S
C605 N601 1.350 . S
C605 C604 1.417 . S
C605 C608 1.426 . S
C606 H589 0.930 . S
C606 N601 1.307 . S
C606 C603 1.402 . S
N607 Gd570 2.601 . S
N607 C608 1.359 . S
N607 C611 1.334 . S
C608 C605 1.426 . S
C608 N607 1.359 . S
C608 C612 1.413 . S
C609 H600 0.930 . S
C609 C610 1.359 . S
C609 C611 1.394 . S
C610 C609 1.359 . S
C610 C612 1.391 . S
C610 H613 0.929 . S
C611 H593 0.930 . S
C611 N607 1.334 . S
C611 C609 1.394 . S
C612 C608 1.413 . S
C612 C610 1.391 . S
C612 C627 1.437 . S
H613 C610 0.929 . S
O614 Gd570 2.545 . S
O614 C629 1.258 . S
O615 Gd570 2.606 . S
O615 Gd571 2.362 . S
O615 C626 1.284 . S
O616 Gd571 2.324 . S
O616 C636 1.254 . S
O617 Gd570 2.429 . S
O617 C636 1.268 . S
O618 Gd570 2.545 . S
O618 C626 1.250 . S
O619 Gd570 2.412 . S
O619 C629 1.252 . S
O620 Gd571 2.545 . S
O620 C638 1.258 . S
O621 Gd570 2.362 . S
O621 Gd571 2.606 . S
O621 C637 1.284 . S
O622 Gd570 2.324 . S
O622 C645 1.254 . S
O623 Gd571 2.429 . S
O623 C645 1.268 . S
O624 Gd571 2.545 . S
O624 C637 1.250 . S
O625 Gd571 2.412 . S
O625 C638 1.252 . S
C626 O615 1.284 . S
C626 O618 1.250 . S
C627 H596 0.929 . S
C627 C612 1.437 . S
C627 C628 1.317 . S
C628 H599 0.930 . S
C628 C604 1.431 . S
C628 C627 1.317 . S
C629 Gd570 2.828 . S
C629 O614 1.258 . S
C629 O619 1.252 . S
C629 C630 1.497 . S
C630 C629 1.497 . S
C630 C631 1.395 . S
C630 C632 1.380 . S
C631 C630 1.395 . S
C631 C634 1.398 . S
C631 H646 0.930 . S
C632 C630 1.380 . S
C632 C633 1.391 . S
C632 H647 0.930 . S
C633 C632 1.391 . S
C633 C635 1.387 . S
C634 C631 1.398 . S
C634 C635 1.380 . S
C634 H648 0.930 . S
C635 C633 1.387 . S
C635 C634 1.380 . S
C635 H649 0.930 . S
C636 O616 1.254 . S
C636 O617 1.268 . S
C637 O621 1.284 . S
C637 O624 1.250 . S
C638 Gd571 2.828 . S
C638 O620 1.258 . S
C638 O625 1.252 . S
C638 C639 1.497 . S
C639 C638 1.497 . S
C639 C640 1.395 . S
C639 C641 1.380 . S
C640 C639 1.395 . S
C640 C643 1.398 . S
C640 H650 0.930 . S
C641 C639 1.380 . S
C641 C642 1.391 . S
C641 H651 0.930 . S
C642 C641 1.391 . S
C642 C644 1.387 . S
C643 C640 1.398 . S
C643 C644 1.380 . S
C643 H652 0.930 . S
C644 C642 1.387 . S
C644 C643 1.380 . S
C644 H653 0.930 . S
C645 O622 1.254 . S
C645 O623 1.268 . S
H646 C631 0.930 . S
H647 C632 0.930 . S
H648 C634 0.930 . S
H649 C635 0.930 . S
H650 C640 0.930 . S
H651 C641 0.930 . S
H652 C643 0.930 . S
H653 C644 0.930 . S
Gd654 N685 2.661 . S
Gd654 N691 2.601 . S
Gd654 O698 2.545 . S
Gd654 O699 2.606 . S
Gd654 O701 2.429 . S
Gd654 O702 2.545 . S
Gd654 O703 2.412 . S
Gd654 O705 2.362 . S
Gd654 O706 2.324 . S
Gd654 C713 2.828 . S
Gd655 N664 2.661 . S
Gd655 N668 2.601 . S
Gd655 O699 2.362 . S
Gd655 O700 2.324 . S
Gd655 O704 2.545 . S
Gd655 O705 2.606 . S
Gd655 O707 2.429 . S
Gd655 O708 2.545 . S
Gd655 O709 2.412 . S
Gd655 C722 2.828 . S
C656 C659 1.417 . S
C656 C661 1.431 . S
C656 C662 1.412 . S
C657 C660 1.437 . S
C657 C661 1.317 . S
C657 H676 0.929 . S
C658 C659 1.426 . S
C658 C660 1.413 . S
C658 N668 1.359 . S
C659 C656 1.417 . S
C659 C658 1.426 . S
C659 N664 1.350 . S
C660 C657 1.437 . S
C660 C658 1.413 . S
C660 C670 1.391 . S
C661 C656 1.431 . S
C661 C657 1.317 . S
C661 H672 0.930 . S
C662 C656 1.412 . S
C662 C663 1.355 . S
C662 H674 0.930 . S
C663 C662 1.355 . S
C663 C665 1.402 . S
C663 H675 0.930 . S
N664 Gd655 2.661 . S
N664 C659 1.350 . S
N664 C665 1.307 . S
C665 C663 1.402 . S
C665 N664 1.307 . S
C665 H666 0.930 . S
H666 C665 0.930 . S
C667 N668 1.334 . S
C667 C669 1.394 . S
C667 H671 0.930 . S
N668 Gd655 2.601 . S
N668 C658 1.359 . S
N668 C667 1.334 . S
C669 C667 1.394 . S
C669 C670 1.359 . S
C669 H681 0.930 . S
C670 C660 1.391 . S
C670 C669 1.359 . S
C670 H682 0.929 . S
H671 C667 0.930 . S
H672 C661 0.930 . S
H673 C690 0.930 . S
H674 C662 0.930 . S
H675 C663 0.930 . S
H676 C657 0.929 . S
H677 C695 0.930 . S
H678 C686 0.930 . S
H679 C687 0.930 . S
H680 C711 0.929 . S
H681 C669 0.930 . S
H682 C670 0.929 . S
H683 C712 0.930 . S
H684 C693 0.930 . S
N685 Gd654 2.661 . S
N685 C689 1.350 . S
N685 C690 1.307 . S
C686 H678 0.930 . S
C686 C687 1.355 . S
C686 C688 1.412 . S
C687 H679 0.930 . S
C687 C686 1.355 . S
C687 C690 1.402 . S
C688 C686 1.412 . S
C688 C689 1.417 . S
C688 C712 1.431 . S
C689 N685 1.350 . S
C689 C688 1.417 . S
C689 C692 1.426 . S
C690 H673 0.930 . S
C690 N685 1.307 . S
C690 C687 1.402 . S
N691 Gd654 2.601 . S
N691 C692 1.359 . S
N691 C695 1.334 . S
C692 C689 1.426 . S
C692 N691 1.359 . S
C692 C696 1.413 . S
C693 H684 0.930 . S
C693 C694 1.359 . S
C693 C695 1.394 . S
C694 C693 1.359 . S
C694 C696 1.391 . S
C694 H697 0.929 . S
C695 H677 0.930 . S
C695 N691 1.334 . S
C695 C693 1.394 . S
C696 C692 1.413 . S
C696 C694 1.391 . S
C696 C711 1.437 . S
H697 C694 0.929 . S
O698 Gd654 2.545 . S
O698 C713 1.258 . S
O699 Gd654 2.606 . S
O699 Gd655 2.362 . S
O699 C710 1.284 . S
O700 Gd655 2.324 . S
O700 C720 1.254 . S
O701 Gd654 2.429 . S
O701 C720 1.268 . S
O702 Gd654 2.545 . S
O702 C710 1.250 . S
O703 Gd654 2.412 . S
O703 C713 1.252 . S
O704 Gd655 2.545 . S
O704 C722 1.258 . S
O705 Gd654 2.362 . S
O705 Gd655 2.606 . S
O705 C721 1.284 . S
O706 Gd654 2.324 . S
O706 C729 1.254 . S
O707 Gd655 2.429 . S
O707 C729 1.268 . S
O708 Gd655 2.545 . S
O708 C721 1.250 . S
O709 Gd655 2.412 . S
O709 C722 1.252 . S
C710 O699 1.284 . S
C710 O702 1.250 . S
C711 H680 0.929 . S
C711 C696 1.437 . S
C711 C712 1.317 . S
C712 H683 0.930 . S
C712 C688 1.431 . S
C712 C711 1.317 . S
C713 Gd654 2.828 . S
C713 O698 1.258 . S
C713 O703 1.252 . S
C713 C714 1.497 . S
C714 C713 1.497 . S
C714 C715 1.395 . S
C714 C716 1.380 . S
C715 C714 1.395 . S
C715 C718 1.398 . S
C715 H730 0.930 . S
C716 C714 1.380 . S
C716 C717 1.391 . S
C716 H731 0.930 . S
C717 C716 1.391 . S
C717 C719 1.387 . S
C718 C715 1.398 . S
C718 C719 1.380 . S
C718 H732 0.930 . S
C719 C717 1.387 . S
C719 C718 1.380 . S
C719 H733 0.930 . S
C720 O700 1.254 . S
C720 O701 1.268 . S
C721 O705 1.284 . S
C721 O708 1.250 . S
C722 Gd655 2.828 . S
C722 O704 1.258 . S
C722 O709 1.252 . S
C722 C723 1.497 . S
C723 C722 1.497 . S
C723 C724 1.395 . S
C723 C725 1.380 . S
C724 C723 1.395 . S
C724 C727 1.398 . S
C724 H734 0.930 . S
C725 C723 1.380 . S
C725 C726 1.391 . S
C725 H735 0.930 . S
C726 C725 1.391 . S
C726 C728 1.387 . S
C727 C724 1.398 . S
C727 C728 1.380 . S
C727 H736 0.930 . S
C728 C726 1.387 . S
C728 C727 1.380 . S
C728 H737 0.930 . S
C729 O706 1.254 . S
C729 O707 1.268 . S
H730 C715 0.930 . S
H731 C716 0.930 . S
H732 C718 0.930 . S
H733 C719 0.930 . S
H734 C724 0.930 . S
H735 C725 0.930 . S
H736 C727 0.930 . S
H737 C728 0.930 . S
Gd738 N769 2.661 . S
Gd738 N775 2.601 . S
Gd738 O782 2.545 . S
Gd738 O783 2.606 . S
Gd738 O785 2.429 . S
Gd738 O786 2.545 . S
Gd738 O787 2.412 . S
Gd738 O789 2.362 . S
Gd738 O790 2.324 . S
Gd738 C797 2.828 . S
Gd739 N748 2.661 . S
Gd739 N752 2.601 . S
Gd739 O783 2.362 . S
Gd739 O784 2.324 . S
Gd739 O788 2.545 . S
Gd739 O789 2.606 . S
Gd739 O791 2.429 . S
Gd739 O792 2.545 . S
Gd739 O793 2.412 . S
Gd739 C806 2.828 . S
C740 C743 1.417 . S
C740 C745 1.431 . S
C740 C746 1.412 . S
C741 C744 1.437 . S
C741 C745 1.317 . S
C741 H760 0.929 . S
C742 C743 1.426 . S
C742 C744 1.413 . S
C742 N752 1.359 . S
C743 C740 1.417 . S
C743 C742 1.426 . S
C743 N748 1.350 . S
C744 C741 1.437 . S
C744 C742 1.413 . S
C744 C754 1.391 . S
C745 C740 1.431 . S
C745 C741 1.317 . S
C745 H756 0.930 . S
C746 C740 1.412 . S
C746 C747 1.355 . S
C746 H758 0.930 . S
C747 C746 1.355 . S
C747 C749 1.402 . S
C747 H759 0.930 . S
N748 Gd739 2.661 . S
N748 C743 1.350 . S
N748 C749 1.307 . S
C749 C747 1.402 . S
C749 N748 1.307 . S
C749 H750 0.930 . S
H750 C749 0.930 . S
C751 N752 1.334 . S
C751 C753 1.394 . S
C751 H755 0.930 . S
N752 Gd739 2.601 . S
N752 C742 1.359 . S
N752 C751 1.334 . S
C753 C751 1.394 . S
C753 C754 1.359 . S
C753 H765 0.930 . S
C754 C744 1.391 . S
C754 C753 1.359 . S
C754 H766 0.929 . S
H755 C751 0.930 . S
H756 C745 0.930 . S
H757 C774 0.930 . S
H758 C746 0.930 . S
H759 C747 0.930 . S
H760 C741 0.929 . S
H761 C779 0.930 . S
H762 C770 0.930 . S
H763 C771 0.930 . S
H764 C795 0.929 . S
H765 C753 0.930 . S
H766 C754 0.929 . S
H767 C796 0.930 . S
H768 C777 0.930 . S
N769 Gd738 2.661 . S
N769 C773 1.350 . S
N769 C774 1.307 . S
C770 H762 0.930 . S
C770 C771 1.355 . S
C770 C772 1.412 . S
C771 H763 0.930 . S
C771 C770 1.355 . S
C771 C774 1.402 . S
C772 C770 1.412 . S
C772 C773 1.417 . S
C772 C796 1.431 . S
C773 N769 1.350 . S
C773 C772 1.417 . S
C773 C776 1.426 . S
C774 H757 0.930 . S
C774 N769 1.307 . S
C774 C771 1.402 . S
N775 Gd738 2.601 . S
N775 C776 1.359 . S
N775 C779 1.334 . S
C776 C773 1.426 . S
C776 N775 1.359 . S
C776 C780 1.413 . S
C777 H768 0.930 . S
C777 C778 1.359 . S
C777 C779 1.394 . S
C778 C777 1.359 . S
C778 C780 1.391 . S
C778 H781 0.929 . S
C779 H761 0.930 . S
C779 N775 1.334 . S
C779 C777 1.394 . S
C780 C776 1.413 . S
C780 C778 1.391 . S
C780 C795 1.437 . S
H781 C778 0.929 . S
O782 Gd738 2.545 . S
O782 C797 1.258 . S
O783 Gd738 2.606 . S
O783 Gd739 2.362 . S
O783 C794 1.284 . S
O784 Gd739 2.324 . S
O784 C804 1.254 . S
O785 Gd738 2.429 . S
O785 C804 1.268 . S
O786 Gd738 2.545 . S
O786 C794 1.250 . S
O787 Gd738 2.412 . S
O787 C797 1.252 . S
O788 Gd739 2.545 . S
O788 C806 1.258 . S
O789 Gd738 2.362 . S
O789 Gd739 2.606 . S
O789 C805 1.284 . S
O790 Gd738 2.324 . S
O790 C813 1.254 . S
O791 Gd739 2.429 . S
O791 C813 1.268 . S
O792 Gd739 2.545 . S
O792 C805 1.250 . S
O793 Gd739 2.412 . S
O793 C806 1.252 . S
C794 O783 1.284 . S
C794 O786 1.250 . S
C795 H764 0.929 . S
C795 C780 1.437 . S
C795 C796 1.317 . S
C796 H767 0.930 . S
C796 C772 1.431 . S
C796 C795 1.317 . S
C797 Gd738 2.828 . S
C797 O782 1.258 . S
C797 O787 1.252 . S
C797 C798 1.497 . S
C798 C797 1.497 . S
C798 C799 1.395 . S
C798 C800 1.380 . S
C799 C798 1.395 . S
C799 C802 1.398 . S
C799 H814 0.930 . S
C800 C798 1.380 . S
C800 C801 1.391 . S
C800 H815 0.930 . S
C801 C800 1.391 . S
C801 C803 1.387 . S
C802 C799 1.398 . S
C802 C803 1.380 . S
C802 H816 0.930 . S
C803 C801 1.387 . S
C803 C802 1.380 . S
C803 H817 0.930 . S
C804 O784 1.254 . S
C804 O785 1.268 . S
C805 O789 1.284 . S
C805 O792 1.250 . S
C806 Gd739 2.828 . S
C806 O788 1.258 . S
C806 O793 1.252 . S
C806 C807 1.497 . S
C807 C806 1.497 . S
C807 C808 1.395 . S
C807 C809 1.380 . S
C808 C807 1.395 . S
C808 C811 1.398 . S
C808 H818 0.930 . S
C809 C807 1.380 . S
C809 C810 1.391 . S
C809 H819 0.930 . S
C810 C809 1.391 . S
C810 C812 1.387 . S
C811 C808 1.398 . S
C811 C812 1.380 . S
C811 H820 0.930 . S
C812 C810 1.387 . S
C812 C811 1.380 . S
C812 H821 0.930 . S
C813 O790 1.254 . S
C813 O791 1.268 . S
H814 C799 0.930 . S
H815 C800 0.930 . S
H816 C802 0.930 . S
H817 C803 0.930 . S
H818 C808 0.930 . S
H819 C809 0.930 . S
H820 C811 0.930 . S
H821 C812 0.930 . S
Gd822 N853 2.661 . S
Gd822 N859 2.601 . S
Gd822 O866 2.545 . S
Gd822 O867 2.606 . S
Gd822 O869 2.429 . S
Gd822 O870 2.545 . S
Gd822 O871 2.412 . S
Gd822 O873 2.362 . S
Gd822 O874 2.324 . S
Gd822 C881 2.828 . S
Gd823 N832 2.661 . S
Gd823 N836 2.601 . S
Gd823 O867 2.362 . S
Gd823 O868 2.324 . S
Gd823 O872 2.545 . S
Gd823 O873 2.606 . S
Gd823 O875 2.429 . S
Gd823 O876 2.545 . S
Gd823 O877 2.412 . S
Gd823 C890 2.828 . S
C824 C827 1.417 . S
C824 C829 1.431 . S
C824 C830 1.412 . S
C825 C828 1.437 . S
C825 C829 1.317 . S
C825 H844 0.929 . S
C826 C827 1.426 . S
C826 C828 1.413 . S
C826 N836 1.359 . S
C827 C824 1.417 . S
C827 C826 1.426 . S
C827 N832 1.350 . S
C828 C825 1.437 . S
C828 C826 1.413 . S
C828 C838 1.391 . S
C829 C824 1.431 . S
C829 C825 1.317 . S
C829 H840 0.930 . S
C830 C824 1.412 . S
C830 C831 1.355 . S
C830 H842 0.930 . S
C831 C830 1.355 . S
C831 C833 1.402 . S
C831 H843 0.930 . S
N832 Gd823 2.661 . S
N832 C827 1.350 . S
N832 C833 1.307 . S
C833 C831 1.402 . S
C833 N832 1.307 . S
C833 H834 0.930 . S
H834 C833 0.930 . S
C835 N836 1.334 . S
C835 C837 1.394 . S
C835 H839 0.930 . S
N836 Gd823 2.601 . S
N836 C826 1.359 . S
N836 C835 1.334 . S
C837 C835 1.394 . S
C837 C838 1.359 . S
C837 H849 0.930 . S
C838 C828 1.391 . S
C838 C837 1.359 . S
C838 H850 0.929 . S
H839 C835 0.930 . S
H840 C829 0.930 . S
H841 C858 0.930 . S
H842 C830 0.930 . S
H843 C831 0.930 . S
H844 C825 0.929 . S
H845 C863 0.930 . S
H846 C854 0.930 . S
H847 C855 0.930 . S
H848 C879 0.929 . S
H849 C837 0.930 . S
H850 C838 0.929 . S
H851 C880 0.930 . S
H852 C861 0.930 . S
N853 Gd822 2.661 . S
N853 C857 1.350 . S
N853 C858 1.307 . S
C854 H846 0.930 . S
C854 C855 1.355 . S
C854 C856 1.412 . S
C855 H847 0.930 . S
C855 C854 1.355 . S
C855 C858 1.402 . S
C856 C854 1.412 . S
C856 C857 1.417 . S
C856 C880 1.431 . S
C857 N853 1.350 . S
C857 C856 1.417 . S
C857 C860 1.426 . S
C858 H841 0.930 . S
C858 N853 1.307 . S
C858 C855 1.402 . S
N859 Gd822 2.601 . S
N859 C860 1.359 . S
N859 C863 1.334 . S
C860 C857 1.426 . S
C860 N859 1.359 . S
C860 C864 1.413 . S
C861 H852 0.930 . S
C861 C862 1.359 . S
C861 C863 1.394 . S
C862 C861 1.359 . S
C862 C864 1.391 . S
C862 H865 0.929 . S
C863 H845 0.930 . S
C863 N859 1.334 . S
C863 C861 1.394 . S
C864 C860 1.413 . S
C864 C862 1.391 . S
C864 C879 1.437 . S
H865 C862 0.929 . S
O866 Gd822 2.545 . S
O866 C881 1.258 . S
O867 Gd822 2.606 . S
O867 Gd823 2.362 . S
O867 C878 1.284 . S
O868 Gd823 2.324 . S
O868 C888 1.254 . S
O869 Gd822 2.429 . S
O869 C888 1.268 . S
O870 Gd822 2.545 . S
O870 C878 1.250 . S
O871 Gd822 2.412 . S
O871 C881 1.252 . S
O872 Gd823 2.545 . S
O872 C890 1.258 . S
O873 Gd822 2.362 . S
O873 Gd823 2.606 . S
O873 C889 1.284 . S
O874 Gd822 2.324 . S
O874 C897 1.254 . S
O875 Gd823 2.429 . S
O875 C897 1.268 . S
O876 Gd823 2.545 . S
O876 C889 1.250 . S
O877 Gd823 2.412 . S
O877 C890 1.252 . S
C878 O867 1.284 . S
C878 O870 1.250 . S
C879 H848 0.929 . S
C879 C864 1.437 . S
C879 C880 1.317 . S
C880 H851 0.930 . S
C880 C856 1.431 . S
C880 C879 1.317 . S
C881 Gd822 2.828 . S
C881 O866 1.258 . S
C881 O871 1.252 . S
C881 C882 1.497 . S
C882 C881 1.497 . S
C882 C883 1.395 . S
C882 C884 1.380 . S
C883 C882 1.395 . S
C883 C886 1.398 . S
C883 H898 0.930 . S
C884 C882 1.380 . S
C884 C885 1.391 . S
C884 H899 0.930 . S
C885 C884 1.391 . S
C885 C887 1.387 . S
C886 C883 1.398 . S
C886 C887 1.380 . S
C886 H900 0.930 . S
C887 C885 1.387 . S
C887 C886 1.380 . S
C887 H901 0.930 . S
C888 O868 1.254 . S
C888 O869 1.268 . S
C889 O873 1.284 . S
C889 O876 1.250 . S
C890 Gd823 2.828 . S
C890 O872 1.258 . S
C890 O877 1.252 . S
C890 C891 1.497 . S
C891 C890 1.497 . S
C891 C892 1.395 . S
C891 C893 1.380 . S
C892 C891 1.395 . S
C892 C895 1.398 . S
C892 H902 0.930 . S
C893 C891 1.380 . S
C893 C894 1.391 . S
C893 H903 0.930 . S
C894 C893 1.391 . S
C894 C896 1.387 . S
C895 C892 1.398 . S
C895 C896 1.380 . S
C895 H904 0.930 . S
C896 C894 1.387 . S
C896 C895 1.380 . S
C896 H905 0.930 . S
C897 O874 1.254 . S
C897 O875 1.268 . S
H898 C883 0.930 . S
H899 C884 0.930 . S
H900 C886 0.930 . S
H901 C887 0.930 . S
H902 C892 0.930 . S
H903 C893 0.930 . S
H904 C895 0.930 . S
H905 C896 0.930 . S
Gd906 N937 2.661 . S
Gd906 N943 2.601 . S
Gd906 O950 2.545 . S
Gd906 O951 2.606 . S
Gd906 O953 2.429 . S
Gd906 O954 2.545 . S
Gd906 O955 2.412 . S
Gd906 O957 2.362 . S
Gd906 O958 2.324 . S
Gd906 C965 2.828 . S
Gd907 N916 2.661 . S
Gd907 N920 2.601 . S
Gd907 O951 2.362 . S
Gd907 O952 2.324 . S
Gd907 O956 2.545 . S
Gd907 O957 2.606 . S
Gd907 O959 2.429 . S
Gd907 O960 2.545 . S
Gd907 O961 2.412 . S
Gd907 C974 2.828 . S
C908 C911 1.417 . S
C908 C913 1.431 . S
C908 C914 1.412 . S
C909 C912 1.437 . S
C909 C913 1.317 . S
C909 H928 0.929 . S
C910 C911 1.426 . S
C910 C912 1.413 . S
C910 N920 1.359 . S
C911 C908 1.417 . S
C911 C910 1.426 . S
C911 N916 1.350 . S
C912 C909 1.437 . S
C912 C910 1.413 . S
C912 C922 1.391 . S
C913 C908 1.431 . S
C913 C909 1.317 . S
C913 H924 0.930 . S
C914 C908 1.412 . S
C914 C915 1.355 . S
C914 H926 0.930 . S
C915 C914 1.355 . S
C915 C917 1.402 . S
C915 H927 0.930 . S
N916 Gd907 2.661 . S
N916 C911 1.350 . S
N916 C917 1.307 . S
C917 C915 1.402 . S
C917 N916 1.307 . S
C917 H918 0.930 . S
H918 C917 0.930 . S
C919 N920 1.334 . S
C919 C921 1.394 . S
C919 H923 0.930 . S
N920 Gd907 2.601 . S
N920 C910 1.359 . S
N920 C919 1.334 . S
C921 C919 1.394 . S
C921 C922 1.359 . S
C921 H933 0.930 . S
C922 C912 1.391 . S
C922 C921 1.359 . S
C922 H934 0.929 . S
H923 C919 0.930 . S
H924 C913 0.930 . S
H925 C942 0.930 . S
H926 C914 0.930 . S
H927 C915 0.930 . S
H928 C909 0.929 . S
H929 C947 0.930 . S
H930 C938 0.930 . S
H931 C939 0.930 . S
H932 C963 0.929 . S
H933 C921 0.930 . S
H934 C922 0.929 . S
H935 C964 0.930 . S
H936 C945 0.930 . S
N937 Gd906 2.661 . S
N937 C941 1.350 . S
N937 C942 1.307 . S
C938 H930 0.930 . S
C938 C939 1.355 . S
C938 C940 1.412 . S
C939 H931 0.930 . S
C939 C938 1.355 . S
C939 C942 1.402 . S
C940 C938 1.412 . S
C940 C941 1.417 . S
C940 C964 1.431 . S
C941 N937 1.350 . S
C941 C940 1.417 . S
C941 C944 1.426 . S
C942 H925 0.930 . S
C942 N937 1.307 . S
C942 C939 1.402 . S
N943 Gd906 2.601 . S
N943 C944 1.359 . S
N943 C947 1.334 . S
C944 C941 1.426 . S
C944 N943 1.359 . S
C944 C948 1.413 . S
C945 H936 0.930 . S
C945 C946 1.359 . S
C945 C947 1.394 . S
C946 C945 1.359 . S
C946 C948 1.391 . S
C946 H949 0.929 . S
C947 H929 0.930 . S
C947 N943 1.334 . S
C947 C945 1.394 . S
C948 C944 1.413 . S
C948 C946 1.391 . S
C948 C963 1.437 . S
H949 C946 0.929 . S
O950 Gd906 2.545 . S
O950 C965 1.258 . S
O951 Gd906 2.606 . S
O951 Gd907 2.362 . S
O951 C962 1.284 . S
O952 Gd907 2.324 . S
O952 C972 1.254 . S
O953 Gd906 2.429 . S
O953 C972 1.268 . S
O954 Gd906 2.545 . S
O954 C962 1.250 . S
O955 Gd906 2.412 . S
O955 C965 1.252 . S
O956 Gd907 2.545 . S
O956 C974 1.258 . S
O957 Gd906 2.362 . S
O957 Gd907 2.606 . S
O957 C973 1.284 . S
O958 Gd906 2.324 . S
O958 C981 1.254 . S
O959 Gd907 2.429 . S
O959 C981 1.268 . S
O960 Gd907 2.545 . S
O960 C973 1.250 . S
O961 Gd907 2.412 . S
O961 C974 1.252 . S
C962 O951 1.284 . S
C962 O954 1.250 . S
C963 H932 0.929 . S
C963 C948 1.437 . S
C963 C964 1.317 . S
C964 H935 0.930 . S
C964 C940 1.431 . S
C964 C963 1.317 . S
C965 Gd906 2.828 . S
C965 O950 1.258 . S
C965 O955 1.252 . S
C965 C966 1.497 . S
C966 C965 1.497 . S
C966 C967 1.395 . S
C966 C968 1.380 . S
C967 C966 1.395 . S
C967 C970 1.398 . S
C967 H982 0.930 . S
C968 C966 1.380 . S
C968 C969 1.391 . S
C968 H983 0.930 . S
C969 C968 1.391 . S
C969 C971 1.387 . S
C970 C967 1.398 . S
C970 C971 1.380 . S
C970 H984 0.930 . S
C971 C969 1.387 . S
C971 C970 1.380 . S
C971 H985 0.930 . S
C972 O952 1.254 . S
C972 O953 1.268 . S
C973 O957 1.284 . S
C973 O960 1.250 . S
C974 Gd907 2.828 . S
C974 O956 1.258 . S
C974 O961 1.252 . S
C974 C975 1.497 . S
C975 C974 1.497 . S
C975 C976 1.395 . S
C975 C977 1.380 . S
C976 C975 1.395 . S
C976 C979 1.398 . S
C976 H986 0.930 . S
C977 C975 1.380 . S
C977 C978 1.391 . S
C977 H987 0.930 . S
C978 C977 1.391 . S
C978 C980 1.387 . S
C979 C976 1.398 . S
C979 C980 1.380 . S
C979 H988 0.930 . S
C980 C978 1.387 . S
C980 C979 1.380 . S
C980 H989 0.930 . S
C981 O958 1.254 . S
C981 O959 1.268 . S
H982 C967 0.930 . S
H983 C968 0.930 . S
H984 C970 0.930 . S
H985 C971 0.930 . S
H986 C976 0.930 . S
H987 C977 0.930 . S
H988 C979 0.930 . S
H989 C980 0.930 . S
C990 C991 1.349 . S
C990 C992 1.327 . S
C990 H1015 0.950 . S
C991 C990 1.349 . S
C991 C1007 1.349 . S
C992 C990 1.327 . S
C992 C1011 1.429 . S
C992 H1016 0.950 . S
C993 C1010 1.574 . S
C993 C1012 1.368 . S
C993 H1017 0.949 . S
H994 C998 0.949 . S
C995 C996 1.349 . S
C995 C997 1.327 . S
C995 H1018 0.950 . S
C996 C995 1.349 . S
C996 C1008 1.349 . S
C997 C995 1.327 . S
C997 C1013 1.429 . S
C997 H1019 0.950 . S
C998 H994 0.949 . S
C998 C1006 1.574 . S
C998 C1014 1.368 . S
H999 C1007 0.950 . S
H1000 C1005 0.950 . S
H1001 C1006 0.949 . S
H1002 C1008 0.950 . S
H1003 C1009 0.950 . S
H1004 C1010 0.949 . S
C1005 H1000 0.950 . S
C1005 C1007 1.327 . S
C1005 C1011 1.429 . S
C1006 C998 1.574 . S
C1006 H1001 0.949 . S
C1006 C1012 1.368 . S
C1007 C991 1.349 . S
C1007 H999 0.950 . S
C1007 C1005 1.327 . S
C1008 C996 1.349 . S
C1008 H1002 0.950 . S
C1008 C1009 1.327 . S
C1009 H1003 0.950 . S
C1009 C1008 1.327 . S
C1009 C1013 1.429 . S
C1010 C993 1.574 . S
C1010 H1004 0.949 . S
C1010 C1014 1.368 . S
C1011 C992 1.429 . S
C1011 C1005 1.429 . S
C1011 C1012 1.523 . S
C1012 C993 1.368 . S
C1012 C1006 1.368 . S
C1012 C1011 1.523 . S
C1013 C997 1.429 . S
C1013 C1009 1.429 . S
C1013 C1014 1.523 . S
C1014 C998 1.368 . S
C1014 C1010 1.368 . S
C1014 C1013 1.523 . S
H1015 C990 0.950 . S
H1016 C992 0.950 . S
H1017 C993 0.949 . S
H1018 C995 0.950 . S
H1019 C997 0.950 . S
C1020 C1021 1.349 . S
C1020 C1022 1.327 . S
C1020 H1045 0.950 . S
C1021 C1020 1.349 . S
C1021 C1037 1.349 . S
C1022 C1020 1.327 . S
C1022 C1041 1.429 . S
C1022 H1046 0.950 . S
C1023 C1040 1.574 . S
C1023 C1042 1.368 . S
C1023 H1047 0.949 . S
H1024 C1028 0.949 . S
C1025 C1026 1.349 . S
C1025 C1027 1.327 . S
C1025 H1048 0.950 . S
C1026 C1025 1.349 . S
C1026 C1038 1.349 . S
C1027 C1025 1.327 . S
C1027 C1043 1.429 . S
C1027 H1049 0.950 . S
C1028 H1024 0.949 . S
C1028 C1036 1.574 . S
C1028 C1044 1.368 . S
H1029 C1037 0.950 . S
H1030 C1035 0.950 . S
H1031 C1036 0.949 . S
H1032 C1038 0.950 . S
H1033 C1039 0.950 . S
H1034 C1040 0.949 . S
C1035 H1030 0.950 . S
C1035 C1037 1.327 . S
C1035 C1041 1.429 . S
C1036 C1028 1.574 . S
C1036 H1031 0.949 . S
C1036 C1042 1.368 . S
C1037 C1021 1.349 . S
C1037 H1029 0.950 . S
C1037 C1035 1.327 . S
C1038 C1026 1.349 . S
C1038 H1032 0.950 . S
C1038 C1039 1.327 . S
C1039 H1033 0.950 . S
C1039 C1038 1.327 . S
C1039 C1043 1.429 . S
C1040 C1023 1.574 . S
C1040 H1034 0.949 . S
C1040 C1044 1.368 . S
C1041 C1022 1.429 . S
C1041 C1035 1.429 . S
C1041 C1042 1.523 . S
C1042 C1023 1.368 . S
C1042 C1036 1.368 . S
C1042 C1041 1.523 . S
C1043 C1027 1.429 . S
C1043 C1039 1.429 . S
C1043 C1044 1.523 . S
C1044 C1028 1.368 . S
C1044 C1040 1.368 . S
C1044 C1043 1.523 . S
H1045 C1020 0.950 . S
H1046 C1022 0.950 . S
H1047 C1023 0.949 . S
H1048 C1025 0.950 . S
H1049 C1027 0.950 . S
C1050 C1051 1.349 . S
C1050 C1052 1.327 . S
C1050 H1075 0.950 . S
C1051 C1050 1.349 . S
C1051 C1067 1.349 . S
C1052 C1050 1.327 . S
C1052 C1071 1.429 . S
C1052 H1076 0.950 . S
C1053 C1070 1.574 . S
C1053 C1072 1.368 . S
C1053 H1077 0.949 . S
H1054 C1058 0.949 . S
C1055 C1056 1.349 . S
C1055 C1057 1.327 . S
C1055 H1078 0.950 . S
C1056 C1055 1.349 . S
C1056 C1068 1.349 . S
C1057 C1055 1.327 . S
C1057 C1073 1.429 . S
C1057 H1079 0.950 . S
C1058 H1054 0.949 . S
C1058 C1066 1.574 . S
C1058 C1074 1.368 . S
H1059 C1067 0.950 . S
H1060 C1065 0.950 . S
H1061 C1066 0.949 . S
H1062 C1068 0.950 . S
H1063 C1069 0.950 . S
H1064 C1070 0.949 . S
C1065 H1060 0.950 . S
C1065 C1067 1.327 . S
C1065 C1071 1.429 . S
C1066 C1058 1.574 . S
C1066 H1061 0.949 . S
C1066 C1072 1.368 . S
C1067 C1051 1.349 . S
C1067 H1059 0.950 . S
C1067 C1065 1.327 . S
C1068 C1056 1.349 . S
C1068 H1062 0.950 . S
C1068 C1069 1.327 . S
C1069 H1063 0.950 . S
C1069 C1068 1.327 . S
C1069 C1073 1.429 . S
C1070 C1053 1.574 . S
C1070 H1064 0.949 . S
C1070 C1074 1.368 . S
C1071 C1052 1.429 . S
C1071 C1065 1.429 . S
C1071 C1072 1.523 . S
C1072 C1053 1.368 . S
C1072 C1066 1.368 . S
C1072 C1071 1.523 . S
C1073 C1057 1.429 . S
C1073 C1069 1.429 . S
C1073 C1074 1.523 . S
C1074 C1058 1.368 . S
C1074 C1070 1.368 . S
C1074 C1073 1.523 . S
H1075 C1050 0.950 . S
H1076 C1052 0.950 . S
H1077 C1053 0.949 . S
H1078 C1055 0.950 . S
H1079 C1057 0.950 . S
C1080 C1081 1.349 . S
C1080 C1082 1.327 . S
C1080 H1105 0.950 . S
C1081 C1080 1.349 . S
C1081 C1097 1.349 . S
C1082 C1080 1.327 . S
C1082 C1101 1.429 . S
C1082 H1106 0.950 . S
C1083 C1100 1.574 . S
C1083 C1102 1.368 . S
C1083 H1107 0.949 . S
H1084 C1088 0.949 1_554 S
C1085 C1086 1.349 . S
C1085 C1087 1.327 . S
C1085 H1108 0.950 . S
C1086 C1085 1.349 . S
C1086 C1098 1.349 1_556 S
C1087 C1085 1.327 . S
C1087 C1103 1.429 . S
C1087 H1109 0.950 . S
C1088 H1084 0.949 1_556 S
C1088 C1096 1.574 . S
C1088 C1104 1.368 . S
H1089 C1097 0.950 . S
H1090 C1095 0.950 . S
H1091 C1096 0.949 1_554 S
H1092 C1098 0.950 . S
H1093 C1099 0.950 . S
H1094 C1100 0.949 . S
C1095 H1090 0.950 . S
C1095 C1097 1.327 . S
C1095 C1101 1.429 . S
C1096 C1088 1.574 . S
C1096 H1091 0.949 1_556 S
C1096 C1102 1.368 . S
C1097 C1081 1.349 . S
C1097 H1089 0.950 . S
C1097 C1095 1.327 . S
C1098 C1086 1.349 1_554 S
C1098 H1092 0.950 . S
C1098 C1099 1.327 . S
C1099 H1093 0.950 . S
C1099 C1098 1.327 . S
C1099 C1103 1.429 1_554 S
C1100 C1083 1.574 . S
C1100 H1094 0.949 . S
C1100 C1104 1.368 . S
C1101 C1082 1.429 . S
C1101 C1095 1.429 . S
C1101 C1102 1.523 . S
C1102 C1083 1.368 . S
C1102 C1096 1.368 . S
C1102 C1101 1.523 . S
C1103 C1087 1.429 . S
C1103 C1099 1.429 1_556 S
C1103 C1104 1.523 . S
C1104 C1088 1.368 . S
C1104 C1100 1.368 . S
C1104 C1103 1.523 . S
H1105 C1080 0.950 . S
H1106 C1082 0.950 . S
H1107 C1083 0.949 . S
H1108 C1085 0.950 . S
H1109 C1087 0.950 . S
C1110 C1111 1.349 . S
C1110 C1112 1.327 . S
C1110 H1135 0.950 . S
C1111 C1110 1.349 . S
C1111 C1127 1.349 . S
C1112 C1110 1.327 . S
C1112 C1131 1.429 . S
C1112 H1136 0.950 . S
C1113 C1130 1.574 . S
C1113 C1132 1.368 . S
C1113 H1137 0.949 . S
H1114 C1118 0.949 1_554 S
C1115 C1116 1.383 . S
C1115 C1117 1.305 1_554 S
C1115 H1138 0.942 1_554 S
C1116 C1115 1.383 . S
C1116 C1128 1.349 . S
C1117 C1115 1.305 1_556 S
C1117 C1133 1.429 . S
C1117 H1139 0.950 . S
C1118 H1114 0.949 1_556 S
C1118 C1126 1.574 . S
C1118 C1134 1.368 . S
H1119 C1127 0.950 . S
H1120 C1125 0.950 . S
H1121 C1126 0.949 . S
H1122 C1128 0.950 . S
H1123 C1129 0.950 . S
H1124 C1130 0.949 . S
C1125 H1120 0.950 . S
C1125 C1127 1.327 . S
C1125 C1131 1.429 . S
C1126 C1118 1.574 . S
C1126 H1121 0.949 . S
C1126 C1132 1.368 . S
C1127 C1111 1.349 . S
C1127 H1119 0.950 . S
C1127 C1125 1.327 . S
C1128 C1116 1.349 . S
C1128 H1122 0.950 . S
C1128 C1129 1.327 . S
C1129 H1123 0.950 . S
C1129 C1128 1.327 . S
C1129 C1133 1.429 1_554 S
C1130 C1113 1.574 . S
C1130 H1124 0.949 . S
C1130 C1134 1.368 . S
C1131 C1112 1.429 . S
C1131 C1125 1.429 . S
C1131 C1132 1.523 . S
C1132 C1113 1.368 . S
C1132 C1126 1.368 . S
C1132 C1131 1.523 . S
C1133 C1117 1.429 . S
C1133 C1129 1.429 1_556 S
C1133 C1134 1.523 . S
C1134 C1118 1.368 . S
C1134 C1130 1.368 . S
C1134 C1133 1.523 . S
H1135 C1110 0.950 . S
H1136 C1112 0.950 . S
H1137 C1113 0.949 . S
H1138 C1115 0.942 1_556 S
H1139 C1117 0.950 . S
C1140 C1141 1.349 . S
C1140 C1142 1.327 . S
C1140 H1165 0.950 . S
C1141 C1140 1.349 . S
C1141 C1157 1.349 . S
C1142 C1140 1.327 . S
C1142 C1161 1.429 . S
C1142 H1166 0.950 . S
C1143 C1160 1.574 . S
C1143 C1162 1.368 . S
C1143 H1167 0.949 . S
H1144 C1148 0.949 . S
C1145 C1146 1.349 1_556 S
C1145 C1147 1.327 . S
C1145 H1168 0.950 . S
C1146 C1145 1.349 1_554 S
C1146 C1158 1.349 . S
C1147 C1145 1.327 . S
C1147 C1163 1.429 . S
C1147 H1169 0.950 . S
C1148 H1144 0.949 . S
C1148 C1156 1.574 1_554 S
C1148 C1164 1.368 1_554 S
H1149 C1157 0.950 . S
H1150 C1155 0.950 . S
H1151 C1156 0.949 1_554 S
H1152 C1158 0.950 . S
H1153 C1159 0.950 . S
H1154 C1160 0.949 . S
C1155 H1150 0.950 . S
C1155 C1157 1.327 . S
C1155 C1161 1.429 . S
C1156 C1148 1.574 1_556 S
C1156 H1151 0.949 1_556 S
C1156 C1162 1.368 . S
C1157 C1141 1.349 . S
C1157 H1149 0.950 . S
C1157 C1155 1.327 . S
C1158 C1146 1.349 . S
C1158 H1152 0.950 . S
C1158 C1159 1.327 . S
C1159 H1153 0.950 . S
C1159 C1158 1.327 . S
C1159 C1163 1.429 1_554 S
C1160 C1143 1.574 . S
C1160 H1154 0.949 . S
C1160 C1164 1.368 . S
C1161 C1142 1.429 . S
C1161 C1155 1.429 . S
C1161 C1162 1.523 . S
C1162 C1143 1.368 . S
C1162 C1156 1.368 . S
C1162 C1161 1.523 . S
C1163 C1147 1.429 . S
C1163 C1159 1.429 1_556 S
C1163 C1164 1.523 . S
C1164 C1148 1.368 1_556 S
C1164 C1160 1.368 . S
C1164 C1163 1.523 . S
H1165 C1140 0.950 . S
H1166 C1142 0.950 . S
H1167 C1143 0.949 . S
H1168 C1145 0.950 . S
H1169 C1147 0.950 . S
C1170 C1171 1.349 . S
C1170 C1172 1.327 . S
C1170 H1195 0.950 . S
C1171 C1170 1.349 . S
C1171 C1187 1.349 . S
C1172 C1170 1.327 . S
C1172 C1191 1.429 . S
C1172 H1196 0.950 . S
C1173 C1190 1.574 . S
C1173 C1192 1.368 . S
C1173 H1197 0.949 . S
H1174 C1178 0.949 . S
C1175 C1176 1.349 . S
C1175 C1177 1.327 . S
C1175 H1198 0.950 . S
C1176 C1175 1.349 . S
C1176 C1188 1.349 1_554 S
C1177 C1175 1.327 . S
C1177 C1193 1.429 1_554 S
C1177 H1199 0.950 . S
C1178 H1174 0.949 . S
C1178 C1186 1.574 . S
C1178 C1194 1.368 . S
H1179 C1187 0.950 . S
H1180 C1185 0.950 . S
H1181 C1186 0.949 . S
H1182 C1188 0.950 . S
H1183 C1189 0.950 . S
H1184 C1190 0.949 1_554 S
C1185 H1180 0.950 . S
C1185 C1187 1.327 . S
C1185 C1191 1.429 . S
C1186 C1178 1.574 . S
C1186 H1181 0.949 . S
C1186 C1192 1.368 . S
C1187 C1171 1.349 . S
C1187 H1179 0.950 . S
C1187 C1185 1.327 . S
C1188 C1176 1.349 1_556 S
C1188 H1182 0.950 . S
C1188 C1189 1.327 . S
C1189 H1183 0.950 . S
C1189 C1188 1.327 . S
C1189 C1193 1.429 . S
C1190 C1173 1.574 . S
C1190 H1184 0.949 1_556 S
C1190 C1194 1.368 . S
C1191 C1172 1.429 . S
C1191 C1185 1.429 . S
C1191 C1192 1.523 . S
C1192 C1173 1.368 . S
C1192 C1186 1.368 . S
C1192 C1191 1.523 . S
C1193 C1177 1.429 1_556 S
C1193 C1189 1.429 . S
C1193 C1194 1.523 . S
C1194 C1178 1.368 . S
C1194 C1190 1.368 . S
C1194 C1193 1.523 . S
H1195 C1170 0.950 . S
H1196 C1172 0.950 . S
H1197 C1173 0.949 . S
H1198 C1175 0.950 . S
H1199 C1177 0.950 . S
C1200 C1201 1.349 . S
C1200 C1202 1.327 . S
C1200 H1225 0.950 . S
C1201 C1200 1.349 . S
C1201 C1217 1.349 . S
C1202 C1200 1.327 . S
C1202 C1221 1.429 . S
C1202 H1226 0.950 . S
C1203 C1220 1.574 . S
C1203 C1222 1.368 . S
C1203 H1227 0.949 . S
H1204 C1208 0.949 . S
C1205 C1206 1.349 . S
C1205 C1207 1.327 . S
C1205 H1228 0.950 . S
C1206 C1205 1.349 . S
C1206 C1218 1.349 . S
C1207 C1205 1.327 . S
C1207 C1223 1.429 . S
C1207 H1229 0.950 . S
C1208 H1204 0.949 . S
C1208 C1216 1.574 . S
C1208 C1224 1.368 . S
H1209 C1217 0.950 . S
H1210 C1215 0.950 . S
H1211 C1216 0.949 . S
H1212 C1218 0.950 . S
H1213 C1219 0.950 . S
H1214 C1220 0.949 . S
C1215 H1210 0.950 . S
C1215 C1217 1.327 . S
C1215 C1221 1.429 . S
C1216 C1208 1.574 . S
C1216 H1211 0.949 . S
C1216 C1222 1.368 . S
C1217 C1201 1.349 . S
C1217 H1209 0.950 . S
C1217 C1215 1.327 . S
C1218 C1206 1.349 . S
C1218 H1212 0.950 . S
C1218 C1219 1.327 . S
C1219 H1213 0.950 . S
C1219 C1218 1.327 . S
C1219 C1223 1.429 . S
C1220 C1203 1.574 . S
C1220 H1214 0.949 . S
C1220 C1224 1.368 . S
C1221 C1202 1.429 . S
C1221 C1215 1.429 . S
C1221 C1222 1.523 . S
C1222 C1203 1.368 . S
C1222 C1216 1.368 . S
C1222 C1221 1.523 . S
C1223 C1207 1.429 . S
C1223 C1219 1.429 . S
C1223 C1224 1.523 . S
C1224 C1208 1.368 . S
C1224 C1220 1.368 . S
C1224 C1223 1.523 . S
H1225 C1200 0.950 . S
H1226 C1202 0.950 . S
H1227 C1203 0.949 . S
H1228 C1205 0.950 . S
H1229 C1207 0.950 . S
C1230 C1231 1.349 . S
C1230 C1232 1.327 . S
C1230 H1255 0.950 . S
C1231 C1230 1.349 . S
C1231 C1247 1.349 . S
C1232 C1230 1.327 . S
C1232 C1251 1.429 . S
C1232 H1256 0.966 . S
C1233 C1250 1.574 . S
C1233 C1252 1.368 . S
C1233 H1257 0.949 . S
H1234 C1238 0.949 . S
C1235 C1236 1.349 . S
C1235 C1237 1.327 1_554 S
C1235 H1258 0.950 1_554 S
C1236 C1235 1.349 . S
C1236 C1248 1.349 . S
C1237 C1235 1.327 1_556 S
C1237 C1253 1.429 1_556 S
C1237 H1259 0.950 . S
C1238 H1234 0.949 . S
C1238 C1246 1.574 . S
C1238 C1254 1.368 1_554 S
H1239 C1247 0.950 . S
H1240 C1245 0.950 . S
H1241 C1246 0.949 . S
H1242 C1248 0.950 . S
H1243 C1249 0.950 . S
H1244 C1250 0.949 . S
C1245 H1240 0.950 . S
C1245 C1247 1.327 . S
C1245 C1251 1.429 . S
C1246 C1238 1.574 . S
C1246 H1241 0.949 . S
C1246 C1252 1.368 1_554 S
C1247 C1231 1.349 . S
C1247 H1239 0.950 . S
C1247 C1245 1.327 . S
C1248 C1236 1.349 . S
C1248 H1242 0.950 . S
C1248 C1249 1.327 . S
C1249 H1243 0.950 . S
C1249 C1248 1.327 . S
C1249 C1253 1.429 . S
C1250 C1233 1.574 . S
C1250 H1244 0.949 . S
C1250 C1254 1.368 . S
C1251 C1232 1.429 . S
C1251 C1245 1.429 . S
C1251 C1252 1.523 . S
C1252 C1233 1.368 . S
C1252 C1246 1.368 1_556 S
C1252 C1251 1.523 . S
C1253 C1237 1.429 1_554 S
C1253 C1249 1.429 . S
C1253 C1254 1.523 1_554 S
C1254 C1238 1.368 1_556 S
C1254 C1250 1.368 . S
C1254 C1253 1.523 1_556 S
H1255 C1230 0.950 . S
H1256 C1232 0.966 . S
H1257 C1233 0.949 . S
H1258 C1235 0.950 1_556 S
H1259 C1237 0.950 . S
C1260 C1261 1.349 . S
C1260 C1262 1.327 . S
C1260 H1285 0.950 . S
C1261 C1260 1.349 . S
C1261 C1277 1.349 . S
C1262 C1260 1.327 . S
C1262 C1281 1.429 . S
C1262 H1286 0.950 . S
C1263 C1280 1.574 . S
C1263 C1282 1.368 . S
C1263 H1287 0.949 . S
H1264 C1268 0.949 . S
C1265 C1266 1.349 . S
C1265 C1267 1.327 . S
C1265 H1288 0.950 1_554 S
C1266 C1265 1.349 . S
C1266 C1278 1.349 . S
C1267 C1265 1.327 . S
C1267 C1283 1.429 . S
C1267 H1289 0.950 . S
C1268 H1264 0.949 . S
C1268 C1276 1.574 . S
C1268 C1284 1.368 . S
H1269 C1277 0.950 . S
H1270 C1275 0.950 . S
H1271 C1276 0.949 . S
H1272 C1278 0.950 . S
H1273 C1279 0.950 . S
H1274 C1280 0.949 . S
C1275 H1270 0.950 . S
C1275 C1277 1.327 . S
C1275 C1281 1.429 . S
C1276 C1268 1.574 . S
C1276 H1271 0.949 . S
C1276 C1282 1.368 . S
C1277 C1261 1.349 . S
C1277 H1269 0.950 . S
C1277 C1275 1.327 . S
C1278 C1266 1.349 . S
C1278 H1272 0.950 . S
C1278 C1279 1.327 . S
C1279 H1273 0.950 . S
C1279 C1278 1.327 . S
C1279 C1283 1.429 . S
C1280 C1263 1.574 . S
C1280 H1274 0.949 . S
C1280 C1284 1.368 . S
C1281 C1262 1.429 . S
C1281 C1275 1.429 . S
C1281 C1282 1.523 . S
C1282 C1263 1.368 . S
C1282 C1276 1.368 . S
C1282 C1281 1.523 . S
C1283 C1267 1.429 . S
C1283 C1279 1.429 . S
C1283 C1284 1.523 . S
C1284 C1268 1.368 . S
C1284 C1280 1.368 . S
C1284 C1283 1.523 . S
H1285 C1260 0.950 . S
H1286 C1262 0.950 . S
H1287 C1263 0.949 . S
H1288 C1265 0.950 1_556 S
H1289 C1267 0.950 . S
C1290 C1291 1.349 . S
C1290 C1292 1.327 . S
C1290 H1315 0.950 . S
C1291 C1290 1.349 . S
C1291 C1307 1.349 . S
C1292 C1290 1.327 . S
C1292 C1311 1.429 . S
C1292 H1316 0.950 . S
C1293 C1310 1.574 . S
C1293 C1312 1.368 . S
C1293 H1317 0.949 . S
H1294 C1298 0.949 . S
C1295 C1296 1.349 . S
C1295 C1297 1.327 . S
C1295 H1318 0.950 . S
C1296 C1295 1.349 . S
C1296 C1308 1.349 . S
C1297 C1295 1.327 . S
C1297 C1313 1.429 . S
C1297 H1319 0.950 . S
C1298 H1294 0.949 . S
C1298 C1306 1.574 . S
C1298 C1314 1.368 . S
H1299 C1307 0.950 . S
H1300 C1305 0.950 . S
H1301 C1306 0.949 . S
H1302 C1308 0.950 . S
H1303 C1309 0.950 . S
H1304 C1310 0.949 . S
C1305 H1300 0.950 . S
C1305 C1307 1.327 . S
C1305 C1311 1.429 . S
C1306 C1298 1.574 . S
C1306 H1301 0.949 . S
C1306 C1312 1.368 . S
C1307 C1291 1.349 . S
C1307 H1299 0.950 . S
C1307 C1305 1.327 . S
C1308 C1296 1.349 . S
C1308 H1302 0.950 . S
C1308 C1309 1.327 . S
C1309 H1303 0.950 . S
C1309 C1308 1.327 . S
C1309 C1313 1.429 . S
C1310 C1293 1.574 . S
C1310 H1304 0.949 . S
C1310 C1314 1.368 . S
C1311 C1292 1.429 . S
C1311 C1305 1.429 . S
C1311 C1312 1.523 . S
C1312 C1293 1.368 . S
C1312 C1306 1.368 . S
C1312 C1311 1.523 . S
C1313 C1297 1.429 . S
C1313 C1309 1.429 . S
C1313 C1314 1.523 . S
C1314 C1298 1.368 . S
C1314 C1310 1.368 . S
C1314 C1313 1.523 . S
H1315 C1290 0.950 . S
H1316 C1292 0.950 . S
H1317 C1293 0.949 . S
H1318 C1295 0.950 . S
H1319 C1297 0.950 . S
C1320 C1321 1.349 . S
C1320 C1322 1.327 . S
C1320 H1345 0.950 . S
C1321 C1320 1.349 . S
C1321 C1337 1.349 . S
C1322 C1320 1.327 . S
C1322 C1341 1.429 . S
C1322 H1346 0.950 . S
C1323 C1340 1.574 . S
C1323 C1342 1.368 . S
C1323 H1347 0.949 . S
H1324 C1328 0.949 . S
C1325 C1326 1.349 . S
C1325 C1327 1.327 . S
C1325 H1348 0.950 . S
C1326 C1325 1.349 . S
C1326 C1338 1.349 . S
C1327 C1325 1.327 . S
C1327 C1343 1.429 . S
C1327 H1349 0.950 . S
C1328 H1324 0.949 . S
C1328 C1336 1.574 . S
C1328 C1344 1.368 . S
H1329 C1337 0.950 . S
H1330 C1335 0.950 . S
H1331 C1336 0.949 . S
H1332 C1338 0.950 . S
H1333 C1339 0.950 . S
H1334 C1340 0.949 . S
C1335 H1330 0.950 . S
C1335 C1337 1.327 . S
C1335 C1341 1.429 . S
C1336 C1328 1.574 . S
C1336 H1331 0.949 . S
C1336 C1342 1.368 . S
C1337 C1321 1.349 . S
C1337 H1329 0.950 . S
C1337 C1335 1.327 . S
C1338 C1326 1.349 . S
C1338 H1332 0.950 . S
C1338 C1339 1.327 . S
C1339 H1333 0.950 . S
C1339 C1338 1.327 . S
C1339 C1343 1.429 . S
C1340 C1323 1.574 . S
C1340 H1334 0.949 . S
C1340 C1344 1.368 . S
C1341 C1322 1.429 . S
C1341 C1335 1.429 . S
C1341 C1342 1.523 . S
C1342 C1323 1.368 . S
C1342 C1336 1.368 . S
C1342 C1341 1.523 . S
C1343 C1327 1.429 . S
C1343 C1339 1.429 . S
C1343 C1344 1.523 . S
C1344 C1328 1.368 . S
C1344 C1340 1.368 . S
C1344 C1343 1.523 . S
H1345 C1320 0.950 . S
H1346 C1322 0.950 . S
H1347 C1323 0.949 . S
H1348 C1325 0.950 . S
H1349 C1327 0.950 . S
C1350 C1351 1.349 . S
C1350 C1352 1.327 . S
C1350 H1375 0.950 . S
C1351 C1350 1.349 . S
C1351 C1367 1.349 . S
C1352 C1350 1.327 . S
C1352 C1371 1.429 . S
C1352 H1376 0.950 . S
C1353 C1370 1.574 . S
C1353 C1372 1.368 1_455 S
C1353 H1377 0.949 . S
H1354 C1358 0.949 . S
C1355 C1356 1.349 . S
C1355 C1357 1.327 . S
C1355 H1378 0.950 . S
C1356 C1355 1.349 . S
C1356 C1368 1.349 . S
C1357 C1355 1.327 . S
C1357 C1373 1.429 . S
C1357 H1379 0.950 . S
C1358 H1354 0.949 . S
C1358 C1366 1.574 1_455 S
C1358 C1374 1.368 . S
H1359 C1367 0.950 . S
H1360 C1365 0.950 . S
H1361 C1366 0.949 . S
H1362 C1368 0.950 . S
H1363 C1369 0.950 . S
H1364 C1370 0.949 . S
C1365 H1360 0.950 . S
C1365 C1367 1.327 . S
C1365 C1371 1.429 . S
C1366 C1358 1.574 1_655 S
C1366 H1361 0.949 . S
C1366 C1372 1.368 . S
C1367 C1351 1.349 . S
C1367 H1359 0.950 . S
C1367 C1365 1.327 . S
C1368 C1356 1.349 . S
C1368 H1362 0.950 . S
C1368 C1369 1.327 . S
C1369 H1363 0.950 . S
C1369 C1368 1.327 . S
C1369 C1373 1.429 . S
C1370 C1353 1.574 . S
C1370 H1364 0.949 . S
C1370 C1374 1.368 . S
C1371 C1352 1.429 . S
C1371 C1365 1.429 . S
C1371 C1372 1.523 . S
C1372 C1353 1.368 1_655 S
C1372 C1366 1.368 . S
C1372 C1371 1.523 . S
C1373 C1357 1.429 . S
C1373 C1369 1.429 . S
C1373 C1374 1.523 . S
C1374 C1358 1.368 . S
C1374 C1370 1.368 . S
C1374 C1373 1.523 . S
H1375 C1350 0.950 . S
H1376 C1352 0.950 . S
H1377 C1353 0.949 . S
H1378 C1355 0.950 . S
H1379 C1357 0.950 . S
C1380 C1381 1.349 . S
C1380 C1382 1.327 . S
C1380 H1405 0.950 . S
C1381 C1380 1.349 . S
C1381 C1397 1.349 . S
C1382 C1380 1.327 . S
C1382 C1401 1.429 . S
C1382 H1406 0.950 . S
C1383 C1400 1.574 . S
C1383 C1402 1.368 . S
C1383 H1407 0.949 . S
H1384 C1388 0.949 . S
C1385 C1386 1.349 . S
C1385 C1387 1.327 . S
C1385 H1408 0.950 . S
C1386 C1385 1.349 . S
C1386 C1398 1.349 . S
C1387 C1385 1.327 . S
C1387 C1403 1.429 . S
C1387 H1409 0.950 . S
C1388 H1384 0.949 . S
C1388 C1396 1.574 . S
C1388 C1404 1.368 . S
H1389 C1397 0.950 . S
H1390 C1395 0.950 . S
H1391 C1396 0.949 . S
H1392 C1398 0.950 . S
H1393 C1399 0.950 . S
H1394 C1400 0.949 . S
C1395 H1390 0.950 . S
C1395 C1397 1.327 . S
C1395 C1401 1.429 . S
C1396 C1388 1.574 . S
C1396 H1391 0.949 . S
C1396 C1402 1.368 . S
C1397 C1381 1.349 . S
C1397 H1389 0.950 . S
C1397 C1395 1.327 . S
C1398 C1386 1.349 . S
C1398 H1392 0.950 . S
C1398 C1399 1.327 . S
C1399 H1393 0.950 . S
C1399 C1398 1.327 . S
C1399 C1403 1.429 . S
C1400 C1383 1.574 . S
C1400 H1394 0.949 . S
C1400 C1404 1.368 . S
C1401 C1382 1.429 . S
C1401 C1395 1.429 . S
C1401 C1402 1.523 . S
C1402 C1383 1.368 . S
C1402 C1396 1.368 . S
C1402 C1401 1.523 . S
C1403 C1387 1.429 . S
C1403 C1399 1.429 . S
C1403 C1404 1.523 . S
C1404 C1388 1.368 . S
C1404 C1400 1.368 . S
C1404 C1403 1.523 . S
H1405 C1380 0.950 . S
H1406 C1382 0.950 . S
H1407 C1383 0.949 . S
H1408 C1385 0.950 . S
H1409 C1387 0.950 . S
C1410 C1411 1.349 . S
C1410 C1412 1.327 . S
C1410 H1435 0.950 . S
C1411 C1410 1.349 . S
C1411 C1427 1.349 . S
C1412 C1410 1.327 . S
C1412 C1431 1.429 . S
C1412 H1436 0.950 . S
C1413 C1430 1.574 . S
C1413 C1432 1.368 . S
C1413 H1437 0.949 . S
H1414 C1418 0.949 . S
C1415 C1416 1.349 . S
C1415 C1417 1.327 . S
C1415 H1438 0.950 . S
C1416 C1415 1.349 . S
C1416 C1428 1.349 . S
C1417 C1415 1.327 . S
C1417 C1433 1.429 . S
C1417 H1439 0.950 . S
C1418 H1414 0.949 . S
C1418 C1426 1.574 . S
C1418 C1434 1.368 . S
H1419 C1427 0.950 . S
H1420 C1425 0.950 . S
H1421 C1426 0.949 1_545 S
H1422 C1428 0.950 . S
H1423 C1429 0.950 . S
H1424 C1430 0.949 . S
C1425 H1420 0.950 . S
C1425 C1427 1.327 . S
C1425 C1431 1.429 . S
C1426 C1418 1.574 . S
C1426 H1421 0.949 1_565 S
C1426 C1432 1.368 . S
C1427 C1411 1.349 . S
C1427 H1419 0.950 . S
C1427 C1425 1.327 . S
C1428 C1416 1.349 . S
C1428 H1422 0.950 . S
C1428 C1429 1.327 . S
C1429 H1423 0.950 . S
C1429 C1428 1.327 . S
C1429 C1433 1.429 . S
C1430 C1413 1.574 . S
C1430 H1424 0.949 . S
C1430 C1434 1.368 . S
C1431 C1412 1.429 . S
C1431 C1425 1.429 . S
C1431 C1432 1.523 1_545 S
C1432 C1413 1.368 . S
C1432 C1426 1.368 . S
C1432 C1431 1.523 1_565 S
C1433 C1417 1.429 . S
C1433 C1429 1.429 . S
C1433 C1434 1.523 . S
C1434 C1418 1.368 . S
C1434 C1430 1.368 . S
C1434 C1433 1.523 . S
H1435 C1410 0.950 . S
H1436 C1412 0.950 . S
H1437 C1413 0.949 . S
H1438 C1415 0.950 . S
H1439 C1417 0.950 . S
C1440 C1441 1.349 . S
C1440 C1442 1.327 . S
C1440 H1465 0.950 . S
C1441 C1440 1.349 . S
C1441 C1457 1.349 . S
C1442 C1440 1.327 . S
C1442 C1461 1.429 . S
C1442 H1466 0.950 . S
C1443 C1460 1.574 . S
C1443 C1462 1.368 . S
C1443 H1467 0.949 . S
H1444 C1448 0.949 . S
C1445 C1446 1.349 . S
C1445 C1447 1.327 . S
C1445 H1468 0.950 . S
C1446 C1445 1.349 . S
C1446 C1458 1.349 . S
C1447 C1445 1.327 . S
C1447 C1463 1.429 . S
C1447 H1469 0.950 . S
C1448 H1444 0.949 . S
C1448 C1456 1.574 . S
C1448 C1464 1.368 . S
H1449 C1457 0.950 . S
H1450 C1455 0.950 . S
H1451 C1456 0.949 . S
H1452 C1458 0.950 . S
H1453 C1459 0.950 . S
H1454 C1460 0.949 . S
C1455 H1450 0.950 . S
C1455 C1457 1.327 . S
C1455 C1461 1.429 . S
C1456 C1448 1.574 . S
C1456 H1451 0.949 . S
C1456 C1462 1.368 . S
C1457 C1441 1.349 . S
C1457 H1449 0.950 . S
C1457 C1455 1.327 . S
C1458 C1446 1.349 . S
C1458 H1452 0.950 . S
C1458 C1459 1.327 . S
C1459 H1453 0.950 . S
C1459 C1458 1.327 . S
C1459 C1463 1.429 . S
C1460 C1443 1.574 . S
C1460 H1454 0.949 . S
C1460 C1464 1.368 . S
C1461 C1442 1.429 . S
C1461 C1455 1.429 . S
C1461 C1462 1.523 . S
C1462 C1443 1.368 . S
C1462 C1456 1.368 . S
C1462 C1461 1.523 . S
C1463 C1447 1.429 . S
C1463 C1459 1.429 . S
C1463 C1464 1.523 . S
C1464 C1448 1.368 . S
C1464 C1460 1.368 . S
C1464 C1463 1.523 . S
H1465 C1440 0.950 . S
H1466 C1442 0.950 . S
H1467 C1443 0.949 . S
H1468 C1445 0.950 . S
H1469 C1447 0.950 . S
C1470 C1471 1.349 . S
C1470 C1472 1.327 . S
C1470 H1495 0.950 . S
C1471 C1470 1.349 . S
C1471 C1487 1.349 . S
C1472 C1470 1.327 . S
C1472 C1491 1.429 . S
C1472 H1496 0.950 . S
C1473 C1490 1.574 . S
C1473 C1492 1.368 . S
C1473 H1497 0.949 . S
H1474 C1478 0.949 . S
C1475 C1476 1.349 . S
C1475 C1477 1.327 . S
C1475 H1498 0.950 . S
C1476 C1475 1.349 . S
C1476 C1488 1.349 . S
C1477 C1475 1.327 . S
C1477 C1493 1.429 . S
C1477 H1499 0.950 . S
C1478 H1474 0.949 . S
C1478 C1486 1.574 . S
C1478 C1494 1.368 . S
H1479 C1487 0.950 . S
H1480 C1485 0.950 . S
H1481 C1486 0.949 . S
H1482 C1488 0.950 . S
H1483 C1489 0.950 . S
H1484 C1490 0.949 . S
C1485 H1480 0.950 . S
C1485 C1487 1.327 . S
C1485 C1491 1.429 . S
C1486 C1478 1.574 . S
C1486 H1481 0.949 . S
C1486 C1492 1.368 . S
C1487 C1471 1.349 . S
C1487 H1479 0.950 . S
C1487 C1485 1.327 . S
C1488 C1476 1.349 . S
C1488 H1482 0.950 . S
C1488 C1489 1.327 . S
C1489 H1483 0.950 . S
C1489 C1488 1.327 . S
C1489 C1493 1.429 . S
C1490 C1473 1.574 . S
C1490 H1484 0.949 . S
C1490 C1494 1.368 . S
C1491 C1472 1.429 . S
C1491 C1485 1.429 . S
C1491 C1492 1.523 . S
C1492 C1473 1.368 . S
C1492 C1486 1.368 . S
C1492 C1491 1.523 . S
C1493 C1477 1.429 . S
C1493 C1489 1.429 . S
C1493 C1494 1.523 . S
C1494 C1478 1.368 . S
C1494 C1490 1.368 . S
C1494 C1493 1.523 . S
H1495 C1470 0.950 . S
H1496 C1472 0.950 . S
H1497 C1473 0.949 . S
H1498 C1475 0.950 . S
H1499 C1477 0.950 . S
C1500 C1501 1.349 . S
C1500 C1502 1.327 . S
C1500 H1525 0.950 . S
C1501 C1500 1.349 . S
C1501 C1517 1.349 . S
C1502 C1500 1.327 . S
C1502 C1521 1.429 . S
C1502 H1526 0.950 . S
C1503 C1520 1.574 . S
C1503 C1522 1.368 . S
C1503 H1527 0.949 . S
H1504 C1508 0.949 . S
C1505 C1506 1.349 . S
C1505 C1507 1.327 . S
C1505 H1528 0.950 . S
C1506 C1505 1.349 . S
C1506 C1518 1.349 . S
C1507 C1505 1.327 . S
C1507 C1523 1.429 . S
C1507 H1529 0.950 . S
C1508 H1504 0.949 . S
C1508 C1516 1.574 . S
C1508 C1524 1.368 . S
H1509 C1517 0.950 . S
H1510 C1515 0.950 . S
H1511 C1516 0.949 . S
H1512 C1518 0.950 . S
H1513 C1519 0.950 . S
H1514 C1520 0.949 . S
C1515 H1510 0.950 . S
C1515 C1517 1.327 . S
C1515 C1521 1.429 . S
C1516 C1508 1.574 . S
C1516 H1511 0.949 . S
C1516 C1522 1.368 . S
C1517 C1501 1.349 . S
C1517 H1509 0.950 . S
C1517 C1515 1.327 . S
C1518 C1506 1.349 . S
C1518 H1512 0.950 . S
C1518 C1519 1.327 . S
C1519 H1513 0.950 . S
C1519 C1518 1.327 . S
C1519 C1523 1.429 . S
C1520 C1503 1.574 . S
C1520 H1514 0.949 . S
C1520 C1524 1.368 . S
C1521 C1502 1.429 . S
C1521 C1515 1.429 . S
C1521 C1522 1.523 . S
C1522 C1503 1.368 . S
C1522 C1516 1.368 . S
C1522 C1521 1.523 . S
C1523 C1507 1.429 . S
C1523 C1519 1.429 . S
C1523 C1524 1.523 . S
C1524 C1508 1.368 . S
C1524 C1520 1.368 . S
C1524 C1523 1.523 . S
H1525 C1500 0.950 . S
H1526 C1502 0.950 . S
H1527 C1503 0.949 . S
H1528 C1505 0.950 . S
H1529 C1507 0.950 . S
C1530 C1531 1.349 . S
C1530 C1532 1.327 . S
C1530 H1555 0.950 . S
C1531 C1530 1.349 . S
C1531 C1547 1.349 . S
C1532 C1530 1.327 . S
C1532 C1551 1.429 . S
C1532 H1556 0.950 . S
C1533 C1550 1.574 . S
C1533 C1552 1.368 . S
C1533 H1557 0.949 . S
H1534 C1538 0.949 . S
C1535 C1536 1.349 . S
C1535 C1537 1.327 . S
C1535 H1558 0.950 . S
C1536 C1535 1.349 . S
C1536 C1548 1.349 . S
C1537 C1535 1.327 . S
C1537 C1553 1.429 . S
C1537 H1559 0.950 . S
C1538 H1534 0.949 . S
C1538 C1546 1.574 . S
C1538 C1554 1.368 . S
H1539 C1547 0.950 . S
H1540 C1545 0.950 . S
H1541 C1546 0.949 . S
H1542 C1548 0.950 . S
H1543 C1549 0.950 . S
H1544 C1550 0.949 . S
C1545 H1540 0.950 . S
C1545 C1547 1.327 . S
C1545 C1551 1.429 . S
C1546 C1538 1.574 . S
C1546 H1541 0.949 . S
C1546 C1552 1.368 . S
C1547 C1531 1.349 . S
C1547 H1539 0.950 . S
C1547 C1545 1.327 . S
C1548 C1536 1.349 . S
C1548 H1542 0.950 . S
C1548 C1549 1.327 . S
C1549 H1543 0.950 . S
C1549 C1548 1.327 . S
C1549 C1553 1.429 . S
C1550 C1533 1.574 . S
C1550 H1544 0.949 . S
C1550 C1554 1.368 . S
C1551 C1532 1.429 . S
C1551 C1545 1.429 . S
C1551 C1552 1.523 . S
C1552 C1533 1.368 . S
C1552 C1546 1.368 . S
C1552 C1551 1.523 . S
C1553 C1537 1.429 . S
C1553 C1549 1.429 . S
C1553 C1554 1.523 . S
C1554 C1538 1.368 . S
C1554 C1550 1.368 . S
C1554 C1553 1.523 . S
H1555 C1530 0.950 . S
H1556 C1532 0.950 . S
H1557 C1533 0.949 . S
H1558 C1535 0.950 . S
H1559 C1537 0.950 . S
C1560 C1561 1.349 . S
C1560 C1562 1.327 . S
C1560 H1585 0.950 . S
C1561 C1560 1.349 . S
C1561 C1577 1.349 . S
C1562 C1560 1.327 . S
C1562 C1581 1.429 . S
C1562 H1586 0.950 . S
C1563 C1580 1.574 . S
C1563 C1582 1.368 . S
C1563 H1587 0.949 . S
H1564 C1568 0.949 . S
C1565 C1566 1.349 . S
C1565 C1567 1.327 . S
C1565 H1588 0.950 . S
C1566 C1565 1.349 . S
C1566 C1578 1.349 . S
C1567 C1565 1.327 . S
C1567 C1583 1.429 . S
C1567 H1589 0.950 . S
C1568 H1564 0.949 . S
C1568 C1576 1.574 . S
C1568 C1584 1.368 . S
H1569 C1577 0.950 . S
H1570 C1575 0.950 . S
H1571 C1576 0.949 . S
H1572 C1578 0.950 . S
H1573 C1579 0.950 . S
H1574 C1580 0.949 . S
C1575 H1570 0.950 . S
C1575 C1577 1.327 . S
C1575 C1581 1.429 . S
C1576 C1568 1.574 . S
C1576 H1571 0.949 . S
C1576 C1582 1.368 . S
C1577 C1561 1.349 . S
C1577 H1569 0.950 . S
C1577 C1575 1.327 . S
C1578 C1566 1.349 . S
C1578 H1572 0.950 . S
C1578 C1579 1.327 . S
C1579 H1573 0.950 . S
C1579 C1578 1.327 . S
C1579 C1583 1.429 . S
C1580 C1563 1.574 . S
C1580 H1574 0.949 . S
C1580 C1584 1.368 . S
C1581 C1562 1.429 . S
C1581 C1575 1.429 . S
C1581 C1582 1.523 . S
C1582 C1563 1.368 . S
C1582 C1576 1.368 . S
C1582 C1581 1.523 . S
C1583 C1567 1.429 . S
C1583 C1579 1.429 . S
C1583 C1584 1.523 . S
C1584 C1568 1.368 . S
C1584 C1580 1.368 . S
C1584 C1583 1.523 . S
H1585 C1560 0.950 . S
H1586 C1562 0.950 . S
H1587 C1563 0.949 . S
H1588 C1565 0.950 . S
H1589 C1567 0.950 . S
C1590 C1591 1.349 . S
C1590 C1592 1.327 . S
C1590 H1615 0.950 . S
C1591 C1590 1.349 . S
C1591 C1607 1.349 . S
C1592 C1590 1.327 . S
C1592 C1611 1.429 . S
C1592 H1616 0.950 . S
C1593 C1610 1.574 . S
C1593 C1612 1.368 . S
C1593 H1617 0.949 . S
H1594 C1598 0.949 . S
C1595 C1596 1.349 . S
C1595 C1597 1.327 . S
C1595 H1618 0.950 . S
C1596 C1595 1.349 . S
C1596 C1608 1.349 . S
C1597 C1595 1.327 . S
C1597 C1613 1.429 . S
C1597 H1619 0.950 . S
C1598 H1594 0.949 . S
C1598 C1606 1.574 . S
C1598 C1614 1.368 . S
H1599 C1607 0.950 . S
H1600 C1605 0.950 . S
H1601 C1606 0.949 . S
H1602 C1608 0.950 . S
H1603 C1609 0.950 . S
H1604 C1610 0.949 . S
C1605 H1600 0.950 . S
C1605 C1607 1.327 . S
C1605 C1611 1.429 . S
C1606 C1598 1.574 . S
C1606 H1601 0.949 . S
C1606 C1612 1.368 . S
C1607 C1591 1.349 . S
C1607 H1599 0.950 . S
C1607 C1605 1.327 . S
C1608 C1596 1.349 . S
C1608 H1602 0.950 . S
C1608 C1609 1.327 . S
C1609 H1603 0.950 . S
C1609 C1608 1.327 . S
C1609 C1613 1.429 . S
C1610 C1593 1.574 . S
C1610 H1604 0.949 . S
C1610 C1614 1.368 . S
C1611 C1592 1.429 . S
C1611 C1605 1.429 . S
C1611 C1612 1.523 . S
C1612 C1593 1.368 . S
C1612 C1606 1.368 . S
C1612 C1611 1.523 . S
C1613 C1597 1.429 . S
C1613 C1609 1.429 . S
C1613 C1614 1.523 . S
C1614 C1598 1.368 . S
C1614 C1610 1.368 . S
C1614 C1613 1.523 . S
H1615 C1590 0.950 . S
H1616 C1592 0.950 . S
H1617 C1593 0.949 . S
H1618 C1595 0.950 . S
H1619 C1597 0.950 . S
C1620 C1621 1.349 . S
C1620 C1622 1.327 . S
C1620 H1645 0.950 . S
C1621 C1620 1.349 . S
C1621 C1637 1.349 . S
C1622 C1620 1.327 . S
C1622 C1641 1.429 . S
C1622 H1646 0.950 . S
C1623 C1640 1.574 1_545 S
C1623 C1642 1.368 . S
C1623 H1647 0.949 . S
H1624 C1628 0.949 . S
C1625 C1626 1.349 . S
C1625 C1627 1.327 . S
C1625 H1648 0.950 . S
C1626 C1625 1.349 . S
C1626 C1638 1.349 . S
C1627 C1625 1.327 . S
C1627 C1643 1.429 . S
C1627 H1649 0.950 . S
C1628 H1624 0.949 . S
C1628 C1636 1.574 . S
C1628 C1644 1.368 . S
H1629 C1637 0.950 . S
H1630 C1635 0.950 . S
H1631 C1636 0.949 . S
H1632 C1638 0.950 . S
H1633 C1639 0.950 . S
H1634 C1640 0.949 . S
C1635 H1630 0.950 . S
C1635 C1637 1.327 . S
C1635 C1641 1.429 . S
C1636 C1628 1.574 . S
C1636 H1631 0.949 . S
C1636 C1642 1.368 1_565 S
C1637 C1621 1.349 . S
C1637 H1629 0.950 . S
C1637 C1635 1.327 . S
C1638 C1626 1.349 . S
C1638 H1632 0.950 . S
C1638 C1639 1.327 . S
C1639 H1633 0.950 . S
C1639 C1638 1.327 . S
C1639 C1643 1.429 . S
C1640 C1623 1.574 1_565 S
C1640 H1634 0.949 . S
C1640 C1644 1.368 . S
C1641 C1622 1.429 . S
C1641 C1635 1.429 . S
C1641 C1642 1.523 . S
C1642 C1623 1.368 . S
C1642 C1636 1.368 1_545 S
C1642 C1641 1.523 . S
C1643 C1627 1.429 . S
C1643 C1639 1.429 . S
C1643 C1644 1.523 . S
C1644 C1628 1.368 . S
C1644 C1640 1.368 . S
C1644 C1643 1.523 . S
H1645 C1620 0.950 . S
H1646 C1622 0.950 . S
H1647 C1623 0.949 . S
H1648 C1625 0.950 . S
H1649 C1627 0.950 . S
C1650 C1651 1.349 . S
C1650 C1652 1.327 . S
C1650 H1675 0.950 . S
C1651 C1650 1.349 . S
C1651 C1667 1.349 . S
C1652 C1650 1.327 . S
C1652 C1671 1.429 . S
C1652 H1676 0.950 1_655 S
C1653 C1670 1.574 . S
C1653 C1672 1.368 . S
C1653 H1677 0.949 1_455 S
H1654 C1658 0.949 . S
C1655 C1656 1.349 . S
C1655 C1657 1.327 . S
C1655 H1678 0.950 . S
C1656 C1655 1.349 . S
C1656 C1668 1.349 . S
C1657 C1655 1.327 . S
C1657 C1673 1.429 . S
C1657 H1679 0.950 . S
C1658 H1654 0.949 . S
C1658 C1666 1.574 . S
C1658 C1674 1.368 . S
H1659 C1667 0.950 . S
H1660 C1665 0.950 . S
H1661 C1666 0.949 . S
H1662 C1668 0.950 . S
H1663 C1669 0.950 . S
H1664 C1670 0.949 . S
C1665 H1660 0.950 . S
C1665 C1667 1.327 . S
C1665 C1671 1.429 . S
C1666 C1658 1.574 . S
C1666 H1661 0.949 . S
C1666 C1672 1.368 . S
C1667 C1651 1.349 . S
C1667 H1659 0.950 . S
C1667 C1665 1.327 . S
C1668 C1656 1.349 . S
C1668 H1662 0.950 . S
C1668 C1669 1.327 . S
C1669 H1663 0.950 . S
C1669 C1668 1.327 . S
C1669 C1673 1.429 . S
C1670 C1653 1.574 . S
C1670 H1664 0.949 . S
C1670 C1674 1.368 . S
C1671 C1652 1.429 . S
C1671 C1665 1.429 . S
C1671 C1672 1.523 1_655 S
C1672 C1653 1.368 . S
C1672 C1666 1.368 . S
C1672 C1671 1.523 1_455 S
C1673 C1657 1.429 . S
C1673 C1669 1.429 . S
C1673 C1674 1.523 . S
C1674 C1658 1.368 . S
C1674 C1670 1.368 . S
C1674 C1673 1.523 . S
H1675 C1650 0.950 . S
H1676 C1652 0.950 1_455 S
H1677 C1653 0.949 1_655 S
H1678 C1655 0.950 . S
H1679 C1657 0.950 . S
C1680 C1681 1.349 . S
C1680 C1682 1.327 . S
C1680 H1705 0.950 . S
C1681 C1680 1.349 . S
C1681 C1697 1.349 . S
C1682 C1680 1.327 . S
C1682 C1701 1.429 . S
C1682 H1706 0.950 . S
C1683 C1700 1.574 . S
C1683 C1702 1.368 . S
C1683 H1707 0.949 . S
H1684 C1688 0.949 . S
C1685 C1686 1.349 . S
C1685 C1687 1.327 . S
C1685 H1708 0.950 . S
C1686 C1685 1.349 . S
C1686 C1698 1.349 . S
C1687 C1685 1.327 . S
C1687 C1703 1.429 . S
C1687 H1709 0.950 . S
C1688 H1684 0.949 . S
C1688 C1696 1.574 . S
C1688 C1704 1.368 . S
H1689 C1697 0.950 . S
H1690 C1695 0.950 . S
H1691 C1696 0.949 . S
H1692 C1698 0.950 . S
H1693 C1699 0.950 . S
H1694 C1700 0.949 . S
C1695 H1690 0.950 . S
C1695 C1697 1.327 . S
C1695 C1701 1.429 . S
C1696 C1688 1.574 . S
C1696 H1691 0.949 . S
C1696 C1702 1.368 . S
C1697 C1681 1.349 . S
C1697 H1689 0.950 . S
C1697 C1695 1.327 . S
C1698 C1686 1.349 . S
C1698 H1692 0.950 . S
C1698 C1699 1.327 . S
C1699 H1693 0.950 . S
C1699 C1698 1.327 . S
C1699 C1703 1.429 . S
C1700 C1683 1.574 . S
C1700 H1694 0.949 . S
C1700 C1704 1.368 . S
C1701 C1682 1.429 . S
C1701 C1695 1.429 . S
C1701 C1702 1.523 . S
C1702 C1683 1.368 . S
C1702 C1696 1.368 . S
C1702 C1701 1.523 . S
C1703 C1687 1.429 . S
C1703 C1699 1.429 . S
C1703 C1704 1.523 . S
C1704 C1688 1.368 . S
C1704 C1700 1.368 . S
C1704 C1703 1.523 . S
H1705 C1680 0.950 . S
H1706 C1682 0.950 . S
H1707 C1683 0.949 . S
H1708 C1685 0.950 . S
H1709 C1687 0.950 . S
C1710 C1711 1.349 . S
C1710 C1712 1.327 . S
C1710 H1735 0.950 . S
C1711 C1710 1.349 . S
C1711 C1727 1.349 . S
C1712 C1710 1.327 . S
C1712 C1731 1.429 . S
C1712 H1736 0.950 . S
C1713 C1730 1.574 . S
C1713 C1732 1.368 . S
C1713 H1737 0.949 . S
H1714 C1718 0.949 . S
C1715 C1716 1.349 . S
C1715 C1717 1.327 . S
C1715 H1738 0.950 . S
C1716 C1715 1.349 . S
C1716 C1728 1.349 . S
C1717 C1715 1.327 . S
C1717 C1733 1.429 . S
C1717 H1739 0.950 . S
C1718 H1714 0.949 . S
C1718 C1726 1.574 . S
C1718 C1734 1.368 . S
H1719 C1727 0.950 . S
H1720 C1725 0.950 . S
H1721 C1726 0.949 . S
H1722 C1728 0.950 . S
H1723 C1729 0.950 . S
H1724 C1730 0.949 . S
C1725 H1720 0.950 . S
C1725 C1727 1.327 . S
C1725 C1731 1.429 . S
C1726 C1718 1.574 . S
C1726 H1721 0.949 . S
C1726 C1732 1.368 . S
C1727 C1711 1.349 . S
C1727 H1719 0.950 . S
C1727 C1725 1.327 . S
C1728 C1716 1.349 . S
C1728 H1722 0.950 . S
C1728 C1729 1.327 . S
C1729 H1723 0.950 . S
C1729 C1728 1.327 . S
C1729 C1733 1.429 . S
C1730 C1713 1.574 . S
C1730 H1724 0.949 . S
C1730 C1734 1.368 . S
C1731 C1712 1.429 . S
C1731 C1725 1.429 . S
C1731 C1732 1.523 . S
C1732 C1713 1.368 . S
C1732 C1726 1.368 . S
C1732 C1731 1.523 . S
C1733 C1717 1.429 . S
C1733 C1729 1.429 . S
C1733 C1734 1.523 . S
C1734 C1718 1.368 . S
C1734 C1730 1.368 . S
C1734 C1733 1.523 . S
H1735 C1710 0.950 . S
H1736 C1712 0.950 . S
H1737 C1713 0.949 . S
H1738 C1715 0.950 . S
H1739 C1717 0.950 . S
C1740 C1741 1.349 . S
C1740 C1742 1.327 . S
C1740 H1765 0.950 . S
C1741 C1740 1.349 . S
C1741 C1757 1.349 . S
C1742 C1740 1.327 . S
C1742 C1761 1.429 . S
C1742 H1766 0.950 . S
C1743 C1760 1.574 . S
C1743 C1762 1.368 . S
C1743 H1767 0.949 . S
H1744 C1748 0.949 . S
C1745 C1746 1.349 . S
C1745 C1747 1.327 . S
C1745 H1768 0.950 . S
C1746 C1745 1.349 . S
C1746 C1758 1.349 . S
C1747 C1745 1.327 . S
C1747 C1763 1.429 . S
C1747 H1769 0.950 . S
C1748 H1744 0.949 . S
C1748 C1756 1.574 . S
C1748 C1764 1.368 . S
H1749 C1757 0.950 . S
H1750 C1755 0.950 . S
H1751 C1756 0.949 . S
H1752 C1758 0.950 . S
H1753 C1759 0.950 . S
H1754 C1760 0.949 . S
C1755 H1750 0.950 . S
C1755 C1757 1.327 . S
C1755 C1761 1.429 . S
C1756 C1748 1.574 . S
C1756 H1751 0.949 . S
C1756 C1762 1.368 . S
C1757 C1741 1.349 . S
C1757 H1749 0.950 . S
C1757 C1755 1.327 . S
C1758 C1746 1.349 . S
C1758 H1752 0.950 . S
C1758 C1759 1.327 . S
C1759 H1753 0.950 . S
C1759 C1758 1.327 . S
C1759 C1763 1.429 . S
C1760 C1743 1.574 . S
C1760 H1754 0.949 . S
C1760 C1764 1.368 . S
C1761 C1742 1.429 . S
C1761 C1755 1.429 . S
C1761 C1762 1.523 . S
C1762 C1743 1.368 . S
C1762 C1756 1.368 . S
C1762 C1761 1.523 . S
C1763 C1747 1.429 . S
C1763 C1759 1.429 . S
C1763 C1764 1.523 . S
C1764 C1748 1.368 . S
C1764 C1760 1.368 . S
C1764 C1763 1.523 . S
H1765 C1740 0.950 . S
H1766 C1742 0.950 . S
H1767 C1743 0.949 . S
H1768 C1745 0.950 . S
H1769 C1747 0.950 . S
C1770 C1771 1.349 . S
C1770 C1772 1.327 . S
C1770 H1795 0.950 . S
C1771 C1770 1.349 . S
C1771 C1787 1.349 . S
C1772 C1770 1.327 . S
C1772 C1791 1.429 . S
C1772 H1796 0.950 . S
C1773 C1790 1.574 . S
C1773 C1792 1.368 . S
C1773 H1797 0.949 . S
H1774 C1778 0.949 . S
C1775 C1776 1.349 . S
C1775 C1777 1.327 . S
C1775 H1798 0.950 . S
C1776 C1775 1.349 . S
C1776 C1788 1.349 . S
C1777 C1775 1.327 . S
C1777 C1793 1.429 . S
C1777 H1799 0.950 . S
C1778 H1774 0.949 . S
C1778 C1786 1.574 . S
C1778 C1794 1.368 . S
H1779 C1787 0.950 . S
H1780 C1785 0.950 . S
H1781 C1786 0.949 . S
H1782 C1788 0.950 . S
H1783 C1789 0.950 . S
H1784 C1790 0.949 . S
C1785 H1780 0.950 . S
C1785 C1787 1.327 . S
C1785 C1791 1.429 . S
C1786 C1778 1.574 . S
C1786 H1781 0.949 . S
C1786 C1792 1.368 . S
C1787 C1771 1.349 . S
C1787 H1779 0.950 . S
C1787 C1785 1.327 . S
C1788 C1776 1.349 . S
C1788 H1782 0.950 . S
C1788 C1789 1.327 . S
C1789 H1783 0.950 . S
C1789 C1788 1.327 . S
C1789 C1793 1.429 . S
C1790 C1773 1.574 . S
C1790 H1784 0.949 . S
C1790 C1794 1.368 . S
C1791 C1772 1.429 . S
C1791 C1785 1.429 . S
C1791 C1792 1.523 . S
C1792 C1773 1.368 . S
C1792 C1786 1.368 . S
C1792 C1791 1.523 . S
C1793 C1777 1.429 . S
C1793 C1789 1.429 . S
C1793 C1794 1.523 . S
C1794 C1778 1.368 . S
C1794 C1790 1.368 . S
C1794 C1793 1.523 . S
H1795 C1770 0.950 . S
H1796 C1772 0.950 . S
H1797 C1773 0.949 . S
H1798 C1775 0.950 . S
H1799 C1777 0.950 . S
C1800 C1801 1.349 . S
C1800 C1802 1.327 . S
C1800 H1825 0.950 . S
C1801 C1800 1.349 . S
C1801 C1817 1.349 . S
C1802 C1800 1.327 . S
C1802 C1821 1.429 . S
C1802 H1826 0.950 . S
C1803 C1820 1.574 . S
C1803 C1822 1.368 . S
C1803 H1827 0.949 . S
H1804 C1808 0.949 . S
C1805 C1806 1.349 . S
C1805 C1807 1.327 . S
C1805 H1828 0.950 . S
C1806 C1805 1.349 . S
C1806 C1818 1.349 . S
C1807 C1805 1.327 . S
C1807 C1823 1.429 . S
C1807 H1829 0.950 . S
C1808 H1804 0.949 . S
C1808 C1816 1.574 . S
C1808 C1824 1.368 . S
H1809 C1817 0.950 . S
H1810 C1815 0.950 . S
H1811 C1816 0.949 . S
H1812 C1818 0.950 . S
H1813 C1819 0.950 . S
H1814 C1820 0.949 . S
C1815 H1810 0.950 . S
C1815 C1817 1.327 . S
C1815 C1821 1.429 . S
C1816 C1808 1.574 . S
C1816 H1811 0.949 . S
C1816 C1822 1.368 . S
C1817 C1801 1.349 . S
C1817 H1809 0.950 . S
C1817 C1815 1.327 . S
C1818 C1806 1.349 . S
C1818 H1812 0.950 . S
C1818 C1819 1.327 . S
C1819 H1813 0.950 . S
C1819 C1818 1.327 . S
C1819 C1823 1.429 . S
C1820 C1803 1.574 . S
C1820 H1814 0.949 . S
C1820 C1824 1.368 . S
C1821 C1802 1.429 . S
C1821 C1815 1.429 . S
C1821 C1822 1.523 1_565 S
C1822 C1803 1.368 . S
C1822 C1816 1.368 . S
C1822 C1821 1.523 1_545 S
C1823 C1807 1.429 . S
C1823 C1819 1.429 . S
C1823 C1824 1.523 . S
C1824 C1808 1.368 . S
C1824 C1820 1.368 . S
C1824 C1823 1.523 . S
H1825 C1800 0.950 . S
H1826 C1802 0.950 . S
H1827 C1803 0.949 . S
H1828 C1805 0.950 . S
H1829 C1807 0.950 . S
C1830 C1831 1.349 . S
C1830 C1832 1.327 . S
C1830 H1855 0.950 . S
C1831 C1830 1.349 . S
C1831 C1847 1.349 . S
C1832 C1830 1.327 . S
C1832 C1851 1.429 1_455 S
C1832 H1856 0.950 1_455 S
C1833 C1850 1.574 . S
C1833 C1852 1.368 . S
C1833 H1857 0.949 . S
H1834 C1838 0.949 . S
C1835 C1836 1.349 . S
C1835 C1837 1.327 . S
C1835 H1858 0.950 . S
C1836 C1835 1.349 . S
C1836 C1848 1.349 . S
C1837 C1835 1.327 . S
C1837 C1853 1.429 . S
C1837 H1859 0.950 . S
C1838 H1834 0.949 . S
C1838 C1846 1.574 . S
C1838 C1854 1.368 . S
H1839 C1847 0.950 . S
H1840 C1845 0.950 . S
H1841 C1846 0.949 . S
H1842 C1848 0.950 . S
H1843 C1849 0.950 . S
H1844 C1850 0.949 . S
C1845 H1840 0.950 . S
C1845 C1847 1.327 . S
C1845 C1851 1.429 1_455 S
C1846 C1838 1.574 . S
C1846 H1841 0.949 . S
C1846 C1852 1.368 . S
C1847 C1831 1.349 . S
C1847 H1839 0.950 . S
C1847 C1845 1.327 . S
C1848 C1836 1.349 . S
C1848 H1842 0.950 . S
C1848 C1849 1.327 . S
C1849 H1843 0.950 . S
C1849 C1848 1.327 . S
C1849 C1853 1.429 . S
C1850 C1833 1.574 . S
C1850 H1844 0.949 . S
C1850 C1854 1.368 . S
C1851 C1832 1.429 1_655 S
C1851 C1845 1.429 1_655 S
C1851 C1852 1.523 . S
C1852 C1833 1.368 . S
C1852 C1846 1.368 . S
C1852 C1851 1.523 . S
C1853 C1837 1.429 . S
C1853 C1849 1.429 . S
C1853 C1854 1.523 . S
C1854 C1838 1.368 . S
C1854 C1850 1.368 . S
C1854 C1853 1.523 . S
H1855 C1830 0.950 . S
H1856 C1832 0.950 1_655 S
H1857 C1833 0.949 . S
H1858 C1835 0.950 . S
H1859 C1837 0.950 . S
C1860 C1861 1.349 . S
C1860 C1862 1.327 . S
C1860 H1885 0.950 . S
C1861 C1860 1.349 . S
C1861 C1877 1.349 . S
C1862 C1860 1.327 . S
C1862 C1881 1.429 . S
C1862 H1886 0.950 . S
C1863 C1880 1.574 . S
C1863 C1882 1.368 . S
C1863 H1887 0.949 . S
H1864 C1868 0.949 . S
C1865 C1866 1.349 . S
C1865 C1867 1.327 . S
C1865 H1888 0.950 . S
C1866 C1865 1.349 . S
C1866 C1878 1.349 . S
C1867 C1865 1.327 . S
C1867 C1883 1.429 . S
C1867 H1889 0.950 . S
C1868 H1864 0.949 . S
C1868 C1876 1.574 . S
C1868 C1884 1.368 . S
H1869 C1877 0.950 . S
H1870 C1875 0.950 . S
H1871 C1876 0.949 . S
H1872 C1878 0.950 . S
H1873 C1879 0.950 . S
H1874 C1880 0.949 . S
C1875 H1870 0.950 . S
C1875 C1877 1.327 . S
C1875 C1881 1.429 . S
C1876 C1868 1.574 . S
C1876 H1871 0.949 . S
C1876 C1882 1.368 . S
C1877 C1861 1.349 . S
C1877 H1869 0.950 . S
C1877 C1875 1.327 . S
C1878 C1866 1.349 . S
C1878 H1872 0.950 . S
C1878 C1879 1.327 . S
C1879 H1873 0.950 . S
C1879 C1878 1.327 . S
C1879 C1883 1.429 . S
C1880 C1863 1.574 . S
C1880 H1874 0.949 . S
C1880 C1884 1.368 . S
C1881 C1862 1.429 . S
C1881 C1875 1.429 . S
C1881 C1882 1.523 . S
C1882 C1863 1.368 . S
C1882 C1876 1.368 . S
C1882 C1881 1.523 . S
C1883 C1867 1.429 . S
C1883 C1879 1.429 . S
C1883 C1884 1.523 . S
C1884 C1868 1.368 . S
C1884 C1880 1.368 . S
C1884 C1883 1.523 . S
H1885 C1860 0.950 . S
H1886 C1862 0.950 . S
H1887 C1863 0.949 . S
H1888 C1865 0.950 . S
H1889 C1867 0.950 . S
C1890 C1891 1.349 . S
C1890 C1892 1.327 . S
C1890 H1915 0.950 . S
C1891 C1890 1.349 . S
C1891 C1907 1.349 . S
C1892 C1890 1.327 . S
C1892 C1911 1.429 . S
C1892 H1916 0.950 . S
C1893 C1910 1.574 . S
C1893 C1912 1.368 . S
C1893 H1917 0.949 . S
H1894 C1898 0.949 . S
C1895 C1896 1.349 . S
C1895 C1897 1.327 . S
C1895 H1918 0.950 . S
C1896 C1895 1.349 . S
C1896 C1908 1.349 . S
C1897 C1895 1.327 . S
C1897 C1913 1.429 . S
C1897 H1919 0.950 . S
C1898 H1894 0.949 . S
C1898 C1906 1.574 1_655 S
C1898 C1914 1.368 . S
H1899 C1907 0.950 . S
H1900 C1905 0.950 . S
H1901 C1906 0.949 . S
H1902 C1908 0.950 . S
H1903 C1909 0.950 . S
H1904 C1910 0.949 1_655 S
C1905 H1900 0.950 . S
C1905 C1907 1.327 . S
C1905 C1911 1.429 . S
C1906 C1898 1.574 1_455 S
C1906 H1901 0.949 . S
C1906 C1912 1.368 . S
C1907 C1891 1.349 . S
C1907 H1899 0.950 . S
C1907 C1905 1.327 . S
C1908 C1896 1.349 . S
C1908 H1902 0.950 . S
C1908 C1909 1.327 . S
C1909 H1903 0.950 . S
C1909 C1908 1.327 . S
C1909 C1913 1.429 . S
C1910 C1893 1.574 . S
C1910 H1904 0.949 1_455 S
C1910 C1914 1.368 1_455 S
C1911 C1892 1.429 . S
C1911 C1905 1.429 . S
C1911 C1912 1.523 . S
C1912 C1893 1.368 . S
C1912 C1906 1.368 . S
C1912 C1911 1.523 . S
C1913 C1897 1.429 . S
C1913 C1909 1.429 . S
C1913 C1914 1.523 . S
C1914 C1898 1.368 . S
C1914 C1910 1.368 1_655 S
C1914 C1913 1.523 . S
H1915 C1890 0.950 . S
H1916 C1892 0.950 . S
H1917 C1893 0.949 . S
H1918 C1895 0.950 . S
H1919 C1897 0.950 . S
C1920 C1921 1.349 . S
C1920 C1922 1.327 . S
C1920 H1945 0.950 . S
C1921 C1920 1.349 . S
C1921 C1937 1.349 . S
C1922 C1920 1.327 . S
C1922 C1941 1.429 . S
C1922 H1946 0.950 . S
C1923 C1940 1.574 . S
C1923 C1942 1.368 . S
C1923 H1947 0.949 . S
H1924 C1928 0.949 . S
C1925 C1926 1.349 . S
C1925 C1927 1.327 . S
C1925 H1948 0.950 . S
C1926 C1925 1.349 . S
C1926 C1938 1.349 . S
C1927 C1925 1.327 . S
C1927 C1943 1.429 . S
C1927 H1949 0.950 . S
C1928 H1924 0.949 . S
C1928 C1936 1.574 . S
C1928 C1944 1.368 . S
H1929 C1937 0.950 . S
H1930 C1935 0.950 . S
H1931 C1936 0.949 . S
H1932 C1938 0.950 . S
H1933 C1939 0.950 . S
H1934 C1940 0.949 . S
C1935 H1930 0.950 . S
C1935 C1937 1.327 . S
C1935 C1941 1.429 . S
C1936 C1928 1.574 . S
C1936 H1931 0.949 . S
C1936 C1942 1.368 . S
C1937 C1921 1.349 . S
C1937 H1929 0.950 . S
C1937 C1935 1.327 . S
C1938 C1926 1.349 . S
C1938 H1932 0.950 . S
C1938 C1939 1.327 . S
C1939 H1933 0.950 . S
C1939 C1938 1.327 . S
C1939 C1943 1.429 . S
C1940 C1923 1.574 . S
C1940 H1934 0.949 . S
C1940 C1944 1.368 . S
C1941 C1922 1.429 . S
C1941 C1935 1.429 . S
C1941 C1942 1.523 . S
C1942 C1923 1.368 . S
C1942 C1936 1.368 . S
C1942 C1941 1.523 . S
C1943 C1927 1.429 . S
C1943 C1939 1.429 . S
C1943 C1944 1.523 . S
C1944 C1928 1.368 . S
C1944 C1940 1.368 . S
C1944 C1943 1.523 . S
H1945 C1920 0.950 . S
H1946 C1922 0.950 . S
H1947 C1923 0.949 . S
H1948 C1925 0.950 . S
H1949 C1927 0.950 . S
C1950 C1951 1.349 . S
C1950 C1952 1.327 . S
C1950 H1975 0.950 . S
C1951 C1950 1.349 . S
C1951 C1967 1.349 . S
C1952 C1950 1.327 . S
C1952 C1971 1.429 . S
C1952 H1976 0.950 . S
C1953 C1970 1.574 1_565 S
C1953 C1972 1.368 . S
C1953 H1977 0.949 . S
H1954 C1958 0.949 . S
C1955 C1956 1.349 . S
C1955 C1957 1.327 . S
C1955 H1978 0.950 . S
C1956 C1955 1.349 . S
C1956 C1968 1.349 . S
C1957 C1955 1.327 . S
C1957 C1973 1.429 . S
C1957 H1979 0.950 . S
C1958 H1954 0.949 . S
C1958 C1966 1.574 . S
C1958 C1974 1.368 . S
H1959 C1967 0.950 . S
H1960 C1965 0.950 . S
H1961 C1966 0.946 1_565 S
H1962 C1968 0.950 . S
H1963 C1969 0.950 . S
H1964 C1970 0.949 . S
C1965 H1960 0.950 . S
C1965 C1967 1.327 . S
C1965 C1971 1.429 . S
C1966 C1958 1.574 . S
C1966 H1961 0.946 1_545 S
C1966 C1972 1.368 1_545 S
C1967 C1951 1.349 . S
C1967 H1959 0.950 . S
C1967 C1965 1.327 . S
C1968 C1956 1.349 . S
C1968 H1962 0.950 . S
C1968 C1969 1.327 . S
C1969 H1963 0.950 . S
C1969 C1968 1.327 . S
C1969 C1973 1.429 . S
C1970 C1953 1.574 1_545 S
C1970 H1964 0.949 . S
C1970 C1974 1.368 . S
C1971 C1952 1.429 . S
C1971 C1965 1.429 . S
C1971 C1972 1.523 . S
C1972 C1953 1.368 . S
C1972 C1966 1.368 1_565 S
C1972 C1971 1.523 . S
C1973 C1957 1.429 . S
C1973 C1969 1.429 . S
C1973 C1974 1.523 . S
C1974 C1958 1.368 . S
C1974 C1970 1.368 . S
C1974 C1973 1.523 . S
H1975 C1950 0.950 . S
H1976 C1952 0.950 . S
H1977 C1953 0.949 . S
H1978 C1955 0.950 . S
H1979 C1957 0.950 . S
C1980 C1981 1.349 . S
C1980 C1982 1.327 . S
C1980 H2005 0.950 . S
C1981 C1980 1.349 . S
C1981 C1997 1.349 . S
C1982 C1980 1.327 . S
C1982 C2001 1.429 . S
C1982 H2006 0.950 . S
C1983 C2000 1.574 . S
C1983 C2002 1.368 . S
C1983 H2007 0.949 . S
H1984 C1988 0.949 . S
C1985 C1986 1.349 . S
C1985 C1987 1.327 . S
C1985 H2008 0.950 . S
C1986 C1985 1.349 . S
C1986 C1998 1.349 . S
C1987 C1985 1.327 . S
C1987 C2003 1.429 . S
C1987 H2009 0.950 . S
C1988 H1984 0.949 . S
C1988 C1996 1.574 . S
C1988 C2004 1.368 . S
H1989 C1997 0.950 . S
H1990 C1995 0.950 . S
H1991 C1996 0.949 . S
H1992 C1998 0.950 . S
H1993 C1999 0.950 . S
H1994 C2000 0.949 . S
C1995 H1990 0.950 . S
C1995 C1997 1.327 . S
C1995 C2001 1.429 . S
C1996 C1988 1.574 . S
C1996 H1991 0.949 . S
C1996 C2002 1.368 . S
C1997 C1981 1.349 . S
C1997 H1989 0.950 . S
C1997 C1995 1.327 . S
C1998 C1986 1.349 . S
C1998 H1992 0.950 . S
C1998 C1999 1.327 . S
C1999 H1993 0.950 . S
C1999 C1998 1.327 . S
C1999 C2003 1.429 . S
C2000 C1983 1.574 . S
C2000 H1994 0.949 . S
C2000 C2004 1.368 . S
C2001 C1982 1.429 . S
C2001 C1995 1.429 . S
C2001 C2002 1.523 . S
C2002 C1983 1.368 . S
C2002 C1996 1.368 . S
C2002 C2001 1.523 . S
C2003 C1987 1.429 . S
C2003 C1999 1.429 . S
C2003 C2004 1.523 . S
C2004 C1988 1.368 . S
C2004 C2000 1.368 . S
C2004 C2003 1.523 . S
H2005 C1980 0.950 . S
H2006 C1982 0.950 . S
H2007 C1983 0.949 . S
H2008 C1985 0.950 . S
H2009 C1987 0.950 . S
C2010 C2011 1.349 . S
C2010 C2012 1.327 . S
C2010 H2035 0.950 . S
C2011 C2010 1.349 . S
C2011 C2027 1.349 . S
C2012 C2010 1.327 . S
C2012 C2031 1.429 . S
C2012 H2036 0.950 . S
C2013 C2030 1.574 . S
C2013 C2032 1.368 . S
C2013 H2037 0.949 . S
H2014 C2018 0.949 . S
C2015 C2016 1.349 . S
C2015 C2017 1.327 . S
C2015 H2038 0.950 . S
C2016 C2015 1.349 . S
C2016 C2028 1.349 . S
C2017 C2015 1.327 . S
C2017 C2033 1.429 . S
C2017 H2039 0.950 . S
C2018 H2014 0.949 . S
C2018 C2026 1.574 . S
C2018 C2034 1.368 . S
H2019 C2027 0.950 . S
H2020 C2025 0.950 . S
H2021 C2026 0.949 . S
H2022 C2028 0.950 . S
H2023 C2029 0.950 . S
H2024 C2030 0.949 . S
C2025 H2020 0.950 . S
C2025 C2027 1.327 . S
C2025 C2031 1.429 . S
C2026 C2018 1.574 . S
C2026 H2021 0.949 . S
C2026 C2032 1.368 . S
C2027 C2011 1.349 . S
C2027 H2019 0.950 . S
C2027 C2025 1.327 . S
C2028 C2016 1.349 . S
C2028 H2022 0.950 . S
C2028 C2029 1.327 . S
C2029 H2023 0.950 . S
C2029 C2028 1.327 . S
C2029 C2033 1.429 . S
C2030 C2013 1.574 . S
C2030 H2024 0.949 . S
C2030 C2034 1.368 . S
C2031 C2012 1.429 . S
C2031 C2025 1.429 . S
C2031 C2032 1.523 . S
C2032 C2013 1.368 . S
C2032 C2026 1.368 . S
C2032 C2031 1.523 . S
C2033 C2017 1.429 . S
C2033 C2029 1.429 . S
C2033 C2034 1.523 . S
C2034 C2018 1.368 . S
C2034 C2030 1.368 . S
C2034 C2033 1.523 . S
H2035 C2010 0.950 . S
H2036 C2012 0.950 . S
H2037 C2013 0.949 . S
H2038 C2015 0.950 . S
H2039 C2017 0.950 . S
C2040 C2041 1.349 . S
C2040 C2042 1.327 . S
C2040 H2065 0.950 . S
C2041 C2040 1.349 . S
C2041 C2057 1.349 . S
C2042 C2040 1.327 . S
C2042 C2061 1.429 . S
C2042 H2066 0.950 . S
C2043 C2060 1.574 . S
C2043 C2062 1.368 . S
C2043 H2067 0.949 . S
H2044 C2048 0.949 . S
C2045 C2046 1.349 . S
C2045 C2047 1.327 . S
C2045 H2068 0.950 . S
C2046 C2045 1.349 . S
C2046 C2058 1.349 . S
C2047 C2045 1.327 . S
C2047 C2063 1.429 . S
C2047 H2069 0.950 . S
C2048 H2044 0.949 . S
C2048 C2056 1.574 . S
C2048 C2064 1.368 . S
H2049 C2057 0.950 . S
H2050 C2055 0.950 . S
H2051 C2056 0.949 . S
H2052 C2058 0.950 . S
H2053 C2059 0.950 . S
H2054 C2060 0.949 . S
C2055 H2050 0.950 . S
C2055 C2057 1.327 . S
C2055 C2061 1.429 . S
C2056 C2048 1.574 . S
C2056 H2051 0.949 . S
C2056 C2062 1.368 . S
C2057 C2041 1.349 . S
C2057 H2049 0.950 . S
C2057 C2055 1.327 . S
C2058 C2046 1.349 . S
C2058 H2052 0.950 . S
C2058 C2059 1.327 . S
C2059 H2053 0.950 . S
C2059 C2058 1.327 . S
C2059 C2063 1.429 . S
C2060 C2043 1.574 . S
C2060 H2054 0.949 . S
C2060 C2064 1.368 . S
C2061 C2042 1.429 . S
C2061 C2055 1.429 . S
C2061 C2062 1.523 . S
C2062 C2043 1.368 . S
C2062 C2056 1.368 . S
C2062 C2061 1.523 . S
C2063 C2047 1.429 . S
C2063 C2059 1.429 . S
C2063 C2064 1.523 . S
C2064 C2048 1.368 . S
C2064 C2060 1.368 . S
C2064 C2063 1.523 . S
H2065 C2040 0.950 . S
H2066 C2042 0.950 . S
H2067 C2043 0.949 . S
H2068 C2045 0.950 . S
H2069 C2047 0.950 . S
C2070 C2071 1.349 . S
C2070 C2072 1.327 . S
C2070 H2095 0.950 . S
C2071 C2070 1.349 . S
C2071 C2087 1.349 . S
C2072 C2070 1.327 . S
C2072 C2091 1.429 . S
C2072 H2096 0.950 . S
C2073 C2090 1.574 . S
C2073 C2092 1.368 . S
C2073 H2097 0.949 . S
H2074 C2078 0.949 . S
C2075 C2076 1.349 . S
C2075 C2077 1.327 . S
C2075 H2098 0.950 . S
C2076 C2075 1.349 . S
C2076 C2088 1.349 . S
C2077 C2075 1.327 . S
C2077 C2093 1.429 . S
C2077 H2099 0.950 . S
C2078 H2074 0.949 . S
C2078 C2086 1.574 . S
C2078 C2094 1.368 . S
H2079 C2087 0.950 . S
H2080 C2085 0.950 . S
H2081 C2086 0.949 . S
H2082 C2088 0.950 . S
H2083 C2089 0.950 . S
H2084 C2090 0.949 . S
C2085 H2080 0.950 . S
C2085 C2087 1.327 . S
C2085 C2091 1.429 . S
C2086 C2078 1.574 . S
C2086 H2081 0.949 . S
C2086 C2092 1.368 . S
C2087 C2071 1.349 . S
C2087 H2079 0.950 . S
C2087 C2085 1.327 . S
C2088 C2076 1.349 . S
C2088 H2082 0.950 . S
C2088 C2089 1.327 . S
C2089 H2083 0.950 . S
C2089 C2088 1.327 . S
C2089 C2093 1.429 . S
C2090 C2073 1.574 . S
C2090 H2084 0.949 . S
C2090 C2094 1.368 . S
C2091 C2072 1.429 . S
C2091 C2085 1.429 . S
C2091 C2092 1.523 . S
C2092 C2073 1.368 . S
C2092 C2086 1.368 . S
C2092 C2091 1.523 . S
C2093 C2077 1.429 . S
C2093 C2089 1.429 . S
C2093 C2094 1.523 . S
C2094 C2078 1.368 . S
C2094 C2090 1.368 . S
C2094 C2093 1.523 . S
H2095 C2070 0.950 . S
H2096 C2072 0.950 . S
H2097 C2073 0.949 . S
H2098 C2075 0.950 . S
H2099 C2077 0.950 . S
C2100 C2101 1.349 . S
C2100 C2102 1.327 . S
C2100 H2125 0.950 . S
C2101 C2100 1.349 . S
C2101 C2117 1.349 . S
C2102 C2100 1.327 . S
C2102 C2121 1.429 . S
C2102 H2126 0.950 . S
C2103 C2120 1.574 . S
C2103 C2122 1.368 . S
C2103 H2127 0.949 . S
H2104 C2108 0.949 . S
C2105 C2106 1.349 . S
C2105 C2107 1.327 . S
C2105 H2128 0.950 . S
C2106 C2105 1.349 . S
C2106 C2118 1.349 . S
C2107 C2105 1.327 . S
C2107 C2123 1.429 . S
C2107 H2129 0.950 . S
C2108 H2104 0.949 . S
C2108 C2116 1.574 . S
C2108 C2124 1.368 . S
H2109 C2117 0.950 . S
H2110 C2115 0.950 . S
H2111 C2116 0.949 . S
H2112 C2118 0.950 . S
H2113 C2119 0.950 . S
H2114 C2120 0.949 . S
C2115 H2110 0.950 . S
C2115 C2117 1.327 . S
C2115 C2121 1.429 . S
C2116 C2108 1.574 . S
C2116 H2111 0.949 . S
C2116 C2122 1.368 . S
C2117 C2101 1.349 . S
C2117 H2109 0.950 . S
C2117 C2115 1.327 . S
C2118 C2106 1.349 . S
C2118 H2112 0.950 . S
C2118 C2119 1.327 . S
C2119 H2113 0.950 . S
C2119 C2118 1.327 . S
C2119 C2123 1.429 . S
C2120 C2103 1.574 . S
C2120 H2114 0.949 . S
C2120 C2124 1.368 . S
C2121 C2102 1.429 . S
C2121 C2115 1.429 . S
C2121 C2122 1.523 . S
C2122 C2103 1.368 . S
C2122 C2116 1.368 . S
C2122 C2121 1.523 . S
C2123 C2107 1.429 . S
C2123 C2119 1.429 . S
C2123 C2124 1.523 . S
C2124 C2108 1.368 . S
C2124 C2120 1.368 . S
C2124 C2123 1.523 . S
H2125 C2100 0.950 . S
H2126 C2102 0.950 . S
H2127 C2103 0.949 . S
H2128 C2105 0.950 . S
H2129 C2107 0.950 . S
C2130 C2131 1.349 . S
C2130 C2132 1.327 . S
C2130 H2155 0.950 . S
C2131 C2130 1.349 . S
C2131 C2147 1.349 . S
C2132 C2130 1.327 . S
C2132 C2151 1.429 . S
C2132 H2156 0.950 . S
C2133 C2150 1.574 . S
C2133 C2152 1.368 . S
C2133 H2157 0.949 . S
H2134 C2138 0.949 . S
C2135 C2136 1.349 . S
C2135 C2137 1.327 . S
C2135 H2158 0.950 . S
C2136 C2135 1.349 . S
C2136 C2148 1.349 . S
C2137 C2135 1.327 . S
C2137 C2153 1.429 . S
C2137 H2159 0.950 . S
C2138 H2134 0.949 . S
C2138 C2146 1.574 . S
C2138 C2154 1.368 . S
H2139 C2147 0.950 . S
H2140 C2145 0.950 . S
H2141 C2146 0.949 . S
H2142 C2148 0.950 . S
H2143 C2149 0.950 . S
H2144 C2150 0.949 . S
C2145 H2140 0.950 . S
C2145 C2147 1.327 . S
C2145 C2151 1.429 . S
C2146 C2138 1.574 . S
C2146 H2141 0.949 . S
C2146 C2152 1.368 . S
C2147 C2131 1.349 . S
C2147 H2139 0.950 . S
C2147 C2145 1.327 . S
C2148 C2136 1.349 . S
C2148 H2142 0.950 . S
C2148 C2149 1.327 . S
C2149 H2143 0.950 . S
C2149 C2148 1.327 . S
C2149 C2153 1.429 . S
C2150 C2133 1.574 . S
C2150 H2144 0.949 . S
C2150 C2154 1.368 . S
C2151 C2132 1.429 . S
C2151 C2145 1.429 . S
C2151 C2152 1.523 . S
C2152 C2133 1.368 . S
C2152 C2146 1.368 . S
C2152 C2151 1.523 . S
C2153 C2137 1.429 . S
C2153 C2149 1.429 . S
C2153 C2154 1.523 . S
C2154 C2138 1.368 . S
C2154 C2150 1.368 . S
C2154 C2153 1.523 . S
H2155 C2130 0.950 . S
H2156 C2132 0.950 . S
H2157 C2133 0.949 . S
H2158 C2135 0.950 . S
H2159 C2137 0.950 . S
C2160 C2161 1.349 . S
C2160 C2162 1.327 . S
C2160 H2185 0.950 . S
C2161 C2160 1.349 . S
C2161 C2177 1.349 . S
C2162 C2160 1.327 . S
C2162 C2181 1.429 . S
C2162 H2186 0.950 . S
C2163 C2180 1.574 . S
C2163 C2182 1.368 . S
C2163 H2187 0.949 . S
H2164 C2168 0.949 . S
C2165 C2166 1.349 . S
C2165 C2167 1.327 . S
C2165 H2188 0.950 . S
C2166 C2165 1.349 . S
C2166 C2178 1.349 . S
C2167 C2165 1.327 . S
C2167 C2183 1.429 . S
C2167 H2189 0.950 . S
C2168 H2164 0.949 . S
C2168 C2176 1.574 . S
C2168 C2184 1.368 . S
H2169 C2177 0.950 . S
H2170 C2175 0.950 . S
H2171 C2176 0.949 . S
H2172 C2178 0.950 . S
H2173 C2179 0.950 . S
H2174 C2180 0.949 . S
C2175 H2170 0.950 . S
C2175 C2177 1.327 . S
C2175 C2181 1.429 . S
C2176 C2168 1.574 . S
C2176 H2171 0.949 . S
C2176 C2182 1.368 . S
C2177 C2161 1.349 . S
C2177 H2169 0.950 . S
C2177 C2175 1.327 . S
C2178 C2166 1.349 . S
C2178 H2172 0.950 . S
C2178 C2179 1.327 . S
C2179 H2173 0.950 . S
C2179 C2178 1.327 . S
C2179 C2183 1.429 . S
C2180 C2163 1.574 . S
C2180 H2174 0.949 . S
C2180 C2184 1.368 . S
C2181 C2162 1.429 . S
C2181 C2175 1.429 . S
C2181 C2182 1.523 . S
C2182 C2163 1.368 . S
C2182 C2176 1.368 . S
C2182 C2181 1.523 . S
C2183 C2167 1.429 . S
C2183 C2179 1.429 . S
C2183 C2184 1.523 . S
C2184 C2168 1.368 . S
C2184 C2180 1.368 . S
C2184 C2183 1.523 . S
H2185 C2160 0.950 . S
H2186 C2162 0.950 . S
H2187 C2163 0.949 . S
H2188 C2165 0.950 . S
H2189 C2167 0.950 . S
C2190 C2191 1.349 . S
C2190 C2192 1.327 . S
C2190 H2215 0.950 . S
C2191 C2190 1.349 . S
C2191 C2207 1.349 . S
C2192 C2190 1.327 . S
C2192 C2211 1.429 . S
C2192 H2216 0.950 . S
C2193 C2210 1.574 . S
C2193 C2212 1.368 . S
C2193 H2217 0.949 . S
H2194 C2198 0.949 . S
C2195 C2196 1.349 . S
C2195 C2197 1.327 . S
C2195 H2218 0.950 . S
C2196 C2195 1.349 . S
C2196 C2208 1.349 . S
C2197 C2195 1.327 . S
C2197 C2213 1.429 . S
C2197 H2219 0.950 . S
C2198 H2194 0.949 . S
C2198 C2206 1.574 . S
C2198 C2214 1.368 . S
H2199 C2207 0.950 . S
H2200 C2205 0.950 . S
H2201 C2206 0.949 . S
H2202 C2208 0.950 . S
H2203 C2209 0.950 . S
H2204 C2210 0.949 . S
C2205 H2200 0.950 . S
C2205 C2207 1.327 . S
C2205 C2211 1.429 . S
C2206 C2198 1.574 . S
C2206 H2201 0.949 . S
C2206 C2212 1.368 . S
C2207 C2191 1.349 . S
C2207 H2199 0.950 . S
C2207 C2205 1.327 . S
C2208 C2196 1.349 . S
C2208 H2202 0.950 . S
C2208 C2209 1.327 . S
C2209 H2203 0.950 . S
C2209 C2208 1.327 . S
C2209 C2213 1.429 . S
C2210 C2193 1.574 . S
C2210 H2204 0.949 . S
C2210 C2214 1.368 . S
C2211 C2192 1.429 . S
C2211 C2205 1.429 . S
C2211 C2212 1.523 . S
C2212 C2193 1.368 . S
C2212 C2206 1.368 . S
C2212 C2211 1.523 . S
C2213 C2197 1.429 . S
C2213 C2209 1.429 . S
C2213 C2214 1.523 . S
C2214 C2198 1.368 . S
C2214 C2210 1.368 . S
C2214 C2213 1.523 . S
H2215 C2190 0.950 . S
H2216 C2192 0.950 . S
H2217 C2193 0.949 . S
H2218 C2195 0.950 . S
H2219 C2197 0.950 . S
C2220 C2221 1.349 . S
C2220 C2222 1.327 . S
C2220 H2245 0.950 . S
C2221 C2220 1.349 . S
C2221 C2237 1.349 . S
C2222 C2220 1.327 . S
C2222 C2241 1.429 . S
C2222 H2246 0.950 . S
C2223 C2240 1.574 . S
C2223 C2242 1.368 . S
C2223 H2247 0.949 . S
H2224 C2228 0.949 . S
C2225 C2226 1.349 . S
C2225 C2227 1.327 . S
C2225 H2248 0.950 . S
C2226 C2225 1.349 . S
C2226 C2238 1.349 . S
C2227 C2225 1.327 . S
C2227 C2243 1.429 . S
C2227 H2249 0.950 . S
C2228 H2224 0.949 . S
C2228 C2236 1.574 . S
C2228 C2244 1.368 . S
H2229 C2237 0.950 . S
H2230 C2235 0.950 . S
H2231 C2236 0.949 . S
H2232 C2238 0.950 . S
H2233 C2239 0.950 . S
H2234 C2240 0.949 . S
C2235 H2230 0.950 . S
C2235 C2237 1.327 . S
C2235 C2241 1.429 . S
C2236 C2228 1.574 . S
C2236 H2231 0.949 . S
C2236 C2242 1.368 . S
C2237 C2221 1.349 . S
C2237 H2229 0.950 . S
C2237 C2235 1.327 . S
C2238 C2226 1.349 . S
C2238 H2232 0.950 . S
C2238 C2239 1.327 . S
C2239 H2233 0.950 . S
C2239 C2238 1.327 . S
C2239 C2243 1.429 . S
C2240 C2223 1.574 . S
C2240 H2234 0.949 . S
C2240 C2244 1.368 . S
C2241 C2222 1.429 . S
C2241 C2235 1.429 . S
C2241 C2242 1.523 . S
C2242 C2223 1.368 . S
C2242 C2236 1.368 . S
C2242 C2241 1.523 . S
C2243 C2227 1.429 . S
C2243 C2239 1.429 . S
C2243 C2244 1.523 . S
C2244 C2228 1.368 . S
C2244 C2240 1.368 . S
C2244 C2243 1.523 . S
H2245 C2220 0.950 . S
H2246 C2222 0.950 . S
H2247 C2223 0.949 . S
H2248 C2225 0.950 . S
H2249 C2227 0.950 . S
C2250 C2251 1.349 . S
C2250 C2252 1.327 . S
C2250 H2275 0.950 . S
C2251 C2250 1.349 . S
C2251 C2267 1.349 . S
C2252 C2250 1.327 . S
C2252 C2271 1.429 . S
C2252 H2276 0.950 . S
C2253 C2270 1.574 . S
C2253 C2272 1.368 . S
C2253 H2277 0.949 . S
H2254 C2258 0.949 . S
C2255 C2256 1.349 . S
C2255 C2257 1.327 . S
C2255 H2278 0.950 . S
C2256 C2255 1.349 . S
C2256 C2268 1.349 . S
C2257 C2255 1.327 . S
C2257 C2273 1.429 . S
C2257 H2279 0.950 . S
C2258 H2254 0.949 . S
C2258 C2266 1.574 . S
C2258 C2274 1.368 . S
H2259 C2267 0.950 . S
H2260 C2265 0.950 . S
H2261 C2266 0.949 . S
H2262 C2268 0.950 . S
H2263 C2269 0.950 . S
H2264 C2270 0.949 . S
C2265 H2260 0.950 . S
C2265 C2267 1.327 . S
C2265 C2271 1.429 . S
C2266 C2258 1.574 . S
C2266 H2261 0.949 . S
C2266 C2272 1.368 . S
C2267 C2251 1.349 . S
C2267 H2259 0.950 . S
C2267 C2265 1.327 . S
C2268 C2256 1.349 . S
C2268 H2262 0.950 . S
C2268 C2269 1.327 . S
C2269 H2263 0.950 . S
C2269 C2268 1.327 . S
C2269 C2273 1.429 . S
C2270 C2253 1.574 . S
C2270 H2264 0.949 . S
C2270 C2274 1.368 . S
C2271 C2252 1.429 . S
C2271 C2265 1.429 . S
C2271 C2272 1.523 . S
C2272 C2253 1.368 . S
C2272 C2266 1.368 . S
C2272 C2271 1.523 . S
C2273 C2257 1.429 . S
C2273 C2269 1.429 . S
C2273 C2274 1.523 . S
C2274 C2258 1.368 . S
C2274 C2270 1.368 . S
C2274 C2273 1.523 . S
H2275 C2250 0.950 . S
H2276 C2252 0.950 . S
H2277 C2253 0.949 . S
H2278 C2255 0.950 . S
H2279 C2257 0.950 . S
C2280 C2281 1.349 . S
C2280 C2282 1.327 . S
C2280 H2305 0.950 . S
C2281 C2280 1.349 . S
C2281 C2297 1.349 . S
C2282 C2280 1.327 . S
C2282 C2301 1.429 . S
C2282 H2306 0.950 . S
C2283 C2300 1.574 . S
C2283 C2302 1.368 . S
C2283 H2307 0.949 . S
H2284 C2288 0.949 . S
C2285 C2286 1.349 . S
C2285 C2287 1.327 . S
C2285 H2308 0.950 . S
C2286 C2285 1.349 . S
C2286 C2298 1.349 . S
C2287 C2285 1.327 . S
C2287 C2303 1.429 . S
C2287 H2309 0.950 . S
C2288 H2284 0.949 . S
C2288 C2296 1.574 . S
C2288 C2304 1.368 . S
H2289 C2297 0.950 . S
H2290 C2295 0.950 . S
H2291 C2296 0.949 . S
H2292 C2298 0.950 . S
H2293 C2299 0.950 . S
H2294 C2300 0.949 . S
C2295 H2290 0.950 . S
C2295 C2297 1.327 . S
C2295 C2301 1.429 . S
C2296 C2288 1.574 . S
C2296 H2291 0.949 . S
C2296 C2302 1.368 . S
C2297 C2281 1.349 . S
C2297 H2289 0.950 . S
C2297 C2295 1.327 . S
C2298 C2286 1.349 . S
C2298 H2292 0.950 . S
C2298 C2299 1.327 . S
C2299 H2293 0.950 . S
C2299 C2298 1.327 . S
C2299 C2303 1.429 . S
C2300 C2283 1.574 . S
C2300 H2294 0.949 . S
C2300 C2304 1.368 . S
C2301 C2282 1.429 . S
C2301 C2295 1.429 . S
C2301 C2302 1.523 . S
C2302 C2283 1.368 . S
C2302 C2296 1.368 . S
C2302 C2301 1.523 . S
C2303 C2287 1.429 . S
C2303 C2299 1.429 . S
C2303 C2304 1.523 . S
C2304 C2288 1.368 . S
C2304 C2300 1.368 . S
C2304 C2303 1.523 . S
H2305 C2280 0.950 . S
H2306 C2282 0.950 . S
H2307 C2283 0.949 . S
H2308 C2285 0.950 . S
H2309 C2287 0.950 . S
C2310 C2311 1.349 . S
C2310 C2312 1.327 . S
C2310 H2335 0.950 . S
C2311 C2310 1.349 . S
C2311 C2327 1.349 . S
C2312 C2310 1.327 . S
C2312 C2331 1.429 . S
C2312 H2336 0.950 . S
C2313 C2330 1.574 . S
C2313 C2332 1.368 . S
C2313 H2337 0.949 . S
H2314 C2318 0.949 . S
C2315 C2316 1.349 . S
C2315 C2317 1.327 . S
C2315 H2338 0.950 . S
C2316 C2315 1.349 . S
C2316 C2328 1.349 . S
C2317 C2315 1.327 . S
C2317 C2333 1.429 . S
C2317 H2339 0.950 . S
C2318 H2314 0.949 . S
C2318 C2326 1.574 . S
C2318 C2334 1.368 . S
H2319 C2327 0.950 . S
H2320 C2325 0.950 . S
H2321 C2326 0.949 . S
H2322 C2328 0.950 . S
H2323 C2329 0.950 . S
H2324 C2330 0.949 . S
C2325 H2320 0.950 . S
C2325 C2327 1.327 . S
C2325 C2331 1.429 . S
C2326 C2318 1.574 . S
C2326 H2321 0.949 . S
C2326 C2332 1.368 . S
C2327 C2311 1.349 . S
C2327 H2319 0.950 . S
C2327 C2325 1.327 . S
C2328 C2316 1.349 . S
C2328 H2322 0.950 . S
C2328 C2329 1.327 . S
C2329 H2323 0.950 . S
C2329 C2328 1.327 . S
C2329 C2333 1.429 . S
C2330 C2313 1.574 . S
C2330 H2324 0.949 . S
C2330 C2334 1.368 . S
C2331 C2312 1.429 . S
C2331 C2325 1.429 . S
C2331 C2332 1.523 . S
C2332 C2313 1.368 . S
C2332 C2326 1.368 . S
C2332 C2331 1.523 . S
C2333 C2317 1.429 . S
C2333 C2329 1.429 . S
C2333 C2334 1.523 . S
C2334 C2318 1.368 . S
C2334 C2330 1.368 . S
C2334 C2333 1.523 . S
H2335 C2310 0.950 . S
H2336 C2312 0.950 . S
H2337 C2313 0.949 . S
H2338 C2315 0.950 . S
H2339 C2317 0.950 . S
C2340 C2341 1.349 . S
C2340 C2342 1.327 . S
C2340 H2365 0.950 . S
C2341 C2340 1.349 . S
C2341 C2357 1.349 . S
C2342 C2340 1.327 . S
C2342 C2361 1.429 . S
C2342 H2366 0.950 . S
C2343 C2360 1.574 . S
C2343 C2362 1.368 . S
C2343 H2367 0.949 . S
H2344 C2348 0.949 . S
C2345 C2346 1.349 . S
C2345 C2347 1.327 . S
C2345 H2368 0.950 . S
C2346 C2345 1.349 . S
C2346 C2358 1.349 . S
C2347 C2345 1.327 . S
C2347 C2363 1.429 . S
C2347 H2369 0.950 . S
C2348 H2344 0.949 . S
C2348 C2356 1.574 . S
C2348 C2364 1.368 . S
H2349 C2357 0.950 . S
H2350 C2355 0.950 . S
H2351 C2356 0.949 . S
H2352 C2358 0.950 . S
H2353 C2359 0.950 . S
H2354 C2360 0.949 . S
C2355 H2350 0.950 . S
C2355 C2357 1.327 . S
C2355 C2361 1.429 . S
C2356 C2348 1.574 . S
C2356 H2351 0.949 . S
C2356 C2362 1.368 . S
C2357 C2341 1.349 . S
C2357 H2349 0.950 . S
C2357 C2355 1.327 . S
C2358 C2346 1.349 . S
C2358 H2352 0.950 . S
C2358 C2359 1.327 . S
C2359 H2353 0.950 . S
C2359 C2358 1.327 . S
C2359 C2363 1.429 . S
C2360 C2343 1.574 . S
C2360 H2354 0.949 . S
C2360 C2364 1.368 . S
C2361 C2342 1.429 . S
C2361 C2355 1.429 . S
C2361 C2362 1.523 . S
C2362 C2343 1.368 . S
C2362 C2356 1.368 . S
C2362 C2361 1.523 . S
C2363 C2347 1.429 . S
C2363 C2359 1.429 . S
C2363 C2364 1.523 . S
C2364 C2348 1.368 . S
C2364 C2360 1.368 . S
C2364 C2363 1.523 . S
H2365 C2340 0.950 . S
H2366 C2342 0.950 . S
H2367 C2343 0.949 . S
H2368 C2345 0.950 . S
H2369 C2347 0.950 . S
C2370 C2371 1.349 . S
C2370 C2372 1.327 . S
C2370 H2395 0.950 . S
C2371 C2370 1.349 . S
C2371 C2387 1.349 . S
C2372 C2370 1.327 . S
C2372 C2391 1.429 . S
C2372 H2396 0.950 . S
C2373 C2390 1.574 . S
C2373 C2392 1.368 . S
C2373 H2397 0.949 . S
H2374 C2378 0.949 . S
C2375 C2376 1.349 . S
C2375 C2377 1.327 . S
C2375 H2398 0.950 . S
C2376 C2375 1.349 . S
C2376 C2388 1.349 . S
C2377 C2375 1.327 . S
C2377 C2393 1.429 . S
C2377 H2399 0.950 . S
C2378 H2374 0.949 . S
C2378 C2386 1.574 . S
C2378 C2394 1.368 . S
H2379 C2387 0.950 . S
H2380 C2385 0.950 . S
H2381 C2386 0.949 . S
H2382 C2388 0.950 . S
H2383 C2389 0.950 . S
H2384 C2390 0.949 . S
C2385 H2380 0.950 . S
C2385 C2387 1.327 . S
C2385 C2391 1.429 . S
C2386 C2378 1.574 . S
C2386 H2381 0.949 . S
C2386 C2392 1.368 . S
C2387 C2371 1.349 . S
C2387 H2379 0.950 . S
C2387 C2385 1.327 . S
C2388 C2376 1.349 . S
C2388 H2382 0.950 . S
C2388 C2389 1.327 . S
C2389 H2383 0.950 . S
C2389 C2388 1.327 . S
C2389 C2393 1.429 . S
C2390 C2373 1.574 . S
C2390 H2384 0.949 . S
C2390 C2394 1.368 . S
C2391 C2372 1.429 . S
C2391 C2385 1.429 . S
C2391 C2392 1.523 . S
C2392 C2373 1.368 . S
C2392 C2386 1.368 . S
C2392 C2391 1.523 . S
C2393 C2377 1.429 . S
C2393 C2389 1.429 . S
C2393 C2394 1.523 . S
C2394 C2378 1.368 . S
C2394 C2390 1.368 . S
C2394 C2393 1.523 . S
H2395 C2370 0.950 . S
H2396 C2372 0.950 . S
H2397 C2373 0.949 . S
H2398 C2375 0.950 . S
H2399 C2377 0.950 . S
C2400 C2401 1.349 . S
C2400 C2402 1.327 . S
C2400 H2425 0.950 . S
C2401 C2400 1.349 . S
C2401 C2417 1.349 . S
C2402 C2400 1.327 . S
C2402 C2421 1.429 . S
C2402 H2426 0.950 . S
C2403 C2420 1.574 . S
C2403 C2422 1.368 . S
C2403 H2427 0.949 . S
H2404 C2408 0.949 . S
C2405 C2406 1.349 . S
C2405 C2407 1.327 . S
C2405 H2428 0.950 . S
C2406 C2405 1.349 . S
C2406 C2418 1.349 . S
C2407 C2405 1.327 . S
C2407 C2423 1.429 . S
C2407 H2429 0.950 . S
C2408 H2404 0.949 . S
C2408 C2416 1.574 . S
C2408 C2424 1.368 . S
H2409 C2417 0.950 . S
H2410 C2415 0.950 . S
H2411 C2416 0.949 . S
H2412 C2418 0.950 . S
H2413 C2419 0.950 . S
H2414 C2420 0.949 . S
C2415 H2410 0.950 . S
C2415 C2417 1.327 . S
C2415 C2421 1.429 . S
C2416 C2408 1.574 . S
C2416 H2411 0.949 . S
C2416 C2422 1.368 . S
C2417 C2401 1.349 . S
C2417 H2409 0.950 . S
C2417 C2415 1.327 . S
C2418 C2406 1.349 . S
C2418 H2412 0.950 . S
C2418 C2419 1.327 . S
C2419 H2413 0.950 . S
C2419 C2418 1.327 . S
C2419 C2423 1.429 . S
C2420 C2403 1.574 . S
C2420 H2414 0.949 . S
C2420 C2424 1.368 . S
C2421 C2402 1.429 . S
C2421 C2415 1.429 . S
C2421 C2422 1.523 . S
C2422 C2403 1.368 . S
C2422 C2416 1.368 . S
C2422 C2421 1.523 . S
C2423 C2407 1.429 . S
C2423 C2419 1.429 . S
C2423 C2424 1.523 . S
C2424 C2408 1.368 . S
C2424 C2420 1.368 . S
C2424 C2423 1.523 . S
H2425 C2400 0.950 . S
H2426 C2402 0.950 . S
H2427 C2403 0.949 . S
H2428 C2405 0.950 . S
H2429 C2407 0.950 . S
C2430 C2431 1.349 . S
C2430 C2432 1.327 . S
C2430 H2455 0.950 . S
C2431 C2430 1.349 . S
C2431 C2447 1.349 . S
C2432 C2430 1.327 . S
C2432 C2451 1.429 . S
C2432 H2456 0.950 . S
C2433 C2450 1.574 . S
C2433 C2452 1.368 . S
C2433 H2457 0.949 . S
H2434 C2438 0.949 . S
C2435 C2436 1.349 . S
C2435 C2437 1.327 . S
C2435 H2458 0.950 . S
C2436 C2435 1.349 . S
C2436 C2448 1.349 . S
C2437 C2435 1.327 . S
C2437 C2453 1.429 . S
C2437 H2459 0.950 . S
C2438 H2434 0.949 . S
C2438 C2446 1.574 . S
C2438 C2454 1.368 . S
H2439 C2447 0.950 . S
H2440 C2445 0.950 . S
H2441 C2446 0.949 . S
H2442 C2448 0.950 . S
H2443 C2449 0.950 . S
H2444 C2450 0.949 . S
C2445 H2440 0.950 . S
C2445 C2447 1.327 . S
C2445 C2451 1.429 . S
C2446 C2438 1.574 . S
C2446 H2441 0.949 . S
C2446 C2452 1.368 . S
C2447 C2431 1.349 . S
C2447 H2439 0.950 . S
C2447 C2445 1.327 . S
C2448 C2436 1.349 . S
C2448 H2442 0.950 . S
C2448 C2449 1.327 . S
C2449 H2443 0.950 . S
C2449 C2448 1.327 . S
C2449 C2453 1.429 . S
C2450 C2433 1.574 . S
C2450 H2444 0.949 . S
C2450 C2454 1.368 . S
C2451 C2432 1.429 . S
C2451 C2445 1.429 . S
C2451 C2452 1.523 . S
C2452 C2433 1.368 . S
C2452 C2446 1.368 . S
C2452 C2451 1.523 . S
C2453 C2437 1.429 . S
C2453 C2449 1.429 . S
C2453 C2454 1.523 . S
C2454 C2438 1.368 . S
C2454 C2450 1.368 . S
C2454 C2453 1.523 . S
H2455 C2430 0.950 . S
H2456 C2432 0.950 . S
H2457 C2433 0.949 . S
H2458 C2435 0.950 . S
H2459 C2437 0.950 . S
C2460 C2461 1.349 . S
C2460 C2462 1.327 . S
C2460 H2485 0.950 . S
C2461 C2460 1.349 . S
C2461 C2477 1.349 . S
C2462 C2460 1.327 . S
C2462 C2481 1.429 . S
C2462 H2486 0.950 . S
C2463 C2480 1.574 . S
C2463 C2482 1.368 . S
C2463 H2487 0.949 . S
H2464 C2468 0.949 . S
C2465 C2466 1.349 . S
C2465 C2467 1.327 . S
C2465 H2488 0.950 . S
C2466 C2465 1.349 . S
C2466 C2478 1.349 . S
C2467 C2465 1.327 . S
C2467 C2483 1.429 . S
C2467 H2489 0.950 . S
C2468 H2464 0.949 . S
C2468 C2476 1.574 . S
C2468 C2484 1.368 . S
H2469 C2477 0.950 . S
H2470 C2475 0.950 . S
H2471 C2476 0.949 . S
H2472 C2478 0.950 . S
H2473 C2479 0.950 . S
H2474 C2480 0.949 . S
C2475 H2470 0.950 . S
C2475 C2477 1.327 . S
C2475 C2481 1.429 . S
C2476 C2468 1.574 . S
C2476 H2471 0.949 . S
C2476 C2482 1.368 . S
C2477 C2461 1.349 . S
C2477 H2469 0.950 . S
C2477 C2475 1.327 . S
C2478 C2466 1.349 . S
C2478 H2472 0.950 . S
C2478 C2479 1.327 . S
C2479 H2473 0.950 . S
C2479 C2478 1.327 . S
C2479 C2483 1.429 . S
C2480 C2463 1.574 . S
C2480 H2474 0.949 . S
C2480 C2484 1.368 . S
C2481 C2462 1.429 . S
C2481 C2475 1.429 . S
C2481 C2482 1.523 . S
C2482 C2463 1.368 . S
C2482 C2476 1.368 . S
C2482 C2481 1.523 . S
C2483 C2467 1.429 . S
C2483 C2479 1.429 . S
C2483 C2484 1.523 . S
C2484 C2468 1.368 . S
C2484 C2480 1.368 . S
C2484 C2483 1.523 . S
H2485 C2460 0.950 . S
H2486 C2462 0.950 . S
H2487 C2463 0.949 . S
H2488 C2465 0.950 . S
H2489 C2467 0.950 . S
C2490 C2491 1.349 . S
C2490 C2492 1.327 . S
C2490 H2515 0.950 . S
C2491 C2490 1.349 . S
C2491 C2507 1.349 . S
C2492 C2490 1.327 . S
C2492 C2511 1.429 . S
C2492 H2516 0.950 . S
C2493 C2510 1.574 . S
C2493 C2512 1.368 . S
C2493 H2517 0.949 . S
H2494 C2498 0.949 . S
C2495 C2496 1.349 . S
C2495 C2497 1.327 . S
C2495 H2518 0.950 . S
C2496 C2495 1.349 . S
C2496 C2508 1.349 . S
C2497 C2495 1.327 . S
C2497 C2513 1.429 . S
C2497 H2519 0.950 . S
C2498 H2494 0.949 . S
C2498 C2506 1.574 . S
C2498 C2514 1.368 . S
H2499 C2507 0.950 . S
H2500 C2505 0.950 . S
H2501 C2506 0.949 . S
H2502 C2508 0.950 . S
H2503 C2509 0.950 . S
H2504 C2510 0.949 . S
C2505 H2500 0.950 . S
C2505 C2507 1.327 . S
C2505 C2511 1.429 . S
C2506 C2498 1.574 . S
C2506 H2501 0.949 . S
C2506 C2512 1.368 . S
C2507 C2491 1.349 . S
C2507 H2499 0.950 . S
C2507 C2505 1.327 . S
C2508 C2496 1.349 . S
C2508 H2502 0.950 . S
C2508 C2509 1.327 . S
C2509 H2503 0.950 . S
C2509 C2508 1.327 . S
C2509 C2513 1.429 . S
C2510 C2493 1.574 . S
C2510 H2504 0.949 . S
C2510 C2514 1.368 . S
C2511 C2492 1.429 . S
C2511 C2505 1.429 . S
C2511 C2512 1.523 . S
C2512 C2493 1.368 . S
C2512 C2506 1.368 . S
C2512 C2511 1.523 . S
C2513 C2497 1.429 . S
C2513 C2509 1.429 . S
C2513 C2514 1.523 . S
C2514 C2498 1.368 . S
C2514 C2510 1.368 . S
C2514 C2513 1.523 . S
H2515 C2490 0.950 . S
H2516 C2492 0.950 . S
H2517 C2493 0.949 . S
H2518 C2495 0.950 . S
H2519 C2497 0.950 . S
C2520 C2521 1.349 . S
C2520 C2522 1.327 . S
C2520 H2545 0.950 . S
C2521 C2520 1.349 . S
C2521 C2537 1.349 . S
C2522 C2520 1.327 . S
C2522 C2541 1.429 . S
C2522 H2546 0.950 . S
C2523 C2540 1.574 . S
C2523 C2542 1.368 . S
C2523 H2547 0.949 . S
H2524 C2528 0.949 . S
C2525 C2526 1.349 . S
C2525 C2527 1.327 . S
C2525 H2548 0.950 . S
C2526 C2525 1.349 . S
C2526 C2538 1.349 . S
C2527 C2525 1.327 . S
C2527 C2543 1.429 . S
C2527 H2549 0.950 . S
C2528 H2524 0.949 . S
C2528 C2536 1.574 . S
C2528 C2544 1.368 . S
H2529 C2537 0.950 . S
H2530 C2535 0.950 . S
H2531 C2536 0.949 . S
H2532 C2538 0.950 . S
H2533 C2539 0.950 . S
H2534 C2540 0.949 . S
C2535 H2530 0.950 . S
C2535 C2537 1.327 . S
C2535 C2541 1.429 . S
C2536 C2528 1.574 . S
C2536 H2531 0.949 . S
C2536 C2542 1.368 . S
C2537 C2521 1.349 . S
C2537 H2529 0.950 . S
C2537 C2535 1.327 . S
C2538 C2526 1.349 . S
C2538 H2532 0.950 . S
C2538 C2539 1.327 . S
C2539 H2533 0.950 . S
C2539 C2538 1.327 . S
C2539 C2543 1.429 . S
C2540 C2523 1.574 . S
C2540 H2534 0.949 . S
C2540 C2544 1.368 . S
C2541 C2522 1.429 . S
C2541 C2535 1.429 . S
C2541 C2542 1.523 . S
C2542 C2523 1.368 . S
C2542 C2536 1.368 . S
C2542 C2541 1.523 . S
C2543 C2527 1.429 . S
C2543 C2539 1.429 . S
C2543 C2544 1.523 . S
C2544 C2528 1.368 . S
C2544 C2540 1.368 . S
C2544 C2543 1.523 . S
H2545 C2520 0.950 . S
H2546 C2522 0.950 . S
H2547 C2523 0.949 . S
H2548 C2525 0.950 . S
H2549 C2527 0.950 . S
C2550 C2551 1.349 . S
C2550 C2552 1.327 . S
C2550 H2575 0.950 . S
C2551 C2550 1.349 . S
C2551 C2567 1.349 . S
C2552 C2550 1.327 . S
C2552 C2571 1.429 . S
C2552 H2576 0.950 . S
C2553 C2570 1.574 . S
C2553 C2572 1.368 . S
C2553 H2577 0.949 . S
H2554 C2558 0.949 . S
C2555 C2556 1.349 . S
C2555 C2557 1.327 . S
C2555 H2578 0.950 . S
C2556 C2555 1.349 . S
C2556 C2568 1.349 . S
C2557 C2555 1.327 . S
C2557 C2573 1.429 . S
C2557 H2579 0.950 . S
C2558 H2554 0.949 . S
C2558 C2566 1.574 . S
C2558 C2574 1.368 . S
H2559 C2567 0.950 . S
H2560 C2565 0.950 . S
H2561 C2566 0.949 . S
H2562 C2568 0.950 . S
H2563 C2569 0.950 . S
H2564 C2570 0.949 . S
C2565 H2560 0.950 . S
C2565 C2567 1.327 . S
C2565 C2571 1.429 . S
C2566 C2558 1.574 . S
C2566 H2561 0.949 . S
C2566 C2572 1.368 . S
C2567 C2551 1.349 . S
C2567 H2559 0.950 . S
C2567 C2565 1.327 . S
C2568 C2556 1.349 . S
C2568 H2562 0.950 . S
C2568 C2569 1.327 . S
C2569 H2563 0.950 . S
C2569 C2568 1.327 . S
C2569 C2573 1.429 . S
C2570 C2553 1.574 . S
C2570 H2564 0.949 . S
C2570 C2574 1.368 . S
C2571 C2552 1.429 . S
C2571 C2565 1.429 . S
C2571 C2572 1.523 . S
C2572 C2553 1.368 . S
C2572 C2566 1.368 . S
C2572 C2571 1.523 . S
C2573 C2557 1.429 . S
C2573 C2569 1.429 . S
C2573 C2574 1.523 . S
C2574 C2558 1.368 . S
C2574 C2570 1.368 . S
C2574 C2573 1.523 . S
H2575 C2550 0.950 . S
H2576 C2552 0.950 . S
H2577 C2553 0.949 . S
H2578 C2555 0.950 . S
H2579 C2557 0.950 . S
C2580 C2581 1.349 . S
C2580 C2582 1.327 . S
C2580 H2605 0.950 . S
C2581 C2580 1.349 . S
C2581 C2597 1.349 . S
C2582 C2580 1.327 . S
C2582 C2601 1.429 . S
C2582 H2606 0.950 . S
C2583 C2600 1.574 . S
C2583 C2602 1.368 . S
C2583 H2607 0.949 . S
H2584 C2588 0.949 . S
C2585 C2586 1.349 . S
C2585 C2587 1.327 . S
C2585 H2608 0.950 . S
C2586 C2585 1.349 . S
C2586 C2598 1.349 . S
C2587 C2585 1.327 . S
C2587 C2603 1.429 . S
C2587 H2609 0.950 . S
C2588 H2584 0.949 . S
C2588 C2596 1.574 . S
C2588 C2604 1.368 . S
H2589 C2597 0.950 . S
H2590 C2595 0.950 . S
H2591 C2596 0.949 . S
H2592 C2598 0.950 . S
H2593 C2599 0.950 . S
H2594 C2600 0.949 . S
C2595 H2590 0.950 . S
C2595 C2597 1.327 . S
C2595 C2601 1.429 . S
C2596 C2588 1.574 . S
C2596 H2591 0.949 . S
C2596 C2602 1.368 . S
C2597 C2581 1.349 . S
C2597 H2589 0.950 . S
C2597 C2595 1.327 . S
C2598 C2586 1.349 . S
C2598 H2592 0.950 . S
C2598 C2599 1.327 . S
C2599 H2593 0.950 . S
C2599 C2598 1.327 . S
C2599 C2603 1.429 . S
C2600 C2583 1.574 . S
C2600 H2594 0.949 . S
C2600 C2604 1.368 . S
C2601 C2582 1.429 . S
C2601 C2595 1.429 . S
C2601 C2602 1.523 . S
C2602 C2583 1.368 . S
C2602 C2596 1.368 . S
C2602 C2601 1.523 . S
C2603 C2587 1.429 . S
C2603 C2599 1.429 . S
C2603 C2604 1.523 . S
C2604 C2588 1.368 . S
C2604 C2600 1.368 . S
C2604 C2603 1.523 . S
H2605 C2580 0.950 . S
H2606 C2582 0.950 . S
H2607 C2583 0.949 . S
H2608 C2585 0.950 . S
H2609 C2587 0.950 . S
C991 N170 2.069 . S
C996 C290 1.991 . S
C1021 N184 0.821 . S
C1026 C374 0.811 . S
C1051 N158 1.560 . S
C1056 C468 1.534 . S
C1081 N145 1.531 . S
C1086 C384 1.487 1_556 S
C1116 C458 0.760 . S
C1111 N119 0.762 . S
C1141 N131 2.019 . S
C1146 C300 1.981 . S
C1176 C301 1.592 . S
C1171 N144 1.663 . S
C1206 C385 1.290 . S
C1201 N118 1.315 . S
C1231 N132 1.412 . S
C1236 C477 1.404 . S
C1261 N171 1.392 . S
C1266 C393 1.383 . S
C1291 N183 1.258 . S
C1296 C469 1.233 . S
C1326 C309 1.579 . S
C1321 N157 1.613 . S
C1356 C542 1.991 . S
C1351 N14 2.069 . S
C1381 N28 0.821 . S
C1386 C626 0.811 . S
C1411 N2 1.560 . S
C1416 C720 1.534 . S
C1441 N223 1.531 . S
C1446 C636 1.505 . S
C1471 N197 0.762 . S
C1476 C710 0.760 . S
C1501 N209 2.019 . S
C1506 C552 1.981 . S
C1531 N222 1.663 . S
C1536 C553 1.592 . S
C1561 N196 1.315 . S
C1566 C637 1.289 . S
C1596 C729 1.404 . S
C1591 N210 1.412 . S
C1621 N15 1.392 . S
C1626 C645 1.383 . S
C1656 C721 1.233 . S
C1651 N27 1.259 . S
C1681 N1 1.613 . S
C1686 C561 1.579 . S
C1716 C794 1.991 . S
C1711 N92 2.069 . S
C1741 N106 0.821 . S
C1746 C878 0.811 . S
C1776 C972 1.534 . S
C1771 N80 1.561 . S
C1806 C888 1.505 . S
C1801 N67 1.531 . S
C1836 C962 0.760 . S
C1831 N41 0.762 . S
C1861 N53 2.019 . S
C1866 C804 1.981 . S
C1891 N66 1.663 . S
C1896 C805 1.592 . S
C1921 N40 1.315 . S
C1926 C889 1.290 . S
C1956 C981 1.404 . S
C1951 N54 1.412 . S
C1981 N93 1.392 . S
C1986 C897 1.383 . S
C2011 N105 1.258 . S
C2016 C973 1.233 . S
C2041 N79 1.613 . S
C2046 C813 1.579 . S
C2071 N200 1.164 . S
C2076 C297 1.065 . S
C2106 C381 1.684 . S
C2101 N213 1.866 . S
C2131 N226 1.483 . S
C2136 C474 1.364 . S
C2161 N83 1.520 . S
C2166 C390 1.392 . S
C2191 N96 1.838 . S
C2196 C465 1.662 . S
C2226 C306 1.096 . S
C2221 N109 1.183 . S
C2251 N44 1.164 . S
C2256 C549 1.065 . S
C2281 N57 1.866 . S
C2286 C633 1.684 . S
C2311 N70 1.483 . S
C2316 C726 1.364 . S
C2341 N161 1.520 . S
C2346 C642 1.392 . S
C2376 C717 1.662 . S
C2371 N174 1.838 . S
C2401 N187 1.183 . S
C2406 C558 1.096 . S
C2431 N122 1.164 . S
C2436 C801 1.065 . S
C2461 N135 1.866 . S
C2466 C885 1.684 . S
C2496 C978 1.364 . S
C2491 N148 1.483 . S
C2521 N5 1.520 . S
C2526 C894 1.392 . S
C2551 N18 1.838 . S
C2556 C969 1.662 . S
C2581 N31 1.183 . S
C2586 C810 1.096 . S
