# Generated by pormake.
# Topology ptr, (4,4)-cn, num edge types: 1
# Building blocks:
#     Node 0, Type 0, BuildingBlock: GALJAG_clean_sbu_0, # of connection points: 4
#     Node 1, Type 0, BuildingBlock: GALJAG_clean_sbu_0, # of connection points: 4
#     Node 2, Type 0, BuildingBlock: GALJAG_clean_sbu_0, # of connection points: 4
#     Node 3, Type 0, BuildingBlock: GALJAG_clean_sbu_0, # of connection points: 4
#     Node 4, Type 0, BuildingBlock: GALJAG_clean_sbu_0, # of connection points: 4
#     Node 5, Type 0, BuildingBlock: GALJAG_clean_sbu_0, # of connection points: 4
#     Node 6, Type 0, BuildingBlock: GALJAG_clean_sbu_0, # of connection points: 4
#     Node 7, Type 0, BuildingBlock: GALJAG_clean_sbu_0, # of connection points: 4
#     Node 8, Type 0, BuildingBlock: GALJAG_clean_sbu_0, # of connection points: 4
#     Node 9, Type 0, BuildingBlock: GALJAG_clean_sbu_0, # of connection points: 4
#     Node 10, Type 0, BuildingBlock: GALJAG_clean_sbu_0, # of connection points: 4
#     Node 11, Type 0, BuildingBlock: GALJAG_clean_sbu_0, # of connection points: 4
#     Node 12, Type 0, BuildingBlock: GALJAG_clean_sbu_0, # of connection points: 4
#     Node 13, Type 0, BuildingBlock: GALJAG_clean_sbu_0, # of connection points: 4
#     Node 14, Type 0, BuildingBlock: GALJAG_clean_sbu_0, # of connection points: 4
#     Node 15, Type 0, BuildingBlock: GALJAG_clean_sbu_0, # of connection points: 4
#     Node 16, Type 0, BuildingBlock: GALJAG_clean_sbu_0, # of connection points: 4
#     Node 17, Type 0, BuildingBlock: GALJAG_clean_sbu_0, # of connection points: 4
#     Node 18, Type 1, BuildingBlock: MIFKUJ_clean_linker_1, # of connection points: 4
#     Node 19, Type 1, BuildingBlock: MIFKUJ_clean_linker_1, # of connection points: 4
#     Node 20, Type 1, BuildingBlock: MIFKUJ_clean_linker_1, # of connection points: 4
#     Node 21, Type 1, BuildingBlock: MIFKUJ_clean_linker_1, # of connection points: 4
#     Node 22, Type 1, BuildingBlock: MIFKUJ_clean_linker_1, # of connection points: 4
#     Node 23, Type 1, BuildingBlock: MIFKUJ_clean_linker_1, # of connection points: 4
#     Node 24, Type 1, BuildingBlock: MIFKUJ_clean_linker_1, # of connection points: 4
#     Node 25, Type 1, BuildingBlock: MIFKUJ_clean_linker_1, # of connection points: 4
#     Node 26, Type 1, BuildingBlock: MIFKUJ_clean_linker_1, # of connection points: 4
#     Node 27, Type 1, BuildingBlock: MIFKUJ_clean_linker_1, # of connection points: 4
#     Node 28, Type 1, BuildingBlock: MIFKUJ_clean_linker_1, # of connection points: 4
#     Node 29, Type 1, BuildingBlock: MIFKUJ_clean_linker_1, # of connection points: 4
#     Node 30, Type 1, BuildingBlock: MIFKUJ_clean_linker_1, # of connection points: 4
#     Node 31, Type 1, BuildingBlock: MIFKUJ_clean_linker_1, # of connection points: 4
#     Node 32, Type 1, BuildingBlock: MIFKUJ_clean_linker_1, # of connection points: 4
#     Node 33, Type 1, BuildingBlock: MIFKUJ_clean_linker_1, # of connection points: 4
#     Node 34, Type 1, BuildingBlock: MIFKUJ_clean_linker_1, # of connection points: 4
#     Node 35, Type 1, BuildingBlock: MIFKUJ_clean_linker_1, # of connection points: 4
#     Edge 36, Type (0, 1), BuildingBlock: UVAHIK_clean_linker_0, # of connection points: 2
#     Edge 37, Type (0, 1), BuildingBlock: UVAHIK_clean_linker_0, # of connection points: 2
#     Edge 38, Type (0, 1), BuildingBlock: UVAHIK_clean_linker_0, # of connection points: 2
#     Edge 39, Type (0, 1), BuildingBlock: UVAHIK_clean_linker_0, # of connection points: 2
#     Edge 40, Type (0, 1), BuildingBlock: UVAHIK_clean_linker_0, # of connection points: 2
#     Edge 41, Type (0, 1), BuildingBlock: UVAHIK_clean_linker_0, # of connection points: 2
#     Edge 42, Type (0, 1), BuildingBlock: UVAHIK_clean_linker_0, # of connection points: 2
#     Edge 43, Type (0, 1), BuildingBlock: UVAHIK_clean_linker_0, # of connection points: 2
#     Edge 44, Type (0, 1), BuildingBlock: UVAHIK_clean_linker_0, # of connection points: 2
#     Edge 45, Type (0, 1), BuildingBlock: UVAHIK_clean_linker_0, # of connection points: 2
#     Edge 46, Type (0, 1), BuildingBlock: UVAHIK_clean_linker_0, # of connection points: 2
#     Edge 47, Type (0, 1), BuildingBlock: UVAHIK_clean_linker_0, # of connection points: 2
#     Edge 48, Type (0, 1), BuildingBlock: UVAHIK_clean_linker_0, # of connection points: 2
#     Edge 49, Type (0, 1), BuildingBlock: UVAHIK_clean_linker_0, # of connection points: 2
#     Edge 50, Type (0, 1), BuildingBlock: UVAHIK_clean_linker_0, # of connection points: 2
#     Edge 51, Type (0, 1), BuildingBlock: UVAHIK_clean_linker_0, # of connection points: 2
#     Edge 52, Type (0, 1), BuildingBlock: UVAHIK_clean_linker_0, # of connection points: 2
#     Edge 53, Type (0, 1), BuildingBlock: UVAHIK_clean_linker_0, # of connection points: 2
#     Edge 54, Type (0, 1), BuildingBlock: UVAHIK_clean_linker_0, # of connection points: 2
#     Edge 55, Type (0, 1), BuildingBlock: UVAHIK_clean_linker_0, # of connection points: 2
#     Edge 56, Type (0, 1), BuildingBlock: UVAHIK_clean_linker_0, # of connection points: 2
#     Edge 57, Type (0, 1), BuildingBlock: UVAHIK_clean_linker_0, # of connection points: 2
#     Edge 58, Type (0, 1), BuildingBlock: UVAHIK_clean_linker_0, # of connection points: 2
#     Edge 59, Type (0, 1), BuildingBlock: UVAHIK_clean_linker_0, # of connection points: 2
#     Edge 60, Type (0, 1), BuildingBlock: UVAHIK_clean_linker_0, # of connection points: 2
#     Edge 61, Type (0, 1), BuildingBlock: UVAHIK_clean_linker_0, # of connection points: 2
#     Edge 62, Type (0, 1), BuildingBlock: UVAHIK_clean_linker_0, # of connection points: 2
#     Edge 63, Type (0, 1), BuildingBlock: UVAHIK_clean_linker_0, # of connection points: 2
#     Edge 64, Type (0, 1), BuildingBlock: UVAHIK_clean_linker_0, # of connection points: 2
#     Edge 65, Type (0, 1), BuildingBlock: UVAHIK_clean_linker_0, # of connection points: 2
#     Edge 66, Type (0, 1), BuildingBlock: UVAHIK_clean_linker_0, # of connection points: 2
#     Edge 67, Type (0, 1), BuildingBlock: UVAHIK_clean_linker_0, # of connection points: 2
#     Edge 68, Type (0, 1), BuildingBlock: UVAHIK_clean_linker_0, # of connection points: 2
#     Edge 69, Type (0, 1), BuildingBlock: UVAHIK_clean_linker_0, # of connection points: 2
#     Edge 70, Type (0, 1), BuildingBlock: UVAHIK_clean_linker_0, # of connection points: 2
#     Edge 71, Type (0, 1), BuildingBlock: UVAHIK_clean_linker_0, # of connection points: 2
#     Edge 72, Type (0, 1), BuildingBlock: UVAHIK_clean_linker_0, # of connection points: 2
#     Edge 73, Type (0, 1), BuildingBlock: UVAHIK_clean_linker_0, # of connection points: 2
#     Edge 74, Type (0, 1), BuildingBlock: UVAHIK_clean_linker_0, # of connection points: 2
#     Edge 75, Type (0, 1), BuildingBlock: UVAHIK_clean_linker_0, # of connection points: 2
#     Edge 76, Type (0, 1), BuildingBlock: UVAHIK_clean_linker_0, # of connection points: 2
#     Edge 77, Type (0, 1), BuildingBlock: UVAHIK_clean_linker_0, # of connection points: 2
#     Edge 78, Type (0, 1), BuildingBlock: UVAHIK_clean_linker_0, # of connection points: 2
#     Edge 79, Type (0, 1), BuildingBlock: UVAHIK_clean_linker_0, # of connection points: 2
#     Edge 80, Type (0, 1), BuildingBlock: UVAHIK_clean_linker_0, # of connection points: 2
#     Edge 81, Type (0, 1), BuildingBlock: UVAHIK_clean_linker_0, # of connection points: 2
#     Edge 82, Type (0, 1), BuildingBlock: UVAHIK_clean_linker_0, # of connection points: 2
#     Edge 83, Type (0, 1), BuildingBlock: UVAHIK_clean_linker_0, # of connection points: 2
#     Edge 84, Type (0, 1), BuildingBlock: UVAHIK_clean_linker_0, # of connection points: 2
#     Edge 85, Type (0, 1), BuildingBlock: UVAHIK_clean_linker_0, # of connection points: 2
#     Edge 86, Type (0, 1), BuildingBlock: UVAHIK_clean_linker_0, # of connection points: 2
#     Edge 87, Type (0, 1), BuildingBlock: UVAHIK_clean_linker_0, # of connection points: 2
#     Edge 88, Type (0, 1), BuildingBlock: UVAHIK_clean_linker_0, # of connection points: 2
#     Edge 89, Type (0, 1), BuildingBlock: UVAHIK_clean_linker_0, # of connection points: 2
#     Edge 90, Type (0, 1), BuildingBlock: UVAHIK_clean_linker_0, # of connection points: 2
#     Edge 91, Type (0, 1), BuildingBlock: UVAHIK_clean_linker_0, # of connection points: 2
#     Edge 92, Type (0, 1), BuildingBlock: UVAHIK_clean_linker_0, # of connection points: 2
#     Edge 93, Type (0, 1), BuildingBlock: UVAHIK_clean_linker_0, # of connection points: 2
#     Edge 94, Type (0, 1), BuildingBlock: UVAHIK_clean_linker_0, # of connection points: 2
#     Edge 95, Type (0, 1), BuildingBlock: UVAHIK_clean_linker_0, # of connection points: 2
#     Edge 96, Type (0, 1), BuildingBlock: UVAHIK_clean_linker_0, # of connection points: 2
#     Edge 97, Type (0, 1), BuildingBlock: UVAHIK_clean_linker_0, # of connection points: 2
#     Edge 98, Type (0, 1), BuildingBlock: UVAHIK_clean_linker_0, # of connection points: 2
#     Edge 99, Type (0, 1), BuildingBlock: UVAHIK_clean_linker_0, # of connection points: 2
#     Edge 100, Type (0, 1), BuildingBlock: UVAHIK_clean_linker_0, # of connection points: 2
#     Edge 101, Type (0, 1), BuildingBlock: UVAHIK_clean_linker_0, # of connection points: 2
#     Edge 102, Type (0, 1), BuildingBlock: UVAHIK_clean_linker_0, # of connection points: 2
#     Edge 103, Type (0, 1), BuildingBlock: UVAHIK_clean_linker_0, # of connection points: 2
#     Edge 104, Type (0, 1), BuildingBlock: UVAHIK_clean_linker_0, # of connection points: 2
#     Edge 105, Type (0, 1), BuildingBlock: UVAHIK_clean_linker_0, # of connection points: 2
#     Edge 106, Type (0, 1), BuildingBlock: UVAHIK_clean_linker_0, # of connection points: 2
#     Edge 107, Type (0, 1), BuildingBlock: UVAHIK_clean_linker_0, # of connection points: 2
# Relax obj value: 0.053
# Max RMSD: 0.081
# Mean RMSD: 0.075
data_MOF--net-ptr--node1-GALJAG_clean_sbu_0--node2-MIFKUJ_clean_linker_1--edge1-UVAHIK_clean_linker_0
_symmetry_space_group_name_H-M    P1
_symmetry_Int_Tables_number       1
_symmetry_cell_setting            triclinic
loop_
_symmetry_equiv_pos_as_xyz
'x, y, z'
_cell_length_a     110.23128
_cell_length_b     110.36779
_cell_length_c     81.055386
_cell_angle_alpha  90.051585
_cell_angle_beta   89.979881
_cell_angle_gamma 120.11523
loop_
_atom_site_label
_atom_site_type_symbol
_atom_site_fract_x
_atom_site_fract_y
_atom_site_fract_z
_atom_type_partial_charge
In0 In -0.00056 0.3521 0.01162 0.0
O1 O 0.98666 0.35486 0.03198 0.0
O2 O 0.0075 0.37145 0.02768 0.0
C3 C 0.98101 0.32663 0.99946 0.0
C4 C 0.01838 0.34671 0.0257 0.0
C5 C 0.00187 0.36859 0.98583 0.0
O6 O 0.9779 0.33215 0.01117 0.0
O7 O 0.99335 0.33389 0.99411 0.0
O8 O 0.01215 0.36766 0.99115 0.0
O9 O 0.99054 0.36126 0.99352 0.0
C10 C 0.99639 0.36694 0.03602 0.0
O11 O 0.02065 0.35296 0.01201 0.0
O12 O 0.00663 0.34318 0.03207 0.0
In13 In 0.64399 0.64393 0.01138 0.0
O14 O 0.64396 0.62935 0.03146 0.0
O15 O 0.62695 0.63331 0.03063 0.0
C16 C 0.66843 0.64829 0.99829 0.0
C17 C 0.64889 0.66796 0.02587 0.0
C18 C 0.62591 0.63278 0.98572 0.0
O19 O 0.65937 0.63653 0.00397 0.0
O20 O 0.66517 0.65767 0.99937 0.0
O21 O 0.63539 0.64547 0.98612 0.0
O22 O 0.62553 0.6258 0.99818 0.0
C23 C 0.6325 0.62711 0.03771 0.0
O24 O 0.64018 0.66239 0.01423 0.0
O25 O 0.65504 0.66142 0.0301 0.0
In26 In 0.35159 0.00114 0.01148 0.0
O27 O 0.35768 0.02412 0.00823 0.0
O28 O 0.33863 0.00848 0.99746 0.0
C29 C 0.36758 0.00248 0.03731 0.0
C30 C 0.36483 0.998 0.98524 0.0
C31 C 0.32683 0.98222 0.02456 0.0
O32 O 0.36518 0.01227 0.03399 0.0
O33 O 0.36195 0.99215 0.0276 0.0
O34 O 0.33219 0.97933 0.01247 0.0
O35 O 0.33394 0.99461 0.02988 0.0
C36 C 0.34697 0.02134 -0.00021 0.0
O37 O 0.35198 0.98966 0.988 0.0
O38 O 0.37082 0.00771 0.99566 0.0
In39 In 0.99836 0.64731 0.01051 0.0
O40 O 0.01097 0.64545 0.98911 0.0
O41 O 0.98976 0.62936 0.99218 0.0
C42 C 0.01747 0.67155 0.02467 0.0
C43 C 0.9792 0.65367 0.99927 0.0
C44 C 0.99574 0.62971 0.03508 0.0
O45 O 0.02002 0.66705 0.01153 0.0
O46 O 0.00531 0.66392 0.03043 0.0
O47 O 0.98622 0.63251 0.03175 0.0
O48 O 0.00644 0.6357 0.02597 0.0
C49 C 0.00094 0.63395 0.984 0.0
O50 O 0.97609 0.64366 0.0091 0.0
O51 O 0.99197 0.66051 0.99524 0.0
In52 In 0.35274 0.35269 0.01225 0.0
O53 O 0.35294 0.36518 0.98955 0.0
O54 O 0.37157 0.36496 0.99555 0.0
C55 C 0.32813 0.34757 0.02518 0.0
C56 C 0.34766 0.32802 0.99948 0.0
C57 C 0.36932 0.36594 0.0384 0.0
O58 O 0.3349 0.35735 0.01499 0.0
O59 O 0.33377 0.34041 0.02879 0.0
O60 O 0.36582 0.3535 0.03466 0.0
O61 O 0.36444 0.37156 0.02903 0.0
C62 C 0.36555 0.36924 0.98594 0.0
O63 O 0.3584 0.33564 0.00805 0.0
O64 O 0.33949 0.33277 0.99749 0.0
In65 In 0.6464 0.00056 0.01299 0.0
O66 O 0.64452 0.01408 0.03317 0.0
O67 O 0.62751 0.99336 0.02981 0.0
C68 C 0.6714 0.01865 0.99945 0.0
C69 C 0.6522 0.98189 0.02703 0.0
C70 C 0.62954 0.99717 0.98717 0.0
O71 O 0.66622 0.0221 0.0112 0.0
O72 O 0.66408 0.0061 0.99479 0.0
O73 O 0.63024 0.98706 0.99343 0.0
O74 O 0.63719 0.00884 0.99405 0.0
C75 C 0.63249 0.00467 0.03778 0.0
O76 O 0.6445 0.97898 0.01442 0.0
O77 O 0.657 0.99419 0.0324 0.0
In78 In 0.66628 0.68737 0.34487 0.0
O79 O 0.65401 0.68669 0.36789 0.0
O80 O 0.66816 0.70664 0.35767 0.0
C81 C 0.64824 0.66179 0.33239 0.0
C82 C 0.68688 0.68475 0.35954 0.0
C83 C 0.67044 0.70418 0.3188 0.0
O84 O 0.64435 0.66818 0.34198 0.0
O85 O 0.66119 0.66818 0.32933 0.0
O86 O 0.68049 0.70452 0.3267 0.0
O87 O 0.6584 0.69546 0.32414 0.0
C88 C 0.6594 0.69981 0.36884 0.0
O89 O 0.68778 0.68875 0.34479 0.0
O90 O 0.67572 0.68217 0.36676 0.0
In91 In 0.30961 0.97713 0.34509 0.0
O92 O 0.3088 0.96129 0.36396 0.0
O93 O 0.29303 0.96696 0.36506 0.0
C94 C 0.33263 0.97745 0.3331 0.0
C95 C 0.31631 0.00237 0.35787 0.0
C96 C 0.29169 0.96848 0.31915 0.0
O97 O 0.32093 0.96631 0.33434 0.0
O98 O 0.33271 0.98831 0.3381 0.0
O99 O 0.3042 0.97837 0.31805 0.0
O100 O 0.28819 0.96318 0.33332 0.0
C101 C 0.29796 0.95981 0.3711 0.0
O102 O 0.30862 0.99741 0.34528 0.0
O103 O 0.32063 0.99468 0.36382 0.0
In104 In 0.01895 0.33315 0.34512 0.0
O105 O 0.02335 0.35569 0.3433 0.0
O106 O 0.00825 0.34048 0.32707 0.0
C107 C 0.03527 0.3356 0.37111 0.0
C108 C 0.03271 0.3297 0.31973 0.0
C109 C 0.99386 0.31431 0.35786 0.0
O110 O 0.03186 0.3447 0.36786 0.0
O111 O 0.03049 0.32539 0.36124 0.0
O112 O -0.00023 0.31113 0.3467 0.0
O113 O 0.00057 0.32692 0.36243 0.0
C114 C 0.01472 0.35307 0.33171 0.0
O115 O 0.01994 0.32112 0.32265 0.0
O116 O 0.03846 0.33988 0.32963 0.0
In117 In 0.66611 0.97857 0.34432 0.0
O118 O 0.67848 0.97708 0.32251 0.0
O119 O 0.65876 0.95926 0.32823 0.0
C120 C 0.68573 0.0036 0.35654 0.0
C121 C 0.64691 0.98348 0.33017 0.0
C122 C 0.66165 0.96198 0.37078 0.0
O123 O 0.68886 0.99556 0.34899 0.0
O124 O 0.67276 -0.0009 0.35777 0.0
O125 O 0.65293 0.96556 0.36631 0.0
O126 O 0.6725 0.96678 0.36196 0.0
C127 C 0.66939 0.96461 0.31898 0.0
O128 O 0.64418 0.97572 0.34269 0.0
O129 O 0.65933 0.98882 0.32492 0.0
In130 In 0.0182 0.68711 0.34587 0.0
O131 O 0.02025 0.70168 0.32466 0.0
O132 O 0.03779 0.69932 0.33026 0.0
C133 C 0.99277 0.68069 0.35768 0.0
C134 C 0.01329 0.6631 0.33136 0.0
C135 C 0.03454 0.69993 0.37236 0.0
O136 O -0.00015 0.69108 0.34841 0.0
O137 O 0.99847 0.67351 0.36088 0.0
O138 O 0.03264 0.68837 0.36696 0.0
O139 O 0.02818 0.70489 0.36446 0.0
C140 C 0.0327 0.70496 0.32122 0.0
O141 O 0.02045 0.66767 0.3444 0.0
O142 O 0.00851 0.67056 0.32583 0.0
In143 In 0.31192 0.33328 0.34587 0.0
O144 O 0.31033 0.31185 0.3472 0.0
O145 O 0.32333 0.32733 0.36468 0.0
C146 C 0.29429 0.32892 0.32053 0.0
C147 C 0.29859 0.33754 0.37124 0.0
C148 C 0.33675 0.3516 0.33209 0.0
O149 O 0.29546 0.31914 0.32693 0.0
O150 O 0.30182 0.34077 0.32707 0.0
O151 O 0.33183 0.35476 0.34438 0.0
O152 O 0.32923 0.33921 0.32697 0.0
C153 C 0.31844 0.31497 0.35945 0.0
O154 O 0.3096 0.34736 0.36488 0.0
O155 O 0.29427 0.32572 0.36466 0.0
In156 In 0.33348 0.0208 0.677 0.0
O157 O 0.35447 0.02127 0.67824 0.0
O158 O 0.34006 0.01168 0.69796 0.0
C159 C 0.33815 0.03835 0.65152 0.0
C160 C 0.3287 0.03456 0.70133 0.0
C161 C 0.31506 0.99569 0.66383 0.0
O162 O 0.34779 0.0369 0.65788 0.0
O163 O 0.32625 0.03104 0.65806 0.0
O164 O 0.3118 0.00114 0.67544 0.0
O165 O 0.32758 0.00285 0.659 0.0
C166 C 0.35189 0.01504 0.69195 0.0
O167 O 0.31941 0.02262 0.69633 0.0
O168 O 0.34032 0.03958 0.69394 0.0
In169 In 0.97771 0.31136 0.67861 0.0
O170 O 0.9709 0.32748 0.68329 0.0
O171 O 0.99193 0.3334 0.68885 0.0
C172 C 0.95867 0.29871 0.65434 0.0
C173 C 0.96731 0.29458 0.70535 0.0
C174 C 0.00155 0.31467 0.66492 0.0
O175 O 0.96727 0.31171 0.65446 0.0
O176 O 0.9596 0.29209 0.66651 0.0
O177 O -0.00027 0.31404 0.68035 0.0
O178 O 0.99139 0.31354 0.65658 0.0
C179 C 0.98259 0.33678 0.6888 0.0
O180 O 0.97633 0.29428 0.69601 0.0
O181 O 0.96366 0.30328 0.70118 0.0
In182 In 0.68443 0.66638 0.67747 0.0
O183 O 0.6875 0.68839 0.67543 0.0
O184 O 0.67184 0.67227 0.6605 0.0
C185 C 0.70245 0.67011 0.7021 0.0
C186 C 0.69755 0.66319 0.65122 0.0
C187 C 0.65992 0.64726 0.69119 0.0
O188 O 0.69799 0.6785 0.69966 0.0
O189 O 0.69794 0.66003 0.69207 0.0
O190 O 0.66475 0.64465 0.6784 0.0
O191 O 0.66742 0.65943 0.69692 0.0
C192 C 0.67807 0.68501 0.66463 0.0
O193 O 0.68683 0.65301 0.65762 0.0
O194 O 0.70162 0.67486 0.65811 0.0
In195 In 0.33287 0.31261 0.67547 0.0
O196 O 0.34534 0.31242 0.65293 0.0
O197 O 0.3258 0.29418 0.65794 0.0
C198 C 0.35225 0.33704 0.68908 0.0
C199 C 0.3135 0.31812 0.66308 0.0
C200 C 0.329 0.2955 0.70121 0.0
O201 O 0.35554 0.32967 0.68031 0.0
O202 O 0.33924 0.33215 0.69084 0.0
O203 O 0.32002 0.29888 0.69722 0.0
O204 O 0.33977 0.30068 0.69222 0.0
C205 C 0.3364 0.3001 0.64869 0.0
O206 O 0.31042 0.30825 0.67313 0.0
O207 O 0.32633 0.32518 0.65933 0.0
In208 In 0.68547 0.01954 0.67756 0.0
O209 O 0.68658 0.03326 0.6559 0.0
O210 O 0.70436 0.03108 0.66061 0.0
C211 C 0.66086 0.01436 0.69077 0.0
C212 C 0.67935 0.99487 0.66382 0.0
C213 C 0.70292 0.0329 0.70305 0.0
O214 O 0.66779 0.02437 0.68095 0.0
O215 O 0.66628 0.00691 0.69383 0.0
O216 O 0.70033 0.02095 0.69824 0.0
O217 O 0.69674 0.03799 0.69502 0.0
C218 C 0.69884 0.03638 0.65171 0.0
O219 O 0.68748 -7e-05 0.67606 0.0
O220 O 0.67426 0.00218 0.65873 0.0
In221 In 0.97779 0.66585 0.67803 0.0
O222 O 0.9762 0.64444 0.67969 0.0
O223 O 0.98908 0.66003 0.69713 0.0
C224 C 0.96006 0.66118 0.65269 0.0
C225 C 0.96454 0.67046 0.70319 0.0
C226 C 0.0027 0.68396 0.66427 0.0
O227 O 0.96126 0.65148 0.6593 0.0
O228 O 0.96763 0.67311 0.65901 0.0
O229 O 0.99784 0.6872 0.67654 0.0
O230 O 0.99507 0.6716 0.65912 0.0
C231 C 0.98422 0.64764 0.69204 0.0
O232 O 0.97542 0.68022 0.69655 0.0
O233 O 0.9603 0.65852 0.69698 0.0
H234 H 0.15202 0.33989 0.17995 0.0
H235 H 0.13498 0.34104 0.198 0.0
H236 H 0.10346 0.2995 0.18223 0.0
H237 H 0.12055 0.29883 0.16345 0.0
H238 H 0.15998 0.31913 0.18169 0.0
H239 H 0.13993 0.33787 0.14575 0.0
H240 H 0.12207 0.33979 0.1301 0.0
H241 H 0.11341 0.30309 0.10194 0.0
H242 H 0.13094 0.3008 0.11816 0.0
H243 H 0.17004 0.30009 0.11941 0.0
H244 H 0.18976 0.30325 0.1022 0.0
H245 H 0.21625 0.34357 0.12488 0.0
H246 H 0.19656 0.34037 0.14197 0.0
H247 H 0.15817 0.31759 0.12056 0.0
H248 H 0.18104 0.30099 0.15756 0.0
H249 H 0.19973 0.30143 0.17432 0.0
H250 H 0.2047 0.338 0.2 0.0
H251 H 0.18648 0.33782 0.18283 0.0
C252 C 0.13753 0.31926 0.17045 0.0
C253 C 0.1414 0.33108 0.18032 0.0
C254 C 0.13165 0.33165 0.19073 0.0
C255 C 0.11785 0.32026 0.19183 0.0
C256 C 0.11393 0.30851 0.18163 0.0
C257 C 0.12369 0.30806 0.17096 0.0
C258 C 0.14828 0.31857 0.16021 0.0
C259 C 0.15963 0.31884 0.16831 0.0
C260 C 0.14761 0.31798 0.14278 0.0
C261 C 0.13653 0.31896 0.13347 0.0
C262 C 0.13394 0.32998 0.13655 0.0
C263 C 0.12381 0.33115 0.12751 0.0
C264 C 0.11632 0.32154 0.11491 0.0
C265 C 0.11906 0.31064 0.11159 0.0
C266 C 0.12905 0.30933 0.12086 0.0
C267 C 0.18191 0.31994 0.13203 0.0
C268 C 0.18012 0.30957 0.12068 0.0
C269 C 0.19138 0.31136 0.11094 0.0
C270 C 0.2045 0.32367 0.11221 0.0
C271 C 0.20622 0.33404 0.12356 0.0
C272 C 0.19502 0.33218 0.1334 0.0
C273 C 0.16996 0.3183 0.14206 0.0
C274 C 0.15837 0.31758 0.13394 0.0
C275 C 0.17055 0.31881 0.15948 0.0
C276 C 0.18239 0.31941 0.16889 0.0
C277 C 0.18634 0.30925 0.16659 0.0
C278 C 0.19693 0.30942 0.1763 0.0
C279 C 0.20371 0.31974 0.18852 0.0
C280 C 0.19986 0.33003 0.19056 0.0
C281 C 0.18934 0.32986 0.18085 0.0
H282 H 0.7035 0.87025 0.17803 0.0
H283 H 0.70249 0.88719 0.19665 0.0
H284 H 0.66108 0.87505 0.17843 0.0
H285 H 0.66199 0.85787 0.16022 0.0
H286 H 0.68637 0.84223 0.179 0.0
H287 H 0.69865 0.87837 0.13822 0.0
H288 H 0.69593 0.89583 0.12265 0.0
H289 H 0.65501 0.86348 0.10625 0.0
H290 H 0.65793 0.84608 0.12159 0.0
H291 H 0.65763 0.81022 0.122 0.0
H292 H 0.65443 0.79001 0.10618 0.0
H293 H 0.69587 0.79891 0.12065 0.0
H294 H 0.69883 0.81895 0.13681 0.0
H295 H 0.67669 0.83765 0.1189 0.0
H296 H 0.66311 0.80182 0.159 0.0
H297 H 0.66303 0.78381 0.17645 0.0
H298 H 0.70321 0.81448 0.19661 0.0
H299 H 0.70358 0.83226 0.17839 0.0
C300 C 0.68287 0.86287 0.16766 0.0
C301 C 0.69427 0.87135 0.17795 0.0
C302 C 0.69371 0.88109 0.18849 0.0
C303 C 0.68169 0.88243 0.18903 0.0
C304 C 0.67043 0.87416 0.17841 0.0
C305 C 0.671 0.86444 0.16787 0.0
C306 C 0.68291 0.85165 0.15763 0.0
C307 C 0.68461 0.84139 0.16577 0.0
C308 C 0.68007 0.85031 0.14051 0.0
C309 C 0.67846 0.86095 0.13112 0.0
C310 C 0.68908 0.87507 0.13131 0.0
C311 C 0.68748 0.88504 0.12244 0.0
C312 C 0.67524 0.88106 0.1132 0.0
C313 C 0.66466 0.86688 0.11301 0.0
C314 C 0.66628 0.85692 0.12183 0.0
C315 C 0.67843 0.81604 0.13062 0.0
C316 C 0.66603 0.80783 0.12171 0.0
C317 C 0.66425 0.79631 0.11261 0.0
C318 C 0.67491 0.79285 0.11208 0.0
C319 C 0.68737 0.80116 0.12097 0.0
C320 C 0.68911 0.81265 0.13016 0.0
C321 C 0.68015 0.8282 0.14028 0.0
C322 C 0.67874 0.83861 0.13206 0.0
C323 C 0.68308 0.82956 0.1574 0.0
C324 C 0.68344 0.81838 0.16719 0.0
C325 C 0.67208 0.8046 0.16685 0.0
C326 C 0.67195 0.79434 0.17704 0.0
C327 C 0.68308 0.79769 0.18804 0.0
C328 C 0.69456 0.81145 0.18816 0.0
C329 C 0.69473 0.82168 0.17784 0.0
H330 H 0.12739 0.83236 0.17918 0.0
H331 H 0.1104 0.81445 0.19781 0.0
H332 H 0.12378 0.78573 0.18136 0.0
H333 H 0.14103 0.80381 0.16318 0.0
H334 H 0.15519 0.8443 0.18078 0.0
H335 H 0.1203 0.81873 0.1397 0.0
H336 H 0.10342 0.79838 0.1238 0.0
H337 H 0.13664 0.79075 0.10878 0.0
H338 H 0.15349 0.81123 0.12454 0.0
H339 H 0.18905 0.84808 0.12532 0.0
H340 H 0.20863 0.86529 0.10876 0.0
H341 H 0.19728 0.89647 0.12091 0.0
H342 H 0.17781 0.8792 0.13771 0.0
H343 H 0.16142 0.83816 0.12136 0.0
H344 H 0.19625 0.86339 0.1626 0.0
H345 H 0.21293 0.88245 0.18029 0.0
H346 H 0.17997 0.89019 0.19603 0.0
H347 H 0.16336 0.87121 0.17818 0.0
C348 C 0.13543 0.81941 0.16973 0.0
C349 C 0.12657 0.82216 0.1795 0.0
C350 C 0.11679 0.81188 0.19004 0.0
C351 C 0.11577 0.79868 0.19108 0.0
C352 C 0.12441 0.79584 0.18096 0.0
C353 C 0.13418 0.80612 0.17043 0.0
C354 C 0.14665 0.8307 0.1597 0.0
C355 C 0.1564 0.8431 0.16769 0.0
C356 C 0.14844 0.82894 0.14277 0.0
C357 C 0.13813 0.81644 0.13339 0.0
C358 C 0.12392 0.8126 0.13308 0.0
C359 C 0.11428 0.80095 0.124 0.0
C360 C 0.11868 0.79292 0.11502 0.0
C361 C 0.13294 0.79681 0.11536 0.0
C362 C 0.14257 0.80848 0.12441 0.0
C363 C 0.18204 0.86238 0.1328 0.0
C364 C 0.1908 0.85863 0.12441 0.0
C365 C 0.20194 0.86846 0.11489 0.0
C366 C 0.20448 0.88224 0.11344 0.0
C367 C 0.19571 0.88599 0.12193 0.0
C368 C 0.18457 0.87614 0.13151 0.0
C369 C 0.17001 0.85173 0.14246 0.0
C370 C 0.16012 0.83944 0.1344 0.0
C371 C 0.16812 0.85362 0.15934 0.0
C372 C 0.17856 0.86593 0.16894 0.0
C373 C 0.19268 0.86939 0.16955 0.0
C374 C 0.2022 0.88028 0.17969 0.0
C375 C 0.19774 0.88779 0.18958 0.0
C376 C 0.18368 0.88449 0.18869 0.0
C377 C 0.17419 0.87368 0.17847 0.0
H378 H 0.29288 0.16724 0.84264 0.0
H379 H 0.29419 0.18547 0.82434 0.0
H380 H 0.33591 0.21409 0.84236 0.0
H381 H 0.33469 0.19569 0.86024 0.0
H382 H 0.30959 0.15594 0.84103 0.0
H383 H 0.2997 0.18199 0.88098 0.0
H384 H 0.30393 0.20268 0.89653 0.0
H385 H 0.34136 0.20548 0.91745 0.0
H386 H 0.33766 0.18554 0.90089 0.0
H387 H 0.33802 0.15329 0.89934 0.0
H388 H 0.3419 0.13699 0.91545 0.0
H389 H 0.3038 0.10242 0.89551 0.0
H390 H 0.29944 0.11898 0.88037 0.0
H391 H 0.3193 0.1601 0.90107 0.0
H392 H 0.3336 0.13967 0.85822 0.0
H393 H 0.3335 0.12221 0.83955 0.0
H394 H 0.29139 0.11024 0.82422 0.0
H395 H 0.29162 0.12781 0.84284 0.0
C396 C 0.31364 0.18013 0.85287 0.0
C397 C 0.30225 0.17749 0.84274 0.0
C398 C 0.30297 0.18795 0.83239 0.0
C399 C 0.31516 0.20122 0.83188 0.0
C400 C 0.32643 0.20393 0.84235 0.0
C401 C 0.32569 0.19347 0.85269 0.0
C402 C 0.31337 0.16866 0.86268 0.0
C403 C 0.31146 0.15672 0.85424 0.0
C404 C 0.31623 0.16991 0.87981 0.0
C405 C 0.31845 0.18228 0.88955 0.0
C406 C 0.30894 0.18721 0.88869 0.0
C407 C 0.31128 0.19894 0.89781 0.0
C408 C 0.32302 0.20583 0.90826 0.0
C409 C 0.33237 0.20068 0.9093 0.0
C410 C 0.33016 0.18912 0.89998 0.0
C411 C 0.31848 0.13739 0.88853 0.0
C412 C 0.33043 0.14221 0.89852 0.0
C413 C 0.33274 0.13282 0.90758 0.0
C414 C 0.32324 0.11833 0.90672 0.0
C415 C 0.31128 0.11351 0.89664 0.0
C416 C 0.30886 0.12295 0.88776 0.0
C417 C 0.3161 0.14764 0.87931 0.0
C418 C 0.31733 0.15927 0.88789 0.0
C419 C 0.31305 0.14633 0.86223 0.0
C420 C 0.31258 0.13496 0.85201 0.0
C421 C 0.32426 0.13311 0.85105 0.0
C422 C 0.32418 0.12312 0.84038 0.0
C423 C 0.31244 0.11486 0.83037 0.0
C424 C 0.30066 0.11656 0.83161 0.0
C425 C 0.30075 0.12654 0.84228 0.0
H426 H 0.83283 0.12725 0.84343 0.0
H427 H 0.81488 0.11025 0.82483 0.0
H428 H 0.78565 0.12257 0.84254 0.0
H429 H 0.80377 0.13989 0.8606 0.0
H430 H 0.84439 0.15486 0.84239 0.0
H431 H 0.81957 0.11975 0.88379 0.0
H432 H 0.79944 0.10272 0.89987 0.0
H433 H 0.7908 0.13538 0.9143 0.0
H434 H 0.81113 0.15237 0.89851 0.0
H435 H 0.84792 0.18819 0.89824 0.0
H436 H 0.86498 0.20776 0.91493 0.0
H437 H 0.89664 0.19711 0.9024 0.0
H438 H 0.87951 0.17767 0.88544 0.0
H439 H 0.83841 0.16063 0.90198 0.0
H440 H 0.86325 0.19581 0.86127 0.0
H441 H 0.88217 0.21282 0.8437 0.0
H442 H 0.89002 0.18034 0.82647 0.0
H443 H 0.87126 0.16339 0.8443 0.0
C444 C 0.81963 0.13479 0.85349 0.0
C445 C 0.82251 0.1262 0.84339 0.0
C446 C 0.81221 0.11641 0.83286 0.0
C447 C 0.79884 0.11507 0.83217 0.0
C448 C 0.79588 0.12344 0.84264 0.0
C449 C 0.80619 0.13324 0.85312 0.0
C450 C 0.83093 0.14605 0.86353 0.0
C451 C 0.84324 0.15596 0.85552 0.0
C452 C 0.82922 0.14773 0.88051 0.0
C453 C 0.8168 0.13731 0.8899 0.0
C454 C 0.81328 0.1232 0.89035 0.0
C455 C 0.80174 0.11348 0.89952 0.0
C456 C 0.79349 0.11767 0.9084 0.0
C457 C 0.79704 0.13182 0.90785 0.0
C458 C 0.80863 0.14154 0.89876 0.0
C459 C 0.86246 0.18152 0.89056 0.0
C460 C 0.85854 0.19009 0.89909 0.0
C461 C 0.8683 0.20123 0.90869 0.0
C462 C 0.88217 0.20397 0.91009 0.0
C463 C 0.88609 0.1954 0.90144 0.0
C464 C 0.87632 0.18427 0.89177 0.0
C465 C 0.85187 0.16947 0.88083 0.0
C466 C 0.83968 0.15943 0.88891 0.0
C467 C 0.85372 0.16772 0.86389 0.0
C468 C 0.86591 0.17833 0.85427 0.0
C469 C 0.86926 0.1924 0.85404 0.0
C470 C 0.88006 0.20212 0.84396 0.0
C471 C 0.88756 0.1979 0.83371 0.0
C472 C 0.88434 0.18386 0.83414 0.0
C473 C 0.87364 0.17419 0.84434 0.0
H474 H 0.80955 0.65743 0.84372 0.0
H475 H 0.79117 0.65591 0.82565 0.0
H476 H 0.80107 0.69748 0.84086 0.0
H477 H 0.81897 0.69852 0.85963 0.0
H478 H 0.83846 0.67887 0.84131 0.0
H479 H 0.80072 0.65811 0.87901 0.0
H480 H 0.78056 0.65466 0.89519 0.0
H481 H 0.80661 0.69417 0.91987 0.0
H482 H 0.82671 0.69775 0.90321 0.0
H483 H 0.86834 0.69968 0.90298 0.0
H484 H 0.88522 0.69725 0.92041 0.0
H485 H 0.87205 0.65679 0.89862 0.0
H486 H 0.85525 0.65926 0.88128 0.0
H487 H 0.83887 0.68125 0.90243 0.0
H488 H 0.87812 0.69856 0.86478 0.0
H489 H 0.89655 0.69851 0.84795 0.0
H490 H 0.86529 0.66109 0.82313 0.0
H491 H 0.84709 0.6609 0.84036 0.0
C492 C 0.8156 0.67809 0.85292 0.0
C493 C 0.80763 0.66614 0.84326 0.0
C494 C 0.7972 0.66536 0.83283 0.0
C495 C 0.79475 0.67667 0.83154 0.0
C496 C 0.80255 0.68852 0.84161 0.0
C497 C 0.81284 0.68918 0.85229 0.0
C498 C 0.82733 0.6792 0.86293 0.0
C499 C 0.83856 0.67933 0.85469 0.0
C500 C 0.82745 0.68001 0.88032 0.0
C501 C 0.81516 0.6783 0.88971 0.0
C502 C 0.80204 0.66615 0.88769 0.0
C503 C 0.79057 0.6641 0.89711 0.0
C504 C 0.792 0.67412 0.90885 0.0
C505 C 0.80514 0.68633 0.9108 0.0
C506 C 0.81664 0.68836 0.90136 0.0
C507 C 0.86066 0.6797 0.89078 0.0
C508 C 0.86918 0.69034 0.90192 0.0
C509 C 0.87882 0.68897 0.9118 0.0
C510 C 0.87988 0.67681 0.91087 0.0
C511 C 0.87135 0.6662 0.89967 0.0
C512 C 0.86185 0.66765 0.88968 0.0
C513 C 0.85001 0.68078 0.88081 0.0
C514 C 0.83895 0.68109 0.88905 0.0
C515 C 0.84986 0.67998 0.8634 0.0
C516 C 0.86123 0.67969 0.85389 0.0
C517 C 0.87529 0.69021 0.85591 0.0
C518 C 0.8858 0.69026 0.84616 0.0
C519 C 0.88241 0.67979 0.83418 0.0
C520 C 0.86832 0.66918 0.83239 0.0
C521 C 0.85787 0.66913 0.84214 0.0
H522 H 0.81662 0.66828 0.51753 0.0
H523 H 0.79912 0.66944 0.53475 0.0
H524 H 0.76619 0.63388 0.50885 0.0
H525 H 0.7839 0.63252 0.49187 0.0
H526 H 0.82326 0.64871 0.51504 0.0
H527 H 0.80654 0.671 0.47984 0.0
H528 H 0.7901 0.67508 0.464 0.0
H529 H 0.77977 0.63883 0.43395 0.0
H530 H 0.79602 0.63453 0.45015 0.0
H531 H 0.83451 0.63146 0.45257 0.0
H532 H 0.85435 0.63472 0.43554 0.0
H533 H 0.88098 0.67436 0.45959 0.0
H534 H 0.86115 0.67107 0.4765 0.0
H535 H 0.82354 0.6501 0.45389 0.0
H536 H 0.84495 0.63136 0.491 0.0
H537 H 0.86367 0.6318 0.50776 0.0
H538 H 0.86812 0.66791 0.53405 0.0
H539 H 0.84986 0.66771 0.51695 0.0
C540 C 0.80157 0.65033 0.5034 0.0
C541 C 0.80563 0.6607 0.51556 0.0
C542 C 0.7956 0.66145 0.52528 0.0
C543 C 0.78125 0.65181 0.52309 0.0
C544 C 0.77717 0.64141 0.51088 0.0
C545 C 0.78726 0.64067 0.50111 0.0
C546 C 0.81247 0.64963 0.49337 0.0
C547 C 0.82334 0.64906 0.50166 0.0
C548 C 0.81249 0.64998 0.47591 0.0
C549 C 0.80229 0.65226 0.46644 0.0
C550 C 0.80054 0.66374 0.47007 0.0
C551 C 0.79118 0.6661 0.46097 0.0
C552 C 0.78361 0.65722 0.44782 0.0
C553 C 0.78552 0.64587 0.44399 0.0
C554 C 0.79477 0.64339 0.45325 0.0
C555 C 0.84643 0.65097 0.46586 0.0
C556 C 0.84465 0.6408 0.4542 0.0
C557 C 0.85598 0.64265 0.44456 0.0
C558 C 0.86917 0.65481 0.44625 0.0
C559 C 0.87089 0.66495 0.45795 0.0
C560 C 0.85962 0.66304 0.46769 0.0
C561 C 0.83437 0.64935 0.47561 0.0
C562 C 0.82327 0.64945 0.46726 0.0
C563 C 0.83442 0.64917 0.49304 0.0
C564 C 0.84605 0.64954 0.50267 0.0
C565 C 0.85012 0.63949 0.50022 0.0
C566 C 0.86073 0.63968 0.5099 0.0
C567 C 0.86742 0.64991 0.52223 0.0
C568 C 0.86337 0.66002 0.52451 0.0
C569 C 0.85282 0.65983 0.51484 0.0
H570 H 0.37006 0.20434 0.51037 0.0
H571 H 0.36935 0.22195 0.52808 0.0
H572 H 0.32771 0.20924 0.51021 0.0
H573 H 0.3283 0.19138 0.493 0.0
H574 H 0.35362 0.1765 0.51186 0.0
H575 H 0.36481 0.21144 0.4703 0.0
H576 H 0.36198 0.22876 0.45461 0.0
H577 H 0.32062 0.19644 0.43946 0.0
H578 H 0.32365 0.17915 0.45493 0.0
H579 H 0.32377 0.1431 0.45588 0.0
H580 H 0.32084 0.12312 0.43976 0.0
H581 H 0.36264 0.13273 0.45353 0.0
H582 H 0.3654 0.15262 0.46986 0.0
H583 H 0.34228 0.17043 0.45214 0.0
H584 H 0.33052 0.13571 0.49414 0.0
H585 H 0.33173 0.11874 0.51238 0.0
H586 H 0.37321 0.15041 0.52793 0.0
H587 H 0.37194 0.16735 0.50964 0.0
C588 C 0.34929 0.19662 0.50026 0.0
C589 C 0.36082 0.20542 0.51022 0.0
C590 C 0.36044 0.21554 0.52023 0.0
C591 C 0.34846 0.21698 0.52056 0.0
C592 C 0.33703 0.2083 0.51036 0.0
C593 C 0.33741 0.19819 0.50038 0.0
C594 C 0.34929 0.18526 0.49046 0.0
C595 C 0.35145 0.17533 0.49871 0.0
C596 C 0.34608 0.18353 0.47344 0.0
C597 C 0.3444 0.19403 0.46386 0.0
C598 C 0.35512 0.20811 0.46363 0.0
C599 C 0.35346 0.218 0.4547 0.0
C600 C 0.34106 0.214 0.4458 0.0
C601 C 0.33039 0.19985 0.44597 0.0
C602 C 0.33207 0.18996 0.45486 0.0
C603 C 0.34477 0.1493 0.46413 0.0
C604 C 0.3323 0.1409 0.45542 0.0
C605 C 0.33067 0.12952 0.44614 0.0
C606 C 0.34153 0.12635 0.44529 0.0
C607 C 0.354 0.13477 0.45409 0.0
C608 C 0.35561 0.14615 0.46341 0.0
C609 C 0.34648 0.16157 0.47357 0.0
C610 C 0.34465 0.17169 0.46524 0.0
C611 C 0.34998 0.16344 0.49054 0.0
C612 C 0.35119 0.15278 0.50042 0.0
C613 C 0.34 0.13893 0.5012 0.0
C614 C 0.3407 0.12923 0.51165 0.0
C615 C 0.35256 0.13324 0.52164 0.0
C616 C 0.36387 0.14704 0.52054 0.0
C617 C 0.36318 0.15672 0.51006 0.0
H618 H 0.79334 0.16547 0.5105 0.0
H619 H 0.77544 0.14771 0.52845 0.0
H620 H 0.78884 0.1185 0.51413 0.0
H621 H 0.80657 0.13626 0.49602 0.0
H622 H 0.82136 0.17648 0.51338 0.0
H623 H 0.78599 0.15026 0.4734 0.0
H624 H 0.76927 0.12977 0.45776 0.0
H625 H 0.80347 0.12563 0.43796 0.0
H626 H 0.81999 0.14546 0.45462 0.0
H627 H 0.85519 0.18075 0.45787 0.0
H628 H 0.87484 0.19796 0.44144 0.0
H629 H 0.8638 0.2293 0.45399 0.0
H630 H 0.8443 0.21203 0.47077 0.0
H631 H 0.82756 0.17129 0.45373 0.0
H632 H 0.86271 0.19615 0.49444 0.0
H633 H 0.87936 0.21435 0.51311 0.0
H634 H 0.84618 0.22049 0.53184 0.0
H635 H 0.82964 0.20272 0.5127 0.0
C636 C 0.80124 0.15216 0.50189 0.0
C637 C 0.79233 0.15519 0.51114 0.0
C638 C 0.78215 0.14506 0.52144 0.0
C639 C 0.78076 0.13171 0.52279 0.0
C640 C 0.7895 0.12861 0.51321 0.0
C641 C 0.79967 0.13875 0.50288 0.0
C642 C 0.81273 0.16331 0.49203 0.0
C643 C 0.82259 0.1755 0.50024 0.0
C644 C 0.81451 0.16173 0.47503 0.0
C645 C 0.80426 0.1493 0.46543 0.0
C646 C 0.78987 0.14477 0.46596 0.0
C647 C 0.78032 0.13315 0.45676 0.0
C648 C 0.78498 0.12599 0.44654 0.0
C649 C 0.79943 0.13068 0.4459 0.0
C650 C 0.80894 0.14215 0.45529 0.0
C651 C 0.84834 0.19514 0.46557 0.0
C652 C 0.85703 0.19134 0.45709 0.0
C653 C 0.8682 0.20118 0.44762 0.0
C654 C 0.87085 0.215 0.44629 0.0
C655 C 0.86216 0.2188 0.4549 0.0
C656 C 0.851 0.20894 0.46446 0.0
C657 C 0.83624 0.18444 0.47511 0.0
C658 C 0.82626 0.17234 0.46683 0.0
C659 C 0.8344 0.18608 0.49208 0.0
C660 C 0.84491 0.19813 0.502 0.0
C661 C 0.85908 0.20172 0.50214 0.0
C662 C 0.86859 0.21206 0.51287 0.0
C663 C 0.864 0.21874 0.5239 0.0
C664 C 0.84993 0.21541 0.5235 0.0
C665 C 0.8405 0.20526 0.51258 0.0
H666 H 0.96893 0.50392 0.17656 0.0
H667 H 0.96891 0.52136 0.15798 0.0
H668 H 0.01046 0.55179 0.1748 0.0
H669 H 0.01057 0.53419 0.19297 0.0
H670 H 0.98636 0.49362 0.17496 0.0
H671 H 0.97441 0.51729 0.216 0.0
H672 H 0.97667 0.53718 0.23182 0.0
H673 H 0.01816 0.54706 0.2474 0.0
H674 H 0.01571 0.52702 0.23174 0.0
H675 H 0.01613 0.49056 0.23136 0.0
H676 H 0.01871 0.47338 0.24764 0.0
H677 H 0.9766 0.44159 0.23413 0.0
H678 H 0.97428 0.45879 0.21753 0.0
H679 H 0.99743 0.49962 0.23474 0.0
H680 H 0.01035 0.47727 0.19376 0.0
H681 H 0.01014 0.45933 0.17588 0.0
H682 H 0.96877 0.44837 0.15863 0.0
H683 H 0.96886 0.46601 0.17696 0.0
C684 C 0.98971 0.51777 0.18621 0.0
C685 C 0.97797 0.51439 0.17634 0.0
C686 C 0.97794 0.52439 0.16582 0.0
C687 C 0.9897 0.53795 0.1649 0.0
C688 C 0.0013 0.5414 0.17512 0.0
C689 C 0.00132 0.53139 0.18563 0.0
C690 C 0.99024 0.5068 0.1962 0.0
C691 C 0.98846 0.49477 0.18812 0.0
C692 C 0.9935 0.50857 0.21322 0.0
C693 C 0.99493 0.52074 0.22261 0.0
C694 C 0.98402 0.52381 0.22274 0.0
C695 C 0.98535 0.5352 0.23176 0.0
C696 C 0.99761 0.54373 0.24087 0.0
C697 C 0.0085 0.54059 0.24072 0.0
C698 C 0.00715 0.52918 0.23173 0.0
C699 C 0.99505 0.47591 0.22317 0.0
C700 C 0.00747 0.47988 0.23191 0.0
C701 C 0.00889 0.47005 0.24128 0.0
C702 C 0.99785 0.45609 0.24223 0.0
C703 C 0.9854 0.45218 0.23347 0.0
C704 C 0.98402 0.462 0.22401 0.0
C705 C 0.99353 0.48644 0.21349 0.0
C706 C 0.99514 0.49838 0.22163 0.0
C707 C 0.99021 0.48463 0.19649 0.0
C708 C 0.98957 0.47291 0.1868 0.0
C709 C 0.0011 0.47078 0.18642 0.0
C710 C 0.00103 0.46063 0.17605 0.0
C711 C 0.98946 0.45247 0.16576 0.0
C712 C 0.97777 0.45436 0.16652 0.0
C713 C 0.97785 0.46451 0.1769 0.0
H714 H 0.49872 0.46077 0.17888 0.0
H715 H 0.48065 0.44354 0.16054 0.0
H716 H 0.4518 0.45667 0.17729 0.0
H717 H 0.47 0.47412 0.19519 0.0
H718 H 0.51036 0.48866 0.17706 0.0
H719 H 0.48583 0.45394 0.21871 0.0
H720 H 0.46557 0.43686 0.23457 0.0
H721 H 0.45693 0.4695 0.24905 0.0
H722 H 0.47736 0.48655 0.23342 0.0
H723 H 0.51439 0.52306 0.23179 0.0
H724 H 0.53182 0.54318 0.24749 0.0
H725 H 0.5629 0.53144 0.23613 0.0
H726 H 0.54545 0.51159 0.22 0.0
H727 H 0.50467 0.49508 0.23656 0.0
H728 H 0.52808 0.52947 0.19465 0.0
H729 H 0.5466 0.54653 0.17676 0.0
H730 H 0.55654 0.51496 0.16159 0.0
H731 H 0.53795 0.49791 0.17953 0.0
C732 C 0.4857 0.46868 0.18848 0.0
C733 C 0.48846 0.45983 0.1787 0.0
C734 C 0.47809 0.44993 0.16832 0.0
C735 C 0.46481 0.44877 0.16744 0.0
C736 C 0.46197 0.4574 0.17757 0.0
C737 C 0.47232 0.46729 0.18794 0.0
C738 C 0.49704 0.48003 0.19834 0.0
C739 C 0.50927 0.48989 0.19016 0.0
C740 C 0.4954 0.48188 0.2153 0.0
C741 C 0.48305 0.47149 0.22481 0.0
C742 C 0.47952 0.45738 0.22525 0.0
C743 C 0.46791 0.44763 0.23428 0.0
C744 C 0.4596 0.45179 0.24308 0.0
C745 C 0.46321 0.46596 0.24264 0.0
C746 C 0.47485 0.47572 0.23365 0.0
C747 C 0.52866 0.51589 0.22469 0.0
C748 C 0.52497 0.52485 0.2327 0.0
C749 C 0.53494 0.5363 0.24174 0.0
C750 C 0.54878 0.53893 0.24315 0.0
C751 C 0.55242 0.52988 0.23511 0.0
C752 C 0.54245 0.51848 0.22594 0.0
C753 C 0.51797 0.5037 0.21525 0.0
C754 C 0.50586 0.49372 0.22352 0.0
C755 C 0.5197 0.50178 0.19834 0.0
C756 C 0.5317 0.51244 0.18855 0.0
C757 C 0.53443 0.52629 0.18774 0.0
C758 C 0.54503 0.53604 0.1775 0.0
C759 C 0.55304 0.5321 0.16773 0.0
C760 C 0.55045 0.51828 0.16881 0.0
C761 C 0.53987 0.50854 0.17909 0.0
H762 H 0.53101 0.03024 0.17937 0.0
H763 H 0.55007 0.03298 0.16141 0.0
H764 H 0.54128 0.99144 0.17479 0.0
H765 H 0.52233 0.98883 0.19277 0.0
H766 H 0.50363 0.01126 0.17636 0.0
H767 H 0.53884 0.02343 0.21836 0.0
H768 H 0.55674 0.02164 0.23422 0.0
H769 H 0.52631 0.97887 0.24683 0.0
H770 H 0.50846 0.98082 0.23113 0.0
H771 H 0.47129 0.97851 0.23249 0.0
H772 H 0.45093 0.97417 0.24895 0.0
H773 H 0.45665 0.0143 0.23398 0.0
H774 H 0.47733 0.01879 0.21807 0.0
H775 H 0.49787 0.99773 0.23539 0.0
H776 H 0.46308 0.98443 0.19356 0.0
H777 H 0.44499 0.98427 0.17598 0.0
H778 H 0.47397 0.0269 0.16129 0.0
H779 H 0.49186 0.02714 0.17933 0.0
C780 C 0.52532 0.00938 0.18751 0.0
C781 C 0.53328 0.02178 0.17853 0.0
C782 C 0.54413 0.02331 0.16823 0.0
C783 C 0.54718 0.01242 0.16664 0.0
C784 C 0.53936 0.00011 0.17592 0.0
C785 C 0.52851 0.9986 0.18621 0.0
C786 C 0.5131 0.00736 0.19737 0.0
C787 C 0.50249 0.00859 0.18936 0.0
C788 C 0.51138 0.00334 0.21416 0.0
C789 C 0.52234 0.00223 0.22349 0.0
C790 C 0.53607 0.01365 0.22445 0.0
C791 C 0.54629 0.01259 0.23349 0.0
C792 C 0.54295 0.00011 0.2418 0.0
C793 C 0.52918 0.9887 0.24079 0.0
C794 C 0.51898 0.98977 0.23177 0.0
C795 C 0.47579 0.99893 0.22395 0.0
C796 C 0.46818 0.98638 0.2328 0.0
C797 C 0.45646 0.98387 0.24208 0.0
C798 C 0.45214 0.99387 0.24276 0.0
C799 C 0.45978 0.00643 0.23387 0.0
C800 C 0.47152 0.00896 0.22461 0.0
C801 C 0.48838 0.00165 0.21437 0.0
C802 C 0.49905 0.00054 0.22243 0.0
C803 C 0.49008 0.00563 0.19756 0.0
C804 C 0.47879 0.00584 0.18785 0.0
C805 C 0.46544 0.99384 0.18682 0.0
C806 C 0.45516 0.99371 0.17663 0.0
C807 C 0.45806 0.00555 0.16719 0.0
C808 C 0.47134 0.01766 0.16855 0.0
C809 C 0.48161 0.01779 0.17875 0.0
H810 H 0.48714 0.01278 0.84806 0.0
H811 H 0.4694 0.01341 0.86536 0.0
H812 H 0.4388 0.97192 0.84838 0.0
H813 H 0.45658 0.97177 0.83039 0.0
H814 H 0.49574 0.99251 0.84969 0.0
H815 H 0.47547 0.01081 0.81325 0.0
H816 H 0.45721 0.01207 0.79762 0.0
H817 H 0.44943 0.97552 0.76974 0.0
H818 H 0.46736 0.97389 0.78593 0.0
H819 H 0.50555 0.97289 0.78789 0.0
H820 H 0.5251 0.97521 0.77104 0.0
H821 H 0.55251 0.0154 0.7935 0.0
H822 H 0.53296 0.01305 0.81025 0.0
H823 H 0.49443 0.99085 0.78854 0.0
H824 H 0.51643 0.97385 0.82589 0.0
H825 H 0.53481 0.97383 0.84275 0.0
H826 H 0.54029 0.0105 0.86867 0.0
H827 H 0.52239 0.01081 0.85133 0.0
C828 C 0.47315 0.99222 0.83802 0.0
C829 C 0.47658 0.00386 0.84802 0.0
C830 C 0.46642 0.00414 0.858 0.0
C831 C 0.45266 0.99262 0.85849 0.0
C832 C 0.44922 0.98103 0.84822 0.0
C833 C 0.45938 0.98087 0.838 0.0
C834 C 0.4842 0.99189 0.82801 0.0
C835 C 0.49552 0.99224 0.83631 0.0
C836 C 0.4837 0.9913 0.81058 0.0
C837 C 0.47256 0.99203 0.80109 0.0
C838 C 0.46962 0.00284 0.80408 0.0
C839 C 0.45925 0.00362 0.79507 0.0
C840 C 0.45188 0.99384 0.78258 0.0
C841 C 0.455 0.98319 0.77931 0.0
C842 C 0.46522 0.98226 0.78855 0.0
C843 C 0.51786 0.99275 0.80038 0.0
C844 C 0.51579 0.98217 0.78919 0.0
C845 C 0.52695 0.98347 0.77966 0.0
C846 C 0.54029 0.99549 0.78098 0.0
C847 C 0.54231 0.00608 0.79215 0.0
C848 C 0.53119 0.00471 0.8018 0.0
C849 C 0.50602 0.99154 0.81024 0.0
C850 C 0.49454 0.99091 0.80192 0.0
C851 C 0.50647 0.9921 0.82767 0.0
C852 C 0.51809 0.99239 0.83726 0.0
C853 C 0.52178 0.98204 0.835 0.0
C854 C 0.53219 0.98194 0.84478 0.0
C855 C 0.53903 0.99215 0.85709 0.0
C856 C 0.53541 0.0026 0.85916 0.0
C857 C 0.52506 0.00272 0.84935 0.0
H858 H 0.03004 0.53353 0.84708 0.0
H859 H 0.02971 0.55111 0.86517 0.0
H860 H 0.98936 0.54115 0.84528 0.0
H861 H 0.98953 0.52325 0.82773 0.0
H862 H 0.0123 0.50591 0.84758 0.0
H863 H 0.02637 0.54236 0.80661 0.0
H864 H 0.02452 0.56019 0.7907 0.0
H865 H 0.98333 0.52871 0.77392 0.0
H866 H 0.98541 0.51095 0.78958 0.0
H867 H 0.98561 0.47598 0.7874 0.0
H868 H 0.98292 0.45643 0.77071 0.0
H869 H 0.02089 0.46082 0.79203 0.0
H870 H 0.02401 0.481 0.80787 0.0
H871 H 0.004 0.50199 0.78721 0.0
H872 H 0.98872 0.46576 0.82788 0.0
H873 H 0.98835 0.44763 0.84552 0.0
H874 H 0.02911 0.47775 0.8648 0.0
H875 H 0.02963 0.49567 0.84667 0.0
C876 C 0.00987 0.52715 0.83596 0.0
C877 C 0.02117 0.53521 0.84656 0.0
C878 C 0.02102 0.54533 0.85679 0.0
C879 C 0.0095 0.54753 0.85668 0.0
C880 C 0.99832 0.53963 0.84579 0.0
C881 C 0.99847 0.52949 0.8356 0.0
C882 C 0.00956 0.51568 0.82605 0.0
C883 C 0.01077 0.50517 0.83432 0.0
C884 C 0.00709 0.51449 0.80886 0.0
C885 C 0.006 0.52535 0.79932 0.0
C886 C 0.01694 0.53934 0.79954 0.0
C887 C 0.01584 0.54951 0.79048 0.0
C888 C 0.00377 0.54588 0.78103 0.0
C889 C 0.99286 0.53184 0.78084 0.0
C890 C 0.994 0.52167 0.78984 0.0
C891 C 0.00494 0.47991 0.79903 0.0
C892 C 0.99341 0.47279 0.78841 0.0
C893 C 0.99181 0.46149 0.779 0.0
C894 C 0.00163 0.45694 0.78008 0.0
C895 C 0.01319 0.4641 0.79073 0.0
C896 C 0.01489 0.47554 0.79999 0.0
C897 C 0.00662 0.49208 0.80874 0.0
C898 C 0.00569 0.50275 0.80044 0.0
C899 C 0.00916 0.4933 0.82596 0.0
C900 C 0.00926 0.48205 0.83585 0.0
C901 C 0.99769 0.46838 0.83567 0.0
C902 C 0.99743 0.45806 0.84589 0.0
C903 C 0.00868 0.46124 0.85661 0.0
C904 C 0.02036 0.47488 0.85654 0.0
C905 C 0.02062 0.48518 0.84629 0.0
H906 H 0.45976 0.49927 0.8443 0.0
H907 H 0.44175 0.48197 0.86255 0.0
H908 H 0.45425 0.45193 0.84892 0.0
H909 H 0.47215 0.46926 0.83056 0.0
H910 H 0.48763 0.5099 0.84715 0.0
H911 H 0.45207 0.48315 0.80746 0.0
H912 H 0.4353 0.46245 0.79218 0.0
H913 H 0.46943 0.45799 0.77276 0.0
H914 H 0.48598 0.47799 0.78915 0.0
H915 H 0.52103 0.51316 0.79125 0.0
H916 H 0.54079 0.53025 0.77481 0.0
H917 H 0.53051 0.56204 0.78784 0.0
H918 H 0.51083 0.54488 0.80447 0.0
H919 H 0.49363 0.50378 0.7877 0.0
H920 H 0.52893 0.52892 0.82819 0.0
H921 H 0.54583 0.54765 0.84612 0.0
H922 H 0.513 0.55468 0.86407 0.0
H923 H 0.49619 0.53629 0.84573 0.0
C924 C 0.46726 0.48554 0.83604 0.0
C925 C 0.45853 0.48891 0.84515 0.0
C926 C 0.44828 0.47903 0.8556 0.0
C927 C 0.44661 0.4656 0.85724 0.0
C928 C 0.45514 0.46212 0.84777 0.0
C929 C 0.4654 0.47202 0.8373 0.0
C930 C 0.47885 0.49644 0.82604 0.0
C931 C 0.48882 0.5087 0.83406 0.0
C932 C 0.4806 0.49458 0.80911 0.0
C933 C 0.4703 0.48203 0.79971 0.0
C934 C 0.45592 0.47754 0.80019 0.0
C935 C 0.44634 0.4658 0.79119 0.0
C936 C 0.45095 0.45848 0.78117 0.0
C937 C 0.4654 0.46314 0.78056 0.0
C938 C 0.47493 0.47472 0.78979 0.0
C939 C 0.51452 0.52777 0.79915 0.0
C940 C 0.52304 0.52381 0.79055 0.0
C941 C 0.53429 0.53358 0.7811 0.0
C942 C 0.5372 0.5475 0.77997 0.0
C943 C 0.52865 0.55145 0.78863 0.0
C944 C 0.5174 0.54166 0.79811 0.0
C945 C 0.50244 0.51721 0.80884 0.0
C946 C 0.49238 0.50502 0.80076 0.0
C947 C 0.50067 0.51909 0.82576 0.0
C948 C 0.51127 0.53126 0.83545 0.0
C949 C 0.52542 0.53475 0.83561 0.0
C950 C 0.53507 0.54541 0.8459 0.0
C951 C 0.53068 0.55256 0.85648 0.0
C952 C 0.51661 0.54926 0.8561 0.0
C953 C 0.50702 0.53876 0.84563 0.0
H954 H 0.6239 0.8313 0.51223 0.0
H955 H 0.62272 0.84848 0.49428 0.0
H956 H 0.6651 0.87924 0.50807 0.0
H957 H 0.66619 0.86204 0.52602 0.0
H958 H 0.64154 0.8214 0.50868 0.0
H959 H 0.63138 0.8452 0.55163 0.0
H960 H 0.63462 0.86536 0.56773 0.0
H961 H 0.67681 0.87521 0.57984 0.0
H962 H 0.67338 0.85491 0.56394 0.0
H963 H 0.67328 0.81829 0.56285 0.0
H964 H 0.67632 0.80125 0.57891 0.0
H965 H 0.6339 0.76932 0.56707 0.0
H966 H 0.63087 0.78648 0.55113 0.0
H967 H 0.65494 0.82744 0.56776 0.0
H968 H 0.6649 0.80302 0.52661 0.0
H969 H 0.66345 0.78483 0.50808 0.0
H970 H 0.62346 0.77747 0.49016 0.0
H971 H 0.62453 0.79517 0.50927 0.0
C972 C 0.6451 0.8454 0.52052 0.0
C973 C 0.63288 0.8418 0.51151 0.0
C974 C 0.63224 0.85161 0.50123 0.0
C975 C 0.64384 0.86521 0.4997 0.0
C976 C 0.65592 0.86892 0.50914 0.0
C977 C 0.65656 0.85909 0.51941 0.0
C978 C 0.64624 0.83456 0.53006 0.0
C979 C 0.64414 0.82252 0.52171 0.0
C980 C 0.65021 0.83636 0.54685 0.0
C981 C 0.65218 0.84863 0.5565 0.0
C982 C 0.64135 0.85176 0.55769 0.0
C983 C 0.64323 0.8633 0.56686 0.0
C984 C 0.65599 0.87191 0.57506 0.0
C985 C 0.66679 0.86869 0.57389 0.0
C986 C 0.66487 0.85712 0.56475 0.0
C987 C 0.65188 0.80362 0.55575 0.0
C988 C 0.66464 0.80762 0.56371 0.0
C989 C 0.6664 0.79786 0.57278 0.0
C990 C 0.65536 0.78396 0.5742 0.0
C991 C 0.64255 0.77998 0.56626 0.0
C992 C 0.64084 0.78973 0.55707 0.0
C993 C 0.65005 0.81412 0.54642 0.0
C994 C 0.65211 0.82615 0.5548 0.0
C995 C 0.64609 0.81229 0.52959 0.0
C996 C 0.64474 0.80039 0.51954 0.0
C997 C 0.65558 0.79719 0.51913 0.0
C998 C 0.65481 0.78686 0.50847 0.0
C999 C 0.64335 0.77981 0.49773 0.0
C1000 C 0.63241 0.78282 0.49831 0.0
C1001 C 0.63305 0.79294 0.5092 0.0
H1002 H 0.16539 0.79379 0.51133 0.0
H1003 H 0.14711 0.7769 0.49296 0.0
H1004 H 0.11818 0.78904 0.51225 0.0
H1005 H 0.13664 0.80628 0.53002 0.0
H1006 H 0.177 0.82131 0.5107 0.0
H1007 H 0.15279 0.78608 0.55194 0.0
H1008 H 0.13261 0.76882 0.56776 0.0
H1009 H 0.12421 0.80135 0.58349 0.0
H1010 H 0.14457 0.81856 0.56791 0.0
H1011 H 0.18088 0.85459 0.56658 0.0
H1012 H 0.19813 0.87474 0.58238 0.0
H1013 H 0.23006 0.86467 0.56912 0.0
H1014 H 0.21274 0.84465 0.55305 0.0
H1015 H 0.17182 0.82704 0.57052 0.0
H1016 H 0.19507 0.86196 0.52881 0.0
H1017 H 0.21353 0.87905 0.51086 0.0
H1018 H 0.223 0.84734 0.49486 0.0
H1019 H 0.20452 0.83028 0.51291 0.0
C1020 C 0.15238 0.80124 0.52215 0.0
C1021 C 0.15507 0.79273 0.51167 0.0
C1022 C 0.14458 0.783 0.50127 0.0
C1023 C 0.13118 0.78164 0.50111 0.0
C1024 C 0.12842 0.78993 0.51193 0.0
C1025 C 0.13893 0.79968 0.52226 0.0
C1026 C 0.16384 0.81244 0.53207 0.0
C1027 C 0.17602 0.82238 0.52387 0.0
C1028 C 0.16239 0.81407 0.54913 0.0
C1029 C 0.15013 0.80358 0.55868 0.0
C1030 C 0.14656 0.78946 0.55876 0.0
C1031 C 0.13499 0.7796 0.56777 0.0
C1032 C 0.12677 0.78369 0.57689 0.0
C1033 C 0.13043 0.79787 0.57682 0.0
C1034 C 0.14203 0.80772 0.56787 0.0
C1035 C 0.19554 0.84817 0.55859 0.0
C1036 C 0.19159 0.85672 0.56711 0.0
C1037 C 0.20146 0.8682 0.5762 0.0
C1038 C 0.21548 0.8713 0.57708 0.0
C1039 C 0.2194 0.86269 0.56852 0.0
C1040 C 0.20952 0.85123 0.55937 0.0
C1041 C 0.18492 0.83594 0.54912 0.0
C1042 C 0.17291 0.82583 0.55741 0.0
C1043 C 0.18653 0.83418 0.53213 0.0
C1044 C 0.19849 0.84486 0.52232 0.0
C1045 C 0.20132 0.85876 0.52172 0.0
C1046 C 0.21188 0.86852 0.51144 0.0
C1047 C 0.21971 0.86454 0.50142 0.0
C1048 C 0.21704 0.85069 0.5023 0.0
C1049 C 0.20652 0.84095 0.51263 0.0
H1050 H 0.14337 0.32462 0.51232 0.0
H1051 H 0.12475 0.32287 0.49453 0.0
H1052 H 0.13496 0.3647 0.50902 0.0
H1053 H 0.15308 0.36595 0.52759 0.0
H1054 H 0.17238 0.34618 0.50951 0.0
H1055 H 0.13441 0.32591 0.54681 0.0
H1056 H 0.11432 0.32292 0.56272 0.0
H1057 H 0.14097 0.36174 0.58837 0.0
H1058 H 0.16112 0.36479 0.57216 0.0
H1059 H 0.20242 0.36613 0.57126 0.0
H1060 H 0.21925 0.36323 0.58823 0.0
H1061 H 0.20515 0.32275 0.56594 0.0
H1062 H 0.18841 0.32569 0.54908 0.0
H1063 H 0.17276 0.34816 0.57066 0.0
H1064 H 0.21204 0.36514 0.5331 0.0
H1065 H 0.23032 0.36485 0.51622 0.0
H1066 H 0.19868 0.32796 0.49092 0.0
H1067 H 0.18062 0.32798 0.50822 0.0
C1068 C 0.14958 0.34542 0.52118 0.0
C1069 C 0.14148 0.33335 0.51175 0.0
C1070 C 0.13092 0.33244 0.50147 0.0
C1071 C 0.12845 0.34374 0.50008 0.0
C1072 C 0.13643 0.35574 0.50987 0.0
C1073 C 0.14686 0.35652 0.52041 0.0
C1074 C 0.16132 0.34654 0.53117 0.0
C1075 C 0.17248 0.34657 0.52289 0.0
C1076 C 0.16144 0.34726 0.54858 0.0
C1077 C 0.14922 0.34574 0.55801 0.0
C1078 C 0.1359 0.33394 0.55559 0.0
C1079 C 0.12442 0.33222 0.56475 0.0
C1080 C 0.12604 0.34215 0.5767 0.0
C1081 C 0.13942 0.35388 0.57928 0.0
C1082 C 0.15091 0.35566 0.57 0.0
C1083 C 0.19429 0.34618 0.55885 0.0
C1084 C 0.20302 0.35668 0.57002 0.0
C1085 C 0.21264 0.35503 0.57963 0.0
C1086 C 0.21345 0.34275 0.57841 0.0
C1087 C 0.20465 0.33226 0.56723 0.0
C1088 C 0.19518 0.33398 0.55751 0.0
C1089 C 0.1838 0.34762 0.54898 0.0
C1090 C 0.17285 0.34809 0.55727 0.0
C1091 C 0.18368 0.34698 0.53155 0.0
C1092 C 0.19495 0.34654 0.52199 0.0
C1093 C 0.20909 0.35685 0.52412 0.0
C1094 C 0.21951 0.35676 0.51434 0.0
C1095 C 0.21597 0.34639 0.5022 0.0
C1096 C 0.20182 0.33598 0.5003 0.0
C1097 C 0.19145 0.33606 0.51008 0.0
C1098 C 0.00641 0.38842 0.05354 0.0
C1099 C 0.99505 0.37518 0.04953 0.0
C1100 C 0.00532 0.39629 0.06632 0.0
C1101 C 0.98516 0.39346 0.10391 0.0
H1102 H 0.0016 0.43352 0.09779 0.0
C1103 C 0.97807 0.42956 0.15036 0.0
C1104 C 0.98996 0.44271 0.15351 0.0
C1105 C 0.97837 0.42083 0.13805 0.0
C1106 C 0.99708 0.42237 0.09977 0.0
H1107 H 0.97363 0.35976 0.0558 0.0
H1108 H 0.97165 0.37361 0.07811 0.0
H1109 H 0.00248 0.41925 0.07542 0.0
H1110 H 0.0115 0.45691 0.14624 0.0
H1111 H 0.01209 0.4416 0.12503 0.0
H1112 H 0.97975 0.39664 0.12831 0.0
C1113 C 0.98146 0.37783 0.07145 0.0
C1114 C 0.99758 0.41419 0.08694 0.0
C1115 C 0.98256 0.36994 0.05862 0.0
C1116 C 0.00221 0.4468 0.14428 0.0
C1117 C 0.00249 0.4381 0.13196 0.0
C1118 C 0.98464 0.40166 0.11676 0.0
C1119 C 0.99282 0.39112 0.0754 0.0
C1120 C 0.99174 0.39966 0.0889 0.0
C1121 C 0.99053 0.42509 0.12856 0.0
C1122 C 0.99071 0.41623 0.11487 0.0
H1123 H 0.01621 0.39271 0.04682 0.0
H1124 H 0.01435 0.40637 0.06922 0.0
H1125 H 0.98069 0.38232 0.10587 0.0
H1126 H 0.96852 0.42606 0.15736 0.0
H1127 H 0.96897 0.41089 0.13567 0.0
C1128 C 0.63233 0.61116 0.05988 0.0
C1129 C 0.62596 0.61794 0.05216 0.0
C1130 C 0.62595 0.60242 0.07348 0.0
C1131 C 0.59923 0.59438 0.10593 0.0
H1132 H 0.59775 0.55857 0.10819 0.0
C1133 C 0.57228 0.55628 0.16011 0.0
C1134 C 0.56348 0.54215 0.15581 0.0
C1135 C 0.58143 0.56588 0.14849 0.0
C1136 C 0.59805 0.56853 0.10772 0.0
H1137 H 0.60795 0.62092 0.0526 0.0
H1138 H 0.59678 0.6056 0.07609 0.0
H1139 H 0.61061 0.57477 0.08583 0.0
H1140 H 0.55749 0.52701 0.13596 0.0
H1141 H 0.57337 0.54373 0.11572 0.0
H1142 H 0.58624 0.58795 0.12743 0.0
C1143 C 0.60679 0.60716 0.07187 0.0
C1144 C 0.60555 0.57787 0.09501 0.0
C1145 C 0.61315 0.61587 0.05832 0.0
C1146 C 0.56428 0.53778 0.13975 0.0
C1147 C 0.5734 0.54737 0.12814 0.0
C1148 C 0.59173 0.58504 0.11863 0.0
C1149 C 0.61309 0.60032 0.07962 0.0
C1150 C 0.60605 0.59082 0.09382 0.0
C1151 C 0.58197 0.56157 0.1323 0.0
C1152 C 0.59088 0.57192 0.11955 0.0
H1153 H 0.64223 0.6126 0.05543 0.0
H1154 H 0.63114 0.5974 0.07927 0.0
H1155 H 0.59957 0.60435 0.10551 0.0
H1156 H 0.57205 0.55994 0.17245 0.0
H1157 H 0.58804 0.57671 0.15218 0.0
C1158 C 0.3829 0.01479 0.06166 0.0
C1159 C 0.37634 0.00298 0.05136 0.0
C1160 C 0.39137 0.01522 0.07476 0.0
C1161 C 0.41187 -0.00092 0.08887 0.0
H1162 H 0.41049 0.01418 0.1316 0.0
C1163 C 0.43995 0.99314 0.14524 0.0
C1164 C 0.4476 0.00503 0.15522 0.0
C1165 C 0.43083 0.99293 0.13316 0.0
C1166 C 0.41108 0.01005 0.11969 0.0
H1167 H 0.3733 0.98226 0.04683 0.0
H1168 H 0.38791 0.98294 0.06971 0.0
H1169 H 0.39547 0.0139 0.10924 0.0
H1170 H 0.4513 0.02585 0.1607 0.0
H1171 H 0.43547 0.02555 0.1394 0.0
H1172 H 0.42744 0.99522 0.09924 0.0
C1173 C 0.38672 0.99197 0.06756 0.0
C1174 C 0.40249 0.0099 0.10688 0.0
C1175 C 0.37828 0.99155 0.0545 0.0
C1176 C 0.44566 0.01658 0.15309 0.0
C1177 C 0.43649 0.01636 0.14101 0.0
C1178 C 0.42041 -0.00079 0.10164 0.0
C1179 C 0.39345 0.00384 0.07778 0.0
C1180 C 0.40274 0.00433 0.09135 0.0
C1181 C 0.42913 0.0046 0.13075 0.0
C1182 C 0.42007 0.00462 0.11722 0.0
H1183 H 0.38158 0.02375 0.05953 0.0
H1184 H 0.39651 0.02456 0.08233 0.0
H1185 H 0.41253 0.99498 0.07697 0.0
H1186 H 0.44131 0.98411 0.14643 0.0
H1187 H 0.42516 0.98363 0.12561 0.0
C1188 C 0.36528 0.98746 0.95793 0.0
C1189 C 0.37243 0.99676 0.97094 0.0
C1190 C 0.37269 0.98677 0.94425 0.0
C1191 C 0.40722 0.00713 0.92327 0.0
H1192 H 0.39792 0.97143 0.90362 0.0
C1193 C 0.44646 0.99896 0.8857 0.0
C1194 C 0.44218 0.99262 0.87009 0.0
C1195 C 0.43683 -0.00068 0.89655 0.0
C1196 C 0.4005 0.98147 0.90887 0.0
H1197 H 0.39289 0.01236 0.98007 0.0
H1198 H 0.40577 0.01088 0.95664 0.0
H1199 H 0.38307 0.97227 0.92554 0.0
H1200 H 0.42422 0.98149 0.85384 0.0
H1201 H 0.40728 0.9817 0.87322 0.0
H1202 H 0.42499 0.01621 0.90714 0.0
C1203 C 0.39445 0.00441 0.95662 0.0
C1204 C 0.392 0.98198 0.92138 0.0
C1205 C 0.38707 0.00518 0.97015 0.0
C1206 C 0.42789 0.98634 0.8658 0.0
C1207 C 0.41819 0.9865 0.87683 0.0
C1208 C 0.41578 0.00659 0.91097 0.0
C1209 C 0.38737 0.99532 0.9434 0.0
C1210 C 0.39545 0.99479 0.92899 0.0
C1211 C 0.42264 0.99314 0.89221 0.0
C1212 C 0.41265 0.99374 0.90389 0.0
H1213 H 0.35398 0.98087 0.95821 0.0
H1214 H 0.3669 0.97971 0.93424 0.0
H1215 H 0.40999 0.01722 0.9285 0.0
H1216 H 0.45725 0.00355 0.88968 0.0
H1217 H 0.44047 0.00429 0.90847 0.0
C1218 C 0.01565 0.38577 0.96347 0.0
C1219 C 0.00291 0.37764 0.97184 0.0
C1220 C 0.01652 0.39449 0.95043 0.0
C1221 C -0.00119 0.41267 0.93377 0.0
H1222 H 0.019 0.41526 0.89351 0.0
C1223 C 0.99541 0.44187 0.87696 0.0
C1224 C 0.00795 0.45063 0.86849 0.0
C1225 C 0.99491 0.43257 0.88896 0.0
C1226 C 0.01344 0.41475 0.90475 0.0
H1227 H 0.98105 0.37207 0.97299 0.0
H1228 H 0.98254 0.38715 0.95028 0.0
H1229 H 0.01813 0.39994 0.91581 0.0
H1230 H 0.02968 0.4561 0.86563 0.0
H1231 H 0.02887 0.44003 0.88684 0.0
H1232 H 0.99416 0.42749 0.92284 0.0
C1233 C 0.99191 0.38698 0.95388 0.0
C1234 C 0.01295 0.40599 0.91751 0.0
C1235 C 0.99104 0.37827 0.96684 0.0
C1236 C 0.0199 0.44962 0.87206 0.0
C1237 C 0.01939 0.4403 0.88409 0.0
C1238 C -0.00069 0.42142 0.92105 0.0
C1239 C 0.00467 0.39526 0.94559 0.0
C1240 C 0.00555 0.40479 0.93212 0.0
C1241 C 0.00694 0.43181 0.89284 0.0
C1242 C 0.00655 0.42251 0.90634 0.0
H1243 H 0.02497 0.38548 0.96706 0.0
H1244 H 0.02652 0.40082 0.94437 0.0
H1245 H 0.99325 0.4122 0.94499 0.0
H1246 H 0.98605 0.44247 0.87466 0.0
H1247 H 0.98508 0.42602 0.89529 0.0
C1248 C 0.61932 0.63283 0.95616 0.0
C1249 C 0.61612 0.62643 0.97176 0.0
C1250 C 0.61026 0.62638 0.94282 0.0
C1251 C 0.57388 0.60208 0.93222 0.0
H1252 H 0.58807 0.59269 0.89342 0.0
C1253 C 0.53662 0.56139 0.88538 0.0
C1254 C 0.54049 0.56272 0.86871 0.0
C1255 C 0.54598 0.57048 0.89718 0.0
C1256 C 0.58394 0.59547 0.90397 0.0
H1257 H 0.60087 0.60851 0.9858 0.0
H1258 H 0.58486 0.59748 0.96261 0.0
H1259 H 0.60421 0.60661 0.91539 0.0
H1260 H 0.55705 0.57475 0.85117 0.0
H1261 H 0.57332 0.59105 0.87168 0.0
H1262 H 0.55369 0.59125 0.92088 0.0
C1263 C 0.59441 0.60738 0.96067 0.0
C1264 C 0.59321 0.60339 0.91658 0.0
C1265 C 0.60359 0.61366 0.97389 0.0
C1266 C 0.55386 0.57347 0.86399 0.0
C1267 C 0.56318 0.58274 0.87577 0.0
C1268 C 0.56466 0.59439 0.91951 0.0
C1269 C 0.59772 0.61361 0.945 0.0
C1270 C 0.5882 0.60651 0.93095 0.0
C1271 C 0.55941 0.5813 0.89257 0.0
C1272 C 0.56949 0.59068 0.90536 0.0
H1273 H 0.62895 0.64266 0.95419 0.0
H1274 H 0.61299 0.63138 0.93083 0.0
H1275 H 0.56982 0.60451 0.94313 0.0
H1276 H 0.52645 0.55304 0.88938 0.0
H1277 H 0.54277 0.56876 0.90999 0.0
C1278 C 0.01495 0.631 0.96155 0.0
C1279 C 0.00216 0.62614 0.96988 0.0
C1280 C 0.01607 0.62315 0.94867 0.0
C1281 C -0.00092 0.58695 0.93279 0.0
H1282 H 0.01954 0.60412 0.89254 0.0
C1283 C 0.99621 0.55376 0.8768 0.0
C1284 C 0.00881 0.55746 0.86852 0.0
C1285 C 0.99565 0.56268 0.88861 0.0
C1286 C 0.01391 0.5992 0.90378 0.0
H1287 H 0.98043 0.60949 0.971 0.0
H1288 H 0.98234 0.59593 0.94852 0.0
H1289 H 0.0182 0.61881 0.91426 0.0
H1290 H 0.03061 0.57364 0.86584 0.0
H1291 H 0.02968 0.58914 0.88672 0.0
H1292 H 0.99479 0.56739 0.92243 0.0
C1293 C 0.99158 0.60565 0.95207 0.0
C1294 C 0.01315 0.6076 0.91622 0.0
C1295 C 0.99046 0.61347 0.9649 0.0
C1296 C 0.02078 0.57042 0.87212 0.0
C1297 C 0.02021 0.57937 0.88396 0.0
C1298 C -0.00016 0.57858 0.9204 0.0
C1299 C 0.00442 0.6103 0.94393 0.0
C1300 C 0.00563 0.60155 0.93081 0.0
C1301 C 0.00768 0.5755 0.89248 0.0
C1302 C 0.00716 0.58457 0.9057 0.0
H1303 H 0.02414 0.64074 0.96514 0.0
H1304 H 0.02614 0.62697 0.94271 0.0
H1305 H 0.99346 0.58199 0.94402 0.0
H1306 H 0.98683 0.5438 0.87446 0.0
H1307 H 0.98578 0.55948 0.89478 0.0
C1308 C 0.38707 0.38295 0.96893 0.0
C1309 C 0.37287 0.37849 0.97181 0.0
C1310 C 0.39425 0.39206 0.95597 0.0
C1311 C 0.38957 0.40559 0.91642 0.0
H1312 H 0.42696 0.43637 0.92574 0.0
C1313 C 0.42853 0.4412 0.86592 0.0
C1314 C 0.43666 0.45557 0.86954 0.0
C1315 C 0.41984 0.43174 0.87795 0.0
C1316 C 0.41649 0.4279 0.92296 0.0
H1317 H 0.35497 0.37985 0.9632 0.0
H1318 H 0.3676 0.39589 0.94048 0.0
H1319 H 0.41351 0.41993 0.94754 0.0
H1320 H 0.44192 0.47126 0.8886 0.0
H1321 H 0.42664 0.45481 0.90943 0.0
H1322 H 0.39259 0.41371 0.8918 0.0
C1323 C 0.37312 0.39224 0.94823 0.0
C1324 C 0.40885 0.41839 0.93541 0.0
C1325 C 0.36592 0.38313 0.96127 0.0
C1326 C 0.43569 0.46029 0.88533 0.0
C1327 C 0.42705 0.45084 0.89734 0.0
C1328 C 0.39727 0.41511 0.9039 0.0
C1329 C 0.38741 0.39692 0.94556 0.0
C1330 C 0.39533 0.4071 0.93228 0.0
C1331 C 0.41918 0.43644 0.89387 0.0
C1332 C 0.41082 0.42637 0.90706 0.0
H1333 H 0.39269 0.37949 0.97679 0.0
H1334 H 0.40519 0.3953 0.95407 0.0
H1335 H 0.37921 0.39694 0.91362 0.0
H1336 H 0.42895 0.43727 0.85381 0.0
H1337 H 0.41396 0.42069 0.87494 0.0
C1338 C 0.6218 0.00755 0.96511 0.0
C1339 C 0.62068 0.99562 0.97275 0.0
C1340 C 0.61356 0.00624 0.9514 0.0
C1341 C 0.58052 0.98198 0.93106 0.0
H1342 H 0.59687 0.00704 0.89377 0.0
C1343 C 0.54723 0.9788 0.87451 0.0
C1344 C 0.54948 0.99165 0.86824 0.0
C1345 C 0.55651 0.97843 0.88598 0.0
C1346 C 0.59211 3e-05 0.90414 0.0
H1347 H 0.61006 0.97294 0.97208 0.0
H1348 H 0.5955 0.97062 0.94813 0.0
H1349 H 0.61185 0.00799 0.91647 0.0
H1350 H 0.56362 0.01413 0.8686 0.0
H1351 H 0.57953 0.01353 0.88892 0.0
H1352 H 0.56072 0.9743 0.91904 0.0
C1353 C 0.60277 0.98099 0.95278 0.0
C1354 C 0.6007 0.00056 0.91711 0.0
C1355 C 0.61113 0.98232 0.96643 0.0
C1356 C 0.56145 0.00407 0.87335 0.0
C1357 C 0.57069 0.00371 0.88486 0.0
C1358 C 0.5719 0.98151 0.91814 0.0
C1359 C 0.60394 0.99295 0.94511 0.0
C1360 C 0.59497 0.99167 0.93081 0.0
C1361 C 0.56824 0.9909 0.89149 0.0
C1362 C 0.57756 0.99066 0.90461 0.0
H1363 H 0.62907 0.01795 0.96969 0.0
H1364 H 0.61456 0.01563 0.94589 0.0
H1365 H 0.57578 0.9751 0.94154 0.0
H1366 H 0.53806 0.96904 0.87096 0.0
H1367 H 0.55441 0.96837 0.89066 0.0
C1368 C 0.63067 0.01926 0.06035 0.0
C1369 C 0.62486 0.00655 0.05163 0.0
C1370 C 0.62344 0.02082 0.07363 0.0
C1371 C 0.59541 0.00019 0.10384 0.0
H1372 H 0.5933 0.03407 0.10835 0.0
C1373 C 0.56694 0.00839 0.15868 0.0
C1374 C 0.55795 0.01355 0.15471 0.0
C1375 C 0.57641 0.00863 0.14702 0.0
C1376 C 0.59378 0.02453 0.10724 0.0
H1377 H 0.60689 0.98556 0.04987 0.0
H1378 H 0.59426 0.98832 0.07286 0.0
H1379 H 0.60706 0.03212 0.08597 0.0
H1380 H 0.55198 0.02314 0.13539 0.0
H1381 H 0.56847 0.02357 0.1151 0.0
H1382 H 0.58179 0.99242 0.12476 0.0
C1383 C 0.60448 0.99702 0.06964 0.0
C1384 C 0.60177 0.02348 0.09452 0.0
C1385 C 0.61167 0.99547 0.05638 0.0
C1386 C 0.5589 0.01927 0.13895 0.0
C1387 C 0.56836 0.01952 0.1273 0.0
C1388 C 0.58745 0.00126 0.11656 0.0
C1389 C 0.61029 0.00968 0.07846 0.0
C1390 C 0.60252 0.01121 0.09255 0.0
C1391 C 0.57711 0.01405 0.13112 0.0
C1392 C 0.58639 0.01337 0.1183 0.0
H1393 H 0.64083 0.02797 0.05698 0.0
H1394 H 0.62824 0.03067 0.08025 0.0
H1395 H 0.59592 0.99068 0.10279 0.0
H1396 H 0.56662 0.00411 0.1708 0.0
H1397 H 0.58316 0.00453 0.15043 0.0
C1398 C 0.98241 0.61345 0.05831 0.0
C1399 C 0.9946 0.62028 0.04865 0.0
C1400 C 0.98147 0.60456 0.07116 0.0
C1401 C 0.99724 0.58384 0.08592 0.0
H1402 H 0.98068 0.58451 0.12789 0.0
C1403 C 0.00234 0.55608 0.14312 0.0
C1404 C 0.99019 0.54814 0.1526 0.0
C1405 C 0.00261 0.56504 0.13081 0.0
C1406 C 0.98521 0.58412 0.11619 0.0
H1407 H 0.01542 0.62328 0.04492 0.0
H1408 H 0.01387 0.60796 0.06739 0.0
H1409 H 0.98151 0.59971 0.1055 0.0
H1410 H 0.96892 0.54368 0.15691 0.0
H1411 H 0.96936 0.55929 0.13524 0.0
H1412 H 0.00103 0.56834 0.0966 0.0
C1413 C 0.00492 0.60925 0.06492 0.0
C1414 C 0.98567 0.5928 0.10335 0.0
C1415 C 0.00585 0.6181 0.05209 0.0
C1416 C 0.9784 0.54958 0.14971 0.0
C1417 C 0.97869 0.5586 0.13741 0.0
C1418 C 0.99682 0.57521 0.09874 0.0
C1419 C 0.99271 0.60233 0.07458 0.0
C1420 C 0.99178 0.59283 0.0881 0.0
C1421 C 0.99074 0.56629 0.12769 0.0
C1422 C 0.9909 0.57532 0.11405 0.0
H1423 H 0.97357 0.61493 0.05592 0.0
H1424 H 0.97186 0.59928 0.07826 0.0
H1425 H 0.00176 0.58339 0.07423 0.0
H1426 H 0.01155 0.5551 0.14491 0.0
H1427 H 0.01211 0.57096 0.12367 0.0
C1428 C 0.3847 0.36739 0.06203 0.0
C1429 C 0.37862 0.37354 0.05242 0.0
C1430 C 0.39387 0.37491 0.07492 0.0
C1431 C 0.41698 0.41123 0.08926 0.0
H1432 H 0.41572 0.39391 0.13132 0.0
C1433 C 0.44675 0.44394 0.14577 0.0
C1434 C 0.45427 0.43925 0.15524 0.0
C1435 C 0.43739 0.43539 0.13363 0.0
C1436 C 0.41628 0.39884 0.11958 0.0
H1437 H 0.3771 0.39222 0.04898 0.0
H1438 H 0.39288 0.40521 0.07152 0.0
H1439 H 0.39957 0.37989 0.10929 0.0
H1440 H 0.45758 0.42175 0.15967 0.0
H1441 H 0.44123 0.40678 0.13829 0.0
H1442 H 0.43357 0.43018 0.09951 0.0
C1443 C 0.39082 0.39471 0.06896 0.0
C1444 C 0.40705 0.39082 0.10696 0.0
C1445 C 0.3817 0.38723 0.05609 0.0
C1446 C 0.45202 0.42569 0.15248 0.0
C1447 C 0.44258 0.41709 0.14035 0.0
C1448 C 0.42614 0.41923 0.10184 0.0
C1449 C 0.39713 0.3887 0.07842 0.0
C1450 C 0.40721 0.39697 0.09171 0.0
C1451 C 0.4353 0.42192 0.13066 0.0
C1452 C 0.42581 0.41318 0.1172 0.0
H1453 H 0.38252 0.35685 0.05945 0.0
H1454 H 0.39864 0.37002 0.0819 0.0
H1455 H 0.41761 0.41623 0.07754 0.0
H1456 H 0.44836 0.45438 0.14745 0.0
H1457 H 0.43181 0.43934 0.12651 0.0
C1458 C 0.65859 0.72042 0.38023 0.0
C1459 C 0.65607 0.70671 0.38225 0.0
C1460 C 0.65578 0.72711 0.39306 0.0
C1461 C 0.65555 0.72983 0.43696 0.0
H1462 H 0.6305 0.74456 0.43077 0.0
C1463 C 0.64519 0.75888 0.48957 0.0
C1464 C 0.6433 0.7701 0.48513 0.0
C1465 C 0.64551 0.75 0.47747 0.0
C1466 C 0.6377 0.74073 0.43268 0.0
H1467 H 0.64874 0.68925 0.39923 0.0
H1468 H 0.64429 0.70122 0.42195 0.0
H1469 H 0.63367 0.7315 0.40855 0.0
H1470 H 0.64053 0.78108 0.46469 0.0
H1471 H 0.64174 0.76611 0.44351 0.0
H1472 H 0.66029 0.73963 0.46065 0.0
C1473 C 0.64822 0.70663 0.41032 0.0
C1474 C 0.6394 0.73315 0.41997 0.0
C1475 C 0.65071 0.6998 0.39734 0.0
C1476 C 0.64179 0.77235 0.46842 0.0
C1477 C 0.6424 0.76368 0.4563 0.0
C1478 C 0.65411 0.73768 0.44956 0.0
C1479 C 0.65072 0.72032 0.40825 0.0
C1480 C 0.64838 0.72771 0.42199 0.0
C1481 C 0.64425 0.75235 0.46062 0.0
C1482 C 0.64524 0.74334 0.44756 0.0
H1483 H 0.66271 0.72595 0.36871 0.0
H1484 H 0.65785 0.73771 0.39125 0.0
H1485 H 0.66263 0.72581 0.4387 0.0
H1486 H 0.64631 0.75693 0.50242 0.0
H1487 H 0.64669 0.74127 0.48136 0.0
C1488 C 0.27909 0.94894 0.39235 0.0
C1489 C 0.29148 0.9505 0.38545 0.0
C1490 C 0.27285 0.94017 0.40588 0.0
C1491 C 0.27109 0.91008 0.42783 0.0
H1492 H 0.2533 0.9207 0.46167 0.0
C1493 C 0.23042 0.87025 0.47319 0.0
C1494 C 0.23003 0.87457 0.48941 0.0
C1495 C 0.23942 0.87983 0.4615 0.0
C1496 C 0.25837 0.91763 0.45247 0.0
H1497 H 0.30713 0.94417 0.38737 0.0
H1498 H 0.2963 0.92891 0.4112 0.0
H1499 H 0.26641 0.93711 0.43969 0.0
H1500 H 0.23917 0.89222 0.50623 0.0
H1501 H 0.25502 0.90898 0.48584 0.0
H1502 H 0.26314 0.89063 0.44072 0.0
C1503 C 0.29131 0.93435 0.406 0.0
C1504 C 0.26574 0.92698 0.43973 0.0
C1505 C 0.29755 0.94313 0.3924 0.0
C1506 C 0.2391 0.88863 0.49378 0.0
C1507 C 0.24816 0.89821 0.48209 0.0
C1508 C 0.26375 0.90073 0.44061 0.0
C1509 C 0.27888 0.93277 0.41289 0.0
C1510 C 0.27198 0.92323 0.4271 0.0
C1511 C 0.2483 0.89397 0.46575 0.0
C1512 C 0.25711 0.90431 0.45294 0.0
H1513 H 0.27413 0.95445 0.38723 0.0
H1514 H 0.26315 0.93901 0.41067 0.0
H1515 H 0.2757 0.90681 0.41826 0.0
H1516 H 0.2234 0.85954 0.46936 0.0
H1517 H 0.23907 0.87624 0.44898 0.0
C1518 C 0.04979 0.32787 0.38643 0.0
C1519 C 0.04413 0.33673 0.38533 0.0
C1520 C 0.05813 0.32878 0.39985 0.0
C1521 C 0.07919 0.35226 0.43417 0.0
H1522 H 0.07766 0.31835 0.44995 0.0
C1523 C 0.10988 0.34946 0.49135 0.0
C1524 C 0.11798 0.34313 0.48798 0.0
C1525 C 0.10015 0.34887 0.4798 0.0
C1526 C 0.07817 0.32789 0.44566 0.0
H1527 H 0.04262 0.35344 0.39743 0.0
H1528 H 0.05685 0.35477 0.42121 0.0
H1529 H 0.06171 0.31686 0.42822 0.0
H1530 H 0.1224 0.3316 0.46946 0.0
H1531 H 0.1051 0.33013 0.44977 0.0
H1532 H 0.09559 0.36319 0.45194 0.0
C1533 C 0.05514 0.34732 0.41152 0.0
C1534 C 0.06912 0.32708 0.43313 0.0
C1535 C 0.04692 0.34652 0.39794 0.0
C1536 C 0.11611 0.33625 0.47276 0.0
C1537 C 0.10625 0.33547 0.46139 0.0
C1538 C 0.08812 0.35303 0.44691 0.0
C1539 C 0.06084 0.33844 0.41265 0.0
C1540 C 0.06971 0.33928 0.42695 0.0
C1541 C 0.09819 0.34175 0.46479 0.0
C1542 C 0.08787 0.34088 0.45251 0.0
H1543 H 0.04791 0.3203 0.37682 0.0
H1544 H 0.0626 0.322 0.40005 0.0
H1545 H 0.08007 0.36189 0.42964 0.0
H1546 H 0.11089 0.3547 0.50299 0.0
H1547 H 0.094 0.35375 0.4827 0.0
C1548 C 0.05505 0.33648 0.30495 0.0
C1549 C 0.0404 0.32812 0.30576 0.0
C1550 C 0.06243 0.33528 0.29169 0.0
C1551 C 0.0595 0.31178 0.25721 0.0
H1552 H 0.09275 0.34533 0.242 0.0
C1553 C 0.09347 0.31444 0.20038 0.0
C1554 C 0.10787 0.32056 0.20398 0.0
C1555 C 0.08426 0.31497 0.21189 0.0
C1556 C 0.08348 0.33588 0.24613 0.0
H1557 H 0.02194 0.31193 0.29334 0.0
H1558 H 0.03481 0.31008 0.26983 0.0
H1559 H 0.07833 0.34712 0.26354 0.0
H1560 H 0.12366 0.33152 0.22287 0.0
H1561 H 0.10773 0.33289 0.24249 0.0
H1562 H 0.06472 0.30066 0.23947 0.0
C1563 C 0.04064 0.31737 0.27963 0.0
C1564 C 0.07526 0.33687 0.25855 0.0
C1565 C 0.03326 0.31847 0.29305 0.0
C1566 C 0.11276 0.32706 0.21941 0.0
C1567 C 0.10363 0.32778 0.23074 0.0
C1568 C 0.06765 0.31084 0.24458 0.0
C1569 C 0.05534 0.32581 0.27875 0.0
C1570 C 0.06334 0.3248 0.26454 0.0
C1571 C 0.08932 0.3218 0.22707 0.0
C1572 C 0.07987 0.32285 0.2392 0.0
H1573 H 0.06085 0.34393 0.31465 0.0
H1574 H 0.07375 0.3417 0.29168 0.0
H1575 H 0.05048 0.30225 0.26159 0.0
H1576 H 0.08933 0.30947 0.18859 0.0
H1577 H 0.07325 0.31032 0.2088 0.0
C1578 C 0.6609 0.71311 0.29705 0.0
C1579 C 0.67249 0.71328 0.30447 0.0
C1580 C 0.66272 0.7217 0.28354 0.0
C1581 C 0.68931 0.75373 0.26229 0.0
H1582 H 0.66154 0.74007 0.22732 0.0
C1583 C 0.69449 0.78657 0.2042 0.0
C1584 C 0.68238 0.78707 0.19993 0.0
C1585 C 0.69387 0.77704 0.21602 0.0
C1586 C 0.66935 0.74404 0.23703 0.0
H1587 H 0.69508 0.7225 0.30353 0.0
H1588 H 0.69826 0.73739 0.27972 0.0
H1589 H 0.65951 0.72441 0.24969 0.0
H1590 H 0.66012 0.77792 0.20488 0.0
H1591 H 0.65903 0.7612 0.22519 0.0
H1592 H 0.69911 0.7734 0.24957 0.0
C1593 C 0.68777 0.73076 0.2845 0.0
C1594 C 0.66817 0.73509 0.24988 0.0
C1595 C 0.68595 0.72219 0.29808 0.0
C1596 C 0.6696 0.77766 0.20757 0.0
C1597 C 0.66897 0.76808 0.21927 0.0
C1598 C 0.69053 0.76267 0.24937 0.0
C1599 C 0.67617 0.73062 0.27707 0.0
C1600 C 0.67801 0.73989 0.26281 0.0
C1601 C 0.68111 0.76774 0.22372 0.0
C1602 C 0.68044 0.75798 0.23674 0.0
H1603 H 0.6504 0.70641 0.30174 0.0
H1604 H 0.65357 0.72151 0.27835 0.0
H1605 H 0.69698 0.75783 0.27214 0.0
H1606 H 0.70446 0.79352 0.19839 0.0
H1607 H 0.70337 0.77691 0.21908 0.0
C1608 C 0.28721 0.96698 0.28871 0.0
C1609 C 0.28212 0.96295 0.30485 0.0
C1610 C 0.27833 0.96082 0.27516 0.0
C1611 C 0.24113 0.94094 0.26277 0.0
H1612 H 0.25413 0.92555 0.2286 0.0
C1613 C 0.20314 0.89855 0.21776 0.0
C1614 C 0.20752 0.89844 0.20151 0.0
C1615 C 0.21246 0.90801 0.22933 0.0
C1616 C 0.25039 0.93 0.23784 0.0
H1617 H 0.26368 0.9497 0.31951 0.0
H1618 H 0.24817 0.93907 0.29589 0.0
H1619 H 0.27004 0.93958 0.25064 0.0
H1620 H 0.22499 0.90842 0.18451 0.0
H1621 H 0.24127 0.92515 0.20467 0.0
H1622 H 0.22147 0.93134 0.25007 0.0
C1623 C 0.259 0.94697 0.29369 0.0
C1624 C 0.25953 0.93803 0.25049 0.0
C1625 C 0.2679 0.95301 0.30721 0.0
C1626 C 0.22137 0.90818 0.197 0.0
C1627 C 0.23069 0.91773 0.20857 0.0
C1628 C 0.23203 0.93302 0.25005 0.0
C1629 C 0.26416 0.95066 0.27752 0.0
C1630 C 0.25491 0.94335 0.26326 0.0
C1631 C 0.22639 0.91768 0.22493 0.0
C1632 C 0.23646 0.92721 0.23759 0.0
H1633 H 0.29814 0.97462 0.28653 0.0
H1634 H 0.28256 0.96393 0.26284 0.0
H1635 H 0.23735 0.94508 0.27233 0.0
H1636 H 0.1926 0.89102 0.22169 0.0
H1637 H 0.20883 0.90744 0.24188 0.0
C1638 C 0.66014 0.94322 0.30139 0.0
C1639 C 0.67099 0.9568 0.30516 0.0
C1640 C 0.66159 0.93568 0.28847 0.0
C1641 C 0.68187 0.93964 0.2505 0.0
H1642 H 0.66779 0.89996 0.25692 0.0
C1643 C 0.69197 0.90518 0.20463 0.0
C1644 C 0.68054 0.89177 0.20134 0.0
C1645 C 0.69102 0.91361 0.21688 0.0
C1646 C 0.67165 0.911 0.25487 0.0
H1647 H 0.69187 0.97319 0.29832 0.0
H1648 H 0.69452 0.95992 0.27585 0.0
H1649 H 0.66591 0.91373 0.27919 0.0
H1650 H 0.65915 0.87672 0.20829 0.0
H1651 H 0.65745 0.89146 0.22947 0.0
H1652 H 0.6877 0.93684 0.22616 0.0
C1653 C 0.6848 0.95517 0.28275 0.0
C1654 C 0.67056 0.9189 0.26763 0.0
C1655 C 0.68332 0.96274 0.29567 0.0
C1656 C 0.6681 0.88706 0.21039 0.0
C1657 C 0.66717 0.89543 0.22266 0.0
C1658 C 0.68301 0.93173 0.23773 0.0
C1659 C 0.67397 0.94152 0.27906 0.0
C1660 C 0.67555 0.93328 0.26556 0.0
C1661 C 0.67867 0.90874 0.22616 0.0
C1662 C 0.6778 0.9173 0.23975 0.0
H1663 H 0.65047 0.9384 0.30841 0.0
H1664 H 0.65295 0.9253 0.28577 0.0
H1665 H 0.68568 0.95067 0.24844 0.0
H1666 H 0.70166 0.90914 0.19777 0.0
H1667 H 0.70008 0.92379 0.21936 0.0
C1668 C 0.03486 0.72087 0.29796 0.0
C1669 C 0.04072 0.71453 0.3076 0.0
C1670 C 0.04254 0.7299 0.28506 0.0
C1671 C 0.07891 0.75199 0.27016 0.0
H1672 H 0.06118 0.75031 0.22823 0.0
C1673 C 0.11115 0.78084 0.21293 0.0
C1674 C 0.10636 0.78824 0.20342 0.0
C1675 C 0.10271 0.77165 0.22525 0.0
C1676 C 0.06623 0.75098 0.23993 0.0
H1677 H 0.05914 0.71255 0.31125 0.0
H1678 H 0.07245 0.72812 0.28869 0.0
H1679 H 0.04724 0.73476 0.25068 0.0
H1680 H 0.08879 0.7915 0.19907 0.0
H1681 H 0.07406 0.77549 0.22078 0.0
H1682 H 0.09789 0.76813 0.25944 0.0
C1683 C 0.06203 0.72633 0.29121 0.0
C1684 C 0.05825 0.7421 0.25279 0.0
C1685 C 0.05437 0.71734 0.30409 0.0
C1686 C 0.09282 0.78603 0.20629 0.0
C1687 C 0.08434 0.77678 0.21861 0.0
C1688 C 0.08687 0.76082 0.25732 0.0
C1689 C 0.05623 0.73276 0.28158 0.0
C1690 C 0.06453 0.74244 0.26801 0.0
C1691 C 0.08928 0.76963 0.22836 0.0
C1692 C 0.08065 0.76036 0.24203 0.0
H1693 H 0.02436 0.7189 0.3004 0.0
H1694 H 0.03784 0.7348 0.27797 0.0
H1695 H 0.08401 0.75272 0.28184 0.0
H1696 H 0.12158 0.78242 0.21116 0.0
H1697 H 0.10674 0.76615 0.23241 0.0
C1698 C 0.27598 0.31337 0.30008 0.0
C1699 C 0.28523 0.32687 0.30614 0.0
C1700 C 0.26762 0.31156 0.28627 0.0
C1701 C 0.26541 0.33011 0.2497 0.0
H1702 H 0.22558 0.30321 0.25117 0.0
C1703 C 0.22618 0.3321 0.2046 0.0
C1704 C 0.21432 0.31953 0.19965 0.0
C1705 C 0.23545 0.33205 0.21629 0.0
C1706 C 0.23672 0.31058 0.25039 0.0
H1707 H 0.29302 0.34904 0.30251 0.0
H1708 H 0.27849 0.34588 0.27842 0.0
H1709 H 0.24049 0.30478 0.27425 0.0
H1710 H 0.20317 0.29696 0.20275 0.0
H1711 H 0.21959 0.29682 0.22279 0.0
H1712 H 0.26171 0.33597 0.2259 0.0
C1713 C 0.27774 0.33671 0.28427 0.0
C1714 C 0.24525 0.3115 0.26365 0.0
C1715 C 0.28598 0.3385 0.29813 0.0
C1716 C 0.21225 0.30683 0.2062 0.0
C1717 C 0.22157 0.30677 0.21786 0.0
C1718 C 0.25692 0.32912 0.23638 0.0
C1719 C 0.26848 0.32323 0.27817 0.0
C1720 C 0.25963 0.32145 0.26357 0.0
C1721 C 0.23315 0.3194 0.22326 0.0
C1722 C 0.24242 0.31953 0.23669 0.0
H1723 H 0.2752 0.30421 0.30601 0.0
H1724 H 0.26061 0.30106 0.28179 0.0
H1725 H 0.27652 0.33771 0.24918 0.0
H1726 H 0.2282 0.34205 0.19963 0.0
H1727 H 0.24417 0.34199 0.22025 0.0
C1728 C 0.29566 0.35304 0.39155 0.0
C1729 C 0.29149 0.33955 0.38555 0.0
C1730 C 0.28894 0.3548 0.40524 0.0
C1731 C 0.2678 0.33621 0.44164 0.0
H1732 H 0.25475 0.36291 0.43962 0.0
C1733 C 0.22615 0.33408 0.48622 0.0
C1734 C 0.22682 0.34664 0.49106 0.0
C1735 C 0.23554 0.33415 0.47461 0.0
C1736 C 0.25855 0.35559 0.44055 0.0
H1737 H 0.27709 0.31736 0.38917 0.0
H1738 H 0.26545 0.32044 0.41305 0.0
H1739 H 0.26837 0.3614 0.4168 0.0
H1740 H 0.23822 0.36919 0.4878 0.0
H1741 H 0.25489 0.36936 0.46789 0.0
H1742 H 0.25799 0.33035 0.46533 0.0
C1743 C 0.27393 0.32964 0.40725 0.0
C1744 C 0.26632 0.35471 0.42744 0.0
C1745 C 0.28053 0.32789 0.39351 0.0
C1746 C 0.23746 0.35933 0.48444 0.0
C1747 C 0.24691 0.35941 0.47286 0.0
C1748 C 0.26013 0.33716 0.4548 0.0
C1749 C 0.27806 0.3431 0.41327 0.0
C1750 C 0.2708 0.34484 0.42772 0.0
C1751 C 0.24592 0.3468 0.4676 0.0
C1752 C 0.25519 0.34669 0.4543 0.0
H1753 H 0.30408 0.36222 0.38567 0.0
H1754 H 0.29238 0.3653 0.40966 0.0
H1755 H 0.27133 0.32867 0.44231 0.0
H1756 H 0.21822 0.32413 0.49125 0.0
H1757 H 0.23436 0.32422 0.47075 0.0
C1758 C 0.6691 0.94842 0.38853 0.0
C1759 C 0.6593 0.95263 0.38493 0.0
C1760 C 0.66677 0.93919 0.40148 0.0
C1761 C 0.64711 0.92498 0.44006 0.0
H1762 H 0.6544 0.89463 0.43152 0.0
C1763 C 0.64974 0.88946 0.4911 0.0
C1764 C 0.64375 0.87514 0.48742 0.0
C1765 C 0.65059 0.8989 0.47902 0.0
C1766 C 0.6522 0.90297 0.43407 0.0
H1767 H 0.6395 0.95071 0.39228 0.0
H1768 H 0.6354 0.9345 0.41503 0.0
H1769 H 0.65799 0.91121 0.40966 0.0
H1770 H 0.63376 0.85947 0.46822 0.0
H1771 H 0.63507 0.87588 0.44728 0.0
H1772 H 0.64128 0.91664 0.46452 0.0
C1773 C 0.64492 0.93841 0.40782 0.0
C1774 C 0.65441 0.91256 0.4216 0.0
C1775 C 0.64722 0.94762 0.39477 0.0
C1776 C 0.63831 0.87041 0.47153 0.0
C1777 C 0.6392 0.87983 0.45946 0.0
C1778 C 0.64498 0.9154 0.4526 0.0
C1779 C 0.6546 0.93398 0.41118 0.0
C1780 C 0.65195 0.9237 0.42446 0.0
C1781 C 0.64554 0.89421 0.46299 0.0
C1782 C 0.64751 0.9043 0.44973 0.0
H1783 H 0.67854 0.95216 0.38122 0.0
H1784 H 0.67453 0.93614 0.40393 0.0
H1785 H 0.64521 0.93351 0.44264 0.0
H1786 H 0.65391 0.8934 0.50328 0.0
H1787 H 0.6556 0.90993 0.48208 0.0
C1788 C 0.05116 0.70184 0.39469 0.0
C1789 C 0.04377 0.70735 0.38649 0.0
C1790 C 0.0603 0.70925 0.40765 0.0
C1791 C 0.08112 0.7451 0.42411 0.0
H1792 H 0.08283 0.72676 0.46411 0.0
C1793 C 0.1122 0.77673 0.48066 0.0
C1794 C 0.12042 0.77223 0.48901 0.0
C1795 C 0.10258 0.76829 0.46865 0.0
C1796 C 0.08257 0.732 0.45294 0.0
H1797 H 0.03987 0.72475 0.38566 0.0
H1798 H 0.05566 0.73757 0.40829 0.0
H1799 H 0.06651 0.7129 0.44214 0.0
H1800 H 0.12468 0.75516 0.49157 0.0
H1801 H 0.10801 0.7405 0.47033 0.0
H1802 H 0.09715 0.76417 0.43478 0.0
C1803 C 0.0546 0.72766 0.40458 0.0
C1804 C 0.07323 0.72406 0.44037 0.0
C1805 C 0.04549 0.72026 0.39167 0.0
C1806 C 0.1186 0.75898 0.48525 0.0
C1807 C 0.10896 0.75052 0.4732 0.0
C1808 C 0.09043 0.75301 0.43663 0.0
C1809 C 0.06222 0.72232 0.41262 0.0
C1810 C 0.07233 0.73056 0.42587 0.0
C1811 C 0.10096 0.75517 0.46463 0.0
C1812 C 0.0912 0.74658 0.45125 0.0
H1813 H 0.05004 0.69191 0.39095 0.0
H1814 H 0.06609 0.70491 0.41353 0.0
H1815 H 0.0809 0.75038 0.41296 0.0
H1816 H 0.11343 0.78693 0.48309 0.0
H1817 H 0.09644 0.7721 0.46245 0.0
C1818 C 0.33709 0.05524 0.72005 0.0
C1819 C 0.32632 0.04199 0.715 0.0
C1820 C 0.33499 0.06221 0.73316 0.0
C1821 C 0.30723 0.06366 0.75697 0.0
H1822 H 0.33733 0.08429 0.78826 0.0
C1823 C 0.3075 0.10421 0.80208 0.0
C1824 C 0.31278 0.10503 0.81808 0.0
C1825 C 0.3084 0.09553 0.79021 0.0
C1826 C 0.32876 0.07846 0.77975 0.0
H1827 H 0.30491 0.02564 0.71967 0.0
H1828 H 0.30125 0.03777 0.74267 0.0
H1829 H 0.34038 0.07093 0.76635 0.0
H1830 H 0.3228 0.09705 0.83428 0.0
H1831 H 0.32437 0.08183 0.81353 0.0
H1832 H 0.29557 0.07109 0.77047 0.0
C1833 C 0.31128 0.04284 0.73639 0.0
C1834 C 0.33057 0.07094 0.76706 0.0
C1835 C 0.31338 0.03586 0.72327 0.0
C1836 C 0.3188 0.09679 0.822 0.0
C1837 C 0.3197 0.08808 0.81012 0.0
C1838 C 0.30542 0.07119 0.76966 0.0
C1839 C 0.32207 0.05608 0.74152 0.0
C1840 C 0.31989 0.06356 0.75542 0.0
C1841 C 0.31462 0.08744 0.79404 0.0
C1842 C 0.31621 0.07878 0.78111 0.0
H1843 H 0.34717 0.06025 0.71389 0.0
H1844 H 0.34345 0.07248 0.73662 0.0
H1845 H 0.29883 0.05817 0.74815 0.0
H1846 H 0.30301 0.1106 0.79856 0.0
H1847 H 0.3046 0.09546 0.77787 0.0
C1848 C 0.95001 0.28513 0.72839 0.0
C1849 C 0.96114 0.28529 0.71978 0.0
C1850 C 0.94381 0.27616 0.74177 0.0
C1851 C 0.93929 0.24359 0.76042 0.0
H1852 H 0.92475 0.25519 0.79695 0.0
C1853 C 0.898 0.20398 0.80539 0.0
C1854 C 0.89812 0.20791 0.8219 0.0
C1855 C 0.90728 0.21363 0.79393 0.0
C1856 C 0.92892 0.25181 0.78701 0.0
H1857 H 0.97469 0.27635 0.71859 0.0
H1858 H 0.96405 0.26083 0.74227 0.0
H1859 H 0.93841 0.27196 0.7756 0.0
H1860 H 0.90839 0.22487 0.83951 0.0
H1861 H 0.92484 0.24168 0.81959 0.0
H1862 H 0.93002 0.2235 0.77202 0.0
C1863 C 0.95993 0.26747 0.73847 0.0
C1864 C 0.93659 0.26139 0.7746 0.0
C1865 C 0.96608 0.2764 0.72497 0.0
C1866 C 0.90796 0.2216 0.82682 0.0
C1867 C 0.91735 0.23123 0.81538 0.0
C1868 C 0.93171 0.23402 0.77291 0.0
C1869 C 0.94866 0.26719 0.747 0.0
C1870 C 0.94164 0.25734 0.76096 0.0
C1871 C 0.91699 0.22743 0.79873 0.0
C1872 C 0.92618 0.23793 0.78621 0.0
H1873 H 0.94591 0.29181 0.72463 0.0
H1874 H 0.93498 0.27606 0.74778 0.0
H1875 H 0.94293 0.24005 0.75007 0.0
H1876 H 0.89039 0.19356 0.80118 0.0
H1877 H 0.90648 0.21037 0.78119 0.0
C1878 C 0.71826 0.66337 0.71625 0.0
C1879 C 0.71187 0.67162 0.71587 0.0
C1880 C 0.72674 0.66427 0.7295 0.0
C1881 C 0.74665 0.68658 0.76513 0.0
H1882 H 0.74563 0.65249 0.77916 0.0
C1883 C 0.77631 0.68249 0.82254 0.0
C1884 C 0.78453 0.67628 0.81922 0.0
C1885 C 0.76688 0.68217 0.81074 0.0
C1886 C 0.74602 0.66209 0.77535 0.0
H1887 H 0.70938 0.68735 0.72899 0.0
H1888 H 0.72393 0.68868 0.75245 0.0
H1889 H 0.73012 0.65149 0.75716 0.0
H1890 H 0.78945 0.66523 0.80058 0.0
H1891 H 0.77268 0.66426 0.78042 0.0
H1892 H 0.76249 0.69707 0.78363 0.0
C1893 C 0.72262 0.6817 0.74234 0.0
C1894 C 0.73721 0.66156 0.76268 0.0
C1895 C 0.71424 0.68091 0.72894 0.0
C1896 C 0.78306 0.66979 0.80382 0.0
C1897 C 0.77351 0.66929 0.79218 0.0
C1898 C 0.75535 0.68707 0.77799 0.0
C1899 C 0.72889 0.6733 0.74284 0.0
C1900 C 0.73761 0.67383 0.75715 0.0
C1901 C 0.76533 0.67546 0.79552 0.0
C1902 C 0.75529 0.67486 0.78298 0.0
H1903 H 0.71672 0.6562 0.70627 0.0
H1904 H 0.73167 0.6579 0.72922 0.0
H1905 H 0.74734 0.69626 0.76112 0.0
H1906 H 0.77703 0.68745 0.83431 0.0
H1907 H 0.76062 0.68695 0.81361 0.0
C1908 C 0.70128 0.64833 0.63074 0.0
C1909 C 0.70493 0.66164 0.63688 0.0
C1910 C 0.70865 0.64698 0.61748 0.0
C1911 C 0.74267 0.66651 0.59582 0.0
H1912 H 0.72413 0.63845 0.56172 0.0
C1913 C 0.77229 0.66555 0.53823 0.0
C1914 C 0.77075 0.65251 0.53391 0.0
C1915 C 0.76334 0.6664 0.54975 0.0
C1916 C 0.72944 0.64628 0.57122 0.0
H1917 H 0.71885 0.68397 0.63369 0.0
H1918 H 0.73148 0.68165 0.61042 0.0
H1919 H 0.71027 0.64046 0.584 0.0
H1920 H 0.75822 0.63009 0.53782 0.0
H1921 H 0.74248 0.63158 0.55791 0.0
H1922 H 0.76181 0.67236 0.58308 0.0
C1923 C 0.72317 0.67222 0.61604 0.0
C1924 C 0.72152 0.64741 0.584 0.0
C1925 C 0.71588 0.67356 0.62933 0.0
C1926 C 0.75962 0.64028 0.5408 0.0
C1927 C 0.75062 0.64113 0.55231 0.0
C1928 C 0.75054 0.66543 0.58304 0.0
C1929 C 0.71977 0.65892 0.61006 0.0
C1930 C 0.72805 0.65757 0.59643 0.0
C1931 C 0.7526 0.65423 0.55717 0.0
C1932 C 0.74403 0.65534 0.57058 0.0
H1933 H 0.69289 0.63896 0.63635 0.0
H1934 H 0.70584 0.63657 0.61331 0.0
H1935 H 0.7481 0.67424 0.60538 0.0
H1936 H 0.78057 0.67514 0.53287 0.0
H1937 H 0.76494 0.67662 0.553 0.0
C1938 C 0.35374 0.05531 0.62996 0.0
C1939 C 0.34049 0.04779 0.63745 0.0
C1940 C 0.35584 0.06417 0.6166 0.0
C1941 C 0.35919 0.08842 0.59535 0.0
H1942 H 0.32988 0.07752 0.56259 0.0
C1943 C 0.3577 0.12781 0.54993 0.0
C1944 C 0.35277 0.1233 0.53382 0.0
C1945 C 0.35716 0.11835 0.56174 0.0
C1946 C 0.33825 0.08067 0.5715 0.0
H1947 H 0.31909 0.04369 0.63689 0.0
H1948 H 0.32279 0.05927 0.61382 0.0
H1949 H 0.32708 0.06126 0.58452 0.0
H1950 H 0.34384 0.10541 0.51733 0.0
H1951 H 0.34298 0.08888 0.53795 0.0
H1952 H 0.37042 0.10777 0.5822 0.0
C1953 C 0.33151 0.05817 0.61803 0.0
C1954 C 0.33657 0.07141 0.58421 0.0
C1955 C 0.32941 0.0493 0.63134 0.0
C1956 C 0.34755 0.10916 0.5297 0.0
C1957 C 0.34704 0.0997 0.54152 0.0
C1958 C 0.36089 0.09767 0.58261 0.0
C1959 C 0.34474 0.0657 0.61047 0.0
C1960 C 0.34693 0.07524 0.59642 0.0
C1961 C 0.35171 0.10415 0.55774 0.0
C1962 C 0.35037 0.09397 0.57064 0.0
H1963 H 0.36247 0.05431 0.63438 0.0
H1964 H 0.36613 0.06971 0.61096 0.0
H1965 H 0.36734 0.09175 0.60461 0.0
H1966 H 0.36157 0.13858 0.55358 0.0
H1967 H 0.36061 0.1221 0.57417 0.0
C1968 C 0.95094 0.29816 0.62523 0.0
C1969 C 0.94865 0.2917 0.64074 0.0
C1970 C 0.94178 0.29124 0.61214 0.0
C1971 C 0.90599 0.2651 0.60224 0.0
H1972 H 0.92086 0.25835 0.56213 0.0
C1973 C 0.86962 0.22602 0.55333 0.0
C1974 C 0.87359 0.22836 0.53667 0.0
C1975 C 0.8788 0.2346 0.56559 0.0
C1976 C 0.91652 0.26037 0.57306 0.0
H1977 H 0.93491 0.27312 0.65488 0.0
H1978 H 0.91863 0.2612 0.63207 0.0
H1979 H 0.9368 0.27208 0.58433 0.0
H1980 H 0.89007 0.24162 0.51965 0.0
H1981 H 0.90596 0.2571 0.541 0.0
H1982 H 0.88579 0.25381 0.59101 0.0
C1983 C 0.92759 0.27154 0.63004 0.0
C1984 C 0.92567 0.26817 0.58581 0.0
C1985 C 0.93691 0.27832 0.64304 0.0
C1986 C 0.88683 0.23959 0.53245 0.0
C1987 C 0.89594 0.24837 0.54471 0.0
C1988 C 0.89686 0.25755 0.58939 0.0
C1989 C 0.93003 0.27788 0.61446 0.0
C1990 C 0.92045 0.27041 0.60059 0.0
C1991 C 0.89209 0.24593 0.56149 0.0
C1992 C 0.90196 0.25485 0.57471 0.0
H1993 H 0.95995 0.30845 0.62313 0.0
H1994 H 0.94383 0.29633 0.60022 0.0
H1995 H 0.90176 0.26684 0.61348 0.0
H1996 H 0.85954 0.21728 0.5569 0.0
H1997 H 0.87554 0.23212 0.57833 0.0
C1998 C 0.35054 0.29943 0.62483 0.0
C1999 C 0.33812 0.29303 0.63414 0.0
C2000 C 0.35214 0.2925 0.61126 0.0
C2001 C 0.33187 0.26393 0.58155 0.0
H2002 H 0.36621 0.26261 0.57709 0.0
C2003 C 0.33524 0.22301 0.54099 0.0
C2004 C 0.34762 0.22702 0.53206 0.0
C2005 C 0.33449 0.2322 0.55223 0.0
C2006 C 0.35664 0.26306 0.57798 0.0
H2007 H 0.3176 0.27445 0.63651 0.0
H2008 H 0.32039 0.26239 0.61293 0.0
H2009 H 0.3642 0.27676 0.59891 0.0
H2010 H 0.36883 0.24396 0.5277 0.0
H2011 H 0.36751 0.26006 0.54736 0.0
H2012 H 0.32422 0.25014 0.56077 0.0
C2013 C 0.32885 0.27279 0.61597 0.0
C2014 C 0.35549 0.27116 0.5905 0.0
C2015 C 0.32729 0.27966 0.62955 0.0
C2016 C 0.3592 0.2405 0.53454 0.0
C2017 C 0.35845 0.24972 0.5458 0.0
C2018 C 0.33302 0.25588 0.56902 0.0
C2019 C 0.34131 0.2791 0.6067 0.0
C2020 C 0.343 0.27148 0.59259 0.0
C2021 C 0.34609 0.24564 0.55482 0.0
C2022 C 0.34533 0.25515 0.56727 0.0
H2023 H 0.35906 0.30974 0.62808 0.0
H2024 H 0.36182 0.29766 0.60427 0.0
H2025 H 0.3222 0.26418 0.58266 0.0
H2026 H 0.32622 0.21262 0.53962 0.0
H2027 H 0.32491 0.22861 0.55921 0.0
C2028 C 0.71973 0.04843 0.63324 0.0
C2029 C 0.70616 0.04548 0.63747 0.0
C2030 C 0.72672 0.05708 0.61983 0.0
C2031 C 0.72751 0.08488 0.59409 0.0
H2032 H 0.75021 0.07627 0.56514 0.0
C2033 C 0.76924 0.12571 0.55058 0.0
C2034 C 0.77074 0.12135 0.53478 0.0
C2035 C 0.76029 0.11598 0.56217 0.0
C2036 C 0.74379 0.07874 0.57299 0.0
H2037 H 0.68919 0.04913 0.63092 0.0
H2038 H 0.7014 0.06421 0.60741 0.0
H2039 H 0.73644 0.05988 0.58695 0.0
H2040 H 0.76375 0.10336 0.51866 0.0
H2041 H 0.74812 0.08632 0.53899 0.0
H2042 H 0.73484 0.10372 0.58011 0.0
C2043 C 0.70668 0.05995 0.61457 0.0
C2044 C 0.73603 0.06944 0.5856 0.0
C2045 C 0.69968 0.05128 0.62798 0.0
C2046 C 0.76296 0.10703 0.53079 0.0
C2047 C 0.75401 0.09728 0.54242 0.0
C2048 C 0.73529 0.0942 0.5815 0.0
C2049 C 0.72029 0.06297 0.61036 0.0
C2050 C 0.72793 0.07247 0.59641 0.0
C2051 C 0.75264 0.10165 0.55827 0.0
C2052 C 0.74364 0.09131 0.57093 0.0
H2053 H 0.725 0.04412 0.64035 0.0
H2054 H 0.73727 0.05936 0.61706 0.0
H2055 H 0.72146 0.08757 0.60227 0.0
H2056 H 0.77528 0.13662 0.55417 0.0
H2057 H 0.75967 0.11966 0.57436 0.0
C2058 C 0.95144 0.67041 0.63023 0.0
C2059 C 0.95087 0.65891 0.63837 0.0
C2060 C 0.94302 0.6684 0.61647 0.0
C2061 C 0.91034 0.64272 0.59651 0.0
H2062 H 0.92607 0.66696 0.55843 0.0
C2063 C 0.87643 0.63726 0.53963 0.0
C2064 C 0.87823 0.64987 0.53315 0.0
C2065 C 0.88597 0.63738 0.5511 0.0
C2066 C 0.92148 0.66016 0.56901 0.0
H2067 H 0.94098 0.63627 0.63858 0.0
H2068 H 0.92609 0.63273 0.61455 0.0
H2069 H 0.94126 0.66907 0.58144 0.0
H2070 H 0.89185 0.67243 0.53301 0.0
H2071 H 0.90821 0.67269 0.55328 0.0
H2072 H 0.89049 0.63411 0.58438 0.0
C2073 C 0.93309 0.6433 0.61884 0.0
C2074 C 0.9302 0.66137 0.58217 0.0
C2075 C 0.94163 0.64532 0.63255 0.0
C2076 C 0.89004 0.66255 0.53794 0.0
C2077 C 0.89954 0.66267 0.54943 0.0
C2078 C 0.90159 0.64158 0.5834 0.0
C2079 C 0.93376 0.65483 0.61062 0.0
C2080 C 0.92468 0.65281 0.59616 0.0
C2081 C 0.89751 0.65011 0.55635 0.0
C2082 C 0.90702 0.65044 0.56959 0.0
H2083 H 0.95847 0.68101 0.63443 0.0
H2084 H 0.94362 0.67747 0.61053 0.0
H2085 H 0.90578 0.63607 0.6072 0.0
H2086 H 0.8674 0.62732 0.53628 0.0
H2087 H 0.8842 0.6275 0.55601 0.0
C2088 C 0.9616 0.6862 0.72311 0.0
C2089 C 0.95753 0.67265 0.71747 0.0
C2090 C 0.95502 0.68813 0.73681 0.0
C2091 C 0.93461 0.67009 0.77384 0.0
H2092 H 0.92078 0.69613 0.77131 0.0
C2093 C 0.89292 0.66768 0.8185 0.0
C2094 C 0.89332 0.68016 0.82308 0.0
C2095 C 0.90235 0.66782 0.80689 0.0
C2096 C 0.9248 0.68901 0.77238 0.0
H2097 H 0.94343 0.65049 0.72174 0.0
H2098 H 0.932 0.65384 0.74564 0.0
H2099 H 0.93428 0.69453 0.74843 0.0
H2100 H 0.90429 0.70266 0.8194 0.0
H2101 H 0.92103 0.70296 0.79949 0.0
H2102 H 0.92513 0.66451 0.79772 0.0
C2103 C 0.94032 0.66298 0.73955 0.0
C2104 C 0.9325 0.68807 0.75923 0.0
C2105 C 0.94679 0.66106 0.72579 0.0
C2106 C 0.90374 0.69286 0.81623 0.0
C2107 C 0.91323 0.69301 0.80466 0.0
C2108 C 0.92701 0.6711 0.78703 0.0
C2109 C 0.94436 0.67652 0.74521 0.0
C2110 C 0.93725 0.67841 0.7597 0.0
C2111 C 0.9125 0.68046 0.79964 0.0
C2112 C 0.92177 0.68038 0.78634 0.0
H2113 H 0.96987 0.69532 0.71694 0.0
H2114 H 0.95837 0.69868 0.74096 0.0
H2115 H 0.93835 0.66272 0.77465 0.0
H2116 H 0.88517 0.65773 0.82371 0.0
H2117 H 0.90137 0.65793 0.80323 0.0
C2118 C 0.33787 0.28338 0.71931 0.0
C2119 C 0.32714 0.28617 0.71522 0.0
C2120 C 0.33619 0.27443 0.73234 0.0
C2121 C 0.31561 0.2584 0.77016 0.0
H2122 H 0.32927 0.23244 0.76413 0.0
C2123 C 0.30516 0.21401 0.81649 0.0
C2124 C 0.31647 0.21185 0.8197 0.0
C2125 C 0.3062 0.2234 0.80423 0.0
C2126 C 0.32553 0.23972 0.76608 0.0
H2127 H 0.30627 0.2819 0.72165 0.0
H2128 H 0.30324 0.26606 0.74439 0.0
H2129 H 0.33135 0.248 0.7417 0.0
H2130 H 0.33777 0.21794 0.81265 0.0
H2131 H 0.33965 0.23444 0.7915 0.0
H2132 H 0.30974 0.24999 0.79458 0.0
C2133 C 0.31302 0.27093 0.73761 0.0
C2134 C 0.32672 0.24865 0.75322 0.0
C2135 C 0.31472 0.27993 0.72454 0.0
C2136 C 0.32892 0.21947 0.81061 0.0
C2137 C 0.32994 0.2288 0.79835 0.0
C2138 C 0.31438 0.24942 0.78304 0.0
C2139 C 0.32372 0.26801 0.74158 0.0
C2140 C 0.32191 0.25819 0.75515 0.0
C2141 C 0.31854 0.23074 0.79487 0.0
C2142 C 0.31946 0.24008 0.78118 0.0
H2143 H 0.34761 0.28811 0.71242 0.0
H2144 H 0.34474 0.27261 0.73526 0.0
H2145 H 0.31192 0.26572 0.77209 0.0
H2146 H 0.29548 0.20837 0.82339 0.0
H2147 H 0.29722 0.22464 0.80178 0.0
C2148 C 0.71955 0.03477 0.72538 0.0
C2149 C 0.71252 0.04051 0.71684 0.0
C2150 C 0.72883 0.04225 0.73821 0.0
C2151 C 0.7505 0.07829 0.75402 0.0
H2152 H 0.75089 0.06018 0.79483 0.0
C2153 C 0.78041 0.11017 0.81095 0.0
C2154 C 0.78832 0.10563 0.81989 0.0
C2155 C 0.77106 0.10171 0.79874 0.0
C2156 C 0.751 0.06535 0.78343 0.0
H2157 H 0.7095 0.05844 0.71518 0.0
H2158 H 0.72553 0.07137 0.73756 0.0
H2159 H 0.73483 0.04629 0.77268 0.0
H2160 H 0.79233 0.08846 0.82328 0.0
H2161 H 0.77609 0.07372 0.80173 0.0
H2162 H 0.7666 0.09732 0.76469 0.0
C2163 C 0.72408 0.06122 0.73423 0.0
C2164 C 0.74181 0.0574 0.77075 0.0
C2165 C 0.71483 0.05377 0.72146 0.0
C2166 C 0.78648 0.09231 0.81651 0.0
C2167 C 0.77709 0.08381 0.80428 0.0
C2168 C 0.75965 0.08621 0.76665 0.0
C2169 C 0.73127 0.05561 0.74268 0.0
C2170 C 0.74137 0.06382 0.75597 0.0
C2171 C 0.7694 0.0885 0.79513 0.0
C2172 C 0.75992 0.07987 0.78157 0.0
H2173 H 0.71797 0.02457 0.72207 0.0
H2174 H 0.73429 0.03769 0.74441 0.0
H2175 H 0.75063 0.0835 0.74265 0.0
H2176 H 0.78168 0.12043 0.81309 0.0
H2177 H 0.76515 0.10555 0.79208 0.0
C2178 C 0.02688 0.34005 0.05065 0.0
C2179 C 0.02869 0.34396 0.03395 0.0
C2180 C 0.03666 0.33767 0.05873 0.0
C2181 C 0.06285 0.32736 0.0526 0.0
H2182 H 0.07769 0.34596 0.09448 0.0
C2183 C 0.1064 0.32324 0.08778 0.0
C2184 C 0.10591 0.32314 0.10509 0.0
C2185 C 0.09712 0.32568 0.07857 0.0
C2186 C 0.0735 0.34049 0.08294 0.0
H2187 H 0.04198 0.34823 0.01251 0.0
H2188 H 0.05903 0.34374 0.02665 0.0
H2189 H 0.06126 0.35039 0.07931 0.0
H2190 H 0.09502 0.32491 0.12636 0.0
H2191 H 0.07848 0.32865 0.11038 0.0
H2192 H 0.0747 0.31707 0.05642 0.0
C2193 C 0.05006 0.34264 0.03345 0.0
C2194 C 0.06416 0.34312 0.07421 0.0
C2195 C 0.04037 0.34526 0.0254 0.0
C2196 C 0.09572 0.32512 0.11302 0.0
C2197 C 0.08632 0.32736 0.10384 0.0
C2198 C 0.07205 0.32455 0.06145 0.0
C2199 C 0.04834 0.33895 0.05022 0.0
C2200 C 0.05869 0.33653 0.05902 0.0
C2201 C 0.08703 0.3279 0.08649 0.0
C2202 C 0.07743 0.33101 0.07681 0.0
H2203 H 0.01798 0.33898 0.05756 0.0
H2204 H 0.03504 0.33472 0.07163 0.0
H2205 H 0.05867 0.32207 0.04095 0.0
H2206 H 0.11426 0.32185 0.08139 0.0
H2207 H 0.09811 0.32619 0.06526 0.0
C2208 C 0.64592 0.68898 0.02789 0.0
C2209 C 0.65174 0.68111 0.03399 0.0
C2210 C 0.64877 0.70147 0.03563 0.0
C2211 C 0.67374 0.72856 0.06469 0.0
H2212 H 0.64403 0.73739 0.06965 0.0
C2213 C 0.67772 0.77176 0.10844 0.0
C2214 C 0.67295 0.78056 0.10236 0.0
C2215 C 0.67555 0.76002 0.09947 0.0
C2216 C 0.65247 0.73513 0.0682 0.0
H2217 H 0.66498 0.68002 0.05303 0.0
H2218 H 0.66967 0.70156 0.06674 0.0
H2219 H 0.63932 0.71608 0.05519 0.0
H2220 H 0.66248 0.78409 0.0818 0.0
H2221 H 0.65847 0.76346 0.06632 0.0
H2222 H 0.68679 0.7475 0.07804 0.0
C2223 C 0.66318 0.69832 0.05578 0.0
C2224 C 0.64979 0.72294 0.05988 0.0
C2225 C 0.66041 0.68591 0.04799 0.0
C2226 C 0.66605 0.7774 0.08701 0.0
C2227 C 0.66378 0.7656 0.07811 0.0
C2228 C 0.67638 0.74069 0.07312 0.0
C2229 C 0.65743 0.70628 0.04968 0.0
C2230 C 0.66038 0.71947 0.05809 0.0
C2231 C 0.66846 0.75677 0.08427 0.0
C2232 C 0.66576 0.74407 0.07501 0.0
H2233 H 0.63925 0.68555 0.01707 0.0
H2234 H 0.64432 0.70743 0.03048 0.0
H2235 H 0.68222 0.72636 0.06327 0.0
H2236 H 0.68288 0.77376 0.12032 0.0
H2237 H 0.67912 0.7533 0.10461 0.0
C2238 C 0.30552 0.9583 0.02575 0.0
C2239 C 0.31341 0.97191 0.03218 0.0
C2240 C 0.29299 0.94851 0.03333 0.0
C2241 C 0.26582 0.94558 0.0627 0.0
H2242 H 0.25848 0.90761 0.06842 0.0
C2243 C 0.22459 0.90652 0.10836 0.0
C2244 C 0.21621 0.89259 0.10306 0.0
C2245 C 0.23583 0.91616 0.09873 0.0
C2246 C 0.2603 0.91813 0.06674 0.0
H2247 H 0.31438 0.98599 0.05148 0.0
H2248 H 0.29271 0.9689 0.06484 0.0
H2249 H 0.27921 0.92449 0.0532 0.0
H2250 H 0.21282 0.87797 0.08325 0.0
H2251 H 0.23253 0.89476 0.06657 0.0
H2252 H 0.24703 0.93926 0.07654 0.0
C2253 C 0.29601 0.96582 0.0538 0.0
C2254 C 0.27216 0.92779 0.05799 0.0
C2255 C 0.30849 0.97559 0.04621 0.0
C2256 C 0.21923 0.88856 0.08784 0.0
C2257 C 0.23049 0.89817 0.07826 0.0
C2258 C 0.25399 0.93594 0.07151 0.0
C2259 C 0.28814 0.95215 0.0475 0.0
C2260 C 0.27512 0.94167 0.05599 0.0
C2261 C 0.23895 0.91205 0.08364 0.0
C2262 C 0.25118 0.92214 0.07373 0.0
H2263 H 0.30904 0.9552 0.01491 0.0
H2264 H 0.28708 0.93812 0.02805 0.0
H2265 H 0.26766 0.95612 0.06113 0.0
H2266 H 0.22267 0.90992 0.12011 0.0
H2267 H 0.24228 0.92674 0.1033 0.0
C2268 C 0.3558 0.04592 0.99029 0.0
C2269 C 0.34461 0.0322 0.99245 0.0
C2270 C 0.35371 0.05582 0.98196 0.0
C2271 C 0.32729 0.06485 0.97016 0.0
H2272 H 0.35093 0.08273 0.93212 0.0
C2273 C 0.31454 0.09645 0.92376 0.0
C2274 C 0.32576 0.1084 0.91653 0.0
C2275 C 0.31699 0.08738 0.93336 0.0
C2276 C 0.34438 0.07806 0.94286 0.0
H2277 H 0.32241 0.01817 0.98824 0.0
H2278 H 0.31871 0.03559 0.97407 0.0
H2279 H 0.35523 0.06717 0.94929 0.0
H2280 H 0.34839 0.11995 0.9135 0.0
H2281 H 0.35269 0.10465 0.93089 0.0
H2282 H 0.31661 0.07591 0.96408 0.0
C2283 C 0.32908 0.03863 0.97867 0.0
C2284 C 0.34684 0.06911 0.95265 0.0
C2285 C 0.33122 0.02868 0.9867 0.0
C2286 C 0.33948 0.11099 0.91908 0.0
C2287 C 0.34195 0.10205 0.92888 0.0
C2288 C 0.32496 0.07399 0.96054 0.0
C2289 C 0.34036 0.05221 0.97598 0.0
C2290 C 0.33825 0.06234 0.96629 0.0
C2291 C 0.33074 0.09013 0.93617 0.0
C2292 C 0.3334 0.08062 0.94666 0.0
H2293 H 0.36624 0.04888 0.99456 0.0
H2294 H 0.36255 0.06627 0.98009 0.0
H2295 H 0.32059 0.05981 0.9807 0.0
H2296 H 0.30384 0.09417 0.92225 0.0
H2297 H 0.30806 0.07818 0.93851 0.0
C2298 C 0.97478 0.30799 0.9783 0.0
C2299 C 0.97091 0.31298 0.99211 0.0
C2300 C 0.96514 0.29542 0.97077 0.0
C2301 C 0.9271 0.2714 0.96621 0.0
H2302 H 0.93895 0.24659 0.94767 0.0
C2303 C 0.88828 0.21855 0.93584 0.0
C2304 C 0.89243 0.21568 0.9206 0.0
C2305 C 0.89779 0.22979 0.94554 0.0
C2306 C 0.93552 0.25346 0.9527 0.0
H2307 H 0.95401 0.30858 0.00912 0.0
H2308 H 0.93717 0.28644 0.99611 0.0
H2309 H 0.95563 0.26716 0.96331 0.0
H2310 H 0.9099 0.22239 0.90368 0.0
H2311 H 0.92655 0.24192 0.92073 0.0
H2312 H 0.90699 0.25768 0.95556 0.0
C2313 C 0.94761 0.29238 0.99093 0.0
C2314 C 0.94506 0.26526 0.96165 0.0
C2315 C 0.95727 0.30501 0.99844 0.0
C2316 C 0.9064 0.22419 0.91544 0.0
C2317 C 0.91593 0.23538 0.92519 0.0
C2318 C 0.91754 0.25956 0.95734 0.0
C2319 C 0.95141 0.2875 0.97691 0.0
C2320 C 0.94102 0.27446 0.96835 0.0
C2321 C 0.9117 0.23836 0.94029 0.0
C2322 C 0.92169 0.25055 0.95035 0.0
H2323 H 0.98521 0.31393 0.9731 0.0
H2324 H 0.96836 0.29211 0.95985 0.0
H2325 H 0.92368 0.27837 0.97098 0.0
H2326 H 0.87767 0.21205 0.94034 0.0
H2327 H 0.89428 0.2317 0.95723 0.0
C2328 C 0.69121 0.66439 0.98462 0.0
C2329 C 0.68166 0.65094 0.99051 0.0
C2330 C 0.70346 0.66695 0.97659 0.0
C2331 C 0.72744 0.6531 0.97038 0.0
H2332 H 0.73806 0.67612 0.93099 0.0
C2333 C 0.77078 0.65838 0.92578 0.0
C2334 C 0.77983 0.67171 0.91913 0.0
C2335 C 0.75913 0.65598 0.93512 0.0
C2336 C 0.73535 0.66982 0.94208 0.0
H2337 H 0.67755 0.62965 0.99287 0.0
H2338 H 0.699 0.63409 0.97866 0.0
H2339 H 0.71709 0.67152 0.94612 0.0
H2340 H 0.7838 0.69299 0.91718 0.0
H2341 H 0.76356 0.68885 0.9337 0.0
H2342 H 0.7457 0.65136 0.96623 0.0
C2343 C 0.69704 0.64269 0.9804 0.0
C2344 C 0.72332 0.66717 0.95076 0.0
C2345 C 0.68474 0.64012 0.98847 0.0
C2346 C 0.77708 0.68263 0.92222 0.0
C2347 C 0.7654 0.68022 0.93154 0.0
C2348 C 0.73949 0.65575 0.96168 0.0
C2349 C 0.70646 0.65611 0.97422 0.0
C2350 C 0.71923 0.6588 0.96502 0.0
C2351 C 0.75625 0.66684 0.93801 0.0
C2352 C 0.74358 0.66415 0.94744 0.0
H2353 H 0.68917 0.67297 0.98609 0.0
H2354 H 0.71061 0.67745 0.97224 0.0
H2355 H 0.72467 0.64675 0.98143 0.0
H2356 H 0.77272 0.6498 0.9238 0.0
H2357 H 0.75223 0.64554 0.93981 0.0
C2358 C 0.95429 0.64743 0.99477 0.0
C2359 C 0.96867 0.6568 0.99245 0.0
C2360 C 0.94432 0.64996 0.98739 0.0
C2361 C 0.93903 0.67746 0.96916 0.0
H2362 H 0.90956 0.64691 0.94416 0.0
C2363 C 0.9037 0.68576 0.92332 0.0
C2364 C 0.88968 0.67503 0.92172 0.0
C2365 C 0.91304 0.68379 0.93304 0.0
C2366 C 0.91755 0.6555 0.95131 0.0
H2367 H 0.98392 0.67638 0.98108 0.0
H2368 H 0.96648 0.68087 0.96833 0.0
H2369 H 0.92623 0.64306 0.95965 0.0
H2370 H 0.87426 0.65409 0.92952 0.0
H2371 H 0.89041 0.65074 0.94682 0.0
H2372 H 0.93031 0.68991 0.96095 0.0
C2373 C 0.96293 0.67157 0.97582 0.0
C2374 C 0.92713 0.65328 0.96015 0.0
C2375 C 0.9729 0.66896 0.98304 0.0
C2376 C 0.88508 0.66244 0.93034 0.0
C2377 C 0.89436 0.66053 0.9402 0.0
C2378 C 0.92936 0.67966 0.96044 0.0
C2379 C 0.94855 0.662 0.97773 0.0
C2380 C 0.93802 0.66426 0.96906 0.0
C2381 C 0.90851 0.6711 0.94152 0.0
C2382 C 0.91855 0.66872 0.9513 0.0
H2383 H 0.95073 0.63798 0.00198 0.0
H2384 H 0.93329 0.64248 0.98918 0.0
H2385 H 0.94726 0.68607 0.97607 0.0
H2386 H 0.90752 0.69553 0.91669 0.0
H2387 H 0.92389 0.69209 0.93357 0.0
C2388 C 0.35602 0.31192 0.98992 0.0
C2389 C 0.34506 0.31481 0.99181 0.0
C2390 C 0.35372 0.29983 0.98164 0.0
C2391 C 0.32685 0.26453 0.96994 0.0
H2392 H 0.35103 0.26929 0.9328 0.0
C2393 C 0.31431 0.21924 0.92485 0.0
C2394 C 0.32556 0.2183 0.91808 0.0
C2395 C 0.31674 0.23091 0.93418 0.0
C2396 C 0.34432 0.26769 0.9433 0.0
H2397 H 0.32303 0.30718 0.98708 0.0
H2398 H 0.31894 0.28586 0.97297 0.0
H2399 H 0.35539 0.28956 0.94928 0.0
H2400 H 0.34824 0.22912 0.91571 0.0
H2401 H 0.35249 0.24897 0.93267 0.0
H2402 H 0.31596 0.24265 0.96434 0.0
C2403 C 0.32931 0.29301 0.97775 0.0
C2404 C 0.34681 0.27933 0.95268 0.0
C2405 C 0.33167 0.30521 0.98574 0.0
C2406 C 0.3393 0.22933 0.92093 0.0
C2407 C 0.34174 0.24088 0.93046 0.0
C2408 C 0.32449 0.25283 0.96073 0.0
C2409 C 0.34036 0.29032 0.97543 0.0
C2410 C 0.33804 0.27786 0.966 0.0
C2411 C 0.3305 0.24186 0.93718 0.0
C2412 C 0.33314 0.25427 0.94721 0.0
H2413 H 0.36645 0.31917 0.99446 0.0
H2414 H 0.36238 0.29792 0.98006 0.0
H2415 H 0.32001 0.26314 0.98025 0.0
H2416 H 0.30359 0.2109 0.92313 0.0
H2417 H 0.3078 0.23136 0.93892 0.0
C2418 C 0.69281 0.04243 0.99695 0.0
C2419 C 0.68465 0.02862 0.99119 0.0
C2420 C 0.70497 0.05199 0.98854 0.0
C2421 C 0.721 0.05884 0.94743 0.0
H2422 H 0.75559 0.08372 0.97039 0.0
C2423 C 0.77244 0.0937 0.9123 0.0
C2424 C 0.78125 0.10736 0.91825 0.0
C2425 C 0.7609 0.08405 0.92151 0.0
C2426 C 0.74597 0.07697 0.9638 0.0
H2427 H 0.68295 0.01391 0.9723 0.0
H2428 H 0.70414 0.03059 0.95763 0.0
H2429 H 0.73503 0.06703 0.98609 0.0
H2430 H 0.7849 0.12145 0.93875 0.0
H2431 H 0.76452 0.10478 0.95453 0.0
H2432 H 0.73176 0.06885 0.92519 0.0
C2433 C 0.70109 0.03406 0.96857 0.0
C2434 C 0.73421 0.0674 0.97281 0.0
C2435 C 0.689 0.0245 0.97702 0.0
C2436 C 0.77824 0.11109 0.93367 0.0
C2437 C 0.76665 0.10146 0.94284 0.0
C2438 C 0.73271 0.06846 0.93845 0.0
C2439 C 0.70913 0.04794 0.97414 0.0
C2440 C 0.72162 0.0582 0.9647 0.0
C2441 C 0.75782 0.08782 0.93686 0.0
C2442 C 0.74536 0.07762 0.9465 0.0
H2443 H 0.6897 0.0459 0.00784 0.0
H2444 H 0.71093 0.06265 0.99306 0.0
H2445 H 0.71137 0.05204 0.94087 0.0
H2446 H 0.77435 0.0905 0.9004 0.0
H2447 H 0.75444 0.07359 0.91661 0.0
C2448 C 0.65015 0.95825 0.02849 0.0
C2449 C 0.65514 0.97168 0.03518 0.0
C2450 C 0.65268 0.94853 0.03653 0.0
C2451 C 0.66067 0.94005 0.0775 0.0
H2452 H 0.67241 0.91739 0.05322 0.0
C2453 C 0.67786 0.90495 0.11063 0.0
C2454 C 0.67345 0.89165 0.10386 0.0
C2455 C 0.67594 0.91481 0.10199 0.0
C2456 C 0.66898 0.92352 0.06016 0.0
H2457 H 0.66682 0.98551 0.05542 0.0
H2458 H 0.67122 0.96856 0.06943 0.0
H2459 H 0.66833 0.93432 0.03852 0.0
H2460 H 0.6638 0.8784 0.08248 0.0
H2461 H 0.66007 0.89543 0.06762 0.0
H2462 H 0.66113 0.92919 0.0991 0.0
C2463 C 0.66526 0.9655 0.05806 0.0
C2464 C 0.66666 0.93322 0.05173 0.0
C2465 C 0.6628 0.97523 0.04998 0.0
C2466 C 0.66716 0.88848 0.08816 0.0
C2467 C 0.66519 0.89832 0.07954 0.0
C2468 C 0.66291 0.93031 0.08591 0.0
C2469 C 0.66017 0.95202 0.05147 0.0
C2470 C 0.66252 0.94162 0.06032 0.0
C2471 C 0.6695 0.91158 0.08637 0.0
C2472 C 0.66713 0.92195 0.07736 0.0
H2473 H 0.64421 0.95523 0.0171 0.0
H2474 H 0.64854 0.93818 0.03123 0.0
H2475 H 0.65727 0.94621 0.08442 0.0
H2476 H 0.68262 0.9077 0.12276 0.0
H2477 H 0.67956 0.92498 0.10753 0.0
C2478 C 0.04142 0.69286 0.02636 0.0
C2479 C 0.02798 0.68447 0.03308 0.0
C2480 C 0.05145 0.7048 0.03476 0.0
C2481 C 0.06039 0.72 0.07645 0.0
H2482 H 0.08369 0.75509 0.05366 0.0
C2483 C 0.09501 0.7714 0.11164 0.0
C2484 C 0.10844 0.78056 0.10531 0.0
C2485 C 0.08539 0.75976 0.10254 0.0
C2486 C 0.07739 0.74532 0.06017 0.0
H2487 H 0.0144 0.68209 0.05369 0.0
H2488 H 0.03184 0.70289 0.06828 0.0
H2489 H 0.06659 0.73462 0.03812 0.0
H2490 H 0.12222 0.78474 0.08433 0.0
H2491 H 0.10556 0.76423 0.06863 0.0
H2492 H 0.07119 0.73059 0.09847 0.0
C2493 C 0.0347 0.70019 0.05664 0.0
C2494 C 0.06759 0.73361 0.05127 0.0
C2495 C 0.02469 0.68832 0.04822 0.0
C2496 C 0.11202 0.77781 0.08965 0.0
C2497 C 0.1024 0.76614 0.08056 0.0
C2498 C 0.07021 0.73167 0.08534 0.0
C2499 C 0.04822 0.7085 0.05007 0.0
C2500 C 0.05892 0.72086 0.05935 0.0
C2501 C 0.08898 0.75697 0.08691 0.0
C2502 C 0.07876 0.7445 0.07733 0.0
H2503 H 0.04424 0.69013 0.0147 0.0
H2504 H 0.06181 0.71095 0.02945 0.0
H2505 H 0.05403 0.71025 0.08298 0.0
H2506 H 0.09196 0.77313 0.12372 0.0
H2507 H 0.07509 0.75301 0.10771 0.0
C2508 C 0.30666 0.33267 0.04189 0.0
C2509 C 0.31473 0.34482 0.03252 0.0
C2510 C 0.29414 0.33018 0.04918 0.0
C2511 C 0.27656 0.34837 0.06485 0.0
H2512 H 0.24293 0.31181 0.0628 0.0
C2513 C 0.22459 0.33855 0.09347 0.0
C2514 C 0.21639 0.32577 0.10169 0.0
C2515 C 0.23605 0.34073 0.08392 0.0
C2516 C 0.25227 0.32203 0.06366 0.0
H2517 H 0.31601 0.36387 0.02329 0.0
H2518 H 0.29416 0.35959 0.03624 0.0
H2519 H 0.264 0.31587 0.04817 0.0
H2520 H 0.21369 0.30525 0.10639 0.0
H2521 H 0.23393 0.30913 0.09004 0.0
H2522 H 0.26508 0.35448 0.0807 0.0
C2523 C 0.29754 0.352 0.03792 0.0
C2524 C 0.26431 0.32436 0.05523 0.0
C2525 C 0.31 0.35441 0.03046 0.0
C2526 C 0.21977 0.31515 0.10004 0.0
C2527 C 0.23134 0.31737 0.09062 0.0
C2528 C 0.26458 0.34602 0.07342 0.0
C2529 C 0.28952 0.33988 0.04739 0.0
C2530 C 0.27658 0.33753 0.0558 0.0
C2531 C 0.23967 0.33023 0.08252 0.0
C2532 C 0.25229 0.3328 0.07299 0.0
H2533 H 0.31004 0.32508 0.04366 0.0
H2534 H 0.28822 0.32082 0.05655 0.0
H2535 H 0.28594 0.35857 0.06568 0.0
H2536 H 0.22207 0.34684 0.09435 0.0
H2537 H 0.24204 0.35064 0.07759 0.0
C2538 C 0.69726 0.68093 0.38494 0.0
C2539 C 0.69782 0.68296 0.36779 0.0
C2540 C 0.70732 0.67889 0.39286 0.0
C2541 C 0.73159 0.66605 0.38626 0.0
H2542 H 0.74875 0.68603 0.42679 0.0
C2543 C 0.77421 0.65988 0.42072 0.0
C2544 C 0.77389 0.65997 0.43804 0.0
C2545 C 0.76544 0.66307 0.41154 0.0
C2546 C 0.74393 0.68022 0.41561 0.0
H2547 H 0.70931 0.68446 0.34546 0.0
H2548 H 0.72688 0.68065 0.35938 0.0
H2549 H 0.73267 0.69112 0.41182 0.0
H2550 H 0.76384 0.66299 0.45936 0.0
H2551 H 0.74828 0.66819 0.44343 0.0
H2552 H 0.74249 0.65483 0.39026 0.0
C2553 C 0.71865 0.6807 0.36663 0.0
C2554 C 0.73478 0.68321 0.40699 0.0
C2555 C 0.70866 0.68294 0.3587 0.0
C2556 C 0.76445 0.66304 0.44601 0.0
C2557 C 0.75558 0.66609 0.43687 0.0
C2558 C 0.74065 0.66295 0.39497 0.0
C2559 C 0.71806 0.67867 0.3838 0.0
C2560 C 0.72843 0.67607 0.39232 0.0
C2561 C 0.75606 0.66629 0.41951 0.0
C2562 C 0.74682 0.6699 0.40985 0.0
H2563 H 0.68902 0.6809 0.39226 0.0
H2564 H 0.70653 0.6772 0.40608 0.0
H2565 H 0.72672 0.6603 0.37505 0.0
H2566 H 0.78151 0.65768 0.41426 0.0
H2567 H 0.76622 0.66329 0.39822 0.0
C2568 C 0.32791 0.02047 0.37982 0.0
C2569 C 0.31979 0.01593 0.36537 0.0
C2570 C 0.3309 0.03306 0.38733 0.0
C2571 C 0.31814 0.05812 0.39024 0.0
H2572 H 0.35445 0.08196 0.41044 0.0
C2573 C 0.33311 0.1115 0.41973 0.0
C2574 C 0.33982 0.11435 0.43517 0.0
C2575 C 0.33119 0.10003 0.41037 0.0
C2576 C 0.34423 0.07536 0.40496 0.0
H2577 H 0.30861 0.02109 0.3473 0.0
H2578 H 0.31399 0.04323 0.36032 0.0
H2579 H 0.35026 0.06111 0.39527 0.0
H2580 H 0.34975 0.10735 0.45287 0.0
H2581 H 0.34647 0.08738 0.43647 0.0
H2582 H 0.31212 0.07237 0.39999 0.0
C2583 C 0.31788 0.03695 0.36597 0.0
C2584 C 0.34182 0.06341 0.39627 0.0
C2585 C 0.31486 0.02432 0.35846 0.0
C2586 C 0.34472 0.10556 0.44093 0.0
C2587 C 0.34283 0.09412 0.43154 0.0
C2588 C 0.32057 0.0701 0.39888 0.0
C2589 C 0.32587 0.04143 0.38055 0.0
C2590 C 0.3287 0.05457 0.38896 0.0
C2591 C 0.33598 0.09118 0.4162 0.0
C2592 C 0.3336 0.07878 0.40646 0.0
H2593 H 0.33182 0.01421 0.38548 0.0
H2594 H 0.33689 0.03606 0.39868 0.0
H2595 H 0.30786 0.05144 0.38497 0.0
H2596 H 0.32945 0.1182 0.41478 0.0
H2597 H 0.32605 0.09816 0.39849 0.0
C2598 C 0.97271 0.2903 0.35937 0.0
C2599 C 0.98035 0.30408 0.36536 0.0
C2600 C 0.9601 0.2806 0.36686 0.0
C2601 C 0.9324 0.27799 0.39527 0.0
H2602 H 0.92521 0.24019 0.40215 0.0
C2603 C 0.89098 0.23929 0.44113 0.0
C2604 C 0.8826 0.22534 0.4359 0.0
C2605 C 0.90226 0.24888 0.43152 0.0
C2606 C 0.927 0.25066 0.40015 0.0
H2607 H 0.9808 0.31855 0.38381 0.0
H2608 H 0.95903 0.30159 0.39708 0.0
H2609 H 0.94608 0.25692 0.38705 0.0
H2610 H 0.87925 0.21066 0.41616 0.0
H2611 H 0.89907 0.22735 0.39957 0.0
H2612 H 0.91346 0.27177 0.40876 0.0
C2613 C 0.96256 0.29831 0.38641 0.0
C2614 C 0.93894 0.26025 0.39146 0.0
C2615 C 0.9751 0.30801 0.37887 0.0
C2616 C 0.88566 0.22125 0.42073 0.0
C2617 C 0.89698 0.23081 0.41119 0.0
C2618 C 0.92052 0.26843 0.40406 0.0
C2619 C 0.95493 0.28446 0.38055 0.0
C2620 C 0.94184 0.27406 0.38903 0.0
C2621 C 0.90544 0.24469 0.41653 0.0
C2622 C 0.91775 0.2547 0.40668 0.0
H2623 H 0.97648 0.28701 0.34892 0.0
H2624 H 0.95438 0.27007 0.3619 0.0
H2625 H 0.93418 0.28847 0.39336 0.0
H2626 H 0.88904 0.24274 0.45284 0.0
H2627 H 0.90871 0.25948 0.43603 0.0
C2628 C 0.00386 0.3605 0.30993 0.0
C2629 C 0.01252 0.36388 0.32387 0.0
C2630 C 0.00197 0.37069 0.30214 0.0
C2631 C 0.0182 0.40902 0.29753 0.0
H2632 H 0.98197 0.39908 0.27885 0.0
C2633 C 0.00625 0.44953 0.2677 0.0
C2634 C -0.0007 0.44568 0.25239 0.0
C2635 C 0.00768 0.43976 0.27719 0.0
C2636 C 0.99216 0.40197 0.28392 0.0
H2637 H 0.02587 0.38051 0.34076 0.0
H2638 H 0.02235 0.39834 0.32733 0.0
H2639 H 0.98464 0.38169 0.29446 0.0
H2640 H 0.98854 0.42855 0.23502 0.0
H2641 H 0.99083 0.41146 0.25175 0.0
H2642 H 0.02565 0.42935 0.28702 0.0
C2643 C 0.01721 0.38785 0.32224 0.0
C2644 C 0.99371 0.39202 0.29284 0.0
C2645 C 0.01916 0.37763 0.32999 0.0
C2646 C 0.99374 0.43181 0.24686 0.0
C2647 C 0.99507 0.42202 0.25642 0.0
C2648 C 0.01661 0.41901 0.28871 0.0
C2649 C 0.00862 0.3845 0.30818 0.0
C2650 C 0.00679 0.39536 0.29957 0.0
C2651 C 0.00207 0.42591 0.27166 0.0
C2652 C 0.00362 0.41553 0.28166 0.0
H2653 H -0.00134 0.34999 0.30487 0.0
H2654 H 0.99549 0.3678 0.29117 0.0
H2655 H 0.02846 0.4119 0.30234 0.0
H2656 H 0.01044 0.46005 0.27247 0.0
H2657 H 0.01299 0.44299 0.28898 0.0
C2658 C 0.62416 0.641 0.32912 0.0
C2659 C 0.63837 0.64827 0.32458 0.0
C2660 C 0.61471 0.62861 0.32101 0.0
C2661 C 0.60948 0.61068 0.28149 0.0
H2662 H 0.58199 0.57768 0.30506 0.0
C2663 C 0.57333 0.5589 0.24762 0.0
C2664 C 0.55934 0.55104 0.25297 0.0
C2665 C 0.58319 0.57038 0.25676 0.0
C2666 C 0.58948 0.58686 0.29827 0.0
H2667 H 0.65392 0.64819 0.30824 0.0
H2668 H 0.6374 0.62663 0.29401 0.0
H2669 H 0.59871 0.59842 0.32048 0.0
H2670 H 0.54486 0.54898 0.27239 0.0
H2671 H 0.56187 0.56929 0.28794 0.0
H2672 H 0.60012 0.59938 0.2593 0.0
C2673 C 0.63356 0.63053 0.30378 0.0
C2674 C 0.59907 0.59871 0.30713 0.0
C2675 C 0.64301 0.64282 0.31199 0.0
C2676 C 0.55548 0.55491 0.26775 0.0
C2677 C 0.56531 0.56645 0.27682 0.0
C2678 C 0.59981 0.59891 0.27264 0.0
C2679 C 0.61929 0.62337 0.30811 0.0
C2680 C 0.60918 0.61073 0.29881 0.0
C2681 C 0.57929 0.57436 0.27143 0.0
C2682 C 0.58968 0.58683 0.28091 0.0
H2683 H 0.62029 0.64497 0.33878 0.0
H2684 H 0.60375 0.62335 0.32452 0.0
H2685 H 0.61702 0.61988 0.27476 0.0
H2686 H 0.57665 0.55633 0.23622 0.0
H2687 H 0.5939 0.5761 0.25234 0.0
C2688 C 0.35791 0.99061 0.32513 0.0
C2689 C 0.34509 0.97793 0.32566 0.0
C2690 C 0.36954 0.99136 0.31728 0.0
C2691 C 0.3789 0.97416 0.28504 0.0
H2692 H 0.41631 0.9962 0.30327 0.0
C2693 C 0.42769 0.97799 0.25326 0.0
C2694 C 0.43983 0.99131 0.25288 0.0
C2695 C 0.41614 0.9756 0.26283 0.0
C2696 C 0.40595 0.99011 0.29794 0.0
H2697 H 0.33445 0.95601 0.31868 0.0
H2698 H 0.35483 0.9573 0.30495 0.0
H2699 H 0.39616 0.99323 0.31906 0.0
H2700 H 0.44939 0.01249 0.26246 0.0
H2701 H 0.42915 0.00842 0.27879 0.0
H2702 H 0.38869 0.97124 0.2638 0.0
C2703 C 0.35583 0.96669 0.31051 0.0
C2704 C 0.3944 0.98838 0.30701 0.0
C2705 C 0.3442 0.96593 0.31844 0.0
C2706 C 0.44015 0.00216 0.26232 0.0
C2707 C 0.42861 -0.00023 0.27186 0.0
C2708 C 0.39045 0.97591 0.27595 0.0
C2709 C 0.36859 0.97944 0.30973 0.0
C2710 C 0.38077 0.98051 0.30058 0.0
C2711 C 0.41646 0.98646 0.27223 0.0
C2712 C 0.40412 0.98403 0.28222 0.0
H2713 H 0.35892 5e-05 0.33057 0.0
H2714 H 0.37917 0.00137 0.31673 0.0
H2715 H 0.36854 0.96819 0.27966 0.0
H2716 H 0.42705 0.96944 0.24601 0.0
H2717 H 0.407 0.9652 0.26295 0.0
C2718 C 0.63973 0.99396 0.30758 0.0
C2719 C 0.63634 0.98592 0.32206 0.0
C2720 C 0.62965 0.99596 0.29958 0.0
C2721 C 0.59135 0.98053 0.2956 0.0
H2722 H 0.6015 0.01635 0.27576 0.0
C2723 C 0.5503 0.99203 0.26686 0.0
C2724 C 0.55374 0.99899 0.25157 0.0
C2725 C 0.56037 0.99079 0.27595 0.0
C2726 C 0.59854 0.00626 0.28112 0.0
H2727 H 0.61982 0.97385 0.33968 0.0
H2728 H 0.60224 0.9775 0.32584 0.0
H2729 H 0.61908 0.01365 0.29099 0.0
H2730 H 0.5705 0.01003 0.23384 0.0
H2731 H 0.58812 0.00792 0.24978 0.0
H2732 H 0.57081 0.97314 0.28572 0.0
C2733 C 0.61263 0.98208 0.32052 0.0
C2734 C 0.60861 0.0047 0.28984 0.0
C2735 C 0.62271 0.98005 0.3285 0.0
C2736 C 0.56755 0.00478 0.24567 0.0
C2737 C 0.57764 0.00357 0.25479 0.0
C2738 C 0.58128 0.9821 0.28693 0.0
C2739 C 0.61596 0.98999 0.30591 0.0
C2740 C 0.60515 0.9918 0.29711 0.0
C2741 C 0.57414 0.99651 0.27 0.0
C2742 C 0.58478 0.99496 0.27953 0.0
H2743 H 0.65014 0.99858 0.30229 0.0
H2744 H 0.63252 0.00195 0.28824 0.0
H2745 H 0.58839 0.97038 0.30081 0.0
H2746 H 0.53983 0.98767 0.2719 0.0
H2747 H 0.55742 0.98547 0.28775 0.0
C2748 C 0.01637 0.64215 0.32942 0.0
C2749 C 0.01103 0.65031 0.32283 0.0
C2750 C 0.01466 0.63036 0.32093 0.0
C2751 C 0.00859 0.61531 0.27921 0.0
H2752 H 0.99795 0.5805 0.30199 0.0
C2753 C 0.99417 0.56444 0.24406 0.0
C2754 C -0.00099 0.55582 0.25052 0.0
C2755 C 0.99553 0.57583 0.25311 0.0
C2756 C 0.00109 0.59019 0.29548 0.0
H2757 H -0.00044 0.65243 0.30237 0.0
H2758 H 0.99655 0.63185 0.28761 0.0
H2759 H 0.00051 0.6006 0.31753 0.0
H2760 H 0.00893 0.55232 0.27167 0.0
H2761 H 0.01164 0.57242 0.28726 0.0
H2762 H 0.00931 0.605 0.2572 0.0
C2763 C 0.00217 0.63463 0.29923 0.0
C2764 C 0.00254 0.6017 0.30438 0.0
C2765 C 0.00382 0.64637 0.30773 0.0
C2766 C 0.00524 0.55885 0.26625 0.0
C2767 C 0.00663 0.57027 0.27528 0.0
C2768 C 0.00721 0.60384 0.27033 0.0
C2769 C 0.00765 0.62656 0.30567 0.0
C2770 C 0.00625 0.61436 0.29632 0.0
C2771 C 0.00181 0.57891 0.26881 0.0
C2772 C 0.00339 0.59113 0.27833 0.0
H2773 H 0.02198 0.64496 0.34103 0.0
H2774 H 0.01909 0.6244 0.32614 0.0
H2775 H 0.0117 0.625 0.27271 0.0
H2776 H 0.98946 0.56249 0.23192 0.0
H2777 H 0.99155 0.58217 0.24784 0.0
C2778 C 0.35823 0.37535 0.33008 0.0
C2779 C 0.34995 0.36171 0.32386 0.0
C2780 C 0.37041 0.38505 0.3218 0.0
C2781 C 0.38652 0.39276 0.28064 0.0
H2782 H 0.42105 0.41692 0.30412 0.0
C2783 C 0.43839 0.42788 0.24638 0.0
C2784 C 0.44721 0.44141 0.25265 0.0
C2785 C 0.42671 0.41814 0.25533 0.0
C2786 C 0.41145 0.41037 0.29739 0.0
H2787 H 0.34801 0.34745 0.30426 0.0
H2788 H 0.36923 0.36436 0.28983 0.0
H2789 H 0.40036 0.39999 0.31943 0.0
H2790 H 0.45074 0.45523 0.27341 0.0
H2791 H 0.43013 0.43839 0.28878 0.0
H2792 H 0.39747 0.4032 0.25864 0.0
C2793 C 0.36627 0.3676 0.30102 0.0
C2794 C 0.39961 0.40066 0.30617 0.0
C2795 C 0.35417 0.3579 0.30934 0.0
C2796 C 0.44407 0.44496 0.26812 0.0
C2797 C 0.43236 0.43524 0.27704 0.0
C2798 C 0.39832 0.40251 0.27188 0.0
C2799 C 0.37446 0.38131 0.30708 0.0
C2800 C 0.38704 0.39172 0.29787 0.0
C2801 C 0.42351 0.42172 0.27074 0.0
C2802 C 0.41095 0.41141 0.28013 0.0
H2803 H 0.35523 0.37858 0.34125 0.0
H2804 H 0.37646 0.39557 0.3267 0.0
H2805 H 0.37691 0.38617 0.27393 0.0
H2806 H 0.4404 0.42484 0.23444 0.0
H2807 H 0.42023 0.40777 0.2502 0.0
C2808 C 0.32958 0.30855 0.38202 0.0
C2809 C 0.32157 0.30485 0.36748 0.0
C2810 C 0.33205 0.29883 0.39009 0.0
C2811 C 0.33262 0.26607 0.3841 0.0
H2812 H 0.32774 0.26271 0.43159 0.0
C2813 C 0.33262 0.22126 0.42093 0.0
C2814 C 0.33921 0.22455 0.43646 0.0
C2815 C 0.33071 0.23111 0.41227 0.0
C2816 C 0.32934 0.26364 0.41836 0.0
H2817 H 0.31008 0.28818 0.34981 0.0
H2818 H 0.31444 0.27116 0.36393 0.0
H2819 H 0.32418 0.27988 0.4168 0.0
H2820 H 0.34891 0.24081 0.45505 0.0
H2821 H 0.34595 0.25812 0.43975 0.0
H2822 H 0.33789 0.2499 0.38566 0.0
C2823 C 0.31884 0.2816 0.36903 0.0
C2824 C 0.32727 0.27346 0.40989 0.0
C2825 C 0.31629 0.29132 0.361 0.0
C2826 C 0.34393 0.23797 0.44305 0.0
C2827 C 0.34206 0.24784 0.43437 0.0
C2828 C 0.33477 0.25628 0.39259 0.0
C2829 C 0.32664 0.28522 0.38375 0.0
C2830 C 0.32889 0.27479 0.39268 0.0
C2831 C 0.33538 0.24452 0.41891 0.0
C2832 C 0.33315 0.25495 0.40983 0.0
H2833 H 0.33381 0.31892 0.38729 0.0
H2834 H 0.33825 0.30197 0.40129 0.0
H2835 H 0.33409 0.26696 0.37085 0.0
H2836 H 0.32901 0.21108 0.4154 0.0
H2837 H 0.32538 0.22815 0.40048 0.0
C2838 C 0.69262 0.02685 0.36905 0.0
C2839 C 0.69632 0.01697 0.36398 0.0
C2840 C 0.70242 0.03921 0.37686 0.0
C2841 C 0.7407 0.06149 0.38558 0.0
H2842 H 0.72741 0.07544 0.42108 0.0
C2843 C 0.77698 0.10234 0.43381 0.0
C2844 C 0.77486 0.11375 0.4365 0.0
C2845 C 0.76757 0.09095 0.42423 0.0
C2846 C 0.73123 0.07171 0.41111 0.0
H2847 H 0.71316 0.01226 0.36295 0.0
H2848 H 0.73015 0.03354 0.37715 0.0
H2849 H 0.71073 0.05477 0.40567 0.0
H2850 H 0.76116 0.12208 0.43092 0.0
H2851 H 0.74449 0.1019 0.41474 0.0
H2852 H 0.76131 0.07822 0.3916 0.0
C2853 C 0.71981 0.03201 0.37471 0.0
C2854 C 0.72168 0.0599 0.40219 0.0
C2855 C 0.71006 0.01975 0.36665 0.0
C2856 C 0.76301 0.11339 0.42943 0.0
C2857 C 0.7535 0.10188 0.42006 0.0
C2858 C 0.75027 0.07316 0.39469 0.0
C2859 C 0.7161 0.04186 0.38004 0.0
C2860 C 0.72628 0.05463 0.3893 0.0
C2861 C 0.75573 0.09059 0.41734 0.0
C2862 C 0.74561 0.07836 0.40752 0.0
H2863 H 0.68211 0.02501 0.367 0.0
H2864 H 0.69925 0.04667 0.38041 0.0
H2865 H 0.74462 0.05791 0.37557 0.0
H2866 H 0.7858 0.10209 0.4393 0.0
H2867 H 0.76942 0.08227 0.42246 0.0
C2868 C 0.97437 0.68706 0.36332 0.0
C2869 C 0.97914 0.67747 0.36477 0.0
C2870 C 0.96186 0.68436 0.37088 0.0
C2871 C 0.92865 0.65629 0.38785 0.0
H2872 H 0.9298 0.68588 0.41482 0.0
C2873 C 0.88433 0.64639 0.43349 0.0
C2874 C 0.88108 0.65706 0.43568 0.0
C2875 C 0.89586 0.64872 0.42392 0.0
C2876 C 0.92919 0.67756 0.40713 0.0
H2877 H 0.97443 0.65736 0.37481 0.0
H2878 H 0.9525 0.65259 0.38789 0.0
H2879 H 0.9505 0.69021 0.39929 0.0
H2880 H 0.88697 0.67834 0.42912 0.0
H2881 H 0.90686 0.68234 0.41209 0.0
H2882 H 0.90731 0.64366 0.39554 0.0
C2883 C 0.95842 0.66219 0.38093 0.0
C2884 C 0.94108 0.68006 0.39827 0.0
C2885 C 0.971 0.66496 0.37352 0.0
C2886 C 0.88938 0.67 0.42784 0.0
C2887 C 0.9008 0.67229 0.41813 0.0
C2888 C 0.91669 0.65383 0.39659 0.0
C2889 C 0.95382 0.67195 0.37986 0.0
C2890 C 0.94096 0.66942 0.38863 0.0
C2891 C 0.90429 0.66173 0.41618 0.0
C2892 C 0.91684 0.66441 0.40644 0.0
H2893 H 0.98042 0.69678 0.35663 0.0
H2894 H 0.95848 0.692 0.36974 0.0
H2895 H 0.92824 0.64795 0.38038 0.0
H2896 H 0.87816 0.63634 0.43952 0.0
H2897 H 0.89834 0.64041 0.4229 0.0
C2898 C 0.37387 0.01363 0.69243 0.0
C2899 C 0.36198 0.01221 0.7006 0.0
C2900 C 0.38349 0.01113 0.70083 0.0
C2901 C 0.39703 0.01193 0.74199 0.0
H2902 H 0.40913 0.98701 0.72448 0.0
C2903 C 0.43067 0.99644 0.78088 0.0
C2904 C 0.44112 0.99493 0.77286 0.0
C2905 C 0.42082 0.99804 0.77177 0.0
C2906 C 0.40604 0.99417 0.72945 0.0
H2907 H 0.3508 0.00707 0.72389 0.0
H2908 H 0.36774 0.00299 0.73861 0.0
H2909 H 0.3926 0.99111 0.70881 0.0
H2910 H 0.44953 0.99391 0.74909 0.0
H2911 H 0.43263 0.99718 0.7331 0.0
H2912 H 0.41066 0.0154 0.76235 0.0
C2913 C 0.36957 0.00596 0.72572 0.0
C2914 C 0.39654 0.99646 0.72048 0.0
C2915 C 0.35987 0.00824 0.71727 0.0
C2916 C 0.44147 0.99492 0.75555 0.0
C2917 C 0.43175 0.99675 0.74642 0.0
C2918 C 0.40667 0.00982 0.75083 0.0
C2919 C 0.38148 0.00741 0.7176 0.0
C2920 C 0.39186 0.00527 0.72676 0.0
C2921 C 0.42134 0.99842 0.75441 0.0
C2922 C 0.41122 0.00081 0.74477 0.0
H2923 H 0.37574 0.01666 0.67956 0.0
H2924 H 0.39264 0.01238 0.69433 0.0
H2925 H 0.39372 0.01893 0.74698 0.0
H2926 H 0.43008 0.9963 0.79423 0.0
H2927 H 0.41278 0.99895 0.77838 0.0
C2928 C 0.99834 0.36069 0.70039 0.0
C2929 C 0.98483 0.35009 0.69583 0.0
C2930 C 0.00027 0.37278 0.70833 0.0
C2931 C 0.98198 0.3846 0.73542 0.0
H2932 H 0.01084 0.42209 0.72313 0.0
C2933 C 0.98636 0.43329 0.76722 0.0
C2934 C -0.00018 0.44482 0.77008 0.0
C2935 C 0.98459 0.42201 0.7576 0.0
C2936 C 0.00286 0.41169 0.72688 0.0
H2937 H 0.9628 0.34395 0.69561 0.0
H2938 H 0.96618 0.365 0.70968 0.0
H2939 H 0.00776 0.40206 0.70696 0.0
H2940 H 0.02197 0.45346 0.76492 0.0
H2941 H 0.01894 0.43351 0.74883 0.0
H2942 H 0.97729 0.39402 0.7556 0.0
C2943 C 0.97525 0.36395 0.70711 0.0
C2944 C 0.00106 0.40024 0.71756 0.0
C2945 C 0.97334 0.35195 0.69899 0.0
C2946 C 0.01147 0.4447 0.76318 0.0
C2947 C 0.00971 0.43334 0.7537 0.0
C2948 C 0.98388 0.39601 0.74486 0.0
C2949 C 0.9887 0.37439 0.71204 0.0
C2950 C 0.99057 0.3866 0.72171 0.0
C2951 C 0.99624 0.42185 0.75076 0.0
C2952 C 0.99431 0.40971 0.7407 0.0
H2953 H 0.00738 0.35953 0.6981 0.0
H2954 H 0.01074 0.38065 0.71208 0.0
H2955 H 0.97395 0.37416 0.73904 0.0
H2956 H 0.97715 0.43289 0.77251 0.0
H2957 H 0.97404 0.41347 0.75543 0.0
C2958 C 0.64218 0.64042 0.71363 0.0
C2959 C 0.64663 0.63692 0.69906 0.0
C2960 C 0.62976 0.63066 0.72134 0.0
C2961 C 0.60511 0.59274 0.72457 0.0
H2962 H 0.58091 0.60476 0.74457 0.0
C2963 C 0.55196 0.5539 0.75437 0.0
C2964 C 0.5491 0.55781 0.76976 0.0
C2965 C 0.56336 0.56348 0.74492 0.0
C2966 C 0.58762 0.60127 0.73914 0.0
H2967 H 0.64153 0.62054 0.68103 0.0
H2968 H 0.61968 0.60348 0.69443 0.0
H2969 H 0.60163 0.62157 0.72927 0.0
H2970 H 0.55599 0.57488 0.78729 0.0
H2971 H 0.57583 0.59165 0.77074 0.0
H2972 H 0.5911 0.57245 0.73452 0.0
C2973 C 0.62591 0.61372 0.69999 0.0
C2974 C 0.59949 0.61089 0.73039 0.0
C2975 C 0.63837 0.6235 0.69228 0.0
C2976 C 0.55779 0.57159 0.77539 0.0
C2977 C 0.56916 0.58119 0.76591 0.0
C2978 C 0.59321 0.58311 0.73329 0.0
C2979 C 0.62149 0.61719 0.71464 0.0
C2980 C 0.60845 0.60677 0.72315 0.0
C2981 C 0.5721 0.57722 0.75062 0.0
C2982 C 0.58441 0.5873 0.7408 0.0
H2983 H 0.64836 0.65067 0.71918 0.0
H2984 H 0.62679 0.63361 0.73274 0.0
H2985 H 0.6119 0.58927 0.71934 0.0
H2986 H 0.54532 0.54344 0.74954 0.0
H2987 H 0.56524 0.56018 0.73308 0.0
C2988 C 0.66548 0.69111 0.64362 0.0
C2989 C 0.67489 0.69521 0.65691 0.0
C2990 C 0.66289 0.70083 0.63574 0.0
C2991 C 0.67845 0.73887 0.62919 0.0
H2992 H 0.64148 0.72778 0.61203 0.0
C2993 C 0.66946 0.77292 0.5826 0.0
C2994 C 0.65719 0.77372 0.58411 0.0
C2995 C 0.67134 0.76347 0.59215 0.0
C2996 C 0.65184 0.73112 0.61689 0.0
H2997 H 0.68874 0.71258 0.67266 0.0
H2998 H 0.68401 0.72954 0.65911 0.0
H2999 H 0.64496 0.71124 0.62826 0.0
H3000 H 0.63733 0.76539 0.59692 0.0
H3001 H 0.64067 0.749 0.6138 0.0
H3002 H 0.68525 0.75885 0.61816 0.0
C3003 C 0.67883 0.71887 0.65455 0.0
C3004 C 0.65388 0.72156 0.62603 0.0
C3005 C 0.68148 0.70915 0.66238 0.0
C3006 C 0.64682 0.76486 0.59535 0.0
C3007 C 0.64874 0.75547 0.605 0.0
C3008 C 0.67639 0.74845 0.62014 0.0
C3009 C 0.66959 0.71485 0.64104 0.0
C3010 C 0.66724 0.72527 0.63214 0.0
C3011 C 0.66104 0.75467 0.60354 0.0
C3012 C 0.66309 0.74465 0.61372 0.0
H3013 H 0.66029 0.68044 0.63908 0.0
H3014 H 0.65589 0.6974 0.62521 0.0
H3015 H 0.68891 0.74205 0.63356 0.0
H3016 H 0.67755 0.7795 0.57388 0.0
H3017 H 0.68081 0.76294 0.59045 0.0
C3018 C 0.29129 0.9742 0.66236 0.0
C3019 C 0.30496 0.98221 0.65612 0.0
C3020 C 0.28165 0.96165 0.65469 0.0
C3021 C 0.27921 0.93467 0.6253 0.0
H3022 H 0.24084 0.92647 0.62016 0.0
C3023 C 0.23966 0.89202 0.58107 0.0
C3024 C 0.22591 0.88346 0.58692 0.0
C3025 C 0.24935 0.90362 0.59019 0.0
C3026 C 0.25148 0.92854 0.62166 0.0
H3027 H 0.31931 0.98337 0.63706 0.0
H3028 H 0.30246 0.96167 0.62351 0.0
H3029 H 0.25765 0.94751 0.63495 0.0
H3030 H 0.21172 0.8802 0.60719 0.0
H3031 H 0.22859 0.90055 0.62296 0.0
H3032 H 0.27305 0.91581 0.6117 0.0
C3033 C 0.29922 0.96489 0.63448 0.0
C3034 C 0.26111 0.94058 0.63017 0.0
C3035 C 0.30886 0.97739 0.64219 0.0
C3036 C 0.22213 0.88672 0.60217 0.0
C3037 C 0.2318 0.89835 0.61123 0.0
C3038 C 0.26959 0.92268 0.6167 0.0
C3039 C 0.28547 0.9569 0.64059 0.0
C3040 C 0.27511 0.94383 0.63203 0.0
C3041 C 0.24549 0.90696 0.60531 0.0
C3042 C 0.25564 0.91952 0.61474 0.0
H3043 H 0.28802 0.97764 0.67313 0.0
H3044 H 0.27122 0.95565 0.65987 0.0
H3045 H 0.28984 0.93673 0.62674 0.0
H3046 H 0.24286 0.88994 0.56927 0.0
H3047 H 0.25979 0.91017 0.58522 0.0
C3048 C 0.01521 0.31598 0.63981 0.0
C3049 C 0.01458 0.31684 0.65704 0.0
C3050 C 0.02753 0.31836 0.63212 0.0
C3051 C 0.06564 0.33615 0.63744 0.0
H3052 H 0.06354 0.31199 0.60145 0.0
C3053 C 0.11487 0.34213 0.60375 0.0
C3054 C 0.11379 0.34004 0.58658 0.0
C3055 C 0.10307 0.33929 0.61311 0.0
C3056 C 0.0643 0.31894 0.61135 0.0
H3057 H 0.02635 0.32086 0.67978 0.0
H3058 H 0.04803 0.32511 0.66626 0.0
H3059 H 0.04237 0.30669 0.6166 0.0
H3060 H 0.09966 0.33393 0.56568 0.0
H3061 H 0.07914 0.32916 0.58191 0.0
H3062 H 0.08756 0.34854 0.63198 0.0
C3063 C 0.03895 0.3226 0.65874 0.0
C3064 C 0.05217 0.31586 0.62006 0.0
C3065 C 0.02654 0.3201 0.66647 0.0
C3066 C 0.10076 0.3354 0.57892 0.0
C3067 C 0.089 0.33263 0.58824 0.0
C3068 C 0.0778 0.33927 0.62866 0.0
C3069 C 0.03955 0.32174 0.64147 0.0
C3070 C 0.05266 0.32452 0.63306 0.0
C3071 C 0.08995 0.33435 0.60547 0.0
C3072 C 0.07723 0.33079 0.61536 0.0
H3073 H 0.00618 0.31351 0.63221 0.0
H3074 H 0.02772 0.3178 0.61878 0.0
H3075 H 0.06631 0.34308 0.64731 0.0
H3076 H 0.12475 0.34556 0.61001 0.0
H3077 H 0.10414 0.34062 0.62637 0.0
C3078 C 0.30711 0.33325 0.64665 0.0
C3079 C 0.30292 0.32108 0.65602 0.0
C3080 C 0.29712 0.3359 0.6396 0.0
C3081 C 0.26105 0.31803 0.62463 0.0
H3082 H 0.26466 0.3548 0.62666 0.0
C3083 C 0.21878 0.32807 0.5972 0.0
C3084 C 0.22334 0.34075 0.58881 0.0
C3085 C 0.22817 0.32592 0.60654 0.0
C3086 C 0.26358 0.34452 0.6258 0.0
H3087 H 0.28502 0.30221 0.66552 0.0
H3088 H 0.26753 0.30678 0.653 0.0
H3089 H 0.28174 0.3506 0.64084 0.0
H3090 H 0.24125 0.36118 0.58367 0.0
H3091 H 0.25779 0.35735 0.59964 0.0
H3092 H 0.24319 0.31198 0.60923 0.0
C3093 C 0.27855 0.31425 0.65113 0.0
C3094 C 0.27333 0.34211 0.63398 0.0
C3095 C 0.28855 0.31167 0.65833 0.0
C3096 C 0.23744 0.35135 0.59013 0.0
C3097 C 0.24689 0.34915 0.59934 0.0
C3098 C 0.25138 0.32046 0.61632 0.0
C3099 C 0.28274 0.32636 0.64164 0.0
C3100 C 0.27218 0.32885 0.63344 0.0
C3101 C 0.24239 0.33635 0.60756 0.0
C3102 C 0.25253 0.33374 0.61677 0.0
H3103 H 0.31813 0.3407 0.64469 0.0
H3104 H 0.30064 0.34526 0.63222 0.0
H3105 H 0.26002 0.30775 0.6238 0.0
H3106 H 0.2079 0.31981 0.59659 0.0
H3107 H 0.22425 0.31606 0.61299 0.0
C3108 C 0.66805 0.97723 0.64135 0.0
C3109 C 0.67636 0.9817 0.65565 0.0
C3110 C 0.66565 0.96512 0.63311 0.0
C3111 C 0.66596 0.93217 0.63827 0.0
H3112 H 0.66942 0.93376 0.5906 0.0
C3113 C 0.66524 0.88763 0.59988 0.0
C3114 C 0.65805 0.88425 0.58473 0.0
C3115 C 0.66736 0.89936 0.60884 0.0
C3116 C 0.66823 0.93307 0.60388 0.0
H3117 H 0.68847 0.97688 0.67274 0.0
H3118 H 0.68426 0.95563 0.6583 0.0
H3119 H 0.67319 0.95441 0.60581 0.0
H3120 H 0.64749 0.89061 0.56712 0.0
H3121 H 0.65086 0.91082 0.58294 0.0
H3122 H 0.66088 0.91079 0.63634 0.0
C3123 C 0.67956 0.96149 0.65352 0.0
C3124 C 0.67041 0.94491 0.6126 0.0
C3125 C 0.68202 0.97367 0.66174 0.0
C3126 C 0.65295 0.89282 0.57882 0.0
C3127 C 0.65503 0.90452 0.58779 0.0
C3128 C 0.6637 0.92028 0.62954 0.0
C3129 C 0.67146 0.95718 0.63902 0.0
C3130 C 0.66927 0.94458 0.62988 0.0
C3131 C 0.66232 0.90797 0.60287 0.0
C3132 C 0.66478 0.92059 0.61223 0.0
H3133 H 0.6635 0.98317 0.63639 0.0
H3134 H 0.6592 0.96194 0.6221 0.0
H3135 H 0.66486 0.93157 0.65157 0.0
H3136 H 0.66916 0.88116 0.60488 0.0
H3137 H 0.67313 0.90179 0.62033 0.0
C3138 C 0.02016 0.69009 0.64161 0.0
C3139 C 0.01602 0.69394 0.65616 0.0
C3140 C 0.03243 0.69966 0.63345 0.0
C3141 C 0.0662 0.73213 0.63917 0.0
H3142 H 0.06448 0.73543 0.5917 0.0
C3143 C 0.1113 0.77655 0.60198 0.0
C3144 C 0.11438 0.7732 0.58637 0.0
C3145 C 0.09951 0.76677 0.61076 0.0
C3146 C 0.06521 0.73452 0.60492 0.0
H3147 H 0.02158 0.71072 0.67376 0.0
H3148 H 0.04309 0.72748 0.6595 0.0
H3149 H 0.04365 0.71851 0.60666 0.0
H3150 H 0.10743 0.75691 0.56777 0.0
H3151 H 0.08714 0.73974 0.58327 0.0
H3152 H 0.0878 0.74806 0.63743 0.0
C3153 C 0.03686 0.71703 0.65445 0.0
C3154 C 0.05326 0.72483 0.61349 0.0
C3155 C 0.02452 0.70747 0.66257 0.0
C3156 C 0.10546 0.7598 0.57983 0.0
C3157 C 0.09371 0.75001 0.58863 0.0
C3158 C 0.07819 0.74177 0.63058 0.0
C3159 C 0.04086 0.71326 0.63972 0.0
C3160 C 0.05362 0.72354 0.6307 0.0
C3161 C 0.09054 0.7534 0.60417 0.0
C3162 C 0.07784 0.74308 0.61334 0.0
H3163 H 0.01384 0.67972 0.63639 0.0
H3164 H 0.03534 0.6964 0.62224 0.0
H3165 H 0.06682 0.73125 0.65241 0.0
H3166 H 0.11804 0.78671 0.60749 0.0
H3167 H 0.09731 0.76979 0.62261 0.0
C3168 C 0.98205 0.62399 0.69399 0.0
C3169 C 0.98727 0.63756 0.70034 0.0
C3170 C 0.98448 0.61431 0.7023 0.0
C3171 C 0.99225 0.6063 0.74356 0.0
H3172 H 0.00303 0.5825 0.72017 0.0
C3173 C 0.00735 0.57012 0.77801 0.0
C3174 C 0.00254 0.55668 0.77142 0.0
C3175 C 0.00597 0.58018 0.76908 0.0
C3176 C -0.00014 0.58895 0.72686 0.0
H3177 H -0.00071 0.65173 0.72018 0.0
H3178 H 0.00351 0.63483 0.73467 0.0
H3179 H -0.00032 0.59966 0.7049 0.0
H3180 H 0.99274 0.54339 0.75011 0.0
H3181 H 0.98993 0.56078 0.73478 0.0
H3182 H 0.99219 0.59551 0.76547 0.0
C3183 C 0.99746 0.63164 0.72335 0.0
C3184 C 0.99798 0.59879 0.71811 0.0
C3185 C 0.99511 0.64133 0.71501 0.0
C3186 C 0.99639 0.55358 0.75565 0.0
C3187 C 0.99496 0.56362 0.74675 0.0
C3188 C 0.99405 0.59642 0.75229 0.0
C3189 C 0.99209 0.618 0.71716 0.0
C3190 C 0.99417 0.60758 0.72638 0.0
C3191 C -0.00031 0.57704 0.75338 0.0
C3192 C 0.99789 0.58763 0.74406 0.0
H3193 H 0.97597 0.6208 0.68271 0.0
H3194 H 0.98012 0.60384 0.6973 0.0
H3195 H 0.98909 0.61278 0.75023 0.0
H3196 H 0.012 0.57282 0.79019 0.0
H3197 H 0.00989 0.59047 0.77448 0.0
C3198 C 0.37653 0.353 0.69946 0.0
C3199 C 0.36272 0.35013 0.69714 0.0
C3200 C 0.3862 0.36501 0.708 0.0
C3201 C 0.38784 0.39201 0.73702 0.0
H3202 H 0.42742 0.41105 0.72602 0.0
C3203 C 0.42891 0.44568 0.76421 0.0
C3204 C 0.4408 0.44614 0.77127 0.0
C3205 C 0.41941 0.43411 0.75492 0.0
C3206 C 0.41639 0.40578 0.72923 0.0
H3207 H 0.34829 0.35774 0.70133 0.0
H3208 H 0.36527 0.37899 0.71553 0.0
H3209 H 0.41084 0.39094 0.70965 0.0
H3210 H 0.45183 0.43456 0.77414 0.0
H3211 H 0.4355 0.41466 0.75735 0.0
H3212 H 0.39347 0.40721 0.7563 0.0
C3213 C 0.36857 0.37178 0.71136 0.0
C3214 C 0.40688 0.39421 0.71993 0.0
C3215 C 0.35885 0.35965 0.70309 0.0
C3216 C 0.44298 0.43475 0.76865 0.0
C3217 C 0.4336 0.4233 0.75911 0.0
C3218 C 0.39732 0.40372 0.7461 0.0
C3219 C 0.38233 0.37453 0.71416 0.0
C3220 C 0.39247 0.3871 0.72376 0.0
C3221 C 0.42172 0.42287 0.75222 0.0
C3222 C 0.41168 0.41065 0.74236 0.0
H3223 H 0.37976 0.34577 0.69508 0.0
H3224 H 0.3966 0.36662 0.71012 0.0
H3225 H 0.37691 0.38667 0.74061 0.0
H3226 H 0.427 0.45433 0.76564 0.0
H3227 H 0.41036 0.43404 0.74959 0.0
C3228 C 0.63959 -0.00023 0.70797 0.0
C3229 C 0.64769 0.01187 0.69851 0.0
C3230 C 0.62741 0.99768 0.71585 0.0
C3231 C 0.61141 0.01701 0.73281 0.0
H3232 H 0.57687 0.98116 0.73171 0.0
C3233 C 0.56066 0.0097 0.7623 0.0
C3234 C 0.55207 0.99707 0.77063 0.0
C3235 C 0.5719 0.01131 0.75273 0.0
C3236 C 0.58648 0.99119 0.73232 0.0
H3237 H 0.64934 0.03118 0.68969 0.0
H3238 H 0.62812 0.02759 0.70361 0.0
H3239 H 0.59729 0.98425 0.71635 0.0
H3240 H 0.5485 0.97625 0.77555 0.0
H3241 H 0.56835 0.97913 0.75916 0.0
H3242 H 0.60084 0.02391 0.74908 0.0
C3243 C 0.63121 0.01975 0.70493 0.0
C3244 C 0.59814 0.99295 0.72347 0.0
C3245 C 0.6433 0.02176 0.69691 0.0
C3246 C 0.55489 0.98604 0.76912 0.0
C3247 C 0.56623 0.9877 0.75967 0.0
C3248 C 0.59981 0.01521 0.74178 0.0
C3249 C 0.62319 0.00773 0.71456 0.0
C3250 C 0.61071 0.00588 0.72363 0.0
C3251 C 0.57491 0.00037 0.7514 0.0
C3252 C 0.58719 0.00228 0.74166 0.0
H3253 H 0.64272 0.99196 0.7094 0.0
H3254 H 0.62148 0.98838 0.7233 0.0
H3255 H 0.62104 0.02703 0.73335 0.0
H3256 H 0.55859 0.01829 0.76306 0.0
H3257 H 0.57817 0.02111 0.74626 0.0
loop_
_geom_bond_atom_site_label_1
_geom_bond_atom_site_label_2
_geom_bond_distance
_geom_bond_site_symmetry_2
_ccdc_geom_bond_type
In0 O1 2.262 1_455 S
In0 O2 2.331 . S
In0 O6 2.231 1_455 S
In0 O7 2.334 1_454 S
In0 O8 2.278 1_554 S
In0 O9 2.284 1_454 S
In0 O11 2.352 . S
In0 O12 2.358 . S
O1 In0 2.262 1_655 S
O1 C10 1.218 1_655 S
O2 In0 2.331 . S
O2 C10 1.294 . S
C3 O6 1.252 1_556 S
C3 O7 1.260 . S
C4 O11 1.240 . S
C4 O12 1.252 . S
C5 O8 1.284 . S
C5 O9 1.238 1_455 S
O6 In0 2.231 1_655 S
O6 C3 1.252 1_554 S
O7 In0 2.334 1_656 S
O7 C3 1.260 . S
O8 In0 2.278 1_556 S
O8 C5 1.284 . S
O9 In0 2.284 1_656 S
O9 C5 1.238 1_655 S
C10 O1 1.218 1_455 S
C10 O2 1.294 . S
O11 In0 2.352 . S
O11 C4 1.240 . S
O12 In0 2.358 . S
O12 C4 1.252 . S
In13 O14 2.294 . S
In13 O15 2.326 . S
In13 O19 2.266 . S
In13 O20 2.326 1_554 S
In13 O21 2.266 1_554 S
In13 O22 2.326 1_554 S
In13 O24 2.294 . S
In13 O25 2.326 . S
O14 In13 2.294 . S
O14 C23 1.240 . S
O15 In13 2.326 . S
O15 C23 1.252 . S
C16 O19 1.252 1_556 S
C16 O20 1.260 . S
C17 O24 1.240 . S
C17 O25 1.252 . S
C18 O21 1.252 . S
C18 O22 1.260 . S
O19 In13 2.266 . S
O19 C16 1.252 1_554 S
O20 In13 2.326 1_556 S
O20 C16 1.260 . S
O21 In13 2.266 1_556 S
O21 C18 1.252 . S
O22 In13 2.326 1_556 S
O22 C18 1.260 . S
C23 O14 1.240 . S
C23 O15 1.252 . S
O24 In13 2.294 . S
O24 C17 1.240 . S
O25 In13 2.326 . S
O25 C17 1.252 . S
In26 O27 2.372 . S
In26 O28 2.370 1_554 S
In26 O32 2.282 . S
In26 O33 2.269 1_545 S
In26 O34 2.218 1_545 S
In26 O35 2.337 1_545 S
In26 O37 2.250 1_544 S
In26 O38 2.333 1_554 S
O27 In26 2.372 . S
O27 C36 1.240 1_554 S
O28 In26 2.370 1_556 S
O28 C36 1.252 . S
C29 O32 1.306 . S
C29 O33 1.222 1_545 S
C30 O37 1.210 1_545 S
C30 O38 1.310 . S
C31 O34 1.252 . S
C31 O35 1.260 . S
O32 In26 2.282 . S
O32 C29 1.306 . S
O33 In26 2.269 1_565 S
O33 C29 1.222 1_565 S
O34 In26 2.218 1_565 S
O34 C31 1.252 . S
O35 In26 2.337 1_565 S
O35 C31 1.260 . S
C36 O27 1.240 1_556 S
C36 O28 1.252 . S
O37 In26 2.250 1_566 S
O37 C30 1.210 1_565 S
O38 In26 2.333 1_556 S
O38 C30 1.310 . S
In39 O40 2.293 1_554 S
In39 O41 2.326 1_454 S
In39 O45 2.265 . S
In39 O46 2.326 . S
In39 O47 2.267 1_455 S
In39 O48 2.324 . S
In39 O50 2.296 1_455 S
In39 O51 2.328 1_454 S
O40 In39 2.293 1_556 S
O40 C49 1.239 . S
O41 In39 2.326 1_656 S
O41 C49 1.253 1_655 S
C42 O45 1.252 . S
C42 O46 1.260 . S
C43 O50 1.240 1_556 S
C43 O51 1.252 . S
C44 O47 1.232 1_455 S
C44 O48 1.275 . S
O45 In39 2.265 . S
O45 C42 1.252 . S
O46 In39 2.326 . S
O46 C42 1.260 . S
O47 In39 2.267 1_655 S
O47 C44 1.232 1_655 S
O48 In39 2.324 . S
O48 C44 1.275 . S
C49 O40 1.239 . S
C49 O41 1.253 1_455 S
O50 In39 2.296 1_655 S
O50 C43 1.240 1_554 S
O51 In39 2.328 1_656 S
O51 C43 1.252 . S
In52 O53 2.294 1_554 S
In52 O54 2.326 1_554 S
In52 O58 2.266 . S
In52 O59 2.326 . S
In52 O60 2.266 . S
In52 O61 2.326 . S
In52 O63 2.294 . S
In52 O64 2.326 1_554 S
O53 In52 2.294 1_556 S
O53 C62 1.240 . S
O54 In52 2.326 1_556 S
O54 C62 1.252 . S
C55 O58 1.252 . S
C55 O59 1.260 . S
C56 O63 1.240 1_556 S
C56 O64 1.252 . S
C57 O60 1.252 . S
C57 O61 1.260 . S
O58 In52 2.266 . S
O58 C55 1.252 . S
O59 In52 2.326 . S
O59 C55 1.260 . S
O60 In52 2.266 . S
O60 C57 1.252 . S
O61 In52 2.326 . S
O61 C57 1.260 . S
C62 O53 1.240 . S
C62 O54 1.252 . S
O63 In52 2.294 . S
O63 C56 1.240 1_554 S
O64 In52 2.326 1_556 S
O64 C56 1.252 . S
In65 O66 2.293 . S
In65 O67 2.326 1_545 S
In65 O71 2.265 . S
In65 O72 2.326 1_554 S
In65 O73 2.267 1_544 S
In65 O74 2.324 1_554 S
In65 O76 2.296 1_545 S
In65 O77 2.328 1_545 S
O66 In65 2.293 . S
O66 C75 1.239 . S
O67 In65 2.326 1_565 S
O67 C75 1.255 1_565 S
C68 O71 1.252 1_556 S
C68 O72 1.260 . S
C69 O76 1.240 . S
C69 O77 1.252 . S
C70 O73 1.234 1_545 S
C70 O74 1.273 . S
O71 In65 2.265 . S
O71 C68 1.252 1_554 S
O72 In65 2.326 1_556 S
O72 C68 1.260 . S
O73 In65 2.267 1_566 S
O73 C70 1.234 1_565 S
O74 In65 2.324 1_556 S
O74 C70 1.273 . S
C75 O66 1.239 . S
C75 O67 1.255 1_545 S
O76 In65 2.296 1_565 S
O76 C69 1.240 . S
O77 In65 2.328 1_565 S
O77 C69 1.252 . S
In78 O79 2.294 . S
In78 O80 2.326 . S
In78 O84 2.266 . S
In78 O85 2.326 . S
In78 O86 2.266 . S
In78 O87 2.326 . S
In78 O89 2.294 . S
In78 O90 2.326 . S
O79 In78 2.294 . S
O79 C88 1.240 . S
O80 In78 2.326 . S
O80 C88 1.252 . S
C81 O84 1.252 . S
C81 O85 1.260 . S
C82 O89 1.240 . S
C82 O90 1.252 . S
C83 O86 1.252 . S
C83 O87 1.260 . S
O84 In78 2.266 . S
O84 C81 1.252 . S
O85 In78 2.326 . S
O85 C81 1.260 . S
O86 In78 2.266 . S
O86 C83 1.252 . S
O87 In78 2.326 . S
O87 C83 1.260 . S
C88 O79 1.240 . S
C88 O80 1.252 . S
O89 In78 2.294 . S
O89 C82 1.240 . S
O90 In78 2.326 . S
O90 C82 1.252 . S
In91 O92 2.294 . S
In91 O93 2.326 . S
In91 O97 2.266 . S
In91 O98 2.326 . S
In91 O99 2.266 . S
In91 O100 2.326 . S
In91 O102 2.238 1_565 S
In91 O103 2.326 . S
O92 In91 2.294 . S
O92 C101 1.240 . S
O93 In91 2.326 . S
O93 C101 1.252 . S
C94 O97 1.252 . S
C94 O98 1.260 . S
C95 O102 1.242 . S
C95 O103 1.252 1_545 S
C96 O99 1.252 . S
C96 O100 1.260 . S
O97 In91 2.266 . S
O97 C94 1.252 . S
O98 In91 2.326 . S
O98 C94 1.260 . S
O99 In91 2.266 . S
O99 C96 1.252 . S
O100 In91 2.326 . S
O100 C96 1.260 . S
C101 O92 1.240 . S
C101 O93 1.252 . S
O102 In91 2.238 1_545 S
O102 C95 1.242 . S
O103 In91 2.326 . S
O103 C95 1.252 1_565 S
In104 O105 2.294 . S
In104 O106 2.326 . S
In104 O110 2.266 . S
In104 O111 2.326 . S
In104 O112 2.285 . S
In104 O113 2.326 . S
In104 O115 2.294 . S
In104 O116 2.326 . S
O105 In104 2.294 . S
O105 C114 1.240 . S
O106 In104 2.326 . S
O106 C114 1.252 . S
C107 O110 1.252 . S
C107 O111 1.260 . S
C108 O115 1.240 . S
C108 O116 1.252 . S
C109 O112 1.225 1_655 S
C109 O113 1.260 1_655 S
O110 In104 2.266 . S
O110 C107 1.252 . S
O111 In104 2.326 . S
O111 C107 1.260 . S
O112 In104 2.285 . S
O112 C109 1.225 1_455 S
O113 In104 2.326 . S
O113 C109 1.260 1_455 S
C114 O105 1.240 . S
C114 O106 1.252 . S
O115 In104 2.294 . S
O115 C108 1.240 . S
O116 In104 2.326 . S
O116 C108 1.252 . S
In117 O118 2.294 . S
In117 O119 2.326 . S
In117 O123 2.269 . S
In117 O124 2.326 . S
In117 O125 2.266 . S
In117 O126 2.326 . S
In117 O128 2.294 . S
In117 O129 2.326 . S
O118 In117 2.294 . S
O118 C127 1.240 . S
O119 In117 2.326 . S
O119 C127 1.252 . S
C120 O123 1.248 1_545 S
C120 O124 1.260 1_545 S
C121 O128 1.240 . S
C121 O129 1.252 . S
C122 O125 1.252 . S
C122 O126 1.260 . S
O123 In117 2.269 . S
O123 C120 1.248 1_565 S
O124 In117 2.326 . S
O124 C120 1.260 1_565 S
O125 In117 2.266 . S
O125 C122 1.252 . S
O126 In117 2.326 . S
O126 C122 1.260 . S
C127 O118 1.240 . S
C127 O119 1.252 . S
O128 In117 2.294 . S
O128 C121 1.240 . S
O129 In117 2.326 . S
O129 C121 1.252 . S
In130 O131 2.294 . S
In130 O132 2.326 . S
In130 O136 2.301 . S
In130 O137 2.326 . S
In130 O138 2.266 . S
In130 O139 2.326 . S
In130 O141 2.294 . S
In130 O142 2.326 . S
O131 In130 2.294 . S
O131 C140 1.240 . S
O132 In130 2.326 . S
O132 C140 1.252 . S
C133 O136 1.252 1_655 S
C133 O137 1.260 1_655 S
C134 O141 1.240 . S
C134 O142 1.252 . S
C135 O138 1.252 . S
C135 O139 1.260 . S
O136 In130 2.301 . S
O136 C133 1.252 1_455 S
O137 In130 2.326 . S
O137 C133 1.260 1_455 S
O138 In130 2.266 . S
O138 C135 1.252 . S
O139 In130 2.326 . S
O139 C135 1.260 . S
C140 O131 1.240 . S
C140 O132 1.252 . S
O141 In130 2.294 . S
O141 C134 1.240 . S
O142 In130 2.326 . S
O142 C134 1.252 . S
In143 O144 2.294 . S
In143 O145 2.326 . S
In143 O149 2.266 . S
In143 O150 2.326 . S
In143 O151 2.266 . S
In143 O152 2.326 . S
In143 O154 2.294 . S
In143 O155 2.326 . S
O144 In143 2.294 . S
O144 C153 1.240 . S
O145 In143 2.326 . S
O145 C153 1.252 . S
C146 O149 1.252 . S
C146 O150 1.260 . S
C147 O154 1.240 . S
C147 O155 1.252 . S
C148 O151 1.252 . S
C148 O152 1.260 . S
O149 In143 2.266 . S
O149 C146 1.252 . S
O150 In143 2.326 . S
O150 C146 1.260 . S
O151 In143 2.266 . S
O151 C148 1.252 . S
O152 In143 2.326 . S
O152 C148 1.260 . S
C153 O144 1.240 . S
C153 O145 1.252 . S
O154 In143 2.294 . S
O154 C147 1.240 . S
O155 In143 2.326 . S
O155 C147 1.252 . S
In156 O157 2.294 . S
In156 O158 2.326 . S
In156 O162 2.266 . S
In156 O163 2.326 . S
In156 O164 2.285 . S
In156 O165 2.326 . S
In156 O167 2.294 . S
In156 O168 2.326 . S
O157 In156 2.294 . S
O157 C166 1.240 . S
O158 In156 2.326 . S
O158 C166 1.252 . S
C159 O162 1.252 . S
C159 O163 1.260 . S
C160 O167 1.240 . S
C160 O168 1.252 . S
C161 O164 1.225 1_565 S
C161 O165 1.260 1_565 S
O162 In156 2.266 . S
O162 C159 1.252 . S
O163 In156 2.326 . S
O163 C159 1.260 . S
O164 In156 2.285 . S
O164 C161 1.225 1_545 S
O165 In156 2.326 . S
O165 C161 1.260 1_545 S
C166 O157 1.240 . S
C166 O158 1.252 . S
O167 In156 2.294 . S
O167 C160 1.240 . S
O168 In156 2.326 . S
O168 C160 1.252 . S
In169 O170 2.294 . S
In169 O171 2.326 . S
In169 O175 2.266 . S
In169 O176 2.326 . S
In169 O177 2.272 1_655 S
In169 O178 2.326 . S
In169 O180 2.294 . S
In169 O181 2.326 . S
O170 In169 2.294 . S
O170 C179 1.240 . S
O171 In169 2.326 . S
O171 C179 1.252 . S
C172 O175 1.252 . S
C172 O176 1.260 . S
C173 O180 1.240 . S
C173 O181 1.252 . S
C174 O177 1.252 . S
C174 O178 1.260 1_455 S
O175 In169 2.266 . S
O175 C172 1.252 . S
O176 In169 2.326 . S
O176 C172 1.260 . S
O177 In169 2.272 1_455 S
O177 C174 1.252 . S
O178 In169 2.326 . S
O178 C174 1.260 1_655 S
C179 O170 1.240 . S
C179 O171 1.252 . S
O180 In169 2.294 . S
O180 C173 1.240 . S
O181 In169 2.326 . S
O181 C173 1.252 . S
In182 O183 2.294 . S
In182 O184 2.326 . S
In182 O188 2.266 . S
In182 O189 2.326 . S
In182 O190 2.266 . S
In182 O191 2.326 . S
In182 O193 2.294 . S
In182 O194 2.326 . S
O183 In182 2.294 . S
O183 C192 1.240 . S
O184 In182 2.326 . S
O184 C192 1.252 . S
C185 O188 1.252 . S
C185 O189 1.260 . S
C186 O193 1.240 . S
C186 O194 1.252 . S
C187 O190 1.252 . S
C187 O191 1.260 . S
O188 In182 2.266 . S
O188 C185 1.252 . S
O189 In182 2.326 . S
O189 C185 1.260 . S
O190 In182 2.266 . S
O190 C187 1.252 . S
O191 In182 2.326 . S
O191 C187 1.260 . S
C192 O183 1.240 . S
C192 O184 1.252 . S
O193 In182 2.294 . S
O193 C186 1.240 . S
O194 In182 2.326 . S
O194 C186 1.252 . S
In195 O196 2.294 . S
In195 O197 2.326 . S
In195 O201 2.266 . S
In195 O202 2.326 . S
In195 O203 2.266 . S
In195 O204 2.326 . S
In195 O206 2.294 . S
In195 O207 2.326 . S
O196 In195 2.294 . S
O196 C205 1.240 . S
O197 In195 2.326 . S
O197 C205 1.252 . S
C198 O201 1.252 . S
C198 O202 1.260 . S
C199 O206 1.240 . S
C199 O207 1.252 . S
C200 O203 1.252 . S
C200 O204 1.260 . S
O201 In195 2.266 . S
O201 C198 1.252 . S
O202 In195 2.326 . S
O202 C198 1.260 . S
O203 In195 2.266 . S
O203 C200 1.252 . S
O204 In195 2.326 . S
O204 C200 1.260 . S
C205 O196 1.240 . S
C205 O197 1.252 . S
O206 In195 2.294 . S
O206 C199 1.240 . S
O207 In195 2.326 . S
O207 C199 1.252 . S
In208 O209 2.294 . S
In208 O210 2.326 . S
In208 O214 2.266 . S
In208 O215 2.326 . S
In208 O216 2.266 . S
In208 O217 2.326 . S
In208 O219 2.303 1_545 S
In208 O220 2.326 . S
O209 In208 2.294 . S
O209 C218 1.240 . S
O210 In208 2.326 . S
O210 C218 1.252 . S
C211 O214 1.252 . S
C211 O215 1.260 . S
C212 O219 1.240 . S
C212 O220 1.252 1_565 S
C213 O216 1.252 . S
C213 O217 1.260 . S
O214 In208 2.266 . S
O214 C211 1.252 . S
O215 In208 2.326 . S
O215 C211 1.260 . S
O216 In208 2.266 . S
O216 C213 1.252 . S
O217 In208 2.326 . S
O217 C213 1.260 . S
C218 O209 1.240 . S
C218 O210 1.252 . S
O219 In208 2.303 1_565 S
O219 C212 1.240 . S
O220 In208 2.326 . S
O220 C212 1.252 1_545 S
In221 O222 2.294 . S
In221 O223 2.326 . S
In221 O227 2.266 . S
In221 O228 2.326 . S
In221 O229 2.264 . S
In221 O230 2.326 . S
In221 O232 2.294 . S
In221 O233 2.326 . S
O222 In221 2.294 . S
O222 C231 1.240 . S
O223 In221 2.326 . S
O223 C231 1.252 . S
C224 O227 1.252 . S
C224 O228 1.260 . S
C225 O232 1.240 . S
C225 O233 1.252 . S
C226 O229 1.255 1_455 S
C226 O230 1.260 1_455 S
O227 In221 2.266 . S
O227 C224 1.252 . S
O228 In221 2.326 . S
O228 C224 1.260 . S
O229 In221 2.264 . S
O229 C226 1.255 1_655 S
O230 In221 2.326 . S
O230 C226 1.260 1_655 S
C231 O222 1.240 . S
C231 O223 1.252 . S
O232 In221 2.294 . S
O232 C225 1.240 . S
O233 In221 2.326 . S
O233 C225 1.252 . S
H234 C253 0.949 . S
H235 C254 0.950 . S
H236 C256 0.950 . S
H237 C257 0.950 . S
H238 C259 0.950 . S
H239 C262 0.950 . S
H240 C263 0.950 . S
H241 C265 0.951 . S
H242 C266 0.949 . S
H243 C268 0.949 . S
H244 C269 0.950 . S
H245 C271 0.950 . S
H246 C272 0.950 . S
H247 C274 0.950 . S
H248 C277 0.950 . S
H249 C278 0.950 . S
H250 C280 0.951 . S
H251 C281 0.949 . S
C252 C253 1.376 . S
C252 C257 1.386 . S
C252 C258 1.483 . S
C253 H234 0.949 . S
C253 C252 1.376 . S
C253 C254 1.397 . S
C254 H235 0.950 . S
C254 C253 1.397 . S
C254 C255 1.391 . S
C255 C254 1.391 . S
C255 C256 1.405 . S
C256 H236 0.950 . S
C256 C255 1.405 . S
C256 C257 1.367 . S
C257 H237 0.950 . S
C257 C252 1.386 . S
C257 C256 1.367 . S
C258 C252 1.483 . S
C258 C259 1.382 . S
C258 C260 1.403 . S
C259 H238 0.950 . S
C259 C258 1.382 . S
C259 C275 1.411 . S
C260 C258 1.403 . S
C260 C261 1.489 . S
C260 C274 1.411 . S
C261 C260 1.489 . S
C261 C262 1.383 . S
C261 C266 1.382 . S
C262 H239 0.950 . S
C262 C261 1.383 . S
C262 C263 1.395 . S
C263 H240 0.950 . S
C263 C262 1.395 . S
C263 C264 1.288 . S
C264 C263 1.288 . S
C264 C265 1.392 . S
C265 H241 0.951 . S
C265 C264 1.392 . S
C265 C266 1.392 . S
C266 H242 0.949 . S
C266 C261 1.382 . S
C266 C265 1.392 . S
C267 C268 1.376 . S
C267 C272 1.386 . S
C267 C273 1.483 . S
C268 H243 0.949 . S
C268 C267 1.376 . S
C268 C269 1.397 . S
C269 H244 0.950 . S
C269 C268 1.397 . S
C269 C270 1.391 . S
C270 C269 1.391 . S
C270 C271 1.405 . S
C271 H245 0.950 . S
C271 C270 1.405 . S
C271 C272 1.367 . S
C272 H246 0.950 . S
C272 C267 1.386 . S
C272 C271 1.367 . S
C273 C267 1.483 . S
C273 C274 1.382 . S
C273 C275 1.403 . S
C274 H247 0.950 . S
C274 C260 1.411 . S
C274 C273 1.382 . S
C275 C259 1.411 . S
C275 C273 1.403 . S
C275 C276 1.489 . S
C276 C275 1.489 . S
C276 C277 1.383 . S
C276 C281 1.382 . S
C277 H248 0.950 . S
C277 C276 1.383 . S
C277 C278 1.395 . S
C278 H249 0.950 . S
C278 C277 1.395 . S
C278 C279 1.288 . S
C279 C278 1.288 . S
C279 C280 1.392 . S
C280 H250 0.951 . S
C280 C279 1.392 . S
C280 C281 1.392 . S
C281 H251 0.949 . S
C281 C276 1.382 . S
C281 C280 1.392 . S
H282 C301 0.949 . S
H283 C302 0.950 . S
H284 C304 0.950 . S
H285 C305 0.950 . S
H286 C307 0.950 . S
H287 C310 0.950 . S
H288 C311 0.950 . S
H289 C313 0.951 . S
H290 C314 0.949 . S
H291 C316 0.949 . S
H292 C317 0.950 . S
H293 C319 0.950 . S
H294 C320 0.950 . S
H295 C322 0.950 . S
H296 C325 0.950 . S
H297 C326 0.950 . S
H298 C328 0.951 . S
H299 C329 0.949 . S
C300 C301 1.376 . S
C300 C305 1.386 . S
C300 C306 1.483 . S
C301 H282 0.949 . S
C301 C300 1.376 . S
C301 C302 1.397 . S
C302 H283 0.950 . S
C302 C301 1.397 . S
C302 C303 1.391 . S
C303 C302 1.391 . S
C303 C304 1.405 . S
C304 H284 0.950 . S
C304 C303 1.405 . S
C304 C305 1.367 . S
C305 H285 0.950 . S
C305 C300 1.386 . S
C305 C304 1.367 . S
C306 C300 1.483 . S
C306 C307 1.382 . S
C306 C308 1.403 . S
C307 H286 0.950 . S
C307 C306 1.382 . S
C307 C323 1.411 . S
C308 C306 1.403 . S
C308 C309 1.489 . S
C308 C322 1.411 . S
C309 C308 1.489 . S
C309 C310 1.383 . S
C309 C314 1.382 . S
C310 H287 0.950 . S
C310 C309 1.383 . S
C310 C311 1.395 . S
C311 H288 0.950 . S
C311 C310 1.395 . S
C311 C312 1.288 . S
C312 C311 1.288 . S
C312 C313 1.392 . S
C313 H289 0.951 . S
C313 C312 1.392 . S
C313 C314 1.392 . S
C314 H290 0.949 . S
C314 C309 1.382 . S
C314 C313 1.392 . S
C315 C316 1.376 . S
C315 C320 1.386 . S
C315 C321 1.483 . S
C316 H291 0.949 . S
C316 C315 1.376 . S
C316 C317 1.397 . S
C317 H292 0.950 . S
C317 C316 1.397 . S
C317 C318 1.391 . S
C318 C317 1.391 . S
C318 C319 1.405 . S
C319 H293 0.950 . S
C319 C318 1.405 . S
C319 C320 1.367 . S
C320 H294 0.950 . S
C320 C315 1.386 . S
C320 C319 1.367 . S
C321 C315 1.483 . S
C321 C322 1.382 . S
C321 C323 1.403 . S
C322 H295 0.950 . S
C322 C308 1.411 . S
C322 C321 1.382 . S
C323 C307 1.411 . S
C323 C321 1.403 . S
C323 C324 1.489 . S
C324 C323 1.489 . S
C324 C325 1.383 . S
C324 C329 1.382 . S
C325 H296 0.950 . S
C325 C324 1.383 . S
C325 C326 1.395 . S
C326 H297 0.950 . S
C326 C325 1.395 . S
C326 C327 1.288 . S
C327 C326 1.288 . S
C327 C328 1.392 . S
C328 H298 0.951 . S
C328 C327 1.392 . S
C328 C329 1.392 . S
C329 H299 0.949 . S
C329 C324 1.382 . S
C329 C328 1.392 . S
H330 C349 0.949 . S
H331 C350 0.950 . S
H332 C352 0.950 . S
H333 C353 0.950 . S
H334 C355 0.950 . S
H335 C358 0.950 . S
H336 C359 0.950 . S
H337 C361 0.951 . S
H338 C362 0.949 . S
H339 C364 0.949 . S
H340 C365 0.950 . S
H341 C367 0.950 . S
H342 C368 0.950 . S
H343 C370 0.950 . S
H344 C373 0.950 . S
H345 C374 0.950 . S
H346 C376 0.951 . S
H347 C377 0.949 . S
C348 C349 1.376 . S
C348 C353 1.386 . S
C348 C354 1.483 . S
C349 H330 0.949 . S
C349 C348 1.376 . S
C349 C350 1.397 . S
C350 H331 0.950 . S
C350 C349 1.397 . S
C350 C351 1.391 . S
C351 C350 1.391 . S
C351 C352 1.405 . S
C352 H332 0.950 . S
C352 C351 1.405 . S
C352 C353 1.367 . S
C353 H333 0.950 . S
C353 C348 1.386 . S
C353 C352 1.367 . S
C354 C348 1.483 . S
C354 C355 1.382 . S
C354 C356 1.403 . S
C355 H334 0.950 . S
C355 C354 1.382 . S
C355 C371 1.411 . S
C356 C354 1.403 . S
C356 C357 1.489 . S
C356 C370 1.411 . S
C357 C356 1.489 . S
C357 C358 1.383 . S
C357 C362 1.382 . S
C358 H335 0.950 . S
C358 C357 1.383 . S
C358 C359 1.395 . S
C359 H336 0.950 . S
C359 C358 1.395 . S
C359 C360 1.288 . S
C360 C359 1.288 . S
C360 C361 1.392 . S
C361 H337 0.951 . S
C361 C360 1.392 . S
C361 C362 1.392 . S
C362 H338 0.949 . S
C362 C357 1.382 . S
C362 C361 1.392 . S
C363 C364 1.376 . S
C363 C368 1.386 . S
C363 C369 1.483 . S
C364 H339 0.949 . S
C364 C363 1.376 . S
C364 C365 1.397 . S
C365 H340 0.950 . S
C365 C364 1.397 . S
C365 C366 1.391 . S
C366 C365 1.391 . S
C366 C367 1.405 . S
C367 H341 0.950 . S
C367 C366 1.405 . S
C367 C368 1.367 . S
C368 H342 0.950 . S
C368 C363 1.386 . S
C368 C367 1.367 . S
C369 C363 1.483 . S
C369 C370 1.382 . S
C369 C371 1.403 . S
C370 H343 0.950 . S
C370 C356 1.411 . S
C370 C369 1.382 . S
C371 C355 1.411 . S
C371 C369 1.403 . S
C371 C372 1.489 . S
C372 C371 1.489 . S
C372 C373 1.383 . S
C372 C377 1.382 . S
C373 H344 0.950 . S
C373 C372 1.383 . S
C373 C374 1.395 . S
C374 H345 0.950 . S
C374 C373 1.395 . S
C374 C375 1.288 . S
C375 C374 1.288 . S
C375 C376 1.392 . S
C376 H346 0.951 . S
C376 C375 1.392 . S
C376 C377 1.392 . S
C377 H347 0.949 . S
C377 C372 1.382 . S
C377 C376 1.392 . S
H378 C397 0.949 . S
H379 C398 0.950 . S
H380 C400 0.950 . S
H381 C401 0.950 . S
H382 C403 0.950 . S
H383 C406 0.950 . S
H384 C407 0.950 . S
H385 C409 0.951 . S
H386 C410 0.949 . S
H387 C412 0.949 . S
H388 C413 0.950 . S
H389 C415 0.950 . S
H390 C416 0.950 . S
H391 C418 0.950 . S
H392 C421 0.950 . S
H393 C422 0.950 . S
H394 C424 0.951 . S
H395 C425 0.949 . S
C396 C397 1.376 . S
C396 C401 1.386 . S
C396 C402 1.483 . S
C397 H378 0.949 . S
C397 C396 1.376 . S
C397 C398 1.397 . S
C398 H379 0.950 . S
C398 C397 1.397 . S
C398 C399 1.391 . S
C399 C398 1.391 . S
C399 C400 1.405 . S
C400 H380 0.950 . S
C400 C399 1.405 . S
C400 C401 1.367 . S
C401 H381 0.950 . S
C401 C396 1.386 . S
C401 C400 1.367 . S
C402 C396 1.483 . S
C402 C403 1.382 . S
C402 C404 1.403 . S
C403 H382 0.950 . S
C403 C402 1.382 . S
C403 C419 1.411 . S
C404 C402 1.403 . S
C404 C405 1.489 . S
C404 C418 1.411 . S
C405 C404 1.489 . S
C405 C406 1.383 . S
C405 C410 1.382 . S
C406 H383 0.950 . S
C406 C405 1.383 . S
C406 C407 1.395 . S
C407 H384 0.950 . S
C407 C406 1.395 . S
C407 C408 1.288 . S
C408 C407 1.288 . S
C408 C409 1.392 . S
C409 H385 0.951 . S
C409 C408 1.392 . S
C409 C410 1.392 . S
C410 H386 0.949 . S
C410 C405 1.382 . S
C410 C409 1.392 . S
C411 C412 1.376 . S
C411 C416 1.386 . S
C411 C417 1.483 . S
C412 H387 0.949 . S
C412 C411 1.376 . S
C412 C413 1.397 . S
C413 H388 0.950 . S
C413 C412 1.397 . S
C413 C414 1.391 . S
C414 C413 1.391 . S
C414 C415 1.405 . S
C415 H389 0.950 . S
C415 C414 1.405 . S
C415 C416 1.367 . S
C416 H390 0.950 . S
C416 C411 1.386 . S
C416 C415 1.367 . S
C417 C411 1.483 . S
C417 C418 1.382 . S
C417 C419 1.403 . S
C418 H391 0.950 . S
C418 C404 1.411 . S
C418 C417 1.382 . S
C419 C403 1.411 . S
C419 C417 1.403 . S
C419 C420 1.489 . S
C420 C419 1.489 . S
C420 C421 1.383 . S
C420 C425 1.382 . S
C421 H392 0.950 . S
C421 C420 1.383 . S
C421 C422 1.395 . S
C422 H393 0.950 . S
C422 C421 1.395 . S
C422 C423 1.288 . S
C423 C422 1.288 . S
C423 C424 1.392 . S
C424 H394 0.951 . S
C424 C423 1.392 . S
C424 C425 1.392 . S
C425 H395 0.949 . S
C425 C420 1.382 . S
C425 C424 1.392 . S
H426 C445 0.949 . S
H427 C446 0.950 . S
H428 C448 0.950 . S
H429 C449 0.950 . S
H430 C451 0.950 . S
H431 C454 0.950 . S
H432 C455 0.950 . S
H433 C457 0.951 . S
H434 C458 0.949 . S
H435 C460 0.949 . S
H436 C461 0.950 . S
H437 C463 0.950 . S
H438 C464 0.950 . S
H439 C466 0.950 . S
H440 C469 0.950 . S
H441 C470 0.950 . S
H442 C472 0.951 . S
H443 C473 0.949 . S
C444 C445 1.376 . S
C444 C449 1.386 . S
C444 C450 1.483 . S
C445 H426 0.949 . S
C445 C444 1.376 . S
C445 C446 1.397 . S
C446 H427 0.950 . S
C446 C445 1.397 . S
C446 C447 1.391 . S
C447 C446 1.391 . S
C447 C448 1.405 . S
C448 H428 0.950 . S
C448 C447 1.405 . S
C448 C449 1.367 . S
C449 H429 0.950 . S
C449 C444 1.386 . S
C449 C448 1.367 . S
C450 C444 1.483 . S
C450 C451 1.382 . S
C450 C452 1.403 . S
C451 H430 0.950 . S
C451 C450 1.382 . S
C451 C467 1.411 . S
C452 C450 1.403 . S
C452 C453 1.489 . S
C452 C466 1.411 . S
C453 C452 1.489 . S
C453 C454 1.383 . S
C453 C458 1.382 . S
C454 H431 0.950 . S
C454 C453 1.383 . S
C454 C455 1.395 . S
C455 H432 0.950 . S
C455 C454 1.395 . S
C455 C456 1.288 . S
C456 C455 1.288 . S
C456 C457 1.392 . S
C457 H433 0.951 . S
C457 C456 1.392 . S
C457 C458 1.392 . S
C458 H434 0.949 . S
C458 C453 1.382 . S
C458 C457 1.392 . S
C459 C460 1.376 . S
C459 C464 1.386 . S
C459 C465 1.483 . S
C460 H435 0.949 . S
C460 C459 1.376 . S
C460 C461 1.397 . S
C461 H436 0.950 . S
C461 C460 1.397 . S
C461 C462 1.391 . S
C462 C461 1.391 . S
C462 C463 1.405 . S
C463 H437 0.950 . S
C463 C462 1.405 . S
C463 C464 1.367 . S
C464 H438 0.950 . S
C464 C459 1.386 . S
C464 C463 1.367 . S
C465 C459 1.483 . S
C465 C466 1.382 . S
C465 C467 1.403 . S
C466 H439 0.950 . S
C466 C452 1.411 . S
C466 C465 1.382 . S
C467 C451 1.411 . S
C467 C465 1.403 . S
C467 C468 1.489 . S
C468 C467 1.489 . S
C468 C469 1.383 . S
C468 C473 1.382 . S
C469 H440 0.950 . S
C469 C468 1.383 . S
C469 C470 1.395 . S
C470 H441 0.950 . S
C470 C469 1.395 . S
C470 C471 1.288 . S
C471 C470 1.288 . S
C471 C472 1.392 . S
C472 H442 0.951 . S
C472 C471 1.392 . S
C472 C473 1.392 . S
C473 H443 0.949 . S
C473 C468 1.382 . S
C473 C472 1.392 . S
H474 C493 0.949 . S
H475 C494 0.950 . S
H476 C496 0.950 . S
H477 C497 0.950 . S
H478 C499 0.950 . S
H479 C502 0.950 . S
H480 C503 0.950 . S
H481 C505 0.951 . S
H482 C506 0.949 . S
H483 C508 0.949 . S
H484 C509 0.950 . S
H485 C511 0.950 . S
H486 C512 0.950 . S
H487 C514 0.950 . S
H488 C517 0.950 . S
H489 C518 0.950 . S
H490 C520 0.951 . S
H491 C521 0.949 . S
C492 C493 1.376 . S
C492 C497 1.386 . S
C492 C498 1.483 . S
C493 H474 0.949 . S
C493 C492 1.376 . S
C493 C494 1.397 . S
C494 H475 0.950 . S
C494 C493 1.397 . S
C494 C495 1.391 . S
C495 C494 1.391 . S
C495 C496 1.405 . S
C496 H476 0.950 . S
C496 C495 1.405 . S
C496 C497 1.367 . S
C497 H477 0.950 . S
C497 C492 1.386 . S
C497 C496 1.367 . S
C498 C492 1.483 . S
C498 C499 1.382 . S
C498 C500 1.403 . S
C499 H478 0.950 . S
C499 C498 1.382 . S
C499 C515 1.411 . S
C500 C498 1.403 . S
C500 C501 1.489 . S
C500 C514 1.411 . S
C501 C500 1.489 . S
C501 C502 1.383 . S
C501 C506 1.382 . S
C502 H479 0.950 . S
C502 C501 1.383 . S
C502 C503 1.395 . S
C503 H480 0.950 . S
C503 C502 1.395 . S
C503 C504 1.288 . S
C504 C503 1.288 . S
C504 C505 1.392 . S
C505 H481 0.951 . S
C505 C504 1.392 . S
C505 C506 1.392 . S
C506 H482 0.949 . S
C506 C501 1.382 . S
C506 C505 1.392 . S
C507 C508 1.376 . S
C507 C512 1.386 . S
C507 C513 1.483 . S
C508 H483 0.949 . S
C508 C507 1.376 . S
C508 C509 1.397 . S
C509 H484 0.950 . S
C509 C508 1.397 . S
C509 C510 1.391 . S
C510 C509 1.391 . S
C510 C511 1.405 . S
C511 H485 0.950 . S
C511 C510 1.405 . S
C511 C512 1.367 . S
C512 H486 0.950 . S
C512 C507 1.386 . S
C512 C511 1.367 . S
C513 C507 1.483 . S
C513 C514 1.382 . S
C513 C515 1.403 . S
C514 H487 0.950 . S
C514 C500 1.411 . S
C514 C513 1.382 . S
C515 C499 1.411 . S
C515 C513 1.403 . S
C515 C516 1.489 . S
C516 C515 1.489 . S
C516 C517 1.383 . S
C516 C521 1.382 . S
C517 H488 0.950 . S
C517 C516 1.383 . S
C517 C518 1.395 . S
C518 H489 0.950 . S
C518 C517 1.395 . S
C518 C519 1.288 . S
C519 C518 1.288 . S
C519 C520 1.392 . S
C520 H490 0.951 . S
C520 C519 1.392 . S
C520 C521 1.392 . S
C521 H491 0.949 . S
C521 C516 1.382 . S
C521 C520 1.392 . S
H522 C541 0.949 . S
H523 C542 0.950 . S
H524 C544 0.950 . S
H525 C545 0.950 . S
H526 C547 0.950 . S
H527 C550 0.950 . S
H528 C551 0.950 . S
H529 C553 0.951 . S
H530 C554 0.949 . S
H531 C556 0.949 . S
H532 C557 0.950 . S
H533 C559 0.950 . S
H534 C560 0.950 . S
H535 C562 0.950 . S
H536 C565 0.950 . S
H537 C566 0.950 . S
H538 C568 0.951 . S
H539 C569 0.949 . S
C540 C541 1.376 . S
C540 C545 1.386 . S
C540 C546 1.483 . S
C541 H522 0.949 . S
C541 C540 1.376 . S
C541 C542 1.397 . S
C542 H523 0.950 . S
C542 C541 1.397 . S
C542 C543 1.391 . S
C543 C542 1.391 . S
C543 C544 1.405 . S
C544 H524 0.950 . S
C544 C543 1.405 . S
C544 C545 1.367 . S
C545 H525 0.950 . S
C545 C540 1.386 . S
C545 C544 1.367 . S
C546 C540 1.483 . S
C546 C547 1.382 . S
C546 C548 1.403 . S
C547 H526 0.950 . S
C547 C546 1.382 . S
C547 C563 1.411 . S
C548 C546 1.403 . S
C548 C549 1.489 . S
C548 C562 1.411 . S
C549 C548 1.489 . S
C549 C550 1.383 . S
C549 C554 1.382 . S
C550 H527 0.950 . S
C550 C549 1.383 . S
C550 C551 1.395 . S
C551 H528 0.950 . S
C551 C550 1.395 . S
C551 C552 1.288 . S
C552 C551 1.288 . S
C552 C553 1.392 . S
C553 H529 0.951 . S
C553 C552 1.392 . S
C553 C554 1.392 . S
C554 H530 0.949 . S
C554 C549 1.382 . S
C554 C553 1.392 . S
C555 C556 1.376 . S
C555 C560 1.386 . S
C555 C561 1.483 . S
C556 H531 0.949 . S
C556 C555 1.376 . S
C556 C557 1.397 . S
C557 H532 0.950 . S
C557 C556 1.397 . S
C557 C558 1.391 . S
C558 C557 1.391 . S
C558 C559 1.405 . S
C559 H533 0.950 . S
C559 C558 1.405 . S
C559 C560 1.367 . S
C560 H534 0.950 . S
C560 C555 1.386 . S
C560 C559 1.367 . S
C561 C555 1.483 . S
C561 C562 1.382 . S
C561 C563 1.403 . S
C562 H535 0.950 . S
C562 C548 1.411 . S
C562 C561 1.382 . S
C563 C547 1.411 . S
C563 C561 1.403 . S
C563 C564 1.489 . S
C564 C563 1.489 . S
C564 C565 1.383 . S
C564 C569 1.382 . S
C565 H536 0.950 . S
C565 C564 1.383 . S
C565 C566 1.395 . S
C566 H537 0.950 . S
C566 C565 1.395 . S
C566 C567 1.288 . S
C567 C566 1.288 . S
C567 C568 1.392 . S
C568 H538 0.951 . S
C568 C567 1.392 . S
C568 C569 1.392 . S
C569 H539 0.949 . S
C569 C564 1.382 . S
C569 C568 1.392 . S
H570 C589 0.949 . S
H571 C590 0.950 . S
H572 C592 0.950 . S
H573 C593 0.950 . S
H574 C595 0.950 . S
H575 C598 0.950 . S
H576 C599 0.950 . S
H577 C601 0.951 . S
H578 C602 0.949 . S
H579 C604 0.949 . S
H580 C605 0.950 . S
H581 C607 0.950 . S
H582 C608 0.950 . S
H583 C610 0.950 . S
H584 C613 0.950 . S
H585 C614 0.950 . S
H586 C616 0.951 . S
H587 C617 0.949 . S
C588 C589 1.376 . S
C588 C593 1.386 . S
C588 C594 1.483 . S
C589 H570 0.949 . S
C589 C588 1.376 . S
C589 C590 1.397 . S
C590 H571 0.950 . S
C590 C589 1.397 . S
C590 C591 1.391 . S
C591 C590 1.391 . S
C591 C592 1.405 . S
C592 H572 0.950 . S
C592 C591 1.405 . S
C592 C593 1.367 . S
C593 H573 0.950 . S
C593 C588 1.386 . S
C593 C592 1.367 . S
C594 C588 1.483 . S
C594 C595 1.382 . S
C594 C596 1.403 . S
C595 H574 0.950 . S
C595 C594 1.382 . S
C595 C611 1.411 . S
C596 C594 1.403 . S
C596 C597 1.489 . S
C596 C610 1.411 . S
C597 C596 1.489 . S
C597 C598 1.383 . S
C597 C602 1.382 . S
C598 H575 0.950 . S
C598 C597 1.383 . S
C598 C599 1.395 . S
C599 H576 0.950 . S
C599 C598 1.395 . S
C599 C600 1.288 . S
C600 C599 1.288 . S
C600 C601 1.392 . S
C601 H577 0.951 . S
C601 C600 1.392 . S
C601 C602 1.392 . S
C602 H578 0.949 . S
C602 C597 1.382 . S
C602 C601 1.392 . S
C603 C604 1.376 . S
C603 C608 1.386 . S
C603 C609 1.483 . S
C604 H579 0.949 . S
C604 C603 1.376 . S
C604 C605 1.397 . S
C605 H580 0.950 . S
C605 C604 1.397 . S
C605 C606 1.391 . S
C606 C605 1.391 . S
C606 C607 1.405 . S
C607 H581 0.950 . S
C607 C606 1.405 . S
C607 C608 1.367 . S
C608 H582 0.950 . S
C608 C603 1.386 . S
C608 C607 1.367 . S
C609 C603 1.483 . S
C609 C610 1.382 . S
C609 C611 1.403 . S
C610 H583 0.950 . S
C610 C596 1.411 . S
C610 C609 1.382 . S
C611 C595 1.411 . S
C611 C609 1.403 . S
C611 C612 1.489 . S
C612 C611 1.489 . S
C612 C613 1.383 . S
C612 C617 1.382 . S
C613 H584 0.950 . S
C613 C612 1.383 . S
C613 C614 1.395 . S
C614 H585 0.950 . S
C614 C613 1.395 . S
C614 C615 1.288 . S
C615 C614 1.288 . S
C615 C616 1.392 . S
C616 H586 0.951 . S
C616 C615 1.392 . S
C616 C617 1.392 . S
C617 H587 0.949 . S
C617 C612 1.382 . S
C617 C616 1.392 . S
H618 C637 0.949 . S
H619 C638 0.950 . S
H620 C640 0.950 . S
H621 C641 0.950 . S
H622 C643 0.950 . S
H623 C646 0.950 . S
H624 C647 0.950 . S
H625 C649 0.951 . S
H626 C650 0.949 . S
H627 C652 0.949 . S
H628 C653 0.950 . S
H629 C655 0.950 . S
H630 C656 0.950 . S
H631 C658 0.950 . S
H632 C661 0.950 . S
H633 C662 0.950 . S
H634 C664 0.951 . S
H635 C665 0.949 . S
C636 C637 1.376 . S
C636 C641 1.386 . S
C636 C642 1.483 . S
C637 H618 0.949 . S
C637 C636 1.376 . S
C637 C638 1.397 . S
C638 H619 0.950 . S
C638 C637 1.397 . S
C638 C639 1.391 . S
C639 C638 1.391 . S
C639 C640 1.405 . S
C640 H620 0.950 . S
C640 C639 1.405 . S
C640 C641 1.367 . S
C641 H621 0.950 . S
C641 C636 1.386 . S
C641 C640 1.367 . S
C642 C636 1.483 . S
C642 C643 1.382 . S
C642 C644 1.403 . S
C643 H622 0.950 . S
C643 C642 1.382 . S
C643 C659 1.411 . S
C644 C642 1.403 . S
C644 C645 1.489 . S
C644 C658 1.411 . S
C645 C644 1.489 . S
C645 C646 1.383 . S
C645 C650 1.382 . S
C646 H623 0.950 . S
C646 C645 1.383 . S
C646 C647 1.395 . S
C647 H624 0.950 . S
C647 C646 1.395 . S
C647 C648 1.288 . S
C648 C647 1.288 . S
C648 C649 1.392 . S
C649 H625 0.951 . S
C649 C648 1.392 . S
C649 C650 1.392 . S
C650 H626 0.949 . S
C650 C645 1.382 . S
C650 C649 1.392 . S
C651 C652 1.376 . S
C651 C656 1.386 . S
C651 C657 1.483 . S
C652 H627 0.949 . S
C652 C651 1.376 . S
C652 C653 1.397 . S
C653 H628 0.950 . S
C653 C652 1.397 . S
C653 C654 1.391 . S
C654 C653 1.391 . S
C654 C655 1.405 . S
C655 H629 0.950 . S
C655 C654 1.405 . S
C655 C656 1.367 . S
C656 H630 0.950 . S
C656 C651 1.386 . S
C656 C655 1.367 . S
C657 C651 1.483 . S
C657 C658 1.382 . S
C657 C659 1.403 . S
C658 H631 0.950 . S
C658 C644 1.411 . S
C658 C657 1.382 . S
C659 C643 1.411 . S
C659 C657 1.403 . S
C659 C660 1.489 . S
C660 C659 1.489 . S
C660 C661 1.383 . S
C660 C665 1.382 . S
C661 H632 0.950 . S
C661 C660 1.383 . S
C661 C662 1.395 . S
C662 H633 0.950 . S
C662 C661 1.395 . S
C662 C663 1.288 . S
C663 C662 1.288 . S
C663 C664 1.392 . S
C664 H634 0.951 . S
C664 C663 1.392 . S
C664 C665 1.392 . S
C665 H635 0.949 . S
C665 C660 1.382 . S
C665 C664 1.392 . S
H666 C685 0.949 . S
H667 C686 0.950 . S
H668 C688 0.950 . S
H669 C689 0.950 . S
H670 C691 0.950 . S
H671 C694 0.950 . S
H672 C695 0.950 . S
H673 C697 0.951 . S
H674 C698 0.949 . S
H675 C700 0.949 . S
H676 C701 0.950 . S
H677 C703 0.950 . S
H678 C704 0.950 . S
H679 C706 0.950 . S
H680 C709 0.950 . S
H681 C710 0.950 . S
H682 C712 0.951 . S
H683 C713 0.949 . S
C684 C685 1.376 . S
C684 C689 1.386 1_655 S
C684 C690 1.483 . S
C685 H666 0.949 . S
C685 C684 1.376 . S
C685 C686 1.397 . S
C686 H667 0.950 . S
C686 C685 1.397 . S
C686 C687 1.391 . S
C687 C686 1.391 . S
C687 C688 1.405 1_655 S
C688 H668 0.950 . S
C688 C687 1.405 1_455 S
C688 C689 1.367 . S
C689 H669 0.950 . S
C689 C684 1.386 1_455 S
C689 C688 1.367 . S
C690 C684 1.483 . S
C690 C691 1.382 . S
C690 C692 1.403 1_655 S
C691 H670 0.950 . S
C691 C690 1.382 . S
C691 C707 1.411 . S
C692 C690 1.403 1_455 S
C692 C693 1.489 . S
C692 C706 1.411 . S
C693 C692 1.489 . S
C693 C694 1.383 1_455 S
C693 C698 1.382 . S
C694 H671 0.950 . S
C694 C693 1.383 1_655 S
C694 C695 1.395 . S
C695 H672 0.950 . S
C695 C694 1.395 . S
C695 C696 1.288 1_655 S
C696 C695 1.288 1_455 S
C696 C697 1.392 . S
C697 H673 0.951 . S
C697 C696 1.392 . S
C697 C698 1.392 . S
C698 H674 0.949 . S
C698 C693 1.382 . S
C698 C697 1.392 . S
C699 C700 1.376 . S
C699 C704 1.386 1_455 S
C699 C705 1.483 . S
C700 H675 0.949 . S
C700 C699 1.376 . S
C700 C701 1.397 . S
C701 H676 0.950 . S
C701 C700 1.397 . S
C701 C702 1.391 . S
C702 C701 1.391 . S
C702 C703 1.405 1_455 S
C703 H677 0.950 . S
C703 C702 1.405 1_655 S
C703 C704 1.367 . S
C704 H678 0.950 . S
C704 C699 1.386 1_655 S
C704 C703 1.367 . S
C705 C699 1.483 . S
C705 C706 1.382 . S
C705 C707 1.403 1_455 S
C706 H679 0.950 . S
C706 C692 1.411 . S
C706 C705 1.382 . S
C707 C691 1.411 . S
C707 C705 1.403 1_655 S
C707 C708 1.489 . S
C708 C707 1.489 . S
C708 C709 1.383 1_655 S
C708 C713 1.382 . S
C709 H680 0.950 . S
C709 C708 1.383 1_455 S
C709 C710 1.395 . S
C710 H681 0.950 . S
C710 C709 1.395 . S
C710 C711 1.288 1_455 S
C711 C710 1.288 1_655 S
C711 C712 1.392 . S
C712 H682 0.951 . S
C712 C711 1.392 . S
C712 C713 1.392 . S
C713 H683 0.949 . S
C713 C708 1.382 . S
C713 C712 1.392 . S
H714 C733 0.949 . S
H715 C734 0.950 . S
H716 C736 0.950 . S
H717 C737 0.950 . S
H718 C739 0.950 . S
H719 C742 0.950 . S
H720 C743 0.950 . S
H721 C745 0.951 . S
H722 C746 0.949 . S
H723 C748 0.949 . S
H724 C749 0.950 . S
H725 C751 0.950 . S
H726 C752 0.950 . S
H727 C754 0.950 . S
H728 C757 0.950 . S
H729 C758 0.950 . S
H730 C760 0.951 . S
H731 C761 0.949 . S
C732 C733 1.376 . S
C732 C737 1.386 . S
C732 C738 1.483 . S
C733 H714 0.949 . S
C733 C732 1.376 . S
C733 C734 1.397 . S
C734 H715 0.950 . S
C734 C733 1.397 . S
C734 C735 1.391 . S
C735 C734 1.391 . S
C735 C736 1.405 . S
C736 H716 0.950 . S
C736 C735 1.405 . S
C736 C737 1.367 . S
C737 H717 0.950 . S
C737 C732 1.386 . S
C737 C736 1.367 . S
C738 C732 1.483 . S
C738 C739 1.382 . S
C738 C740 1.403 . S
C739 H718 0.950 . S
C739 C738 1.382 . S
C739 C755 1.411 . S
C740 C738 1.403 . S
C740 C741 1.489 . S
C740 C754 1.411 . S
C741 C740 1.489 . S
C741 C742 1.383 . S
C741 C746 1.382 . S
C742 H719 0.950 . S
C742 C741 1.383 . S
C742 C743 1.395 . S
C743 H720 0.950 . S
C743 C742 1.395 . S
C743 C744 1.288 . S
C744 C743 1.288 . S
C744 C745 1.392 . S
C745 H721 0.951 . S
C745 C744 1.392 . S
C745 C746 1.392 . S
C746 H722 0.949 . S
C746 C741 1.382 . S
C746 C745 1.392 . S
C747 C748 1.376 . S
C747 C752 1.386 . S
C747 C753 1.483 . S
C748 H723 0.949 . S
C748 C747 1.376 . S
C748 C749 1.397 . S
C749 H724 0.950 . S
C749 C748 1.397 . S
C749 C750 1.391 . S
C750 C749 1.391 . S
C750 C751 1.405 . S
C751 H725 0.950 . S
C751 C750 1.405 . S
C751 C752 1.367 . S
C752 H726 0.950 . S
C752 C747 1.386 . S
C752 C751 1.367 . S
C753 C747 1.483 . S
C753 C754 1.382 . S
C753 C755 1.403 . S
C754 H727 0.950 . S
C754 C740 1.411 . S
C754 C753 1.382 . S
C755 C739 1.411 . S
C755 C753 1.403 . S
C755 C756 1.489 . S
C756 C755 1.489 . S
C756 C757 1.383 . S
C756 C761 1.382 . S
C757 H728 0.950 . S
C757 C756 1.383 . S
C757 C758 1.395 . S
C758 H729 0.950 . S
C758 C757 1.395 . S
C758 C759 1.288 . S
C759 C758 1.288 . S
C759 C760 1.392 . S
C760 H730 0.951 . S
C760 C759 1.392 . S
C760 C761 1.392 . S
C761 H731 0.949 . S
C761 C756 1.382 . S
C761 C760 1.392 . S
H762 C781 0.949 . S
H763 C782 0.950 . S
H764 C784 0.950 . S
H765 C785 0.950 . S
H766 C787 0.950 . S
H767 C790 0.950 . S
H768 C791 0.950 . S
H769 C793 0.951 . S
H770 C794 0.949 . S
H771 C796 0.949 . S
H772 C797 0.950 . S
H773 C799 0.950 . S
H774 C800 0.950 . S
H775 C802 0.950 . S
H776 C805 0.950 . S
H777 C806 0.950 . S
H778 C808 0.951 . S
H779 C809 0.949 . S
C780 C781 1.376 . S
C780 C785 1.386 1_545 S
C780 C786 1.483 . S
C781 H762 0.949 . S
C781 C780 1.376 . S
C781 C782 1.397 . S
C782 H763 0.950 . S
C782 C781 1.397 . S
C782 C783 1.391 . S
C783 C782 1.391 . S
C783 C784 1.405 1_545 S
C784 H764 0.950 . S
C784 C783 1.405 1_565 S
C784 C785 1.367 . S
C785 H765 0.950 . S
C785 C780 1.386 1_565 S
C785 C784 1.367 . S
C786 C780 1.483 . S
C786 C787 1.382 . S
C786 C788 1.403 1_545 S
C787 H766 0.950 . S
C787 C786 1.382 . S
C787 C803 1.411 . S
C788 C786 1.403 1_565 S
C788 C789 1.489 . S
C788 C802 1.411 . S
C789 C788 1.489 . S
C789 C790 1.383 1_565 S
C789 C794 1.382 . S
C790 H767 0.950 . S
C790 C789 1.383 1_545 S
C790 C791 1.395 . S
C791 H768 0.950 . S
C791 C790 1.395 . S
C791 C792 1.288 1_545 S
C792 C791 1.288 1_565 S
C792 C793 1.392 . S
C793 H769 0.951 . S
C793 C792 1.392 . S
C793 C794 1.392 . S
C794 H770 0.949 . S
C794 C789 1.382 . S
C794 C793 1.392 . S
C795 C796 1.376 . S
C795 C800 1.386 1_565 S
C795 C801 1.483 . S
C796 H771 0.949 . S
C796 C795 1.376 . S
C796 C797 1.397 . S
C797 H772 0.950 . S
C797 C796 1.397 . S
C797 C798 1.391 . S
C798 C797 1.391 . S
C798 C799 1.405 1_565 S
C799 H773 0.950 . S
C799 C798 1.405 1_545 S
C799 C800 1.367 . S
C800 H774 0.950 . S
C800 C795 1.386 1_545 S
C800 C799 1.367 . S
C801 C795 1.483 . S
C801 C802 1.382 . S
C801 C803 1.403 1_565 S
C802 H775 0.950 . S
C802 C788 1.411 . S
C802 C801 1.382 . S
C803 C787 1.411 . S
C803 C801 1.403 1_545 S
C803 C804 1.489 . S
C804 C803 1.489 . S
C804 C805 1.383 1_545 S
C804 C809 1.382 . S
C805 H776 0.950 . S
C805 C804 1.383 1_565 S
C805 C806 1.395 . S
C806 H777 0.950 . S
C806 C805 1.395 . S
C806 C807 1.288 1_565 S
C807 C806 1.288 1_545 S
C807 C808 1.392 . S
C808 H778 0.951 . S
C808 C807 1.392 . S
C808 C809 1.392 . S
C809 H779 0.949 . S
C809 C804 1.382 . S
C809 C808 1.392 . S
H810 C829 0.949 . S
H811 C830 0.950 . S
H812 C832 0.950 . S
H813 C833 0.950 . S
H814 C835 0.950 . S
H815 C838 0.950 . S
H816 C839 0.950 . S
H817 C841 0.951 . S
H818 C842 0.949 . S
H819 C844 0.949 . S
H820 C845 0.950 . S
H821 C847 0.950 . S
H822 C848 0.950 . S
H823 C850 0.950 . S
H824 C853 0.950 . S
H825 C854 0.950 . S
H826 C856 0.951 . S
H827 C857 0.949 . S
C828 C829 1.383 . S
C828 C833 1.383 1_545 S
C828 C834 1.504 . S
C829 H810 0.949 . S
C829 C828 1.383 . S
C829 C830 1.397 . S
C830 H811 0.950 . S
C830 C829 1.397 . S
C830 C831 1.391 1_545 S
C831 C830 1.391 1_565 S
C831 C832 1.405 . S
C832 H812 0.950 . S
C832 C831 1.405 . S
C832 C833 1.367 . S
C833 H813 0.950 . S
C833 C828 1.383 1_565 S
C833 C832 1.367 . S
C834 C828 1.504 . S
C834 C835 1.358 . S
C834 C836 1.398 1_545 S
C835 H814 0.950 . S
C835 C834 1.358 . S
C835 C851 1.444 . S
C836 C834 1.398 1_565 S
C836 C837 1.484 . S
C836 C850 1.433 . S
C837 C836 1.484 . S
C837 C838 1.353 1_565 S
C837 C842 1.398 . S
C838 H815 0.950 . S
C838 C837 1.353 1_545 S
C838 C839 1.395 . S
C839 H816 0.950 . S
C839 C838 1.395 . S
C839 C840 1.288 . S
C840 C839 1.288 . S
C840 C841 1.392 1_545 S
C841 H817 0.951 . S
C841 C840 1.392 1_565 S
C841 C842 1.392 . S
C842 H818 0.949 . S
C842 C837 1.398 . S
C842 C841 1.392 . S
C843 C844 1.383 1_545 S
C843 C848 1.383 . S
C843 C849 1.495 1_545 S
C844 H819 0.949 . S
C844 C843 1.383 1_565 S
C844 C845 1.397 . S
C845 H820 0.950 . S
C845 C844 1.397 . S
C845 C846 1.391 1_565 S
C846 C845 1.391 1_545 S
C846 C847 1.405 . S
C847 H821 0.950 . S
C847 C846 1.405 . S
C847 C848 1.367 . S
C848 H822 0.950 . S
C848 C843 1.383 . S
C848 C847 1.367 . S
C849 C843 1.495 1_565 S
C849 C850 1.366 . S
C849 C851 1.398 1_565 S
C850 H823 0.950 . S
C850 C836 1.433 . S
C850 C849 1.366 . S
C851 C835 1.444 . S
C851 C849 1.398 1_545 S
C851 C852 1.484 . S
C852 C851 1.484 . S
C852 C853 1.332 1_545 S
C852 C857 1.410 . S
C853 H824 0.950 . S
C853 C852 1.332 1_565 S
C853 C854 1.395 . S
C854 H825 0.950 . S
C854 C853 1.395 . S
C854 C855 1.330 . S
C855 C854 1.330 . S
C855 C856 1.311 1_565 S
C856 H826 0.951 . S
C856 C855 1.311 1_545 S
C856 C857 1.392 . S
C857 H827 0.949 . S
C857 C852 1.410 . S
C857 C856 1.392 . S
H858 C877 0.949 . S
H859 C878 0.950 . S
H860 C880 0.950 . S
H861 C881 0.950 . S
H862 C883 0.950 . S
H863 C886 0.950 . S
H864 C887 0.950 . S
H865 C889 0.951 . S
H866 C890 0.949 . S
H867 C892 0.949 . S
H868 C893 0.950 . S
H869 C895 0.950 . S
H870 C896 0.950 . S
H871 C898 0.950 . S
H872 C901 0.950 . S
H873 C902 0.950 . S
H874 C904 0.951 . S
H875 C905 0.949 . S
C876 C877 1.376 . S
C876 C881 1.386 1_455 S
C876 C882 1.483 . S
C877 H858 0.949 . S
C877 C876 1.376 . S
C877 C878 1.397 . S
C878 H859 0.950 . S
C878 C877 1.397 . S
C878 C879 1.391 . S
C879 C878 1.391 . S
C879 C880 1.405 1_455 S
C880 H860 0.950 . S
C880 C879 1.405 1_655 S
C880 C881 1.367 . S
C881 H861 0.950 . S
C881 C876 1.386 1_655 S
C881 C880 1.367 . S
C882 C876 1.483 . S
C882 C883 1.382 . S
C882 C884 1.403 1_455 S
C883 H862 0.950 . S
C883 C882 1.382 . S
C883 C899 1.411 . S
C884 C882 1.403 1_655 S
C884 C885 1.489 . S
C884 C898 1.411 . S
C885 C884 1.489 . S
C885 C886 1.383 1_655 S
C885 C890 1.382 . S
C886 H863 0.950 . S
C886 C885 1.383 1_455 S
C886 C887 1.395 . S
C887 H864 0.950 . S
C887 C886 1.395 . S
C887 C888 1.288 1_455 S
C888 C887 1.288 1_655 S
C888 C889 1.392 . S
C889 H865 0.951 . S
C889 C888 1.392 . S
C889 C890 1.392 . S
C890 H866 0.949 . S
C890 C885 1.382 . S
C890 C889 1.392 . S
C891 C892 1.376 . S
C891 C896 1.386 1_655 S
C891 C897 1.483 . S
C892 H867 0.949 . S
C892 C891 1.376 . S
C892 C893 1.397 . S
C893 H868 0.950 . S
C893 C892 1.397 . S
C893 C894 1.391 . S
C894 C893 1.391 . S
C894 C895 1.405 1_655 S
C895 H869 0.950 . S
C895 C894 1.405 1_455 S
C895 C896 1.367 . S
C896 H870 0.950 . S
C896 C891 1.386 1_455 S
C896 C895 1.367 . S
C897 C891 1.483 . S
C897 C898 1.382 . S
C897 C899 1.403 1_655 S
C898 H871 0.950 . S
C898 C884 1.411 . S
C898 C897 1.382 . S
C899 C883 1.411 . S
C899 C897 1.403 1_455 S
C899 C900 1.489 . S
C900 C899 1.489 . S
C900 C901 1.383 1_455 S
C900 C905 1.382 . S
C901 H872 0.950 . S
C901 C900 1.383 1_655 S
C901 C902 1.395 . S
C902 H873 0.950 . S
C902 C901 1.395 . S
C902 C903 1.288 1_655 S
C903 C902 1.288 1_455 S
C903 C904 1.392 . S
C904 H874 0.951 . S
C904 C903 1.392 . S
C904 C905 1.392 . S
C905 H875 0.949 . S
C905 C900 1.382 . S
C905 C904 1.392 . S
H906 C925 0.949 . S
H907 C926 0.950 . S
H908 C928 0.950 . S
H909 C929 0.950 . S
H910 C931 0.950 . S
H911 C934 0.950 . S
H912 C935 0.950 . S
H913 C937 0.951 . S
H914 C938 0.949 . S
H915 C940 0.949 . S
H916 C941 0.950 . S
H917 C943 0.950 . S
H918 C944 0.950 . S
H919 C946 0.950 . S
H920 C949 0.950 . S
H921 C950 0.950 . S
H922 C952 0.951 . S
H923 C953 0.949 . S
C924 C925 1.376 . S
C924 C929 1.386 . S
C924 C930 1.483 . S
C925 H906 0.949 . S
C925 C924 1.376 . S
C925 C926 1.397 . S
C926 H907 0.950 . S
C926 C925 1.397 . S
C926 C927 1.391 . S
C927 C926 1.391 . S
C927 C928 1.405 . S
C928 H908 0.950 . S
C928 C927 1.405 . S
C928 C929 1.367 . S
C929 H909 0.950 . S
C929 C924 1.386 . S
C929 C928 1.367 . S
C930 C924 1.483 . S
C930 C931 1.382 . S
C930 C932 1.403 . S
C931 H910 0.950 . S
C931 C930 1.382 . S
C931 C947 1.411 . S
C932 C930 1.403 . S
C932 C933 1.489 . S
C932 C946 1.411 . S
C933 C932 1.489 . S
C933 C934 1.383 . S
C933 C938 1.382 . S
C934 H911 0.950 . S
C934 C933 1.383 . S
C934 C935 1.395 . S
C935 H912 0.950 . S
C935 C934 1.395 . S
C935 C936 1.288 . S
C936 C935 1.288 . S
C936 C937 1.392 . S
C937 H913 0.951 . S
C937 C936 1.392 . S
C937 C938 1.392 . S
C938 H914 0.949 . S
C938 C933 1.382 . S
C938 C937 1.392 . S
C939 C940 1.376 . S
C939 C944 1.386 . S
C939 C945 1.483 . S
C940 H915 0.949 . S
C940 C939 1.376 . S
C940 C941 1.397 . S
C941 H916 0.950 . S
C941 C940 1.397 . S
C941 C942 1.391 . S
C942 C941 1.391 . S
C942 C943 1.405 . S
C943 H917 0.950 . S
C943 C942 1.405 . S
C943 C944 1.367 . S
C944 H918 0.950 . S
C944 C939 1.386 . S
C944 C943 1.367 . S
C945 C939 1.483 . S
C945 C946 1.382 . S
C945 C947 1.403 . S
C946 H919 0.950 . S
C946 C932 1.411 . S
C946 C945 1.382 . S
C947 C931 1.411 . S
C947 C945 1.403 . S
C947 C948 1.489 . S
C948 C947 1.489 . S
C948 C949 1.383 . S
C948 C953 1.382 . S
C949 H920 0.950 . S
C949 C948 1.383 . S
C949 C950 1.395 . S
C950 H921 0.950 . S
C950 C949 1.395 . S
C950 C951 1.288 . S
C951 C950 1.288 . S
C951 C952 1.392 . S
C952 H922 0.951 . S
C952 C951 1.392 . S
C952 C953 1.392 . S
C953 H923 0.949 . S
C953 C948 1.382 . S
C953 C952 1.392 . S
H954 C973 0.949 . S
H955 C974 0.950 . S
H956 C976 0.950 . S
H957 C977 0.950 . S
H958 C979 0.950 . S
H959 C982 0.950 . S
H960 C983 0.950 . S
H961 C985 0.951 . S
H962 C986 0.949 . S
H963 C988 0.949 . S
H964 C989 0.950 . S
H965 C991 0.950 . S
H966 C992 0.950 . S
H967 C994 0.950 . S
H968 C997 0.950 . S
H969 C998 0.950 . S
H970 C1000 0.951 . S
H971 C1001 0.949 . S
C972 C973 1.376 . S
C972 C977 1.386 . S
C972 C978 1.483 . S
C973 H954 0.949 . S
C973 C972 1.376 . S
C973 C974 1.397 . S
C974 H955 0.950 . S
C974 C973 1.397 . S
C974 C975 1.391 . S
C975 C974 1.391 . S
C975 C976 1.405 . S
C976 H956 0.950 . S
C976 C975 1.405 . S
C976 C977 1.367 . S
C977 H957 0.950 . S
C977 C972 1.386 . S
C977 C976 1.367 . S
C978 C972 1.483 . S
C978 C979 1.382 . S
C978 C980 1.403 . S
C979 H958 0.950 . S
C979 C978 1.382 . S
C979 C995 1.411 . S
C980 C978 1.403 . S
C980 C981 1.489 . S
C980 C994 1.411 . S
C981 C980 1.489 . S
C981 C982 1.383 . S
C981 C986 1.382 . S
C982 H959 0.950 . S
C982 C981 1.383 . S
C982 C983 1.395 . S
C983 H960 0.950 . S
C983 C982 1.395 . S
C983 C984 1.288 . S
C984 C983 1.288 . S
C984 C985 1.392 . S
C985 H961 0.951 . S
C985 C984 1.392 . S
C985 C986 1.392 . S
C986 H962 0.949 . S
C986 C981 1.382 . S
C986 C985 1.392 . S
C987 C988 1.376 . S
C987 C992 1.386 . S
C987 C993 1.483 . S
C988 H963 0.949 . S
C988 C987 1.376 . S
C988 C989 1.397 . S
C989 H964 0.950 . S
C989 C988 1.397 . S
C989 C990 1.391 . S
C990 C989 1.391 . S
C990 C991 1.405 . S
C991 H965 0.950 . S
C991 C990 1.405 . S
C991 C992 1.367 . S
C992 H966 0.950 . S
C992 C987 1.386 . S
C992 C991 1.367 . S
C993 C987 1.483 . S
C993 C994 1.382 . S
C993 C995 1.403 . S
C994 H967 0.950 . S
C994 C980 1.411 . S
C994 C993 1.382 . S
C995 C979 1.411 . S
C995 C993 1.403 . S
C995 C996 1.489 . S
C996 C995 1.489 . S
C996 C997 1.383 . S
C996 C1001 1.382 . S
C997 H968 0.950 . S
C997 C996 1.383 . S
C997 C998 1.395 . S
C998 H969 0.950 . S
C998 C997 1.395 . S
C998 C999 1.288 . S
C999 C998 1.288 . S
C999 C1000 1.392 . S
C1000 H970 0.951 . S
C1000 C999 1.392 . S
C1000 C1001 1.392 . S
C1001 H971 0.949 . S
C1001 C996 1.382 . S
C1001 C1000 1.392 . S
H1002 C1021 0.949 . S
H1003 C1022 0.950 . S
H1004 C1024 0.950 . S
H1005 C1025 0.950 . S
H1006 C1027 0.950 . S
H1007 C1030 0.950 . S
H1008 C1031 0.950 . S
H1009 C1033 0.951 . S
H1010 C1034 0.949 . S
H1011 C1036 0.949 . S
H1012 C1037 0.950 . S
H1013 C1039 0.950 . S
H1014 C1040 0.950 . S
H1015 C1042 0.950 . S
H1016 C1045 0.950 . S
H1017 C1046 0.950 . S
H1018 C1048 0.951 . S
H1019 C1049 0.949 . S
C1020 C1021 1.376 . S
C1020 C1025 1.386 . S
C1020 C1026 1.483 . S
C1021 H1002 0.949 . S
C1021 C1020 1.376 . S
C1021 C1022 1.397 . S
C1022 H1003 0.950 . S
C1022 C1021 1.397 . S
C1022 C1023 1.391 . S
C1023 C1022 1.391 . S
C1023 C1024 1.405 . S
C1024 H1004 0.950 . S
C1024 C1023 1.405 . S
C1024 C1025 1.367 . S
C1025 H1005 0.950 . S
C1025 C1020 1.386 . S
C1025 C1024 1.367 . S
C1026 C1020 1.483 . S
C1026 C1027 1.382 . S
C1026 C1028 1.403 . S
C1027 H1006 0.950 . S
C1027 C1026 1.382 . S
C1027 C1043 1.411 . S
C1028 C1026 1.403 . S
C1028 C1029 1.489 . S
C1028 C1042 1.411 . S
C1029 C1028 1.489 . S
C1029 C1030 1.383 . S
C1029 C1034 1.382 . S
C1030 H1007 0.950 . S
C1030 C1029 1.383 . S
C1030 C1031 1.395 . S
C1031 H1008 0.950 . S
C1031 C1030 1.395 . S
C1031 C1032 1.288 . S
C1032 C1031 1.288 . S
C1032 C1033 1.392 . S
C1033 H1009 0.951 . S
C1033 C1032 1.392 . S
C1033 C1034 1.392 . S
C1034 H1010 0.949 . S
C1034 C1029 1.382 . S
C1034 C1033 1.392 . S
C1035 C1036 1.376 . S
C1035 C1040 1.386 . S
C1035 C1041 1.483 . S
C1036 H1011 0.949 . S
C1036 C1035 1.376 . S
C1036 C1037 1.397 . S
C1037 H1012 0.950 . S
C1037 C1036 1.397 . S
C1037 C1038 1.391 . S
C1038 C1037 1.391 . S
C1038 C1039 1.405 . S
C1039 H1013 0.950 . S
C1039 C1038 1.405 . S
C1039 C1040 1.367 . S
C1040 H1014 0.950 . S
C1040 C1035 1.386 . S
C1040 C1039 1.367 . S
C1041 C1035 1.483 . S
C1041 C1042 1.382 . S
C1041 C1043 1.403 . S
C1042 H1015 0.950 . S
C1042 C1028 1.411 . S
C1042 C1041 1.382 . S
C1043 C1027 1.411 . S
C1043 C1041 1.403 . S
C1043 C1044 1.489 . S
C1044 C1043 1.489 . S
C1044 C1045 1.383 . S
C1044 C1049 1.382 . S
C1045 H1016 0.950 . S
C1045 C1044 1.383 . S
C1045 C1046 1.395 . S
C1046 H1017 0.950 . S
C1046 C1045 1.395 . S
C1046 C1047 1.288 . S
C1047 C1046 1.288 . S
C1047 C1048 1.392 . S
C1048 H1018 0.951 . S
C1048 C1047 1.392 . S
C1048 C1049 1.392 . S
C1049 H1019 0.949 . S
C1049 C1044 1.382 . S
C1049 C1048 1.392 . S
H1050 C1069 0.949 . S
H1051 C1070 0.950 . S
H1052 C1072 0.950 . S
H1053 C1073 0.950 . S
H1054 C1075 0.950 . S
H1055 C1078 0.950 . S
H1056 C1079 0.950 . S
H1057 C1081 0.951 . S
H1058 C1082 0.949 . S
H1059 C1084 0.949 . S
H1060 C1085 0.950 . S
H1061 C1087 0.950 . S
H1062 C1088 0.950 . S
H1063 C1090 0.950 . S
H1064 C1093 0.950 . S
H1065 C1094 0.950 . S
H1066 C1096 0.951 . S
H1067 C1097 0.949 . S
C1068 C1069 1.376 . S
C1068 C1073 1.386 . S
C1068 C1074 1.483 . S
C1069 H1050 0.949 . S
C1069 C1068 1.376 . S
C1069 C1070 1.397 . S
C1070 H1051 0.950 . S
C1070 C1069 1.397 . S
C1070 C1071 1.391 . S
C1071 C1070 1.391 . S
C1071 C1072 1.405 . S
C1072 H1052 0.950 . S
C1072 C1071 1.405 . S
C1072 C1073 1.367 . S
C1073 H1053 0.950 . S
C1073 C1068 1.386 . S
C1073 C1072 1.367 . S
C1074 C1068 1.483 . S
C1074 C1075 1.382 . S
C1074 C1076 1.403 . S
C1075 H1054 0.950 . S
C1075 C1074 1.382 . S
C1075 C1091 1.411 . S
C1076 C1074 1.403 . S
C1076 C1077 1.489 . S
C1076 C1090 1.411 . S
C1077 C1076 1.489 . S
C1077 C1078 1.383 . S
C1077 C1082 1.382 . S
C1078 H1055 0.950 . S
C1078 C1077 1.383 . S
C1078 C1079 1.395 . S
C1079 H1056 0.950 . S
C1079 C1078 1.395 . S
C1079 C1080 1.288 . S
C1080 C1079 1.288 . S
C1080 C1081 1.392 . S
C1081 H1057 0.951 . S
C1081 C1080 1.392 . S
C1081 C1082 1.392 . S
C1082 H1058 0.949 . S
C1082 C1077 1.382 . S
C1082 C1081 1.392 . S
C1083 C1084 1.376 . S
C1083 C1088 1.386 . S
C1083 C1089 1.483 . S
C1084 H1059 0.949 . S
C1084 C1083 1.376 . S
C1084 C1085 1.397 . S
C1085 H1060 0.950 . S
C1085 C1084 1.397 . S
C1085 C1086 1.391 . S
C1086 C1085 1.391 . S
C1086 C1087 1.405 . S
C1087 H1061 0.950 . S
C1087 C1086 1.405 . S
C1087 C1088 1.367 . S
C1088 H1062 0.950 . S
C1088 C1083 1.386 . S
C1088 C1087 1.367 . S
C1089 C1083 1.483 . S
C1089 C1090 1.382 . S
C1089 C1091 1.403 . S
C1090 H1063 0.950 . S
C1090 C1076 1.411 . S
C1090 C1089 1.382 . S
C1091 C1075 1.411 . S
C1091 C1089 1.403 . S
C1091 C1092 1.489 . S
C1092 C1091 1.489 . S
C1092 C1093 1.383 . S
C1092 C1097 1.382 . S
C1093 H1064 0.950 . S
C1093 C1092 1.383 . S
C1093 C1094 1.395 . S
C1094 H1065 0.950 . S
C1094 C1093 1.395 . S
C1094 C1095 1.288 . S
C1095 C1094 1.288 . S
C1095 C1096 1.392 . S
C1096 H1066 0.951 . S
C1096 C1095 1.392 . S
C1096 C1097 1.392 . S
C1097 H1067 0.949 . S
C1097 C1092 1.382 . S
C1097 C1096 1.392 . S
C1098 C1099 1.349 . S
C1098 C1100 1.327 . S
C1098 H1123 0.950 . S
C1099 C1098 1.349 . S
C1099 C1115 1.350 1_455 S
C1100 C1098 1.327 . S
C1100 C1119 1.416 1_455 S
C1100 H1124 0.950 . S
C1101 C1118 1.574 . S
C1101 C1120 1.391 . S
C1101 H1125 0.949 . S
H1102 C1106 0.949 . S
C1103 C1104 1.349 . S
C1103 C1105 1.327 . S
C1103 H1126 0.950 . S
C1104 C1103 1.349 . S
C1104 C1116 1.349 1_655 S
C1105 C1103 1.327 . S
C1105 C1121 1.429 . S
C1105 H1127 0.950 . S
C1106 H1102 0.949 . S
C1106 C1114 1.574 . S
C1106 C1122 1.368 1_455 S
H1107 C1115 0.950 . S
H1108 C1113 0.950 . S
H1109 C1114 0.949 . S
H1110 C1116 0.950 . S
H1111 C1117 0.950 . S
H1112 C1118 0.949 . S
C1113 H1108 0.950 . S
C1113 C1115 1.327 . S
C1113 C1119 1.425 . S
C1114 C1106 1.574 . S
C1114 H1109 0.949 . S
C1114 C1120 1.372 1_455 S
C1115 C1099 1.350 1_655 S
C1115 H1107 0.950 . S
C1115 C1113 1.327 . S
C1116 C1104 1.349 1_455 S
C1116 H1110 0.950 . S
C1116 C1117 1.327 . S
C1117 H1111 0.950 . S
C1117 C1116 1.327 . S
C1117 C1121 1.429 1_455 S
C1118 C1101 1.574 . S
C1118 H1112 0.949 . S
C1118 C1122 1.368 . S
C1119 C1100 1.416 1_655 S
C1119 C1113 1.425 . S
C1119 C1120 1.511 . S
C1120 C1101 1.391 . S
C1120 C1114 1.372 1_655 S
C1120 C1119 1.511 . S
C1121 C1105 1.429 . S
C1121 C1117 1.429 1_655 S
C1121 C1122 1.523 . S
C1122 C1106 1.368 1_655 S
C1122 C1118 1.368 . S
C1122 C1121 1.523 . S
H1123 C1098 0.950 . S
H1124 C1100 0.950 . S
H1125 C1101 0.949 . S
H1126 C1103 0.950 . S
H1127 C1105 0.950 . S
C1128 C1129 1.349 . S
C1128 C1130 1.327 . S
C1128 H1153 0.950 . S
C1129 C1128 1.349 . S
C1129 C1145 1.349 . S
C1130 C1128 1.327 . S
C1130 C1149 1.429 . S
C1130 H1154 0.950 . S
C1131 C1148 1.574 . S
C1131 C1150 1.368 . S
C1131 H1155 0.949 . S
H1132 C1136 0.949 . S
C1133 C1134 1.349 . S
C1133 C1135 1.327 . S
C1133 H1156 0.950 . S
C1134 C1133 1.349 . S
C1134 C1146 1.349 . S
C1135 C1133 1.327 . S
C1135 C1151 1.429 . S
C1135 H1157 0.950 . S
C1136 H1132 0.949 . S
C1136 C1144 1.574 . S
C1136 C1152 1.368 . S
H1137 C1145 0.950 . S
H1138 C1143 0.950 . S
H1139 C1144 0.949 . S
H1140 C1146 0.950 . S
H1141 C1147 0.950 . S
H1142 C1148 0.949 . S
C1143 H1138 0.950 . S
C1143 C1145 1.327 . S
C1143 C1149 1.429 . S
C1144 C1136 1.574 . S
C1144 H1139 0.949 . S
C1144 C1150 1.368 . S
C1145 C1129 1.349 . S
C1145 H1137 0.950 . S
C1145 C1143 1.327 . S
C1146 C1134 1.349 . S
C1146 H1140 0.950 . S
C1146 C1147 1.327 . S
C1147 H1141 0.950 . S
C1147 C1146 1.327 . S
C1147 C1151 1.429 . S
C1148 C1131 1.574 . S
C1148 H1142 0.949 . S
C1148 C1152 1.368 . S
C1149 C1130 1.429 . S
C1149 C1143 1.429 . S
C1149 C1150 1.523 . S
C1150 C1131 1.368 . S
C1150 C1144 1.368 . S
C1150 C1149 1.523 . S
C1151 C1135 1.429 . S
C1151 C1147 1.429 . S
C1151 C1152 1.523 . S
C1152 C1136 1.368 . S
C1152 C1148 1.368 . S
C1152 C1151 1.523 . S
H1153 C1128 0.950 . S
H1154 C1130 0.950 . S
H1155 C1131 0.949 . S
H1156 C1133 0.950 . S
H1157 C1135 0.950 . S
C1158 C1159 1.413 . S
C1158 C1160 1.327 . S
C1158 H1183 0.950 . S
C1159 C1158 1.413 . S
C1159 C1175 1.253 1_545 S
C1160 C1158 1.327 . S
C1160 C1179 1.429 . S
C1160 H1184 0.950 . S
C1161 C1178 1.574 . S
C1161 C1180 1.368 1_565 S
C1161 H1185 0.949 . S
H1162 C1166 0.949 . S
C1163 C1164 1.349 1_565 S
C1163 C1165 1.327 . S
C1163 H1186 0.950 . S
C1164 C1163 1.349 1_545 S
C1164 C1176 1.349 . S
C1165 C1163 1.327 . S
C1165 C1181 1.429 1_565 S
C1165 H1187 0.950 . S
C1166 H1162 0.949 . S
C1166 C1174 1.574 . S
C1166 C1182 1.368 . S
H1167 C1175 0.950 . S
H1168 C1173 0.950 . S
H1169 C1174 0.949 . S
H1170 C1176 0.950 . S
H1171 C1177 0.950 . S
H1172 C1178 0.949 . S
C1173 H1168 0.950 . S
C1173 C1175 1.327 . S
C1173 C1179 1.429 1_565 S
C1174 C1166 1.574 . S
C1174 H1169 0.949 . S
C1174 C1180 1.368 . S
C1175 C1159 1.253 1_565 S
C1175 H1167 0.950 . S
C1175 C1173 1.327 . S
C1176 C1164 1.349 . S
C1176 H1170 0.950 . S
C1176 C1177 1.327 . S
C1177 H1171 0.950 . S
C1177 C1176 1.327 . S
C1177 C1181 1.429 . S
C1178 C1161 1.574 . S
C1178 H1172 0.949 . S
C1178 C1182 1.368 1_565 S
C1179 C1160 1.429 . S
C1179 C1173 1.429 1_545 S
C1179 C1180 1.523 . S
C1180 C1161 1.368 1_545 S
C1180 C1174 1.368 . S
C1180 C1179 1.523 . S
C1181 C1165 1.429 1_545 S
C1181 C1177 1.429 . S
C1181 C1182 1.523 . S
C1182 C1166 1.368 . S
C1182 C1178 1.368 1_545 S
C1182 C1181 1.523 . S
H1183 C1158 0.950 . S
H1184 C1160 0.950 . S
H1185 C1161 0.949 . S
H1186 C1163 0.950 . S
H1187 C1165 0.950 . S
C1188 C1189 1.338 1_565 S
C1188 C1190 1.327 . S
C1188 H1213 0.950 . S
C1189 C1188 1.338 1_545 S
C1189 C1205 1.354 . S
C1190 C1188 1.327 . S
C1190 C1209 1.435 . S
C1190 H1214 0.950 . S
C1191 C1208 1.574 . S
C1191 C1210 1.348 1_545 S
C1191 H1215 0.949 . S
H1192 C1196 0.949 . S
C1193 C1194 1.349 1_545 S
C1193 C1195 1.327 . S
C1193 H1216 0.950 . S
C1194 C1193 1.349 1_565 S
C1194 C1206 1.349 . S
C1195 C1193 1.327 . S
C1195 C1211 1.429 1_545 S
C1195 H1217 0.950 . S
C1196 H1192 0.949 . S
C1196 C1204 1.574 . S
C1196 C1212 1.368 . S
H1197 C1205 0.950 . S
H1198 C1203 0.950 . S
H1199 C1204 0.949 . S
H1200 C1206 0.950 . S
H1201 C1207 0.950 . S
H1202 C1208 0.949 . S
C1203 H1198 0.950 . S
C1203 C1205 1.327 . S
C1203 C1209 1.412 1_545 S
C1204 C1196 1.574 . S
C1204 H1199 0.949 . S
C1204 C1210 1.409 . S
C1205 C1189 1.354 . S
C1205 H1197 0.950 . S
C1205 C1203 1.327 . S
C1206 C1194 1.349 . S
C1206 H1200 0.950 . S
C1206 C1207 1.327 . S
C1207 H1201 0.950 . S
C1207 C1206 1.327 . S
C1207 C1211 1.429 . S
C1208 C1191 1.574 . S
C1208 H1202 0.949 . S
C1208 C1212 1.368 1_545 S
C1209 C1190 1.435 . S
C1209 C1203 1.412 1_565 S
C1209 C1210 1.510 . S
C1210 C1191 1.348 1_565 S
C1210 C1204 1.409 . S
C1210 C1209 1.510 . S
C1211 C1195 1.429 1_565 S
C1211 C1207 1.429 . S
C1211 C1212 1.523 . S
C1212 C1196 1.368 . S
C1212 C1208 1.368 1_565 S
C1212 C1211 1.523 . S
H1213 C1188 0.950 . S
H1214 C1190 0.950 . S
H1215 C1191 0.949 . S
H1216 C1193 0.950 . S
H1217 C1195 0.950 . S
C1218 C1219 1.392 . S
C1218 C1220 1.327 . S
C1218 H1243 0.950 . S
C1219 C1218 1.392 . S
C1219 C1235 1.279 1_455 S
C1220 C1218 1.327 . S
C1220 C1239 1.429 . S
C1220 H1244 0.950 . S
C1221 C1238 1.574 . S
C1221 C1240 1.368 1_655 S
C1221 H1245 0.949 . S
H1222 C1226 0.949 . S
C1223 C1224 1.349 1_655 S
C1223 C1225 1.327 . S
C1223 H1246 0.950 . S
C1224 C1223 1.349 1_455 S
C1224 C1236 1.349 . S
C1225 C1223 1.327 . S
C1225 C1241 1.429 1_655 S
C1225 H1247 0.950 . S
C1226 H1222 0.949 . S
C1226 C1234 1.574 . S
C1226 C1242 1.368 . S
H1227 C1235 0.950 . S
H1228 C1233 0.950 . S
H1229 C1234 0.949 . S
H1230 C1236 0.950 . S
H1231 C1237 0.950 . S
H1232 C1238 0.949 . S
C1233 H1228 0.950 . S
C1233 C1235 1.327 . S
C1233 C1239 1.429 1_655 S
C1234 C1226 1.574 . S
C1234 H1229 0.949 . S
C1234 C1240 1.368 . S
C1235 C1219 1.279 1_655 S
C1235 H1227 0.950 . S
C1235 C1233 1.327 . S
C1236 C1224 1.349 . S
C1236 H1230 0.950 . S
C1236 C1237 1.327 . S
C1237 H1231 0.950 . S
C1237 C1236 1.327 . S
C1237 C1241 1.429 . S
C1238 C1221 1.574 . S
C1238 H1232 0.949 . S
C1238 C1242 1.368 1_655 S
C1239 C1220 1.429 . S
C1239 C1233 1.429 1_455 S
C1239 C1240 1.523 . S
C1240 C1221 1.368 1_455 S
C1240 C1234 1.368 . S
C1240 C1239 1.523 . S
C1241 C1225 1.429 1_455 S
C1241 C1237 1.429 . S
C1241 C1242 1.523 . S
C1242 C1226 1.368 . S
C1242 C1238 1.368 1_455 S
C1242 C1241 1.523 . S
H1243 C1218 0.950 . S
H1244 C1220 0.950 . S
H1245 C1221 0.949 . S
H1246 C1223 0.950 . S
H1247 C1225 0.950 . S
C1248 C1249 1.349 . S
C1248 C1250 1.327 . S
C1248 H1273 0.950 . S
C1249 C1248 1.349 . S
C1249 C1265 1.349 . S
C1250 C1248 1.327 . S
C1250 C1269 1.429 . S
C1250 H1274 0.950 . S
C1251 C1268 1.574 . S
C1251 C1270 1.368 . S
C1251 H1275 0.949 . S
H1252 C1256 0.949 . S
C1253 C1254 1.349 . S
C1253 C1255 1.327 . S
C1253 H1276 0.950 . S
C1254 C1253 1.349 . S
C1254 C1266 1.349 . S
C1255 C1253 1.327 . S
C1255 C1271 1.429 . S
C1255 H1277 0.950 . S
C1256 H1252 0.949 . S
C1256 C1264 1.574 . S
C1256 C1272 1.368 . S
H1257 C1265 0.950 . S
H1258 C1263 0.950 . S
H1259 C1264 0.949 . S
H1260 C1266 0.950 . S
H1261 C1267 0.950 . S
H1262 C1268 0.949 . S
C1263 H1258 0.950 . S
C1263 C1265 1.327 . S
C1263 C1269 1.429 . S
C1264 C1256 1.574 . S
C1264 H1259 0.949 . S
C1264 C1270 1.368 . S
C1265 C1249 1.349 . S
C1265 H1257 0.950 . S
C1265 C1263 1.327 . S
C1266 C1254 1.349 . S
C1266 H1260 0.950 . S
C1266 C1267 1.327 . S
C1267 H1261 0.950 . S
C1267 C1266 1.327 . S
C1267 C1271 1.429 . S
C1268 C1251 1.574 . S
C1268 H1262 0.949 . S
C1268 C1272 1.368 . S
C1269 C1250 1.429 . S
C1269 C1263 1.429 . S
C1269 C1270 1.523 . S
C1270 C1251 1.368 . S
C1270 C1264 1.368 . S
C1270 C1269 1.523 . S
C1271 C1255 1.429 . S
C1271 C1267 1.429 . S
C1271 C1272 1.523 . S
C1272 C1256 1.368 . S
C1272 C1268 1.368 . S
C1272 C1271 1.523 . S
H1273 C1248 0.950 . S
H1274 C1250 0.950 . S
H1275 C1251 0.949 . S
H1276 C1253 0.950 . S
H1277 C1255 0.950 . S
C1278 C1279 1.351 . S
C1278 C1280 1.327 . S
C1278 H1303 0.950 . S
C1279 C1278 1.351 . S
C1279 C1295 1.368 1_455 S
C1280 C1278 1.327 . S
C1280 C1299 1.429 . S
C1280 H1304 0.950 . S
C1281 C1298 1.609 . S
C1281 C1300 1.368 1_655 S
C1281 H1305 0.949 . S
H1282 C1286 0.949 . S
C1283 C1284 1.349 1_655 S
C1283 C1285 1.317 . S
C1283 H1306 0.951 . S
C1284 C1283 1.349 1_455 S
C1284 C1296 1.349 . S
C1285 C1283 1.317 . S
C1285 C1301 1.438 1_655 S
C1285 H1307 0.950 . S
C1286 H1282 0.949 . S
C1286 C1294 1.574 . S
C1286 C1302 1.368 . S
H1287 C1295 0.950 . S
H1288 C1293 0.950 . S
H1289 C1294 0.949 . S
H1290 C1296 0.950 . S
H1291 C1297 0.950 . S
H1292 C1298 0.921 . S
C1293 H1288 0.950 . S
C1293 C1295 1.327 . S
C1293 C1299 1.429 1_655 S
C1294 C1286 1.574 . S
C1294 H1289 0.949 . S
C1294 C1300 1.368 . S
C1295 C1279 1.368 1_655 S
C1295 H1287 0.950 . S
C1295 C1293 1.327 . S
C1296 C1284 1.349 . S
C1296 H1290 0.950 . S
C1296 C1297 1.327 . S
C1297 H1291 0.950 . S
C1297 C1296 1.327 . S
C1297 C1301 1.429 . S
C1298 C1281 1.609 . S
C1298 H1292 0.921 . S
C1298 C1302 1.374 1_655 S
C1299 C1280 1.429 . S
C1299 C1293 1.429 1_455 S
C1299 C1300 1.523 . S
C1300 C1281 1.368 1_455 S
C1300 C1294 1.368 . S
C1300 C1299 1.523 . S
C1301 C1285 1.438 1_455 S
C1301 C1297 1.429 . S
C1301 C1302 1.523 . S
C1302 C1286 1.368 . S
C1302 C1298 1.374 1_455 S
C1302 C1301 1.523 . S
H1303 C1278 0.950 . S
H1304 C1280 0.950 . S
H1305 C1281 0.949 . S
H1306 C1283 0.951 . S
H1307 C1285 0.950 . S
C1308 C1309 1.349 . S
C1308 C1310 1.327 . S
C1308 H1333 0.950 . S
C1309 C1308 1.349 . S
C1309 C1325 1.349 . S
C1310 C1308 1.327 . S
C1310 C1329 1.429 . S
C1310 H1334 0.950 . S
C1311 C1328 1.574 . S
C1311 C1330 1.368 . S
C1311 H1335 0.949 . S
H1312 C1316 0.949 . S
C1313 C1314 1.349 . S
C1313 C1315 1.327 . S
C1313 H1336 0.950 . S
C1314 C1313 1.349 . S
C1314 C1326 1.349 . S
C1315 C1313 1.327 . S
C1315 C1331 1.429 . S
C1315 H1337 0.950 . S
C1316 H1312 0.949 . S
C1316 C1324 1.574 . S
C1316 C1332 1.368 . S
H1317 C1325 0.950 . S
H1318 C1323 0.950 . S
H1319 C1324 0.949 . S
H1320 C1326 0.950 . S
H1321 C1327 0.950 . S
H1322 C1328 0.949 . S
C1323 H1318 0.950 . S
C1323 C1325 1.327 . S
C1323 C1329 1.429 . S
C1324 C1316 1.574 . S
C1324 H1319 0.949 . S
C1324 C1330 1.368 . S
C1325 C1309 1.349 . S
C1325 H1317 0.950 . S
C1325 C1323 1.327 . S
C1326 C1314 1.349 . S
C1326 H1320 0.950 . S
C1326 C1327 1.327 . S
C1327 H1321 0.950 . S
C1327 C1326 1.327 . S
C1327 C1331 1.429 . S
C1328 C1311 1.574 . S
C1328 H1322 0.949 . S
C1328 C1332 1.368 . S
C1329 C1310 1.429 . S
C1329 C1323 1.429 . S
C1329 C1330 1.523 . S
C1330 C1311 1.368 . S
C1330 C1324 1.368 . S
C1330 C1329 1.523 . S
C1331 C1315 1.429 . S
C1331 C1327 1.429 . S
C1331 C1332 1.523 . S
C1332 C1316 1.368 . S
C1332 C1328 1.368 . S
C1332 C1331 1.523 . S
H1333 C1308 0.950 . S
H1334 C1310 0.950 . S
H1335 C1311 0.949 . S
H1336 C1313 0.950 . S
H1337 C1315 0.950 . S
C1338 C1339 1.338 1_545 S
C1338 C1340 1.327 . S
C1338 H1363 0.950 . S
C1339 C1338 1.338 1_565 S
C1339 C1355 1.353 . S
C1340 C1338 1.327 . S
C1340 C1359 1.415 1_545 S
C1340 H1364 0.950 . S
C1341 C1358 1.574 . S
C1341 C1360 1.368 . S
C1341 H1365 0.949 . S
H1342 C1346 0.949 . S
C1343 C1344 1.349 . S
C1343 C1345 1.327 . S
C1343 H1366 0.950 . S
C1344 C1343 1.349 . S
C1344 C1356 1.349 1_565 S
C1345 C1343 1.327 . S
C1345 C1361 1.429 . S
C1345 H1367 0.950 . S
C1346 H1342 0.949 . S
C1346 C1354 1.574 . S
C1346 C1362 1.368 1_545 S
H1347 C1355 0.950 . S
H1348 C1353 0.950 . S
H1349 C1354 0.949 . S
H1350 C1356 0.950 . S
H1351 C1357 0.950 . S
H1352 C1358 0.949 . S
C1353 H1348 0.950 . S
C1353 C1355 1.327 . S
C1353 C1359 1.472 . S
C1354 C1346 1.574 . S
C1354 H1349 0.949 . S
C1354 C1360 1.368 1_545 S
C1355 C1339 1.353 . S
C1355 H1347 0.950 . S
C1355 C1353 1.327 . S
C1356 C1344 1.349 1_545 S
C1356 H1350 0.950 . S
C1356 C1357 1.327 . S
C1357 H1351 0.950 . S
C1357 C1356 1.327 . S
C1357 C1361 1.429 1_545 S
C1358 C1341 1.574 . S
C1358 H1352 0.949 . S
C1358 C1362 1.368 . S
C1359 C1340 1.415 1_565 S
C1359 C1353 1.472 . S
C1359 C1360 1.500 . S
C1360 C1341 1.368 . S
C1360 C1354 1.368 1_565 S
C1360 C1359 1.500 . S
C1361 C1345 1.429 . S
C1361 C1357 1.429 1_565 S
C1361 C1362 1.523 . S
C1362 C1346 1.368 1_565 S
C1362 C1358 1.368 . S
C1362 C1361 1.523 . S
H1363 C1338 0.950 . S
H1364 C1340 0.950 . S
H1365 C1341 0.949 . S
H1366 C1343 0.950 . S
H1367 C1345 0.950 . S
C1368 C1369 1.398 . S
C1368 C1370 1.327 . S
C1368 H1393 0.950 . S
C1369 C1368 1.398 . S
C1369 C1385 1.318 1_545 S
C1370 C1368 1.327 . S
C1370 C1389 1.429 . S
C1370 H1394 0.950 . S
C1371 C1388 1.574 . S
C1371 C1390 1.368 1_565 S
C1371 H1395 0.949 . S
H1372 C1376 0.949 . S
C1373 C1374 1.349 1_565 S
C1373 C1375 1.327 . S
C1373 H1396 0.950 . S
C1374 C1373 1.349 1_545 S
C1374 C1386 1.349 . S
C1375 C1373 1.327 . S
C1375 C1391 1.429 1_565 S
C1375 H1397 0.950 . S
C1376 H1372 0.949 . S
C1376 C1384 1.574 . S
C1376 C1392 1.368 . S
H1377 C1385 0.950 . S
H1378 C1383 0.950 . S
H1379 C1384 0.949 . S
H1380 C1386 0.950 . S
H1381 C1387 0.950 . S
H1382 C1388 0.949 . S
C1383 H1378 0.950 . S
C1383 C1385 1.327 . S
C1383 C1389 1.429 1_565 S
C1384 C1376 1.574 . S
C1384 H1379 0.949 . S
C1384 C1390 1.368 . S
C1385 C1369 1.318 1_565 S
C1385 H1377 0.950 . S
C1385 C1383 1.327 . S
C1386 C1374 1.349 . S
C1386 H1380 0.950 . S
C1386 C1387 1.327 . S
C1387 H1381 0.950 . S
C1387 C1386 1.327 . S
C1387 C1391 1.429 . S
C1388 C1371 1.574 . S
C1388 H1382 0.949 . S
C1388 C1392 1.368 1_565 S
C1389 C1370 1.429 . S
C1389 C1383 1.429 1_545 S
C1389 C1390 1.523 . S
C1390 C1371 1.368 1_545 S
C1390 C1384 1.368 . S
C1390 C1389 1.523 . S
C1391 C1375 1.429 1_545 S
C1391 C1387 1.429 . S
C1391 C1392 1.523 . S
C1392 C1376 1.368 . S
C1392 C1388 1.368 1_545 S
C1392 C1391 1.523 . S
H1393 C1368 0.950 . S
H1394 C1370 0.950 . S
H1395 C1371 0.949 . S
H1396 C1373 0.950 . S
H1397 C1375 0.950 . S
C1398 C1399 1.354 . S
C1398 C1400 1.327 . S
C1398 H1423 0.950 . S
C1399 C1398 1.354 . S
C1399 C1415 1.339 1_655 S
C1400 C1398 1.327 . S
C1400 C1419 1.473 . S
C1400 H1424 0.950 . S
C1401 C1418 1.545 . S
C1401 C1420 1.368 1_455 S
C1401 H1425 0.949 . S
H1402 C1406 0.949 . S
C1403 C1404 1.351 1_455 S
C1403 C1405 1.338 . S
C1403 H1426 0.945 . S
C1404 C1403 1.351 1_655 S
C1404 C1416 1.349 . S
C1405 C1403 1.338 . S
C1405 C1421 1.414 1_455 S
C1405 H1427 0.957 . S
C1406 H1402 0.949 . S
C1406 C1414 1.574 . S
C1406 C1422 1.368 . S
H1407 C1415 0.950 . S
H1408 C1413 0.950 . S
H1409 C1414 0.949 . S
H1410 C1416 0.950 . S
H1411 C1417 0.950 . S
H1412 C1418 1.008 . S
C1413 H1408 0.950 . S
C1413 C1415 1.327 . S
C1413 C1419 1.413 1_455 S
C1414 C1406 1.574 . S
C1414 H1409 0.949 . S
C1414 C1420 1.368 . S
C1415 C1399 1.339 1_455 S
C1415 H1407 0.950 . S
C1415 C1413 1.327 . S
C1416 C1404 1.349 . S
C1416 H1410 0.950 . S
C1416 C1417 1.327 . S
C1417 H1411 0.950 . S
C1417 C1416 1.327 . S
C1417 C1421 1.429 . S
C1418 C1401 1.545 . S
C1418 H1412 1.008 . S
C1418 C1422 1.340 1_455 S
C1419 C1400 1.473 . S
C1419 C1413 1.413 1_655 S
C1419 C1420 1.500 . S
C1420 C1401 1.368 1_655 S
C1420 C1414 1.368 . S
C1420 C1419 1.500 . S
C1421 C1405 1.414 1_655 S
C1421 C1417 1.429 . S
C1421 C1422 1.523 . S
C1422 C1406 1.368 . S
C1422 C1418 1.340 1_655 S
C1422 C1421 1.523 . S
H1423 C1398 0.950 . S
H1424 C1400 0.950 . S
H1425 C1401 0.949 . S
H1426 C1403 0.945 . S
H1427 C1405 0.957 . S
C1428 C1429 1.349 . S
C1428 C1430 1.327 . S
C1428 H1453 0.950 . S
C1429 C1428 1.349 . S
C1429 C1445 1.349 . S
C1430 C1428 1.327 . S
C1430 C1449 1.429 . S
C1430 H1454 0.950 . S
C1431 C1448 1.574 . S
C1431 C1450 1.368 . S
C1431 H1455 0.949 . S
H1432 C1436 0.949 . S
C1433 C1434 1.349 . S
C1433 C1435 1.327 . S
C1433 H1456 0.950 . S
C1434 C1433 1.349 . S
C1434 C1446 1.349 . S
C1435 C1433 1.327 . S
C1435 C1451 1.429 . S
C1435 H1457 0.950 . S
C1436 H1432 0.949 . S
C1436 C1444 1.574 . S
C1436 C1452 1.368 . S
H1437 C1445 0.950 . S
H1438 C1443 0.950 . S
H1439 C1444 0.949 . S
H1440 C1446 0.950 . S
H1441 C1447 0.950 . S
H1442 C1448 0.949 . S
C1443 H1438 0.950 . S
C1443 C1445 1.327 . S
C1443 C1449 1.429 . S
C1444 C1436 1.574 . S
C1444 H1439 0.949 . S
C1444 C1450 1.368 . S
C1445 C1429 1.349 . S
C1445 H1437 0.950 . S
C1445 C1443 1.327 . S
C1446 C1434 1.349 . S
C1446 H1440 0.950 . S
C1446 C1447 1.327 . S
C1447 H1441 0.950 . S
C1447 C1446 1.327 . S
C1447 C1451 1.429 . S
C1448 C1431 1.574 . S
C1448 H1442 0.949 . S
C1448 C1452 1.368 . S
C1449 C1430 1.429 . S
C1449 C1443 1.429 . S
C1449 C1450 1.523 . S
C1450 C1431 1.368 . S
C1450 C1444 1.368 . S
C1450 C1449 1.523 . S
C1451 C1435 1.429 . S
C1451 C1447 1.429 . S
C1451 C1452 1.523 . S
C1452 C1436 1.368 . S
C1452 C1448 1.368 . S
C1452 C1451 1.523 . S
H1453 C1428 0.950 . S
H1454 C1430 0.950 . S
H1455 C1431 0.949 . S
H1456 C1433 0.950 . S
H1457 C1435 0.950 . S
C1458 C1459 1.349 . S
C1458 C1460 1.327 . S
C1458 H1483 0.950 . S
C1459 C1458 1.349 . S
C1459 C1475 1.349 . S
C1460 C1458 1.327 . S
C1460 C1479 1.429 . S
C1460 H1484 0.950 . S
C1461 C1478 1.574 . S
C1461 C1480 1.368 . S
C1461 H1485 0.949 . S
H1462 C1466 0.949 . S
C1463 C1464 1.349 . S
C1463 C1465 1.327 . S
C1463 H1486 0.950 . S
C1464 C1463 1.349 . S
C1464 C1476 1.349 . S
C1465 C1463 1.327 . S
C1465 C1481 1.429 . S
C1465 H1487 0.950 . S
C1466 H1462 0.949 . S
C1466 C1474 1.574 . S
C1466 C1482 1.368 . S
H1467 C1475 0.950 . S
H1468 C1473 0.950 . S
H1469 C1474 0.949 . S
H1470 C1476 0.950 . S
H1471 C1477 0.950 . S
H1472 C1478 0.949 . S
C1473 H1468 0.950 . S
C1473 C1475 1.327 . S
C1473 C1479 1.429 . S
C1474 C1466 1.574 . S
C1474 H1469 0.949 . S
C1474 C1480 1.368 . S
C1475 C1459 1.349 . S
C1475 H1467 0.950 . S
C1475 C1473 1.327 . S
C1476 C1464 1.349 . S
C1476 H1470 0.950 . S
C1476 C1477 1.327 . S
C1477 H1471 0.950 . S
C1477 C1476 1.327 . S
C1477 C1481 1.429 . S
C1478 C1461 1.574 . S
C1478 H1472 0.949 . S
C1478 C1482 1.368 . S
C1479 C1460 1.429 . S
C1479 C1473 1.429 . S
C1479 C1480 1.523 . S
C1480 C1461 1.368 . S
C1480 C1474 1.368 . S
C1480 C1479 1.523 . S
C1481 C1465 1.429 . S
C1481 C1477 1.429 . S
C1481 C1482 1.523 . S
C1482 C1466 1.368 . S
C1482 C1478 1.368 . S
C1482 C1481 1.523 . S
H1483 C1458 0.950 . S
H1484 C1460 0.950 . S
H1485 C1461 0.949 . S
H1486 C1463 0.950 . S
H1487 C1465 0.950 . S
C1488 C1489 1.349 . S
C1488 C1490 1.327 . S
C1488 H1513 0.950 . S
C1489 C1488 1.349 . S
C1489 C1505 1.349 . S
C1490 C1488 1.327 . S
C1490 C1509 1.429 . S
C1490 H1514 0.950 . S
C1491 C1508 1.574 . S
C1491 C1510 1.368 . S
C1491 H1515 0.949 . S
H1492 C1496 0.949 . S
C1493 C1494 1.349 . S
C1493 C1495 1.327 . S
C1493 H1516 0.950 . S
C1494 C1493 1.349 . S
C1494 C1506 1.349 . S
C1495 C1493 1.327 . S
C1495 C1511 1.429 . S
C1495 H1517 0.950 . S
C1496 H1492 0.949 . S
C1496 C1504 1.574 . S
C1496 C1512 1.368 . S
H1497 C1505 0.950 . S
H1498 C1503 0.950 . S
H1499 C1504 0.949 . S
H1500 C1506 0.950 . S
H1501 C1507 0.950 . S
H1502 C1508 0.949 . S
C1503 H1498 0.950 . S
C1503 C1505 1.327 . S
C1503 C1509 1.429 . S
C1504 C1496 1.574 . S
C1504 H1499 0.949 . S
C1504 C1510 1.368 . S
C1505 C1489 1.349 . S
C1505 H1497 0.950 . S
C1505 C1503 1.327 . S
C1506 C1494 1.349 . S
C1506 H1500 0.950 . S
C1506 C1507 1.327 . S
C1507 H1501 0.950 . S
C1507 C1506 1.327 . S
C1507 C1511 1.429 . S
C1508 C1491 1.574 . S
C1508 H1502 0.949 . S
C1508 C1512 1.368 . S
C1509 C1490 1.429 . S
C1509 C1503 1.429 . S
C1509 C1510 1.523 . S
C1510 C1491 1.368 . S
C1510 C1504 1.368 . S
C1510 C1509 1.523 . S
C1511 C1495 1.429 . S
C1511 C1507 1.429 . S
C1511 C1512 1.523 . S
C1512 C1496 1.368 . S
C1512 C1508 1.368 . S
C1512 C1511 1.523 . S
H1513 C1488 0.950 . S
H1514 C1490 0.950 . S
H1515 C1491 0.949 . S
H1516 C1493 0.950 . S
H1517 C1495 0.950 . S
C1518 C1519 1.349 . S
C1518 C1520 1.327 . S
C1518 H1543 0.950 . S
C1519 C1518 1.349 . S
C1519 C1535 1.349 . S
C1520 C1518 1.327 . S
C1520 C1539 1.429 . S
C1520 H1544 0.950 . S
C1521 C1538 1.574 . S
C1521 C1540 1.368 . S
C1521 H1545 0.949 . S
H1522 C1526 0.949 . S
C1523 C1524 1.349 . S
C1523 C1525 1.327 . S
C1523 H1546 0.950 . S
C1524 C1523 1.349 . S
C1524 C1536 1.349 . S
C1525 C1523 1.327 . S
C1525 C1541 1.429 . S
C1525 H1547 0.950 . S
C1526 H1522 0.949 . S
C1526 C1534 1.574 . S
C1526 C1542 1.368 . S
H1527 C1535 0.950 . S
H1528 C1533 0.950 . S
H1529 C1534 0.949 . S
H1530 C1536 0.950 . S
H1531 C1537 0.950 . S
H1532 C1538 0.949 . S
C1533 H1528 0.950 . S
C1533 C1535 1.327 . S
C1533 C1539 1.429 . S
C1534 C1526 1.574 . S
C1534 H1529 0.949 . S
C1534 C1540 1.368 . S
C1535 C1519 1.349 . S
C1535 H1527 0.950 . S
C1535 C1533 1.327 . S
C1536 C1524 1.349 . S
C1536 H1530 0.950 . S
C1536 C1537 1.327 . S
C1537 H1531 0.950 . S
C1537 C1536 1.327 . S
C1537 C1541 1.429 . S
C1538 C1521 1.574 . S
C1538 H1532 0.949 . S
C1538 C1542 1.368 . S
C1539 C1520 1.429 . S
C1539 C1533 1.429 . S
C1539 C1540 1.523 . S
C1540 C1521 1.368 . S
C1540 C1534 1.368 . S
C1540 C1539 1.523 . S
C1541 C1525 1.429 . S
C1541 C1537 1.429 . S
C1541 C1542 1.523 . S
C1542 C1526 1.368 . S
C1542 C1538 1.368 . S
C1542 C1541 1.523 . S
H1543 C1518 0.950 . S
H1544 C1520 0.950 . S
H1545 C1521 0.949 . S
H1546 C1523 0.950 . S
H1547 C1525 0.950 . S
C1548 C1549 1.349 . S
C1548 C1550 1.327 . S
C1548 H1573 0.950 . S
C1549 C1548 1.349 . S
C1549 C1565 1.349 . S
C1550 C1548 1.327 . S
C1550 C1569 1.429 . S
C1550 H1574 0.950 . S
C1551 C1568 1.574 . S
C1551 C1570 1.368 . S
C1551 H1575 0.949 . S
H1552 C1556 0.949 . S
C1553 C1554 1.349 . S
C1553 C1555 1.327 . S
C1553 H1576 0.950 . S
C1554 C1553 1.349 . S
C1554 C1566 1.349 . S
C1555 C1553 1.327 . S
C1555 C1571 1.429 . S
C1555 H1577 0.950 . S
C1556 H1552 0.949 . S
C1556 C1564 1.574 . S
C1556 C1572 1.368 . S
H1557 C1565 0.950 . S
H1558 C1563 0.950 . S
H1559 C1564 0.949 . S
H1560 C1566 0.950 . S
H1561 C1567 0.950 . S
H1562 C1568 0.949 . S
C1563 H1558 0.950 . S
C1563 C1565 1.327 . S
C1563 C1569 1.429 . S
C1564 C1556 1.574 . S
C1564 H1559 0.949 . S
C1564 C1570 1.368 . S
C1565 C1549 1.349 . S
C1565 H1557 0.950 . S
C1565 C1563 1.327 . S
C1566 C1554 1.349 . S
C1566 H1560 0.950 . S
C1566 C1567 1.327 . S
C1567 H1561 0.950 . S
C1567 C1566 1.327 . S
C1567 C1571 1.429 . S
C1568 C1551 1.574 . S
C1568 H1562 0.949 . S
C1568 C1572 1.368 . S
C1569 C1550 1.429 . S
C1569 C1563 1.429 . S
C1569 C1570 1.523 . S
C1570 C1551 1.368 . S
C1570 C1564 1.368 . S
C1570 C1569 1.523 . S
C1571 C1555 1.429 . S
C1571 C1567 1.429 . S
C1571 C1572 1.523 . S
C1572 C1556 1.368 . S
C1572 C1568 1.368 . S
C1572 C1571 1.523 . S
H1573 C1548 0.950 . S
H1574 C1550 0.950 . S
H1575 C1551 0.949 . S
H1576 C1553 0.950 . S
H1577 C1555 0.950 . S
C1578 C1579 1.349 . S
C1578 C1580 1.327 . S
C1578 H1603 0.950 . S
C1579 C1578 1.349 . S
C1579 C1595 1.349 . S
C1580 C1578 1.327 . S
C1580 C1599 1.429 . S
C1580 H1604 0.950 . S
C1581 C1598 1.574 . S
C1581 C1600 1.368 . S
C1581 H1605 0.949 . S
H1582 C1586 0.949 . S
C1583 C1584 1.349 . S
C1583 C1585 1.327 . S
C1583 H1606 0.950 . S
C1584 C1583 1.349 . S
C1584 C1596 1.349 . S
C1585 C1583 1.327 . S
C1585 C1601 1.429 . S
C1585 H1607 0.950 . S
C1586 H1582 0.949 . S
C1586 C1594 1.574 . S
C1586 C1602 1.368 . S
H1587 C1595 0.950 . S
H1588 C1593 0.950 . S
H1589 C1594 0.949 . S
H1590 C1596 0.950 . S
H1591 C1597 0.950 . S
H1592 C1598 0.949 . S
C1593 H1588 0.950 . S
C1593 C1595 1.327 . S
C1593 C1599 1.429 . S
C1594 C1586 1.574 . S
C1594 H1589 0.949 . S
C1594 C1600 1.368 . S
C1595 C1579 1.349 . S
C1595 H1587 0.950 . S
C1595 C1593 1.327 . S
C1596 C1584 1.349 . S
C1596 H1590 0.950 . S
C1596 C1597 1.327 . S
C1597 H1591 0.950 . S
C1597 C1596 1.327 . S
C1597 C1601 1.429 . S
C1598 C1581 1.574 . S
C1598 H1592 0.949 . S
C1598 C1602 1.368 . S
C1599 C1580 1.429 . S
C1599 C1593 1.429 . S
C1599 C1600 1.523 . S
C1600 C1581 1.368 . S
C1600 C1594 1.368 . S
C1600 C1599 1.523 . S
C1601 C1585 1.429 . S
C1601 C1597 1.429 . S
C1601 C1602 1.523 . S
C1602 C1586 1.368 . S
C1602 C1598 1.368 . S
C1602 C1601 1.523 . S
H1603 C1578 0.950 . S
H1604 C1580 0.950 . S
H1605 C1581 0.949 . S
H1606 C1583 0.950 . S
H1607 C1585 0.950 . S
C1608 C1609 1.349 . S
C1608 C1610 1.327 . S
C1608 H1633 0.950 . S
C1609 C1608 1.349 . S
C1609 C1625 1.349 . S
C1610 C1608 1.327 . S
C1610 C1629 1.429 . S
C1610 H1634 0.950 . S
C1611 C1628 1.574 . S
C1611 C1630 1.368 . S
C1611 H1635 0.949 . S
H1612 C1616 0.949 . S
C1613 C1614 1.349 . S
C1613 C1615 1.327 . S
C1613 H1636 0.950 . S
C1614 C1613 1.349 . S
C1614 C1626 1.349 . S
C1615 C1613 1.327 . S
C1615 C1631 1.429 . S
C1615 H1637 0.950 . S
C1616 H1612 0.949 . S
C1616 C1624 1.574 . S
C1616 C1632 1.368 . S
H1617 C1625 0.950 . S
H1618 C1623 0.950 . S
H1619 C1624 0.949 . S
H1620 C1626 0.950 . S
H1621 C1627 0.950 . S
H1622 C1628 0.949 . S
C1623 H1618 0.950 . S
C1623 C1625 1.327 . S
C1623 C1629 1.429 . S
C1624 C1616 1.574 . S
C1624 H1619 0.949 . S
C1624 C1630 1.368 . S
C1625 C1609 1.349 . S
C1625 H1617 0.950 . S
C1625 C1623 1.327 . S
C1626 C1614 1.349 . S
C1626 H1620 0.950 . S
C1626 C1627 1.327 . S
C1627 H1621 0.950 . S
C1627 C1626 1.327 . S
C1627 C1631 1.429 . S
C1628 C1611 1.574 . S
C1628 H1622 0.949 . S
C1628 C1632 1.368 . S
C1629 C1610 1.429 . S
C1629 C1623 1.429 . S
C1629 C1630 1.523 . S
C1630 C1611 1.368 . S
C1630 C1624 1.368 . S
C1630 C1629 1.523 . S
C1631 C1615 1.429 . S
C1631 C1627 1.429 . S
C1631 C1632 1.523 . S
C1632 C1616 1.368 . S
C1632 C1628 1.368 . S
C1632 C1631 1.523 . S
H1633 C1608 0.950 . S
H1634 C1610 0.950 . S
H1635 C1611 0.949 . S
H1636 C1613 0.950 . S
H1637 C1615 0.950 . S
C1638 C1639 1.349 . S
C1638 C1640 1.327 . S
C1638 H1663 0.950 . S
C1639 C1638 1.349 . S
C1639 C1655 1.349 . S
C1640 C1638 1.327 . S
C1640 C1659 1.429 . S
C1640 H1664 0.950 . S
C1641 C1658 1.574 . S
C1641 C1660 1.368 . S
C1641 H1665 0.949 . S
H1642 C1646 0.949 . S
C1643 C1644 1.349 . S
C1643 C1645 1.327 . S
C1643 H1666 0.950 . S
C1644 C1643 1.349 . S
C1644 C1656 1.349 . S
C1645 C1643 1.327 . S
C1645 C1661 1.429 . S
C1645 H1667 0.950 . S
C1646 H1642 0.949 . S
C1646 C1654 1.574 . S
C1646 C1662 1.368 . S
H1647 C1655 0.950 . S
H1648 C1653 0.950 . S
H1649 C1654 0.949 . S
H1650 C1656 0.950 . S
H1651 C1657 0.950 . S
H1652 C1658 0.949 . S
C1653 H1648 0.950 . S
C1653 C1655 1.327 . S
C1653 C1659 1.429 . S
C1654 C1646 1.574 . S
C1654 H1649 0.949 . S
C1654 C1660 1.368 . S
C1655 C1639 1.349 . S
C1655 H1647 0.950 . S
C1655 C1653 1.327 . S
C1656 C1644 1.349 . S
C1656 H1650 0.950 . S
C1656 C1657 1.327 . S
C1657 H1651 0.950 . S
C1657 C1656 1.327 . S
C1657 C1661 1.429 . S
C1658 C1641 1.574 . S
C1658 H1652 0.949 . S
C1658 C1662 1.368 . S
C1659 C1640 1.429 . S
C1659 C1653 1.429 . S
C1659 C1660 1.523 . S
C1660 C1641 1.368 . S
C1660 C1654 1.368 . S
C1660 C1659 1.523 . S
C1661 C1645 1.429 . S
C1661 C1657 1.429 . S
C1661 C1662 1.523 . S
C1662 C1646 1.368 . S
C1662 C1658 1.368 . S
C1662 C1661 1.523 . S
H1663 C1638 0.950 . S
H1664 C1640 0.950 . S
H1665 C1641 0.949 . S
H1666 C1643 0.950 . S
H1667 C1645 0.950 . S
C1668 C1669 1.349 . S
C1668 C1670 1.327 . S
C1668 H1693 0.950 . S
C1669 C1668 1.349 . S
C1669 C1685 1.349 . S
C1670 C1668 1.327 . S
C1670 C1689 1.429 . S
C1670 H1694 0.950 . S
C1671 C1688 1.574 . S
C1671 C1690 1.368 . S
C1671 H1695 0.949 . S
H1672 C1676 0.949 . S
C1673 C1674 1.349 . S
C1673 C1675 1.327 . S
C1673 H1696 0.950 . S
C1674 C1673 1.349 . S
C1674 C1686 1.349 . S
C1675 C1673 1.327 . S
C1675 C1691 1.429 . S
C1675 H1697 0.950 . S
C1676 H1672 0.949 . S
C1676 C1684 1.574 . S
C1676 C1692 1.368 . S
H1677 C1685 0.950 . S
H1678 C1683 0.950 . S
H1679 C1684 0.949 . S
H1680 C1686 0.950 . S
H1681 C1687 0.950 . S
H1682 C1688 0.949 . S
C1683 H1678 0.950 . S
C1683 C1685 1.327 . S
C1683 C1689 1.429 . S
C1684 C1676 1.574 . S
C1684 H1679 0.949 . S
C1684 C1690 1.368 . S
C1685 C1669 1.349 . S
C1685 H1677 0.950 . S
C1685 C1683 1.327 . S
C1686 C1674 1.349 . S
C1686 H1680 0.950 . S
C1686 C1687 1.327 . S
C1687 H1681 0.950 . S
C1687 C1686 1.327 . S
C1687 C1691 1.429 . S
C1688 C1671 1.574 . S
C1688 H1682 0.949 . S
C1688 C1692 1.368 . S
C1689 C1670 1.429 . S
C1689 C1683 1.429 . S
C1689 C1690 1.523 . S
C1690 C1671 1.368 . S
C1690 C1684 1.368 . S
C1690 C1689 1.523 . S
C1691 C1675 1.429 . S
C1691 C1687 1.429 . S
C1691 C1692 1.523 . S
C1692 C1676 1.368 . S
C1692 C1688 1.368 . S
C1692 C1691 1.523 . S
H1693 C1668 0.950 . S
H1694 C1670 0.950 . S
H1695 C1671 0.949 . S
H1696 C1673 0.950 . S
H1697 C1675 0.950 . S
C1698 C1699 1.349 . S
C1698 C1700 1.327 . S
C1698 H1723 0.950 . S
C1699 C1698 1.349 . S
C1699 C1715 1.349 . S
C1700 C1698 1.327 . S
C1700 C1719 1.429 . S
C1700 H1724 0.950 . S
C1701 C1718 1.574 . S
C1701 C1720 1.368 . S
C1701 H1725 0.949 . S
H1702 C1706 0.949 . S
C1703 C1704 1.349 . S
C1703 C1705 1.327 . S
C1703 H1726 0.950 . S
C1704 C1703 1.349 . S
C1704 C1716 1.349 . S
C1705 C1703 1.327 . S
C1705 C1721 1.429 . S
C1705 H1727 0.950 . S
C1706 H1702 0.949 . S
C1706 C1714 1.574 . S
C1706 C1722 1.368 . S
H1707 C1715 0.950 . S
H1708 C1713 0.950 . S
H1709 C1714 0.949 . S
H1710 C1716 0.950 . S
H1711 C1717 0.950 . S
H1712 C1718 0.949 . S
C1713 H1708 0.950 . S
C1713 C1715 1.327 . S
C1713 C1719 1.429 . S
C1714 C1706 1.574 . S
C1714 H1709 0.949 . S
C1714 C1720 1.368 . S
C1715 C1699 1.349 . S
C1715 H1707 0.950 . S
C1715 C1713 1.327 . S
C1716 C1704 1.349 . S
C1716 H1710 0.950 . S
C1716 C1717 1.327 . S
C1717 H1711 0.950 . S
C1717 C1716 1.327 . S
C1717 C1721 1.429 . S
C1718 C1701 1.574 . S
C1718 H1712 0.949 . S
C1718 C1722 1.368 . S
C1719 C1700 1.429 . S
C1719 C1713 1.429 . S
C1719 C1720 1.523 . S
C1720 C1701 1.368 . S
C1720 C1714 1.368 . S
C1720 C1719 1.523 . S
C1721 C1705 1.429 . S
C1721 C1717 1.429 . S
C1721 C1722 1.523 . S
C1722 C1706 1.368 . S
C1722 C1718 1.368 . S
C1722 C1721 1.523 . S
H1723 C1698 0.950 . S
H1724 C1700 0.950 . S
H1725 C1701 0.949 . S
H1726 C1703 0.950 . S
H1727 C1705 0.950 . S
C1728 C1729 1.349 . S
C1728 C1730 1.327 . S
C1728 H1753 0.950 . S
C1729 C1728 1.349 . S
C1729 C1745 1.349 . S
C1730 C1728 1.327 . S
C1730 C1749 1.429 . S
C1730 H1754 0.950 . S
C1731 C1748 1.574 . S
C1731 C1750 1.368 . S
C1731 H1755 0.949 . S
H1732 C1736 0.949 . S
C1733 C1734 1.349 . S
C1733 C1735 1.327 . S
C1733 H1756 0.950 . S
C1734 C1733 1.349 . S
C1734 C1746 1.349 . S
C1735 C1733 1.327 . S
C1735 C1751 1.429 . S
C1735 H1757 0.950 . S
C1736 H1732 0.949 . S
C1736 C1744 1.574 . S
C1736 C1752 1.368 . S
H1737 C1745 0.950 . S
H1738 C1743 0.950 . S
H1739 C1744 0.949 . S
H1740 C1746 0.950 . S
H1741 C1747 0.950 . S
H1742 C1748 0.949 . S
C1743 H1738 0.950 . S
C1743 C1745 1.327 . S
C1743 C1749 1.429 . S
C1744 C1736 1.574 . S
C1744 H1739 0.949 . S
C1744 C1750 1.368 . S
C1745 C1729 1.349 . S
C1745 H1737 0.950 . S
C1745 C1743 1.327 . S
C1746 C1734 1.349 . S
C1746 H1740 0.950 . S
C1746 C1747 1.327 . S
C1747 H1741 0.950 . S
C1747 C1746 1.327 . S
C1747 C1751 1.429 . S
C1748 C1731 1.574 . S
C1748 H1742 0.949 . S
C1748 C1752 1.368 . S
C1749 C1730 1.429 . S
C1749 C1743 1.429 . S
C1749 C1750 1.523 . S
C1750 C1731 1.368 . S
C1750 C1744 1.368 . S
C1750 C1749 1.523 . S
C1751 C1735 1.429 . S
C1751 C1747 1.429 . S
C1751 C1752 1.523 . S
C1752 C1736 1.368 . S
C1752 C1748 1.368 . S
C1752 C1751 1.523 . S
H1753 C1728 0.950 . S
H1754 C1730 0.950 . S
H1755 C1731 0.949 . S
H1756 C1733 0.950 . S
H1757 C1735 0.950 . S
C1758 C1759 1.349 . S
C1758 C1760 1.327 . S
C1758 H1783 0.950 . S
C1759 C1758 1.349 . S
C1759 C1775 1.349 . S
C1760 C1758 1.327 . S
C1760 C1779 1.429 . S
C1760 H1784 0.950 . S
C1761 C1778 1.574 . S
C1761 C1780 1.368 . S
C1761 H1785 0.949 . S
H1762 C1766 0.949 . S
C1763 C1764 1.349 . S
C1763 C1765 1.327 . S
C1763 H1786 0.950 . S
C1764 C1763 1.349 . S
C1764 C1776 1.349 . S
C1765 C1763 1.327 . S
C1765 C1781 1.429 . S
C1765 H1787 0.950 . S
C1766 H1762 0.949 . S
C1766 C1774 1.574 . S
C1766 C1782 1.368 . S
H1767 C1775 0.950 . S
H1768 C1773 0.950 . S
H1769 C1774 0.949 . S
H1770 C1776 0.950 . S
H1771 C1777 0.950 . S
H1772 C1778 0.949 . S
C1773 H1768 0.950 . S
C1773 C1775 1.327 . S
C1773 C1779 1.429 . S
C1774 C1766 1.574 . S
C1774 H1769 0.949 . S
C1774 C1780 1.368 . S
C1775 C1759 1.349 . S
C1775 H1767 0.950 . S
C1775 C1773 1.327 . S
C1776 C1764 1.349 . S
C1776 H1770 0.950 . S
C1776 C1777 1.327 . S
C1777 H1771 0.950 . S
C1777 C1776 1.327 . S
C1777 C1781 1.429 . S
C1778 C1761 1.574 . S
C1778 H1772 0.949 . S
C1778 C1782 1.368 . S
C1779 C1760 1.429 . S
C1779 C1773 1.429 . S
C1779 C1780 1.523 . S
C1780 C1761 1.368 . S
C1780 C1774 1.368 . S
C1780 C1779 1.523 . S
C1781 C1765 1.429 . S
C1781 C1777 1.429 . S
C1781 C1782 1.523 . S
C1782 C1766 1.368 . S
C1782 C1778 1.368 . S
C1782 C1781 1.523 . S
H1783 C1758 0.950 . S
H1784 C1760 0.950 . S
H1785 C1761 0.949 . S
H1786 C1763 0.950 . S
H1787 C1765 0.950 . S
C1788 C1789 1.349 . S
C1788 C1790 1.327 . S
C1788 H1813 0.950 . S
C1789 C1788 1.349 . S
C1789 C1805 1.349 . S
C1790 C1788 1.327 . S
C1790 C1809 1.429 . S
C1790 H1814 0.950 . S
C1791 C1808 1.574 . S
C1791 C1810 1.368 . S
C1791 H1815 0.949 . S
H1792 C1796 0.949 . S
C1793 C1794 1.349 . S
C1793 C1795 1.327 . S
C1793 H1816 0.950 . S
C1794 C1793 1.349 . S
C1794 C1806 1.349 . S
C1795 C1793 1.327 . S
C1795 C1811 1.429 . S
C1795 H1817 0.950 . S
C1796 H1792 0.949 . S
C1796 C1804 1.574 . S
C1796 C1812 1.368 . S
H1797 C1805 0.950 . S
H1798 C1803 0.950 . S
H1799 C1804 0.949 . S
H1800 C1806 0.950 . S
H1801 C1807 0.950 . S
H1802 C1808 0.949 . S
C1803 H1798 0.950 . S
C1803 C1805 1.327 . S
C1803 C1809 1.429 . S
C1804 C1796 1.574 . S
C1804 H1799 0.949 . S
C1804 C1810 1.368 . S
C1805 C1789 1.349 . S
C1805 H1797 0.950 . S
C1805 C1803 1.327 . S
C1806 C1794 1.349 . S
C1806 H1800 0.950 . S
C1806 C1807 1.327 . S
C1807 H1801 0.950 . S
C1807 C1806 1.327 . S
C1807 C1811 1.429 . S
C1808 C1791 1.574 . S
C1808 H1802 0.949 . S
C1808 C1812 1.368 . S
C1809 C1790 1.429 . S
C1809 C1803 1.429 . S
C1809 C1810 1.523 . S
C1810 C1791 1.368 . S
C1810 C1804 1.368 . S
C1810 C1809 1.523 . S
C1811 C1795 1.429 . S
C1811 C1807 1.429 . S
C1811 C1812 1.523 . S
C1812 C1796 1.368 . S
C1812 C1808 1.368 . S
C1812 C1811 1.523 . S
H1813 C1788 0.950 . S
H1814 C1790 0.950 . S
H1815 C1791 0.949 . S
H1816 C1793 0.950 . S
H1817 C1795 0.950 . S
C1818 C1819 1.349 . S
C1818 C1820 1.327 . S
C1818 H1843 0.950 . S
C1819 C1818 1.349 . S
C1819 C1835 1.349 . S
C1820 C1818 1.327 . S
C1820 C1839 1.429 . S
C1820 H1844 0.950 . S
C1821 C1838 1.574 . S
C1821 C1840 1.368 . S
C1821 H1845 0.949 . S
H1822 C1826 0.949 . S
C1823 C1824 1.349 . S
C1823 C1825 1.327 . S
C1823 H1846 0.950 . S
C1824 C1823 1.349 . S
C1824 C1836 1.349 . S
C1825 C1823 1.327 . S
C1825 C1841 1.429 . S
C1825 H1847 0.950 . S
C1826 H1822 0.949 . S
C1826 C1834 1.574 . S
C1826 C1842 1.368 . S
H1827 C1835 0.950 . S
H1828 C1833 0.950 . S
H1829 C1834 0.949 . S
H1830 C1836 0.950 . S
H1831 C1837 0.950 . S
H1832 C1838 0.949 . S
C1833 H1828 0.950 . S
C1833 C1835 1.327 . S
C1833 C1839 1.429 . S
C1834 C1826 1.574 . S
C1834 H1829 0.949 . S
C1834 C1840 1.368 . S
C1835 C1819 1.349 . S
C1835 H1827 0.950 . S
C1835 C1833 1.327 . S
C1836 C1824 1.349 . S
C1836 H1830 0.950 . S
C1836 C1837 1.327 . S
C1837 H1831 0.950 . S
C1837 C1836 1.327 . S
C1837 C1841 1.429 . S
C1838 C1821 1.574 . S
C1838 H1832 0.949 . S
C1838 C1842 1.368 . S
C1839 C1820 1.429 . S
C1839 C1833 1.429 . S
C1839 C1840 1.523 . S
C1840 C1821 1.368 . S
C1840 C1834 1.368 . S
C1840 C1839 1.523 . S
C1841 C1825 1.429 . S
C1841 C1837 1.429 . S
C1841 C1842 1.523 . S
C1842 C1826 1.368 . S
C1842 C1838 1.368 . S
C1842 C1841 1.523 . S
H1843 C1818 0.950 . S
H1844 C1820 0.950 . S
H1845 C1821 0.949 . S
H1846 C1823 0.950 . S
H1847 C1825 0.950 . S
C1848 C1849 1.349 . S
C1848 C1850 1.327 . S
C1848 H1873 0.950 . S
C1849 C1848 1.349 . S
C1849 C1865 1.349 . S
C1850 C1848 1.327 . S
C1850 C1869 1.429 . S
C1850 H1874 0.950 . S
C1851 C1868 1.574 . S
C1851 C1870 1.368 . S
C1851 H1875 0.949 . S
H1852 C1856 0.949 . S
C1853 C1854 1.349 . S
C1853 C1855 1.327 . S
C1853 H1876 0.950 . S
C1854 C1853 1.349 . S
C1854 C1866 1.349 . S
C1855 C1853 1.327 . S
C1855 C1871 1.429 . S
C1855 H1877 0.950 . S
C1856 H1852 0.949 . S
C1856 C1864 1.574 . S
C1856 C1872 1.368 . S
H1857 C1865 0.950 . S
H1858 C1863 0.950 . S
H1859 C1864 0.949 . S
H1860 C1866 0.950 . S
H1861 C1867 0.950 . S
H1862 C1868 0.949 . S
C1863 H1858 0.950 . S
C1863 C1865 1.327 . S
C1863 C1869 1.429 . S
C1864 C1856 1.574 . S
C1864 H1859 0.949 . S
C1864 C1870 1.368 . S
C1865 C1849 1.349 . S
C1865 H1857 0.950 . S
C1865 C1863 1.327 . S
C1866 C1854 1.349 . S
C1866 H1860 0.950 . S
C1866 C1867 1.327 . S
C1867 H1861 0.950 . S
C1867 C1866 1.327 . S
C1867 C1871 1.429 . S
C1868 C1851 1.574 . S
C1868 H1862 0.949 . S
C1868 C1872 1.368 . S
C1869 C1850 1.429 . S
C1869 C1863 1.429 . S
C1869 C1870 1.523 . S
C1870 C1851 1.368 . S
C1870 C1864 1.368 . S
C1870 C1869 1.523 . S
C1871 C1855 1.429 . S
C1871 C1867 1.429 . S
C1871 C1872 1.523 . S
C1872 C1856 1.368 . S
C1872 C1868 1.368 . S
C1872 C1871 1.523 . S
H1873 C1848 0.950 . S
H1874 C1850 0.950 . S
H1875 C1851 0.949 . S
H1876 C1853 0.950 . S
H1877 C1855 0.950 . S
C1878 C1879 1.349 . S
C1878 C1880 1.327 . S
C1878 H1903 0.950 . S
C1879 C1878 1.349 . S
C1879 C1895 1.349 . S
C1880 C1878 1.327 . S
C1880 C1899 1.429 . S
C1880 H1904 0.950 . S
C1881 C1898 1.574 . S
C1881 C1900 1.368 . S
C1881 H1905 0.949 . S
H1882 C1886 0.949 . S
C1883 C1884 1.349 . S
C1883 C1885 1.327 . S
C1883 H1906 0.950 . S
C1884 C1883 1.349 . S
C1884 C1896 1.349 . S
C1885 C1883 1.327 . S
C1885 C1901 1.429 . S
C1885 H1907 0.950 . S
C1886 H1882 0.949 . S
C1886 C1894 1.574 . S
C1886 C1902 1.368 . S
H1887 C1895 0.950 . S
H1888 C1893 0.950 . S
H1889 C1894 0.949 . S
H1890 C1896 0.950 . S
H1891 C1897 0.950 . S
H1892 C1898 0.949 . S
C1893 H1888 0.950 . S
C1893 C1895 1.327 . S
C1893 C1899 1.429 . S
C1894 C1886 1.574 . S
C1894 H1889 0.949 . S
C1894 C1900 1.368 . S
C1895 C1879 1.349 . S
C1895 H1887 0.950 . S
C1895 C1893 1.327 . S
C1896 C1884 1.349 . S
C1896 H1890 0.950 . S
C1896 C1897 1.327 . S
C1897 H1891 0.950 . S
C1897 C1896 1.327 . S
C1897 C1901 1.429 . S
C1898 C1881 1.574 . S
C1898 H1892 0.949 . S
C1898 C1902 1.368 . S
C1899 C1880 1.429 . S
C1899 C1893 1.429 . S
C1899 C1900 1.523 . S
C1900 C1881 1.368 . S
C1900 C1894 1.368 . S
C1900 C1899 1.523 . S
C1901 C1885 1.429 . S
C1901 C1897 1.429 . S
C1901 C1902 1.523 . S
C1902 C1886 1.368 . S
C1902 C1898 1.368 . S
C1902 C1901 1.523 . S
H1903 C1878 0.950 . S
H1904 C1880 0.950 . S
H1905 C1881 0.949 . S
H1906 C1883 0.950 . S
H1907 C1885 0.950 . S
C1908 C1909 1.349 . S
C1908 C1910 1.327 . S
C1908 H1933 0.950 . S
C1909 C1908 1.349 . S
C1909 C1925 1.349 . S
C1910 C1908 1.327 . S
C1910 C1929 1.429 . S
C1910 H1934 0.950 . S
C1911 C1928 1.574 . S
C1911 C1930 1.368 . S
C1911 H1935 0.949 . S
H1912 C1916 0.949 . S
C1913 C1914 1.349 . S
C1913 C1915 1.327 . S
C1913 H1936 0.950 . S
C1914 C1913 1.349 . S
C1914 C1926 1.349 . S
C1915 C1913 1.327 . S
C1915 C1931 1.429 . S
C1915 H1937 0.950 . S
C1916 H1912 0.949 . S
C1916 C1924 1.574 . S
C1916 C1932 1.368 . S
H1917 C1925 0.950 . S
H1918 C1923 0.950 . S
H1919 C1924 0.949 . S
H1920 C1926 0.950 . S
H1921 C1927 0.950 . S
H1922 C1928 0.949 . S
C1923 H1918 0.950 . S
C1923 C1925 1.327 . S
C1923 C1929 1.429 . S
C1924 C1916 1.574 . S
C1924 H1919 0.949 . S
C1924 C1930 1.368 . S
C1925 C1909 1.349 . S
C1925 H1917 0.950 . S
C1925 C1923 1.327 . S
C1926 C1914 1.349 . S
C1926 H1920 0.950 . S
C1926 C1927 1.327 . S
C1927 H1921 0.950 . S
C1927 C1926 1.327 . S
C1927 C1931 1.429 . S
C1928 C1911 1.574 . S
C1928 H1922 0.949 . S
C1928 C1932 1.368 . S
C1929 C1910 1.429 . S
C1929 C1923 1.429 . S
C1929 C1930 1.523 . S
C1930 C1911 1.368 . S
C1930 C1924 1.368 . S
C1930 C1929 1.523 . S
C1931 C1915 1.429 . S
C1931 C1927 1.429 . S
C1931 C1932 1.523 . S
C1932 C1916 1.368 . S
C1932 C1928 1.368 . S
C1932 C1931 1.523 . S
H1933 C1908 0.950 . S
H1934 C1910 0.950 . S
H1935 C1911 0.949 . S
H1936 C1913 0.950 . S
H1937 C1915 0.950 . S
C1938 C1939 1.349 . S
C1938 C1940 1.327 . S
C1938 H1963 0.950 . S
C1939 C1938 1.349 . S
C1939 C1955 1.349 . S
C1940 C1938 1.327 . S
C1940 C1959 1.429 . S
C1940 H1964 0.950 . S
C1941 C1958 1.574 . S
C1941 C1960 1.368 . S
C1941 H1965 0.949 . S
H1942 C1946 0.949 . S
C1943 C1944 1.349 . S
C1943 C1945 1.327 . S
C1943 H1966 0.950 . S
C1944 C1943 1.349 . S
C1944 C1956 1.349 . S
C1945 C1943 1.327 . S
C1945 C1961 1.429 . S
C1945 H1967 0.950 . S
C1946 H1942 0.949 . S
C1946 C1954 1.574 . S
C1946 C1962 1.368 . S
H1947 C1955 0.950 . S
H1948 C1953 0.950 . S
H1949 C1954 0.949 . S
H1950 C1956 0.950 . S
H1951 C1957 0.950 . S
H1952 C1958 0.949 . S
C1953 H1948 0.950 . S
C1953 C1955 1.327 . S
C1953 C1959 1.429 . S
C1954 C1946 1.574 . S
C1954 H1949 0.949 . S
C1954 C1960 1.368 . S
C1955 C1939 1.349 . S
C1955 H1947 0.950 . S
C1955 C1953 1.327 . S
C1956 C1944 1.349 . S
C1956 H1950 0.950 . S
C1956 C1957 1.327 . S
C1957 H1951 0.950 . S
C1957 C1956 1.327 . S
C1957 C1961 1.429 . S
C1958 C1941 1.574 . S
C1958 H1952 0.949 . S
C1958 C1962 1.368 . S
C1959 C1940 1.429 . S
C1959 C1953 1.429 . S
C1959 C1960 1.523 . S
C1960 C1941 1.368 . S
C1960 C1954 1.368 . S
C1960 C1959 1.523 . S
C1961 C1945 1.429 . S
C1961 C1957 1.429 . S
C1961 C1962 1.523 . S
C1962 C1946 1.368 . S
C1962 C1958 1.368 . S
C1962 C1961 1.523 . S
H1963 C1938 0.950 . S
H1964 C1940 0.950 . S
H1965 C1941 0.949 . S
H1966 C1943 0.950 . S
H1967 C1945 0.950 . S
C1968 C1969 1.349 . S
C1968 C1970 1.327 . S
C1968 H1993 0.950 . S
C1969 C1968 1.349 . S
C1969 C1985 1.349 . S
C1970 C1968 1.327 . S
C1970 C1989 1.429 . S
C1970 H1994 0.950 . S
C1971 C1988 1.574 . S
C1971 C1990 1.368 . S
C1971 H1995 0.949 . S
H1972 C1976 0.949 . S
C1973 C1974 1.349 . S
C1973 C1975 1.327 . S
C1973 H1996 0.950 . S
C1974 C1973 1.349 . S
C1974 C1986 1.349 . S
C1975 C1973 1.327 . S
C1975 C1991 1.429 . S
C1975 H1997 0.950 . S
C1976 H1972 0.949 . S
C1976 C1984 1.574 . S
C1976 C1992 1.368 . S
H1977 C1985 0.950 . S
H1978 C1983 0.950 . S
H1979 C1984 0.949 . S
H1980 C1986 0.950 . S
H1981 C1987 0.950 . S
H1982 C1988 0.949 . S
C1983 H1978 0.950 . S
C1983 C1985 1.327 . S
C1983 C1989 1.429 . S
C1984 C1976 1.574 . S
C1984 H1979 0.949 . S
C1984 C1990 1.368 . S
C1985 C1969 1.349 . S
C1985 H1977 0.950 . S
C1985 C1983 1.327 . S
C1986 C1974 1.349 . S
C1986 H1980 0.950 . S
C1986 C1987 1.327 . S
C1987 H1981 0.950 . S
C1987 C1986 1.327 . S
C1987 C1991 1.429 . S
C1988 C1971 1.574 . S
C1988 H1982 0.949 . S
C1988 C1992 1.368 . S
C1989 C1970 1.429 . S
C1989 C1983 1.429 . S
C1989 C1990 1.523 . S
C1990 C1971 1.368 . S
C1990 C1984 1.368 . S
C1990 C1989 1.523 . S
C1991 C1975 1.429 . S
C1991 C1987 1.429 . S
C1991 C1992 1.523 . S
C1992 C1976 1.368 . S
C1992 C1988 1.368 . S
C1992 C1991 1.523 . S
H1993 C1968 0.950 . S
H1994 C1970 0.950 . S
H1995 C1971 0.949 . S
H1996 C1973 0.950 . S
H1997 C1975 0.950 . S
C1998 C1999 1.349 . S
C1998 C2000 1.327 . S
C1998 H2023 0.950 . S
C1999 C1998 1.349 . S
C1999 C2015 1.349 . S
C2000 C1998 1.327 . S
C2000 C2019 1.429 . S
C2000 H2024 0.950 . S
C2001 C2018 1.574 . S
C2001 C2020 1.368 . S
C2001 H2025 0.949 . S
H2002 C2006 0.949 . S
C2003 C2004 1.349 . S
C2003 C2005 1.327 . S
C2003 H2026 0.950 . S
C2004 C2003 1.349 . S
C2004 C2016 1.349 . S
C2005 C2003 1.327 . S
C2005 C2021 1.429 . S
C2005 H2027 0.950 . S
C2006 H2002 0.949 . S
C2006 C2014 1.574 . S
C2006 C2022 1.368 . S
H2007 C2015 0.950 . S
H2008 C2013 0.950 . S
H2009 C2014 0.949 . S
H2010 C2016 0.950 . S
H2011 C2017 0.950 . S
H2012 C2018 0.949 . S
C2013 H2008 0.950 . S
C2013 C2015 1.327 . S
C2013 C2019 1.429 . S
C2014 C2006 1.574 . S
C2014 H2009 0.949 . S
C2014 C2020 1.368 . S
C2015 C1999 1.349 . S
C2015 H2007 0.950 . S
C2015 C2013 1.327 . S
C2016 C2004 1.349 . S
C2016 H2010 0.950 . S
C2016 C2017 1.327 . S
C2017 H2011 0.950 . S
C2017 C2016 1.327 . S
C2017 C2021 1.429 . S
C2018 C2001 1.574 . S
C2018 H2012 0.949 . S
C2018 C2022 1.368 . S
C2019 C2000 1.429 . S
C2019 C2013 1.429 . S
C2019 C2020 1.523 . S
C2020 C2001 1.368 . S
C2020 C2014 1.368 . S
C2020 C2019 1.523 . S
C2021 C2005 1.429 . S
C2021 C2017 1.429 . S
C2021 C2022 1.523 . S
C2022 C2006 1.368 . S
C2022 C2018 1.368 . S
C2022 C2021 1.523 . S
H2023 C1998 0.950 . S
H2024 C2000 0.950 . S
H2025 C2001 0.949 . S
H2026 C2003 0.950 . S
H2027 C2005 0.950 . S
C2028 C2029 1.349 . S
C2028 C2030 1.327 . S
C2028 H2053 0.950 . S
C2029 C2028 1.349 . S
C2029 C2045 1.349 . S
C2030 C2028 1.327 . S
C2030 C2049 1.429 . S
C2030 H2054 0.950 . S
C2031 C2048 1.574 . S
C2031 C2050 1.368 . S
C2031 H2055 0.949 . S
H2032 C2036 0.949 . S
C2033 C2034 1.349 . S
C2033 C2035 1.327 . S
C2033 H2056 0.950 . S
C2034 C2033 1.349 . S
C2034 C2046 1.349 . S
C2035 C2033 1.327 . S
C2035 C2051 1.429 . S
C2035 H2057 0.950 . S
C2036 H2032 0.949 . S
C2036 C2044 1.574 . S
C2036 C2052 1.368 . S
H2037 C2045 0.950 . S
H2038 C2043 0.950 . S
H2039 C2044 0.949 . S
H2040 C2046 0.950 . S
H2041 C2047 0.950 . S
H2042 C2048 0.949 . S
C2043 H2038 0.950 . S
C2043 C2045 1.327 . S
C2043 C2049 1.429 . S
C2044 C2036 1.574 . S
C2044 H2039 0.949 . S
C2044 C2050 1.368 . S
C2045 C2029 1.349 . S
C2045 H2037 0.950 . S
C2045 C2043 1.327 . S
C2046 C2034 1.349 . S
C2046 H2040 0.950 . S
C2046 C2047 1.327 . S
C2047 H2041 0.950 . S
C2047 C2046 1.327 . S
C2047 C2051 1.429 . S
C2048 C2031 1.574 . S
C2048 H2042 0.949 . S
C2048 C2052 1.368 . S
C2049 C2030 1.429 . S
C2049 C2043 1.429 . S
C2049 C2050 1.523 . S
C2050 C2031 1.368 . S
C2050 C2044 1.368 . S
C2050 C2049 1.523 . S
C2051 C2035 1.429 . S
C2051 C2047 1.429 . S
C2051 C2052 1.523 . S
C2052 C2036 1.368 . S
C2052 C2048 1.368 . S
C2052 C2051 1.523 . S
H2053 C2028 0.950 . S
H2054 C2030 0.950 . S
H2055 C2031 0.949 . S
H2056 C2033 0.950 . S
H2057 C2035 0.950 . S
C2058 C2059 1.349 . S
C2058 C2060 1.327 . S
C2058 H2083 0.950 . S
C2059 C2058 1.349 . S
C2059 C2075 1.349 . S
C2060 C2058 1.327 . S
C2060 C2079 1.429 . S
C2060 H2084 0.950 . S
C2061 C2078 1.574 . S
C2061 C2080 1.368 . S
C2061 H2085 0.949 . S
H2062 C2066 0.949 . S
C2063 C2064 1.349 . S
C2063 C2065 1.327 . S
C2063 H2086 0.950 . S
C2064 C2063 1.349 . S
C2064 C2076 1.349 . S
C2065 C2063 1.327 . S
C2065 C2081 1.429 . S
C2065 H2087 0.950 . S
C2066 H2062 0.949 . S
C2066 C2074 1.574 . S
C2066 C2082 1.368 . S
H2067 C2075 0.950 . S
H2068 C2073 0.950 . S
H2069 C2074 0.949 . S
H2070 C2076 0.950 . S
H2071 C2077 0.950 . S
H2072 C2078 0.949 . S
C2073 H2068 0.950 . S
C2073 C2075 1.327 . S
C2073 C2079 1.429 . S
C2074 C2066 1.574 . S
C2074 H2069 0.949 . S
C2074 C2080 1.368 . S
C2075 C2059 1.349 . S
C2075 H2067 0.950 . S
C2075 C2073 1.327 . S
C2076 C2064 1.349 . S
C2076 H2070 0.950 . S
C2076 C2077 1.327 . S
C2077 H2071 0.950 . S
C2077 C2076 1.327 . S
C2077 C2081 1.429 . S
C2078 C2061 1.574 . S
C2078 H2072 0.949 . S
C2078 C2082 1.368 . S
C2079 C2060 1.429 . S
C2079 C2073 1.429 . S
C2079 C2080 1.523 . S
C2080 C2061 1.368 . S
C2080 C2074 1.368 . S
C2080 C2079 1.523 . S
C2081 C2065 1.429 . S
C2081 C2077 1.429 . S
C2081 C2082 1.523 . S
C2082 C2066 1.368 . S
C2082 C2078 1.368 . S
C2082 C2081 1.523 . S
H2083 C2058 0.950 . S
H2084 C2060 0.950 . S
H2085 C2061 0.949 . S
H2086 C2063 0.950 . S
H2087 C2065 0.950 . S
C2088 C2089 1.349 . S
C2088 C2090 1.327 . S
C2088 H2113 0.950 . S
C2089 C2088 1.349 . S
C2089 C2105 1.349 . S
C2090 C2088 1.327 . S
C2090 C2109 1.429 . S
C2090 H2114 0.950 . S
C2091 C2108 1.574 . S
C2091 C2110 1.368 . S
C2091 H2115 0.949 . S
H2092 C2096 0.949 . S
C2093 C2094 1.349 . S
C2093 C2095 1.327 . S
C2093 H2116 0.950 . S
C2094 C2093 1.349 . S
C2094 C2106 1.349 . S
C2095 C2093 1.327 . S
C2095 C2111 1.429 . S
C2095 H2117 0.950 . S
C2096 H2092 0.949 . S
C2096 C2104 1.574 . S
C2096 C2112 1.368 . S
H2097 C2105 0.950 . S
H2098 C2103 0.950 . S
H2099 C2104 0.949 . S
H2100 C2106 0.950 . S
H2101 C2107 0.950 . S
H2102 C2108 0.949 . S
C2103 H2098 0.950 . S
C2103 C2105 1.327 . S
C2103 C2109 1.429 . S
C2104 C2096 1.574 . S
C2104 H2099 0.949 . S
C2104 C2110 1.368 . S
C2105 C2089 1.349 . S
C2105 H2097 0.950 . S
C2105 C2103 1.327 . S
C2106 C2094 1.349 . S
C2106 H2100 0.950 . S
C2106 C2107 1.327 . S
C2107 H2101 0.950 . S
C2107 C2106 1.327 . S
C2107 C2111 1.429 . S
C2108 C2091 1.574 . S
C2108 H2102 0.949 . S
C2108 C2112 1.368 . S
C2109 C2090 1.429 . S
C2109 C2103 1.429 . S
C2109 C2110 1.523 . S
C2110 C2091 1.368 . S
C2110 C2104 1.368 . S
C2110 C2109 1.523 . S
C2111 C2095 1.429 . S
C2111 C2107 1.429 . S
C2111 C2112 1.523 . S
C2112 C2096 1.368 . S
C2112 C2108 1.368 . S
C2112 C2111 1.523 . S
H2113 C2088 0.950 . S
H2114 C2090 0.950 . S
H2115 C2091 0.949 . S
H2116 C2093 0.950 . S
H2117 C2095 0.950 . S
C2118 C2119 1.349 . S
C2118 C2120 1.327 . S
C2118 H2143 0.950 . S
C2119 C2118 1.349 . S
C2119 C2135 1.349 . S
C2120 C2118 1.327 . S
C2120 C2139 1.429 . S
C2120 H2144 0.950 . S
C2121 C2138 1.574 . S
C2121 C2140 1.368 . S
C2121 H2145 0.949 . S
H2122 C2126 0.949 . S
C2123 C2124 1.349 . S
C2123 C2125 1.327 . S
C2123 H2146 0.950 . S
C2124 C2123 1.349 . S
C2124 C2136 1.349 . S
C2125 C2123 1.327 . S
C2125 C2141 1.429 . S
C2125 H2147 0.950 . S
C2126 H2122 0.949 . S
C2126 C2134 1.574 . S
C2126 C2142 1.368 . S
H2127 C2135 0.950 . S
H2128 C2133 0.950 . S
H2129 C2134 0.949 . S
H2130 C2136 0.950 . S
H2131 C2137 0.950 . S
H2132 C2138 0.949 . S
C2133 H2128 0.950 . S
C2133 C2135 1.327 . S
C2133 C2139 1.429 . S
C2134 C2126 1.574 . S
C2134 H2129 0.949 . S
C2134 C2140 1.368 . S
C2135 C2119 1.349 . S
C2135 H2127 0.950 . S
C2135 C2133 1.327 . S
C2136 C2124 1.349 . S
C2136 H2130 0.950 . S
C2136 C2137 1.327 . S
C2137 H2131 0.950 . S
C2137 C2136 1.327 . S
C2137 C2141 1.429 . S
C2138 C2121 1.574 . S
C2138 H2132 0.949 . S
C2138 C2142 1.368 . S
C2139 C2120 1.429 . S
C2139 C2133 1.429 . S
C2139 C2140 1.523 . S
C2140 C2121 1.368 . S
C2140 C2134 1.368 . S
C2140 C2139 1.523 . S
C2141 C2125 1.429 . S
C2141 C2137 1.429 . S
C2141 C2142 1.523 . S
C2142 C2126 1.368 . S
C2142 C2138 1.368 . S
C2142 C2141 1.523 . S
H2143 C2118 0.950 . S
H2144 C2120 0.950 . S
H2145 C2121 0.949 . S
H2146 C2123 0.950 . S
H2147 C2125 0.950 . S
C2148 C2149 1.349 . S
C2148 C2150 1.327 . S
C2148 H2173 0.950 . S
C2149 C2148 1.349 . S
C2149 C2165 1.349 . S
C2150 C2148 1.327 . S
C2150 C2169 1.429 . S
C2150 H2174 0.950 . S
C2151 C2168 1.574 . S
C2151 C2170 1.368 . S
C2151 H2175 0.949 . S
H2152 C2156 0.949 . S
C2153 C2154 1.349 . S
C2153 C2155 1.327 . S
C2153 H2176 0.950 . S
C2154 C2153 1.349 . S
C2154 C2166 1.349 . S
C2155 C2153 1.327 . S
C2155 C2171 1.429 . S
C2155 H2177 0.950 . S
C2156 H2152 0.949 . S
C2156 C2164 1.574 . S
C2156 C2172 1.368 . S
H2157 C2165 0.950 . S
H2158 C2163 0.950 . S
H2159 C2164 0.949 . S
H2160 C2166 0.950 . S
H2161 C2167 0.950 . S
H2162 C2168 0.949 . S
C2163 H2158 0.950 . S
C2163 C2165 1.327 . S
C2163 C2169 1.429 . S
C2164 C2156 1.574 . S
C2164 H2159 0.949 . S
C2164 C2170 1.368 . S
C2165 C2149 1.349 . S
C2165 H2157 0.950 . S
C2165 C2163 1.327 . S
C2166 C2154 1.349 . S
C2166 H2160 0.950 . S
C2166 C2167 1.327 . S
C2167 H2161 0.950 . S
C2167 C2166 1.327 . S
C2167 C2171 1.429 . S
C2168 C2151 1.574 . S
C2168 H2162 0.949 . S
C2168 C2172 1.368 . S
C2169 C2150 1.429 . S
C2169 C2163 1.429 . S
C2169 C2170 1.523 . S
C2170 C2151 1.368 . S
C2170 C2164 1.368 . S
C2170 C2169 1.523 . S
C2171 C2155 1.429 . S
C2171 C2167 1.429 . S
C2171 C2172 1.523 . S
C2172 C2156 1.368 . S
C2172 C2168 1.368 . S
C2172 C2171 1.523 . S
H2173 C2148 0.950 . S
H2174 C2150 0.950 . S
H2175 C2151 0.949 . S
H2176 C2153 0.950 . S
H2177 C2155 0.950 . S
C2178 C2179 1.349 . S
C2178 C2180 1.327 . S
C2178 H2203 0.950 . S
C2179 C2178 1.349 . S
C2179 C2195 1.349 . S
C2180 C2178 1.327 . S
C2180 C2199 1.429 . S
C2180 H2204 0.950 . S
C2181 C2198 1.574 . S
C2181 C2200 1.368 . S
C2181 H2205 0.949 . S
H2182 C2186 0.949 . S
C2183 C2184 1.349 . S
C2183 C2185 1.327 . S
C2183 H2206 0.950 . S
C2184 C2183 1.349 . S
C2184 C2196 1.349 . S
C2185 C2183 1.327 . S
C2185 C2201 1.429 . S
C2185 H2207 0.950 . S
C2186 H2182 0.949 . S
C2186 C2194 1.574 . S
C2186 C2202 1.368 . S
H2187 C2195 0.950 . S
H2188 C2193 0.950 . S
H2189 C2194 0.949 . S
H2190 C2196 0.950 . S
H2191 C2197 0.950 . S
H2192 C2198 0.949 . S
C2193 H2188 0.950 . S
C2193 C2195 1.327 . S
C2193 C2199 1.429 . S
C2194 C2186 1.574 . S
C2194 H2189 0.949 . S
C2194 C2200 1.368 . S
C2195 C2179 1.349 . S
C2195 H2187 0.950 . S
C2195 C2193 1.327 . S
C2196 C2184 1.349 . S
C2196 H2190 0.950 . S
C2196 C2197 1.327 . S
C2197 H2191 0.950 . S
C2197 C2196 1.327 . S
C2197 C2201 1.429 . S
C2198 C2181 1.574 . S
C2198 H2192 0.949 . S
C2198 C2202 1.368 . S
C2199 C2180 1.429 . S
C2199 C2193 1.429 . S
C2199 C2200 1.523 . S
C2200 C2181 1.368 . S
C2200 C2194 1.368 . S
C2200 C2199 1.523 . S
C2201 C2185 1.429 . S
C2201 C2197 1.429 . S
C2201 C2202 1.523 . S
C2202 C2186 1.368 . S
C2202 C2198 1.368 . S
C2202 C2201 1.523 . S
H2203 C2178 0.950 . S
H2204 C2180 0.950 . S
H2205 C2181 0.949 . S
H2206 C2183 0.950 . S
H2207 C2185 0.950 . S
C2208 C2209 1.349 . S
C2208 C2210 1.327 . S
C2208 H2233 0.950 . S
C2209 C2208 1.349 . S
C2209 C2225 1.349 . S
C2210 C2208 1.327 . S
C2210 C2229 1.429 . S
C2210 H2234 0.950 . S
C2211 C2228 1.574 . S
C2211 C2230 1.368 . S
C2211 H2235 0.949 . S
H2212 C2216 0.949 . S
C2213 C2214 1.349 . S
C2213 C2215 1.327 . S
C2213 H2236 0.950 . S
C2214 C2213 1.349 . S
C2214 C2226 1.349 . S
C2215 C2213 1.327 . S
C2215 C2231 1.429 . S
C2215 H2237 0.950 . S
C2216 H2212 0.949 . S
C2216 C2224 1.574 . S
C2216 C2232 1.368 . S
H2217 C2225 0.950 . S
H2218 C2223 0.950 . S
H2219 C2224 0.949 . S
H2220 C2226 0.950 . S
H2221 C2227 0.950 . S
H2222 C2228 0.949 . S
C2223 H2218 0.950 . S
C2223 C2225 1.327 . S
C2223 C2229 1.429 . S
C2224 C2216 1.574 . S
C2224 H2219 0.949 . S
C2224 C2230 1.368 . S
C2225 C2209 1.349 . S
C2225 H2217 0.950 . S
C2225 C2223 1.327 . S
C2226 C2214 1.349 . S
C2226 H2220 0.950 . S
C2226 C2227 1.327 . S
C2227 H2221 0.950 . S
C2227 C2226 1.327 . S
C2227 C2231 1.429 . S
C2228 C2211 1.574 . S
C2228 H2222 0.949 . S
C2228 C2232 1.368 . S
C2229 C2210 1.429 . S
C2229 C2223 1.429 . S
C2229 C2230 1.523 . S
C2230 C2211 1.368 . S
C2230 C2224 1.368 . S
C2230 C2229 1.523 . S
C2231 C2215 1.429 . S
C2231 C2227 1.429 . S
C2231 C2232 1.523 . S
C2232 C2216 1.368 . S
C2232 C2228 1.368 . S
C2232 C2231 1.523 . S
H2233 C2208 0.950 . S
H2234 C2210 0.950 . S
H2235 C2211 0.949 . S
H2236 C2213 0.950 . S
H2237 C2215 0.950 . S
C2238 C2239 1.349 . S
C2238 C2240 1.327 . S
C2238 H2263 0.950 . S
C2239 C2238 1.349 . S
C2239 C2255 1.349 . S
C2240 C2238 1.327 . S
C2240 C2259 1.429 . S
C2240 H2264 0.950 . S
C2241 C2258 1.574 . S
C2241 C2260 1.368 . S
C2241 H2265 0.949 . S
H2242 C2246 0.949 . S
C2243 C2244 1.349 . S
C2243 C2245 1.327 . S
C2243 H2266 0.950 . S
C2244 C2243 1.349 . S
C2244 C2256 1.349 . S
C2245 C2243 1.327 . S
C2245 C2261 1.429 . S
C2245 H2267 0.950 . S
C2246 H2242 0.949 . S
C2246 C2254 1.574 . S
C2246 C2262 1.368 . S
H2247 C2255 0.950 . S
H2248 C2253 0.950 . S
H2249 C2254 0.949 . S
H2250 C2256 0.950 . S
H2251 C2257 0.950 . S
H2252 C2258 0.949 . S
C2253 H2248 0.950 . S
C2253 C2255 1.327 . S
C2253 C2259 1.429 . S
C2254 C2246 1.574 . S
C2254 H2249 0.949 . S
C2254 C2260 1.368 . S
C2255 C2239 1.349 . S
C2255 H2247 0.950 . S
C2255 C2253 1.327 . S
C2256 C2244 1.349 . S
C2256 H2250 0.950 . S
C2256 C2257 1.327 . S
C2257 H2251 0.950 . S
C2257 C2256 1.327 . S
C2257 C2261 1.429 . S
C2258 C2241 1.574 . S
C2258 H2252 0.949 . S
C2258 C2262 1.368 . S
C2259 C2240 1.429 . S
C2259 C2253 1.429 . S
C2259 C2260 1.523 . S
C2260 C2241 1.368 . S
C2260 C2254 1.368 . S
C2260 C2259 1.523 . S
C2261 C2245 1.429 . S
C2261 C2257 1.429 . S
C2261 C2262 1.523 . S
C2262 C2246 1.368 . S
C2262 C2258 1.368 . S
C2262 C2261 1.523 . S
H2263 C2238 0.950 . S
H2264 C2240 0.950 . S
H2265 C2241 0.949 . S
H2266 C2243 0.950 . S
H2267 C2245 0.950 . S
C2268 C2269 1.349 . S
C2268 C2270 1.327 . S
C2268 H2293 0.950 . S
C2269 C2268 1.349 . S
C2269 C2285 1.349 . S
C2270 C2268 1.327 . S
C2270 C2289 1.429 . S
C2270 H2294 0.950 . S
C2271 C2288 1.574 . S
C2271 C2290 1.368 . S
C2271 H2295 0.949 . S
H2272 C2276 0.949 . S
C2273 C2274 1.349 . S
C2273 C2275 1.327 . S
C2273 H2296 0.950 . S
C2274 C2273 1.349 . S
C2274 C2286 1.349 . S
C2275 C2273 1.327 . S
C2275 C2291 1.429 . S
C2275 H2297 0.950 . S
C2276 H2272 0.949 . S
C2276 C2284 1.574 . S
C2276 C2292 1.368 . S
H2277 C2285 0.950 . S
H2278 C2283 0.950 . S
H2279 C2284 0.949 . S
H2280 C2286 0.950 . S
H2281 C2287 0.950 . S
H2282 C2288 0.949 . S
C2283 H2278 0.950 . S
C2283 C2285 1.327 . S
C2283 C2289 1.429 . S
C2284 C2276 1.574 . S
C2284 H2279 0.949 . S
C2284 C2290 1.368 . S
C2285 C2269 1.349 . S
C2285 H2277 0.950 . S
C2285 C2283 1.327 . S
C2286 C2274 1.349 . S
C2286 H2280 0.950 . S
C2286 C2287 1.327 . S
C2287 H2281 0.950 . S
C2287 C2286 1.327 . S
C2287 C2291 1.429 . S
C2288 C2271 1.574 . S
C2288 H2282 0.949 . S
C2288 C2292 1.368 . S
C2289 C2270 1.429 . S
C2289 C2283 1.429 . S
C2289 C2290 1.523 . S
C2290 C2271 1.368 . S
C2290 C2284 1.368 . S
C2290 C2289 1.523 . S
C2291 C2275 1.429 . S
C2291 C2287 1.429 . S
C2291 C2292 1.523 . S
C2292 C2276 1.368 . S
C2292 C2288 1.368 . S
C2292 C2291 1.523 . S
H2293 C2268 0.950 . S
H2294 C2270 0.950 . S
H2295 C2271 0.949 . S
H2296 C2273 0.950 . S
H2297 C2275 0.950 . S
C2298 C2299 1.349 . S
C2298 C2300 1.327 . S
C2298 H2323 0.950 . S
C2299 C2298 1.349 . S
C2299 C2315 1.349 . S
C2300 C2298 1.327 . S
C2300 C2319 1.429 . S
C2300 H2324 0.950 . S
C2301 C2318 1.574 . S
C2301 C2320 1.368 . S
C2301 H2325 0.949 . S
H2302 C2306 0.949 . S
C2303 C2304 1.349 . S
C2303 C2305 1.327 . S
C2303 H2326 0.950 . S
C2304 C2303 1.349 . S
C2304 C2316 1.349 . S
C2305 C2303 1.327 . S
C2305 C2321 1.429 . S
C2305 H2327 0.950 . S
C2306 H2302 0.949 . S
C2306 C2314 1.574 . S
C2306 C2322 1.368 . S
H2307 C2315 0.950 . S
H2308 C2313 0.950 . S
H2309 C2314 0.949 . S
H2310 C2316 0.950 . S
H2311 C2317 0.950 . S
H2312 C2318 0.949 . S
C2313 H2308 0.950 . S
C2313 C2315 1.327 . S
C2313 C2319 1.429 . S
C2314 C2306 1.574 . S
C2314 H2309 0.949 . S
C2314 C2320 1.368 . S
C2315 C2299 1.349 . S
C2315 H2307 0.950 . S
C2315 C2313 1.327 . S
C2316 C2304 1.349 . S
C2316 H2310 0.950 . S
C2316 C2317 1.327 . S
C2317 H2311 0.950 . S
C2317 C2316 1.327 . S
C2317 C2321 1.429 . S
C2318 C2301 1.574 . S
C2318 H2312 0.949 . S
C2318 C2322 1.368 . S
C2319 C2300 1.429 . S
C2319 C2313 1.429 . S
C2319 C2320 1.523 . S
C2320 C2301 1.368 . S
C2320 C2314 1.368 . S
C2320 C2319 1.523 . S
C2321 C2305 1.429 . S
C2321 C2317 1.429 . S
C2321 C2322 1.523 . S
C2322 C2306 1.368 . S
C2322 C2318 1.368 . S
C2322 C2321 1.523 . S
H2323 C2298 0.950 . S
H2324 C2300 0.950 . S
H2325 C2301 0.949 . S
H2326 C2303 0.950 . S
H2327 C2305 0.950 . S
C2328 C2329 1.349 . S
C2328 C2330 1.327 . S
C2328 H2353 0.950 . S
C2329 C2328 1.349 . S
C2329 C2345 1.349 . S
C2330 C2328 1.327 . S
C2330 C2349 1.429 . S
C2330 H2354 0.950 . S
C2331 C2348 1.574 . S
C2331 C2350 1.368 . S
C2331 H2355 0.949 . S
H2332 C2336 0.949 . S
C2333 C2334 1.349 . S
C2333 C2335 1.327 . S
C2333 H2356 0.950 . S
C2334 C2333 1.349 . S
C2334 C2346 1.349 . S
C2335 C2333 1.327 . S
C2335 C2351 1.429 . S
C2335 H2357 0.950 . S
C2336 H2332 0.949 . S
C2336 C2344 1.574 . S
C2336 C2352 1.368 . S
H2337 C2345 0.950 . S
H2338 C2343 0.950 . S
H2339 C2344 0.949 . S
H2340 C2346 0.950 . S
H2341 C2347 0.950 . S
H2342 C2348 0.949 . S
C2343 H2338 0.950 . S
C2343 C2345 1.327 . S
C2343 C2349 1.429 . S
C2344 C2336 1.574 . S
C2344 H2339 0.949 . S
C2344 C2350 1.368 . S
C2345 C2329 1.349 . S
C2345 H2337 0.950 . S
C2345 C2343 1.327 . S
C2346 C2334 1.349 . S
C2346 H2340 0.950 . S
C2346 C2347 1.327 . S
C2347 H2341 0.950 . S
C2347 C2346 1.327 . S
C2347 C2351 1.429 . S
C2348 C2331 1.574 . S
C2348 H2342 0.949 . S
C2348 C2352 1.368 . S
C2349 C2330 1.429 . S
C2349 C2343 1.429 . S
C2349 C2350 1.523 . S
C2350 C2331 1.368 . S
C2350 C2344 1.368 . S
C2350 C2349 1.523 . S
C2351 C2335 1.429 . S
C2351 C2347 1.429 . S
C2351 C2352 1.523 . S
C2352 C2336 1.368 . S
C2352 C2348 1.368 . S
C2352 C2351 1.523 . S
H2353 C2328 0.950 . S
H2354 C2330 0.950 . S
H2355 C2331 0.949 . S
H2356 C2333 0.950 . S
H2357 C2335 0.950 . S
C2358 C2359 1.349 . S
C2358 C2360 1.327 . S
C2358 H2383 0.950 . S
C2359 C2358 1.349 . S
C2359 C2375 1.349 . S
C2360 C2358 1.327 . S
C2360 C2379 1.429 . S
C2360 H2384 0.950 . S
C2361 C2378 1.574 . S
C2361 C2380 1.368 . S
C2361 H2385 0.949 . S
H2362 C2366 0.949 . S
C2363 C2364 1.349 . S
C2363 C2365 1.327 . S
C2363 H2386 0.950 . S
C2364 C2363 1.349 . S
C2364 C2376 1.349 . S
C2365 C2363 1.327 . S
C2365 C2381 1.429 . S
C2365 H2387 0.950 . S
C2366 H2362 0.949 . S
C2366 C2374 1.574 . S
C2366 C2382 1.368 . S
H2367 C2375 0.950 . S
H2368 C2373 0.950 . S
H2369 C2374 0.949 . S
H2370 C2376 0.950 . S
H2371 C2377 0.950 . S
H2372 C2378 0.949 . S
C2373 H2368 0.950 . S
C2373 C2375 1.327 . S
C2373 C2379 1.429 . S
C2374 C2366 1.574 . S
C2374 H2369 0.949 . S
C2374 C2380 1.368 . S
C2375 C2359 1.349 . S
C2375 H2367 0.950 . S
C2375 C2373 1.327 . S
C2376 C2364 1.349 . S
C2376 H2370 0.950 . S
C2376 C2377 1.327 . S
C2377 H2371 0.950 . S
C2377 C2376 1.327 . S
C2377 C2381 1.429 . S
C2378 C2361 1.574 . S
C2378 H2372 0.949 . S
C2378 C2382 1.368 . S
C2379 C2360 1.429 . S
C2379 C2373 1.429 . S
C2379 C2380 1.523 . S
C2380 C2361 1.368 . S
C2380 C2374 1.368 . S
C2380 C2379 1.523 . S
C2381 C2365 1.429 . S
C2381 C2377 1.429 . S
C2381 C2382 1.523 . S
C2382 C2366 1.368 . S
C2382 C2378 1.368 . S
C2382 C2381 1.523 . S
H2383 C2358 0.950 . S
H2384 C2360 0.950 . S
H2385 C2361 0.949 . S
H2386 C2363 0.950 . S
H2387 C2365 0.950 . S
C2388 C2389 1.349 . S
C2388 C2390 1.327 . S
C2388 H2413 0.950 . S
C2389 C2388 1.349 . S
C2389 C2405 1.349 . S
C2390 C2388 1.327 . S
C2390 C2409 1.429 . S
C2390 H2414 0.950 . S
C2391 C2408 1.574 . S
C2391 C2410 1.368 . S
C2391 H2415 0.949 . S
H2392 C2396 0.949 . S
C2393 C2394 1.349 . S
C2393 C2395 1.327 . S
C2393 H2416 0.950 . S
C2394 C2393 1.349 . S
C2394 C2406 1.349 . S
C2395 C2393 1.327 . S
C2395 C2411 1.429 . S
C2395 H2417 0.950 . S
C2396 H2392 0.949 . S
C2396 C2404 1.574 . S
C2396 C2412 1.368 . S
H2397 C2405 0.950 . S
H2398 C2403 0.950 . S
H2399 C2404 0.949 . S
H2400 C2406 0.950 . S
H2401 C2407 0.950 . S
H2402 C2408 0.949 . S
C2403 H2398 0.950 . S
C2403 C2405 1.327 . S
C2403 C2409 1.429 . S
C2404 C2396 1.574 . S
C2404 H2399 0.949 . S
C2404 C2410 1.368 . S
C2405 C2389 1.349 . S
C2405 H2397 0.950 . S
C2405 C2403 1.327 . S
C2406 C2394 1.349 . S
C2406 H2400 0.950 . S
C2406 C2407 1.327 . S
C2407 H2401 0.950 . S
C2407 C2406 1.327 . S
C2407 C2411 1.429 . S
C2408 C2391 1.574 . S
C2408 H2402 0.949 . S
C2408 C2412 1.368 . S
C2409 C2390 1.429 . S
C2409 C2403 1.429 . S
C2409 C2410 1.523 . S
C2410 C2391 1.368 . S
C2410 C2404 1.368 . S
C2410 C2409 1.523 . S
C2411 C2395 1.429 . S
C2411 C2407 1.429 . S
C2411 C2412 1.523 . S
C2412 C2396 1.368 . S
C2412 C2408 1.368 . S
C2412 C2411 1.523 . S
H2413 C2388 0.950 . S
H2414 C2390 0.950 . S
H2415 C2391 0.949 . S
H2416 C2393 0.950 . S
H2417 C2395 0.950 . S
C2418 C2419 1.349 . S
C2418 C2420 1.327 . S
C2418 H2443 0.950 1_556 S
C2419 C2418 1.349 . S
C2419 C2435 1.349 . S
C2420 C2418 1.327 . S
C2420 C2439 1.429 . S
C2420 H2444 0.950 . S
C2421 C2438 1.574 . S
C2421 C2440 1.368 . S
C2421 H2445 0.949 . S
H2422 C2426 0.949 . S
C2423 C2424 1.349 . S
C2423 C2425 1.327 . S
C2423 H2446 0.950 . S
C2424 C2423 1.349 . S
C2424 C2436 1.349 . S
C2425 C2423 1.327 . S
C2425 C2441 1.429 . S
C2425 H2447 0.950 . S
C2426 H2422 0.949 . S
C2426 C2434 1.574 . S
C2426 C2442 1.368 . S
H2427 C2435 0.950 . S
H2428 C2433 0.950 . S
H2429 C2434 0.949 . S
H2430 C2436 0.950 . S
H2431 C2437 0.950 . S
H2432 C2438 0.949 . S
C2433 H2428 0.950 . S
C2433 C2435 1.327 . S
C2433 C2439 1.429 . S
C2434 C2426 1.574 . S
C2434 H2429 0.949 . S
C2434 C2440 1.368 . S
C2435 C2419 1.349 . S
C2435 H2427 0.950 . S
C2435 C2433 1.327 . S
C2436 C2424 1.349 . S
C2436 H2430 0.950 . S
C2436 C2437 1.327 . S
C2437 H2431 0.950 . S
C2437 C2436 1.327 . S
C2437 C2441 1.429 . S
C2438 C2421 1.574 . S
C2438 H2432 0.949 . S
C2438 C2442 1.368 . S
C2439 C2420 1.429 . S
C2439 C2433 1.429 . S
C2439 C2440 1.523 . S
C2440 C2421 1.368 . S
C2440 C2434 1.368 . S
C2440 C2439 1.523 . S
C2441 C2425 1.429 . S
C2441 C2437 1.429 . S
C2441 C2442 1.523 . S
C2442 C2426 1.368 . S
C2442 C2438 1.368 . S
C2442 C2441 1.523 . S
H2443 C2418 0.950 1_554 S
H2444 C2420 0.950 . S
H2445 C2421 0.949 . S
H2446 C2423 0.950 . S
H2447 C2425 0.950 . S
C2448 C2449 1.349 . S
C2448 C2450 1.327 . S
C2448 H2473 0.950 . S
C2449 C2448 1.349 . S
C2449 C2465 1.349 . S
C2450 C2448 1.327 . S
C2450 C2469 1.429 . S
C2450 H2474 0.950 . S
C2451 C2468 1.574 . S
C2451 C2470 1.368 . S
C2451 H2475 0.949 . S
H2452 C2456 0.949 . S
C2453 C2454 1.349 . S
C2453 C2455 1.327 . S
C2453 H2476 0.950 . S
C2454 C2453 1.349 . S
C2454 C2466 1.349 . S
C2455 C2453 1.327 . S
C2455 C2471 1.429 . S
C2455 H2477 0.950 . S
C2456 H2452 0.949 . S
C2456 C2464 1.574 . S
C2456 C2472 1.368 . S
H2457 C2465 0.950 . S
H2458 C2463 0.950 . S
H2459 C2464 0.949 . S
H2460 C2466 0.950 . S
H2461 C2467 0.950 . S
H2462 C2468 0.949 . S
C2463 H2458 0.950 . S
C2463 C2465 1.327 . S
C2463 C2469 1.429 . S
C2464 C2456 1.574 . S
C2464 H2459 0.949 . S
C2464 C2470 1.368 . S
C2465 C2449 1.349 . S
C2465 H2457 0.950 . S
C2465 C2463 1.327 . S
C2466 C2454 1.349 . S
C2466 H2460 0.950 . S
C2466 C2467 1.327 . S
C2467 H2461 0.950 . S
C2467 C2466 1.327 . S
C2467 C2471 1.429 . S
C2468 C2451 1.574 . S
C2468 H2462 0.949 . S
C2468 C2472 1.368 . S
C2469 C2450 1.429 . S
C2469 C2463 1.429 . S
C2469 C2470 1.523 . S
C2470 C2451 1.368 . S
C2470 C2464 1.368 . S
C2470 C2469 1.523 . S
C2471 C2455 1.429 . S
C2471 C2467 1.429 . S
C2471 C2472 1.523 . S
C2472 C2456 1.368 . S
C2472 C2468 1.368 . S
C2472 C2471 1.523 . S
H2473 C2448 0.950 . S
H2474 C2450 0.950 . S
H2475 C2451 0.949 . S
H2476 C2453 0.950 . S
H2477 C2455 0.950 . S
C2478 C2479 1.349 . S
C2478 C2480 1.327 . S
C2478 H2503 0.950 . S
C2479 C2478 1.349 . S
C2479 C2495 1.349 . S
C2480 C2478 1.327 . S
C2480 C2499 1.429 . S
C2480 H2504 0.950 . S
C2481 C2498 1.574 . S
C2481 C2500 1.368 . S
C2481 H2505 0.949 . S
H2482 C2486 0.949 . S
C2483 C2484 1.349 . S
C2483 C2485 1.327 . S
C2483 H2506 0.950 . S
C2484 C2483 1.349 . S
C2484 C2496 1.349 . S
C2485 C2483 1.327 . S
C2485 C2501 1.429 . S
C2485 H2507 0.950 . S
C2486 H2482 0.949 . S
C2486 C2494 1.574 . S
C2486 C2502 1.368 . S
H2487 C2495 0.950 . S
H2488 C2493 0.950 . S
H2489 C2494 0.949 . S
H2490 C2496 0.950 . S
H2491 C2497 0.950 . S
H2492 C2498 0.949 . S
C2493 H2488 0.950 . S
C2493 C2495 1.327 . S
C2493 C2499 1.429 . S
C2494 C2486 1.574 . S
C2494 H2489 0.949 . S
C2494 C2500 1.368 . S
C2495 C2479 1.349 . S
C2495 H2487 0.950 . S
C2495 C2493 1.327 . S
C2496 C2484 1.349 . S
C2496 H2490 0.950 . S
C2496 C2497 1.327 . S
C2497 H2491 0.950 . S
C2497 C2496 1.327 . S
C2497 C2501 1.429 . S
C2498 C2481 1.574 . S
C2498 H2492 0.949 . S
C2498 C2502 1.368 . S
C2499 C2480 1.429 . S
C2499 C2493 1.429 . S
C2499 C2500 1.523 . S
C2500 C2481 1.368 . S
C2500 C2494 1.368 . S
C2500 C2499 1.523 . S
C2501 C2485 1.429 . S
C2501 C2497 1.429 . S
C2501 C2502 1.523 . S
C2502 C2486 1.368 . S
C2502 C2498 1.368 . S
C2502 C2501 1.523 . S
H2503 C2478 0.950 . S
H2504 C2480 0.950 . S
H2505 C2481 0.949 . S
H2506 C2483 0.950 . S
H2507 C2485 0.950 . S
C2508 C2509 1.349 . S
C2508 C2510 1.327 . S
C2508 H2533 0.950 . S
C2509 C2508 1.349 . S
C2509 C2525 1.349 . S
C2510 C2508 1.327 . S
C2510 C2529 1.429 . S
C2510 H2534 0.950 . S
C2511 C2528 1.574 . S
C2511 C2530 1.368 . S
C2511 H2535 0.949 . S
H2512 C2516 0.949 . S
C2513 C2514 1.349 . S
C2513 C2515 1.327 . S
C2513 H2536 0.950 . S
C2514 C2513 1.349 . S
C2514 C2526 1.349 . S
C2515 C2513 1.327 . S
C2515 C2531 1.429 . S
C2515 H2537 0.950 . S
C2516 H2512 0.949 . S
C2516 C2524 1.574 . S
C2516 C2532 1.368 . S
H2517 C2525 0.950 . S
H2518 C2523 0.950 . S
H2519 C2524 0.949 . S
H2520 C2526 0.950 . S
H2521 C2527 0.950 . S
H2522 C2528 0.949 . S
C2523 H2518 0.950 . S
C2523 C2525 1.327 . S
C2523 C2529 1.429 . S
C2524 C2516 1.574 . S
C2524 H2519 0.949 . S
C2524 C2530 1.368 . S
C2525 C2509 1.349 . S
C2525 H2517 0.950 . S
C2525 C2523 1.327 . S
C2526 C2514 1.349 . S
C2526 H2520 0.950 . S
C2526 C2527 1.327 . S
C2527 H2521 0.950 . S
C2527 C2526 1.327 . S
C2527 C2531 1.429 . S
C2528 C2511 1.574 . S
C2528 H2522 0.949 . S
C2528 C2532 1.368 . S
C2529 C2510 1.429 . S
C2529 C2523 1.429 . S
C2529 C2530 1.523 . S
C2530 C2511 1.368 . S
C2530 C2524 1.368 . S
C2530 C2529 1.523 . S
C2531 C2515 1.429 . S
C2531 C2527 1.429 . S
C2531 C2532 1.523 . S
C2532 C2516 1.368 . S
C2532 C2528 1.368 . S
C2532 C2531 1.523 . S
H2533 C2508 0.950 . S
H2534 C2510 0.950 . S
H2535 C2511 0.949 . S
H2536 C2513 0.950 . S
H2537 C2515 0.950 . S
C2538 C2539 1.349 . S
C2538 C2540 1.327 . S
C2538 H2563 0.950 . S
C2539 C2538 1.349 . S
C2539 C2555 1.349 . S
C2540 C2538 1.327 . S
C2540 C2559 1.429 . S
C2540 H2564 0.950 . S
C2541 C2558 1.574 . S
C2541 C2560 1.368 . S
C2541 H2565 0.949 . S
H2542 C2546 0.949 . S
C2543 C2544 1.349 . S
C2543 C2545 1.327 . S
C2543 H2566 0.950 . S
C2544 C2543 1.349 . S
C2544 C2556 1.349 . S
C2545 C2543 1.327 . S
C2545 C2561 1.429 . S
C2545 H2567 0.950 . S
C2546 H2542 0.949 . S
C2546 C2554 1.574 . S
C2546 C2562 1.368 . S
H2547 C2555 0.950 . S
H2548 C2553 0.950 . S
H2549 C2554 0.949 . S
H2550 C2556 0.950 . S
H2551 C2557 0.950 . S
H2552 C2558 0.949 . S
C2553 H2548 0.950 . S
C2553 C2555 1.327 . S
C2553 C2559 1.429 . S
C2554 C2546 1.574 . S
C2554 H2549 0.949 . S
C2554 C2560 1.368 . S
C2555 C2539 1.349 . S
C2555 H2547 0.950 . S
C2555 C2553 1.327 . S
C2556 C2544 1.349 . S
C2556 H2550 0.950 . S
C2556 C2557 1.327 . S
C2557 H2551 0.950 . S
C2557 C2556 1.327 . S
C2557 C2561 1.429 . S
C2558 C2541 1.574 . S
C2558 H2552 0.949 . S
C2558 C2562 1.368 . S
C2559 C2540 1.429 . S
C2559 C2553 1.429 . S
C2559 C2560 1.523 . S
C2560 C2541 1.368 . S
C2560 C2554 1.368 . S
C2560 C2559 1.523 . S
C2561 C2545 1.429 . S
C2561 C2557 1.429 . S
C2561 C2562 1.523 . S
C2562 C2546 1.368 . S
C2562 C2558 1.368 . S
C2562 C2561 1.523 . S
H2563 C2538 0.950 . S
H2564 C2540 0.950 . S
H2565 C2541 0.949 . S
H2566 C2543 0.950 . S
H2567 C2545 0.950 . S
C2568 C2569 1.349 . S
C2568 C2570 1.327 . S
C2568 H2593 0.950 . S
C2569 C2568 1.349 . S
C2569 C2585 1.349 . S
C2570 C2568 1.327 . S
C2570 C2589 1.429 . S
C2570 H2594 0.950 . S
C2571 C2588 1.574 . S
C2571 C2590 1.368 . S
C2571 H2595 0.949 . S
H2572 C2576 0.949 . S
C2573 C2574 1.349 . S
C2573 C2575 1.327 . S
C2573 H2596 0.950 . S
C2574 C2573 1.349 . S
C2574 C2586 1.349 . S
C2575 C2573 1.327 . S
C2575 C2591 1.429 . S
C2575 H2597 0.950 . S
C2576 H2572 0.949 . S
C2576 C2584 1.574 . S
C2576 C2592 1.368 . S
H2577 C2585 0.950 . S
H2578 C2583 0.950 . S
H2579 C2584 0.949 . S
H2580 C2586 0.950 . S
H2581 C2587 0.950 . S
H2582 C2588 0.949 . S
C2583 H2578 0.950 . S
C2583 C2585 1.327 . S
C2583 C2589 1.429 . S
C2584 C2576 1.574 . S
C2584 H2579 0.949 . S
C2584 C2590 1.368 . S
C2585 C2569 1.349 . S
C2585 H2577 0.950 . S
C2585 C2583 1.327 . S
C2586 C2574 1.349 . S
C2586 H2580 0.950 . S
C2586 C2587 1.327 . S
C2587 H2581 0.950 . S
C2587 C2586 1.327 . S
C2587 C2591 1.429 . S
C2588 C2571 1.574 . S
C2588 H2582 0.949 . S
C2588 C2592 1.368 . S
C2589 C2570 1.429 . S
C2589 C2583 1.429 . S
C2589 C2590 1.523 . S
C2590 C2571 1.368 . S
C2590 C2584 1.368 . S
C2590 C2589 1.523 . S
C2591 C2575 1.429 . S
C2591 C2587 1.429 . S
C2591 C2592 1.523 . S
C2592 C2576 1.368 . S
C2592 C2588 1.368 . S
C2592 C2591 1.523 . S
H2593 C2568 0.950 . S
H2594 C2570 0.950 . S
H2595 C2571 0.949 . S
H2596 C2573 0.950 . S
H2597 C2575 0.950 . S
C2598 C2599 1.349 . S
C2598 C2600 1.327 . S
C2598 H2623 0.950 . S
C2599 C2598 1.349 . S
C2599 C2615 1.349 . S
C2600 C2598 1.327 . S
C2600 C2619 1.429 . S
C2600 H2624 0.950 . S
C2601 C2618 1.574 . S
C2601 C2620 1.368 . S
C2601 H2625 0.949 . S
H2602 C2606 0.949 . S
C2603 C2604 1.349 . S
C2603 C2605 1.327 . S
C2603 H2626 0.950 . S
C2604 C2603 1.349 . S
C2604 C2616 1.349 . S
C2605 C2603 1.327 . S
C2605 C2621 1.429 . S
C2605 H2627 0.950 . S
C2606 H2602 0.949 . S
C2606 C2614 1.574 . S
C2606 C2622 1.368 . S
H2607 C2615 0.950 . S
H2608 C2613 0.950 . S
H2609 C2614 0.949 . S
H2610 C2616 0.950 . S
H2611 C2617 0.950 . S
H2612 C2618 0.949 . S
C2613 H2608 0.950 . S
C2613 C2615 1.327 . S
C2613 C2619 1.429 . S
C2614 C2606 1.574 . S
C2614 H2609 0.949 . S
C2614 C2620 1.368 . S
C2615 C2599 1.349 . S
C2615 H2607 0.950 . S
C2615 C2613 1.327 . S
C2616 C2604 1.349 . S
C2616 H2610 0.950 . S
C2616 C2617 1.327 . S
C2617 H2611 0.950 . S
C2617 C2616 1.327 . S
C2617 C2621 1.429 . S
C2618 C2601 1.574 . S
C2618 H2612 0.949 . S
C2618 C2622 1.368 . S
C2619 C2600 1.429 . S
C2619 C2613 1.429 . S
C2619 C2620 1.523 . S
C2620 C2601 1.368 . S
C2620 C2614 1.368 . S
C2620 C2619 1.523 . S
C2621 C2605 1.429 . S
C2621 C2617 1.429 . S
C2621 C2622 1.523 . S
C2622 C2606 1.368 . S
C2622 C2618 1.368 . S
C2622 C2621 1.523 . S
H2623 C2598 0.950 . S
H2624 C2600 0.950 . S
H2625 C2601 0.949 . S
H2626 C2603 0.950 . S
H2627 C2605 0.950 . S
C2628 C2629 1.349 . S
C2628 C2630 1.327 . S
C2628 H2653 0.950 1_455 S
C2629 C2628 1.349 . S
C2629 C2645 1.349 . S
C2630 C2628 1.327 . S
C2630 C2649 1.429 . S
C2630 H2654 0.950 1_455 S
C2631 C2648 1.574 . S
C2631 C2650 1.368 . S
C2631 H2655 0.949 . S
H2632 C2636 0.949 . S
C2633 C2634 1.349 . S
C2633 C2635 1.327 . S
C2633 H2656 0.950 . S
C2634 C2633 1.349 . S
C2634 C2646 1.349 1_455 S
C2635 C2633 1.327 . S
C2635 C2651 1.429 . S
C2635 H2657 0.950 . S
C2636 H2632 0.949 . S
C2636 C2644 1.574 . S
C2636 C2652 1.368 1_655 S
H2637 C2645 0.950 . S
H2638 C2643 0.950 . S
H2639 C2644 0.949 . S
H2640 C2646 0.950 . S
H2641 C2647 0.950 . S
H2642 C2648 0.949 . S
C2643 H2638 0.950 . S
C2643 C2645 1.327 . S
C2643 C2649 1.429 . S
C2644 C2636 1.574 . S
C2644 H2639 0.949 . S
C2644 C2650 1.368 1_655 S
C2645 C2629 1.349 . S
C2645 H2637 0.950 . S
C2645 C2643 1.327 . S
C2646 C2634 1.349 1_655 S
C2646 H2640 0.950 . S
C2646 C2647 1.327 . S
C2647 H2641 0.950 . S
C2647 C2646 1.327 . S
C2647 C2651 1.429 1_655 S
C2648 C2631 1.574 . S
C2648 H2642 0.949 . S
C2648 C2652 1.368 . S
C2649 C2630 1.429 . S
C2649 C2643 1.429 . S
C2649 C2650 1.523 . S
C2650 C2631 1.368 . S
C2650 C2644 1.368 1_455 S
C2650 C2649 1.523 . S
C2651 C2635 1.429 . S
C2651 C2647 1.429 1_455 S
C2651 C2652 1.523 . S
C2652 C2636 1.368 1_455 S
C2652 C2648 1.368 . S
C2652 C2651 1.523 . S
H2653 C2628 0.950 1_655 S
H2654 C2630 0.950 1_655 S
H2655 C2631 0.949 . S
H2656 C2633 0.950 . S
H2657 C2635 0.950 . S
C2658 C2659 1.349 . S
C2658 C2660 1.327 . S
C2658 H2683 0.950 . S
C2659 C2658 1.349 . S
C2659 C2675 1.349 . S
C2660 C2658 1.327 . S
C2660 C2679 1.429 . S
C2660 H2684 0.950 . S
C2661 C2678 1.574 . S
C2661 C2680 1.368 . S
C2661 H2685 0.949 . S
H2662 C2666 0.949 . S
C2663 C2664 1.349 . S
C2663 C2665 1.327 . S
C2663 H2686 0.950 . S
C2664 C2663 1.349 . S
C2664 C2676 1.349 . S
C2665 C2663 1.327 . S
C2665 C2681 1.429 . S
C2665 H2687 0.950 . S
C2666 H2662 0.949 . S
C2666 C2674 1.574 . S
C2666 C2682 1.368 . S
H2667 C2675 0.950 . S
H2668 C2673 0.950 . S
H2669 C2674 0.949 . S
H2670 C2676 0.950 . S
H2671 C2677 0.950 . S
H2672 C2678 0.949 . S
C2673 H2668 0.950 . S
C2673 C2675 1.327 . S
C2673 C2679 1.429 . S
C2674 C2666 1.574 . S
C2674 H2669 0.949 . S
C2674 C2680 1.368 . S
C2675 C2659 1.349 . S
C2675 H2667 0.950 . S
C2675 C2673 1.327 . S
C2676 C2664 1.349 . S
C2676 H2670 0.950 . S
C2676 C2677 1.327 . S
C2677 H2671 0.950 . S
C2677 C2676 1.327 . S
C2677 C2681 1.429 . S
C2678 C2661 1.574 . S
C2678 H2672 0.949 . S
C2678 C2682 1.368 . S
C2679 C2660 1.429 . S
C2679 C2673 1.429 . S
C2679 C2680 1.523 . S
C2680 C2661 1.368 . S
C2680 C2674 1.368 . S
C2680 C2679 1.523 . S
C2681 C2665 1.429 . S
C2681 C2677 1.429 . S
C2681 C2682 1.523 . S
C2682 C2666 1.368 . S
C2682 C2678 1.368 . S
C2682 C2681 1.523 . S
H2683 C2658 0.950 . S
H2684 C2660 0.950 . S
H2685 C2661 0.949 . S
H2686 C2663 0.950 . S
H2687 C2665 0.950 . S
C2688 C2689 1.349 . S
C2688 C2690 1.301 . S
C2688 H2713 0.950 1_565 S
C2689 C2688 1.349 . S
C2689 C2705 1.349 . S
C2690 C2688 1.301 . S
C2690 C2709 1.478 . S
C2690 H2714 0.932 1_565 S
C2691 C2708 1.574 . S
C2691 C2710 1.368 . S
C2691 H2715 0.949 . S
H2692 C2696 0.949 . S
C2693 C2694 1.349 . S
C2693 C2695 1.327 . S
C2693 H2716 0.950 . S
C2694 C2693 1.349 . S
C2694 C2706 1.349 1_565 S
C2695 C2693 1.327 . S
C2695 C2711 1.429 . S
C2695 H2717 0.950 . S
C2696 H2692 0.949 . S
C2696 C2704 1.574 . S
C2696 C2712 1.368 1_545 S
H2697 C2705 0.950 . S
H2698 C2703 0.950 . S
H2699 C2704 0.949 . S
H2700 C2706 0.950 . S
H2701 C2707 0.950 . S
H2702 C2708 0.949 . S
C2703 H2698 0.950 . S
C2703 C2705 1.327 . S
C2703 C2709 1.429 . S
C2704 C2696 1.574 . S
C2704 H2699 0.949 . S
C2704 C2710 1.368 1_545 S
C2705 C2689 1.349 . S
C2705 H2697 0.950 . S
C2705 C2703 1.327 . S
C2706 C2694 1.349 1_545 S
C2706 H2700 0.950 . S
C2706 C2707 1.327 . S
C2707 H2701 0.950 . S
C2707 C2706 1.327 . S
C2707 C2711 1.429 1_545 S
C2708 C2691 1.574 . S
C2708 H2702 0.949 . S
C2708 C2712 1.368 . S
C2709 C2690 1.478 . S
C2709 C2703 1.429 . S
C2709 C2710 1.523 . S
C2710 C2691 1.368 . S
C2710 C2704 1.368 1_565 S
C2710 C2709 1.523 . S
C2711 C2695 1.429 . S
C2711 C2707 1.429 1_565 S
C2711 C2712 1.523 . S
C2712 C2696 1.368 1_565 S
C2712 C2708 1.368 . S
C2712 C2711 1.523 . S
H2713 C2688 0.950 1_545 S
H2714 C2690 0.932 1_545 S
H2715 C2691 0.949 . S
H2716 C2693 0.950 . S
H2717 C2695 0.950 . S
C2718 C2719 1.349 . S
C2718 C2720 1.323 1_565 S
C2718 H2743 0.950 1_565 S
C2719 C2718 1.349 . S
C2719 C2735 1.349 . S
C2720 C2718 1.323 1_545 S
C2720 C2739 1.427 1_545 S
C2720 H2744 0.956 . S
C2721 C2738 1.574 . S
C2721 C2740 1.368 . S
C2721 H2745 0.949 . S
H2722 C2726 0.949 . S
C2723 C2724 1.349 . S
C2723 C2725 1.327 . S
C2723 H2746 0.950 . S
C2724 C2723 1.349 . S
C2724 C2736 1.349 1_565 S
C2725 C2723 1.327 . S
C2725 C2741 1.429 . S
C2725 H2747 0.950 . S
C2726 H2722 0.949 . S
C2726 C2734 1.574 . S
C2726 C2742 1.368 1_545 S
H2727 C2735 0.950 . S
H2728 C2733 0.950 . S
H2729 C2734 0.949 . S
H2730 C2736 0.950 . S
H2731 C2737 0.950 . S
H2732 C2738 0.949 . S
C2733 H2728 0.950 . S
C2733 C2735 1.327 . S
C2733 C2739 1.429 . S
C2734 C2726 1.574 . S
C2734 H2729 0.949 . S
C2734 C2740 1.368 1_545 S
C2735 C2719 1.349 . S
C2735 H2727 0.950 . S
C2735 C2733 1.327 . S
C2736 C2724 1.349 1_545 S
C2736 H2730 0.950 . S
C2736 C2737 1.327 . S
C2737 H2731 0.950 . S
C2737 C2736 1.327 . S
C2737 C2741 1.429 1_545 S
C2738 C2721 1.574 . S
C2738 H2732 0.949 . S
C2738 C2742 1.368 . S
C2739 C2720 1.427 1_565 S
C2739 C2733 1.429 . S
C2739 C2740 1.523 . S
C2740 C2721 1.368 . S
C2740 C2734 1.368 1_565 S
C2740 C2739 1.523 . S
C2741 C2725 1.429 . S
C2741 C2737 1.429 1_565 S
C2741 C2742 1.523 . S
C2742 C2726 1.368 1_565 S
C2742 C2738 1.368 . S
C2742 C2741 1.523 . S
H2743 C2718 0.950 1_545 S
H2744 C2720 0.956 . S
H2745 C2721 0.949 . S
H2746 C2723 0.950 . S
H2747 C2725 0.950 . S
C2748 C2749 1.349 . S
C2748 C2750 1.327 . S
C2748 H2773 0.979 . S
C2749 C2748 1.349 . S
C2749 C2765 1.349 . S
C2750 C2748 1.327 . S
C2750 C2769 1.429 . S
C2750 H2774 0.950 1_455 S
C2751 C2768 1.574 . S
C2751 C2770 1.368 . S
C2751 H2775 0.949 . S
H2752 C2756 0.950 . S
C2753 C2754 1.349 . S
C2753 C2755 1.327 . S
C2753 H2776 0.950 . S
C2754 C2753 1.349 . S
C2754 C2766 1.349 1_455 S
C2755 C2753 1.327 . S
C2755 C2771 1.429 . S
C2755 H2777 0.950 . S
C2756 H2752 0.950 . S
C2756 C2764 1.580 1_655 S
C2756 C2772 1.362 1_655 S
H2757 C2765 0.950 . S
H2758 C2763 0.950 . S
H2759 C2764 0.949 1_655 S
H2760 C2766 0.950 . S
H2761 C2767 0.950 . S
H2762 C2768 0.949 . S
C2763 H2758 0.950 . S
C2763 C2765 1.327 . S
C2763 C2769 1.429 . S
C2764 C2756 1.580 1_455 S
C2764 H2759 0.949 1_455 S
C2764 C2770 1.368 . S
C2765 C2749 1.349 . S
C2765 H2757 0.950 . S
C2765 C2763 1.327 . S
C2766 C2754 1.349 1_655 S
C2766 H2760 0.950 . S
C2766 C2767 1.327 . S
C2767 H2761 0.950 . S
C2767 C2766 1.327 . S
C2767 C2771 1.429 1_655 S
C2768 C2751 1.574 . S
C2768 H2762 0.949 . S
C2768 C2772 1.368 . S
C2769 C2750 1.429 . S
C2769 C2763 1.429 . S
C2769 C2770 1.523 . S
C2770 C2751 1.368 . S
C2770 C2764 1.368 . S
C2770 C2769 1.523 . S
C2771 C2755 1.429 . S
C2771 C2767 1.429 1_455 S
C2771 C2772 1.523 . S
C2772 C2756 1.362 1_455 S
C2772 C2768 1.368 . S
C2772 C2771 1.523 . S
H2773 C2748 0.979 . S
H2774 C2750 0.950 1_655 S
H2775 C2751 0.949 . S
H2776 C2753 0.950 . S
H2777 C2755 0.950 . S
C2778 C2779 1.349 . S
C2778 C2780 1.327 . S
C2778 H2803 0.950 . S
C2779 C2778 1.349 . S
C2779 C2795 1.349 . S
C2780 C2778 1.327 . S
C2780 C2799 1.429 . S
C2780 H2804 0.950 . S
C2781 C2798 1.574 . S
C2781 C2800 1.368 . S
C2781 H2805 0.949 . S
H2782 C2786 0.949 . S
C2783 C2784 1.349 . S
C2783 C2785 1.327 . S
C2783 H2806 0.950 . S
C2784 C2783 1.349 . S
C2784 C2796 1.349 . S
C2785 C2783 1.327 . S
C2785 C2801 1.429 . S
C2785 H2807 0.950 . S
C2786 H2782 0.949 . S
C2786 C2794 1.574 . S
C2786 C2802 1.368 . S
H2787 C2795 0.950 . S
H2788 C2793 0.950 . S
H2789 C2794 0.949 . S
H2790 C2796 0.950 . S
H2791 C2797 0.950 . S
H2792 C2798 0.949 . S
C2793 H2788 0.950 . S
C2793 C2795 1.327 . S
C2793 C2799 1.429 . S
C2794 C2786 1.574 . S
C2794 H2789 0.949 . S
C2794 C2800 1.368 . S
C2795 C2779 1.349 . S
C2795 H2787 0.950 . S
C2795 C2793 1.327 . S
C2796 C2784 1.349 . S
C2796 H2790 0.950 . S
C2796 C2797 1.327 . S
C2797 H2791 0.950 . S
C2797 C2796 1.327 . S
C2797 C2801 1.429 . S
C2798 C2781 1.574 . S
C2798 H2792 0.949 . S
C2798 C2802 1.368 . S
C2799 C2780 1.429 . S
C2799 C2793 1.429 . S
C2799 C2800 1.523 . S
C2800 C2781 1.368 . S
C2800 C2794 1.368 . S
C2800 C2799 1.523 . S
C2801 C2785 1.429 . S
C2801 C2797 1.429 . S
C2801 C2802 1.523 . S
C2802 C2786 1.368 . S
C2802 C2798 1.368 . S
C2802 C2801 1.523 . S
H2803 C2778 0.950 . S
H2804 C2780 0.950 . S
H2805 C2781 0.949 . S
H2806 C2783 0.950 . S
H2807 C2785 0.950 . S
C2808 C2809 1.349 . S
C2808 C2810 1.327 . S
C2808 H2833 0.950 . S
C2809 C2808 1.349 . S
C2809 C2825 1.349 . S
C2810 C2808 1.327 . S
C2810 C2829 1.429 . S
C2810 H2834 0.950 . S
C2811 C2828 1.574 . S
C2811 C2830 1.368 . S
C2811 H2835 0.949 . S
H2812 C2816 0.949 . S
C2813 C2814 1.349 . S
C2813 C2815 1.327 . S
C2813 H2836 0.950 . S
C2814 C2813 1.349 . S
C2814 C2826 1.349 . S
C2815 C2813 1.327 . S
C2815 C2831 1.429 . S
C2815 H2837 0.950 . S
C2816 H2812 0.949 . S
C2816 C2824 1.574 . S
C2816 C2832 1.368 . S
H2817 C2825 0.950 . S
H2818 C2823 0.950 . S
H2819 C2824 0.949 . S
H2820 C2826 0.950 . S
H2821 C2827 0.950 . S
H2822 C2828 0.949 . S
C2823 H2818 0.950 . S
C2823 C2825 1.327 . S
C2823 C2829 1.429 . S
C2824 C2816 1.574 . S
C2824 H2819 0.949 . S
C2824 C2830 1.368 . S
C2825 C2809 1.349 . S
C2825 H2817 0.950 . S
C2825 C2823 1.327 . S
C2826 C2814 1.349 . S
C2826 H2820 0.950 . S
C2826 C2827 1.327 . S
C2827 H2821 0.950 . S
C2827 C2826 1.327 . S
C2827 C2831 1.429 . S
C2828 C2811 1.574 . S
C2828 H2822 0.949 . S
C2828 C2832 1.368 . S
C2829 C2810 1.429 . S
C2829 C2823 1.429 . S
C2829 C2830 1.523 . S
C2830 C2811 1.368 . S
C2830 C2824 1.368 . S
C2830 C2829 1.523 . S
C2831 C2815 1.429 . S
C2831 C2827 1.429 . S
C2831 C2832 1.523 . S
C2832 C2816 1.368 . S
C2832 C2828 1.368 . S
C2832 C2831 1.523 . S
H2833 C2808 0.950 . S
H2834 C2810 0.950 . S
H2835 C2811 0.949 . S
H2836 C2813 0.950 . S
H2837 C2815 0.950 . S
C2838 C2839 1.349 . S
C2838 C2840 1.327 . S
C2838 H2863 0.950 . S
C2839 C2838 1.349 . S
C2839 C2855 1.349 . S
C2840 C2838 1.327 . S
C2840 C2859 1.429 . S
C2840 H2864 0.950 . S
C2841 C2858 1.574 . S
C2841 C2860 1.368 . S
C2841 H2865 0.949 . S
H2842 C2846 0.949 . S
C2843 C2844 1.349 . S
C2843 C2845 1.327 . S
C2843 H2866 0.950 . S
C2844 C2843 1.349 . S
C2844 C2856 1.349 . S
C2845 C2843 1.327 . S
C2845 C2861 1.429 . S
C2845 H2867 0.950 . S
C2846 H2842 0.949 . S
C2846 C2854 1.574 . S
C2846 C2862 1.368 . S
H2847 C2855 0.950 . S
H2848 C2853 0.950 . S
H2849 C2854 0.949 . S
H2850 C2856 0.950 . S
H2851 C2857 0.950 . S
H2852 C2858 0.949 . S
C2853 H2848 0.950 . S
C2853 C2855 1.327 . S
C2853 C2859 1.429 . S
C2854 C2846 1.574 . S
C2854 H2849 0.949 . S
C2854 C2860 1.368 . S
C2855 C2839 1.349 . S
C2855 H2847 0.950 . S
C2855 C2853 1.327 . S
C2856 C2844 1.349 . S
C2856 H2850 0.950 . S
C2856 C2857 1.327 . S
C2857 H2851 0.950 . S
C2857 C2856 1.327 . S
C2857 C2861 1.429 . S
C2858 C2841 1.574 . S
C2858 H2852 0.949 . S
C2858 C2862 1.368 . S
C2859 C2840 1.429 . S
C2859 C2853 1.429 . S
C2859 C2860 1.523 . S
C2860 C2841 1.368 . S
C2860 C2854 1.368 . S
C2860 C2859 1.523 . S
C2861 C2845 1.429 . S
C2861 C2857 1.429 . S
C2861 C2862 1.523 . S
C2862 C2846 1.368 . S
C2862 C2858 1.368 . S
C2862 C2861 1.523 . S
H2863 C2838 0.950 . S
H2864 C2840 0.950 . S
H2865 C2841 0.949 . S
H2866 C2843 0.950 . S
H2867 C2845 0.950 . S
C2868 C2869 1.349 . S
C2868 C2870 1.327 . S
C2868 H2893 0.950 . S
C2869 C2868 1.349 . S
C2869 C2885 1.349 . S
C2870 C2868 1.327 . S
C2870 C2889 1.429 . S
C2870 H2894 0.950 . S
C2871 C2888 1.574 . S
C2871 C2890 1.368 . S
C2871 H2895 0.949 . S
H2872 C2876 0.949 . S
C2873 C2874 1.349 . S
C2873 C2875 1.327 . S
C2873 H2896 0.950 . S
C2874 C2873 1.349 . S
C2874 C2886 1.349 . S
C2875 C2873 1.327 . S
C2875 C2891 1.429 . S
C2875 H2897 0.950 . S
C2876 H2872 0.949 . S
C2876 C2884 1.574 . S
C2876 C2892 1.368 . S
H2877 C2885 0.950 . S
H2878 C2883 0.950 . S
H2879 C2884 0.949 . S
H2880 C2886 0.950 . S
H2881 C2887 0.950 . S
H2882 C2888 0.949 . S
C2883 H2878 0.950 . S
C2883 C2885 1.327 . S
C2883 C2889 1.429 . S
C2884 C2876 1.574 . S
C2884 H2879 0.949 . S
C2884 C2890 1.368 . S
C2885 C2869 1.349 . S
C2885 H2877 0.950 . S
C2885 C2883 1.327 . S
C2886 C2874 1.349 . S
C2886 H2880 0.950 . S
C2886 C2887 1.327 . S
C2887 H2881 0.950 . S
C2887 C2886 1.327 . S
C2887 C2891 1.429 . S
C2888 C2871 1.574 . S
C2888 H2882 0.949 . S
C2888 C2892 1.368 . S
C2889 C2870 1.429 . S
C2889 C2883 1.429 . S
C2889 C2890 1.523 . S
C2890 C2871 1.368 . S
C2890 C2884 1.368 . S
C2890 C2889 1.523 . S
C2891 C2875 1.429 . S
C2891 C2887 1.429 . S
C2891 C2892 1.523 . S
C2892 C2876 1.368 . S
C2892 C2888 1.368 . S
C2892 C2891 1.523 . S
H2893 C2868 0.950 . S
H2894 C2870 0.950 . S
H2895 C2871 0.949 . S
H2896 C2873 0.950 . S
H2897 C2875 0.950 . S
C2898 C2899 1.349 . S
C2898 C2900 1.327 . S
C2898 H2923 0.920 1_545 S
C2899 C2898 1.349 . S
C2899 C2915 1.349 . S
C2900 C2898 1.327 . S
C2900 C2919 1.429 . S
C2900 H2924 0.950 1_545 S
C2901 C2918 1.574 . S
C2901 C2920 1.368 . S
C2901 H2925 0.949 . S
H2902 C2906 0.949 . S
C2903 C2904 1.349 . S
C2903 C2905 1.327 . S
C2903 H2926 0.950 . S
C2904 C2903 1.349 . S
C2904 C2916 1.349 1_545 S
C2905 C2903 1.327 . S
C2905 C2921 1.429 . S
C2905 H2927 0.950 . S
C2906 H2902 0.949 . S
C2906 C2914 1.576 1_565 S
C2906 C2922 1.368 1_565 S
H2907 C2915 0.950 . S
H2908 C2913 0.950 . S
H2909 C2914 0.951 1_565 S
H2910 C2916 0.950 . S
H2911 C2917 0.950 . S
H2912 C2918 0.949 . S
C2913 H2908 0.950 . S
C2913 C2915 1.327 . S
C2913 C2919 1.429 . S
C2914 C2906 1.576 1_545 S
C2914 H2909 0.951 1_545 S
C2914 C2920 1.364 . S
C2915 C2899 1.349 . S
C2915 H2907 0.950 . S
C2915 C2913 1.327 . S
C2916 C2904 1.349 1_565 S
C2916 H2910 0.950 . S
C2916 C2917 1.327 . S
C2917 H2911 0.950 . S
C2917 C2916 1.327 . S
C2917 C2921 1.429 1_565 S
C2918 C2901 1.574 . S
C2918 H2912 0.949 . S
C2918 C2922 1.368 . S
C2919 C2900 1.429 . S
C2919 C2913 1.429 . S
C2919 C2920 1.523 . S
C2920 C2901 1.368 . S
C2920 C2914 1.364 . S
C2920 C2919 1.523 . S
C2921 C2905 1.429 . S
C2921 C2917 1.429 1_545 S
C2921 C2922 1.523 . S
C2922 C2906 1.368 1_545 S
C2922 C2918 1.368 . S
C2922 C2921 1.523 . S
H2923 C2898 0.920 1_565 S
H2924 C2900 0.950 1_565 S
H2925 C2901 0.949 . S
H2926 C2903 0.950 . S
H2927 C2905 0.950 . S
C2928 C2929 1.349 . S
C2928 C2930 1.327 . S
C2928 H2953 0.950 1_655 S
C2929 C2928 1.349 . S
C2929 C2945 1.349 . S
C2930 C2928 1.327 . S
C2930 C2949 1.429 . S
C2930 H2954 0.950 1_655 S
C2931 C2948 1.574 . S
C2931 C2950 1.368 . S
C2931 H2955 0.949 . S
H2932 C2936 0.949 . S
C2933 C2934 1.349 . S
C2933 C2935 1.327 . S
C2933 H2956 0.950 . S
C2934 C2933 1.349 . S
C2934 C2946 1.349 1_655 S
C2935 C2933 1.327 . S
C2935 C2951 1.429 . S
C2935 H2957 0.950 . S
C2936 H2932 0.949 . S
C2936 C2944 1.562 . S
C2936 C2952 1.368 1_455 S
H2937 C2945 0.950 . S
H2938 C2943 0.950 . S
H2939 C2944 0.967 . S
H2940 C2946 0.950 . S
H2941 C2947 0.950 . S
H2942 C2948 0.949 . S
C2943 H2938 0.950 . S
C2943 C2945 1.327 . S
C2943 C2949 1.429 . S
C2944 C2936 1.562 . S
C2944 H2939 0.967 . S
C2944 C2950 1.362 1_455 S
C2945 C2929 1.349 . S
C2945 H2937 0.950 . S
C2945 C2943 1.327 . S
C2946 C2934 1.349 1_455 S
C2946 H2940 0.950 . S
C2946 C2947 1.327 . S
C2947 H2941 0.950 . S
C2947 C2946 1.327 . S
C2947 C2951 1.429 1_455 S
C2948 C2931 1.574 . S
C2948 H2942 0.949 . S
C2948 C2952 1.368 . S
C2949 C2930 1.429 . S
C2949 C2943 1.429 . S
C2949 C2950 1.523 . S
C2950 C2931 1.368 . S
C2950 C2944 1.362 1_655 S
C2950 C2949 1.523 . S
C2951 C2935 1.429 . S
C2951 C2947 1.429 1_655 S
C2951 C2952 1.523 . S
C2952 C2936 1.368 1_655 S
C2952 C2948 1.368 . S
C2952 C2951 1.523 . S
H2953 C2928 0.950 1_455 S
H2954 C2930 0.950 1_455 S
H2955 C2931 0.949 . S
H2956 C2933 0.950 . S
H2957 C2935 0.950 . S
C2958 C2959 1.349 . S
C2958 C2960 1.327 . S
C2958 H2983 0.950 . S
C2959 C2958 1.349 . S
C2959 C2975 1.349 . S
C2960 C2958 1.327 . S
C2960 C2979 1.429 . S
C2960 H2984 0.950 . S
C2961 C2978 1.574 . S
C2961 C2980 1.368 . S
C2961 H2985 0.949 . S
H2962 C2966 0.949 . S
C2963 C2964 1.349 . S
C2963 C2965 1.327 . S
C2963 H2986 0.950 . S
C2964 C2963 1.349 . S
C2964 C2976 1.349 . S
C2965 C2963 1.327 . S
C2965 C2981 1.429 . S
C2965 H2987 0.950 . S
C2966 H2962 0.949 . S
C2966 C2974 1.574 . S
C2966 C2982 1.368 . S
H2967 C2975 0.950 . S
H2968 C2973 0.950 . S
H2969 C2974 0.949 . S
H2970 C2976 0.950 . S
H2971 C2977 0.950 . S
H2972 C2978 0.949 . S
C2973 H2968 0.950 . S
C2973 C2975 1.327 . S
C2973 C2979 1.429 . S
C2974 C2966 1.574 . S
C2974 H2969 0.949 . S
C2974 C2980 1.368 . S
C2975 C2959 1.349 . S
C2975 H2967 0.950 . S
C2975 C2973 1.327 . S
C2976 C2964 1.349 . S
C2976 H2970 0.950 . S
C2976 C2977 1.327 . S
C2977 H2971 0.950 . S
C2977 C2976 1.327 . S
C2977 C2981 1.429 . S
C2978 C2961 1.574 . S
C2978 H2972 0.949 . S
C2978 C2982 1.368 . S
C2979 C2960 1.429 . S
C2979 C2973 1.429 . S
C2979 C2980 1.523 . S
C2980 C2961 1.368 . S
C2980 C2974 1.368 . S
C2980 C2979 1.523 . S
C2981 C2965 1.429 . S
C2981 C2977 1.429 . S
C2981 C2982 1.523 . S
C2982 C2966 1.368 . S
C2982 C2978 1.368 . S
C2982 C2981 1.523 . S
H2983 C2958 0.950 . S
H2984 C2960 0.950 . S
H2985 C2961 0.949 . S
H2986 C2963 0.950 . S
H2987 C2965 0.950 . S
C2988 C2989 1.349 . S
C2988 C2990 1.327 . S
C2988 H3013 0.950 . S
C2989 C2988 1.349 . S
C2989 C3005 1.349 . S
C2990 C2988 1.327 . S
C2990 C3009 1.429 . S
C2990 H3014 0.950 . S
C2991 C3008 1.574 . S
C2991 C3010 1.368 . S
C2991 H3015 0.949 . S
H2992 C2996 0.949 . S
C2993 C2994 1.349 . S
C2993 C2995 1.327 . S
C2993 H3016 0.950 . S
C2994 C2993 1.349 . S
C2994 C3006 1.349 . S
C2995 C2993 1.327 . S
C2995 C3011 1.429 . S
C2995 H3017 0.950 . S
C2996 H2992 0.949 . S
C2996 C3004 1.574 . S
C2996 C3012 1.368 . S
H2997 C3005 0.950 . S
H2998 C3003 0.950 . S
H2999 C3004 0.949 . S
H3000 C3006 0.950 . S
H3001 C3007 0.950 . S
H3002 C3008 0.949 . S
C3003 H2998 0.950 . S
C3003 C3005 1.327 . S
C3003 C3009 1.429 . S
C3004 C2996 1.574 . S
C3004 H2999 0.949 . S
C3004 C3010 1.368 . S
C3005 C2989 1.349 . S
C3005 H2997 0.950 . S
C3005 C3003 1.327 . S
C3006 C2994 1.349 . S
C3006 H3000 0.950 . S
C3006 C3007 1.327 . S
C3007 H3001 0.950 . S
C3007 C3006 1.327 . S
C3007 C3011 1.429 . S
C3008 C2991 1.574 . S
C3008 H3002 0.949 . S
C3008 C3012 1.368 . S
C3009 C2990 1.429 . S
C3009 C3003 1.429 . S
C3009 C3010 1.523 . S
C3010 C2991 1.368 . S
C3010 C3004 1.368 . S
C3010 C3009 1.523 . S
C3011 C2995 1.429 . S
C3011 C3007 1.429 . S
C3011 C3012 1.523 . S
C3012 C2996 1.368 . S
C3012 C3008 1.368 . S
C3012 C3011 1.523 . S
H3013 C2988 0.950 . S
H3014 C2990 0.950 . S
H3015 C2991 0.949 . S
H3016 C2993 0.950 . S
H3017 C2995 0.950 . S
C3018 C3019 1.349 . S
C3018 C3020 1.327 . S
C3018 H3043 0.950 . S
C3019 C3018 1.349 . S
C3019 C3035 1.349 . S
C3020 C3018 1.327 . S
C3020 C3039 1.429 . S
C3020 H3044 0.950 . S
C3021 C3038 1.574 . S
C3021 C3040 1.368 . S
C3021 H3045 0.949 . S
H3022 C3026 0.949 . S
C3023 C3024 1.349 . S
C3023 C3025 1.327 . S
C3023 H3046 0.950 . S
C3024 C3023 1.349 . S
C3024 C3036 1.349 . S
C3025 C3023 1.327 . S
C3025 C3041 1.429 . S
C3025 H3047 0.950 . S
C3026 H3022 0.949 . S
C3026 C3034 1.574 . S
C3026 C3042 1.368 . S
H3027 C3035 0.950 . S
H3028 C3033 0.950 . S
H3029 C3034 0.949 . S
H3030 C3036 0.950 . S
H3031 C3037 0.950 . S
H3032 C3038 0.949 . S
C3033 H3028 0.950 . S
C3033 C3035 1.327 . S
C3033 C3039 1.429 . S
C3034 C3026 1.574 . S
C3034 H3029 0.949 . S
C3034 C3040 1.368 . S
C3035 C3019 1.349 . S
C3035 H3027 0.950 . S
C3035 C3033 1.327 . S
C3036 C3024 1.349 . S
C3036 H3030 0.950 . S
C3036 C3037 1.327 . S
C3037 H3031 0.950 . S
C3037 C3036 1.327 . S
C3037 C3041 1.429 . S
C3038 C3021 1.574 . S
C3038 H3032 0.949 . S
C3038 C3042 1.368 . S
C3039 C3020 1.429 . S
C3039 C3033 1.429 . S
C3039 C3040 1.523 . S
C3040 C3021 1.368 . S
C3040 C3034 1.368 . S
C3040 C3039 1.523 . S
C3041 C3025 1.429 . S
C3041 C3037 1.429 . S
C3041 C3042 1.523 . S
C3042 C3026 1.368 . S
C3042 C3038 1.368 . S
C3042 C3041 1.523 . S
H3043 C3018 0.950 . S
H3044 C3020 0.950 . S
H3045 C3021 0.949 . S
H3046 C3023 0.950 . S
H3047 C3025 0.950 . S
C3048 C3049 1.349 . S
C3048 C3050 1.327 . S
C3048 H3073 0.950 . S
C3049 C3048 1.349 . S
C3049 C3065 1.349 . S
C3050 C3048 1.327 . S
C3050 C3069 1.429 . S
C3050 H3074 0.950 . S
C3051 C3068 1.574 . S
C3051 C3070 1.368 . S
C3051 H3075 0.949 . S
H3052 C3056 0.949 . S
C3053 C3054 1.349 . S
C3053 C3055 1.327 . S
C3053 H3076 0.950 . S
C3054 C3053 1.349 . S
C3054 C3066 1.349 . S
C3055 C3053 1.327 . S
C3055 C3071 1.429 . S
C3055 H3077 0.950 . S
C3056 H3052 0.949 . S
C3056 C3064 1.574 . S
C3056 C3072 1.368 . S
H3057 C3065 0.950 . S
H3058 C3063 0.950 . S
H3059 C3064 0.949 . S
H3060 C3066 0.950 . S
H3061 C3067 0.950 . S
H3062 C3068 0.949 . S
C3063 H3058 0.950 . S
C3063 C3065 1.327 . S
C3063 C3069 1.429 . S
C3064 C3056 1.574 . S
C3064 H3059 0.949 . S
C3064 C3070 1.368 . S
C3065 C3049 1.349 . S
C3065 H3057 0.950 . S
C3065 C3063 1.327 . S
C3066 C3054 1.349 . S
C3066 H3060 0.950 . S
C3066 C3067 1.327 . S
C3067 H3061 0.950 . S
C3067 C3066 1.327 . S
C3067 C3071 1.429 . S
C3068 C3051 1.574 . S
C3068 H3062 0.949 . S
C3068 C3072 1.368 . S
C3069 C3050 1.429 . S
C3069 C3063 1.429 . S
C3069 C3070 1.523 . S
C3070 C3051 1.368 . S
C3070 C3064 1.368 . S
C3070 C3069 1.523 . S
C3071 C3055 1.429 . S
C3071 C3067 1.429 . S
C3071 C3072 1.523 . S
C3072 C3056 1.368 . S
C3072 C3068 1.368 . S
C3072 C3071 1.523 . S
H3073 C3048 0.950 . S
H3074 C3050 0.950 . S
H3075 C3051 0.949 . S
H3076 C3053 0.950 . S
H3077 C3055 0.950 . S
C3078 C3079 1.349 . S
C3078 C3080 1.327 . S
C3078 H3103 0.950 . S
C3079 C3078 1.349 . S
C3079 C3095 1.349 . S
C3080 C3078 1.327 . S
C3080 C3099 1.429 . S
C3080 H3104 0.950 . S
C3081 C3098 1.574 . S
C3081 C3100 1.368 . S
C3081 H3105 0.949 . S
H3082 C3086 0.949 . S
C3083 C3084 1.349 . S
C3083 C3085 1.327 . S
C3083 H3106 0.950 . S
C3084 C3083 1.349 . S
C3084 C3096 1.349 . S
C3085 C3083 1.327 . S
C3085 C3101 1.429 . S
C3085 H3107 0.950 . S
C3086 H3082 0.949 . S
C3086 C3094 1.574 . S
C3086 C3102 1.368 . S
H3087 C3095 0.950 . S
H3088 C3093 0.950 . S
H3089 C3094 0.949 . S
H3090 C3096 0.950 . S
H3091 C3097 0.950 . S
H3092 C3098 0.949 . S
C3093 H3088 0.950 . S
C3093 C3095 1.327 . S
C3093 C3099 1.429 . S
C3094 C3086 1.574 . S
C3094 H3089 0.949 . S
C3094 C3100 1.368 . S
C3095 C3079 1.349 . S
C3095 H3087 0.950 . S
C3095 C3093 1.327 . S
C3096 C3084 1.349 . S
C3096 H3090 0.950 . S
C3096 C3097 1.327 . S
C3097 H3091 0.950 . S
C3097 C3096 1.327 . S
C3097 C3101 1.429 . S
C3098 C3081 1.574 . S
C3098 H3092 0.949 . S
C3098 C3102 1.368 . S
C3099 C3080 1.429 . S
C3099 C3093 1.429 . S
C3099 C3100 1.523 . S
C3100 C3081 1.368 . S
C3100 C3094 1.368 . S
C3100 C3099 1.523 . S
C3101 C3085 1.429 . S
C3101 C3097 1.429 . S
C3101 C3102 1.523 . S
C3102 C3086 1.368 . S
C3102 C3098 1.368 . S
C3102 C3101 1.523 . S
H3103 C3078 0.950 . S
H3104 C3080 0.950 . S
H3105 C3081 0.949 . S
H3106 C3083 0.950 . S
H3107 C3085 0.950 . S
C3108 C3109 1.349 . S
C3108 C3110 1.327 . S
C3108 H3133 0.950 . S
C3109 C3108 1.349 . S
C3109 C3125 1.349 . S
C3110 C3108 1.327 . S
C3110 C3129 1.429 . S
C3110 H3134 0.950 . S
C3111 C3128 1.574 . S
C3111 C3130 1.368 . S
C3111 H3135 0.949 . S
H3112 C3116 0.949 . S
C3113 C3114 1.349 . S
C3113 C3115 1.327 . S
C3113 H3136 0.950 . S
C3114 C3113 1.349 . S
C3114 C3126 1.349 . S
C3115 C3113 1.327 . S
C3115 C3131 1.429 . S
C3115 H3137 0.950 . S
C3116 H3112 0.949 . S
C3116 C3124 1.574 . S
C3116 C3132 1.368 . S
H3117 C3125 0.950 . S
H3118 C3123 0.950 . S
H3119 C3124 0.949 . S
H3120 C3126 0.950 . S
H3121 C3127 0.950 . S
H3122 C3128 0.949 . S
C3123 H3118 0.950 . S
C3123 C3125 1.327 . S
C3123 C3129 1.429 . S
C3124 C3116 1.574 . S
C3124 H3119 0.949 . S
C3124 C3130 1.368 . S
C3125 C3109 1.349 . S
C3125 H3117 0.950 . S
C3125 C3123 1.327 . S
C3126 C3114 1.349 . S
C3126 H3120 0.950 . S
C3126 C3127 1.327 . S
C3127 H3121 0.950 . S
C3127 C3126 1.327 . S
C3127 C3131 1.429 . S
C3128 C3111 1.574 . S
C3128 H3122 0.949 . S
C3128 C3132 1.368 . S
C3129 C3110 1.429 . S
C3129 C3123 1.429 . S
C3129 C3130 1.523 . S
C3130 C3111 1.368 . S
C3130 C3124 1.368 . S
C3130 C3129 1.523 . S
C3131 C3115 1.429 . S
C3131 C3127 1.429 . S
C3131 C3132 1.523 . S
C3132 C3116 1.368 . S
C3132 C3128 1.368 . S
C3132 C3131 1.523 . S
H3133 C3108 0.950 . S
H3134 C3110 0.950 . S
H3135 C3111 0.949 . S
H3136 C3113 0.950 . S
H3137 C3115 0.950 . S
C3138 C3139 1.349 . S
C3138 C3140 1.327 . S
C3138 H3163 0.950 . S
C3139 C3138 1.349 . S
C3139 C3155 1.349 . S
C3140 C3138 1.327 . S
C3140 C3159 1.429 . S
C3140 H3164 0.950 . S
C3141 C3158 1.574 . S
C3141 C3160 1.368 . S
C3141 H3165 0.949 . S
H3142 C3146 0.949 . S
C3143 C3144 1.349 . S
C3143 C3145 1.327 . S
C3143 H3166 0.950 . S
C3144 C3143 1.349 . S
C3144 C3156 1.349 . S
C3145 C3143 1.327 . S
C3145 C3161 1.429 . S
C3145 H3167 0.950 . S
C3146 H3142 0.949 . S
C3146 C3154 1.574 . S
C3146 C3162 1.368 . S
H3147 C3155 0.950 . S
H3148 C3153 0.950 . S
H3149 C3154 0.949 . S
H3150 C3156 0.950 . S
H3151 C3157 0.950 . S
H3152 C3158 0.949 . S
C3153 H3148 0.950 . S
C3153 C3155 1.327 . S
C3153 C3159 1.429 . S
C3154 C3146 1.574 . S
C3154 H3149 0.949 . S
C3154 C3160 1.368 . S
C3155 C3139 1.349 . S
C3155 H3147 0.950 . S
C3155 C3153 1.327 . S
C3156 C3144 1.349 . S
C3156 H3150 0.950 . S
C3156 C3157 1.327 . S
C3157 H3151 0.950 . S
C3157 C3156 1.327 . S
C3157 C3161 1.429 . S
C3158 C3141 1.574 . S
C3158 H3152 0.949 . S
C3158 C3162 1.368 . S
C3159 C3140 1.429 . S
C3159 C3153 1.429 . S
C3159 C3160 1.523 . S
C3160 C3141 1.368 . S
C3160 C3154 1.368 . S
C3160 C3159 1.523 . S
C3161 C3145 1.429 . S
C3161 C3157 1.429 . S
C3161 C3162 1.523 . S
C3162 C3146 1.368 . S
C3162 C3158 1.368 . S
C3162 C3161 1.523 . S
H3163 C3138 0.950 . S
H3164 C3140 0.950 . S
H3165 C3141 0.949 . S
H3166 C3143 0.950 . S
H3167 C3145 0.950 . S
C3168 C3169 1.349 . S
C3168 C3170 1.327 . S
C3168 H3193 0.950 . S
C3169 C3168 1.349 . S
C3169 C3185 1.349 . S
C3170 C3168 1.327 . S
C3170 C3189 1.429 . S
C3170 H3194 0.950 . S
C3171 C3188 1.574 . S
C3171 C3190 1.368 . S
C3171 H3195 0.949 . S
H3172 C3176 0.905 1_455 S
C3173 C3174 1.349 . S
C3173 C3175 1.327 . S
C3173 H3196 0.950 . S
C3174 C3173 1.349 . S
C3174 C3186 1.343 1_655 S
C3175 C3173 1.327 . S
C3175 C3191 1.429 . S
C3175 H3197 0.950 . S
C3176 H3172 0.905 1_655 S
C3176 C3184 1.574 . S
C3176 C3192 1.368 . S
H3177 C3185 0.950 . S
H3178 C3183 0.950 . S
H3179 C3184 0.949 . S
H3180 C3186 0.973 . S
H3181 C3187 0.940 1_455 S
H3182 C3188 0.949 . S
C3183 H3178 0.950 . S
C3183 C3185 1.327 . S
C3183 C3189 1.429 . S
C3184 C3176 1.574 . S
C3184 H3179 0.949 . S
C3184 C3190 1.368 . S
C3185 C3169 1.349 . S
C3185 H3177 0.950 . S
C3185 C3183 1.327 . S
C3186 C3174 1.343 1_455 S
C3186 H3180 0.973 . S
C3186 C3187 1.289 1_455 S
C3187 H3181 0.940 1_655 S
C3187 C3186 1.289 1_655 S
C3187 C3191 1.462 . S
C3188 C3171 1.574 . S
C3188 H3182 0.949 . S
C3188 C3192 1.368 . S
C3189 C3170 1.429 . S
C3189 C3183 1.429 . S
C3189 C3190 1.523 . S
C3190 C3171 1.368 . S
C3190 C3184 1.368 . S
C3190 C3189 1.523 . S
C3191 C3175 1.429 . S
C3191 C3187 1.462 . S
C3191 C3192 1.523 . S
C3192 C3176 1.368 . S
C3192 C3188 1.368 . S
C3192 C3191 1.523 . S
H3193 C3168 0.950 . S
H3194 C3170 0.950 . S
H3195 C3171 0.949 . S
H3196 C3173 0.950 . S
H3197 C3175 0.950 . S
C3198 C3199 1.349 . S
C3198 C3200 1.327 . S
C3198 H3223 0.950 . S
C3199 C3198 1.349 . S
C3199 C3215 1.349 . S
C3200 C3198 1.327 . S
C3200 C3219 1.429 . S
C3200 H3224 0.950 . S
C3201 C3218 1.574 . S
C3201 C3220 1.368 . S
C3201 H3225 0.949 . S
H3202 C3206 0.949 . S
C3203 C3204 1.349 . S
C3203 C3205 1.327 . S
C3203 H3226 0.950 . S
C3204 C3203 1.349 . S
C3204 C3216 1.349 . S
C3205 C3203 1.327 . S
C3205 C3221 1.429 . S
C3205 H3227 0.950 . S
C3206 H3202 0.949 . S
C3206 C3214 1.574 . S
C3206 C3222 1.368 . S
H3207 C3215 0.950 . S
H3208 C3213 0.950 . S
H3209 C3214 0.949 . S
H3210 C3216 0.950 . S
H3211 C3217 0.950 . S
H3212 C3218 0.949 . S
C3213 H3208 0.950 . S
C3213 C3215 1.327 . S
C3213 C3219 1.429 . S
C3214 C3206 1.574 . S
C3214 H3209 0.949 . S
C3214 C3220 1.368 . S
C3215 C3199 1.349 . S
C3215 H3207 0.950 . S
C3215 C3213 1.327 . S
C3216 C3204 1.349 . S
C3216 H3210 0.950 . S
C3216 C3217 1.327 . S
C3217 H3211 0.950 . S
C3217 C3216 1.327 . S
C3217 C3221 1.429 . S
C3218 C3201 1.574 . S
C3218 H3212 0.949 . S
C3218 C3222 1.368 . S
C3219 C3200 1.429 . S
C3219 C3213 1.429 . S
C3219 C3220 1.523 . S
C3220 C3201 1.368 . S
C3220 C3214 1.368 . S
C3220 C3219 1.523 . S
C3221 C3205 1.429 . S
C3221 C3217 1.429 . S
C3221 C3222 1.523 . S
C3222 C3206 1.368 . S
C3222 C3218 1.368 . S
C3222 C3221 1.523 . S
H3223 C3198 0.950 . S
H3224 C3200 0.950 . S
H3225 C3201 0.949 . S
H3226 C3203 0.950 . S
H3227 C3205 0.950 . S
C3228 C3229 1.352 . S
C3228 C3230 1.329 1_545 S
C3228 H3253 0.945 1_545 S
C3229 C3228 1.352 . S
C3229 C3245 1.349 . S
C3230 C3228 1.329 1_565 S
C3230 C3249 1.429 1_565 S
C3230 H3254 0.950 . S
C3231 C3248 1.574 . S
C3231 C3250 1.368 . S
C3231 H3255 0.949 . S
H3232 C3236 0.949 . S
C3233 C3234 1.349 . S
C3233 C3235 1.327 . S
C3233 H3256 0.950 . S
C3234 C3233 1.349 . S
C3234 C3246 1.349 1_545 S
C3235 C3233 1.327 . S
C3235 C3251 1.429 . S
C3235 H3257 0.950 . S
C3236 H3232 0.949 . S
C3236 C3244 1.574 . S
C3236 C3252 1.368 1_565 S
H3237 C3245 0.950 . S
H3238 C3243 0.950 . S
H3239 C3244 0.949 . S
H3240 C3246 0.950 . S
H3241 C3247 0.950 . S
H3242 C3248 0.949 . S
C3243 H3238 0.950 . S
C3243 C3245 1.327 . S
C3243 C3249 1.429 . S
C3244 C3236 1.574 . S
C3244 H3239 0.949 . S
C3244 C3250 1.368 1_565 S
C3245 C3229 1.349 . S
C3245 H3237 0.950 . S
C3245 C3243 1.327 . S
C3246 C3234 1.349 1_565 S
C3246 H3240 0.950 . S
C3246 C3247 1.327 . S
C3247 H3241 0.950 . S
C3247 C3246 1.327 . S
C3247 C3251 1.429 1_565 S
C3248 C3231 1.574 . S
C3248 H3242 0.949 . S
C3248 C3252 1.368 . S
C3249 C3230 1.429 1_545 S
C3249 C3243 1.429 . S
C3249 C3250 1.523 . S
C3250 C3231 1.368 . S
C3250 C3244 1.368 1_545 S
C3250 C3249 1.523 . S
C3251 C3235 1.429 . S
C3251 C3247 1.429 1_545 S
C3251 C3252 1.523 . S
C3252 C3236 1.368 1_545 S
C3252 C3248 1.368 . S
C3252 C3251 1.523 . S
H3253 C3228 0.945 1_565 S
H3254 C3230 0.950 . S
H3255 C3231 0.949 . S
H3256 C3233 0.950 . S
H3257 C3235 0.950 . S
C1099 C10 1.590 . S
C1104 C711 1.595 . S
C1129 C23 1.629 . S
C1134 C759 1.619 . S
C1164 C807 1.603 . S
C1159 C29 1.629 . S
C1189 C30 1.591 . S
C1194 C831 1.604 . S
C1219 C5 1.634 . S
C1224 C903 1.612 . S
C1249 C18 1.635 . S
C1254 C951 1.628 . S
C1279 C49 1.590 . S
C1284 C879 1.600 . S
C1314 C927 1.630 . S
C1309 C62 1.632 . S
C1344 C855 1.638 . S
C1339 C70 1.626 1_565 S
C1369 C75 1.587 . S
C1374 C783 1.597 . S
C1404 C687 1.626 . S
C1399 C44 1.636 1_655 S
C1429 C57 1.637 . S
C1434 C735 1.637 . S
C1459 C88 1.663 . S
C1464 C999 1.653 . S
C1489 C101 1.658 . S
C1494 C1047 1.647 . S
C1524 C1071 1.646 . S
C1519 C107 1.653 . S
C1549 C108 1.639 . S
C1554 C255 1.631 . S
C1579 C83 1.654 . S
C1584 C327 1.646 . S
C1609 C96 1.648 . S
C1614 C375 1.639 . S
C1639 C127 1.639 . S
C1644 C303 1.636 . S
C1669 C140 1.646 . S
C1674 C351 1.643 . S
C1704 C279 1.620 . S
C1699 C146 1.644 . S
C1734 C1095 1.634 . S
C1729 C147 1.660 . S
C1764 C975 1.659 . S
C1759 C122 1.659 . S
C1794 C1023 1.664 . S
C1789 C135 1.665 . S
C1819 C160 1.638 . S
C1824 C423 1.629 . S
C1849 C173 1.641 . S
C1854 C471 1.631 . S
C1879 C185 1.649 . S
C1884 C495 1.642 . S
C1909 C186 1.663 . S
C1914 C543 1.655 . S
C1944 C615 1.650 . S
C1939 C159 1.658 . S
C1974 C663 1.654 . S
C1969 C172 1.663 . S
C2004 C591 1.663 . S
C1999 C205 1.666 . S
C2034 C639 1.659 . S
C2029 C218 1.662 . S
C2059 C224 1.647 . S
C2064 C567 1.622 . S
C2094 C519 1.607 . S
C2089 C225 1.633 . S
C2119 C200 1.657 . S
C2124 C399 1.657 . S
C2154 C447 1.650 . S
C2149 C213 1.651 . S
C2184 C264 1.515 . S
C2179 C4 1.515 . S
C2209 C17 1.487 . S
C2214 C318 1.479 . S
C2244 C366 1.507 . S
C2239 C31 1.517 . S
C2274 C414 1.509 . S
C2269 C36 1.517 . S
C2304 C462 1.512 . S
C2299 C3 1.521 . S
C2334 C504 1.494 . S
C2329 C16 1.495 . S
C2359 C43 1.522 . S
C2364 C510 1.528 . S
C2389 C56 1.488 . S
C2394 C408 1.475 . S
C2419 C68 1.509 . S
C2424 C456 1.490 . S
C2449 C69 1.518 . S
C2454 C312 1.515 . S
C2484 C360 1.504 . S
C2479 C42 1.515 . S
C2509 C55 1.498 . S
C2514 C270 1.493 . S
C2544 C552 1.513 . S
C2539 C82 1.513 . S
C2569 C95 1.528 . S
C2574 C606 1.520 . S
C2599 C109 1.547 . S
C2604 C654 1.537 . S
C2634 C702 1.484 . S
C2629 C114 1.481 . S
C2659 C81 1.525 . S
C2664 C750 1.516 . S
C2689 C94 1.488 . S
C2694 C798 1.487 . S
C2719 C121 1.485 . S
C2724 C792 1.475 . S
C2749 C134 1.479 . S
C2754 C696 1.478 . S
C2784 C744 1.505 . S
C2779 C148 1.518 . S
C2809 C153 1.514 . S
C2814 C600 1.500 . S
C2839 C120 1.548 . S
C2844 C648 1.534 . S
C2874 C558 1.535 . S
C2869 C133 1.539 . S
C2904 C840 1.486 . S
C2899 C166 1.480 . S
C2929 C179 1.476 . S
C2934 C894 1.477 . S
C2959 C187 1.522 . S
C2964 C942 1.513 . S
C2994 C990 1.507 . S
C2989 C192 1.516 . S
C3024 C1038 1.539 . S
C3019 C161 1.548 . S
C3049 C174 1.537 . S
C3054 C1080 1.536 . S
C3079 C199 1.519 . S
C3084 C1086 1.515 . S
C3109 C212 1.528 . S
C3114 C984 1.516 . S
C3144 C1032 1.526 . S
C3139 C226 1.540 . S
C3174 C888 1.475 . S
C3169 C231 1.474 . S
C3204 C936 1.514 . S
C3199 C198 1.528 . S
C3229 C211 1.492 . S
C3234 C846 1.492 . S
