# Generated by pormake.
# Topology pyr, (3,6)-cn, num edge types: 1
# Building blocks:
#     Node 0, Type 0, BuildingBlock: QEWDON_clean_linker_0, # of connection points: 3
#     Node 1, Type 0, BuildingBlock: QEWDON_clean_linker_0, # of connection points: 3
#     Node 2, Type 0, BuildingBlock: QEWDON_clean_linker_0, # of connection points: 3
#     Node 3, Type 0, BuildingBlock: QEWDON_clean_linker_0, # of connection points: 3
#     Node 4, Type 0, BuildingBlock: QEWDON_clean_linker_0, # of connection points: 3
#     Node 5, Type 0, BuildingBlock: QEWDON_clean_linker_0, # of connection points: 3
#     Node 6, Type 0, BuildingBlock: QEWDON_clean_linker_0, # of connection points: 3
#     Node 7, Type 0, BuildingBlock: QEWDON_clean_linker_0, # of connection points: 3
#     Node 8, Type 1, BuildingBlock: MIFKUJ_clean_sbu_0, # of connection points: 6
#     Node 9, Type 1, BuildingBlock: MIFKUJ_clean_sbu_0, # of connection points: 6
#     Node 10, Type 1, BuildingBlock: MIFKUJ_clean_sbu_0, # of connection points: 6
#     Node 11, Type 1, BuildingBlock: MIFKUJ_clean_sbu_0, # of connection points: 6
#     Edge 12, Type (0, 1), BuildingBlock: ZUJKAS_clean_linker_0, # of connection points: 2
#     Edge 13, Type (0, 1), BuildingBlock: ZUJKAS_clean_linker_0, # of connection points: 2
#     Edge 14, Type (0, 1), BuildingBlock: ZUJKAS_clean_linker_0, # of connection points: 2
#     Edge 15, Type (0, 1), BuildingBlock: ZUJKAS_clean_linker_0, # of connection points: 2
#     Edge 16, Type (0, 1), BuildingBlock: ZUJKAS_clean_linker_0, # of connection points: 2
#     Edge 17, Type (0, 1), BuildingBlock: ZUJKAS_clean_linker_0, # of connection points: 2
#     Edge 18, Type (0, 1), BuildingBlock: ZUJKAS_clean_linker_0, # of connection points: 2
#     Edge 19, Type (0, 1), BuildingBlock: ZUJKAS_clean_linker_0, # of connection points: 2
#     Edge 20, Type (0, 1), BuildingBlock: ZUJKAS_clean_linker_0, # of connection points: 2
#     Edge 21, Type (0, 1), BuildingBlock: ZUJKAS_clean_linker_0, # of connection points: 2
#     Edge 22, Type (0, 1), BuildingBlock: ZUJKAS_clean_linker_0, # of connection points: 2
#     Edge 23, Type (0, 1), BuildingBlock: ZUJKAS_clean_linker_0, # of connection points: 2
#     Edge 24, Type (0, 1), BuildingBlock: ZUJKAS_clean_linker_0, # of connection points: 2
#     Edge 25, Type (0, 1), BuildingBlock: ZUJKAS_clean_linker_0, # of connection points: 2
#     Edge 26, Type (0, 1), BuildingBlock: ZUJKAS_clean_linker_0, # of connection points: 2
#     Edge 27, Type (0, 1), BuildingBlock: ZUJKAS_clean_linker_0, # of connection points: 2
#     Edge 28, Type (0, 1), BuildingBlock: ZUJKAS_clean_linker_0, # of connection points: 2
#     Edge 29, Type (0, 1), BuildingBlock: ZUJKAS_clean_linker_0, # of connection points: 2
#     Edge 30, Type (0, 1), BuildingBlock: ZUJKAS_clean_linker_0, # of connection points: 2
#     Edge 31, Type (0, 1), BuildingBlock: ZUJKAS_clean_linker_0, # of connection points: 2
#     Edge 32, Type (0, 1), BuildingBlock: ZUJKAS_clean_linker_0, # of connection points: 2
#     Edge 33, Type (0, 1), BuildingBlock: ZUJKAS_clean_linker_0, # of connection points: 2
#     Edge 34, Type (0, 1), BuildingBlock: ZUJKAS_clean_linker_0, # of connection points: 2
#     Edge 35, Type (0, 1), BuildingBlock: ZUJKAS_clean_linker_0, # of connection points: 2
# Relax obj value: 0.095
# Max RMSD: 0.268
# Mean RMSD: 0.180
data_MOF--net-pyr--node1-MIFKUJ_clean_sbu_0--node2-QEWDON_clean_linker_0--edge1-ZUJKAS_clean_linker_0
_symmetry_space_group_name_H-M    P1
_symmetry_Int_Tables_number       1
_symmetry_cell_setting            triclinic
loop_
_symmetry_equiv_pos_as_xyz
'x, y, z'
_cell_length_a     49.854712
_cell_length_b     44.864674
_cell_length_c     52.090638
_cell_angle_alpha  85.977612
_cell_angle_beta   88.516406
_cell_angle_gamma 106.83323
loop_
_atom_site_label
_atom_site_type_symbol
_atom_site_fract_x
_atom_site_fract_y
_atom_site_fract_z
_atom_type_partial_charge
H0 H 0.25034 0.24328 0.18947 0.0
C1 C 0.23495 0.231 0.2046 0.0
C2 C 0.23429 0.2007 0.21425 0.0
C3 C 0.21693 0.24642 0.21516 0.0
H4 H 0.21444 0.16267 0.2426 0.0
C5 C 0.21522 0.18601 0.23496 0.0
C6 C 0.19712 0.20118 0.24596 0.0
C7 C 0.19782 0.23126 0.23556 0.0
C8 C 0.22138 0.28 0.2075 0.0
H9 H 0.18481 0.24373 0.24439 0.0
C10 C 0.20107 0.29093 0.19458 0.0
C11 C 0.20681 0.32301 0.18651 0.0
C12 C 0.24692 0.30137 0.21291 0.0
H13 H 0.26271 0.29344 0.22291 0.0
C14 C 0.2523 0.33309 0.20567 0.0
H15 H 0.18148 0.27446 0.19004 0.0
C16 C 0.2325 0.34386 0.19254 0.0
H17 H 0.2373 0.36867 0.18711 0.0
H18 H 0.27199 0.3494 0.21011 0.0
H19 H 0.31136 0.8793 0.76433 0.0
C20 C 0.32476 0.87096 0.7517 0.0
C21 C 0.35267 0.8739 0.75785 0.0
C22 C 0.31339 0.85536 0.73025 0.0
H23 H 0.39075 0.86364 0.74639 0.0
C24 C 0.36915 0.86128 0.74196 0.0
C25 C 0.3579 0.84498 0.72075 0.0
C26 C 0.33004 0.84259 0.71479 0.0
C27 C 0.28289 0.8473 0.72681 0.0
H28 H 0.32065 0.82903 0.69917 0.0
C29 C 0.27142 0.86402 0.7084 0.0
C30 C 0.24225 0.85476 0.70494 0.0
C31 C 0.26517 0.82166 0.74185 0.0
H32 H 0.27371 0.80855 0.75605 0.0
C33 C 0.23638 0.8125 0.73851 0.0
H34 H 0.28508 0.88379 0.69671 0.0
C35 C 0.22497 0.82882 0.72017 0.0
H36 H 0.20248 0.82142 0.71814 0.0
H37 H 0.22284 0.79266 0.75017 0.0
H38 H 0.71223 0.42389 0.8511 0.0
C39 C 0.70345 0.39931 0.85726 0.0
C40 C 0.7206 0.38226 0.86824 0.0
C41 C 0.67452 0.38543 0.85593 0.0
H42 H 0.72126 0.33712 0.88519 0.0
C43 C 0.70851 0.35043 0.87628 0.0
C44 C 0.67964 0.33604 0.87445 0.0
C45 C 0.66283 0.35381 0.86427 0.0
C46 C 0.65592 0.40491 0.84943 0.0
H47 H 0.64031 0.34354 0.86403 0.0
C48 C 0.65914 0.42276 0.82565 0.0
C49 C 0.6414 0.4415 0.82004 0.0
C50 C 0.635 0.40605 0.8676 0.0
H51 H 0.63233 0.39265 0.8861 0.0
C52 C 0.61765 0.42486 0.86224 0.0
H53 H 0.67521 0.42186 0.81156 0.0
C54 C 0.62077 0.44248 0.83864 0.0
H55 H 0.60656 0.45632 0.83471 0.0
H56 H 0.6016 0.42564 0.87636 0.0
H57 H 0.84887 0.75183 0.2667 0.0
C58 C 0.8317 0.74033 0.28049 0.0
C59 C 0.83422 0.74589 0.30665 0.0
C60 C 0.8066 0.72079 0.27202 0.0
H61 H 0.81303 0.73707 0.34417 0.0
C62 C 0.81158 0.73156 0.32422 0.0
C63 C 0.7864 0.71211 0.31604 0.0
C64 C 0.78413 0.70674 0.28987 0.0
C65 C 0.80309 0.71595 0.24438 0.0
H66 H 0.76485 0.69156 0.28331 0.0
C67 C 0.82205 0.70473 0.23033 0.0
C68 C 0.81756 0.69829 0.20445 0.0
C69 C 0.77994 0.72144 0.23224 0.0
H70 H 0.76514 0.73021 0.24271 0.0
C71 C 0.77575 0.71577 0.20646 0.0
H72 H 0.83958 0.69986 0.23983 0.0
C73 C 0.79434 0.70417 0.19264 0.0
H74 H 0.79062 0.69995 0.17263 0.0
H75 H 0.75795 0.72021 0.19719 0.0
H76 H 0.80691 0.83181 0.86026 0.0
C77 C 0.817 0.84568 0.84289 0.0
C78 C 0.8444 0.8462 0.83506 0.0
C79 C 0.80163 0.86111 0.82747 0.0
H80 H 0.87745 0.8637 0.80549 0.0
C81 C 0.85643 0.86321 0.81173 0.0
C82 C 0.8413 0.87864 0.79587 0.0
C83 C 0.81378 0.87735 0.80398 0.0
C84 C 0.77138 0.85576 0.83377 0.0
H85 H 0.80155 0.88854 0.79187 0.0
C86 C 0.76175 0.87246 0.85216 0.0
C87 C 0.7327 0.86568 0.85835 0.0
C88 C 0.75192 0.83265 0.82152 0.0
H89 H 0.75896 0.81959 0.80739 0.0
C90 C 0.72329 0.82592 0.82757 0.0
H91 H 0.77672 0.89031 0.8617 0.0
C92 C 0.71372 0.84219 0.84586 0.0
H93 H 0.69133 0.83672 0.84995 0.0
H94 H 0.70843 0.808 0.81803 0.0
H95 H 0.70698 0.20658 0.42845 0.0
C96 C 0.69886 0.20229 0.40952 0.0
C97 C 0.71339 0.19019 0.3914 0.0
C98 C 0.67343 0.20822 0.40383 0.0
H99 H 0.71277 0.17446 0.35312 0.0
C100 C 0.70217 0.18449 0.36708 0.0
C101 C 0.67674 0.19047 0.36097 0.0
C102 C 0.6627 0.20283 0.3794 0.0
C103 C 0.65639 0.21553 0.42485 0.0
H104 H 0.64254 0.2063 0.3754 0.0
C105 C 0.64941 0.24386 0.42417 0.0
C106 C 0.63489 0.25079 0.44551 0.0
C107 C 0.64787 0.19389 0.44646 0.0
H108 H 0.65291 0.17192 0.44726 0.0
C109 C 0.63282 0.20031 0.46718 0.0
H110 H 0.65622 0.26085 0.40771 0.0
C111 C 0.62651 0.22861 0.46683 0.0
H112 H 0.61503 0.23321 0.4833 0.0
H113 H 0.62629 0.18344 0.48371 0.0
H114 H 0.35458 0.71925 0.27022 0.0
C115 C 0.33398 0.7176 0.26317 0.0
C116 C 0.32882 0.74428 0.25112 0.0
C117 C 0.31309 0.68858 0.26492 0.0
H118 H 0.299 0.76213 0.23063 0.0
C119 C 0.30264 0.74182 0.24079 0.0
C120 C 0.28186 0.71296 0.24173 0.0
C121 C 0.28698 0.68664 0.25442 0.0
C122 C 0.31915 0.65977 0.2757 0.0
H123 H 0.27104 0.66424 0.25504 0.0
C124 C 0.33418 0.65978 0.29822 0.0
C125 C 0.34009 0.63245 0.30813 0.0
C126 C 0.31018 0.63205 0.26315 0.0
H127 H 0.29911 0.63139 0.24549 0.0
C128 C 0.3158 0.6049 0.273 0.0
H129 H 0.34136 0.68104 0.30795 0.0
C130 C 0.3306 0.60502 0.29533 0.0
H131 H 0.33441 0.58351 0.30271 0.0
H132 H 0.30871 0.5837 0.26323 0.0
H133 H 0.22826 0.38901 0.78182 0.0
C134 C 0.2163 0.3719 0.76957 0.0
C135 C 0.22563 0.37216 0.74384 0.0
C136 C 0.19159 0.34953 0.77963 0.0
H137 H 0.2168 0.34969 0.7084 0.0
C138 C 0.20962 0.35016 0.72815 0.0
C139 C 0.18489 0.32786 0.73792 0.0
C140 C 0.17616 0.32732 0.76377 0.0
C141 C 0.1814 0.34982 0.80648 0.0
H142 H 0.15689 0.31024 0.77131 0.0
C143 C 0.17834 0.37751 0.81547 0.0
C144 C 0.16724 0.3777 0.84055 0.0
C145 C 0.17377 0.32225 0.82293 0.0
H146 H 0.176 0.30066 0.81639 0.0
C147 C 0.16329 0.32239 0.848 0.0
H148 H 0.18416 0.39877 0.80274 0.0
C149 C 0.15993 0.34985 0.85678 0.0
H150 H 0.15096 0.34905 0.87607 0.0
H151 H 0.15742 0.30105 0.86058 0.0
Zn152 Zn 0.04055 0.04571 0.53937 0.0
Zn153 Zn 0.97012 0.03521 0.49122 0.0
C154 C 0.07671 0.09582 0.56301 0.0
O155 O 0.09534 0.08497 0.5516 0.0
C156 C 0.96521 0.97731 0.46821 0.0
O157 O 0.97906 0.97152 0.48816 0.0
O158 O 0.06243 0.01624 0.55248 0.0
O159 O 0.99863 0.02562 0.54401 0.0
O160 O 0.95728 0.01444 0.52724 0.0
C161 C 0.0654 0.01272 0.57661 0.0
O162 O 0.05281 0.02671 0.59225 0.0
O163 O 0.0508 0.08272 0.56041 0.0
C164 C 0.94536 0.07514 0.4598 0.0
O165 O 0.95807 0.06539 0.44114 0.0
O166 O 0.94868 0.06662 0.48303 0.0
O167 O 0.01235 0.05351 0.48546 0.0
O168 O 0.05355 0.06227 0.5026 0.0
O169 O 0.95872 0.0027 0.46598 0.0
C170 C 0.97222 0.01312 0.54648 0.0
C171 C 0.03896 0.0645 0.48326 0.0
Zn172 Zn 0.51101 0.00889 0.03111 0.0
Zn173 Zn 0.49607 0.06228 0.09533 0.0
C174 C 0.48013 0.97443 0.99251 0.0
O175 O 0.49068 0.9536 0.00394 0.0
C176 C 0.52873 0.09862 0.13209 0.0
O177 O 0.5209 0.11998 0.11821 0.0
O178 O 0.54725 0.99954 0.01975 0.0
O179 O 0.51681 0.05284 0.04252 0.0
O180 O 0.51647 0.09219 0.06518 0.0
C181 C 0.55886 0.00928 0.99743 0.0
O182 O 0.54835 0.02727 0.98233 0.0
O183 O 0.4853 0.00121 0.00119 0.0
C184 C 0.4494 0.06891 0.12726 0.0
O185 O 0.46326 0.05942 0.14567 0.0
O186 O 0.4587 0.07081 0.10398 0.0
O187 O 0.49221 0.01959 0.08285 0.0
O188 O 0.49249 0.97897 0.06225 0.0
O189 O 0.5207 0.07052 0.12602 0.0
C190 C 0.52331 0.08217 0.04439 0.0
C191 C 0.48656 0.99013 0.08279 0.0
Zn192 Zn 0.5285 0.55247 0.54324 0.0
Zn193 Zn 0.51578 0.60376 0.57793 0.0
C194 C 0.55547 0.59032 0.49974 0.0
O195 O 0.53235 0.57345 0.49018 0.0
C196 C 0.4835 0.56212 0.61793 0.0
O197 O 0.50393 0.57865 0.63108 0.0
O198 O 0.53127 0.51383 0.52656 0.0
O199 O 0.53908 0.54734 0.5798 0.0
O200 O 0.55197 0.59652 0.58948 0.0
C201 C 0.55511 0.5089 0.52802 0.0
O202 O 0.57455 0.52779 0.54066 0.0
O203 O 0.55875 0.58676 0.52376 0.0
C204 C 0.48494 0.64431 0.59029 0.0
O205 O 0.46797 0.62471 0.57611 0.0
O206 O 0.50911 0.64106 0.59411 0.0
O207 O 0.50958 0.61003 0.54014 0.0
O208 O 0.49132 0.55986 0.5361 0.0
O209 O 0.48433 0.56766 0.59362 0.0
C210 C 0.55357 0.56871 0.59282 0.0
C211 C 0.49217 0.58804 0.52985 0.0
Zn212 Zn 0.0156 0.60707 0.98584 0.0
Zn213 Zn 0.04164 0.56223 0.03405 0.0
C214 C 0.97999 0.56635 0.95564 0.0
O215 O 0.9962 0.5874 0.93872 0.0
C216 C 0.0609 0.59494 0.07734 0.0
O217 O 0.03867 0.57337 0.0876 0.0
O218 O 0.00499 0.64309 0.96687 0.0
O219 O 0.0166 0.61468 0.02349 0.0
O220 O 1.00249 0.56588 0.03991 0.0
C221 C 0.98338 0.64947 0.97563 0.0
O222 O 0.97013 0.63367 0.9967 0.0
O223 O 0.98425 0.56886 0.97947 0.0
C224 C 0.07127 0.52072 0.05151 0.0
O225 O 0.09092 0.54425 0.03978 0.0
O226 O 0.04602 0.52186 0.05169 0.0
O227 O 0.05858 0.56649 0.99794 0.0
O228 O 0.05011 0.60107 0.96903 0.0
O229 O 0.06662 0.59589 0.05332 0.0
C230 C 1.00086 0.59369 0.03934 0.0
C231 C 0.06276 0.58108 0.97567 0.0
H232 H 0.14212 0.19849 0.25663 0.0
H233 H 0.11324 0.17594 0.29612 0.0
H234 H 0.18235 0.14859 0.32788 0.0
H235 H 0.21132 0.17114 0.28869 0.0
H236 H 0.10133 0.10978 0.3207 0.0
H237 H 0.15708 0.20235 0.38227 0.0
H238 H 0.1582 0.20837 0.34755 0.0
H239 H 0.1788 0.18604 0.36285 0.0
C240 C 0.15116 0.18771 0.27205 0.0
C241 C 0.17902 0.18656 0.26945 0.0
C242 C 0.13461 0.17474 0.29454 0.0
C243 C 0.14573 0.16081 0.315 0.0
C244 C 0.17341 0.15942 0.3124 0.0
H245 H 0.0951 0.08051 0.47028 0.0
H246 H 0.11911 0.1033 0.42903 0.0
C247 C 0.18986 0.1721 0.28988 0.0
C248 C 0.12854 0.14772 0.33916 0.0
H249 H 0.12396 0.15797 0.40331 0.0
C250 C 0.10607 0.12038 0.33876 0.0
C251 C 0.13489 0.16155 0.36267 0.0
C252 C 0.15842 0.19134 0.36402 0.0
C253 C 0.09032 0.1059 0.36145 0.0
C254 C 0.09673 0.11965 0.38509 0.0
C255 C 0.11897 0.14735 0.38529 0.0
C256 C 0.08147 0.1052 0.41004 0.0
C257 C 0.06772 0.07536 0.36 0.0
C258 C 0.0522 0.09877 0.41338 0.0
C259 C 0.03827 0.08532 0.43702 0.0
C260 C 0.05338 0.0785 0.45797 0.0
C261 C 0.08272 0.0854 0.45463 0.0
C262 C 0.09654 0.09851 0.43099 0.0
H263 H 0.07073 0.06377 0.34244 0.0
H264 H 0.06727 0.05904 0.37715 0.0
H265 H 0.04702 0.07989 0.35924 0.0
H266 H 0.04011 0.10444 0.3978 0.0
H267 H 0.01574 0.08063 0.43896 0.0
H268 H 0.38475 0.85249 0.79211 0.0
H269 H 0.40394 0.87505 0.83133 0.0
H270 H 0.36523 0.94878 0.81803 0.0
H271 H 0.34603 0.9264 0.77836 0.0
H272 H 0.44035 0.93518 0.83576 0.0
H273 H 0.34012 0.9149 0.89332 0.0
H274 H 0.34241 0.89523 0.86462 0.0
H275 H 0.34257 0.93538 0.86201 0.0
C276 C 0.38049 0.87368 0.79732 0.0
C277 C 0.36403 0.88779 0.78191 0.0
C278 C 0.39133 0.88643 0.81987 0.0
C279 C 0.38585 0.91344 0.82773 0.0
C280 C 0.36935 0.92762 0.81254 0.0
H281 H 0.45577 0.01195 0.96305 0.0
H282 H 0.43179 0.00014 0.92271 0.0
C283 C 0.35844 0.91483 0.78987 0.0
C284 C 0.39823 0.92687 0.8515 0.0
H285 H 0.38193 0.93914 0.91331 0.0
C286 C 0.42756 0.9363 0.85263 0.0
C287 C 0.3815 0.92838 0.87349 0.0
C288 C 0.34989 0.91776 0.87354 0.0
C289 C 0.4406 0.94648 0.87529 0.0
C290 C 0.4239 0.94705 0.89747 0.0
C291 C 0.39462 0.9387 0.89619 0.0
C292 C 0.43664 0.9538 0.92258 0.0
C293 C 0.47219 0.95601 0.87562 0.0
C294 C 0.44683 0.93145 0.93594 0.0
C295 C 0.46038 0.93801 0.9589 0.0
C296 C 0.46411 0.96715 0.96897 0.0
C297 C 0.45329 0.98931 0.95581 0.0
C298 C 0.43956 0.98262 0.93281 0.0
H299 H 0.48218 0.95974 0.85588 0.0
H300 H 0.48003 0.9778 0.88551 0.0
H301 H 0.47881 0.93737 0.88649 0.0
H302 H 0.44463 0.90902 0.92837 0.0
H303 H 0.46834 0.92035 0.96852 0.0
H304 H 0.64487 0.41975 0.77279 0.0
H305 H 0.63939 0.44522 0.73088 0.0
H306 H 0.63479 0.52684 0.76773 0.0
H307 H 0.64061 0.50172 0.80957 0.0
H308 H 0.58991 0.46312 0.72311 0.0
H309 H 0.68525 0.56386 0.70199 0.0
H310 H 0.68461 0.53079 0.72418 0.0
H311 H 0.66976 0.56045 0.73401 0.0
C312 C 0.64357 0.44349 0.77183 0.0
C313 C 0.64299 0.45871 0.79443 0.0
C314 C 0.64035 0.45795 0.74792 0.0
C315 C 0.6369 0.48798 0.74621 0.0
C316 C 0.63788 0.50388 0.76857 0.0
H317 H 0.57281 0.59982 0.63536 0.0
H318 H 0.59572 0.58104 0.67164 0.0
C319 C 0.64092 0.48938 0.79247 0.0
C320 C 0.62828 0.50084 0.72191 0.0
H321 H 0.64578 0.56319 0.6768 0.0
C322 C 0.60228 0.4848 0.71278 0.0
C323 C 0.6443 0.52934 0.70879 0.0
C324 C 0.67266 0.54706 0.71757 0.0
C325 C 0.59147 0.49682 0.69118 0.0
C326 C 0.60748 0.52532 0.67794 0.0
C327 C 0.63362 0.54133 0.68696 0.0
C328 C 0.59705 0.53869 0.65482 0.0
C329 C 0.56257 0.47937 0.68327 0.0
C330 C 0.59118 0.52164 0.63306 0.0
C331 C 0.57787 0.53206 0.61259 0.0
C332 C 0.57059 0.56004 0.61326 0.0
C333 C 0.57812 0.57815 0.63434 0.0
C334 C 0.5912 0.56747 0.65503 0.0
H335 H 0.55029 0.46287 0.69917 0.0
H336 H 0.55059 0.49578 0.67708 0.0
H337 H 0.56459 0.4656 0.66683 0.0
H338 H 0.59611 0.49973 0.63228 0.0
H339 H 0.57274 0.5178 0.59645 0.0
H340 H 0.87502 0.71543 0.20318 0.0
H341 H 0.90624 0.6949 0.17709 0.0
H342 H 0.83441 0.63036 0.14697 0.0
H343 H 0.80313 0.65067 0.17292 0.0
H344 H 0.9109 0.63345 0.17455 0.0
H345 H 0.87895 0.67976 0.0823 0.0
H346 H 0.87086 0.69202 0.11309 0.0
H347 H 0.85036 0.65526 0.10276 0.0
C348 C 0.86591 0.69667 0.19117 0.0
C349 C 0.83663 0.68494 0.18981 0.0
C350 C 0.88374 0.68501 0.17628 0.0
C351 C 0.87259 0.6615 0.15982 0.0
C352 C 0.84341 0.64897 0.15915 0.0
H353 H 0.96315 0.55547 0.07568 0.0
H354 H 0.93213 0.5708 0.10609 0.0
C355 C 0.82559 0.66065 0.17393 0.0
C356 C 0.89141 0.65072 0.1427 0.0
H357 H 0.90846 0.64715 0.07937 0.0
C358 C 0.91043 0.63641 0.15373 0.0
C359 C 0.89089 0.65499 0.11558 0.0
C360 C 0.87187 0.67159 0.10266 0.0
C361 C 0.92885 0.62599 0.13828 0.0
C362 C 0.92788 0.62966 0.11116 0.0
C363 C 0.90895 0.64412 0.10018 0.0
C364 C 0.94716 0.62009 0.09363 0.0
C365 C 0.94963 0.61183 0.15104 0.0
C366 C 0.96551 0.64262 0.07635 0.0
C367 C 0.983 0.63396 0.0589 0.0
C368 C 0.98244 0.60249 0.05828 0.0
C369 C 0.96413 0.57989 0.07572 0.0
C370 C 0.94654 0.58863 0.09321 0.0
H371 H 0.95203 0.61718 0.17151 0.0
H372 H 0.9422 0.58607 0.15051 0.0
H373 H 0.97053 0.62045 0.14069 0.0
H374 H 0.96625 0.667 0.07632 0.0
H375 H 0.99688 0.65201 0.04581 0.0
H376 H 0.26345 0.1659 0.24064 0.0
H377 H 0.29775 0.14221 0.22326 0.0
H378 H 0.28578 0.17693 0.14645 0.0
H379 H 0.25127 0.20054 0.16363 0.0
H380 H 0.29223 0.09763 0.18738 0.0
H381 H 0.37086 0.20914 0.15141 0.0
H382 H 0.34179 0.20768 0.17333 0.0
H383 H 0.3364 0.20385 0.13959 0.0
C384 C 0.26783 0.16825 0.22001 0.0
C385 C 0.25455 0.18526 0.20357 0.0
C386 C 0.28761 0.15482 0.21011 0.0
C387 C 0.29473 0.15818 0.18358 0.0
C388 C 0.28116 0.17461 0.16704 0.0
H389 H 0.41904 0.09691 0.09524 0.0
H390 H 0.38004 0.11697 0.1075 0.0
C391 C 0.26137 0.18808 0.17692 0.0
C392 C 0.3162 0.14426 0.17331 0.0
H393 H 0.38057 0.16253 0.14165 0.0
C394 C 0.31154 0.11184 0.17738 0.0
C395 C 0.34137 0.16274 0.16013 0.0
C396 C 0.34813 0.19781 0.156 0.0
C397 C 0.33126 0.09742 0.16863 0.0
C398 C 0.35665 0.11595 0.15584 0.0
C399 C 0.36111 0.14831 0.15138 0.0
C400 C 0.3794 0.10247 0.14807 0.0
C401 C 0.3246 0.06238 0.17294 0.0
C402 C 0.39212 0.08774 0.16675 0.0
C403 C 0.41435 0.07628 0.15982 0.0
C404 C 0.42455 0.07939 0.13402 0.0
C405 C 0.41164 0.09394 0.11525 0.0
C406 C 0.38939 0.10551 0.12224 0.0
H407 H 0.30165 0.05097 0.17581 0.0
H408 H 0.33267 0.05254 0.15645 0.0
H409 H 0.3347 0.05646 0.19054 0.0
H410 H 0.38524 0.08567 0.18686 0.0
H411 H 0.42381 0.06538 0.17484 0.0
H412 H 0.20493 0.83044 0.66915 0.0
H413 H 0.17818 0.8574 0.64239 0.0
H414 H 0.22221 0.94467 0.6722 0.0
H415 H 0.24949 0.91777 0.69865 0.0
H416 H 0.14245 0.88555 0.66063 0.0
H417 H 0.22287 0.97172 0.59657 0.0
H418 H 0.23023 0.93955 0.61489 0.0
H419 H 0.23011 0.97434 0.63004 0.0
C420 C 0.20926 0.85549 0.66962 0.0
C421 C 0.22924 0.87201 0.68602 0.0
C422 C 0.19397 0.87088 0.65432 0.0
C423 C 0.19824 0.90314 0.6551 0.0
C424 C 0.21893 0.91992 0.67079 0.0
H425 H 0.07528 0.00108 0.62703 0.0
H426 H 0.10755 0.97401 0.64452 0.0
C427 C 0.23447 0.90453 0.68596 0.0
C428 C 0.17913 0.91834 0.64149 0.0
H429 H 0.17727 0.97936 0.59907 0.0
C430 C 0.15012 0.9059 0.647 0.0
C431 C 0.18901 0.94472 0.62349 0.0
C432 C 0.21974 0.9582 0.61567 0.0
C433 C 0.13083 0.91946 0.63554 0.0
C434 C 0.14077 0.94666 0.61847 0.0
C435 C 0.1697 0.95867 0.61236 0.0
C436 C 0.12143 0.96339 0.60748 0.0
C437 C 0.0999 0.90441 0.64175 0.0
C438 C 0.11885 0.96699 0.58074 0.0
C439 C 0.10035 0.98259 0.57059 0.0
C440 C 0.08427 0.99507 0.58703 0.0
C441 C 0.08713 0.99158 0.61378 0.0
C442 C 0.10555 0.97601 0.62386 0.0
H443 H 0.09542 0.87947 0.64897 0.0
H444 H 0.09275 0.91679 0.65703 0.0
H445 H 0.08747 0.90583 0.62456 0.0
H446 H 0.13102 0.95755 0.56774 0.0
H447 H 0.09882 0.98506 0.54989 0.0
H448 H 0.7667 0.35999 0.86723 0.0
H449 H 0.81283 0.38411 0.88369 0.0
H450 H 0.7878 0.46586 0.89843 0.0
H451 H 0.74126 0.44123 0.88408 0.0
H452 H 0.85442 0.43517 0.87049 0.0
H453 H 0.81313 0.44517 0.96774 0.0
H454 H 0.79144 0.42293 0.94443 0.0
H455 H 0.79735 0.46458 0.94395 0.0
C456 C 0.77091 0.383 0.8742 0.0
C457 C 0.74999 0.39842 0.87454 0.0
C458 C 0.79737 0.39683 0.88344 0.0
C459 C 0.80348 0.4264 0.89304 0.0
C460 C 0.78327 0.44259 0.89194 0.0
H461 H 0.95774 0.5646 0.90856 0.0
H462 H 0.91677 0.5261 0.89444 0.0
C463 C 0.75674 0.42864 0.88314 0.0
C464 C 0.83088 0.4406 0.90422 0.0
H465 H 0.85975 0.47872 0.95579 0.0
C466 C 0.85564 0.4443 0.8893 0.0
C467 C 0.83262 0.45156 0.92914 0.0
C468 C 0.8072 0.44551 0.94733 0.0
C469 C 0.88192 0.46045 0.89795 0.0
C470 C 0.88332 0.47419 0.92175 0.0
C471 C 0.85873 0.46874 0.93734 0.0
C472 C 0.9095 0.49621 0.92998 0.0
C473 C 0.90782 0.46262 0.88142 0.0
C474 C 0.91867 0.49293 0.95505 0.0
C475 C 0.94179 0.51551 0.96347 0.0
C476 C 0.95623 0.54161 0.94687 0.0
C477 C 0.94727 0.54457 0.92172 0.0
C478 C 0.92397 0.52234 0.91349 0.0
H479 H 0.9047 0.44176 0.87026 0.0
H480 H 0.91209 0.48338 0.86735 0.0
H481 H 0.92647 0.46475 0.89315 0.0
H482 H 0.90769 0.47312 0.96822 0.0
H483 H 0.94825 0.51263 0.98295 0.0
H484 H 0.73122 0.70766 0.30872 0.0
H485 H 0.6917 0.68936 0.34043 0.0
H486 H 0.74702 0.67031 0.3974 0.0
H487 H 0.78659 0.68771 0.36569 0.0
H488 H 0.67405 0.62717 0.37166 0.0
H489 H 0.70535 0.73066 0.42925 0.0
H490 H 0.7176 0.7318 0.39613 0.0
H491 H 0.7321 0.71271 0.42124 0.0
C492 C 0.73493 0.69909 0.32786 0.0
C493 C 0.76208 0.6992 0.3347 0.0
C494 C 0.71239 0.68893 0.34597 0.0
C495 C 0.71666 0.67901 0.37124 0.0
C496 C 0.74351 0.67843 0.37805 0.0
H497 H 0.61107 0.61158 0.50964 0.0
H498 H 0.6501 0.63525 0.47818 0.0
C499 C 0.76604 0.68839 0.35993 0.0
C500 C 0.69291 0.66884 0.39045 0.0
H501 H 0.66621 0.689 0.44539 0.0
C502 C 0.67218 0.64068 0.38773 0.0
C503 C 0.69085 0.68656 0.41139 0.0
C504 C 0.71251 0.71725 0.41475 0.0
C505 C 0.64951 0.62937 0.40577 0.0
C506 C 0.64718 0.64727 0.42661 0.0
C507 C 0.66798 0.67548 0.4293 0.0
C508 C 0.6236 0.63655 0.44611 0.0
C509 C 0.62876 0.59792 0.40274 0.0
C510 C 0.59583 0.63077 0.43869 0.0
C511 C 0.57356 0.61701 0.45652 0.0
C512 C 0.57871 0.60933 0.48216 0.0
C513 C 0.60649 0.61722 0.48999 0.0
C514 C 0.62879 0.63067 0.47205 0.0
H515 H 0.63763 0.58374 0.39018 0.0
H516 H 0.62213 0.58449 0.42171 0.0
H517 H 0.60987 0.6014 0.3937 0.0
H518 H 0.5914 0.63599 0.41891 0.0
H519 H 0.55233 0.61158 0.45004 0.0
H520 H 0.14969 0.31078 0.19503 0.0
H521 H 0.11842 0.33566 0.1717 0.0
H522 H 0.18817 0.38871 0.12096 0.0
H523 H 0.21906 0.36369 0.14361 0.0
H524 H 0.12339 0.39952 0.16613 0.0
H525 H 0.1284 0.35533 0.0703 0.0
H526 H 0.13924 0.33764 0.09888 0.0
H527 H 0.1627 0.37197 0.08177 0.0
C528 C 0.15814 0.32728 0.17856 0.0
C529 C 0.18687 0.33533 0.17123 0.0
C530 C 0.14033 0.34161 0.16536 0.0
C531 C 0.15085 0.3638 0.14434 0.0
C532 C 0.17938 0.37126 0.13674 0.0
H533 H 0.12244 0.51046 0.04985 0.0
H534 H 0.13694 0.46909 0.07302 0.0
C535 C 0.19711 0.35713 0.14991 0.0
C536 C 0.13285 0.3809 0.13118 0.0
H537 H 0.11528 0.403 0.07133 0.0
C538 C 0.12104 0.39979 0.14548 0.0
C539 C 0.12973 0.38122 0.10423 0.0
C540 C 0.14045 0.36019 0.08795 0.0
C541 C 0.10785 0.42046 0.13333 0.0
C542 C 0.10615 0.42199 0.10621 0.0
C543 C 0.11669 0.40195 0.0921 0.0
C544 C 0.09625 0.44636 0.09184 0.0
C545 C 0.0973 0.4418 0.1494 0.0
C546 C 0.06833 0.44719 0.09441 0.0
C547 C 0.05985 0.47098 0.08104 0.0
C548 C 0.07919 0.49434 0.06491 0.0
C549 C 0.10696 0.493 0.06215 0.0
C550 C 0.11533 0.46927 0.07536 0.0
H551 H 0.10392 0.44096 0.16957 0.0
H552 H 0.10504 0.4663 0.14081 0.0
H553 H 0.07403 0.43471 0.1498 0.0
H554 H 0.05314 0.4295 0.10676 0.0
H555 H 0.03831 0.4713 0.08357 0.0
H556 H 0.63763 0.28999 0.85545 0.0
H557 H 0.61069 0.24013 0.87815 0.0
H558 H 0.66429 0.25929 0.94228 0.0
H559 H 0.69085 0.3093 0.92019 0.0
H560 H 0.64666 0.19282 0.92612 0.0
H561 H 0.56074 0.24655 0.94391 0.0
H562 H 0.57436 0.24859 0.91128 0.0
H563 H 0.59617 0.26986 0.93473 0.0
C564 C 0.64387 0.2834 0.87427 0.0
C565 C 0.66626 0.30374 0.88608 0.0
C566 C 0.62856 0.2549 0.8871 0.0
C567 C 0.63548 0.24628 0.91188 0.0
C568 C 0.65879 0.26555 0.92307 0.0
H569 H 0.55215 0.14335 0.04704 0.0
H570 H 0.57839 0.18035 0.01214 0.0
C571 C 0.67401 0.29409 0.91034 0.0
C572 C 0.61681 0.21908 0.92745 0.0
H573 H 0.55528 0.19647 0.96371 0.0
C574 C 0.62646 0.19326 0.93405 0.0
C575 C 0.59066 0.2201 0.93787 0.0
C576 C 0.57976 0.24776 0.9318 0.0
C577 C 0.61081 0.16862 0.95143 0.0
C578 C 0.58502 0.17009 0.96234 0.0
C579 C 0.57504 0.19549 0.95515 0.0
C580 C 0.5693 0.1471 0.9831 0.0
C581 C 0.62242 0.14188 0.95892 0.0
C582 C 0.55528 0.11629 0.97814 0.0
C583 C 0.5401 0.09511 0.99806 0.0
C584 C 0.53888 0.10444 0.02316 0.0
C585 C 0.55273 0.13544 0.02791 0.0
C586 C 0.56778 0.15657 0.00804 0.0
H587 H 0.64418 0.14602 0.95092 0.0
H588 H 0.62225 0.13805 0.98023 0.0
H589 H 0.60894 0.12014 0.95166 0.0
H590 H 0.5558 0.10878 0.95887 0.0
H591 H 0.52889 0.07164 0.99378 0.0
H592 H 0.86463 0.73915 0.34822 0.0
H593 H 0.89578 0.7814 0.3701 0.0
H594 H 0.88965 0.84792 0.30832 0.0
H595 H 0.85824 0.80575 0.28642 0.0
H596 H 0.94786 0.83561 0.3552 0.0
H597 H 0.84926 0.86637 0.3756 0.0
H598 H 0.84911 0.82906 0.36463 0.0
H599 H 0.85823 0.86327 0.34243 0.0
C600 C 0.87065 0.76266 0.33894 0.0
C601 C 0.85883 0.76931 0.31581 0.0
C602 C 0.88847 0.78671 0.3514 0.0
C603 C 0.89462 0.8177 0.34094 0.0
C604 C 0.88497 0.82407 0.31669 0.0
H605 H 0.94509 0.9868 0.42112 0.0
H606 H 0.9313 0.94953 0.38848 0.0
C607 C 0.86719 0.79998 0.30414 0.0
C608 C 0.90726 0.84334 0.35719 0.0
H609 H 0.89004 0.89602 0.39353 0.0
C610 C 0.93539 0.84908 0.36344 0.0
C611 C 0.89075 0.86057 0.36801 0.0
C612 C 0.8601 0.85452 0.36256 0.0
C613 C 0.94756 0.87193 0.38023 0.0
C614 C 0.93086 0.88877 0.39144 0.0
C615 C 0.90282 0.88316 0.38487 0.0
C616 C 0.94161 0.91191 0.41046 0.0
C617 C 0.97819 0.87801 0.38556 0.0
C618 C 0.95194 0.90313 0.43373 0.0
C619 C 0.96003 0.9245 0.45241 0.0
C620 C 0.95748 0.95484 0.44829 0.0
C621 C 0.9472 0.96356 0.42494 0.0
C622 C 0.93939 0.94232 0.40622 0.0
H623 H 0.98975 0.87058 0.36989 0.0
H624 H 0.98835 0.90314 0.38783 0.0
H625 H 0.98012 0.86441 0.40369 0.0
H626 H 0.95309 0.87954 0.43774 0.0
H627 H 0.96771 0.91703 0.47027 0.0
H628 H 0.3621 0.8402 0.66854 0.0
H629 H 0.38676 0.80884 0.64596 0.0
H630 H 0.41537 0.77978 0.71824 0.0
H631 H 0.39051 0.81043 0.74095 0.0
H632 H 0.44693 0.80989 0.64667 0.0
H633 H 0.37153 0.69747 0.68606 0.0
H634 H 0.36351 0.73423 0.68595 0.0
H635 H 0.38626 0.72476 0.70929 0.0
C636 C 0.37368 0.82716 0.6796 0.0
C637 C 0.37432 0.82785 0.70655 0.0
C638 C 0.38789 0.80944 0.66667 0.0
C639 C 0.4027 0.79186 0.68048 0.0
C640 C 0.40391 0.79305 0.70725 0.0
H641 H 0.51295 0.68782 0.62262 0.0
H642 H 0.49464 0.72534 0.64424 0.0
C643 C 0.38986 0.81081 0.72016 0.0
C644 C 0.41596 0.77122 0.66712 0.0
H645 H 0.41097 0.69445 0.6615 0.0
C646 C 0.43914 0.78465 0.64989 0.0
C647 C 0.4056 0.73833 0.67128 0.0
C648 C 0.38023 0.72269 0.68899 0.0
C649 C 0.45235 0.76594 0.63678 0.0
C650 C 0.44213 0.73304 0.64116 0.0
C651 C 0.41889 0.71969 0.65833 0.0
C652 C 0.45419 0.71183 0.62719 0.0
C653 C 0.47671 0.78139 0.61795 0.0
C654 C 0.4375 0.69174 0.6106 0.0
C655 C 0.44782 0.67037 0.59831 0.0
C656 C 0.47505 0.6684 0.60248 0.0
C657 C 0.49193 0.68881 0.61892 0.0
C658 C 0.48155 0.71034 0.6312 0.0
H659 H 0.47871 0.8065 0.61322 0.0
H660 H 0.49644 0.77966 0.62646 0.0
H661 H 0.47438 0.7694 0.59984 0.0
H662 H 0.41631 0.69244 0.60728 0.0
H663 H 0.4342 0.65507 0.5858 0.0
H664 H 0.81574 0.87804 0.74963 0.0
H665 H 0.8373 0.90097 0.70726 0.0
H666 H 0.91686 0.93711 0.74142 0.0
H667 H 0.89545 0.91479 0.78387 0.0
H668 H 0.86695 0.96428 0.68987 0.0
H669 H 0.93458 0.88589 0.68378 0.0
H670 H 0.90499 0.87784 0.70661 0.0
H671 H 0.93754 0.90608 0.71264 0.0
C672 C 0.83773 0.89125 0.74824 0.0
C673 C 0.85386 0.89435 0.77025 0.0
C674 C 0.85007 0.90417 0.72394 0.0
C675 C 0.87882 0.92026 0.72106 0.0
C676 C 0.89479 0.92418 0.74305 0.0
H677 H 0.99655 0.01058 0.59303 0.0
H678 H 0.97343 0.98815 0.63495 0.0
C679 C 0.88248 0.91138 0.76734 0.0
C680 C 0.89219 0.93293 0.69512 0.0
H681 H 0.94279 0.92786 0.65145 0.0
C682 C 0.88343 0.95623 0.68139 0.0
C683 C 0.9137 0.92241 0.68406 0.0
C684 C 0.92316 0.89648 0.69737 0.0
C685 C 0.89607 0.96985 0.65723 0.0
C686 C 0.91771 0.95943 0.64619 0.0
C687 C 0.92631 0.93595 0.65988 0.0
C688 C 0.93175 0.97262 0.62053 0.0
C689 C 0.88664 0.99589 0.64409 0.0
C690 C 0.9162 0.97086 0.59829 0.0
C691 C 0.92938 0.9837 0.5743 0.0
C692 C 0.95852 0.9984 0.57189 0.0
C693 C 0.97414 0.99948 0.59411 0.0
C694 C 0.96092 0.98667 0.61813 0.0
H695 H 0.8758 0.00682 0.65792 0.0
H696 H 0.9047 0.0143 0.63443 0.0
H697 H 0.87167 0.98628 0.62925 0.0
H698 H 0.89381 0.95947 0.59946 0.0
H699 H 0.91666 0.98217 0.55763 0.0
H700 H 0.65207 0.22387 0.32799 0.0
H701 H 0.62869 0.20736 0.28825 0.0
H702 H 0.64827 0.11993 0.29852 0.0
H703 H 0.67145 0.13608 0.33825 0.0
H704 H 0.65369 0.18418 0.24205 0.0
H705 H 0.5598 0.0985 0.29201 0.0
H706 H 0.58204 0.13059 0.30778 0.0
H707 H 0.59369 0.09722 0.30225 0.0
C708 C 0.65138 0.20114 0.32176 0.0
C709 C 0.66366 0.18132 0.33624 0.0
C710 C 0.63814 0.19181 0.29904 0.0
C711 C 0.63661 0.16236 0.2906 0.0
C712 C 0.6491 0.14268 0.30481 0.0
H713 H 0.54809 0.06063 0.16591 0.0
H714 H 0.57589 0.07568 0.2036 0.0
C715 C 0.66252 0.15207 0.32739 0.0
C716 C 0.62168 0.152 0.26709 0.0
H717 H 0.56226 0.10145 0.24663 0.0
C718 C 0.63369 0.16612 0.24299 0.0
C719 C 0.59576 0.12824 0.26844 0.0
C720 C 0.58183 0.11276 0.29397 0.0
C721 C 0.62047 0.15699 0.2201 0.0
C722 C 0.59419 0.13366 0.22145 0.0
C723 C 0.58238 0.11931 0.2456 0.0
C724 C 0.57811 0.12462 0.19815 0.0
C725 C 0.63502 0.17205 0.19468 0.0
C726 C 0.56986 0.14702 0.18272 0.0
C727 C 0.55408 0.13854 0.1612 0.0
C728 C 0.54595 0.10736 0.15472 0.0
C729 C 0.55408 0.08486 0.17029 0.0
C730 C 0.56995 0.09342 0.19185 0.0
H731 H 0.65801 0.18183 0.19645 0.0
H732 H 0.6313 0.15508 0.17968 0.0
H733 H 0.6267 0.19157 0.18813 0.0
H734 H 0.57528 0.17108 0.18754 0.0
H735 H 0.54805 0.15646 0.14978 0.0
H736 H 0.38188 0.60539 0.31653 0.0
H737 H 0.40652 0.60232 0.35607 0.0
H738 H 0.36026 0.65696 0.39236 0.0
H739 H 0.33477 0.65932 0.353 0.0
H740 H 0.43994 0.65011 0.38303 0.0
H741 H 0.34611 0.57822 0.4424 0.0
H742 H 0.34629 0.58356 0.40772 0.0
H743 H 0.34325 0.61421 0.42696 0.0
C744 C 0.37676 0.61656 0.33297 0.0
C745 C 0.35615 0.6323 0.33172 0.0
C746 C 0.39101 0.61498 0.35548 0.0
C747 C 0.38492 0.62904 0.37722 0.0
C748 C 0.36492 0.64553 0.3759 0.0
H749 H 0.48914 0.64556 0.51151 0.0
H750 H 0.46236 0.65767 0.4756 0.0
C751 C 0.3506 0.64712 0.35333 0.0
C752 C 0.39948 0.62596 0.40123 0.0
H753 H 0.38901 0.59254 0.463 0.0
C754 C 0.42883 0.63775 0.4006 0.0
C755 C 0.38486 0.60953 0.42398 0.0
C756 C 0.35341 0.59539 0.42541 0.0
C757 C 0.44406 0.63315 0.42204 0.0
C758 C 0.42944 0.61671 0.44478 0.0
C759 C 0.40007 0.6053 0.44555 0.0
C760 C 0.44443 0.6095 0.46744 0.0
C761 C 0.47569 0.64489 0.41987 0.0
C762 C 0.44253 0.57835 0.47518 0.0
C763 C 0.45769 0.57131 0.49573 0.0
C764 C 0.47498 0.59534 0.50896 0.0
C765 C 0.47622 0.62651 0.50158 0.0
C766 C 0.46101 0.63351 0.48103 0.0
H767 H 0.48378 0.65123 0.39954 0.0
H768 H 0.48292 0.66603 0.43063 0.0
H769 H 0.48501 0.627 0.42839 0.0
H770 H 0.42974 0.5595 0.46495 0.0
H771 H 0.45619 0.54707 0.50096 0.0
H772 H 0.17601 0.40036 0.88807 0.0
H773 H 0.1637 0.44505 0.90367 0.0
H774 H 0.13586 0.46565 0.82858 0.0
H775 H 0.14694 0.4202 0.81309 0.0
H776 H 0.18064 0.50919 0.88732 0.0
H777 H 0.06651 0.45478 0.87591 0.0
H778 H 0.09167 0.43302 0.87398 0.0
H779 H 0.08879 0.45945 0.84736 0.0
C780 C 0.16715 0.41429 0.87489 0.0
C781 C 0.16217 0.40646 0.84942 0.0
C782 C 0.16039 0.44 0.88376 0.0
C783 C 0.14852 0.45837 0.86737 0.0
C784 C 0.14461 0.45147 0.84164 0.0
H785 H 0.06431 0.58997 0.92296 0.0
H786 H 0.08933 0.56725 0.89223 0.0
C787 C 0.15123 0.42566 0.83277 0.0
C788 C 0.13892 0.4836 0.8778 0.0
H789 H 0.0797 0.50298 0.89391 0.0
C790 C 0.15861 0.50808 0.88849 0.0
C791 C 0.11019 0.48217 0.87915 0.0
C792 C 0.08797 0.45587 0.86869 0.0
C793 C 0.15019 0.5306 0.90132 0.0
C794 C 0.12133 0.52827 0.90376 0.0
C795 C 0.10183 0.50477 0.89189 0.0
C796 C 0.11039 0.54695 0.92139 0.0
C797 C 0.17217 0.55629 0.91265 0.0
C798 C 0.11434 0.54347 0.94785 0.0
C799 C 0.10003 0.55619 0.96537 0.0
C800 C 0.08141 0.57262 0.95678 0.0
C801 C 0.07864 0.57759 0.93015 0.0
C802 C 0.09286 0.5646 0.91258 0.0
H803 H 0.19279 0.56125 0.90202 0.0
H804 H 0.16594 0.57815 0.9124 0.0
H805 H 0.17484 0.5488 0.93295 0.0
H806 H 0.12728 0.52939 0.95513 0.0
H807 H 0.10269 0.552 0.98574 0.0
H808 H 0.69423 0.84149 0.89827 0.0
H809 H 0.67022 0.86965 0.925 0.0
H810 H 0.72083 0.95724 0.88738 0.0
H811 H 0.74511 0.92912 0.86054 0.0
H812 H 0.69556 0.92689 0.958 0.0
H813 H 0.6325 0.94585 0.87496 0.0
H814 H 0.64856 0.91451 0.87703 0.0
H815 H 0.66989 0.95402 0.86968 0.0
C816 C 0.70056 0.86679 0.89596 0.0
C817 C 0.72148 0.8831 0.8772 0.0
C818 C 0.68687 0.88283 0.91129 0.0
C819 C 0.69361 0.91548 0.90805 0.0
C820 C 0.71531 0.932 0.89014 0.0
H821 H 0.59616 0.03592 0.95723 0.0
H822 H 0.63128 0.01519 0.9375 0.0
C823 C 0.72925 0.91595 0.87493 0.0
C824 C 0.67645 0.93186 0.92204 0.0
H825 H 0.62288 0.96435 0.91408 0.0
C826 C 0.67977 0.9353 0.94844 0.0
C827 C 0.65588 0.94275 0.9095 0.0
C828 C 0.65121 0.9391 0.88125 0.0
C829 C 0.66316 0.94963 0.96262 0.0
C830 C 0.64205 0.95992 0.95021 0.0
C831 C 0.639 0.95659 0.9237 0.0
C832 C 0.62261 0.9739 0.96413 0.0
C833 C 0.66885 0.9541 0.99061 0.0
C834 C 0.60611 0.95794 0.98598 0.0
C835 C 0.58628 0.9701 0.99762 0.0
C836 C 0.58206 0.99812 0.98728 0.0
C837 C 0.59884 0.01426 0.96567 0.0
C838 C 0.61892 0.00237 0.95432 0.0
H839 H 0.69077 0.95477 0.99471 0.0
H840 H 0.66516 0.97601 0.99636 0.0
H841 H 0.65467 0.93414 0.00272 0.0
H842 H 0.60782 0.93552 0.99357 0.0
H843 H 0.57343 0.95687 0.01403 0.0
H844 H 0.72359 0.16319 0.43755 0.0
H845 H 0.76532 0.14858 0.44938 0.0
H846 H 0.80262 0.18055 0.37305 0.0
H847 H 0.76142 0.19682 0.3614 0.0
H848 H 0.78608 0.1061 0.42953 0.0
H849 H 0.86656 0.22165 0.41663 0.0
H850 H 0.82944 0.21747 0.41718 0.0
H851 H 0.84718 0.21131 0.3884 0.0
C852 C 0.74089 0.16786 0.42339 0.0
C853 C 0.73916 0.18157 0.39856 0.0
C854 C 0.76469 0.15919 0.43015 0.0
C855 C 0.78737 0.1639 0.41228 0.0
C856 C 0.78571 0.17735 0.3874 0.0
H857 H 0.93614 0.10044 0.41272 0.0
H858 H 0.89866 0.12363 0.4018 0.0
C859 C 0.76193 0.18624 0.38065 0.0
C860 C 0.812 0.1532 0.41944 0.0
H861 H 0.88334 0.17723 0.4235 0.0
C862 C 0.8073 0.12174 0.42836 0.0
C863 C 0.83975 0.17359 0.41791 0.0
C864 C 0.84608 0.20795 0.40975 0.0
C865 C 0.82953 0.11003 0.43544 0.0
C866 C 0.85723 0.13034 0.43375 0.0
C867 C 0.86205 0.16176 0.42478 0.0
C868 C 0.88141 0.119 0.44087 0.0
C869 C 0.82333 0.07586 0.44427 0.0
C870 C 0.88456 0.10951 0.46659 0.0
C871 C 0.90606 0.09641 0.47295 0.0
C872 C 0.92472 0.0924 0.45366 0.0
C873 C 0.92208 0.10304 0.42804 0.0
C874 C 0.9007 0.11634 0.42174 0.0
H875 H 0.80172 0.0622 0.44001 0.0
H876 H 0.8385 0.06564 0.4349 0.0
H877 H 0.82549 0.07338 0.46541 0.0
H878 H 0.87002 0.11166 0.48167 0.0
H879 H 0.90748 0.0885 0.49286 0.0
H880 H 0.27941 0.73714 0.19271 0.0
H881 H 0.23934 0.72566 0.16529 0.0
H882 H 0.1874 0.66768 0.22793 0.0
H883 H 0.2274 0.6796 0.25582 0.0
H884 H 0.21242 0.66255 0.15524 0.0
H885 H 0.13754 0.7197 0.19589 0.0
H886 H 0.17457 0.73184 0.20176 0.0
H887 H 0.15181 0.69718 0.21875 0.0
C888 C 0.25927 0.72276 0.20096 0.0
C889 C 0.25653 0.70934 0.22649 0.0
C890 C 0.23644 0.7161 0.1852 0.0
C891 C 0.21042 0.69609 0.19467 0.0
C892 C 0.20724 0.6836 0.22042 0.0
H893 H 0.05833 0.59292 0.12985 0.0
H894 H 0.09436 0.62104 0.15747 0.0
C895 C 0.23013 0.69019 0.23623 0.0
C896 C 0.18775 0.68532 0.17676 0.0
H897 H 0.12054 0.6839 0.1643 0.0
C898 C 0.19242 0.66747 0.15701 0.0
C899 C 0.1617 0.69163 0.17937 0.0
C900 C 0.15603 0.71134 0.19995 0.0
C901 C 0.17142 0.65498 0.14012 0.0
C902 C 0.14529 0.66124 0.14267 0.0
C903 C 0.14068 0.67937 0.1623 0.0
C904 C 0.12208 0.64759 0.12595 0.0
C905 C 0.17709 0.6342 0.12035 0.0
C906 C 0.1253 0.65408 0.09911 0.0
C907 C 0.10487 0.63783 0.08322 0.0
C908 C 0.08075 0.61507 0.09398 0.0
C909 C 0.07677 0.61013 0.12095 0.0
C910 C 0.0973 0.62624 0.13678 0.0
H911 H 0.19538 0.62574 0.12503 0.0
H912 H 0.15853 0.61364 0.11885 0.0
H913 H 0.18175 0.64761 0.10122 0.0
H914 H 0.14404 0.671 0.09041 0.0
H915 H 0.10839 0.64243 0.06253 0.0
H916 H 0.23627 0.40459 0.69647 0.0
H917 H 0.28152 0.43679 0.67737 0.0
H918 H 0.3207 0.42378 0.74846 0.0
H919 H 0.27567 0.39031 0.76739 0.0
H920 H 0.31793 0.49099 0.69097 0.0
H921 H 0.36809 0.3952 0.69628 0.0
H922 H 0.33082 0.38817 0.70178 0.0
H923 H 0.3544 0.40251 0.72665 0.0
C924 C 0.25454 0.40842 0.70801 0.0
C925 C 0.25245 0.39453 0.73333 0.0
C926 C 0.28034 0.42698 0.69712 0.0
C927 C 0.30454 0.4321 0.71132 0.0
C928 C 0.30237 0.4195 0.73699 0.0
H929 H 0.47671 0.54182 0.66901 0.0
H930 H 0.43361 0.50962 0.6923 0.0
C931 C 0.27655 0.40074 0.74788 0.0
C932 C 0.33201 0.45036 0.69897 0.0
H933 H 0.39689 0.44549 0.68092 0.0
C934 C 0.3352 0.48106 0.68879 0.0
C935 C 0.35446 0.43725 0.69609 0.0
C936 C 0.3518 0.40389 0.70555 0.0
C937 C 0.36026 0.49903 0.67581 0.0
C938 C 0.38256 0.48585 0.67283 0.0
C939 C 0.37963 0.45539 0.68331 0.0
C940 C 0.40896 0.50337 0.65849 0.0
C941 C 0.36283 0.53204 0.66542 0.0
C942 C 0.40938 0.50967 0.63171 0.0
C943 C 0.43394 0.52785 0.61832 0.0
C944 C 0.45844 0.54012 0.63156 0.0
C945 C 0.45815 0.53284 0.65829 0.0
C946 C 0.4336 0.51447 0.67163 0.0
H947 H 0.34582 0.54064 0.67341 0.0
H948 H 0.38339 0.5481 0.66991 0.0
H949 H 0.36165 0.53286 0.64414 0.0
H950 H 0.39055 0.50095 0.62127 0.0
H951 H 0.43349 0.53302 0.59773 0.0
H952 H 0.87789 0.81249 0.81687 0.0
H953 H 0.90285 0.78159 0.84158 0.0
H954 H 0.87004 0.80476 0.91236 0.0
H955 H 0.84562 0.83673 0.88782 0.0
H956 H 0.94361 0.8031 0.88281 0.0
H957 H 0.84852 0.70581 0.91547 0.0
H958 H 0.84904 0.73262 0.88778 0.0
H959 H 0.84737 0.74491 0.91966 0.0
C960 C 0.87628 0.81157 0.83769 0.0
C961 C 0.85979 0.82742 0.85028 0.0
C962 C 0.89044 0.79364 0.85178 0.0
C963 C 0.88818 0.79074 0.87877 0.0
C964 C 0.87184 0.80646 0.89151 0.0
H965 H 0.945 0.67628 0.99406 0.0
H966 H 0.92372 0.71213 0.97081 0.0
C967 C 0.85781 0.82463 0.87742 0.0
C968 C 0.9029 0.77118 0.89351 0.0
H969 H 0.89167 0.70266 0.93086 0.0
C970 C 0.93232 0.78113 0.89335 0.0
C971 C 0.88809 0.74261 0.90726 0.0
C972 C 0.85651 0.73057 0.90755 0.0
C973 C 0.94734 0.76348 0.90694 0.0
C974 C 0.93256 0.73459 0.92044 0.0
C975 C 0.90308 0.72474 0.92055 0.0
C976 C 0.94705 0.71424 0.93477 0.0
C977 C 0.97884 0.77641 0.9072 0.0
C978 C 0.96744 0.70344 0.92238 0.0
C979 C 0.97998 0.68318 0.93579 0.0
C980 C 0.97197 0.67283 0.96174 0.0
C981 C 0.95165 0.68375 0.97409 0.0
C982 C 0.9394 0.70424 0.96079 0.0
H983 H 0.98584 0.8022 0.90297 0.0
H984 H 0.98667 0.77066 0.92611 0.0
H985 H 0.98861 0.76611 0.8921 0.0
H986 H 0.97321 0.71006 0.90216 0.0
H987 H 0.99531 0.67491 0.92563 0.0
H988 H 0.37991 0.7519 0.22774 0.0
H989 H 0.41225 0.80078 0.20881 0.0
H990 H 0.36123 0.85227 0.24251 0.0
H991 H 0.32823 0.80307 0.26076 0.0
H992 H 0.36769 0.86575 0.19309 0.0
H993 H 0.47262 0.87397 0.2285 0.0
H994 H 0.45784 0.83663 0.21635 0.0
H995 H 0.44115 0.84723 0.24399 0.0
C996 C 0.3762 0.77373 0.23192 0.0
C997 C 0.35164 0.77381 0.24567 0.0
C998 C 0.39478 0.80174 0.22117 0.0
C999 C 0.38939 0.83035 0.22442 0.0
C1000 C 0.36588 0.83053 0.23979 0.0
H1001 H 0.46763 0.00592 0.12818 0.0
H1002 H 0.44545 0.97067 0.16592 0.0
C1003 C 0.34709 0.80248 0.25024 0.0
C1004 C 0.40547 0.85895 0.20839 0.0
H1005 H 0.47171 0.90076 0.18617 0.0
C1006 C 0.39043 0.87391 0.19212 0.0
C1007 C 0.43516 0.86965 0.20701 0.0
C1008 C 0.45256 0.85618 0.22513 0.0
C1009 C 0.40423 0.89793 0.17351 0.0
C1010 C 0.4338 0.90716 0.17108 0.0
C1011 C 0.44897 0.89337 0.18806 0.0
C1012 C 0.44896 0.92898 0.14941 0.0
C1013 C 0.38718 0.91222 0.15559 0.0
C1014 C 0.45833 0.91709 0.12787 0.0
C1015 C 0.4707 0.93702 0.10629 0.0
C1016 C 0.47408 0.96927 0.10596 0.0
C1017 C 0.46522 0.98121 0.12786 0.0
C1018 C 0.45265 0.96117 0.14942 0.0
H1019 H 0.36425 0.90142 0.1593 0.0
H1020 H 0.39219 0.93762 0.15794 0.0
H1021 H 0.39275 0.90953 0.13528 0.0
H1022 H 0.45549 0.89224 0.12756 0.0
H1023 H 0.4774 0.92709 0.0898 0.0
H1024 H 0.16602 0.34019 0.69108 0.0
H1025 H 0.14225 0.3025 0.66119 0.0
H1026 H 0.14477 0.2267 0.71602 0.0
H1027 H 0.16759 0.26442 0.7463 0.0
H1028 H 0.16257 0.26303 0.63881 0.0
H1029 H 0.06572 0.19565 0.69488 0.0
H1030 H 0.08808 0.23203 0.70463 0.0
H1031 H 0.09638 0.19599 0.71223 0.0
C1032 C 0.16105 0.31544 0.69683 0.0
C1033 C 0.1685 0.30507 0.72091 0.0
C1034 C 0.14749 0.29396 0.6798 0.0
C1035 C 0.14138 0.26175 0.68647 0.0
C1036 C 0.14852 0.25138 0.71072 0.0
H1037 H 0.12864 0.11972 0.58129 0.0
H1038 H 0.14322 0.16124 0.61031 0.0
C1039 C 0.16169 0.27289 0.72794 0.0
C1040 C 0.12977 0.2392 0.66724 0.0
H1041 H 0.07882 0.17159 0.65866 0.0
C1042 C 0.14404 0.24325 0.64306 0.0
C1043 C 0.10535 0.21367 0.67259 0.0
C1044 C 0.08784 0.20926 0.6974 0.0
C1045 C 0.1351 0.22196 0.62439 0.0
C1046 C 0.1118 0.19532 0.63039 0.0
C1047 C 0.09694 0.1918 0.65422 0.0
C1048 C 0.10294 0.17043 0.6125 0.0
C1049 C 0.15064 0.22842 0.59839 0.0
C1050 C 0.0752 0.16112 0.60472 0.0
C1051 C 0.06665 0.13697 0.58848 0.0
C1052 C 0.08576 0.12182 0.57968 0.0
C1053 C 0.11352 0.1312 0.58749 0.0
C1054 C 0.12194 0.15507 0.60396 0.0
H1055 H 0.16119 0.25379 0.59402 0.0
H1056 H 0.1671 0.21625 0.59843 0.0
H1057 H 0.1363 0.22001 0.58276 0.0
H1058 H 0.06017 0.17256 0.61122 0.0
H1059 H 0.04511 0.13021 0.5828 0.0
H1060 H 0.64746 0.29012 0.48356 0.0
H1061 H 0.63276 0.33692 0.48877 0.0
H1062 H 0.59382 0.32703 0.41569 0.0
H1063 H 0.60873 0.27989 0.41025 0.0
H1064 H 0.64035 0.39597 0.44613 0.0
H1065 H 0.53273 0.32407 0.48073 0.0
H1066 H 0.56231 0.30892 0.48498 0.0
H1067 H 0.55019 0.3139 0.45334 0.0
C1068 C 0.63606 0.29812 0.46844 0.0
C1069 C 0.62905 0.28131 0.44657 0.0
C1070 C 0.62774 0.32486 0.47142 0.0
C1071 C 0.61208 0.33522 0.45271 0.0
C1072 C 0.60589 0.31927 0.43033 0.0
H1073 H 0.5251 0.4728 0.49185 0.0
H1074 H 0.53806 0.43236 0.46922 0.0
C1075 C 0.61449 0.29253 0.4272 0.0
C1076 C 0.60111 0.3617 0.45776 0.0
H1077 H 0.54526 0.37769 0.48685 0.0
C1078 C 0.6194 0.39214 0.45459 0.0
C1079 C 0.57373 0.35656 0.46861 0.0
C1080 C 0.55341 0.32416 0.47221 0.0
C1081 C 0.61133 0.41754 0.46293 0.0
C1082 C 0.5846 0.41214 0.47553 0.0
C1083 C 0.5658 0.38185 0.4774 0.0
C1084 C 0.5767 0.43696 0.48874 0.0
C1085 C 0.63171 0.44986 0.45838 0.0
C1086 C 0.59368 0.45245 0.50766 0.0
C1087 C 0.58644 0.47554 0.52044 0.0
C1088 C 0.56173 0.48337 0.51496 0.0
C1089 C 0.54426 0.46729 0.49651 0.0
C1090 C 0.55169 0.44427 0.48351 0.0
H1091 H 0.64581 0.45165 0.4411 0.0
H1092 H 0.62064 0.46798 0.45579 0.0
H1093 H 0.64508 0.45482 0.47519 0.0
H1094 H 0.61255 0.44651 0.51273 0.0
H1095 H 0.60023 0.48718 0.53474 0.0
loop_
_geom_bond_atom_site_label_1
_geom_bond_atom_site_label_2
_geom_bond_distance
_geom_bond_site_symmetry_2
_ccdc_geom_bond_type
H0 C1 0.949 . S
C1 H0 0.949 . S
C1 C2 1.395 . S
C1 C3 1.391 . S
C2 C1 1.395 . S
C2 C5 1.390 . S
C3 C1 1.391 . S
C3 C7 1.387 . S
C3 C8 1.491 . S
H4 C5 0.950 . S
C5 C2 1.390 . S
C5 H4 0.950 . S
C5 C6 1.378 . S
C6 C5 1.378 . S
C6 C7 1.409 . S
C7 C3 1.387 . S
C7 C6 1.409 . S
C7 H9 0.951 . S
C8 C3 1.491 . S
C8 C10 1.382 . S
C8 C12 1.404 . S
H9 C7 0.951 . S
C10 C8 1.382 . S
C10 C11 1.390 . S
C10 H15 0.949 . S
C11 C10 1.390 . S
C11 C16 1.399 . S
C12 C8 1.404 . S
C12 H13 0.950 . S
C12 C14 1.375 . S
H13 C12 0.950 . S
C14 C12 1.375 . S
C14 C16 1.382 . S
C14 H18 0.950 . S
H15 C10 0.949 . S
C16 C11 1.399 . S
C16 C14 1.382 . S
C16 H17 0.952 . S
H17 C16 0.952 . S
H18 C14 0.950 . S
H19 C20 0.949 . S
C20 H19 0.949 . S
C20 C21 1.395 . S
C20 C22 1.391 . S
C21 C20 1.395 . S
C21 C24 1.390 . S
C22 C20 1.391 . S
C22 C26 1.387 . S
C22 C27 1.491 . S
H23 C24 0.950 . S
C24 C21 1.390 . S
C24 H23 0.950 . S
C24 C25 1.378 . S
C25 C24 1.378 . S
C25 C26 1.409 . S
C26 C22 1.387 . S
C26 C25 1.409 . S
C26 H28 0.951 . S
C27 C22 1.491 . S
C27 C29 1.382 . S
C27 C31 1.404 . S
H28 C26 0.951 . S
C29 C27 1.382 . S
C29 C30 1.390 . S
C29 H34 0.949 . S
C30 C29 1.390 . S
C30 C35 1.399 . S
C31 C27 1.404 . S
C31 H32 0.950 . S
C31 C33 1.375 . S
H32 C31 0.950 . S
C33 C31 1.375 . S
C33 C35 1.382 . S
C33 H37 0.950 . S
H34 C29 0.949 . S
C35 C30 1.399 . S
C35 C33 1.382 . S
C35 H36 0.952 . S
H36 C35 0.952 . S
H37 C33 0.950 . S
H38 C39 0.949 . S
C39 H38 0.949 . S
C39 C40 1.395 . S
C39 C41 1.391 . S
C40 C39 1.395 . S
C40 C43 1.390 . S
C41 C39 1.391 . S
C41 C45 1.387 . S
C41 C46 1.491 . S
H42 C43 0.950 . S
C43 C40 1.390 . S
C43 H42 0.950 . S
C43 C44 1.378 . S
C44 C43 1.378 . S
C44 C45 1.409 . S
C45 C41 1.387 . S
C45 C44 1.409 . S
C45 H47 0.951 . S
C46 C41 1.491 . S
C46 C48 1.382 . S
C46 C50 1.404 . S
H47 C45 0.951 . S
C48 C46 1.382 . S
C48 C49 1.390 . S
C48 H53 0.949 . S
C49 C48 1.390 . S
C49 C54 1.399 . S
C50 C46 1.404 . S
C50 H51 0.950 . S
C50 C52 1.375 . S
H51 C50 0.950 . S
C52 C50 1.375 . S
C52 C54 1.382 . S
C52 H56 0.950 . S
H53 C48 0.949 . S
C54 C49 1.399 . S
C54 C52 1.382 . S
C54 H55 0.952 . S
H55 C54 0.952 . S
H56 C52 0.950 . S
H57 C58 0.949 . S
C58 H57 0.949 . S
C58 C59 1.395 . S
C58 C60 1.391 . S
C59 C58 1.395 . S
C59 C62 1.390 . S
C60 C58 1.391 . S
C60 C64 1.387 . S
C60 C65 1.491 . S
H61 C62 0.950 . S
C62 C59 1.390 . S
C62 H61 0.950 . S
C62 C63 1.378 . S
C63 C62 1.378 . S
C63 C64 1.409 . S
C64 C60 1.387 . S
C64 C63 1.409 . S
C64 H66 0.951 . S
C65 C60 1.491 . S
C65 C67 1.382 . S
C65 C69 1.404 . S
H66 C64 0.951 . S
C67 C65 1.382 . S
C67 C68 1.390 . S
C67 H72 0.949 . S
C68 C67 1.390 . S
C68 C73 1.399 . S
C69 C65 1.404 . S
C69 H70 0.950 . S
C69 C71 1.375 . S
H70 C69 0.950 . S
C71 C69 1.375 . S
C71 C73 1.382 . S
C71 H75 0.950 . S
H72 C67 0.949 . S
C73 C68 1.399 . S
C73 C71 1.382 . S
C73 H74 0.952 . S
H74 C73 0.952 . S
H75 C71 0.950 . S
H76 C77 0.949 . S
C77 H76 0.949 . S
C77 C78 1.395 . S
C77 C79 1.391 . S
C78 C77 1.395 . S
C78 C81 1.390 . S
C79 C77 1.391 . S
C79 C83 1.387 . S
C79 C84 1.491 . S
H80 C81 0.950 . S
C81 C78 1.390 . S
C81 H80 0.950 . S
C81 C82 1.378 . S
C82 C81 1.378 . S
C82 C83 1.409 . S
C83 C79 1.387 . S
C83 C82 1.409 . S
C83 H85 0.951 . S
C84 C79 1.491 . S
C84 C86 1.382 . S
C84 C88 1.404 . S
H85 C83 0.951 . S
C86 C84 1.382 . S
C86 C87 1.390 . S
C86 H91 0.949 . S
C87 C86 1.390 . S
C87 C92 1.399 . S
C88 C84 1.404 . S
C88 H89 0.950 . S
C88 C90 1.375 . S
H89 C88 0.950 . S
C90 C88 1.375 . S
C90 C92 1.382 . S
C90 H94 0.950 . S
H91 C86 0.949 . S
C92 C87 1.399 . S
C92 C90 1.382 . S
C92 H93 0.952 . S
H93 C92 0.952 . S
H94 C90 0.950 . S
H95 C96 0.949 . S
C96 H95 0.949 . S
C96 C97 1.395 . S
C96 C98 1.391 . S
C97 C96 1.395 . S
C97 C100 1.390 . S
C98 C96 1.391 . S
C98 C102 1.387 . S
C98 C103 1.491 . S
H99 C100 0.950 . S
C100 C97 1.390 . S
C100 H99 0.950 . S
C100 C101 1.378 . S
C101 C100 1.378 . S
C101 C102 1.409 . S
C102 C98 1.387 . S
C102 C101 1.409 . S
C102 H104 0.951 . S
C103 C98 1.491 . S
C103 C105 1.382 . S
C103 C107 1.404 . S
H104 C102 0.951 . S
C105 C103 1.382 . S
C105 C106 1.390 . S
C105 H110 0.949 . S
C106 C105 1.390 . S
C106 C111 1.399 . S
C107 C103 1.404 . S
C107 H108 0.950 . S
C107 C109 1.375 . S
H108 C107 0.950 . S
C109 C107 1.375 . S
C109 C111 1.382 . S
C109 H113 0.950 . S
H110 C105 0.949 . S
C111 C106 1.399 . S
C111 C109 1.382 . S
C111 H112 0.952 . S
H112 C111 0.952 . S
H113 C109 0.950 . S
H114 C115 0.949 . S
C115 H114 0.949 . S
C115 C116 1.395 . S
C115 C117 1.391 . S
C116 C115 1.395 . S
C116 C119 1.390 . S
C117 C115 1.391 . S
C117 C121 1.387 . S
C117 C122 1.491 . S
H118 C119 0.950 . S
C119 C116 1.390 . S
C119 H118 0.950 . S
C119 C120 1.378 . S
C120 C119 1.378 . S
C120 C121 1.409 . S
C121 C117 1.387 . S
C121 C120 1.409 . S
C121 H123 0.951 . S
C122 C117 1.491 . S
C122 C124 1.382 . S
C122 C126 1.404 . S
H123 C121 0.951 . S
C124 C122 1.382 . S
C124 C125 1.390 . S
C124 H129 0.949 . S
C125 C124 1.390 . S
C125 C130 1.399 . S
C126 C122 1.404 . S
C126 H127 0.950 . S
C126 C128 1.375 . S
H127 C126 0.950 . S
C128 C126 1.375 . S
C128 C130 1.382 . S
C128 H132 0.950 . S
H129 C124 0.949 . S
C130 C125 1.399 . S
C130 C128 1.382 . S
C130 H131 0.952 . S
H131 C130 0.952 . S
H132 C128 0.950 . S
H133 C134 0.949 . S
C134 H133 0.949 . S
C134 C135 1.395 . S
C134 C136 1.391 . S
C135 C134 1.395 . S
C135 C138 1.390 . S
C136 C134 1.391 . S
C136 C140 1.387 . S
C136 C141 1.491 . S
H137 C138 0.950 . S
C138 C135 1.390 . S
C138 H137 0.950 . S
C138 C139 1.378 . S
C139 C138 1.378 . S
C139 C140 1.409 . S
C140 C136 1.387 . S
C140 C139 1.409 . S
C140 H142 0.951 . S
C141 C136 1.491 . S
C141 C143 1.382 . S
C141 C145 1.404 . S
H142 C140 0.951 . S
C143 C141 1.382 . S
C143 C144 1.390 . S
C143 H148 0.949 . S
C144 C143 1.390 . S
C144 C149 1.399 . S
C145 C141 1.404 . S
C145 H146 0.950 . S
C145 C147 1.375 . S
H146 C145 0.950 . S
C147 C145 1.375 . S
C147 C149 1.382 . S
C147 H151 0.950 . S
H148 C143 0.949 . S
C149 C144 1.399 . S
C149 C147 1.382 . S
C149 H150 0.952 . S
H150 C149 0.952 . S
H151 C147 0.950 . S
Zn152 O158 1.969 . S
Zn152 O159 1.965 . S
Zn152 O163 2.024 . S
Zn152 O168 1.969 . S
Zn153 O160 1.969 . S
Zn153 O166 1.969 . S
Zn153 O167 1.965 1_655 S
Zn153 O169 2.024 1_545 S
C154 O155 1.229 . S
C154 O163 1.058 . S
O155 C154 1.229 . S
C156 O157 1.229 . S
C156 O169 1.058 . S
O157 C156 1.229 . S
O158 Zn152 1.969 . S
O158 C161 1.267 . S
O159 Zn152 1.965 . S
O159 C170 1.260 1_455 S
O160 Zn153 1.969 . S
O160 C170 1.258 . S
C161 O158 1.267 . S
C161 O162 1.228 . S
O162 C161 1.228 . S
O163 Zn152 2.024 . S
O163 C154 1.058 . S
C164 O165 1.228 . S
C164 O166 1.267 . S
O165 C164 1.228 . S
O166 Zn153 1.969 . S
O166 C164 1.267 . S
O167 Zn153 1.965 1_455 S
O167 C171 1.260 . S
O168 Zn152 1.969 . S
O168 C171 1.258 . S
O169 Zn153 2.024 1_565 S
O169 C156 1.058 . S
C170 O159 1.260 1_655 S
C170 O160 1.258 . S
C171 O167 1.260 . S
C171 O168 1.258 . S
Zn172 O178 1.969 . S
Zn172 O179 1.965 1_565 S
Zn172 O183 2.024 . S
Zn172 O188 1.969 . S
Zn173 O180 1.969 . S
Zn173 O186 1.969 . S
Zn173 O187 1.965 . S
Zn173 O189 2.024 . S
C174 O175 1.234 . S
C174 O183 1.066 . S
O175 C174 1.234 . S
C176 O177 1.229 . S
C176 O189 1.058 . S
O177 C176 1.229 . S
O178 Zn172 1.969 . S
O178 C181 1.267 . S
O179 Zn172 1.965 1_545 S
O179 C190 1.260 . S
O180 Zn173 1.969 . S
O180 C190 1.258 . S
C181 O178 1.267 . S
C181 O182 1.228 1_554 S
O182 C181 1.228 1_556 S
O183 Zn172 2.024 . S
O183 C174 1.066 . S
C184 O185 1.228 . S
C184 O186 1.267 . S
O185 C184 1.228 . S
O186 Zn173 1.969 . S
O186 C184 1.267 . S
O187 Zn173 1.965 . S
O187 C191 1.260 1_545 S
O188 Zn172 1.969 . S
O188 C191 1.258 . S
O189 Zn173 2.024 . S
O189 C176 1.058 . S
C190 O179 1.260 . S
C190 O180 1.258 . S
C191 O187 1.260 1_565 S
C191 O188 1.258 . S
Zn192 O198 1.969 . S
Zn192 O199 1.965 . S
Zn192 O203 2.024 . S
Zn192 O208 1.969 . S
Zn193 O200 1.969 . S
Zn193 O206 1.969 . S
Zn193 O207 1.965 . S
Zn193 O209 2.024 . S
C194 O195 1.229 . S
C194 O203 1.058 . S
O195 C194 1.229 . S
C196 O197 1.229 . S
C196 O209 1.058 . S
O197 C196 1.229 . S
O198 Zn192 1.969 . S
O198 C201 1.267 . S
O199 Zn192 1.965 . S
O199 C210 1.260 . S
O200 Zn193 1.969 . S
O200 C210 1.258 . S
C201 O198 1.267 . S
C201 O202 1.228 . S
O202 C201 1.228 . S
O203 Zn192 2.024 . S
O203 C194 1.058 . S
C204 O205 1.228 . S
C204 O206 1.267 . S
O205 C204 1.228 . S
O206 Zn193 1.969 . S
O206 C204 1.267 . S
O207 Zn193 1.965 . S
O207 C211 1.260 . S
O208 Zn192 1.969 . S
O208 C211 1.258 . S
O209 Zn193 2.024 . S
O209 C196 1.058 . S
C210 O199 1.260 . S
C210 O200 1.258 . S
C211 O207 1.260 . S
C211 O208 1.258 . S
Zn212 O218 1.969 1_655 S
Zn212 O219 1.965 1_656 S
Zn212 O223 2.024 . S
Zn212 O228 1.969 1_655 S
Zn213 O220 1.969 . S
Zn213 O226 1.969 . S
Zn213 O227 1.965 . S
Zn213 O229 2.024 . S
C214 O215 1.229 . S
C214 O223 1.058 . S
O215 C214 1.229 . S
C216 O217 1.229 . S
C216 O229 1.058 . S
O217 C216 1.229 . S
O218 Zn212 1.969 1_455 S
O218 C221 1.267 1_455 S
O219 Zn212 1.965 1_454 S
O219 C230 1.260 . S
O220 Zn213 1.969 . S
O220 C230 1.258 . S
C221 O218 1.267 1_655 S
C221 O222 1.228 . S
O222 C221 1.228 . S
O223 Zn212 2.024 . S
O223 C214 1.058 . S
C224 O225 1.228 . S
C224 O226 1.267 . S
O225 C224 1.228 . S
O226 Zn213 1.969 . S
O226 C224 1.267 . S
O227 Zn213 1.965 . S
O227 C231 1.260 1_554 S
O228 Zn212 1.969 1_455 S
O228 C231 1.258 . S
O229 Zn213 2.024 . S
O229 C216 1.058 . S
C230 O219 1.260 . S
C230 O220 1.258 . S
C231 O227 1.260 1_556 S
C231 O228 1.258 . S
H232 C240 0.929 . S
H233 C242 0.930 . S
H234 C244 0.930 . S
H235 C247 0.929 . S
H236 C250 0.930 . S
H237 C252 0.960 . S
H238 C252 0.960 . S
H239 C252 0.960 . S
C240 H232 0.929 . S
C240 C241 1.377 . S
C240 C242 1.384 . S
C241 C240 1.377 . S
C241 C247 1.390 . S
C242 H233 0.930 . S
C242 C240 1.384 . S
C242 C243 1.372 . S
C243 C242 1.372 . S
C243 C244 1.400 . S
C243 C248 1.490 . S
C244 H234 0.930 . S
C244 C243 1.400 . S
C244 C247 1.386 . S
H245 C261 0.930 . S
H246 C262 0.931 . S
C247 H235 0.929 . S
C247 C241 1.390 . S
C247 C244 1.386 . S
C248 C243 1.490 . S
C248 C250 1.395 . S
C248 C251 1.403 . S
H249 C255 0.930 . S
C250 H236 0.930 . S
C250 C248 1.395 . S
C250 C253 1.403 . S
C251 C248 1.403 . S
C251 C252 1.524 . S
C251 C255 1.400 . S
C252 H237 0.960 . S
C252 H238 0.960 . S
C252 H239 0.960 . S
C252 C251 1.524 . S
C253 C250 1.403 . S
C253 C254 1.392 . S
C253 C257 1.495 . S
C254 C253 1.392 . S
C254 C255 1.385 . S
C254 C256 1.478 . S
C255 H249 0.930 . S
C255 C251 1.400 . S
C255 C254 1.385 . S
C256 C254 1.478 . S
C256 C258 1.381 . S
C256 C262 1.383 . S
C257 C253 1.495 . S
C257 H263 0.959 . S
C257 H264 0.961 . S
C257 H265 0.960 . S
C258 C256 1.381 . S
C258 C259 1.394 . S
C258 H266 0.930 . S
C259 C258 1.394 . S
C259 C260 1.383 . S
C259 H267 0.929 . S
C260 C259 1.383 . S
C260 C261 1.377 . S
C261 H245 0.930 . S
C261 C260 1.377 . S
C261 C262 1.379 . S
C262 H246 0.931 . S
C262 C256 1.383 . S
C262 C261 1.379 . S
H263 C257 0.959 . S
H264 C257 0.961 . S
H265 C257 0.960 . S
H266 C258 0.930 . S
H267 C259 0.929 . S
H268 C276 0.929 . S
H269 C278 0.930 . S
H270 C280 0.930 . S
H271 C283 0.929 . S
H272 C286 0.930 . S
H273 C288 0.960 . S
H274 C288 0.960 . S
H275 C288 0.960 . S
C276 H268 0.929 . S
C276 C277 1.377 . S
C276 C278 1.384 . S
C277 C276 1.377 . S
C277 C283 1.390 . S
C278 H269 0.930 . S
C278 C276 1.384 . S
C278 C279 1.372 . S
C279 C278 1.372 . S
C279 C280 1.400 . S
C279 C284 1.490 . S
C280 H270 0.930 . S
C280 C279 1.400 . S
C280 C283 1.386 . S
H281 C297 0.930 . S
H282 C298 0.931 . S
C283 H271 0.929 . S
C283 C277 1.390 . S
C283 C280 1.386 . S
C284 C279 1.490 . S
C284 C286 1.395 . S
C284 C287 1.403 . S
H285 C291 0.930 . S
C286 H272 0.930 . S
C286 C284 1.395 . S
C286 C289 1.403 . S
C287 C284 1.403 . S
C287 C288 1.524 . S
C287 C291 1.400 . S
C288 H273 0.960 . S
C288 H274 0.960 . S
C288 H275 0.960 . S
C288 C287 1.524 . S
C289 C286 1.403 . S
C289 C290 1.392 . S
C289 C293 1.495 . S
C290 C289 1.392 . S
C290 C291 1.385 . S
C290 C292 1.478 . S
C291 H285 0.930 . S
C291 C287 1.400 . S
C291 C290 1.385 . S
C292 C290 1.478 . S
C292 C294 1.381 . S
C292 C298 1.383 . S
C293 C289 1.495 . S
C293 H299 0.959 . S
C293 H300 0.961 . S
C293 H301 0.960 . S
C294 C292 1.381 . S
C294 C295 1.394 . S
C294 H302 0.930 . S
C295 C294 1.394 . S
C295 C296 1.383 . S
C295 H303 0.929 . S
C296 C295 1.383 . S
C296 C297 1.377 . S
C297 H281 0.930 . S
C297 C296 1.377 . S
C297 C298 1.379 . S
C298 H282 0.931 . S
C298 C292 1.383 . S
C298 C297 1.379 . S
H299 C293 0.959 . S
H300 C293 0.961 . S
H301 C293 0.960 . S
H302 C294 0.930 . S
H303 C295 0.929 . S
H304 C312 0.929 . S
H305 C314 0.930 . S
H306 C316 0.930 . S
H307 C319 0.929 . S
H308 C322 0.930 . S
H309 C324 0.960 . S
H310 C324 0.960 . S
H311 C324 0.960 . S
C312 H304 0.929 . S
C312 C313 1.377 . S
C312 C314 1.384 . S
C313 C312 1.377 . S
C313 C319 1.390 . S
C314 H305 0.930 . S
C314 C312 1.384 . S
C314 C315 1.372 . S
C315 C314 1.372 . S
C315 C316 1.400 . S
C315 C320 1.490 . S
C316 H306 0.930 . S
C316 C315 1.400 . S
C316 C319 1.386 . S
H317 C333 0.930 . S
H318 C334 0.931 . S
C319 H307 0.929 . S
C319 C313 1.390 . S
C319 C316 1.386 . S
C320 C315 1.490 . S
C320 C322 1.395 . S
C320 C323 1.403 . S
H321 C327 0.930 . S
C322 H308 0.930 . S
C322 C320 1.395 . S
C322 C325 1.403 . S
C323 C320 1.403 . S
C323 C324 1.524 . S
C323 C327 1.400 . S
C324 H309 0.960 . S
C324 H310 0.960 . S
C324 H311 0.960 . S
C324 C323 1.524 . S
C325 C322 1.403 . S
C325 C326 1.392 . S
C325 C329 1.495 . S
C326 C325 1.392 . S
C326 C327 1.385 . S
C326 C328 1.478 . S
C327 H321 0.930 . S
C327 C323 1.400 . S
C327 C326 1.385 . S
C328 C326 1.478 . S
C328 C330 1.381 . S
C328 C334 1.383 . S
C329 C325 1.495 . S
C329 H335 0.959 . S
C329 H336 0.961 . S
C329 H337 0.960 . S
C330 C328 1.381 . S
C330 C331 1.394 . S
C330 H338 0.930 . S
C331 C330 1.394 . S
C331 C332 1.383 . S
C331 H339 0.929 . S
C332 C331 1.383 . S
C332 C333 1.377 . S
C333 H317 0.930 . S
C333 C332 1.377 . S
C333 C334 1.379 . S
C334 H318 0.931 . S
C334 C328 1.383 . S
C334 C333 1.379 . S
H335 C329 0.959 . S
H336 C329 0.961 . S
H337 C329 0.960 . S
H338 C330 0.930 . S
H339 C331 0.929 . S
H340 C348 0.929 . S
H341 C350 0.930 . S
H342 C352 0.930 . S
H343 C355 0.929 . S
H344 C358 0.930 . S
H345 C360 0.960 . S
H346 C360 0.960 . S
H347 C360 0.960 . S
C348 H340 0.929 . S
C348 C349 1.377 . S
C348 C350 1.384 . S
C349 C348 1.377 . S
C349 C355 1.390 . S
C350 H341 0.930 . S
C350 C348 1.384 . S
C350 C351 1.372 . S
C351 C350 1.372 . S
C351 C352 1.400 . S
C351 C356 1.490 . S
C352 H342 0.930 . S
C352 C351 1.400 . S
C352 C355 1.386 . S
H353 C369 0.930 . S
H354 C370 0.931 . S
C355 H343 0.929 . S
C355 C349 1.390 . S
C355 C352 1.386 . S
C356 C351 1.490 . S
C356 C358 1.395 . S
C356 C359 1.403 . S
H357 C363 0.930 . S
C358 H344 0.930 . S
C358 C356 1.395 . S
C358 C361 1.403 . S
C359 C356 1.403 . S
C359 C360 1.524 . S
C359 C363 1.400 . S
C360 H345 0.960 . S
C360 H346 0.960 . S
C360 H347 0.960 . S
C360 C359 1.524 . S
C361 C358 1.403 . S
C361 C362 1.392 . S
C361 C365 1.495 . S
C362 C361 1.392 . S
C362 C363 1.385 . S
C362 C364 1.478 . S
C363 H357 0.930 . S
C363 C359 1.400 . S
C363 C362 1.385 . S
C364 C362 1.478 . S
C364 C366 1.381 . S
C364 C370 1.383 . S
C365 C361 1.495 . S
C365 H371 0.959 . S
C365 H372 0.961 . S
C365 H373 0.960 . S
C366 C364 1.381 . S
C366 C367 1.394 1_655 S
C366 H374 0.930 . S
C367 C366 1.394 1_455 S
C367 C368 1.383 1_455 S
C367 H375 0.929 . S
C368 C367 1.383 1_655 S
C368 C369 1.377 . S
C369 H353 0.930 . S
C369 C368 1.377 . S
C369 C370 1.379 . S
C370 H354 0.931 . S
C370 C364 1.383 . S
C370 C369 1.379 . S
H371 C365 0.959 . S
H372 C365 0.961 . S
H373 C365 0.960 . S
H374 C366 0.930 . S
H375 C367 0.929 . S
H376 C384 0.929 . S
H377 C386 0.930 . S
H378 C388 0.930 . S
H379 C391 0.929 . S
H380 C394 0.930 . S
H381 C396 0.960 . S
H382 C396 0.960 . S
H383 C396 0.960 . S
C384 H376 0.929 . S
C384 C385 1.377 . S
C384 C386 1.384 . S
C385 C384 1.377 . S
C385 C391 1.390 . S
C386 H377 0.930 . S
C386 C384 1.384 . S
C386 C387 1.372 . S
C387 C386 1.372 . S
C387 C388 1.400 . S
C387 C392 1.490 . S
C388 H378 0.930 . S
C388 C387 1.400 . S
C388 C391 1.386 . S
H389 C405 0.930 . S
H390 C406 0.931 . S
C391 H379 0.929 . S
C391 C385 1.390 . S
C391 C388 1.386 . S
C392 C387 1.490 . S
C392 C394 1.395 . S
C392 C395 1.403 . S
H393 C399 0.930 . S
C394 H380 0.930 . S
C394 C392 1.395 . S
C394 C397 1.403 . S
C395 C392 1.403 . S
C395 C396 1.524 . S
C395 C399 1.400 . S
C396 H381 0.960 . S
C396 H382 0.960 . S
C396 H383 0.960 . S
C396 C395 1.524 . S
C397 C394 1.403 . S
C397 C398 1.392 . S
C397 C401 1.495 . S
C398 C397 1.392 . S
C398 C399 1.385 . S
C398 C400 1.478 . S
C399 H393 0.930 . S
C399 C395 1.400 . S
C399 C398 1.385 . S
C400 C398 1.478 . S
C400 C402 1.381 . S
C400 C406 1.383 . S
C401 C397 1.495 . S
C401 H407 0.959 . S
C401 H408 0.961 . S
C401 H409 0.960 . S
C402 C400 1.381 . S
C402 C403 1.394 . S
C402 H410 0.930 . S
C403 C402 1.394 . S
C403 C404 1.383 . S
C403 H411 0.929 . S
C404 C403 1.383 . S
C404 C405 1.377 . S
C405 H389 0.930 . S
C405 C404 1.377 . S
C405 C406 1.379 . S
C406 H390 0.931 . S
C406 C400 1.383 . S
C406 C405 1.379 . S
H407 C401 0.959 . S
H408 C401 0.961 . S
H409 C401 0.960 . S
H410 C402 0.930 . S
H411 C403 0.929 . S
H412 C420 0.929 . S
H413 C422 0.930 . S
H414 C424 0.930 . S
H415 C427 0.929 . S
H416 C430 0.930 . S
H417 C432 0.960 . S
H418 C432 0.960 . S
H419 C432 0.960 . S
C420 H412 0.929 . S
C420 C421 1.377 . S
C420 C422 1.384 . S
C421 C420 1.377 . S
C421 C427 1.390 . S
C422 H413 0.930 . S
C422 C420 1.384 . S
C422 C423 1.372 . S
C423 C422 1.372 . S
C423 C424 1.400 . S
C423 C428 1.490 . S
C424 H414 0.930 . S
C424 C423 1.400 . S
C424 C427 1.386 . S
H425 C441 0.930 . S
H426 C442 0.931 1_545 S
C427 H415 0.929 . S
C427 C421 1.390 . S
C427 C424 1.386 . S
C428 C423 1.490 . S
C428 C430 1.395 . S
C428 C431 1.403 . S
H429 C435 0.930 . S
C430 H416 0.930 . S
C430 C428 1.395 . S
C430 C433 1.403 . S
C431 C428 1.403 . S
C431 C432 1.524 . S
C431 C435 1.400 . S
C432 H417 0.960 . S
C432 H418 0.960 . S
C432 H419 0.960 . S
C432 C431 1.524 . S
C433 C430 1.403 . S
C433 C434 1.392 . S
C433 C437 1.495 . S
C434 C433 1.392 . S
C434 C435 1.385 . S
C434 C436 1.478 . S
C435 H429 0.930 . S
C435 C431 1.400 . S
C435 C434 1.385 . S
C436 C434 1.478 . S
C436 C438 1.381 . S
C436 C442 1.383 . S
C437 C433 1.495 . S
C437 H443 0.959 . S
C437 H444 0.961 . S
C437 H445 0.960 . S
C438 C436 1.381 . S
C438 C439 1.394 . S
C438 H446 0.930 . S
C439 C438 1.394 . S
C439 C440 1.383 . S
C439 H447 0.929 . S
C440 C439 1.383 . S
C440 C441 1.377 1_565 S
C441 H425 0.930 . S
C441 C440 1.377 1_545 S
C441 C442 1.379 1_545 S
C442 H426 0.931 1_565 S
C442 C436 1.383 . S
C442 C441 1.379 1_565 S
H443 C437 0.959 . S
H444 C437 0.961 . S
H445 C437 0.960 . S
H446 C438 0.930 . S
H447 C439 0.929 . S
H448 C456 0.929 . S
H449 C458 0.930 . S
H450 C460 0.930 . S
H451 C463 0.929 . S
H452 C466 0.930 . S
H453 C468 0.960 . S
H454 C468 0.960 . S
H455 C468 0.960 . S
C456 H448 0.929 . S
C456 C457 1.377 . S
C456 C458 1.384 . S
C457 C456 1.377 . S
C457 C463 1.390 . S
C458 H449 0.930 . S
C458 C456 1.384 . S
C458 C459 1.372 . S
C459 C458 1.372 . S
C459 C460 1.400 . S
C459 C464 1.490 . S
C460 H450 0.930 . S
C460 C459 1.400 . S
C460 C463 1.386 . S
H461 C477 0.930 . S
H462 C478 0.931 . S
C463 H451 0.929 . S
C463 C457 1.390 . S
C463 C460 1.386 . S
C464 C459 1.490 . S
C464 C466 1.395 . S
C464 C467 1.403 . S
H465 C471 0.930 . S
C466 H452 0.930 . S
C466 C464 1.395 . S
C466 C469 1.403 . S
C467 C464 1.403 . S
C467 C468 1.524 . S
C467 C471 1.400 . S
C468 H453 0.960 . S
C468 H454 0.960 . S
C468 H455 0.960 . S
C468 C467 1.524 . S
C469 C466 1.403 . S
C469 C470 1.392 . S
C469 C473 1.495 . S
C470 C469 1.392 . S
C470 C471 1.385 . S
C470 C472 1.478 . S
C471 H465 0.930 . S
C471 C467 1.400 . S
C471 C470 1.385 . S
C472 C470 1.478 . S
C472 C474 1.381 . S
C472 C478 1.383 . S
C473 C469 1.495 . S
C473 H479 0.959 . S
C473 H480 0.961 . S
C473 H481 0.960 . S
C474 C472 1.381 . S
C474 C475 1.394 . S
C474 H482 0.930 . S
C475 C474 1.394 . S
C475 C476 1.383 . S
C475 H483 0.929 . S
C476 C475 1.383 . S
C476 C477 1.377 . S
C477 H461 0.930 . S
C477 C476 1.377 . S
C477 C478 1.379 . S
C478 H462 0.931 . S
C478 C472 1.383 . S
C478 C477 1.379 . S
H479 C473 0.959 . S
H480 C473 0.961 . S
H481 C473 0.960 . S
H482 C474 0.930 . S
H483 C475 0.929 . S
H484 C492 0.929 . S
H485 C494 0.930 . S
H486 C496 0.930 . S
H487 C499 0.929 . S
H488 C502 0.930 . S
H489 C504 0.960 . S
H490 C504 0.960 . S
H491 C504 0.960 . S
C492 H484 0.929 . S
C492 C493 1.377 . S
C492 C494 1.384 . S
C493 C492 1.377 . S
C493 C499 1.390 . S
C494 H485 0.930 . S
C494 C492 1.384 . S
C494 C495 1.372 . S
C495 C494 1.372 . S
C495 C496 1.400 . S
C495 C500 1.490 . S
C496 H486 0.930 . S
C496 C495 1.400 . S
C496 C499 1.386 . S
H497 C513 0.930 . S
H498 C514 0.931 . S
C499 H487 0.929 . S
C499 C493 1.390 . S
C499 C496 1.386 . S
C500 C495 1.490 . S
C500 C502 1.395 . S
C500 C503 1.403 . S
H501 C507 0.930 . S
C502 H488 0.930 . S
C502 C500 1.395 . S
C502 C505 1.403 . S
C503 C500 1.403 . S
C503 C504 1.524 . S
C503 C507 1.400 . S
C504 H489 0.960 . S
C504 H490 0.960 . S
C504 H491 0.960 . S
C504 C503 1.524 . S
C505 C502 1.403 . S
C505 C506 1.392 . S
C505 C509 1.495 . S
C506 C505 1.392 . S
C506 C507 1.385 . S
C506 C508 1.478 . S
C507 H501 0.930 . S
C507 C503 1.400 . S
C507 C506 1.385 . S
C508 C506 1.478 . S
C508 C510 1.381 . S
C508 C514 1.383 . S
C509 C505 1.495 . S
C509 H515 0.959 . S
C509 H516 0.961 . S
C509 H517 0.960 . S
C510 C508 1.381 . S
C510 C511 1.394 . S
C510 H518 0.930 . S
C511 C510 1.394 . S
C511 C512 1.383 . S
C511 H519 0.929 . S
C512 C511 1.383 . S
C512 C513 1.377 . S
C513 H497 0.930 . S
C513 C512 1.377 . S
C513 C514 1.379 . S
C514 H498 0.931 . S
C514 C508 1.383 . S
C514 C513 1.379 . S
H515 C509 0.959 . S
H516 C509 0.961 . S
H517 C509 0.960 . S
H518 C510 0.930 . S
H519 C511 0.929 . S
H520 C528 0.929 . S
H521 C530 0.930 . S
H522 C532 0.930 . S
H523 C535 0.929 . S
H524 C538 0.930 . S
H525 C540 0.960 . S
H526 C540 0.960 . S
H527 C540 0.960 . S
C528 H520 0.929 . S
C528 C529 1.377 . S
C528 C530 1.384 . S
C529 C528 1.377 . S
C529 C535 1.390 . S
C530 H521 0.930 . S
C530 C528 1.384 . S
C530 C531 1.372 . S
C531 C530 1.372 . S
C531 C532 1.400 . S
C531 C536 1.490 . S
C532 H522 0.930 . S
C532 C531 1.400 . S
C532 C535 1.386 . S
H533 C549 0.930 . S
H534 C550 0.931 . S
C535 H523 0.929 . S
C535 C529 1.390 . S
C535 C532 1.386 . S
C536 C531 1.490 . S
C536 C538 1.395 . S
C536 C539 1.403 . S
H537 C543 0.930 . S
C538 H524 0.930 . S
C538 C536 1.395 . S
C538 C541 1.403 . S
C539 C536 1.403 . S
C539 C540 1.524 . S
C539 C543 1.400 . S
C540 H525 0.960 . S
C540 H526 0.960 . S
C540 H527 0.960 . S
C540 C539 1.524 . S
C541 C538 1.403 . S
C541 C542 1.392 . S
C541 C545 1.495 . S
C542 C541 1.392 . S
C542 C543 1.385 . S
C542 C544 1.478 . S
C543 H537 0.930 . S
C543 C539 1.400 . S
C543 C542 1.385 . S
C544 C542 1.478 . S
C544 C546 1.381 . S
C544 C550 1.383 . S
C545 C541 1.495 . S
C545 H551 0.959 . S
C545 H552 0.961 . S
C545 H553 0.960 . S
C546 C544 1.381 . S
C546 C547 1.394 . S
C546 H554 0.930 . S
C547 C546 1.394 . S
C547 C548 1.383 . S
C547 H555 0.929 . S
C548 C547 1.383 . S
C548 C549 1.377 . S
C549 H533 0.930 . S
C549 C548 1.377 . S
C549 C550 1.379 . S
C550 H534 0.931 . S
C550 C544 1.383 . S
C550 C549 1.379 . S
H551 C545 0.959 . S
H552 C545 0.961 . S
H553 C545 0.960 . S
H554 C546 0.930 . S
H555 C547 0.929 . S
H556 C564 0.929 . S
H557 C566 0.930 . S
H558 C568 0.930 . S
H559 C571 0.929 . S
H560 C574 0.930 . S
H561 C576 0.960 . S
H562 C576 0.960 . S
H563 C576 0.960 . S
C564 H556 0.929 . S
C564 C565 1.377 . S
C564 C566 1.384 . S
C565 C564 1.377 . S
C565 C571 1.390 . S
C566 H557 0.930 . S
C566 C564 1.384 . S
C566 C567 1.372 . S
C567 C566 1.372 . S
C567 C568 1.400 . S
C567 C572 1.490 . S
C568 H558 0.930 . S
C568 C567 1.400 . S
C568 C571 1.386 . S
H569 C585 0.930 . S
H570 C586 0.931 . S
C571 H559 0.929 . S
C571 C565 1.390 . S
C571 C568 1.386 . S
C572 C567 1.490 . S
C572 C574 1.395 . S
C572 C575 1.403 . S
H573 C579 0.930 . S
C574 H560 0.930 . S
C574 C572 1.395 . S
C574 C577 1.403 . S
C575 C572 1.403 . S
C575 C576 1.524 . S
C575 C579 1.400 . S
C576 H561 0.960 . S
C576 H562 0.960 . S
C576 H563 0.960 . S
C576 C575 1.524 . S
C577 C574 1.403 . S
C577 C578 1.392 . S
C577 C581 1.495 . S
C578 C577 1.392 . S
C578 C579 1.385 . S
C578 C580 1.478 . S
C579 H573 0.930 . S
C579 C575 1.400 . S
C579 C578 1.385 . S
C580 C578 1.478 . S
C580 C582 1.381 . S
C580 C586 1.383 1_556 S
C581 C577 1.495 . S
C581 H587 0.959 . S
C581 H588 0.961 . S
C581 H589 0.960 . S
C582 C580 1.381 . S
C582 C583 1.394 . S
C582 H590 0.930 . S
C583 C582 1.394 . S
C583 C584 1.383 1_556 S
C583 H591 0.929 . S
C584 C583 1.383 1_554 S
C584 C585 1.377 . S
C585 H569 0.930 . S
C585 C584 1.377 . S
C585 C586 1.379 . S
C586 H570 0.931 . S
C586 C580 1.383 1_554 S
C586 C585 1.379 . S
H587 C581 0.959 . S
H588 C581 0.961 . S
H589 C581 0.960 . S
H590 C582 0.930 . S
H591 C583 0.929 . S
H592 C600 0.929 . S
H593 C602 0.930 . S
H594 C604 0.930 . S
H595 C607 0.929 . S
H596 C610 0.930 . S
H597 C612 0.960 . S
H598 C612 0.960 . S
H599 C612 0.960 . S
C600 H592 0.929 . S
C600 C601 1.377 . S
C600 C602 1.384 . S
C601 C600 1.377 . S
C601 C607 1.390 . S
C602 H593 0.930 . S
C602 C600 1.384 . S
C602 C603 1.372 . S
C603 C602 1.372 . S
C603 C604 1.400 . S
C603 C608 1.490 . S
C604 H594 0.930 . S
C604 C603 1.400 . S
C604 C607 1.386 . S
H605 C621 0.930 . S
H606 C622 0.931 . S
C607 H595 0.929 . S
C607 C601 1.390 . S
C607 C604 1.386 . S
C608 C603 1.490 . S
C608 C610 1.395 . S
C608 C611 1.403 . S
H609 C615 0.930 . S
C610 H596 0.930 . S
C610 C608 1.395 . S
C610 C613 1.403 . S
C611 C608 1.403 . S
C611 C612 1.524 . S
C611 C615 1.400 . S
C612 H597 0.960 . S
C612 H598 0.960 . S
C612 H599 0.960 . S
C612 C611 1.524 . S
C613 C610 1.403 . S
C613 C614 1.392 . S
C613 C617 1.495 . S
C614 C613 1.392 . S
C614 C615 1.385 . S
C614 C616 1.478 . S
C615 H609 0.930 . S
C615 C611 1.400 . S
C615 C614 1.385 . S
C616 C614 1.478 . S
C616 C618 1.381 . S
C616 C622 1.383 . S
C617 C613 1.495 . S
C617 H623 0.959 . S
C617 H624 0.961 . S
C617 H625 0.960 . S
C618 C616 1.381 . S
C618 C619 1.394 . S
C618 H626 0.930 . S
C619 C618 1.394 . S
C619 C620 1.383 . S
C619 H627 0.929 . S
C620 C619 1.383 . S
C620 C621 1.377 . S
C621 H605 0.930 . S
C621 C620 1.377 . S
C621 C622 1.379 . S
C622 H606 0.931 . S
C622 C616 1.383 . S
C622 C621 1.379 . S
H623 C617 0.959 . S
H624 C617 0.961 . S
H625 C617 0.960 . S
H626 C618 0.930 . S
H627 C619 0.929 . S
H628 C636 0.929 . S
H629 C638 0.930 . S
H630 C640 0.930 . S
H631 C643 0.929 . S
H632 C646 0.930 . S
H633 C648 0.960 . S
H634 C648 0.960 . S
H635 C648 0.960 . S
C636 H628 0.929 . S
C636 C637 1.377 . S
C636 C638 1.384 . S
C637 C636 1.377 . S
C637 C643 1.390 . S
C638 H629 0.930 . S
C638 C636 1.384 . S
C638 C639 1.372 . S
C639 C638 1.372 . S
C639 C640 1.400 . S
C639 C644 1.490 . S
C640 H630 0.930 . S
C640 C639 1.400 . S
C640 C643 1.386 . S
H641 C657 0.930 . S
H642 C658 0.931 . S
C643 H631 0.929 . S
C643 C637 1.390 . S
C643 C640 1.386 . S
C644 C639 1.490 . S
C644 C646 1.395 . S
C644 C647 1.403 . S
H645 C651 0.930 . S
C646 H632 0.930 . S
C646 C644 1.395 . S
C646 C649 1.403 . S
C647 C644 1.403 . S
C647 C648 1.524 . S
C647 C651 1.400 . S
C648 H633 0.960 . S
C648 H634 0.960 . S
C648 H635 0.960 . S
C648 C647 1.524 . S
C649 C646 1.403 . S
C649 C650 1.392 . S
C649 C653 1.495 . S
C650 C649 1.392 . S
C650 C651 1.385 . S
C650 C652 1.478 . S
C651 H645 0.930 . S
C651 C647 1.400 . S
C651 C650 1.385 . S
C652 C650 1.478 . S
C652 C654 1.381 . S
C652 C658 1.383 . S
C653 C649 1.495 . S
C653 H659 0.959 . S
C653 H660 0.961 . S
C653 H661 0.960 . S
C654 C652 1.381 . S
C654 C655 1.394 . S
C654 H662 0.930 . S
C655 C654 1.394 . S
C655 C656 1.383 . S
C655 H663 0.929 . S
C656 C655 1.383 . S
C656 C657 1.377 . S
C657 H641 0.930 . S
C657 C656 1.377 . S
C657 C658 1.379 . S
C658 H642 0.931 . S
C658 C652 1.383 . S
C658 C657 1.379 . S
H659 C653 0.959 . S
H660 C653 0.961 . S
H661 C653 0.960 . S
H662 C654 0.930 . S
H663 C655 0.929 . S
H664 C672 0.929 . S
H665 C674 0.930 . S
H666 C676 0.930 . S
H667 C679 0.929 . S
H668 C682 0.930 . S
H669 C684 0.960 . S
H670 C684 0.960 . S
H671 C684 0.960 . S
C672 H664 0.929 . S
C672 C673 1.377 . S
C672 C674 1.384 . S
C673 C672 1.377 . S
C673 C679 1.390 . S
C674 H665 0.930 . S
C674 C672 1.384 . S
C674 C675 1.372 . S
C675 C674 1.372 . S
C675 C676 1.400 . S
C675 C680 1.490 . S
C676 H666 0.930 . S
C676 C675 1.400 . S
C676 C679 1.386 . S
H677 C693 0.930 1_545 S
H678 C694 0.931 . S
C679 H667 0.929 . S
C679 C673 1.390 . S
C679 C676 1.386 . S
C680 C675 1.490 . S
C680 C682 1.395 . S
C680 C683 1.403 . S
H681 C687 0.930 . S
C682 H668 0.930 . S
C682 C680 1.395 . S
C682 C685 1.403 . S
C683 C680 1.403 . S
C683 C684 1.524 . S
C683 C687 1.400 . S
C684 H669 0.960 . S
C684 H670 0.960 . S
C684 H671 0.960 . S
C684 C683 1.524 . S
C685 C682 1.403 . S
C685 C686 1.392 . S
C685 C689 1.495 . S
C686 C685 1.392 . S
C686 C687 1.385 . S
C686 C688 1.478 . S
C687 H681 0.930 . S
C687 C683 1.400 . S
C687 C686 1.385 . S
C688 C686 1.478 . S
C688 C690 1.381 . S
C688 C694 1.383 . S
C689 C685 1.495 . S
C689 H695 0.959 . S
C689 H696 0.961 . S
C689 H697 0.960 . S
C690 C688 1.381 . S
C690 C691 1.394 . S
C690 H698 0.930 . S
C691 C690 1.394 . S
C691 C692 1.383 . S
C691 H699 0.929 . S
C692 C691 1.383 . S
C692 C693 1.377 . S
C693 H677 0.930 1_565 S
C693 C692 1.377 . S
C693 C694 1.379 . S
C694 H678 0.931 . S
C694 C688 1.383 . S
C694 C693 1.379 . S
H695 C689 0.959 . S
H696 C689 0.961 . S
H697 C689 0.960 . S
H698 C690 0.930 . S
H699 C691 0.929 . S
H700 C708 0.929 . S
H701 C710 0.930 . S
H702 C712 0.930 . S
H703 C715 0.929 . S
H704 C718 0.930 . S
H705 C720 0.960 . S
H706 C720 0.960 . S
H707 C720 0.960 . S
C708 H700 0.929 . S
C708 C709 1.377 . S
C708 C710 1.384 . S
C709 C708 1.377 . S
C709 C715 1.390 . S
C710 H701 0.930 . S
C710 C708 1.384 . S
C710 C711 1.372 . S
C711 C710 1.372 . S
C711 C712 1.400 . S
C711 C716 1.490 . S
C712 H702 0.930 . S
C712 C711 1.400 . S
C712 C715 1.386 . S
H713 C729 0.930 . S
H714 C730 0.931 . S
C715 H703 0.929 . S
C715 C709 1.390 . S
C715 C712 1.386 . S
C716 C711 1.490 . S
C716 C718 1.395 . S
C716 C719 1.403 . S
H717 C723 0.930 . S
C718 H704 0.930 . S
C718 C716 1.395 . S
C718 C721 1.403 . S
C719 C716 1.403 . S
C719 C720 1.524 . S
C719 C723 1.400 . S
C720 H705 0.960 . S
C720 H706 0.960 . S
C720 H707 0.960 . S
C720 C719 1.524 . S
C721 C718 1.403 . S
C721 C722 1.392 . S
C721 C725 1.495 . S
C722 C721 1.392 . S
C722 C723 1.385 . S
C722 C724 1.478 . S
C723 H717 0.930 . S
C723 C719 1.400 . S
C723 C722 1.385 . S
C724 C722 1.478 . S
C724 C726 1.381 . S
C724 C730 1.383 . S
C725 C721 1.495 . S
C725 H731 0.959 . S
C725 H732 0.961 . S
C725 H733 0.960 . S
C726 C724 1.381 . S
C726 C727 1.394 . S
C726 H734 0.930 . S
C727 C726 1.394 . S
C727 C728 1.383 . S
C727 H735 0.929 . S
C728 C727 1.383 . S
C728 C729 1.377 . S
C729 H713 0.930 . S
C729 C728 1.377 . S
C729 C730 1.379 . S
C730 H714 0.931 . S
C730 C724 1.383 . S
C730 C729 1.379 . S
H731 C725 0.959 . S
H732 C725 0.961 . S
H733 C725 0.960 . S
H734 C726 0.930 . S
H735 C727 0.929 . S
H736 C744 0.929 . S
H737 C746 0.930 . S
H738 C748 0.930 . S
H739 C751 0.929 . S
H740 C754 0.930 . S
H741 C756 0.960 . S
H742 C756 0.960 . S
H743 C756 0.960 . S
C744 H736 0.929 . S
C744 C745 1.377 . S
C744 C746 1.384 . S
C745 C744 1.377 . S
C745 C751 1.390 . S
C746 H737 0.930 . S
C746 C744 1.384 . S
C746 C747 1.372 . S
C747 C746 1.372 . S
C747 C748 1.400 . S
C747 C752 1.490 . S
C748 H738 0.930 . S
C748 C747 1.400 . S
C748 C751 1.386 . S
H749 C765 0.930 . S
H750 C766 0.931 . S
C751 H739 0.929 . S
C751 C745 1.390 . S
C751 C748 1.386 . S
C752 C747 1.490 . S
C752 C754 1.395 . S
C752 C755 1.403 . S
H753 C759 0.930 . S
C754 H740 0.930 . S
C754 C752 1.395 . S
C754 C757 1.403 . S
C755 C752 1.403 . S
C755 C756 1.524 . S
C755 C759 1.400 . S
C756 H741 0.960 . S
C756 H742 0.960 . S
C756 H743 0.960 . S
C756 C755 1.524 . S
C757 C754 1.403 . S
C757 C758 1.392 . S
C757 C761 1.495 . S
C758 C757 1.392 . S
C758 C759 1.385 . S
C758 C760 1.478 . S
C759 H753 0.930 . S
C759 C755 1.400 . S
C759 C758 1.385 . S
C760 C758 1.478 . S
C760 C762 1.381 . S
C760 C766 1.383 . S
C761 C757 1.495 . S
C761 H767 0.959 . S
C761 H768 0.961 . S
C761 H769 0.960 . S
C762 C760 1.381 . S
C762 C763 1.394 . S
C762 H770 0.930 . S
C763 C762 1.394 . S
C763 C764 1.383 . S
C763 H771 0.929 . S
C764 C763 1.383 . S
C764 C765 1.377 . S
C765 H749 0.930 . S
C765 C764 1.377 . S
C765 C766 1.379 . S
C766 H750 0.931 . S
C766 C760 1.383 . S
C766 C765 1.379 . S
H767 C761 0.959 . S
H768 C761 0.961 . S
H769 C761 0.960 . S
H770 C762 0.930 . S
H771 C763 0.929 . S
H772 C780 0.929 . S
H773 C782 0.930 . S
H774 C784 0.930 . S
H775 C787 0.929 . S
H776 C790 0.930 . S
H777 C792 0.960 . S
H778 C792 0.960 . S
H779 C792 0.960 . S
C780 H772 0.929 . S
C780 C781 1.377 . S
C780 C782 1.384 . S
C781 C780 1.377 . S
C781 C787 1.390 . S
C782 H773 0.930 . S
C782 C780 1.384 . S
C782 C783 1.372 . S
C783 C782 1.372 . S
C783 C784 1.400 . S
C783 C788 1.490 . S
C784 H774 0.930 . S
C784 C783 1.400 . S
C784 C787 1.386 . S
H785 C801 0.930 . S
H786 C802 0.931 . S
C787 H775 0.929 . S
C787 C781 1.390 . S
C787 C784 1.386 . S
C788 C783 1.490 . S
C788 C790 1.395 . S
C788 C791 1.403 . S
H789 C795 0.930 . S
C790 H776 0.930 . S
C790 C788 1.395 . S
C790 C793 1.403 . S
C791 C788 1.403 . S
C791 C792 1.524 . S
C791 C795 1.400 . S
C792 H777 0.960 . S
C792 H778 0.960 . S
C792 H779 0.960 . S
C792 C791 1.524 . S
C793 C790 1.403 . S
C793 C794 1.392 . S
C793 C797 1.495 . S
C794 C793 1.392 . S
C794 C795 1.385 . S
C794 C796 1.478 . S
C795 H789 0.930 . S
C795 C791 1.400 . S
C795 C794 1.385 . S
C796 C794 1.478 . S
C796 C798 1.381 . S
C796 C802 1.383 . S
C797 C793 1.495 . S
C797 H803 0.959 . S
C797 H804 0.961 . S
C797 H805 0.960 . S
C798 C796 1.381 . S
C798 C799 1.394 . S
C798 H806 0.930 . S
C799 C798 1.394 . S
C799 C800 1.383 . S
C799 H807 0.929 . S
C800 C799 1.383 . S
C800 C801 1.377 . S
C801 H785 0.930 . S
C801 C800 1.377 . S
C801 C802 1.379 . S
C802 H786 0.931 . S
C802 C796 1.383 . S
C802 C801 1.379 . S
H803 C797 0.959 . S
H804 C797 0.961 . S
H805 C797 0.960 . S
H806 C798 0.930 . S
H807 C799 0.929 . S
H808 C816 0.929 . S
H809 C818 0.930 . S
H810 C820 0.930 . S
H811 C823 0.929 . S
H812 C826 0.930 . S
H813 C828 0.960 . S
H814 C828 0.960 . S
H815 C828 0.960 . S
C816 H808 0.929 . S
C816 C817 1.377 . S
C816 C818 1.384 . S
C817 C816 1.377 . S
C817 C823 1.390 . S
C818 H809 0.930 . S
C818 C816 1.384 . S
C818 C819 1.372 . S
C819 C818 1.372 . S
C819 C820 1.400 . S
C819 C824 1.490 . S
C820 H810 0.930 . S
C820 C819 1.400 . S
C820 C823 1.386 . S
H821 C837 0.930 1_545 S
H822 C838 0.931 . S
C823 H811 0.929 . S
C823 C817 1.390 . S
C823 C820 1.386 . S
C824 C819 1.490 . S
C824 C826 1.395 . S
C824 C827 1.403 . S
H825 C831 0.930 . S
C826 H812 0.930 . S
C826 C824 1.395 . S
C826 C829 1.403 . S
C827 C824 1.403 . S
C827 C828 1.524 . S
C827 C831 1.400 . S
C828 H813 0.960 . S
C828 H814 0.960 . S
C828 H815 0.960 . S
C828 C827 1.524 . S
C829 C826 1.403 . S
C829 C830 1.392 . S
C829 C833 1.495 . S
C830 C829 1.392 . S
C830 C831 1.385 . S
C830 C832 1.478 . S
C831 H825 0.930 . S
C831 C827 1.400 . S
C831 C830 1.385 . S
C832 C830 1.478 . S
C832 C834 1.381 . S
C832 C838 1.383 . S
C833 C829 1.495 . S
C833 H839 0.959 1_556 S
C833 H840 0.961 1_556 S
C833 H841 0.960 1_556 S
C834 C832 1.381 . S
C834 C835 1.394 1_556 S
C834 H842 0.930 . S
C835 C834 1.394 1_554 S
C835 C836 1.383 . S
C835 H843 0.929 . S
C836 C835 1.383 . S
C836 C837 1.377 1_554 S
C837 H821 0.930 1_565 S
C837 C836 1.377 1_556 S
C837 C838 1.379 . S
C838 H822 0.931 . S
C838 C832 1.383 . S
C838 C837 1.379 . S
H839 C833 0.959 1_554 S
H840 C833 0.961 1_554 S
H841 C833 0.960 1_554 S
H842 C834 0.930 . S
H843 C835 0.929 . S
H844 C852 0.929 . S
H845 C854 0.930 . S
H846 C856 0.930 . S
H847 C859 0.929 . S
H848 C862 0.930 . S
H849 C864 0.960 . S
H850 C864 0.960 . S
H851 C864 0.960 . S
C852 H844 0.929 . S
C852 C853 1.377 . S
C852 C854 1.384 . S
C853 C852 1.377 . S
C853 C859 1.390 . S
C854 H845 0.930 . S
C854 C852 1.384 . S
C854 C855 1.372 . S
C855 C854 1.372 . S
C855 C856 1.400 . S
C855 C860 1.490 . S
C856 H846 0.930 . S
C856 C855 1.400 . S
C856 C859 1.386 . S
H857 C873 0.930 . S
H858 C874 0.931 . S
C859 H847 0.929 . S
C859 C853 1.390 . S
C859 C856 1.386 . S
C860 C855 1.490 . S
C860 C862 1.395 . S
C860 C863 1.403 . S
H861 C867 0.930 . S
C862 H848 0.930 . S
C862 C860 1.395 . S
C862 C865 1.403 . S
C863 C860 1.403 . S
C863 C864 1.524 . S
C863 C867 1.400 . S
C864 H849 0.960 . S
C864 H850 0.960 . S
C864 H851 0.960 . S
C864 C863 1.524 . S
C865 C862 1.403 . S
C865 C866 1.392 . S
C865 C869 1.495 . S
C866 C865 1.392 . S
C866 C867 1.385 . S
C866 C868 1.478 . S
C867 H861 0.930 . S
C867 C863 1.400 . S
C867 C866 1.385 . S
C868 C866 1.478 . S
C868 C870 1.381 . S
C868 C874 1.383 . S
C869 C865 1.495 . S
C869 H875 0.959 . S
C869 H876 0.961 . S
C869 H877 0.960 . S
C870 C868 1.381 . S
C870 C871 1.394 . S
C870 H878 0.930 . S
C871 C870 1.394 . S
C871 C872 1.383 . S
C871 H879 0.929 . S
C872 C871 1.383 . S
C872 C873 1.377 . S
C873 H857 0.930 . S
C873 C872 1.377 . S
C873 C874 1.379 . S
C874 H858 0.931 . S
C874 C868 1.383 . S
C874 C873 1.379 . S
H875 C869 0.959 . S
H876 C869 0.961 . S
H877 C869 0.960 . S
H878 C870 0.930 . S
H879 C871 0.929 . S
H880 C888 0.929 . S
H881 C890 0.930 . S
H882 C892 0.930 . S
H883 C895 0.929 . S
H884 C898 0.930 . S
H885 C900 0.960 . S
H886 C900 0.960 . S
H887 C900 0.960 . S
C888 H880 0.929 . S
C888 C889 1.377 . S
C888 C890 1.384 . S
C889 C888 1.377 . S
C889 C895 1.390 . S
C890 H881 0.930 . S
C890 C888 1.384 . S
C890 C891 1.372 . S
C891 C890 1.372 . S
C891 C892 1.400 . S
C891 C896 1.490 . S
C892 H882 0.930 . S
C892 C891 1.400 . S
C892 C895 1.386 . S
H893 C909 0.930 . S
H894 C910 0.931 . S
C895 H883 0.929 . S
C895 C889 1.390 . S
C895 C892 1.386 . S
C896 C891 1.490 . S
C896 C898 1.395 . S
C896 C899 1.403 . S
H897 C903 0.930 . S
C898 H884 0.930 . S
C898 C896 1.395 . S
C898 C901 1.403 . S
C899 C896 1.403 . S
C899 C900 1.524 . S
C899 C903 1.400 . S
C900 H885 0.960 . S
C900 H886 0.960 . S
C900 H887 0.960 . S
C900 C899 1.524 . S
C901 C898 1.403 . S
C901 C902 1.392 . S
C901 C905 1.495 . S
C902 C901 1.392 . S
C902 C903 1.385 . S
C902 C904 1.478 . S
C903 H897 0.930 . S
C903 C899 1.400 . S
C903 C902 1.385 . S
C904 C902 1.478 . S
C904 C906 1.381 . S
C904 C910 1.383 . S
C905 C901 1.495 . S
C905 H911 0.959 . S
C905 H912 0.961 . S
C905 H913 0.960 . S
C906 C904 1.381 . S
C906 C907 1.394 . S
C906 H914 0.930 . S
C907 C906 1.394 . S
C907 C908 1.383 . S
C907 H915 0.929 . S
C908 C907 1.383 . S
C908 C909 1.377 . S
C909 H893 0.930 . S
C909 C908 1.377 . S
C909 C910 1.379 . S
C910 H894 0.931 . S
C910 C904 1.383 . S
C910 C909 1.379 . S
H911 C905 0.959 . S
H912 C905 0.961 . S
H913 C905 0.960 . S
H914 C906 0.930 . S
H915 C907 0.929 . S
H916 C924 0.929 . S
H917 C926 0.930 . S
H918 C928 0.930 . S
H919 C931 0.929 . S
H920 C934 0.930 . S
H921 C936 0.960 . S
H922 C936 0.960 . S
H923 C936 0.960 . S
C924 H916 0.929 . S
C924 C925 1.377 . S
C924 C926 1.384 . S
C925 C924 1.377 . S
C925 C931 1.390 . S
C926 H917 0.930 . S
C926 C924 1.384 . S
C926 C927 1.372 . S
C927 C926 1.372 . S
C927 C928 1.400 . S
C927 C932 1.490 . S
C928 H918 0.930 . S
C928 C927 1.400 . S
C928 C931 1.386 . S
H929 C945 0.930 . S
H930 C946 0.931 . S
C931 H919 0.929 . S
C931 C925 1.390 . S
C931 C928 1.386 . S
C932 C927 1.490 . S
C932 C934 1.395 . S
C932 C935 1.403 . S
H933 C939 0.930 . S
C934 H920 0.930 . S
C934 C932 1.395 . S
C934 C937 1.403 . S
C935 C932 1.403 . S
C935 C936 1.524 . S
C935 C939 1.400 . S
C936 H921 0.960 . S
C936 H922 0.960 . S
C936 H923 0.960 . S
C936 C935 1.524 . S
C937 C934 1.403 . S
C937 C938 1.392 . S
C937 C941 1.495 . S
C938 C937 1.392 . S
C938 C939 1.385 . S
C938 C940 1.478 . S
C939 H933 0.930 . S
C939 C935 1.400 . S
C939 C938 1.385 . S
C940 C938 1.478 . S
C940 C942 1.381 . S
C940 C946 1.383 . S
C941 C937 1.495 . S
C941 H947 0.959 . S
C941 H948 0.961 . S
C941 H949 0.960 . S
C942 C940 1.381 . S
C942 C943 1.394 . S
C942 H950 0.930 . S
C943 C942 1.394 . S
C943 C944 1.383 . S
C943 H951 0.929 . S
C944 C943 1.383 . S
C944 C945 1.377 . S
C945 H929 0.930 . S
C945 C944 1.377 . S
C945 C946 1.379 . S
C946 H930 0.931 . S
C946 C940 1.383 . S
C946 C945 1.379 . S
H947 C941 0.959 . S
H948 C941 0.961 . S
H949 C941 0.960 . S
H950 C942 0.930 . S
H951 C943 0.929 . S
H952 C960 0.929 . S
H953 C962 0.930 . S
H954 C964 0.930 . S
H955 C967 0.929 . S
H956 C970 0.930 . S
H957 C972 0.960 . S
H958 C972 0.960 . S
H959 C972 0.960 . S
C960 H952 0.929 . S
C960 C961 1.377 . S
C960 C962 1.384 . S
C961 C960 1.377 . S
C961 C967 1.390 . S
C962 H953 0.930 . S
C962 C960 1.384 . S
C962 C963 1.372 . S
C963 C962 1.372 . S
C963 C964 1.400 . S
C963 C968 1.490 . S
C964 H954 0.930 . S
C964 C963 1.400 . S
C964 C967 1.386 . S
H965 C981 0.930 . S
H966 C982 0.931 . S
C967 H955 0.929 . S
C967 C961 1.390 . S
C967 C964 1.386 . S
C968 C963 1.490 . S
C968 C970 1.395 . S
C968 C971 1.403 . S
H969 C975 0.930 . S
C970 H956 0.930 . S
C970 C968 1.395 . S
C970 C973 1.403 . S
C971 C968 1.403 . S
C971 C972 1.524 . S
C971 C975 1.400 . S
C972 H957 0.960 . S
C972 H958 0.960 . S
C972 H959 0.960 . S
C972 C971 1.524 . S
C973 C970 1.403 . S
C973 C974 1.392 . S
C973 C977 1.495 . S
C974 C973 1.392 . S
C974 C975 1.385 . S
C974 C976 1.478 . S
C975 H969 0.930 . S
C975 C971 1.400 . S
C975 C974 1.385 . S
C976 C974 1.478 . S
C976 C978 1.381 . S
C976 C982 1.383 . S
C977 C973 1.495 . S
C977 H983 0.959 . S
C977 H984 0.961 . S
C977 H985 0.960 . S
C978 C976 1.381 . S
C978 C979 1.394 . S
C978 H986 0.930 . S
C979 C978 1.394 . S
C979 C980 1.383 . S
C979 H987 0.929 . S
C980 C979 1.383 . S
C980 C981 1.377 . S
C981 H965 0.930 . S
C981 C980 1.377 . S
C981 C982 1.379 . S
C982 H966 0.931 . S
C982 C976 1.383 . S
C982 C981 1.379 . S
H983 C977 0.959 . S
H984 C977 0.961 . S
H985 C977 0.960 . S
H986 C978 0.930 . S
H987 C979 0.929 . S
H988 C996 0.929 . S
H989 C998 0.930 . S
H990 C1000 0.930 . S
H991 C1003 0.929 . S
H992 C1006 0.930 . S
H993 C1008 0.960 . S
H994 C1008 0.960 . S
H995 C1008 0.960 . S
C996 H988 0.929 . S
C996 C997 1.377 . S
C996 C998 1.384 . S
C997 C996 1.377 . S
C997 C1003 1.390 . S
C998 H989 0.930 . S
C998 C996 1.384 . S
C998 C999 1.372 . S
C999 C998 1.372 . S
C999 C1000 1.400 . S
C999 C1004 1.490 . S
C1000 H990 0.930 . S
C1000 C999 1.400 . S
C1000 C1003 1.386 . S
H1001 C1017 0.930 . S
H1002 C1018 0.931 . S
C1003 H991 0.929 . S
C1003 C997 1.390 . S
C1003 C1000 1.386 . S
C1004 C999 1.490 . S
C1004 C1006 1.395 . S
C1004 C1007 1.403 . S
H1005 C1011 0.930 . S
C1006 H992 0.930 . S
C1006 C1004 1.395 . S
C1006 C1009 1.403 . S
C1007 C1004 1.403 . S
C1007 C1008 1.524 . S
C1007 C1011 1.400 . S
C1008 H993 0.960 . S
C1008 H994 0.960 . S
C1008 H995 0.960 . S
C1008 C1007 1.524 . S
C1009 C1006 1.403 . S
C1009 C1010 1.392 . S
C1009 C1013 1.495 . S
C1010 C1009 1.392 . S
C1010 C1011 1.385 . S
C1010 C1012 1.478 . S
C1011 H1005 0.930 . S
C1011 C1007 1.400 . S
C1011 C1010 1.385 . S
C1012 C1010 1.478 . S
C1012 C1014 1.381 . S
C1012 C1018 1.383 . S
C1013 C1009 1.495 . S
C1013 H1019 0.959 . S
C1013 H1020 0.961 . S
C1013 H1021 0.960 . S
C1014 C1012 1.381 . S
C1014 C1015 1.394 . S
C1014 H1022 0.930 . S
C1015 C1014 1.394 . S
C1015 C1016 1.383 . S
C1015 H1023 0.929 . S
C1016 C1015 1.383 . S
C1016 C1017 1.377 . S
C1017 H1001 0.930 . S
C1017 C1016 1.377 . S
C1017 C1018 1.379 . S
C1018 H1002 0.931 . S
C1018 C1012 1.383 . S
C1018 C1017 1.379 . S
H1019 C1013 0.959 . S
H1020 C1013 0.961 . S
H1021 C1013 0.960 . S
H1022 C1014 0.930 . S
H1023 C1015 0.929 . S
H1024 C1032 0.929 . S
H1025 C1034 0.930 . S
H1026 C1036 0.930 . S
H1027 C1039 0.929 . S
H1028 C1042 0.930 . S
H1029 C1044 0.960 . S
H1030 C1044 0.960 . S
H1031 C1044 0.960 . S
C1032 H1024 0.929 . S
C1032 C1033 1.377 . S
C1032 C1034 1.384 . S
C1033 C1032 1.377 . S
C1033 C1039 1.390 . S
C1034 H1025 0.930 . S
C1034 C1032 1.384 . S
C1034 C1035 1.372 . S
C1035 C1034 1.372 . S
C1035 C1036 1.400 . S
C1035 C1040 1.490 . S
C1036 H1026 0.930 . S
C1036 C1035 1.400 . S
C1036 C1039 1.386 . S
H1037 C1053 0.930 . S
H1038 C1054 0.931 . S
C1039 H1027 0.929 . S
C1039 C1033 1.390 . S
C1039 C1036 1.386 . S
C1040 C1035 1.490 . S
C1040 C1042 1.395 . S
C1040 C1043 1.403 . S
H1041 C1047 0.930 . S
C1042 H1028 0.930 . S
C1042 C1040 1.395 . S
C1042 C1045 1.403 . S
C1043 C1040 1.403 . S
C1043 C1044 1.524 . S
C1043 C1047 1.400 . S
C1044 H1029 0.960 . S
C1044 H1030 0.960 . S
C1044 H1031 0.960 . S
C1044 C1043 1.524 . S
C1045 C1042 1.403 . S
C1045 C1046 1.392 . S
C1045 C1049 1.495 . S
C1046 C1045 1.392 . S
C1046 C1047 1.385 . S
C1046 C1048 1.478 . S
C1047 H1041 0.930 . S
C1047 C1043 1.400 . S
C1047 C1046 1.385 . S
C1048 C1046 1.478 . S
C1048 C1050 1.381 . S
C1048 C1054 1.383 . S
C1049 C1045 1.495 . S
C1049 H1055 0.959 . S
C1049 H1056 0.961 . S
C1049 H1057 0.960 . S
C1050 C1048 1.381 . S
C1050 C1051 1.394 . S
C1050 H1058 0.930 . S
C1051 C1050 1.394 . S
C1051 C1052 1.383 . S
C1051 H1059 0.929 . S
C1052 C1051 1.383 . S
C1052 C1053 1.377 . S
C1053 H1037 0.930 . S
C1053 C1052 1.377 . S
C1053 C1054 1.379 . S
C1054 H1038 0.931 . S
C1054 C1048 1.383 . S
C1054 C1053 1.379 . S
H1055 C1049 0.959 . S
H1056 C1049 0.961 . S
H1057 C1049 0.960 . S
H1058 C1050 0.930 . S
H1059 C1051 0.929 . S
H1060 C1068 0.929 . S
H1061 C1070 0.930 . S
H1062 C1072 0.930 . S
H1063 C1075 0.929 . S
H1064 C1078 0.930 . S
H1065 C1080 0.960 . S
H1066 C1080 0.960 . S
H1067 C1080 0.960 . S
C1068 H1060 0.929 . S
C1068 C1069 1.377 . S
C1068 C1070 1.384 . S
C1069 C1068 1.377 . S
C1069 C1075 1.390 . S
C1070 H1061 0.930 . S
C1070 C1068 1.384 . S
C1070 C1071 1.372 . S
C1071 C1070 1.372 . S
C1071 C1072 1.400 . S
C1071 C1076 1.490 . S
C1072 H1062 0.930 . S
C1072 C1071 1.400 . S
C1072 C1075 1.386 . S
H1073 C1089 0.930 . S
H1074 C1090 0.931 . S
C1075 H1063 0.929 . S
C1075 C1069 1.390 . S
C1075 C1072 1.386 . S
C1076 C1071 1.490 . S
C1076 C1078 1.395 . S
C1076 C1079 1.403 . S
H1077 C1083 0.930 . S
C1078 H1064 0.930 . S
C1078 C1076 1.395 . S
C1078 C1081 1.403 . S
C1079 C1076 1.403 . S
C1079 C1080 1.524 . S
C1079 C1083 1.400 . S
C1080 H1065 0.960 . S
C1080 H1066 0.960 . S
C1080 H1067 0.960 . S
C1080 C1079 1.524 . S
C1081 C1078 1.403 . S
C1081 C1082 1.392 . S
C1081 C1085 1.495 . S
C1082 C1081 1.392 . S
C1082 C1083 1.385 . S
C1082 C1084 1.478 . S
C1083 H1077 0.930 . S
C1083 C1079 1.400 . S
C1083 C1082 1.385 . S
C1084 C1082 1.478 . S
C1084 C1086 1.381 . S
C1084 C1090 1.383 . S
C1085 C1081 1.495 . S
C1085 H1091 0.959 . S
C1085 H1092 0.961 . S
C1085 H1093 0.960 . S
C1086 C1084 1.381 . S
C1086 C1087 1.394 . S
C1086 H1094 0.930 . S
C1087 C1086 1.394 . S
C1087 C1088 1.383 . S
C1087 H1095 0.929 . S
C1088 C1087 1.383 . S
C1088 C1089 1.377 . S
C1089 H1073 0.930 . S
C1089 C1088 1.377 . S
C1089 C1090 1.379 . S
C1090 H1074 0.931 . S
C1090 C1084 1.383 . S
C1090 C1089 1.379 . S
H1091 C1085 0.959 . S
H1092 C1085 0.961 . S
H1093 C1085 0.960 . S
H1094 C1086 0.930 . S
H1095 C1087 0.929 . S
C241 C6 1.772 . S
C260 C171 1.773 . S
C277 C21 1.851 . S
C296 C174 1.764 1_556 S
C332 C210 0.945 . S
C313 C49 0.941 . S
C349 C68 1.374 . S
C368 C230 1.392 1_655 S
C404 C184 2.570 . S
C385 C2 2.573 . S
C440 C161 1.212 1_565 S
C421 C30 1.157 . S
C476 C214 1.258 . S
C457 C40 1.298 . S
C512 C194 1.120 . S
C493 C63 1.285 . S
C529 C11 1.329 . S
C548 C224 1.387 . S
C584 C190 1.856 . S
C565 C44 1.865 . S
C601 C59 1.309 . S
C620 C156 1.301 . S
C637 C25 1.634 . S
C656 C204 1.580 . S
C692 C170 1.940 1_565 S
C673 C82 1.956 . S
C709 C101 1.511 . S
C728 C176 1.465 . S
C745 C125 1.407 . S
C764 C211 1.477 . S
C781 C144 1.050 . S
C800 C231 1.094 . S
C817 C87 1.427 . S
C836 C181 1.477 . S
C872 C164 2.386 . S
C853 C97 2.390 . S
C908 C216 1.221 . S
C889 C120 1.398 . S
C944 C196 1.164 . S
C925 C135 1.200 . S
C961 C78 1.775 . S
C980 C221 1.690 . S
C1016 C191 1.250 . S
C997 C116 1.258 . S
C1052 C154 1.842 . S
C1033 C139 1.918 . S
C1069 C106 1.191 . S
C1088 C201 1.249 . S
