# Generated by pormake.
# Topology cml, (3,6)-cn, num edge types: 1
# Building blocks:
#     Node 0, Type 0, BuildingBlock: BETDAH_clean_linker_0, # of connection points: 3
#     Node 1, Type 0, BuildingBlock: BETDAH_clean_linker_0, # of connection points: 3
#     Node 2, Type 0, BuildingBlock: BETDAH_clean_linker_0, # of connection points: 3
#     Node 3, Type 0, BuildingBlock: BETDAH_clean_linker_0, # of connection points: 3
#     Node 4, Type 0, BuildingBlock: BETDAH_clean_linker_0, # of connection points: 3
#     Node 5, Type 0, BuildingBlock: BETDAH_clean_linker_0, # of connection points: 3
#     Node 6, Type 0, BuildingBlock: BETDAH_clean_linker_0, # of connection points: 3
#     Node 7, Type 0, BuildingBlock: BETDAH_clean_linker_0, # of connection points: 3
#     Node 8, Type 1, BuildingBlock: OJICUG_clean_sbu_0, # of connection points: 6
#     Node 9, Type 1, BuildingBlock: OJICUG_clean_sbu_0, # of connection points: 6
#     Node 10, Type 1, BuildingBlock: OJICUG_clean_sbu_0, # of connection points: 6
#     Node 11, Type 1, BuildingBlock: OJICUG_clean_sbu_0, # of connection points: 6
#     Edge 12, Type (0, 1), BuildingBlock: ZUJKAS_clean_linker_0, # of connection points: 2
#     Edge 13, Type (0, 1), BuildingBlock: ZUJKAS_clean_linker_0, # of connection points: 2
#     Edge 14, Type (0, 1), BuildingBlock: ZUJKAS_clean_linker_0, # of connection points: 2
#     Edge 15, Type (0, 1), BuildingBlock: ZUJKAS_clean_linker_0, # of connection points: 2
#     Edge 16, Type (0, 1), BuildingBlock: ZUJKAS_clean_linker_0, # of connection points: 2
#     Edge 17, Type (0, 1), BuildingBlock: ZUJKAS_clean_linker_0, # of connection points: 2
#     Edge 18, Type (0, 1), BuildingBlock: ZUJKAS_clean_linker_0, # of connection points: 2
#     Edge 19, Type (0, 1), BuildingBlock: ZUJKAS_clean_linker_0, # of connection points: 2
#     Edge 20, Type (0, 1), BuildingBlock: ZUJKAS_clean_linker_0, # of connection points: 2
#     Edge 21, Type (0, 1), BuildingBlock: ZUJKAS_clean_linker_0, # of connection points: 2
#     Edge 22, Type (0, 1), BuildingBlock: ZUJKAS_clean_linker_0, # of connection points: 2
#     Edge 23, Type (0, 1), BuildingBlock: ZUJKAS_clean_linker_0, # of connection points: 2
#     Edge 24, Type (0, 1), BuildingBlock: ZUJKAS_clean_linker_0, # of connection points: 2
#     Edge 25, Type (0, 1), BuildingBlock: ZUJKAS_clean_linker_0, # of connection points: 2
#     Edge 26, Type (0, 1), BuildingBlock: ZUJKAS_clean_linker_0, # of connection points: 2
#     Edge 27, Type (0, 1), BuildingBlock: ZUJKAS_clean_linker_0, # of connection points: 2
#     Edge 28, Type (0, 1), BuildingBlock: ZUJKAS_clean_linker_0, # of connection points: 2
#     Edge 29, Type (0, 1), BuildingBlock: ZUJKAS_clean_linker_0, # of connection points: 2
#     Edge 30, Type (0, 1), BuildingBlock: ZUJKAS_clean_linker_0, # of connection points: 2
#     Edge 31, Type (0, 1), BuildingBlock: ZUJKAS_clean_linker_0, # of connection points: 2
#     Edge 32, Type (0, 1), BuildingBlock: ZUJKAS_clean_linker_0, # of connection points: 2
#     Edge 33, Type (0, 1), BuildingBlock: ZUJKAS_clean_linker_0, # of connection points: 2
#     Edge 34, Type (0, 1), BuildingBlock: ZUJKAS_clean_linker_0, # of connection points: 2
#     Edge 35, Type (0, 1), BuildingBlock: ZUJKAS_clean_linker_0, # of connection points: 2
# Relax obj value: 0.007
# Max RMSD: 0.053
# Mean RMSD: 0.044
data_MOF--net-cml--node1-OJICUG_clean_sbu_0--node2-BETDAH_clean_linker_0--edge1-ZUJKAS_clean_linker_0
_symmetry_space_group_name_H-M    P1
_symmetry_Int_Tables_number       1
_symmetry_cell_setting            triclinic
loop_
_symmetry_equiv_pos_as_xyz
'x, y, z'
_cell_length_a     52.340493
_cell_length_b     51.088813
_cell_length_c     45.68133
_cell_angle_alpha  89.39041
_cell_angle_beta   90.606359
_cell_angle_gamma 90.763836
loop_
_atom_site_label
_atom_site_type_symbol
_atom_site_fract_x
_atom_site_fract_y
_atom_site_fract_z
_atom_type_partial_charge
H0 H 0.32224 0.41571 0.02901 0.0
H1 H 0.28236 0.38478 0.95373 0.0
H2 H 0.29645 0.33545 0.02841 0.0
C3 C 0.31159 0.39997 0.01859 0.0
C4 C 0.30973 0.37552 0.03282 0.0
C5 C 0.30186 0.40366 0.99004 0.0
C6 C 0.28953 0.38257 0.97595 0.0
C7 C 0.28773 0.35806 0.98993 0.0
C8 C 0.2978 0.35463 0.01813 0.0
N9 N 0.2786 0.33587 0.9747 0.0
C10 C 0.25347 0.33334 0.96523 0.0
H11 H 0.67942 0.5973 0.51598 0.0
H12 H 0.75455 0.59704 0.4779 0.0
H13 H 0.74203 0.63651 0.55893 0.0
C14 C 0.69925 0.60368 0.5159 0.0
C15 C 0.70846 0.61875 0.53929 0.0
C16 C 0.71559 0.59542 0.49362 0.0
C17 C 0.74155 0.60317 0.49472 0.0
C18 C 0.75098 0.61796 0.5184 0.0
C19 C 0.73451 0.62528 0.54069 0.0
N20 N 0.77731 0.62406 0.52159 0.0
C21 C 0.79211 0.63493 0.49942 0.0
H22 H 0.67444 0.41203 0.00902 0.0
H23 H 0.74225 0.4241 0.95805 0.0
H24 H 0.74508 0.3764 0.03602 0.0
C25 C 0.69444 0.40814 0.00521 0.0
C26 C 0.70819 0.39292 0.02558 0.0
C27 C 0.70643 0.41942 0.98074 0.0
C28 C 0.73253 0.41508 0.97649 0.0
C29 C 0.74622 0.39899 0.99592 0.0
C30 C 0.73406 0.38781 0.02038 0.0
N31 N 0.7728 0.39624 0.99218 0.0
C32 C 0.78319 0.37304 0.98268 0.0
H33 H 0.31929 0.57052 0.54166 0.0
H34 H 0.25312 0.61888 0.53152 0.0
H35 H 0.27332 0.56604 0.46321 0.0
C36 C 0.30291 0.57671 0.52877 0.0
C37 C 0.29853 0.56595 0.50101 0.0
C38 C 0.28669 0.59581 0.53992 0.0
C39 C 0.26566 0.60414 0.52303 0.0
C40 C 0.26064 0.59288 0.49552 0.0
C41 C 0.27702 0.5739 0.4848 0.0
N42 N 0.2394 0.60006 0.47785 0.0
C43 C 0.22477 0.62211 0.48208 0.0
H44 H 0.83021 0.89218 0.02089 0.0
H45 H 0.75712 0.89805 0.97761 0.0
H46 H 0.76439 0.85282 0.05699 0.0
C47 C 0.81025 0.8864 0.01932 0.0
C48 C 0.7995 0.87056 0.04138 0.0
C49 C 0.79524 0.89641 0.99624 0.0
C50 C 0.76902 0.89012 0.99502 0.0
C51 C 0.75803 0.87433 0.01706 0.0
C52 C 0.77321 0.86489 0.04017 0.0
N53 N 0.73145 0.86898 0.01765 0.0
C54 C 0.71751 0.86076 0.99336 0.0
H55 H 0.17877 0.10269 0.53627 0.0
H56 H 0.2073 0.13413 0.45506 0.0
H57 H 0.21454 0.17904 0.5336 0.0
C58 C 0.18889 0.11798 0.52432 0.0
C59 C 0.19669 0.14085 0.53891 0.0
C60 C 0.1925 0.11527 0.49409 0.0
C61 C 0.20513 0.13541 0.47856 0.0
C62 C 0.21343 0.15816 0.49293 0.0
C63 C 0.20904 0.16092 0.52297 0.0
N64 N 0.22234 0.17985 0.47631 0.0
C65 C 0.24814 0.18486 0.47181 0.0
H66 H 0.19677 0.91501 0.04164 0.0
H67 H 0.26237 0.94212 0.99321 0.0
H68 H 0.27033 0.88109 0.05787 0.0
C69 C 0.21682 0.91366 0.03624 0.0
C70 C 0.2321 0.89579 0.05176 0.0
C71 C 0.22736 0.93058 0.01499 0.0
C72 C 0.25372 0.92947 0.00962 0.0
C73 C 0.26907 0.91146 0.0247 0.0
C74 C 0.2583 0.89466 0.04585 0.0
N75 N 0.29551 0.911 0.01887 0.0
C76 C 0.30679 0.88902 0.00736 0.0
H77 H 0.83128 0.06424 0.50869 0.0
H78 H 0.81302 0.14429 0.52577 0.0
H79 H 0.79847 0.11278 0.44058 0.0
C80 C 0.82306 0.08257 0.50143 0.0
C81 C 0.81489 0.0857 0.47214 0.0
C82 C 0.82209 0.10342 0.52112 0.0
C83 C 0.81287 0.12761 0.51128 0.0
C84 C 0.80401 0.13087 0.48261 0.0
C85 C 0.8047 0.10988 0.46306 0.0
N86 N 0.79643 0.15613 0.47345 0.0
C87 C 0.7753 0.16047 0.45565 0.0
Sc88 Sc 0.01935 0.81547 0.31802 0.0
Sc89 Sc 0.01875 0.88408 0.30997 0.0
Sc90 Sc 0.01276 0.85544 0.38011 0.0
O91 O 0.01698 0.85164 0.33606 0.0
C92 C 0.97731 0.80527 0.36727 0.0
C93 C 0.98428 0.84512 0.2714 0.0
C94 C 0.97488 0.89887 0.35474 0.0
C95 C 0.06044 0.84816 0.28064 0.0
C96 C 0.05349 0.80962 0.37616 0.0
C97 C 0.05099 0.9032 0.36564 0.0
O98 O 0.98836 0.79961 0.34358 0.0
O99 O 0.99291 0.86769 0.27798 0.0
O100 O 0.98223 0.88314 0.37481 0.0
O101 O 0.05067 0.82671 0.28982 0.0
O102 O 0.04276 0.82806 0.38972 0.0
O103 O 0.04483 0.90439 0.3387 0.0
O104 O 0.04715 0.80303 0.35025 0.0
O105 O 0.05132 0.87033 0.28676 0.0
O106 O 0.04106 0.88661 0.38326 0.0
O107 O 0.99151 0.82427 0.28429 0.0
O108 O 0.98398 0.82482 0.38272 0.0
O109 O 0.98625 0.90135 0.33039 0.0
Sc110 Sc 0.99551 0.17326 0.82397 0.0
Sc111 Sc 0.00432 0.10523 0.82935 0.0
Sc112 Sc 0.99746 0.14213 0.89344 0.0
O113 O 0.99909 0.14024 0.84893 0.0
C114 C 0.03138 0.19249 0.87691 0.0
C115 C 0.03891 0.14295 0.78962 0.0
C116 C 0.04127 0.09992 0.8847 0.0
C117 C 0.96309 0.13174 0.78692 0.0
C118 C 0.95535 0.18405 0.8744 0.0
C119 C 0.96478 0.09038 0.88021 0.0
O120 O 0.02227 0.19459 0.85106 0.0
O121 O 0.03295 0.12058 0.80012 0.0
O122 O 0.02909 0.11589 0.90031 0.0
O123 O 0.96847 0.15512 0.79433 0.0
O124 O 0.96577 0.16866 0.89286 0.0
O125 O 0.97612 0.08589 0.85631 0.0
O126 O 0.96364 0.18726 0.84855 0.0
O127 O 0.97449 0.112 0.79767 0.0
O128 O 0.97008 0.11017 0.89599 0.0
O129 O 0.02704 0.16363 0.79607 0.0
O130 O 0.02456 0.17441 0.89471 0.0
O131 O 0.03493 0.09466 0.85851 0.0
Sc132 Sc 0.51491 0.31688 0.31601 0.0
Sc133 Sc 0.51793 0.38577 0.31671 0.0
Sc134 Sc 0.52199 0.35011 0.38309 0.0
O135 O 0.51831 0.35093 0.33861 0.0
C136 C 0.48031 0.30463 0.37179 0.0
C137 C 0.47556 0.35334 0.2813 0.0
C138 C 0.48441 0.398 0.37295 0.0
C139 C 0.5517 0.35073 0.27465 0.0
C140 C 0.55682 0.30242 0.36466 0.0
C141 C 0.56048 0.39685 0.36575 0.0
O142 O 0.48632 0.30118 0.34521 0.0
O143 O 0.48545 0.37473 0.2901 0.0
O144 O 0.49359 0.37963 0.38864 0.0
O145 O 0.54313 0.32891 0.28429 0.0
O146 O 0.5509 0.32047 0.38222 0.0
O147 O 0.55043 0.40093 0.34069 0.0
O148 O 0.54518 0.29868 0.3405 0.0
O149 O 0.54414 0.37263 0.28408 0.0
O150 O 0.55216 0.37948 0.38355 0.0
O151 O 0.48432 0.3311 0.28858 0.0
O152 O 0.49183 0.32112 0.38811 0.0
O153 O 0.4915 0.40265 0.34684 0.0
Sc154 Sc 0.49065 0.68549 0.80796 0.0
Sc155 Sc 0.48909 0.61643 0.80848 0.0
Sc156 Sc 0.49527 0.65045 0.87484 0.0
O157 O 0.49166 0.65082 0.83043 0.0
C158 C 0.53357 0.69702 0.8566 0.0
C159 C 0.52496 0.65061 0.76641 0.0
C160 C 0.53097 0.60289 0.85743 0.0
C161 C 0.44851 0.65168 0.7737 0.0
C162 C 0.4576 0.69838 0.86442 0.0
C163 C 0.45458 0.60415 0.86428 0.0
O164 O 0.52292 0.70136 0.83189 0.0
O165 O 0.5166 0.6289 0.77651 0.0
O166 O 0.52407 0.62069 0.87479 0.0
O167 O 0.45824 0.67348 0.78153 0.0
O168 O 0.46711 0.68024 0.88016 0.0
O169 O 0.46137 0.60007 0.83811 0.0
O170 O 0.46415 0.70256 0.83802 0.0
O171 O 0.45774 0.62978 0.78159 0.0
O172 O 0.465 0.62164 0.88024 0.0
O173 O 0.51718 0.6726 0.77532 0.0
O174 O 0.52571 0.67936 0.87432 0.0
O175 O 0.5201 0.59902 0.83281 0.0
H176 H 0.21981 0.30628 0.99755 0.0
H177 H 0.17849 0.28838 0.98101 0.0
H178 H 0.18831 0.32662 0.89709 0.0
H179 H 0.23002 0.34412 0.91357 0.0
H180 H 0.13343 0.31027 0.95894 0.0
H181 H 0.18133 0.24921 0.87621 0.0
H182 H 0.19885 0.26623 0.90457 0.0
H183 H 0.18732 0.28381 0.87291 0.0
C184 C 0.21285 0.31115 0.97576 0.0
C185 C 0.22778 0.3264 0.9567 0.0
C186 C 0.18933 0.30097 0.96635 0.0
C187 C 0.18056 0.30584 0.93769 0.0
C188 C 0.19497 0.32228 0.91912 0.0
H189 H 0.05373 0.23141 0.84397 0.0
H190 H 0.08801 0.26153 0.85857 0.0
C191 C 0.2186 0.33239 0.92854 0.0
C192 C 0.15722 0.29221 0.92692 0.0
H193 H 0.13659 0.2456 0.87884 0.0
C194 C 0.13405 0.29625 0.94131 0.0
C195 C 0.15816 0.27383 0.904 0.0
C196 C 0.18275 0.26776 0.88864 0.0
C197 C 0.11178 0.28227 0.93346 0.0
C198 C 0.11288 0.26359 0.91092 0.0
C199 C 0.13587 0.25999 0.89609 0.0
C200 C 0.09072 0.24675 0.903 0.0
C201 C 0.08727 0.28755 0.9493 0.0
C202 C 0.08094 0.22843 0.9232 0.0
C203 C 0.06138 0.21105 0.91494 0.0
C204 C 0.05129 0.21166 0.88626 0.0
C205 C 0.06096 0.23037 0.86625 0.0
C206 C 0.08056 0.24764 0.87452 0.0
H207 H 0.08796 0.30679 0.96043 0.0
H208 H 0.07069 0.28716 0.93394 0.0
H209 H 0.08416 0.27211 0.9662 0.0
H210 H 0.0889 0.22712 0.94515 0.0
H211 H 0.05446 0.19691 0.93091 0.0
H212 H 0.8422 0.64119 0.50918 0.0
H213 H 0.87183 0.66937 0.48166 0.0
H214 H 0.81134 0.68852 0.42046 0.0
H215 H 0.78147 0.66062 0.44858 0.0
H216 H 0.88817 0.66937 0.42511 0.0
H217 H 0.83523 0.76033 0.44815 0.0
H218 H 0.82838 0.72968 0.46658 0.0
H219 H 0.81682 0.73535 0.4299 0.0
C220 C 0.8354 0.65119 0.48962 0.0
C221 C 0.80978 0.64886 0.48077 0.0
C222 C 0.85227 0.66728 0.47396 0.0
C223 C 0.84372 0.68139 0.44927 0.0
C224 C 0.81822 0.67823 0.43977 0.0
H225 H 0.9529 0.76586 0.33729 0.0
H226 H 0.9194 0.73616 0.35502 0.0
C227 C 0.80127 0.66216 0.45559 0.0
C228 C 0.86152 0.69987 0.43428 0.0
H229 H 0.87186 0.7647 0.41878 0.0
C230 C 0.88455 0.6902 0.42354 0.0
C231 C 0.85691 0.7271 0.43266 0.0
C232 C 0.83312 0.73886 0.44514 0.0
C233 C 0.90322 0.70701 0.41154 0.0
C234 C 0.8985 0.7342 0.40963 0.0
C235 C 0.87535 0.74384 0.42007 0.0
C236 C 0.91784 0.75309 0.39817 0.0
C237 C 0.92823 0.69557 0.40208 0.0
C238 C 0.92741 0.77315 0.41614 0.0
C239 C 0.94638 0.7904 0.40597 0.0
C240 C 0.9562 0.78791 0.3776 0.0
C241 C 0.94605 0.76818 0.35939 0.0
C242 C 0.92696 0.75107 0.36952 0.0
H243 H 0.93131 0.67582 0.41178 0.0
H244 H 0.92812 0.69366 0.3779 0.0
H245 H 0.94459 0.70846 0.40839 0.0
H246 H 0.92055 0.77516 0.43828 0.0
H247 H 0.95367 0.80536 0.42058 0.0
H248 H 0.79199 0.36382 0.92604 0.0
H249 H 0.81721 0.32812 0.90602 0.0
H250 H 0.82886 0.29697 0.99325 0.0
H251 H 0.80341 0.33263 0.01321 0.0
H252 H 0.86843 0.31954 0.92099 0.0
H253 H 0.80857 0.23168 0.94574 0.0
H254 H 0.79605 0.26447 0.94574 0.0
H255 H 0.81461 0.25275 0.97636 0.0
C256 C 0.79959 0.34902 0.94077 0.0
C257 C 0.7958 0.35062 0.971 0.0
C258 C 0.81397 0.32873 0.92939 0.0
C259 C 0.82464 0.30973 0.94811 0.0
C260 C 0.82036 0.31111 0.97837 0.0
H261 H 0.93508 0.18702 0.92938 0.0
H262 H 0.90216 0.21671 0.94601 0.0
C263 C 0.80598 0.33146 0.98976 0.0
C264 C 0.84201 0.28989 0.93621 0.0
H265 H 0.85088 0.22411 0.92953 0.0
C266 C 0.8645 0.29868 0.92262 0.0
C267 C 0.83689 0.26271 0.93858 0.0
C268 C 0.81262 0.25225 0.95217 0.0
C269 C 0.88232 0.28102 0.91185 0.0
C270 C 0.87722 0.25381 0.91417 0.0
C271 C 0.85467 0.24498 0.92768 0.0
C272 C 0.8955 0.2343 0.90338 0.0
C273 C 0.90681 0.29167 0.8989 0.0
C274 C 0.90212 0.2338 0.87371 0.0
C275 C 0.92104 0.21695 0.8641 0.0
C276 C 0.93357 0.20009 0.88397 0.0
C277 C 0.92597 0.1998 0.91346 0.0
C278 C 0.90711 0.21674 0.92304 0.0
H279 H 0.91059 0.31227 0.90538 0.0
H280 H 0.92337 0.27964 0.90582 0.0
H281 H 0.90533 0.29117 0.87466 0.0
H282 H 0.89297 0.24681 0.85806 0.0
H283 H 0.92616 0.21754 0.84119 0.0
H284 H 0.23962 0.67251 0.48844 0.0
H285 H 0.21275 0.71112 0.48032 0.0
H286 H 0.14737 0.6604 0.4654 0.0
H287 H 0.17409 0.62208 0.47404 0.0
H288 H 0.18935 0.72195 0.42928 0.0
H289 H 0.11636 0.71587 0.51547 0.0
H290 H 0.14568 0.69767 0.51762 0.0
H291 H 0.11874 0.6853 0.49688 0.0
C292 C 0.21934 0.66983 0.48427 0.0
C293 C 0.20864 0.64464 0.48208 0.0
C294 C 0.20406 0.69177 0.47958 0.0
C295 C 0.17796 0.68867 0.4727 0.0
C296 C 0.16725 0.66333 0.47149 0.0
H297 H 0.08026 0.76816 0.35552 0.0
H298 H 0.11255 0.7426 0.38129 0.0
C299 C 0.1825 0.64147 0.47625 0.0
C300 C 0.16257 0.71138 0.46308 0.0
H301 H 0.10411 0.73909 0.47089 0.0
C302 C 0.17095 0.72607 0.43878 0.0
C303 C 0.13873 0.71705 0.4757 0.0
C304 C 0.1295 0.7033 0.50306 0.0
C305 C 0.1554 0.74505 0.42559 0.0
C306 C 0.13064 0.74905 0.43664 0.0
C307 C 0.12295 0.73568 0.46213 0.0
C308 C 0.1118 0.76549 0.42087 0.0
C309 C 0.16544 0.76026 0.39956 0.0
C310 C 0.10025 0.78652 0.4348 0.0
C311 C 0.08155 0.80113 0.42018 0.0
C312 C 0.07394 0.79481 0.39141 0.0
C313 C 0.08568 0.77372 0.37756 0.0
C314 C 0.10432 0.75916 0.3922 0.0
H315 H 0.18665 0.76138 0.39994 0.0
H316 H 0.15945 0.75019 0.37916 0.0
H317 H 0.15785 0.78046 0.39886 0.0
H318 H 0.10564 0.79158 0.45702 0.0
H319 H 0.07291 0.8172 0.43156 0.0
H320 H 0.73176 0.83439 0.94537 0.0
H321 H 0.70336 0.809 0.91271 0.0
H322 H 0.63816 0.83405 0.96173 0.0
H323 H 0.66643 0.85973 0.99373 0.0
H324 H 0.674 0.76832 0.92936 0.0
H325 H 0.61195 0.84336 0.87923 0.0
H326 H 0.64154 0.85162 0.89781 0.0
H327 H 0.61271 0.84608 0.91831 0.0
C328 C 0.71128 0.83496 0.94847 0.0
C329 C 0.70103 0.84911 0.97157 0.0
C330 C 0.69512 0.82043 0.92999 0.0
C331 C 0.66857 0.81995 0.93447 0.0
C332 C 0.65844 0.8347 0.95728 0.0
H333 H 0.55774 0.69863 0.91003 0.0
H334 H 0.5925 0.7278 0.92536 0.0
C335 C 0.67457 0.84925 0.97562 0.0
C336 C 0.65165 0.80202 0.91751 0.0
H337 H 0.59468 0.7992 0.88058 0.0
C338 C 0.65688 0.77513 0.91824 0.0
C339 C 0.62952 0.81087 0.9026 0.0
C340 C 0.62375 0.8396 0.89916 0.0
C341 C 0.63988 0.75676 0.90588 0.0
C342 C 0.61675 0.76549 0.89305 0.0
C343 C 0.61221 0.79247 0.89084 0.0
C344 C 0.59645 0.74697 0.88313 0.0
C345 C 0.64681 0.72819 0.90693 0.0
C346 C 0.58667 0.74842 0.85444 0.0
C347 C 0.56651 0.73195 0.84566 0.0
C348 C 0.55568 0.71374 0.86546 0.0
C349 C 0.5657 0.71223 0.89412 0.0
C350 C 0.58574 0.7288 0.90289 0.0
H351 H 0.66785 0.72569 0.90813 0.0
H352 H 0.6385 0.71896 0.92683 0.0
H353 H 0.63927 0.71766 0.88746 0.0
H354 H 0.59454 0.76241 0.83888 0.0
H355 H 0.55932 0.73365 0.82342 0.0
H356 H 0.27874 0.21813 0.50183 0.0
H357 H 0.32054 0.23555 0.48622 0.0
H358 H 0.31683 0.18677 0.40973 0.0
H359 H 0.27498 0.16957 0.42524 0.0
H360 H 0.36777 0.21028 0.47217 0.0
H361 H 0.3245 0.2621 0.37664 0.0
H362 H 0.30566 0.24915 0.40646 0.0
H363 H 0.31733 0.22766 0.37889 0.0
C364 C 0.28714 0.21093 0.48193 0.0
C365 C 0.27394 0.1926 0.46465 0.0
C366 C 0.3109 0.22086 0.47303 0.0
C367 C 0.32159 0.21272 0.44661 0.0
C368 C 0.30874 0.19359 0.42995 0.0
H369 H 0.45207 0.26587 0.34513 0.0
H370 H 0.4149 0.24222 0.36435 0.0
C371 C 0.285 0.18366 0.43888 0.0
C372 C 0.34557 0.22507 0.43585 0.0
H373 H 0.3695 0.2634 0.38064 0.0
C374 C 0.3682 0.22192 0.45218 0.0
C375 C 0.34602 0.24029 0.40979 0.0
C376 C 0.32208 0.24526 0.39199 0.0
C377 C 0.39142 0.23322 0.44286 0.0
C378 C 0.39184 0.2485 0.41682 0.0
C379 C 0.36918 0.25161 0.40052 0.0
C380 C 0.41544 0.26177 0.40613 0.0
C381 C 0.41534 0.22828 0.46066 0.0
C382 C 0.4281 0.28069 0.42321 0.0
C383 C 0.44945 0.29424 0.41232 0.0
C384 C 0.45844 0.28933 0.38398 0.0
C385 C 0.44575 0.27021 0.36703 0.0
C386 C 0.42447 0.25664 0.37798 0.0
H387 H 0.41328 0.21062 0.47488 0.0
H388 H 0.43209 0.22577 0.44628 0.0
H389 H 0.41923 0.2453 0.475 0.0
H390 H 0.42113 0.28544 0.44472 0.0
H391 H 0.45857 0.30893 0.42595 0.0
H392 H 0.31439 0.88518 0.94975 0.0
H393 H 0.33713 0.85039 0.92457 0.0
H394 H 0.34978 0.81082 0.0073 0.0
H395 H 0.32678 0.84562 0.03245 0.0
H396 H 0.38823 0.83671 0.93564 0.0
H397 H 0.32221 0.75214 0.95366 0.0
H398 H 0.31247 0.78565 0.95804 0.0
H399 H 0.3312 0.76981 0.98606 0.0
C400 C 0.32182 0.86884 0.9624 0.0
C401 C 0.31895 0.86776 0.99283 0.0
C402 C 0.33477 0.84907 0.94808 0.0
C403 C 0.34486 0.8279 0.96403 0.0
C404 C 0.34171 0.82673 0.99454 0.0
H405 H 0.4413 0.69808 0.92122 0.0
H406 H 0.41314 0.72922 0.94438 0.0
C407 C 0.32875 0.84658 0.00888 0.0
C408 C 0.36005 0.80801 0.94888 0.0
H409 H 0.3625 0.74294 0.93303 0.0
C410 C 0.38255 0.81622 0.9349 0.0
C411 C 0.35261 0.78132 0.94813 0.0
C412 C 0.3282 0.77163 0.96205 0.0
C413 C 0.3981 0.79837 0.92057 0.0
C414 C 0.39062 0.77168 0.91966 0.0
C415 C 0.3681 0.76344 0.93366 0.0
C416 C 0.40634 0.75195 0.90493 0.0
C417 C 0.42275 0.80815 0.90722 0.0
C418 C 0.41133 0.75403 0.87486 0.0
C419 C 0.42755 0.73633 0.8615 0.0
C420 C 0.43892 0.71607 0.87794 0.0
C421 C 0.43302 0.71349 0.90786 0.0
C422 C 0.41688 0.73125 0.92118 0.0
H423 H 0.42877 0.82745 0.91614 0.0
H424 H 0.43839 0.79402 0.91115 0.0
H425 H 0.42004 0.8105 0.88322 0.0
H426 H 0.40292 0.76956 0.86179 0.0
H427 H 0.43144 0.73878 0.83839 0.0
H428 H 0.77153 0.18372 0.40256 0.0
H429 H 0.73302 0.20414 0.38175 0.0
H430 H 0.68953 0.17643 0.45589 0.0
H431 H 0.72786 0.15568 0.47632 0.0
H432 H 0.6624 0.17373 0.40246 0.0
H433 H 0.70796 0.27134 0.42018 0.0
H434 H 0.72549 0.24974 0.39727 0.0
H435 H 0.72106 0.24157 0.43526 0.0
C436 C 0.75353 0.18152 0.41389 0.0
C437 C 0.75231 0.16827 0.44083 0.0
C438 C 0.73169 0.19328 0.40218 0.0
C439 C 0.70861 0.19213 0.41759 0.0
C440 C 0.70718 0.17754 0.44373 0.0
H441 H 0.58455 0.30091 0.41587 0.0
H442 H 0.62073 0.27286 0.42784 0.0
C443 C 0.72897 0.16572 0.45534 0.0
C444 C 0.6865 0.20783 0.40797 0.0
H445 H 0.66673 0.2708 0.39901 0.0
C446 C 0.66332 0.19495 0.40151 0.0
C447 C 0.68774 0.23551 0.40735 0.0
C448 C 0.7118 0.25045 0.41562 0.0
C449 C 0.64125 0.20907 0.39441 0.0
C450 C 0.64263 0.23673 0.39335 0.0
C451 C 0.66583 0.24958 0.39973 0.0
C452 C 0.62012 0.25287 0.3863 0.0
C453 C 0.61652 0.19431 0.38894 0.0
C454 C 0.60795 0.25098 0.35893 0.0
C455 C 0.58722 0.26688 0.35204 0.0
C456 C 0.57844 0.28518 0.37234 0.0
C457 C 0.59078 0.28705 0.39974 0.0
C458 C 0.61146 0.27105 0.40662 0.0
H459 H 0.61722 0.17398 0.39775 0.0
H460 H 0.6002 0.20444 0.39899 0.0
H461 H 0.61289 0.19325 0.365 0.0
H462 H 0.61472 0.23748 0.34271 0.0
H463 H 0.57832 0.26503 0.33064 0.0
H464 H 0.2995 0.45374 0.01061 0.0
H465 H 0.31805 0.49322 0.98812 0.0
H466 H 0.33667 0.44921 0.91139 0.0
H467 H 0.31861 0.40964 0.93384 0.0
H468 H 0.37034 0.49376 0.97338 0.0
H469 H 0.30968 0.51884 0.87711 0.0
H470 H 0.29827 0.4988 0.90722 0.0
H471 H 0.31806 0.48489 0.87965 0.0
C472 C 0.30709 0.4526 0.9887 0.0
C473 C 0.30776 0.4285 0.97411 0.0
C474 C 0.31757 0.47518 0.97586 0.0
C475 C 0.32859 0.47415 0.94805 0.0
C476 C 0.32782 0.45054 0.93264 0.0
H477 H 0.43359 0.5596 0.84101 0.0
H478 H 0.4013 0.53066 0.8625 0.0
C479 C 0.31744 0.42791 0.94552 0.0
C480 C 0.34407 0.49653 0.93695 0.0
H481 H 0.35166 0.53794 0.8785 0.0
C482 C 0.36607 0.50376 0.95287 0.0
C483 C 0.33852 0.50928 0.91009 0.0
C484 C 0.31472 0.50276 0.8926 0.0
C485 C 0.38334 0.52262 0.94204 0.0
C486 C 0.37807 0.53511 0.91487 0.0
C487 C 0.35564 0.52839 0.89934 0.0
C488 C 0.39644 0.55385 0.90135 0.0
C489 C 0.40768 0.528 0.95911 0.0
C490 C 0.40412 0.57681 0.91581 0.0
C491 C 0.42287 0.59331 0.90374 0.0
C492 C 0.434 0.58734 0.87675 0.0
C493 C 0.42553 0.5648 0.86186 0.0
C494 C 0.40699 0.54824 0.87407 0.0
H495 H 0.41164 0.51234 0.97555 0.0
H496 H 0.4243 0.52979 0.94428 0.0
H497 H 0.40588 0.5467 0.97098 0.0
H498 H 0.3958 0.58183 0.93658 0.0
H499 H 0.42868 0.61068 0.91561 0.0
H500 H 0.66873 0.5957 0.46627 0.0
H501 H 0.64871 0.56031 0.43883 0.0
H502 H 0.71982 0.51855 0.43999 0.0
H503 H 0.73945 0.55296 0.46983 0.0
H504 H 0.65344 0.53719 0.38971 0.0
H505 H 0.67558 0.46458 0.47735 0.0
H506 H 0.68199 0.49904 0.48159 0.0
H507 H 0.70338 0.47916 0.46098 0.0
C508 C 0.68016 0.57895 0.46085 0.0
C509 C 0.70551 0.57688 0.47113 0.0
C510 C 0.66872 0.55877 0.44485 0.0
C511 C 0.68245 0.53622 0.43817 0.0
C512 C 0.7085 0.53524 0.44584 0.0
H513 H 0.59669 0.42075 0.33161 0.0
H514 H 0.6296 0.45239 0.34692 0.0
C515 C 0.71986 0.55523 0.46247 0.0
C516 C 0.66878 0.51348 0.42475 0.0
H517 H 0.65287 0.44913 0.43634 0.0
C518 C 0.65341 0.51789 0.39983 0.0
C519 C 0.66846 0.48831 0.43816 0.0
C520 C 0.68302 0.48247 0.46614 0.0
C521 C 0.63705 0.49831 0.38863 0.0
C522 C 0.63692 0.47307 0.40186 0.0
C523 C 0.65303 0.46838 0.42609 0.0
C524 C 0.61879 0.45193 0.39258 0.0
C525 C 0.61907 0.50546 0.36382 0.0
C526 C 0.60279 0.43977 0.41335 0.0
C527 C 0.58459 0.42101 0.4048 0.0
C528 C 0.58171 0.41432 0.3752 0.0
C529 C 0.59826 0.42581 0.35453 0.0
C530 C 0.61691 0.44409 0.36323 0.0
H531 H 0.61653 0.52698 0.36196 0.0
H532 H 0.62709 0.4987 0.34288 0.0
H533 H 0.59998 0.49614 0.36677 0.0
H534 H 0.60387 0.44533 0.43616 0.0
H535 H 0.57206 0.41257 0.4212 0.0
H536 H 0.72036 0.46822 0.96096 0.0
H537 H 0.69312 0.5 0.93538 0.0
H538 H 0.63216 0.44249 0.93116 0.0
H539 H 0.65919 0.41074 0.95679 0.0
H540 H 0.66467 0.50014 0.88121 0.0
H541 H 0.60253 0.50301 0.97887 0.0
H542 H 0.63368 0.48829 0.97969 0.0
H543 H 0.60674 0.47084 0.96436 0.0
C544 C 0.70135 0.46221 0.95398 0.0
C545 C 0.69175 0.43714 0.96115 0.0
C546 C 0.6858 0.48038 0.93948 0.0
C547 C 0.6605 0.47371 0.93195 0.0
C548 C 0.65148 0.44815 0.93734 0.0
H549 H 0.54817 0.55921 0.82973 0.0
H550 H 0.58125 0.52919 0.84664 0.0
C551 C 0.66692 0.43006 0.95193 0.0
C552 C 0.64292 0.4939 0.92045 0.0
H553 H 0.58803 0.52575 0.93657 0.0
C554 C 0.64794 0.50584 0.89328 0.0
C555 C 0.62139 0.50158 0.93655 0.0
C556 C 0.61581 0.49048 0.96661 0.0
C557 C 0.63158 0.52492 0.88144 0.0
C558 C 0.60953 0.53188 0.8971 0.0
C559 C 0.60485 0.52027 0.92452 0.0
C560 C 0.59086 0.55109 0.88561 0.0
C561 C 0.63823 0.53769 0.85254 0.0
C562 C 0.58501 0.5732 0.9021 0.0
C563 C 0.5659 0.59026 0.8927 0.0
C564 C 0.55216 0.58552 0.8666 0.0
C565 C 0.5584 0.56356 0.84986 0.0
C566 C 0.57746 0.54645 0.85937 0.0
H567 H 0.65884 0.53573 0.84756 0.0
H568 H 0.62709 0.52804 0.83479 0.0
H569 H 0.63343 0.5588 0.85241 0.0
H570 H 0.59505 0.57707 0.9225 0.0
H571 H 0.56172 0.60699 0.90612 0.0
H572 H 0.28829 0.5225 0.46765 0.0
H573 H 0.31903 0.49346 0.44523 0.0
H574 H 0.38112 0.5375 0.4845 0.0
H575 H 0.3507 0.56757 0.50541 0.0
H576 H 0.39021 0.52806 0.42854 0.0
H577 H 0.35941 0.43578 0.48342 0.0
H578 H 0.33407 0.45147 0.46347 0.0
H579 H 0.3484 0.46741 0.49464 0.0
C580 C 0.30849 0.52612 0.47139 0.0
C581 C 0.31698 0.54733 0.4885 0.0
C582 C 0.32603 0.50925 0.45889 0.0
C583 C 0.35235 0.51301 0.46365 0.0
C584 C 0.36087 0.53411 0.48073 0.0
H585 H 0.47225 0.40268 0.43069 0.0
H586 H 0.44019 0.43091 0.45187 0.0
C587 C 0.34341 0.55113 0.49294 0.0
C588 C 0.37118 0.49564 0.45001 0.0
H589 H 0.38929 0.43193 0.4449 0.0
C590 C 0.39006 0.50704 0.43219 0.0
C591 C 0.37114 0.46827 0.45509 0.0
C592 C 0.35233 0.45501 0.47542 0.0
C593 C 0.40889 0.49186 0.41923 0.0
C594 C 0.40833 0.46439 0.4235 0.0
C595 C 0.38951 0.45297 0.44141 0.0
C596 C 0.42757 0.4472 0.41033 0.0
C597 C 0.42956 0.50551 0.40178 0.0
C598 C 0.4309 0.44674 0.3799 0.0
C599 C 0.44944 0.43086 0.36772 0.0
C600 C 0.46468 0.41477 0.38575 0.0
C601 C 0.46085 0.41483 0.41618 0.0
C602 C 0.44252 0.43093 0.42833 0.0
H603 H 0.43148 0.52652 0.40761 0.0
H604 H 0.44834 0.49606 0.40534 0.0
H605 H 0.42464 0.5045 0.37814 0.0
H606 H 0.4191 0.4586 0.36553 0.0
H607 H 0.45166 0.43102 0.34417 0.0
H608 H 0.83942 0.89064 0.96623 0.0
H609 H 0.86431 0.92525 0.94187 0.0
H610 H 0.80356 0.97973 0.95594 0.0
H611 H 0.77848 0.94507 0.98043 0.0
H612 H 0.83131 0.9843 0.89875 0.0
H613 H 0.89364 0.98366 0.99799 0.0
H614 H 0.88864 0.95229 0.98126 0.0
H615 H 0.86218 0.96872 0.99733 0.0
C616 C 0.83112 0.90984 0.96348 0.0
C617 C 0.80715 0.91528 0.97544 0.0
C618 C 0.84536 0.92957 0.94965 0.0
C619 C 0.83592 0.95508 0.94764 0.0
C620 C 0.81116 0.96013 0.95741 0.0
H621 H 0.93524 0.09258 0.92946 0.0
H622 H 0.90188 0.06161 0.94498 0.0
C623 C 0.79682 0.94032 0.97123 0.0
C624 C 0.853 0.97681 0.93815 0.0
H625 H 0.90778 0.00941 0.95777 0.0
C626 C 0.84797 0.98994 0.91164 0.0
C627 C 0.87442 0.98438 0.95536 0.0
C628 C 0.88002 0.97173 0.98471 0.0
C629 C 0.86439 0.00995 0.9014 0.0
C630 C 0.88646 0.01671 0.91802 0.0
C631 C 0.89096 0.0041 0.94497 0.0
C632 C 0.90559 0.03628 0.90765 0.0
C633 C 0.8579 0.02378 0.87301 0.0
C634 C 0.91891 0.03217 0.88166 0.0
C635 C 0.93802 0.04977 0.87274 0.0
C636 C 0.94436 0.07181 0.88975 0.0
C637 C 0.93092 0.07586 0.91581 0.0
C638 C 0.91179 0.05821 0.9247 0.0
H639 H 0.83725 0.02178 0.86747 0.0
H640 H 0.86301 0.04492 0.87402 0.0
H641 H 0.86887 0.01497 0.85504 0.0
H642 H 0.91488 0.01505 0.86853 0.0
H643 H 0.94795 0.04593 0.85259 0.0
H644 H 0.21363 0.08475 0.45168 0.0
H645 H 0.19338 0.04757 0.42616 0.0
H646 H 0.12487 0.05769 0.47614 0.0
H647 H 0.14462 0.09484 0.50119 0.0
H648 H 0.17106 0.99976 0.45211 0.0
H649 H 0.10073 0.0587 0.38912 0.0
H650 H 0.12913 0.07289 0.40565 0.0
H651 H 0.10165 0.06542 0.42764 0.0
C652 C 0.19421 0.07907 0.45707 0.0
C653 C 0.18077 0.09262 0.47854 0.0
C654 C 0.18275 0.05781 0.44261 0.0
C655 C 0.15758 0.05008 0.44914 0.0
C656 C 0.14422 0.06352 0.4706 0.0
H657 H 0.06678 0.91068 0.42256 0.0
H658 H 0.0953 0.94511 0.44118 0.0
C659 C 0.15564 0.08459 0.48509 0.0
C660 C 0.14501 0.02793 0.43379 0.0
H661 H 0.09302 0.01265 0.39134 0.0
C662 C 0.15417 0.00253 0.43853 0.0
C663 C 0.12315 0.03169 0.41587 0.0
C664 C 0.11317 0.05866 0.40899 0.0
C665 C 0.1414 0.98063 0.42668 0.0
C666 C 0.11877 0.98431 0.40999 0.0
C667 C 0.11023 0.00982 0.40436 0.0
C668 C 0.10326 0.96207 0.39857 0.0
C669 C 0.15221 0.95378 0.43214 0.0
C670 C 0.09807 0.96029 0.36848 0.0
C671 C 0.08163 0.94079 0.35777 0.0
C672 C 0.06986 0.92268 0.37698 0.0
C673 C 0.07553 0.9242 0.40711 0.0
C674 C 0.09198 0.94378 0.4178 0.0
H675 H 0.17288 0.95482 0.43791 0.0
H676 H 0.14205 0.94433 0.45074 0.0
H677 H 0.14962 0.94119 0.41264 0.0
H678 H 0.10647 0.97428 0.35327 0.0
H679 H 0.07782 0.94024 0.33443 0.0
H680 H 0.17801 0.92303 0.99594 0.0
H681 H 0.14995 0.95464 0.97242 0.0
H682 H 0.21113 0.01206 0.97208 0.0
H683 H 0.23891 0.9811 0.99772 0.0
H684 H 0.16863 0.03376 0.9886 0.0
H685 H 0.14733 0.97704 0.88892 0.0
H686 H 0.13919 0.95838 0.92098 0.0
H687 H 0.17204 0.96767 0.91461 0.0
C688 C 0.18553 0.94244 0.99116 0.0
C689 C 0.21079 0.94946 -0.00113 0.0
C690 C 0.16953 0.96038 0.9772 0.0
C691 C 0.17857 0.98556 0.96985 0.0
C692 C 0.2038 0.99265 0.97729 0.0
H693 H 0.08272 0.08192 0.85602 0.0
H694 H 0.11851 0.05732 0.87651 0.0
C695 C 0.21975 0.97481 0.9917 0.0
C696 C 0.16126 0.00473 0.95557 0.0
H697 H 0.11814 0.01153 0.89963 0.0
C698 C 0.15783 0.02906 0.96891 0.0
C699 C 0.14755 0.99887 0.92953 0.0
C700 C 0.15195 0.97418 0.91253 0.0
C701 C 0.14037 0.04726 0.95755 0.0
C702 C 0.12526 0.04055 0.93279 0.0
C703 C 0.1294 0.01661 0.91887 0.0
C704 C 0.10476 0.05769 0.92106 0.0
C705 C 0.13859 0.07356 0.97208 0.0
C706 C 0.08518 0.06635 0.93927 0.0
C707 C 0.06496 0.08091 0.92767 0.0
C708 C 0.06357 0.0864 0.89751 0.0
C709 C 0.08321 0.07784 0.87934 0.0
C710 C 0.10368 0.06379 0.89103 0.0
H711 H 0.15687 0.079 0.98318 0.0
H712 H 0.13368 0.08923 0.95605 0.0
H713 H 0.12357 0.07257 0.98903 0.0
H714 H 0.08509 0.06122 0.96232 0.0
H715 H 0.04992 0.08701 0.94212 0.0
H716 H 0.83302 0.09184 0.41649 0.0
H717 H 0.85132 0.05821 0.38597 0.0
H718 H 0.82998 0.99917 0.44968 0.0
H719 H 0.8102 0.03245 0.47944 0.0
H720 H 0.89151 0.03314 0.40535 0.0
H721 H 0.81808 0.95907 0.37611 0.0
H722 H 0.80992 0.99107 0.38929 0.0
H723 H 0.81816 0.9652 0.41467 0.0
C724 C 0.83112 0.07158 0.42341 0.0
C725 C 0.82041 0.0649 0.45065 0.0
C726 C 0.84181 0.05236 0.406 0.0
C727 C 0.84206 0.02613 0.41548 0.0
C728 C 0.82967 0.01915 0.44157 0.0
H729 H 0.94364 0.89829 0.4026 0.0
H730 H 0.90924 0.92857 0.41326 0.0
C731 C 0.81869 0.03831 0.45882 0.0
C732 C 0.85892 0.00716 0.40105 0.0
H733 H 0.86202 0.94429 0.37665 0.0
C734 C 0.8849 0.01393 0.39847 0.0
C735 C 0.85038 0.98199 0.3923 0.0
C736 C 0.82255 0.97402 0.39296 0.0
C737 C 0.90273 0.99593 0.3886 0.0
C738 C 0.89435 0.9705 0.38096 0.0
C739 C 0.86832 0.96383 0.38268 0.0
C740 C 0.91281 0.95037 0.37266 0.0
C741 C 0.93061 0.00384 0.38758 0.0
C742 C 0.92577 0.95239 0.34604 0.0
C743 C 0.94548 0.9352 0.33986 0.0
C744 C 0.95262 0.91571 0.36028 0.0
C745 C 0.93883 0.91316 0.38647 0.0
C746 C 0.91906 0.93033 0.39256 0.0
H747 H 0.93438 0.02303 0.39812 0.0
H748 H 0.94255 0.98881 0.39863 0.0
H749 H 0.93671 0.00533 0.36442 0.0
H750 H 0.92109 0.96774 0.3304 0.0
H751 H 0.95553 0.93767 0.31939 0.0
H752 H 0.31163 0.40892 0.07948 0.0
H753 H 0.3366 0.40403 0.12476 0.0
H754 H 0.36017 0.32751 0.0977 0.0
H755 H 0.33657 0.33277 0.05181 0.0
H756 H 0.33632 0.3679 0.17027 0.0
H757 H 0.42784 0.36548 0.11024 0.0
H758 H 0.39815 0.37467 0.09283 0.0
H759 H 0.40543 0.34068 0.09873 0.0
C760 C 0.32223 0.39109 0.08311 0.0
C761 C 0.32232 0.37139 0.06181 0.0
C762 C 0.33629 0.38825 0.10909 0.0
C763 C 0.35063 0.36564 0.11425 0.0
C764 C 0.34966 0.34535 0.09382 0.0
H765 H 0.45481 0.31315 0.24944 0.0
H766 H 0.42204 0.31595 0.21108 0.0
C767 C 0.33583 0.34827 0.06774 0.0
C768 C 0.36751 0.36371 0.14035 0.0
H769 H 0.42976 0.35552 0.16107 0.0
C770 C 0.35675 0.36529 0.16831 0.0
C771 C 0.39422 0.36058 0.13765 0.0
C772 C 0.40716 0.36052 0.10826 0.0
C773 C 0.37201 0.36322 0.19368 0.0
C774 C 0.39853 0.35948 0.19086 0.0
C775 C 0.4093 0.35811 0.16299 0.0
C776 C 0.41577 0.35734 0.21647 0.0
C777 C 0.35981 0.36468 0.22336 0.0
C778 C 0.4228 0.37971 0.23226 0.0
C779 C 0.44168 0.37829 0.25404 0.0
C780 C 0.4538 0.35442 0.26036 0.0
C781 C 0.4459 0.33184 0.24517 0.0
C782 C 0.42718 0.33336 0.22327 0.0
H783 H 0.33861 0.36431 0.22187 0.0
H784 H 0.36617 0.34812 0.23746 0.0
H785 H 0.366 0.3831 0.23417 0.0
H786 H 0.41432 0.39844 0.22701 0.0
H787 H 0.4472 0.39602 0.2654 0.0
H788 H 0.66137 0.64028 0.53264 0.0
H789 H 0.63093 0.65068 0.57097 0.0
H790 H 0.68493 0.62485 0.63683 0.0
H791 H 0.7156 0.61483 0.59858 0.0
H792 H 0.60944 0.61685 0.60848 0.0
H793 H 0.66195 0.69308 0.67101 0.0
H794 H 0.67169 0.68287 0.63514 0.0
H795 H 0.68003 0.66375 0.66707 0.0
C796 C 0.66681 0.63706 0.55533 0.0
C797 C 0.69084 0.62676 0.56267 0.0
C798 C 0.64946 0.64308 0.57719 0.0
C799 C 0.65577 0.63888 0.60679 0.0
C800 C 0.67989 0.62891 0.6142 0.0
H801 H 0.55049 0.6081 0.74653 0.0
H802 H 0.58195 0.60677 0.70767 0.0
C803 C 0.69736 0.62309 0.59233 0.0
C804 C 0.63634 0.64294 0.62964 0.0
H805 H 0.62566 0.67336 0.69452 0.0
C806 C 0.61292 0.62941 0.62714 0.0
C807 C 0.64074 0.65958 0.65381 0.0
C808 C 0.66487 0.67586 0.65681 0.0
C809 C 0.59405 0.63147 0.64851 0.0
C810 C 0.59898 0.64701 0.67344 0.0
C811 C 0.62207 0.6612 0.67556 0.0
C812 C 0.58058 0.64824 0.69778 0.0
C813 C 0.56895 0.6171 0.64407 0.0
C814 C 0.57003 0.67219 0.70583 0.0
C815 C 0.55211 0.6731 0.72831 0.0
C816 C 0.54449 0.65005 0.74314 0.0
C817 C 0.55562 0.6262 0.73538 0.0
C818 C 0.57356 0.62536 0.71306 0.0
H819 H 0.56536 0.61273 0.62059 0.0
H820 H 0.56946 0.59819 0.65623 0.0
H821 H 0.55274 0.62861 0.65234 0.0
H822 H 0.57535 0.69011 0.69441 0.0
H823 H 0.54403 0.69181 0.73378 0.0
H824 H 0.70922 0.34442 0.05248 0.0
H825 H 0.68512 0.33023 0.09605 0.0
H826 H 0.65517 0.40801 0.10401 0.0
H827 H 0.6791 0.42226 0.0611 0.0
H828 H 0.68397 0.35291 0.15626 0.0
H829 H 0.59137 0.35809 0.09649 0.0
H830 H 0.62163 0.3562 0.07801 0.0
H831 H 0.61109 0.38689 0.09219 0.0
C832 C 0.69768 0.35848 0.06377 0.0
C833 C 0.69561 0.38429 0.05307 0.0
C834 C 0.68392 0.35036 0.08854 0.0
C835 C 0.66801 0.36798 0.10279 0.0
C836 C 0.66693 0.394 0.09292 0.0
H837 H 0.57133 0.39306 0.24492 0.0
H838 H 0.60094 0.39314 0.20403 0.0
C839 C 0.68056 0.40207 0.06835 0.0
C840 C 0.65177 0.35955 0.12755 0.0
H841 H 0.58947 0.35796 0.14887 0.0
C842 C 0.6633 0.35342 0.1546 0.0
C843 C 0.62482 0.36019 0.12519 0.0
C844 C 0.61144 0.36545 0.09634 0.0
C845 C 0.64847 0.34945 0.1798 0.0
C846 C 0.62164 0.35164 0.17766 0.0
C847 C 0.6101 0.35648 0.15037 0.0
C848 C 0.60524 0.35113 0.20378 0.0
C849 C 0.66146 0.34425 0.20885 0.0
C850 C 0.59799 0.32741 0.21715 0.0
C851 C 0.58089 0.32721 0.24052 0.0
C852 C 0.5708 0.35079 0.25085 0.0
C853 C 0.57863 0.37453 0.23761 0.0
C854 C 0.59558 0.37466 0.21424 0.0
H855 H 0.68259 0.34372 0.20697 0.0
H856 H 0.65637 0.35968 0.22462 0.0
H857 H 0.6546 0.32523 0.21796 0.0
H858 H 0.60517 0.30905 0.20915 0.0
H859 H 0.57535 0.30858 0.25021 0.0
H860 H 0.29773 0.57003 0.59073 0.0
H861 H 0.31613 0.58854 0.63532 0.0
H862 H 0.30836 0.66633 0.59891 0.0
H863 H 0.29029 0.6477 0.55374 0.0
H864 H 0.35697 0.65579 0.61619 0.0
H865 H 0.2918 0.62793 0.7057 0.0
H866 H 0.29869 0.60024 0.68348 0.0
H867 H 0.28188 0.62761 0.66769 0.0
C868 C 0.29941 0.59112 0.59251 0.0
C869 C 0.29279 0.60744 0.56876 0.0
C870 C 0.30967 0.60171 0.61813 0.0
C871 C 0.31335 0.62885 0.62062 0.0
C872 C 0.30546 0.64534 0.59753 0.0
H873 H 0.4243 0.69391 0.74861 0.0
H874 H 0.38856 0.69316 0.71357 0.0
C875 C 0.29507 0.63472 0.57182 0.0
C876 C 0.32888 0.63921 0.64534 0.0
H877 H 0.33664 0.63373 0.71942 0.0
C878 C 0.35224 0.65166 0.63885 0.0
C879 C 0.32268 0.63376 0.67486 0.0
C880 C 0.29725 0.62189 0.68334 0.0
C881 C 0.37043 0.65693 0.66087 0.0
C882 C 0.36488 0.64989 0.69016 0.0
C883 C 0.34089 0.63895 0.6969 0.0
C884 C 0.38478 0.65095 0.7134 0.0
C885 C 0.39609 0.66833 0.65237 0.0
C886 C 0.39393 0.62752 0.72551 0.0
C887 C 0.41426 0.62782 0.7455 0.0
C888 C 0.42585 0.65164 0.75389 0.0
C889 C 0.41599 0.6752 0.74249 0.0
C890 C 0.3956 0.67484 0.72242 0.0
H891 H 0.39865 0.66899 0.62826 0.0
H892 H 0.39787 0.68861 0.66068 0.0
H893 H 0.41178 0.6567 0.66232 0.0
H894 H 0.3858 0.60887 0.71882 0.0
H895 H 0.42117 0.6093 0.75395 0.0
H896 H 0.7868 0.86629 0.09953 0.0
H897 H 0.81491 0.8552 0.14069 0.0
H898 H 0.87727 0.8445 0.0812 0.0
H899 H 0.84892 0.85368 0.0398 0.0
H900 H 0.87892 0.80918 0.1247 0.0
H901 H 0.86567 0.90831 0.17051 0.0
H902 H 0.83666 0.88942 0.16744 0.0
H903 H 0.85352 0.89929 0.13492 0.0
C904 C 0.80631 0.86095 0.09508 0.0
C905 C 0.81568 0.86132 0.06631 0.0
C906 C 0.82246 0.85497 0.11872 0.0
C907 C 0.84837 0.84978 0.11408 0.0
C908 C 0.85741 0.84873 0.08534 0.0
H909 H 0.97549 0.88032 0.22746 0.0
H910 H 0.94206 0.87878 0.18996 0.0
C911 C 0.84122 0.8543 0.06169 0.0
C912 C 0.86654 0.84694 0.139 0.0
H913 H 0.89209 0.87969 0.1973 0.0
C914 C 0.88176 0.82452 0.14069 0.0
C915 C 0.87042 0.86717 0.15958 0.0
C916 C 0.8559 0.89251 0.15795 0.0
C917 C 0.90111 0.822 0.16203 0.0
C918 C 0.90481 0.84214 0.18273 0.0
C919 C 0.88915 0.86423 0.18146 0.0
C920 C 0.92584 0.84179 0.20473 0.0
C921 C 0.91808 0.79836 0.16136 0.0
C922 C 0.92801 0.82138 0.22542 0.0
C923 C 0.94745 0.82201 0.24669 0.0
C924 C 0.96467 0.84336 0.24796 0.0
C925 C 0.96245 0.86368 0.22717 0.0
C926 C 0.94333 0.86283 0.20572 0.0
H927 H 0.91704 0.78842 0.13986 0.0
H928 H 0.9383 0.80388 0.16597 0.0
H929 H 0.91179 0.7841 0.17838 0.0
H930 H 0.91438 0.80525 0.22553 0.0
H931 H 0.94853 0.80621 0.26263 0.0
H932 H 0.17488 0.18389 0.56284 0.0
H933 H 0.15435 0.18655 0.61054 0.0
H934 H 0.17932 0.10851 0.632 0.0
H935 H 0.20005 0.10577 0.58438 0.0
H936 H 0.12645 0.11523 0.63438 0.0
H937 H 0.1775 0.19299 0.69667 0.0
H938 H 0.16859 0.20203 0.65986 0.0
H939 H 0.19157 0.17668 0.66597 0.0
C940 C 0.1768 0.16766 0.57812 0.0
C941 C 0.18897 0.14456 0.56979 0.0
C942 C 0.16503 0.16921 0.60539 0.0
C943 C 0.16541 0.14777 0.62487 0.0
C944 C 0.17884 0.12529 0.6173 0.0
H945 H 0.07355 0.1053 0.77634 0.0
H946 H 0.10594 0.10692 0.73827 0.0
C947 C 0.1906 0.12373 0.59008 0.0
C948 C 0.149 0.14739 0.65113 0.0
H949 H 0.13728 0.17851 0.71533 0.0
C950 C 0.12898 0.12888 0.65225 0.0
C951 C 0.15217 0.16544 0.67417 0.0
C952 C 0.17374 0.1853 0.67435 0.0
C953 C 0.1117 0.12822 0.67548 0.0
C954 C 0.11488 0.14618 0.69865 0.0
C955 C 0.13496 0.16469 0.69762 0.0
C956 C 0.09712 0.14625 0.72374 0.0
C957 C 0.08969 0.10882 0.67449 0.0
C958 C 0.0822 0.16827 0.7291 0.0
C959 C 0.06377 0.16753 0.75108 0.0
C960 C 0.05992 0.14469 0.76807 0.0
C961 C 0.0757 0.12307 0.76341 0.0
C962 C 0.09421 0.12392 0.7416 0.0
H963 H 0.08618 0.10141 0.65199 0.0
H964 H 0.0942 0.09179 0.68882 0.0
H965 H 0.07185 0.11772 0.68243 0.0
H966 H 0.08424 0.18576 0.71565 0.0
H967 H 0.05206 0.18458 0.75412 0.0
H968 H 0.24586 0.89423 0.10936 0.0
H969 H 0.22023 0.87659 0.14974 0.0
H970 H 0.16606 0.84429 0.08757 0.0
H971 H 0.19125 0.86269 0.04729 0.0
H972 H 0.14368 0.87595 0.12397 0.0
H973 H 0.20321 0.80781 0.18927 0.0
H974 H 0.21905 0.8387 0.18318 0.0
H975 H 0.21145 0.81802 0.15255 0.0
C976 C 0.22895 0.88256 0.1044 0.0
C977 C 0.2204 0.87983 0.07535 0.0
C978 C 0.21436 0.87238 0.12746 0.0
C979 C 0.19127 0.85894 0.12172 0.0
C980 C 0.18381 0.85455 0.09254 0.0
H981 H 0.08056 0.80555 0.25321 0.0
H982 H 0.11355 0.80587 0.2155 0.0
C983 C 0.19818 0.86501 0.06956 0.0
C984 C 0.17296 0.85339 0.14566 0.0
H985 H 0.16677 0.82577 0.21375 0.0
C986 C 0.14867 0.86461 0.14337 0.0
C987 C 0.17937 0.83856 0.17098 0.0
C988 C 0.20461 0.82486 0.17405 0.0
C989 C 0.13094 0.86214 0.16597 0.0
C990 C 0.13784 0.84858 0.19193 0.0
C991 C 0.16172 0.83648 0.19395 0.0
C992 C 0.12051 0.84763 0.21729 0.0
C993 C 0.10497 0.87429 0.16196 0.0
C994 C 0.1142 0.87088 0.23137 0.0
C995 C 0.09534 0.87084 0.25272 0.0
C996 C 0.08251 0.84747 0.26057 0.0
C997 C 0.08996 0.82391 0.2476 0.0
C998 C 0.10883 0.82402 0.22609 0.0
H999 H 0.10037 0.87791 0.13847 0.0
H1000 H 0.08977 0.86156 0.17148 0.0
H1001 H 0.10477 0.89337 0.17333 0.0
H1002 H 0.12331 0.88925 0.22514 0.0
H1003 H 0.09039 0.88929 0.26249 0.0
H1004 H 0.86652 0.07996 0.53815 0.0
H1005 H 0.88642 0.08024 0.58674 0.0
H1006 H 0.82253 0.12274 0.62022 0.0
H1007 H 0.80203 0.12172 0.57186 0.0
H1008 H 0.90023 0.12616 0.61373 0.0
H1009 H 0.83489 0.06751 0.68424 0.0
H1010 H 0.83405 0.06579 0.64476 0.0
H1011 H 0.81936 0.0926 0.66304 0.0
C1012 C 0.85632 0.08866 0.55603 0.0
C1013 C 0.83271 0.10085 0.5512 0.0
C1014 C 0.86779 0.08894 0.58373 0.0
C1015 C 0.85584 0.10133 0.60707 0.0
C1016 C 0.83186 0.11269 0.60261 0.0
H1017 H 0.93597 0.16845 0.75582 0.0
H1018 H 0.90778 0.16094 0.71366 0.0
C1019 C 0.82033 0.11236 0.57491 0.0
C1020 C 0.86976 0.10489 0.63506 0.0
H1021 H 0.86697 0.09303 0.70865 0.0
C1022 C 0.89303 0.11881 0.63447 0.0
C1023 C 0.86029 0.09518 0.662 0.0
C1024 C 0.83589 0.07922 0.66364 0.0
C1025 C 0.90705 0.12351 0.66017 0.0
C1026 C 0.89726 0.11448 0.68721 0.0
C1027 C 0.87416 0.10023 0.68785 0.0
C1028 C 0.91147 0.11882 0.71484 0.0
C1029 C 0.93245 0.13775 0.6581 0.0
C1030 C 0.92193 0.09751 0.73006 0.0
C1031 C 0.93798 0.10167 0.75418 0.0
C1032 C 0.9438 0.12727 0.76352 0.0
C1033 C 0.93213 0.14851 0.74908 0.0
C1034 C 0.91606 0.14429 0.72496 0.0
H1035 H 0.93979 0.13814 0.63536 0.0
H1036 H 0.93016 0.15828 0.6652 0.0
H1037 H 0.94693 0.12844 0.67262 0.0
H1038 H 0.91848 0.0777 0.72257 0.0
H1039 H 0.94642 0.08482 0.76492 0.0
loop_
_geom_bond_atom_site_label_1
_geom_bond_atom_site_label_2
_geom_bond_distance
_geom_bond_site_symmetry_2
_ccdc_geom_bond_type
H0 C3 0.929 . S
H1 C6 0.929 . S
H2 C8 0.930 . S
C3 H0 0.929 . S
C3 C4 1.398 . S
C3 C5 1.396 1_554 S
C4 C3 1.398 . S
C4 C8 1.407 . S
C5 C3 1.396 1_556 S
C5 C6 1.394 . S
C6 H1 0.929 . S
C6 C5 1.394 . S
C6 C7 1.382 1_556 S
C7 C6 1.382 1_554 S
C7 C8 1.392 . S
C7 N9 1.420 1_554 S
C8 H2 0.930 . S
C8 C4 1.407 . S
C8 C7 1.392 . S
N9 C7 1.420 1_556 S
N9 C10 1.244 . S
C10 N9 1.244 . S
H11 C14 0.929 . S
H12 C17 0.929 . S
H13 C19 0.930 . S
C14 H11 0.929 . S
C14 C15 1.398 . S
C14 C16 1.396 . S
C15 C14 1.398 . S
C15 C19 1.407 . S
C16 C14 1.396 . S
C16 C17 1.394 . S
C17 H12 0.929 . S
C17 C16 1.394 . S
C17 C18 1.382 . S
C18 C17 1.382 . S
C18 C19 1.392 . S
C18 N20 1.420 . S
C19 H13 0.930 . S
C19 C15 1.407 . S
C19 C18 1.392 . S
N20 C18 1.420 . S
N20 C21 1.244 . S
C21 N20 1.244 . S
H22 C25 0.929 . S
H23 C28 0.929 . S
H24 C30 0.930 . S
C25 H22 0.929 . S
C25 C26 1.398 . S
C25 C27 1.396 1_554 S
C26 C25 1.398 . S
C26 C30 1.407 . S
C27 C25 1.396 1_556 S
C27 C28 1.394 . S
C28 H23 0.929 . S
C28 C27 1.394 . S
C28 C29 1.382 1_556 S
C29 C28 1.382 1_554 S
C29 C30 1.392 . S
C29 N31 1.420 . S
C30 H24 0.930 . S
C30 C26 1.407 . S
C30 C29 1.392 . S
N31 C29 1.420 . S
N31 C32 1.244 1_554 S
C32 N31 1.244 1_556 S
H33 C36 0.929 . S
H34 C39 0.929 . S
H35 C41 0.930 . S
C36 H33 0.929 . S
C36 C37 1.398 . S
C36 C38 1.396 . S
C37 C36 1.398 . S
C37 C41 1.407 . S
C38 C36 1.396 . S
C38 C39 1.394 . S
C39 H34 0.929 . S
C39 C38 1.394 . S
C39 C40 1.382 . S
C40 C39 1.382 . S
C40 C41 1.392 . S
C40 N42 1.420 . S
C41 H35 0.930 . S
C41 C37 1.407 . S
C41 C40 1.392 . S
N42 C40 1.420 . S
N42 C43 1.244 . S
C43 N42 1.244 . S
H44 C47 0.929 . S
H45 C50 0.929 . S
H46 C52 0.930 . S
C47 H44 0.929 . S
C47 C48 1.398 . S
C47 C49 1.396 1_554 S
C48 C47 1.398 . S
C48 C52 1.407 . S
C49 C47 1.396 1_556 S
C49 C50 1.394 . S
C50 H45 0.929 . S
C50 C49 1.394 . S
C50 C51 1.382 1_556 S
C51 C50 1.382 1_554 S
C51 C52 1.392 . S
C51 N53 1.420 1_554 S
C52 H46 0.930 . S
C52 C48 1.407 . S
C52 C51 1.392 . S
N53 C51 1.420 1_556 S
N53 C54 1.244 . S
C54 N53 1.244 . S
H55 C58 0.929 . S
H56 C61 0.929 . S
H57 C63 0.930 . S
C58 H55 0.929 . S
C58 C59 1.398 . S
C58 C60 1.396 . S
C59 C58 1.398 . S
C59 C63 1.407 . S
C60 C58 1.396 . S
C60 C61 1.394 . S
C61 H56 0.929 . S
C61 C60 1.394 . S
C61 C62 1.382 . S
C62 C61 1.382 . S
C62 C63 1.392 . S
C62 N64 1.420 . S
C63 H57 0.930 . S
C63 C59 1.407 . S
C63 C62 1.392 . S
N64 C62 1.420 . S
N64 C65 1.244 . S
C65 N64 1.244 . S
H66 C69 0.929 . S
H67 C72 0.929 . S
H68 C74 0.930 . S
C69 H66 0.929 . S
C69 C70 1.398 . S
C69 C71 1.396 1_554 S
C70 C69 1.398 . S
C70 C74 1.407 . S
C71 C69 1.396 1_556 S
C71 C72 1.394 . S
C72 H67 0.929 . S
C72 C71 1.394 . S
C72 C73 1.382 1_556 S
C73 C72 1.382 1_554 S
C73 C74 1.392 . S
C73 N75 1.420 . S
C74 H68 0.930 . S
C74 C70 1.407 . S
C74 C73 1.392 . S
N75 C73 1.420 . S
N75 C76 1.244 1_554 S
C76 N75 1.244 1_556 S
H77 C80 0.929 . S
H78 C83 0.929 . S
H79 C85 0.930 . S
C80 H77 0.929 . S
C80 C81 1.398 . S
C80 C82 1.396 . S
C81 C80 1.398 . S
C81 C85 1.407 . S
C82 C80 1.396 . S
C82 C83 1.394 . S
C83 H78 0.929 . S
C83 C82 1.394 . S
C83 C84 1.382 . S
C84 C83 1.382 . S
C84 C85 1.392 . S
C84 N86 1.420 . S
C85 H79 0.930 . S
C85 C81 1.407 . S
C85 C84 1.392 . S
N86 C84 1.420 . S
N86 C87 1.244 . S
C87 N86 1.244 . S
Sc88 O91 2.025 . S
Sc88 O98 2.105 1_455 S
Sc88 O101 2.105 . S
Sc88 O104 2.105 . S
Sc88 O107 2.105 1_455 S
Sc89 O91 2.025 . S
Sc89 O99 2.105 1_455 S
Sc89 O103 2.105 . S
Sc89 O105 2.105 . S
Sc89 O109 2.105 1_455 S
Sc90 O91 2.025 . S
Sc90 O100 2.105 1_455 S
Sc90 O102 2.105 . S
Sc90 O106 2.105 . S
Sc90 O108 2.105 1_455 S
O91 Sc88 2.025 . S
O91 Sc89 2.025 . S
O91 Sc90 2.025 . S
C92 O98 1.268 . S
C92 O108 1.268 . S
C93 O99 1.268 . S
C93 O107 1.268 . S
C94 O100 1.268 . S
C94 O109 1.268 . S
C95 O101 1.268 . S
C95 O105 1.268 . S
C96 O102 1.268 . S
C96 O104 1.268 . S
C97 O103 1.268 . S
C97 O106 1.268 . S
O98 Sc88 2.105 1_655 S
O98 C92 1.268 . S
O99 Sc89 2.105 1_655 S
O99 C93 1.268 . S
O100 Sc90 2.105 1_655 S
O100 C94 1.268 . S
O101 Sc88 2.105 . S
O101 C95 1.268 . S
O102 Sc90 2.105 . S
O102 C96 1.268 . S
O103 Sc89 2.105 . S
O103 C97 1.268 . S
O104 Sc88 2.105 . S
O104 C96 1.268 . S
O105 Sc89 2.105 . S
O105 C95 1.268 . S
O106 Sc90 2.105 . S
O106 C97 1.268 . S
O107 Sc88 2.105 1_655 S
O107 C93 1.268 . S
O108 Sc90 2.105 1_655 S
O108 C92 1.268 . S
O109 Sc89 2.105 1_655 S
O109 C94 1.268 . S
Sc110 O113 2.025 . S
Sc110 O120 2.105 . S
Sc110 O123 2.105 1_455 S
Sc110 O126 2.105 1_455 S
Sc110 O129 2.105 . S
Sc111 O113 2.025 . S
Sc111 O121 2.105 . S
Sc111 O125 2.105 1_455 S
Sc111 O127 2.105 1_455 S
Sc111 O131 2.105 . S
Sc112 O113 2.025 . S
Sc112 O122 2.105 . S
Sc112 O124 2.105 1_455 S
Sc112 O128 2.105 1_455 S
Sc112 O130 2.105 . S
O113 Sc110 2.025 . S
O113 Sc111 2.025 . S
O113 Sc112 2.025 . S
C114 O120 1.268 . S
C114 O130 1.268 . S
C115 O121 1.268 . S
C115 O129 1.268 . S
C116 O122 1.268 . S
C116 O131 1.268 . S
C117 O123 1.268 . S
C117 O127 1.268 . S
C118 O124 1.268 . S
C118 O126 1.268 . S
C119 O125 1.268 . S
C119 O128 1.268 . S
O120 Sc110 2.105 . S
O120 C114 1.268 . S
O121 Sc111 2.105 . S
O121 C115 1.268 . S
O122 Sc112 2.105 . S
O122 C116 1.268 . S
O123 Sc110 2.105 1_655 S
O123 C117 1.268 . S
O124 Sc112 2.105 1_655 S
O124 C118 1.268 . S
O125 Sc111 2.105 1_655 S
O125 C119 1.268 . S
O126 Sc110 2.105 1_655 S
O126 C118 1.268 . S
O127 Sc111 2.105 1_655 S
O127 C117 1.268 . S
O128 Sc112 2.105 1_655 S
O128 C119 1.268 . S
O129 Sc110 2.105 . S
O129 C115 1.268 . S
O130 Sc112 2.105 . S
O130 C114 1.268 . S
O131 Sc111 2.105 . S
O131 C116 1.268 . S
Sc132 O135 2.025 . S
Sc132 O142 2.105 . S
Sc132 O145 2.105 . S
Sc132 O148 2.105 . S
Sc132 O151 2.105 . S
Sc133 O135 2.025 . S
Sc133 O143 2.105 . S
Sc133 O147 2.105 . S
Sc133 O149 2.105 . S
Sc133 O153 2.105 . S
Sc134 O135 2.025 . S
Sc134 O144 2.105 . S
Sc134 O146 2.105 . S
Sc134 O150 2.105 . S
Sc134 O152 2.105 . S
O135 Sc132 2.025 . S
O135 Sc133 2.025 . S
O135 Sc134 2.025 . S
C136 O142 1.268 . S
C136 O152 1.268 . S
C137 O143 1.268 . S
C137 O151 1.268 . S
C138 O144 1.268 . S
C138 O153 1.268 . S
C139 O145 1.268 . S
C139 O149 1.268 . S
C140 O146 1.268 . S
C140 O148 1.268 . S
C141 O147 1.268 . S
C141 O150 1.268 . S
O142 Sc132 2.105 . S
O142 C136 1.268 . S
O143 Sc133 2.105 . S
O143 C137 1.268 . S
O144 Sc134 2.105 . S
O144 C138 1.268 . S
O145 Sc132 2.105 . S
O145 C139 1.268 . S
O146 Sc134 2.105 . S
O146 C140 1.268 . S
O147 Sc133 2.105 . S
O147 C141 1.268 . S
O148 Sc132 2.105 . S
O148 C140 1.268 . S
O149 Sc133 2.105 . S
O149 C139 1.268 . S
O150 Sc134 2.105 . S
O150 C141 1.268 . S
O151 Sc132 2.105 . S
O151 C137 1.268 . S
O152 Sc134 2.105 . S
O152 C136 1.268 . S
O153 Sc133 2.105 . S
O153 C138 1.268 . S
Sc154 O157 2.025 . S
Sc154 O164 2.105 . S
Sc154 O167 2.105 . S
Sc154 O170 2.105 . S
Sc154 O173 2.105 . S
Sc155 O157 2.025 . S
Sc155 O165 2.105 . S
Sc155 O169 2.105 . S
Sc155 O171 2.105 . S
Sc155 O175 2.105 . S
Sc156 O157 2.025 . S
Sc156 O166 2.105 . S
Sc156 O168 2.105 . S
Sc156 O172 2.105 . S
Sc156 O174 2.105 . S
O157 Sc154 2.025 . S
O157 Sc155 2.025 . S
O157 Sc156 2.025 . S
C158 O164 1.268 . S
C158 O174 1.268 . S
C159 O165 1.268 . S
C159 O173 1.268 . S
C160 O166 1.268 . S
C160 O175 1.268 . S
C161 O167 1.268 . S
C161 O171 1.268 . S
C162 O168 1.268 . S
C162 O170 1.268 . S
C163 O169 1.268 . S
C163 O172 1.268 . S
O164 Sc154 2.105 . S
O164 C158 1.268 . S
O165 Sc155 2.105 . S
O165 C159 1.268 . S
O166 Sc156 2.105 . S
O166 C160 1.268 . S
O167 Sc154 2.105 . S
O167 C161 1.268 . S
O168 Sc156 2.105 . S
O168 C162 1.268 . S
O169 Sc155 2.105 . S
O169 C163 1.268 . S
O170 Sc154 2.105 . S
O170 C162 1.268 . S
O171 Sc155 2.105 . S
O171 C161 1.268 . S
O172 Sc156 2.105 . S
O172 C163 1.268 . S
O173 Sc154 2.105 . S
O173 C159 1.268 . S
O174 Sc156 2.105 . S
O174 C158 1.268 . S
O175 Sc155 2.105 . S
O175 C160 1.268 . S
H176 C184 0.929 1_554 S
H177 C186 0.930 . S
H178 C188 0.930 . S
H179 C191 0.929 . S
H180 C194 0.930 . S
H181 C196 0.960 . S
H182 C196 0.960 . S
H183 C196 0.960 . S
C184 H176 0.929 1_556 S
C184 C185 1.377 . S
C184 C186 1.384 . S
C185 C184 1.377 . S
C185 C191 1.390 . S
C186 H177 0.930 . S
C186 C184 1.384 . S
C186 C187 1.372 . S
C187 C186 1.372 . S
C187 C188 1.400 . S
C187 C192 1.490 . S
C188 H178 0.930 . S
C188 C187 1.400 . S
C188 C191 1.386 . S
H189 C205 0.930 . S
H190 C206 0.931 . S
C191 H179 0.929 . S
C191 C185 1.390 . S
C191 C188 1.386 . S
C192 C187 1.490 . S
C192 C194 1.395 . S
C192 C195 1.403 . S
H193 C199 0.930 . S
C194 H180 0.930 . S
C194 C192 1.395 . S
C194 C197 1.403 . S
C195 C192 1.403 . S
C195 C196 1.524 . S
C195 C199 1.400 . S
C196 H181 0.960 . S
C196 H182 0.960 . S
C196 H183 0.960 . S
C196 C195 1.524 . S
C197 C194 1.403 . S
C197 C198 1.392 . S
C197 C201 1.495 . S
C198 C197 1.392 . S
C198 C199 1.385 . S
C198 C200 1.478 . S
C199 H193 0.930 . S
C199 C195 1.400 . S
C199 C198 1.385 . S
C200 C198 1.478 . S
C200 C202 1.381 . S
C200 C206 1.383 . S
C201 C197 1.495 . S
C201 H207 0.959 . S
C201 H208 0.961 . S
C201 H209 0.960 . S
C202 C200 1.381 . S
C202 C203 1.394 . S
C202 H210 0.930 . S
C203 C202 1.394 . S
C203 C204 1.383 . S
C203 H211 0.929 . S
C204 C203 1.383 . S
C204 C205 1.377 . S
C205 H189 0.930 . S
C205 C204 1.377 . S
C205 C206 1.379 . S
C206 H190 0.931 . S
C206 C200 1.383 . S
C206 C205 1.379 . S
H207 C201 0.959 . S
H208 C201 0.961 . S
H209 C201 0.960 . S
H210 C202 0.930 . S
H211 C203 0.929 . S
H212 C220 0.929 . S
H213 C222 0.930 . S
H214 C224 0.930 . S
H215 C227 0.929 . S
H216 C230 0.930 . S
H217 C232 0.960 . S
H218 C232 0.960 . S
H219 C232 0.960 . S
C220 H212 0.929 . S
C220 C221 1.377 . S
C220 C222 1.384 . S
C221 C220 1.377 . S
C221 C227 1.390 . S
C222 H213 0.930 . S
C222 C220 1.384 . S
C222 C223 1.372 . S
C223 C222 1.372 . S
C223 C224 1.400 . S
C223 C228 1.490 . S
C224 H214 0.930 . S
C224 C223 1.400 . S
C224 C227 1.386 . S
H225 C241 0.930 . S
H226 C242 0.931 . S
C227 H215 0.929 . S
C227 C221 1.390 . S
C227 C224 1.386 . S
C228 C223 1.490 . S
C228 C230 1.395 . S
C228 C231 1.403 . S
H229 C235 0.930 . S
C230 H216 0.930 . S
C230 C228 1.395 . S
C230 C233 1.403 . S
C231 C228 1.403 . S
C231 C232 1.524 . S
C231 C235 1.400 . S
C232 H217 0.960 . S
C232 H218 0.960 . S
C232 H219 0.960 . S
C232 C231 1.524 . S
C233 C230 1.403 . S
C233 C234 1.392 . S
C233 C237 1.495 . S
C234 C233 1.392 . S
C234 C235 1.385 . S
C234 C236 1.478 . S
C235 H229 0.930 . S
C235 C231 1.400 . S
C235 C234 1.385 . S
C236 C234 1.478 . S
C236 C238 1.381 . S
C236 C242 1.383 . S
C237 C233 1.495 . S
C237 H243 0.959 . S
C237 H244 0.961 . S
C237 H245 0.960 . S
C238 C236 1.381 . S
C238 C239 1.394 . S
C238 H246 0.930 . S
C239 C238 1.394 . S
C239 C240 1.383 . S
C239 H247 0.929 . S
C240 C239 1.383 . S
C240 C241 1.377 . S
C241 H225 0.930 . S
C241 C240 1.377 . S
C241 C242 1.379 . S
C242 H226 0.931 . S
C242 C236 1.383 . S
C242 C241 1.379 . S
H243 C237 0.959 . S
H244 C237 0.961 . S
H245 C237 0.960 . S
H246 C238 0.930 . S
H247 C239 0.929 . S
H248 C256 0.929 . S
H249 C258 0.930 . S
H250 C260 0.930 . S
H251 C263 0.929 1_554 S
H252 C266 0.930 . S
H253 C268 0.960 . S
H254 C268 0.960 . S
H255 C268 0.960 . S
C256 H248 0.929 . S
C256 C257 1.377 . S
C256 C258 1.384 . S
C257 C256 1.377 . S
C257 C263 1.390 . S
C258 H249 0.930 . S
C258 C256 1.384 . S
C258 C259 1.372 . S
C259 C258 1.372 . S
C259 C260 1.400 . S
C259 C264 1.490 . S
C260 H250 0.930 . S
C260 C259 1.400 . S
C260 C263 1.386 . S
H261 C277 0.930 . S
H262 C278 0.931 . S
C263 H251 0.929 1_556 S
C263 C257 1.390 . S
C263 C260 1.386 . S
C264 C259 1.490 . S
C264 C266 1.395 . S
C264 C267 1.403 . S
H265 C271 0.930 . S
C266 H252 0.930 . S
C266 C264 1.395 . S
C266 C269 1.403 . S
C267 C264 1.403 . S
C267 C268 1.524 . S
C267 C271 1.400 . S
C268 H253 0.960 . S
C268 H254 0.960 . S
C268 H255 0.960 . S
C268 C267 1.524 . S
C269 C266 1.403 . S
C269 C270 1.392 . S
C269 C273 1.495 . S
C270 C269 1.392 . S
C270 C271 1.385 . S
C270 C272 1.478 . S
C271 H265 0.930 . S
C271 C267 1.400 . S
C271 C270 1.385 . S
C272 C270 1.478 . S
C272 C274 1.381 . S
C272 C278 1.383 . S
C273 C269 1.495 . S
C273 H279 0.959 . S
C273 H280 0.961 . S
C273 H281 0.960 . S
C274 C272 1.381 . S
C274 C275 1.394 . S
C274 H282 0.930 . S
C275 C274 1.394 . S
C275 C276 1.383 . S
C275 H283 0.929 . S
C276 C275 1.383 . S
C276 C277 1.377 . S
C277 H261 0.930 . S
C277 C276 1.377 . S
C277 C278 1.379 . S
C278 H262 0.931 . S
C278 C272 1.383 . S
C278 C277 1.379 . S
H279 C273 0.959 . S
H280 C273 0.961 . S
H281 C273 0.960 . S
H282 C274 0.930 . S
H283 C275 0.929 . S
H284 C292 0.929 . S
H285 C294 0.930 . S
H286 C296 0.930 . S
H287 C299 0.929 . S
H288 C302 0.930 . S
H289 C304 0.960 . S
H290 C304 0.960 . S
H291 C304 0.960 . S
C292 H284 0.929 . S
C292 C293 1.377 . S
C292 C294 1.384 . S
C293 C292 1.377 . S
C293 C299 1.390 . S
C294 H285 0.930 . S
C294 C292 1.384 . S
C294 C295 1.372 . S
C295 C294 1.372 . S
C295 C296 1.400 . S
C295 C300 1.490 . S
C296 H286 0.930 . S
C296 C295 1.400 . S
C296 C299 1.386 . S
H297 C313 0.930 . S
H298 C314 0.931 . S
C299 H287 0.929 . S
C299 C293 1.390 . S
C299 C296 1.386 . S
C300 C295 1.490 . S
C300 C302 1.395 . S
C300 C303 1.403 . S
H301 C307 0.930 . S
C302 H288 0.930 . S
C302 C300 1.395 . S
C302 C305 1.403 . S
C303 C300 1.403 . S
C303 C304 1.524 . S
C303 C307 1.400 . S
C304 H289 0.960 . S
C304 H290 0.960 . S
C304 H291 0.960 . S
C304 C303 1.524 . S
C305 C302 1.403 . S
C305 C306 1.392 . S
C305 C309 1.495 . S
C306 C305 1.392 . S
C306 C307 1.385 . S
C306 C308 1.478 . S
C307 H301 0.930 . S
C307 C303 1.400 . S
C307 C306 1.385 . S
C308 C306 1.478 . S
C308 C310 1.381 . S
C308 C314 1.383 . S
C309 C305 1.495 . S
C309 H315 0.959 . S
C309 H316 0.961 . S
C309 H317 0.960 . S
C310 C308 1.381 . S
C310 C311 1.394 . S
C310 H318 0.930 . S
C311 C310 1.394 . S
C311 C312 1.383 . S
C311 H319 0.929 . S
C312 C311 1.383 . S
C312 C313 1.377 . S
C313 H297 0.930 . S
C313 C312 1.377 . S
C313 C314 1.379 . S
C314 H298 0.931 . S
C314 C308 1.383 . S
C314 C313 1.379 . S
H315 C309 0.959 . S
H316 C309 0.961 . S
H317 C309 0.960 . S
H318 C310 0.930 . S
H319 C311 0.929 . S
H320 C328 0.929 . S
H321 C330 0.930 . S
H322 C332 0.930 . S
H323 C335 0.901 1_554 S
H324 C338 0.930 . S
H325 C340 0.960 . S
H326 C340 0.960 . S
H327 C340 0.960 . S
C328 H320 0.929 . S
C328 C329 1.377 . S
C328 C330 1.384 . S
C329 C328 1.377 . S
C329 C335 1.390 . S
C330 H321 0.930 . S
C330 C328 1.384 . S
C330 C331 1.372 . S
C331 C330 1.372 . S
C331 C332 1.400 . S
C331 C336 1.490 . S
C332 H322 0.930 . S
C332 C331 1.400 . S
C332 C335 1.386 . S
H333 C349 0.930 . S
H334 C350 0.931 . S
C335 H323 0.901 1_556 S
C335 C329 1.390 . S
C335 C332 1.386 . S
C336 C331 1.490 . S
C336 C338 1.395 . S
C336 C339 1.403 . S
H337 C343 0.930 . S
C338 H324 0.930 . S
C338 C336 1.395 . S
C338 C341 1.403 . S
C339 C336 1.403 . S
C339 C340 1.524 . S
C339 C343 1.400 . S
C340 H325 0.960 . S
C340 H326 0.960 . S
C340 H327 0.960 . S
C340 C339 1.524 . S
C341 C338 1.403 . S
C341 C342 1.392 . S
C341 C345 1.495 . S
C342 C341 1.392 . S
C342 C343 1.385 . S
C342 C344 1.478 . S
C343 H337 0.930 . S
C343 C339 1.400 . S
C343 C342 1.385 . S
C344 C342 1.478 . S
C344 C346 1.381 . S
C344 C350 1.383 . S
C345 C341 1.495 . S
C345 H351 0.959 . S
C345 H352 0.961 . S
C345 H353 0.960 . S
C346 C344 1.381 . S
C346 C347 1.394 . S
C346 H354 0.930 . S
C347 C346 1.394 . S
C347 C348 1.383 . S
C347 H355 0.929 . S
C348 C347 1.383 . S
C348 C349 1.377 . S
C349 H333 0.930 . S
C349 C348 1.377 . S
C349 C350 1.379 . S
C350 H334 0.931 . S
C350 C344 1.383 . S
C350 C349 1.379 . S
H351 C345 0.959 . S
H352 C345 0.961 . S
H353 C345 0.960 . S
H354 C346 0.930 . S
H355 C347 0.929 . S
H356 C364 0.929 . S
H357 C366 0.930 . S
H358 C368 0.930 . S
H359 C371 0.929 . S
H360 C374 0.930 . S
H361 C376 0.960 . S
H362 C376 0.960 . S
H363 C376 0.960 . S
C364 H356 0.929 . S
C364 C365 1.377 . S
C364 C366 1.384 . S
C365 C364 1.377 . S
C365 C371 1.390 . S
C366 H357 0.930 . S
C366 C364 1.384 . S
C366 C367 1.372 . S
C367 C366 1.372 . S
C367 C368 1.400 . S
C367 C372 1.490 . S
C368 H358 0.930 . S
C368 C367 1.400 . S
C368 C371 1.386 . S
H369 C385 0.930 . S
H370 C386 0.931 . S
C371 H359 0.929 . S
C371 C365 1.390 . S
C371 C368 1.386 . S
C372 C367 1.490 . S
C372 C374 1.395 . S
C372 C375 1.403 . S
H373 C379 0.930 . S
C374 H360 0.930 . S
C374 C372 1.395 . S
C374 C377 1.403 . S
C375 C372 1.403 . S
C375 C376 1.524 . S
C375 C379 1.400 . S
C376 H361 0.960 . S
C376 H362 0.960 . S
C376 H363 0.960 . S
C376 C375 1.524 . S
C377 C374 1.403 . S
C377 C378 1.392 . S
C377 C381 1.495 . S
C378 C377 1.392 . S
C378 C379 1.385 . S
C378 C380 1.478 . S
C379 H373 0.930 . S
C379 C375 1.400 . S
C379 C378 1.385 . S
C380 C378 1.478 . S
C380 C382 1.381 . S
C380 C386 1.383 . S
C381 C377 1.495 . S
C381 H387 0.959 . S
C381 H388 0.961 . S
C381 H389 0.960 . S
C382 C380 1.381 . S
C382 C383 1.394 . S
C382 H390 0.930 . S
C383 C382 1.394 . S
C383 C384 1.383 . S
C383 H391 0.929 . S
C384 C383 1.383 . S
C384 C385 1.377 . S
C385 H369 0.930 . S
C385 C384 1.377 . S
C385 C386 1.379 . S
C386 H370 0.931 . S
C386 C380 1.383 . S
C386 C385 1.379 . S
H387 C381 0.959 . S
H388 C381 0.961 . S
H389 C381 0.960 . S
H390 C382 0.930 . S
H391 C383 0.929 . S
H392 C400 0.929 . S
H393 C402 0.930 . S
H394 C404 0.930 . S
H395 C407 0.929 1_554 S
H396 C410 0.930 . S
H397 C412 0.960 . S
H398 C412 0.960 . S
H399 C412 0.960 . S
C400 H392 0.929 . S
C400 C401 1.377 . S
C400 C402 1.384 . S
C401 C400 1.377 . S
C401 C407 1.390 . S
C402 H393 0.930 . S
C402 C400 1.384 . S
C402 C403 1.372 . S
C403 C402 1.372 . S
C403 C404 1.400 . S
C403 C408 1.490 . S
C404 H394 0.930 . S
C404 C403 1.400 . S
C404 C407 1.386 . S
H405 C421 0.930 . S
H406 C422 0.931 . S
C407 H395 0.929 1_556 S
C407 C401 1.390 . S
C407 C404 1.386 . S
C408 C403 1.490 . S
C408 C410 1.395 . S
C408 C411 1.403 . S
H409 C415 0.930 . S
C410 H396 0.930 . S
C410 C408 1.395 . S
C410 C413 1.403 . S
C411 C408 1.403 . S
C411 C412 1.524 . S
C411 C415 1.400 . S
C412 H397 0.960 . S
C412 H398 0.960 . S
C412 H399 0.960 . S
C412 C411 1.524 . S
C413 C410 1.403 . S
C413 C414 1.392 . S
C413 C417 1.495 . S
C414 C413 1.392 . S
C414 C415 1.385 . S
C414 C416 1.478 . S
C415 H409 0.930 . S
C415 C411 1.400 . S
C415 C414 1.385 . S
C416 C414 1.478 . S
C416 C418 1.381 . S
C416 C422 1.383 . S
C417 C413 1.495 . S
C417 H423 0.959 . S
C417 H424 0.961 . S
C417 H425 0.960 . S
C418 C416 1.381 . S
C418 C419 1.394 . S
C418 H426 0.930 . S
C419 C418 1.394 . S
C419 C420 1.383 . S
C419 H427 0.929 . S
C420 C419 1.383 . S
C420 C421 1.377 . S
C421 H405 0.930 . S
C421 C420 1.377 . S
C421 C422 1.379 . S
C422 H406 0.931 . S
C422 C416 1.383 . S
C422 C421 1.379 . S
H423 C417 0.959 . S
H424 C417 0.961 . S
H425 C417 0.960 . S
H426 C418 0.930 . S
H427 C419 0.929 . S
H428 C436 0.929 . S
H429 C438 0.930 . S
H430 C440 0.930 . S
H431 C443 0.929 . S
H432 C446 0.930 . S
H433 C448 0.960 . S
H434 C448 0.960 . S
H435 C448 0.960 . S
C436 H428 0.929 . S
C436 C437 1.377 . S
C436 C438 1.384 . S
C437 C436 1.377 . S
C437 C443 1.390 . S
C438 H429 0.930 . S
C438 C436 1.384 . S
C438 C439 1.372 . S
C439 C438 1.372 . S
C439 C440 1.400 . S
C439 C444 1.490 . S
C440 H430 0.930 . S
C440 C439 1.400 . S
C440 C443 1.386 . S
H441 C457 0.930 . S
H442 C458 0.931 . S
C443 H431 0.929 . S
C443 C437 1.390 . S
C443 C440 1.386 . S
C444 C439 1.490 . S
C444 C446 1.395 . S
C444 C447 1.403 . S
H445 C451 0.930 . S
C446 H432 0.930 . S
C446 C444 1.395 . S
C446 C449 1.403 . S
C447 C444 1.403 . S
C447 C448 1.524 . S
C447 C451 1.400 . S
C448 H433 0.960 . S
C448 H434 0.960 . S
C448 H435 0.960 . S
C448 C447 1.524 . S
C449 C446 1.403 . S
C449 C450 1.392 . S
C449 C453 1.495 . S
C450 C449 1.392 . S
C450 C451 1.385 . S
C450 C452 1.478 . S
C451 H445 0.930 . S
C451 C447 1.400 . S
C451 C450 1.385 . S
C452 C450 1.478 . S
C452 C454 1.381 . S
C452 C458 1.383 . S
C453 C449 1.495 . S
C453 H459 0.959 . S
C453 H460 0.961 . S
C453 H461 0.960 . S
C454 C452 1.381 . S
C454 C455 1.394 . S
C454 H462 0.930 . S
C455 C454 1.394 . S
C455 C456 1.383 . S
C455 H463 0.929 . S
C456 C455 1.383 . S
C456 C457 1.377 . S
C457 H441 0.930 . S
C457 C456 1.377 . S
C457 C458 1.379 . S
C458 H442 0.931 . S
C458 C452 1.383 . S
C458 C457 1.379 . S
H459 C453 0.959 . S
H460 C453 0.961 . S
H461 C453 0.960 . S
H462 C454 0.930 . S
H463 C455 0.929 . S
H464 C472 0.929 1_554 S
H465 C474 0.930 . S
H466 C476 0.930 . S
H467 C479 0.929 . S
H468 C482 0.930 . S
H469 C484 0.960 . S
H470 C484 0.960 . S
H471 C484 0.960 . S
C472 H464 0.929 1_556 S
C472 C473 1.377 . S
C472 C474 1.384 . S
C473 C472 1.377 . S
C473 C479 1.390 . S
C474 H465 0.930 . S
C474 C472 1.384 . S
C474 C475 1.372 . S
C475 C474 1.372 . S
C475 C476 1.400 . S
C475 C480 1.490 . S
C476 H466 0.930 . S
C476 C475 1.400 . S
C476 C479 1.386 . S
H477 C493 0.930 . S
H478 C494 0.931 . S
C479 H467 0.929 . S
C479 C473 1.390 . S
C479 C476 1.386 . S
C480 C475 1.490 . S
C480 C482 1.395 . S
C480 C483 1.403 . S
H481 C487 0.930 . S
C482 H468 0.930 . S
C482 C480 1.395 . S
C482 C485 1.403 . S
C483 C480 1.403 . S
C483 C484 1.524 . S
C483 C487 1.400 . S
C484 H469 0.960 . S
C484 H470 0.960 . S
C484 H471 0.960 . S
C484 C483 1.524 . S
C485 C482 1.403 . S
C485 C486 1.392 . S
C485 C489 1.495 . S
C486 C485 1.392 . S
C486 C487 1.385 . S
C486 C488 1.478 . S
C487 H481 0.930 . S
C487 C483 1.400 . S
C487 C486 1.385 . S
C488 C486 1.478 . S
C488 C490 1.381 . S
C488 C494 1.383 . S
C489 C485 1.495 . S
C489 H495 0.959 . S
C489 H496 0.961 . S
C489 H497 0.960 . S
C490 C488 1.381 . S
C490 C491 1.394 . S
C490 H498 0.930 . S
C491 C490 1.394 . S
C491 C492 1.383 . S
C491 H499 0.929 . S
C492 C491 1.383 . S
C492 C493 1.377 . S
C493 H477 0.930 . S
C493 C492 1.377 . S
C493 C494 1.379 . S
C494 H478 0.931 . S
C494 C488 1.383 . S
C494 C493 1.379 . S
H495 C489 0.959 . S
H496 C489 0.961 . S
H497 C489 0.960 . S
H498 C490 0.930 . S
H499 C491 0.929 . S
H500 C508 0.929 . S
H501 C510 0.930 . S
H502 C512 0.930 . S
H503 C515 0.929 . S
H504 C518 0.930 . S
H505 C520 0.960 . S
H506 C520 0.960 . S
H507 C520 0.960 . S
C508 H500 0.929 . S
C508 C509 1.377 . S
C508 C510 1.384 . S
C509 C508 1.377 . S
C509 C515 1.390 . S
C510 H501 0.930 . S
C510 C508 1.384 . S
C510 C511 1.372 . S
C511 C510 1.372 . S
C511 C512 1.400 . S
C511 C516 1.490 . S
C512 H502 0.930 . S
C512 C511 1.400 . S
C512 C515 1.386 . S
H513 C529 0.930 . S
H514 C530 0.931 . S
C515 H503 0.929 . S
C515 C509 1.390 . S
C515 C512 1.386 . S
C516 C511 1.490 . S
C516 C518 1.395 . S
C516 C519 1.403 . S
H517 C523 0.930 . S
C518 H504 0.930 . S
C518 C516 1.395 . S
C518 C521 1.403 . S
C519 C516 1.403 . S
C519 C520 1.524 . S
C519 C523 1.400 . S
C520 H505 0.960 . S
C520 H506 0.960 . S
C520 H507 0.960 . S
C520 C519 1.524 . S
C521 C518 1.403 . S
C521 C522 1.392 . S
C521 C525 1.495 . S
C522 C521 1.392 . S
C522 C523 1.385 . S
C522 C524 1.478 . S
C523 H517 0.930 . S
C523 C519 1.400 . S
C523 C522 1.385 . S
C524 C522 1.478 . S
C524 C526 1.381 . S
C524 C530 1.383 . S
C525 C521 1.495 . S
C525 H531 0.959 . S
C525 H532 0.961 . S
C525 H533 0.960 . S
C526 C524 1.381 . S
C526 C527 1.394 . S
C526 H534 0.930 . S
C527 C526 1.394 . S
C527 C528 1.383 . S
C527 H535 0.929 . S
C528 C527 1.383 . S
C528 C529 1.377 . S
C529 H513 0.930 . S
C529 C528 1.377 . S
C529 C530 1.379 . S
C530 H514 0.931 . S
C530 C524 1.383 . S
C530 C529 1.379 . S
H531 C525 0.959 . S
H532 C525 0.961 . S
H533 C525 0.960 . S
H534 C526 0.930 . S
H535 C527 0.929 . S
H536 C544 0.929 . S
H537 C546 0.930 . S
H538 C548 0.930 . S
H539 C551 0.929 . S
H540 C554 0.930 . S
H541 C556 0.960 . S
H542 C556 0.960 . S
H543 C556 0.960 . S
C544 H536 0.929 . S
C544 C545 1.377 . S
C544 C546 1.384 . S
C545 C544 1.377 . S
C545 C551 1.390 . S
C546 H537 0.930 . S
C546 C544 1.384 . S
C546 C547 1.372 . S
C547 C546 1.372 . S
C547 C548 1.400 . S
C547 C552 1.490 . S
C548 H538 0.930 . S
C548 C547 1.400 . S
C548 C551 1.386 . S
H549 C565 0.930 . S
H550 C566 0.931 . S
C551 H539 0.929 . S
C551 C545 1.390 . S
C551 C548 1.386 . S
C552 C547 1.490 . S
C552 C554 1.395 . S
C552 C555 1.403 . S
H553 C559 0.930 . S
C554 H540 0.930 . S
C554 C552 1.395 . S
C554 C557 1.403 . S
C555 C552 1.403 . S
C555 C556 1.524 . S
C555 C559 1.400 . S
C556 H541 0.960 . S
C556 H542 0.960 . S
C556 H543 0.960 . S
C556 C555 1.524 . S
C557 C554 1.403 . S
C557 C558 1.392 . S
C557 C561 1.495 . S
C558 C557 1.392 . S
C558 C559 1.385 . S
C558 C560 1.478 . S
C559 H553 0.930 . S
C559 C555 1.400 . S
C559 C558 1.385 . S
C560 C558 1.478 . S
C560 C562 1.381 . S
C560 C566 1.383 . S
C561 C557 1.495 . S
C561 H567 0.959 . S
C561 H568 0.961 . S
C561 H569 0.960 . S
C562 C560 1.381 . S
C562 C563 1.394 . S
C562 H570 0.930 . S
C563 C562 1.394 . S
C563 C564 1.383 . S
C563 H571 0.929 . S
C564 C563 1.383 . S
C564 C565 1.377 . S
C565 H549 0.930 . S
C565 C564 1.377 . S
C565 C566 1.379 . S
C566 H550 0.931 . S
C566 C560 1.383 . S
C566 C565 1.379 . S
H567 C561 0.959 . S
H568 C561 0.961 . S
H569 C561 0.960 . S
H570 C562 0.930 . S
H571 C563 0.929 . S
H572 C580 0.929 . S
H573 C582 0.930 . S
H574 C584 0.930 . S
H575 C587 0.929 . S
H576 C590 0.930 . S
H577 C592 0.960 . S
H578 C592 0.960 . S
H579 C592 0.960 . S
C580 H572 0.929 . S
C580 C581 1.377 . S
C580 C582 1.384 . S
C581 C580 1.377 . S
C581 C587 1.390 . S
C582 H573 0.930 . S
C582 C580 1.384 . S
C582 C583 1.372 . S
C583 C582 1.372 . S
C583 C584 1.400 . S
C583 C588 1.490 . S
C584 H574 0.930 . S
C584 C583 1.400 . S
C584 C587 1.386 . S
H585 C601 0.930 . S
H586 C602 0.931 . S
C587 H575 0.929 . S
C587 C581 1.390 . S
C587 C584 1.386 . S
C588 C583 1.490 . S
C588 C590 1.395 . S
C588 C591 1.403 . S
H589 C595 0.930 . S
C590 H576 0.930 . S
C590 C588 1.395 . S
C590 C593 1.403 . S
C591 C588 1.403 . S
C591 C592 1.524 . S
C591 C595 1.400 . S
C592 H577 0.960 . S
C592 H578 0.960 . S
C592 H579 0.960 . S
C592 C591 1.524 . S
C593 C590 1.403 . S
C593 C594 1.392 . S
C593 C597 1.495 . S
C594 C593 1.392 . S
C594 C595 1.385 . S
C594 C596 1.478 . S
C595 H589 0.930 . S
C595 C591 1.400 . S
C595 C594 1.385 . S
C596 C594 1.478 . S
C596 C598 1.381 . S
C596 C602 1.383 . S
C597 C593 1.495 . S
C597 H603 0.959 . S
C597 H604 0.961 . S
C597 H605 0.960 . S
C598 C596 1.381 . S
C598 C599 1.394 . S
C598 H606 0.930 . S
C599 C598 1.394 . S
C599 C600 1.383 . S
C599 H607 0.929 . S
C600 C599 1.383 . S
C600 C601 1.377 . S
C601 H585 0.930 . S
C601 C600 1.377 . S
C601 C602 1.379 . S
C602 H586 0.931 . S
C602 C596 1.383 . S
C602 C601 1.379 . S
H603 C597 0.959 . S
H604 C597 0.961 . S
H605 C597 0.960 . S
H606 C598 0.930 . S
H607 C599 0.929 . S
H608 C616 0.929 . S
H609 C618 0.930 . S
H610 C620 0.930 . S
H611 C623 0.929 . S
H612 C626 0.930 . S
H613 C628 0.960 . S
H614 C628 0.960 1_565 S
H615 C628 0.960 . S
C616 H608 0.929 . S
C616 C617 1.377 . S
C616 C618 1.384 . S
C617 C616 1.377 . S
C617 C623 1.390 . S
C618 H609 0.930 . S
C618 C616 1.384 . S
C618 C619 1.372 . S
C619 C618 1.372 . S
C619 C620 1.400 . S
C619 C624 1.490 . S
C620 H610 0.930 . S
C620 C619 1.400 . S
C620 C623 1.386 . S
H621 C637 0.930 . S
H622 C638 0.931 . S
C623 H611 0.929 . S
C623 C617 1.390 . S
C623 C620 1.386 . S
C624 C619 1.490 . S
C624 C626 1.395 . S
C624 C627 1.403 1_565 S
H625 C631 0.930 . S
C626 H612 0.930 . S
C626 C624 1.395 . S
C626 C629 1.403 . S
C627 C624 1.403 1_545 S
C627 C628 1.524 . S
C627 C631 1.400 . S
C628 H613 0.960 . S
C628 H614 0.960 1_545 S
C628 H615 0.960 . S
C628 C627 1.524 . S
C629 C626 1.403 . S
C629 C630 1.392 1_565 S
C629 C633 1.495 . S
C630 C629 1.392 1_545 S
C630 C631 1.385 . S
C630 C632 1.478 . S
C631 H625 0.930 . S
C631 C627 1.400 . S
C631 C630 1.385 . S
C632 C630 1.478 . S
C632 C634 1.381 . S
C632 C638 1.383 . S
C633 C629 1.495 . S
C633 H639 0.959 . S
C633 H640 0.961 1_565 S
C633 H641 0.960 . S
C634 C632 1.381 . S
C634 C635 1.394 . S
C634 H642 0.930 . S
C635 C634 1.394 . S
C635 C636 1.383 . S
C635 H643 0.929 . S
C636 C635 1.383 . S
C636 C637 1.377 . S
C637 H621 0.930 . S
C637 C636 1.377 . S
C637 C638 1.379 . S
C638 H622 0.931 . S
C638 C632 1.383 . S
C638 C637 1.379 . S
H639 C633 0.959 . S
H640 C633 0.961 1_545 S
H641 C633 0.960 . S
H642 C634 0.930 . S
H643 C635 0.929 . S
H644 C652 0.929 . S
H645 C654 0.930 . S
H646 C656 0.930 . S
H647 C659 0.929 . S
H648 C662 0.930 . S
H649 C664 0.960 . S
H650 C664 0.960 . S
H651 C664 0.960 . S
C652 H644 0.929 . S
C652 C653 1.377 . S
C652 C654 1.384 . S
C653 C652 1.377 . S
C653 C659 1.390 . S
C654 H645 0.930 . S
C654 C652 1.384 . S
C654 C655 1.372 . S
C655 C654 1.372 . S
C655 C656 1.400 . S
C655 C660 1.490 . S
C656 H646 0.930 . S
C656 C655 1.400 . S
C656 C659 1.386 . S
H657 C673 0.930 . S
H658 C674 0.931 . S
C659 H647 0.929 . S
C659 C653 1.390 . S
C659 C656 1.386 . S
C660 C655 1.490 . S
C660 C662 1.395 1_545 S
C660 C663 1.403 . S
H661 C667 0.930 . S
C662 H648 0.930 . S
C662 C660 1.395 1_565 S
C662 C665 1.403 . S
C663 C660 1.403 . S
C663 C664 1.524 . S
C663 C667 1.400 . S
C664 H649 0.960 . S
C664 H650 0.960 . S
C664 H651 0.960 . S
C664 C663 1.524 . S
C665 C662 1.403 . S
C665 C666 1.392 . S
C665 C669 1.495 . S
C666 C665 1.392 . S
C666 C667 1.385 1_565 S
C666 C668 1.478 . S
C667 H661 0.930 . S
C667 C663 1.400 . S
C667 C666 1.385 1_545 S
C668 C666 1.478 . S
C668 C670 1.381 . S
C668 C674 1.383 . S
C669 C665 1.495 . S
C669 H675 0.959 . S
C669 H676 0.961 . S
C669 H677 0.960 . S
C670 C668 1.381 . S
C670 C671 1.394 . S
C670 H678 0.930 . S
C671 C670 1.394 . S
C671 C672 1.383 . S
C671 H679 0.929 . S
C672 C671 1.383 . S
C672 C673 1.377 . S
C673 H657 0.930 . S
C673 C672 1.377 . S
C673 C674 1.379 . S
C674 H658 0.931 . S
C674 C668 1.383 . S
C674 C673 1.379 . S
H675 C669 0.959 . S
H676 C669 0.961 . S
H677 C669 0.960 . S
H678 C670 0.930 . S
H679 C671 0.929 . S
H680 C688 0.929 1_554 S
H681 C690 0.930 . S
H682 C692 0.930 . S
H683 C695 0.929 . S
H684 C698 0.930 . S
H685 C700 0.960 . S
H686 C700 0.960 . S
H687 C700 0.960 . S
C688 H680 0.929 1_556 S
C688 C689 1.377 . S
C688 C690 1.384 . S
C689 C688 1.377 . S
C689 C695 1.390 . S
C690 H681 0.930 . S
C690 C688 1.384 . S
C690 C691 1.372 . S
C691 C690 1.372 . S
C691 C692 1.400 . S
C691 C696 1.490 . S
C692 H682 0.930 . S
C692 C691 1.400 . S
C692 C695 1.386 . S
H693 C709 0.930 . S
H694 C710 0.931 . S
C695 H683 0.929 . S
C695 C689 1.390 . S
C695 C692 1.386 . S
C696 C691 1.490 . S
C696 C698 1.395 1_565 S
C696 C699 1.403 . S
H697 C703 0.930 . S
C698 H684 0.930 . S
C698 C696 1.395 1_545 S
C698 C701 1.403 . S
C699 C696 1.403 . S
C699 C700 1.524 . S
C699 C703 1.400 . S
C700 H685 0.960 . S
C700 H686 0.960 . S
C700 H687 0.960 . S
C700 C699 1.524 . S
C701 C698 1.403 . S
C701 C702 1.392 . S
C701 C705 1.495 . S
C702 C701 1.392 . S
C702 C703 1.385 1_545 S
C702 C704 1.478 . S
C703 H697 0.930 . S
C703 C699 1.400 . S
C703 C702 1.385 1_565 S
C704 C702 1.478 . S
C704 C706 1.381 . S
C704 C710 1.383 . S
C705 C701 1.495 . S
C705 H711 0.959 . S
C705 H712 0.961 . S
C705 H713 0.960 . S
C706 C704 1.381 . S
C706 C707 1.394 . S
C706 H714 0.930 . S
C707 C706 1.394 . S
C707 C708 1.383 . S
C707 H715 0.929 . S
C708 C707 1.383 . S
C708 C709 1.377 . S
C709 H693 0.930 . S
C709 C708 1.377 . S
C709 C710 1.379 . S
C710 H694 0.931 . S
C710 C704 1.383 . S
C710 C709 1.379 . S
H711 C705 0.959 . S
H712 C705 0.961 . S
H713 C705 0.960 . S
H714 C706 0.930 . S
H715 C707 0.929 . S
H716 C724 0.929 . S
H717 C726 0.930 . S
H718 C728 0.930 . S
H719 C731 0.929 . S
H720 C734 0.930 . S
H721 C736 0.960 . S
H722 C736 0.960 . S
H723 C736 0.960 . S
C724 H716 0.929 . S
C724 C725 1.377 . S
C724 C726 1.384 . S
C725 C724 1.377 . S
C725 C731 1.390 . S
C726 H717 0.930 . S
C726 C724 1.384 . S
C726 C727 1.372 . S
C727 C726 1.372 . S
C727 C728 1.400 . S
C727 C732 1.490 . S
C728 H718 0.930 . S
C728 C727 1.400 . S
C728 C731 1.386 . S
H729 C745 0.930 . S
H730 C746 0.931 . S
C731 H719 0.929 . S
C731 C725 1.390 . S
C731 C728 1.386 . S
C732 C727 1.490 . S
C732 C734 1.395 . S
C732 C735 1.403 1_545 S
H733 C739 0.930 . S
C734 H720 0.930 . S
C734 C732 1.395 . S
C734 C737 1.403 . S
C735 C732 1.403 1_565 S
C735 C736 1.524 . S
C735 C739 1.400 . S
C736 H721 0.960 . S
C736 H722 0.960 . S
C736 H723 0.960 . S
C736 C735 1.524 . S
C737 C734 1.403 . S
C737 C738 1.392 1_545 S
C737 C741 1.495 . S
C738 C737 1.392 1_565 S
C738 C739 1.385 . S
C738 C740 1.478 . S
C739 H733 0.930 . S
C739 C735 1.400 . S
C739 C738 1.385 . S
C740 C738 1.478 . S
C740 C742 1.381 . S
C740 C746 1.383 . S
C741 C737 1.495 . S
C741 H747 0.959 . S
C741 H748 0.961 1_545 S
C741 H749 0.960 . S
C742 C740 1.381 . S
C742 C743 1.394 . S
C742 H750 0.930 . S
C743 C742 1.394 . S
C743 C744 1.383 . S
C743 H751 0.929 . S
C744 C743 1.383 . S
C744 C745 1.377 . S
C745 H729 0.930 . S
C745 C744 1.377 . S
C745 C746 1.379 . S
C746 H730 0.931 . S
C746 C740 1.383 . S
C746 C745 1.379 . S
H747 C741 0.959 . S
H748 C741 0.961 1_565 S
H749 C741 0.960 . S
H750 C742 0.930 . S
H751 C743 0.929 . S
H752 C760 0.929 . S
H753 C762 0.930 . S
H754 C764 0.930 . S
H755 C767 0.929 . S
H756 C770 0.930 . S
H757 C772 0.960 . S
H758 C772 0.960 . S
H759 C772 0.960 . S
C760 H752 0.929 . S
C760 C761 1.377 . S
C760 C762 1.384 . S
C761 C760 1.377 . S
C761 C767 1.390 . S
C762 H753 0.930 . S
C762 C760 1.384 . S
C762 C763 1.372 . S
C763 C762 1.372 . S
C763 C764 1.400 . S
C763 C768 1.490 . S
C764 H754 0.930 . S
C764 C763 1.400 . S
C764 C767 1.386 . S
H765 C781 0.930 . S
H766 C782 0.931 . S
C767 H755 0.929 . S
C767 C761 1.390 . S
C767 C764 1.386 . S
C768 C763 1.490 . S
C768 C770 1.395 . S
C768 C771 1.403 . S
H769 C775 0.930 . S
C770 H756 0.930 . S
C770 C768 1.395 . S
C770 C773 1.403 . S
C771 C768 1.403 . S
C771 C772 1.524 . S
C771 C775 1.400 . S
C772 H757 0.960 . S
C772 H758 0.960 . S
C772 H759 0.960 . S
C772 C771 1.524 . S
C773 C770 1.403 . S
C773 C774 1.392 . S
C773 C777 1.495 . S
C774 C773 1.392 . S
C774 C775 1.385 . S
C774 C776 1.478 . S
C775 H769 0.930 . S
C775 C771 1.400 . S
C775 C774 1.385 . S
C776 C774 1.478 . S
C776 C778 1.381 . S
C776 C782 1.383 . S
C777 C773 1.495 . S
C777 H783 0.959 . S
C777 H784 0.961 . S
C777 H785 0.960 . S
C778 C776 1.381 . S
C778 C779 1.394 . S
C778 H786 0.930 . S
C779 C778 1.394 . S
C779 C780 1.383 . S
C779 H787 0.929 . S
C780 C779 1.383 . S
C780 C781 1.377 . S
C781 H765 0.930 . S
C781 C780 1.377 . S
C781 C782 1.379 . S
C782 H766 0.931 . S
C782 C776 1.383 . S
C782 C781 1.379 . S
H783 C777 0.959 . S
H784 C777 0.961 . S
H785 C777 0.960 . S
H786 C778 0.930 . S
H787 C779 0.929 . S
H788 C796 0.929 . S
H789 C798 0.930 . S
H790 C800 0.930 . S
H791 C803 0.929 . S
H792 C806 0.930 . S
H793 C808 0.960 . S
H794 C808 0.960 . S
H795 C808 0.960 . S
C796 H788 0.929 . S
C796 C797 1.377 . S
C796 C798 1.384 . S
C797 C796 1.377 . S
C797 C803 1.390 . S
C798 H789 0.930 . S
C798 C796 1.384 . S
C798 C799 1.372 . S
C799 C798 1.372 . S
C799 C800 1.400 . S
C799 C804 1.490 . S
C800 H790 0.930 . S
C800 C799 1.400 . S
C800 C803 1.386 . S
H801 C817 0.930 . S
H802 C818 0.931 . S
C803 H791 0.929 . S
C803 C797 1.390 . S
C803 C800 1.386 . S
C804 C799 1.490 . S
C804 C806 1.395 . S
C804 C807 1.403 . S
H805 C811 0.930 . S
C806 H792 0.930 . S
C806 C804 1.395 . S
C806 C809 1.403 . S
C807 C804 1.403 . S
C807 C808 1.524 . S
C807 C811 1.400 . S
C808 H793 0.960 . S
C808 H794 0.960 . S
C808 H795 0.960 . S
C808 C807 1.524 . S
C809 C806 1.403 . S
C809 C810 1.392 . S
C809 C813 1.495 . S
C810 C809 1.392 . S
C810 C811 1.385 . S
C810 C812 1.478 . S
C811 H805 0.930 . S
C811 C807 1.400 . S
C811 C810 1.385 . S
C812 C810 1.478 . S
C812 C814 1.381 . S
C812 C818 1.383 . S
C813 C809 1.495 . S
C813 H819 0.959 . S
C813 H820 0.961 . S
C813 H821 0.960 . S
C814 C812 1.381 . S
C814 C815 1.394 . S
C814 H822 0.930 . S
C815 C814 1.394 . S
C815 C816 1.383 . S
C815 H823 0.929 . S
C816 C815 1.383 . S
C816 C817 1.377 . S
C817 H801 0.930 . S
C817 C816 1.377 . S
C817 C818 1.379 . S
C818 H802 0.931 . S
C818 C812 1.383 . S
C818 C817 1.379 . S
H819 C813 0.959 . S
H820 C813 0.961 . S
H821 C813 0.960 . S
H822 C814 0.930 . S
H823 C815 0.929 . S
H824 C832 0.929 . S
H825 C834 0.930 . S
H826 C836 0.930 . S
H827 C839 0.929 . S
H828 C842 0.930 . S
H829 C844 0.960 . S
H830 C844 0.960 . S
H831 C844 0.960 . S
C832 H824 0.929 . S
C832 C833 1.377 . S
C832 C834 1.384 . S
C833 C832 1.377 . S
C833 C839 1.390 . S
C834 H825 0.930 . S
C834 C832 1.384 . S
C834 C835 1.372 . S
C835 C834 1.372 . S
C835 C836 1.400 . S
C835 C840 1.490 . S
C836 H826 0.930 . S
C836 C835 1.400 . S
C836 C839 1.386 . S
H837 C853 0.930 . S
H838 C854 0.931 . S
C839 H827 0.929 . S
C839 C833 1.390 . S
C839 C836 1.386 . S
C840 C835 1.490 . S
C840 C842 1.395 . S
C840 C843 1.403 . S
H841 C847 0.930 . S
C842 H828 0.930 . S
C842 C840 1.395 . S
C842 C845 1.403 . S
C843 C840 1.403 . S
C843 C844 1.524 . S
C843 C847 1.400 . S
C844 H829 0.960 . S
C844 H830 0.960 . S
C844 H831 0.960 . S
C844 C843 1.524 . S
C845 C842 1.403 . S
C845 C846 1.392 . S
C845 C849 1.495 . S
C846 C845 1.392 . S
C846 C847 1.385 . S
C846 C848 1.478 . S
C847 H841 0.930 . S
C847 C843 1.400 . S
C847 C846 1.385 . S
C848 C846 1.478 . S
C848 C850 1.381 . S
C848 C854 1.383 . S
C849 C845 1.495 . S
C849 H855 0.959 . S
C849 H856 0.961 . S
C849 H857 0.960 . S
C850 C848 1.381 . S
C850 C851 1.394 . S
C850 H858 0.930 . S
C851 C850 1.394 . S
C851 C852 1.383 . S
C851 H859 0.929 . S
C852 C851 1.383 . S
C852 C853 1.377 . S
C853 H837 0.930 . S
C853 C852 1.377 . S
C853 C854 1.379 . S
C854 H838 0.931 . S
C854 C848 1.383 . S
C854 C853 1.379 . S
H855 C849 0.959 . S
H856 C849 0.961 . S
H857 C849 0.960 . S
H858 C850 0.930 . S
H859 C851 0.929 . S
H860 C868 0.929 . S
H861 C870 0.930 . S
H862 C872 0.930 . S
H863 C875 0.929 . S
H864 C878 0.930 . S
H865 C880 0.960 . S
H866 C880 0.960 . S
H867 C880 0.960 . S
C868 H860 0.929 . S
C868 C869 1.377 . S
C868 C870 1.384 . S
C869 C868 1.377 . S
C869 C875 1.390 . S
C870 H861 0.930 . S
C870 C868 1.384 . S
C870 C871 1.372 . S
C871 C870 1.372 . S
C871 C872 1.400 . S
C871 C876 1.490 . S
C872 H862 0.930 . S
C872 C871 1.400 . S
C872 C875 1.386 . S
H873 C889 0.930 . S
H874 C890 0.931 . S
C875 H863 0.929 . S
C875 C869 1.390 . S
C875 C872 1.386 . S
C876 C871 1.490 . S
C876 C878 1.395 . S
C876 C879 1.403 . S
H877 C883 0.930 . S
C878 H864 0.930 . S
C878 C876 1.395 . S
C878 C881 1.403 . S
C879 C876 1.403 . S
C879 C880 1.524 . S
C879 C883 1.400 . S
C880 H865 0.960 . S
C880 H866 0.960 . S
C880 H867 0.960 . S
C880 C879 1.524 . S
C881 C878 1.403 . S
C881 C882 1.392 . S
C881 C885 1.495 . S
C882 C881 1.392 . S
C882 C883 1.385 . S
C882 C884 1.478 . S
C883 H877 0.930 . S
C883 C879 1.400 . S
C883 C882 1.385 . S
C884 C882 1.478 . S
C884 C886 1.381 . S
C884 C890 1.383 . S
C885 C881 1.495 . S
C885 H891 0.959 . S
C885 H892 0.961 . S
C885 H893 0.960 . S
C886 C884 1.381 . S
C886 C887 1.394 . S
C886 H894 0.930 . S
C887 C886 1.394 . S
C887 C888 1.383 . S
C887 H895 0.929 . S
C888 C887 1.383 . S
C888 C889 1.377 . S
C889 H873 0.930 . S
C889 C888 1.377 . S
C889 C890 1.379 . S
C890 H874 0.931 . S
C890 C884 1.383 . S
C890 C889 1.379 . S
H891 C885 0.959 . S
H892 C885 0.961 . S
H893 C885 0.960 . S
H894 C886 0.930 . S
H895 C887 0.929 . S
H896 C904 0.929 . S
H897 C906 0.930 . S
H898 C908 0.930 . S
H899 C911 0.929 . S
H900 C914 0.930 . S
H901 C916 0.960 . S
H902 C916 0.960 . S
H903 C916 0.960 . S
C904 H896 0.929 . S
C904 C905 1.377 . S
C904 C906 1.384 . S
C905 C904 1.377 . S
C905 C911 1.390 . S
C906 H897 0.930 . S
C906 C904 1.384 . S
C906 C907 1.372 . S
C907 C906 1.372 . S
C907 C908 1.400 . S
C907 C912 1.490 . S
C908 H898 0.930 . S
C908 C907 1.400 . S
C908 C911 1.386 . S
H909 C925 0.930 . S
H910 C926 0.931 . S
C911 H899 0.929 . S
C911 C905 1.390 . S
C911 C908 1.386 . S
C912 C907 1.490 . S
C912 C914 1.395 . S
C912 C915 1.403 . S
H913 C919 0.930 . S
C914 H900 0.930 . S
C914 C912 1.395 . S
C914 C917 1.403 . S
C915 C912 1.403 . S
C915 C916 1.524 . S
C915 C919 1.400 . S
C916 H901 0.960 . S
C916 H902 0.960 . S
C916 H903 0.960 . S
C916 C915 1.524 . S
C917 C914 1.403 . S
C917 C918 1.392 . S
C917 C921 1.495 . S
C918 C917 1.392 . S
C918 C919 1.385 . S
C918 C920 1.478 . S
C919 H913 0.930 . S
C919 C915 1.400 . S
C919 C918 1.385 . S
C920 C918 1.478 . S
C920 C922 1.381 . S
C920 C926 1.383 . S
C921 C917 1.495 . S
C921 H927 0.959 . S
C921 H928 0.961 . S
C921 H929 0.960 . S
C922 C920 1.381 . S
C922 C923 1.394 . S
C922 H930 0.930 . S
C923 C922 1.394 . S
C923 C924 1.383 . S
C923 H931 0.929 . S
C924 C923 1.383 . S
C924 C925 1.377 . S
C925 H909 0.930 . S
C925 C924 1.377 . S
C925 C926 1.379 . S
C926 H910 0.931 . S
C926 C920 1.383 . S
C926 C925 1.379 . S
H927 C921 0.959 . S
H928 C921 0.961 . S
H929 C921 0.960 . S
H930 C922 0.930 . S
H931 C923 0.929 . S
H932 C940 0.929 . S
H933 C942 0.930 . S
H934 C944 0.930 . S
H935 C947 0.929 . S
H936 C950 0.930 . S
H937 C952 0.960 . S
H938 C952 0.960 . S
H939 C952 0.960 . S
C940 H932 0.929 . S
C940 C941 1.377 . S
C940 C942 1.384 . S
C941 C940 1.377 . S
C941 C947 1.390 . S
C942 H933 0.930 . S
C942 C940 1.384 . S
C942 C943 1.372 . S
C943 C942 1.372 . S
C943 C944 1.400 . S
C943 C948 1.490 . S
C944 H934 0.930 . S
C944 C943 1.400 . S
C944 C947 1.386 . S
H945 C961 0.930 . S
H946 C962 0.931 . S
C947 H935 0.929 . S
C947 C941 1.390 . S
C947 C944 1.386 . S
C948 C943 1.490 . S
C948 C950 1.395 . S
C948 C951 1.403 . S
H949 C955 0.930 . S
C950 H936 0.930 . S
C950 C948 1.395 . S
C950 C953 1.403 . S
C951 C948 1.403 . S
C951 C952 1.524 . S
C951 C955 1.400 . S
C952 H937 0.960 . S
C952 H938 0.960 . S
C952 H939 0.960 . S
C952 C951 1.524 . S
C953 C950 1.403 . S
C953 C954 1.392 . S
C953 C957 1.495 . S
C954 C953 1.392 . S
C954 C955 1.385 . S
C954 C956 1.478 . S
C955 H949 0.930 . S
C955 C951 1.400 . S
C955 C954 1.385 . S
C956 C954 1.478 . S
C956 C958 1.381 . S
C956 C962 1.383 . S
C957 C953 1.495 . S
C957 H963 0.959 . S
C957 H964 0.961 . S
C957 H965 0.960 . S
C958 C956 1.381 . S
C958 C959 1.394 . S
C958 H966 0.930 . S
C959 C958 1.394 . S
C959 C960 1.383 . S
C959 H967 0.929 . S
C960 C959 1.383 . S
C960 C961 1.377 . S
C961 H945 0.930 . S
C961 C960 1.377 . S
C961 C962 1.379 . S
C962 H946 0.931 . S
C962 C956 1.383 . S
C962 C961 1.379 . S
H963 C957 0.959 . S
H964 C957 0.961 . S
H965 C957 0.960 . S
H966 C958 0.930 . S
H967 C959 0.929 . S
H968 C976 0.929 . S
H969 C978 0.930 . S
H970 C980 0.930 . S
H971 C983 0.929 . S
H972 C986 0.930 . S
H973 C988 0.960 . S
H974 C988 0.960 . S
H975 C988 0.960 . S
C976 H968 0.929 . S
C976 C977 1.377 . S
C976 C978 1.384 . S
C977 C976 1.377 . S
C977 C983 1.390 . S
C978 H969 0.930 . S
C978 C976 1.384 . S
C978 C979 1.372 . S
C979 C978 1.372 . S
C979 C980 1.400 . S
C979 C984 1.490 . S
C980 H970 0.930 . S
C980 C979 1.400 . S
C980 C983 1.386 . S
H981 C997 0.930 . S
H982 C998 0.931 . S
C983 H971 0.929 . S
C983 C977 1.390 . S
C983 C980 1.386 . S
C984 C979 1.490 . S
C984 C986 1.395 . S
C984 C987 1.403 . S
H985 C991 0.930 . S
C986 H972 0.930 . S
C986 C984 1.395 . S
C986 C989 1.403 . S
C987 C984 1.403 . S
C987 C988 1.524 . S
C987 C991 1.400 . S
C988 H973 0.960 . S
C988 H974 0.960 . S
C988 H975 0.960 . S
C988 C987 1.524 . S
C989 C986 1.403 . S
C989 C990 1.392 . S
C989 C993 1.495 . S
C990 C989 1.392 . S
C990 C991 1.385 . S
C990 C992 1.478 . S
C991 H985 0.930 . S
C991 C987 1.400 . S
C991 C990 1.385 . S
C992 C990 1.478 . S
C992 C994 1.381 . S
C992 C998 1.383 . S
C993 C989 1.495 . S
C993 H999 0.959 . S
C993 H1000 0.961 . S
C993 H1001 0.960 . S
C994 C992 1.381 . S
C994 C995 1.394 . S
C994 H1002 0.930 . S
C995 C994 1.394 . S
C995 C996 1.383 . S
C995 H1003 0.929 . S
C996 C995 1.383 . S
C996 C997 1.377 . S
C997 H981 0.930 . S
C997 C996 1.377 . S
C997 C998 1.379 . S
C998 H982 0.931 . S
C998 C992 1.383 . S
C998 C997 1.379 . S
H999 C993 0.959 . S
H1000 C993 0.961 . S
H1001 C993 0.960 . S
H1002 C994 0.930 . S
H1003 C995 0.929 . S
H1004 C1012 0.929 . S
H1005 C1014 0.930 . S
H1006 C1016 0.930 . S
H1007 C1019 0.929 . S
H1008 C1022 0.930 . S
H1009 C1024 0.960 . S
H1010 C1024 0.960 . S
H1011 C1024 0.960 . S
C1012 H1004 0.929 . S
C1012 C1013 1.377 . S
C1012 C1014 1.384 . S
C1013 C1012 1.377 . S
C1013 C1019 1.390 . S
C1014 H1005 0.930 . S
C1014 C1012 1.384 . S
C1014 C1015 1.372 . S
C1015 C1014 1.372 . S
C1015 C1016 1.400 . S
C1015 C1020 1.490 . S
C1016 H1006 0.930 . S
C1016 C1015 1.400 . S
C1016 C1019 1.386 . S
H1017 C1033 0.930 . S
H1018 C1034 0.931 . S
C1019 H1007 0.929 . S
C1019 C1013 1.390 . S
C1019 C1016 1.386 . S
C1020 C1015 1.490 . S
C1020 C1022 1.395 . S
C1020 C1023 1.403 . S
H1021 C1027 0.930 . S
C1022 H1008 0.930 . S
C1022 C1020 1.395 . S
C1022 C1025 1.403 . S
C1023 C1020 1.403 . S
C1023 C1024 1.524 . S
C1023 C1027 1.400 . S
C1024 H1009 0.960 . S
C1024 H1010 0.960 . S
C1024 H1011 0.960 . S
C1024 C1023 1.524 . S
C1025 C1022 1.403 . S
C1025 C1026 1.392 . S
C1025 C1029 1.495 . S
C1026 C1025 1.392 . S
C1026 C1027 1.385 . S
C1026 C1028 1.478 . S
C1027 H1021 0.930 . S
C1027 C1023 1.400 . S
C1027 C1026 1.385 . S
C1028 C1026 1.478 . S
C1028 C1030 1.381 . S
C1028 C1034 1.383 . S
C1029 C1025 1.495 . S
C1029 H1035 0.959 . S
C1029 H1036 0.961 . S
C1029 H1037 0.960 . S
C1030 C1028 1.381 . S
C1030 C1031 1.394 . S
C1030 H1038 0.930 . S
C1031 C1030 1.394 . S
C1031 C1032 1.383 . S
C1031 H1039 0.929 . S
C1032 C1031 1.383 . S
C1032 C1033 1.377 . S
C1033 H1017 0.930 . S
C1033 C1032 1.377 . S
C1033 C1034 1.379 . S
C1034 H1018 0.931 . S
C1034 C1028 1.383 . S
C1034 C1033 1.379 . S
H1035 C1029 0.959 . S
H1036 C1029 0.961 . S
H1037 C1029 0.960 . S
H1038 C1030 0.930 . S
H1039 C1031 0.929 . S
C185 C10 1.540 . S
C204 C114 1.500 . S
C240 C92 1.506 . S
C221 C21 1.543 . S
C276 C118 1.585 . S
C257 C32 1.615 . S
C312 C96 1.481 . S
C293 C43 1.485 . S
C348 C158 1.532 . S
C329 C54 1.538 . S
C384 C136 1.506 . S
C365 C65 1.541 . S
C401 C76 1.616 . S
C420 C162 1.596 . S
C456 C140 1.445 . S
C437 C87 1.485 . S
C473 C5 1.500 . S
C492 C163 1.495 . S
C528 C141 1.476 . S
C509 C16 1.472 . S
C545 C27 1.555 . S
C564 C160 1.580 . S
C581 C37 1.415 . S
C600 C138 1.406 . S
C636 C119 1.516 . S
C617 C49 1.493 . S
C653 C60 1.477 . S
C672 C97 1.499 . S
C708 C116 1.571 . S
C689 C71 1.553 . S
C744 C94 1.394 . S
C725 C81 1.413 . S
C780 C137 1.493 . S
C761 C4 1.481 . S
C816 C159 1.452 . S
C797 C15 1.465 . S
C833 C26 1.490 . S
C852 C139 1.493 . S
C888 C161 1.448 . S
C869 C38 1.455 . S
C924 C93 1.479 . S
C905 C48 1.486 . S
C941 C59 1.464 . S
C960 C115 1.454 . S
C977 C70 1.493 . S
C996 C95 1.477 . S
C1013 C82 1.453 . S
C1032 C117 1.450 . S
