# Generated by pormake.
# Topology ssb, (4,4)-cn, num edge types: 1
# Building blocks:
#     Node 0, Type 0, BuildingBlock: MIFKUJ_clean_linker_1, # of connection points: 4
#     Node 1, Type 0, BuildingBlock: MIFKUJ_clean_linker_1, # of connection points: 4
#     Node 2, Type 0, BuildingBlock: MIFKUJ_clean_linker_1, # of connection points: 4
#     Node 3, Type 0, BuildingBlock: MIFKUJ_clean_linker_1, # of connection points: 4
#     Node 4, Type 0, BuildingBlock: MIFKUJ_clean_linker_1, # of connection points: 4
#     Node 5, Type 0, BuildingBlock: MIFKUJ_clean_linker_1, # of connection points: 4
#     Node 6, Type 0, BuildingBlock: MIFKUJ_clean_linker_1, # of connection points: 4
#     Node 7, Type 0, BuildingBlock: MIFKUJ_clean_linker_1, # of connection points: 4
#     Node 8, Type 1, BuildingBlock: NAWXER_clean_sbu_0, # of connection points: 4
#     Node 9, Type 1, BuildingBlock: NAWXER_clean_sbu_0, # of connection points: 4
#     Node 10, Type 1, BuildingBlock: NAWXER_clean_sbu_0, # of connection points: 4
#     Node 11, Type 1, BuildingBlock: NAWXER_clean_sbu_0, # of connection points: 4
#     Node 12, Type 1, BuildingBlock: NAWXER_clean_sbu_0, # of connection points: 4
#     Node 13, Type 1, BuildingBlock: NAWXER_clean_sbu_0, # of connection points: 4
#     Node 14, Type 1, BuildingBlock: NAWXER_clean_sbu_0, # of connection points: 4
#     Node 15, Type 1, BuildingBlock: NAWXER_clean_sbu_0, # of connection points: 4
#     Edge 16, Type (0, 1), BuildingBlock: ZUJKAS_clean_linker_0, # of connection points: 2
#     Edge 17, Type (0, 1), BuildingBlock: ZUJKAS_clean_linker_0, # of connection points: 2
#     Edge 18, Type (0, 1), BuildingBlock: ZUJKAS_clean_linker_0, # of connection points: 2
#     Edge 19, Type (0, 1), BuildingBlock: ZUJKAS_clean_linker_0, # of connection points: 2
#     Edge 20, Type (0, 1), BuildingBlock: ZUJKAS_clean_linker_0, # of connection points: 2
#     Edge 21, Type (0, 1), BuildingBlock: ZUJKAS_clean_linker_0, # of connection points: 2
#     Edge 22, Type (0, 1), BuildingBlock: ZUJKAS_clean_linker_0, # of connection points: 2
#     Edge 23, Type (0, 1), BuildingBlock: ZUJKAS_clean_linker_0, # of connection points: 2
#     Edge 24, Type (0, 1), BuildingBlock: ZUJKAS_clean_linker_0, # of connection points: 2
#     Edge 25, Type (0, 1), BuildingBlock: ZUJKAS_clean_linker_0, # of connection points: 2
#     Edge 26, Type (0, 1), BuildingBlock: ZUJKAS_clean_linker_0, # of connection points: 2
#     Edge 27, Type (0, 1), BuildingBlock: ZUJKAS_clean_linker_0, # of connection points: 2
#     Edge 28, Type (0, 1), BuildingBlock: ZUJKAS_clean_linker_0, # of connection points: 2
#     Edge 29, Type (0, 1), BuildingBlock: ZUJKAS_clean_linker_0, # of connection points: 2
#     Edge 30, Type (0, 1), BuildingBlock: ZUJKAS_clean_linker_0, # of connection points: 2
#     Edge 31, Type (0, 1), BuildingBlock: ZUJKAS_clean_linker_0, # of connection points: 2
#     Edge 32, Type (0, 1), BuildingBlock: ZUJKAS_clean_linker_0, # of connection points: 2
#     Edge 33, Type (0, 1), BuildingBlock: ZUJKAS_clean_linker_0, # of connection points: 2
#     Edge 34, Type (0, 1), BuildingBlock: ZUJKAS_clean_linker_0, # of connection points: 2
#     Edge 35, Type (0, 1), BuildingBlock: ZUJKAS_clean_linker_0, # of connection points: 2
#     Edge 36, Type (0, 1), BuildingBlock: ZUJKAS_clean_linker_0, # of connection points: 2
#     Edge 37, Type (0, 1), BuildingBlock: ZUJKAS_clean_linker_0, # of connection points: 2
#     Edge 38, Type (0, 1), BuildingBlock: ZUJKAS_clean_linker_0, # of connection points: 2
#     Edge 39, Type (0, 1), BuildingBlock: ZUJKAS_clean_linker_0, # of connection points: 2
#     Edge 40, Type (0, 1), BuildingBlock: ZUJKAS_clean_linker_0, # of connection points: 2
#     Edge 41, Type (0, 1), BuildingBlock: ZUJKAS_clean_linker_0, # of connection points: 2
#     Edge 42, Type (0, 1), BuildingBlock: ZUJKAS_clean_linker_0, # of connection points: 2
#     Edge 43, Type (0, 1), BuildingBlock: ZUJKAS_clean_linker_0, # of connection points: 2
#     Edge 44, Type (0, 1), BuildingBlock: ZUJKAS_clean_linker_0, # of connection points: 2
#     Edge 45, Type (0, 1), BuildingBlock: ZUJKAS_clean_linker_0, # of connection points: 2
#     Edge 46, Type (0, 1), BuildingBlock: ZUJKAS_clean_linker_0, # of connection points: 2
#     Edge 47, Type (0, 1), BuildingBlock: ZUJKAS_clean_linker_0, # of connection points: 2
# Relax obj value: 0.000
# Max RMSD: 0.000
# Mean RMSD: 0.000
data_MOF--net-ssb--node1-NAWXER_clean_sbu_0--node2-MIFKUJ_clean_linker_1--edge1-ZUJKAS_clean_linker_0
_symmetry_space_group_name_H-M    P1
_symmetry_Int_Tables_number       1
_symmetry_cell_setting            triclinic
loop_
_symmetry_equiv_pos_as_xyz
'x, y, z'
_cell_length_a     67.677275
_cell_length_b     67.574379
_cell_length_c     59.056156
_cell_angle_alpha  89.962116
_cell_angle_beta   90.063065
_cell_angle_gamma 89.969708
loop_
_atom_site_label
_atom_site_type_symbol
_atom_site_fract_x
_atom_site_fract_y
_atom_site_fract_z
_atom_type_partial_charge
H0 H 0.26684 0.2163 0.19108 0.0
H1 H 0.29581 0.21281 0.16649 0.0
H2 H 0.32426 0.26102 0.20169 0.0
H3 H 0.29517 0.26455 0.22613 0.0
H4 H 0.26664 0.21357 0.23959 0.0
H5 H 0.25167 0.26031 0.17992 0.0
H6 H 0.25846 0.28852 0.15525 0.0
H7 H 0.26319 0.32642 0.21391 0.0
H8 H 0.25628 0.2981 0.23849 0.0
H9 H 0.21964 0.27252 0.28691 0.0
H10 H 0.19154 0.27232 0.31299 0.0
H11 H 0.17108 0.21761 0.28319 0.0
H12 H 0.19862 0.21839 0.25665 0.0
H13 H 0.22437 0.27361 0.24154 0.0
H14 H 0.24085 0.22969 0.30124 0.0
H15 H 0.23623 0.20278 0.32831 0.0
H16 H 0.23172 0.16118 0.27299 0.0
H17 H 0.23647 0.18824 0.24595 0.0
C18 C 0.27887 0.24075 0.21028 0.0
C19 C 0.27931 0.22613 0.19342 0.0
C20 C 0.29579 0.22421 0.17938 0.0
C21 C 0.31224 0.23663 0.18225 0.0
C22 C 0.31182 0.25117 0.19926 0.0
C23 C 0.29521 0.25328 0.2131 0.0
C24 C 0.26151 0.24246 0.22535 0.0
C25 C 0.2572 0.22656 0.23979 0.0
C26 C 0.24978 0.2598 0.22618 0.0
C27 C 0.25367 0.27702 0.2111 0.0
C28 C 0.25434 0.27465 0.18749 0.0
C29 C 0.25828 0.29082 0.17339 0.0
C30 C 0.26149 0.30976 0.18257 0.0
C31 C 0.2606 0.31211 0.20624 0.0
C32 C 0.25669 0.29592 0.22033 0.0
C33 C 0.21136 0.24536 0.27001 0.0
C34 C 0.20891 0.26067 0.2858 0.0
C35 C 0.19296 0.2604 0.30085 0.0
C36 C 0.17913 0.24484 0.30035 0.0
C37 C 0.18131 0.2299 0.28397 0.0
C38 C 0.19717 0.23024 0.26889 0.0
C39 C 0.22924 0.24451 0.25548 0.0
C40 C 0.23375 0.26059 0.24128 0.0
C41 C 0.24148 0.22751 0.25516 0.0
C42 C 0.2388 0.21102 0.27155 0.0
C43 C 0.2387 0.2148 0.29493 0.0
C44 C 0.23599 0.19939 0.31039 0.0
C45 C 0.23348 0.17982 0.30283 0.0
C46 C 0.23378 0.17604 0.27939 0.0
C47 C 0.23647 0.1915 0.26391 0.0
H48 H 0.69073 0.26194 0.25932 0.0
H49 H 0.66248 0.26414 0.23343 0.0
H50 H 0.70233 0.2611 0.17637 0.0
H51 H 0.73026 0.25819 0.20229 0.0
H52 H 0.72212 0.23367 0.26515 0.0
H53 H 0.71498 0.30445 0.24652 0.0
H54 H 0.7099 0.33086 0.21854 0.0
H55 H 0.76158 0.31116 0.18213 0.0
H56 H 0.76674 0.28495 0.2103 0.0
H57 H 0.80203 0.26552 0.26629 0.0
H58 H 0.82991 0.27032 0.29208 0.0
H59 H 0.79029 0.266 0.34921 0.0
H60 H 0.76241 0.26175 0.3233 0.0
H61 H 0.77073 0.28849 0.25994 0.0
H62 H 0.78171 0.22155 0.28117 0.0
H63 H 0.78696 0.19331 0.30629 0.0
H64 H 0.72923 0.20268 0.33561 0.0
H65 H 0.72401 0.23084 0.31025 0.0
C66 C 0.71258 0.26005 0.23273 0.0
C67 C 0.69329 0.26141 0.24123 0.0
C68 C 0.6772 0.2629 0.2264 0.0
C69 C 0.68013 0.26297 0.20279 0.0
C70 C 0.69947 0.26092 0.19441 0.0
C71 C 0.71549 0.25938 0.20921 0.0
C72 C 0.72982 0.26084 0.24825 0.0
C73 C 0.73265 0.24574 0.26429 0.0
C74 C 0.7438 0.27629 0.24665 0.0
C75 C 0.74123 0.2928 0.23042 0.0
C76 C 0.72527 0.30594 0.23259 0.0
C77 C 0.7224 0.32099 0.21666 0.0
C78 C 0.7353 0.32294 0.19817 0.0
C79 C 0.75134 0.30984 0.19613 0.0
C80 C 0.75438 0.295 0.21226 0.0
C81 C 0.78016 0.26311 0.29285 0.0
C82 C 0.79937 0.26557 0.28437 0.0
C83 C 0.8153 0.26819 0.29914 0.0
C84 C 0.81231 0.26856 0.3227 0.0
C85 C 0.79306 0.26601 0.33115 0.0
C86 C 0.77714 0.26334 0.31637 0.0
C87 C 0.76315 0.26133 0.27709 0.0
C88 C 0.76029 0.27633 0.26096 0.0
C89 C 0.74934 0.24561 0.27854 0.0
C90 C 0.75253 0.22846 0.29394 0.0
C91 C 0.77024 0.21763 0.29314 0.0
C92 C 0.77325 0.20149 0.30757 0.0
C93 C 0.75855 0.19571 0.32305 0.0
C94 C 0.74077 0.20654 0.32372 0.0
C95 C 0.73778 0.22269 0.30928 0.0
H96 H 0.74021 0.78564 0.19176 0.0
H97 H 0.71243 0.78523 0.16508 0.0
H98 H 0.6903 0.73202 0.19665 0.0
H99 H 0.71829 0.73237 0.22314 0.0
H100 H 0.73467 0.78711 0.24021 0.0
H101 H 0.76483 0.7462 0.18286 0.0
H102 H 0.76719 0.71793 0.15722 0.0
H103 H 0.76465 0.67817 0.2145 0.0
H104 H 0.76241 0.70654 0.24004 0.0
H105 H 0.7862 0.7366 0.29354 0.0
H106 H 0.81204 0.73982 0.32226 0.0
H107 H 0.82618 0.79808 0.2967 0.0
H108 H 0.80009 0.79486 0.26832 0.0
H109 H 0.78743 0.7366 0.24814 0.0
H110 H 0.75647 0.77451 0.30534 0.0
H111 H 0.75054 0.80081 0.33285 0.0
H112 H 0.75012 0.84387 0.2787 0.0
H113 H 0.7568 0.81755 0.25135 0.0
C114 C 0.7313 0.75899 0.20928 0.0
C115 C 0.7295 0.77376 0.19271 0.0
C116 C 0.7137 0.77347 0.17748 0.0
C117 C 0.69924 0.75862 0.17889 0.0
C118 C 0.70121 0.74369 0.19532 0.0
C119 C 0.71721 0.7438 0.21032 0.0
C120 C 0.74707 0.76035 0.22657 0.0
C121 C 0.74645 0.77629 0.24173 0.0
C122 C 0.76181 0.74566 0.22905 0.0
C123 C 0.76321 0.72851 0.21338 0.0
C124 C 0.76459 0.73139 0.18988 0.0
C125 C 0.76594 0.71519 0.17523 0.0
C126 C 0.76607 0.69574 0.18377 0.0
C127 C 0.76485 0.69293 0.20734 0.0
C128 C 0.76349 0.70914 0.22198 0.0
C129 C 0.79112 0.76553 0.2789 0.0
C130 C 0.79491 0.75004 0.29411 0.0
C131 C 0.80974 0.75189 0.31048 0.0
C132 C 0.82121 0.76923 0.31183 0.0
C133 C 0.81743 0.78467 0.29642 0.0
C134 C 0.80256 0.78283 0.28012 0.0
C135 C 0.77527 0.76363 0.26164 0.0
C136 C 0.77577 0.74753 0.24657 0.0
C137 C 0.76012 0.77796 0.25948 0.0
C138 C 0.75733 0.79407 0.27629 0.0
C139 C 0.75543 0.78965 0.29942 0.0
C140 C 0.75177 0.80468 0.31511 0.0
C141 C 0.74978 0.82445 0.30798 0.0
C142 C 0.7518 0.82884 0.2848 0.0
C143 C 0.75549 0.8138 0.26913 0.0
H144 H 0.237 0.71439 0.31067 0.0
H145 H 0.20972 0.71344 0.33768 0.0
H146 H 0.1929 0.7727 0.31808 0.0
H147 H 0.22015 0.77351 0.2908 0.0
H148 H 0.23349 0.71698 0.26642 0.0
H149 H 0.26452 0.75705 0.32449 0.0
H150 H 0.26775 0.78505 0.35047 0.0
H151 H 0.26458 0.82542 0.2938 0.0
H152 H 0.26146 0.79739 0.26795 0.0
H153 H 0.28348 0.76657 0.21158 0.0
H154 H 0.3097 0.76312 0.18317 0.0
H155 H 0.32642 0.70698 0.21246 0.0
H156 H 0.30013 0.71043 0.24069 0.0
H157 H 0.28618 0.76752 0.25902 0.0
H158 H 0.25504 0.72979 0.20143 0.0
H159 H 0.24897 0.70344 0.17399 0.0
H160 H 0.24992 0.66034 0.22807 0.0
H161 H 0.25601 0.68678 0.25545 0.0
C162 C 0.23071 0.74405 0.29875 0.0
C163 C 0.22754 0.72725 0.31229 0.0
C164 C 0.2119 0.72669 0.32766 0.0
C165 C 0.19909 0.74293 0.32988 0.0
C166 C 0.20264 0.76002 0.31687 0.0
C167 C 0.21823 0.76052 0.30132 0.0
C168 C 0.24601 0.74348 0.28074 0.0
C169 C 0.24523 0.72785 0.2651 0.0
C170 C 0.26075 0.75821 0.27832 0.0
C171 C 0.26255 0.77511 0.29427 0.0
C172 C 0.26436 0.77194 0.31769 0.0
C173 C 0.2662 0.78797 0.33253 0.0
C174 C 0.26643 0.8075 0.32423 0.0
C175 C 0.26474 0.81059 0.30075 0.0
C176 C 0.26287 0.79457 0.28594 0.0
C177 C 0.28983 0.73873 0.22816 0.0
C178 C 0.2928 0.75354 0.21186 0.0
C179 C 0.30767 0.75149 0.19558 0.0
C180 C 0.32005 0.73477 0.19562 0.0
C181 C 0.31716 0.72006 0.21212 0.0
C182 C 0.30212 0.72198 0.22817 0.0
C183 C 0.27392 0.74069 0.24527 0.0
C184 C 0.27451 0.75661 0.26055 0.0
C185 C 0.25882 0.72637 0.24729 0.0
C186 C 0.25621 0.71025 0.23048 0.0
C187 C 0.25427 0.71464 0.20734 0.0
C188 C 0.25074 0.69956 0.19167 0.0
C189 C 0.24892 0.6798 0.19886 0.0
C190 C 0.25097 0.67544 0.22203 0.0
C191 C 0.25455 0.69052 0.23768 0.0
H192 H 0.19113 0.76049 0.7583 0.0
H193 H 0.16392 0.76332 0.73107 0.0
H194 H 0.20604 0.76339 0.6761 0.0
H195 H 0.23306 0.76077 0.70338 0.0
H196 H 0.2235 0.73383 0.76476 0.0
H197 H 0.21161 0.80225 0.74505 0.0
H198 H 0.20646 0.8289 0.71767 0.0
H199 H 0.26529 0.8194 0.6914 0.0
H200 H 0.27001 0.79224 0.71823 0.0
H201 H 0.30165 0.76877 0.77006 0.0
H202 H 0.32883 0.77398 0.79665 0.0
H203 H 0.28852 0.76606 0.85265 0.0
H204 H 0.26127 0.76148 0.82592 0.0
H205 H 0.26971 0.79084 0.76427 0.0
H206 H 0.28261 0.72324 0.78327 0.0
H207 H 0.28781 0.69455 0.80776 0.0
H208 H 0.22896 0.70179 0.83491 0.0
H209 H 0.2238 0.73032 0.81012 0.0
C210 C 0.21409 0.76063 0.73286 0.0
C211 C 0.19443 0.76077 0.74036 0.0
C212 C 0.17892 0.76242 0.72477 0.0
C213 C 0.18283 0.76387 0.70142 0.0
C214 C 0.20253 0.76276 0.69397 0.0
C215 C 0.21799 0.76109 0.70953 0.0
C216 C 0.23059 0.76183 0.74933 0.0
C217 C 0.2335 0.74636 0.7649 0.0
C218 C 0.24382 0.77804 0.74912 0.0
C219 C 0.24111 0.79507 0.73349 0.0
C220 C 0.22336 0.80585 0.73331 0.0
C221 C 0.2205 0.82121 0.71776 0.0
C222 C 0.23542 0.82624 0.70222 0.0
C223 C 0.25336 0.8157 0.70284 0.0
C224 C 0.25617 0.80031 0.71834 0.0
C225 C 0.27946 0.76459 0.79598 0.0
C226 C 0.29868 0.7681 0.78807 0.0
C227 C 0.31423 0.77096 0.80329 0.0
C228 C 0.31084 0.77045 0.82677 0.0
C229 C 0.29158 0.76676 0.83467 0.0
C230 C 0.27603 0.7639 0.81941 0.0
C231 C 0.26284 0.76276 0.77971 0.0
C232 C 0.2598 0.77823 0.7642 0.0
C233 C 0.24965 0.74647 0.77995 0.0
C234 C 0.25286 0.72907 0.79497 0.0
C235 C 0.27088 0.71874 0.79462 0.0
C236 C 0.27385 0.70234 0.8087 0.0
C237 C 0.25883 0.69583 0.82339 0.0
C238 C 0.24077 0.70619 0.82362 0.0
C239 C 0.2378 0.72257 0.8095 0.0
H240 H 0.31335 0.26861 0.75243 0.0
H241 H 0.34033 0.27289 0.77958 0.0
H242 H 0.29991 0.26116 0.83457 0.0
H243 H 0.27301 0.25701 0.80735 0.0
H244 H 0.28966 0.2375 0.74287 0.0
H245 H 0.28106 0.3037 0.77178 0.0
H246 H 0.276 0.32973 0.79987 0.0
H247 H 0.22124 0.30207 0.82027 0.0
H248 H 0.22685 0.27564 0.79282 0.0
H249 H 0.20489 0.2474 0.73713 0.0
H250 H 0.17773 0.24905 0.70981 0.0
H251 H 0.21935 0.26272 0.65665 0.0
H252 H 0.24648 0.26117 0.68413 0.0
H253 H 0.2288 0.27815 0.74808 0.0
H254 H 0.2359 0.21271 0.7207 0.0
H255 H 0.23932 0.18585 0.6934 0.0
H256 H 0.29451 0.21088 0.67035 0.0
H257 H 0.29105 0.2377 0.69791 0.0
C258 C 0.29111 0.26268 0.77785 0.0
C259 C 0.31033 0.26688 0.77034 0.0
C260 C 0.32574 0.26929 0.78588 0.0
C261 C 0.32227 0.26747 0.80928 0.0
C262 C 0.30303 0.26303 0.81672 0.0
C263 C 0.28764 0.26059 0.80116 0.0
C264 C 0.2747 0.26061 0.76128 0.0
C265 C 0.27646 0.24657 0.74382 0.0
C266 C 0.25718 0.27197 0.76297 0.0
C267 C 0.25446 0.28757 0.78038 0.0
C268 C 0.26813 0.30308 0.78255 0.0
C269 C 0.26507 0.3181 0.79843 0.0
C270 C 0.24817 0.31803 0.8123 0.0
C271 C 0.23453 0.30245 0.81008 0.0
C272 C 0.23764 0.28741 0.79427 0.0
C273 C 0.22769 0.25407 0.71264 0.0
C274 C 0.20818 0.25052 0.71954 0.0
C275 C 0.1927 0.25139 0.7039 0.0
C276 C 0.19643 0.25607 0.68111 0.0
C277 C 0.21604 0.25924 0.67414 0.0
C278 C 0.23155 0.25818 0.68977 0.0
C279 C 0.24376 0.25513 0.72969 0.0
C280 C 0.24197 0.26902 0.74718 0.0
C281 C 0.2611 0.2435 0.72814 0.0
C282 C 0.26309 0.22739 0.71118 0.0
C283 C 0.24863 0.21256 0.7096 0.0
C284 C 0.2506 0.19719 0.69395 0.0
C285 C 0.26715 0.19623 0.67958 0.0
C286 C 0.28169 0.21104 0.68131 0.0
C287 C 0.27969 0.22643 0.69699 0.0
H288 H 0.73936 0.21714 0.81107 0.0
H289 H 0.71246 0.21671 0.83855 0.0
H290 H 0.69537 0.27561 0.81764 0.0
H291 H 0.72198 0.27566 0.7896 0.0
H292 H 0.73501 0.21932 0.76607 0.0
H293 H 0.76629 0.25908 0.82403 0.0
H294 H 0.76901 0.28704 0.85009 0.0
H295 H 0.76789 0.32741 0.7933 0.0
H296 H 0.76436 0.29944 0.76745 0.0
H297 H 0.78669 0.27006 0.71291 0.0
H298 H 0.81255 0.2668 0.68422 0.0
H299 H 0.8255 0.20785 0.70856 0.0
H300 H 0.79953 0.21116 0.73696 0.0
H301 H 0.78816 0.26935 0.75828 0.0
H302 H 0.75407 0.23285 0.70116 0.0
H303 H 0.74777 0.20677 0.6733 0.0
H304 H 0.75227 0.16273 0.72612 0.0
H305 H 0.75875 0.18886 0.75387 0.0
C306 C 0.73276 0.24646 0.79837 0.0
C307 C 0.7299 0.23002 0.81253 0.0
C308 C 0.71459 0.22985 0.82834 0.0
C309 C 0.70174 0.24612 0.83029 0.0
C310 C 0.70488 0.26276 0.8164 0.0
C311 C 0.72022 0.2629 0.80054 0.0
C312 C 0.74793 0.24566 0.78029 0.0
C313 C 0.74683 0.2301 0.76461 0.0
C314 C 0.76281 0.26025 0.77779 0.0
C315 C 0.76484 0.27714 0.79377 0.0
C316 C 0.76642 0.27396 0.81721 0.0
C317 C 0.76821 0.28998 0.83209 0.0
C318 C 0.76862 0.30952 0.82382 0.0
C319 C 0.76731 0.31261 0.8003 0.0
C320 C 0.76546 0.29661 0.78546 0.0
C321 C 0.79104 0.2408 0.72694 0.0
C322 C 0.79511 0.25645 0.71204 0.0
C323 C 0.80994 0.25457 0.6957 0.0
C324 C 0.82109 0.23703 0.69404 0.0
C325 C 0.81698 0.22141 0.70907 0.0
C326 C 0.80216 0.2233 0.72537 0.0
C327 C 0.7754 0.24278 0.74441 0.0
C328 C 0.77637 0.25857 0.75985 0.0
C329 C 0.76014 0.22863 0.74655 0.0
C330 C 0.75704 0.21277 0.72955 0.0
C331 C 0.75388 0.21756 0.70669 0.0
C332 C 0.75011 0.20268 0.69084 0.0
C333 C 0.7495 0.18272 0.69755 0.0
C334 C 0.75282 0.17796 0.72042 0.0
C335 C 0.75643 0.19286 0.7363 0.0
H336 H 0.76767 0.71486 0.69407 0.0
H337 H 0.79677 0.7119 0.66985 0.0
H338 H 0.82129 0.76459 0.70041 0.0
H339 H 0.79195 0.76761 0.72428 0.0
H340 H 0.76554 0.71439 0.74039 0.0
H341 H 0.75051 0.7602 0.67982 0.0
H342 H 0.75708 0.78842 0.65504 0.0
H343 H 0.75841 0.82704 0.71333 0.0
H344 H 0.75255 0.79862 0.73807 0.0
H345 H 0.71687 0.77272 0.7862 0.0
H346 H 0.68855 0.7724 0.81195 0.0
H347 H 0.66924 0.71698 0.78288 0.0
H348 H 0.69704 0.71785 0.75666 0.0
H349 H 0.72178 0.77335 0.74087 0.0
H350 H 0.73866 0.73024 0.80136 0.0
H351 H 0.73407 0.70338 0.82851 0.0
H352 H 0.73093 0.66146 0.77337 0.0
H353 H 0.73564 0.68848 0.74626 0.0
C354 C 0.77756 0.74155 0.71082 0.0
C355 C 0.77933 0.72578 0.69551 0.0
C356 C 0.79603 0.72405 0.68177 0.0
C357 C 0.81141 0.738 0.68317 0.0
C358 C 0.8096 0.75377 0.69861 0.0
C359 C 0.79286 0.7555 0.71231 0.0
C360 C 0.75994 0.74302 0.72564 0.0
C361 C 0.7558 0.72715 0.74023 0.0
C362 C 0.74771 0.76004 0.72606 0.0
C363 C 0.75124 0.77723 0.71086 0.0
C364 C 0.7524 0.77471 0.68729 0.0
C365 C 0.75598 0.79091 0.67311 0.0
C366 C 0.75833 0.81003 0.68218 0.0
C367 C 0.75699 0.81251 0.70579 0.0
C368 C 0.75344 0.7963 0.71995 0.0
C369 C 0.70921 0.7452 0.76967 0.0
C370 C 0.70636 0.76067 0.78517 0.0
C371 C 0.69028 0.76034 0.80005 0.0
C372 C 0.67669 0.74456 0.79966 0.0
C373 C 0.67927 0.72944 0.78358 0.0
C374 C 0.69528 0.72982 0.76867 0.0
C375 C 0.7272 0.74455 0.75528 0.0
C376 C 0.73148 0.76057 0.74092 0.0
C377 C 0.73983 0.72784 0.75531 0.0
C378 C 0.73729 0.7114 0.77176 0.0
C379 C 0.73683 0.71528 0.7951 0.0
C380 C 0.73413 0.69991 0.81061 0.0
C381 C 0.732 0.68028 0.80311 0.0
C382 C 0.73269 0.67639 0.77972 0.0
C383 C 0.73535 0.69181 0.7642 0.0
C384 C 0.97856 0.23831 0.53182 0.0
C385 C 0.02788 0.24093 0.47136 0.0
O386 O 0.98388 0.25598 0.52671 0.0
Zn387 Zn 0.00338 0.27056 0.5034 0.0
O388 O 0.98611 0.22373 0.52131 0.0
Zn389 Zn 0.00317 0.23897 0.50157 0.0
O390 O 0.02411 0.25138 0.52483 0.0
O391 O 0.02179 0.28395 0.52333 0.0
O392 O 0.01997 0.22554 0.4798 0.0
O393 O 0.02283 0.25804 0.47875 0.0
O394 O 0.98515 0.28587 0.48492 0.0
O395 O 0.98214 0.25362 0.48035 0.0
C396 C 0.02984 0.26851 0.53152 0.0
C397 C 0.97663 0.27127 0.47547 0.0
C398 C 0.73592 0.02819 0.5335 0.0
C399 C 0.73712 0.97847 0.47336 0.0
O400 O 0.75343 0.02295 0.52775 0.0
Zn401 Zn 0.76745 0.00371 0.50389 0.0
O402 O 0.72111 0.02071 0.52337 0.0
Zn403 Zn 0.73586 0.00361 0.50312 0.0
O404 O 0.74918 0.98268 0.52593 0.0
O405 O 0.7816 0.98548 0.52357 0.0
O406 O 0.72193 0.98642 0.4822 0.0
O407 O 0.75437 0.98379 0.47999 0.0
O408 O 0.78184 0.02221 0.48468 0.0
O409 O 0.74952 0.02451 0.4809 0.0
C410 C 0.7665 0.97714 0.53214 0.0
C411 C 0.7669 0.03029 0.47541 0.0
C412 C 0.97783 0.73941 0.53339 0.0
C413 C 0.03002 0.74086 0.4762 0.0
O414 O 0.98302 0.75698 0.52774 0.0
Zn415 Zn 0.00347 0.77114 0.5053 0.0
O416 O 0.98626 0.72465 0.52418 0.0
Zn417 Zn 0.00391 0.73957 0.50473 0.0
O418 O 0.0237 0.75301 0.52845 0.0
O419 O 0.02054 0.78543 0.52609 0.0
O420 O 0.02208 0.72567 0.48506 0.0
O421 O 0.02428 0.75817 0.48224 0.0
O422 O 0.98593 0.78562 0.48526 0.0
O423 O 0.98383 0.75321 0.4813 0.0
C424 C 0.02873 0.77037 0.535 0.0
C425 C 0.97828 0.77067 0.47556 0.0
C426 C 0.26579 0.02961 0.52895 0.0
C427 C 0.26488 0.97448 0.4752 0.0
O428 O 0.28056 0.02049 0.52069 0.0
Zn429 Zn 0.26578 1.00195 0.50222 0.0
O430 O 0.24827 0.02421 0.52341 0.0
Zn431 Zn 0.23437 1.00241 0.50222 0.0
O432 O 0.21975 0.9865 0.52375 0.0
O433 O 0.25205 0.98332 0.52711 0.0
O434 O 0.24753 0.98041 0.48075 0.0
O435 O 0.27992 0.98298 0.48368 0.0
O436 O 0.25241 0.02112 0.47746 0.0
O437 O 0.22004 0.01875 0.48083 0.0
C438 C 0.23456 0.97871 0.53358 0.0
C439 C 0.23502 0.02623 0.47107 0.0
C440 C 0.47822 0.73558 0.0334 0.0
C441 C 0.52487 0.7398 0.97022 0.0
O442 O 0.48366 0.75332 0.02891 0.0
Zn443 Zn 0.5022 0.76848 0.00524 0.0
O444 O 0.48492 0.7213 0.02167 0.0
Zn445 Zn 0.50145 0.73703 1.00163 0.0
O446 O 0.52408 0.74829 0.02363 0.0
O447 O 0.52136 0.78085 0.025 0.0
O448 O 0.5169 0.72423 0.97818 0.0
O449 O 0.52052 0.75668 0.97881 0.0
O450 O 0.48344 0.78477 0.98868 0.0
O451 O 0.4798 0.75281 0.98248 0.0
C452 C 0.53013 0.76506 0.03107 0.0
C453 C 0.47432 0.7707 0.97893 0.0
C454 C 0.23771 0.52627 0.03299 0.0
C455 C 0.23823 0.4774 0.97201 0.0
O456 O 0.25513 0.5213 0.02664 0.0
Zn457 Zn 0.2689 0.50229 1.00247 0.0
O458 O 0.22277 0.51854 0.02336 0.0
Zn459 Zn 0.23728 0.50191 1.00236 0.0
O460 O 0.25102 0.48066 0.0243 0.0
O461 O 0.28337 0.48383 0.02172 0.0
O462 O 0.22311 0.48486 0.98154 0.0
O463 O 0.25554 0.48281 0.97829 0.0
O464 O 0.28291 0.52109 0.98332 0.0
O465 O 0.25051 0.52322 0.98011 0.0
C466 C 0.26842 0.47513 0.03018 0.0
C467 C 0.2678 0.52917 0.9744 0.0
C468 C 0.53222 0.24166 0.97672 0.0
C469 C 0.47719 0.23861 0.03009 0.0
O470 O 0.52575 0.25875 0.98255 0.0
Zn471 Zn 0.50355 0.27111 0.00405 0.0
O472 O 0.52421 0.22621 0.98489 0.0
Zn473 Zn 0.50475 0.2395 0.00356 0.0
O474 O 0.48522 0.25273 0.97913 0.0
O475 O 0.48675 0.28519 0.98283 0.0
O476 O 0.4867 0.22404 0.02191 0.0
O477 O 0.48213 0.25632 0.02471 0.0
O478 O 0.51918 0.28567 0.02613 0.0
O479 O 0.52265 0.25331 0.02888 0.0
C480 C 0.47961 0.27006 0.97297 0.0
C481 C 0.52695 0.27076 0.03582 0.0
C482 C 0.76333 0.53015 0.03049 0.0
C483 C 0.76455 0.47583 0.97556 0.0
O484 O 0.77844 0.52179 0.02197 0.0
Zn485 Zn 0.76443 0.50316 1.00289 0.0
O486 O 0.74602 0.52437 0.02457 0.0
Zn487 Zn 0.73301 0.50277 1.00228 0.0
O488 O 0.71837 0.48599 0.02282 0.0
O489 O 0.7507 0.48398 0.02729 0.0
O490 O 0.74702 0.48131 0.98089 0.0
O491 O 0.77928 0.48467 0.98431 0.0
O492 O 0.75101 0.5223 0.97825 0.0
O493 O 0.71867 0.5191 0.9809 0.0
C494 C 0.73321 0.4787 0.03307 0.0
C495 C 0.73361 0.52707 0.97158 0.0
H496 H 0.14071 0.23324 0.29349 0.0
H497 H 0.11442 0.23033 0.32163 0.0
H498 H 0.15406 0.25165 0.37337 0.0
H499 H 0.18069 0.25376 0.34557 0.0
H500 H 0.13269 0.21928 0.38727 0.0
H501 H 0.08325 0.27575 0.34898 0.0
H502 H 0.09009 0.25614 0.33005 0.0
H503 H 0.10868 0.27281 0.34049 0.0
C504 C 0.1439 0.2372 0.31088 0.0
C505 C 0.16283 0.24383 0.31722 0.0
C506 C 0.12878 0.23573 0.3269 0.0
C507 C 0.13219 0.24105 0.34953 0.0
C508 C 0.15107 0.24757 0.35596 0.0
H509 H 0.04954 0.27103 0.4535 0.0
H510 H 0.07447 0.26936 0.42391 0.0
C511 C 0.16622 0.24897 0.33998 0.0
C512 C 0.11619 0.23971 0.36661 0.0
H513 H 0.07054 0.25769 0.38003 0.0
C514 C 0.11907 0.22764 0.3857 0.0
C515 C 0.09851 0.25076 0.36458 0.0
C516 C 0.09496 0.26474 0.34504 0.0
C517 C 0.10481 0.22643 0.40292 0.0
C518 C 0.08704 0.2373 0.40074 0.0
C519 C 0.0841 0.24922 0.38155 0.0
C520 C 0.07191 0.23776 0.41891 0.0
C521 C 0.10919 0.21407 0.42362 0.0
C522 C 0.06207 0.2205 0.42593 0.0
C523 C 0.04778 0.22137 0.44308 0.0
C524 C 0.04299 0.23955 0.45329 0.0
C525 C 0.05281 0.25677 0.44602 0.0
C526 C 0.06708 0.25587 0.42905 0.0
H527 H 0.12514 0.21037 0.42498 0.0
H528 H 0.1046 0.2219 0.43928 0.0
H529 H 0.10079 0.2 0.42259 0.0
H530 H 0.0653 0.20642 0.41802 0.0
H531 H 0.04041 0.20787 0.44819 0.0
H532 H 0.79235 0.18485 0.34568 0.0
H533 H 0.79742 0.15586 0.36993 0.0
H534 H 0.73672 0.13868 0.35968 0.0
H535 H 0.73171 0.16714 0.33483 0.0
H536 H 0.77876 0.14555 0.40975 0.0
H537 H 0.7662 0.08795 0.3447 0.0
H538 H 0.7703 0.1136 0.33756 0.0
H539 H 0.74623 0.10535 0.34641 0.0
C540 C 0.78014 0.17475 0.34833 0.0
C541 C 0.76164 0.1783 0.33817 0.0
C542 C 0.78305 0.15826 0.36232 0.0
C543 C 0.76756 0.1449 0.36631 0.0
C544 C 0.74902 0.14854 0.35646 0.0
H545 H 0.73792 0.04701 0.44974 0.0
H546 H 0.74067 0.07444 0.42315 0.0
C547 C 0.7461 0.16499 0.34248 0.0
C548 C 0.77053 0.12745 0.38127 0.0
H549 H 0.76513 0.07722 0.38336 0.0
C550 C 0.77607 0.13057 0.40392 0.0
C551 C 0.76714 0.10791 0.3736 0.0
C552 C 0.76233 0.10344 0.34918 0.0
C553 C 0.77733 0.11477 0.41937 0.0
C554 C 0.77315 0.09534 0.41188 0.0
C555 C 0.76827 0.09215 0.38907 0.0
C556 C 0.77212 0.07836 0.42779 0.0
C557 C 0.78224 0.11904 0.4438 0.0
C558 C 0.78899 0.07126 0.43905 0.0
C559 C 0.7875 0.05542 0.45434 0.0
C560 C 0.76909 0.0465 0.45862 0.0
C561 C 0.75233 0.05355 0.44699 0.0
C562 C 0.75386 0.06923 0.43171 0.0
H563 H 0.78205 0.13514 0.44757 0.0
H564 H 0.7716 0.11148 0.45521 0.0
H565 H 0.79722 0.11326 0.44769 0.0
H566 H 0.80328 0.07796 0.43603 0.0
H567 H 0.80069 0.05034 0.46298 0.0
H568 H 0.8473 0.74076 0.32594 0.0
H569 H 0.87319 0.74372 0.3546 0.0
H570 H 0.8577 0.80491 0.36505 0.0
H571 H 0.8314 0.80202 0.33671 0.0
H572 H 0.89984 0.79659 0.35959 0.0
H573 H 0.86377 0.74902 0.42411 0.0
H574 H 0.86519 0.73832 0.39631 0.0
H575 H 0.85036 0.76002 0.40081 0.0
C576 C 0.84918 0.7548 0.33452 0.0
C577 C 0.83715 0.77112 0.3291 0.0
C578 C 0.86404 0.75647 0.35084 0.0
C579 C 0.86719 0.77447 0.36209 0.0
C580 C 0.85546 0.79089 0.35655 0.0
H581 H 0.95869 0.80458 0.46269 0.0
H582 H 0.93152 0.80735 0.43531 0.0
C583 C 0.84051 0.78922 0.34028 0.0
C584 C 0.88286 0.77606 0.37951 0.0
H585 H 0.89749 0.75712 0.4304 0.0
C586 C 0.8993 0.78815 0.37521 0.0
C587 C 0.882 0.76507 0.39985 0.0
C588 C 0.86431 0.75249 0.40573 0.0
C589 C 0.91536 0.78884 0.39031 0.0
C590 C 0.91472 0.77742 0.41039 0.0
C591 C 0.89798 0.76581 0.41496 0.0
C592 C 0.93164 0.77629 0.42634 0.0
C593 C 0.93319 0.80112 0.38422 0.0
C594 C 0.94056 0.75792 0.43055 0.0
C595 C 0.95589 0.75627 0.44623 0.0
C596 C 0.96266 0.77297 0.45813 0.0
C597 C 0.95389 0.79146 0.45371 0.0
C598 C 0.93843 0.79308 0.438 0.0
H599 H 0.93313 0.80548 0.36607 0.0
H600 H 0.93322 0.81482 0.39456 0.0
H601 H 0.94706 0.7929 0.38786 0.0
H602 H 0.93556 0.74478 0.42174 0.0
H603 H 0.96231 0.7418 0.44914 0.0
H604 H 0.24867 0.81262 0.36552 0.0
H605 H 0.25103 0.84125 0.39074 0.0
H606 H 0.29065 0.86975 0.34384 0.0
H607 H 0.28853 0.84113 0.31859 0.0
H608 H 0.28442 0.85903 0.41146 0.0
H609 H 0.24607 0.91055 0.35259 0.0
H610 H 0.24556 0.88404 0.34894 0.0
H611 H 0.26707 0.89791 0.34088 0.0
C612 C 0.25806 0.82488 0.36066 0.0
C613 C 0.26831 0.82462 0.33994 0.0
C614 C 0.25933 0.84126 0.37506 0.0
C615 C 0.27079 0.85773 0.36901 0.0
C616 C 0.28141 0.85736 0.34862 0.0
H617 H 0.29903 0.95642 0.46062 0.0
H618 H 0.30191 0.92827 0.43458 0.0
C619 C 0.28014 0.841 0.3342 0.0
C620 C 0.2714 0.87537 0.38393 0.0
H621 H 0.25865 0.92423 0.38644 0.0
C622 C 0.27888 0.87332 0.406 0.0
C623 C 0.26399 0.89393 0.37679 0.0
C624 C 0.25505 0.89681 0.35359 0.0
C625 C 0.27906 0.88934 0.42116 0.0
C626 C 0.27178 0.90794 0.41394 0.0
C627 C 0.2644 0.90999 0.39184 0.0
C628 C 0.27039 0.92511 0.42951 0.0
C629 C 0.28647 0.88612 0.44498 0.0
C630 C 0.25178 0.9329 0.43489 0.0
C631 C 0.2501 0.94895 0.44962 0.0
C632 C 0.26702 0.95768 0.45923 0.0
C633 C 0.28571 0.95001 0.45359 0.0
C634 C 0.28738 0.93387 0.43881 0.0
H635 H 0.28782 0.87014 0.44917 0.0
H636 H 0.30128 0.89298 0.4468 0.0
H637 H 0.27644 0.89319 0.45745 0.0
H638 H 0.2385 0.92641 0.42785 0.0
H639 H 0.23546 0.95447 0.45351 0.0
H640 H 0.18257 0.78884 0.66496 0.0
H641 H 0.15615 0.79374 0.63724 0.0
H642 H 0.11984 0.75151 0.67277 0.0
H643 H 0.14627 0.74638 0.70049 0.0
H644 H 0.13972 0.76546 0.60913 0.0
H645 H 0.08247 0.79876 0.66436 0.0
H646 H 0.10814 0.79708 0.67259 0.0
H647 H 0.09226 0.77586 0.67503 0.0
C648 C 0.16899 0.78052 0.66684 0.0
C649 C 0.16656 0.76714 0.6849 0.0
C650 C 0.15386 0.78346 0.65108 0.0
C651 C 0.13593 0.77322 0.65313 0.0
C652 C 0.13339 0.75992 0.67117 0.0
H653 H 0.05017 0.74085 0.55452 0.0
H654 H 0.07634 0.74369 0.58264 0.0
C655 C 0.14852 0.75696 0.68696 0.0
C656 C 0.12036 0.77556 0.63564 0.0
H657 H 0.07171 0.78737 0.628 0.0
C658 C 0.12491 0.77045 0.61322 0.0
C659 C 0.10113 0.78233 0.64094 0.0
C660 C 0.09571 0.78902 0.66449 0.0
C661 C 0.11052 0.77115 0.59613 0.0
C662 C 0.09104 0.77692 0.60167 0.0
C663 C 0.08665 0.78282 0.62387 0.0
C664 C 0.0748 0.77559 0.58492 0.0
C665 C 0.11622 0.7655 0.57229 0.0
C666 C 0.06494 0.79261 0.57724 0.0
C667 C 0.04986 0.79106 0.56103 0.0
C668 C 0.04433 0.77243 0.55248 0.0
C669 C 0.05406 0.75545 0.56063 0.0
C670 C 0.06911 0.75702 0.57666 0.0
H671 H 0.13244 0.76653 0.56963 0.0
H672 H 0.11167 0.74998 0.56907 0.0
H673 H 0.10867 0.77512 0.55972 0.0
H674 H 0.06909 0.80707 0.58356 0.0
H675 H 0.04262 0.80441 0.55517 0.0
H676 H 0.30063 0.17544 0.66846 0.0
H677 H 0.30372 0.14811 0.64147 0.0
H678 H 0.24137 0.15187 0.627 0.0
H679 H 0.23827 0.17958 0.65325 0.0
H680 H 0.2853 0.11166 0.64219 0.0
H681 H 0.26533 0.15226 0.56398 0.0
H682 H 0.27167 0.16473 0.59002 0.0
H683 H 0.24718 0.15498 0.58588 0.0
C684 C 0.28764 0.17067 0.65925 0.0
C685 C 0.26921 0.17978 0.66298 0.0
C686 C 0.28941 0.15495 0.64395 0.0
C687 C 0.27285 0.14814 0.63196 0.0
C688 C 0.25444 0.15713 0.63571 0.0
H689 H 0.23708 0.05326 0.54667 0.0
H690 H 0.24104 0.08178 0.57149 0.0
C691 C 0.25265 0.17283 0.65096 0.0
C692 C 0.27455 0.13118 0.6161 0.0
H693 H 0.26427 0.11686 0.56191 0.0
C694 C 0.28098 0.11284 0.62455 0.0
C695 C 0.26901 0.13278 0.59306 0.0
C696 C 0.2631 0.1523 0.58262 0.0
C697 C 0.28112 0.09584 0.61083 0.0
C698 C 0.27482 0.09732 0.58806 0.0
C699 C 0.269 0.11577 0.57942 0.0
C700 C 0.27288 0.07969 0.5733 0.0
C701 C 0.28718 0.07627 0.62099 0.0
C702 C 0.28954 0.06906 0.56601 0.0
C703 C 0.28735 0.05267 0.55168 0.0
C704 C 0.26845 0.04666 0.54446 0.0
C705 C 0.25186 0.05739 0.55191 0.0
C706 C 0.25407 0.07375 0.56609 0.0
H707 H 0.28868 0.07707 0.63971 0.0
H708 H 0.27621 0.06463 0.61671 0.0
H709 H 0.30163 0.07171 0.61381 0.0
H710 H 0.30421 0.07358 0.57118 0.0
H711 H 0.30043 0.04478 0.54621 0.0
H712 H 0.84812 0.26508 0.68149 0.0
H713 H 0.87482 0.2619 0.65391 0.0
H714 H 0.85795 0.20136 0.64132 0.0
H715 H 0.83071 0.20464 0.66827 0.0
H716 H 0.90648 0.23573 0.65499 0.0
H717 H 0.86112 0.22446 0.5775 0.0
H718 H 0.85075 0.23353 0.60366 0.0
H719 H 0.85608 0.20764 0.60034 0.0
C720 C 0.84985 0.25119 0.67259 0.0
C721 C 0.83719 0.23515 0.67703 0.0
C722 C 0.86523 0.24934 0.65696 0.0
C723 C 0.86824 0.23147 0.64537 0.0
C724 C 0.8557 0.21539 0.64979 0.0
H725 H 0.95875 0.20411 0.54296 0.0
H726 H 0.93259 0.20023 0.57146 0.0
C727 C 0.84028 0.21723 0.6654 0.0
C728 C 0.88485 0.22965 0.62914 0.0
H729 H 0.89576 0.22253 0.57325 0.0
C730 C 0.90414 0.23277 0.63713 0.0
C731 C 0.88177 0.22564 0.60588 0.0
C732 C 0.86132 0.22278 0.59621 0.0
C733 C 0.92041 0.2323 0.62244 0.0
C734 C 0.91727 0.22885 0.59911 0.0
C735 C 0.89808 0.22511 0.59119 0.0
C736 C 0.9335 0.23075 0.58244 0.0
C737 C 0.94083 0.23564 0.63197 0.0
C738 C 0.9425 0.24919 0.57912 0.0
C739 C 0.95728 0.25148 0.5629 0.0
C740 C 0.9634 0.23534 0.54959 0.0
C741 C 0.95444 0.21679 0.55302 0.0
C742 C 0.93949 0.21456 0.56923 0.0
H743 H 0.94138 0.23261 0.65045 0.0
H744 H 0.95188 0.22613 0.62333 0.0
H745 H 0.94509 0.25132 0.62927 0.0
H746 H 0.93785 0.26195 0.58888 0.0
H747 H 0.96381 0.26598 0.56071 0.0
H748 H 0.78353 0.84131 0.68892 0.0
H749 H 0.7884 0.87023 0.66455 0.0
H750 H 0.74621 0.84683 0.61683 0.0
H751 H 0.74109 0.818 0.64115 0.0
H752 H 0.78117 0.86168 0.5966 0.0
H753 H 0.74801 0.91543 0.65689 0.0
H754 H 0.76776 0.9005 0.66801 0.0
H755 H 0.74491 0.88902 0.65985 0.0
C756 C 0.77516 0.84238 0.67333 0.0
C757 C 0.76182 0.82735 0.66708 0.0
C758 C 0.778 0.85891 0.6594 0.0
C759 C 0.7675 0.86079 0.63901 0.0
C760 C 0.75448 0.84567 0.6325 0.0
H761 H 0.73694 0.95889 0.55541 0.0
H762 H 0.73945 0.9312 0.58167 0.0
C763 C 0.75163 0.82915 0.64639 0.0
C764 C 0.76976 0.87861 0.62453 0.0
H765 H 0.76068 0.92833 0.62279 0.0
C766 C 0.77685 0.87629 0.60235 0.0
C767 C 0.76396 0.89762 0.63205 0.0
C768 C 0.75558 0.90089 0.65542 0.0
C769 C 0.77803 0.89243 0.58737 0.0
C770 C 0.77216 0.91142 0.59488 0.0
C771 C 0.76535 0.91378 0.61716 0.0
C772 C 0.77123 0.92865 0.5793 0.0
C773 C 0.78483 0.88893 0.56338 0.0
C774 C 0.78834 0.93663 0.56943 0.0
C775 C 0.78698 0.9526 0.5543 0.0
C776 C 0.76846 0.96081 0.54883 0.0
C777 C 0.75144 0.95293 0.55912 0.0
C778 C 0.75283 0.93709 0.57421 0.0
H779 H 0.78548 0.87292 0.55916 0.0
H780 H 0.7748 0.8964 0.55117 0.0
H781 H 0.79983 0.89525 0.56117 0.0
H782 H 0.80272 0.9305 0.57339 0.0
H783 H 0.80037 0.95834 0.54673 0.0
H784 H 0.83193 0.7675 0.66172 0.0
H785 H 0.86134 0.76427 0.63799 0.0
H786 H 0.86061 0.70104 0.64759 0.0
H787 H 0.83142 0.70411 0.67177 0.0
H788 H 0.89899 0.74589 0.65059 0.0
H789 H 0.86217 0.70929 0.57736 0.0
H790 H 0.84851 0.72284 0.59854 0.0
H791 H 0.85803 0.69869 0.60491 0.0
C792 C 0.8381 0.75291 0.65898 0.0
C793 C 0.82926 0.73606 0.66864 0.0
C794 C 0.85484 0.75109 0.64531 0.0
C795 C 0.86299 0.7324 0.64087 0.0
C796 C 0.85433 0.71556 0.65053 0.0
H797 H 0.96192 0.70465 0.54953 0.0
H798 H 0.93509 0.70101 0.57721 0.0
C799 C 0.83762 0.71736 0.66429 0.0
C800 C 0.88072 0.7307 0.62634 0.0
H801 H 0.89635 0.71519 0.57433 0.0
C802 C 0.89847 0.73908 0.63396 0.0
C803 C 0.88 0.72162 0.60479 0.0
C804 C 0.86116 0.71267 0.59573 0.0
C805 C 0.91549 0.73893 0.62043 0.0
C806 C 0.91457 0.73058 0.59848 0.0
C807 C 0.897 0.72159 0.59115 0.0
C808 C 0.93117 0.73249 0.58225 0.0
C809 C 0.93428 0.74776 0.62975 0.0
C810 C 0.93763 0.75134 0.57572 0.0
C811 C 0.95287 0.75346 0.56004 0.0
C812 C 0.96191 0.73675 0.55034 0.0
C813 C 0.95533 0.71781 0.55676 0.0
C814 C 0.94001 0.71571 0.57254 0.0
H815 H 0.9344 0.74755 0.64856 0.0
H816 H 0.9475 0.7397 0.6235 0.0
H817 H 0.9354 0.76343 0.62423 0.0
H818 H 0.9307 0.7645 0.58256 0.0
H819 H 0.95743 0.76828 0.55541 0.0
H820 H 0.21729 0.86213 0.70865 0.0
H821 H 0.21262 0.88869 0.68096 0.0
H822 H 0.24255 0.85378 0.63041 0.0
H823 H 0.24659 0.82689 0.65766 0.0
H824 H 0.24086 0.90974 0.65899 0.0
H825 H 0.19353 0.87143 0.59641 0.0
H826 H 0.19777 0.8618 0.62453 0.0
H827 H 0.21573 0.8579 0.60251 0.0
C828 C 0.22256 0.85995 0.69152 0.0
C829 C 0.23229 0.84234 0.68538 0.0
C830 C 0.21998 0.8752 0.67576 0.0
C831 C 0.22695 0.87311 0.65351 0.0
C832 C 0.23665 0.85557 0.64733 0.0
H833 H 0.26345 0.95975 0.55737 0.0
H834 H 0.25964 0.9353 0.58736 0.0
C835 C 0.23921 0.84031 0.66305 0.0
C836 C 0.22515 0.88968 0.63711 0.0
H837 H 0.2096 0.9011 0.58362 0.0
C838 C 0.23381 0.90792 0.64262 0.0
C839 C 0.21565 0.88743 0.61589 0.0
C840 C 0.20496 0.86865 0.60956 0.0
C841 C 0.23403 0.92367 0.62711 0.0
C842 C 0.22569 0.92097 0.60535 0.0
C843 C 0.2162 0.90306 0.60021 0.0
C844 C 0.22769 0.93613 0.58731 0.0
C845 C 0.24332 0.94301 0.63415 0.0
C846 C 0.21095 0.94438 0.57686 0.0
C847 C 0.21306 0.95837 0.55949 0.0
C848 C 0.23197 0.96419 0.55219 0.0
C849 C 0.24866 0.95574 0.56264 0.0
C850 C 0.24653 0.94182 0.57992 0.0
H851 H 0.2433 0.94476 0.65285 0.0
H852 H 0.25891 0.94332 0.62838 0.0
H853 H 0.23546 0.9558 0.62648 0.0
H854 H 0.19626 0.94006 0.5822 0.0
H855 H 0.19991 0.96453 0.55175 0.0
H856 H 0.16447 0.23183 0.67544 0.0
H857 H 0.13636 0.2366 0.64987 0.0
H858 H 0.1623 0.29086 0.62545 0.0
H859 H 0.1906 0.28597 0.65068 0.0
H860 H 0.10973 0.26646 0.6487 0.0
H861 H 0.14977 0.26308 0.56677 0.0
H862 H 0.16101 0.25571 0.59318 0.0
H863 H 0.15913 0.28148 0.58586 0.0
C864 C 0.16421 0.24472 0.66452 0.0
C865 C 0.17979 0.25846 0.66494 0.0
C866 C 0.14817 0.24743 0.64992 0.0
C867 C 0.14735 0.26394 0.6355 0.0
C868 C 0.16284 0.27774 0.63597 0.0
H869 H 0.05284 0.30075 0.54201 0.0
H870 H 0.08111 0.30171 0.56819 0.0
C871 C 0.17899 0.27495 0.65042 0.0
C872 C 0.12996 0.26694 0.62054 0.0
H873 H 0.11588 0.27182 0.56521 0.0
C874 C 0.1111 0.26766 0.63045 0.0
C875 C 0.13175 0.26857 0.59671 0.0
C876 C 0.15147 0.26699 0.58494 0.0
C877 C 0.09402 0.26975 0.61718 0.0
C878 C 0.09583 0.27116 0.59342 0.0
C879 C 0.11464 0.27091 0.58349 0.0
C880 C 0.0783 0.27113 0.57849 0.0
C881 C 0.07408 0.27026 0.62855 0.0
C882 C 0.06748 0.25363 0.57571 0.0
C883 C 0.05156 0.25298 0.56073 0.0
C884 C 0.04604 0.26987 0.54829 0.0
C885 C 0.05668 0.28754 0.55143 0.0
C886 C 0.07282 0.2881 0.5663 0.0
H887 H 0.07534 0.27288 0.64707 0.0
H888 H 0.06466 0.282 0.62099 0.0
H889 H 0.06654 0.25586 0.6259 0.0
H890 H 0.07161 0.24035 0.58486 0.0
H891 H 0.04365 0.23915 0.55877 0.0
H892 H 0.7687 0.14746 0.69242 0.0
H893 H 0.76195 0.12148 0.66463 0.0
H894 H 0.71382 0.15602 0.63746 0.0
H895 H 0.72073 0.18222 0.665 0.0
H896 H 0.72909 0.09913 0.65763 0.0
H897 H 0.74531 0.14407 0.58101 0.0
H898 H 0.75157 0.15229 0.60917 0.0
H899 H 0.72657 0.15427 0.59905 0.0
C900 C 0.75665 0.14949 0.68054 0.0
C901 C 0.74532 0.16692 0.68078 0.0
C902 C 0.75282 0.13466 0.66466 0.0
C903 C 0.73756 0.13693 0.64874 0.0
C904 C 0.72598 0.15416 0.6492 0.0
H905 H 0.70315 0.05072 0.54329 0.0
H906 H 0.70059 0.07706 0.57193 0.0
C907 C 0.72992 0.16909 0.66496 0.0
C908 C 0.73387 0.12114 0.63179 0.0
H909 H 0.73415 0.1114 0.575 0.0
C910 C 0.73006 0.10186 0.63957 0.0
C911 C 0.73513 0.12472 0.60819 0.0
C912 C 0.74004 0.1449 0.59879 0.0
C913 C 0.7279 0.08602 0.62441 0.0
C914 C 0.72954 0.08956 0.60094 0.0
C915 C 0.73271 0.10887 0.59306 0.0
C916 C 0.73034 0.07311 0.58452 0.0
C917 C 0.72437 0.06546 0.63348 0.0
C918 C 0.74787 0.06229 0.58231 0.0
C919 C 0.74945 0.04749 0.56597 0.0
C920 C 0.73345 0.04312 0.55159 0.0
C921 C 0.71569 0.0537 0.55419 0.0
C922 C 0.71421 0.06874 0.57045 0.0
H923 H 0.72032 0.0656 0.65171 0.0
H924 H 0.71243 0.05806 0.62375 0.0
H925 H 0.73802 0.05653 0.63143 0.0
H926 H 0.76049 0.06555 0.59298 0.0
H927 H 0.76331 0.03957 0.56451 0.0
H928 H 0.84931 0.25233 0.32035 0.0
H929 H 0.8769 0.25709 0.34659 0.0
H930 H 0.84125 0.2967 0.38664 0.0
H931 H 0.81358 0.29208 0.36042 0.0
H932 H 0.8968 0.29212 0.36031 0.0
H933 H 0.85944 0.25436 0.43223 0.0
H934 H 0.85061 0.2525 0.40347 0.0
H935 H 0.84602 0.27452 0.41966 0.0
C936 C 0.84739 0.26219 0.33463 0.0
C937 C 0.8292 0.27171 0.33839 0.0
C938 C 0.86315 0.26487 0.34962 0.0
C939 C 0.86103 0.27707 0.36867 0.0
C940 C 0.84306 0.28695 0.37224 0.0
H941 H 0.96032 0.30623 0.46019 0.0
H942 H 0.93211 0.31007 0.43427 0.0
C943 C 0.82726 0.28424 0.35729 0.0
C944 C 0.87751 0.27896 0.38506 0.0
H945 H 0.89119 0.26724 0.43909 0.0
C946 C 0.89556 0.28686 0.3776 0.0
C947 C 0.87583 0.27196 0.40755 0.0
C948 C 0.85701 0.2627 0.41625 0.0
C949 C 0.91211 0.28762 0.39197 0.0
C950 C 0.91046 0.28041 0.41436 0.0
C951 C 0.89231 0.2729 0.42194 0.0
C952 C 0.92781 0.27862 0.42949 0.0
C953 C 0.93146 0.29534 0.38291 0.0
C954 C 0.93459 0.25972 0.43539 0.0
C955 C 0.95057 0.25749 0.45006 0.0
C956 C 0.96009 0.27413 0.45933 0.0
C957 C 0.95334 0.29313 0.45331 0.0
C958 C 0.93729 0.29535 0.43848 0.0
H959 H 0.93092 0.29796 0.36434 0.0
H960 H 0.93509 0.30953 0.39139 0.0
H961 H 0.94357 0.28474 0.38666 0.0
H962 H 0.92747 0.24664 0.42862 0.0
H963 H 0.95532 0.24263 0.45428 0.0
H964 H 0.7243 0.82314 0.34399 0.0
H965 H 0.71767 0.84916 0.37177 0.0
H966 H 0.75855 0.88777 0.3374 0.0
H967 H 0.76543 0.8618 0.30971 0.0
H968 H 0.7446 0.86696 0.4006 0.0
H969 H 0.7095 0.92279 0.34476 0.0
H970 H 0.7125 0.89721 0.33654 0.0
H971 H 0.73289 0.91416 0.33438 0.0
C972 C 0.73193 0.83715 0.34237 0.0
C973 C 0.7454 0.84038 0.32461 0.0
C974 C 0.72801 0.85204 0.35816 0.0
C975 C 0.73736 0.8705 0.35642 0.0
C976 C 0.75079 0.87381 0.33873 0.0
H977 H 0.76696 0.95748 0.454 0.0
H978 H 0.76454 0.93093 0.42631 0.0
C979 C 0.75474 0.85893 0.32294 0.0
C980 C 0.73402 0.88591 0.37386 0.0
H981 H 0.72064 0.93426 0.38103 0.0
C982 C 0.73912 0.88159 0.39637 0.0
C983 C 0.72661 0.90491 0.36838 0.0
C984 C 0.71986 0.91003 0.34474 0.0
C985 C 0.7379 0.89606 0.41333 0.0
C986 C 0.73162 0.91538 0.40758 0.0
C987 C 0.72561 0.91946 0.38532 0.0
C988 C 0.73266 0.93181 0.42409 0.0
C989 C 0.74365 0.89065 0.43725 0.0
C990 C 0.71551 0.94145 0.43163 0.0
C991 C 0.71681 0.95676 0.44758 0.0
C992 C 0.73532 0.96274 0.45601 0.0
C993 C 0.75245 0.95324 0.44798 0.0
C994 C 0.75111 0.93797 0.4322 0.0
H995 H 0.74294 0.87441 0.44009 0.0
H996 H 0.75906 0.89553 0.44044 0.0
H997 H 0.7339 0.89812 0.44972 0.0
H998 H 0.70113 0.93695 0.4254 0.0
H999 H 0.70336 0.96381 0.45337 0.0
H1000 H 0.18553 0.77068 0.35992 0.0
H1001 H 0.15643 0.76832 0.38457 0.0
H1002 H 0.14412 0.71005 0.35844 0.0
H1003 H 0.17305 0.71232 0.33371 0.0
H1004 H 0.11075 0.73881 0.35968 0.0
H1005 H 0.15088 0.73017 0.44139 0.0
H1006 H 0.159 0.7499 0.42314 0.0
H1007 H 0.16215 0.72468 0.41438 0.0
C1008 C 0.17659 0.7574 0.35943 0.0
C1009 C 0.18163 0.74164 0.345 0.0
C1010 C 0.16009 0.75602 0.37359 0.0
C1011 C 0.1483 0.73893 0.37343 0.0
C1012 C 0.15314 0.72329 0.35889 0.0
H1013 H 0.05255 0.70811 0.46665 0.0
H1014 H 0.08089 0.70617 0.44077 0.0
C1015 C 0.16972 0.72458 0.34489 0.0
C1016 C 0.13065 0.73751 0.3881 0.0
H1017 H 0.11615 0.73429 0.44334 0.0
C1018 C 0.11189 0.73774 0.37796 0.0
C1019 C 0.13227 0.7359 0.41189 0.0
C1020 C 0.15213 0.73499 0.42346 0.0
C1021 C 0.09464 0.73694 0.39111 0.0
C1022 C 0.09626 0.73588 0.41493 0.0
C1023 C 0.11501 0.73512 0.42505 0.0
C1024 C 0.07865 0.73661 0.4297 0.0
C1025 C 0.07477 0.73735 0.37953 0.0
C1026 C 0.0681 0.75434 0.43194 0.0
C1027 C 0.05209 0.75554 0.44675 0.0
C1028 C 0.04625 0.73897 0.45955 0.0
C1029 C 0.05663 0.72108 0.45694 0.0
C1030 C 0.07283 0.71996 0.44225 0.0
H1031 H 0.076 0.73437 0.36108 0.0
H1032 H 0.0647 0.72625 0.38721 0.0
H1033 H 0.068 0.75217 0.38181 0.0
H1034 H 0.0725 0.76737 0.42252 0.0
H1035 H 0.04441 0.76953 0.44832 0.0
H1036 H 0.21133 0.17969 0.34166 0.0
H1037 H 0.20876 0.15332 0.36994 0.0
H1038 H 0.2471 0.11644 0.32978 0.0
H1039 H 0.24995 0.14277 0.30153 0.0
H1040 H 0.21311 0.09656 0.34778 0.0
H1041 H 0.25461 0.13866 0.41325 0.0
H1042 H 0.23367 0.15122 0.40121 0.0
H1043 H 0.25465 0.14562 0.38374 0.0
C1044 C 0.2193 0.166 0.33889 0.0
C1045 C 0.23098 0.16341 0.31941 0.0
C1046 C 0.21777 0.15094 0.35504 0.0
C1047 C 0.22794 0.13304 0.35207 0.0
C1048 C 0.23914 0.13016 0.33237 0.0
H1049 H 0.2643 0.04515 0.44796 0.0
H1050 H 0.26098 0.0706 0.41894 0.0
C1051 C 0.24069 0.14521 0.31621 0.0
C1052 C 0.22743 0.1175 0.36979 0.0
H1053 H 0.24189 0.10758 0.42403 0.0
C1054 C 0.2193 0.09896 0.3645 0.0
C1055 C 0.2357 0.12066 0.3915 0.0
C1056 C 0.24531 0.14004 0.39781 0.0
C1057 C 0.21928 0.08344 0.38036 0.0
C1058 C 0.22747 0.08665 0.40209 0.0
C1059 C 0.23549 0.10523 0.4074 0.0
C1060 C 0.22903 0.07063 0.41916 0.0
C1061 C 0.21106 0.06356 0.37358 0.0
C1062 C 0.21211 0.06217 0.42894 0.0
C1063 C 0.21394 0.04754 0.44564 0.0
C1064 C 0.23273 0.04118 0.45285 0.0
C1065 C 0.24959 0.04964 0.44284 0.0
C1066 C 0.24774 0.06423 0.42625 0.0
H1067 H 0.20875 0.06244 0.35499 0.0
H1068 H 0.22111 0.05147 0.37904 0.0
H1069 H 0.19661 0.06128 0.38204 0.0
H1070 H 0.19753 0.06712 0.42393 0.0
H1071 H 0.20067 0.04138 0.45306 0.0
H1072 H 0.63848 0.73236 0.79248 0.0
H1073 H 0.61189 0.72958 0.82028 0.0
H1074 H 0.65068 0.7521 0.87217 0.0
H1075 H 0.67761 0.75414 0.84473 0.0
H1076 H 0.62959 0.71958 0.8863 0.0
H1077 H 0.57976 0.77492 0.84654 0.0
H1078 H 0.58712 0.7552 0.82801 0.0
H1079 H 0.60533 0.77228 0.83847 0.0
C1080 C 0.64142 0.73662 0.80983 0.0
C1081 C 0.6602 0.74357 0.81631 0.0
C1082 C 0.62612 0.73522 0.82565 0.0
C1083 C 0.6292 0.74091 0.84823 0.0
C1084 C 0.64793 0.74774 0.8548 0.0
H1085 H 0.54548 0.77037 0.95164 0.0
H1086 H 0.57024 0.76909 0.92179 0.0
C1087 C 0.66326 0.74908 0.83902 0.0
C1088 C 0.61303 0.73957 0.86513 0.0
H1089 H 0.56701 0.75709 0.87775 0.0
C1090 C 0.61588 0.72774 0.88443 0.0
C1091 C 0.59523 0.75036 0.86274 0.0
C1092 C 0.59168 0.76405 0.84294 0.0
C1093 C 0.60146 0.72651 0.90148 0.0
C1094 C 0.58355 0.73711 0.89894 0.0
C1095 C 0.58066 0.74882 0.87956 0.0
C1096 C 0.56821 0.73744 0.91689 0.0
C1097 C 0.60581 0.71442 0.92239 0.0
C1098 C 0.55864 0.72005 0.92395 0.0
C1099 C 0.54444 0.7207 0.94121 0.0
C1100 C 0.53948 0.73878 0.95155 0.0
C1101 C 0.54891 0.75617 0.94411 0.0
C1102 C 0.56308 0.75549 0.92699 0.0
H1103 H 0.6218 0.71097 0.92402 0.0
H1104 H 0.60093 0.72232 0.93789 0.0
H1105 H 0.59764 0.70021 0.92142 0.0
H1106 H 0.56209 0.706 0.91609 0.0
H1107 H 0.53739 0.70706 0.94645 0.0
H1108 H 0.29229 0.68515 0.84686 0.0
H1109 H 0.29726 0.65596 0.87078 0.0
H1110 H 0.23714 0.63788 0.85828 0.0
H1111 H 0.23228 0.66651 0.83367 0.0
H1112 H 0.27824 0.64502 0.90969 0.0
H1113 H 0.26725 0.58762 0.84408 0.0
H1114 H 0.271 0.61337 0.83715 0.0
H1115 H 0.24696 0.60465 0.84553 0.0
C1116 C 0.2802 0.67481 0.84891 0.0
C1117 C 0.2619 0.67818 0.8382 0.0
C1118 C 0.28304 0.65819 0.86272 0.0
C1119 C 0.2677 0.64452 0.86602 0.0
C1120 C 0.24936 0.64796 0.8556 0.0
H1121 H 0.23851 0.54579 0.94905 0.0
H1122 H 0.24088 0.57342 0.92265 0.0
C1123 C 0.24651 0.66453 0.84176 0.0
C1124 C 0.27056 0.627 0.88095 0.0
H1125 H 0.26563 0.57669 0.88266 0.0
C1126 C 0.27577 0.63005 0.90372 0.0
C1127 C 0.26745 0.60745 0.87311 0.0
C1128 C 0.26306 0.60303 0.84858 0.0
C1129 C 0.27701 0.61418 0.91908 0.0
C1130 C 0.27313 0.59475 0.9114 0.0
C1131 C 0.26854 0.59162 0.88851 0.0
C1132 C 0.27229 0.57765 0.92718 0.0
C1133 C 0.28163 0.61837 0.94361 0.0
C1134 C 0.28927 0.57066 0.93832 0.0
C1135 C 0.28801 0.5547 0.95347 0.0
C1136 C 0.26971 0.54555 0.95777 0.0
C1137 C 0.25284 0.5525 0.94628 0.0
C1138 C 0.25414 0.5683 0.93111 0.0
H1139 H 0.28127 0.63445 0.94748 0.0
H1140 H 0.27094 0.61066 0.95481 0.0
H1141 H 0.29661 0.61269 0.94766 0.0
H1142 H 0.30348 0.57753 0.9353 0.0
H1143 H 0.30128 0.5497 0.962 0.0
H1144 H 0.36035 0.25398 0.80593 0.0
H1145 H 0.38702 0.25735 0.83366 0.0
H1146 H 0.3481 0.28986 0.87785 0.0
H1147 H 0.32137 0.28672 0.85013 0.0
H1148 H 0.4044 0.29165 0.85318 0.0
H1149 H 0.36814 0.24384 0.91754 0.0
H1150 H 0.3601 0.24469 0.88841 0.0
H1151 H 0.35352 0.26426 0.90754 0.0
C1152 C 0.3575 0.26204 0.82143 0.0
C1153 C 0.33867 0.26997 0.82586 0.0
C1154 C 0.37275 0.2639 0.83729 0.0
C1155 C 0.36946 0.27364 0.85791 0.0
C1156 C 0.35084 0.28197 0.8622 0.0
H1157 H 0.46197 0.304 0.95683 0.0
H1158 H 0.43535 0.30638 0.92869 0.0
C1159 C 0.33557 0.28011 0.84637 0.0
C1160 C 0.38545 0.27468 0.87508 0.0
H1161 H 0.39827 0.25882 0.928 0.0
C1162 C 0.40306 0.28456 0.86959 0.0
C1163 C 0.3837 0.26526 0.89638 0.0
C1164 C 0.36544 0.25376 0.90285 0.0
C1165 C 0.41902 0.28519 0.88483 0.0
C1166 C 0.41721 0.27585 0.90616 0.0
C1167 C 0.39955 0.26609 0.91168 0.0
C1168 C 0.43385 0.27485 0.9225 0.0
C1169 C 0.4379 0.2953 0.87776 0.0
C1170 C 0.44171 0.25637 0.92845 0.0
C1171 C 0.4568 0.25496 0.94448 0.0
C1172 C 0.46433 0.27202 0.95507 0.0
C1173 C 0.45658 0.29059 0.94893 0.0
C1174 C 0.44142 0.29199 0.9328 0.0
H1175 H 0.43825 0.29835 0.85927 0.0
H1176 H 0.43923 0.30961 0.88684 0.0
H1177 H 0.45093 0.2861 0.88228 0.0
H1178 H 0.43608 0.24297 0.92072 0.0
H1179 H 0.46239 0.2404 0.94875 0.0
H1180 H 0.79158 0.3127 0.86205 0.0
H1181 H 0.79369 0.34069 0.88825 0.0
H1182 H 0.75188 0.37315 0.8475 0.0
H1183 H 0.74941 0.34519 0.82142 0.0
H1184 H 0.78604 0.39539 0.86118 0.0
H1185 H 0.74952 0.35696 0.93319 0.0
H1186 H 0.77023 0.34432 0.92078 0.0
H1187 H 0.74811 0.34791 0.90447 0.0
C1188 C 0.78268 0.32571 0.85876 0.0
C1189 C 0.77025 0.32663 0.83964 0.0
C1190 C 0.78396 0.34172 0.87372 0.0
C1191 C 0.77281 0.35892 0.86991 0.0
C1192 C 0.76064 0.36002 0.85072 0.0
H1193 H 0.73579 0.45319 0.95629 0.0
H1194 H 0.73969 0.42508 0.93088 0.0
C1195 C 0.75931 0.34403 0.83578 0.0
C1196 C 0.77356 0.37574 0.88603 0.0
H1197 H 0.76091 0.38941 0.93976 0.0
C1198 C 0.78068 0.39409 0.87842 0.0
C1199 C 0.76641 0.37399 0.90844 0.0
C1200 C 0.75798 0.3548 0.91726 0.0
C1201 C 0.78068 0.4108 0.89258 0.0
C1202 C 0.77349 0.40905 0.91497 0.0
C1203 C 0.76656 0.39065 0.92264 0.0
C1204 C 0.7716 0.42641 0.93018 0.0
C1205 C 0.78772 0.43036 0.8833 0.0
C1206 C 0.78831 0.4365 0.9383 0.0
C1207 C 0.78614 0.45268 0.95296 0.0
C1208 C 0.76723 0.459 0.95971 0.0
C1209 C 0.75059 0.44881 0.95144 0.0
C1210 C 0.75277 0.43267 0.93693 0.0
H1211 H 0.78958 0.42998 0.86461 0.0
H1212 H 0.77716 0.44235 0.88766 0.0
H1213 H 0.8022 0.4341 0.89103 0.0
H1214 H 0.803 0.43173 0.93351 0.0
H1215 H 0.79926 0.46015 0.95907 0.0
H1216 H 0.6736 0.24422 0.16233 0.0
H1217 H 0.64665 0.24979 0.1355 0.0
H1218 H 0.62126 0.29318 0.18037 0.0
H1219 H 0.64838 0.28795 0.20722 0.0
H1220 H 0.59379 0.2655 0.16312 0.0
H1221 H 0.63887 0.29874 0.09463 0.0
H1222 H 0.6483 0.2755 0.10474 0.0
H1223 H 0.64765 0.2965 0.12341 0.0
C1224 C 0.66241 0.2551 0.16643 0.0
C1225 C 0.66324 0.26571 0.1869 0.0
C1226 C 0.64702 0.25828 0.15105 0.0
C1227 C 0.63216 0.27215 0.15577 0.0
C1228 C 0.63266 0.28248 0.17636 0.0
H1229 H 0.54451 0.30485 0.05161 0.0
H1230 H 0.56898 0.30766 0.08225 0.0
C1231 C 0.6481 0.27936 0.19175 0.0
C1232 C 0.61583 0.2754 0.13941 0.0
H1233 H 0.60637 0.28799 0.08443 0.0
C1234 C 0.59649 0.27065 0.146 0.0
C1235 C 0.61933 0.28243 0.1172 0.0
C1236 C 0.63963 0.28878 0.10959 0.0
C1237 C 0.58071 0.2718 0.1306 0.0
C1238 C 0.58442 0.27766 0.108 0.0
C1239 C 0.60358 0.28336 0.10173 0.0
C1240 C 0.56899 0.2764 0.09022 0.0
C1241 C 0.56022 0.26645 0.13856 0.0
C1242 C 0.56107 0.25792 0.08448 0.0
C1243 C 0.54727 0.25626 0.06703 0.0
C1244 C 0.54107 0.27306 0.05486 0.0
C1245 C 0.54891 0.29165 0.06072 0.0
C1246 C 0.56289 0.29327 0.07818 0.0
H1247 H 0.5588 0.26799 0.15721 0.0
H1248 H 0.54888 0.27588 0.13026 0.0
H1249 H 0.55713 0.2508 0.13412 0.0
H1250 H 0.56585 0.24466 0.09325 0.0
H1251 H 0.54158 0.2417 0.06299 0.0
H1252 H 0.74759 0.69071 0.14284 0.0
H1253 H 0.74944 0.66214 0.11752 0.0
H1254 H 0.78919 0.63307 0.16394 0.0
H1255 H 0.78761 0.66166 0.18929 0.0
H1256 H 0.78269 0.64456 0.09648 0.0
H1257 H 0.7446 0.59236 0.15465 0.0
H1258 H 0.74408 0.61883 0.1587 0.0
H1259 H 0.76565 0.60487 0.16647 0.0
C1260 C 0.75688 0.67833 0.1476 0.0
C1261 C 0.76738 0.67847 0.16818 0.0
C1262 C 0.75786 0.66198 0.13313 0.0
C1263 C 0.76925 0.64539 0.13898 0.0
C1264 C 0.78 0.64556 0.15931 0.0
H1265 H 0.79741 0.54799 0.04566 0.0
H1266 H 0.80019 0.57569 0.07232 0.0
C1267 C 0.77905 0.66191 0.1738 0.0
C1268 C 0.76977 0.62791 0.12378 0.0
H1269 H 0.757 0.57909 0.1205 0.0
C1270 C 0.77715 0.63021 0.10173 0.0
C1271 C 0.76238 0.60927 0.13064 0.0
C1272 C 0.75357 0.60612 0.15383 0.0
C1273 C 0.77727 0.61438 0.0863 0.0
C1274 C 0.77002 0.5957 0.09323 0.0
C1275 C 0.76272 0.59339 0.11531 0.0
C1276 C 0.76867 0.57871 0.07739 0.0
C1277 C 0.78459 0.61791 0.06252 0.0
C1278 C 0.75008 0.57096 0.07179 0.0
C1279 C 0.74845 0.55516 0.05668 0.0
C1280 C 0.76539 0.54665 0.0469 0.0
C1281 C 0.78406 0.55424 0.0528 0.0
C1282 C 0.78568 0.57013 0.06794 0.0
H1283 H 0.78587 0.63393 0.05857 0.0
H1284 H 0.79942 0.61111 0.06057 0.0
H1285 H 0.77455 0.61095 0.04995 0.0
H1286 H 0.73677 0.57731 0.07893 0.0
H1287 H 0.73383 0.54968 0.05261 0.0
H1288 H 0.35868 0.72525 0.20332 0.0
H1289 H 0.38552 0.72334 0.17562 0.0
H1290 H 0.34437 0.73713 0.12202 0.0
H1291 H 0.31764 0.73969 0.14979 0.0
H1292 H 0.39231 0.70057 0.13962 0.0
H1293 H 0.38556 0.77854 0.1115 0.0
H1294 H 0.37253 0.76912 0.13582 0.0
H1295 H 0.36315 0.76481 0.10771 0.0
C1296 C 0.35539 0.72783 0.1856 0.0
C1297 C 0.33614 0.73282 0.17871 0.0
C1298 C 0.37072 0.72673 0.16979 0.0
C1299 C 0.36708 0.73047 0.14676 0.0
C1300 C 0.34769 0.73476 0.13975 0.0
H1301 H 0.45178 0.70502 0.03788 0.0
H1302 H 0.42492 0.70242 0.06558 0.0
C1303 C 0.33241 0.73615 0.1556 0.0
C1304 C 0.38363 0.73013 0.13022 0.0
H1305 H 0.40711 0.75808 0.09032 0.0
C1306 C 0.3956 0.71316 0.12887 0.0
C1307 C 0.3881 0.74666 0.11641 0.0
C1308 C 0.3768 0.76588 0.11806 0.0
C1309 C 0.41186 0.71226 0.1141 0.0
C1310 C 0.41595 0.72858 0.09981 0.0
C1311 C 0.40393 0.7455 0.10114 0.0
C1312 C 0.43302 0.72897 0.08394 0.0
C1313 C 0.42481 0.69408 0.11448 0.0
C1314 C 0.44643 0.74479 0.08484 0.0
C1315 C 0.46144 0.74651 0.06879 0.0
C1316 C 0.46357 0.73231 0.05159 0.0
C1317 C 0.45063 0.71606 0.05111 0.0
C1318 C 0.43532 0.71452 0.067 0.0
H1319 H 0.4232 0.68573 0.13058 0.0
H1320 H 0.42042 0.68412 0.10043 0.0
H1321 H 0.44062 0.69802 0.11226 0.0
H1322 H 0.44503 0.7561 0.09774 0.0
H1323 H 0.47124 0.75916 0.06968 0.0
H1324 H 0.28465 0.31102 0.14446 0.0
H1325 H 0.29003 0.33905 0.11894 0.0
H1326 H 0.25275 0.37554 0.16085 0.0
H1327 H 0.24715 0.34759 0.18633 0.0
H1328 H 0.26207 0.35932 0.09445 0.0
H1329 H 0.30123 0.41063 0.1522 0.0
H1330 H 0.29822 0.38463 0.15841 0.0
H1331 H 0.27833 0.4017 0.16362 0.0
C1332 C 0.27758 0.325 0.14826 0.0
C1333 C 0.26546 0.32702 0.16749 0.0
C1334 C 0.28078 0.34105 0.13372 0.0
C1335 C 0.27206 0.3595 0.13816 0.0
C1336 C 0.26005 0.36161 0.15738 0.0
H1337 H 0.23902 0.45322 0.04922 0.0
H1338 H 0.24203 0.42505 0.0747 0.0
C1339 C 0.25684 0.34558 0.17193 0.0
C1340 C 0.27445 0.37617 0.12195 0.0
H1341 H 0.28815 0.42476 0.11804 0.0
C1342 C 0.26798 0.37355 0.09956 0.0
C1343 C 0.28242 0.39468 0.1285 0.0
C1344 C 0.29064 0.39807 0.15193 0.0
C1345 C 0.26847 0.38914 0.08385 0.0
C1346 C 0.2754 0.40795 0.09076 0.0
C1347 C 0.28268 0.41038 0.11284 0.0
C1348 C 0.27397 0.42547 0.07567 0.0
C1349 C 0.26138 0.38542 0.06 0.0
C1350 C 0.29096 0.43545 0.06818 0.0
C1351 C 0.28931 0.45172 0.0535 0.0
C1352 C 0.27062 0.45835 0.04626 0.0
C1353 C 0.25368 0.44851 0.05428 0.0
C1354 C 0.25535 0.43231 0.06881 0.0
H1355 H 0.26178 0.36941 0.0557 0.0
H1356 H 0.24587 0.39056 0.05837 0.0
H1357 H 0.27049 0.39365 0.04752 0.0
H1358 H 0.30548 0.43048 0.07343 0.0
H1359 H 0.30264 0.45899 0.04771 0.0
H1360 H 0.35087 0.23396 0.19514 0.0
H1361 H 0.37991 0.23087 0.17066 0.0
H1362 H 0.34216 0.2317 0.11172 0.0
H1363 H 0.31307 0.23414 0.1362 0.0
H1364 H 0.37086 0.20455 0.10733 0.0
H1365 H 0.40351 0.27575 0.13543 0.0
H1366 H 0.39972 0.2585 0.1581 0.0
H1367 H 0.3788 0.26838 0.14302 0.0
C1368 C 0.34883 0.23352 0.17695 0.0
C1369 C 0.32979 0.23445 0.16751 0.0
C1370 C 0.3654 0.2318 0.16298 0.0
C1371 C 0.36325 0.23145 0.13933 0.0
C1372 C 0.34419 0.23198 0.12992 0.0
H1373 H 0.44812 0.26489 0.03969 0.0
H1374 H 0.42087 0.26114 0.06618 0.0
C1375 C 0.3276 0.2334 0.14389 0.0
C1376 C 0.38079 0.23095 0.12429 0.0
H1377 H 0.4227 0.2563 0.11059 0.0
C1378 C 0.38223 0.21584 0.10803 0.0
C1379 C 0.3955 0.24581 0.1251 0.0
C1380 C 0.39427 0.26313 0.14119 0.0
C1381 C 0.39782 0.21535 0.09235 0.0
C1382 C 0.41265 0.23008 0.09337 0.0
C1383 C 0.41138 0.24494 0.10991 0.0
C1384 C 0.42881 0.23142 0.07647 0.0
C1385 C 0.39783 0.19953 0.07432 0.0
C1386 C 0.44233 0.21587 0.07323 0.0
C1387 C 0.45788 0.21788 0.05773 0.0
C1388 C 0.46034 0.23563 0.04562 0.0
C1389 C 0.44673 0.25108 0.04888 0.0
C1390 C 0.43112 0.24896 0.06404 0.0
H1391 H 0.38306 0.19256 0.07241 0.0
H1392 H 0.40237 0.2057 0.05769 0.0
H1393 H 0.4085 0.18778 0.07909 0.0
H1394 H 0.4411 0.20236 0.08298 0.0
H1395 H 0.46823 0.20579 0.05568 0.0
H1396 H 0.72946 0.36238 0.20535 0.0
H1397 H 0.72597 0.38846 0.17682 0.0
H1398 H 0.72988 0.3447 0.1238 0.0
H1399 H 0.73414 0.31872 0.15232 0.0
H1400 H 0.75289 0.37416 0.1145 0.0
H1401 H 0.68039 0.40528 0.13865 0.0
H1402 H 0.69732 0.40562 0.16199 0.0
H1403 H 0.68954 0.3823 0.15019 0.0
C1404 C 0.72934 0.35836 0.18759 0.0
C1405 C 0.73208 0.33859 0.18099 0.0
C1406 C 0.72719 0.37324 0.1713 0.0
C1407 C 0.72726 0.36854 0.14812 0.0
C1408 C 0.72971 0.34871 0.14156 0.0
H1409 H 0.70106 0.45503 0.04125 0.0
H1410 H 0.69873 0.42788 0.06875 0.0
C1411 C 0.73218 0.33389 0.15783 0.0
C1412 C 0.72626 0.38441 0.13069 0.0
H1413 H 0.70045 0.42547 0.11426 0.0
C1414 C 0.74129 0.38524 0.11434 0.0
C1415 C 0.71096 0.39871 0.13016 0.0
C1416 C 0.69354 0.39782 0.14604 0.0
C1417 C 0.74176 0.40023 0.09793 0.0
C1418 C 0.72721 0.41529 0.09835 0.0
C1419 C 0.71181 0.41413 0.1142 0.0
C1420 C 0.72799 0.43245 0.08266 0.0
C1421 C 0.75777 0.3996 0.08016 0.0
C1422 C 0.74491 0.44442 0.08186 0.0
C1423 C 0.74636 0.45969 0.06604 0.0
C1424 C 0.73073 0.46361 0.051 0.0
C1425 C 0.71335 0.45232 0.0526 0.0
C1426 C 0.71202 0.43681 0.06828 0.0
H1427 H 0.76339 0.3843 0.07765 0.0
H1428 H 0.75237 0.4053 0.06364 0.0
H1429 H 0.77039 0.40888 0.08575 0.0
H1430 H 0.75716 0.44177 0.09329 0.0
H1431 H 0.75984 0.46832 0.06547 0.0
H1432 H 0.66054 0.75611 0.19109 0.0
H1433 H 0.63149 0.75838 0.16651 0.0
H1434 H 0.66943 0.76454 0.10824 0.0
H1435 H 0.69852 0.763 0.13295 0.0
H1436 H 0.63987 0.79012 0.10607 0.0
H1437 H 0.60938 0.71621 0.12657 0.0
H1438 H 0.61232 0.7314 0.15121 0.0
H1439 H 0.63374 0.72378 0.13537 0.0
C1440 C 0.66264 0.75776 0.173 0.0
C1441 C 0.68173 0.75921 0.16385 0.0
C1442 C 0.64605 0.75899 0.15896 0.0
C1443 C 0.64826 0.76122 0.13545 0.0
C1444 C 0.66735 0.76275 0.12631 0.0
H1445 H 0.55809 0.73661 0.03639 0.0
H1446 H 0.58674 0.737 0.06138 0.0
C1447 C 0.68394 0.76184 0.1404 0.0
C1448 C 0.63069 0.76229 0.12041 0.0
H1449 H 0.58858 0.73776 0.10551 0.0
C1450 C 0.62869 0.77863 0.10586 0.0
C1451 C 0.61621 0.74719 0.11996 0.0
C1452 C 0.6181 0.72856 0.13394 0.0
C1453 C 0.61263 0.7803 0.09089 0.0
C1454 C 0.59782 0.76551 0.09099 0.0
C1455 C 0.59982 0.7492 0.10558 0.0
C1456 C 0.58063 0.76598 0.07533 0.0
C1457 C 0.61206 0.79756 0.07467 0.0
C1458 C 0.56758 0.78218 0.07478 0.0
C1459 C 0.55128 0.78214 0.06013 0.0
C1460 C 0.54752 0.76569 0.04622 0.0
C1461 C 0.56051 0.74947 0.04699 0.0
C1462 C 0.57691 0.74966 0.06129 0.0
H1463 H 0.62694 0.80417 0.07229 0.0
H1464 H 0.60627 0.79301 0.05786 0.0
H1465 H 0.60223 0.80921 0.0816 0.0
H1466 H 0.56982 0.79472 0.08587 0.0
H1467 H 0.54142 0.79477 0.06004 0.0
H1468 H 0.22318 0.64879 0.20333 0.0
H1469 H 0.21688 0.62209 0.17627 0.0
H1470 H 0.25863 0.64804 0.12984 0.0
H1471 H 0.26509 0.67474 0.15681 0.0
H1472 H 0.22286 0.63571 0.10929 0.0
H1473 H 0.25595 0.57685 0.16328 0.0
H1474 H 0.23674 0.59127 0.17625 0.0
H1475 H 0.2597 0.60284 0.16876 0.0
C1476 C 0.23114 0.64873 0.18743 0.0
C1477 C 0.24476 0.6638 0.18228 0.0
C1478 C 0.22747 0.6335 0.17198 0.0
C1479 C 0.23746 0.63299 0.15118 0.0
C1480 C 0.25076 0.64819 0.14581 0.0
H1481 H 0.267 0.54303 0.058 0.0
H1482 H 0.2641 0.56833 0.08706 0.0
C1483 C 0.25441 0.66345 0.16121 0.0
C1484 C 0.23444 0.61643 0.13513 0.0
H1485 H 0.24273 0.56698 0.12819 0.0
C1486 C 0.22702 0.62063 0.11344 0.0
C1487 C 0.23999 0.59683 0.14063 0.0
C1488 C 0.24869 0.5916 0.16341 0.0
C1489 C 0.22541 0.60579 0.0969 0.0
C1490 C 0.23119 0.58624 0.10233 0.0
C1491 C 0.23815 0.58196 0.12419 0.0
C1492 C 0.23227 0.57051 0.08494 0.0
C1493 C 0.2184 0.61127 0.07346 0.0
C1494 C 0.21525 0.56317 0.07423 0.0
C1495 C 0.21683 0.54858 0.05745 0.0
C1496 C 0.23548 0.54116 0.05119 0.0
C1497 C 0.2524 0.54842 0.06228 0.0
C1498 C 0.25079 0.56288 0.07898 0.0
H1499 H 0.21746 0.62755 0.07106 0.0
H1500 H 0.22847 0.60506 0.06044 0.0
H1501 H 0.20349 0.6049 0.07058 0.0
H1502 H 0.20079 0.56871 0.07883 0.0
H1503 H 0.20353 0.54326 0.04928 0.0
H1504 H 0.31028 0.79258 0.86563 0.0
H1505 H 0.33745 0.79815 0.89229 0.0
H1506 H 0.3757 0.76199 0.85112 0.0
H1507 H 0.34865 0.75625 0.82451 0.0
H1508 H 0.35776 0.77035 0.91696 0.0
H1509 H 0.40921 0.81138 0.8613 0.0
H1510 H 0.38345 0.80789 0.85434 0.0
H1511 H 0.40109 0.78852 0.84898 0.0
C1512 C 0.32447 0.78577 0.86229 0.0
C1513 C 0.32732 0.77399 0.84292 0.0
C1514 C 0.34 0.78909 0.87744 0.0
C1515 C 0.35869 0.78081 0.87344 0.0
C1516 C 0.36156 0.76899 0.8542 0.0
H1517 H 0.45091 0.74322 0.9587 0.0
H1518 H 0.4223 0.74868 0.93455 0.0
C1519 C 0.34606 0.76567 0.83904 0.0
C1520 C 0.37488 0.7834 0.89009 0.0
H1521 H 0.42334 0.7969 0.8949 0.0
C1522 C 0.37199 0.77645 0.91223 0.0
C1523 C 0.39335 0.79166 0.88403 0.0
C1524 C 0.39693 0.80048 0.86093 0.0
C1525 C 0.38744 0.77648 0.92808 0.0
C1526 C 0.40629 0.7834 0.9215 0.0
C1527 C 0.4089 0.79142 0.8998 0.0
C1528 C 0.4238 0.78061 0.93617 0.0
C1529 C 0.38359 0.76865 0.9516 0.0
C1530 C 0.43445 0.79683 0.94465 0.0
C1531 C 0.45097 0.79377 0.95858 0.0
C1532 C 0.45715 0.77444 0.96396 0.0
C1533 C 0.44657 0.75832 0.95502 0.0
C1534 C 0.43011 0.76138 0.94128 0.0
H1535 H 0.36764 0.76937 0.95595 0.0
H1536 H 0.38826 0.75292 0.95247 0.0
H1537 H 0.3921 0.77707 0.96446 0.0
H1538 H 0.42985 0.8118 0.9407 0.0
H1539 H 0.45884 0.80649 0.96513 0.0
H1540 H 0.25466 0.35771 0.80651 0.0
H1541 H 0.24984 0.38422 0.8341 0.0
H1542 H 0.22803 0.34186 0.88263 0.0
H1543 H 0.23354 0.31511 0.85548 0.0
H1544 H 0.21588 0.39703 0.85668 0.0
H1545 H 0.27274 0.36931 0.91687 0.0
H1546 H 0.2706 0.3601 0.8883 0.0
H1547 H 0.25376 0.35179 0.90982 0.0
C1548 C 0.24905 0.35398 0.82314 0.0
C1549 C 0.24469 0.33424 0.82885 0.0
C1550 C 0.24611 0.36918 0.8388 0.0
C1551 C 0.2388 0.36497 0.86049 0.0
C1552 C 0.23397 0.34538 0.8661 0.0
H1553 H 0.20497 0.4568 0.95912 0.0
H1554 H 0.20319 0.42937 0.93193 0.0
C1555 C 0.23696 0.33014 0.85047 0.0
C1556 C 0.23674 0.38107 0.87734 0.0
H1557 H 0.25456 0.39739 0.92806 0.0
C1558 C 0.22424 0.39711 0.87236 0.0
C1559 C 0.24781 0.38116 0.89766 0.0
C1560 C 0.26212 0.36478 0.90348 0.0
C1561 C 0.22271 0.41337 0.88707 0.0
C1562 C 0.23377 0.41342 0.90739 0.0
C1563 C 0.24601 0.39724 0.91251 0.0
C1564 C 0.23414 0.43067 0.92286 0.0
C1565 C 0.20984 0.43066 0.88041 0.0
C1566 C 0.2521 0.44041 0.92679 0.0
C1567 C 0.25319 0.45587 0.94233 0.0
C1568 C 0.23633 0.46197 0.95435 0.0
C1569 C 0.21819 0.45251 0.95004 0.0
C1570 C 0.21714 0.4369 0.93447 0.0
H1571 H 0.20548 0.43004 0.86228 0.0
H1572 H 0.19618 0.43049 0.89078 0.0
H1573 H 0.21757 0.44487 0.88359 0.0
H1574 H 0.26538 0.43586 0.91798 0.0
H1575 H 0.26738 0.46287 0.94512 0.0
H1576 H 0.6639 0.25879 0.82271 0.0
H1577 H 0.63561 0.25659 0.84831 0.0
H1578 H 0.67232 0.22851 0.89869 0.0
H1579 H 0.70086 0.23126 0.8735 0.0
H1580 H 0.61861 0.22263 0.86734 0.0
H1581 H 0.64635 0.27395 0.93362 0.0
H1582 H 0.65719 0.27256 0.90576 0.0
H1583 H 0.66285 0.25404 0.92664 0.0
C1584 C 0.66605 0.25246 0.83938 0.0
C1585 C 0.68469 0.24532 0.84612 0.0
C1586 C 0.64982 0.25104 0.8539 0.0
C1587 C 0.65191 0.24255 0.87546 0.0
C1588 C 0.67045 0.23536 0.88224 0.0
H1589 H 0.55278 0.20852 0.96335 0.0
H1590 H 0.58195 0.2073 0.93873 0.0
C1591 C 0.6867 0.23679 0.86774 0.0
C1592 C 0.6346 0.24111 0.89071 0.0
H1593 H 0.61655 0.25706 0.94145 0.0
C1594 C 0.61814 0.2301 0.88358 0.0
C1595 C 0.63403 0.251 0.91178 0.0
C1596 C 0.65096 0.2637 0.91989 0.0
C1597 C 0.60103 0.22882 0.89694 0.0
C1598 C 0.60053 0.23858 0.9181 0.0
C1599 C 0.61705 0.24946 0.92528 0.0
C1600 C 0.58259 0.23886 0.93246 0.0
C1601 C 0.58343 0.21755 0.88803 0.0
C1602 C 0.57344 0.25698 0.93725 0.0
C1603 C 0.55694 0.25774 0.95133 0.0
C1604 C 0.54922 0.24037 0.96102 0.0
C1605 C 0.55829 0.22214 0.95606 0.0
C1606 C 0.57491 0.22141 0.94193 0.0
H1607 H 0.58471 0.21448 0.8696 0.0
H1608 H 0.58231 0.20317 0.89702 0.0
H1609 H 0.56955 0.2259 0.89108 0.0
H1610 H 0.57913 0.27061 0.93011 0.0
H1611 H 0.55034 0.27204 0.95473 0.0
H1612 H 0.70911 0.67999 0.84136 0.0
H1613 H 0.70641 0.65371 0.86974 0.0
H1614 H 0.74613 0.61728 0.83081 0.0
H1615 H 0.74909 0.64352 0.80246 0.0
H1616 H 0.71221 0.59692 0.848 0.0
H1617 H 0.75157 0.64007 0.91432 0.0
H1618 H 0.73063 0.65217 0.90168 0.0
H1619 H 0.75205 0.64693 0.88479 0.0
C1620 C 0.71735 0.66642 0.83889 0.0
C1621 C 0.72945 0.66393 0.81973 0.0
C1622 C 0.71575 0.65142 0.85508 0.0
C1623 C 0.72627 0.63367 0.85249 0.0
C1624 C 0.7379 0.63088 0.83311 0.0
H1625 H 0.76279 0.54684 0.94929 0.0
H1626 H 0.75933 0.57228 0.92029 0.0
C1627 C 0.73951 0.64587 0.81689 0.0
C1628 C 0.72567 0.61821 0.87028 0.0
H1629 H 0.73928 0.60876 0.92491 0.0
C1630 C 0.71802 0.5995 0.86487 0.0
C1631 C 0.73344 0.62162 0.89218 0.0
C1632 C 0.74255 0.64121 0.89865 0.0
C1633 C 0.71802 0.58403 0.88079 0.0
C1634 C 0.72573 0.58748 0.9027 0.0
C1635 C 0.73325 0.60623 0.90813 0.0
C1636 C 0.72738 0.57152 0.91982 0.0
C1637 C 0.71036 0.56396 0.87388 0.0
C1638 C 0.71052 0.56265 0.92922 0.0
C1639 C 0.71243 0.54802 0.9459 0.0
C1640 C 0.73125 0.54209 0.95348 0.0
C1641 C 0.74806 0.551 0.94388 0.0
C1642 C 0.74613 0.56558 0.9273 0.0
H1643 H 0.7084 0.56276 0.85525 0.0
H1644 H 0.72059 0.5521 0.8796 0.0
H1645 H 0.69582 0.56136 0.88202 0.0
H1646 H 0.6959 0.56724 0.92389 0.0
H1647 H 0.69919 0.54151 0.953 0.0
loop_
_geom_bond_atom_site_label_1
_geom_bond_atom_site_label_2
_geom_bond_distance
_geom_bond_site_symmetry_2
_ccdc_geom_bond_type
H0 C19 0.949 . S
H1 C20 0.950 . S
H2 C22 0.950 . S
H3 C23 0.950 . S
H4 C25 0.950 . S
H5 C28 0.950 . S
H6 C29 0.950 . S
H7 C31 0.951 . S
H8 C32 0.949 . S
H9 C34 0.949 . S
H10 C35 0.950 . S
H11 C37 0.950 . S
H12 C38 0.950 . S
H13 C40 0.950 . S
H14 C43 0.950 . S
H15 C44 0.950 . S
H16 C46 0.951 . S
H17 C47 0.949 . S
C18 C19 1.376 . S
C18 C23 1.386 . S
C18 C24 1.483 . S
C19 H0 0.949 . S
C19 C18 1.376 . S
C19 C20 1.397 . S
C20 H1 0.950 . S
C20 C19 1.397 . S
C20 C21 1.391 . S
C21 C20 1.391 . S
C21 C22 1.405 . S
C22 H2 0.950 . S
C22 C21 1.405 . S
C22 C23 1.367 . S
C23 H3 0.950 . S
C23 C18 1.386 . S
C23 C22 1.367 . S
C24 C18 1.483 . S
C24 C25 1.382 . S
C24 C26 1.403 . S
C25 H4 0.950 . S
C25 C24 1.382 . S
C25 C41 1.411 . S
C26 C24 1.403 . S
C26 C27 1.489 . S
C26 C40 1.411 . S
C27 C26 1.489 . S
C27 C28 1.383 . S
C27 C32 1.382 . S
C28 H5 0.950 . S
C28 C27 1.383 . S
C28 C29 1.395 . S
C29 H6 0.950 . S
C29 C28 1.395 . S
C29 C30 1.288 . S
C30 C29 1.288 . S
C30 C31 1.392 . S
C31 H7 0.951 . S
C31 C30 1.392 . S
C31 C32 1.392 . S
C32 H8 0.949 . S
C32 C27 1.382 . S
C32 C31 1.392 . S
C33 C34 1.376 . S
C33 C38 1.386 . S
C33 C39 1.483 . S
C34 H9 0.949 . S
C34 C33 1.376 . S
C34 C35 1.397 . S
C35 H10 0.950 . S
C35 C34 1.397 . S
C35 C36 1.391 . S
C36 C35 1.391 . S
C36 C37 1.405 . S
C37 H11 0.950 . S
C37 C36 1.405 . S
C37 C38 1.367 . S
C38 H12 0.950 . S
C38 C33 1.386 . S
C38 C37 1.367 . S
C39 C33 1.483 . S
C39 C40 1.382 . S
C39 C41 1.403 . S
C40 H13 0.950 . S
C40 C26 1.411 . S
C40 C39 1.382 . S
C41 C25 1.411 . S
C41 C39 1.403 . S
C41 C42 1.489 . S
C42 C41 1.489 . S
C42 C43 1.383 . S
C42 C47 1.382 . S
C43 H14 0.950 . S
C43 C42 1.383 . S
C43 C44 1.395 . S
C44 H15 0.950 . S
C44 C43 1.395 . S
C44 C45 1.288 . S
C45 C44 1.288 . S
C45 C46 1.392 . S
C46 H16 0.951 . S
C46 C45 1.392 . S
C46 C47 1.392 . S
C47 H17 0.949 . S
C47 C42 1.382 . S
C47 C46 1.392 . S
H48 C67 0.949 . S
H49 C68 0.950 . S
H50 C70 0.950 . S
H51 C71 0.950 . S
H52 C73 0.950 . S
H53 C76 0.950 . S
H54 C77 0.950 . S
H55 C79 0.951 . S
H56 C80 0.949 . S
H57 C82 0.949 . S
H58 C83 0.950 . S
H59 C85 0.950 . S
H60 C86 0.950 . S
H61 C88 0.950 . S
H62 C91 0.950 . S
H63 C92 0.950 . S
H64 C94 0.951 . S
H65 C95 0.949 . S
C66 C67 1.376 . S
C66 C71 1.386 . S
C66 C72 1.483 . S
C67 H48 0.949 . S
C67 C66 1.376 . S
C67 C68 1.397 . S
C68 H49 0.950 . S
C68 C67 1.397 . S
C68 C69 1.391 . S
C69 C68 1.391 . S
C69 C70 1.405 . S
C70 H50 0.950 . S
C70 C69 1.405 . S
C70 C71 1.367 . S
C71 H51 0.950 . S
C71 C66 1.386 . S
C71 C70 1.367 . S
C72 C66 1.483 . S
C72 C73 1.382 . S
C72 C74 1.403 . S
C73 H52 0.950 . S
C73 C72 1.382 . S
C73 C89 1.411 . S
C74 C72 1.403 . S
C74 C75 1.489 . S
C74 C88 1.411 . S
C75 C74 1.489 . S
C75 C76 1.383 . S
C75 C80 1.382 . S
C76 H53 0.950 . S
C76 C75 1.383 . S
C76 C77 1.395 . S
C77 H54 0.950 . S
C77 C76 1.395 . S
C77 C78 1.288 . S
C78 C77 1.288 . S
C78 C79 1.392 . S
C79 H55 0.951 . S
C79 C78 1.392 . S
C79 C80 1.392 . S
C80 H56 0.949 . S
C80 C75 1.382 . S
C80 C79 1.392 . S
C81 C82 1.376 . S
C81 C86 1.386 . S
C81 C87 1.483 . S
C82 H57 0.949 . S
C82 C81 1.376 . S
C82 C83 1.397 . S
C83 H58 0.950 . S
C83 C82 1.397 . S
C83 C84 1.391 . S
C84 C83 1.391 . S
C84 C85 1.405 . S
C85 H59 0.950 . S
C85 C84 1.405 . S
C85 C86 1.367 . S
C86 H60 0.950 . S
C86 C81 1.386 . S
C86 C85 1.367 . S
C87 C81 1.483 . S
C87 C88 1.382 . S
C87 C89 1.403 . S
C88 H61 0.950 . S
C88 C74 1.411 . S
C88 C87 1.382 . S
C89 C73 1.411 . S
C89 C87 1.403 . S
C89 C90 1.489 . S
C90 C89 1.489 . S
C90 C91 1.383 . S
C90 C95 1.382 . S
C91 H62 0.950 . S
C91 C90 1.383 . S
C91 C92 1.395 . S
C92 H63 0.950 . S
C92 C91 1.395 . S
C92 C93 1.288 . S
C93 C92 1.288 . S
C93 C94 1.392 . S
C94 H64 0.951 . S
C94 C93 1.392 . S
C94 C95 1.392 . S
C95 H65 0.949 . S
C95 C90 1.382 . S
C95 C94 1.392 . S
H96 C115 0.949 . S
H97 C116 0.950 . S
H98 C118 0.950 . S
H99 C119 0.950 . S
H100 C121 0.950 . S
H101 C124 0.950 . S
H102 C125 0.950 . S
H103 C127 0.951 . S
H104 C128 0.949 . S
H105 C130 0.949 . S
H106 C131 0.950 . S
H107 C133 0.950 . S
H108 C134 0.950 . S
H109 C136 0.950 . S
H110 C139 0.950 . S
H111 C140 0.950 . S
H112 C142 0.951 . S
H113 C143 0.949 . S
C114 C115 1.376 . S
C114 C119 1.386 . S
C114 C120 1.483 . S
C115 H96 0.949 . S
C115 C114 1.376 . S
C115 C116 1.397 . S
C116 H97 0.950 . S
C116 C115 1.397 . S
C116 C117 1.391 . S
C117 C116 1.391 . S
C117 C118 1.405 . S
C118 H98 0.950 . S
C118 C117 1.405 . S
C118 C119 1.367 . S
C119 H99 0.950 . S
C119 C114 1.386 . S
C119 C118 1.367 . S
C120 C114 1.483 . S
C120 C121 1.382 . S
C120 C122 1.403 . S
C121 H100 0.950 . S
C121 C120 1.382 . S
C121 C137 1.411 . S
C122 C120 1.403 . S
C122 C123 1.489 . S
C122 C136 1.411 . S
C123 C122 1.489 . S
C123 C124 1.383 . S
C123 C128 1.382 . S
C124 H101 0.950 . S
C124 C123 1.383 . S
C124 C125 1.395 . S
C125 H102 0.950 . S
C125 C124 1.395 . S
C125 C126 1.288 . S
C126 C125 1.288 . S
C126 C127 1.392 . S
C127 H103 0.951 . S
C127 C126 1.392 . S
C127 C128 1.392 . S
C128 H104 0.949 . S
C128 C123 1.382 . S
C128 C127 1.392 . S
C129 C130 1.376 . S
C129 C134 1.386 . S
C129 C135 1.483 . S
C130 H105 0.949 . S
C130 C129 1.376 . S
C130 C131 1.397 . S
C131 H106 0.950 . S
C131 C130 1.397 . S
C131 C132 1.391 . S
C132 C131 1.391 . S
C132 C133 1.405 . S
C133 H107 0.950 . S
C133 C132 1.405 . S
C133 C134 1.367 . S
C134 H108 0.950 . S
C134 C129 1.386 . S
C134 C133 1.367 . S
C135 C129 1.483 . S
C135 C136 1.382 . S
C135 C137 1.403 . S
C136 H109 0.950 . S
C136 C122 1.411 . S
C136 C135 1.382 . S
C137 C121 1.411 . S
C137 C135 1.403 . S
C137 C138 1.489 . S
C138 C137 1.489 . S
C138 C139 1.383 . S
C138 C143 1.382 . S
C139 H110 0.950 . S
C139 C138 1.383 . S
C139 C140 1.395 . S
C140 H111 0.950 . S
C140 C139 1.395 . S
C140 C141 1.288 . S
C141 C140 1.288 . S
C141 C142 1.392 . S
C142 H112 0.951 . S
C142 C141 1.392 . S
C142 C143 1.392 . S
C143 H113 0.949 . S
C143 C138 1.382 . S
C143 C142 1.392 . S
H144 C163 0.949 . S
H145 C164 0.950 . S
H146 C166 0.950 . S
H147 C167 0.950 . S
H148 C169 0.950 . S
H149 C172 0.950 . S
H150 C173 0.950 . S
H151 C175 0.951 . S
H152 C176 0.949 . S
H153 C178 0.949 . S
H154 C179 0.950 . S
H155 C181 0.950 . S
H156 C182 0.950 . S
H157 C184 0.950 . S
H158 C187 0.950 . S
H159 C188 0.950 . S
H160 C190 0.951 . S
H161 C191 0.949 . S
C162 C163 1.376 . S
C162 C167 1.386 . S
C162 C168 1.483 . S
C163 H144 0.949 . S
C163 C162 1.376 . S
C163 C164 1.397 . S
C164 H145 0.950 . S
C164 C163 1.397 . S
C164 C165 1.391 . S
C165 C164 1.391 . S
C165 C166 1.405 . S
C166 H146 0.950 . S
C166 C165 1.405 . S
C166 C167 1.367 . S
C167 H147 0.950 . S
C167 C162 1.386 . S
C167 C166 1.367 . S
C168 C162 1.483 . S
C168 C169 1.382 . S
C168 C170 1.403 . S
C169 H148 0.950 . S
C169 C168 1.382 . S
C169 C185 1.411 . S
C170 C168 1.403 . S
C170 C171 1.489 . S
C170 C184 1.411 . S
C171 C170 1.489 . S
C171 C172 1.383 . S
C171 C176 1.382 . S
C172 H149 0.950 . S
C172 C171 1.383 . S
C172 C173 1.395 . S
C173 H150 0.950 . S
C173 C172 1.395 . S
C173 C174 1.288 . S
C174 C173 1.288 . S
C174 C175 1.392 . S
C175 H151 0.951 . S
C175 C174 1.392 . S
C175 C176 1.392 . S
C176 H152 0.949 . S
C176 C171 1.382 . S
C176 C175 1.392 . S
C177 C178 1.376 . S
C177 C182 1.386 . S
C177 C183 1.483 . S
C178 H153 0.949 . S
C178 C177 1.376 . S
C178 C179 1.397 . S
C179 H154 0.950 . S
C179 C178 1.397 . S
C179 C180 1.391 . S
C180 C179 1.391 . S
C180 C181 1.405 . S
C181 H155 0.950 . S
C181 C180 1.405 . S
C181 C182 1.367 . S
C182 H156 0.950 . S
C182 C177 1.386 . S
C182 C181 1.367 . S
C183 C177 1.483 . S
C183 C184 1.382 . S
C183 C185 1.403 . S
C184 H157 0.950 . S
C184 C170 1.411 . S
C184 C183 1.382 . S
C185 C169 1.411 . S
C185 C183 1.403 . S
C185 C186 1.489 . S
C186 C185 1.489 . S
C186 C187 1.383 . S
C186 C191 1.382 . S
C187 H158 0.950 . S
C187 C186 1.383 . S
C187 C188 1.395 . S
C188 H159 0.950 . S
C188 C187 1.395 . S
C188 C189 1.288 . S
C189 C188 1.288 . S
C189 C190 1.392 . S
C190 H160 0.951 . S
C190 C189 1.392 . S
C190 C191 1.392 . S
C191 H161 0.949 . S
C191 C186 1.382 . S
C191 C190 1.392 . S
H192 C211 0.949 . S
H193 C212 0.950 . S
H194 C214 0.950 . S
H195 C215 0.950 . S
H196 C217 0.950 . S
H197 C220 0.950 . S
H198 C221 0.950 . S
H199 C223 0.951 . S
H200 C224 0.949 . S
H201 C226 0.949 . S
H202 C227 0.950 . S
H203 C229 0.950 . S
H204 C230 0.950 . S
H205 C232 0.950 . S
H206 C235 0.950 . S
H207 C236 0.950 . S
H208 C238 0.951 . S
H209 C239 0.949 . S
C210 C211 1.376 . S
C210 C215 1.386 . S
C210 C216 1.483 . S
C211 H192 0.949 . S
C211 C210 1.376 . S
C211 C212 1.397 . S
C212 H193 0.950 . S
C212 C211 1.397 . S
C212 C213 1.391 . S
C213 C212 1.391 . S
C213 C214 1.405 . S
C214 H194 0.950 . S
C214 C213 1.405 . S
C214 C215 1.367 . S
C215 H195 0.950 . S
C215 C210 1.386 . S
C215 C214 1.367 . S
C216 C210 1.483 . S
C216 C217 1.382 . S
C216 C218 1.403 . S
C217 H196 0.950 . S
C217 C216 1.382 . S
C217 C233 1.411 . S
C218 C216 1.403 . S
C218 C219 1.489 . S
C218 C232 1.411 . S
C219 C218 1.489 . S
C219 C220 1.383 . S
C219 C224 1.382 . S
C220 H197 0.950 . S
C220 C219 1.383 . S
C220 C221 1.395 . S
C221 H198 0.950 . S
C221 C220 1.395 . S
C221 C222 1.288 . S
C222 C221 1.288 . S
C222 C223 1.392 . S
C223 H199 0.951 . S
C223 C222 1.392 . S
C223 C224 1.392 . S
C224 H200 0.949 . S
C224 C219 1.382 . S
C224 C223 1.392 . S
C225 C226 1.376 . S
C225 C230 1.386 . S
C225 C231 1.483 . S
C226 H201 0.949 . S
C226 C225 1.376 . S
C226 C227 1.397 . S
C227 H202 0.950 . S
C227 C226 1.397 . S
C227 C228 1.391 . S
C228 C227 1.391 . S
C228 C229 1.405 . S
C229 H203 0.950 . S
C229 C228 1.405 . S
C229 C230 1.367 . S
C230 H204 0.950 . S
C230 C225 1.386 . S
C230 C229 1.367 . S
C231 C225 1.483 . S
C231 C232 1.382 . S
C231 C233 1.403 . S
C232 H205 0.950 . S
C232 C218 1.411 . S
C232 C231 1.382 . S
C233 C217 1.411 . S
C233 C231 1.403 . S
C233 C234 1.489 . S
C234 C233 1.489 . S
C234 C235 1.383 . S
C234 C239 1.382 . S
C235 H206 0.950 . S
C235 C234 1.383 . S
C235 C236 1.395 . S
C236 H207 0.950 . S
C236 C235 1.395 . S
C236 C237 1.288 . S
C237 C236 1.288 . S
C237 C238 1.392 . S
C238 H208 0.951 . S
C238 C237 1.392 . S
C238 C239 1.392 . S
C239 H209 0.949 . S
C239 C234 1.382 . S
C239 C238 1.392 . S
H240 C259 0.949 . S
H241 C260 0.950 . S
H242 C262 0.950 . S
H243 C263 0.950 . S
H244 C265 0.950 . S
H245 C268 0.950 . S
H246 C269 0.950 . S
H247 C271 0.951 . S
H248 C272 0.949 . S
H249 C274 0.949 . S
H250 C275 0.950 . S
H251 C277 0.950 . S
H252 C278 0.950 . S
H253 C280 0.950 . S
H254 C283 0.950 . S
H255 C284 0.950 . S
H256 C286 0.951 . S
H257 C287 0.949 . S
C258 C259 1.376 . S
C258 C263 1.386 . S
C258 C264 1.483 . S
C259 H240 0.949 . S
C259 C258 1.376 . S
C259 C260 1.397 . S
C260 H241 0.950 . S
C260 C259 1.397 . S
C260 C261 1.391 . S
C261 C260 1.391 . S
C261 C262 1.405 . S
C262 H242 0.950 . S
C262 C261 1.405 . S
C262 C263 1.367 . S
C263 H243 0.950 . S
C263 C258 1.386 . S
C263 C262 1.367 . S
C264 C258 1.483 . S
C264 C265 1.382 . S
C264 C266 1.403 . S
C265 H244 0.950 . S
C265 C264 1.382 . S
C265 C281 1.411 . S
C266 C264 1.403 . S
C266 C267 1.489 . S
C266 C280 1.411 . S
C267 C266 1.489 . S
C267 C268 1.383 . S
C267 C272 1.382 . S
C268 H245 0.950 . S
C268 C267 1.383 . S
C268 C269 1.395 . S
C269 H246 0.950 . S
C269 C268 1.395 . S
C269 C270 1.288 . S
C270 C269 1.288 . S
C270 C271 1.392 . S
C271 H247 0.951 . S
C271 C270 1.392 . S
C271 C272 1.392 . S
C272 H248 0.949 . S
C272 C267 1.382 . S
C272 C271 1.392 . S
C273 C274 1.376 . S
C273 C278 1.386 . S
C273 C279 1.483 . S
C274 H249 0.949 . S
C274 C273 1.376 . S
C274 C275 1.397 . S
C275 H250 0.950 . S
C275 C274 1.397 . S
C275 C276 1.391 . S
C276 C275 1.391 . S
C276 C277 1.405 . S
C277 H251 0.950 . S
C277 C276 1.405 . S
C277 C278 1.367 . S
C278 H252 0.950 . S
C278 C273 1.386 . S
C278 C277 1.367 . S
C279 C273 1.483 . S
C279 C280 1.382 . S
C279 C281 1.403 . S
C280 H253 0.950 . S
C280 C266 1.411 . S
C280 C279 1.382 . S
C281 C265 1.411 . S
C281 C279 1.403 . S
C281 C282 1.489 . S
C282 C281 1.489 . S
C282 C283 1.383 . S
C282 C287 1.382 . S
C283 H254 0.950 . S
C283 C282 1.383 . S
C283 C284 1.395 . S
C284 H255 0.950 . S
C284 C283 1.395 . S
C284 C285 1.288 . S
C285 C284 1.288 . S
C285 C286 1.392 . S
C286 H256 0.951 . S
C286 C285 1.392 . S
C286 C287 1.392 . S
C287 H257 0.949 . S
C287 C282 1.382 . S
C287 C286 1.392 . S
H288 C307 0.949 . S
H289 C308 0.950 . S
H290 C310 0.950 . S
H291 C311 0.950 . S
H292 C313 0.950 . S
H293 C316 0.950 . S
H294 C317 0.950 . S
H295 C319 0.951 . S
H296 C320 0.949 . S
H297 C322 0.949 . S
H298 C323 0.950 . S
H299 C325 0.950 . S
H300 C326 0.950 . S
H301 C328 0.950 . S
H302 C331 0.950 . S
H303 C332 0.950 . S
H304 C334 0.951 . S
H305 C335 0.949 . S
C306 C307 1.376 . S
C306 C311 1.386 . S
C306 C312 1.483 . S
C307 H288 0.949 . S
C307 C306 1.376 . S
C307 C308 1.397 . S
C308 H289 0.950 . S
C308 C307 1.397 . S
C308 C309 1.391 . S
C309 C308 1.391 . S
C309 C310 1.405 . S
C310 H290 0.950 . S
C310 C309 1.405 . S
C310 C311 1.367 . S
C311 H291 0.950 . S
C311 C306 1.386 . S
C311 C310 1.367 . S
C312 C306 1.483 . S
C312 C313 1.382 . S
C312 C314 1.403 . S
C313 H292 0.950 . S
C313 C312 1.382 . S
C313 C329 1.411 . S
C314 C312 1.403 . S
C314 C315 1.489 . S
C314 C328 1.411 . S
C315 C314 1.489 . S
C315 C316 1.383 . S
C315 C320 1.382 . S
C316 H293 0.950 . S
C316 C315 1.383 . S
C316 C317 1.395 . S
C317 H294 0.950 . S
C317 C316 1.395 . S
C317 C318 1.288 . S
C318 C317 1.288 . S
C318 C319 1.392 . S
C319 H295 0.951 . S
C319 C318 1.392 . S
C319 C320 1.392 . S
C320 H296 0.949 . S
C320 C315 1.382 . S
C320 C319 1.392 . S
C321 C322 1.376 . S
C321 C326 1.386 . S
C321 C327 1.483 . S
C322 H297 0.949 . S
C322 C321 1.376 . S
C322 C323 1.397 . S
C323 H298 0.950 . S
C323 C322 1.397 . S
C323 C324 1.391 . S
C324 C323 1.391 . S
C324 C325 1.405 . S
C325 H299 0.950 . S
C325 C324 1.405 . S
C325 C326 1.367 . S
C326 H300 0.950 . S
C326 C321 1.386 . S
C326 C325 1.367 . S
C327 C321 1.483 . S
C327 C328 1.382 . S
C327 C329 1.403 . S
C328 H301 0.950 . S
C328 C314 1.411 . S
C328 C327 1.382 . S
C329 C313 1.411 . S
C329 C327 1.403 . S
C329 C330 1.489 . S
C330 C329 1.489 . S
C330 C331 1.383 . S
C330 C335 1.382 . S
C331 H302 0.950 . S
C331 C330 1.383 . S
C331 C332 1.395 . S
C332 H303 0.950 . S
C332 C331 1.395 . S
C332 C333 1.288 . S
C333 C332 1.288 . S
C333 C334 1.392 . S
C334 H304 0.951 . S
C334 C333 1.392 . S
C334 C335 1.392 . S
C335 H305 0.949 . S
C335 C330 1.382 . S
C335 C334 1.392 . S
H336 C355 0.949 . S
H337 C356 0.950 . S
H338 C358 0.950 . S
H339 C359 0.950 . S
H340 C361 0.950 . S
H341 C364 0.950 . S
H342 C365 0.950 . S
H343 C367 0.951 . S
H344 C368 0.949 . S
H345 C370 0.949 . S
H346 C371 0.950 . S
H347 C373 0.950 . S
H348 C374 0.950 . S
H349 C376 0.950 . S
H350 C379 0.950 . S
H351 C380 0.950 . S
H352 C382 0.951 . S
H353 C383 0.949 . S
C354 C355 1.376 . S
C354 C359 1.386 . S
C354 C360 1.483 . S
C355 H336 0.949 . S
C355 C354 1.376 . S
C355 C356 1.397 . S
C356 H337 0.950 . S
C356 C355 1.397 . S
C356 C357 1.391 . S
C357 C356 1.391 . S
C357 C358 1.405 . S
C358 H338 0.950 . S
C358 C357 1.405 . S
C358 C359 1.367 . S
C359 H339 0.950 . S
C359 C354 1.386 . S
C359 C358 1.367 . S
C360 C354 1.483 . S
C360 C361 1.382 . S
C360 C362 1.403 . S
C361 H340 0.950 . S
C361 C360 1.382 . S
C361 C377 1.411 . S
C362 C360 1.403 . S
C362 C363 1.489 . S
C362 C376 1.411 . S
C363 C362 1.489 . S
C363 C364 1.383 . S
C363 C368 1.382 . S
C364 H341 0.950 . S
C364 C363 1.383 . S
C364 C365 1.395 . S
C365 H342 0.950 . S
C365 C364 1.395 . S
C365 C366 1.288 . S
C366 C365 1.288 . S
C366 C367 1.392 . S
C367 H343 0.951 . S
C367 C366 1.392 . S
C367 C368 1.392 . S
C368 H344 0.949 . S
C368 C363 1.382 . S
C368 C367 1.392 . S
C369 C370 1.376 . S
C369 C374 1.386 . S
C369 C375 1.483 . S
C370 H345 0.949 . S
C370 C369 1.376 . S
C370 C371 1.397 . S
C371 H346 0.950 . S
C371 C370 1.397 . S
C371 C372 1.391 . S
C372 C371 1.391 . S
C372 C373 1.405 . S
C373 H347 0.950 . S
C373 C372 1.405 . S
C373 C374 1.367 . S
C374 H348 0.950 . S
C374 C369 1.386 . S
C374 C373 1.367 . S
C375 C369 1.483 . S
C375 C376 1.382 . S
C375 C377 1.403 . S
C376 H349 0.950 . S
C376 C362 1.411 . S
C376 C375 1.382 . S
C377 C361 1.411 . S
C377 C375 1.403 . S
C377 C378 1.489 . S
C378 C377 1.489 . S
C378 C379 1.383 . S
C378 C383 1.382 . S
C379 H350 0.950 . S
C379 C378 1.383 . S
C379 C380 1.395 . S
C380 H351 0.950 . S
C380 C379 1.395 . S
C380 C381 1.288 . S
C381 C380 1.288 . S
C381 C382 1.392 . S
C382 H352 0.951 . S
C382 C381 1.392 . S
C382 C383 1.392 . S
C383 H353 0.949 . S
C383 C378 1.382 . S
C383 C382 1.392 . S
C384 O386 1.247 . S
C384 O388 1.258 . S
C385 O392 1.247 . S
C385 O393 1.258 . S
O386 C384 1.247 . S
O386 Zn387 2.032 1_655 S
Zn387 O386 2.032 1_455 S
Zn387 O391 2.031 . S
Zn387 O393 2.031 . S
Zn387 O394 2.032 1_455 S
O388 C384 1.258 . S
O388 Zn389 2.025 1_655 S
Zn389 O388 2.025 1_455 S
Zn389 O390 2.038 . S
Zn389 O392 2.038 . S
Zn389 O395 2.025 1_455 S
O390 Zn389 2.038 . S
O390 C396 1.247 . S
O391 Zn387 2.031 . S
O391 C396 1.258 . S
O392 C385 1.247 . S
O392 Zn389 2.038 . S
O393 C385 1.258 . S
O393 Zn387 2.031 . S
O394 Zn387 2.032 1_655 S
O394 C397 1.247 . S
O395 Zn389 2.025 1_655 S
O395 C397 1.258 . S
C396 O390 1.247 . S
C396 O391 1.258 . S
C397 O394 1.247 . S
C397 O395 1.258 . S
C398 O400 1.247 . S
C398 O402 1.258 . S
C399 O406 1.247 . S
C399 O407 1.258 . S
O400 C398 1.247 . S
O400 Zn401 2.036 . S
Zn401 O400 2.036 . S
Zn401 O405 2.027 1_545 S
Zn401 O407 2.027 1_545 S
Zn401 O408 2.036 . S
O402 C398 1.258 . S
O402 Zn403 2.038 1_545 S
Zn403 O402 2.038 1_565 S
Zn403 O404 2.025 . S
Zn403 O406 2.025 . S
Zn403 O409 2.038 1_565 S
O404 Zn403 2.025 . S
O404 C410 1.247 . S
O405 Zn401 2.027 1_565 S
O405 C410 1.258 . S
O406 C399 1.247 . S
O406 Zn403 2.025 . S
O407 C399 1.258 . S
O407 Zn401 2.027 1_565 S
O408 Zn401 2.036 . S
O408 C411 1.247 . S
O409 Zn403 2.038 1_545 S
O409 C411 1.258 . S
C410 O404 1.247 . S
C410 O405 1.258 . S
C411 O408 1.247 . S
C411 O409 1.258 . S
C412 O414 1.247 . S
C412 O416 1.258 . S
C413 O420 1.247 . S
C413 O421 1.258 . S
O414 C412 1.247 . S
O414 Zn415 2.026 . S
Zn415 O414 2.026 . S
Zn415 O419 2.037 1_655 S
Zn415 O421 2.037 1_655 S
Zn415 O422 2.026 . S
O416 C412 1.258 . S
O416 Zn417 2.028 1_655 S
Zn417 O416 2.028 1_455 S
Zn417 O418 2.035 . S
Zn417 O420 2.035 . S
Zn417 O423 2.028 1_455 S
O418 Zn417 2.035 . S
O418 C424 1.247 . S
O419 Zn415 2.037 1_455 S
O419 C424 1.258 . S
O420 C413 1.247 . S
O420 Zn417 2.035 . S
O421 C413 1.258 . S
O421 Zn415 2.037 1_455 S
O422 Zn415 2.026 . S
O422 C425 1.247 . S
O423 Zn417 2.028 1_655 S
O423 C425 1.258 . S
C424 O418 1.247 . S
C424 O419 1.258 . S
C425 O422 1.247 . S
C425 O423 1.258 . S
C426 O428 1.247 . S
C426 O430 1.258 . S
C427 O434 1.247 . S
C427 O435 1.258 . S
O428 C426 1.247 . S
O428 Zn429 2.036 . S
Zn429 O428 2.036 . S
Zn429 O433 2.027 1_545 S
Zn429 O435 2.027 1_545 S
Zn429 O436 2.036 . S
O430 C426 1.258 . S
O430 Zn431 2.039 1_545 S
Zn431 O430 2.039 1_565 S
Zn431 O432 2.024 . S
Zn431 O434 2.024 . S
Zn431 O437 2.039 1_565 S
O432 Zn431 2.024 . S
O432 C438 1.247 . S
O433 Zn429 2.027 1_565 S
O433 C438 1.258 . S
O434 C427 1.247 . S
O434 Zn431 2.024 . S
O435 C427 1.258 . S
O435 Zn429 2.027 1_565 S
O436 Zn429 2.036 . S
O436 C439 1.247 . S
O437 Zn431 2.039 1_545 S
O437 C439 1.258 . S
C438 O432 1.247 . S
C438 O433 1.258 . S
C439 O436 1.247 . S
C439 O437 1.258 . S
C440 O442 1.247 . S
C440 O444 1.258 . S
C441 O448 1.247 . S
C441 O449 1.258 . S
O442 C440 1.247 . S
O442 Zn443 2.028 . S
Zn443 O442 2.028 . S
Zn443 O447 2.035 . S
Zn443 O449 2.035 1_554 S
Zn443 O450 2.028 1_554 S
O444 C440 1.258 . S
O444 Zn445 2.035 . S
Zn445 O444 2.035 . S
Zn445 O446 2.028 . S
Zn445 O448 2.028 1_554 S
Zn445 O451 2.035 1_554 S
O446 Zn445 2.028 . S
O446 C452 1.247 . S
O447 Zn443 2.035 . S
O447 C452 1.258 . S
O448 C441 1.247 . S
O448 Zn445 2.028 1_556 S
O449 C441 1.258 . S
O449 Zn443 2.035 1_556 S
O450 Zn443 2.028 1_556 S
O450 C453 1.247 . S
O451 Zn445 2.035 1_556 S
O451 C453 1.258 . S
C452 O446 1.247 . S
C452 O447 1.258 . S
C453 O450 1.247 . S
C453 O451 1.258 . S
C454 O456 1.247 . S
C454 O458 1.258 . S
C455 O462 1.247 . S
C455 O463 1.258 . S
O456 C454 1.247 . S
O456 Zn457 2.028 . S
Zn457 O456 2.028 . S
Zn457 O461 2.035 . S
Zn457 O463 2.035 1_554 S
Zn457 O464 2.028 1_554 S
O458 C454 1.258 . S
O458 Zn459 2.035 . S
Zn459 O458 2.035 . S
Zn459 O460 2.028 . S
Zn459 O462 2.028 1_554 S
Zn459 O465 2.035 1_554 S
O460 Zn459 2.028 . S
O460 C466 1.247 . S
O461 Zn457 2.035 . S
O461 C466 1.258 . S
O462 C455 1.247 . S
O462 Zn459 2.028 1_556 S
O463 C455 1.258 . S
O463 Zn457 2.035 1_556 S
O464 Zn457 2.028 1_556 S
O464 C467 1.247 . S
O465 Zn459 2.035 1_556 S
O465 C467 1.258 . S
C466 O460 1.247 . S
C466 O461 1.258 . S
C467 O464 1.247 . S
C467 O465 1.258 . S
C468 O470 1.247 . S
C468 O472 1.258 . S
C469 O476 1.247 . S
C469 O477 1.258 . S
O470 C468 1.247 . S
O470 Zn471 2.028 1_556 S
Zn471 O470 2.028 1_554 S
Zn471 O475 2.035 1_554 S
Zn471 O477 2.035 . S
Zn471 O478 2.028 . S
O472 C468 1.258 . S
O472 Zn473 2.035 1_556 S
Zn473 O472 2.035 1_554 S
Zn473 O474 2.028 1_554 S
Zn473 O476 2.028 . S
Zn473 O479 2.035 . S
O474 Zn473 2.028 1_556 S
O474 C480 1.247 . S
O475 Zn471 2.035 1_556 S
O475 C480 1.258 . S
O476 C469 1.247 . S
O476 Zn473 2.028 . S
O477 C469 1.258 . S
O477 Zn471 2.035 . S
O478 Zn471 2.028 . S
O478 C481 1.247 . S
O479 Zn473 2.035 . S
O479 C481 1.258 . S
C480 O474 1.247 . S
C480 O475 1.258 . S
C481 O478 1.247 . S
C481 O479 1.258 . S
C482 O484 1.247 . S
C482 O486 1.258 . S
C483 O490 1.247 . S
C483 O491 1.258 . S
O484 C482 1.247 . S
O484 Zn485 2.028 . S
Zn485 O484 2.028 . S
Zn485 O489 2.035 . S
Zn485 O491 2.035 1_554 S
Zn485 O492 2.028 1_554 S
O486 C482 1.258 . S
O486 Zn487 2.035 . S
Zn487 O486 2.035 . S
Zn487 O488 2.028 . S
Zn487 O490 2.028 1_554 S
Zn487 O493 2.035 1_554 S
O488 Zn487 2.028 . S
O488 C494 1.247 . S
O489 Zn485 2.035 . S
O489 C494 1.258 . S
O490 C483 1.247 . S
O490 Zn487 2.028 1_556 S
O491 C483 1.258 . S
O491 Zn485 2.035 1_556 S
O492 Zn485 2.028 1_556 S
O492 C495 1.247 . S
O493 Zn487 2.035 1_556 S
O493 C495 1.258 . S
C494 O488 1.247 . S
C494 O489 1.258 . S
C495 O492 1.247 . S
C495 O493 1.258 . S
H496 C504 0.929 . S
H497 C506 0.930 . S
H498 C508 0.930 . S
H499 C511 0.929 . S
H500 C514 0.930 . S
H501 C516 0.960 . S
H502 C516 0.960 . S
H503 C516 0.960 . S
C504 H496 0.929 . S
C504 C505 1.377 . S
C504 C506 1.384 . S
C505 C504 1.377 . S
C505 C511 1.390 . S
C506 H497 0.930 . S
C506 C504 1.384 . S
C506 C507 1.372 . S
C507 C506 1.372 . S
C507 C508 1.400 . S
C507 C512 1.490 . S
C508 H498 0.930 . S
C508 C507 1.400 . S
C508 C511 1.386 . S
H509 C525 0.930 . S
H510 C526 0.931 . S
C511 H499 0.929 . S
C511 C505 1.390 . S
C511 C508 1.386 . S
C512 C507 1.490 . S
C512 C514 1.395 . S
C512 C515 1.403 . S
H513 C519 0.930 . S
C514 H500 0.930 . S
C514 C512 1.395 . S
C514 C517 1.403 . S
C515 C512 1.403 . S
C515 C516 1.524 . S
C515 C519 1.400 . S
C516 H501 0.960 . S
C516 H502 0.960 . S
C516 H503 0.960 . S
C516 C515 1.524 . S
C517 C514 1.403 . S
C517 C518 1.392 . S
C517 C521 1.495 . S
C518 C517 1.392 . S
C518 C519 1.385 . S
C518 C520 1.478 . S
C519 H513 0.930 . S
C519 C515 1.400 . S
C519 C518 1.385 . S
C520 C518 1.478 . S
C520 C522 1.381 . S
C520 C526 1.383 . S
C521 C517 1.495 . S
C521 H527 0.959 . S
C521 H528 0.961 . S
C521 H529 0.960 . S
C522 C520 1.381 . S
C522 C523 1.394 . S
C522 H530 0.930 . S
C523 C522 1.394 . S
C523 C524 1.383 . S
C523 H531 0.929 . S
C524 C523 1.383 . S
C524 C525 1.377 . S
C525 H509 0.930 . S
C525 C524 1.377 . S
C525 C526 1.379 . S
C526 H510 0.931 . S
C526 C520 1.383 . S
C526 C525 1.379 . S
H527 C521 0.959 . S
H528 C521 0.961 . S
H529 C521 0.960 . S
H530 C522 0.930 . S
H531 C523 0.929 . S
H532 C540 0.929 . S
H533 C542 0.930 . S
H534 C544 0.930 . S
H535 C547 0.929 . S
H536 C550 0.930 . S
H537 C552 0.960 . S
H538 C552 0.960 . S
H539 C552 0.960 . S
C540 H532 0.929 . S
C540 C541 1.377 . S
C540 C542 1.384 . S
C541 C540 1.377 . S
C541 C547 1.390 . S
C542 H533 0.930 . S
C542 C540 1.384 . S
C542 C543 1.372 . S
C543 C542 1.372 . S
C543 C544 1.400 . S
C543 C548 1.490 . S
C544 H534 0.930 . S
C544 C543 1.400 . S
C544 C547 1.386 . S
H545 C561 0.930 . S
H546 C562 0.931 . S
C547 H535 0.929 . S
C547 C541 1.390 . S
C547 C544 1.386 . S
C548 C543 1.490 . S
C548 C550 1.395 . S
C548 C551 1.403 . S
H549 C555 0.930 . S
C550 H536 0.930 . S
C550 C548 1.395 . S
C550 C553 1.403 . S
C551 C548 1.403 . S
C551 C552 1.524 . S
C551 C555 1.400 . S
C552 H537 0.960 . S
C552 H538 0.960 . S
C552 H539 0.960 . S
C552 C551 1.524 . S
C553 C550 1.403 . S
C553 C554 1.392 . S
C553 C557 1.495 . S
C554 C553 1.392 . S
C554 C555 1.385 . S
C554 C556 1.478 . S
C555 H549 0.930 . S
C555 C551 1.400 . S
C555 C554 1.385 . S
C556 C554 1.478 . S
C556 C558 1.381 . S
C556 C562 1.383 . S
C557 C553 1.495 . S
C557 H563 0.959 . S
C557 H564 0.961 . S
C557 H565 0.960 . S
C558 C556 1.381 . S
C558 C559 1.394 . S
C558 H566 0.930 . S
C559 C558 1.394 . S
C559 C560 1.383 . S
C559 H567 0.929 . S
C560 C559 1.383 . S
C560 C561 1.377 . S
C561 H545 0.930 . S
C561 C560 1.377 . S
C561 C562 1.379 . S
C562 H546 0.931 . S
C562 C556 1.383 . S
C562 C561 1.379 . S
H563 C557 0.959 . S
H564 C557 0.961 . S
H565 C557 0.960 . S
H566 C558 0.930 . S
H567 C559 0.929 . S
H568 C576 0.929 . S
H569 C578 0.930 . S
H570 C580 0.930 . S
H571 C583 0.929 . S
H572 C586 0.930 . S
H573 C588 0.960 . S
H574 C588 0.960 . S
H575 C588 0.960 . S
C576 H568 0.929 . S
C576 C577 1.377 . S
C576 C578 1.384 . S
C577 C576 1.377 . S
C577 C583 1.390 . S
C578 H569 0.930 . S
C578 C576 1.384 . S
C578 C579 1.372 . S
C579 C578 1.372 . S
C579 C580 1.400 . S
C579 C584 1.490 . S
C580 H570 0.930 . S
C580 C579 1.400 . S
C580 C583 1.386 . S
H581 C597 0.930 . S
H582 C598 0.931 . S
C583 H571 0.929 . S
C583 C577 1.390 . S
C583 C580 1.386 . S
C584 C579 1.490 . S
C584 C586 1.395 . S
C584 C587 1.403 . S
H585 C591 0.930 . S
C586 H572 0.930 . S
C586 C584 1.395 . S
C586 C589 1.403 . S
C587 C584 1.403 . S
C587 C588 1.524 . S
C587 C591 1.400 . S
C588 H573 0.960 . S
C588 H574 0.960 . S
C588 H575 0.960 . S
C588 C587 1.524 . S
C589 C586 1.403 . S
C589 C590 1.392 . S
C589 C593 1.495 . S
C590 C589 1.392 . S
C590 C591 1.385 . S
C590 C592 1.478 . S
C591 H585 0.930 . S
C591 C587 1.400 . S
C591 C590 1.385 . S
C592 C590 1.478 . S
C592 C594 1.381 . S
C592 C598 1.383 . S
C593 C589 1.495 . S
C593 H599 0.959 . S
C593 H600 0.961 . S
C593 H601 0.960 . S
C594 C592 1.381 . S
C594 C595 1.394 . S
C594 H602 0.930 . S
C595 C594 1.394 . S
C595 C596 1.383 . S
C595 H603 0.929 . S
C596 C595 1.383 . S
C596 C597 1.377 . S
C597 H581 0.930 . S
C597 C596 1.377 . S
C597 C598 1.379 . S
C598 H582 0.931 . S
C598 C592 1.383 . S
C598 C597 1.379 . S
H599 C593 0.959 . S
H600 C593 0.961 . S
H601 C593 0.960 . S
H602 C594 0.930 . S
H603 C595 0.929 . S
H604 C612 0.929 . S
H605 C614 0.930 . S
H606 C616 0.930 . S
H607 C619 0.929 . S
H608 C622 0.930 . S
H609 C624 0.960 . S
H610 C624 0.960 . S
H611 C624 0.960 . S
C612 H604 0.929 . S
C612 C613 1.377 . S
C612 C614 1.384 . S
C613 C612 1.377 . S
C613 C619 1.390 . S
C614 H605 0.930 . S
C614 C612 1.384 . S
C614 C615 1.372 . S
C615 C614 1.372 . S
C615 C616 1.400 . S
C615 C620 1.490 . S
C616 H606 0.930 . S
C616 C615 1.400 . S
C616 C619 1.386 . S
H617 C633 0.930 . S
H618 C634 0.931 . S
C619 H607 0.929 . S
C619 C613 1.390 . S
C619 C616 1.386 . S
C620 C615 1.490 . S
C620 C622 1.395 . S
C620 C623 1.403 . S
H621 C627 0.930 . S
C622 H608 0.930 . S
C622 C620 1.395 . S
C622 C625 1.403 . S
C623 C620 1.403 . S
C623 C624 1.524 . S
C623 C627 1.400 . S
C624 H609 0.960 . S
C624 H610 0.960 . S
C624 H611 0.960 . S
C624 C623 1.524 . S
C625 C622 1.403 . S
C625 C626 1.392 . S
C625 C629 1.495 . S
C626 C625 1.392 . S
C626 C627 1.385 . S
C626 C628 1.478 . S
C627 H621 0.930 . S
C627 C623 1.400 . S
C627 C626 1.385 . S
C628 C626 1.478 . S
C628 C630 1.381 . S
C628 C634 1.383 . S
C629 C625 1.495 . S
C629 H635 0.959 . S
C629 H636 0.961 . S
C629 H637 0.960 . S
C630 C628 1.381 . S
C630 C631 1.394 . S
C630 H638 0.930 . S
C631 C630 1.394 . S
C631 C632 1.383 . S
C631 H639 0.929 . S
C632 C631 1.383 . S
C632 C633 1.377 . S
C633 H617 0.930 . S
C633 C632 1.377 . S
C633 C634 1.379 . S
C634 H618 0.931 . S
C634 C628 1.383 . S
C634 C633 1.379 . S
H635 C629 0.959 . S
H636 C629 0.961 . S
H637 C629 0.960 . S
H638 C630 0.930 . S
H639 C631 0.929 . S
H640 C648 0.929 . S
H641 C650 0.930 . S
H642 C652 0.930 . S
H643 C655 0.929 . S
H644 C658 0.930 . S
H645 C660 0.960 . S
H646 C660 0.960 . S
H647 C660 0.960 . S
C648 H640 0.929 . S
C648 C649 1.377 . S
C648 C650 1.384 . S
C649 C648 1.377 . S
C649 C655 1.390 . S
C650 H641 0.930 . S
C650 C648 1.384 . S
C650 C651 1.372 . S
C651 C650 1.372 . S
C651 C652 1.400 . S
C651 C656 1.490 . S
C652 H642 0.930 . S
C652 C651 1.400 . S
C652 C655 1.386 . S
H653 C669 0.930 . S
H654 C670 0.931 . S
C655 H643 0.929 . S
C655 C649 1.390 . S
C655 C652 1.386 . S
C656 C651 1.490 . S
C656 C658 1.395 . S
C656 C659 1.403 . S
H657 C663 0.930 . S
C658 H644 0.930 . S
C658 C656 1.395 . S
C658 C661 1.403 . S
C659 C656 1.403 . S
C659 C660 1.524 . S
C659 C663 1.400 . S
C660 H645 0.960 . S
C660 H646 0.960 . S
C660 H647 0.960 . S
C660 C659 1.524 . S
C661 C658 1.403 . S
C661 C662 1.392 . S
C661 C665 1.495 . S
C662 C661 1.392 . S
C662 C663 1.385 . S
C662 C664 1.478 . S
C663 H657 0.930 . S
C663 C659 1.400 . S
C663 C662 1.385 . S
C664 C662 1.478 . S
C664 C666 1.381 . S
C664 C670 1.383 . S
C665 C661 1.495 . S
C665 H671 0.959 . S
C665 H672 0.961 . S
C665 H673 0.960 . S
C666 C664 1.381 . S
C666 C667 1.394 . S
C666 H674 0.930 . S
C667 C666 1.394 . S
C667 C668 1.383 . S
C667 H675 0.929 . S
C668 C667 1.383 . S
C668 C669 1.377 . S
C669 H653 0.930 . S
C669 C668 1.377 . S
C669 C670 1.379 . S
C670 H654 0.931 . S
C670 C664 1.383 . S
C670 C669 1.379 . S
H671 C665 0.959 . S
H672 C665 0.961 . S
H673 C665 0.960 . S
H674 C666 0.930 . S
H675 C667 0.929 . S
H676 C684 0.929 . S
H677 C686 0.930 . S
H678 C688 0.930 . S
H679 C691 0.929 . S
H680 C694 0.930 . S
H681 C696 0.960 . S
H682 C696 0.960 . S
H683 C696 0.960 . S
C684 H676 0.929 . S
C684 C685 1.377 . S
C684 C686 1.384 . S
C685 C684 1.377 . S
C685 C691 1.390 . S
C686 H677 0.930 . S
C686 C684 1.384 . S
C686 C687 1.372 . S
C687 C686 1.372 . S
C687 C688 1.400 . S
C687 C692 1.490 . S
C688 H678 0.930 . S
C688 C687 1.400 . S
C688 C691 1.386 . S
H689 C705 0.930 . S
H690 C706 0.931 . S
C691 H679 0.929 . S
C691 C685 1.390 . S
C691 C688 1.386 . S
C692 C687 1.490 . S
C692 C694 1.395 . S
C692 C695 1.403 . S
H693 C699 0.930 . S
C694 H680 0.930 . S
C694 C692 1.395 . S
C694 C697 1.403 . S
C695 C692 1.403 . S
C695 C696 1.524 . S
C695 C699 1.400 . S
C696 H681 0.960 . S
C696 H682 0.960 . S
C696 H683 0.960 . S
C696 C695 1.524 . S
C697 C694 1.403 . S
C697 C698 1.392 . S
C697 C701 1.495 . S
C698 C697 1.392 . S
C698 C699 1.385 . S
C698 C700 1.478 . S
C699 H693 0.930 . S
C699 C695 1.400 . S
C699 C698 1.385 . S
C700 C698 1.478 . S
C700 C702 1.381 . S
C700 C706 1.383 . S
C701 C697 1.495 . S
C701 H707 0.959 . S
C701 H708 0.961 . S
C701 H709 0.960 . S
C702 C700 1.381 . S
C702 C703 1.394 . S
C702 H710 0.930 . S
C703 C702 1.394 . S
C703 C704 1.383 . S
C703 H711 0.929 . S
C704 C703 1.383 . S
C704 C705 1.377 . S
C705 H689 0.930 . S
C705 C704 1.377 . S
C705 C706 1.379 . S
C706 H690 0.931 . S
C706 C700 1.383 . S
C706 C705 1.379 . S
H707 C701 0.959 . S
H708 C701 0.961 . S
H709 C701 0.960 . S
H710 C702 0.930 . S
H711 C703 0.929 . S
H712 C720 0.929 . S
H713 C722 0.930 . S
H714 C724 0.930 . S
H715 C727 0.929 . S
H716 C730 0.930 . S
H717 C732 0.960 . S
H718 C732 0.960 . S
H719 C732 0.960 . S
C720 H712 0.929 . S
C720 C721 1.377 . S
C720 C722 1.384 . S
C721 C720 1.377 . S
C721 C727 1.390 . S
C722 H713 0.930 . S
C722 C720 1.384 . S
C722 C723 1.372 . S
C723 C722 1.372 . S
C723 C724 1.400 . S
C723 C728 1.490 . S
C724 H714 0.930 . S
C724 C723 1.400 . S
C724 C727 1.386 . S
H725 C741 0.930 . S
H726 C742 0.931 . S
C727 H715 0.929 . S
C727 C721 1.390 . S
C727 C724 1.386 . S
C728 C723 1.490 . S
C728 C730 1.395 . S
C728 C731 1.403 . S
H729 C735 0.930 . S
C730 H716 0.930 . S
C730 C728 1.395 . S
C730 C733 1.403 . S
C731 C728 1.403 . S
C731 C732 1.524 . S
C731 C735 1.400 . S
C732 H717 0.960 . S
C732 H718 0.960 . S
C732 H719 0.960 . S
C732 C731 1.524 . S
C733 C730 1.403 . S
C733 C734 1.392 . S
C733 C737 1.495 . S
C734 C733 1.392 . S
C734 C735 1.385 . S
C734 C736 1.478 . S
C735 H729 0.930 . S
C735 C731 1.400 . S
C735 C734 1.385 . S
C736 C734 1.478 . S
C736 C738 1.381 . S
C736 C742 1.383 . S
C737 C733 1.495 . S
C737 H743 0.959 . S
C737 H744 0.961 . S
C737 H745 0.960 . S
C738 C736 1.381 . S
C738 C739 1.394 . S
C738 H746 0.930 . S
C739 C738 1.394 . S
C739 C740 1.383 . S
C739 H747 0.929 . S
C740 C739 1.383 . S
C740 C741 1.377 . S
C741 H725 0.930 . S
C741 C740 1.377 . S
C741 C742 1.379 . S
C742 H726 0.931 . S
C742 C736 1.383 . S
C742 C741 1.379 . S
H743 C737 0.959 . S
H744 C737 0.961 . S
H745 C737 0.960 . S
H746 C738 0.930 . S
H747 C739 0.929 . S
H748 C756 0.929 . S
H749 C758 0.930 . S
H750 C760 0.930 . S
H751 C763 0.929 . S
H752 C766 0.930 . S
H753 C768 0.960 . S
H754 C768 0.960 . S
H755 C768 0.960 . S
C756 H748 0.929 . S
C756 C757 1.377 . S
C756 C758 1.384 . S
C757 C756 1.377 . S
C757 C763 1.390 . S
C758 H749 0.930 . S
C758 C756 1.384 . S
C758 C759 1.372 . S
C759 C758 1.372 . S
C759 C760 1.400 . S
C759 C764 1.490 . S
C760 H750 0.930 . S
C760 C759 1.400 . S
C760 C763 1.386 . S
H761 C777 0.930 . S
H762 C778 0.931 . S
C763 H751 0.929 . S
C763 C757 1.390 . S
C763 C760 1.386 . S
C764 C759 1.490 . S
C764 C766 1.395 . S
C764 C767 1.403 . S
H765 C771 0.930 . S
C766 H752 0.930 . S
C766 C764 1.395 . S
C766 C769 1.403 . S
C767 C764 1.403 . S
C767 C768 1.524 . S
C767 C771 1.400 . S
C768 H753 0.960 . S
C768 H754 0.960 . S
C768 H755 0.960 . S
C768 C767 1.524 . S
C769 C766 1.403 . S
C769 C770 1.392 . S
C769 C773 1.495 . S
C770 C769 1.392 . S
C770 C771 1.385 . S
C770 C772 1.478 . S
C771 H765 0.930 . S
C771 C767 1.400 . S
C771 C770 1.385 . S
C772 C770 1.478 . S
C772 C774 1.381 . S
C772 C778 1.383 . S
C773 C769 1.495 . S
C773 H779 0.959 . S
C773 H780 0.961 . S
C773 H781 0.960 . S
C774 C772 1.381 . S
C774 C775 1.394 . S
C774 H782 0.930 . S
C775 C774 1.394 . S
C775 C776 1.383 . S
C775 H783 0.929 . S
C776 C775 1.383 . S
C776 C777 1.377 . S
C777 H761 0.930 . S
C777 C776 1.377 . S
C777 C778 1.379 . S
C778 H762 0.931 . S
C778 C772 1.383 . S
C778 C777 1.379 . S
H779 C773 0.959 . S
H780 C773 0.961 . S
H781 C773 0.960 . S
H782 C774 0.930 . S
H783 C775 0.929 . S
H784 C792 0.929 . S
H785 C794 0.930 . S
H786 C796 0.930 . S
H787 C799 0.929 . S
H788 C802 0.930 . S
H789 C804 0.960 . S
H790 C804 0.960 . S
H791 C804 0.960 . S
C792 H784 0.929 . S
C792 C793 1.377 . S
C792 C794 1.384 . S
C793 C792 1.377 . S
C793 C799 1.390 . S
C794 H785 0.930 . S
C794 C792 1.384 . S
C794 C795 1.372 . S
C795 C794 1.372 . S
C795 C796 1.400 . S
C795 C800 1.490 . S
C796 H786 0.930 . S
C796 C795 1.400 . S
C796 C799 1.386 . S
H797 C813 0.930 . S
H798 C814 0.931 . S
C799 H787 0.929 . S
C799 C793 1.390 . S
C799 C796 1.386 . S
C800 C795 1.490 . S
C800 C802 1.395 . S
C800 C803 1.403 . S
H801 C807 0.930 . S
C802 H788 0.930 . S
C802 C800 1.395 . S
C802 C805 1.403 . S
C803 C800 1.403 . S
C803 C804 1.524 . S
C803 C807 1.400 . S
C804 H789 0.960 . S
C804 H790 0.960 . S
C804 H791 0.960 . S
C804 C803 1.524 . S
C805 C802 1.403 . S
C805 C806 1.392 . S
C805 C809 1.495 . S
C806 C805 1.392 . S
C806 C807 1.385 . S
C806 C808 1.478 . S
C807 H801 0.930 . S
C807 C803 1.400 . S
C807 C806 1.385 . S
C808 C806 1.478 . S
C808 C810 1.381 . S
C808 C814 1.383 . S
C809 C805 1.495 . S
C809 H815 0.959 . S
C809 H816 0.961 . S
C809 H817 0.960 . S
C810 C808 1.381 . S
C810 C811 1.394 . S
C810 H818 0.930 . S
C811 C810 1.394 . S
C811 C812 1.383 . S
C811 H819 0.929 . S
C812 C811 1.383 . S
C812 C813 1.377 . S
C813 H797 0.930 . S
C813 C812 1.377 . S
C813 C814 1.379 . S
C814 H798 0.931 . S
C814 C808 1.383 . S
C814 C813 1.379 . S
H815 C809 0.959 . S
H816 C809 0.961 . S
H817 C809 0.960 . S
H818 C810 0.930 . S
H819 C811 0.929 . S
H820 C828 0.929 . S
H821 C830 0.930 . S
H822 C832 0.930 . S
H823 C835 0.929 . S
H824 C838 0.930 . S
H825 C840 0.960 . S
H826 C840 0.960 . S
H827 C840 0.960 . S
C828 H820 0.929 . S
C828 C829 1.377 . S
C828 C830 1.384 . S
C829 C828 1.377 . S
C829 C835 1.390 . S
C830 H821 0.930 . S
C830 C828 1.384 . S
C830 C831 1.372 . S
C831 C830 1.372 . S
C831 C832 1.400 . S
C831 C836 1.490 . S
C832 H822 0.930 . S
C832 C831 1.400 . S
C832 C835 1.386 . S
H833 C849 0.930 . S
H834 C850 0.931 . S
C835 H823 0.929 . S
C835 C829 1.390 . S
C835 C832 1.386 . S
C836 C831 1.490 . S
C836 C838 1.395 . S
C836 C839 1.403 . S
H837 C843 0.930 . S
C838 H824 0.930 . S
C838 C836 1.395 . S
C838 C841 1.403 . S
C839 C836 1.403 . S
C839 C840 1.524 . S
C839 C843 1.400 . S
C840 H825 0.960 . S
C840 H826 0.960 . S
C840 H827 0.960 . S
C840 C839 1.524 . S
C841 C838 1.403 . S
C841 C842 1.392 . S
C841 C845 1.495 . S
C842 C841 1.392 . S
C842 C843 1.385 . S
C842 C844 1.478 . S
C843 H837 0.930 . S
C843 C839 1.400 . S
C843 C842 1.385 . S
C844 C842 1.478 . S
C844 C846 1.381 . S
C844 C850 1.383 . S
C845 C841 1.495 . S
C845 H851 0.959 . S
C845 H852 0.961 . S
C845 H853 0.960 . S
C846 C844 1.381 . S
C846 C847 1.394 . S
C846 H854 0.930 . S
C847 C846 1.394 . S
C847 C848 1.383 . S
C847 H855 0.929 . S
C848 C847 1.383 . S
C848 C849 1.377 . S
C849 H833 0.930 . S
C849 C848 1.377 . S
C849 C850 1.379 . S
C850 H834 0.931 . S
C850 C844 1.383 . S
C850 C849 1.379 . S
H851 C845 0.959 . S
H852 C845 0.961 . S
H853 C845 0.960 . S
H854 C846 0.930 . S
H855 C847 0.929 . S
H856 C864 0.929 . S
H857 C866 0.930 . S
H858 C868 0.930 . S
H859 C871 0.929 . S
H860 C874 0.930 . S
H861 C876 0.960 . S
H862 C876 0.960 . S
H863 C876 0.960 . S
C864 H856 0.929 . S
C864 C865 1.377 . S
C864 C866 1.384 . S
C865 C864 1.377 . S
C865 C871 1.390 . S
C866 H857 0.930 . S
C866 C864 1.384 . S
C866 C867 1.372 . S
C867 C866 1.372 . S
C867 C868 1.400 . S
C867 C872 1.490 . S
C868 H858 0.930 . S
C868 C867 1.400 . S
C868 C871 1.386 . S
H869 C885 0.930 . S
H870 C886 0.931 . S
C871 H859 0.929 . S
C871 C865 1.390 . S
C871 C868 1.386 . S
C872 C867 1.490 . S
C872 C874 1.395 . S
C872 C875 1.403 . S
H873 C879 0.930 . S
C874 H860 0.930 . S
C874 C872 1.395 . S
C874 C877 1.403 . S
C875 C872 1.403 . S
C875 C876 1.524 . S
C875 C879 1.400 . S
C876 H861 0.960 . S
C876 H862 0.960 . S
C876 H863 0.960 . S
C876 C875 1.524 . S
C877 C874 1.403 . S
C877 C878 1.392 . S
C877 C881 1.495 . S
C878 C877 1.392 . S
C878 C879 1.385 . S
C878 C880 1.478 . S
C879 H873 0.930 . S
C879 C875 1.400 . S
C879 C878 1.385 . S
C880 C878 1.478 . S
C880 C882 1.381 . S
C880 C886 1.383 . S
C881 C877 1.495 . S
C881 H887 0.959 . S
C881 H888 0.961 . S
C881 H889 0.960 . S
C882 C880 1.381 . S
C882 C883 1.394 . S
C882 H890 0.930 . S
C883 C882 1.394 . S
C883 C884 1.383 . S
C883 H891 0.929 . S
C884 C883 1.383 . S
C884 C885 1.377 . S
C885 H869 0.930 . S
C885 C884 1.377 . S
C885 C886 1.379 . S
C886 H870 0.931 . S
C886 C880 1.383 . S
C886 C885 1.379 . S
H887 C881 0.959 . S
H888 C881 0.961 . S
H889 C881 0.960 . S
H890 C882 0.930 . S
H891 C883 0.929 . S
H892 C900 0.929 . S
H893 C902 0.930 . S
H894 C904 0.930 . S
H895 C907 0.929 . S
H896 C910 0.930 . S
H897 C912 0.960 . S
H898 C912 0.960 . S
H899 C912 0.960 . S
C900 H892 0.929 . S
C900 C901 1.377 . S
C900 C902 1.384 . S
C901 C900 1.377 . S
C901 C907 1.390 . S
C902 H893 0.930 . S
C902 C900 1.384 . S
C902 C903 1.372 . S
C903 C902 1.372 . S
C903 C904 1.400 . S
C903 C908 1.490 . S
C904 H894 0.930 . S
C904 C903 1.400 . S
C904 C907 1.386 . S
H905 C921 0.930 . S
H906 C922 0.931 . S
C907 H895 0.929 . S
C907 C901 1.390 . S
C907 C904 1.386 . S
C908 C903 1.490 . S
C908 C910 1.395 . S
C908 C911 1.403 . S
H909 C915 0.930 . S
C910 H896 0.930 . S
C910 C908 1.395 . S
C910 C913 1.403 . S
C911 C908 1.403 . S
C911 C912 1.524 . S
C911 C915 1.400 . S
C912 H897 0.960 . S
C912 H898 0.960 . S
C912 H899 0.960 . S
C912 C911 1.524 . S
C913 C910 1.403 . S
C913 C914 1.392 . S
C913 C917 1.495 . S
C914 C913 1.392 . S
C914 C915 1.385 . S
C914 C916 1.478 . S
C915 H909 0.930 . S
C915 C911 1.400 . S
C915 C914 1.385 . S
C916 C914 1.478 . S
C916 C918 1.381 . S
C916 C922 1.383 . S
C917 C913 1.495 . S
C917 H923 0.959 . S
C917 H924 0.961 . S
C917 H925 0.960 . S
C918 C916 1.381 . S
C918 C919 1.394 . S
C918 H926 0.930 . S
C919 C918 1.394 . S
C919 C920 1.383 . S
C919 H927 0.929 . S
C920 C919 1.383 . S
C920 C921 1.377 . S
C921 H905 0.930 . S
C921 C920 1.377 . S
C921 C922 1.379 . S
C922 H906 0.931 . S
C922 C916 1.383 . S
C922 C921 1.379 . S
H923 C917 0.959 . S
H924 C917 0.961 . S
H925 C917 0.960 . S
H926 C918 0.930 . S
H927 C919 0.929 . S
H928 C936 0.929 . S
H929 C938 0.930 . S
H930 C940 0.930 . S
H931 C943 0.929 . S
H932 C946 0.930 . S
H933 C948 0.960 . S
H934 C948 0.960 . S
H935 C948 0.960 . S
C936 H928 0.929 . S
C936 C937 1.377 . S
C936 C938 1.384 . S
C937 C936 1.377 . S
C937 C943 1.390 . S
C938 H929 0.930 . S
C938 C936 1.384 . S
C938 C939 1.372 . S
C939 C938 1.372 . S
C939 C940 1.400 . S
C939 C944 1.490 . S
C940 H930 0.930 . S
C940 C939 1.400 . S
C940 C943 1.386 . S
H941 C957 0.930 . S
H942 C958 0.931 . S
C943 H931 0.929 . S
C943 C937 1.390 . S
C943 C940 1.386 . S
C944 C939 1.490 . S
C944 C946 1.395 . S
C944 C947 1.403 . S
H945 C951 0.930 . S
C946 H932 0.930 . S
C946 C944 1.395 . S
C946 C949 1.403 . S
C947 C944 1.403 . S
C947 C948 1.524 . S
C947 C951 1.400 . S
C948 H933 0.960 . S
C948 H934 0.960 . S
C948 H935 0.960 . S
C948 C947 1.524 . S
C949 C946 1.403 . S
C949 C950 1.392 . S
C949 C953 1.495 . S
C950 C949 1.392 . S
C950 C951 1.385 . S
C950 C952 1.478 . S
C951 H945 0.930 . S
C951 C947 1.400 . S
C951 C950 1.385 . S
C952 C950 1.478 . S
C952 C954 1.381 . S
C952 C958 1.383 . S
C953 C949 1.495 . S
C953 H959 0.959 . S
C953 H960 0.961 . S
C953 H961 0.960 . S
C954 C952 1.381 . S
C954 C955 1.394 . S
C954 H962 0.930 . S
C955 C954 1.394 . S
C955 C956 1.383 . S
C955 H963 0.929 . S
C956 C955 1.383 . S
C956 C957 1.377 . S
C957 H941 0.930 . S
C957 C956 1.377 . S
C957 C958 1.379 . S
C958 H942 0.931 . S
C958 C952 1.383 . S
C958 C957 1.379 . S
H959 C953 0.959 . S
H960 C953 0.961 . S
H961 C953 0.960 . S
H962 C954 0.930 . S
H963 C955 0.929 . S
H964 C972 0.929 . S
H965 C974 0.930 . S
H966 C976 0.930 . S
H967 C979 0.929 . S
H968 C982 0.930 . S
H969 C984 0.960 . S
H970 C984 0.960 . S
H971 C984 0.960 . S
C972 H964 0.929 . S
C972 C973 1.377 . S
C972 C974 1.384 . S
C973 C972 1.377 . S
C973 C979 1.390 . S
C974 H965 0.930 . S
C974 C972 1.384 . S
C974 C975 1.372 . S
C975 C974 1.372 . S
C975 C976 1.400 . S
C975 C980 1.490 . S
C976 H966 0.930 . S
C976 C975 1.400 . S
C976 C979 1.386 . S
H977 C993 0.930 . S
H978 C994 0.931 . S
C979 H967 0.929 . S
C979 C973 1.390 . S
C979 C976 1.386 . S
C980 C975 1.490 . S
C980 C982 1.395 . S
C980 C983 1.403 . S
H981 C987 0.930 . S
C982 H968 0.930 . S
C982 C980 1.395 . S
C982 C985 1.403 . S
C983 C980 1.403 . S
C983 C984 1.524 . S
C983 C987 1.400 . S
C984 H969 0.960 . S
C984 H970 0.960 . S
C984 H971 0.960 . S
C984 C983 1.524 . S
C985 C982 1.403 . S
C985 C986 1.392 . S
C985 C989 1.495 . S
C986 C985 1.392 . S
C986 C987 1.385 . S
C986 C988 1.478 . S
C987 H981 0.930 . S
C987 C983 1.400 . S
C987 C986 1.385 . S
C988 C986 1.478 . S
C988 C990 1.381 . S
C988 C994 1.383 . S
C989 C985 1.495 . S
C989 H995 0.959 . S
C989 H996 0.961 . S
C989 H997 0.960 . S
C990 C988 1.381 . S
C990 C991 1.394 . S
C990 H998 0.930 . S
C991 C990 1.394 . S
C991 C992 1.383 . S
C991 H999 0.929 . S
C992 C991 1.383 . S
C992 C993 1.377 . S
C993 H977 0.930 . S
C993 C992 1.377 . S
C993 C994 1.379 . S
C994 H978 0.931 . S
C994 C988 1.383 . S
C994 C993 1.379 . S
H995 C989 0.959 . S
H996 C989 0.961 . S
H997 C989 0.960 . S
H998 C990 0.930 . S
H999 C991 0.929 . S
H1000 C1008 0.929 . S
H1001 C1010 0.930 . S
H1002 C1012 0.930 . S
H1003 C1015 0.929 . S
H1004 C1018 0.930 . S
H1005 C1020 0.960 . S
H1006 C1020 0.960 . S
H1007 C1020 0.960 . S
C1008 H1000 0.929 . S
C1008 C1009 1.377 . S
C1008 C1010 1.384 . S
C1009 C1008 1.377 . S
C1009 C1015 1.390 . S
C1010 H1001 0.930 . S
C1010 C1008 1.384 . S
C1010 C1011 1.372 . S
C1011 C1010 1.372 . S
C1011 C1012 1.400 . S
C1011 C1016 1.490 . S
C1012 H1002 0.930 . S
C1012 C1011 1.400 . S
C1012 C1015 1.386 . S
H1013 C1029 0.930 . S
H1014 C1030 0.931 . S
C1015 H1003 0.929 . S
C1015 C1009 1.390 . S
C1015 C1012 1.386 . S
C1016 C1011 1.490 . S
C1016 C1018 1.395 . S
C1016 C1019 1.403 . S
H1017 C1023 0.930 . S
C1018 H1004 0.930 . S
C1018 C1016 1.395 . S
C1018 C1021 1.403 . S
C1019 C1016 1.403 . S
C1019 C1020 1.524 . S
C1019 C1023 1.400 . S
C1020 H1005 0.960 . S
C1020 H1006 0.960 . S
C1020 H1007 0.960 . S
C1020 C1019 1.524 . S
C1021 C1018 1.403 . S
C1021 C1022 1.392 . S
C1021 C1025 1.495 . S
C1022 C1021 1.392 . S
C1022 C1023 1.385 . S
C1022 C1024 1.478 . S
C1023 H1017 0.930 . S
C1023 C1019 1.400 . S
C1023 C1022 1.385 . S
C1024 C1022 1.478 . S
C1024 C1026 1.381 . S
C1024 C1030 1.383 . S
C1025 C1021 1.495 . S
C1025 H1031 0.959 . S
C1025 H1032 0.961 . S
C1025 H1033 0.960 . S
C1026 C1024 1.381 . S
C1026 C1027 1.394 . S
C1026 H1034 0.930 . S
C1027 C1026 1.394 . S
C1027 C1028 1.383 . S
C1027 H1035 0.929 . S
C1028 C1027 1.383 . S
C1028 C1029 1.377 . S
C1029 H1013 0.930 . S
C1029 C1028 1.377 . S
C1029 C1030 1.379 . S
C1030 H1014 0.931 . S
C1030 C1024 1.383 . S
C1030 C1029 1.379 . S
H1031 C1025 0.959 . S
H1032 C1025 0.961 . S
H1033 C1025 0.960 . S
H1034 C1026 0.930 . S
H1035 C1027 0.929 . S
H1036 C1044 0.929 . S
H1037 C1046 0.930 . S
H1038 C1048 0.930 . S
H1039 C1051 0.929 . S
H1040 C1054 0.930 . S
H1041 C1056 0.960 . S
H1042 C1056 0.960 . S
H1043 C1056 0.960 . S
C1044 H1036 0.929 . S
C1044 C1045 1.377 . S
C1044 C1046 1.384 . S
C1045 C1044 1.377 . S
C1045 C1051 1.390 . S
C1046 H1037 0.930 . S
C1046 C1044 1.384 . S
C1046 C1047 1.372 . S
C1047 C1046 1.372 . S
C1047 C1048 1.400 . S
C1047 C1052 1.490 . S
C1048 H1038 0.930 . S
C1048 C1047 1.400 . S
C1048 C1051 1.386 . S
H1049 C1065 0.930 . S
H1050 C1066 0.931 . S
C1051 H1039 0.929 . S
C1051 C1045 1.390 . S
C1051 C1048 1.386 . S
C1052 C1047 1.490 . S
C1052 C1054 1.395 . S
C1052 C1055 1.403 . S
H1053 C1059 0.930 . S
C1054 H1040 0.930 . S
C1054 C1052 1.395 . S
C1054 C1057 1.403 . S
C1055 C1052 1.403 . S
C1055 C1056 1.524 . S
C1055 C1059 1.400 . S
C1056 H1041 0.960 . S
C1056 H1042 0.960 . S
C1056 H1043 0.960 . S
C1056 C1055 1.524 . S
C1057 C1054 1.403 . S
C1057 C1058 1.392 . S
C1057 C1061 1.495 . S
C1058 C1057 1.392 . S
C1058 C1059 1.385 . S
C1058 C1060 1.478 . S
C1059 H1053 0.930 . S
C1059 C1055 1.400 . S
C1059 C1058 1.385 . S
C1060 C1058 1.478 . S
C1060 C1062 1.381 . S
C1060 C1066 1.383 . S
C1061 C1057 1.495 . S
C1061 H1067 0.959 . S
C1061 H1068 0.961 . S
C1061 H1069 0.960 . S
C1062 C1060 1.381 . S
C1062 C1063 1.394 . S
C1062 H1070 0.930 . S
C1063 C1062 1.394 . S
C1063 C1064 1.383 . S
C1063 H1071 0.929 . S
C1064 C1063 1.383 . S
C1064 C1065 1.377 . S
C1065 H1049 0.930 . S
C1065 C1064 1.377 . S
C1065 C1066 1.379 . S
C1066 H1050 0.931 . S
C1066 C1060 1.383 . S
C1066 C1065 1.379 . S
H1067 C1061 0.959 . S
H1068 C1061 0.961 . S
H1069 C1061 0.960 . S
H1070 C1062 0.930 . S
H1071 C1063 0.929 . S
H1072 C1080 0.929 . S
H1073 C1082 0.930 . S
H1074 C1084 0.930 . S
H1075 C1087 0.929 . S
H1076 C1090 0.930 . S
H1077 C1092 0.960 . S
H1078 C1092 0.960 . S
H1079 C1092 0.960 . S
C1080 H1072 0.929 . S
C1080 C1081 1.377 . S
C1080 C1082 1.384 . S
C1081 C1080 1.377 . S
C1081 C1087 1.390 . S
C1082 H1073 0.930 . S
C1082 C1080 1.384 . S
C1082 C1083 1.372 . S
C1083 C1082 1.372 . S
C1083 C1084 1.400 . S
C1083 C1088 1.490 . S
C1084 H1074 0.930 . S
C1084 C1083 1.400 . S
C1084 C1087 1.386 . S
H1085 C1101 0.930 . S
H1086 C1102 0.931 . S
C1087 H1075 0.929 . S
C1087 C1081 1.390 . S
C1087 C1084 1.386 . S
C1088 C1083 1.490 . S
C1088 C1090 1.395 . S
C1088 C1091 1.403 . S
H1089 C1095 0.930 . S
C1090 H1076 0.930 . S
C1090 C1088 1.395 . S
C1090 C1093 1.403 . S
C1091 C1088 1.403 . S
C1091 C1092 1.524 . S
C1091 C1095 1.400 . S
C1092 H1077 0.960 . S
C1092 H1078 0.960 . S
C1092 H1079 0.960 . S
C1092 C1091 1.524 . S
C1093 C1090 1.403 . S
C1093 C1094 1.392 . S
C1093 C1097 1.495 . S
C1094 C1093 1.392 . S
C1094 C1095 1.385 . S
C1094 C1096 1.478 . S
C1095 H1089 0.930 . S
C1095 C1091 1.400 . S
C1095 C1094 1.385 . S
C1096 C1094 1.478 . S
C1096 C1098 1.381 . S
C1096 C1102 1.383 . S
C1097 C1093 1.495 . S
C1097 H1103 0.959 . S
C1097 H1104 0.961 . S
C1097 H1105 0.960 . S
C1098 C1096 1.381 . S
C1098 C1099 1.394 . S
C1098 H1106 0.930 . S
C1099 C1098 1.394 . S
C1099 C1100 1.383 . S
C1099 H1107 0.929 . S
C1100 C1099 1.383 . S
C1100 C1101 1.377 . S
C1101 H1085 0.930 . S
C1101 C1100 1.377 . S
C1101 C1102 1.379 . S
C1102 H1086 0.931 . S
C1102 C1096 1.383 . S
C1102 C1101 1.379 . S
H1103 C1097 0.959 . S
H1104 C1097 0.961 . S
H1105 C1097 0.960 . S
H1106 C1098 0.930 . S
H1107 C1099 0.929 . S
H1108 C1116 0.929 . S
H1109 C1118 0.930 . S
H1110 C1120 0.930 . S
H1111 C1123 0.929 . S
H1112 C1126 0.930 . S
H1113 C1128 0.960 . S
H1114 C1128 0.960 . S
H1115 C1128 0.960 . S
C1116 H1108 0.929 . S
C1116 C1117 1.377 . S
C1116 C1118 1.384 . S
C1117 C1116 1.377 . S
C1117 C1123 1.390 . S
C1118 H1109 0.930 . S
C1118 C1116 1.384 . S
C1118 C1119 1.372 . S
C1119 C1118 1.372 . S
C1119 C1120 1.400 . S
C1119 C1124 1.490 . S
C1120 H1110 0.930 . S
C1120 C1119 1.400 . S
C1120 C1123 1.386 . S
H1121 C1137 0.930 . S
H1122 C1138 0.931 . S
C1123 H1111 0.929 . S
C1123 C1117 1.390 . S
C1123 C1120 1.386 . S
C1124 C1119 1.490 . S
C1124 C1126 1.395 . S
C1124 C1127 1.403 . S
H1125 C1131 0.930 . S
C1126 H1112 0.930 . S
C1126 C1124 1.395 . S
C1126 C1129 1.403 . S
C1127 C1124 1.403 . S
C1127 C1128 1.524 . S
C1127 C1131 1.400 . S
C1128 H1113 0.960 . S
C1128 H1114 0.960 . S
C1128 H1115 0.960 . S
C1128 C1127 1.524 . S
C1129 C1126 1.403 . S
C1129 C1130 1.392 . S
C1129 C1133 1.495 . S
C1130 C1129 1.392 . S
C1130 C1131 1.385 . S
C1130 C1132 1.478 . S
C1131 H1125 0.930 . S
C1131 C1127 1.400 . S
C1131 C1130 1.385 . S
C1132 C1130 1.478 . S
C1132 C1134 1.381 . S
C1132 C1138 1.383 . S
C1133 C1129 1.495 . S
C1133 H1139 0.959 . S
C1133 H1140 0.961 . S
C1133 H1141 0.960 . S
C1134 C1132 1.381 . S
C1134 C1135 1.394 . S
C1134 H1142 0.930 . S
C1135 C1134 1.394 . S
C1135 C1136 1.383 . S
C1135 H1143 0.929 . S
C1136 C1135 1.383 . S
C1136 C1137 1.377 . S
C1137 H1121 0.930 . S
C1137 C1136 1.377 . S
C1137 C1138 1.379 . S
C1138 H1122 0.931 . S
C1138 C1132 1.383 . S
C1138 C1137 1.379 . S
H1139 C1133 0.959 . S
H1140 C1133 0.961 . S
H1141 C1133 0.960 . S
H1142 C1134 0.930 . S
H1143 C1135 0.929 . S
H1144 C1152 0.929 . S
H1145 C1154 0.930 . S
H1146 C1156 0.930 . S
H1147 C1159 0.929 . S
H1148 C1162 0.930 . S
H1149 C1164 0.960 . S
H1150 C1164 0.960 . S
H1151 C1164 0.960 . S
C1152 H1144 0.929 . S
C1152 C1153 1.377 . S
C1152 C1154 1.384 . S
C1153 C1152 1.377 . S
C1153 C1159 1.390 . S
C1154 H1145 0.930 . S
C1154 C1152 1.384 . S
C1154 C1155 1.372 . S
C1155 C1154 1.372 . S
C1155 C1156 1.400 . S
C1155 C1160 1.490 . S
C1156 H1146 0.930 . S
C1156 C1155 1.400 . S
C1156 C1159 1.386 . S
H1157 C1173 0.930 . S
H1158 C1174 0.931 . S
C1159 H1147 0.929 . S
C1159 C1153 1.390 . S
C1159 C1156 1.386 . S
C1160 C1155 1.490 . S
C1160 C1162 1.395 . S
C1160 C1163 1.403 . S
H1161 C1167 0.930 . S
C1162 H1148 0.930 . S
C1162 C1160 1.395 . S
C1162 C1165 1.403 . S
C1163 C1160 1.403 . S
C1163 C1164 1.524 . S
C1163 C1167 1.400 . S
C1164 H1149 0.960 . S
C1164 H1150 0.960 . S
C1164 H1151 0.960 . S
C1164 C1163 1.524 . S
C1165 C1162 1.403 . S
C1165 C1166 1.392 . S
C1165 C1169 1.495 . S
C1166 C1165 1.392 . S
C1166 C1167 1.385 . S
C1166 C1168 1.478 . S
C1167 H1161 0.930 . S
C1167 C1163 1.400 . S
C1167 C1166 1.385 . S
C1168 C1166 1.478 . S
C1168 C1170 1.381 . S
C1168 C1174 1.383 . S
C1169 C1165 1.495 . S
C1169 H1175 0.959 . S
C1169 H1176 0.961 . S
C1169 H1177 0.960 . S
C1170 C1168 1.381 . S
C1170 C1171 1.394 . S
C1170 H1178 0.930 . S
C1171 C1170 1.394 . S
C1171 C1172 1.383 . S
C1171 H1179 0.929 . S
C1172 C1171 1.383 . S
C1172 C1173 1.377 . S
C1173 H1157 0.930 . S
C1173 C1172 1.377 . S
C1173 C1174 1.379 . S
C1174 H1158 0.931 . S
C1174 C1168 1.383 . S
C1174 C1173 1.379 . S
H1175 C1169 0.959 . S
H1176 C1169 0.961 . S
H1177 C1169 0.960 . S
H1178 C1170 0.930 . S
H1179 C1171 0.929 . S
H1180 C1188 0.929 . S
H1181 C1190 0.930 . S
H1182 C1192 0.930 . S
H1183 C1195 0.929 . S
H1184 C1198 0.930 . S
H1185 C1200 0.960 . S
H1186 C1200 0.960 . S
H1187 C1200 0.960 . S
C1188 H1180 0.929 . S
C1188 C1189 1.377 . S
C1188 C1190 1.384 . S
C1189 C1188 1.377 . S
C1189 C1195 1.390 . S
C1190 H1181 0.930 . S
C1190 C1188 1.384 . S
C1190 C1191 1.372 . S
C1191 C1190 1.372 . S
C1191 C1192 1.400 . S
C1191 C1196 1.490 . S
C1192 H1182 0.930 . S
C1192 C1191 1.400 . S
C1192 C1195 1.386 . S
H1193 C1209 0.930 . S
H1194 C1210 0.931 . S
C1195 H1183 0.929 . S
C1195 C1189 1.390 . S
C1195 C1192 1.386 . S
C1196 C1191 1.490 . S
C1196 C1198 1.395 . S
C1196 C1199 1.403 . S
H1197 C1203 0.930 . S
C1198 H1184 0.930 . S
C1198 C1196 1.395 . S
C1198 C1201 1.403 . S
C1199 C1196 1.403 . S
C1199 C1200 1.524 . S
C1199 C1203 1.400 . S
C1200 H1185 0.960 . S
C1200 H1186 0.960 . S
C1200 H1187 0.960 . S
C1200 C1199 1.524 . S
C1201 C1198 1.403 . S
C1201 C1202 1.392 . S
C1201 C1205 1.495 . S
C1202 C1201 1.392 . S
C1202 C1203 1.385 . S
C1202 C1204 1.478 . S
C1203 H1197 0.930 . S
C1203 C1199 1.400 . S
C1203 C1202 1.385 . S
C1204 C1202 1.478 . S
C1204 C1206 1.381 . S
C1204 C1210 1.383 . S
C1205 C1201 1.495 . S
C1205 H1211 0.959 . S
C1205 H1212 0.961 . S
C1205 H1213 0.960 . S
C1206 C1204 1.381 . S
C1206 C1207 1.394 . S
C1206 H1214 0.930 . S
C1207 C1206 1.394 . S
C1207 C1208 1.383 . S
C1207 H1215 0.929 . S
C1208 C1207 1.383 . S
C1208 C1209 1.377 . S
C1209 H1193 0.930 . S
C1209 C1208 1.377 . S
C1209 C1210 1.379 . S
C1210 H1194 0.931 . S
C1210 C1204 1.383 . S
C1210 C1209 1.379 . S
H1211 C1205 0.959 . S
H1212 C1205 0.961 . S
H1213 C1205 0.960 . S
H1214 C1206 0.930 . S
H1215 C1207 0.929 . S
H1216 C1224 0.929 . S
H1217 C1226 0.930 . S
H1218 C1228 0.930 . S
H1219 C1231 0.929 . S
H1220 C1234 0.930 . S
H1221 C1236 0.960 . S
H1222 C1236 0.960 . S
H1223 C1236 0.960 . S
C1224 H1216 0.929 . S
C1224 C1225 1.377 . S
C1224 C1226 1.384 . S
C1225 C1224 1.377 . S
C1225 C1231 1.390 . S
C1226 H1217 0.930 . S
C1226 C1224 1.384 . S
C1226 C1227 1.372 . S
C1227 C1226 1.372 . S
C1227 C1228 1.400 . S
C1227 C1232 1.490 . S
C1228 H1218 0.930 . S
C1228 C1227 1.400 . S
C1228 C1231 1.386 . S
H1229 C1245 0.930 . S
H1230 C1246 0.931 . S
C1231 H1219 0.929 . S
C1231 C1225 1.390 . S
C1231 C1228 1.386 . S
C1232 C1227 1.490 . S
C1232 C1234 1.395 . S
C1232 C1235 1.403 . S
H1233 C1239 0.930 . S
C1234 H1220 0.930 . S
C1234 C1232 1.395 . S
C1234 C1237 1.403 . S
C1235 C1232 1.403 . S
C1235 C1236 1.524 . S
C1235 C1239 1.400 . S
C1236 H1221 0.960 . S
C1236 H1222 0.960 . S
C1236 H1223 0.960 . S
C1236 C1235 1.524 . S
C1237 C1234 1.403 . S
C1237 C1238 1.392 . S
C1237 C1241 1.495 . S
C1238 C1237 1.392 . S
C1238 C1239 1.385 . S
C1238 C1240 1.478 . S
C1239 H1233 0.930 . S
C1239 C1235 1.400 . S
C1239 C1238 1.385 . S
C1240 C1238 1.478 . S
C1240 C1242 1.381 . S
C1240 C1246 1.383 . S
C1241 C1237 1.495 . S
C1241 H1247 0.959 . S
C1241 H1248 0.961 . S
C1241 H1249 0.960 . S
C1242 C1240 1.381 . S
C1242 C1243 1.394 . S
C1242 H1250 0.930 . S
C1243 C1242 1.394 . S
C1243 C1244 1.383 . S
C1243 H1251 0.929 . S
C1244 C1243 1.383 . S
C1244 C1245 1.377 . S
C1245 H1229 0.930 . S
C1245 C1244 1.377 . S
C1245 C1246 1.379 . S
C1246 H1230 0.931 . S
C1246 C1240 1.383 . S
C1246 C1245 1.379 . S
H1247 C1241 0.959 . S
H1248 C1241 0.961 . S
H1249 C1241 0.960 . S
H1250 C1242 0.930 . S
H1251 C1243 0.929 . S
H1252 C1260 0.929 . S
H1253 C1262 0.930 . S
H1254 C1264 0.930 . S
H1255 C1267 0.929 . S
H1256 C1270 0.930 . S
H1257 C1272 0.960 . S
H1258 C1272 0.960 . S
H1259 C1272 0.960 . S
C1260 H1252 0.929 . S
C1260 C1261 1.377 . S
C1260 C1262 1.384 . S
C1261 C1260 1.377 . S
C1261 C1267 1.390 . S
C1262 H1253 0.930 . S
C1262 C1260 1.384 . S
C1262 C1263 1.372 . S
C1263 C1262 1.372 . S
C1263 C1264 1.400 . S
C1263 C1268 1.490 . S
C1264 H1254 0.930 . S
C1264 C1263 1.400 . S
C1264 C1267 1.386 . S
H1265 C1281 0.930 . S
H1266 C1282 0.931 . S
C1267 H1255 0.929 . S
C1267 C1261 1.390 . S
C1267 C1264 1.386 . S
C1268 C1263 1.490 . S
C1268 C1270 1.395 . S
C1268 C1271 1.403 . S
H1269 C1275 0.930 . S
C1270 H1256 0.930 . S
C1270 C1268 1.395 . S
C1270 C1273 1.403 . S
C1271 C1268 1.403 . S
C1271 C1272 1.524 . S
C1271 C1275 1.400 . S
C1272 H1257 0.960 . S
C1272 H1258 0.960 . S
C1272 H1259 0.960 . S
C1272 C1271 1.524 . S
C1273 C1270 1.403 . S
C1273 C1274 1.392 . S
C1273 C1277 1.495 . S
C1274 C1273 1.392 . S
C1274 C1275 1.385 . S
C1274 C1276 1.478 . S
C1275 H1269 0.930 . S
C1275 C1271 1.400 . S
C1275 C1274 1.385 . S
C1276 C1274 1.478 . S
C1276 C1278 1.381 . S
C1276 C1282 1.383 . S
C1277 C1273 1.495 . S
C1277 H1283 0.959 . S
C1277 H1284 0.961 . S
C1277 H1285 0.960 . S
C1278 C1276 1.381 . S
C1278 C1279 1.394 . S
C1278 H1286 0.930 . S
C1279 C1278 1.394 . S
C1279 C1280 1.383 . S
C1279 H1287 0.929 . S
C1280 C1279 1.383 . S
C1280 C1281 1.377 . S
C1281 H1265 0.930 . S
C1281 C1280 1.377 . S
C1281 C1282 1.379 . S
C1282 H1266 0.931 . S
C1282 C1276 1.383 . S
C1282 C1281 1.379 . S
H1283 C1277 0.959 . S
H1284 C1277 0.961 . S
H1285 C1277 0.960 . S
H1286 C1278 0.930 . S
H1287 C1279 0.929 . S
H1288 C1296 0.929 . S
H1289 C1298 0.930 . S
H1290 C1300 0.930 . S
H1291 C1303 0.929 . S
H1292 C1306 0.930 . S
H1293 C1308 0.960 . S
H1294 C1308 0.960 . S
H1295 C1308 0.960 . S
C1296 H1288 0.929 . S
C1296 C1297 1.377 . S
C1296 C1298 1.384 . S
C1297 C1296 1.377 . S
C1297 C1303 1.390 . S
C1298 H1289 0.930 . S
C1298 C1296 1.384 . S
C1298 C1299 1.372 . S
C1299 C1298 1.372 . S
C1299 C1300 1.400 . S
C1299 C1304 1.490 . S
C1300 H1290 0.930 . S
C1300 C1299 1.400 . S
C1300 C1303 1.386 . S
H1301 C1317 0.930 . S
H1302 C1318 0.931 . S
C1303 H1291 0.929 . S
C1303 C1297 1.390 . S
C1303 C1300 1.386 . S
C1304 C1299 1.490 . S
C1304 C1306 1.395 . S
C1304 C1307 1.403 . S
H1305 C1311 0.930 . S
C1306 H1292 0.930 . S
C1306 C1304 1.395 . S
C1306 C1309 1.403 . S
C1307 C1304 1.403 . S
C1307 C1308 1.524 . S
C1307 C1311 1.400 . S
C1308 H1293 0.960 . S
C1308 H1294 0.960 . S
C1308 H1295 0.960 . S
C1308 C1307 1.524 . S
C1309 C1306 1.403 . S
C1309 C1310 1.392 . S
C1309 C1313 1.495 . S
C1310 C1309 1.392 . S
C1310 C1311 1.385 . S
C1310 C1312 1.478 . S
C1311 H1305 0.930 . S
C1311 C1307 1.400 . S
C1311 C1310 1.385 . S
C1312 C1310 1.478 . S
C1312 C1314 1.381 . S
C1312 C1318 1.383 . S
C1313 C1309 1.495 . S
C1313 H1319 0.959 . S
C1313 H1320 0.961 . S
C1313 H1321 0.960 . S
C1314 C1312 1.381 . S
C1314 C1315 1.394 . S
C1314 H1322 0.930 . S
C1315 C1314 1.394 . S
C1315 C1316 1.383 . S
C1315 H1323 0.929 . S
C1316 C1315 1.383 . S
C1316 C1317 1.377 . S
C1317 H1301 0.930 . S
C1317 C1316 1.377 . S
C1317 C1318 1.379 . S
C1318 H1302 0.931 . S
C1318 C1312 1.383 . S
C1318 C1317 1.379 . S
H1319 C1313 0.959 . S
H1320 C1313 0.961 . S
H1321 C1313 0.960 . S
H1322 C1314 0.930 . S
H1323 C1315 0.929 . S
H1324 C1332 0.929 . S
H1325 C1334 0.930 . S
H1326 C1336 0.930 . S
H1327 C1339 0.929 . S
H1328 C1342 0.930 . S
H1329 C1344 0.960 . S
H1330 C1344 0.960 . S
H1331 C1344 0.960 . S
C1332 H1324 0.929 . S
C1332 C1333 1.377 . S
C1332 C1334 1.384 . S
C1333 C1332 1.377 . S
C1333 C1339 1.390 . S
C1334 H1325 0.930 . S
C1334 C1332 1.384 . S
C1334 C1335 1.372 . S
C1335 C1334 1.372 . S
C1335 C1336 1.400 . S
C1335 C1340 1.490 . S
C1336 H1326 0.930 . S
C1336 C1335 1.400 . S
C1336 C1339 1.386 . S
H1337 C1353 0.930 . S
H1338 C1354 0.931 . S
C1339 H1327 0.929 . S
C1339 C1333 1.390 . S
C1339 C1336 1.386 . S
C1340 C1335 1.490 . S
C1340 C1342 1.395 . S
C1340 C1343 1.403 . S
H1341 C1347 0.930 . S
C1342 H1328 0.930 . S
C1342 C1340 1.395 . S
C1342 C1345 1.403 . S
C1343 C1340 1.403 . S
C1343 C1344 1.524 . S
C1343 C1347 1.400 . S
C1344 H1329 0.960 . S
C1344 H1330 0.960 . S
C1344 H1331 0.960 . S
C1344 C1343 1.524 . S
C1345 C1342 1.403 . S
C1345 C1346 1.392 . S
C1345 C1349 1.495 . S
C1346 C1345 1.392 . S
C1346 C1347 1.385 . S
C1346 C1348 1.478 . S
C1347 H1341 0.930 . S
C1347 C1343 1.400 . S
C1347 C1346 1.385 . S
C1348 C1346 1.478 . S
C1348 C1350 1.381 . S
C1348 C1354 1.383 . S
C1349 C1345 1.495 . S
C1349 H1355 0.959 . S
C1349 H1356 0.961 . S
C1349 H1357 0.960 . S
C1350 C1348 1.381 . S
C1350 C1351 1.394 . S
C1350 H1358 0.930 . S
C1351 C1350 1.394 . S
C1351 C1352 1.383 . S
C1351 H1359 0.929 . S
C1352 C1351 1.383 . S
C1352 C1353 1.377 . S
C1353 H1337 0.930 . S
C1353 C1352 1.377 . S
C1353 C1354 1.379 . S
C1354 H1338 0.931 . S
C1354 C1348 1.383 . S
C1354 C1353 1.379 . S
H1355 C1349 0.959 . S
H1356 C1349 0.961 . S
H1357 C1349 0.960 . S
H1358 C1350 0.930 . S
H1359 C1351 0.929 . S
H1360 C1368 0.929 . S
H1361 C1370 0.930 . S
H1362 C1372 0.930 . S
H1363 C1375 0.929 . S
H1364 C1378 0.930 . S
H1365 C1380 0.960 . S
H1366 C1380 0.960 . S
H1367 C1380 0.960 . S
C1368 H1360 0.929 . S
C1368 C1369 1.377 . S
C1368 C1370 1.384 . S
C1369 C1368 1.377 . S
C1369 C1375 1.390 . S
C1370 H1361 0.930 . S
C1370 C1368 1.384 . S
C1370 C1371 1.372 . S
C1371 C1370 1.372 . S
C1371 C1372 1.400 . S
C1371 C1376 1.490 . S
C1372 H1362 0.930 . S
C1372 C1371 1.400 . S
C1372 C1375 1.386 . S
H1373 C1389 0.930 . S
H1374 C1390 0.931 . S
C1375 H1363 0.929 . S
C1375 C1369 1.390 . S
C1375 C1372 1.386 . S
C1376 C1371 1.490 . S
C1376 C1378 1.395 . S
C1376 C1379 1.403 . S
H1377 C1383 0.930 . S
C1378 H1364 0.930 . S
C1378 C1376 1.395 . S
C1378 C1381 1.403 . S
C1379 C1376 1.403 . S
C1379 C1380 1.524 . S
C1379 C1383 1.400 . S
C1380 H1365 0.960 . S
C1380 H1366 0.960 . S
C1380 H1367 0.960 . S
C1380 C1379 1.524 . S
C1381 C1378 1.403 . S
C1381 C1382 1.392 . S
C1381 C1385 1.495 . S
C1382 C1381 1.392 . S
C1382 C1383 1.385 . S
C1382 C1384 1.478 . S
C1383 H1377 0.930 . S
C1383 C1379 1.400 . S
C1383 C1382 1.385 . S
C1384 C1382 1.478 . S
C1384 C1386 1.381 . S
C1384 C1390 1.383 . S
C1385 C1381 1.495 . S
C1385 H1391 0.959 . S
C1385 H1392 0.961 . S
C1385 H1393 0.960 . S
C1386 C1384 1.381 . S
C1386 C1387 1.394 . S
C1386 H1394 0.930 . S
C1387 C1386 1.394 . S
C1387 C1388 1.383 . S
C1387 H1395 0.929 . S
C1388 C1387 1.383 . S
C1388 C1389 1.377 . S
C1389 H1373 0.930 . S
C1389 C1388 1.377 . S
C1389 C1390 1.379 . S
C1390 H1374 0.931 . S
C1390 C1384 1.383 . S
C1390 C1389 1.379 . S
H1391 C1385 0.959 . S
H1392 C1385 0.961 . S
H1393 C1385 0.960 . S
H1394 C1386 0.930 . S
H1395 C1387 0.929 . S
H1396 C1404 0.929 . S
H1397 C1406 0.930 . S
H1398 C1408 0.930 . S
H1399 C1411 0.929 . S
H1400 C1414 0.930 . S
H1401 C1416 0.960 . S
H1402 C1416 0.960 . S
H1403 C1416 0.960 . S
C1404 H1396 0.929 . S
C1404 C1405 1.377 . S
C1404 C1406 1.384 . S
C1405 C1404 1.377 . S
C1405 C1411 1.390 . S
C1406 H1397 0.930 . S
C1406 C1404 1.384 . S
C1406 C1407 1.372 . S
C1407 C1406 1.372 . S
C1407 C1408 1.400 . S
C1407 C1412 1.490 . S
C1408 H1398 0.930 . S
C1408 C1407 1.400 . S
C1408 C1411 1.386 . S
H1409 C1425 0.930 . S
H1410 C1426 0.931 . S
C1411 H1399 0.929 . S
C1411 C1405 1.390 . S
C1411 C1408 1.386 . S
C1412 C1407 1.490 . S
C1412 C1414 1.395 . S
C1412 C1415 1.403 . S
H1413 C1419 0.930 . S
C1414 H1400 0.930 . S
C1414 C1412 1.395 . S
C1414 C1417 1.403 . S
C1415 C1412 1.403 . S
C1415 C1416 1.524 . S
C1415 C1419 1.400 . S
C1416 H1401 0.960 . S
C1416 H1402 0.960 . S
C1416 H1403 0.960 . S
C1416 C1415 1.524 . S
C1417 C1414 1.403 . S
C1417 C1418 1.392 . S
C1417 C1421 1.495 . S
C1418 C1417 1.392 . S
C1418 C1419 1.385 . S
C1418 C1420 1.478 . S
C1419 H1413 0.930 . S
C1419 C1415 1.400 . S
C1419 C1418 1.385 . S
C1420 C1418 1.478 . S
C1420 C1422 1.381 . S
C1420 C1426 1.383 . S
C1421 C1417 1.495 . S
C1421 H1427 0.959 . S
C1421 H1428 0.961 . S
C1421 H1429 0.960 . S
C1422 C1420 1.381 . S
C1422 C1423 1.394 . S
C1422 H1430 0.930 . S
C1423 C1422 1.394 . S
C1423 C1424 1.383 . S
C1423 H1431 0.929 . S
C1424 C1423 1.383 . S
C1424 C1425 1.377 . S
C1425 H1409 0.930 . S
C1425 C1424 1.377 . S
C1425 C1426 1.379 . S
C1426 H1410 0.931 . S
C1426 C1420 1.383 . S
C1426 C1425 1.379 . S
H1427 C1421 0.959 . S
H1428 C1421 0.961 . S
H1429 C1421 0.960 . S
H1430 C1422 0.930 . S
H1431 C1423 0.929 . S
H1432 C1440 0.929 . S
H1433 C1442 0.930 . S
H1434 C1444 0.930 . S
H1435 C1447 0.929 . S
H1436 C1450 0.930 . S
H1437 C1452 0.960 . S
H1438 C1452 0.960 . S
H1439 C1452 0.960 . S
C1440 H1432 0.929 . S
C1440 C1441 1.377 . S
C1440 C1442 1.384 . S
C1441 C1440 1.377 . S
C1441 C1447 1.390 . S
C1442 H1433 0.930 . S
C1442 C1440 1.384 . S
C1442 C1443 1.372 . S
C1443 C1442 1.372 . S
C1443 C1444 1.400 . S
C1443 C1448 1.490 . S
C1444 H1434 0.930 . S
C1444 C1443 1.400 . S
C1444 C1447 1.386 . S
H1445 C1461 0.930 . S
H1446 C1462 0.931 . S
C1447 H1435 0.929 . S
C1447 C1441 1.390 . S
C1447 C1444 1.386 . S
C1448 C1443 1.490 . S
C1448 C1450 1.395 . S
C1448 C1451 1.403 . S
H1449 C1455 0.930 . S
C1450 H1436 0.930 . S
C1450 C1448 1.395 . S
C1450 C1453 1.403 . S
C1451 C1448 1.403 . S
C1451 C1452 1.524 . S
C1451 C1455 1.400 . S
C1452 H1437 0.960 . S
C1452 H1438 0.960 . S
C1452 H1439 0.960 . S
C1452 C1451 1.524 . S
C1453 C1450 1.403 . S
C1453 C1454 1.392 . S
C1453 C1457 1.495 . S
C1454 C1453 1.392 . S
C1454 C1455 1.385 . S
C1454 C1456 1.478 . S
C1455 H1449 0.930 . S
C1455 C1451 1.400 . S
C1455 C1454 1.385 . S
C1456 C1454 1.478 . S
C1456 C1458 1.381 . S
C1456 C1462 1.383 . S
C1457 C1453 1.495 . S
C1457 H1463 0.959 . S
C1457 H1464 0.961 . S
C1457 H1465 0.960 . S
C1458 C1456 1.381 . S
C1458 C1459 1.394 . S
C1458 H1466 0.930 . S
C1459 C1458 1.394 . S
C1459 C1460 1.383 . S
C1459 H1467 0.929 . S
C1460 C1459 1.383 . S
C1460 C1461 1.377 . S
C1461 H1445 0.930 . S
C1461 C1460 1.377 . S
C1461 C1462 1.379 . S
C1462 H1446 0.931 . S
C1462 C1456 1.383 . S
C1462 C1461 1.379 . S
H1463 C1457 0.959 . S
H1464 C1457 0.961 . S
H1465 C1457 0.960 . S
H1466 C1458 0.930 . S
H1467 C1459 0.929 . S
H1468 C1476 0.929 . S
H1469 C1478 0.930 . S
H1470 C1480 0.930 . S
H1471 C1483 0.929 . S
H1472 C1486 0.930 . S
H1473 C1488 0.960 . S
H1474 C1488 0.960 . S
H1475 C1488 0.960 . S
C1476 H1468 0.929 . S
C1476 C1477 1.377 . S
C1476 C1478 1.384 . S
C1477 C1476 1.377 . S
C1477 C1483 1.390 . S
C1478 H1469 0.930 . S
C1478 C1476 1.384 . S
C1478 C1479 1.372 . S
C1479 C1478 1.372 . S
C1479 C1480 1.400 . S
C1479 C1484 1.490 . S
C1480 H1470 0.930 . S
C1480 C1479 1.400 . S
C1480 C1483 1.386 . S
H1481 C1497 0.930 . S
H1482 C1498 0.931 . S
C1483 H1471 0.929 . S
C1483 C1477 1.390 . S
C1483 C1480 1.386 . S
C1484 C1479 1.490 . S
C1484 C1486 1.395 . S
C1484 C1487 1.403 . S
H1485 C1491 0.930 . S
C1486 H1472 0.930 . S
C1486 C1484 1.395 . S
C1486 C1489 1.403 . S
C1487 C1484 1.403 . S
C1487 C1488 1.524 . S
C1487 C1491 1.400 . S
C1488 H1473 0.960 . S
C1488 H1474 0.960 . S
C1488 H1475 0.960 . S
C1488 C1487 1.524 . S
C1489 C1486 1.403 . S
C1489 C1490 1.392 . S
C1489 C1493 1.495 . S
C1490 C1489 1.392 . S
C1490 C1491 1.385 . S
C1490 C1492 1.478 . S
C1491 H1485 0.930 . S
C1491 C1487 1.400 . S
C1491 C1490 1.385 . S
C1492 C1490 1.478 . S
C1492 C1494 1.381 . S
C1492 C1498 1.383 . S
C1493 C1489 1.495 . S
C1493 H1499 0.959 . S
C1493 H1500 0.961 . S
C1493 H1501 0.960 . S
C1494 C1492 1.381 . S
C1494 C1495 1.394 . S
C1494 H1502 0.930 . S
C1495 C1494 1.394 . S
C1495 C1496 1.383 . S
C1495 H1503 0.929 . S
C1496 C1495 1.383 . S
C1496 C1497 1.377 . S
C1497 H1481 0.930 . S
C1497 C1496 1.377 . S
C1497 C1498 1.379 . S
C1498 H1482 0.931 . S
C1498 C1492 1.383 . S
C1498 C1497 1.379 . S
H1499 C1493 0.959 . S
H1500 C1493 0.961 . S
H1501 C1493 0.960 . S
H1502 C1494 0.930 . S
H1503 C1495 0.929 . S
H1504 C1512 0.929 . S
H1505 C1514 0.930 . S
H1506 C1516 0.930 . S
H1507 C1519 0.929 . S
H1508 C1522 0.930 . S
H1509 C1524 0.960 . S
H1510 C1524 0.960 . S
H1511 C1524 0.960 . S
C1512 H1504 0.929 . S
C1512 C1513 1.377 . S
C1512 C1514 1.384 . S
C1513 C1512 1.377 . S
C1513 C1519 1.390 . S
C1514 H1505 0.930 . S
C1514 C1512 1.384 . S
C1514 C1515 1.372 . S
C1515 C1514 1.372 . S
C1515 C1516 1.400 . S
C1515 C1520 1.490 . S
C1516 H1506 0.930 . S
C1516 C1515 1.400 . S
C1516 C1519 1.386 . S
H1517 C1533 0.930 . S
H1518 C1534 0.931 . S
C1519 H1507 0.929 . S
C1519 C1513 1.390 . S
C1519 C1516 1.386 . S
C1520 C1515 1.490 . S
C1520 C1522 1.395 . S
C1520 C1523 1.403 . S
H1521 C1527 0.930 . S
C1522 H1508 0.930 . S
C1522 C1520 1.395 . S
C1522 C1525 1.403 . S
C1523 C1520 1.403 . S
C1523 C1524 1.524 . S
C1523 C1527 1.400 . S
C1524 H1509 0.960 . S
C1524 H1510 0.960 . S
C1524 H1511 0.960 . S
C1524 C1523 1.524 . S
C1525 C1522 1.403 . S
C1525 C1526 1.392 . S
C1525 C1529 1.495 . S
C1526 C1525 1.392 . S
C1526 C1527 1.385 . S
C1526 C1528 1.478 . S
C1527 H1521 0.930 . S
C1527 C1523 1.400 . S
C1527 C1526 1.385 . S
C1528 C1526 1.478 . S
C1528 C1530 1.381 . S
C1528 C1534 1.383 . S
C1529 C1525 1.495 . S
C1529 H1535 0.959 . S
C1529 H1536 0.961 . S
C1529 H1537 0.960 . S
C1530 C1528 1.381 . S
C1530 C1531 1.394 . S
C1530 H1538 0.930 . S
C1531 C1530 1.394 . S
C1531 C1532 1.383 . S
C1531 H1539 0.929 . S
C1532 C1531 1.383 . S
C1532 C1533 1.377 . S
C1533 H1517 0.930 . S
C1533 C1532 1.377 . S
C1533 C1534 1.379 . S
C1534 H1518 0.931 . S
C1534 C1528 1.383 . S
C1534 C1533 1.379 . S
H1535 C1529 0.959 . S
H1536 C1529 0.961 . S
H1537 C1529 0.960 . S
H1538 C1530 0.930 . S
H1539 C1531 0.929 . S
H1540 C1548 0.929 . S
H1541 C1550 0.930 . S
H1542 C1552 0.930 . S
H1543 C1555 0.929 . S
H1544 C1558 0.930 . S
H1545 C1560 0.960 . S
H1546 C1560 0.960 . S
H1547 C1560 0.960 . S
C1548 H1540 0.929 . S
C1548 C1549 1.377 . S
C1548 C1550 1.384 . S
C1549 C1548 1.377 . S
C1549 C1555 1.390 . S
C1550 H1541 0.930 . S
C1550 C1548 1.384 . S
C1550 C1551 1.372 . S
C1551 C1550 1.372 . S
C1551 C1552 1.400 . S
C1551 C1556 1.490 . S
C1552 H1542 0.930 . S
C1552 C1551 1.400 . S
C1552 C1555 1.386 . S
H1553 C1569 0.930 . S
H1554 C1570 0.931 . S
C1555 H1543 0.929 . S
C1555 C1549 1.390 . S
C1555 C1552 1.386 . S
C1556 C1551 1.490 . S
C1556 C1558 1.395 . S
C1556 C1559 1.403 . S
H1557 C1563 0.930 . S
C1558 H1544 0.930 . S
C1558 C1556 1.395 . S
C1558 C1561 1.403 . S
C1559 C1556 1.403 . S
C1559 C1560 1.524 . S
C1559 C1563 1.400 . S
C1560 H1545 0.960 . S
C1560 H1546 0.960 . S
C1560 H1547 0.960 . S
C1560 C1559 1.524 . S
C1561 C1558 1.403 . S
C1561 C1562 1.392 . S
C1561 C1565 1.495 . S
C1562 C1561 1.392 . S
C1562 C1563 1.385 . S
C1562 C1564 1.478 . S
C1563 H1557 0.930 . S
C1563 C1559 1.400 . S
C1563 C1562 1.385 . S
C1564 C1562 1.478 . S
C1564 C1566 1.381 . S
C1564 C1570 1.383 . S
C1565 C1561 1.495 . S
C1565 H1571 0.959 . S
C1565 H1572 0.961 . S
C1565 H1573 0.960 . S
C1566 C1564 1.381 . S
C1566 C1567 1.394 . S
C1566 H1574 0.930 . S
C1567 C1566 1.394 . S
C1567 C1568 1.383 . S
C1567 H1575 0.929 . S
C1568 C1567 1.383 . S
C1568 C1569 1.377 . S
C1569 H1553 0.930 . S
C1569 C1568 1.377 . S
C1569 C1570 1.379 . S
C1570 H1554 0.931 . S
C1570 C1564 1.383 . S
C1570 C1569 1.379 . S
H1571 C1565 0.959 . S
H1572 C1565 0.961 . S
H1573 C1565 0.960 . S
H1574 C1566 0.930 . S
H1575 C1567 0.929 . S
H1576 C1584 0.929 . S
H1577 C1586 0.930 . S
H1578 C1588 0.930 . S
H1579 C1591 0.929 . S
H1580 C1594 0.930 . S
H1581 C1596 0.960 . S
H1582 C1596 0.960 . S
H1583 C1596 0.960 . S
C1584 H1576 0.929 . S
C1584 C1585 1.377 . S
C1584 C1586 1.384 . S
C1585 C1584 1.377 . S
C1585 C1591 1.390 . S
C1586 H1577 0.930 . S
C1586 C1584 1.384 . S
C1586 C1587 1.372 . S
C1587 C1586 1.372 . S
C1587 C1588 1.400 . S
C1587 C1592 1.490 . S
C1588 H1578 0.930 . S
C1588 C1587 1.400 . S
C1588 C1591 1.386 . S
H1589 C1605 0.930 . S
H1590 C1606 0.931 . S
C1591 H1579 0.929 . S
C1591 C1585 1.390 . S
C1591 C1588 1.386 . S
C1592 C1587 1.490 . S
C1592 C1594 1.395 . S
C1592 C1595 1.403 . S
H1593 C1599 0.930 . S
C1594 H1580 0.930 . S
C1594 C1592 1.395 . S
C1594 C1597 1.403 . S
C1595 C1592 1.403 . S
C1595 C1596 1.524 . S
C1595 C1599 1.400 . S
C1596 H1581 0.960 . S
C1596 H1582 0.960 . S
C1596 H1583 0.960 . S
C1596 C1595 1.524 . S
C1597 C1594 1.403 . S
C1597 C1598 1.392 . S
C1597 C1601 1.495 . S
C1598 C1597 1.392 . S
C1598 C1599 1.385 . S
C1598 C1600 1.478 . S
C1599 H1593 0.930 . S
C1599 C1595 1.400 . S
C1599 C1598 1.385 . S
C1600 C1598 1.478 . S
C1600 C1602 1.381 . S
C1600 C1606 1.383 . S
C1601 C1597 1.495 . S
C1601 H1607 0.959 . S
C1601 H1608 0.961 . S
C1601 H1609 0.960 . S
C1602 C1600 1.381 . S
C1602 C1603 1.394 . S
C1602 H1610 0.930 . S
C1603 C1602 1.394 . S
C1603 C1604 1.383 . S
C1603 H1611 0.929 . S
C1604 C1603 1.383 . S
C1604 C1605 1.377 . S
C1605 H1589 0.930 . S
C1605 C1604 1.377 . S
C1605 C1606 1.379 . S
C1606 H1590 0.931 . S
C1606 C1600 1.383 . S
C1606 C1605 1.379 . S
H1607 C1601 0.959 . S
H1608 C1601 0.961 . S
H1609 C1601 0.960 . S
H1610 C1602 0.930 . S
H1611 C1603 0.929 . S
H1612 C1620 0.929 . S
H1613 C1622 0.930 . S
H1614 C1624 0.930 . S
H1615 C1627 0.929 . S
H1616 C1630 0.930 . S
H1617 C1632 0.960 . S
H1618 C1632 0.960 . S
H1619 C1632 0.960 . S
C1620 H1612 0.929 . S
C1620 C1621 1.377 . S
C1620 C1622 1.384 . S
C1621 C1620 1.377 . S
C1621 C1627 1.390 . S
C1622 H1613 0.930 . S
C1622 C1620 1.384 . S
C1622 C1623 1.372 . S
C1623 C1622 1.372 . S
C1623 C1624 1.400 . S
C1623 C1628 1.490 . S
C1624 H1614 0.930 . S
C1624 C1623 1.400 . S
C1624 C1627 1.386 . S
H1625 C1641 0.930 . S
H1626 C1642 0.931 . S
C1627 H1615 0.929 . S
C1627 C1621 1.390 . S
C1627 C1624 1.386 . S
C1628 C1623 1.490 . S
C1628 C1630 1.395 . S
C1628 C1631 1.403 . S
H1629 C1635 0.930 . S
C1630 H1616 0.930 . S
C1630 C1628 1.395 . S
C1630 C1633 1.403 . S
C1631 C1628 1.403 . S
C1631 C1632 1.524 . S
C1631 C1635 1.400 . S
C1632 H1617 0.960 . S
C1632 H1618 0.960 . S
C1632 H1619 0.960 . S
C1632 C1631 1.524 . S
C1633 C1630 1.403 . S
C1633 C1634 1.392 . S
C1633 C1637 1.495 . S
C1634 C1633 1.392 . S
C1634 C1635 1.385 . S
C1634 C1636 1.478 . S
C1635 H1629 0.930 . S
C1635 C1631 1.400 . S
C1635 C1634 1.385 . S
C1636 C1634 1.478 . S
C1636 C1638 1.381 . S
C1636 C1642 1.383 . S
C1637 C1633 1.495 . S
C1637 H1643 0.959 . S
C1637 H1644 0.961 . S
C1637 H1645 0.960 . S
C1638 C1636 1.381 . S
C1638 C1639 1.394 . S
C1638 H1646 0.930 . S
C1639 C1638 1.394 . S
C1639 C1640 1.383 . S
C1639 H1647 0.929 . S
C1640 C1639 1.383 . S
C1640 C1641 1.377 . S
C1641 H1625 0.930 . S
C1641 C1640 1.377 . S
C1641 C1642 1.379 . S
C1642 H1626 0.931 . S
C1642 C1636 1.383 . S
C1642 C1641 1.379 . S
H1643 C1637 0.959 . S
H1644 C1637 0.961 . S
H1645 C1637 0.960 . S
H1646 C1638 0.930 . S
H1647 C1639 0.929 . S
C524 C385 1.498 . S
C505 C36 1.503 . S
C560 C411 1.502 . S
C541 C93 1.499 . S
C596 C425 1.493 . S
C577 C132 1.503 . S
C632 C427 1.503 . S
C613 C174 1.497 . S
C649 C213 1.501 . S
C668 C424 1.503 . S
C704 C426 1.493 . S
C685 C285 1.495 . S
C740 C384 1.494 . S
C721 C324 1.501 . S
C776 C410 1.501 . S
C757 C366 1.496 . S
C812 C412 1.493 . S
C793 C357 1.501 . S
C848 C438 1.498 . S
C829 C222 1.499 . S
C884 C396 1.493 . S
C865 C276 1.501 . S
C920 C398 1.494 . S
C901 C333 1.498 . S
C956 C397 1.494 . S
C937 C84 1.501 . S
C992 C399 1.501 . S
C973 C141 1.498 . S
C1028 C413 1.494 . S
C1009 C165 1.501 . S
C1064 C439 1.494 . S
C1045 C45 1.499 . S
C1100 C441 1.497 . S
C1081 C372 1.506 . S
C1117 C237 1.499 . S
C1136 C467 1.504 . S
C1153 C261 1.503 . S
C1172 C480 1.498 . S
C1189 C318 1.500 . S
C1208 C483 1.498 . S
C1225 C69 1.502 . S
C1244 C481 1.498 . S
C1261 C126 1.498 . S
C1280 C482 1.499 . S
C1297 C180 1.502 . S
C1316 C440 1.491 . S
C1352 C466 1.502 . S
C1333 C30 1.494 . S
C1388 C469 1.499 . S
C1369 C21 1.499 . S
C1405 C78 1.499 . S
C1424 C494 1.497 . S
C1441 C117 1.502 . S
C1460 C452 1.496 . S
C1477 C189 1.496 . S
C1496 C454 1.499 . S
C1532 C453 1.502 . S
C1513 C228 1.506 . S
C1568 C455 1.493 . S
C1549 C270 1.501 . S
C1585 C309 1.502 . S
C1604 C468 1.501 . S
C1640 C495 1.497 . S
C1621 C381 1.504 . S
