# Generated by pormake.
# Topology eea, (3,6)-cn, num edge types: 1
# Building blocks:
#     Node 0, Type 0, BuildingBlock: QEWDON_clean_linker_0, # of connection points: 3
#     Node 1, Type 0, BuildingBlock: QEWDON_clean_linker_0, # of connection points: 3
#     Node 2, Type 0, BuildingBlock: QEWDON_clean_linker_0, # of connection points: 3
#     Node 3, Type 0, BuildingBlock: QEWDON_clean_linker_0, # of connection points: 3
#     Node 4, Type 0, BuildingBlock: QEWDON_clean_linker_0, # of connection points: 3
#     Node 5, Type 0, BuildingBlock: QEWDON_clean_linker_0, # of connection points: 3
#     Node 6, Type 0, BuildingBlock: QEWDON_clean_linker_0, # of connection points: 3
#     Node 7, Type 0, BuildingBlock: QEWDON_clean_linker_0, # of connection points: 3
#     Node 8, Type 0, BuildingBlock: QEWDON_clean_linker_0, # of connection points: 3
#     Node 9, Type 0, BuildingBlock: QEWDON_clean_linker_0, # of connection points: 3
#     Node 10, Type 0, BuildingBlock: QEWDON_clean_linker_0, # of connection points: 3
#     Node 11, Type 0, BuildingBlock: QEWDON_clean_linker_0, # of connection points: 3
#     Node 12, Type 0, BuildingBlock: QEWDON_clean_linker_0, # of connection points: 3
#     Node 13, Type 0, BuildingBlock: QEWDON_clean_linker_0, # of connection points: 3
#     Node 14, Type 0, BuildingBlock: QEWDON_clean_linker_0, # of connection points: 3
#     Node 15, Type 0, BuildingBlock: QEWDON_clean_linker_0, # of connection points: 3
#     Node 16, Type 0, BuildingBlock: QEWDON_clean_linker_0, # of connection points: 3
#     Node 17, Type 0, BuildingBlock: QEWDON_clean_linker_0, # of connection points: 3
#     Node 18, Type 1, BuildingBlock: LEVNOQ01_clean_sbu_1, # of connection points: 6
#     Node 19, Type 1, BuildingBlock: LEVNOQ01_clean_sbu_1, # of connection points: 6
#     Node 20, Type 1, BuildingBlock: LEVNOQ01_clean_sbu_1, # of connection points: 6
#     Node 21, Type 1, BuildingBlock: LEVNOQ01_clean_sbu_1, # of connection points: 6
#     Node 22, Type 1, BuildingBlock: LEVNOQ01_clean_sbu_1, # of connection points: 6
#     Node 23, Type 1, BuildingBlock: LEVNOQ01_clean_sbu_1, # of connection points: 6
#     Node 24, Type 1, BuildingBlock: LEVNOQ01_clean_sbu_1, # of connection points: 6
#     Node 25, Type 1, BuildingBlock: LEVNOQ01_clean_sbu_1, # of connection points: 6
#     Node 26, Type 1, BuildingBlock: LEVNOQ01_clean_sbu_1, # of connection points: 6
#     Edge 27, Type (0, 1), BuildingBlock: TEMPAE_clean_linker_10, # of connection points: 2
#     Edge 28, Type (0, 1), BuildingBlock: TEMPAE_clean_linker_10, # of connection points: 2
#     Edge 29, Type (0, 1), BuildingBlock: TEMPAE_clean_linker_10, # of connection points: 2
#     Edge 30, Type (0, 1), BuildingBlock: TEMPAE_clean_linker_10, # of connection points: 2
#     Edge 31, Type (0, 1), BuildingBlock: TEMPAE_clean_linker_10, # of connection points: 2
#     Edge 32, Type (0, 1), BuildingBlock: TEMPAE_clean_linker_10, # of connection points: 2
#     Edge 33, Type (0, 1), BuildingBlock: TEMPAE_clean_linker_10, # of connection points: 2
#     Edge 34, Type (0, 1), BuildingBlock: TEMPAE_clean_linker_10, # of connection points: 2
#     Edge 35, Type (0, 1), BuildingBlock: TEMPAE_clean_linker_10, # of connection points: 2
#     Edge 36, Type (0, 1), BuildingBlock: TEMPAE_clean_linker_10, # of connection points: 2
#     Edge 37, Type (0, 1), BuildingBlock: TEMPAE_clean_linker_10, # of connection points: 2
#     Edge 38, Type (0, 1), BuildingBlock: TEMPAE_clean_linker_10, # of connection points: 2
#     Edge 39, Type (0, 1), BuildingBlock: TEMPAE_clean_linker_10, # of connection points: 2
#     Edge 40, Type (0, 1), BuildingBlock: TEMPAE_clean_linker_10, # of connection points: 2
#     Edge 41, Type (0, 1), BuildingBlock: TEMPAE_clean_linker_10, # of connection points: 2
#     Edge 42, Type (0, 1), BuildingBlock: TEMPAE_clean_linker_10, # of connection points: 2
#     Edge 43, Type (0, 1), BuildingBlock: TEMPAE_clean_linker_10, # of connection points: 2
#     Edge 44, Type (0, 1), BuildingBlock: TEMPAE_clean_linker_10, # of connection points: 2
#     Edge 45, Type (0, 1), BuildingBlock: TEMPAE_clean_linker_10, # of connection points: 2
#     Edge 46, Type (0, 1), BuildingBlock: TEMPAE_clean_linker_10, # of connection points: 2
#     Edge 47, Type (0, 1), BuildingBlock: TEMPAE_clean_linker_10, # of connection points: 2
#     Edge 48, Type (0, 1), BuildingBlock: TEMPAE_clean_linker_10, # of connection points: 2
#     Edge 49, Type (0, 1), BuildingBlock: TEMPAE_clean_linker_10, # of connection points: 2
#     Edge 50, Type (0, 1), BuildingBlock: TEMPAE_clean_linker_10, # of connection points: 2
#     Edge 51, Type (0, 1), BuildingBlock: TEMPAE_clean_linker_10, # of connection points: 2
#     Edge 52, Type (0, 1), BuildingBlock: TEMPAE_clean_linker_10, # of connection points: 2
#     Edge 53, Type (0, 1), BuildingBlock: TEMPAE_clean_linker_10, # of connection points: 2
#     Edge 54, Type (0, 1), BuildingBlock: TEMPAE_clean_linker_10, # of connection points: 2
#     Edge 55, Type (0, 1), BuildingBlock: TEMPAE_clean_linker_10, # of connection points: 2
#     Edge 56, Type (0, 1), BuildingBlock: TEMPAE_clean_linker_10, # of connection points: 2
#     Edge 57, Type (0, 1), BuildingBlock: TEMPAE_clean_linker_10, # of connection points: 2
#     Edge 58, Type (0, 1), BuildingBlock: TEMPAE_clean_linker_10, # of connection points: 2
#     Edge 59, Type (0, 1), BuildingBlock: TEMPAE_clean_linker_10, # of connection points: 2
#     Edge 60, Type (0, 1), BuildingBlock: TEMPAE_clean_linker_10, # of connection points: 2
#     Edge 61, Type (0, 1), BuildingBlock: TEMPAE_clean_linker_10, # of connection points: 2
#     Edge 62, Type (0, 1), BuildingBlock: TEMPAE_clean_linker_10, # of connection points: 2
#     Edge 63, Type (0, 1), BuildingBlock: TEMPAE_clean_linker_10, # of connection points: 2
#     Edge 64, Type (0, 1), BuildingBlock: TEMPAE_clean_linker_10, # of connection points: 2
#     Edge 65, Type (0, 1), BuildingBlock: TEMPAE_clean_linker_10, # of connection points: 2
#     Edge 66, Type (0, 1), BuildingBlock: TEMPAE_clean_linker_10, # of connection points: 2
#     Edge 67, Type (0, 1), BuildingBlock: TEMPAE_clean_linker_10, # of connection points: 2
#     Edge 68, Type (0, 1), BuildingBlock: TEMPAE_clean_linker_10, # of connection points: 2
#     Edge 69, Type (0, 1), BuildingBlock: TEMPAE_clean_linker_10, # of connection points: 2
#     Edge 70, Type (0, 1), BuildingBlock: TEMPAE_clean_linker_10, # of connection points: 2
#     Edge 71, Type (0, 1), BuildingBlock: TEMPAE_clean_linker_10, # of connection points: 2
#     Edge 72, Type (0, 1), BuildingBlock: TEMPAE_clean_linker_10, # of connection points: 2
#     Edge 73, Type (0, 1), BuildingBlock: TEMPAE_clean_linker_10, # of connection points: 2
#     Edge 74, Type (0, 1), BuildingBlock: TEMPAE_clean_linker_10, # of connection points: 2
#     Edge 75, Type (0, 1), BuildingBlock: TEMPAE_clean_linker_10, # of connection points: 2
#     Edge 76, Type (0, 1), BuildingBlock: TEMPAE_clean_linker_10, # of connection points: 2
#     Edge 77, Type (0, 1), BuildingBlock: TEMPAE_clean_linker_10, # of connection points: 2
#     Edge 78, Type (0, 1), BuildingBlock: TEMPAE_clean_linker_10, # of connection points: 2
#     Edge 79, Type (0, 1), BuildingBlock: TEMPAE_clean_linker_10, # of connection points: 2
#     Edge 80, Type (0, 1), BuildingBlock: TEMPAE_clean_linker_10, # of connection points: 2
# Relax obj value: 0.093
# Max RMSD: 0.147
# Mean RMSD: 0.122
data_MOF--net-eea--node1-LEVNOQ01_clean_sbu_1--node2-QEWDON_clean_linker_0--edge1-TEMPAE_clean_linker_10
_symmetry_space_group_name_H-M    P1
_symmetry_Int_Tables_number       1
_symmetry_cell_setting            triclinic
loop_
_symmetry_equiv_pos_as_xyz
'x, y, z'
_cell_length_a     62.104015
_cell_length_b     62.000723
_cell_length_c     41.367809
_cell_angle_alpha  90.383744
_cell_angle_beta   90.36054
_cell_angle_gamma 119.84169
loop_
_atom_site_label
_atom_site_type_symbol
_atom_site_fract_x
_atom_site_fract_y
_atom_site_fract_z
_atom_type_partial_charge
H0 H 0.22357 0.13265 0.37901 0.0
C1 C 0.22792 0.1206 0.36482 0.0
C2 C 0.24456 0.11359 0.37748 0.0
C3 C 0.21575 0.11065 0.33497 0.0
H4 H 0.25874 0.08845 0.37235 0.0
C5 C 0.24815 0.09592 0.36083 0.0
C6 C 0.23562 0.08541 0.33175 0.0
C7 C 0.2211 0.09435 0.31775 0.0
C8 C 0.19482 0.11403 0.32401 0.0
H9 H 0.21207 0.08668 0.29466 0.0
C10 C 0.1952 0.13659 0.32943 0.0
C11 C 0.1744 0.1388 0.32162 0.0
C12 C 0.17346 0.09395 0.30976 0.0
H13 H 0.17207 0.07599 0.30607 0.0
C14 C 0.15313 0.09645 0.30101 0.0
H15 H 0.21139 0.15228 0.34032 0.0
C16 C 0.15347 0.11872 0.30711 0.0
H17 H 0.13738 0.12028 0.30056 0.0
H18 H 0.13689 0.08093 0.29004 0.0
H19 H 0.86805 0.08197 0.36917 0.0
C20 C 0.88038 0.09876 0.35634 0.0
C21 C 0.88925 0.12157 0.37253 0.0
C22 C 0.88887 0.0976 0.32517 0.0
H23 H 0.91508 0.16084 0.37134 0.0
C24 C 0.90712 0.14345 0.35786 0.0
C25 C 0.91586 0.14277 0.3269 0.0
C26 C 0.90576 0.11999 0.31017 0.0
C27 C 0.88241 0.07313 0.31003 0.0
H28 H 0.91215 0.11975 0.28595 0.0
C29 C 0.86009 0.05147 0.31765 0.0
C30 C 0.85558 0.02799 0.30724 0.0
C31 C 0.89951 0.0708 0.29004 0.0
H32 H 0.91728 0.08667 0.28426 0.0
C33 C 0.8944 0.04761 0.27816 0.0
H34 H 0.84647 0.05263 0.33263 0.0
C35 C 0.87269 0.02626 0.28691 0.0
H36 H 0.86932 0.00836 0.27797 0.0
H37 H 0.90767 0.0461 0.26282 0.0
H38 H 0.90581 0.76817 0.37744 0.0
C39 C 0.8902 0.76661 0.36375 0.0
C40 C 0.86598 0.75343 0.37662 0.0
C41 C 0.89441 0.77892 0.33384 0.0
H42 H 0.8282 0.74552 0.36988 0.0
C43 C 0.84636 0.75316 0.35909 0.0
C44 C 0.8501 0.76447 0.32891 0.0
C45 C 0.87391 0.77639 0.31595 0.0
C46 C 0.91999 0.7971 0.32277 0.0
H47 H 0.8766 0.78499 0.29249 0.0
C48 C 0.94048 0.7934 0.32757 0.0
C49 C 0.96437 0.81167 0.31773 0.0
C50 C 0.92406 0.81929 0.30803 0.0
H51 H 0.90917 0.82344 0.30502 0.0
C52 C 0.9475 0.83687 0.29751 0.0
H53 H 0.93803 0.77674 0.33922 0.0
C54 C 0.96754 0.83314 0.3023 0.0
H55 H 0.98571 0.84724 0.29428 0.0
H56 H 0.95021 0.85368 0.28605 0.0
H57 H 0.1338 0.21973 0.62905 0.0
C58 C 0.12103 0.22326 0.64274 0.0
C59 C 0.11274 0.23892 0.62995 0.0
C60 C 0.11114 0.21037 0.67169 0.0
H61 H 0.08789 0.25339 0.63686 0.0
C62 C 0.09484 0.24194 0.64697 0.0
C63 C 0.08433 0.22881 0.67545 0.0
C64 C 0.09341 0.21396 0.68828 0.0
C65 C 0.11627 0.19045 0.68242 0.0
H66 H 0.08562 0.20405 0.71051 0.0
C67 C 0.14041 0.19356 0.68217 0.0
C68 C 0.14448 0.17423 0.69274 0.0
C69 C 0.09635 0.16757 0.69251 0.0
H70 H 0.07748 0.16422 0.69207 0.0
C71 C 0.10031 0.14848 0.70269 0.0
H72 H 0.15595 0.21101 0.67442 0.0
C73 C 0.12413 0.15174 0.70287 0.0
H74 H 0.12655 0.13635 0.71034 0.0
H75 H 0.08478 0.13096 0.7102 0.0
H76 H 0.77845 0.91543 0.6348 0.0
C77 C 0.77511 0.89793 0.64474 0.0
C78 C 0.75855 0.87582 0.62842 0.0
C79 C 0.78915 0.89748 0.67148 0.0
H80 H 0.74556 0.8366 0.62367 0.0
C81 C 0.7563 0.85324 0.63832 0.0
C82 C 0.77066 0.85273 0.66404 0.0
C83 C 0.78562 0.87443 0.68187 0.0
C84 C 0.81028 0.92095 0.68485 0.0
H85 H 0.79642 0.87348 0.70192 0.0
C86 C 0.80934 0.94312 0.68501 0.0
C87 C 0.83042 0.96593 0.69327 0.0
C88 C 0.83247 0.92184 0.69493 0.0
H89 H 0.8345 0.90549 0.69421 0.0
C90 C 0.85301 0.94423 0.70479 0.0
H91 H 0.7923 0.94275 0.67814 0.0
C92 C 0.85215 0.96623 0.70368 0.0
H93 H 0.86873 0.98353 0.70995 0.0
H94 H 0.86995 0.94464 0.71225 0.0
H95 H 0.08484 0.85779 0.62424 0.0
C96 C 0.10227 0.86949 0.63677 0.0
C97 C 0.12476 0.87616 0.62095 0.0
C98 C 0.10266 0.87983 0.66754 0.0
H99 H 0.16421 0.90132 0.62111 0.0
C100 C 0.14729 0.89384 0.63508 0.0
C101 C 0.1476 0.90539 0.6641 0.0
C102 C 0.12586 0.8965 0.68173 0.0
C103 C 0.07965 0.87686 0.68312 0.0
H104 H 0.12704 0.90517 0.70498 0.0
C105 C 0.05644 0.85479 0.68009 0.0
C106 C 0.03537 0.85262 0.69603 0.0
C107 C 0.08096 0.89689 0.70123 0.0
H108 H 0.09771 0.91485 0.70246 0.0
C109 C 0.06066 0.89434 0.71819 0.0
H110 H 0.05475 0.83954 0.6653 0.0
C111 C 0.03819 0.87231 0.71614 0.0
H112 H 0.02286 0.8709 0.73011 0.0
H113 H 0.0623 0.90965 0.73283 0.0
H114 H 0.88267 0.46508 0.71644 0.0
C115 C 0.8879 0.45338 0.70294 0.0
C116 C 0.90542 0.44775 0.71611 0.0
C117 C 0.87541 0.44181 0.67389 0.0
H118 H 0.92168 0.4244 0.71272 0.0
C119 C 0.91007 0.4304 0.70054 0.0
C120 C 0.89687 0.41793 0.67255 0.0
C121 C 0.88096 0.42508 0.65815 0.0
C122 C 0.8534 0.44317 0.66294 0.0
H123 H 0.87097 0.41577 0.63615 0.0
C124 C 0.85439 0.46609 0.6588 0.0
C125 C 0.83318 0.46692 0.64825 0.0
C126 C 0.83098 0.42101 0.6567 0.0
H127 H 0.82961 0.40307 0.66021 0.0
C128 C 0.80998 0.42172 0.64632 0.0
H129 H 0.87175 0.48316 0.66317 0.0
C130 C 0.81099 0.44447 0.64214 0.0
H131 H 0.79423 0.44444 0.63469 0.0
H132 H 0.79279 0.40455 0.64176 0.0
H133 H 0.53171 0.41082 0.70378 0.0
C134 C 0.54635 0.42738 0.69277 0.0
C135 C 0.55594 0.44999 0.70981 0.0
C136 C 0.55665 0.42601 0.66295 0.0
H137 H 0.58352 0.4888 0.71041 0.0
C138 C 0.57608 0.47134 0.69718 0.0
C139 C 0.58732 0.47027 0.66842 0.0
C140 C 0.57681 0.44789 0.65075 0.0
C141 C 0.54764 0.40166 0.64565 0.0
H142 H 0.58513 0.44746 0.62808 0.0
C143 C 0.52316 0.38199 0.6496 0.0
C144 C 0.51518 0.35878 0.63481 0.0
C145 C 0.56372 0.39745 0.62591 0.0
H146 H 0.58301 0.41138 0.62311 0.0
C147 C 0.55537 0.37469 0.61002 0.0
H148 H 0.51012 0.38439 0.66426 0.0
C149 C 0.53121 0.35539 0.61443 0.0
H150 H 0.52534 0.33752 0.60295 0.0
H151 H 0.56791 0.3718 0.59495 0.0
H152 H 0.57205 0.1028 0.71606 0.0
C153 C 0.55743 0.09975 0.69906 0.0
C154 C 0.53259 0.0816 0.70525 0.0
C155 C 0.56308 0.11611 0.67289 0.0
H156 H 0.49511 0.06419 0.68645 0.0
C157 C 0.51418 0.07864 0.68291 0.0
C158 C 0.51899 0.09692 0.65991 0.0
C159 C 0.54362 0.11491 0.65387 0.0
C160 C 0.58838 0.13772 0.66959 0.0
H161 H 0.54751 0.12929 0.63632 0.0
C162 C 0.60902 0.13471 0.66328 0.0
C163 C 0.63289 0.15573 0.6598 0.0
C164 C 0.59176 0.16177 0.67278 0.0
H165 H 0.57616 0.16449 0.67786 0.0
C166 C 0.61526 0.18252 0.66998 0.0
H167 H 0.60632 0.11614 0.66037 0.0
C168 C 0.63567 0.1796 0.6637 0.0
H169 H 0.65374 0.19617 0.6624 0.0
H170 H 0.61771 0.20098 0.67287 0.0
H171 H 0.80715 0.55451 0.96962 0.0
C172 C 0.79321 0.5578 0.98042 0.0
C173 C 0.78615 0.57321 0.96411 0.0
C174 C 0.78148 0.546 0.00949 0.0
H175 H 0.75979 0.58617 0.96179 0.0
C176 C 0.76651 0.57596 0.97583 0.0
C177 C 0.75403 0.56372 0.00381 0.0
C178 C 0.76252 0.55014 0.02138 0.0
C179 C 0.78727 0.52796 0.02634 0.0
H180 H 0.75331 0.54206 0.04383 0.0
C181 C 0.81028 0.52862 0.02266 0.0
C182 C 0.81487 0.51101 0.03818 0.0
C183 C 0.76913 0.5091 0.04584 0.0
H184 H 0.75063 0.50638 0.04809 0.0
C185 C 0.77419 0.49273 0.06259 0.0
H186 H 0.82445 0.54237 0.00737 0.0
C187 C 0.79688 0.49377 0.05908 0.0
H188 H 0.80016 0.48065 0.07236 0.0
H189 H 0.76019 0.47879 0.07794 0.0
H190 H 0.4386 0.24113 0.96399 0.0
C191 C 0.43429 0.22444 0.97715 0.0
C192 C 0.41917 0.20135 0.96204 0.0
C193 C 0.44595 0.22589 0.00715 0.0
H194 H 0.40553 0.162 0.96401 0.0
C195 C 0.41563 0.17962 0.97689 0.0
C196 C 0.42781 0.18085 0.00589 0.0
C197 C 0.44123 0.20369 0.02213 0.0
C198 C 0.46619 0.25021 0.01984 0.0
H199 H 0.44996 0.20418 0.04507 0.0
C200 C 0.46609 0.27238 0.01331 0.0
C201 C 0.48689 0.2955 0.02076 0.0
C202 C 0.48711 0.25173 0.03578 0.0
H203 H 0.48858 0.23536 0.04038 0.0
C204 C 0.50723 0.2747 0.04475 0.0
H205 H 0.45027 0.27184 0.00131 0.0
C206 C 0.5073 0.29653 0.03698 0.0
H207 H 0.52335 0.31424 0.04343 0.0
H208 H 0.52314 0.27558 0.0569 0.0
H209 H 0.74798 0.19108 0.9556 0.0
C210 C 0.76599 0.20215 0.96709 0.0
C211 C 0.78758 0.20923 0.94901 0.0
C212 C 0.76803 0.21117 0.99912 0.0
H213 H 0.827 0.23351 0.94678 0.0
C214 C 0.81083 0.22611 0.96218 0.0
C215 C 0.81289 0.23606 0.99308 0.0
C216 C 0.79185 0.22656 0.01243 0.0
C217 C 0.74603 0.20797 0.0175 0.0
H218 H 0.79404 0.23336 0.03709 0.0
C219 C 0.72264 0.18627 0.0146 0.0
C220 C 0.70229 0.18384 0.03251 0.0
C221 C 0.74843 0.2274 0.03798 0.0
H222 H 0.76555 0.24501 0.03967 0.0
C223 C 0.72868 0.22466 0.05653 0.0
H224 H 0.72022 0.17147 0.99831 0.0
C225 C 0.70586 0.20298 0.05414 0.0
H226 H 0.69089 0.20133 0.06915 0.0
H227 H 0.73104 0.23953 0.07264 0.0
H228 H 0.5551 0.80115 0.04917 0.0
C229 C 0.55983 0.78878 0.03642 0.0
C230 C 0.57995 0.78624 0.04751 0.0
C231 C 0.54473 0.77389 0.01049 0.0
H232 H 0.59982 0.76629 0.04118 0.0
C233 C 0.58502 0.7691 0.03203 0.0
C234 C 0.56903 0.75285 0.00818 0.0
C235 C 0.54993 0.75639 0.99618 0.0
C236 C 0.52166 0.77403 0.00093 0.0
H237 H 0.53779 0.74413 0.97729 0.0
C238 C 0.52103 0.79636 0.9995 0.0
C239 C 0.4989 0.79601 0.99118 0.0
C240 C 0.49978 0.75146 0.9936 0.0
H241 H 0.49925 0.73378 0.9953 0.0
C242 C 0.47802 0.75127 0.98462 0.0
H243 H 0.53756 0.81394 0.00508 0.0
C244 C 0.4775 0.77344 0.98356 0.0
H245 H 0.46037 0.773 0.97697 0.0
H246 H 0.46141 0.73383 0.97891 0.0
H247 H 0.20042 0.751 0.03731 0.0
C248 C 0.21212 0.76726 0.02316 0.0
C249 C 0.22075 0.79087 0.03723 0.0
C250 C 0.22042 0.7646 0.99252 0.0
H251 H 0.24575 0.83025 0.03179 0.0
C252 C 0.2379 0.81205 0.02039 0.0
C253 C 0.24677 0.80972 0.99026 0.0
C254 C 0.23697 0.78617 0.97576 0.0
C255 C 0.21478 0.73956 0.98033 0.0
H256 H 0.24384 0.78476 0.9523 0.0
C257 C 0.19249 0.71798 0.98848 0.0
C258 C 0.18887 0.6943 0.9808 0.0
C259 C 0.23273 0.73682 0.96279 0.0
H260 H 0.25047 0.75267 0.95684 0.0
C261 C 0.22855 0.71333 0.95378 0.0
H262 H 0.17825 0.71942 0.00167 0.0
C263 C 0.20687 0.69215 0.96298 0.0
H264 H 0.20419 0.67404 0.95629 0.0
H265 H 0.24248 0.71152 0.94034 0.0
H266 H 0.23885 0.44148 0.05311 0.0
C267 C 0.22446 0.43771 0.03535 0.0
C268 C 0.19935 0.42267 0.04353 0.0
C269 C 0.23085 0.45033 0.00571 0.0
H270 H 0.16155 0.40804 0.02762 0.0
C271 C 0.18089 0.41913 0.02094 0.0
C272 C 0.1869 0.43226 0.99188 0.0
C273 C 0.21199 0.44748 0.98414 0.0
C274 C 0.25635 0.47106 0.00079 0.0
H275 H 0.21684 0.45861 0.96245 0.0
C276 C 0.2764 0.46707 0.99463 0.0
C277 C 0.30052 0.48752 0.99006 0.0
C278 C 0.26043 0.49541 0.0025 0.0
H279 H 0.24522 0.4988 0.00731 0.0
C280 C 0.28413 0.5156 0.99859 0.0
H281 H 0.27307 0.44821 0.99284 0.0
C282 C 0.30402 0.51178 0.99266 0.0
H283 H 0.32228 0.528 0.99065 0.0
H284 H 0.28715 0.53434 1.00042 0.0
H285 H 0.46499 0.88499 0.29814 0.0
C286 C 0.45312 0.88979 0.31182 0.0
C287 C 0.44556 0.90581 0.29824 0.0
C288 C 0.44372 0.87826 0.34175 0.0
H289 H 0.42209 0.92204 0.30491 0.0
C290 C 0.4286 0.91031 0.31531 0.0
C291 C 0.41827 0.89817 0.34436 0.0
C292 C 0.42692 0.88331 0.35818 0.0
C293 C 0.44852 0.8584 0.35389 0.0
H294 H 0.41927 0.87442 0.38102 0.0
C295 C 0.47188 0.85999 0.3506 0.0
C296 C 0.47533 0.84023 0.36061 0.0
C297 C 0.42897 0.83686 0.36775 0.0
H298 H 0.41054 0.83449 0.3698 0.0
C299 C 0.43263 0.81765 0.37836 0.0
H300 H 0.48716 0.87622 0.33978 0.0
C301 C 0.45561 0.81923 0.37473 0.0
H302 H 0.45798 0.80392 0.38269 0.0
H303 H 0.41744 0.80125 0.38895 0.0
H304 H 0.1073 0.58009 0.30175 0.0
C305 C 0.10299 0.56282 0.31346 0.0
C306 C 0.0854 0.54023 0.29913 0.0
C307 C 0.11732 0.563 0.34008 0.0
H308 H 0.07035 0.50056 0.29847 0.0
C309 C 0.08191 0.51779 0.31167 0.0
C310 C 0.09664 0.51795 0.33743 0.0
C311 C 0.11301 0.54038 0.35293 0.0
C312 C 0.14004 0.58624 0.34979 0.0
H313 H 0.12468 0.54029 0.3725 0.0
C314 C 0.13971 0.60859 0.35221 0.0
C315 C 0.16184 0.63125 0.35705 0.0
C316 C 0.16274 0.58654 0.35369 0.0
H317 H 0.16375 0.56968 0.35116 0.0
C318 C 0.18465 0.60886 0.35952 0.0
H319 H 0.12217 0.60829 0.34989 0.0
C320 C 0.18432 0.63115 0.36088 0.0
H321 H 0.20176 0.64832 0.36406 0.0
H322 H 0.20205 0.60894 0.36207 0.0
H323 H 0.41596 0.51805 0.2892 0.0
C324 C 0.43325 0.53232 0.29981 0.0
C325 C 0.45571 0.53864 0.28423 0.0
C326 C 0.43335 0.54542 0.32809 0.0
H327 H 0.49488 0.56488 0.28259 0.0
C328 C 0.47785 0.55862 0.29601 0.0
C329 C 0.4779 0.57261 0.32247 0.0
C330 C 0.45616 0.56498 0.33975 0.0
C331 C 0.40989 0.54059 0.34411 0.0
H332 H 0.45697 0.57564 0.36101 0.0
C333 C 0.38886 0.51664 0.34427 0.0
C334 C 0.36715 0.51242 0.36002 0.0
C335 C 0.40835 0.56023 0.35941 0.0
H336 H 0.42343 0.57924 0.35847 0.0
C337 C 0.38704 0.55581 0.37583 0.0
H338 H 0.38921 0.5012 0.33237 0.0
C339 C 0.36654 0.53198 0.37635 0.0
H340 H 0.34984 0.52898 0.38838 0.0
H341 H 0.38626 0.57104 0.38763 0.0
O342 O 0.51374 0.01941 0.94111 0.0
Mg343 Mg 0.51328 -0.0024 0.98037 0.0
O344 O 0.47443 0.00734 0.94955 0.0
Mg345 Mg 0.47374 -0.00535 0.00302 0.0
O346 O 0.48401 0.96348 0.98931 0.0
O347 O 0.51865 0.97063 0.96306 0.0
O348 O 0.47583 0.9788 0.05564 0.0
O349 O 0.43364 0.96259 0.99173 0.0
Mg350 Mg 0.44936 -0.00264 0.04783 0.0
O351 O 0.46156 0.02529 0.01489 0.0
O352 O 0.47194 0.0041 0.08835 0.0
O353 O 0.41803 0.96183 0.03921 0.0
O354 O 0.43539 0.01949 0.05568 0.0
C355 C 0.53367 0.03203 0.02419 0.0
C356 C 0.49369 0.01813 0.93203 0.0
C357 C 0.49783 0.95551 0.97629 0.0
C358 C 0.47772 0.98759 0.08416 0.0
C359 C 0.41562 0.95254 0.01124 0.0
C360 C 0.44892 0.0327 0.03223 0.0
O361 O 0.53713 0.01393 0.02004 0.0
O362 O 0.51324 0.02996 0.0144 0.0
O363 O 0.00847 0.47065 0.9222 0.0
Mg364 Mg 0.00616 0.49434 0.9578 0.0
O365 O 0.97766 0.45112 0.95416 0.0
Mg366 Mg -0.00066 0.46724 0.00425 0.0
O367 O 0.03143 0.50924 0.99402 0.0
O368 O 0.03251 0.52885 0.94778 0.0
O369 O 0.01822 0.48447 0.05668 0.0
O370 O 0.02906 0.45668 0.98798 0.0
Mg371 Mg -0.00175 0.44019 0.04453 0.0
O372 O 0.96802 0.42451 0.01452 0.0
O373 O 0.9925 0.45409 0.08681 0.0
O374 O 0.03396 0.44519 0.03574 0.0
O375 O 0.97814 0.40364 0.0501 0.0
C376 C 0.96255 0.48867 0.99573 0.0
C377 C 0.98636 0.45383 0.92583 0.0
C378 C 0.04186 0.52873 0.97563 0.0
C379 C 0.00939 0.4763 0.08463 0.0
C380 C 0.04111 0.45041 0.00696 0.0
C381 C 0.96291 0.40397 0.0292 0.0
O382 O 0.97262 0.49453 0.9682 0.0
O383 O 0.97052 0.47924 0.01668 0.0
O384 O 0.53517 0.52024 0.07374 0.0
Mg385 Mg 0.50605 0.4968 0.04132 0.0
O386 O 0.52108 0.53945 0.04553 0.0
Mg387 Mg 0.52514 0.5225 0.99455 0.0
O388 O 0.51481 0.48061 0.0055 0.0
O389 O 0.49641 0.46193 0.0521 0.0
O390 O 0.52566 0.5035 0.94317 0.0
O391 O 0.56615 0.53372 0.008 0.0
Mg392 Mg 0.54676 0.54735 0.95083 0.0
O393 O 0.53629 0.56495 0.98328 0.0
O394 O 0.52247 0.52981 0.91208 0.0
O395 O 0.5778 0.54213 0.95789 0.0
O396 O 0.56323 0.58382 0.94291 0.0
C397 C 0.46797 0.50343 0.00489 0.0
C398 C 0.5281 0.53599 0.07302 0.0
C399 C 0.5055 0.46141 0.02436 0.0
C400 C 0.52094 0.50895 0.91527 0.0
C401 C 0.58263 0.53898 0.98661 0.0
C402 C 0.55088 0.58487 0.96712 0.0
O403 O 0.47313 0.49941 0.03314 0.0
O404 O 0.48428 0.51051 0.9829 0.0
O405 O 0.13392 0.31896 0.25286 0.0
Mg406 Mg 0.1604 0.32291 0.28786 0.0
O407 O 0.14257 0.34998 0.28488 0.0
Mg408 Mg 0.1397 0.3306 0.33606 0.0
O409 O 0.14914 0.29864 0.3245 0.0
O410 O 0.16802 0.29577 0.27948 0.0
O411 O 0.13951 0.31309 0.38858 0.0
O412 O 0.0993 0.30101 0.32315 0.0
Mg413 Mg 0.11448 0.33454 0.38186 0.0
O414 O 0.12952 0.36179 0.34821 0.0
O415 O 0.13758 0.33985 0.42094 0.0
O416 O 0.08373 0.29872 0.37122 0.0
O417 O 0.10291 0.35911 0.38705 0.0
C418 C 0.19756 0.36712 0.32605 0.0
C419 C 0.13673 0.3403 0.25665 0.0
C420 C 0.15794 0.28731 0.30707 0.0
C421 C 0.14221 0.32249 0.41698 0.0
C422 C 0.08149 0.29022 0.34276 0.0
C423 C 0.11748 0.37083 0.36353 0.0
O424 O 0.19391 0.35674 0.29845 0.0
O425 O 0.18013 0.35965 0.34646 0.0
O426 O 0.6781 0.80698 0.26345 0.0
Mg427 Mg 0.67061 0.82766 0.29837 0.0
O428 O 0.64344 0.78661 0.28767 0.0
Mg429 Mg 0.66364 0.80243 0.33962 0.0
O430 O 0.69561 0.84599 0.33319 0.0
O431 O 0.69351 0.8625 0.28576 0.0
O432 O 0.67997 0.81703 0.39313 0.0
O433 O 0.69483 0.79402 0.32389 0.0
Mg434 Mg 0.66278 0.77165 0.38042 0.0
O435 O 0.63386 0.76011 0.34797 0.0
O436 O 0.65799 0.78503 0.4239 0.0
O437 O 0.69922 0.77984 0.37015 0.0
O438 O 0.64223 0.73463 0.3776 0.0
C439 C 0.62525 0.82094 0.33007 0.0
C440 C 0.65542 0.7912 0.26151 0.0
C441 C 0.70417 0.86457 0.31328 0.0
C442 C 0.67291 0.80797 0.42131 0.0
C443 C 0.70699 0.7874 0.34212 0.0
C444 C 0.6283 0.73796 0.35745 0.0
O445 O 0.63567 0.8262 0.30278 0.0
O446 O 0.63336 0.81236 0.35191 0.0
O447 O 0.20317 0.86137 0.4114 0.0
Mg448 Mg 0.17644 0.83506 0.37807 0.0
O449 O 0.18666 0.876 0.37876 0.0
Mg450 Mg 0.19164 0.85584 0.33136 0.0
O451 O 0.18282 0.81447 0.34644 0.0
O452 O 0.16706 0.80201 0.39615 0.0
O453 O 0.19402 0.83497 0.28181 0.0
O454 O 0.23238 0.86902 0.34664 0.0
Mg455 Mg 0.21178 0.8784 0.28781 0.0
O456 O 0.20144 0.89758 0.31699 0.0
O457 O 0.18594 0.85825 0.2515 0.0
O458 O 0.24424 0.87539 0.29649 0.0
O459 O 0.22573 0.91348 0.27353 0.0
C460 C 0.13446 0.83395 0.34128 0.0
C461 C 0.19498 0.87602 0.40694 0.0
C462 C 0.17345 0.79743 0.36853 0.0
C463 C 0.18741 0.83891 0.25419 0.0
C464 C 0.24904 0.87371 0.32582 0.0
C465 C 0.21388 0.91592 0.29735 0.0
O466 O 0.14124 0.83209 0.36955 0.0
O467 O 0.15035 0.84183 0.31868 0.0
O468 O 0.84954 0.69161 0.61801 0.0
Mg469 Mg 0.84618 0.66985 0.65925 0.0
O470 O 0.80938 0.67738 0.61925 0.0
Mg471 Mg 0.80696 0.66434 0.67254 0.0
O472 O 0.81947 0.63391 0.65796 0.0
O473 O 0.85914 0.64841 0.64313 0.0
O474 O 0.80586 0.65111 0.72673 0.0
O475 O 0.76756 0.63006 0.65882 0.0
Mg476 Mg 0.76376 0.6645 0.71194 0.0
O477 O 0.79232 0.69063 0.6861 0.0
O478 O 0.77635 0.65411 0.75262 0.0
O479 O 0.73888 0.63685 0.68052 0.0
O480 O 0.76507 0.69789 0.7122 0.0
C481 C 0.86358 0.70446 0.70046 0.0
C482 C 0.83003 0.68916 0.60474 0.0
C483 C 0.83705 0.63009 0.64725 0.0
C484 C 0.79369 0.64897 0.75257 0.0
C485 C 0.74485 0.62437 0.66204 0.0
C486 C 0.7841 0.70551 0.69372 0.0
O487 O 0.86516 0.68518 0.70364 0.0
O488 O 0.84475 0.70227 0.68517 0.0
O489 O 0.34397 0.14115 0.59145 0.0
Mg490 Mg 0.33398 0.16063 0.62472 0.0
O491 O 0.31136 0.11684 0.61826 0.0
Mg492 Mg 0.33072 0.13234 0.6697 0.0
O493 O 0.35838 0.17561 0.66158 0.0
O494 O 0.35484 0.19749 0.62045 0.0
O495 O 0.34626 0.14555 0.72162 0.0
O496 O 0.36346 0.12588 0.65394 0.0
Mg497 Mg 0.33232 0.0903 0.7108 0.0
O498 O 0.30543 0.09157 0.68354 0.0
O499 O 0.34114 0.11384 0.75146 0.0
O500 O 0.36048 0.09333 0.68 0.0
O501 O 0.29941 0.05778 0.71017 0.0
C502 C 0.28819 0.14647 0.66216 0.0
C503 C 0.32223 0.12299 0.5912 0.0
C504 C 0.36541 0.19653 0.64689 0.0
C505 C 0.34733 0.13654 0.74876 0.0
C506 C 0.37071 0.11017 0.65903 0.0
C507 C 0.29114 0.06856 0.69132 0.0
O508 O 0.29674 0.15237 0.63388 0.0
O509 O 0.29912 0.14008 0.68295 0.0
O510 O 0.86348 0.18792 0.74447 0.0
Mg511 Mg 0.83724 0.16519 0.70839 0.0
O512 O 0.85348 0.20803 0.7109 0.0
Mg513 Mg 0.85791 0.18938 0.66209 0.0
O514 O 0.84598 0.14703 0.67497 0.0
O515 O 0.82385 0.12971 0.71988 0.0
O516 O 0.86021 0.17031 0.61156 0.0
O517 O 0.89808 0.19968 0.67845 0.0
Mg518 Mg 0.88219 0.215 0.61905 0.0
O519 O 0.87006 0.23194 0.64991 0.0
O520 O 0.85878 0.19723 0.57991 0.0
O521 O 0.9128 0.20964 0.62965 0.0
O522 O 0.89715 0.25122 0.60985 0.0
C523 C 0.80088 0.17222 0.66903 0.0
C524 C 0.85904 0.20535 0.7397 0.0
C525 C 0.83371 0.12784 0.69347 0.0
C526 C 0.85684 0.17625 0.58324 0.0
C527 C 0.91567 0.20527 0.6587 0.0
C528 C 0.8837 0.25177 0.63304 0.0
O529 O 0.80535 0.16842 0.69767 0.0
O530 O 0.81747 0.17836 0.64754 0.0
C531 C 0.27413 0.85457 0.97588 0.0
C532 C 0.27048 0.83048 0.97865 0.0
C533 C 0.29819 0.87506 0.97306 0.0
C534 C 0.31888 0.87125 0.97439 0.0
C535 C 0.31503 0.84676 0.97432 0.0
C536 C 0.29084 0.82667 0.97611 0.0
C537 C 0.30156 0.90087 0.97177 0.0
C538 C 0.33642 0.84173 0.97641 0.0
C539 C 0.38547 0.92461 0.96847 0.0
C540 C 0.39142 0.93114 0.00121 0.0
C541 C 0.36176 0.90537 0.95907 0.0
C542 C 0.34385 0.89229 0.98302 0.0
C543 C 0.34993 0.89863 0.01607 0.0
C544 C 0.37354 0.918 0.0247 0.0
C545 C 0.35572 0.89926 0.92362 0.0
C546 C 0.33148 0.8849 0.04246 0.0
H547 H 0.25835 0.85748 0.97767 0.0
H548 H 0.28807 0.80805 0.97861 0.0
H549 H 0.30671 0.9096 0.99618 0.0
H550 H 0.31674 0.91277 0.95512 0.0
H551 H 0.28425 0.90051 0.96383 0.0
H552 H 0.33055 0.82208 0.9702 0.0
H553 H 0.35167 0.85406 0.96015 0.0
H554 H 0.34396 0.84552 0.0015 0.0
H555 H 0.39913 0.93486 0.95018 0.0
H556 H 0.37799 0.92289 0.05003 0.0
H557 H 0.34013 0.90223 0.91659 0.0
H558 H 0.34955 0.87939 0.91888 0.0
H559 H 0.37185 0.91084 0.90802 0.0
H560 H 0.31485 0.88697 0.03933 0.0
H561 H 0.33937 0.8918 0.06701 0.0
H562 H 0.32521 0.86474 0.04094 0.0
C563 C 0.16997 0.45851 0.97145 0.0
C564 C 0.16709 0.43473 0.97498 0.0
C565 C 0.14924 0.46165 0.96773 0.0
C566 C 0.12516 0.44049 0.96745 0.0
C567 C 0.12247 0.41642 0.96628 0.0
C568 C 0.14353 0.41382 0.97012 0.0
C569 C 0.15308 0.48768 0.96877 0.0
C570 C 0.09719 0.39333 0.96531 0.0
C571 C 0.07802 0.44598 0.0191 0.0
C572 C 0.06286 0.44862 0.99604 0.0
C573 C 0.0983 0.44347 0.0099 0.0
C574 C 0.10359 0.44338 0.97666 0.0
C575 C 0.08851 0.44616 0.95312 0.0
C576 C 0.06832 0.44887 0.96311 0.0
C577 C 0.11403 0.44082 0.03593 0.0
C578 C 0.09353 0.44598 0.91752 0.0
H579 H 0.18811 0.47478 0.97523 0.0
H580 H 0.1413 0.3954 0.97239 0.0
H581 H 0.13958 0.48934 0.95281 0.0
H582 H 0.15021 0.49218 0.99383 0.0
H583 H 0.17219 0.50166 0.96148 0.0
H584 H 0.09828 0.37675 0.95736 0.0
H585 H 0.08914 0.38977 0.98989 0.0
H586 H 0.08435 0.3957 0.94889 0.0
H587 H 0.07405 0.44591 0.0446 0.0
H588 H 0.05662 0.45079 0.94516 0.0
H589 H 0.13364 0.45585 0.03386 0.0
H590 H 0.11367 0.42284 0.03289 0.0
H591 H 0.10758 0.44161 0.06067 0.0
H592 H 0.11288 0.46044 0.91219 0.0
H593 H 0.08065 0.44927 0.90232 0.0
H594 H 0.09158 0.42778 0.91052 0.0
C595 C 0.56213 0.7178 0.97073 0.0
C596 C 0.56873 0.72916 0.00138 0.0
C597 C 0.55828 0.69372 0.96579 0.0
C598 C 0.56189 0.68115 0.99186 0.0
C599 C 0.56928 0.69276 0.02254 0.0
C600 C 0.5722 0.71641 0.02705 0.0
C601 C 0.55002 0.68158 0.93284 0.0
C602 C 0.57389 0.68013 0.05072 0.0
C603 C 0.53374 0.61107 0.98785 0.0
C604 C 0.55371 0.60911 0.97585 0.0
C605 C 0.53603 0.63452 0.99305 0.0
C606 C 0.55898 0.65621 0.9868 0.0
C607 C 0.57943 0.65421 0.9759 0.0
C608 C 0.57645 0.63065 0.9702 0.0
C609 C 0.51377 0.63609 0.00432 0.0
C610 C 0.6044 0.67696 0.97003 0.0
H611 H 0.55952 0.72752 0.95076 0.0
H612 H 0.57645 0.72452 0.05115 0.0
H613 H 0.56434 0.67788 0.92261 0.0
H614 H 0.5327 0.66339 0.93495 0.0
H615 H 0.54665 0.6933 0.91563 0.0
H616 H 0.58029 0.6921 0.07278 0.0
H617 H 0.55663 0.66266 0.05648 0.0
H618 H 0.58811 0.67503 0.04426 0.0
H619 H 0.51615 0.59435 0.99201 0.0
H620 H 0.59199 0.62906 0.96127 0.0
H621 H 0.50858 0.64562 0.98582 0.0
H622 H 0.51836 0.64731 0.02691 0.0
H623 H 0.49746 0.61746 0.00875 0.0
H624 H 0.6027 0.68832 0.95064 0.0
H625 H 0.61869 0.67211 0.96288 0.0
H626 H 0.61096 0.68877 0.99219 0.0
C627 C 0.85883 0.26539 0.99327 0.0
C628 C 0.8349 0.26032 0.0014 0.0
C629 C 0.87909 0.28959 0.99601 0.0
C630 C 0.87529 0.30899 0.00754 0.0
C631 C 0.85129 0.30392 0.01629 0.0
C632 C 0.83138 0.27967 0.013 0.0
C633 C 0.90452 0.29445 0.98645 0.0
C634 C 0.8466 0.32414 0.02893 0.0
C635 C 0.93059 0.36277 0.04796 0.0
C636 C 0.93932 0.38074 0.02364 0.0
C637 C 0.90944 0.3396 0.04315 0.0
C638 C 0.89677 0.33415 0.01314 0.0
C639 C 0.90489 0.35245 0.98877 0.0
C640 C 0.92615 0.37575 0.99439 0.0
C641 C 0.90095 0.32078 0.07 0.0
C642 C 0.89161 0.34715 0.95653 0.0
H643 H 0.86159 0.25052 0.98418 0.0
H644 H 0.81284 0.2761 0.01841 0.0
H645 H 0.91253 0.3094 0.96822 0.0
H646 H 0.91714 0.30096 0.00783 0.0
H647 H 0.90409 0.2776 0.97628 0.0
H648 H 0.82671 0.3171 0.03428 0.0
H649 H 0.85764 0.33249 0.05135 0.0
H650 H 0.8527 0.33923 0.01097 0.0
H651 H 0.94048 0.36674 0.07088 0.0
H652 H 0.9329 0.38966 0.97563 0.0
H653 H 0.902 0.30421 0.062 0.0
H654 H 0.88129 0.31439 0.0759 0.0
H655 H 0.91235 0.3284 0.09238 0.0
H656 H 0.89372 0.33269 0.94332 0.0
H657 H 0.89896 0.364 0.94128 0.0
H658 H 0.87144 0.33973 0.96 0.0
C659 C 0.72622 0.58173 0.01413 0.0
C660 C 0.72946 0.56101 0.01108 0.0
C661 C 0.70229 0.57876 0.01635 0.0
C662 C 0.6812 0.55457 0.01421 0.0
C663 C 0.68455 0.5336 0.01268 0.0
C664 C 0.70862 0.5371 0.01146 0.0
C665 C 0.69955 0.60156 0.01902 0.0
C666 C 0.66273 0.50751 0.00958 0.0
C667 C 0.61509 0.54219 0.02656 0.0
C668 C 0.60761 0.54263 0.99457 0.0
C669 C 0.63919 0.54654 0.03362 0.0
C670 C 0.65605 0.55128 0.00809 0.0
C671 C 0.64854 0.55174 0.97586 0.0
C672 C 0.62455 0.54747 0.96956 0.0
C673 C 0.64666 0.5461 0.06828 0.0
C674 C 0.66579 0.55649 0.94782 0.0
H675 H 0.74236 0.60023 0.01396 0.0
H676 H 0.71111 0.52106 0.00871 0.0
H677 H 0.69343 0.60508 0.99535 0.0
H678 H 0.6852 0.59871 0.03699 0.0
H679 H 0.7173 0.61835 0.02611 0.0
H680 H 0.66834 0.49318 0.01255 0.0
H681 H 0.64842 0.5043 0.02775 0.0
H682 H 0.65401 0.50497 0.98531 0.0
H683 H 0.60221 0.53863 0.04607 0.0
H684 H 0.61906 0.54791 0.94475 0.0
H685 H 0.66335 0.56409 0.07472 0.0
H686 H 0.6517 0.5314 0.07135 0.0
H687 H 0.63161 0.54265 0.08543 0.0
H688 H 0.68284 0.57485 0.95094 0.0
H689 H 0.65706 0.55622 0.92419 0.0
H690 H 0.67156 0.54219 0.94714 0.0
C691 C 0.41306 0.13552 0.01252 0.0
C692 C 0.43236 0.16025 0.01372 0.0
C693 C 0.41817 0.11594 0.01429 0.0
C694 C 0.44313 0.12135 0.01712 0.0
C695 C 0.46262 0.14628 0.01884 0.0
C696 C 0.45698 0.16543 0.01712 0.0
C697 C 0.39692 0.08946 0.0129 0.0
C698 C 0.48945 0.15277 0.02178 0.0
C699 C 0.44932 0.06974 0.05485 0.0
C700 C 0.45104 0.05714 0.02759 0.0
C701 C 0.44818 0.09153 0.05178 0.0
C702 C 0.4485 0.10078 0.02061 0.0
C703 C 0.45184 0.08908 0.99304 0.0
C704 C 0.45323 0.06728 0.99689 0.0
C705 C 0.4453 0.10388 0.08179 0.0
C706 C 0.45262 0.09879 0.95948 0.0
H707 H 0.39407 0.13156 0.00956 0.0
H708 H 0.47202 0.18455 0.01701 0.0
H709 H 0.39947 0.07931 0.99243 0.0
H710 H 0.39668 0.07968 0.03538 0.0
H711 H 0.37863 0.08842 0.00998 0.0
H712 H 0.50223 0.17311 0.02459 0.0
H713 H 0.49207 0.14328 0.0428 0.0
H714 H 0.49479 0.14619 0.99988 0.0
H715 H 0.44828 0.0622 0.07874 0.0
H716 H 0.45478 0.05759 0.9759 0.0
H717 H 0.42659 0.10205 0.08176 0.0
H718 H 0.4591 0.12404 0.08209 0.0
H719 H 0.4476 0.09557 0.10435 0.0
H720 H 0.43385 0.0953 0.95256 0.0
H721 H 0.45865 0.08971 0.94124 0.0
H722 H 0.46538 0.11918 0.95883 0.0
C723 C 0.65622 0.16487 0.02933 0.0
C724 C 0.67712 0.16178 0.02858 0.0
C725 C 0.63218 0.14441 0.02849 0.0
C726 C 0.62888 0.12023 0.02569 0.0
C727 C 0.64979 0.11691 0.02322 0.0
C728 C 0.67374 0.13776 0.02507 0.0
C729 C 0.61033 0.14866 0.03138 0.0
C730 C 0.64684 0.09134 0.01912 0.0
C731 C 0.56934 0.06507 0.05513 0.0
C732 C 0.55582 0.05652 0.02626 0.0
C733 C 0.593 0.08633 0.05544 0.0
C734 C 0.60349 0.09844 0.02596 0.0
C735 C 0.58969 0.08978 0.99678 0.0
C736 C 0.5658 0.06908 0.99741 0.0
C737 C 0.60702 0.09549 0.08709 0.0
C738 C 0.60056 0.10159 0.96473 0.0
H739 H 0.65862 0.1834 0.03095 0.0
H740 H 0.68974 0.13516 0.02453 0.0
H741 H 0.59798 0.1409 0.00987 0.0
H742 H 0.59923 0.13883 0.05284 0.0
H743 H 0.61615 0.1687 0.03373 0.0
H744 H 0.66488 0.0921 0.01513 0.0
H745 H 0.6382 0.08014 0.04095 0.0
H746 H 0.63429 0.08146 0.99834 0.0
H747 H 0.56162 0.05485 0.0772 0.0
H748 H 0.5554 0.06181 0.97499 0.0
H749 H 0.61322 0.1155 0.09071 0.0
H750 H 0.6239 0.09367 0.0866 0.0
H751 H 0.59562 0.08498 0.10805 0.0
H752 H 0.60674 0.12172 0.96554 0.0
H753 H 0.58711 0.09284 0.94438 0.0
H754 H 0.61717 0.09984 0.95971 0.0
C755 C 0.83571 0.48587 0.02875 0.0
C756 C 0.8376 0.50935 0.03172 0.0
C757 C 0.85668 0.48342 0.0239 0.0
C758 C 0.88023 0.50499 0.02122 0.0
C759 C 0.88236 0.5288 0.02349 0.0
C760 C 0.86101 0.53071 0.02887 0.0
C761 C 0.85355 0.45767 0.02145 0.0
C762 C 0.90717 0.55222 0.02025 0.0
C763 C 0.93545 0.49525 0.03462 0.0
C764 C 0.9417 0.49304 0.00277 0.0
C765 C 0.91603 0.5001 0.04102 0.0
C766 C 0.90235 0.50232 0.01496 0.0
C767 C 0.90865 0.50011 0.98279 0.0
C768 C 0.92833 0.49567 0.97711 0.0
C769 C 0.90992 0.5025 0.07564 0.0
C770 C 0.89427 0.50189 0.95433 0.0
H771 H 0.81766 0.46922 0.03001 0.0
H772 H 0.8627 0.54891 0.03129 0.0
H773 H 0.85973 0.45494 0.99743 0.0
H774 H 0.86533 0.45548 0.03993 0.0
H775 H 0.834 0.44279 0.02488 0.0
H776 H 0.90569 0.5693 0.02258 0.0
H777 H 0.92026 0.55278 0.03905 0.0
H778 H 0.91531 0.55234 0.99641 0.0
H779 H 0.94589 0.49348 0.05451 0.0
H780 H 0.93302 0.49388 0.95243 0.0
H781 H 0.89091 0.48735 0.08116 0.0
H782 H 0.91016 0.52036 0.07931 0.0
H783 H 0.92316 0.50165 0.09307 0.0
H784 H 0.8747 0.48659 0.95519 0.0
H785 H 0.90219 0.50075 0.93079 0.0
H786 H 0.89402 0.51964 0.95549 0.0
C787 C 0.50843 0.33667 0.99406 0.0
C788 C 0.48774 0.31863 0.01062 0.0
C789 C 0.51096 0.35992 0.98758 0.0
C790 C 0.49251 0.36519 0.99841 0.0
C791 C 0.47051 0.34623 0.01244 0.0
C792 C 0.46838 0.32306 0.01842 0.0
C793 C 0.53447 0.37955 0.97208 0.0
C794 C 0.45034 0.35115 0.02412 0.0
C795 C 0.51285 0.4272 0.03789 0.0
C796 C 0.50555 0.43875 0.01493 0.0
C797 C 0.50984 0.40372 0.03186 0.0
C798 C 0.49867 0.39134 0.00238 0.0
C799 C 0.49214 0.40337 0.97847 0.0
C800 C 0.496 0.42731 0.98492 0.0
C801 C 0.51748 0.39171 0.05779 0.0
C802 C 0.47999 0.39052 0.94698 0.0
H803 H 0.52307 0.33288 0.98723 0.0
H804 H 0.45227 0.30895 0.03093 0.0
H805 H 0.53054 0.39098 0.95514 0.0
H806 H 0.54727 0.39217 0.99115 0.0
H807 H 0.54409 0.37121 0.95879 0.0
H808 H 0.43277 0.33363 0.02878 0.0
H809 H 0.45652 0.36213 0.04698 0.0
H810 H 0.44661 0.36219 0.00626 0.0
H811 H 0.52041 0.43637 0.06098 0.0
H812 H 0.49027 0.43644 0.96738 0.0
H813 H 0.52974 0.38518 0.04756 0.0
H814 H 0.50079 0.37523 0.06735 0.0
H815 H 0.52743 0.40462 0.0783 0.0
H816 H 0.49156 0.38405 0.93455 0.0
H817 H 0.47694 0.40284 0.93049 0.0
H818 H 0.46178 0.37382 0.9518 0.0
C819 C 0.16928 0.65318 0.00777 0.0
C820 C 0.16662 0.67161 0.99185 0.0
C821 C 0.14861 0.62991 0.01387 0.0
C822 C 0.12488 0.62497 0.00326 0.0
C823 C 0.12184 0.64435 0.99007 0.0
C824 C 0.14286 0.66756 0.98453 0.0
C825 C 0.15257 0.60993 0.0286 0.0
C826 C 0.09678 0.63987 0.97875 0.0
C827 C 0.08327 0.56314 0.96279 0.0
C828 C 0.0647 0.55116 0.9857 0.0
C829 C 0.10346 0.58674 0.969 0.0
C830 C 0.10485 0.59884 0.99872 0.0
C831 C 0.08664 0.58639 0.02262 0.0
C832 C 0.06674 0.56238 0.01591 0.0
C833 C 0.12269 0.59917 0.94302 0.0
C834 C 0.08755 0.59889 0.05441 0.0
H835 H 0.1877 0.65662 0.01415 0.0
H836 H 0.14083 0.68194 0.97248 0.0
H837 H 0.13746 0.5984 0.04554 0.0
H838 H 0.1524 0.59745 0.00911 0.0
H839 H 0.17064 0.61793 0.0417 0.0
H840 H 0.09677 0.65758 0.97485 0.0
H841 H 0.09176 0.62932 0.95554 0.0
H842 H 0.0822 0.62859 0.99645 0.0
H843 H 0.08157 0.55426 0.93949 0.0
H844 H 0.05212 0.55303 0.03344 0.0
H845 H 0.14156 0.60551 0.95299 0.0
H846 H 0.12228 0.61582 0.93418 0.0
H847 H 0.11954 0.58659 0.92207 0.0
H848 H 0.10573 0.60541 0.06664 0.0
H849 H 0.07253 0.58631 0.07083 0.0
H850 H 0.08568 0.61552 0.05006 0.0
C851 C 0.32512 0.46552 0.99887 0.0
C852 C 0.32245 0.48431 0.98377 0.0
C853 C 0.34765 0.4653 0.99732 0.0
C854 C 0.3682 0.48484 0.98151 0.0
C855 C 0.36491 0.50242 0.96381 0.0
C856 C 0.34196 0.5016 0.96459 0.0
C857 C 0.34984 0.44485 0.01385 0.0
C858 C 0.38607 0.52301 0.9456 0.0
C859 C 0.43103 0.50626 0.02093 0.0
C860 C 0.44288 0.49927 0.99795 0.0
C861 C 0.40684 0.5018 0.01556 0.0
C862 C 0.39372 0.48898 0.9871 0.0
C863 C 0.40554 0.48147 0.96398 0.0
C864 C 0.43021 0.48717 0.96943 0.0
C865 C 0.39554 0.51127 0.04017 0.0
C866 C 0.39263 0.46733 0.93346 0.0
H867 H 0.31015 0.4517 0.01325 0.0
H868 H 0.33971 0.51535 0.95125 0.0
H869 H 0.36025 0.43848 0.9985 0.0
H870 H 0.3603 0.45199 0.03694 0.0
H871 H 0.33135 0.42868 0.01924 0.0
H872 H 0.38043 0.53518 0.9329 0.0
H873 H 0.40153 0.53463 0.96262 0.0
H874 H 0.39326 0.51496 0.9275 0.0
H875 H 0.44091 0.51567 0.04296 0.0
H876 H 0.43929 0.48144 0.95182 0.0
H877 H 0.37921 0.4954 0.05135 0.0
H878 H 0.38897 0.52294 0.02816 0.0
H879 H 0.4089 0.52246 0.05971 0.0
H880 H 0.39366 0.44996 0.93202 0.0
H881 H 0.40259 0.47863 0.91217 0.0
H882 H 0.37287 0.46235 0.93172 0.0
C883 C 0.50929 0.83671 0.96741 0.0
C884 C 0.4977 0.81905 0.99153 0.0
C885 C 0.50716 0.85818 0.96677 0.0
C886 C 0.49345 0.86202 0.99114 0.0
C887 C 0.48219 0.8444 0.01596 0.0
C888 C 0.48423 0.8229 0.01563 0.0
C889 C 0.51951 0.87671 0.94003 0.0
C890 C 0.46813 0.84834 0.04284 0.0
C891 C 0.51178 0.92933 0.00213 0.0
C892 C 0.49362 0.93075 0.98364 0.0
C893 C 0.51113 0.90673 0.00635 0.0
C894 C 0.49194 0.8851 0.99126 0.0
C895 C 0.47268 0.88619 0.97402 0.0
C896 C 0.47369 0.90921 0.97046 0.0
C897 C 0.53184 0.9064 0.02532 0.0
C898 C 0.45189 0.86335 0.95783 0.0
H899 H 0.51965 0.8335 0.94883 0.0
H900 H 0.47544 0.80911 0.03431 0.0
H901 H 0.50546 0.87935 0.92665 0.0
H902 H 0.53328 0.89506 0.95045 0.0
H903 H 0.52913 0.87074 0.92264 0.0
H904 H 0.46146 0.83338 0.06111 0.0
H905 H 0.48013 0.86645 0.05518 0.0
H906 H 0.45191 0.849 0.03265 0.0
H907 H 0.52705 0.9462 0.01248 0.0
H908 H 0.45972 0.91057 0.95618 0.0
H909 H 0.54433 0.90405 0.00842 0.0
H910 H 0.52433 0.89056 0.04223 0.0
H911 H 0.54307 0.9239 0.03938 0.0
H912 H 0.45941 0.85758 0.93735 0.0
H913 H 0.43702 0.86671 0.94845 0.0
H914 H 0.44361 0.84765 0.97497 0.0
C915 C 0.94216 0.18884 0.31939 0.0
C916 C 0.93857 0.16482 0.31498 0.0
C917 C 0.96579 0.20979 0.31609 0.0
C918 C 0.9862 0.20651 0.30849 0.0
C919 C 0.98212 0.18254 0.30054 0.0
C920 C 0.95833 0.16196 0.30393 0.0
C921 C 0.96936 0.23517 0.32404 0.0
C922 C 0.00324 0.17813 0.29208 0.0
C923 C 0.04959 0.26449 0.30065 0.0
C924 C 0.05817 0.26793 0.33276 0.0
C925 C 0.02633 0.24421 0.29192 0.0
C926 C 0.01175 0.22693 0.31579 0.0
C927 C 0.02102 0.22972 0.34783 0.0
C928 C 0.04398 0.25033 0.35597 0.0
C929 C 0.01697 0.24181 0.25758 0.0
C930 C 0.00639 0.21125 0.37382 0.0
H931 H 0.92683 0.19116 0.32736 0.0
H932 H 0.95579 0.14347 0.30062 0.0
H933 H 0.97797 0.24109 0.34844 0.0
H934 H 0.98205 0.24915 0.30657 0.0
H935 H 0.95147 0.23518 0.32395 0.0
H936 H -0.00351 0.16004 0.27929 0.0
H937 H 0.01706 0.19319 0.27672 0.0
H938 H 0.01285 0.17784 0.31465 0.0
H939 H 0.06063 0.27811 0.28266 0.0
H940 H 0.05082 0.25275 0.38067 0.0
H941 H 0.00144 0.24581 0.25693 0.0
H942 H 0.00962 0.22254 0.24833 0.0
H943 H 0.0317 0.25485 0.24111 0.0
H944 H 0.98894 0.21152 0.37836 0.0
H945 H 0.01694 0.21533 0.39697 0.0
H946 H 0.00121 0.19214 0.3658 0.0
C947 C 0.8054 0.74748 0.31411 0.0
C948 C 0.82986 0.76734 0.31408 0.0
C949 C 0.78536 0.75159 0.3096 0.0
C950 C 0.79001 0.77615 0.30489 0.0
C951 C 0.81465 0.79567 0.30052 0.0
C952 C 0.83436 0.79105 0.30531 0.0
C953 C 0.75936 0.73014 0.31398 0.0
C954 C 0.82043 0.82203 0.29483 0.0
C955 C 0.73331 0.78438 0.29844 0.0
C956 C 0.72966 0.78766 0.33112 0.0
C957 C 0.75348 0.78148 0.289 0.0
C958 C 0.77026 0.78212 0.31285 0.0
C959 C 0.76735 0.7869 0.34559 0.0
C960 C 0.74704 0.78947 0.35428 0.0
C961 C 0.75617 0.77666 0.25388 0.0
C962 C 0.78511 0.7883 0.3718 0.0
H963 H 0.80191 0.72903 0.32021 0.0
H964 H 0.85324 0.80652 0.30513 0.0
H965 H 0.75286 0.73128 0.33854 0.0
H966 H 0.74634 0.73097 0.29624 0.0
H967 H 0.75854 0.7119 0.31138 0.0
H968 H 0.83903 0.83336 0.28392 0.0
H969 H 0.80627 0.82252 0.27885 0.0
H970 H 0.82035 0.83078 0.31829 0.0
H971 H 0.71987 0.783 0.2805 0.0
H972 H 0.74447 0.79241 0.3795 0.0
H973 H 0.75115 0.75693 0.25051 0.0
H974 H 0.7757 0.78829 0.24615 0.0
H975 H 0.744 0.78043 0.23791 0.0
H976 H 0.78432 0.77008 0.37381 0.0
H977 H 0.78079 0.79328 0.39579 0.0
H978 H 0.80443 0.80234 0.36563 0.0
C979 C 0.20881 0.04152 0.31408 0.0
C980 C 0.23273 0.06137 0.32085 0.0
C981 C 0.20455 0.01735 0.3098 0.0
C982 C 0.22467 0.01291 0.31272 0.0
C983 C 0.24899 0.03288 0.31858 0.0
C984 C 0.25278 0.05699 0.32232 0.0
C985 C 0.1784 -0.00354 0.30328 0.0
C986 C 0.27084 0.02865 0.32186 0.0
C987 C 0.21156 0.94784 0.33194 0.0
C988 C 0.21463 0.93981 0.30151 0.0
C989 C 0.21455 0.97166 0.33601 0.0
C990 C 0.22036 0.98737 0.30889 0.0
C991 C 0.22245 0.97889 0.27796 0.0
C992 C 0.21972 0.95525 0.27468 0.0
C993 C 0.21221 0.98029 0.36936 0.0
C994 C 0.22798 -0.00503 0.24843 0.0
H995 H 0.19309 0.04461 0.31375 0.0
H996 H 0.27127 0.07231 0.3275 0.0
H997 H 0.17787 0.9857 0.28146 0.0
H998 H 0.17201 0.98344 0.32388 0.0
H999 H 0.16511 0.00335 0.29969 0.0
H1000 H 0.28853 0.0462 0.32663 0.0
H1001 H 0.26764 0.01566 0.34197 0.0
H1002 H 0.27282 0.01989 0.29946 0.0
H1003 H 0.20766 0.93587 0.35265 0.0
H1004 H 0.22173 0.94888 0.25101 0.0
H1005 H 0.19832 0.98656 0.36908 0.0
H1006 H 0.23023 -0.00354 0.37697 0.0
H1007 H 0.20665 0.96544 0.38764 0.0
H1008 H 0.21405 0.0011 0.24577 0.0
H1009 H 0.22794 0.98511 0.22588 0.0
H1010 H 0.24643 0.01195 0.25126 0.0
C1011 C 0.5108 0.60633 0.35696 0.0
C1012 C 0.49889 0.59796 0.32699 0.0
C1013 C 0.53076 0.63065 0.36056 0.0
C1014 C 0.53853 0.64671 0.3336 0.0
C1015 C 0.52583 0.63852 0.30368 0.0
C1016 C 0.50616 0.61419 0.30075 0.0
C1017 C 0.54402 0.63895 0.39282 0.0
C1018 C 0.53355 0.65512 0.27447 0.0
C1019 C 0.58261 0.71514 0.35001 0.0
C1020 C 0.60544 0.71614 0.34637 0.0
C1021 C 0.56039 0.69266 0.34521 0.0
C1022 C 0.5614 0.67116 0.33588 0.0
C1023 C 0.58451 0.67265 0.33004 0.0
C1024 C 0.60634 0.69513 0.33589 0.0
C1025 C 0.53602 0.69161 0.35186 0.0
C1026 C 0.58621 0.65026 0.31897 0.0
H1027 H 0.50484 0.59374 0.37725 0.0
H1028 H 0.49637 0.60776 0.27779 0.0
H1029 H 0.56326 0.64234 0.39052 0.0
H1030 H 0.54535 0.65674 0.40058 0.0
H1031 H 0.53453 0.62492 0.41193 0.0
H1032 H 0.52011 0.64672 0.25404 0.0
H1033 H 0.53538 0.67339 0.28072 0.0
H1034 H 0.55198 0.65865 0.26626 0.0
H1035 H 0.58216 0.73151 0.35845 0.0
H1036 H 0.62419 0.69618 0.333 0.0
H1037 H 0.52783 0.68074 0.37409 0.0
H1038 H 0.52259 0.68201 0.33179 0.0
H1039 H 0.53831 0.71043 0.35532 0.0
H1040 H 0.57939 0.6361 0.33827 0.0
H1041 H 0.60551 0.65511 0.313 0.0
H1042 H 0.57424 0.64157 0.29732 0.0
C1043 C 0.39172 0.91743 0.35591 0.0
C1044 C 0.39489 0.89656 0.35589 0.0
C1045 C 0.36793 0.91473 0.35835 0.0
C1046 C 0.34692 0.89058 0.36027 0.0
C1047 C 0.35032 0.86977 0.36356 0.0
C1048 C 0.37426 0.87303 0.3614 0.0
C1049 C 0.36516 0.9375 0.35577 0.0
C1050 C 0.32856 0.84366 0.36565 0.0
C1051 C 0.28142 0.88065 0.36792 0.0
C1052 C 0.27386 0.87773 0.33534 0.0
C1053 C 0.30528 0.88516 0.37663 0.0
C1054 C 0.32179 0.88657 0.3522 0.0
C1055 C 0.31412 0.88342 0.31936 0.0
C1056 C 0.29037 0.87917 0.31137 0.0
C1057 C 0.3129 0.88857 0.41184 0.0
C1058 C 0.33099 0.8844 0.29252 0.0
H1059 H 0.40765 0.93571 0.35214 0.0
H1060 H 0.37645 0.85674 0.36116 0.0
H1061 H 0.3589 0.93853 0.33094 0.0
H1062 H 0.35095 0.93647 0.37278 0.0
H1063 H 0.38297 0.95486 0.3608 0.0
H1064 H 0.33432 0.83037 0.37441 0.0
H1065 H 0.31411 0.84294 0.38194 0.0
H1066 H 0.32002 0.8374 0.34127 0.0
H1067 H 0.2688 0.87967 0.38658 0.0
H1068 H 0.28469 0.87685 0.28617 0.0
H1069 H 0.32907 0.90744 0.41589 0.0
H1070 H 0.31883 0.87505 0.4188 0.0
H1071 H 0.29766 0.88618 0.42799 0.0
H1072 H 0.34828 0.90275 0.29279 0.0
H1073 H 0.32211 0.88137 0.26826 0.0
H1074 H 0.33638 0.87001 0.2963 0.0
C1075 C 0.08274 0.47342 0.34896 0.0
C1076 C 0.1014 0.49713 0.34032 0.0
C1077 C 0.08766 0.45367 0.35001 0.0
C1078 C 0.11156 0.45793 0.34156 0.0
C1079 C 0.13021 0.48179 0.33212 0.0
C1080 C 0.12488 0.50113 0.33166 0.0
C1081 C 0.0675 0.42838 0.36061 0.0
C1082 C 0.15578 0.48693 0.32263 0.0
C1083 C 0.12714 0.41272 0.38023 0.0
C1084 C 0.12089 0.39513 0.35542 0.0
C1085 C 0.12585 0.43427 0.37524 0.0
C1086 C 0.11745 0.43776 0.34494 0.0
C1087 C 0.11269 0.4208 0.3191 0.0
C1088 C 0.11467 0.39956 0.32464 0.0
C1089 C 0.13188 0.45242 0.40301 0.0
C1090 C 0.10389 0.42417 0.28642 0.0
H1091 H 0.06452 0.47045 0.35511 0.0
H1092 H 0.13902 0.51947 0.32406 0.0
H1093 H 0.06407 0.41425 0.34164 0.0
H1094 H 0.07356 0.42284 0.38281 0.0
H1095 H 0.04979 0.42804 0.36566 0.0
H1096 H 0.16839 0.50683 0.31698 0.0
H1097 H 0.16428 0.48157 0.34239 0.0
H1098 H 0.15435 0.47554 0.30107 0.0
H1099 H 0.13214 0.4091 0.40394 0.0
H1100 H 0.10977 0.3857 0.30565 0.0
H1101 H 0.11457 0.45158 0.41151 0.0
H1102 H 0.14452 0.47173 0.39506 0.0
H1103 H 0.14071 0.44833 0.42371 0.0
H1104 H 0.08455 0.42052 0.28832 0.0
H1105 H 0.1043 0.41133 0.26789 0.0
H1106 H 0.11548 0.44357 0.27812 0.0
C1107 C 0.3325 0.47434 0.38416 0.0
C1108 C 0.34418 0.48834 0.3568 0.0
C1109 C 0.30904 0.45294 0.38154 0.0
C1110 C 0.29689 0.44609 0.35103 0.0
C1111 C 0.30896 0.45997 0.32326 0.0
C1112 C 0.33268 0.48081 0.32645 0.0
C1113 C 0.29699 0.4381 0.41144 0.0
C1114 C 0.29634 0.45354 0.29045 0.0
C1115 C 0.24249 0.38254 0.33135 0.0
C1116 C 0.22255 0.38681 0.33495 0.0
C1117 C 0.26677 0.4013 0.33844 0.0
C1118 C 0.27112 0.42509 0.34805 0.0
C1119 C 0.25087 0.42933 0.35224 0.0
C1120 C 0.22664 0.40987 0.34617 0.0
C1121 C 0.28777 0.39584 0.33482 0.0
C1122 C 0.25489 0.45467 0.36162 0.0
H1123 H 0.34158 0.48038 0.40759 0.0
H1124 H 0.34178 0.49196 0.30547 0.0
H1125 H 0.28083 0.4402 0.41797 0.0
H1126 H 0.28995 0.41802 0.40678 0.0
H1127 H 0.31003 0.44421 0.43242 0.0
H1128 H 0.30846 0.46605 0.27125 0.0
H1129 H 0.29077 0.43411 0.28364 0.0
H1130 H 0.27917 0.45484 0.29135 0.0
H1131 H 0.23903 0.36445 0.32303 0.0
H1132 H 0.21102 0.41295 0.34885 0.0
H1133 H 0.2999 0.40219 0.35668 0.0
H1134 H 0.29938 0.40616 0.31396 0.0
H1135 H 0.28094 0.3757 0.33089 0.0
H1136 H 0.26581 0.46125 0.38444 0.0
H1137 H 0.23713 0.45465 0.3648 0.0
H1138 H 0.26577 0.46828 0.34265 0.0
C1139 C 0.52112 0.85867 0.36942 0.0
C1140 C 0.4989 0.84045 0.35511 0.0
C1141 C 0.54294 0.85724 0.36682 0.0
C1142 C 0.54239 0.83728 0.34916 0.0
C1143 C 0.52009 0.81933 0.33384 0.0
C1144 C 0.49859 0.82106 0.3372 0.0
C1145 C 0.56639 0.87668 0.38352 0.0
C1146 C 0.51883 0.79807 0.31422 0.0
C1147 C 0.60043 0.84093 0.31488 0.0
C1148 C 0.60468 0.8259 0.33624 0.0
C1149 C 0.5809 0.84573 0.31967 0.0
C1150 C 0.565 0.83499 0.34626 0.0
C1151 C 0.5695 0.82028 0.36838 0.0
C1152 C 0.58941 0.81601 0.3632 0.0
C1153 C 0.57683 0.86167 0.29569 0.0
C1154 C 0.55284 0.80846 0.39696 0.0
H1155 H 0.5212 0.87354 0.38347 0.0
H1156 H 0.48135 0.80707 0.32603 0.0
H1157 H 0.57216 0.86778 0.40223 0.0
H1158 H 0.58173 0.88541 0.36593 0.0
H1159 H 0.56395 0.89148 0.39525 0.0
H1160 H 0.50014 0.78599 0.30334 0.0
H1161 H 0.53261 0.80539 0.29451 0.0
H1162 H 0.52358 0.78649 0.32977 0.0
H1163 H 0.61237 0.84896 0.2942 0.0
H1164 H 0.59269 0.80448 0.37984 0.0
H1165 H 0.57553 0.87676 0.30847 0.0
H1166 H 0.55899 0.85022 0.28256 0.0
H1167 H 0.59195 0.87015 0.27771 0.0
H1168 H 0.55125 0.82276 0.41135 0.0
H1169 H 0.55975 0.79885 0.41299 0.0
H1170 H 0.5339 0.7947 0.38832 0.0
C1171 C 0.14584 0.65817 0.33506 0.0
C1172 C 0.16154 0.65498 0.35668 0.0
C1173 C 0.14537 0.68049 0.33431 0.0
C1174 C 0.16164 0.70031 0.35487 0.0
C1175 C 0.17758 0.69731 0.37667 0.0
C1176 C 0.17713 0.67455 0.37757 0.0
C1177 C 0.12759 0.68285 0.31149 0.0
C1178 C 0.19509 0.71816 0.3991 0.0
C1179 C 0.18183 0.7675 0.33818 0.0
C1180 C 0.16883 0.77218 0.36212 0.0
C1181 C 0.17863 0.74361 0.3342 0.0
C1182 C 0.16188 0.72421 0.3544 0.0
C1183 C 0.14743 0.72852 0.37695 0.0
C1184 C 0.15122 0.75254 0.3807 0.0
C1185 C 0.19417 0.73944 0.30976 0.0
C1186 C 0.12885 0.70807 0.39821 0.0
H1187 H 0.13405 0.64331 0.31839 0.0
H1188 H 0.18893 0.67207 0.39477 0.0
H1189 H 0.11684 0.69001 0.32457 0.0
H1190 H 0.13815 0.69639 0.29235 0.0
H1191 H 0.11433 0.66482 0.29976 0.0
H1192 H 0.20687 0.71305 0.41381 0.0
H1193 H 0.20736 0.73493 0.3849 0.0
H1194 H 0.18436 0.72328 0.41572 0.0
H1195 H 0.19517 0.78264 0.32352 0.0
H1196 H 0.14059 0.75599 0.39862 0.0
H1197 H 0.18234 0.72282 0.29455 0.0
H1198 H 0.20783 0.73588 0.32259 0.0
H1199 H 0.20439 0.7557 0.29376 0.0
H1200 H 0.11659 0.69128 0.38351 0.0
H1201 H 0.11712 0.71386 0.41173 0.0
H1202 H 0.13879 0.70272 0.41595 0.0
C1203 C 0.83589 0.98517 0.32957 0.0
C1204 C 0.8335 0.0052 0.31853 0.0
C1205 C 0.81494 0.96252 0.33722 0.0
C1206 C 0.79111 0.95993 0.3335 0.0
C1207 C 0.78874 0.9808 0.32529 0.0
C1208 C 0.81003 0.00323 0.3177 0.0
C1209 C 0.81822 0.94073 0.34605 0.0
C1210 C 0.76363 0.97881 0.32138 0.0
C1211 C 0.7425 0.90047 0.29436 0.0
C1212 C 0.72712 0.88789 0.3203 0.0
C1213 C 0.76359 0.92366 0.29874 0.0
C1214 C 0.76932 0.93474 0.3299 0.0
C1215 C 0.75419 0.92193 0.35653 0.0
C1216 C 0.7332 0.89832 0.35145 0.0
C1217 C 0.77944 0.93646 0.26973 0.0
C1218 C 0.75979 0.93344 0.38996 0.0
H1219 H 0.85414 0.98694 0.33117 0.0
H1220 H 0.80814 0.01877 0.30941 0.0
H1221 H 0.8052 0.92953 0.36534 0.0
H1222 H 0.81408 0.92844 0.32454 0.0
H1223 H 0.8375 0.94684 0.35429 0.0
H1224 H 0.76503 -0.00261 0.32152 0.0
H1225 H 0.75517 0.96945 0.29799 0.0
H1226 H 0.75094 0.96746 0.34088 0.0
H1227 H 0.73793 0.89215 0.27035 0.0
H1228 H 0.72114 0.88848 0.37143 0.0
H1229 H 0.79894 0.94125 0.27444 0.0
H1230 H 0.77942 0.95406 0.26513 0.0
H1231 H 0.77277 0.92475 0.24746 0.0
H1232 H 0.77904 0.93886 0.39733 0.0
H1233 H 0.74679 0.92062 0.40826 0.0
H1234 H 0.7585 0.95066 0.38986 0.0
C1235 C 0.00659 0.82906 0.34136 0.0
C1236 C 0.98672 0.80968 0.3244 0.0
C1237 C 0.02968 0.83034 0.34348 0.0
C1238 C 0.03301 0.81174 0.3282 0.0
C1239 C 0.01266 0.79139 0.31233 0.0
C1240 C 0.98962 0.79059 0.31063 0.0
C1241 C 0.05075 0.85215 0.36109 0.0
C1242 C 0.01549 0.77108 0.29611 0.0
C1243 C 0.10044 0.8341 0.30822 0.0
C1244 C 0.10808 0.82628 0.33548 0.0
C1245 C 0.0756 0.82834 0.3046 0.0
C1246 C 0.05808 0.81421 0.3286 0.0
C1247 C 0.06547 0.8051 0.35515 0.0
C1248 C 0.09037 0.81137 0.35836 0.0
C1249 C 0.06835 0.83843 0.276 0.0
C1250 C 0.0474 0.78979 0.38109 0.0
H1251 H 0.00421 0.84374 0.3521 0.0
H1252 H 0.97425 0.77571 0.29731 0.0
H1253 H 0.05863 0.84548 0.3801 0.0
H1254 H 0.06586 0.86327 0.34391 0.0
H1255 H 0.04478 0.86454 0.37258 0.0
H1256 H -0.00257 0.75549 0.28737 0.0
H1257 H 0.02807 0.77882 0.27518 0.0
H1258 H 0.02408 0.76365 0.31303 0.0
H1259 H 0.11402 0.84548 0.2904 0.0
H1260 H 0.09604 0.80487 0.37925 0.0
H1261 H 0.06364 0.85259 0.28445 0.0
H1262 H 0.05158 0.82335 0.26381 0.0
H1263 H 0.08348 0.84715 0.25807 0.0
H1264 H 0.04229 0.80173 0.39543 0.0
H1265 H 0.05531 0.78153 0.39783 0.0
H1266 H 0.03007 0.7746 0.37012 0.0
C1267 C 0.1924 0.18452 0.31656 0.0
C1268 C 0.17419 0.16189 0.32912 0.0
C1269 C 0.19038 0.20593 0.31996 0.0
C1270 C 0.16978 0.20443 0.3365 0.0
C1271 C 0.15261 0.18211 0.35164 0.0
C1272 C 0.15491 0.16095 0.3475 0.0
C1273 C 0.20904 0.22951 0.30349 0.0
C1274 C 0.13068 0.18001 0.36984 0.0
C1275 C 0.1689 0.26474 0.347 0.0
C1276 C 0.1568 0.26462 0.31835 0.0
C1277 C 0.17264 0.24475 0.35416 0.0
C1278 C 0.16359 0.22435 0.33228 0.0
C1279 C 0.14981 0.22359 0.30446 0.0
C1280 C 0.14687 0.24397 0.29765 0.0
C1281 C 0.18764 0.2463 0.3838 0.0
C1282 C 0.13946 0.20194 0.28083 0.0
H1283 H 0.20738 0.18514 0.30252 0.0
H1284 H 0.14116 0.14342 0.35772 0.0
H1285 H 0.20032 0.23248 0.28173 0.0
H1286 H 0.21493 0.24584 0.31976 0.0
H1287 H 0.22574 0.22873 0.29581 0.0
H1288 H 0.12171 0.16299 0.3848 0.0
H1289 H 0.1364 0.1965 0.38574 0.0
H1290 H 0.1167 0.17927 0.35234 0.0
H1291 H 0.17681 0.28107 0.36263 0.0
H1292 H 0.13755 0.24419 0.27548 0.0
H1293 H 0.20659 0.25089 0.3764 0.0
H1294 H 0.17924 0.22821 0.39638 0.0
H1295 H 0.18933 0.26089 0.40107 0.0
H1296 H 0.15493 0.20113 0.26871 0.0
H1297 H 0.12747 0.20343 0.26195 0.0
H1298 H 0.1284 0.18415 0.29371 0.0
C1299 C 0.62952 0.50488 0.68309 0.0
C1300 C 0.61159 0.49168 0.65905 0.0
C1301 C 0.65253 0.52523 0.67545 0.0
C1302 C 0.65815 0.53229 0.64275 0.0
C1303 C 0.64074 0.51827 0.61809 0.0
C1304 C 0.61746 0.49831 0.62657 0.0
C1305 C 0.67045 0.53973 0.70266 0.0
C1306 C 0.64643 0.52467 0.5829 0.0
C1307 C 0.70137 0.60092 0.6425 0.0
C1308 C 0.72433 0.60199 0.64648 0.0
C1309 C 0.67957 0.57826 0.6375 0.0
C1310 C 0.68088 0.55616 0.63567 0.0
C1311 C 0.70436 0.55755 0.6349 0.0
C1312 C 0.72599 0.58058 0.64062 0.0
C1313 C 0.65501 0.57778 0.63872 0.0
C1314 C 0.7065 0.53444 0.63153 0.0
H1315 H 0.62555 0.49934 0.70812 0.0
H1316 H 0.60377 0.48817 0.60781 0.0
H1317 H 0.68843 0.54039 0.69895 0.0
H1318 H 0.67415 0.55918 0.70292 0.0
H1319 H 0.66329 0.53154 0.72672 0.0
H1320 H 0.63323 0.50931 0.56672 0.0
H1321 H 0.64516 0.54148 0.57736 0.0
H1322 H 0.66561 0.52893 0.57741 0.0
H1323 H 0.70013 0.61762 0.64606 0.0
H1324 H 0.74377 0.58138 0.64312 0.0
H1325 H 0.6462 0.57042 0.66242 0.0
H1326 H 0.64214 0.56535 0.61964 0.0
H1327 H 0.65726 0.59659 0.63582 0.0
H1328 H 0.70395 0.52563 0.6555 0.0
H1329 H 0.72505 0.53891 0.62245 0.0
H1330 H 0.69196 0.52069 0.61493 0.0
C1331 C 0.49471 0.10632 0.6183 0.0
C1332 C 0.49832 0.10111 0.65017 0.0
C1333 C 0.47494 0.11052 0.61048 0.0
C1334 C 0.45874 0.10955 0.63517 0.0
C1335 C 0.46291 0.10499 0.66743 0.0
C1336 C 0.48267 0.10111 0.67445 0.0
C1337 C 0.47121 0.11572 0.57596 0.0
C1338 C 0.44622 0.10373 0.69473 0.0
C1339 C 0.41464 0.13429 0.64098 0.0
C1340 C 0.39218 0.1118 0.64192 0.0
C1341 C 0.4369 0.13447 0.63426 0.0
C1342 C 0.43635 0.11165 0.62813 0.0
C1343 C 0.41322 0.08948 0.62457 0.0
C1344 C 0.3914 0.08979 0.63194 0.0
C1345 C 0.46112 0.15856 0.63803 0.0
C1346 C 0.41161 0.06477 0.61763 0.0
H1347 H 0.50708 0.10681 0.5996 0.0
H1348 H 0.486 0.09819 0.69936 0.0
H1349 H 0.45282 0.10105 0.56683 0.0
H1350 H 0.47131 0.13364 0.57469 0.0
H1351 H 0.48579 0.11655 0.55976 0.0
H1352 H 0.45239 0.10039 0.71851 0.0
H1353 H 0.44575 0.12135 0.69643 0.0
H1354 H 0.42697 0.08849 0.69 0.0
H1355 H 0.41519 0.15132 0.64863 0.0
H1356 H 0.37388 0.07244 0.63225 0.0
H1357 H 0.47494 0.15963 0.62031 0.0
H1358 H 0.46886 0.15958 0.66261 0.0
H1359 H 0.45852 0.17491 0.63502 0.0
H1360 H 0.42549 0.06669 0.59947 0.0
H1361 H 0.39283 0.0507 0.60875 0.0
H1362 H 0.41558 0.05774 0.6402 0.0
C1363 C 0.91588 0.39069 0.66586 0.0
C1364 C 0.89513 0.39393 0.6634 0.0
C1365 C 0.91336 0.36702 0.66257 0.0
C1366 C 0.88966 0.34628 0.65582 0.0
C1367 C 0.86879 0.34949 0.65244 0.0
C1368 C 0.87173 0.3732 0.65659 0.0
C1369 C 0.93597 0.36414 0.66669 0.0
C1370 C 0.84328 0.32782 0.64477 0.0
C1371 C 0.88914 0.29186 0.61382 0.0
C1372 C 0.88365 0.27512 0.63923 0.0
C1373 C 0.89061 0.31485 0.61888 0.0
C1374 C 0.88696 0.32145 0.65027 0.0
C1375 C 0.88093 0.30447 0.67601 0.0
C1376 C 0.87911 0.28128 0.67009 0.0
C1377 C 0.8963 0.33217 0.59067 0.0
C1378 C 0.87711 0.31108 0.70986 0.0
H1379 H 0.934 0.4066 0.67107 0.0
H1380 H 0.85541 0.37527 0.65563 0.0
H1381 H 0.93258 0.3502 0.68558 0.0
H1382 H 0.93967 0.35716 0.64383 0.0
H1383 H 0.95281 0.38192 0.67357 0.0
H1384 H 0.82904 0.3336 0.64237 0.0
H1385 H 0.84371 0.31863 0.62186 0.0
H1386 H 0.8375 0.31375 0.66408 0.0
H1387 H 0.89229 0.28696 0.58979 0.0
H1388 H 0.87492 0.26833 0.68973 0.0
H1389 H 0.91419 0.34953 0.59505 0.0
H1390 H 0.88173 0.33746 0.58817 0.0
H1391 H 0.8975 0.32371 0.56749 0.0
H1392 H 0.89474 0.32689 0.71924 0.0
H1393 H 0.87099 0.29524 0.72668 0.0
H1394 H 0.86309 0.31719 0.70978 0.0
C1395 C 0.16131 0.9493 0.65413 0.0
C1396 C 0.16637 0.93172 0.66799 0.0
C1397 C 0.1791 0.97456 0.6544 0.0
C1398 C 0.20239 0.98229 0.66916 0.0
C1399 C 0.20744 0.96456 0.68376 0.0
C1400 C 0.1893 0.93926 0.68276 0.0
C1401 C 0.17322 -0.00723 0.63808 0.0
C1402 C 0.23212 0.97229 0.69997 0.0
C1403 C 0.26228 0.04024 0.65018 0.0
C1404 C 0.26593 0.05378 0.6788 0.0
C1405 C 0.24024 0.01768 0.64498 0.0
C1406 C 0.22183 0.00884 0.66913 0.0
C1407 C 0.22423 0.02421 0.69592 0.0
C1408 C 0.24648 0.04659 0.70054 0.0
C1409 C 0.23804 0.00204 0.61568 0.0
C1410 C 0.20473 0.01572 0.72177 0.0
H1411 H 0.14349 0.94309 0.64233 0.0
H1412 H 0.19305 0.92544 0.69314 0.0
H1413 H 0.1778 0.00883 0.6543 0.0
H1414 H 0.18475 0.00016 0.61618 0.0
H1415 H 0.15337 0.98404 0.63072 0.0
H1416 H 0.23266 0.95639 0.71136 0.0
H1417 H 0.24718 0.98068 0.68193 0.0
H1418 H 0.23609 0.98665 0.71882 0.0
H1419 H 0.27763 0.04582 0.63367 0.0
H1420 H 0.24964 0.05711 0.72284 0.0
H1421 H 0.21896 -0.00706 0.60537 0.0
H1422 H 0.24198 0.98713 0.62291 0.0
H1423 H 0.25137 0.01326 0.59659 0.0
H1424 H 0.1858 0.00658 0.71095 0.0
H1425 H 0.20718 0.03144 0.73741 0.0
H1426 H 0.2061 0.00187 0.73722 0.0
C1427 C 0.05719 0.24748 0.68697 0.0
C1428 C 0.06094 0.22695 0.68778 0.0
C1429 C 0.03328 0.24438 0.69 0.0
C1430 C 0.01269 0.2202 0.69405 0.0
C1431 C 0.01681 0.19995 0.69877 0.0
C1432 C 0.04083 0.20353 0.6954 0.0
C1433 C 0.02982 0.26661 0.6855 0.0
C1434 C -0.00445 0.17391 0.70377 0.0
C1435 C 0.94753 0.21157 0.70143 0.0
C1436 C 0.93964 0.2075 0.66896 0.0
C1437 C 0.97124 0.21561 0.7103 0.0
C1438 C 0.98718 0.21531 0.68615 0.0
C1439 C 0.9789 0.21045 0.65355 0.0
C1440 C 0.95538 0.20674 0.6454 0.0
C1441 C 0.97943 0.22074 0.74528 0.0
C1442 C -0.00494 0.20948 0.62702 0.0
H1443 H 0.0727 0.26576 0.68194 0.0
H1444 H 0.04333 0.18744 0.69602 0.0
H1445 H 0.02248 0.266 0.66077 0.0
H1446 H 0.01615 0.2663 0.70288 0.0
H1447 H 0.04756 0.28441 0.68857 0.0
H1448 H 0.00205 0.16164 0.71419 0.0
H1449 H 0.9814 0.17394 0.71994 0.0
H1450 H 0.98642 0.16586 0.68013 0.0
H1451 H 0.93548 0.21228 0.71974 0.0
H1452 H 0.94934 0.20334 0.62032 0.0
H1453 H -0.00526 0.24022 0.74809 0.0
H1454 H 0.98676 0.20853 0.75319 0.0
H1455 H 0.96407 0.21793 0.76149 0.0
H1456 H 0.01247 0.22765 0.62554 0.0
H1457 H 0.98566 0.20506 0.60299 0.0
H1458 H 0.00028 0.19519 0.63253 0.0
C1459 C 0.75875 0.80867 0.67563 0.0
C1460 C 0.77629 0.83241 0.6655 0.0
C1461 C 0.76473 0.78963 0.67643 0.0
C1462 C 0.78854 0.79459 0.66619 0.0
C1463 C 0.80596 0.81844 0.65509 0.0
C1464 C 0.79963 0.83712 0.65503 0.0
C1465 C 0.74579 0.76436 0.68876 0.0
C1466 C 0.83127 0.82425 0.6435 0.0
C1467 C 0.80492 0.75011 0.70502 0.0
C1468 C 0.79542 0.73088 0.68202 0.0
C1469 C 0.8052 0.77238 0.69885 0.0
C1470 C 0.7955 0.77508 0.66908 0.0
C1471 C 0.78887 0.75692 0.64429 0.0
C1472 C 0.78894 0.73484 0.65113 0.0
C1473 C 0.81284 0.79151 0.7257 0.0
C1474 C 0.7789 0.75938 0.61201 0.0
H1475 H 0.74064 0.80518 0.68331 0.0
H1476 H 0.8129 0.85553 0.64657 0.0
H1477 H 0.74177 0.74991 0.67003 0.0
H1478 H 0.75335 0.75968 0.7103 0.0
H1479 H 0.7281 0.76351 0.6955 0.0
H1480 H 0.84255 0.84378 0.63536 0.0
H1481 H 0.84154 0.82102 0.66314 0.0
H1482 H 0.82927 0.81163 0.62313 0.0
H1483 H 0.80969 0.74672 0.72901 0.0
H1484 H 0.78129 0.71968 0.6336 0.0
H1485 H 0.79597 0.79014 0.73677 0.0
H1486 H 0.82405 0.81062 0.71625 0.0
H1487 H 0.82372 0.78866 0.74492 0.0
H1488 H 0.75914 0.75424 0.61461 0.0
H1489 H 0.77995 0.74692 0.59344 0.0
H1490 H 0.78918 0.77881 0.60337 0.0
C1491 C 0.9893 0.8336 0.69187 0.0
C1492 C 0.01017 0.83041 0.69189 0.0
C1493 C 0.96522 0.81327 0.69269 0.0
C1494 C 0.96168 0.78895 0.69159 0.0
C1495 C 0.98246 0.7854 0.68889 0.0
C1496 C 0.00656 0.80621 0.68965 0.0
C1497 C 0.94363 0.81791 0.69604 0.0
C1498 C 0.97925 0.75967 0.68591 0.0
C1499 C 0.90244 0.7369 0.72724 0.0
C1500 C 0.887 0.72815 0.69989 0.0
C1501 C 0.9268 0.75693 0.72495 0.0
C1502 C 0.93616 0.76742 0.6943 0.0
C1503 C 0.92065 0.75826 0.66656 0.0
C1504 C 0.89605 0.73916 0.66987 0.0
C1505 C 0.94257 0.76678 0.75521 0.0
C1506 C 0.93027 0.76797 0.63324 0.0
H1507 H 0.99175 0.85216 0.69208 0.0
H1508 H 0.02246 0.80345 0.68942 0.0
H1509 H 0.93072 0.80972 0.67514 0.0
H1510 H 0.93305 0.80876 0.71813 0.0
H1511 H 0.9497 0.83804 0.6976 0.0
H1512 H -0.00309 0.76021 0.67983 0.0
H1513 H 0.97243 0.74969 0.70903 0.0
H1514 H 0.96516 0.74871 0.667 0.0
H1515 H 0.89551 0.7279 0.75025 0.0
H1516 H 0.88429 0.73182 0.64856 0.0
H1517 H 0.94977 0.78708 0.75771 0.0
H1518 H 0.95884 0.76401 0.75356 0.0
H1519 H 0.9321 0.75747 0.77733 0.0
H1520 H 0.93599 0.78795 0.63183 0.0
H1521 H 0.91618 0.75774 0.61397 0.0
H1522 H 0.94694 0.76633 0.62829 0.0
C1523 C 0.17709 0.16717 0.71809 0.0
C1524 C 0.16945 0.17648 0.69228 0.0
C1525 C 0.19805 0.16434 0.71565 0.0
C1526 C 0.21192 0.17126 0.68684 0.0
C1527 C 0.20555 0.1826 0.66175 0.0
C1528 C 0.18429 0.18501 0.66472 0.0
C1529 C 0.20435 0.15241 0.74308 0.0
C1530 C 0.22029 0.19082 0.63097 0.0
C1531 C 0.27441 0.17388 0.68679 0.0
C1532 C 0.26826 0.15123 0.67172 0.0
C1533 C 0.25632 0.1808 0.69181 0.0
C1534 C 0.2315 0.16443 0.68184 0.0
C1535 C 0.2252 0.14121 0.66723 0.0
C1536 C 0.2438 0.13504 0.66193 0.0
C1537 C 0.26391 0.20588 0.70684 0.0
C1538 C 0.19888 0.12305 0.65675 0.0
H1539 H 0.16597 0.16106 0.73976 0.0
H1540 H 0.17852 0.19224 0.64472 0.0
H1541 H 0.20069 0.1337 0.73532 0.0
H1542 H 0.22434 0.16351 0.74955 0.0
H1543 H 0.19327 0.15035 0.76501 0.0
H1544 H 0.21513 0.20235 0.61591 0.0
H1545 H 0.24047 0.20162 0.6365 0.0
H1546 H 0.21688 0.17422 0.6166 0.0
H1547 H 0.29359 0.18657 0.69357 0.0
H1548 H 0.23934 0.11774 0.64975 0.0
H1549 H 0.2525 0.20369 0.7284 0.0
H1550 H 0.26055 0.2174 0.68935 0.0
H1551 H 0.28381 0.21605 0.71416 0.0
H1552 H 0.1862 0.11854 0.67754 0.0
H1553 H 0.19695 0.10547 0.64683 0.0
H1554 H 0.19274 0.13157 0.63796 0.0
C1555 C 0.84167 0.00874 0.71209 0.0
C1556 C 0.83012 0.98949 0.68918 0.0
C1557 C 0.84178 0.0312 0.7081 0.0
C1558 C 0.82982 0.03431 0.68072 0.0
C1559 C 0.81814 0.01499 0.65749 0.0
C1560 C 0.81864 -0.00714 0.66186 0.0
C1561 C 0.85429 0.05145 0.7335 0.0
C1562 C 0.80493 0.01757 0.62827 0.0
C1563 C 0.81071 0.08199 0.69749 0.0
C1564 C 0.8308 0.10349 0.68494 0.0
C1565 C 0.80916 0.05885 0.69401 0.0
C1566 C 0.82835 0.0573 0.67791 0.0
C1567 C 0.84768 0.07859 0.66299 0.0
C1568 C 0.84862 0.10157 0.66655 0.0
C1569 C 0.78793 0.03644 0.7096 0.0
C1570 C 0.86831 0.07746 0.6454 0.0
H1571 H 0.85033 0.00614 0.73339 0.0
H1572 H 0.81014 0.97823 0.64371 0.0
H1573 H 0.86813 0.06906 0.7221 0.0
H1574 H 0.84032 0.05497 0.74529 0.0
H1575 H 0.86382 0.04656 0.75247 0.0
H1576 H 0.79601 0.0004 0.6131 0.0
H1577 H 0.79044 0.02197 0.63597 0.0
H1578 H 0.81828 0.03322 0.61323 0.0
H1579 H 0.79655 0.08338 0.71105 0.0
H1580 H 0.86401 0.11818 0.65657 0.0
H1581 H 0.79489 0.03131 0.73132 0.0
H1582 H 0.78 0.02021 0.69281 0.0
H1583 H 0.77286 0.04005 0.71714 0.0
H1584 H 0.88049 0.07526 0.66322 0.0
H1585 H 0.87981 0.09456 0.63129 0.0
H1586 H 0.86068 0.06115 0.62878 0.0
C1587 C 0.48584 0.32976 0.67516 0.0
C1588 C 0.49097 0.33735 0.64295 0.0
C1589 C 0.46452 0.30744 0.68302 0.0
C1590 C 0.44804 0.29267 0.65801 0.0
C1591 C 0.45241 0.3011 0.62567 0.0
C1592 C 0.47406 0.32329 0.61846 0.0
C1593 C 0.46038 0.29908 0.71773 0.0
C1594 C 0.43481 0.28612 0.59846 0.0
C1595 C 0.4101 0.22283 0.65838 0.0
C1596 C 0.38622 0.21958 0.65934 0.0
C1597 C 0.43084 0.24673 0.66068 0.0
C1598 C 0.42727 0.26746 0.66468 0.0
C1599 C 0.40314 0.26378 0.66938 0.0
C1600 C 0.38275 0.23977 0.66603 0.0
C1601 C 0.4563 0.24995 0.65535 0.0
C1602 C 0.39866 0.28534 0.6747 0.0
H1603 H 0.49913 0.34071 0.69399 0.0
H1604 H 0.47809 0.3294 0.59363 0.0
H1605 H 0.44076 0.29195 0.72457 0.0
H1606 H 0.46438 0.28364 0.72064 0.0
H1607 H 0.47259 0.31436 0.7347 0.0
H1608 H 0.44005 0.29612 0.57512 0.0
H1609 H 0.43466 0.26825 0.5954 0.0
H1610 H 0.41561 0.28161 0.60428 0.0
H1611 H 0.41252 0.20703 0.65291 0.0
H1612 H 0.36406 0.23696 0.6668 0.0
H1613 H 0.4698 0.26318 0.67334 0.0
H1614 H 0.46287 0.25781 0.631 0.0
H1615 H 0.45623 0.23202 0.65687 0.0
H1616 H 0.41293 0.2995 0.69117 0.0
H1617 H 0.38 0.27913 0.68495 0.0
H1618 H 0.39984 0.29442 0.65125 0.0
C1619 C 0.67434 0.17112 0.63378 0.0
C1620 C 0.65524 0.15337 0.65301 0.0
C1621 C 0.69744 0.17232 0.63194 0.0
C1622 C 0.70135 0.15478 0.64877 0.0
C1623 C 0.68139 0.13523 0.66545 0.0
C1624 C 0.65863 0.13492 0.66773 0.0
C1625 C 0.71824 0.19365 0.61417 0.0
C1626 C 0.68454 0.11562 0.68281 0.0
C1627 C 0.76251 0.15579 0.6345 0.0
C1628 C 0.77632 0.16927 0.66169 0.0
C1629 C 0.73777 0.15033 0.63016 0.0
C1630 C 0.7271 0.15927 0.65307 0.0
C1631 C 0.74136 0.17343 0.68011 0.0
C1632 C 0.76565 0.17798 0.68422 0.0
C1633 C 0.72289 0.13452 0.60163 0.0
C1634 C 0.73096 0.18372 0.70489 0.0
H1635 H 0.67164 0.18489 0.62122 0.0
H1636 H 0.64406 0.121 0.6825 0.0
H1637 H 0.73232 0.20657 0.63192 0.0
H1638 H 0.72765 0.1868 0.59782 0.0
H1639 H 0.71157 0.20426 0.59973 0.0
H1640 H 0.66636 0.09909 0.68845 0.0
H1641 H 0.69551 0.10956 0.66813 0.0
H1642 H 0.69479 0.12349 0.70588 0.0
H1643 H 0.77069 0.14867 0.61741 0.0
H1644 H 0.77641 0.18842 0.70521 0.0
H1645 H 0.71689 0.14511 0.58609 0.0
H1646 H 0.70583 0.11792 0.61019 0.0
H1647 H 0.7336 0.12823 0.58672 0.0
H1648 H 0.72442 0.1954 0.69289 0.0
H1649 H 0.74485 0.19512 0.72383 0.0
H1650 H 0.71474 0.16825 0.71684 0.0
C1651 C 0.84648 0.51035 0.66687 0.0
C1652 C 0.83383 0.49102 0.64427 0.0
C1653 C 0.84598 0.53263 0.66446 0.0
C1654 C 0.83218 0.53546 0.63913 0.0
C1655 C 0.81984 0.5163 0.61582 0.0
C1656 C 0.82097 0.49437 0.61854 0.0
C1657 C 0.85988 0.55299 0.68933 0.0
C1658 C 0.80517 0.51884 0.58832 0.0
C1659 C 0.81361 0.58414 0.65611 0.0
C1660 C 0.83282 0.60485 0.64101 0.0
C1661 C 0.81246 0.56095 0.65442 0.0
C1662 C 0.83087 0.55864 0.63715 0.0
C1663 C 0.84928 0.57913 0.62012 0.0
C1664 C 0.84997 0.60197 0.6222 0.0
C1665 C 0.79243 0.53932 0.6726 0.0
C1666 C 0.86923 0.57745 0.60143 0.0
H1667 H 0.85629 0.50787 0.68696 0.0
H1668 H 0.81164 0.47975 0.60054 0.0
H1669 H 0.87286 0.57062 0.67721 0.0
H1670 H 0.84659 0.55641 0.70315 0.0
H1671 H 0.87065 0.5483 0.70662 0.0
H1672 H 0.79696 0.50235 0.57191 0.0
H1673 H 0.78998 0.52139 0.59809 0.0
H1674 H 0.81726 0.53557 0.57397 0.0
H1675 H 0.8003 0.58631 0.67057 0.0
H1676 H 0.86463 0.61788 0.60998 0.0
H1677 H 0.80088 0.53483 0.69334 0.0
H1678 H 0.78329 0.52255 0.65677 0.0
H1679 H 0.77808 0.54338 0.68196 0.0
H1680 H 0.88193 0.57547 0.61857 0.0
H1681 H 0.88038 0.5942 0.58656 0.0
H1682 H 0.86096 0.56083 0.58533 0.0
C1683 C 0.47724 0.92357 0.25365 0.0
C1684 C 0.45325 0.916 0.26499 0.0
C1685 C 0.4846 0.93387 0.22271 0.0
C1686 C 0.46784 0.9373 0.203 0.0
C1687 C 0.4435 0.92923 0.21399 0.0
C1688 C 0.43639 0.91826 0.24442 0.0
C1689 C 0.51048 0.94163 0.21141 0.0
C1690 C 0.42508 0.93286 0.19403 0.0
C1691 C 0.48825 0.98899 0.14239 0.0
C1692 C 0.48122 0.97569 0.11304 0.0
C1693 C 0.48569 0.97692 0.1718 0.0
C1694 C 0.47593 0.95086 0.17188 0.0
C1695 C 0.47079 0.93764 0.14211 0.0
C1696 C 0.47354 0.95026 0.11292 0.0
C1697 C 0.49133 0.99181 0.20287 0.0
C1698 C 0.46056 0.90988 0.14116 0.0
H1699 H 0.49046 0.92194 0.26917 0.0
H1700 H 0.41749 0.91157 0.25209 0.0
H1701 H 0.50976 0.93389 0.1869 0.0
H1702 H 0.52143 0.96217 0.20968 0.0
H1703 H 0.52035 0.93538 0.22805 0.0
H1704 H 0.4068 0.92536 0.20598 0.0
H1705 H 0.43251 0.95297 0.18967 0.0
H1706 H 0.42218 0.9236 0.17009 0.0
H1707 H 0.49439 0.00871 0.14254 0.0
H1708 H 0.46799 0.93987 0.0903 0.0
H1709 H 0.50264 0.98738 0.21947 0.0
H1710 H 0.4737 0.98686 0.21528 0.0
H1711 H 0.50141 0.01217 0.19855 0.0
H1712 H 0.47085 0.90452 0.15832 0.0
H1713 H 0.46148 0.90312 0.11655 0.0
H1714 H 0.44086 0.90028 0.14867 0.0
C1715 C 0.08941 0.53601 0.24078 0.0
C1716 C 0.07667 0.53978 0.26594 0.0
C1717 C 0.07925 0.53003 0.2096 0.0
C1718 C 0.05593 0.52814 0.20348 0.0
C1719 C 0.04395 0.53396 0.22833 0.0
C1720 C 0.0544 0.53948 0.25962 0.0
C1721 C 0.09234 0.52331 0.18417 0.0
C1722 C 0.01924 0.53247 0.22246 0.0
C1723 C 0.03522 0.51654 0.11527 0.0
C1724 C 0.02046 0.49057 0.11477 0.0
C1725 C 0.04593 0.52937 0.14447 0.0
C1726 C 0.04234 0.51575 0.17323 0.0
C1727 C 0.02727 0.48957 0.17273 0.0
C1728 C 0.01634 0.47741 0.14367 0.0
C1729 C 0.06154 0.55734 0.14447 0.0
C1730 C 0.02344 0.47418 0.20262 0.0
H1731 H 0.1066 0.53614 0.24609 0.0
H1732 H 0.04462 0.54231 0.27934 0.0
H1733 H 0.08185 0.50292 0.17969 0.0
H1734 H 0.09307 0.5325 0.16099 0.0
H1735 H 0.11157 0.5286 0.19167 0.0
H1736 H 0.01465 0.54177 0.24211 0.0
H1737 H 0.0192 0.54111 0.19907 0.0
H1738 H 0.0044 0.51268 0.22113 0.0
H1739 H 0.03834 0.52676 0.09301 0.0
H1740 H 0.00511 0.4573 0.14349 0.0
H1741 H 0.08143 0.5629 0.14701 0.0
H1742 H 0.05679 0.56551 0.16529 0.0
H1743 H 0.05901 0.56536 0.12183 0.0
H1744 H 0.04154 0.4768 0.21134 0.0
H1745 H 0.01074 0.454 0.19811 0.0
H1746 H 0.01565 0.48034 0.22233 0.0
C1747 C 0.47392 0.5202 0.24799 0.0
C1748 C 0.4569 0.52857 0.25229 0.0
C1749 C 0.48356 0.52034 0.21742 0.0
C1750 C 0.47571 0.52878 0.19051 0.0
C1751 C 0.45669 0.53486 0.19423 0.0
C1752 C 0.44748 0.5347 0.22521 0.0
C1753 C 0.5036 0.5134 0.21445 0.0
C1754 C 0.44744 0.54337 0.16595 0.0
C1755 C 0.52253 0.55659 0.12242 0.0
C1756 C 0.51402 0.53614 0.10145 0.0
C1757 C 0.50975 0.55473 0.15127 0.0
C1758 C 0.48808 0.53196 0.15885 0.0
C1759 C 0.47914 0.51164 0.13706 0.0
C1760 C 0.49233 0.51394 0.10886 0.0
C1761 C 0.5199 0.57675 0.17419 0.0
C1762 C 0.45621 0.48707 0.14409 0.0
H1763 H 0.48135 0.51572 0.26908 0.0
H1764 H 0.43463 0.54155 0.22863 0.0
H1765 H 0.4991 0.49971 0.19451 0.0
H1766 H 0.52146 0.53017 0.20851 0.0
H1767 H 0.50619 0.50541 0.23712 0.0
H1768 H 0.43072 0.54465 0.1721 0.0
H1769 H 0.46227 0.56197 0.15824 0.0
H1770 H 0.44292 0.53047 0.14504 0.0
H1771 H 0.53944 0.57362 0.11681 0.0
H1772 H 0.48601 0.49794 0.09296 0.0
H1773 H 0.52592 0.57206 0.19712 0.0
H1774 H 0.50522 0.58129 0.18025 0.0
H1775 H 0.53597 0.59351 0.16393 0.0
H1776 H 0.4599 0.47822 0.16499 0.0
H1777 H 0.45039 0.47399 0.12313 0.0
H1778 H 0.44056 0.48999 0.15069 0.0
C1779 C 0.93875 0.47102 0.757 0.0
C1780 C 0.91392 0.45376 0.74989 0.0
C1781 C 0.94913 0.47103 0.78727 0.0
C1782 C 0.93451 0.45267 0.81012 0.0
C1783 C 0.90912 0.43597 0.80343 0.0
C1784 C 0.89904 0.43702 0.77352 0.0
C1785 C 0.97603 0.48982 0.79411 0.0
C1786 C 0.89308 0.41572 0.82672 0.0
C1787 C 0.97116 0.4369 0.87014 0.0
C1788 C 0.96952 0.44875 0.89811 0.0
C1789 C 0.95872 0.43689 0.84158 0.0
C1790 C 0.94587 0.45048 0.8407 0.0
C1791 C 0.94417 0.46235 0.86902 0.0
C1792 C 0.9553 0.46059 0.89758 0.0
C1793 C 0.95994 0.42302 0.81217 0.0
C1794 C 0.93188 0.47815 0.86873 0.0
H1795 H 0.95031 0.48356 0.73833 0.0
H1796 H 0.88002 0.42326 0.76744 0.0
H1797 H 0.97817 0.49835 0.81845 0.0
H1798 H 0.98724 0.48041 0.79394 0.0
H1799 H 0.98372 0.50483 0.77587 0.0
H1800 H 0.87341 0.405 0.81845 0.0
H1801 H 0.90035 0.40269 0.82936 0.0
H1802 H 0.89369 0.42368 0.851 0.0
H1803 H 0.98245 0.42805 0.87047 0.0
H1804 H 0.95426 0.47001 0.91902 0.0
H1805 H 0.97176 0.43645 0.79361 0.0
H1806 H 0.94115 0.41147 0.80136 0.0
H1807 H 0.96775 0.4108 0.81803 0.0
H1808 H 0.9412 0.49332 0.85096 0.0
H1809 H 0.93265 0.48662 0.89275 0.0
H1810 H 0.91217 0.46687 0.86104 0.0
C1811 C 0.52117 0.44295 0.7468 0.0
C1812 C 0.54646 0.45144 0.74206 0.0
C1813 C 0.51284 0.44748 0.77626 0.0
C1814 C 0.53026 0.46076 0.8013 0.0
C1815 C 0.55555 0.4679 0.7972 0.0
C1816 C 0.5633 0.46311 0.76767 0.0
C1817 C 0.4857 0.43939 0.77984 0.0
C1818 C 0.57482 0.48219 0.82315 0.0
C1819 C 0.52267 0.50558 0.85563 0.0
C1820 C 0.519 0.49426 0.88591 0.0
C1821 C 0.52516 0.49426 0.82768 0.0
C1822 C 0.52316 0.47058 0.82972 0.0
C1823 C 0.51761 0.45814 0.85974 0.0
C1824 C 0.51589 0.47028 0.8877 0.0
C1825 C 0.53176 0.50858 0.79642 0.0
C1826 C 0.51457 0.43251 0.86246 0.0
H1827 H 0.50814 0.43388 0.72699 0.0
H1828 H 0.5828 0.46928 0.76416 0.0
H1829 H 0.47889 0.43075 0.80374 0.0
H1830 H 0.48319 0.45587 0.77851 0.0
H1831 H 0.4741 0.42598 0.76055 0.0
H1832 H 0.59322 0.48437 0.81726 0.0
H1833 H 0.57698 0.50098 0.82609 0.0
H1834 H 0.56883 0.47271 0.84672 0.0
H1835 H 0.52507 0.52409 0.8539 0.0
H1836 H 0.51278 0.46132 0.91097 0.0
H1837 H 0.51892 0.49708 0.7767 0.0
H1838 H 0.5508 0.51331 0.78925 0.0
H1839 H 0.53112 0.52613 0.79854 0.0
H1840 H 0.50043 0.41968 0.84473 0.0
H1841 H 0.50894 0.42478 0.88707 0.0
H1842 H 0.53228 0.43316 0.85656 0.0
C1843 C 0.53989 0.06342 0.75624 0.0
C1844 C 0.52478 0.06959 0.73764 0.0
C1845 C 0.53313 0.05423 0.78782 0.0
C1846 C 0.51056 0.05075 0.8009 0.0
C1847 C 0.49498 0.0563 0.78206 0.0
C1848 C 0.50245 0.06601 0.75115 0.0
C1849 C 0.55035 0.04872 0.80749 0.0
C1850 C 0.47069 0.05271 0.79491 0.0
C1851 C 0.48393 0.00905 0.8739 0.0
C1852 C 0.49282 0.0265 0.89924 0.0
C1853 C 0.48927 0.01666 0.84163 0.0
C1854 C 0.50364 0.04234 0.83477 0.0
C1855 C 0.51146 0.06007 0.86034 0.0
C1856 C 0.50625 0.05188 0.89238 0.0
C1857 C 0.4806 -0.00281 0.81509 0.0
C1858 C 0.5263 0.08764 0.854 0.0
H1859 H 0.55711 0.06601 0.74631 0.0
H1860 H 0.49089 0.07156 0.73808 0.0
H1861 H 0.55672 0.0608 0.82942 0.0
H1862 H 0.54033 0.02917 0.81575 0.0
H1863 H 0.56689 0.0518 0.79364 0.0
H1864 H 0.45985 0.05621 0.77628 0.0
H1865 H 0.45913 0.03349 0.80387 0.0
H1866 H 0.47433 0.06556 0.81564 0.0
H1867 H 0.47415 0.98939 0.87946 0.0
H1868 H 0.51355 0.06525 0.91218 0.0
H1869 H 0.4969 -0.0022 0.80334 0.0
H1870 H 0.47027 0.00107 0.79618 0.0
H1871 H 0.46846 0.97812 0.82431 0.0
H1872 H 0.54459 0.09231 0.84384 0.0
H1873 H 0.52946 0.09895 0.87631 0.0
H1874 H 0.51663 0.09301 0.83588 0.0
C1875 C 0.10297 0.25059 0.57614 0.0
C1876 C 0.12052 0.25007 0.59725 0.0
C1877 C 0.10983 0.2621 0.54601 0.0
C1878 C 0.1348 0.27277 0.53603 0.0
C1879 C 0.15248 0.27147 0.55651 0.0
C1880 C 0.14517 0.26028 0.58701 0.0
C1881 C 0.09041 0.26344 0.52526 0.0
C1882 C 0.17919 0.2824 0.54652 0.0
C1883 C 0.14095 0.28634 0.44604 0.0
C1884 C 0.14596 0.31102 0.44624 0.0
C1885 C 0.13917 0.27403 0.47526 0.0
C1886 C 0.14233 0.28672 0.50513 0.0
C1887 C 0.14933 0.31219 0.50521 0.0
C1888 C 0.15124 0.32403 0.47581 0.0
C1889 C 0.13217 0.24698 0.4742 0.0
C1890 C 0.15264 0.32648 0.53634 0.0
H1891 H 0.0837 0.24205 0.58321 0.0
H1892 H 0.15887 0.26 0.60308 0.0
H1893 H 0.09578 0.28317 0.52132 0.0
H1894 H 0.08917 0.25488 0.50119 0.0
H1895 H 0.07173 0.25387 0.53636 0.0
H1896 H 0.19006 0.27772 0.56366 0.0
H1897 H 0.1802 0.27557 0.52202 0.0
H1898 H 0.18804 0.30293 0.5453 0.0
H1899 H 0.13696 0.2762 0.42331 0.0
H1900 H 0.15549 0.34324 0.47616 0.0
H1901 H 0.11246 0.23533 0.4812 0.0
H1902 H 0.14359 0.24337 0.4917 0.0
H1903 H 0.13448 0.24105 0.44968 0.0
H1904 H 0.13431 0.31961 0.54785 0.0
H1905 H 0.16093 0.34677 0.53227 0.0
H1906 H 0.16462 0.32354 0.55364 0.0
C1907 C 0.72478 0.87381 0.59325 0.0
C1908 C 0.74838 0.87639 0.59646 0.0
C1909 C 0.71259 0.86787 0.56303 0.0
C1910 C 0.72415 0.86384 0.53604 0.0
C1911 C 0.74882 0.86846 0.5389 0.0
C1912 C 0.76069 0.87484 0.56913 0.0
C1913 C 0.68653 0.8637 0.56066 0.0
C1914 C 0.76171 0.86388 0.51106 0.0
C1915 C 0.68386 0.81057 0.47947 0.0
C1916 C 0.68445 0.82288 0.4509 0.0
C1917 C 0.69628 0.82379 0.50741 0.0
C1918 C 0.70912 0.8501 0.50717 0.0
C1919 C 0.70897 0.86276 0.47885 0.0
C1920 C 0.69693 0.84895 0.45074 0.0
C1921 C 0.69647 0.80947 0.53678 0.0
C1922 C 0.72201 0.89078 0.47802 0.0
H1923 H 0.71532 0.87491 0.6146 0.0
H1924 H 0.77891 0.87669 0.57198 0.0
H1925 H 0.68384 0.87141 0.53782 0.0
H1926 H 0.67308 0.84345 0.56047 0.0
H1927 H 0.68218 0.87231 0.58139 0.0
H1928 H 0.78189 0.8718 0.51586 0.0
H1929 H 0.75333 0.84354 0.50697 0.0
H1930 H 0.75927 0.87197 0.48846 0.0
H1931 H 0.67443 0.79043 0.47973 0.0
H1932 H 0.69735 0.85852 0.42871 0.0
H1933 H 0.68876 0.81437 0.55788 0.0
H1934 H 0.71583 0.81451 0.54306 0.0
H1935 H 0.6855 0.78901 0.53287 0.0
H1936 H 0.71738 0.89821 0.49973 0.0
H1937 H 0.71698 0.89759 0.45607 0.0
H1938 H 0.7424 0.89842 0.47831 0.0
C1939 C 0.13444 0.85463 0.57754 0.0
C1940 C 0.12582 0.87079 0.58649 0.0
C1941 C 0.14442 0.85599 0.54674 0.0
C1942 C 0.14658 0.87457 0.52504 0.0
C1943 C 0.13686 0.89016 0.53358 0.0
C1944 C 0.12623 0.88779 0.56407 0.0
C1945 C 0.15386 0.83847 0.53816 0.0
C1946 C 0.13949 0.9107 0.51165 0.0
C1947 C 0.1976 0.89295 0.46288 0.0
C1948 C 0.18365 0.88118 0.43501 0.0
C1949 C 0.18572 0.89233 0.49203 0.0
C1950 C 0.15944 0.87803 0.49369 0.0
C1951 C 0.1454 0.8664 0.46547 0.0
C1952 C 0.15768 0.86903 0.43628 0.0
C1953 C 0.20131 0.9062 0.52123 0.0
C1954 C 0.11754 0.84971 0.46646 0.0
H1955 H 0.13477 0.84202 0.59531 0.0
H1956 H 0.12034 0.90084 0.57158 0.0
H1957 H 0.14728 0.83036 0.51365 0.0
H1958 H 0.17444 0.84884 0.53785 0.0
H1959 H 0.14779 0.82311 0.55576 0.0
H1960 H 0.13015 0.92063 0.52143 0.0
H1961 H 0.15948 0.92436 0.5085 0.0
H1962 H 0.13161 0.90316 0.48735 0.0
H1963 H 0.21768 0.90212 0.46203 0.0
H1964 H 0.14682 0.8598 0.41493 0.0
H1965 H 0.20124 0.8928 0.5389 0.0
H1966 H 0.19346 0.91673 0.53342 0.0
H1967 H 0.22086 0.91938 0.51472 0.0
H1968 H 0.11291 0.83398 0.48296 0.0
H1969 H 0.10937 0.842 0.44224 0.0
H1970 H 0.1086 0.86 0.47617 0.0
C1971 C 0.61741 0.80377 0.08354 0.0
C1972 C 0.59218 0.79628 0.07937 0.0
C1973 C 0.62724 0.80409 0.11424 0.0
C1974 C 0.61172 0.79783 0.14153 0.0
C1975 C 0.5871 0.79322 0.13792 0.0
C1976 C 0.57752 0.79227 0.10678 0.0
C1977 C 0.65363 0.80914 0.11709 0.0
C1978 C 0.57033 0.78752 0.16666 0.0
C1979 C 0.62879 0.77025 0.21253 0.0
C1980 C 0.64271 0.79148 0.23163 0.0
C1981 C 0.61804 0.7719 0.18324 0.0
C1982 C 0.62111 0.79522 0.17353 0.0
C1983 C 0.63439 0.8164 0.19359 0.0
C1984 C 0.64515 0.81427 0.22225 0.0
C1985 C 0.60403 0.74894 0.16225 0.0
C1986 C 0.63779 0.84147 0.18451 0.0
H1987 H 0.6289 0.80725 0.06243 0.0
H1988 H 0.558 0.78639 0.10385 0.0
H1989 H 0.66411 0.82386 0.1355 0.0
H1990 H 0.65352 0.79207 0.12524 0.0
H1991 H 0.66363 0.81496 0.0938 0.0
H1992 H 0.55315 0.78798 0.16041 0.0
H1993 H 0.56498 0.76872 0.17572 0.0
H1994 H 0.58014 0.80098 0.18666 0.0
H1995 H 0.62686 0.75266 0.22005 0.0
H1996 H 0.65574 0.83062 0.23741 0.0
H1997 H 0.6135 0.75181 0.1387 0.0
H1998 H 0.58502 0.7455 0.1571 0.0
H1999 H 0.60263 0.73214 0.1737 0.0
H2000 H 0.64959 0.84845 0.16278 0.0
H2001 H 0.64666 0.85548 0.20427 0.0
H2002 H 0.61962 0.83982 0.17833 0.0
C2003 C 0.18937 0.77951 0.08125 0.0
C2004 C 0.21402 0.79327 0.07095 0.0
C2005 C 0.18278 0.78241 0.11276 0.0
C2006 C 0.20128 0.79957 0.13434 0.0
C2007 C 0.22635 0.8127 0.12446 0.0
C2008 C 0.23241 0.80933 0.09297 0.0
C2009 C 0.15587 0.76798 0.12238 0.0
C2010 C 0.24666 0.83134 0.14657 0.0
C2011 C 0.18465 0.83492 0.19435 0.0
C2012 C 0.18703 0.82548 0.22415 0.0
C2013 C 0.18859 0.82613 0.16509 0.0
C2014 C 0.19418 0.80666 0.16525 0.0
C2015 C 0.19493 0.79574 0.19497 0.0
C2016 C 0.19165 0.80552 0.22425 0.0
C2017 C 0.18823 0.83881 0.13413 0.0
C2018 C 0.20013 0.77444 0.19585 0.0
H2019 H 0.1751 0.76703 0.06436 0.0
H2020 H 0.25161 0.8195 0.08544 0.0
H2021 H 0.15408 0.75983 0.14669 0.0
H2022 H 0.14816 0.78071 0.12371 0.0
H2023 H 0.14449 0.75282 0.10482 0.0
H2024 H 0.26544 0.83826 0.13632 0.0
H2025 H 0.24386 0.84748 0.15076 0.0
H2026 H 0.24595 0.82298 0.17043 0.0
H2027 H 0.18096 0.85026 0.19381 0.0
H2028 H 0.19341 0.79804 0.2471 0.0
H2029 H 0.17515 0.82496 0.11632 0.0
H2030 H 0.20695 0.84793 0.1232 0.0
H2031 H 0.18274 0.85315 0.13812 0.0
H2032 H 0.18783 0.75965 0.17841 0.0
H2033 H 0.19744 0.76627 0.22033 0.0
H2034 H 0.21955 0.78102 0.18845 0.0
C2035 C 0.20187 0.40141 0.094 0.0
C2036 C 0.1918 0.4139 0.07712 0.0
C2037 C 0.19305 0.39159 0.12482 0.0
C2038 C 0.17377 0.39438 0.13889 0.0
C2039 C 0.16439 0.40793 0.1225 0.0
C2040 C 0.17364 0.41767 0.09202 0.0
C2041 C 0.20374 0.3775 0.14182 0.0
C2042 C 0.14391 0.4114 0.13659 0.0
C2043 C 0.13237 0.34429 0.19758 0.0
C2044 C 0.14212 0.35583 0.22757 0.0
C2045 C 0.14208 0.35689 0.16859 0.0
C2046 C 0.16214 0.38164 0.16959 0.0
C2047 C 0.17113 0.39391 0.1998 0.0
C2048 C 0.16088 0.38088 0.2285 0.0
C2049 C 0.13163 0.34326 0.1369 0.0
C2050 C 0.19254 0.42027 0.20188 0.0
H2051 H 0.21603 0.39866 0.0827 0.0
H2052 H 0.16632 0.42799 0.07951 0.0
H2053 H 0.20952 0.38476 0.16685 0.0
H2054 H 0.18933 0.35761 0.14357 0.0
H2055 H 0.21998 0.37877 0.12897 0.0
H2056 H 0.13956 0.42351 0.12146 0.0
H2057 H 0.12681 0.39304 0.13884 0.0
H2058 H 0.14918 0.41967 0.16122 0.0
H2059 H 0.11793 0.32491 0.19678 0.0
H2060 H 0.16876 0.3898 0.2516 0.0
H2061 H 0.146 0.3409 0.12415 0.0
H2062 H 0.12633 0.35424 0.12098 0.0
H2063 H 0.11509 0.3246 0.14031 0.0
H2064 H 0.20972 0.42076 0.19352 0.0
H2065 H 0.19576 0.42792 0.22692 0.0
H2066 H 0.18919 0.43257 0.18581 0.0
C2067 C 0.81266 0.60966 0.9297 0.0
C2068 C 0.79661 0.58402 0.9324 0.0
C2069 C 0.81785 0.62114 0.89934 0.0
C2070 C 0.80605 0.60665 0.87129 0.0
C2071 C 0.79128 0.58045 0.87384 0.0
C2072 C 0.78683 0.56944 0.90443 0.0
C2073 C 0.83408 0.64902 0.89775 0.0
C2074 C 0.77798 0.56427 0.84478 0.0
C2075 C 0.78284 0.63524 0.80952 0.0
C2076 C 0.79852 0.63943 0.7831 0.0
C2077 C 0.7855 0.62504 0.83826 0.0
C2078 C 0.80459 0.61901 0.8412 0.0
C2079 C 0.82108 0.62384 0.81516 0.0
C2080 C 0.81777 0.63387 0.78624 0.0
C2081 C 0.76736 0.62018 0.86525 0.0
C2082 C 0.842 0.61818 0.81782 0.0
H2083 H 0.82003 0.6209 0.95148 0.0
H2084 H 0.77414 0.54965 0.90672 0.0
H2085 H 0.84611 0.65445 0.87617 0.0
H2086 H 0.82221 0.65767 0.89576 0.0
H2087 H 0.84597 0.65672 0.91973 0.0
H2088 H 0.77047 0.54422 0.84982 0.0
H2089 H 0.76227 0.56709 0.83781 0.0
H2090 H 0.79057 0.56944 0.82381 0.0
H2091 H 0.76794 0.6395 0.80765 0.0
H2092 H 0.8301 0.6372 0.76612 0.0
H2093 H 0.77746 0.63035 0.8875 0.0
H2094 H 0.7572 0.60006 0.87094 0.0
H2095 H 0.75355 0.62596 0.85902 0.0
H2096 H 0.85365 0.62769 0.83944 0.0
H2097 H 0.85395 0.62411 0.79611 0.0
H2098 H 0.83436 0.59793 0.82106 0.0
C2099 C 0.41717 0.18689 0.9057 0.0
C2100 C 0.41088 0.19976 0.92817 0.0
C2101 C 0.40683 0.18158 0.87467 0.0
C2102 C 0.38998 0.18967 0.86571 0.0
C2103 C 0.38512 0.20449 0.8874 0.0
C2104 C 0.39566 0.20936 0.91865 0.0
C2105 C 0.41259 0.16573 0.85236 0.0
C2106 C 0.36763 0.21382 0.87841 0.0
C2107 C 0.3748 0.17708 0.77678 0.0
C2108 C 0.35539 0.1524 0.77789 0.0
C2109 C 0.38505 0.19074 0.8055 0.0
C2110 C 0.37525 0.17941 0.83556 0.0
C2111 C 0.35395 0.15544 0.83636 0.0
C2112 C 0.34447 0.14211 0.80748 0.0
C2113 C 0.40768 0.21628 0.80376 0.0
C2114 C 0.34258 0.14286 0.86786 0.0
H2115 H 0.42949 0.18005 0.91295 0.0
H2116 H 0.39107 0.21957 0.93605 0.0
H2117 H 0.39575 0.14722 0.84898 0.0
H2118 H 0.41807 0.17438 0.82823 0.0
H2119 H 0.42772 0.16289 0.86202 0.0
H2120 H 0.36994 0.22915 0.89474 0.0
H2121 H 0.37055 0.22045 0.85312 0.0
H2122 H 0.3482 0.19836 0.88018 0.0
H2123 H 0.38302 0.18511 0.75375 0.0
H2124 H 0.32901 0.12322 0.80814 0.0
H2125 H 0.4245 0.21496 0.80927 0.0
H2126 H 0.4068 0.22906 0.82193 0.0
H2127 H 0.4098 0.22444 0.77936 0.0
H2128 H 0.35493 0.13709 0.87982 0.0
H2129 H 0.32404 0.12609 0.86414 0.0
H2130 H 0.34062 0.15586 0.8845 0.0
C2131 C 0.79117 0.18494 0.90375 0.0
C2132 C 0.78702 0.20405 0.91421 0.0
C2133 C 0.801 0.18573 0.87302 0.0
C2134 C 0.80754 0.20657 0.85306 0.0
C2135 C 0.80172 0.22498 0.86276 0.0
C2136 C 0.79107 0.22321 0.89306 0.0
C2137 C 0.80603 0.1652 0.86299 0.0
C2138 C 0.8091 0.24789 0.84281 0.0
C2139 C 0.86068 0.22015 0.79647 0.0
C2140 C 0.84811 0.21198 0.76682 0.0
C2141 C 0.84795 0.22009 0.82449 0.0
C2142 C 0.8218 0.20987 0.82304 0.0
C2143 C 0.8092 0.20205 0.79301 0.0
C2144 C 0.82273 0.20425 0.7651 0.0
C2145 C 0.86229 0.22994 0.85581 0.0
C2146 C 0.78123 0.18962 0.79067 0.0
H2147 H 0.78854 0.17045 0.92048 0.0
H2148 H 0.78844 0.23829 0.90171 0.0
H2149 H 0.80054 0.15973 0.83735 0.0
H2150 H 0.82619 0.17186 0.86522 0.0
H2151 H 0.79597 0.1485 0.87832 0.0
H2152 H 0.8012 0.25925 0.85236 0.0
H2153 H 0.82964 0.25954 0.84292 0.0
H2154 H 0.80299 0.24281 0.81731 0.0
H2155 H 0.88026 0.2259 0.79788 0.0
H2156 H 0.81293 0.19789 0.74229 0.0
H2157 H 0.85874 0.21419 0.87168 0.0
H2158 H 0.85619 0.24164 0.86887 0.0
H2159 H 0.88261 0.24113 0.85175 0.0
H2160 H 0.77278 0.17265 0.80571 0.0
H2161 H 0.77422 0.18417 0.76548 0.0
H2162 H 0.77473 0.20211 0.80023 0.0
C2163 C 0.27994 0.12709 0.41584 0.0
C2164 C 0.25521 0.12086 0.41044 0.0
C2165 C 0.28882 0.12747 0.44707 0.0
C2166 C 0.27269 0.122 0.47358 0.0
C2167 C 0.24829 0.11768 0.46857 0.0
C2168 C 0.23973 0.11701 0.43688 0.0
C2169 C 0.3151 0.13247 0.45152 0.0
C2170 C 0.23087 0.11254 0.49643 0.0
C2171 C 0.29243 0.09872 0.54623 0.0
C2172 C 0.30709 0.1211 0.56285 0.0
C2173 C 0.27977 0.09837 0.51773 0.0
C2174 C 0.28175 0.12086 0.50635 0.0
C2175 C 0.2952 0.14307 0.5245 0.0
C2176 C 0.30781 0.14291 0.55239 0.0
C2177 C 0.26538 0.07432 0.49891 0.0
C2178 C 0.29752 0.16734 0.51357 0.0
H2179 H 0.29192 0.13024 0.39534 0.0
H2180 H 0.22053 0.11197 0.43273 0.0
H2181 H 0.32548 0.14827 0.46858 0.0
H2182 H 0.31483 0.11594 0.46215 0.0
H2183 H 0.32535 0.13683 0.42838 0.0
H2184 H 0.21377 0.11274 0.48889 0.0
H2185 H 0.22544 0.09402 0.50655 0.0
H2186 H 0.2402 0.12648 0.5161 0.0
H2187 H 0.29164 0.08185 0.55478 0.0
H2188 H 0.31876 0.16014 0.56582 0.0
H2189 H 0.27494 0.07562 0.47582 0.0
H2190 H 0.24654 0.07097 0.49274 0.0
H2191 H 0.26359 0.05813 0.51252 0.0
H2192 H 0.30975 0.17417 0.49221 0.0
H2193 H 0.30553 0.18193 0.53278 0.0
H2194 H 0.27915 0.1647 0.5062 0.0
C2195 C 0.85632 0.11362 0.41269 0.0
C2196 C 0.88137 0.12248 0.40589 0.0
C2197 C 0.84909 0.11723 0.44344 0.0
C2198 C 0.8674 0.12976 0.4678 0.0
C2199 C 0.89249 0.13697 0.4616 0.0
C2200 C 0.89919 0.13342 0.43059 0.0
C2201 C 0.82219 0.10935 0.44902 0.0
C2202 C 0.91259 0.15024 0.4869 0.0
C2203 C 0.8606 0.17418 0.52382 0.0
C2204 C 0.85619 0.16222 0.55375 0.0
C2205 C 0.86361 0.16343 0.49572 0.0
C2206 C 0.86144 0.13966 0.49714 0.0
C2207 C 0.85559 0.12673 0.52682 0.0
C2208 C 0.85335 0.13834 0.55503 0.0
C2209 C 0.8704 0.17821 0.46481 0.0
C2210 C 0.85248 0.10104 0.52888 0.0
H2211 H 0.84257 0.10506 0.3935 0.0
H2212 H 0.91854 0.13988 0.42532 0.0
H2213 H 0.81616 0.10062 0.47304 0.0
H2214 H 0.81986 0.12597 0.44867 0.0
H2215 H 0.80983 0.09609 0.43008 0.0
H2216 H 0.93032 0.15126 0.47989 0.0
H2217 H 0.91603 0.16947 0.49034 0.0
H2218 H 0.90676 0.14075 0.51049 0.0
H2219 H 0.86288 0.19265 0.52244 0.0
H2220 H 0.84982 0.12895 0.57803 0.0
H2221 H 0.85708 0.16727 0.44518 0.0
H2222 H 0.88911 0.18231 0.45699 0.0
H2223 H 0.87057 0.19613 0.46765 0.0
H2224 H 0.83897 0.08863 0.51026 0.0
H2225 H 0.846 0.09268 0.55305 0.0
H2226 H 0.87042 0.10191 0.52387 0.0
C2227 C 0.87828 0.75205 0.43484 0.0
C2228 C 0.86081 0.74179 0.40944 0.0
C2229 C 0.87237 0.74254 0.46635 0.0
C2230 C 0.84812 0.72296 0.47302 0.0
C2231 C 0.83053 0.71227 0.44758 0.0
C2232 C 0.83732 0.72126 0.4161 0.0
C2233 C 0.892 0.7537 0.49263 0.0
C2234 C 0.80434 0.69165 0.45367 0.0
C2235 C 0.83974 0.68501 0.54822 0.0
C2236 C 0.83137 0.69615 0.57061 0.0
C2237 C 0.84456 0.69309 0.51619 0.0
C2238 C 0.84135 0.71315 0.50644 0.0
C2239 C 0.83219 0.72405 0.52883 0.0
C2240 C 0.82716 0.71529 0.56079 0.0
C2241 C 0.85397 0.6807 0.49317 0.0
C2242 C 0.82843 0.74541 0.51928 0.0
H2243 H 0.8964 0.76795 0.4305 0.0
H2244 H 0.82385 0.71236 0.39672 0.0
H2245 H 0.88636 0.76285 0.51121 0.0
H2246 H 0.89395 0.73887 0.50485 0.0
H2247 H 0.91039 0.76764 0.48312 0.0
H2248 H 0.79267 0.68581 0.43136 0.0
H2249 H 0.80456 0.67523 0.46371 0.0
H2250 H 0.79548 0.69789 0.47187 0.0
H2251 H 0.84298 0.6702 0.55606 0.0
H2252 H 0.82092 0.72401 0.57834 0.0
H2253 H 0.87316 0.69428 0.48581 0.0
H2254 H 0.84233 0.67438 0.4709 0.0
H2255 H 0.85406 0.66442 0.50411 0.0
H2256 H 0.8466 0.76184 0.5135 0.0
H2257 H 0.81967 0.75071 0.53877 0.0
H2258 H 0.81663 0.74046 0.49717 0.0
loop_
_geom_bond_atom_site_label_1
_geom_bond_atom_site_label_2
_geom_bond_distance
_geom_bond_site_symmetry_2
_ccdc_geom_bond_type
H0 C1 0.949 . S
C1 H0 0.949 . S
C1 C2 1.395 . S
C1 C3 1.391 . S
C2 C1 1.395 . S
C2 C5 1.390 . S
C3 C1 1.391 . S
C3 C7 1.387 . S
C3 C8 1.491 . S
H4 C5 0.950 . S
C5 C2 1.390 . S
C5 H4 0.950 . S
C5 C6 1.378 . S
C6 C5 1.378 . S
C6 C7 1.409 . S
C7 C3 1.387 . S
C7 C6 1.409 . S
C7 H9 0.951 . S
C8 C3 1.491 . S
C8 C10 1.382 . S
C8 C12 1.404 . S
H9 C7 0.951 . S
C10 C8 1.382 . S
C10 C11 1.390 . S
C10 H15 0.949 . S
C11 C10 1.390 . S
C11 C16 1.399 . S
C12 C8 1.404 . S
C12 H13 0.950 . S
C12 C14 1.375 . S
H13 C12 0.950 . S
C14 C12 1.375 . S
C14 C16 1.382 . S
C14 H18 0.950 . S
H15 C10 0.949 . S
C16 C11 1.399 . S
C16 C14 1.382 . S
C16 H17 0.952 . S
H17 C16 0.952 . S
H18 C14 0.950 . S
H19 C20 0.949 . S
C20 H19 0.949 . S
C20 C21 1.395 . S
C20 C22 1.391 . S
C21 C20 1.395 . S
C21 C24 1.390 . S
C22 C20 1.391 . S
C22 C26 1.387 . S
C22 C27 1.491 . S
H23 C24 0.950 . S
C24 C21 1.390 . S
C24 H23 0.950 . S
C24 C25 1.378 . S
C25 C24 1.378 . S
C25 C26 1.409 . S
C26 C22 1.387 . S
C26 C25 1.409 . S
C26 H28 0.951 . S
C27 C22 1.491 . S
C27 C29 1.382 . S
C27 C31 1.404 . S
H28 C26 0.951 . S
C29 C27 1.382 . S
C29 C30 1.390 . S
C29 H34 0.949 . S
C30 C29 1.390 . S
C30 C35 1.399 . S
C31 C27 1.404 . S
C31 H32 0.950 . S
C31 C33 1.375 . S
H32 C31 0.950 . S
C33 C31 1.375 . S
C33 C35 1.382 . S
C33 H37 0.950 . S
H34 C29 0.949 . S
C35 C30 1.399 . S
C35 C33 1.382 . S
C35 H36 0.952 . S
H36 C35 0.952 . S
H37 C33 0.950 . S
H38 C39 0.949 . S
C39 H38 0.949 . S
C39 C40 1.395 . S
C39 C41 1.391 . S
C40 C39 1.395 . S
C40 C43 1.390 . S
C41 C39 1.391 . S
C41 C45 1.387 . S
C41 C46 1.491 . S
H42 C43 0.950 . S
C43 C40 1.390 . S
C43 H42 0.950 . S
C43 C44 1.378 . S
C44 C43 1.378 . S
C44 C45 1.409 . S
C45 C41 1.387 . S
C45 C44 1.409 . S
C45 H47 0.951 . S
C46 C41 1.491 . S
C46 C48 1.382 . S
C46 C50 1.404 . S
H47 C45 0.951 . S
C48 C46 1.382 . S
C48 C49 1.390 . S
C48 H53 0.949 . S
C49 C48 1.390 . S
C49 C54 1.399 . S
C50 C46 1.404 . S
C50 H51 0.950 . S
C50 C52 1.375 . S
H51 C50 0.950 . S
C52 C50 1.375 . S
C52 C54 1.382 . S
C52 H56 0.950 . S
H53 C48 0.949 . S
C54 C49 1.399 . S
C54 C52 1.382 . S
C54 H55 0.952 . S
H55 C54 0.952 . S
H56 C52 0.950 . S
H57 C58 0.949 . S
C58 H57 0.949 . S
C58 C59 1.395 . S
C58 C60 1.391 . S
C59 C58 1.395 . S
C59 C62 1.390 . S
C60 C58 1.391 . S
C60 C64 1.387 . S
C60 C65 1.491 . S
H61 C62 0.950 . S
C62 C59 1.390 . S
C62 H61 0.950 . S
C62 C63 1.378 . S
C63 C62 1.378 . S
C63 C64 1.409 . S
C64 C60 1.387 . S
C64 C63 1.409 . S
C64 H66 0.951 . S
C65 C60 1.491 . S
C65 C67 1.382 . S
C65 C69 1.404 . S
H66 C64 0.951 . S
C67 C65 1.382 . S
C67 C68 1.390 . S
C67 H72 0.949 . S
C68 C67 1.390 . S
C68 C73 1.399 . S
C69 C65 1.404 . S
C69 H70 0.950 . S
C69 C71 1.375 . S
H70 C69 0.950 . S
C71 C69 1.375 . S
C71 C73 1.382 . S
C71 H75 0.950 . S
H72 C67 0.949 . S
C73 C68 1.399 . S
C73 C71 1.382 . S
C73 H74 0.952 . S
H74 C73 0.952 . S
H75 C71 0.950 . S
H76 C77 0.949 . S
C77 H76 0.949 . S
C77 C78 1.395 . S
C77 C79 1.391 . S
C78 C77 1.395 . S
C78 C81 1.390 . S
C79 C77 1.391 . S
C79 C83 1.387 . S
C79 C84 1.491 . S
H80 C81 0.950 . S
C81 C78 1.390 . S
C81 H80 0.950 . S
C81 C82 1.378 . S
C82 C81 1.378 . S
C82 C83 1.409 . S
C83 C79 1.387 . S
C83 C82 1.409 . S
C83 H85 0.951 . S
C84 C79 1.491 . S
C84 C86 1.382 . S
C84 C88 1.404 . S
H85 C83 0.951 . S
C86 C84 1.382 . S
C86 C87 1.390 . S
C86 H91 0.949 . S
C87 C86 1.390 . S
C87 C92 1.399 . S
C88 C84 1.404 . S
C88 H89 0.950 . S
C88 C90 1.375 . S
H89 C88 0.950 . S
C90 C88 1.375 . S
C90 C92 1.382 . S
C90 H94 0.950 . S
H91 C86 0.949 . S
C92 C87 1.399 . S
C92 C90 1.382 . S
C92 H93 0.952 . S
H93 C92 0.952 . S
H94 C90 0.950 . S
H95 C96 0.949 . S
C96 H95 0.949 . S
C96 C97 1.395 . S
C96 C98 1.391 . S
C97 C96 1.395 . S
C97 C100 1.390 . S
C98 C96 1.391 . S
C98 C102 1.387 . S
C98 C103 1.491 . S
H99 C100 0.950 . S
C100 C97 1.390 . S
C100 H99 0.950 . S
C100 C101 1.378 . S
C101 C100 1.378 . S
C101 C102 1.409 . S
C102 C98 1.387 . S
C102 C101 1.409 . S
C102 H104 0.951 . S
C103 C98 1.491 . S
C103 C105 1.382 . S
C103 C107 1.404 . S
H104 C102 0.951 . S
C105 C103 1.382 . S
C105 C106 1.390 . S
C105 H110 0.949 . S
C106 C105 1.390 . S
C106 C111 1.399 . S
C107 C103 1.404 . S
C107 H108 0.950 . S
C107 C109 1.375 . S
H108 C107 0.950 . S
C109 C107 1.375 . S
C109 C111 1.382 . S
C109 H113 0.950 . S
H110 C105 0.949 . S
C111 C106 1.399 . S
C111 C109 1.382 . S
C111 H112 0.952 . S
H112 C111 0.952 . S
H113 C109 0.950 . S
H114 C115 0.949 . S
C115 H114 0.949 . S
C115 C116 1.395 . S
C115 C117 1.391 . S
C116 C115 1.395 . S
C116 C119 1.390 . S
C117 C115 1.391 . S
C117 C121 1.387 . S
C117 C122 1.491 . S
H118 C119 0.950 . S
C119 C116 1.390 . S
C119 H118 0.950 . S
C119 C120 1.378 . S
C120 C119 1.378 . S
C120 C121 1.409 . S
C121 C117 1.387 . S
C121 C120 1.409 . S
C121 H123 0.951 . S
C122 C117 1.491 . S
C122 C124 1.382 . S
C122 C126 1.404 . S
H123 C121 0.951 . S
C124 C122 1.382 . S
C124 C125 1.390 . S
C124 H129 0.949 . S
C125 C124 1.390 . S
C125 C130 1.399 . S
C126 C122 1.404 . S
C126 H127 0.950 . S
C126 C128 1.375 . S
H127 C126 0.950 . S
C128 C126 1.375 . S
C128 C130 1.382 . S
C128 H132 0.950 . S
H129 C124 0.949 . S
C130 C125 1.399 . S
C130 C128 1.382 . S
C130 H131 0.952 . S
H131 C130 0.952 . S
H132 C128 0.950 . S
H133 C134 0.949 . S
C134 H133 0.949 . S
C134 C135 1.395 . S
C134 C136 1.391 . S
C135 C134 1.395 . S
C135 C138 1.390 . S
C136 C134 1.391 . S
C136 C140 1.387 . S
C136 C141 1.491 . S
H137 C138 0.950 . S
C138 C135 1.390 . S
C138 H137 0.950 . S
C138 C139 1.378 . S
C139 C138 1.378 . S
C139 C140 1.409 . S
C140 C136 1.387 . S
C140 C139 1.409 . S
C140 H142 0.951 . S
C141 C136 1.491 . S
C141 C143 1.382 . S
C141 C145 1.404 . S
H142 C140 0.951 . S
C143 C141 1.382 . S
C143 C144 1.390 . S
C143 H148 0.949 . S
C144 C143 1.390 . S
C144 C149 1.399 . S
C145 C141 1.404 . S
C145 H146 0.950 . S
C145 C147 1.375 . S
H146 C145 0.950 . S
C147 C145 1.375 . S
C147 C149 1.382 . S
C147 H151 0.950 . S
H148 C143 0.949 . S
C149 C144 1.399 . S
C149 C147 1.382 . S
C149 H150 0.952 . S
H150 C149 0.952 . S
H151 C147 0.950 . S
H152 C153 0.949 . S
C153 H152 0.949 . S
C153 C154 1.395 . S
C153 C155 1.391 . S
C154 C153 1.395 . S
C154 C157 1.390 . S
C155 C153 1.391 . S
C155 C159 1.387 . S
C155 C160 1.491 . S
H156 C157 0.950 . S
C157 C154 1.390 . S
C157 H156 0.950 . S
C157 C158 1.378 . S
C158 C157 1.378 . S
C158 C159 1.409 . S
C159 C155 1.387 . S
C159 C158 1.409 . S
C159 H161 0.951 . S
C160 C155 1.491 . S
C160 C162 1.382 . S
C160 C164 1.404 . S
H161 C159 0.951 . S
C162 C160 1.382 . S
C162 C163 1.390 . S
C162 H167 0.949 . S
C163 C162 1.390 . S
C163 C168 1.399 . S
C164 C160 1.404 . S
C164 H165 0.950 . S
C164 C166 1.375 . S
H165 C164 0.950 . S
C166 C164 1.375 . S
C166 C168 1.382 . S
C166 H170 0.950 . S
H167 C162 0.949 . S
C168 C163 1.399 . S
C168 C166 1.382 . S
C168 H169 0.952 . S
H169 C168 0.952 . S
H170 C166 0.950 . S
H171 C172 0.949 . S
C172 H171 0.949 . S
C172 C173 1.395 . S
C172 C174 1.391 1_556 S
C173 C172 1.395 . S
C173 C176 1.390 . S
C174 C172 1.391 1_554 S
C174 C178 1.387 . S
C174 C179 1.491 . S
H175 C176 0.950 . S
C176 C173 1.390 . S
C176 H175 0.950 . S
C176 C177 1.378 1_556 S
C177 C176 1.378 1_554 S
C177 C178 1.409 . S
C178 C174 1.387 . S
C178 C177 1.409 . S
C178 H180 0.951 . S
C179 C174 1.491 . S
C179 C181 1.382 . S
C179 C183 1.404 . S
H180 C178 0.951 . S
C181 C179 1.382 . S
C181 C182 1.390 . S
C181 H186 0.949 . S
C182 C181 1.390 . S
C182 C187 1.399 . S
C183 C179 1.404 . S
C183 H184 0.950 . S
C183 C185 1.375 . S
H184 C183 0.950 . S
C185 C183 1.375 . S
C185 C187 1.382 . S
C185 H189 0.950 . S
H186 C181 0.949 . S
C187 C182 1.399 . S
C187 C185 1.382 . S
C187 H188 0.952 . S
H188 C187 0.952 . S
H189 C185 0.950 . S
H190 C191 0.949 . S
C191 H190 0.949 . S
C191 C192 1.395 . S
C191 C193 1.391 1_556 S
C192 C191 1.395 . S
C192 C195 1.390 . S
C193 C191 1.391 1_554 S
C193 C197 1.387 . S
C193 C198 1.491 . S
H194 C195 0.950 . S
C195 C192 1.390 . S
C195 H194 0.950 . S
C195 C196 1.378 1_556 S
C196 C195 1.378 1_554 S
C196 C197 1.409 . S
C197 C193 1.387 . S
C197 C196 1.409 . S
C197 H199 0.951 . S
C198 C193 1.491 . S
C198 C200 1.382 . S
C198 C202 1.404 . S
H199 C197 0.951 . S
C200 C198 1.382 . S
C200 C201 1.390 . S
C200 H205 0.949 . S
C201 C200 1.390 . S
C201 C206 1.399 . S
C202 C198 1.404 . S
C202 H203 0.950 . S
C202 C204 1.375 . S
H203 C202 0.950 . S
C204 C202 1.375 . S
C204 C206 1.382 . S
C204 H208 0.950 . S
H205 C200 0.949 . S
C206 C201 1.399 . S
C206 C204 1.382 . S
C206 H207 0.952 . S
H207 C206 0.952 . S
H208 C204 0.950 . S
H209 C210 0.949 . S
C210 H209 0.949 . S
C210 C211 1.395 . S
C210 C212 1.410 . S
C211 C210 1.395 . S
C211 C214 1.390 . S
C212 C210 1.410 . S
C212 C216 1.378 1_556 S
C212 C217 1.483 1_556 S
H213 C214 0.950 . S
C214 C211 1.390 . S
C214 H213 0.950 . S
C214 C215 1.364 1_556 S
C215 C214 1.364 1_554 S
C215 C216 1.416 . S
C216 C212 1.378 1_554 S
C216 C215 1.416 . S
C216 H218 0.951 . S
C217 C212 1.483 1_554 S
C217 C219 1.382 . S
C217 C221 1.404 . S
H218 C216 0.951 . S
C219 C217 1.382 . S
C219 C220 1.390 . S
C219 H224 0.949 . S
C220 C219 1.390 . S
C220 C225 1.399 . S
C221 C217 1.404 . S
C221 H222 0.950 . S
C221 C223 1.375 . S
H222 C221 0.950 . S
C223 C221 1.375 . S
C223 C225 1.382 . S
C223 H227 0.950 . S
H224 C219 0.949 . S
C225 C220 1.399 . S
C225 C223 1.382 . S
C225 H226 0.952 . S
H226 C225 0.952 . S
H227 C223 0.950 . S
H228 C229 0.949 . S
C229 H228 0.949 . S
C229 C230 1.395 . S
C229 C231 1.391 1_554 S
C230 C229 1.395 . S
C230 C233 1.390 . S
C231 C229 1.391 1_556 S
C231 C235 1.387 . S
C231 C236 1.491 . S
H232 C233 0.950 . S
C233 C230 1.390 . S
C233 H232 0.950 . S
C233 C234 1.378 1_554 S
C234 C233 1.378 1_556 S
C234 C235 1.409 . S
C235 C231 1.387 . S
C235 C234 1.409 . S
C235 H237 0.951 . S
C236 C231 1.491 . S
C236 C238 1.382 . S
C236 C240 1.404 . S
H237 C235 0.951 . S
C238 C236 1.382 . S
C238 C239 1.390 . S
C238 H243 0.949 . S
C239 C238 1.390 . S
C239 C244 1.399 . S
C240 C236 1.404 . S
C240 H241 0.950 . S
C240 C242 1.375 . S
H241 C240 0.950 . S
C242 C240 1.375 . S
C242 C244 1.382 . S
C242 H246 0.950 . S
H243 C238 0.949 . S
C244 C239 1.399 . S
C244 C242 1.382 . S
C244 H245 0.952 . S
H245 C244 0.952 . S
H246 C242 0.950 . S
H247 C248 0.949 . S
C248 H247 0.949 . S
C248 C249 1.395 . S
C248 C250 1.391 1_554 S
C249 C248 1.395 . S
C249 C252 1.390 . S
C250 C248 1.391 1_556 S
C250 C254 1.387 . S
C250 C255 1.491 . S
H251 C252 0.950 . S
C252 C249 1.390 . S
C252 H251 0.950 . S
C252 C253 1.378 1_554 S
C253 C252 1.378 1_556 S
C253 C254 1.409 . S
C254 C250 1.387 . S
C254 C253 1.409 . S
C254 H256 0.951 . S
C255 C250 1.491 . S
C255 C257 1.382 . S
C255 C259 1.404 . S
H256 C254 0.951 . S
C257 C255 1.382 . S
C257 C258 1.390 . S
C257 H262 0.949 . S
C258 C257 1.390 . S
C258 C263 1.399 . S
C259 C255 1.404 . S
C259 H260 0.950 . S
C259 C261 1.375 . S
H260 C259 0.950 . S
C261 C259 1.375 . S
C261 C263 1.382 . S
C261 H265 0.950 . S
H262 C257 0.949 . S
C263 C258 1.399 . S
C263 C261 1.382 . S
C263 H264 0.952 . S
H264 C263 0.952 . S
H265 C261 0.950 . S
H266 C267 0.949 . S
C267 H266 0.949 . S
C267 C268 1.395 . S
C267 C269 1.391 . S
C268 C267 1.395 . S
C268 C271 1.390 . S
C269 C267 1.391 . S
C269 C273 1.387 1_554 S
C269 C274 1.491 1_554 S
H270 C271 0.950 . S
C271 C268 1.390 . S
C271 H270 0.950 . S
C271 C272 1.378 . S
C272 C271 1.378 . S
C272 C273 1.409 1_554 S
C273 C269 1.387 1_556 S
C273 C272 1.409 1_556 S
C273 H275 0.951 . S
C274 C269 1.491 1_556 S
C274 C276 1.382 . S
C274 C278 1.404 . S
H275 C273 0.951 . S
C276 C274 1.382 . S
C276 C277 1.390 . S
C276 H281 0.949 . S
C277 C276 1.390 . S
C277 C282 1.399 . S
C278 C274 1.404 . S
C278 H279 0.950 . S
C278 C280 1.375 . S
H279 C278 0.950 . S
C280 C278 1.375 . S
C280 C282 1.382 . S
C280 H284 0.950 . S
H281 C276 0.949 . S
C282 C277 1.399 . S
C282 C280 1.382 . S
C282 H283 0.952 . S
H283 C282 0.952 . S
H284 C280 0.950 . S
H285 C286 0.949 . S
C286 H285 0.949 . S
C286 C287 1.395 . S
C286 C288 1.391 . S
C287 C286 1.395 . S
C287 C290 1.390 . S
C288 C286 1.391 . S
C288 C292 1.387 . S
C288 C293 1.491 . S
H289 C290 0.950 . S
C290 C287 1.390 . S
C290 H289 0.950 . S
C290 C291 1.378 . S
C291 C290 1.378 . S
C291 C292 1.409 . S
C292 C288 1.387 . S
C292 C291 1.409 . S
C292 H294 0.951 . S
C293 C288 1.491 . S
C293 C295 1.382 . S
C293 C297 1.404 . S
H294 C292 0.951 . S
C295 C293 1.382 . S
C295 C296 1.390 . S
C295 H300 0.949 . S
C296 C295 1.390 . S
C296 C301 1.399 . S
C297 C293 1.404 . S
C297 H298 0.950 . S
C297 C299 1.375 . S
H298 C297 0.950 . S
C299 C297 1.375 . S
C299 C301 1.382 . S
C299 H303 0.950 . S
H300 C295 0.949 . S
C301 C296 1.399 . S
C301 C299 1.382 . S
C301 H302 0.952 . S
H302 C301 0.952 . S
H303 C299 0.950 . S
H304 C305 0.949 . S
C305 H304 0.949 . S
C305 C306 1.395 . S
C305 C307 1.391 . S
C306 C305 1.395 . S
C306 C309 1.390 . S
C307 C305 1.391 . S
C307 C311 1.387 . S
C307 C312 1.491 . S
H308 C309 0.950 . S
C309 C306 1.390 . S
C309 H308 0.950 . S
C309 C310 1.378 . S
C310 C309 1.378 . S
C310 C311 1.409 . S
C311 C307 1.387 . S
C311 C310 1.409 . S
C311 H313 0.951 . S
C312 C307 1.491 . S
C312 C314 1.382 . S
C312 C316 1.404 . S
H313 C311 0.951 . S
C314 C312 1.382 . S
C314 C315 1.390 . S
C314 H319 0.949 . S
C315 C314 1.390 . S
C315 C320 1.399 . S
C316 C312 1.404 . S
C316 H317 0.950 . S
C316 C318 1.375 . S
H317 C316 0.950 . S
C318 C316 1.375 . S
C318 C320 1.382 . S
C318 H322 0.950 . S
H319 C314 0.949 . S
C320 C315 1.399 . S
C320 C318 1.382 . S
C320 H321 0.952 . S
H321 C320 0.952 . S
H322 C318 0.950 . S
H323 C324 0.949 . S
C324 H323 0.949 . S
C324 C325 1.395 . S
C324 C326 1.391 . S
C325 C324 1.395 . S
C325 C328 1.390 . S
C326 C324 1.391 . S
C326 C330 1.387 . S
C326 C331 1.491 . S
H327 C328 0.950 . S
C328 C325 1.390 . S
C328 H327 0.950 . S
C328 C329 1.378 . S
C329 C328 1.378 . S
C329 C330 1.409 . S
C330 C326 1.387 . S
C330 C329 1.409 . S
C330 H332 0.951 . S
C331 C326 1.491 . S
C331 C333 1.382 . S
C331 C335 1.404 . S
H332 C330 0.951 . S
C333 C331 1.382 . S
C333 C334 1.390 . S
C333 H338 0.949 . S
C334 C333 1.390 . S
C334 C339 1.399 . S
C335 C331 1.404 . S
C335 H336 0.950 . S
C335 C337 1.375 . S
H336 C335 0.950 . S
C337 C335 1.375 . S
C337 C339 1.382 . S
C337 H341 0.950 . S
H338 C333 0.949 . S
C339 C334 1.399 . S
C339 C337 1.382 . S
C339 H340 0.952 . S
H340 C339 0.952 . S
H341 C337 0.950 . S
O342 Mg343 1.990 . S
O342 C356 1.253 . S
Mg343 O342 1.990 . S
Mg343 O346 2.180 1_545 S
Mg343 O347 2.117 1_545 S
Mg343 O361 2.030 . S
O344 Mg345 2.072 1_556 S
O344 C356 1.260 . S
Mg345 O344 2.072 1_554 S
Mg345 O346 2.099 1_544 S
Mg345 O348 2.079 1_545 S
Mg345 O349 2.072 1_544 S
Mg345 O351 2.099 . S
Mg345 O362 2.079 . S
O346 Mg343 2.180 1_565 S
O346 Mg345 2.099 1_566 S
O346 C357 1.279 . S
O347 Mg343 2.117 1_565 S
O347 C357 1.250 . S
O348 Mg345 2.079 1_565 S
O348 C358 1.264 . S
O349 Mg345 2.072 1_566 S
O349 C359 1.260 1_556 S
Mg350 O351 2.180 . S
Mg350 O352 2.030 1_545 S
Mg350 O353 1.990 1_545 S
Mg350 O354 2.117 . S
O351 Mg345 2.099 . S
O351 Mg350 2.180 . S
O351 C360 1.279 . S
O352 Mg350 2.030 1_565 S
O352 C358 1.248 . S
O353 Mg350 1.990 1_565 S
O353 C359 1.253 . S
O354 Mg350 2.117 . S
O354 C360 1.250 . S
C355 O361 1.258 . S
C355 O362 1.257 1_556 S
C356 O342 1.253 . S
C356 O344 1.260 . S
C357 O346 1.279 . S
C357 O347 1.250 . S
C358 O348 1.264 . S
C358 O352 1.248 . S
C359 O349 1.260 1_554 S
C359 O353 1.253 . S
C360 O351 1.279 . S
C360 O354 1.250 . S
O361 Mg343 2.030 . S
O361 C355 1.258 . S
O362 Mg345 2.079 . S
O362 C355 1.257 1_554 S
O363 Mg364 1.990 1_655 S
O363 C377 1.253 . S
Mg364 O363 1.990 1_455 S
Mg364 O367 2.180 . S
Mg364 O368 2.117 . S
Mg364 O382 2.030 1_455 S
O365 Mg366 2.072 1_656 S
O365 C377 1.260 . S
Mg366 O365 2.072 1_454 S
Mg366 O367 2.099 1_554 S
Mg366 O369 2.079 . S
Mg366 O370 2.072 1_554 S
Mg366 O372 2.099 1_455 S
Mg366 O383 2.079 1_455 S
O367 Mg364 2.180 . S
O367 Mg366 2.099 1_556 S
O367 C378 1.279 . S
O368 Mg364 2.117 . S
O368 C378 1.250 . S
O369 Mg366 2.079 . S
O369 C379 1.264 . S
O370 Mg366 2.072 1_556 S
O370 C380 1.260 1_556 S
Mg371 O372 2.180 1_455 S
Mg371 O373 2.030 . S
Mg371 O374 1.990 . S
Mg371 O375 2.117 1_455 S
O372 Mg366 2.099 1_655 S
O372 Mg371 2.180 1_655 S
O372 C381 1.279 . S
O373 Mg371 2.030 . S
O373 C379 1.248 . S
O374 Mg371 1.990 . S
O374 C380 1.253 . S
O375 Mg371 2.117 1_655 S
O375 C381 1.250 . S
C376 O382 1.266 . S
C376 O383 1.253 1_556 S
C377 O363 1.253 . S
C377 O365 1.260 . S
C378 O367 1.279 . S
C378 O368 1.250 . S
C379 O369 1.264 . S
C379 O373 1.248 . S
C380 O370 1.260 1_554 S
C380 O374 1.253 . S
C381 O372 1.279 . S
C381 O375 1.250 . S
O382 Mg364 2.030 1_655 S
O382 C376 1.266 . S
O383 Mg366 2.079 1_655 S
O383 C376 1.253 1_554 S
O384 Mg385 1.990 . S
O384 C398 1.253 . S
Mg385 O384 1.990 . S
Mg385 O388 2.180 . S
Mg385 O389 2.117 . S
Mg385 O403 2.030 . S
O386 Mg387 2.072 1_554 S
O386 C398 1.260 . S
Mg387 O386 2.072 1_556 S
Mg387 O388 2.099 1_556 S
Mg387 O390 2.079 . S
Mg387 O391 2.072 1_556 S
Mg387 O393 2.099 . S
Mg387 O404 2.079 . S
O388 Mg385 2.180 . S
O388 Mg387 2.099 1_554 S
O388 C399 1.279 . S
O389 Mg385 2.117 . S
O389 C399 1.250 . S
O390 Mg387 2.079 . S
O390 C400 1.264 . S
O391 Mg387 2.072 1_554 S
O391 C401 1.260 1_554 S
Mg392 O393 2.180 . S
Mg392 O394 2.030 . S
Mg392 O395 1.990 . S
Mg392 O396 2.117 . S
O393 Mg387 2.099 . S
O393 Mg392 2.180 . S
O393 C402 1.279 . S
O394 Mg392 2.030 . S
O394 C400 1.248 . S
O395 Mg392 1.990 . S
O395 C401 1.253 . S
O396 Mg392 2.117 . S
O396 C402 1.250 . S
C397 O403 1.248 . S
C397 O404 1.264 1_554 S
C398 O384 1.253 . S
C398 O386 1.260 . S
C399 O388 1.279 . S
C399 O389 1.250 . S
C400 O390 1.264 . S
C400 O394 1.248 . S
C401 O391 1.260 1_556 S
C401 O395 1.253 . S
C402 O393 1.279 . S
C402 O396 1.250 . S
O403 Mg385 2.030 . S
O403 C397 1.248 . S
O404 Mg387 2.079 . S
O404 C397 1.264 1_556 S
O405 Mg406 1.990 . S
O405 C419 1.253 . S
Mg406 O405 1.990 . S
Mg406 O409 2.180 . S
Mg406 O410 2.117 . S
Mg406 O424 2.030 . S
O407 Mg408 2.072 . S
O407 C419 1.260 . S
Mg408 O407 2.072 . S
Mg408 O409 2.099 . S
Mg408 O411 2.079 . S
Mg408 O412 2.072 . S
Mg408 O414 2.099 . S
Mg408 O425 2.079 . S
O409 Mg406 2.180 . S
O409 Mg408 2.099 . S
O409 C420 1.279 . S
O410 Mg406 2.117 . S
O410 C420 1.250 . S
O411 Mg408 2.079 . S
O411 C421 1.264 . S
O412 Mg408 2.072 . S
O412 C422 1.260 . S
Mg413 O414 2.180 . S
Mg413 O415 2.030 . S
Mg413 O416 1.990 . S
Mg413 O417 2.117 . S
O414 Mg408 2.099 . S
O414 Mg413 2.180 . S
O414 C423 1.279 . S
O415 Mg413 2.030 . S
O415 C421 1.248 . S
O416 Mg413 1.990 . S
O416 C422 1.253 . S
O417 Mg413 2.117 . S
O417 C423 1.250 . S
C418 O424 1.248 . S
C418 O425 1.264 . S
C419 O405 1.253 . S
C419 O407 1.260 . S
C420 O409 1.279 . S
C420 O410 1.250 . S
C421 O411 1.264 . S
C421 O415 1.248 . S
C422 O412 1.260 . S
C422 O416 1.253 . S
C423 O414 1.279 . S
C423 O417 1.250 . S
O424 Mg406 2.030 . S
O424 C418 1.248 . S
O425 Mg408 2.079 . S
O425 C418 1.264 . S
O426 Mg427 1.990 . S
O426 C440 1.253 . S
Mg427 O426 1.990 . S
Mg427 O430 2.180 . S
Mg427 O431 2.117 . S
Mg427 O445 2.030 . S
O428 Mg429 2.072 . S
O428 C440 1.260 . S
Mg429 O428 2.072 . S
Mg429 O430 2.099 . S
Mg429 O432 2.079 . S
Mg429 O433 2.072 . S
Mg429 O435 2.099 . S
Mg429 O446 2.079 . S
O430 Mg427 2.180 . S
O430 Mg429 2.099 . S
O430 C441 1.279 . S
O431 Mg427 2.117 . S
O431 C441 1.250 . S
O432 Mg429 2.079 . S
O432 C442 1.264 . S
O433 Mg429 2.072 . S
O433 C443 1.260 . S
Mg434 O435 2.180 . S
Mg434 O436 2.030 . S
Mg434 O437 1.990 . S
Mg434 O438 2.117 . S
O435 Mg429 2.099 . S
O435 Mg434 2.180 . S
O435 C444 1.279 . S
O436 Mg434 2.030 . S
O436 C442 1.248 . S
O437 Mg434 1.990 . S
O437 C443 1.253 . S
O438 Mg434 2.117 . S
O438 C444 1.250 . S
C439 O445 1.248 . S
C439 O446 1.264 . S
C440 O426 1.253 . S
C440 O428 1.260 . S
C441 O430 1.279 . S
C441 O431 1.250 . S
C442 O432 1.264 . S
C442 O436 1.248 . S
C443 O433 1.260 . S
C443 O437 1.253 . S
C444 O435 1.279 . S
C444 O438 1.250 . S
O445 Mg427 2.030 . S
O445 C439 1.248 . S
O446 Mg429 2.079 . S
O446 C439 1.264 . S
O447 Mg448 1.990 . S
O447 C461 1.253 . S
Mg448 O447 1.990 . S
Mg448 O451 2.180 . S
Mg448 O452 2.117 . S
Mg448 O466 2.030 . S
O449 Mg450 2.072 . S
O449 C461 1.260 . S
Mg450 O449 2.072 . S
Mg450 O451 2.099 . S
Mg450 O453 2.079 . S
Mg450 O454 2.072 . S
Mg450 O456 2.099 . S
Mg450 O467 2.079 . S
O451 Mg448 2.180 . S
O451 Mg450 2.099 . S
O451 C462 1.279 . S
O452 Mg448 2.117 . S
O452 C462 1.250 . S
O453 Mg450 2.079 . S
O453 C463 1.264 . S
O454 Mg450 2.072 . S
O454 C464 1.260 . S
Mg455 O456 2.180 . S
Mg455 O457 2.030 . S
Mg455 O458 1.990 . S
Mg455 O459 2.117 . S
O456 Mg450 2.099 . S
O456 Mg455 2.180 . S
O456 C465 1.279 . S
O457 Mg455 2.030 . S
O457 C463 1.248 . S
O458 Mg455 1.990 . S
O458 C464 1.253 . S
O459 Mg455 2.117 . S
O459 C465 1.250 . S
C460 O466 1.248 . S
C460 O467 1.264 . S
C461 O447 1.253 . S
C461 O449 1.260 . S
C462 O451 1.279 . S
C462 O452 1.250 . S
C463 O453 1.264 . S
C463 O457 1.248 . S
C464 O454 1.260 . S
C464 O458 1.253 . S
C465 O456 1.279 . S
C465 O459 1.250 . S
O466 Mg448 2.030 . S
O466 C460 1.248 . S
O467 Mg450 2.079 . S
O467 C460 1.264 . S
O468 Mg469 1.990 . S
O468 C482 1.253 . S
Mg469 O468 1.990 . S
Mg469 O472 2.180 . S
Mg469 O473 2.117 . S
Mg469 O487 2.030 . S
O470 Mg471 2.072 . S
O470 C482 1.260 . S
Mg471 O470 2.072 . S
Mg471 O472 2.099 . S
Mg471 O474 2.079 . S
Mg471 O475 2.072 . S
Mg471 O477 2.099 . S
Mg471 O488 2.079 . S
O472 Mg469 2.180 . S
O472 Mg471 2.099 . S
O472 C483 1.279 . S
O473 Mg469 2.117 . S
O473 C483 1.250 . S
O474 Mg471 2.079 . S
O474 C484 1.264 . S
O475 Mg471 2.072 . S
O475 C485 1.260 . S
Mg476 O477 2.180 . S
Mg476 O478 2.030 . S
Mg476 O479 1.990 . S
Mg476 O480 2.117 . S
O477 Mg471 2.099 . S
O477 Mg476 2.180 . S
O477 C486 1.279 . S
O478 Mg476 2.030 . S
O478 C484 1.248 . S
O479 Mg476 1.990 . S
O479 C485 1.253 . S
O480 Mg476 2.117 . S
O480 C486 1.250 . S
C481 O487 1.248 . S
C481 O488 1.264 . S
C482 O468 1.253 . S
C482 O470 1.260 . S
C483 O472 1.279 . S
C483 O473 1.250 . S
C484 O474 1.264 . S
C484 O478 1.248 . S
C485 O475 1.260 . S
C485 O479 1.253 . S
C486 O477 1.279 . S
C486 O480 1.250 . S
O487 Mg469 2.030 . S
O487 C481 1.248 . S
O488 Mg471 2.079 . S
O488 C481 1.264 . S
O489 Mg490 1.990 . S
O489 C503 1.253 . S
Mg490 O489 1.990 . S
Mg490 O493 2.180 . S
Mg490 O494 2.117 . S
Mg490 O508 2.030 . S
O491 Mg492 2.072 . S
O491 C503 1.260 . S
Mg492 O491 2.072 . S
Mg492 O493 2.099 . S
Mg492 O495 2.079 . S
Mg492 O496 2.072 . S
Mg492 O498 2.099 . S
Mg492 O509 2.079 . S
O493 Mg490 2.180 . S
O493 Mg492 2.099 . S
O493 C504 1.279 . S
O494 Mg490 2.117 . S
O494 C504 1.250 . S
O495 Mg492 2.079 . S
O495 C505 1.264 . S
O496 Mg492 2.072 . S
O496 C506 1.260 . S
Mg497 O498 2.180 . S
Mg497 O499 2.030 . S
Mg497 O500 1.990 . S
Mg497 O501 2.117 . S
O498 Mg492 2.099 . S
O498 Mg497 2.180 . S
O498 C507 1.279 . S
O499 Mg497 2.030 . S
O499 C505 1.248 . S
O500 Mg497 1.990 . S
O500 C506 1.253 . S
O501 Mg497 2.117 . S
O501 C507 1.250 . S
C502 O508 1.248 . S
C502 O509 1.264 . S
C503 O489 1.253 . S
C503 O491 1.260 . S
C504 O493 1.279 . S
C504 O494 1.250 . S
C505 O495 1.264 . S
C505 O499 1.248 . S
C506 O496 1.260 . S
C506 O500 1.253 . S
C507 O498 1.279 . S
C507 O501 1.250 . S
O508 Mg490 2.030 . S
O508 C502 1.248 . S
O509 Mg492 2.079 . S
O509 C502 1.264 . S
O510 Mg511 1.990 . S
O510 C524 1.253 . S
Mg511 O510 1.990 . S
Mg511 O514 2.180 . S
Mg511 O515 2.117 . S
Mg511 O529 2.030 . S
O512 Mg513 2.072 . S
O512 C524 1.260 . S
Mg513 O512 2.072 . S
Mg513 O514 2.099 . S
Mg513 O516 2.079 . S
Mg513 O517 2.072 . S
Mg513 O519 2.099 . S
Mg513 O530 2.079 . S
O514 Mg511 2.180 . S
O514 Mg513 2.099 . S
O514 C525 1.279 . S
O515 Mg511 2.117 . S
O515 C525 1.250 . S
O516 Mg513 2.079 . S
O516 C526 1.264 . S
O517 Mg513 2.072 . S
O517 C527 1.260 . S
Mg518 O519 2.180 . S
Mg518 O520 2.030 . S
Mg518 O521 1.990 . S
Mg518 O522 2.117 . S
O519 Mg513 2.099 . S
O519 Mg518 2.180 . S
O519 C528 1.279 . S
O520 Mg518 2.030 . S
O520 C526 1.248 . S
O521 Mg518 1.990 . S
O521 C527 1.253 . S
O522 Mg518 2.117 . S
O522 C528 1.250 . S
C523 O529 1.248 . S
C523 O530 1.264 . S
C524 O510 1.253 . S
C524 O512 1.260 . S
C525 O514 1.279 . S
C525 O515 1.250 . S
C526 O516 1.264 . S
C526 O520 1.248 . S
C527 O517 1.260 . S
C527 O521 1.253 . S
C528 O519 1.279 . S
C528 O522 1.250 . S
O529 Mg511 2.030 . S
O529 C523 1.248 . S
O530 Mg513 2.079 . S
O530 C523 1.264 . S
C531 C532 1.391 . S
C531 C533 1.394 . S
C531 H547 0.931 . S
C532 C531 1.391 . S
C532 C536 1.376 1_556 S
C533 C531 1.394 . S
C533 C534 1.369 . S
C533 C537 1.531 . S
C534 C533 1.369 . S
C534 C535 1.410 1_556 S
C534 C542 1.503 . S
C535 C534 1.410 1_554 S
C535 C536 1.392 . S
C535 C538 1.511 . S
C536 C532 1.376 1_554 S
C536 C535 1.392 . S
C536 H548 0.929 . S
C537 C533 1.531 . S
C537 H549 0.960 . S
C537 H550 0.962 . S
C537 H551 0.960 . S
C538 C535 1.511 . S
C538 H552 0.961 . S
C538 H553 0.961 . S
C538 H554 0.961 . S
C539 C540 1.387 . S
C539 C541 1.363 . S
C539 H555 0.931 . S
C540 C539 1.387 . S
C540 C544 1.391 1_556 S
C541 C539 1.363 . S
C541 C542 1.398 . S
C541 C545 1.524 . S
C542 C534 1.503 . S
C542 C541 1.398 . S
C542 C543 1.376 1_556 S
C543 C542 1.376 1_554 S
C543 C544 1.404 . S
C543 C546 1.539 . S
C544 C540 1.391 1_554 S
C544 C543 1.404 . S
C544 H556 0.930 . S
C545 C541 1.524 . S
C545 H557 0.956 . S
C545 H558 0.961 . S
C545 H559 0.961 . S
C546 C543 1.539 . S
C546 H560 0.958 . S
C546 H561 0.961 . S
C546 H562 0.960 . S
H547 C531 0.931 . S
H548 C536 0.929 . S
H549 C537 0.960 . S
H550 C537 0.962 . S
H551 C537 0.960 . S
H552 C538 0.961 . S
H553 C538 0.961 . S
H554 C538 0.961 . S
H555 C539 0.931 . S
H556 C544 0.930 . S
H557 C545 0.956 . S
H558 C545 0.961 . S
H559 C545 0.961 . S
H560 C546 0.958 . S
H561 C546 0.961 . S
H562 C546 0.960 . S
C563 C564 1.391 . S
C563 C565 1.394 . S
C563 H579 0.931 . S
C564 C563 1.391 . S
C564 C568 1.376 . S
C565 C563 1.394 . S
C565 C566 1.369 . S
C565 C569 1.531 . S
C566 C565 1.369 . S
C566 C567 1.410 . S
C566 C574 1.503 . S
C567 C566 1.410 . S
C567 C568 1.392 . S
C567 C570 1.511 . S
C568 C564 1.376 . S
C568 C567 1.392 . S
C568 H580 0.929 . S
C569 C565 1.531 . S
C569 H581 0.960 . S
C569 H582 0.962 1_556 S
C569 H583 0.960 . S
C570 C567 1.511 . S
C570 H584 0.961 . S
C570 H585 0.961 . S
C570 H586 0.961 . S
C571 C572 1.370 1_554 S
C571 C573 1.363 . S
C571 H587 0.931 . S
C572 C571 1.370 1_556 S
C572 C576 1.408 . S
C573 C571 1.363 . S
C573 C574 1.370 1_554 S
C573 C577 1.524 . S
C574 C566 1.503 . S
C574 C573 1.370 1_556 S
C574 C575 1.403 . S
C575 C574 1.403 . S
C575 C576 1.404 . S
C575 C578 1.539 . S
C576 C572 1.408 . S
C576 C575 1.404 . S
C576 H588 0.930 . S
C577 C573 1.524 . S
C577 H589 0.956 . S
C577 H590 0.961 . S
C577 H591 0.961 . S
C578 C575 1.539 . S
C578 H592 0.958 . S
C578 H593 0.961 . S
C578 H594 0.960 . S
H579 C563 0.931 . S
H580 C568 0.929 . S
H581 C569 0.960 . S
H582 C569 0.962 1_554 S
H583 C569 0.960 . S
H584 C570 0.961 . S
H585 C570 0.961 . S
H586 C570 0.961 . S
H587 C571 0.931 . S
H588 C576 0.930 . S
H589 C577 0.956 . S
H590 C577 0.961 . S
H591 C577 0.961 . S
H592 C578 0.958 . S
H593 C578 0.961 . S
H594 C578 0.960 . S
C595 C596 1.391 . S
C595 C597 1.394 . S
C595 H611 0.931 . S
C596 C595 1.391 . S
C596 C600 1.376 1_556 S
C597 C595 1.394 . S
C597 C598 1.369 . S
C597 C601 1.531 . S
C598 C597 1.369 . S
C598 C599 1.410 1_556 S
C598 C606 1.503 . S
C599 C598 1.410 1_554 S
C599 C600 1.392 . S
C599 C602 1.511 . S
C600 C596 1.376 1_554 S
C600 C599 1.392 . S
C600 H612 0.929 . S
C601 C597 1.531 . S
C601 H613 0.960 . S
C601 H614 0.962 . S
C601 H615 0.960 . S
C602 C599 1.511 . S
C602 H616 0.961 . S
C602 H617 0.961 . S
C602 H618 0.961 . S
C603 C604 1.367 1_554 S
C603 C605 1.363 . S
C603 H619 0.931 . S
C604 C603 1.367 1_556 S
C604 C608 1.413 . S
C605 C603 1.363 . S
C605 C606 1.370 1_554 S
C605 C609 1.524 . S
C606 C598 1.503 . S
C606 C605 1.370 1_556 S
C606 C607 1.403 . S
C607 C606 1.403 . S
C607 C608 1.404 . S
C607 C610 1.539 . S
C608 C604 1.413 . S
C608 C607 1.404 . S
C608 H620 0.930 . S
C609 C605 1.524 . S
C609 H621 0.956 . S
C609 H622 0.961 . S
C609 H623 0.961 . S
C610 C607 1.539 . S
C610 H624 0.958 . S
C610 H625 0.961 . S
C610 H626 0.960 . S
H611 C595 0.931 . S
H612 C600 0.929 . S
H613 C601 0.960 . S
H614 C601 0.962 . S
H615 C601 0.960 . S
H616 C602 0.961 . S
H617 C602 0.961 . S
H618 C602 0.961 . S
H619 C603 0.931 . S
H620 C608 0.930 . S
H621 C609 0.956 . S
H622 C609 0.961 . S
H623 C609 0.961 . S
H624 C610 0.958 . S
H625 C610 0.961 . S
H626 C610 0.960 . S
C627 C628 1.391 1_556 S
C627 C629 1.394 . S
C627 H643 0.931 . S
C628 C627 1.391 1_554 S
C628 C632 1.376 . S
C629 C627 1.394 . S
C629 C630 1.369 . S
C629 C633 1.531 . S
C630 C629 1.369 . S
C630 C631 1.410 1_556 S
C630 C638 1.504 . S
C631 C630 1.410 1_554 S
C631 C632 1.392 . S
C631 C634 1.511 . S
C632 C628 1.376 . S
C632 C631 1.392 . S
C632 H644 0.929 . S
C633 C629 1.531 . S
C633 H645 0.960 . S
C633 H646 0.962 . S
C633 H647 0.960 . S
C634 C631 1.511 . S
C634 H648 0.961 . S
C634 H649 0.961 . S
C634 H650 0.961 . S
C635 C636 1.376 . S
C635 C637 1.363 . S
C635 H651 0.931 . S
C636 C635 1.376 . S
C636 C640 1.402 1_554 S
C637 C635 1.363 . S
C637 C638 1.347 1_554 S
C637 C641 1.524 . S
C638 C630 1.504 . S
C638 C637 1.347 1_556 S
C638 C639 1.427 . S
C639 C638 1.427 . S
C639 C640 1.404 . S
C639 C642 1.539 . S
C640 C636 1.402 1_556 S
C640 C639 1.404 . S
C640 H652 0.930 . S
C641 C637 1.524 . S
C641 H653 0.956 . S
C641 H654 0.961 . S
C641 H655 0.961 . S
C642 C639 1.539 . S
C642 H656 0.958 . S
C642 H657 0.961 . S
C642 H658 0.960 . S
H643 C627 0.931 . S
H644 C632 0.929 . S
H645 C633 0.960 . S
H646 C633 0.962 . S
H647 C633 0.960 . S
H648 C634 0.961 . S
H649 C634 0.961 . S
H650 C634 0.961 . S
H651 C635 0.931 . S
H652 C640 0.930 . S
H653 C641 0.956 . S
H654 C641 0.961 . S
H655 C641 0.961 . S
H656 C642 0.958 . S
H657 C642 0.961 . S
H658 C642 0.960 . S
C659 C660 1.391 . S
C659 C661 1.394 . S
C659 H675 0.931 . S
C660 C659 1.391 . S
C660 C664 1.376 1_554 S
C661 C659 1.394 . S
C661 C662 1.382 . S
C661 C665 1.531 . S
C662 C661 1.382 . S
C662 C663 1.400 1_554 S
C662 C670 1.504 . S
C663 C662 1.400 1_556 S
C663 C664 1.392 . S
C663 C666 1.511 . S
C664 C660 1.376 1_556 S
C664 C663 1.392 . S
C664 H676 0.929 . S
C665 C661 1.531 . S
C665 H677 0.960 . S
C665 H678 0.962 . S
C665 H679 0.960 . S
C666 C663 1.511 . S
C666 H680 0.961 . S
C666 H681 0.961 . S
C666 H682 0.961 . S
C667 C668 1.370 . S
C667 C669 1.363 . S
C667 H683 0.931 . S
C668 C667 1.370 . S
C668 C672 1.408 1_554 S
C669 C667 1.363 . S
C669 C670 1.370 . S
C669 C673 1.524 . S
C670 C662 1.504 . S
C670 C669 1.370 . S
C670 C671 1.403 1_554 S
C671 C670 1.403 1_556 S
C671 C672 1.404 . S
C671 C674 1.539 . S
C672 C668 1.408 1_556 S
C672 C671 1.404 . S
C672 H684 0.930 . S
C673 C669 1.524 . S
C673 H685 0.956 . S
C673 H686 0.961 . S
C673 H687 0.961 . S
C674 C671 1.539 . S
C674 H688 0.958 . S
C674 H689 0.961 . S
C674 H690 0.960 . S
H675 C659 0.931 . S
H676 C664 0.929 . S
H677 C665 0.960 . S
H678 C665 0.962 . S
H679 C665 0.960 . S
H680 C666 0.961 . S
H681 C666 0.961 . S
H682 C666 0.961 . S
H683 C667 0.931 . S
H684 C672 0.930 . S
H685 C673 0.956 . S
H686 C673 0.961 . S
H687 C673 0.961 . S
H688 C674 0.958 . S
H689 C674 0.961 . S
H690 C674 0.960 . S
C691 C692 1.391 1_556 S
C691 C693 1.394 . S
C691 H707 0.931 . S
C692 C691 1.391 1_554 S
C692 C696 1.376 . S
C693 C691 1.394 . S
C693 C694 1.369 1_556 S
C693 C697 1.531 . S
C694 C693 1.369 1_554 S
C694 C695 1.410 . S
C694 C702 1.503 . S
C695 C694 1.410 . S
C695 C696 1.392 . S
C695 C698 1.511 . S
C696 C692 1.376 . S
C696 C695 1.392 . S
C696 H708 0.929 . S
C697 C693 1.531 . S
C697 H709 0.960 . S
C697 H710 0.962 . S
C697 H711 0.960 . S
C698 C695 1.511 . S
C698 H712 0.961 . S
C698 H713 0.961 . S
C698 H714 0.961 . S
C699 C700 1.394 . S
C699 C701 1.363 . S
C699 H715 0.931 . S
C700 C699 1.394 . S
C700 C704 1.383 1_554 S
C701 C699 1.363 . S
C701 C702 1.370 . S
C701 C705 1.524 . S
C702 C694 1.503 . S
C702 C701 1.370 . S
C702 C703 1.403 1_554 S
C703 C702 1.403 1_556 S
C703 C704 1.404 . S
C703 C706 1.539 . S
C704 C700 1.383 1_556 S
C704 C703 1.404 . S
C704 H716 0.930 . S
C705 C701 1.524 . S
C705 H717 0.956 . S
C705 H718 0.961 . S
C705 H719 0.961 . S
C706 C703 1.539 . S
C706 H720 0.958 . S
C706 H721 0.961 . S
C706 H722 0.960 . S
H707 C691 0.931 . S
H708 C696 0.929 . S
H709 C697 0.960 . S
H710 C697 0.962 . S
H711 C697 0.960 . S
H712 C698 0.961 . S
H713 C698 0.961 . S
H714 C698 0.961 . S
H715 C699 0.931 . S
H716 C704 0.930 . S
H717 C705 0.956 . S
H718 C705 0.961 . S
H719 C705 0.961 . S
H720 C706 0.958 . S
H721 C706 0.961 . S
H722 C706 0.960 . S
C723 C724 1.391 . S
C723 C725 1.394 . S
C723 H739 0.931 . S
C724 C723 1.391 . S
C724 C728 1.376 . S
C725 C723 1.394 . S
C725 C726 1.369 . S
C725 C729 1.531 . S
C726 C725 1.369 . S
C726 C727 1.410 . S
C726 C734 1.503 . S
C727 C726 1.410 . S
C727 C728 1.392 . S
C727 C730 1.511 1_554 S
C728 C724 1.376 . S
C728 C727 1.392 . S
C728 H740 0.929 . S
C729 C725 1.531 . S
C729 H741 0.960 . S
C729 H742 0.962 . S
C729 H743 0.960 . S
C730 C727 1.511 1_556 S
C730 H744 0.961 1_556 S
C730 H745 0.961 1_556 S
C730 H746 0.961 . S
C731 C732 1.370 . S
C731 C733 1.363 . S
C731 H747 0.931 . S
C732 C731 1.370 . S
C732 C736 1.408 1_554 S
C733 C731 1.363 . S
C733 C734 1.370 . S
C733 C737 1.524 . S
C734 C726 1.503 . S
C734 C733 1.370 . S
C734 C735 1.403 1_554 S
C735 C734 1.403 1_556 S
C735 C736 1.404 . S
C735 C738 1.539 . S
C736 C732 1.408 1_556 S
C736 C735 1.404 . S
C736 H748 0.930 . S
C737 C733 1.524 . S
C737 H749 0.956 . S
C737 H750 0.961 . S
C737 H751 0.961 . S
C738 C735 1.539 . S
C738 H752 0.958 . S
C738 H753 0.961 . S
C738 H754 0.960 . S
H739 C723 0.931 . S
H740 C728 0.929 . S
H741 C729 0.960 . S
H742 C729 0.962 . S
H743 C729 0.960 . S
H744 C730 0.961 1_554 S
H745 C730 0.961 1_554 S
H746 C730 0.961 . S
H747 C731 0.931 . S
H748 C736 0.930 . S
H749 C737 0.956 . S
H750 C737 0.961 . S
H751 C737 0.961 . S
H752 C738 0.958 . S
H753 C738 0.961 . S
H754 C738 0.960 . S
C755 C756 1.391 . S
C755 C757 1.394 . S
C755 H771 0.931 . S
C756 C755 1.391 . S
C756 C760 1.376 . S
C757 C755 1.394 . S
C757 C758 1.369 . S
C757 C761 1.531 . S
C758 C757 1.369 . S
C758 C759 1.410 . S
C758 C766 1.503 . S
C759 C758 1.410 . S
C759 C760 1.392 . S
C759 C762 1.511 1_554 S
C760 C756 1.376 . S
C760 C759 1.392 . S
C760 H772 0.929 . S
C761 C757 1.531 . S
C761 H773 0.960 . S
C761 H774 0.962 . S
C761 H775 0.960 . S
C762 C759 1.511 1_556 S
C762 H776 0.961 . S
C762 H777 0.961 . S
C762 H778 0.961 . S
C763 C764 1.370 . S
C763 C765 1.363 . S
C763 H779 0.931 . S
C764 C763 1.370 . S
C764 C768 1.408 1_554 S
C765 C763 1.363 . S
C765 C766 1.370 . S
C765 C769 1.524 . S
C766 C758 1.503 . S
C766 C765 1.370 . S
C766 C767 1.403 1_554 S
C767 C766 1.403 1_556 S
C767 C768 1.404 . S
C767 C770 1.539 . S
C768 C764 1.408 1_556 S
C768 C767 1.404 . S
C768 H780 0.930 . S
C769 C765 1.524 . S
C769 H781 0.956 . S
C769 H782 0.961 . S
C769 H783 0.961 . S
C770 C767 1.539 . S
C770 H784 0.958 . S
C770 H785 0.961 . S
C770 H786 0.960 . S
H771 C755 0.931 . S
H772 C760 0.929 . S
H773 C761 0.960 . S
H774 C761 0.962 . S
H775 C761 0.960 . S
H776 C762 0.961 . S
H777 C762 0.961 . S
H778 C762 0.961 . S
H779 C763 0.931 . S
H780 C768 0.930 . S
H781 C769 0.956 . S
H782 C769 0.961 . S
H783 C769 0.961 . S
H784 C770 0.958 . S
H785 C770 0.961 . S
H786 C770 0.960 . S
C787 C788 1.391 . S
C787 C789 1.394 . S
C787 H803 0.931 . S
C788 C787 1.391 . S
C788 C792 1.376 . S
C789 C787 1.394 . S
C789 C790 1.369 . S
C789 C793 1.531 1_554 S
C790 C789 1.369 . S
C790 C791 1.410 . S
C790 C798 1.503 . S
C791 C790 1.410 . S
C791 C792 1.392 . S
C791 C794 1.511 . S
C792 C788 1.376 . S
C792 C791 1.392 . S
C792 H804 0.929 . S
C793 C789 1.531 1_556 S
C793 H805 0.960 . S
C793 H806 0.962 1_556 S
C793 H807 0.960 . S
C794 C791 1.511 . S
C794 H808 0.961 . S
C794 H809 0.961 . S
C794 H810 0.961 . S
C795 C796 1.370 . S
C795 C797 1.363 . S
C795 H811 0.931 . S
C796 C795 1.370 . S
C796 C800 1.408 1_554 S
C797 C795 1.363 . S
C797 C798 1.370 . S
C797 C801 1.524 . S
C798 C790 1.503 . S
C798 C797 1.370 . S
C798 C799 1.403 1_554 S
C799 C798 1.403 1_556 S
C799 C800 1.404 . S
C799 C802 1.539 . S
C800 C796 1.408 1_556 S
C800 C799 1.404 . S
C800 H812 0.930 . S
C801 C797 1.524 . S
C801 H813 0.956 . S
C801 H814 0.961 . S
C801 H815 0.961 . S
C802 C799 1.539 . S
C802 H816 0.958 . S
C802 H817 0.961 . S
C802 H818 0.960 . S
H803 C787 0.931 . S
H804 C792 0.929 . S
H805 C793 0.960 . S
H806 C793 0.962 1_554 S
H807 C793 0.960 . S
H808 C794 0.961 . S
H809 C794 0.961 . S
H810 C794 0.961 . S
H811 C795 0.931 . S
H812 C800 0.930 . S
H813 C801 0.956 . S
H814 C801 0.961 . S
H815 C801 0.961 . S
H816 C802 0.958 . S
H817 C802 0.961 . S
H818 C802 0.960 . S
C819 C820 1.391 . S
C819 C821 1.394 . S
C819 H835 0.931 . S
C820 C819 1.391 . S
C820 C824 1.376 . S
C821 C819 1.394 . S
C821 C822 1.369 . S
C821 C825 1.531 1_556 S
C822 C821 1.369 . S
C822 C823 1.410 . S
C822 C830 1.503 . S
C823 C822 1.410 . S
C823 C824 1.392 . S
C823 C826 1.511 . S
C824 C820 1.376 . S
C824 C823 1.392 . S
C824 H836 0.929 . S
C825 C821 1.531 1_554 S
C825 H837 0.960 . S
C825 H838 0.962 1_554 S
C825 H839 0.960 . S
C826 C823 1.511 . S
C826 H840 0.961 . S
C826 H841 0.961 . S
C826 H842 0.961 . S
C827 C828 1.370 . S
C827 C829 1.363 . S
C827 H843 0.931 . S
C828 C827 1.370 . S
C828 C832 1.408 1_556 S
C829 C827 1.363 . S
C829 C830 1.370 . S
C829 C833 1.524 . S
C830 C822 1.503 . S
C830 C829 1.370 . S
C830 C831 1.403 1_556 S
C831 C830 1.403 1_554 S
C831 C832 1.404 . S
C831 C834 1.539 . S
C832 C828 1.408 1_554 S
C832 C831 1.404 . S
C832 H844 0.930 . S
C833 C829 1.524 . S
C833 H845 0.956 . S
C833 H846 0.961 . S
C833 H847 0.961 . S
C834 C831 1.539 . S
C834 H848 0.958 . S
C834 H849 0.961 . S
C834 H850 0.960 . S
H835 C819 0.931 . S
H836 C824 0.929 . S
H837 C825 0.960 . S
H838 C825 0.962 1_556 S
H839 C825 0.960 . S
H840 C826 0.961 . S
H841 C826 0.961 . S
H842 C826 0.961 . S
H843 C827 0.931 . S
H844 C832 0.930 . S
H845 C833 0.956 . S
H846 C833 0.961 . S
H847 C833 0.961 . S
H848 C834 0.958 . S
H849 C834 0.961 . S
H850 C834 0.960 . S
C851 C852 1.391 . S
C851 C853 1.394 . S
C851 H867 0.931 . S
C852 C851 1.391 . S
C852 C856 1.376 . S
C853 C851 1.394 . S
C853 C854 1.369 . S
C853 C857 1.531 . S
C854 C853 1.369 . S
C854 C855 1.410 . S
C854 C862 1.503 . S
C855 C854 1.410 . S
C855 C856 1.392 . S
C855 C858 1.511 . S
C856 C852 1.376 . S
C856 C855 1.392 . S
C856 H868 0.929 . S
C857 C853 1.531 . S
C857 H869 0.960 . S
C857 H870 0.962 1_556 S
C857 H871 0.960 . S
C858 C855 1.511 . S
C858 H872 0.961 . S
C858 H873 0.961 . S
C858 H874 0.961 . S
C859 C860 1.370 1_554 S
C859 C861 1.363 . S
C859 H875 0.931 . S
C860 C859 1.370 1_556 S
C860 C864 1.408 . S
C861 C859 1.363 . S
C861 C862 1.370 1_554 S
C861 C865 1.524 . S
C862 C854 1.503 . S
C862 C861 1.370 1_556 S
C862 C863 1.403 . S
C863 C862 1.403 . S
C863 C864 1.404 . S
C863 C866 1.539 . S
C864 C860 1.408 . S
C864 C863 1.404 . S
C864 H876 0.930 . S
C865 C861 1.524 . S
C865 H877 0.956 . S
C865 H878 0.961 . S
C865 H879 0.961 . S
C866 C863 1.539 . S
C866 H880 0.958 . S
C866 H881 0.961 . S
C866 H882 0.960 . S
H867 C851 0.931 . S
H868 C856 0.929 . S
H869 C857 0.960 . S
H870 C857 0.962 1_554 S
H871 C857 0.960 . S
H872 C858 0.961 . S
H873 C858 0.961 . S
H874 C858 0.961 . S
H875 C859 0.931 . S
H876 C864 0.930 . S
H877 C865 0.956 . S
H878 C865 0.961 . S
H879 C865 0.961 . S
H880 C866 0.958 . S
H881 C866 0.961 . S
H882 C866 0.960 . S
C883 C884 1.391 . S
C883 C885 1.394 . S
C883 H899 0.931 . S
C884 C883 1.391 . S
C884 C888 1.387 . S
C885 C883 1.394 . S
C885 C886 1.369 . S
C885 C889 1.531 . S
C886 C885 1.369 . S
C886 C887 1.410 1_556 S
C886 C894 1.503 . S
C887 C886 1.410 1_554 S
C887 C888 1.391 1_554 S
C887 C890 1.511 . S
C888 C884 1.387 . S
C888 C887 1.391 1_556 S
C888 H900 0.919 1_556 S
C889 C885 1.531 . S
C889 H901 0.960 . S
C889 H902 0.962 . S
C889 H903 0.960 . S
C890 C887 1.511 . S
C890 H904 0.961 . S
C890 H905 0.961 . S
C890 H906 0.961 . S
C891 C892 1.376 . S
C891 C893 1.365 . S
C891 H907 0.923 1_556 S
C892 C891 1.376 . S
C892 C896 1.408 . S
C893 C891 1.365 . S
C893 C894 1.370 . S
C893 C897 1.524 1_556 S
C894 C886 1.503 . S
C894 C893 1.370 . S
C894 C895 1.403 . S
C895 C894 1.403 . S
C895 C896 1.404 . S
C895 C898 1.539 . S
C896 C892 1.408 . S
C896 C895 1.404 . S
C896 H908 0.930 . S
C897 C893 1.524 1_554 S
C897 H909 0.956 1_554 S
C897 H910 0.961 . S
C897 H911 0.961 . S
C898 C895 1.539 . S
C898 H912 0.958 . S
C898 H913 0.961 . S
C898 H914 0.960 . S
H899 C883 0.931 . S
H900 C888 0.919 1_554 S
H901 C889 0.960 . S
H902 C889 0.962 . S
H903 C889 0.960 . S
H904 C890 0.961 . S
H905 C890 0.961 . S
H906 C890 0.961 . S
H907 C891 0.923 1_554 S
H908 C896 0.930 . S
H909 C897 0.956 1_556 S
H910 C897 0.961 . S
H911 C897 0.961 . S
H912 C898 0.958 . S
H913 C898 0.961 . S
H914 C898 0.960 . S
C915 C916 1.391 . S
C915 C917 1.394 . S
C915 H931 0.931 . S
C916 C915 1.391 . S
C916 C920 1.376 . S
C917 C915 1.394 . S
C917 C918 1.369 . S
C917 C921 1.531 . S
C918 C917 1.369 . S
C918 C919 1.410 . S
C918 C926 1.503 1_655 S
C919 C918 1.410 . S
C919 C920 1.392 . S
C919 C922 1.511 1_655 S
C920 C916 1.376 . S
C920 C919 1.392 . S
C920 H932 0.929 . S
C921 C917 1.531 . S
C921 H933 0.960 . S
C921 H934 0.962 . S
C921 H935 0.960 . S
C922 C919 1.511 1_455 S
C922 H936 0.961 . S
C922 H937 0.961 . S
C922 H938 0.961 . S
C923 C924 1.370 . S
C923 C925 1.363 . S
C923 H939 0.931 . S
C924 C923 1.370 . S
C924 C928 1.408 . S
C925 C923 1.363 . S
C925 C926 1.370 . S
C925 C929 1.524 . S
C926 C918 1.503 1_455 S
C926 C925 1.370 . S
C926 C927 1.403 . S
C927 C926 1.403 . S
C927 C928 1.404 . S
C927 C930 1.539 . S
C928 C924 1.408 . S
C928 C927 1.404 . S
C928 H940 0.930 . S
C929 C925 1.524 . S
C929 H941 0.956 1_455 S
C929 H942 0.961 . S
C929 H943 0.961 . S
C930 C927 1.539 . S
C930 H944 0.958 . S
C930 H945 0.961 . S
C930 H946 0.960 . S
H931 C915 0.931 . S
H932 C920 0.929 . S
H933 C921 0.960 . S
H934 C921 0.962 . S
H935 C921 0.960 . S
H936 C922 0.961 . S
H937 C922 0.961 . S
H938 C922 0.961 . S
H939 C923 0.931 . S
H940 C928 0.930 . S
H941 C929 0.956 1_655 S
H942 C929 0.961 . S
H943 C929 0.961 . S
H944 C930 0.958 . S
H945 C930 0.961 . S
H946 C930 0.960 . S
C947 C948 1.391 . S
C947 C949 1.394 . S
C947 H963 0.931 . S
C948 C947 1.391 . S
C948 C952 1.376 . S
C949 C947 1.394 . S
C949 C950 1.369 . S
C949 C953 1.531 . S
C950 C949 1.369 . S
C950 C951 1.410 . S
C950 C958 1.503 . S
C951 C950 1.410 . S
C951 C952 1.392 . S
C951 C954 1.511 . S
C952 C948 1.376 . S
C952 C951 1.392 . S
C952 H964 0.929 . S
C953 C949 1.531 . S
C953 H965 0.960 . S
C953 H966 0.962 . S
C953 H967 0.960 . S
C954 C951 1.511 . S
C954 H968 0.961 . S
C954 H969 0.961 . S
C954 H970 0.961 . S
C955 C956 1.370 . S
C955 C957 1.363 . S
C955 H971 0.931 . S
C956 C955 1.370 . S
C956 C960 1.408 . S
C957 C955 1.363 . S
C957 C958 1.370 . S
C957 C961 1.524 . S
C958 C950 1.503 . S
C958 C957 1.370 . S
C958 C959 1.403 . S
C959 C958 1.403 . S
C959 C960 1.404 . S
C959 C962 1.539 . S
C960 C956 1.408 . S
C960 C959 1.404 . S
C960 H972 0.930 . S
C961 C957 1.524 . S
C961 H973 0.956 . S
C961 H974 0.961 . S
C961 H975 0.961 . S
C962 C959 1.539 . S
C962 H976 0.958 . S
C962 H977 0.961 . S
C962 H978 0.960 . S
H963 C947 0.931 . S
H964 C952 0.929 . S
H965 C953 0.960 . S
H966 C953 0.962 . S
H967 C953 0.960 . S
H968 C954 0.961 . S
H969 C954 0.961 . S
H970 C954 0.961 . S
H971 C955 0.931 . S
H972 C960 0.930 . S
H973 C961 0.956 . S
H974 C961 0.961 . S
H975 C961 0.961 . S
H976 C962 0.958 . S
H977 C962 0.961 . S
H978 C962 0.960 . S
C979 C980 1.391 . S
C979 C981 1.394 . S
C979 H995 0.931 . S
C980 C979 1.391 . S
C980 C984 1.376 . S
C981 C979 1.394 . S
C981 C982 1.369 . S
C981 C985 1.531 1_545 S
C982 C981 1.369 . S
C982 C983 1.410 . S
C982 C990 1.503 1_545 S
C983 C982 1.410 . S
C983 C984 1.392 . S
C983 C986 1.511 . S
C984 C980 1.376 . S
C984 C983 1.392 . S
C984 H996 0.929 . S
C985 C981 1.531 1_565 S
C985 H997 0.960 . S
C985 H998 0.962 . S
C985 H999 0.960 1_565 S
C986 C983 1.511 . S
C986 H1000 0.961 . S
C986 H1001 0.961 . S
C986 H1002 0.961 . S
C987 C988 1.370 . S
C987 C989 1.363 . S
C987 H1003 0.931 . S
C988 C987 1.370 . S
C988 C992 1.408 . S
C989 C987 1.363 . S
C989 C990 1.370 . S
C989 C993 1.524 . S
C990 C982 1.503 1_565 S
C990 C989 1.370 . S
C990 C991 1.403 . S
C991 C990 1.403 . S
C991 C992 1.404 . S
C991 C994 1.539 . S
C992 C988 1.408 . S
C992 C991 1.404 . S
C992 H1004 0.930 . S
C993 C989 1.524 . S
C993 H1005 0.956 . S
C993 H1006 0.961 1_565 S
C993 H1007 0.961 . S
C994 C991 1.539 . S
C994 H1008 0.958 . S
C994 H1009 0.961 . S
C994 H1010 0.960 1_565 S
H995 C979 0.931 . S
H996 C984 0.929 . S
H997 C985 0.960 . S
H998 C985 0.962 . S
H999 C985 0.960 1_545 S
H1000 C986 0.961 . S
H1001 C986 0.961 . S
H1002 C986 0.961 . S
H1003 C987 0.931 . S
H1004 C992 0.930 . S
H1005 C993 0.956 . S
H1006 C993 0.961 1_545 S
H1007 C993 0.961 . S
H1008 C994 0.958 . S
H1009 C994 0.961 . S
H1010 C994 0.960 1_545 S
C1011 C1012 1.391 . S
C1011 C1013 1.394 . S
C1011 H1027 0.931 . S
C1012 C1011 1.391 . S
C1012 C1016 1.376 . S
C1013 C1011 1.394 . S
C1013 C1014 1.369 . S
C1013 C1017 1.531 . S
C1014 C1013 1.369 . S
C1014 C1015 1.410 . S
C1014 C1022 1.503 . S
C1015 C1014 1.410 . S
C1015 C1016 1.392 . S
C1015 C1018 1.511 . S
C1016 C1012 1.376 . S
C1016 C1015 1.392 . S
C1016 H1028 0.929 . S
C1017 C1013 1.531 . S
C1017 H1029 0.960 . S
C1017 H1030 0.962 . S
C1017 H1031 0.960 . S
C1018 C1015 1.511 . S
C1018 H1032 0.961 . S
C1018 H1033 0.961 . S
C1018 H1034 0.961 . S
C1019 C1020 1.370 . S
C1019 C1021 1.363 . S
C1019 H1035 0.931 . S
C1020 C1019 1.370 . S
C1020 C1024 1.408 . S
C1021 C1019 1.363 . S
C1021 C1022 1.370 . S
C1021 C1025 1.524 . S
C1022 C1014 1.503 . S
C1022 C1021 1.370 . S
C1022 C1023 1.403 . S
C1023 C1022 1.403 . S
C1023 C1024 1.404 . S
C1023 C1026 1.539 . S
C1024 C1020 1.408 . S
C1024 C1023 1.404 . S
C1024 H1036 0.930 . S
C1025 C1021 1.524 . S
C1025 H1037 0.956 . S
C1025 H1038 0.961 . S
C1025 H1039 0.961 . S
C1026 C1023 1.539 . S
C1026 H1040 0.958 . S
C1026 H1041 0.961 . S
C1026 H1042 0.960 . S
H1027 C1011 0.931 . S
H1028 C1016 0.929 . S
H1029 C1017 0.960 . S
H1030 C1017 0.962 . S
H1031 C1017 0.960 . S
H1032 C1018 0.961 . S
H1033 C1018 0.961 . S
H1034 C1018 0.961 . S
H1035 C1019 0.931 . S
H1036 C1024 0.930 . S
H1037 C1025 0.956 . S
H1038 C1025 0.961 . S
H1039 C1025 0.961 . S
H1040 C1026 0.958 . S
H1041 C1026 0.961 . S
H1042 C1026 0.960 . S
C1043 C1044 1.391 . S
C1043 C1045 1.394 . S
C1043 H1059 0.931 . S
C1044 C1043 1.391 . S
C1044 C1048 1.376 . S
C1045 C1043 1.394 . S
C1045 C1046 1.369 . S
C1045 C1049 1.531 . S
C1046 C1045 1.369 . S
C1046 C1047 1.410 . S
C1046 C1054 1.503 . S
C1047 C1046 1.410 . S
C1047 C1048 1.392 . S
C1047 C1050 1.511 . S
C1048 C1044 1.376 . S
C1048 C1047 1.392 . S
C1048 H1060 0.929 . S
C1049 C1045 1.531 . S
C1049 H1061 0.960 . S
C1049 H1062 0.962 . S
C1049 H1063 0.960 . S
C1050 C1047 1.511 . S
C1050 H1064 0.961 . S
C1050 H1065 0.961 . S
C1050 H1066 0.961 . S
C1051 C1052 1.370 . S
C1051 C1053 1.363 . S
C1051 H1067 0.931 . S
C1052 C1051 1.370 . S
C1052 C1056 1.408 . S
C1053 C1051 1.363 . S
C1053 C1054 1.370 . S
C1053 C1057 1.524 . S
C1054 C1046 1.503 . S
C1054 C1053 1.370 . S
C1054 C1055 1.403 . S
C1055 C1054 1.403 . S
C1055 C1056 1.404 . S
C1055 C1058 1.539 . S
C1056 C1052 1.408 . S
C1056 C1055 1.404 . S
C1056 H1068 0.930 . S
C1057 C1053 1.524 . S
C1057 H1069 0.956 . S
C1057 H1070 0.961 . S
C1057 H1071 0.961 . S
C1058 C1055 1.539 . S
C1058 H1072 0.958 . S
C1058 H1073 0.961 . S
C1058 H1074 0.960 . S
H1059 C1043 0.931 . S
H1060 C1048 0.929 . S
H1061 C1049 0.960 . S
H1062 C1049 0.962 . S
H1063 C1049 0.960 . S
H1064 C1050 0.961 . S
H1065 C1050 0.961 . S
H1066 C1050 0.961 . S
H1067 C1051 0.931 . S
H1068 C1056 0.930 . S
H1069 C1057 0.956 . S
H1070 C1057 0.961 . S
H1071 C1057 0.961 . S
H1072 C1058 0.958 . S
H1073 C1058 0.961 . S
H1074 C1058 0.960 . S
C1075 C1076 1.391 . S
C1075 C1077 1.394 . S
C1075 H1091 0.931 . S
C1076 C1075 1.391 . S
C1076 C1080 1.376 . S
C1077 C1075 1.394 . S
C1077 C1078 1.369 . S
C1077 C1081 1.531 . S
C1078 C1077 1.369 . S
C1078 C1079 1.410 . S
C1078 C1086 1.503 . S
C1079 C1078 1.410 . S
C1079 C1080 1.392 . S
C1079 C1082 1.511 . S
C1080 C1076 1.376 . S
C1080 C1079 1.392 . S
C1080 H1092 0.929 . S
C1081 C1077 1.531 . S
C1081 H1093 0.960 . S
C1081 H1094 0.962 . S
C1081 H1095 0.960 . S
C1082 C1079 1.511 . S
C1082 H1096 0.961 . S
C1082 H1097 0.961 . S
C1082 H1098 0.961 . S
C1083 C1084 1.370 . S
C1083 C1085 1.363 . S
C1083 H1099 0.931 . S
C1084 C1083 1.370 . S
C1084 C1088 1.408 . S
C1085 C1083 1.363 . S
C1085 C1086 1.370 . S
C1085 C1089 1.524 . S
C1086 C1078 1.503 . S
C1086 C1085 1.370 . S
C1086 C1087 1.403 . S
C1087 C1086 1.403 . S
C1087 C1088 1.404 . S
C1087 C1090 1.539 . S
C1088 C1084 1.408 . S
C1088 C1087 1.404 . S
C1088 H1100 0.930 . S
C1089 C1085 1.524 . S
C1089 H1101 0.956 . S
C1089 H1102 0.961 . S
C1089 H1103 0.961 . S
C1090 C1087 1.539 . S
C1090 H1104 0.958 . S
C1090 H1105 0.961 . S
C1090 H1106 0.960 . S
H1091 C1075 0.931 . S
H1092 C1080 0.929 . S
H1093 C1081 0.960 . S
H1094 C1081 0.962 . S
H1095 C1081 0.960 . S
H1096 C1082 0.961 . S
H1097 C1082 0.961 . S
H1098 C1082 0.961 . S
H1099 C1083 0.931 . S
H1100 C1088 0.930 . S
H1101 C1089 0.956 . S
H1102 C1089 0.961 . S
H1103 C1089 0.961 . S
H1104 C1090 0.958 . S
H1105 C1090 0.961 . S
H1106 C1090 0.960 . S
C1107 C1108 1.391 . S
C1107 C1109 1.394 . S
C1107 H1123 0.931 . S
C1108 C1107 1.391 . S
C1108 C1112 1.376 . S
C1109 C1107 1.394 . S
C1109 C1110 1.369 . S
C1109 C1113 1.531 . S
C1110 C1109 1.369 . S
C1110 C1111 1.410 . S
C1110 C1118 1.503 . S
C1111 C1110 1.410 . S
C1111 C1112 1.392 . S
C1111 C1114 1.511 . S
C1112 C1108 1.376 . S
C1112 C1111 1.392 . S
C1112 H1124 0.929 . S
C1113 C1109 1.531 . S
C1113 H1125 0.960 . S
C1113 H1126 0.962 . S
C1113 H1127 0.960 . S
C1114 C1111 1.511 . S
C1114 H1128 0.961 . S
C1114 H1129 0.961 . S
C1114 H1130 0.961 . S
C1115 C1116 1.370 . S
C1115 C1117 1.363 . S
C1115 H1131 0.931 . S
C1116 C1115 1.370 . S
C1116 C1120 1.408 . S
C1117 C1115 1.363 . S
C1117 C1118 1.370 . S
C1117 C1121 1.524 . S
C1118 C1110 1.503 . S
C1118 C1117 1.370 . S
C1118 C1119 1.403 . S
C1119 C1118 1.403 . S
C1119 C1120 1.404 . S
C1119 C1122 1.539 . S
C1120 C1116 1.408 . S
C1120 C1119 1.404 . S
C1120 H1132 0.930 . S
C1121 C1117 1.524 . S
C1121 H1133 0.956 . S
C1121 H1134 0.961 . S
C1121 H1135 0.961 . S
C1122 C1119 1.539 . S
C1122 H1136 0.958 . S
C1122 H1137 0.961 . S
C1122 H1138 0.960 . S
H1123 C1107 0.931 . S
H1124 C1112 0.929 . S
H1125 C1113 0.960 . S
H1126 C1113 0.962 . S
H1127 C1113 0.960 . S
H1128 C1114 0.961 . S
H1129 C1114 0.961 . S
H1130 C1114 0.961 . S
H1131 C1115 0.931 . S
H1132 C1120 0.930 . S
H1133 C1121 0.956 . S
H1134 C1121 0.961 . S
H1135 C1121 0.961 . S
H1136 C1122 0.958 . S
H1137 C1122 0.961 . S
H1138 C1122 0.960 . S
C1139 C1140 1.391 . S
C1139 C1141 1.394 . S
C1139 H1155 0.931 . S
C1140 C1139 1.391 . S
C1140 C1144 1.376 . S
C1141 C1139 1.394 . S
C1141 C1142 1.369 . S
C1141 C1145 1.531 . S
C1142 C1141 1.369 . S
C1142 C1143 1.410 . S
C1142 C1150 1.503 . S
C1143 C1142 1.410 . S
C1143 C1144 1.392 . S
C1143 C1146 1.511 . S
C1144 C1140 1.376 . S
C1144 C1143 1.392 . S
C1144 H1156 0.929 . S
C1145 C1141 1.531 . S
C1145 H1157 0.960 . S
C1145 H1158 0.962 . S
C1145 H1159 0.960 . S
C1146 C1143 1.511 . S
C1146 H1160 0.961 . S
C1146 H1161 0.961 . S
C1146 H1162 0.961 . S
C1147 C1148 1.370 . S
C1147 C1149 1.363 . S
C1147 H1163 0.931 . S
C1148 C1147 1.370 . S
C1148 C1152 1.408 . S
C1149 C1147 1.363 . S
C1149 C1150 1.370 . S
C1149 C1153 1.524 . S
C1150 C1142 1.503 . S
C1150 C1149 1.370 . S
C1150 C1151 1.403 . S
C1151 C1150 1.403 . S
C1151 C1152 1.404 . S
C1151 C1154 1.539 . S
C1152 C1148 1.408 . S
C1152 C1151 1.404 . S
C1152 H1164 0.930 . S
C1153 C1149 1.524 . S
C1153 H1165 0.956 . S
C1153 H1166 0.961 . S
C1153 H1167 0.961 . S
C1154 C1151 1.539 . S
C1154 H1168 0.958 . S
C1154 H1169 0.961 . S
C1154 H1170 0.960 . S
H1155 C1139 0.931 . S
H1156 C1144 0.929 . S
H1157 C1145 0.960 . S
H1158 C1145 0.962 . S
H1159 C1145 0.960 . S
H1160 C1146 0.961 . S
H1161 C1146 0.961 . S
H1162 C1146 0.961 . S
H1163 C1147 0.931 . S
H1164 C1152 0.930 . S
H1165 C1153 0.956 . S
H1166 C1153 0.961 . S
H1167 C1153 0.961 . S
H1168 C1154 0.958 . S
H1169 C1154 0.961 . S
H1170 C1154 0.960 . S
C1171 C1172 1.391 . S
C1171 C1173 1.394 . S
C1171 H1187 0.931 . S
C1172 C1171 1.391 . S
C1172 C1176 1.376 . S
C1173 C1171 1.394 . S
C1173 C1174 1.369 . S
C1173 C1177 1.531 . S
C1174 C1173 1.369 . S
C1174 C1175 1.410 . S
C1174 C1182 1.503 . S
C1175 C1174 1.410 . S
C1175 C1176 1.392 . S
C1175 C1178 1.511 . S
C1176 C1172 1.376 . S
C1176 C1175 1.392 . S
C1176 H1188 0.929 . S
C1177 C1173 1.531 . S
C1177 H1189 0.960 . S
C1177 H1190 0.962 . S
C1177 H1191 0.960 . S
C1178 C1175 1.511 . S
C1178 H1192 0.961 . S
C1178 H1193 0.961 . S
C1178 H1194 0.961 . S
C1179 C1180 1.370 . S
C1179 C1181 1.363 . S
C1179 H1195 0.931 . S
C1180 C1179 1.370 . S
C1180 C1184 1.408 . S
C1181 C1179 1.363 . S
C1181 C1182 1.370 . S
C1181 C1185 1.524 . S
C1182 C1174 1.503 . S
C1182 C1181 1.370 . S
C1182 C1183 1.403 . S
C1183 C1182 1.403 . S
C1183 C1184 1.404 . S
C1183 C1186 1.539 . S
C1184 C1180 1.408 . S
C1184 C1183 1.404 . S
C1184 H1196 0.930 . S
C1185 C1181 1.524 . S
C1185 H1197 0.956 . S
C1185 H1198 0.961 . S
C1185 H1199 0.961 . S
C1186 C1183 1.539 . S
C1186 H1200 0.958 . S
C1186 H1201 0.961 . S
C1186 H1202 0.960 . S
H1187 C1171 0.931 . S
H1188 C1176 0.929 . S
H1189 C1177 0.960 . S
H1190 C1177 0.962 . S
H1191 C1177 0.960 . S
H1192 C1178 0.961 . S
H1193 C1178 0.961 . S
H1194 C1178 0.961 . S
H1195 C1179 0.931 . S
H1196 C1184 0.930 . S
H1197 C1185 0.956 . S
H1198 C1185 0.961 . S
H1199 C1185 0.961 . S
H1200 C1186 0.958 . S
H1201 C1186 0.961 . S
H1202 C1186 0.960 . S
C1203 C1204 1.391 1_565 S
C1203 C1205 1.394 . S
C1203 H1219 0.931 1_565 S
C1204 C1203 1.391 1_545 S
C1204 C1208 1.376 . S
C1205 C1203 1.394 . S
C1205 C1206 1.369 . S
C1205 C1209 1.531 . S
C1206 C1205 1.369 . S
C1206 C1207 1.410 . S
C1206 C1214 1.503 . S
C1207 C1206 1.410 . S
C1207 C1208 1.392 1_565 S
C1207 C1210 1.511 . S
C1208 C1204 1.376 . S
C1208 C1207 1.392 1_545 S
C1208 H1220 0.929 . S
C1209 C1205 1.531 . S
C1209 H1221 0.960 . S
C1209 H1222 0.962 . S
C1209 H1223 0.960 . S
C1210 C1207 1.511 . S
C1210 H1224 0.961 . S
C1210 H1225 0.961 . S
C1210 H1226 0.961 . S
C1211 C1212 1.370 . S
C1211 C1213 1.363 . S
C1211 H1227 0.931 . S
C1212 C1211 1.370 . S
C1212 C1216 1.408 . S
C1213 C1211 1.363 . S
C1213 C1214 1.370 . S
C1213 C1217 1.524 . S
C1214 C1206 1.503 . S
C1214 C1213 1.370 . S
C1214 C1215 1.403 . S
C1215 C1214 1.403 . S
C1215 C1216 1.404 . S
C1215 C1218 1.539 . S
C1216 C1212 1.408 . S
C1216 C1215 1.404 . S
C1216 H1228 0.930 . S
C1217 C1213 1.524 . S
C1217 H1229 0.956 . S
C1217 H1230 0.961 . S
C1217 H1231 0.961 . S
C1218 C1215 1.539 . S
C1218 H1232 0.958 . S
C1218 H1233 0.961 . S
C1218 H1234 0.960 . S
H1219 C1203 0.931 1_545 S
H1220 C1208 0.929 . S
H1221 C1209 0.960 . S
H1222 C1209 0.962 . S
H1223 C1209 0.960 . S
H1224 C1210 0.961 . S
H1225 C1210 0.961 . S
H1226 C1210 0.961 . S
H1227 C1211 0.931 . S
H1228 C1216 0.930 . S
H1229 C1217 0.956 . S
H1230 C1217 0.961 . S
H1231 C1217 0.961 . S
H1232 C1218 0.958 . S
H1233 C1218 0.961 . S
H1234 C1218 0.960 . S
C1235 C1236 1.391 1_455 S
C1235 C1237 1.394 . S
C1235 H1251 0.931 1_455 S
C1236 C1235 1.391 1_655 S
C1236 C1240 1.374 . S
C1237 C1235 1.394 . S
C1237 C1238 1.369 . S
C1237 C1241 1.531 . S
C1238 C1237 1.369 . S
C1238 C1239 1.410 . S
C1238 C1246 1.503 . S
C1239 C1238 1.410 . S
C1239 C1240 1.395 1_455 S
C1239 C1242 1.511 . S
C1240 C1236 1.374 . S
C1240 C1239 1.395 1_655 S
C1240 H1252 0.928 . S
C1241 C1237 1.531 . S
C1241 H1253 0.960 . S
C1241 H1254 0.962 . S
C1241 H1255 0.960 . S
C1242 C1239 1.511 . S
C1242 H1256 0.961 . S
C1242 H1257 0.961 . S
C1242 H1258 0.961 . S
C1243 C1244 1.370 . S
C1243 C1245 1.363 . S
C1243 H1259 0.931 . S
C1244 C1243 1.370 . S
C1244 C1248 1.408 . S
C1245 C1243 1.363 . S
C1245 C1246 1.370 . S
C1245 C1249 1.524 . S
C1246 C1238 1.503 . S
C1246 C1245 1.370 . S
C1246 C1247 1.403 . S
C1247 C1246 1.403 . S
C1247 C1248 1.404 . S
C1247 C1250 1.539 . S
C1248 C1244 1.408 . S
C1248 C1247 1.404 . S
C1248 H1260 0.930 . S
C1249 C1245 1.524 . S
C1249 H1261 0.956 . S
C1249 H1262 0.961 . S
C1249 H1263 0.961 . S
C1250 C1247 1.539 . S
C1250 H1264 0.958 . S
C1250 H1265 0.961 . S
C1250 H1266 0.960 . S
H1251 C1235 0.931 1_655 S
H1252 C1240 0.928 . S
H1253 C1241 0.960 . S
H1254 C1241 0.962 . S
H1255 C1241 0.960 . S
H1256 C1242 0.961 . S
H1257 C1242 0.961 . S
H1258 C1242 0.961 . S
H1259 C1243 0.931 . S
H1260 C1248 0.930 . S
H1261 C1249 0.956 . S
H1262 C1249 0.961 . S
H1263 C1249 0.961 . S
H1264 C1250 0.958 . S
H1265 C1250 0.961 . S
H1266 C1250 0.960 . S
C1267 C1268 1.391 . S
C1267 C1269 1.394 . S
C1267 H1283 0.931 . S
C1268 C1267 1.391 . S
C1268 C1272 1.376 . S
C1269 C1267 1.394 . S
C1269 C1270 1.369 . S
C1269 C1273 1.531 . S
C1270 C1269 1.369 . S
C1270 C1271 1.410 . S
C1270 C1278 1.503 . S
C1271 C1270 1.410 . S
C1271 C1272 1.392 . S
C1271 C1274 1.511 . S
C1272 C1268 1.376 . S
C1272 C1271 1.392 . S
C1272 H1284 0.929 . S
C1273 C1269 1.531 . S
C1273 H1285 0.960 . S
C1273 H1286 0.962 . S
C1273 H1287 0.960 . S
C1274 C1271 1.511 . S
C1274 H1288 0.961 . S
C1274 H1289 0.961 . S
C1274 H1290 0.961 . S
C1275 C1276 1.370 . S
C1275 C1277 1.363 . S
C1275 H1291 0.931 . S
C1276 C1275 1.370 . S
C1276 C1280 1.408 . S
C1277 C1275 1.363 . S
C1277 C1278 1.370 . S
C1277 C1281 1.524 . S
C1278 C1270 1.503 . S
C1278 C1277 1.370 . S
C1278 C1279 1.403 . S
C1279 C1278 1.403 . S
C1279 C1280 1.404 . S
C1279 C1282 1.539 . S
C1280 C1276 1.408 . S
C1280 C1279 1.404 . S
C1280 H1292 0.930 . S
C1281 C1277 1.524 . S
C1281 H1293 0.956 . S
C1281 H1294 0.961 . S
C1281 H1295 0.961 . S
C1282 C1279 1.539 . S
C1282 H1296 0.958 . S
C1282 H1297 0.961 . S
C1282 H1298 0.960 . S
H1283 C1267 0.931 . S
H1284 C1272 0.929 . S
H1285 C1273 0.960 . S
H1286 C1273 0.962 . S
H1287 C1273 0.960 . S
H1288 C1274 0.961 . S
H1289 C1274 0.961 . S
H1290 C1274 0.961 . S
H1291 C1275 0.931 . S
H1292 C1280 0.930 . S
H1293 C1281 0.956 . S
H1294 C1281 0.961 . S
H1295 C1281 0.961 . S
H1296 C1282 0.958 . S
H1297 C1282 0.961 . S
H1298 C1282 0.960 . S
C1299 C1300 1.391 . S
C1299 C1301 1.394 . S
C1299 H1315 0.931 . S
C1300 C1299 1.391 . S
C1300 C1304 1.376 . S
C1301 C1299 1.394 . S
C1301 C1302 1.369 . S
C1301 C1305 1.531 . S
C1302 C1301 1.369 . S
C1302 C1303 1.410 . S
C1302 C1310 1.503 . S
C1303 C1302 1.410 . S
C1303 C1304 1.392 . S
C1303 C1306 1.511 . S
C1304 C1300 1.376 . S
C1304 C1303 1.392 . S
C1304 H1316 0.929 . S
C1305 C1301 1.531 . S
C1305 H1317 0.960 . S
C1305 H1318 0.962 . S
C1305 H1319 0.960 . S
C1306 C1303 1.511 . S
C1306 H1320 0.961 . S
C1306 H1321 0.961 . S
C1306 H1322 0.961 . S
C1307 C1308 1.370 . S
C1307 C1309 1.363 . S
C1307 H1323 0.931 . S
C1308 C1307 1.370 . S
C1308 C1312 1.408 . S
C1309 C1307 1.363 . S
C1309 C1310 1.370 . S
C1309 C1313 1.524 . S
C1310 C1302 1.503 . S
C1310 C1309 1.370 . S
C1310 C1311 1.403 . S
C1311 C1310 1.403 . S
C1311 C1312 1.404 . S
C1311 C1314 1.539 . S
C1312 C1308 1.408 . S
C1312 C1311 1.404 . S
C1312 H1324 0.930 . S
C1313 C1309 1.524 . S
C1313 H1325 0.956 . S
C1313 H1326 0.961 . S
C1313 H1327 0.961 . S
C1314 C1311 1.539 . S
C1314 H1328 0.958 . S
C1314 H1329 0.961 . S
C1314 H1330 0.960 . S
H1315 C1299 0.931 . S
H1316 C1304 0.929 . S
H1317 C1305 0.960 . S
H1318 C1305 0.962 . S
H1319 C1305 0.960 . S
H1320 C1306 0.961 . S
H1321 C1306 0.961 . S
H1322 C1306 0.961 . S
H1323 C1307 0.931 . S
H1324 C1312 0.930 . S
H1325 C1313 0.956 . S
H1326 C1313 0.961 . S
H1327 C1313 0.961 . S
H1328 C1314 0.958 . S
H1329 C1314 0.961 . S
H1330 C1314 0.960 . S
C1331 C1332 1.391 . S
C1331 C1333 1.394 . S
C1331 H1347 0.931 . S
C1332 C1331 1.391 . S
C1332 C1336 1.376 . S
C1333 C1331 1.394 . S
C1333 C1334 1.369 . S
C1333 C1337 1.531 . S
C1334 C1333 1.369 . S
C1334 C1335 1.410 . S
C1334 C1342 1.503 . S
C1335 C1334 1.410 . S
C1335 C1336 1.392 . S
C1335 C1338 1.511 . S
C1336 C1332 1.376 . S
C1336 C1335 1.392 . S
C1336 H1348 0.929 . S
C1337 C1333 1.531 . S
C1337 H1349 0.960 . S
C1337 H1350 0.962 . S
C1337 H1351 0.960 . S
C1338 C1335 1.511 . S
C1338 H1352 0.961 . S
C1338 H1353 0.961 . S
C1338 H1354 0.961 . S
C1339 C1340 1.370 . S
C1339 C1341 1.363 . S
C1339 H1355 0.931 . S
C1340 C1339 1.370 . S
C1340 C1344 1.408 . S
C1341 C1339 1.363 . S
C1341 C1342 1.370 . S
C1341 C1345 1.524 . S
C1342 C1334 1.503 . S
C1342 C1341 1.370 . S
C1342 C1343 1.403 . S
C1343 C1342 1.403 . S
C1343 C1344 1.404 . S
C1343 C1346 1.539 . S
C1344 C1340 1.408 . S
C1344 C1343 1.404 . S
C1344 H1356 0.930 . S
C1345 C1341 1.524 . S
C1345 H1357 0.956 . S
C1345 H1358 0.961 . S
C1345 H1359 0.961 . S
C1346 C1343 1.539 . S
C1346 H1360 0.958 . S
C1346 H1361 0.961 . S
C1346 H1362 0.960 . S
H1347 C1331 0.931 . S
H1348 C1336 0.929 . S
H1349 C1337 0.960 . S
H1350 C1337 0.962 . S
H1351 C1337 0.960 . S
H1352 C1338 0.961 . S
H1353 C1338 0.961 . S
H1354 C1338 0.961 . S
H1355 C1339 0.931 . S
H1356 C1344 0.930 . S
H1357 C1345 0.956 . S
H1358 C1345 0.961 . S
H1359 C1345 0.961 . S
H1360 C1346 0.958 . S
H1361 C1346 0.961 . S
H1362 C1346 0.960 . S
C1363 C1364 1.391 . S
C1363 C1365 1.394 . S
C1363 H1379 0.931 . S
C1364 C1363 1.391 . S
C1364 C1368 1.376 . S
C1365 C1363 1.394 . S
C1365 C1366 1.369 . S
C1365 C1369 1.531 . S
C1366 C1365 1.369 . S
C1366 C1367 1.410 . S
C1366 C1374 1.503 . S
C1367 C1366 1.410 . S
C1367 C1368 1.392 . S
C1367 C1370 1.511 . S
C1368 C1364 1.376 . S
C1368 C1367 1.392 . S
C1368 H1380 0.929 . S
C1369 C1365 1.531 . S
C1369 H1381 0.960 . S
C1369 H1382 0.962 . S
C1369 H1383 0.960 . S
C1370 C1367 1.511 . S
C1370 H1384 0.961 . S
C1370 H1385 0.961 . S
C1370 H1386 0.961 . S
C1371 C1372 1.370 . S
C1371 C1373 1.363 . S
C1371 H1387 0.931 . S
C1372 C1371 1.370 . S
C1372 C1376 1.408 . S
C1373 C1371 1.363 . S
C1373 C1374 1.370 . S
C1373 C1377 1.524 . S
C1374 C1366 1.503 . S
C1374 C1373 1.370 . S
C1374 C1375 1.403 . S
C1375 C1374 1.403 . S
C1375 C1376 1.404 . S
C1375 C1378 1.539 . S
C1376 C1372 1.408 . S
C1376 C1375 1.404 . S
C1376 H1388 0.930 . S
C1377 C1373 1.524 . S
C1377 H1389 0.956 . S
C1377 H1390 0.961 . S
C1377 H1391 0.961 . S
C1378 C1375 1.539 . S
C1378 H1392 0.958 . S
C1378 H1393 0.961 . S
C1378 H1394 0.960 . S
H1379 C1363 0.931 . S
H1380 C1368 0.929 . S
H1381 C1369 0.960 . S
H1382 C1369 0.962 . S
H1383 C1369 0.960 . S
H1384 C1370 0.961 . S
H1385 C1370 0.961 . S
H1386 C1370 0.961 . S
H1387 C1371 0.931 . S
H1388 C1376 0.930 . S
H1389 C1377 0.956 . S
H1390 C1377 0.961 . S
H1391 C1377 0.961 . S
H1392 C1378 0.958 . S
H1393 C1378 0.961 . S
H1394 C1378 0.960 . S
C1395 C1396 1.391 . S
C1395 C1397 1.394 . S
C1395 H1411 0.931 . S
C1396 C1395 1.391 . S
C1396 C1400 1.376 . S
C1397 C1395 1.394 . S
C1397 C1398 1.369 . S
C1397 C1401 1.531 1_565 S
C1398 C1397 1.369 . S
C1398 C1399 1.410 . S
C1398 C1406 1.503 1_565 S
C1399 C1398 1.410 . S
C1399 C1400 1.392 . S
C1399 C1402 1.511 . S
C1400 C1396 1.376 . S
C1400 C1399 1.392 . S
C1400 H1412 0.929 . S
C1401 C1397 1.531 1_545 S
C1401 H1413 0.960 . S
C1401 H1414 0.962 . S
C1401 H1415 0.960 . S
C1402 C1399 1.511 . S
C1402 H1416 0.961 . S
C1402 H1417 0.961 . S
C1402 H1418 0.961 . S
C1403 C1404 1.370 . S
C1403 C1405 1.363 . S
C1403 H1419 0.931 . S
C1404 C1403 1.370 . S
C1404 C1408 1.408 . S
C1405 C1403 1.363 . S
C1405 C1406 1.370 . S
C1405 C1409 1.547 . S
C1406 C1398 1.503 1_545 S
C1406 C1405 1.370 . S
C1406 C1407 1.403 . S
C1407 C1406 1.403 . S
C1407 C1408 1.404 . S
C1407 C1410 1.539 . S
C1408 C1404 1.408 . S
C1408 C1407 1.404 . S
C1408 H1420 0.930 . S
C1409 C1405 1.547 . S
C1409 H1421 0.965 1_545 S
C1409 H1422 0.931 1_545 S
C1409 H1423 0.960 . S
C1410 C1407 1.539 . S
C1410 H1424 0.958 . S
C1410 H1425 0.961 . S
C1410 H1426 0.960 . S
H1411 C1395 0.931 . S
H1412 C1400 0.929 . S
H1413 C1401 0.960 . S
H1414 C1401 0.962 . S
H1415 C1401 0.960 . S
H1416 C1402 0.961 . S
H1417 C1402 0.961 . S
H1418 C1402 0.961 . S
H1419 C1403 0.931 . S
H1420 C1408 0.930 . S
H1421 C1409 0.965 1_565 S
H1422 C1409 0.931 1_565 S
H1423 C1409 0.960 . S
H1424 C1410 0.958 . S
H1425 C1410 0.961 . S
H1426 C1410 0.960 . S
C1427 C1428 1.391 . S
C1427 C1429 1.394 . S
C1427 H1443 0.931 . S
C1428 C1427 1.391 . S
C1428 C1432 1.376 . S
C1429 C1427 1.394 . S
C1429 C1430 1.369 . S
C1429 C1433 1.531 . S
C1430 C1429 1.369 . S
C1430 C1431 1.410 . S
C1430 C1438 1.503 1_455 S
C1431 C1430 1.410 . S
C1431 C1432 1.392 . S
C1431 C1434 1.512 . S
C1432 C1428 1.376 . S
C1432 C1431 1.392 . S
C1432 H1444 0.929 . S
C1433 C1429 1.531 . S
C1433 H1445 0.960 . S
C1433 H1446 0.962 . S
C1433 H1447 0.960 . S
C1434 C1431 1.512 . S
C1434 H1448 0.962 . S
C1434 H1449 0.959 1_455 S
C1434 H1450 0.961 1_455 S
C1435 C1436 1.370 . S
C1435 C1437 1.363 . S
C1435 H1451 0.931 . S
C1436 C1435 1.370 . S
C1436 C1440 1.408 . S
C1437 C1435 1.363 . S
C1437 C1438 1.370 . S
C1437 C1441 1.505 1_655 S
C1438 C1430 1.503 1_655 S
C1438 C1437 1.370 . S
C1438 C1439 1.403 . S
C1439 C1438 1.403 . S
C1439 C1440 1.404 . S
C1439 C1442 1.539 . S
C1440 C1436 1.408 . S
C1440 C1439 1.404 . S
C1440 H1452 0.930 . S
C1441 C1437 1.505 1_455 S
C1441 H1453 0.974 . S
C1441 H1454 0.992 . S
C1441 H1455 0.932 1_455 S
C1442 C1439 1.539 . S
C1442 H1456 0.958 . S
C1442 H1457 0.961 . S
C1442 H1458 0.960 . S
H1443 C1427 0.931 . S
H1444 C1432 0.929 . S
H1445 C1433 0.960 . S
H1446 C1433 0.962 . S
H1447 C1433 0.960 . S
H1448 C1434 0.962 . S
H1449 C1434 0.959 1_655 S
H1450 C1434 0.961 1_655 S
H1451 C1435 0.931 . S
H1452 C1440 0.930 . S
H1453 C1441 0.974 . S
H1454 C1441 0.992 . S
H1455 C1441 0.932 1_655 S
H1456 C1442 0.958 . S
H1457 C1442 0.961 . S
H1458 C1442 0.960 . S
C1459 C1460 1.391 . S
C1459 C1461 1.394 . S
C1459 H1475 0.931 . S
C1460 C1459 1.391 . S
C1460 C1464 1.376 . S
C1461 C1459 1.394 . S
C1461 C1462 1.369 . S
C1461 C1465 1.531 . S
C1462 C1461 1.369 . S
C1462 C1463 1.410 . S
C1462 C1470 1.503 . S
C1463 C1462 1.410 . S
C1463 C1464 1.392 . S
C1463 C1466 1.511 . S
C1464 C1460 1.376 . S
C1464 C1463 1.392 . S
C1464 H1476 0.929 . S
C1465 C1461 1.531 . S
C1465 H1477 0.960 . S
C1465 H1478 0.962 . S
C1465 H1479 0.960 . S
C1466 C1463 1.511 . S
C1466 H1480 0.961 . S
C1466 H1481 0.961 . S
C1466 H1482 0.961 . S
C1467 C1468 1.370 . S
C1467 C1469 1.363 . S
C1467 H1483 0.931 . S
C1468 C1467 1.370 . S
C1468 C1472 1.408 . S
C1469 C1467 1.363 . S
C1469 C1470 1.370 . S
C1469 C1473 1.524 . S
C1470 C1462 1.503 . S
C1470 C1469 1.370 . S
C1470 C1471 1.403 . S
C1471 C1470 1.403 . S
C1471 C1472 1.404 . S
C1471 C1474 1.539 . S
C1472 C1468 1.408 . S
C1472 C1471 1.404 . S
C1472 H1484 0.930 . S
C1473 C1469 1.524 . S
C1473 H1485 0.956 . S
C1473 H1486 0.961 . S
C1473 H1487 0.961 . S
C1474 C1471 1.539 . S
C1474 H1488 0.958 . S
C1474 H1489 0.961 . S
C1474 H1490 0.960 . S
H1475 C1459 0.931 . S
H1476 C1464 0.929 . S
H1477 C1465 0.960 . S
H1478 C1465 0.962 . S
H1479 C1465 0.960 . S
H1480 C1466 0.961 . S
H1481 C1466 0.961 . S
H1482 C1466 0.961 . S
H1483 C1467 0.931 . S
H1484 C1472 0.930 . S
H1485 C1473 0.956 . S
H1486 C1473 0.961 . S
H1487 C1473 0.961 . S
H1488 C1474 0.958 . S
H1489 C1474 0.961 . S
H1490 C1474 0.960 . S
C1491 C1492 1.391 . S
C1491 C1493 1.394 1_455 S
C1491 H1507 0.931 . S
C1492 C1491 1.391 . S
C1492 C1496 1.376 . S
C1493 C1491 1.394 1_655 S
C1493 C1494 1.369 . S
C1493 C1497 1.531 . S
C1494 C1493 1.369 . S
C1494 C1495 1.410 . S
C1494 C1502 1.503 . S
C1495 C1494 1.410 . S
C1495 C1496 1.392 1_655 S
C1495 C1498 1.511 . S
C1496 C1492 1.376 . S
C1496 C1495 1.392 1_455 S
C1496 H1508 0.929 . S
C1497 C1493 1.531 . S
C1497 H1509 0.960 . S
C1497 H1510 0.962 . S
C1497 H1511 0.960 . S
C1498 C1495 1.511 . S
C1498 H1512 0.961 . S
C1498 H1513 0.961 . S
C1498 H1514 0.961 . S
C1499 C1500 1.370 . S
C1499 C1501 1.363 . S
C1499 H1515 0.931 . S
C1500 C1499 1.370 . S
C1500 C1504 1.408 . S
C1501 C1499 1.363 . S
C1501 C1502 1.370 . S
C1501 C1505 1.524 . S
C1502 C1494 1.503 . S
C1502 C1501 1.370 . S
C1502 C1503 1.403 . S
C1503 C1502 1.403 . S
C1503 C1504 1.404 . S
C1503 C1506 1.539 . S
C1504 C1500 1.408 . S
C1504 C1503 1.404 . S
C1504 H1516 0.930 . S
C1505 C1501 1.524 . S
C1505 H1517 0.956 . S
C1505 H1518 0.961 . S
C1505 H1519 0.961 . S
C1506 C1503 1.539 . S
C1506 H1520 0.958 . S
C1506 H1521 0.961 . S
C1506 H1522 0.960 . S
H1507 C1491 0.931 . S
H1508 C1496 0.929 . S
H1509 C1497 0.960 . S
H1510 C1497 0.962 . S
H1511 C1497 0.960 . S
H1512 C1498 0.961 . S
H1513 C1498 0.961 . S
H1514 C1498 0.961 . S
H1515 C1499 0.931 . S
H1516 C1504 0.930 . S
H1517 C1505 0.956 . S
H1518 C1505 0.961 . S
H1519 C1505 0.961 . S
H1520 C1506 0.958 . S
H1521 C1506 0.961 . S
H1522 C1506 0.960 . S
C1523 C1524 1.391 . S
C1523 C1525 1.394 . S
C1523 H1539 0.931 . S
C1524 C1523 1.391 . S
C1524 C1528 1.376 . S
C1525 C1523 1.394 . S
C1525 C1526 1.369 . S
C1525 C1529 1.531 . S
C1526 C1525 1.369 . S
C1526 C1527 1.410 . S
C1526 C1534 1.503 . S
C1527 C1526 1.410 . S
C1527 C1528 1.392 . S
C1527 C1530 1.511 . S
C1528 C1524 1.376 . S
C1528 C1527 1.392 . S
C1528 H1540 0.929 . S
C1529 C1525 1.531 . S
C1529 H1541 0.960 . S
C1529 H1542 0.962 . S
C1529 H1543 0.960 . S
C1530 C1527 1.511 . S
C1530 H1544 0.961 . S
C1530 H1545 0.961 . S
C1530 H1546 0.961 . S
C1531 C1532 1.370 . S
C1531 C1533 1.363 . S
C1531 H1547 0.931 . S
C1532 C1531 1.370 . S
C1532 C1536 1.408 . S
C1533 C1531 1.363 . S
C1533 C1534 1.370 . S
C1533 C1537 1.524 . S
C1534 C1526 1.503 . S
C1534 C1533 1.370 . S
C1534 C1535 1.403 . S
C1535 C1534 1.403 . S
C1535 C1536 1.404 . S
C1535 C1538 1.539 . S
C1536 C1532 1.408 . S
C1536 C1535 1.404 . S
C1536 H1548 0.930 . S
C1537 C1533 1.524 . S
C1537 H1549 0.956 . S
C1537 H1550 0.961 . S
C1537 H1551 0.961 . S
C1538 C1535 1.539 . S
C1538 H1552 0.958 . S
C1538 H1553 0.961 . S
C1538 H1554 0.960 . S
H1539 C1523 0.931 . S
H1540 C1528 0.929 . S
H1541 C1529 0.960 . S
H1542 C1529 0.962 . S
H1543 C1529 0.960 . S
H1544 C1530 0.961 . S
H1545 C1530 0.961 . S
H1546 C1530 0.961 . S
H1547 C1531 0.931 . S
H1548 C1536 0.930 . S
H1549 C1537 0.956 . S
H1550 C1537 0.961 . S
H1551 C1537 0.961 . S
H1552 C1538 0.958 . S
H1553 C1538 0.961 . S
H1554 C1538 0.960 . S
C1555 C1556 1.391 1_545 S
C1555 C1557 1.394 . S
C1555 H1571 0.931 . S
C1556 C1555 1.391 1_565 S
C1556 C1560 1.376 1_565 S
C1557 C1555 1.394 . S
C1557 C1558 1.369 . S
C1557 C1561 1.531 . S
C1558 C1557 1.369 . S
C1558 C1559 1.410 . S
C1558 C1566 1.503 . S
C1559 C1558 1.410 . S
C1559 C1560 1.392 . S
C1559 C1562 1.511 . S
C1560 C1556 1.376 1_545 S
C1560 C1559 1.392 . S
C1560 H1572 0.929 1_545 S
C1561 C1557 1.531 . S
C1561 H1573 0.960 . S
C1561 H1574 0.962 . S
C1561 H1575 0.960 . S
C1562 C1559 1.511 . S
C1562 H1576 0.961 . S
C1562 H1577 0.961 . S
C1562 H1578 0.961 . S
C1563 C1564 1.370 . S
C1563 C1565 1.363 . S
C1563 H1579 0.931 . S
C1564 C1563 1.370 . S
C1564 C1568 1.408 . S
C1565 C1563 1.363 . S
C1565 C1566 1.370 . S
C1565 C1569 1.524 . S
C1566 C1558 1.503 . S
C1566 C1565 1.370 . S
C1566 C1567 1.403 . S
C1567 C1566 1.403 . S
C1567 C1568 1.404 . S
C1567 C1570 1.539 . S
C1568 C1564 1.408 . S
C1568 C1567 1.404 . S
C1568 H1580 0.930 . S
C1569 C1565 1.524 . S
C1569 H1581 0.956 . S
C1569 H1582 0.961 . S
C1569 H1583 0.961 . S
C1570 C1567 1.539 . S
C1570 H1584 0.958 . S
C1570 H1585 0.961 . S
C1570 H1586 0.960 . S
H1571 C1555 0.931 . S
H1572 C1560 0.929 1_565 S
H1573 C1561 0.960 . S
H1574 C1561 0.962 . S
H1575 C1561 0.960 . S
H1576 C1562 0.961 . S
H1577 C1562 0.961 . S
H1578 C1562 0.961 . S
H1579 C1563 0.931 . S
H1580 C1568 0.930 . S
H1581 C1569 0.956 . S
H1582 C1569 0.961 . S
H1583 C1569 0.961 . S
H1584 C1570 0.958 . S
H1585 C1570 0.961 . S
H1586 C1570 0.960 . S
C1587 C1588 1.391 . S
C1587 C1589 1.394 . S
C1587 H1603 0.931 . S
C1588 C1587 1.391 . S
C1588 C1592 1.376 . S
C1589 C1587 1.394 . S
C1589 C1590 1.369 . S
C1589 C1593 1.531 . S
C1590 C1589 1.369 . S
C1590 C1591 1.410 . S
C1590 C1598 1.503 . S
C1591 C1590 1.410 . S
C1591 C1592 1.392 . S
C1591 C1594 1.511 . S
C1592 C1588 1.376 . S
C1592 C1591 1.392 . S
C1592 H1604 0.929 . S
C1593 C1589 1.531 . S
C1593 H1605 0.960 . S
C1593 H1606 0.962 . S
C1593 H1607 0.960 . S
C1594 C1591 1.511 . S
C1594 H1608 0.961 . S
C1594 H1609 0.961 . S
C1594 H1610 0.961 . S
C1595 C1596 1.370 . S
C1595 C1597 1.363 . S
C1595 H1611 0.931 . S
C1596 C1595 1.370 . S
C1596 C1600 1.408 . S
C1597 C1595 1.363 . S
C1597 C1598 1.370 . S
C1597 C1601 1.524 . S
C1598 C1590 1.503 . S
C1598 C1597 1.370 . S
C1598 C1599 1.403 . S
C1599 C1598 1.403 . S
C1599 C1600 1.404 . S
C1599 C1602 1.539 . S
C1600 C1596 1.408 . S
C1600 C1599 1.404 . S
C1600 H1612 0.930 . S
C1601 C1597 1.524 . S
C1601 H1613 0.956 . S
C1601 H1614 0.961 . S
C1601 H1615 0.961 . S
C1602 C1599 1.539 . S
C1602 H1616 0.958 . S
C1602 H1617 0.961 . S
C1602 H1618 0.960 . S
H1603 C1587 0.931 . S
H1604 C1592 0.929 . S
H1605 C1593 0.960 . S
H1606 C1593 0.962 . S
H1607 C1593 0.960 . S
H1608 C1594 0.961 . S
H1609 C1594 0.961 . S
H1610 C1594 0.961 . S
H1611 C1595 0.931 . S
H1612 C1600 0.930 . S
H1613 C1601 0.956 . S
H1614 C1601 0.961 . S
H1615 C1601 0.961 . S
H1616 C1602 0.958 . S
H1617 C1602 0.961 . S
H1618 C1602 0.960 . S
C1619 C1620 1.391 . S
C1619 C1621 1.394 . S
C1619 H1635 0.931 . S
C1620 C1619 1.391 . S
C1620 C1624 1.376 . S
C1621 C1619 1.394 . S
C1621 C1622 1.369 . S
C1621 C1625 1.531 . S
C1622 C1621 1.369 . S
C1622 C1623 1.410 . S
C1622 C1630 1.503 . S
C1623 C1622 1.410 . S
C1623 C1624 1.392 . S
C1623 C1626 1.511 . S
C1624 C1620 1.376 . S
C1624 C1623 1.392 . S
C1624 H1636 0.929 . S
C1625 C1621 1.531 . S
C1625 H1637 0.960 . S
C1625 H1638 0.962 . S
C1625 H1639 0.960 . S
C1626 C1623 1.511 . S
C1626 H1640 0.961 . S
C1626 H1641 0.961 . S
C1626 H1642 0.961 . S
C1627 C1628 1.370 . S
C1627 C1629 1.363 . S
C1627 H1643 0.931 . S
C1628 C1627 1.370 . S
C1628 C1632 1.408 . S
C1629 C1627 1.363 . S
C1629 C1630 1.370 . S
C1629 C1633 1.524 . S
C1630 C1622 1.503 . S
C1630 C1629 1.370 . S
C1630 C1631 1.403 . S
C1631 C1630 1.403 . S
C1631 C1632 1.404 . S
C1631 C1634 1.539 . S
C1632 C1628 1.408 . S
C1632 C1631 1.404 . S
C1632 H1644 0.930 . S
C1633 C1629 1.524 . S
C1633 H1645 0.956 . S
C1633 H1646 0.961 . S
C1633 H1647 0.961 . S
C1634 C1631 1.539 . S
C1634 H1648 0.958 . S
C1634 H1649 0.961 . S
C1634 H1650 0.960 . S
H1635 C1619 0.931 . S
H1636 C1624 0.929 . S
H1637 C1625 0.960 . S
H1638 C1625 0.962 . S
H1639 C1625 0.960 . S
H1640 C1626 0.961 . S
H1641 C1626 0.961 . S
H1642 C1626 0.961 . S
H1643 C1627 0.931 . S
H1644 C1632 0.930 . S
H1645 C1633 0.956 . S
H1646 C1633 0.961 . S
H1647 C1633 0.961 . S
H1648 C1634 0.958 . S
H1649 C1634 0.961 . S
H1650 C1634 0.960 . S
C1651 C1652 1.391 . S
C1651 C1653 1.394 . S
C1651 H1667 0.931 . S
C1652 C1651 1.391 . S
C1652 C1656 1.376 . S
C1653 C1651 1.394 . S
C1653 C1654 1.369 . S
C1653 C1657 1.531 . S
C1654 C1653 1.369 . S
C1654 C1655 1.410 . S
C1654 C1662 1.503 . S
C1655 C1654 1.410 . S
C1655 C1656 1.392 . S
C1655 C1658 1.511 . S
C1656 C1652 1.376 . S
C1656 C1655 1.392 . S
C1656 H1668 0.929 . S
C1657 C1653 1.531 . S
C1657 H1669 0.960 . S
C1657 H1670 0.962 . S
C1657 H1671 0.960 . S
C1658 C1655 1.511 . S
C1658 H1672 0.961 . S
C1658 H1673 0.961 . S
C1658 H1674 0.961 . S
C1659 C1660 1.370 . S
C1659 C1661 1.363 . S
C1659 H1675 0.931 . S
C1660 C1659 1.370 . S
C1660 C1664 1.408 . S
C1661 C1659 1.363 . S
C1661 C1662 1.370 . S
C1661 C1665 1.524 . S
C1662 C1654 1.503 . S
C1662 C1661 1.370 . S
C1662 C1663 1.403 . S
C1663 C1662 1.403 . S
C1663 C1664 1.404 . S
C1663 C1666 1.539 . S
C1664 C1660 1.408 . S
C1664 C1663 1.404 . S
C1664 H1676 0.930 . S
C1665 C1661 1.524 . S
C1665 H1677 0.956 . S
C1665 H1678 0.961 . S
C1665 H1679 0.961 . S
C1666 C1663 1.539 . S
C1666 H1680 0.958 . S
C1666 H1681 0.961 . S
C1666 H1682 0.960 . S
H1667 C1651 0.931 . S
H1668 C1656 0.929 . S
H1669 C1657 0.960 . S
H1670 C1657 0.962 . S
H1671 C1657 0.960 . S
H1672 C1658 0.961 . S
H1673 C1658 0.961 . S
H1674 C1658 0.961 . S
H1675 C1659 0.931 . S
H1676 C1664 0.930 . S
H1677 C1665 0.956 . S
H1678 C1665 0.961 . S
H1679 C1665 0.961 . S
H1680 C1666 0.958 . S
H1681 C1666 0.961 . S
H1682 C1666 0.960 . S
C1683 C1684 1.391 . S
C1683 C1685 1.394 . S
C1683 H1699 0.931 . S
C1684 C1683 1.391 . S
C1684 C1688 1.376 . S
C1685 C1683 1.394 . S
C1685 C1686 1.369 . S
C1685 C1689 1.531 . S
C1686 C1685 1.369 . S
C1686 C1687 1.410 . S
C1686 C1694 1.503 . S
C1687 C1686 1.410 . S
C1687 C1688 1.392 . S
C1687 C1690 1.511 . S
C1688 C1684 1.376 . S
C1688 C1687 1.392 . S
C1688 H1700 0.929 . S
C1689 C1685 1.531 . S
C1689 H1701 0.960 . S
C1689 H1702 0.962 . S
C1689 H1703 0.960 . S
C1690 C1687 1.511 . S
C1690 H1704 0.961 . S
C1690 H1705 0.961 . S
C1690 H1706 0.961 . S
C1691 C1692 1.370 . S
C1691 C1693 1.363 . S
C1691 H1707 0.931 1_565 S
C1692 C1691 1.370 . S
C1692 C1696 1.408 . S
C1693 C1691 1.363 . S
C1693 C1694 1.370 . S
C1693 C1697 1.522 1_565 S
C1694 C1686 1.503 . S
C1694 C1693 1.370 . S
C1694 C1695 1.403 . S
C1695 C1694 1.403 . S
C1695 C1696 1.404 . S
C1695 C1698 1.539 . S
C1696 C1692 1.408 . S
C1696 C1695 1.404 . S
C1696 H1708 0.930 . S
C1697 C1693 1.522 1_545 S
C1697 H1709 0.951 1_545 S
C1697 H1710 0.962 1_545 S
C1697 H1711 0.966 . S
C1698 C1695 1.539 . S
C1698 H1712 0.958 . S
C1698 H1713 0.961 . S
C1698 H1714 0.960 . S
H1699 C1683 0.931 . S
H1700 C1688 0.929 . S
H1701 C1689 0.960 . S
H1702 C1689 0.962 . S
H1703 C1689 0.960 . S
H1704 C1690 0.961 . S
H1705 C1690 0.961 . S
H1706 C1690 0.961 . S
H1707 C1691 0.931 1_545 S
H1708 C1696 0.930 . S
H1709 C1697 0.951 1_565 S
H1710 C1697 0.962 1_565 S
H1711 C1697 0.966 . S
H1712 C1698 0.958 . S
H1713 C1698 0.961 . S
H1714 C1698 0.960 . S
C1715 C1716 1.391 . S
C1715 C1717 1.394 . S
C1715 H1731 0.931 . S
C1716 C1715 1.391 . S
C1716 C1720 1.376 . S
C1717 C1715 1.394 . S
C1717 C1718 1.369 . S
C1717 C1721 1.531 . S
C1718 C1717 1.369 . S
C1718 C1719 1.410 . S
C1718 C1726 1.503 . S
C1719 C1718 1.410 . S
C1719 C1720 1.392 . S
C1719 C1722 1.511 . S
C1720 C1716 1.376 . S
C1720 C1719 1.392 . S
C1720 H1732 0.929 . S
C1721 C1717 1.531 . S
C1721 H1733 0.960 . S
C1721 H1734 0.962 . S
C1721 H1735 0.960 . S
C1722 C1719 1.511 . S
C1722 H1736 0.961 . S
C1722 H1737 0.961 . S
C1722 H1738 0.961 . S
C1723 C1724 1.370 . S
C1723 C1725 1.363 . S
C1723 H1739 0.931 . S
C1724 C1723 1.370 . S
C1724 C1728 1.408 . S
C1725 C1723 1.363 . S
C1725 C1726 1.370 . S
C1725 C1729 1.524 . S
C1726 C1718 1.503 . S
C1726 C1725 1.370 . S
C1726 C1727 1.403 . S
C1727 C1726 1.403 . S
C1727 C1728 1.404 . S
C1727 C1730 1.539 . S
C1728 C1724 1.408 . S
C1728 C1727 1.404 . S
C1728 H1740 0.930 . S
C1729 C1725 1.524 . S
C1729 H1741 0.956 . S
C1729 H1742 0.961 . S
C1729 H1743 0.961 . S
C1730 C1727 1.539 . S
C1730 H1744 0.958 . S
C1730 H1745 0.961 . S
C1730 H1746 0.960 . S
H1731 C1715 0.931 . S
H1732 C1720 0.929 . S
H1733 C1721 0.960 . S
H1734 C1721 0.962 . S
H1735 C1721 0.960 . S
H1736 C1722 0.961 . S
H1737 C1722 0.961 . S
H1738 C1722 0.961 . S
H1739 C1723 0.931 . S
H1740 C1728 0.930 . S
H1741 C1729 0.956 . S
H1742 C1729 0.961 . S
H1743 C1729 0.961 . S
H1744 C1730 0.958 . S
H1745 C1730 0.961 . S
H1746 C1730 0.960 . S
C1747 C1748 1.391 . S
C1747 C1749 1.394 . S
C1747 H1763 0.931 . S
C1748 C1747 1.391 . S
C1748 C1752 1.376 . S
C1749 C1747 1.394 . S
C1749 C1750 1.369 . S
C1749 C1753 1.531 . S
C1750 C1749 1.369 . S
C1750 C1751 1.410 . S
C1750 C1758 1.503 . S
C1751 C1750 1.410 . S
C1751 C1752 1.392 . S
C1751 C1754 1.511 . S
C1752 C1748 1.376 . S
C1752 C1751 1.392 . S
C1752 H1764 0.929 . S
C1753 C1749 1.531 . S
C1753 H1765 0.960 . S
C1753 H1766 0.962 . S
C1753 H1767 0.960 . S
C1754 C1751 1.511 . S
C1754 H1768 0.961 . S
C1754 H1769 0.961 . S
C1754 H1770 0.961 . S
C1755 C1756 1.370 . S
C1755 C1757 1.363 . S
C1755 H1771 0.931 . S
C1756 C1755 1.370 . S
C1756 C1760 1.408 . S
C1757 C1755 1.363 . S
C1757 C1758 1.370 . S
C1757 C1761 1.524 . S
C1758 C1750 1.503 . S
C1758 C1757 1.370 . S
C1758 C1759 1.403 . S
C1759 C1758 1.403 . S
C1759 C1760 1.404 . S
C1759 C1762 1.539 . S
C1760 C1756 1.408 . S
C1760 C1759 1.404 . S
C1760 H1772 0.930 . S
C1761 C1757 1.524 . S
C1761 H1773 0.956 . S
C1761 H1774 0.961 . S
C1761 H1775 0.961 . S
C1762 C1759 1.539 . S
C1762 H1776 0.958 . S
C1762 H1777 0.961 . S
C1762 H1778 0.960 . S
H1763 C1747 0.931 . S
H1764 C1752 0.929 . S
H1765 C1753 0.960 . S
H1766 C1753 0.962 . S
H1767 C1753 0.960 . S
H1768 C1754 0.961 . S
H1769 C1754 0.961 . S
H1770 C1754 0.961 . S
H1771 C1755 0.931 . S
H1772 C1760 0.930 . S
H1773 C1761 0.956 . S
H1774 C1761 0.961 . S
H1775 C1761 0.961 . S
H1776 C1762 0.958 . S
H1777 C1762 0.961 . S
H1778 C1762 0.960 . S
C1779 C1780 1.391 . S
C1779 C1781 1.394 . S
C1779 H1795 0.931 . S
C1780 C1779 1.391 . S
C1780 C1784 1.376 . S
C1781 C1779 1.394 . S
C1781 C1782 1.369 . S
C1781 C1785 1.531 . S
C1782 C1781 1.369 . S
C1782 C1783 1.410 . S
C1782 C1790 1.503 . S
C1783 C1782 1.410 . S
C1783 C1784 1.392 . S
C1783 C1786 1.511 . S
C1784 C1780 1.376 . S
C1784 C1783 1.392 . S
C1784 H1796 0.929 . S
C1785 C1781 1.531 . S
C1785 H1797 0.960 . S
C1785 H1798 0.964 1_655 S
C1785 H1799 0.960 . S
C1786 C1783 1.511 . S
C1786 H1800 0.961 . S
C1786 H1801 0.961 . S
C1786 H1802 0.961 . S
C1787 C1788 1.370 . S
C1787 C1789 1.363 . S
C1787 H1803 0.931 . S
C1788 C1787 1.370 . S
C1788 C1792 1.408 . S
C1789 C1787 1.363 . S
C1789 C1790 1.370 . S
C1789 C1793 1.524 . S
C1790 C1782 1.503 . S
C1790 C1789 1.370 . S
C1790 C1791 1.403 . S
C1791 C1790 1.403 . S
C1791 C1792 1.404 . S
C1791 C1794 1.539 . S
C1792 C1788 1.408 . S
C1792 C1791 1.404 . S
C1792 H1804 0.930 . S
C1793 C1789 1.524 . S
C1793 H1805 0.956 . S
C1793 H1806 0.961 . S
C1793 H1807 0.961 . S
C1794 C1791 1.539 . S
C1794 H1808 0.958 . S
C1794 H1809 0.961 . S
C1794 H1810 0.960 . S
H1795 C1779 0.931 . S
H1796 C1784 0.929 . S
H1797 C1785 0.960 . S
H1798 C1785 0.964 1_455 S
H1799 C1785 0.960 . S
H1800 C1786 0.961 . S
H1801 C1786 0.961 . S
H1802 C1786 0.961 . S
H1803 C1787 0.931 . S
H1804 C1792 0.930 . S
H1805 C1793 0.956 . S
H1806 C1793 0.961 . S
H1807 C1793 0.961 . S
H1808 C1794 0.958 . S
H1809 C1794 0.961 . S
H1810 C1794 0.960 . S
C1811 C1812 1.391 . S
C1811 C1813 1.394 . S
C1811 H1827 0.931 . S
C1812 C1811 1.391 . S
C1812 C1816 1.376 . S
C1813 C1811 1.394 . S
C1813 C1814 1.369 . S
C1813 C1817 1.531 . S
C1814 C1813 1.369 . S
C1814 C1815 1.410 . S
C1814 C1822 1.503 . S
C1815 C1814 1.410 . S
C1815 C1816 1.392 . S
C1815 C1818 1.511 . S
C1816 C1812 1.376 . S
C1816 C1815 1.392 . S
C1816 H1828 0.929 . S
C1817 C1813 1.531 . S
C1817 H1829 0.960 . S
C1817 H1830 0.962 . S
C1817 H1831 0.960 . S
C1818 C1815 1.511 . S
C1818 H1832 0.961 . S
C1818 H1833 0.961 . S
C1818 H1834 0.961 . S
C1819 C1820 1.370 . S
C1819 C1821 1.363 . S
C1819 H1835 0.931 . S
C1820 C1819 1.370 . S
C1820 C1824 1.408 . S
C1821 C1819 1.363 . S
C1821 C1822 1.370 . S
C1821 C1825 1.524 . S
C1822 C1814 1.503 . S
C1822 C1821 1.370 . S
C1822 C1823 1.403 . S
C1823 C1822 1.403 . S
C1823 C1824 1.404 . S
C1823 C1826 1.539 . S
C1824 C1820 1.408 . S
C1824 C1823 1.404 . S
C1824 H1836 0.930 . S
C1825 C1821 1.524 . S
C1825 H1837 0.956 . S
C1825 H1838 0.961 . S
C1825 H1839 0.961 . S
C1826 C1823 1.539 . S
C1826 H1840 0.958 . S
C1826 H1841 0.961 . S
C1826 H1842 0.960 . S
H1827 C1811 0.931 . S
H1828 C1816 0.929 . S
H1829 C1817 0.960 . S
H1830 C1817 0.962 . S
H1831 C1817 0.960 . S
H1832 C1818 0.961 . S
H1833 C1818 0.961 . S
H1834 C1818 0.961 . S
H1835 C1819 0.931 . S
H1836 C1824 0.930 . S
H1837 C1825 0.956 . S
H1838 C1825 0.961 . S
H1839 C1825 0.961 . S
H1840 C1826 0.958 . S
H1841 C1826 0.961 . S
H1842 C1826 0.960 . S
C1843 C1844 1.391 . S
C1843 C1845 1.394 . S
C1843 H1859 0.931 . S
C1844 C1843 1.391 . S
C1844 C1848 1.376 . S
C1845 C1843 1.394 . S
C1845 C1846 1.369 . S
C1845 C1849 1.531 . S
C1846 C1845 1.369 . S
C1846 C1847 1.410 . S
C1846 C1854 1.503 . S
C1847 C1846 1.410 . S
C1847 C1848 1.392 . S
C1847 C1850 1.511 . S
C1848 C1844 1.376 . S
C1848 C1847 1.392 . S
C1848 H1860 0.929 . S
C1849 C1845 1.531 . S
C1849 H1861 0.960 . S
C1849 H1862 0.962 . S
C1849 H1863 0.960 . S
C1850 C1847 1.511 . S
C1850 H1864 0.961 . S
C1850 H1865 0.961 . S
C1850 H1866 0.961 . S
C1851 C1852 1.370 . S
C1851 C1853 1.363 . S
C1851 H1867 0.905 1_545 S
C1852 C1851 1.370 . S
C1852 C1856 1.408 . S
C1853 C1851 1.363 . S
C1853 C1854 1.370 . S
C1853 C1857 1.524 . S
C1854 C1846 1.503 . S
C1854 C1853 1.370 . S
C1854 C1855 1.403 . S
C1855 C1854 1.403 . S
C1855 C1856 1.404 . S
C1855 C1858 1.539 . S
C1856 C1852 1.408 . S
C1856 C1855 1.404 . S
C1856 H1868 0.930 . S
C1857 C1853 1.524 . S
C1857 H1869 0.956 . S
C1857 H1870 0.961 . S
C1857 H1871 0.961 1_545 S
C1858 C1855 1.539 . S
C1858 H1872 0.958 . S
C1858 H1873 0.961 . S
C1858 H1874 0.960 . S
H1859 C1843 0.931 . S
H1860 C1848 0.929 . S
H1861 C1849 0.960 . S
H1862 C1849 0.962 . S
H1863 C1849 0.960 . S
H1864 C1850 0.961 . S
H1865 C1850 0.961 . S
H1866 C1850 0.961 . S
H1867 C1851 0.905 1_565 S
H1868 C1856 0.930 . S
H1869 C1857 0.956 . S
H1870 C1857 0.961 . S
H1871 C1857 0.961 1_565 S
H1872 C1858 0.958 . S
H1873 C1858 0.961 . S
H1874 C1858 0.960 . S
C1875 C1876 1.391 . S
C1875 C1877 1.394 . S
C1875 H1891 0.931 . S
C1876 C1875 1.391 . S
C1876 C1880 1.376 . S
C1877 C1875 1.394 . S
C1877 C1878 1.369 . S
C1877 C1881 1.531 . S
C1878 C1877 1.369 . S
C1878 C1879 1.410 . S
C1878 C1886 1.503 . S
C1879 C1878 1.410 . S
C1879 C1880 1.392 . S
C1879 C1882 1.511 . S
C1880 C1876 1.376 . S
C1880 C1879 1.392 . S
C1880 H1892 0.929 . S
C1881 C1877 1.531 . S
C1881 H1893 0.960 . S
C1881 H1894 0.962 . S
C1881 H1895 0.960 . S
C1882 C1879 1.511 . S
C1882 H1896 0.961 . S
C1882 H1897 0.961 . S
C1882 H1898 0.961 . S
C1883 C1884 1.370 . S
C1883 C1885 1.363 . S
C1883 H1899 0.931 . S
C1884 C1883 1.370 . S
C1884 C1888 1.408 . S
C1885 C1883 1.363 . S
C1885 C1886 1.370 . S
C1885 C1889 1.524 . S
C1886 C1878 1.503 . S
C1886 C1885 1.370 . S
C1886 C1887 1.403 . S
C1887 C1886 1.403 . S
C1887 C1888 1.404 . S
C1887 C1890 1.539 . S
C1888 C1884 1.408 . S
C1888 C1887 1.404 . S
C1888 H1900 0.930 . S
C1889 C1885 1.524 . S
C1889 H1901 0.956 . S
C1889 H1902 0.961 . S
C1889 H1903 0.961 . S
C1890 C1887 1.539 . S
C1890 H1904 0.958 . S
C1890 H1905 0.961 . S
C1890 H1906 0.960 . S
H1891 C1875 0.931 . S
H1892 C1880 0.929 . S
H1893 C1881 0.960 . S
H1894 C1881 0.962 . S
H1895 C1881 0.960 . S
H1896 C1882 0.961 . S
H1897 C1882 0.961 . S
H1898 C1882 0.961 . S
H1899 C1883 0.931 . S
H1900 C1888 0.930 . S
H1901 C1889 0.956 . S
H1902 C1889 0.961 . S
H1903 C1889 0.961 . S
H1904 C1890 0.958 . S
H1905 C1890 0.961 . S
H1906 C1890 0.960 . S
C1907 C1908 1.391 . S
C1907 C1909 1.394 . S
C1907 H1923 0.931 . S
C1908 C1907 1.391 . S
C1908 C1912 1.376 . S
C1909 C1907 1.394 . S
C1909 C1910 1.369 . S
C1909 C1913 1.531 . S
C1910 C1909 1.369 . S
C1910 C1911 1.410 . S
C1910 C1918 1.503 . S
C1911 C1910 1.410 . S
C1911 C1912 1.392 . S
C1911 C1914 1.511 . S
C1912 C1908 1.376 . S
C1912 C1911 1.392 . S
C1912 H1924 0.929 . S
C1913 C1909 1.531 . S
C1913 H1925 0.960 . S
C1913 H1926 0.962 . S
C1913 H1927 0.960 . S
C1914 C1911 1.511 . S
C1914 H1928 0.961 . S
C1914 H1929 0.961 . S
C1914 H1930 0.961 . S
C1915 C1916 1.370 . S
C1915 C1917 1.363 . S
C1915 H1931 0.931 . S
C1916 C1915 1.370 . S
C1916 C1920 1.408 . S
C1917 C1915 1.363 . S
C1917 C1918 1.370 . S
C1917 C1921 1.524 . S
C1918 C1910 1.503 . S
C1918 C1917 1.370 . S
C1918 C1919 1.403 . S
C1919 C1918 1.403 . S
C1919 C1920 1.404 . S
C1919 C1922 1.539 . S
C1920 C1916 1.408 . S
C1920 C1919 1.404 . S
C1920 H1932 0.930 . S
C1921 C1917 1.524 . S
C1921 H1933 0.956 . S
C1921 H1934 0.961 . S
C1921 H1935 0.961 . S
C1922 C1919 1.539 . S
C1922 H1936 0.958 . S
C1922 H1937 0.961 . S
C1922 H1938 0.960 . S
H1923 C1907 0.931 . S
H1924 C1912 0.929 . S
H1925 C1913 0.960 . S
H1926 C1913 0.962 . S
H1927 C1913 0.960 . S
H1928 C1914 0.961 . S
H1929 C1914 0.961 . S
H1930 C1914 0.961 . S
H1931 C1915 0.931 . S
H1932 C1920 0.930 . S
H1933 C1921 0.956 . S
H1934 C1921 0.961 . S
H1935 C1921 0.961 . S
H1936 C1922 0.958 . S
H1937 C1922 0.961 . S
H1938 C1922 0.960 . S
C1939 C1940 1.391 . S
C1939 C1941 1.394 . S
C1939 H1955 0.931 . S
C1940 C1939 1.391 . S
C1940 C1944 1.376 . S
C1941 C1939 1.394 . S
C1941 C1942 1.369 . S
C1941 C1945 1.531 . S
C1942 C1941 1.369 . S
C1942 C1943 1.410 . S
C1942 C1950 1.503 . S
C1943 C1942 1.410 . S
C1943 C1944 1.392 . S
C1943 C1946 1.511 . S
C1944 C1940 1.376 . S
C1944 C1943 1.392 . S
C1944 H1956 0.929 . S
C1945 C1941 1.531 . S
C1945 H1957 0.960 . S
C1945 H1958 0.962 . S
C1945 H1959 0.960 . S
C1946 C1943 1.511 . S
C1946 H1960 0.961 . S
C1946 H1961 0.961 . S
C1946 H1962 0.961 . S
C1947 C1948 1.370 . S
C1947 C1949 1.363 . S
C1947 H1963 0.931 . S
C1948 C1947 1.370 . S
C1948 C1952 1.408 . S
C1949 C1947 1.363 . S
C1949 C1950 1.370 . S
C1949 C1953 1.524 . S
C1950 C1942 1.503 . S
C1950 C1949 1.370 . S
C1950 C1951 1.403 . S
C1951 C1950 1.403 . S
C1951 C1952 1.404 . S
C1951 C1954 1.539 . S
C1952 C1948 1.408 . S
C1952 C1951 1.404 . S
C1952 H1964 0.930 . S
C1953 C1949 1.524 . S
C1953 H1965 0.956 . S
C1953 H1966 0.961 . S
C1953 H1967 0.961 . S
C1954 C1951 1.539 . S
C1954 H1968 0.958 . S
C1954 H1969 0.961 . S
C1954 H1970 0.960 . S
H1955 C1939 0.931 . S
H1956 C1944 0.929 . S
H1957 C1945 0.960 . S
H1958 C1945 0.962 . S
H1959 C1945 0.960 . S
H1960 C1946 0.961 . S
H1961 C1946 0.961 . S
H1962 C1946 0.961 . S
H1963 C1947 0.931 . S
H1964 C1952 0.930 . S
H1965 C1953 0.956 . S
H1966 C1953 0.961 . S
H1967 C1953 0.961 . S
H1968 C1954 0.958 . S
H1969 C1954 0.961 . S
H1970 C1954 0.960 . S
C1971 C1972 1.391 . S
C1971 C1973 1.394 . S
C1971 H1987 0.931 . S
C1972 C1971 1.391 . S
C1972 C1976 1.376 . S
C1973 C1971 1.394 . S
C1973 C1974 1.369 . S
C1973 C1977 1.531 . S
C1974 C1973 1.369 . S
C1974 C1975 1.410 . S
C1974 C1982 1.503 . S
C1975 C1974 1.410 . S
C1975 C1976 1.392 . S
C1975 C1978 1.511 . S
C1976 C1972 1.376 . S
C1976 C1975 1.392 . S
C1976 H1988 0.929 . S
C1977 C1973 1.531 . S
C1977 H1989 0.960 . S
C1977 H1990 0.962 . S
C1977 H1991 0.960 . S
C1978 C1975 1.511 . S
C1978 H1992 0.961 . S
C1978 H1993 0.961 . S
C1978 H1994 0.961 . S
C1979 C1980 1.370 . S
C1979 C1981 1.363 . S
C1979 H1995 0.931 . S
C1980 C1979 1.370 . S
C1980 C1984 1.408 . S
C1981 C1979 1.363 . S
C1981 C1982 1.370 . S
C1981 C1985 1.524 . S
C1982 C1974 1.503 . S
C1982 C1981 1.370 . S
C1982 C1983 1.403 . S
C1983 C1982 1.403 . S
C1983 C1984 1.404 . S
C1983 C1986 1.539 . S
C1984 C1980 1.408 . S
C1984 C1983 1.404 . S
C1984 H1996 0.930 . S
C1985 C1981 1.524 . S
C1985 H1997 0.956 . S
C1985 H1998 0.961 . S
C1985 H1999 0.961 . S
C1986 C1983 1.539 . S
C1986 H2000 0.958 . S
C1986 H2001 0.961 . S
C1986 H2002 0.960 . S
H1987 C1971 0.931 . S
H1988 C1976 0.929 . S
H1989 C1977 0.960 . S
H1990 C1977 0.962 . S
H1991 C1977 0.960 . S
H1992 C1978 0.961 . S
H1993 C1978 0.961 . S
H1994 C1978 0.961 . S
H1995 C1979 0.931 . S
H1996 C1984 0.930 . S
H1997 C1985 0.956 . S
H1998 C1985 0.961 . S
H1999 C1985 0.961 . S
H2000 C1986 0.958 . S
H2001 C1986 0.961 . S
H2002 C1986 0.960 . S
C2003 C2004 1.391 . S
C2003 C2005 1.394 . S
C2003 H2019 0.931 . S
C2004 C2003 1.391 . S
C2004 C2008 1.376 . S
C2005 C2003 1.394 . S
C2005 C2006 1.369 . S
C2005 C2009 1.531 . S
C2006 C2005 1.369 . S
C2006 C2007 1.410 . S
C2006 C2014 1.503 . S
C2007 C2006 1.410 . S
C2007 C2008 1.392 . S
C2007 C2010 1.511 . S
C2008 C2004 1.376 . S
C2008 C2007 1.392 . S
C2008 H2020 0.929 . S
C2009 C2005 1.531 . S
C2009 H2021 0.960 . S
C2009 H2022 0.962 . S
C2009 H2023 0.960 . S
C2010 C2007 1.511 . S
C2010 H2024 0.961 . S
C2010 H2025 0.961 . S
C2010 H2026 0.961 . S
C2011 C2012 1.370 . S
C2011 C2013 1.363 . S
C2011 H2027 0.931 . S
C2012 C2011 1.370 . S
C2012 C2016 1.408 . S
C2013 C2011 1.363 . S
C2013 C2014 1.370 . S
C2013 C2017 1.524 . S
C2014 C2006 1.503 . S
C2014 C2013 1.370 . S
C2014 C2015 1.403 . S
C2015 C2014 1.403 . S
C2015 C2016 1.404 . S
C2015 C2018 1.539 . S
C2016 C2012 1.408 . S
C2016 C2015 1.404 . S
C2016 H2028 0.930 . S
C2017 C2013 1.524 . S
C2017 H2029 0.956 . S
C2017 H2030 0.961 . S
C2017 H2031 0.961 . S
C2018 C2015 1.539 . S
C2018 H2032 0.958 . S
C2018 H2033 0.961 . S
C2018 H2034 0.960 . S
H2019 C2003 0.931 . S
H2020 C2008 0.929 . S
H2021 C2009 0.960 . S
H2022 C2009 0.962 . S
H2023 C2009 0.960 . S
H2024 C2010 0.961 . S
H2025 C2010 0.961 . S
H2026 C2010 0.961 . S
H2027 C2011 0.931 . S
H2028 C2016 0.930 . S
H2029 C2017 0.956 . S
H2030 C2017 0.961 . S
H2031 C2017 0.961 . S
H2032 C2018 0.958 . S
H2033 C2018 0.961 . S
H2034 C2018 0.960 . S
C2035 C2036 1.391 . S
C2035 C2037 1.394 . S
C2035 H2051 0.931 . S
C2036 C2035 1.391 . S
C2036 C2040 1.376 . S
C2037 C2035 1.394 . S
C2037 C2038 1.369 . S
C2037 C2041 1.531 . S
C2038 C2037 1.369 . S
C2038 C2039 1.410 . S
C2038 C2046 1.503 . S
C2039 C2038 1.410 . S
C2039 C2040 1.392 . S
C2039 C2042 1.511 . S
C2040 C2036 1.376 . S
C2040 C2039 1.392 . S
C2040 H2052 0.929 . S
C2041 C2037 1.531 . S
C2041 H2053 0.960 . S
C2041 H2054 0.962 . S
C2041 H2055 0.960 . S
C2042 C2039 1.511 . S
C2042 H2056 0.961 . S
C2042 H2057 0.961 . S
C2042 H2058 0.961 . S
C2043 C2044 1.370 . S
C2043 C2045 1.363 . S
C2043 H2059 0.931 . S
C2044 C2043 1.370 . S
C2044 C2048 1.408 . S
C2045 C2043 1.363 . S
C2045 C2046 1.370 . S
C2045 C2049 1.524 . S
C2046 C2038 1.503 . S
C2046 C2045 1.370 . S
C2046 C2047 1.403 . S
C2047 C2046 1.403 . S
C2047 C2048 1.404 . S
C2047 C2050 1.539 . S
C2048 C2044 1.408 . S
C2048 C2047 1.404 . S
C2048 H2060 0.930 . S
C2049 C2045 1.524 . S
C2049 H2061 0.956 . S
C2049 H2062 0.961 . S
C2049 H2063 0.961 . S
C2050 C2047 1.539 . S
C2050 H2064 0.958 . S
C2050 H2065 0.961 . S
C2050 H2066 0.960 . S
H2051 C2035 0.931 . S
H2052 C2040 0.929 . S
H2053 C2041 0.960 . S
H2054 C2041 0.962 . S
H2055 C2041 0.960 . S
H2056 C2042 0.961 . S
H2057 C2042 0.961 . S
H2058 C2042 0.961 . S
H2059 C2043 0.931 . S
H2060 C2048 0.930 . S
H2061 C2049 0.956 . S
H2062 C2049 0.961 . S
H2063 C2049 0.961 . S
H2064 C2050 0.958 . S
H2065 C2050 0.961 . S
H2066 C2050 0.960 . S
C2067 C2068 1.391 . S
C2067 C2069 1.394 . S
C2067 H2083 0.931 . S
C2068 C2067 1.391 . S
C2068 C2072 1.376 . S
C2069 C2067 1.394 . S
C2069 C2070 1.369 . S
C2069 C2073 1.531 . S
C2070 C2069 1.369 . S
C2070 C2071 1.410 . S
C2070 C2078 1.503 . S
C2071 C2070 1.410 . S
C2071 C2072 1.392 . S
C2071 C2074 1.511 . S
C2072 C2068 1.376 . S
C2072 C2071 1.392 . S
C2072 H2084 0.929 . S
C2073 C2069 1.531 . S
C2073 H2085 0.960 . S
C2073 H2086 0.962 . S
C2073 H2087 0.960 . S
C2074 C2071 1.511 . S
C2074 H2088 0.961 . S
C2074 H2089 0.961 . S
C2074 H2090 0.961 . S
C2075 C2076 1.370 . S
C2075 C2077 1.363 . S
C2075 H2091 0.931 . S
C2076 C2075 1.370 . S
C2076 C2080 1.408 . S
C2077 C2075 1.363 . S
C2077 C2078 1.370 . S
C2077 C2081 1.524 . S
C2078 C2070 1.503 . S
C2078 C2077 1.370 . S
C2078 C2079 1.403 . S
C2079 C2078 1.403 . S
C2079 C2080 1.404 . S
C2079 C2082 1.539 . S
C2080 C2076 1.408 . S
C2080 C2079 1.404 . S
C2080 H2092 0.930 . S
C2081 C2077 1.524 . S
C2081 H2093 0.956 . S
C2081 H2094 0.961 . S
C2081 H2095 0.961 . S
C2082 C2079 1.539 . S
C2082 H2096 0.958 . S
C2082 H2097 0.961 . S
C2082 H2098 0.960 . S
H2083 C2067 0.931 . S
H2084 C2072 0.929 . S
H2085 C2073 0.960 . S
H2086 C2073 0.962 . S
H2087 C2073 0.960 . S
H2088 C2074 0.961 . S
H2089 C2074 0.961 . S
H2090 C2074 0.961 . S
H2091 C2075 0.931 . S
H2092 C2080 0.930 . S
H2093 C2081 0.956 . S
H2094 C2081 0.961 . S
H2095 C2081 0.961 . S
H2096 C2082 0.958 . S
H2097 C2082 0.961 . S
H2098 C2082 0.960 . S
C2099 C2100 1.391 . S
C2099 C2101 1.394 . S
C2099 H2115 0.931 . S
C2100 C2099 1.391 . S
C2100 C2104 1.376 . S
C2101 C2099 1.394 . S
C2101 C2102 1.369 . S
C2101 C2105 1.531 . S
C2102 C2101 1.369 . S
C2102 C2103 1.410 . S
C2102 C2110 1.503 . S
C2103 C2102 1.410 . S
C2103 C2104 1.392 . S
C2103 C2106 1.511 . S
C2104 C2100 1.376 . S
C2104 C2103 1.392 . S
C2104 H2116 0.929 . S
C2105 C2101 1.531 . S
C2105 H2117 0.960 . S
C2105 H2118 0.962 . S
C2105 H2119 0.960 . S
C2106 C2103 1.511 . S
C2106 H2120 0.961 . S
C2106 H2121 0.961 . S
C2106 H2122 0.961 . S
C2107 C2108 1.370 . S
C2107 C2109 1.363 . S
C2107 H2123 0.931 . S
C2108 C2107 1.370 . S
C2108 C2112 1.408 . S
C2109 C2107 1.363 . S
C2109 C2110 1.370 . S
C2109 C2113 1.524 . S
C2110 C2102 1.503 . S
C2110 C2109 1.370 . S
C2110 C2111 1.403 . S
C2111 C2110 1.403 . S
C2111 C2112 1.404 . S
C2111 C2114 1.539 . S
C2112 C2108 1.408 . S
C2112 C2111 1.404 . S
C2112 H2124 0.930 . S
C2113 C2109 1.524 . S
C2113 H2125 0.956 . S
C2113 H2126 0.961 . S
C2113 H2127 0.961 . S
C2114 C2111 1.539 . S
C2114 H2128 0.958 . S
C2114 H2129 0.961 . S
C2114 H2130 0.960 . S
H2115 C2099 0.931 . S
H2116 C2104 0.929 . S
H2117 C2105 0.960 . S
H2118 C2105 0.962 . S
H2119 C2105 0.960 . S
H2120 C2106 0.961 . S
H2121 C2106 0.961 . S
H2122 C2106 0.961 . S
H2123 C2107 0.931 . S
H2124 C2112 0.930 . S
H2125 C2113 0.956 . S
H2126 C2113 0.961 . S
H2127 C2113 0.961 . S
H2128 C2114 0.958 . S
H2129 C2114 0.961 . S
H2130 C2114 0.960 . S
C2131 C2132 1.391 . S
C2131 C2133 1.394 . S
C2131 H2147 0.931 . S
C2132 C2131 1.391 . S
C2132 C2136 1.376 . S
C2133 C2131 1.394 . S
C2133 C2134 1.369 . S
C2133 C2137 1.531 . S
C2134 C2133 1.369 . S
C2134 C2135 1.410 . S
C2134 C2142 1.503 . S
C2135 C2134 1.410 . S
C2135 C2136 1.392 . S
C2135 C2138 1.511 . S
C2136 C2132 1.376 . S
C2136 C2135 1.392 . S
C2136 H2148 0.929 . S
C2137 C2133 1.531 . S
C2137 H2149 0.960 . S
C2137 H2150 0.962 . S
C2137 H2151 0.960 . S
C2138 C2135 1.511 . S
C2138 H2152 0.961 . S
C2138 H2153 0.961 . S
C2138 H2154 0.961 . S
C2139 C2140 1.370 . S
C2139 C2141 1.363 . S
C2139 H2155 0.931 . S
C2140 C2139 1.370 . S
C2140 C2144 1.408 . S
C2141 C2139 1.363 . S
C2141 C2142 1.370 . S
C2141 C2145 1.524 . S
C2142 C2134 1.503 . S
C2142 C2141 1.370 . S
C2142 C2143 1.403 . S
C2143 C2142 1.403 . S
C2143 C2144 1.404 . S
C2143 C2146 1.539 . S
C2144 C2140 1.408 . S
C2144 C2143 1.404 . S
C2144 H2156 0.930 . S
C2145 C2141 1.524 . S
C2145 H2157 0.956 . S
C2145 H2158 0.961 . S
C2145 H2159 0.961 . S
C2146 C2143 1.539 . S
C2146 H2160 0.958 . S
C2146 H2161 0.961 . S
C2146 H2162 0.960 . S
H2147 C2131 0.931 . S
H2148 C2136 0.929 . S
H2149 C2137 0.960 . S
H2150 C2137 0.962 . S
H2151 C2137 0.960 . S
H2152 C2138 0.961 . S
H2153 C2138 0.961 . S
H2154 C2138 0.961 . S
H2155 C2139 0.931 . S
H2156 C2144 0.930 . S
H2157 C2145 0.956 . S
H2158 C2145 0.961 . S
H2159 C2145 0.961 . S
H2160 C2146 0.958 . S
H2161 C2146 0.961 . S
H2162 C2146 0.960 . S
C2163 C2164 1.391 . S
C2163 C2165 1.394 . S
C2163 H2179 0.931 . S
C2164 C2163 1.391 . S
C2164 C2168 1.376 . S
C2165 C2163 1.394 . S
C2165 C2166 1.369 . S
C2165 C2169 1.531 . S
C2166 C2165 1.369 . S
C2166 C2167 1.410 . S
C2166 C2174 1.503 . S
C2167 C2166 1.410 . S
C2167 C2168 1.392 . S
C2167 C2170 1.511 . S
C2168 C2164 1.376 . S
C2168 C2167 1.392 . S
C2168 H2180 0.929 . S
C2169 C2165 1.531 . S
C2169 H2181 0.960 . S
C2169 H2182 0.962 . S
C2169 H2183 0.960 . S
C2170 C2167 1.511 . S
C2170 H2184 0.961 . S
C2170 H2185 0.961 . S
C2170 H2186 0.961 . S
C2171 C2172 1.370 . S
C2171 C2173 1.363 . S
C2171 H2187 0.931 . S
C2172 C2171 1.370 . S
C2172 C2176 1.408 . S
C2173 C2171 1.363 . S
C2173 C2174 1.370 . S
C2173 C2177 1.524 . S
C2174 C2166 1.503 . S
C2174 C2173 1.370 . S
C2174 C2175 1.403 . S
C2175 C2174 1.403 . S
C2175 C2176 1.404 . S
C2175 C2178 1.539 . S
C2176 C2172 1.408 . S
C2176 C2175 1.404 . S
C2176 H2188 0.930 . S
C2177 C2173 1.524 . S
C2177 H2189 0.956 . S
C2177 H2190 0.961 . S
C2177 H2191 0.961 . S
C2178 C2175 1.539 . S
C2178 H2192 0.958 . S
C2178 H2193 0.961 . S
C2178 H2194 0.960 . S
H2179 C2163 0.931 . S
H2180 C2168 0.929 . S
H2181 C2169 0.960 . S
H2182 C2169 0.962 . S
H2183 C2169 0.960 . S
H2184 C2170 0.961 . S
H2185 C2170 0.961 . S
H2186 C2170 0.961 . S
H2187 C2171 0.931 . S
H2188 C2176 0.930 . S
H2189 C2177 0.956 . S
H2190 C2177 0.961 . S
H2191 C2177 0.961 . S
H2192 C2178 0.958 . S
H2193 C2178 0.961 . S
H2194 C2178 0.960 . S
C2195 C2196 1.391 . S
C2195 C2197 1.394 . S
C2195 H2211 0.931 . S
C2196 C2195 1.391 . S
C2196 C2200 1.376 . S
C2197 C2195 1.394 . S
C2197 C2198 1.369 . S
C2197 C2201 1.531 . S
C2198 C2197 1.369 . S
C2198 C2199 1.410 . S
C2198 C2206 1.503 . S
C2199 C2198 1.410 . S
C2199 C2200 1.392 . S
C2199 C2202 1.511 . S
C2200 C2196 1.376 . S
C2200 C2199 1.392 . S
C2200 H2212 0.929 . S
C2201 C2197 1.531 . S
C2201 H2213 0.960 . S
C2201 H2214 0.962 . S
C2201 H2215 0.960 . S
C2202 C2199 1.511 . S
C2202 H2216 0.961 . S
C2202 H2217 0.961 . S
C2202 H2218 0.961 . S
C2203 C2204 1.370 . S
C2203 C2205 1.363 . S
C2203 H2219 0.931 . S
C2204 C2203 1.370 . S
C2204 C2208 1.408 . S
C2205 C2203 1.363 . S
C2205 C2206 1.370 . S
C2205 C2209 1.524 . S
C2206 C2198 1.503 . S
C2206 C2205 1.370 . S
C2206 C2207 1.403 . S
C2207 C2206 1.403 . S
C2207 C2208 1.404 . S
C2207 C2210 1.539 . S
C2208 C2204 1.408 . S
C2208 C2207 1.404 . S
C2208 H2220 0.930 . S
C2209 C2205 1.524 . S
C2209 H2221 0.956 . S
C2209 H2222 0.961 . S
C2209 H2223 0.961 . S
C2210 C2207 1.539 . S
C2210 H2224 0.958 . S
C2210 H2225 0.961 . S
C2210 H2226 0.960 . S
H2211 C2195 0.931 . S
H2212 C2200 0.929 . S
H2213 C2201 0.960 . S
H2214 C2201 0.962 . S
H2215 C2201 0.960 . S
H2216 C2202 0.961 . S
H2217 C2202 0.961 . S
H2218 C2202 0.961 . S
H2219 C2203 0.931 . S
H2220 C2208 0.930 . S
H2221 C2209 0.956 . S
H2222 C2209 0.961 . S
H2223 C2209 0.961 . S
H2224 C2210 0.958 . S
H2225 C2210 0.961 . S
H2226 C2210 0.960 . S
C2227 C2228 1.391 . S
C2227 C2229 1.394 . S
C2227 H2243 0.931 . S
C2228 C2227 1.391 . S
C2228 C2232 1.376 . S
C2229 C2227 1.394 . S
C2229 C2230 1.369 . S
C2229 C2233 1.531 . S
C2230 C2229 1.369 . S
C2230 C2231 1.410 . S
C2230 C2238 1.503 . S
C2231 C2230 1.410 . S
C2231 C2232 1.392 . S
C2231 C2234 1.511 . S
C2232 C2228 1.376 . S
C2232 C2231 1.392 . S
C2232 H2244 0.929 . S
C2233 C2229 1.531 . S
C2233 H2245 0.960 . S
C2233 H2246 0.962 . S
C2233 H2247 0.960 . S
C2234 C2231 1.511 . S
C2234 H2248 0.961 . S
C2234 H2249 0.961 . S
C2234 H2250 0.961 . S
C2235 C2236 1.370 . S
C2235 C2237 1.363 . S
C2235 H2251 0.931 . S
C2236 C2235 1.370 . S
C2236 C2240 1.408 . S
C2237 C2235 1.363 . S
C2237 C2238 1.370 . S
C2237 C2241 1.524 . S
C2238 C2230 1.503 . S
C2238 C2237 1.370 . S
C2238 C2239 1.403 . S
C2239 C2238 1.403 . S
C2239 C2240 1.404 . S
C2239 C2242 1.539 . S
C2240 C2236 1.408 . S
C2240 C2239 1.404 . S
C2240 H2252 0.930 . S
C2241 C2237 1.524 . S
C2241 H2253 0.956 . S
C2241 H2254 0.961 . S
C2241 H2255 0.961 . S
C2242 C2239 1.539 . S
C2242 H2256 0.958 . S
C2242 H2257 0.961 . S
C2242 H2258 0.960 . S
H2243 C2227 0.931 . S
H2244 C2232 0.929 . S
H2245 C2233 0.960 . S
H2246 C2233 0.962 . S
H2247 C2233 0.960 . S
H2248 C2234 0.961 . S
H2249 C2234 0.961 . S
H2250 C2234 0.961 . S
H2251 C2235 0.931 . S
H2252 C2240 0.930 . S
H2253 C2241 0.956 . S
H2254 C2241 0.961 . S
H2255 C2241 0.961 . S
H2256 C2242 0.958 . S
H2257 C2242 0.961 . S
H2258 C2242 0.960 . S
C532 C253 1.435 . S
C540 C359 1.458 1_556 S
C564 C272 1.459 1_556 S
C572 C380 1.433 1_556 S
C596 C234 1.419 . S
C604 C402 1.264 . S
C628 C215 1.366 . S
C636 C381 1.288 . S
C668 C401 1.430 1_554 S
C660 C177 1.416 . S
C692 C196 1.387 . S
C700 C360 1.320 . S
C732 C355 1.478 1_554 S
C724 C220 1.419 . S
C764 C376 1.491 1_554 S
C756 C182 1.416 . S
C788 C201 1.513 . S
C796 C399 1.345 . S
C820 C258 1.498 . S
C828 C378 1.338 . S
C852 C277 1.441 . S
C860 C397 1.478 1_556 S
C892 C357 1.353 . S
C884 C239 1.451 . S
C924 C422 1.465 . S
C916 C25 1.435 . S
C948 C44 1.408 . S
C956 C443 1.430 . S
C980 C6 1.432 . S
C988 C465 1.263 . S
C1012 C329 1.382 . S
C1020 C444 1.249 . S
C1044 C291 1.414 . S
C1052 C464 1.436 . S
C1076 C310 1.385 . S
C1084 C423 1.303 . S
C1108 C334 1.391 . S
C1116 C418 1.501 . S
C1140 C296 1.424 . S
C1148 C439 1.515 . S
C1180 C462 1.326 . S
C1172 C315 1.533 . S
C1204 C30 1.488 . S
C1212 C441 1.345 . S
C1244 C460 1.457 . S
C1236 C49 1.434 . S
C1268 C11 1.467 . S
C1276 C420 1.340 . S
C1308 C485 1.475 . S
C1300 C139 1.463 . S
C1332 C158 1.444 . S
C1340 C506 1.420 . S
C1372 C528 1.308 . S
C1364 C120 1.380 . S
C1404 C507 1.252 . S
C1396 C101 1.410 . S
C1436 C527 1.440 . S
C1428 C63 1.415 . S
C1460 C82 1.386 . S
C1468 C486 1.302 . S
C1492 C106 1.416 . S
C1500 C481 1.480 . S
C1524 C68 1.395 . S
C1532 C502 1.507 . S
C1564 C525 1.369 . S
C1556 C87 1.469 . S
C1588 C144 1.529 . S
C1596 C504 1.320 . S
C1620 C163 1.392 . S
C1628 C523 1.467 . S
C1652 C125 1.522 . S
C1660 C483 1.313 . S
C1684 C287 1.517 . S
C1692 C358 1.540 . S
C1724 C379 1.587 . S
C1716 C306 1.572 . S
C1748 C325 1.607 . S
C1756 C398 1.507 . S
C1780 C116 1.682 . S
C1788 C377 1.595 . S
C1812 C135 1.618 . S
C1820 C400 1.630 . S
C1852 C356 1.568 . S
C1844 C154 1.604 . S
C1876 C59 1.541 . S
C1884 C421 1.541 . S
C1908 C78 1.590 . S
C1916 C442 1.597 . S
C1940 C97 1.606 . S
C1948 C461 1.518 . S
C1972 C230 1.686 . S
C1980 C440 1.589 . S
C2012 C463 1.617 . S
C2004 C249 1.605 . S
C2036 C268 1.606 . S
C2044 C419 1.559 . S
C2068 C173 1.548 . S
C2076 C484 1.550 . S
C2100 C192 1.572 . S
C2108 C505 1.573 . S
C2140 C524 1.520 . S
C2132 C211 1.605 . S
C2164 C2 1.686 . S
C2172 C503 1.588 . S
C2196 C21 1.612 . S
C2204 C526 1.619 . S
C2228 C40 1.601 . S
C2236 C482 1.569 . S
