# Generated by pormake.
# Topology ssa, (4,4)-cn, num edge types: 1
# Building blocks:
#     Node 0, Type 0, BuildingBlock: KOZSID_clean_sbu_0, # of connection points: 4
#     Node 1, Type 0, BuildingBlock: KOZSID_clean_sbu_0, # of connection points: 4
#     Node 2, Type 0, BuildingBlock: KOZSID_clean_sbu_0, # of connection points: 4
#     Node 3, Type 0, BuildingBlock: KOZSID_clean_sbu_0, # of connection points: 4
#     Node 4, Type 0, BuildingBlock: KOZSID_clean_sbu_0, # of connection points: 4
#     Node 5, Type 0, BuildingBlock: KOZSID_clean_sbu_0, # of connection points: 4
#     Node 6, Type 1, BuildingBlock: GIZVER_clean_linker_0, # of connection points: 4
#     Node 7, Type 1, BuildingBlock: GIZVER_clean_linker_0, # of connection points: 4
#     Node 8, Type 1, BuildingBlock: GIZVER_clean_linker_0, # of connection points: 4
#     Node 9, Type 1, BuildingBlock: GIZVER_clean_linker_0, # of connection points: 4
#     Node 10, Type 1, BuildingBlock: GIZVER_clean_linker_0, # of connection points: 4
#     Node 11, Type 1, BuildingBlock: GIZVER_clean_linker_0, # of connection points: 4
#     Edge 12, Type (0, 1), BuildingBlock: UVAHIK_clean_linker_0, # of connection points: 2
#     Edge 13, Type (0, 1), BuildingBlock: UVAHIK_clean_linker_0, # of connection points: 2
#     Edge 14, Type (0, 1), BuildingBlock: UVAHIK_clean_linker_0, # of connection points: 2
#     Edge 15, Type (0, 1), BuildingBlock: UVAHIK_clean_linker_0, # of connection points: 2
#     Edge 16, Type (0, 1), BuildingBlock: UVAHIK_clean_linker_0, # of connection points: 2
#     Edge 17, Type (0, 1), BuildingBlock: UVAHIK_clean_linker_0, # of connection points: 2
#     Edge 18, Type (0, 1), BuildingBlock: UVAHIK_clean_linker_0, # of connection points: 2
#     Edge 19, Type (0, 1), BuildingBlock: UVAHIK_clean_linker_0, # of connection points: 2
#     Edge 20, Type (0, 1), BuildingBlock: UVAHIK_clean_linker_0, # of connection points: 2
#     Edge 21, Type (0, 1), BuildingBlock: UVAHIK_clean_linker_0, # of connection points: 2
#     Edge 22, Type (0, 1), BuildingBlock: UVAHIK_clean_linker_0, # of connection points: 2
#     Edge 23, Type (0, 1), BuildingBlock: UVAHIK_clean_linker_0, # of connection points: 2
#     Edge 24, Type (0, 1), BuildingBlock: UVAHIK_clean_linker_0, # of connection points: 2
#     Edge 25, Type (0, 1), BuildingBlock: UVAHIK_clean_linker_0, # of connection points: 2
#     Edge 26, Type (0, 1), BuildingBlock: UVAHIK_clean_linker_0, # of connection points: 2
#     Edge 27, Type (0, 1), BuildingBlock: UVAHIK_clean_linker_0, # of connection points: 2
#     Edge 28, Type (0, 1), BuildingBlock: UVAHIK_clean_linker_0, # of connection points: 2
#     Edge 29, Type (0, 1), BuildingBlock: UVAHIK_clean_linker_0, # of connection points: 2
#     Edge 30, Type (0, 1), BuildingBlock: UVAHIK_clean_linker_0, # of connection points: 2
#     Edge 31, Type (0, 1), BuildingBlock: UVAHIK_clean_linker_0, # of connection points: 2
#     Edge 32, Type (0, 1), BuildingBlock: UVAHIK_clean_linker_0, # of connection points: 2
#     Edge 33, Type (0, 1), BuildingBlock: UVAHIK_clean_linker_0, # of connection points: 2
#     Edge 34, Type (0, 1), BuildingBlock: UVAHIK_clean_linker_0, # of connection points: 2
#     Edge 35, Type (0, 1), BuildingBlock: UVAHIK_clean_linker_0, # of connection points: 2
# Relax obj value: 0.003
# Max RMSD: 0.033
# Mean RMSD: 0.019
data_MOF--net-ssa--node1-KOZSID_clean_sbu_0--node2-GIZVER_clean_linker_0--edge1-UVAHIK_clean_linker_0
_symmetry_space_group_name_H-M    P1
_symmetry_Int_Tables_number       1
_symmetry_cell_setting            triclinic
loop_
_symmetry_equiv_pos_as_xyz
'x, y, z'
_cell_length_a     74.298301
_cell_length_b     75.69215
_cell_length_c     40.61552
_cell_angle_alpha  87.396348
_cell_angle_beta   89.874868
_cell_angle_gamma 121.80867
loop_
_atom_site_label
_atom_site_type_symbol
_atom_site_fract_x
_atom_site_fract_y
_atom_site_fract_z
_atom_type_partial_charge
C0 C 0.96543 0.50567 0.01346 0.0
C1 C 0.94972 0.50141 0.03667 0.0
C2 C 0.95369 0.49329 0.06437 0.0
C3 C 0.97151 0.49308 0.0565 0.0
N4 N 0.97937 0.5008 0.02557 0.0
Co5 Co 0.00457 0.50258 0.00352 0.0
N6 N 0.00964 0.48946 0.04359 0.0
C7 C 0.99851 0.48341 0.07263 0.0
C8 C 0.00618 0.47569 0.09605 0.0
C9 C 0.02333 0.47696 0.08125 0.0
C10 C 0.02507 0.4853 0.04937 0.0
N11 N 0.02954 0.50406 0.98125 0.0
C12 C 0.04281 0.49812 0.99267 0.0
C13 C 0.05789 0.50152 0.96881 0.0
C14 C 0.05427 0.51025 0.94153 0.0
C15 C 0.03718 0.51154 0.95014 0.0
N16 N 0.99965 0.51595 0.9636 0.0
C17 C 0.01142 0.52302 0.93518 0.0
C18 C 0.00402 0.53123 0.91208 0.0
C19 C 0.98635 0.52915 0.92647 0.0
C20 C 0.984 0.51975 0.95765 0.0
N21 N 0.02367 0.53056 0.0208 0.0
C22 C 0.05222 0.56946 0.04679 0.0
C23 C 0.05462 0.56547 0.01432 0.0
C24 C 0.04022 0.54617 0.00189 0.0
C25 C 0.03487 0.55379 0.06562 0.0
C26 C 0.02103 0.53466 0.05236 0.0
N27 N 0.98554 0.47466 0.9863 0.0
C28 C 0.97347 0.45168 0.94111 0.0
C29 C 0.95773 0.43539 0.96136 0.0
C30 C 0.95626 0.43897 0.99437 0.0
C31 C 0.97034 0.45851 0.00631 0.0
C32 C 0.98699 0.47107 0.95391 0.0
H33 H 0.96855 0.4602 0.03177 0.0
H34 H 0.99834 0.48296 0.93704 0.0
H35 H 0.04302 0.5442 0.97702 0.0
H36 H 0.00844 0.5234 0.06832 0.0
C37 C 0.981 0.48533 0.07731 0.0
C38 C 0.96616 0.51393 0.98008 0.0
C39 C 0.04201 0.48954 0.02592 0.0
C40 C 0.02843 0.52039 0.93002 0.0
H41 H 0.93661 0.50372 0.03372 0.0
H42 H 0.9445 0.48791 0.08735 0.0
H43 H 1.00016 0.47004 0.12106 0.0
H44 H 0.03354 0.47248 0.09284 0.0
H45 H 0.07035 0.49821 0.97098 0.0
H46 H 0.06318 0.51527 0.91831 0.0
H47 H 0.01038 0.53746 0.88739 0.0
H48 H 0.97611 0.53366 0.91506 0.0
H49 H 0.06784 0.57696 0.99864 0.0
H50 H 0.03189 0.55618 0.09064 0.0
H51 H 0.97503 0.44965 0.91524 0.0
H52 H 0.94439 0.4267 0.01101 0.0
C53 C 0.54035 0.02285 0.55282 0.0
C54 C 0.5446 0.0204 0.58544 0.0
C55 C 0.52652 0.00369 0.5992 0.0
C56 C 0.51226 0.99697 0.57445 0.0
N57 N 0.52018 0.00823 0.54551 0.0
Co58 Co 0.50446 0.00454 0.50371 0.0
N59 N 0.47744 0.98091 0.52483 0.0
C60 C 0.47436 0.97314 0.55641 0.0
C61 C 0.4542 0.95671 0.56361 0.0
C62 C 0.44382 0.95354 0.53478 0.0
C63 C 0.45836 0.96824 0.51155 0.0
N64 N 0.48873 0.00088 0.46193 0.0
C65 C 0.46859 0.98622 0.45459 0.0
C66 C 0.46427 0.98879 0.42207 0.0
C67 C 0.4823 0.00559 0.40837 0.0
C68 C 0.49659 0.01226 0.43308 0.0
N69 N 0.5315 0.02814 0.48256 0.0
C70 C 0.53457 0.03588 0.45096 0.0
C71 C 0.55478 0.05217 0.44365 0.0
C72 C 0.56522 0.05526 0.47241 0.0
C73 C 0.55065 0.04067 0.49573 0.0
N74 N 0.51196 0.98432 0.4896 0.0
C75 C 0.52144 0.95496 0.46888 0.0
C76 C 0.52474 0.97151 0.44766 0.0
C77 C 0.5198 0.98578 0.45835 0.0
C78 C 0.51347 0.95342 0.50073 0.0
C79 C 0.50906 0.96825 0.5106 0.0
N80 N 0.49702 0.02481 0.51786 0.0
C81 C 0.49688 0.05652 0.50757 0.0
C82 C 0.48951 0.05536 0.53979 0.0
C83 C 0.48527 0.03819 0.56038 0.0
C84 C 0.4892 0.02334 0.5491 0.0
C85 C 0.50035 0.04115 0.49716 0.0
H86 H 0.486 0.01096 0.56633 0.0
H87 H 0.50606 0.04305 0.47241 0.0
H88 H 0.52227 0.99774 0.44072 0.0
H89 H 0.50323 0.96632 0.53528 0.0
C90 C 0.491 0.98102 0.57827 0.0
C91 C 0.55558 0.03994 0.5303 0.0
C92 C 0.45348 0.96896 0.47696 0.0
C93 C 0.51788 0.02813 0.42919 0.0
H94 H 0.55906 0.02996 0.59832 0.0
H95 H 0.52389 0.99757 0.62454 0.0
H96 H 0.44794 0.94781 0.58686 0.0
H97 H 0.42749 0.94152 0.53107 0.0
H98 H 0.4498 0.97922 0.4092 0.0
H99 H 0.4849 0.01177 0.38308 0.0
H100 H 0.56105 0.06103 0.42037 0.0
H101 H 0.58161 0.06716 0.47601 0.0
H102 H 0.53067 0.97319 0.4226 0.0
H103 H 0.51083 0.94092 0.5181 0.0
H104 H 0.50055 0.0695 0.49058 0.0
H105 H 0.479 0.03615 0.58529 0.0
C106 C 0.54669 0.52376 0.95997 0.0
C107 C 0.55544 0.5345 0.92988 0.0
C108 C 0.53992 0.53581 0.91421 0.0
C109 C 0.52268 0.52589 0.93556 0.0
N110 N 0.52631 0.51849 0.96407 0.0
Co111 Co 0.5056 0.50299 0.0019 0.0
N112 N 0.48198 0.50234 0.97698 0.0
C113 C 0.48291 0.50939 0.94543 0.0
C114 C 0.46409 0.50651 0.93484 0.0
C115 C 0.45032 0.49718 0.96127 0.0
C116 C 0.46166 0.49505 0.98662 0.0
N117 N 0.48514 0.48836 0.0403 0.0
C118 C 0.46478 0.48321 0.04446 0.0
C119 C 0.45684 0.47467 0.07604 0.0
C120 C 0.47271 0.4744 0.09238 0.0
C121 C 0.48943 0.48291 0.07011 0.0
N122 N 0.52899 0.50276 0.02617 0.0
C123 C 0.52775 0.4944 0.05686 0.0
C124 C 0.54596 0.49537 0.06612 0.0
C125 C 0.55956 0.50453 0.03948 0.0
C126 C 0.54878 0.50864 0.0155 0.0
N127 N 0.51344 0.53012 0.0198 0.0
C128 C 0.52371 0.56826 0.04551 0.0
C129 C 0.52603 0.55369 0.06426 0.0
C130 C 0.52075 0.53484 0.05112 0.0
C131 C 0.51632 0.5635 0.01362 0.0
C132 C 0.51146 0.54458 0.00128 0.0
N133 N 0.4979 0.47596 0.98396 0.0
C134 C 0.48995 0.44062 0.99206 0.0
C135 C 0.49105 0.43907 0.9581 0.0
C136 C 0.49478 0.45592 0.93729 0.0
C137 C 0.49787 0.47395 0.9506 0.0
C138 C 0.49354 0.45914 0.00441 0.0
H139 H 0.50055 0.48618 0.93335 0.0
H140 H 0.49311 0.45962 0.03058 0.0
H141 H 0.52256 0.52431 0.06691 0.0
H142 H 0.50607 0.54205 0.9767 0.0
C143 C 0.50221 0.52071 0.92773 0.0
C144 C 0.5578 0.51759 0.9827 0.0
C145 C 0.45263 0.4868 0.01974 0.0
C146 C 0.50921 0.48572 0.07628 0.0
H147 H 0.57116 0.54014 0.9198 0.0
H148 H 0.54079 0.54232 0.88954 0.0
H149 H 0.46094 0.51127 0.91112 0.0
H150 H 0.43392 0.49286 0.96206 0.0
H151 H 0.4413 0.46942 0.08647 0.0
H152 H 0.4722 0.46888 0.11763 0.0
H153 H 0.54889 0.4898 0.08928 0.0
H154 H 0.57551 0.50759 0.03766 0.0
H155 H 0.53149 0.55661 0.08928 0.0
H156 H 0.51447 0.57441 0.99805 0.0
H157 H 0.48704 0.42786 0.00905 0.0
H158 H 0.49535 0.4552 0.91075 0.0
C159 C 0.96887 0.46407 0.48596 0.0
C160 C 0.95529 0.4523 0.46158 0.0
C161 C 0.9599 0.4655 0.43456 0.0
C162 C 0.97608 0.48444 0.44384 0.0
N163 N 0.98223 0.48414 0.4751 0.0
Co164 Co 0.00563 0.50814 0.49822 0.0
N165 N 0.01148 0.52784 0.45916 0.0
C166 C 1.00097 0.52333 0.4306 0.0
C167 C 0.00861 0.53998 0.40824 0.0
C168 C 0.025 0.55614 0.42335 0.0
C169 C 0.02638 0.5484 0.4543 0.0
N170 N 0.02941 0.53202 0.521 0.0
C171 C 0.04282 0.55209 0.5101 0.0
C172 C 0.05722 0.56356 0.53384 0.0
C173 C 0.05299 0.55022 0.56051 0.0
C174 C 0.03629 0.53147 0.55164 0.0
N175 N 0.9994 0.48853 0.53757 0.0
C176 C 0.0093 0.49324 0.56667 0.0
C177 C 1.00082 0.47691 0.58974 0.0
C178 C 0.98437 0.4608 0.57466 0.0
C179 C 0.98386 0.46822 0.54296 0.0
N180 N 0.02619 0.50151 0.48028 0.0
C181 C 0.05609 0.49321 0.45402 0.0
C182 C 0.0555 0.49636 0.48758 0.0
C183 C 0.04048 0.50032 0.50009 0.0
C184 C 0.04117 0.49395 0.43407 0.0
C185 C 0.02667 0.49825 0.44748 0.0
N186 N 0.98508 0.51481 0.51613 0.0
C187 C 0.97284 0.52678 0.56015 0.0
C188 C 0.95602 0.52429 0.54146 0.0
C189 C 0.95386 0.51695 0.50997 0.0
C190 C 0.96862 0.51259 0.4977 0.0
C191 C 0.98692 0.52174 0.54728 0.0
H192 H 0.96636 0.50747 0.47325 0.0
H193 H 0.99909 0.5235 0.5631 0.0
H194 H 0.04085 0.50254 0.52584 0.0
H195 H 0.01606 0.49891 0.43072 0.0
C196 C 0.98493 0.50303 0.42456 0.0
C197 C 0.96786 0.45562 0.51935 0.0
C198 C 0.04257 0.56099 0.47764 0.0
C199 C 0.02631 0.51323 0.57184 0.0
H200 H 0.94305 0.43593 0.46335 0.0
H201 H 0.9521 0.46183 0.41117 0.0
H202 H 0.00323 0.54022 0.38358 0.0
H203 H 0.03503 0.57176 0.41248 0.0
H204 H 0.0695 0.57992 0.53209 0.0
H205 H 0.06106 0.55378 0.58367 0.0
H206 H 0.00579 0.47683 0.61475 0.0
H207 H 0.97377 0.44544 0.58604 0.0
H208 H 0.06679 0.49615 0.50416 0.0
H209 H 0.04049 0.49113 0.40807 0.0
H210 H 0.9749 0.53224 0.58487 0.0
H211 H 0.94102 0.51489 0.49468 0.0
C212 C 0.46649 0.98581 0.05325 0.0
C213 C 0.46114 0.98746 0.08527 0.0
C214 C 0.47906 0.00312 0.09835 0.0
C215 C 0.49432 0.01009 0.07379 0.0
N216 N 0.48725 0.99981 0.04574 0.0
Co217 Co 0.5042 0.00498 0.00397 0.0
N218 N 0.53084 0.02719 0.02408 0.0
C219 C 0.53315 0.03315 0.05549 0.0
C220 C 0.55342 0.04835 0.0624 0.0
C221 C 0.56476 0.0525 0.03362 0.0
C222 C 0.55062 0.03965 0.01066 0.0
N223 N 0.52102 0.0106 0.96189 0.0
C224 C 0.54153 0.02529 0.95393 0.0
C225 C 0.54649 0.02471 0.92114 0.0
C226 C 0.52857 0.00908 0.90801 0.0
C227 C 0.51369 0.00113 0.93325 0.0
N228 N 0.4777 0.98228 0.98422 0.0
C229 C 0.47567 0.97547 0.95342 0.0
C230 C 0.45564 0.95956 0.94695 0.0
C231 C 0.44416 0.9558 0.97544 0.0
C232 C 0.45796 0.96966 0.99775 0.0
N233 N 0.49739 0.02606 0.98865 0.0
C234 C 0.48782 0.05595 0.96693 0.0
C235 C 0.48272 0.03905 0.94814 0.0
C236 C 0.48785 0.02454 0.95916 0.0
C237 C 0.49778 0.05776 0.9967 0.0
C238 C 0.50214 0.0426 0.00724 0.0
N239 N 0.51099 0.98391 0.01932 0.0
C240 C 0.51473 0.95469 0.00916 0.0
C241 C 0.51994 0.95358 0.04193 0.0
C242 C 0.52087 0.96815 0.06294 0.0
C243 C 0.51623 0.98287 0.05134 0.0
C244 C 0.51045 0.96991 0.99843 0.0
H245 H 0.51695 0.99322 0.06885 0.0
H246 H 0.50659 0.96993 0.9732 0.0
H247 H 0.48402 0.01231 0.94327 0.0
H248 H 0.50935 0.04464 0.0305 0.0
C249 C 0.51569 0.02513 0.07723 0.0
C250 C 0.45151 0.97022 0.03142 0.0
C251 C 0.55659 0.0405 0.97616 0.0
C252 C 0.4927 0.9849 0.93071 0.0
H253 H 0.44596 0.97809 0.09817 0.0
H254 H 0.48089 0.00845 0.12311 0.0
H255 H 0.55917 0.05584 0.08541 0.0
H256 H 0.58148 0.06397 0.02978 0.0
H257 H 0.56139 0.03471 0.9078 0.0
H258 H 0.52655 0.00427 0.8829 0.0
H259 H 0.45002 0.95175 0.92417 0.0
H260 H 0.42748 0.9442 0.97931 0.0
H261 H 0.47517 0.03726 0.92469 0.0
H262 H 0.50191 0.07066 0.01202 0.0
H263 H 0.51359 0.94369 0.99188 0.0
H264 H 0.5253 0.96836 0.08837 0.0
C265 C 0.51541 0.54556 0.51206 0.0
C266 C 0.51297 0.55674 0.53598 0.0
C267 C 0.50399 0.54351 0.56315 0.0
C268 C 0.50156 0.52513 0.55437 0.0
N269 N 0.50878 0.52588 0.52339 0.0
Co270 Co 0.50806 0.50257 0.50044 0.0
N271 N 0.4934 0.48267 0.53956 0.0
C272 C 0.48788 0.48689 0.5686 0.0
C273 C 0.47835 0.47019 0.591 0.0
C274 C 0.47786 0.45434 0.57549 0.0
C275 C 0.48713 0.46234 0.54435 0.0
N276 N 0.50707 0.47917 0.47731 0.0
C277 C 0.49942 0.45916 0.488 0.0
C278 C 0.50189 0.448 0.46408 0.0
C279 C 0.51164 0.46148 0.43738 0.0
C280 C 0.5145 0.47999 0.44646 0.0
N281 N 0.52286 0.52254 0.46142 0.0
C282 C 0.52919 0.51853 0.43292 0.0
C283 C 0.53817 0.53503 0.41015 0.0
C284 C 0.53739 0.55048 0.42477 0.0
C285 C 0.52803 0.54252 0.4559 0.0
N286 N 0.53601 0.51028 0.51861 0.0
C287 C 0.57543 0.52085 0.54442 0.0
C288 C 0.57054 0.51453 0.5123 0.0
C289 C 0.55101 0.50962 0.49983 0.0
C290 C 0.56042 0.52185 0.56349 0.0
C291 C 0.54086 0.51628 0.55036 0.0
N292 N 0.48022 0.49496 0.48228 0.0
C293 C 0.45727 0.48647 0.43588 0.0
C294 C 0.44164 0.48645 0.45515 0.0
C295 C 0.44549 0.4902 0.48858 0.0
C296 C 0.46465 0.49424 0.50156 0.0
C297 C 0.47627 0.49086 0.44971 0.0
H298 H 0.46664 0.497 0.52717 0.0
H299 H 0.4876 0.49102 0.43346 0.0
H300 H 0.54847 0.50533 0.47496 0.0
H301 H 0.52993 0.51685 0.5665 0.0
C302 C 0.49201 0.50673 0.57423 0.0
C303 C 0.52335 0.55411 0.47862 0.0
C304 C 0.49017 0.45016 0.52067 0.0
C305 C 0.52479 0.49861 0.4271 0.0
H306 H 0.51696 0.57273 0.5338 0.0
H307 H 0.49941 0.54678 0.58633 0.0
H308 H 0.47262 0.46965 0.61578 0.0
H309 H 0.47157 0.43871 0.58602 0.0
H310 H 0.49731 0.43183 0.46592 0.0
H311 H 0.51635 0.45826 0.41428 0.0
H312 H 0.5439 0.53553 0.38539 0.0
H313 H 0.54261 0.56567 0.41331 0.0
H314 H 0.58187 0.51365 0.49669 0.0
H315 H 0.56358 0.52651 0.5887 0.0
H316 H 0.45496 0.48311 0.41006 0.0
H317 H 0.43401 0.4905 0.50464 0.0
H318 H 0.22947 0.49164 0.17217 0.0
H319 H 0.23063 0.48806 0.27824 0.0
H320 H 0.17129 0.46198 0.2295 0.0
H321 H 0.26213 0.51395 0.20046 0.0
H322 H 0.26237 0.51394 0.24436 0.0
H323 H 0.27042 0.49166 0.17134 0.0
H324 H 0.29617 0.46095 0.22707 0.0
H325 H 0.26573 0.48747 0.27751 0.0
C326 C 0.22115 0.48611 0.19591 0.0
C327 C 0.19894 0.47555 0.19748 0.0
C328 C 0.23268 0.49035 0.22499 0.0
C329 C 0.22177 0.48409 0.25579 0.0
C330 C 0.19955 0.47361 0.25765 0.0
C331 C 0.18834 0.46904 0.22833 0.0
C332 C 0.25657 0.50357 0.22331 0.0
C333 C 0.26627 0.49036 0.2243 0.0
C334 C 0.27285 0.48598 0.19487 0.0
C335 C 0.28339 0.4751 0.1958 0.0
C336 C 0.28696 0.46829 0.22637 0.0
C337 C 0.28085 0.47279 0.25602 0.0
C338 C 0.27022 0.48361 0.25479 0.0
H339 H 0.73918 0.22413 0.68755 0.0
H340 H 0.74249 0.22391 0.79326 0.0
H341 H 0.70733 0.16619 0.74538 0.0
H342 H 0.74796 0.25513 0.71703 0.0
H343 H 0.74896 0.25491 0.76085 0.0
H344 H 0.77895 0.26453 0.68335 0.0
H345 H 0.83871 0.29463 0.73105 0.0
H346 H 0.78078 0.25996 0.78914 0.0
C347 C 0.73572 0.21559 0.71122 0.0
C348 C 0.72315 0.19373 0.7129 0.0
C349 C 0.74285 0.22654 0.74016 0.0
C350 C 0.73759 0.21546 0.77091 0.0
C351 C 0.72489 0.19363 0.77301 0.0
C352 C 0.71817 0.18293 0.74385 0.0
C353 C 0.75351 0.24989 0.73862 0.0
C354 C 0.77729 0.26053 0.73643 0.0
C355 C 0.78797 0.26763 0.70558 0.0
C356 C 0.81019 0.27983 0.70343 0.0
C357 C 0.82164 0.28417 0.73249 0.0
C358 C 0.81128 0.27716 0.76356 0.0
C359 C 0.78902 0.26508 0.76531 0.0
H360 H 0.52544 0.74178 0.21386 0.0
H361 H 0.52078 0.73788 0.31996 0.0
H362 H 0.54984 0.70991 0.27011 0.0
H363 H 0.49919 0.74648 0.24371 0.0
H364 H 0.49857 0.74634 0.2876 0.0
H365 H 0.52576 0.77757 0.2104 0.0
H366 H 0.55293 0.83548 0.25768 0.0
H367 H 0.52222 0.77781 0.31625 0.0
C368 C 0.52906 0.73727 0.23744 0.0
C369 C 0.53923 0.726 0.23846 0.0
C370 C 0.52263 0.74187 0.26681 0.0
C371 C 0.52645 0.73509 0.29734 0.0
C372 C 0.53651 0.72375 0.29868 0.0
C373 C 0.5432 0.7197 0.26919 0.0
C374 C 0.50944 0.75166 0.26553 0.0
C375 C 0.52312 0.77512 0.26361 0.0
C376 C 0.52986 0.78608 0.2327 0.0
C377 C 0.54089 0.80791 0.23044 0.0
C378 C 0.54556 0.81871 0.25947 0.0
C379 C 0.53885 0.80809 0.29053 0.0
C380 C 0.52782 0.78622 0.29246 0.0
H381 H 0.77345 0.56936 0.7295 0.0
H382 H 0.76518 0.56015 0.83532 0.0
H383 H 0.71092 0.53386 0.7739 0.0
H384 H 0.80275 0.59157 0.76696 0.0
H385 H 0.79972 0.58564 0.81046 0.0
H386 H 0.80834 0.56981 0.72898 0.0
H387 H 0.83252 0.53386 0.77202 0.0
H388 H 0.80654 0.55978 0.83464 0.0
C389 C 0.76321 0.56234 0.75133 0.0
C390 C 0.74116 0.55068 0.7481 0.0
C391 C 0.77204 0.56538 0.78274 0.0
C392 C 0.75853 0.55718 0.81101 0.0
C393 C 0.73643 0.54562 0.80792 0.0
C394 C 0.72797 0.54205 0.77639 0.0
C395 C 0.79575 0.57852 0.7861 0.0
C396 C 0.80562 0.56564 0.78221 0.0
C397 C 0.81104 0.56267 0.75058 0.0
C398 C 0.82048 0.55095 0.74684 0.0
C399 C 0.82433 0.5421 0.77486 0.0
C400 C 0.81966 0.54543 0.80658 0.0
C401 C 0.81007 0.55704 0.81017 0.0
H402 H 0.2681 0.78789 0.20931 0.0
H403 H 0.2725 0.78515 0.31487 0.0
H404 H 0.30153 0.84436 0.26066 0.0
H405 H 0.26281 0.75627 0.23994 0.0
H406 H 0.26238 0.75464 0.28393 0.0
H407 H 0.23143 0.74907 0.20997 0.0
H408 H 0.17233 0.719 0.2654 0.0
H409 H 0.23098 0.74794 0.31609 0.0
C410 C 0.27294 0.79572 0.23225 0.0
C411 C 0.28468 0.81755 0.23162 0.0
C412 C 0.2683 0.78394 0.26226 0.0
C413 C 0.27548 0.79419 0.29182 0.0
C414 C 0.28733 0.81605 0.2915 0.0
C415 C 0.29142 0.82753 0.26135 0.0
C416 C 0.25761 0.76061 0.26227 0.0
C417 C 0.23384 0.75023 0.26291 0.0
C418 C 0.22275 0.74507 0.23335 0.0
C419 C 0.20048 0.73393 0.23399 0.0
C420 C 0.18949 0.7286 0.26453 0.0
C421 C 0.20031 0.73347 0.29419 0.0
C422 C 0.22253 0.7445 0.29324 0.0
H423 H 0.43904 0.24301 0.78992 0.0
H424 H 0.43509 0.24271 0.68399 0.0
H425 H 0.4693 0.30067 0.73128 0.0
H426 H 0.4118 0.21146 0.76189 0.0
H427 H 0.41179 0.21112 0.71791 0.0
H428 H 0.4359 0.20517 0.79381 0.0
H429 H 0.46917 0.1814 0.74382 0.0
H430 H 0.43745 0.20586 0.68757 0.0
C431 C 0.44323 0.25135 0.766 0.0
C432 C 0.45555 0.27321 0.76397 0.0
C433 C 0.43607 0.24022 0.73714 0.0
C434 C 0.44101 0.25116 0.70622 0.0
C435 C 0.45324 0.273 0.704 0.0
C436 C 0.46063 0.28379 0.73289 0.0
C437 C 0.4223 0.21677 0.73939 0.0
C438 C 0.43575 0.20725 0.74053 0.0
C439 C 0.44141 0.20232 0.77108 0.0
C440 C 0.45359 0.19311 0.77238 0.0
C441 C 0.46048 0.18928 0.74292 0.0
C442 C 0.45456 0.19362 0.71236 0.0
C443 C 0.44228 0.20272 0.71117 0.0
C444 C 0.0797 0.50324 0.04039 0.0
C445 C 0.05915 0.48615 0.03647 0.0
C446 C 0.09573 0.50018 0.05135 0.0
C447 C 0.10316 0.46294 0.10047 0.0
H448 H 0.16097 0.49589 0.06556 0.0
C449 C 0.1679 0.45505 0.16195 0.0
C450 C 0.18658 0.47393 0.16796 0.0
C451 C 0.15348 0.45453 0.13937 0.0
C452 C 0.14493 0.48662 0.0757 0.0
H453 H 0.03917 0.45257 0.03988 0.0
H454 H 0.06717 0.4471 0.05949 0.0
H455 H 0.13325 0.49911 0.0391 0.0
H456 H 0.20548 0.50683 0.15378 0.0
H457 H 0.18023 0.50611 0.11486 0.0
H458 H 0.11474 0.45108 0.13787 0.0
C459 C 0.0709 0.46286 0.05425 0.0
C460 C 0.12906 0.48846 0.0605 0.0
C461 C 0.05492 0.46594 0.04303 0.0
C462 C 0.19131 0.49202 0.1493 0.0
C463 C 0.17677 0.49157 0.12699 0.0
C464 C 0.11901 0.46122 0.1158 0.0
C465 C 0.09145 0.47996 0.0588 0.0
C466 C 0.10805 0.47684 0.07302 0.0
C467 C 0.15728 0.47296 0.1227 0.0
C468 C 0.14018 0.47324 0.10393 0.0
H469 H 0.08323 0.51896 0.03543 0.0
H470 H 0.11131 0.51367 0.05498 0.0
H471 H 0.08719 0.454 0.11101 0.0
H472 H 0.16396 0.44087 0.17597 0.0
H473 H 0.13892 0.43982 0.13607 0.0
C474 C 0.59162 0.05491 0.55418 0.0
C475 C 0.57533 0.05761 0.54305 0.0
C476 C 0.60987 0.0715 0.56706 0.0
C477 C 0.62872 0.12203 0.60401 0.0
H478 H 0.68389 0.12859 0.59402 0.0
C479 C 0.70114 0.18857 0.66349 0.0
C480 C 0.71222 0.18207 0.68352 0.0
C481 C 0.68701 0.17542 0.64048 0.0
C482 C 0.66857 0.12694 0.59697 0.0
H483 H 0.56546 0.07968 0.5351 0.0
H484 H 0.59756 0.1089 0.55665 0.0
H485 H 0.65377 0.10148 0.56519 0.0
H486 H 0.7185 0.15747 0.6933 0.0
H487 H 0.69382 0.13448 0.65308 0.0
H488 H 0.64342 0.14732 0.63594 0.0
C489 C 0.59611 0.09391 0.55646 0.0
C490 C 0.65128 0.11135 0.58061 0.0
C491 C 0.5778 0.07726 0.54393 0.0
C492 C 0.71007 0.16282 0.67831 0.0
C493 C 0.69602 0.14971 0.65516 0.0
C494 C 0.64599 0.13767 0.62008 0.0
C495 C 0.61227 0.09118 0.56866 0.0
C496 C 0.63106 0.10853 0.58426 0.0
C497 C 0.68374 0.15555 0.63691 0.0
C498 C 0.66606 0.14017 0.61707 0.0
H499 H 0.59003 0.03987 0.5534 0.0
H500 H 0.62182 0.06872 0.57654 0.0
H501 H 0.61336 0.12011 0.60801 0.0
H502 H 0.7023 0.20323 0.66708 0.0
H503 H 0.67797 0.18045 0.62642 0.0
C504 C 0.5146 0.59516 0.05554 0.0
C505 C 0.52861 0.5881 0.05936 0.0
C506 C 0.51871 0.61334 0.06987 0.0
C507 C 0.54917 0.6473 0.13701 0.0
H508 H 0.53212 0.6836 0.09719 0.0
C509 C 0.56137 0.71721 0.20446 0.0
C510 C 0.54288 0.71781 0.20826 0.0
C511 C 0.56267 0.70502 0.18089 0.0
C512 C 0.53698 0.67361 0.10856 0.0
H513 H 0.55836 0.59499 0.07999 0.0
H514 H 0.56582 0.62693 0.10445 0.0
H515 H 0.52862 0.6549 0.06663 0.0
H516 H 0.51195 0.70739 0.18853 0.0
H517 H 0.51429 0.68624 0.14717 0.0
H518 H 0.55729 0.66579 0.17902 0.0
C519 C 0.55134 0.61817 0.09114 0.0
C520 C 0.53489 0.6571 0.09116 0.0
C521 C 0.54711 0.59988 0.07708 0.0
C522 C 0.52648 0.70741 0.18604 0.0
C523 C 0.5278 0.69523 0.16238 0.0
C524 C 0.5514 0.66386 0.15424 0.0
C525 C 0.53704 0.62499 0.08814 0.0
C526 C 0.54068 0.64354 0.10537 0.0
C527 C 0.54553 0.6932 0.16054 0.0
C528 C 0.54509 0.67705 0.14043 0.0
H529 H 0.50011 0.58629 0.04229 0.0
H530 H 0.50716 0.61787 0.06746 0.0
H531 H 0.55341 0.63701 0.1491 0.0
H532 H 0.57437 0.72529 0.22096 0.0
H533 H 0.57672 0.70411 0.17959 0.0
C534 C 0.91905 0.5138 0.55757 0.0
C535 C 0.94071 0.52912 0.55502 0.0
C536 C 0.90476 0.51796 0.57241 0.0
C537 C 0.90381 0.55492 0.62897 0.0
H538 H 0.84444 0.52587 0.60713 0.0
C539 C 0.84507 0.56835 0.69805 0.0
C540 C 0.82903 0.54995 0.71455 0.0
C541 C 0.85706 0.56746 0.67233 0.0
C542 C 0.86102 0.53418 0.61326 0.0
H543 H 0.96442 0.561 0.56434 0.0
H544 H 0.93948 0.56875 0.58868 0.0
H545 H 0.86931 0.52176 0.5738 0.0
H546 H 0.81184 0.51629 0.71581 0.0
H547 H 0.8324 0.5147 0.6701 0.0
H548 H 0.89545 0.56745 0.66821 0.0
C549 C 0.93346 0.55322 0.58059 0.0
C550 C 0.87527 0.5317 0.59442 0.0
C551 C 0.94778 0.54889 0.56643 0.0
C552 C 0.82405 0.53066 0.70325 0.0
C553 C 0.83579 0.52977 0.67715 0.0
C554 C 0.88966 0.5577 0.6473 0.0
C555 C 0.91178 0.5377 0.58444 0.0
C556 C 0.89682 0.54171 0.60243 0.0
C557 C 0.85295 0.54816 0.66238 0.0
C558 C 0.86809 0.54709 0.64001 0.0
H559 H 0.91328 0.49839 0.54908 0.0
H560 H 0.88833 0.50545 0.57536 0.0
H561 H 0.92007 0.56256 0.63655 0.0
H562 H 0.84934 0.5834 0.70661 0.0
H563 H 0.87018 0.58184 0.66123 0.0
C564 C 0.42458 0.9333 0.04897 0.0
C565 C 0.42997 0.954 0.04413 0.0
C566 C 0.40462 0.91808 0.06205 0.0
C567 C 0.36296 0.91234 0.11675 0.0
H568 H 0.33117 0.85619 0.08667 0.0
C569 C 0.29278 0.84849 0.19485 0.0
C570 C 0.29303 0.83016 0.20014 0.0
C571 C 0.30485 0.86283 0.16897 0.0
C572 C 0.33986 0.87178 0.09543 0.0
H573 H 0.4189 0.97516 0.04795 0.0
H574 H 0.38391 0.94853 0.07157 0.0
H575 H 0.36205 0.88326 0.0544 0.0
H576 H 0.30497 0.8118 0.18142 0.0
H577 H 0.32634 0.83686 0.13683 0.0
H578 H 0.34175 0.90086 0.15866 0.0
C579 C 0.39509 0.94407 0.06524 0.0
C580 C 0.35751 0.88727 0.0769 0.0
C581 C 0.41501 0.95925 0.05181 0.0
C582 C 0.30431 0.8257 0.17769 0.0
C583 C 0.31657 0.84013 0.15206 0.0
C584 C 0.34548 0.89685 0.13544 0.0
C585 C 0.38978 0.92336 0.07076 0.0
C586 C 0.36951 0.90759 0.0878 0.0
C587 C 0.31766 0.85925 0.14817 0.0
C588 C 0.334 0.87623 0.12546 0.0
H589 H 0.43598 0.92901 0.04313 0.0
H590 H 0.40107 0.90232 0.06643 0.0
H591 H 0.37204 0.92781 0.12596 0.0
H592 H 0.28405 0.85218 0.2117 0.0
H593 H 0.30489 0.87715 0.16621 0.0
C594 C 0.46467 0.41178 0.52962 0.0
C595 C 0.48537 0.42903 0.53085 0.0
C596 C 0.4601 0.39198 0.54041 0.0
C597 C 0.48538 0.36176 0.56224 0.0
H598 H 0.43547 0.329 0.61935 0.0
C599 C 0.4769 0.3024 0.66382 0.0
C600 C 0.45672 0.28507 0.67237 0.0
C601 C 0.47946 0.31676 0.63858 0.0
C602 C 0.44922 0.33767 0.60286 0.0
H603 H 0.5176 0.43955 0.5435 0.0
H604 H 0.50971 0.40506 0.56302 0.0
H605 H 0.44164 0.36076 0.59089 0.0
H606 H 0.42364 0.26831 0.65976 0.0
H607 H 0.42811 0.29338 0.61531 0.0
H608 H 0.49336 0.33903 0.57547 0.0
C609 C 0.49701 0.40656 0.55324 0.0
C610 C 0.45279 0.35595 0.58655 0.0
C611 C 0.50154 0.42631 0.54238 0.0
C612 C 0.43939 0.28149 0.65353 0.0
C613 C 0.44192 0.29595 0.62837 0.0
C614 C 0.48184 0.3435 0.57866 0.0
C615 C 0.47619 0.38916 0.55268 0.0
C616 C 0.47117 0.36849 0.56668 0.0
C617 C 0.46185 0.31414 0.62148 0.0
C618 C 0.46397 0.33152 0.59978 0.0
H619 H 0.45205 0.41369 0.52062 0.0
H620 H 0.44396 0.37891 0.5393 0.0
H621 H 0.49948 0.37084 0.54659 0.0
H622 H 0.49052 0.30545 0.67795 0.0
H623 H 0.495 0.33063 0.63409 0.0
C624 C 0.51096 0.91789 0.4628 0.0
C625 C 0.52594 0.93928 0.45748 0.0
C626 C 0.5146 0.90314 0.45 0.0
C627 C 0.5466 0.89858 0.38455 0.0
H628 H 0.52494 0.84388 0.42719 0.0
C629 C 0.55961 0.83943 0.32389 0.0
C630 C 0.54092 0.82012 0.31975 0.0
C631 C 0.56 0.85314 0.34617 0.0
C632 C 0.53109 0.85911 0.41504 0.0
H633 H 0.5569 0.96199 0.43609 0.0
H634 H 0.56358 0.93637 0.41458 0.0
H635 H 0.52158 0.8699 0.4555 0.0
H636 H 0.50849 0.79939 0.33768 0.0
H637 H 0.50926 0.82327 0.37692 0.0
H638 H 0.55599 0.88782 0.34409 0.0
C639 C 0.5487 0.93089 0.42769 0.0
C640 C 0.52908 0.874 0.43116 0.0
C641 C 0.54494 0.94561 0.44012 0.0
C642 C 0.52319 0.81408 0.34047 0.0
C643 C 0.52361 0.8278 0.36288 0.0
C644 C 0.54878 0.88382 0.36866 0.0
C645 C 0.53341 0.90945 0.43188 0.0
C646 C 0.53661 0.89388 0.41594 0.0
C647 C 0.54174 0.84782 0.36493 0.0
C648 C 0.54088 0.86385 0.38354 0.0
H649 H 0.4961 0.91258 0.47588 0.0
H650 H 0.50231 0.88683 0.45337 0.0
H651 H 0.55217 0.91348 0.37162 0.0
H652 H 0.57361 0.84439 0.30859 0.0
H653 H 0.57434 0.8683 0.34769 0.0
C654 C 0.59699 0.53733 0.97117 0.0
C655 C 0.5773 0.51859 0.97131 0.0
C656 C 0.61518 0.53835 0.95907 0.0
C657 C 0.63115 0.51255 0.90184 0.0
H658 H 0.686 0.54463 0.94144 0.0
C659 C 0.7038 0.51921 0.84033 0.0
C660 C 0.72177 0.53943 0.83686 0.0
C661 C 0.68732 0.51462 0.86251 0.0
C662 C 0.67081 0.53567 0.93001 0.0
H663 H 0.56088 0.48616 0.96007 0.0
H664 H 0.59267 0.4878 0.93891 0.0
H665 H 0.65467 0.54083 0.9687 0.0
H666 H 0.73724 0.57038 0.85516 0.0
H667 H 0.70834 0.56255 0.89355 0.0
H668 H 0.64714 0.50792 0.86265 0.0
C669 C 0.59413 0.50177 0.94777 0.0
C670 C 0.65287 0.53351 0.94562 0.0
C671 C 0.576 0.50077 0.95994 0.0
C672 C 0.72365 0.5546 0.85765 0.0
C673 C 0.70703 0.55008 0.87962 0.0
C674 C 0.64903 0.51479 0.88619 0.0
C675 C 0.61391 0.52063 0.94684 0.0
C676 C 0.63287 0.52206 0.93154 0.0
C677 C 0.6883 0.53025 0.88136 0.0
C678 C 0.66915 0.52651 0.89988 0.0
H679 H 0.59819 0.55122 0.97992 0.0
H680 H 0.6301 0.55315 0.95837 0.0
H681 H 0.61606 0.50394 0.89001 0.0
H682 H 0.70206 0.50723 0.82466 0.0
H683 H 0.67339 0.49904 0.86383 0.0
C684 C 0.05525 0.59835 0.46279 0.0
C685 C 0.05969 0.58258 0.46758 0.0
C686 C 0.07125 0.61842 0.4517 0.0
C687 C 0.12937 0.65383 0.44208 0.0
H688 H 0.11608 0.67607 0.36452 0.0
C689 C 0.19215 0.71098 0.34565 0.0
C690 C 0.188 0.72393 0.32551 0.0
C691 C 0.17754 0.69773 0.37041 0.0
C692 C 0.12005 0.67049 0.38667 0.0
H693 H 0.08411 0.57522 0.46589 0.0
H694 H 0.11223 0.61035 0.44664 0.0
H695 H 0.08811 0.64489 0.39404 0.0
H696 H 0.16651 0.73474 0.31739 0.0
H697 H 0.14131 0.71217 0.36148 0.0
H698 H 0.16143 0.67923 0.43434 0.0
C699 C 0.09648 0.60732 0.45151 0.0
C700 C 0.10396 0.65251 0.40352 0.0
C701 C 0.08044 0.58724 0.46227 0.0
C702 C 0.16995 0.72475 0.33247 0.0
C703 C 0.15546 0.71169 0.3575 0.0
C704 C 0.14547 0.67198 0.4254 0.0
C705 C 0.09199 0.62304 0.44564 0.0
C706 C 0.10855 0.64367 0.43084 0.0
C707 C 0.15857 0.69729 0.37573 0.0
C708 C 0.14113 0.68021 0.3969 0.0
H709 H 0.03933 0.59502 0.46705 0.0
H710 H 0.06739 0.63027 0.44757 0.0
H711 H 0.13329 0.64749 0.46338 0.0
H712 H 0.20583 0.70988 0.34056 0.0
H713 H 0.18045 0.68678 0.38364 0.0
C714 C 0.49929 0.09266 0.9502 0.0
C715 C 0.483 0.07172 0.95519 0.0
C716 C 0.49495 0.10734 0.93685 0.0
C717 C 0.454 0.11018 0.88832 0.0
H718 H 0.48862 0.16882 0.90534 0.0
C719 C 0.43916 0.16985 0.82341 0.0
C720 C 0.45681 0.18469 0.80387 0.0
C721 C 0.44143 0.15799 0.84853 0.0
C722 C 0.47875 0.15246 0.9006 0.0
H723 H 0.44935 0.04971 0.95188 0.0
H724 H 0.44144 0.07538 0.93023 0.0
H725 H 0.4937 0.14364 0.9371 0.0
H726 H 0.4908 0.19996 0.79674 0.0
H727 H 0.49487 0.17955 0.84132 0.0
H728 H 0.43899 0.11908 0.85205 0.0
C729 C 0.45774 0.0805 0.93521 0.0
C730 C 0.48176 0.13802 0.91852 0.0
C731 C 0.46219 0.06578 0.94784 0.0
C732 C 0.47699 0.18864 0.81158 0.0
C733 C 0.47931 0.17702 0.83707 0.0
C734 C 0.45074 0.12454 0.87096 0.0
C735 C 0.47412 0.10143 0.92882 0.0
C736 C 0.46971 0.1167 0.91215 0.0
C737 C 0.46143 0.16101 0.85484 0.0
C738 C 0.46332 0.14584 0.8765 0.0
H739 H 0.5155 0.09753 0.95555 0.0
H740 H 0.50809 0.12314 0.93183 0.0
H741 H 0.44469 0.09407 0.88201 0.0
H742 H 0.42341 0.16637 0.81771 0.0
H743 H 0.42743 0.14577 0.86201 0.0
C744 C 0.42219 0.49032 0.40758 0.0
C745 C 0.42175 0.48288 0.44015 0.0
C746 C 0.4036 0.48641 0.3928 0.0
C747 C 0.35058 0.47578 0.40788 0.0
H748 H 0.34052 0.45397 0.32076 0.0
C749 C 0.28848 0.45028 0.29313 0.0
C750 C 0.28859 0.4688 0.28751 0.0
C751 C 0.30053 0.4486 0.31801 0.0
C752 C 0.34286 0.45974 0.34528 0.0
H753 H 0.40116 0.4658 0.48286 0.0
H754 H 0.36869 0.45959 0.45711 0.0
H755 H 0.37061 0.45819 0.35125 0.0
H756 H 0.2999 0.49936 0.30556 0.0
H757 H 0.32077 0.49635 0.34921 0.0
H758 H 0.32318 0.47806 0.40121 0.0
C759 C 0.38357 0.46829 0.44314 0.0
C760 C 0.36022 0.46235 0.36257 0.0
C761 C 0.4022 0.47195 0.45787 0.0
C762 C 0.29935 0.48483 0.30937 0.0
C763 C 0.31137 0.48312 0.33437 0.0
C764 C 0.33329 0.47343 0.39032 0.0
C765 C 0.3841 0.47524 0.41031 0.0
C766 C 0.36447 0.47072 0.39376 0.0
C767 C 0.31287 0.46538 0.33789 0.0
C768 C 0.32943 0.46562 0.35864 0.0
H769 H 0.43695 0.49932 0.39341 0.0
H770 H 0.40448 0.49226 0.36763 0.0
H771 H 0.35358 0.48232 0.43188 0.0
H772 H 0.28007 0.43753 0.27699 0.0
H773 H 0.30108 0.43458 0.32056 0.0
C774 C 0.92077 0.40543 0.95377 0.0
C775 C 0.94267 0.41499 0.94779 0.0
C776 C 0.90647 0.38699 0.93893 0.0
C777 C 0.90327 0.35707 0.86717 0.0
H778 H 0.8487 0.3157 0.90743 0.0
C779 C 0.84379 0.28737 0.79591 0.0
C780 C 0.8239 0.28532 0.7936 0.0
C781 C 0.85786 0.29938 0.8199 0.0
C782 C 0.86391 0.32711 0.89596 0.0
H783 H 0.96688 0.41226 0.92307 0.0
H784 H 0.94205 0.37978 0.89794 0.0
H785 H 0.8747 0.34432 0.93953 0.0
H786 H 0.80257 0.29295 0.81636 0.0
H787 H 0.82703 0.31367 0.85849 0.0
H788 H 0.89246 0.34003 0.82358 0.0
C789 C 0.93578 0.38679 0.91321 0.0
C790 C 0.87878 0.34358 0.91424 0.0
C791 C 0.95004 0.40537 0.92769 0.0
C792 C 0.81768 0.29405 0.81761 0.0
C793 C 0.83174 0.30599 0.84173 0.0
C794 C 0.88854 0.34054 0.84908 0.0
C795 C 0.91377 0.37756 0.91807 0.0
C796 C 0.89854 0.35898 0.89988 0.0
C797 C 0.85229 0.30949 0.84222 0.0
C798 C 0.86858 0.32555 0.86307 0.0
H799 H 0.91465 0.41263 0.96895 0.0
H800 H 0.88967 0.38058 0.9429 0.0
H801 H 0.91808 0.36879 0.85494 0.0
H802 H 0.84889 0.28055 0.77808 0.0
H803 H 0.87346 0.30149 0.82008 0.0
C804 C 0.93015 0.49775 0.95666 0.0
C805 C 0.94808 0.51535 0.96826 0.0
C806 C 0.91334 0.49913 0.94442 0.0
C807 C 0.88944 0.5315 0.94299 0.0
H808 H 0.86762 0.50652 0.85971 0.0
C809 C 0.84199 0.55384 0.85622 0.0
C810 C 0.82752 0.53891 0.83523 0.0
C811 C 0.8536 0.54902 0.87789 0.0
C812 C 0.87313 0.51322 0.88333 0.0
H813 H 0.96267 0.548 0.97712 0.0
H814 H 0.93329 0.5506 0.95548 0.0
H815 H 0.89413 0.50199 0.88669 0.0
H816 H 0.8124 0.50679 0.82237 0.0
H817 H 0.83201 0.49806 0.86105 0.0
H818 H 0.86857 0.54299 0.93932 0.0
C819 C 0.93205 0.53567 0.95605 0.0
C820 C 0.88844 0.51067 0.89876 0.0
C821 C 0.94889 0.53428 0.96819 0.0
C822 C 0.82357 0.5186 0.83821 0.0
C823 C 0.83498 0.51371 0.8601 0.0
C824 C 0.87399 0.53398 0.92761 0.0
C825 C 0.91417 0.51816 0.94368 0.0
C826 C 0.89696 0.51996 0.92857 0.0
C827 C 0.85082 0.5291 0.87914 0.0
C828 C 0.86579 0.52504 0.89738 0.0
H829 H 0.92928 0.483 0.95674 0.0
H830 H 0.8997 0.48531 0.93543 0.0
H831 H 0.89553 0.53865 0.96616 0.0
H832 H 0.84549 0.56968 0.8541 0.0
H833 H 0.86573 0.56132 0.89198 0.0
C834 C 0.43193 0.93175 0.46255 0.0
C835 C 0.43392 0.95116 0.46404 0.0
C836 C 0.41381 0.915 0.4498 0.0
C837 C 0.3583 0.8965 0.42659 0.0
H838 H 0.36728 0.86238 0.36858 0.0
C839 C 0.29967 0.8459 0.32826 0.0
C840 C 0.29825 0.82718 0.32129 0.0
C841 C 0.31365 0.85871 0.35173 0.0
C842 C 0.36439 0.87148 0.3852 0.0
H843 H 0.41855 0.96837 0.45461 0.0
H844 H 0.38703 0.93931 0.43123 0.0
H845 H 0.39704 0.88954 0.39711 0.0
H846 H 0.30934 0.80658 0.33505 0.0
H847 H 0.33348 0.82879 0.37638 0.0
H848 H 0.32567 0.87877 0.41349 0.0
C849 C 0.39925 0.93681 0.44033 0.0
C850 C 0.3815 0.8871 0.40159 0.0
C851 C 0.41733 0.95351 0.45336 0.0
C852 C 0.30995 0.82083 0.33998 0.0
C853 C 0.32398 0.83368 0.36337 0.0
C854 C 0.34117 0.88091 0.40998 0.0
C855 C 0.39734 0.91738 0.43808 0.0
C856 C 0.37875 0.89997 0.42226 0.0
C857 C 0.32654 0.8531 0.36864 0.0
C858 C 0.34408 0.86835 0.38886 0.0
H859 H 0.44452 0.92961 0.47103 0.0
H860 H 0.41274 0.9002 0.44905 0.0
H861 H 0.35553 0.90589 0.44272 0.0
H862 H 0.29072 0.85112 0.31438 0.0
H863 H 0.31527 0.8736 0.35512 0.0
C864 C 0.5042 0.42255 0.92113 0.0
C865 C 0.48896 0.42034 0.94417 0.0
C866 C 0.50193 0.40519 0.9065 0.0
C867 C 0.4716 0.34699 0.91154 0.0
H868 H 0.48838 0.35558 0.81892 0.0
C869 C 0.44632 0.28204 0.81777 0.0
C870 C 0.46169 0.28558 0.79374 0.0
C871 C 0.45093 0.29682 0.84117 0.0
C872 C 0.48388 0.35296 0.8449 0.0
H873 H 0.45965 0.39825 0.97066 0.0
H874 H 0.45516 0.36782 0.94418 0.0
H875 H 0.49344 0.38468 0.8491 0.0
H876 H 0.49444 0.30617 0.77739 0.0
H877 H 0.5025 0.33184 0.81819 0.0
H878 H 0.46123 0.31485 0.90643 0.0
C879 C 0.46916 0.38292 0.9379 0.0
C880 C 0.48684 0.3697 0.86232 0.0
C881 C 0.47163 0.40033 0.95297 0.0
C882 C 0.48223 0.30319 0.79537 0.0
C883 C 0.4868 0.31791 0.81861 0.0
C884 C 0.4684 0.3301 0.89388 0.0
C885 C 0.48414 0.38517 0.91407 0.0
C886 C 0.48089 0.36703 0.89594 0.0
C887 C 0.47096 0.31534 0.84079 0.0
C888 C 0.47466 0.33299 0.86042 0.0
H889 H 0.51792 0.43778 0.91439 0.0
H890 H 0.51412 0.40753 0.88902 0.0
H891 H 0.46697 0.34435 0.93744 0.0
H892 H 0.43033 0.26866 0.81695 0.0
H893 H 0.43841 0.29444 0.85796 0.0
C894 C 0.08045 0.49703 0.40745 0.0
C895 C 0.07213 0.48933 0.43967 0.0
C896 C 0.09463 0.49263 0.39312 0.0
C897 C 0.13462 0.48004 0.40897 0.0
H898 H 0.12104 0.45783 0.32215 0.0
C899 C 0.1679 0.45193 0.29559 0.0
C900 C 0.18786 0.47016 0.28939 0.0
C901 C 0.15431 0.4509 0.32045 0.0
C902 C 0.12494 0.46371 0.34659 0.0
H903 H 0.07286 0.47133 0.48229 0.0
H904 H 0.09835 0.4643 0.45738 0.0
H905 H 0.09607 0.46331 0.35203 0.0
H906 H 0.20999 0.50082 0.3065 0.0
H907 H 0.18634 0.49891 0.35018 0.0
H908 H 0.16398 0.48123 0.40279 0.0
C909 C 0.09355 0.47357 0.44333 0.0
C910 C 0.11073 0.46703 0.36352 0.0
C911 C 0.07904 0.4777 0.45757 0.0
C912 C 0.19478 0.48651 0.31076 0.0
C913 C 0.18119 0.48543 0.33577 0.0
C914 C 0.14907 0.477 0.39174 0.0
C915 C 0.10118 0.48072 0.41079 0.0
C916 C 0.11557 0.47553 0.3946 0.0
C917 C 0.16045 0.46803 0.33976 0.0
C918 C 0.14445 0.46902 0.36019 0.0
H919 H 0.07606 0.50655 0.39317 0.0
H920 H 0.10058 0.49863 0.36816 0.0
H921 H 0.1387 0.48667 0.4329 0.0
H922 H 0.16227 0.43895 0.27984 0.0
H923 H 0.13854 0.43713 0.32338 0.0
C924 C 0.59293 0.05477 0.9512 0.0
C925 C 0.57731 0.05815 0.96302 0.0
C926 C 0.61194 0.07137 0.93726 0.0
C927 C 0.63366 0.12398 0.8979 0.0
H928 H 0.68707 0.12642 0.90185 0.0
C929 C 0.7062 0.18921 0.82685 0.0
C930 C 0.71539 0.18202 0.80509 0.0
C931 C 0.69283 0.17621 0.85294 0.0
C932 C 0.67227 0.12595 0.90067 0.0
H933 H 0.56945 0.08134 0.97145 0.0
H934 H 0.6029 0.11054 0.94825 0.0
H935 H 0.65639 0.09938 0.93474 0.0
H936 H 0.71945 0.15637 0.79555 0.0
H937 H 0.69589 0.13355 0.84102 0.0
H938 H 0.64933 0.15028 0.86361 0.0
C939 C 0.60035 0.09506 0.94861 0.0
C940 C 0.65466 0.11042 0.91933 0.0
C941 C 0.58126 0.07843 0.96209 0.0
C942 C 0.7124 0.16223 0.81173 0.0
C943 C 0.69903 0.14923 0.83789 0.0
C944 C 0.65123 0.13955 0.87957 0.0
C945 C 0.61576 0.0917 0.93535 0.0
C946 C 0.63505 0.10907 0.91778 0.0
C947 C 0.68837 0.15578 0.85782 0.0
C948 C 0.67065 0.14056 0.88039 0.0
H949 H 0.59019 0.03921 0.95204 0.0
H950 H 0.6233 0.06813 0.92702 0.0
H951 H 0.61876 0.12322 0.89542 0.0
H952 H 0.70804 0.2043 0.82235 0.0
H953 H 0.68507 0.18177 0.86824 0.0
C954 C 0.5447 0.59181 0.45908 0.0
C955 C 0.52495 0.57381 0.4671 0.0
C956 C 0.54595 0.61012 0.44744 0.0
C957 C 0.51285 0.62798 0.40828 0.0
H958 H 0.56093 0.6828 0.42444 0.0
C959 C 0.51824 0.70038 0.34878 0.0
C960 C 0.53699 0.71295 0.32977 0.0
C961 C 0.51696 0.6859 0.37277 0.0
C962 C 0.54738 0.66758 0.41986 0.0
H963 H 0.49118 0.56085 0.47105 0.0
H964 H 0.49327 0.59294 0.45187 0.0
H965 H 0.55797 0.652 0.45227 0.0
H966 H 0.56967 0.72171 0.32311 0.0
H967 H 0.56747 0.69646 0.36512 0.0
H968 H 0.50236 0.64348 0.37569 0.0
C969 C 0.50779 0.59289 0.45337 0.0
C970 C 0.54573 0.64992 0.4356 0.0
C971 C 0.50654 0.57454 0.46455 0.0
C972 C 0.55499 0.71211 0.33731 0.0
C973 C 0.55375 0.69771 0.36145 0.0
C974 C 0.51439 0.6456 0.39288 0.0
C975 C 0.52748 0.61084 0.44413 0.0
C976 C 0.52859 0.62985 0.42958 0.0
C977 C 0.53443 0.68381 0.37834 0.0
C978 C 0.53181 0.66557 0.39809 0.0
H979 H 0.5591 0.59158 0.4613 0.0
H980 H 0.56136 0.62351 0.44024 0.0
H981 H 0.49966 0.61284 0.40242 0.0
H982 H 0.50406 0.70057 0.34339 0.0
H983 H 0.50195 0.67556 0.38576 0.0
C984 C 0.4798 0.08261 0.53161 0.0
C985 C 0.48681 0.07211 0.55223 0.0
C986 C 0.47754 0.09846 0.5435 0.0
C987 C 0.49357 0.13404 0.61286 0.0
H988 H 0.44617 0.13892 0.58676 0.0
C989 C 0.48014 0.19309 0.67317 0.0
C990 C 0.45913 0.18592 0.68266 0.0
C991 C 0.4846 0.18244 0.65051 0.0
C992 C 0.45946 0.13775 0.59445 0.0
H993 H 0.49724 0.07046 0.60155 0.0
H994 H 0.49234 0.09711 0.62253 0.0
H995 H 0.4515 0.1132 0.56221 0.0
H996 H 0.42627 0.16265 0.67522 0.0
H997 H 0.43389 0.14353 0.63662 0.0
H998 H 0.5008 0.15747 0.64663 0.0
C999 C 0.48902 0.09352 0.59693 0.0
C1000 C 0.46269 0.12313 0.58001 0.0
C1001 C 0.49146 0.07788 0.585 0.0
C1002 C 0.4426 0.16863 0.66779 0.0
C1003 C 0.44703 0.1577 0.64563 0.0
C1004 C 0.4902 0.14841 0.62757 0.0
C1005 C 0.48213 0.10413 0.57635 0.0
C1006 C 0.47957 0.12081 0.5895 0.0
C1007 C 0.46814 0.16401 0.6376 0.0
C1008 C 0.47291 0.15029 0.61899 0.0
H1009 H 0.47584 0.07849 0.50633 0.0
H1010 H 0.47237 0.10637 0.5268 0.0
H1011 H 0.50704 0.13309 0.62029 0.0
H1012 H 0.49312 0.20637 0.68449 0.0
H1013 H 0.50102 0.18817 0.64427 0.0
C1014 C 0.41415 0.46338 0.03587 0.0
C1015 C 0.4317 0.48353 0.02908 0.0
C1016 C 0.3949 0.46047 0.04708 0.0
C1017 C 0.36462 0.48651 0.05463 0.0
H1018 H 0.33972 0.44958 0.13273 0.0
C1019 C 0.3082 0.49126 0.14679 0.0
C1020 C 0.2936 0.47328 0.16583 0.0
C1021 C 0.32179 0.49054 0.12371 0.0
C1022 C 0.34607 0.45959 0.11049 0.0
H1023 H 0.44295 0.51637 0.02716 0.0
H1024 H 0.40929 0.51138 0.04675 0.0
H1025 H 0.36978 0.45201 0.10434 0.0
H1026 H 0.2804 0.44016 0.17376 0.0
H1027 H 0.30349 0.43867 0.13261 0.0
H1028 H 0.34107 0.49435 0.06116 0.0
C1029 C 0.41028 0.4978 0.04335 0.0
C1030 C 0.36341 0.46103 0.09425 0.0
C1031 C 0.42954 0.5007 0.03233 0.0
C1032 C 0.29163 0.45426 0.15949 0.0
C1033 C 0.30502 0.45349 0.13617 0.0
C1034 C 0.34713 0.48497 0.07078 0.0
C1035 C 0.39284 0.47767 0.05143 0.0
C1036 C 0.37313 0.47477 0.06649 0.0
C1037 C 0.32091 0.47178 0.11903 0.0
C1038 C 0.33785 0.47175 0.09929 0.0
H1039 H 0.41551 0.44995 0.03321 0.0
H1040 H 0.3817 0.44476 0.05273 0.0
H1041 H 0.37162 0.49706 0.03304 0.0
H1042 H 0.31022 0.50617 0.15147 0.0
H1043 H 0.33389 0.50499 0.11123 0.0
C1044 C 0.95201 0.4182 0.53857 0.0
C1045 C 0.9494 0.43487 0.53009 0.0
C1046 C 0.93468 0.39901 0.55019 0.0
C1047 C 0.88166 0.37682 0.58963 0.0
H1048 H 0.8767 0.32411 0.57539 0.0
C1049 C 0.81446 0.30212 0.65307 0.0
C1050 C 0.82155 0.29109 0.67203 0.0
C1051 C 0.82757 0.31683 0.62831 0.0
C1052 C 0.87786 0.33872 0.57945 0.0
H1053 H 0.92681 0.44453 0.52521 0.0
H1054 H 0.89632 0.41084 0.5444 0.0
H1055 H 0.90472 0.35594 0.54622 0.0
H1056 H 0.84701 0.28528 0.67776 0.0
H1057 H 0.87001 0.3111 0.63465 0.0
H1058 H 0.85511 0.35977 0.62315 0.0
C1059 C 0.91176 0.41264 0.5432 0.0
C1060 C 0.89397 0.35697 0.56291 0.0
C1061 C 0.92913 0.43188 0.53202 0.0
C1062 C 0.84123 0.29372 0.66374 0.0
C1063 C 0.85434 0.3084 0.63891 0.0
C1064 C 0.86552 0.35862 0.60587 0.0
C1065 C 0.91436 0.39607 0.55308 0.0
C1066 C 0.89626 0.37631 0.56823 0.0
C1067 C 0.84801 0.32076 0.62199 0.0
C1068 C 0.86362 0.33942 0.60137 0.0
H1069 H 0.96755 0.42022 0.53692 0.0
H1070 H 0.93736 0.38672 0.55789 0.0
H1071 H 0.88315 0.39141 0.59496 0.0
H1072 H 0.79944 0.30057 0.65894 0.0
H1073 H 0.82216 0.32592 0.6153 0.0
C1074 C 0.51798 0.92871 0.0869 0.0
C1075 C 0.52423 0.93738 0.05446 0.0
C1076 C 0.52298 0.91445 0.09961 0.0
C1077 C 0.53425 0.87512 0.07993 0.0
H1078 H 0.56058 0.88676 0.16506 0.0
C1079 C 0.56369 0.8389 0.19207 0.0
C1080 C 0.54468 0.81968 0.19832 0.0
C1081 C 0.56513 0.8528 0.16685 0.0
C1082 C 0.55361 0.8834 0.141 0.0
H1083 H 0.54014 0.93717 0.00967 0.0
H1084 H 0.54824 0.91156 0.03185 0.0
H1085 H 0.55476 0.91226 0.1367 0.0
H1086 H 0.51303 0.79908 0.18099 0.0
H1087 H 0.51555 0.82331 0.13692 0.0
H1088 H 0.53227 0.84576 0.08507 0.0
C1089 C 0.53966 0.91616 0.04732 0.0
C1090 C 0.55008 0.89793 0.12496 0.0
C1091 C 0.53493 0.93073 0.03466 0.0
C1092 C 0.52793 0.81373 0.17666 0.0
C1093 C 0.52937 0.82765 0.1514 0.0
C1094 C 0.53754 0.86038 0.09625 0.0
C1095 C 0.53405 0.9082 0.08011 0.0
C1096 C 0.53995 0.89374 0.09468 0.0
C1097 C 0.54759 0.84773 0.1474 0.0
C1098 C 0.54692 0.86424 0.12727 0.0
H1099 H 0.50918 0.93291 0.10261 0.0
H1100 H 0.51812 0.90822 0.1248 0.0
H1101 H 0.52638 0.87156 0.05659 0.0
H1102 H 0.57696 0.84376 0.20812 0.0
H1103 H 0.57952 0.86802 0.16391 0.0
C1104 C 0.6019 0.51132 0.5599 0.0
C1105 C 0.59596 0.5261 0.55823 0.0
C1106 C 0.62073 0.51585 0.57474 0.0
C1107 C 0.66039 0.55264 0.63249 0.0
H1108 H 0.69036 0.52563 0.60858 0.0
C1109 C 0.73459 0.56782 0.69985 0.0
C1110 C 0.73134 0.54953 0.71604 0.0
C1111 C 0.7214 0.56669 0.67446 0.0
C1112 C 0.6822 0.53338 0.61528 0.0
H1113 H 0.60523 0.55744 0.56919 0.0
H1114 H 0.63866 0.5659 0.5935 0.0
H1115 H 0.66081 0.521 0.57565 0.0
H1116 H 0.71295 0.51586 0.71715 0.0
H1117 H 0.6903 0.51387 0.6719 0.0
H1118 H 0.68203 0.56518 0.67184 0.0
C1119 C 0.62851 0.55046 0.58473 0.0
C1120 C 0.66513 0.53059 0.59668 0.0
C1121 C 0.60944 0.54573 0.57058 0.0
C1122 C 0.71582 0.53015 0.70478 0.0
C1123 C 0.70291 0.52903 0.67896 0.0
C1124 C 0.6777 0.55576 0.65056 0.0
C1125 C 0.63427 0.53545 0.58763 0.0
C1126 C 0.65368 0.53984 0.60543 0.0
C1127 C 0.70503 0.54727 0.66451 0.0
C1128 C 0.68852 0.54589 0.64251 0.0
H1129 H 0.59162 0.49601 0.55066 0.0
H1130 H 0.62427 0.50369 0.57696 0.0
H1131 H 0.65184 0.55969 0.64064 0.0
H1132 H 0.74628 0.58292 0.70844 0.0
H1133 H 0.72334 0.58096 0.66361 0.0
C1134 C 0.07314 0.58983 0.09457 0.0
C1135 C 0.06788 0.58952 0.06125 0.0
C1136 C 0.08764 0.6085 0.10844 0.0
C1137 C 0.1329 0.66084 0.08954 0.0
H1138 H 0.11895 0.67157 0.17546 0.0
C1139 C 0.16912 0.72406 0.19891 0.0
C1140 C 0.18832 0.72499 0.20384 0.0
C1141 C 0.15508 0.7113 0.17549 0.0
C1142 C 0.12301 0.66903 0.15123 0.0
H1143 H 0.074 0.60889 0.01646 0.0
H1144 H 0.09987 0.6415 0.04068 0.0
H1145 H 0.09259 0.64125 0.14721 0.0
H1146 H 0.20861 0.7146 0.18611 0.0
H1147 H 0.18419 0.6925 0.14503 0.0
H1148 H 0.16363 0.68836 0.09416 0.0
C1149 C 0.09258 0.62715 0.05592 0.0
C1150 C 0.10797 0.65153 0.13524 0.0
C1151 C 0.07782 0.60844 0.04207 0.0
C1152 C 0.19403 0.71437 0.18277 0.0
C1153 C 0.17999 0.70165 0.15924 0.0
C1154 C 0.14809 0.67829 0.10575 0.0
C1155 C 0.09748 0.62736 0.08932 0.0
C1156 C 0.11287 0.64704 0.10453 0.0
C1157 C 0.15998 0.69927 0.1564 0.0
C1158 C 0.14338 0.6824 0.13701 0.0
H1159 H 0.0663 0.57557 0.10996 0.0
H1160 H 0.09143 0.60815 0.13412 0.0
H1161 H 0.1371 0.6577 0.0659 0.0
H1162 H 0.16444 0.73232 0.21444 0.0
H1163 H 0.13994 0.71009 0.1734 0.0
loop_
_geom_bond_atom_site_label_1
_geom_bond_atom_site_label_2
_geom_bond_distance
_geom_bond_site_symmetry_2
_ccdc_geom_bond_type
C0 C1 1.443 1_556 S
C0 N4 1.376 1_556 S
C0 C38 1.389 . S
C1 C0 1.443 1_554 S
C1 C2 1.340 . S
C1 H41 0.951 . S
C2 C1 1.340 . S
C2 C3 1.439 . S
C2 H42 0.950 . S
C3 C2 1.439 . S
C3 N4 1.374 . S
C3 C37 1.395 . S
N4 C0 1.376 1_554 S
N4 C3 1.374 . S
N4 Co5 2.008 1_655 S
Co5 N4 2.008 1_455 S
Co5 N6 1.995 . S
Co5 N11 2.008 1_554 S
Co5 N16 1.995 1_554 S
Co5 N21 2.282 . S
Co5 N27 2.282 1_454 S
N6 Co5 1.995 . S
N6 C7 1.376 1_455 S
N6 C10 1.383 . S
C7 N6 1.376 1_655 S
C7 C8 1.446 . S
C7 C37 1.391 . S
C8 C7 1.446 . S
C8 C9 1.339 1_655 S
C8 H43 0.949 . S
C9 C8 1.339 1_455 S
C9 C10 1.439 . S
C9 H44 0.950 . S
C10 N6 1.383 . S
C10 C9 1.439 . S
C10 C39 1.392 . S
N11 Co5 2.008 1_556 S
N11 C12 1.376 1_556 S
N11 C15 1.374 . S
C12 N11 1.376 1_554 S
C12 C13 1.443 1_554 S
C12 C39 1.389 . S
C13 C12 1.443 1_556 S
C13 C14 1.340 . S
C13 H45 0.951 . S
C14 C13 1.340 . S
C14 C15 1.439 . S
C14 H46 0.950 . S
C15 N11 1.374 . S
C15 C14 1.439 . S
C15 C40 1.395 . S
N16 Co5 1.995 1_556 S
N16 C17 1.376 . S
N16 C20 1.383 1_455 S
C17 N16 1.376 . S
C17 C18 1.446 . S
C17 C40 1.391 . S
C18 C17 1.446 . S
C18 C19 1.339 1_455 S
C18 H47 0.949 . S
C19 C18 1.339 1_655 S
C19 C20 1.439 . S
C19 H48 0.950 . S
C20 N16 1.383 1_655 S
C20 C19 1.439 . S
C20 C38 1.392 . S
N21 Co5 2.282 . S
N21 C24 1.332 . S
N21 C26 1.332 . S
C22 C23 1.386 . S
C22 C25 1.388 . S
C23 C22 1.386 . S
C23 C24 1.382 . S
C23 H49 0.950 . S
C24 N21 1.332 . S
C24 C23 1.382 . S
C24 H35 0.952 1_554 S
C25 C22 1.388 . S
C25 C26 1.382 . S
C25 H50 0.950 . S
C26 N21 1.332 . S
C26 C25 1.382 . S
C26 H36 0.948 . S
N27 Co5 2.282 1_656 S
N27 C31 1.332 . S
N27 C32 1.332 . S
C28 C29 1.388 . S
C28 C32 1.382 . S
C28 H51 0.950 . S
C29 C28 1.388 . S
C29 C30 1.386 . S
C30 C29 1.386 . S
C30 C31 1.382 . S
C30 H52 0.950 . S
C31 N27 1.332 . S
C31 C30 1.382 . S
C31 H33 0.952 1_556 S
C32 N27 1.332 . S
C32 C28 1.382 . S
C32 H34 0.948 . S
H33 C31 0.952 1_554 S
H34 C32 0.948 . S
H35 C24 0.952 1_556 S
H36 C26 0.948 . S
C37 C3 1.395 . S
C37 C7 1.391 . S
C38 C0 1.389 . S
C38 C20 1.392 . S
C39 C10 1.392 . S
C39 C12 1.389 . S
C40 C15 1.395 . S
C40 C17 1.391 . S
H41 C1 0.951 . S
H42 C2 0.950 . S
H43 C8 0.949 . S
H44 C9 0.950 . S
H45 C13 0.951 . S
H46 C14 0.950 . S
H47 C18 0.949 . S
H48 C19 0.950 . S
H49 C23 0.950 . S
H50 C25 0.950 . S
H51 C28 0.950 . S
H52 C30 0.950 . S
C53 C54 1.443 . S
C53 N57 1.376 . S
C53 C91 1.389 . S
C54 C53 1.443 . S
C54 C55 1.356 . S
C54 H94 0.951 . S
C55 C54 1.356 . S
C55 C56 1.435 1_545 S
C55 H95 0.941 1_545 S
C56 C55 1.435 1_565 S
C56 N57 1.374 1_565 S
C56 C90 1.395 . S
N57 C53 1.376 . S
N57 C56 1.374 1_545 S
N57 Co58 2.008 . S
Co58 N57 2.008 . S
Co58 N59 1.995 1_545 S
Co58 N64 2.008 . S
Co58 N69 1.995 . S
Co58 N74 2.282 1_545 S
Co58 N80 2.282 . S
N59 Co58 1.995 1_565 S
N59 C60 1.376 . S
N59 C63 1.383 . S
C60 N59 1.376 . S
C60 C61 1.446 . S
C60 C90 1.391 . S
C61 C60 1.446 . S
C61 C62 1.339 . S
C61 H96 0.949 . S
C62 C61 1.339 . S
C62 C63 1.439 . S
C62 H97 0.950 . S
C63 N59 1.383 . S
C63 C62 1.439 . S
C63 C92 1.392 . S
N64 Co58 2.008 . S
N64 C65 1.376 1_545 S
N64 C68 1.374 . S
C65 N64 1.376 1_565 S
C65 C66 1.443 . S
C65 C92 1.389 . S
C66 C65 1.443 . S
C66 C67 1.340 1_565 S
C66 H98 0.951 . S
C67 C66 1.340 1_545 S
C67 C68 1.439 . S
C67 H99 0.950 . S
C68 N64 1.374 . S
C68 C67 1.439 . S
C68 C93 1.395 . S
N69 Co58 1.995 . S
N69 C70 1.376 . S
N69 C73 1.383 . S
C70 N69 1.376 . S
C70 C71 1.446 . S
C70 C93 1.391 . S
C71 C70 1.446 . S
C71 C72 1.339 . S
C71 H100 0.949 . S
C72 C71 1.339 . S
C72 C73 1.439 . S
C72 H101 0.950 . S
C73 N69 1.383 . S
C73 C72 1.439 . S
C73 C91 1.392 . S
N74 Co58 2.282 1_565 S
N74 C77 1.332 . S
N74 C79 1.332 . S
C75 C76 1.386 . S
C75 C78 1.388 . S
C76 C75 1.386 . S
C76 C77 1.382 . S
C76 H102 0.950 . S
C77 N74 1.332 . S
C77 C76 1.382 . S
C77 H88 0.952 1_565 S
C78 C75 1.388 . S
C78 C79 1.382 . S
C78 H103 0.950 . S
C79 N74 1.332 . S
C79 C78 1.382 . S
C79 H89 0.948 . S
N80 Co58 2.282 . S
N80 C84 1.332 . S
N80 C85 1.332 . S
C81 C82 1.388 . S
C81 C85 1.382 . S
C81 H104 0.950 . S
C82 C81 1.388 . S
C82 C83 1.386 . S
C83 C82 1.386 . S
C83 C84 1.382 . S
C83 H105 0.950 . S
C84 N80 1.332 . S
C84 C83 1.382 . S
C84 H86 0.952 . S
C85 N80 1.332 . S
C85 C81 1.382 . S
C85 H87 0.948 . S
H86 C84 0.952 . S
H87 C85 0.948 . S
H88 C77 0.952 1_545 S
H89 C79 0.948 . S
C90 C56 1.395 . S
C90 C60 1.391 . S
C91 C53 1.389 . S
C91 C73 1.392 . S
C92 C63 1.392 . S
C92 C65 1.389 . S
C93 C68 1.395 . S
C93 C70 1.391 . S
H94 C54 0.951 . S
H95 C55 0.941 1_565 S
H96 C61 0.949 . S
H97 C62 0.950 . S
H98 C66 0.951 . S
H99 C67 0.950 . S
H100 C71 0.949 . S
H101 C72 0.950 . S
H102 C76 0.950 . S
H103 C78 0.950 . S
H104 C81 0.950 . S
H105 C83 0.950 . S
C106 C107 1.443 . S
C106 N110 1.376 . S
C106 C144 1.389 . S
C107 C106 1.443 . S
C107 C108 1.340 . S
C107 H147 0.951 . S
C108 C107 1.340 . S
C108 C109 1.439 . S
C108 H148 0.950 . S
C109 C108 1.439 . S
C109 N110 1.374 . S
C109 C143 1.395 . S
N110 C106 1.376 . S
N110 C109 1.374 . S
N110 Co111 2.008 1_556 S
Co111 N110 2.008 1_554 S
Co111 N112 1.995 1_554 S
Co111 N117 2.008 . S
Co111 N122 1.995 . S
Co111 N127 2.282 . S
Co111 N133 2.282 1_554 S
N112 Co111 1.995 1_556 S
N112 C113 1.376 . S
N112 C116 1.383 1_556 S
C113 N112 1.376 . S
C113 C114 1.446 . S
C113 C143 1.391 . S
C114 C113 1.446 . S
C114 C115 1.339 . S
C114 H149 0.949 . S
C115 C114 1.339 . S
C115 C116 1.439 1_556 S
C115 H150 0.950 . S
C116 N112 1.383 1_554 S
C116 C115 1.439 1_554 S
C116 C145 1.392 . S
N117 Co111 2.008 . S
N117 C118 1.376 . S
N117 C121 1.374 . S
C118 N117 1.376 . S
C118 C119 1.443 . S
C118 C145 1.389 . S
C119 C118 1.443 . S
C119 C120 1.340 . S
C119 H151 0.951 . S
C120 C119 1.340 . S
C120 C121 1.439 . S
C120 H152 0.950 . S
C121 N117 1.374 . S
C121 C120 1.439 . S
C121 C146 1.395 . S
N122 Co111 1.995 . S
N122 C123 1.376 . S
N122 C126 1.380 1_554 S
C123 N122 1.376 . S
C123 C124 1.446 . S
C123 C146 1.391 . S
C124 C123 1.446 . S
C124 C125 1.339 . S
C124 H153 0.949 . S
C125 C124 1.339 . S
C125 C126 1.435 1_554 S
C125 H154 0.950 . S
C126 N122 1.380 1_556 S
C126 C125 1.435 1_556 S
C126 C144 1.398 . S
N127 Co111 2.282 . S
N127 C130 1.332 . S
N127 C132 1.332 . S
C128 C129 1.386 . S
C128 C131 1.388 . S
C129 C128 1.386 . S
C129 C130 1.382 . S
C129 H155 0.950 . S
C130 N127 1.332 . S
C130 C129 1.382 . S
C130 H141 0.952 . S
C131 C128 1.388 . S
C131 C132 1.382 . S
C131 H156 0.950 . S
C132 N127 1.332 . S
C132 C131 1.382 . S
C132 H142 0.948 1_554 S
N133 Co111 2.282 1_556 S
N133 C137 1.332 . S
N133 C138 1.332 . S
C134 C135 1.388 . S
C134 C138 1.382 . S
C134 H157 0.950 . S
C135 C134 1.388 . S
C135 C136 1.386 . S
C136 C135 1.386 . S
C136 C137 1.382 . S
C136 H158 0.950 . S
C137 N133 1.332 . S
C137 C136 1.382 . S
C137 H139 0.952 . S
C138 N133 1.332 . S
C138 C134 1.382 . S
C138 H140 0.948 1_556 S
H139 C137 0.952 . S
H140 C138 0.948 1_554 S
H141 C130 0.952 . S
H142 C132 0.948 1_556 S
C143 C109 1.395 . S
C143 C113 1.391 . S
C144 C106 1.389 . S
C144 C126 1.398 . S
C145 C116 1.392 . S
C145 C118 1.389 . S
C146 C121 1.395 . S
C146 C123 1.391 . S
H147 C107 0.951 . S
H148 C108 0.950 . S
H149 C114 0.949 . S
H150 C115 0.950 . S
H151 C119 0.951 . S
H152 C120 0.950 . S
H153 C124 0.949 . S
H154 C125 0.950 . S
H155 C129 0.950 . S
H156 C131 0.950 . S
H157 C134 0.950 . S
H158 C136 0.950 . S
C159 C160 1.443 . S
C159 N163 1.376 . S
C159 C197 1.389 . S
C160 C159 1.443 . S
C160 C161 1.340 . S
C160 H200 0.951 . S
C161 C160 1.340 . S
C161 C162 1.439 . S
C161 H201 0.950 . S
C162 C161 1.439 . S
C162 N163 1.374 . S
C162 C196 1.395 . S
N163 C159 1.376 . S
N163 C162 1.374 . S
N163 Co164 2.008 1_655 S
Co164 N163 2.008 1_455 S
Co164 N165 1.995 . S
Co164 N170 2.008 . S
Co164 N175 1.995 . S
Co164 N180 2.282 . S
Co164 N186 2.282 1_455 S
N165 Co164 1.995 . S
N165 C166 1.376 1_455 S
N165 C169 1.383 . S
C166 N165 1.376 1_655 S
C166 C167 1.446 . S
C166 C196 1.391 . S
C167 C166 1.446 . S
C167 C168 1.339 1_655 S
C167 H202 0.949 . S
C168 C167 1.339 1_455 S
C168 C169 1.439 . S
C168 H203 0.950 . S
C169 N165 1.383 . S
C169 C168 1.439 . S
C169 C198 1.392 . S
N170 Co164 2.008 . S
N170 C171 1.376 . S
N170 C174 1.374 . S
C171 N170 1.376 . S
C171 C172 1.443 . S
C171 C198 1.389 . S
C172 C171 1.443 . S
C172 C173 1.340 . S
C172 H204 0.951 . S
C173 C172 1.340 . S
C173 C174 1.439 . S
C173 H205 0.950 . S
C174 N170 1.374 . S
C174 C173 1.439 . S
C174 C199 1.395 . S
N175 Co164 1.995 . S
N175 C176 1.376 . S
N175 C179 1.383 1_455 S
C176 N175 1.376 . S
C176 C177 1.446 . S
C176 C199 1.391 . S
C177 C176 1.446 . S
C177 C178 1.339 1_455 S
C177 H206 0.949 . S
C178 C177 1.339 1_655 S
C178 C179 1.439 . S
C178 H207 0.950 . S
C179 N175 1.383 1_655 S
C179 C178 1.439 . S
C179 C197 1.392 . S
N180 Co164 2.282 . S
N180 C183 1.332 . S
N180 C185 1.332 . S
C181 C182 1.386 . S
C181 C184 1.388 . S
C182 C181 1.386 . S
C182 C183 1.382 . S
C182 H208 0.950 . S
C183 N180 1.332 . S
C183 C182 1.382 . S
C183 H194 0.952 . S
C184 C181 1.388 . S
C184 C185 1.382 . S
C184 H209 0.950 . S
C185 N180 1.332 . S
C185 C184 1.382 . S
C185 H195 0.948 . S
N186 Co164 2.282 1_655 S
N186 C190 1.332 . S
N186 C191 1.332 . S
C187 C188 1.388 . S
C187 C191 1.382 . S
C187 H210 0.950 . S
C188 C187 1.388 . S
C188 C189 1.386 . S
C189 C188 1.386 . S
C189 C190 1.382 . S
C189 H211 0.950 . S
C190 N186 1.332 . S
C190 C189 1.382 . S
C190 H192 0.952 . S
C191 N186 1.332 . S
C191 C187 1.382 . S
C191 H193 0.948 . S
H192 C190 0.952 . S
H193 C191 0.948 . S
H194 C183 0.952 . S
H195 C185 0.948 . S
C196 C162 1.395 . S
C196 C166 1.391 . S
C197 C159 1.389 . S
C197 C179 1.392 . S
C198 C169 1.392 . S
C198 C171 1.389 . S
C199 C174 1.395 . S
C199 C176 1.391 . S
H200 C160 0.951 . S
H201 C161 0.950 . S
H202 C167 0.949 . S
H203 C168 0.950 . S
H204 C172 0.951 . S
H205 C173 0.950 . S
H206 C177 0.949 . S
H207 C178 0.950 . S
H208 C182 0.950 . S
H209 C184 0.950 . S
H210 C187 0.950 . S
H211 C189 0.950 . S
C212 C213 1.443 . S
C212 N216 1.376 1_565 S
C212 C250 1.389 . S
C213 C212 1.443 . S
C213 C214 1.340 1_565 S
C213 H253 0.951 . S
C214 C213 1.340 1_545 S
C214 C215 1.439 . S
C214 H254 0.950 . S
C215 C214 1.439 . S
C215 N216 1.374 . S
C215 C249 1.395 . S
N216 C212 1.376 1_545 S
N216 C215 1.374 . S
N216 Co217 2.027 . S
Co217 N216 2.027 . S
Co217 N218 2.001 . S
Co217 N223 1.989 1_554 S
Co217 N228 1.989 1_544 S
Co217 N233 2.275 1_554 S
Co217 N239 2.290 1_545 S
N218 Co217 2.001 . S
N218 C219 1.376 . S
N218 C222 1.383 1_554 S
C219 N218 1.376 . S
C219 C220 1.446 . S
C219 C249 1.391 . S
C220 C219 1.446 . S
C220 C221 1.339 . S
C220 H255 0.949 . S
C221 C220 1.339 . S
C221 C222 1.439 1_554 S
C221 H256 0.950 1_554 S
C222 N218 1.383 1_556 S
C222 C221 1.439 1_556 S
C222 C251 1.392 . S
N223 Co217 1.989 1_556 S
N223 C224 1.376 . S
N223 C227 1.374 1_545 S
C224 N223 1.376 . S
C224 C225 1.443 . S
C224 C251 1.389 . S
C225 C224 1.443 . S
C225 C226 1.340 . S
C225 H257 0.951 . S
C226 C225 1.340 . S
C226 C227 1.439 1_545 S
C226 H258 0.950 1_545 S
C227 N223 1.374 1_565 S
C227 C226 1.439 1_565 S
C227 C252 1.395 . S
N228 Co217 1.989 1_566 S
N228 C229 1.376 . S
N228 C232 1.383 1_556 S
C229 N228 1.376 . S
C229 C230 1.446 . S
C229 C252 1.391 . S
C230 C229 1.446 . S
C230 C231 1.339 . S
C230 H259 0.949 . S
C231 C230 1.339 . S
C231 C232 1.439 1_556 S
C231 H260 0.950 1_556 S
C232 N228 1.383 1_554 S
C232 C231 1.439 1_554 S
C232 C250 1.392 . S
N233 Co217 2.275 1_556 S
N233 C236 1.332 . S
N233 C238 1.332 . S
C234 C235 1.386 . S
C234 C237 1.388 . S
C235 C234 1.386 . S
C235 C236 1.382 . S
C235 H261 0.950 . S
C236 N233 1.332 . S
C236 C235 1.382 . S
C236 H247 0.952 . S
C237 C234 1.388 . S
C237 C238 1.382 . S
C237 H262 0.950 . S
C238 N233 1.332 . S
C238 C237 1.382 . S
C238 H248 0.948 1_556 S
N239 Co217 2.290 1_565 S
N239 C243 1.332 . S
N239 C244 1.332 . S
C240 C241 1.388 . S
C240 C244 1.382 . S
C240 H263 0.950 . S
C241 C240 1.388 . S
C241 C242 1.386 . S
C242 C241 1.386 . S
C242 C243 1.382 . S
C242 H264 0.950 . S
C243 N239 1.332 . S
C243 C242 1.382 . S
C243 H245 0.952 1_565 S
C244 N239 1.332 . S
C244 C240 1.382 . S
C244 H246 0.948 1_554 S
H245 C243 0.952 1_545 S
H246 C244 0.948 1_556 S
H247 C236 0.952 . S
H248 C238 0.948 1_554 S
C249 C215 1.395 . S
C249 C219 1.391 . S
C250 C212 1.389 . S
C250 C232 1.392 . S
C251 C222 1.392 . S
C251 C224 1.389 . S
C252 C227 1.395 . S
C252 C229 1.391 . S
H253 C213 0.951 . S
H254 C214 0.950 . S
H255 C220 0.949 . S
H256 C221 0.950 1_556 S
H257 C225 0.951 . S
H258 C226 0.950 1_565 S
H259 C230 0.949 . S
H260 C231 0.950 1_554 S
H261 C235 0.950 . S
H262 C237 0.950 . S
H263 C240 0.950 . S
H264 C242 0.950 . S
C265 C266 1.443 . S
C265 N269 1.376 . S
C265 C303 1.389 . S
C266 C265 1.443 . S
C266 C267 1.340 . S
C266 H306 0.951 . S
C267 C266 1.340 . S
C267 C268 1.439 . S
C267 H307 0.950 . S
C268 C267 1.439 . S
C268 N269 1.374 . S
C268 C302 1.395 . S
N269 C265 1.376 . S
N269 C268 1.374 . S
N269 Co270 2.008 . S
Co270 N269 2.008 . S
Co270 N271 1.995 . S
Co270 N276 2.008 . S
Co270 N281 1.995 . S
Co270 N286 2.282 . S
Co270 N292 2.282 . S
N271 Co270 1.995 . S
N271 C272 1.376 . S
N271 C275 1.383 . S
C272 N271 1.376 . S
C272 C273 1.446 . S
C272 C302 1.391 . S
C273 C272 1.446 . S
C273 C274 1.339 . S
C273 H308 0.949 . S
C274 C273 1.339 . S
C274 C275 1.439 . S
C274 H309 0.950 . S
C275 N271 1.383 . S
C275 C274 1.439 . S
C275 C304 1.392 . S
N276 Co270 2.008 . S
N276 C277 1.376 . S
N276 C280 1.374 . S
C277 N276 1.376 . S
C277 C278 1.443 . S
C277 C304 1.389 . S
C278 C277 1.443 . S
C278 C279 1.340 . S
C278 H310 0.951 . S
C279 C278 1.340 . S
C279 C280 1.439 . S
C279 H311 0.950 . S
C280 N276 1.374 . S
C280 C279 1.439 . S
C280 C305 1.395 . S
N281 Co270 1.995 . S
N281 C282 1.376 . S
N281 C285 1.383 . S
C282 N281 1.376 . S
C282 C283 1.446 . S
C282 C305 1.391 . S
C283 C282 1.446 . S
C283 C284 1.339 . S
C283 H312 0.949 . S
C284 C283 1.339 . S
C284 C285 1.439 . S
C284 H313 0.950 . S
C285 N281 1.383 . S
C285 C284 1.439 . S
C285 C303 1.392 . S
N286 Co270 2.282 . S
N286 C289 1.332 . S
N286 C291 1.332 . S
C287 C288 1.386 . S
C287 C290 1.388 . S
C288 C287 1.386 . S
C288 C289 1.382 . S
C288 H314 0.950 . S
C289 N286 1.332 . S
C289 C288 1.382 . S
C289 H300 0.952 . S
C290 C287 1.388 . S
C290 C291 1.382 . S
C290 H315 0.950 . S
C291 N286 1.332 . S
C291 C290 1.382 . S
C291 H301 0.948 . S
N292 Co270 2.282 . S
N292 C296 1.332 . S
N292 C297 1.332 . S
C293 C294 1.388 . S
C293 C297 1.382 . S
C293 H316 0.950 . S
C294 C293 1.388 . S
C294 C295 1.386 . S
C295 C294 1.386 . S
C295 C296 1.382 . S
C295 H317 0.950 . S
C296 N292 1.332 . S
C296 C295 1.382 . S
C296 H298 0.952 . S
C297 N292 1.332 . S
C297 C293 1.382 . S
C297 H299 0.948 . S
H298 C296 0.952 . S
H299 C297 0.948 . S
H300 C289 0.952 . S
H301 C291 0.948 . S
C302 C268 1.395 . S
C302 C272 1.391 . S
C303 C265 1.389 . S
C303 C285 1.392 . S
C304 C275 1.392 . S
C304 C277 1.389 . S
C305 C280 1.395 . S
C305 C282 1.391 . S
H306 C266 0.951 . S
H307 C267 0.950 . S
H308 C273 0.949 . S
H309 C274 0.950 . S
H310 C278 0.951 . S
H311 C279 0.950 . S
H312 C283 0.949 . S
H313 C284 0.950 . S
H314 C288 0.950 . S
H315 C290 0.950 . S
H316 C293 0.950 . S
H317 C295 0.950 . S
H318 C326 0.930 . S
H319 C329 0.930 . S
H320 C331 0.930 . S
H321 C332 0.970 . S
H322 C332 0.970 . S
H323 C334 0.930 . S
H324 C336 0.930 . S
H325 C338 0.930 . S
C326 H318 0.930 . S
C326 C327 1.382 . S
C326 C328 1.426 . S
C327 C326 1.382 . S
C327 C331 1.389 . S
C328 C326 1.426 . S
C328 C329 1.375 . S
C328 C332 1.532 . S
C329 H319 0.930 . S
C329 C328 1.375 . S
C329 C330 1.416 . S
C330 C329 1.416 . S
C330 C331 1.371 . S
C331 H320 0.930 . S
C331 C327 1.389 . S
C331 C330 1.371 . S
C332 H321 0.970 . S
C332 H322 0.970 . S
C332 C328 1.532 . S
C332 C333 1.499 . S
C333 C332 1.499 . S
C333 C334 1.370 . S
C333 C338 1.415 . S
C334 H323 0.930 . S
C334 C333 1.370 . S
C334 C335 1.407 . S
C335 C334 1.407 . S
C335 C336 1.365 . S
C336 H324 0.930 . S
C336 C335 1.365 . S
C336 C337 1.393 . S
C337 C336 1.393 . S
C337 C338 1.387 . S
C338 H325 0.930 . S
C338 C333 1.415 . S
C338 C337 1.387 . S
H339 C347 0.930 . S
H340 C350 0.930 . S
H341 C352 0.930 . S
H342 C353 0.970 . S
H343 C353 0.970 . S
H344 C355 0.930 . S
H345 C357 0.930 . S
H346 C359 0.930 . S
C347 H339 0.930 . S
C347 C348 1.382 . S
C347 C349 1.426 . S
C348 C347 1.382 . S
C348 C352 1.389 . S
C349 C347 1.426 . S
C349 C350 1.375 . S
C349 C353 1.532 . S
C350 H340 0.930 . S
C350 C349 1.375 . S
C350 C351 1.416 . S
C351 C350 1.416 . S
C351 C352 1.371 . S
C352 H341 0.930 . S
C352 C348 1.389 . S
C352 C351 1.371 . S
C353 H342 0.970 . S
C353 H343 0.970 . S
C353 C349 1.532 . S
C353 C354 1.499 . S
C354 C353 1.499 . S
C354 C355 1.370 . S
C354 C359 1.415 . S
C355 H344 0.930 . S
C355 C354 1.370 . S
C355 C356 1.407 . S
C356 C355 1.407 . S
C356 C357 1.365 . S
C357 H345 0.930 . S
C357 C356 1.365 . S
C357 C358 1.393 . S
C358 C357 1.393 . S
C358 C359 1.387 . S
C359 H346 0.930 . S
C359 C354 1.415 . S
C359 C358 1.387 . S
H360 C368 0.930 . S
H361 C371 0.930 . S
H362 C373 0.930 . S
H363 C374 0.970 . S
H364 C374 0.970 . S
H365 C376 0.930 . S
H366 C378 0.930 . S
H367 C380 0.930 . S
C368 H360 0.930 . S
C368 C369 1.382 . S
C368 C370 1.426 . S
C369 C368 1.382 . S
C369 C373 1.389 . S
C370 C368 1.426 . S
C370 C371 1.375 . S
C370 C374 1.532 . S
C371 H361 0.930 . S
C371 C370 1.375 . S
C371 C372 1.416 . S
C372 C371 1.416 . S
C372 C373 1.371 . S
C373 H362 0.930 . S
C373 C369 1.389 . S
C373 C372 1.371 . S
C374 H363 0.970 . S
C374 H364 0.970 . S
C374 C370 1.532 . S
C374 C375 1.499 . S
C375 C374 1.499 . S
C375 C376 1.370 . S
C375 C380 1.415 . S
C376 H365 0.930 . S
C376 C375 1.370 . S
C376 C377 1.407 . S
C377 C376 1.407 . S
C377 C378 1.365 . S
C378 H366 0.930 . S
C378 C377 1.365 . S
C378 C379 1.393 . S
C379 C378 1.393 . S
C379 C380 1.387 . S
C380 H367 0.930 . S
C380 C375 1.415 . S
C380 C379 1.387 . S
H381 C389 0.930 . S
H382 C392 0.930 . S
H383 C394 0.930 . S
H384 C395 0.970 . S
H385 C395 0.970 . S
H386 C397 0.930 . S
H387 C399 0.930 . S
H388 C401 0.930 . S
C389 H381 0.930 . S
C389 C390 1.382 . S
C389 C391 1.426 . S
C390 C389 1.382 . S
C390 C394 1.389 . S
C391 C389 1.426 . S
C391 C392 1.375 . S
C391 C395 1.532 . S
C392 H382 0.930 . S
C392 C391 1.375 . S
C392 C393 1.416 . S
C393 C392 1.416 . S
C393 C394 1.371 . S
C394 H383 0.930 . S
C394 C390 1.389 . S
C394 C393 1.371 . S
C395 H384 0.970 . S
C395 H385 0.970 . S
C395 C391 1.532 . S
C395 C396 1.499 . S
C396 C395 1.499 . S
C396 C397 1.370 . S
C396 C401 1.415 . S
C397 H386 0.930 . S
C397 C396 1.370 . S
C397 C398 1.407 . S
C398 C397 1.407 . S
C398 C399 1.365 . S
C399 H387 0.930 . S
C399 C398 1.365 . S
C399 C400 1.393 . S
C400 C399 1.393 . S
C400 C401 1.387 . S
C401 H388 0.930 . S
C401 C396 1.415 . S
C401 C400 1.387 . S
H402 C410 0.930 . S
H403 C413 0.930 . S
H404 C415 0.930 . S
H405 C416 0.970 . S
H406 C416 0.970 . S
H407 C418 0.930 . S
H408 C420 0.930 . S
H409 C422 0.930 . S
C410 H402 0.930 . S
C410 C411 1.382 . S
C410 C412 1.426 . S
C411 C410 1.382 . S
C411 C415 1.389 . S
C412 C410 1.426 . S
C412 C413 1.375 . S
C412 C416 1.532 . S
C413 H403 0.930 . S
C413 C412 1.375 . S
C413 C414 1.416 . S
C414 C413 1.416 . S
C414 C415 1.371 . S
C415 H404 0.930 . S
C415 C411 1.389 . S
C415 C414 1.371 . S
C416 H405 0.970 . S
C416 H406 0.970 . S
C416 C412 1.532 . S
C416 C417 1.499 . S
C417 C416 1.499 . S
C417 C418 1.370 . S
C417 C422 1.415 . S
C418 H407 0.930 . S
C418 C417 1.370 . S
C418 C419 1.407 . S
C419 C418 1.407 . S
C419 C420 1.365 . S
C420 H408 0.930 . S
C420 C419 1.365 . S
C420 C421 1.393 . S
C421 C420 1.393 . S
C421 C422 1.387 . S
C422 H409 0.930 . S
C422 C417 1.415 . S
C422 C421 1.387 . S
H423 C431 0.930 . S
H424 C434 0.930 . S
H425 C436 0.930 . S
H426 C437 0.970 . S
H427 C437 0.970 . S
H428 C439 0.930 . S
H429 C441 0.930 . S
H430 C443 0.930 . S
C431 H423 0.930 . S
C431 C432 1.382 . S
C431 C433 1.426 . S
C432 C431 1.382 . S
C432 C436 1.389 . S
C433 C431 1.426 . S
C433 C434 1.375 . S
C433 C437 1.532 . S
C434 H424 0.930 . S
C434 C433 1.375 . S
C434 C435 1.416 . S
C435 C434 1.416 . S
C435 C436 1.371 . S
C436 H425 0.930 . S
C436 C432 1.389 . S
C436 C435 1.371 . S
C437 H426 0.970 . S
C437 H427 0.970 . S
C437 C433 1.532 . S
C437 C438 1.499 . S
C438 C437 1.499 . S
C438 C439 1.370 . S
C438 C443 1.415 . S
C439 H428 0.930 . S
C439 C438 1.370 . S
C439 C440 1.407 . S
C440 C439 1.407 . S
C440 C441 1.365 . S
C441 H429 0.930 . S
C441 C440 1.365 . S
C441 C442 1.393 . S
C442 C441 1.393 . S
C442 C443 1.387 . S
C443 H430 0.930 . S
C443 C438 1.415 . S
C443 C442 1.387 . S
C444 C445 1.349 . S
C444 C446 1.327 . S
C444 H469 0.950 . S
C445 C444 1.349 . S
C445 C461 1.349 . S
C446 C444 1.327 . S
C446 C465 1.429 . S
C446 H470 0.950 . S
C447 C464 1.574 . S
C447 C466 1.368 . S
C447 H471 0.949 . S
H448 C452 0.949 . S
C449 C450 1.349 . S
C449 C451 1.327 . S
C449 H472 0.950 . S
C450 C449 1.349 . S
C450 C462 1.349 . S
C451 C449 1.327 . S
C451 C467 1.429 . S
C451 H473 0.950 . S
C452 H448 0.949 . S
C452 C460 1.574 . S
C452 C468 1.368 . S
H453 C461 0.950 . S
H454 C459 0.950 . S
H455 C460 0.949 . S
H456 C462 0.950 . S
H457 C463 0.950 . S
H458 C464 0.949 . S
C459 H454 0.950 . S
C459 C461 1.327 . S
C459 C465 1.429 . S
C460 C452 1.574 . S
C460 H455 0.949 . S
C460 C466 1.368 . S
C461 C445 1.349 . S
C461 H453 0.950 . S
C461 C459 1.327 . S
C462 C450 1.349 . S
C462 H456 0.950 . S
C462 C463 1.327 . S
C463 H457 0.950 . S
C463 C462 1.327 . S
C463 C467 1.429 . S
C464 C447 1.574 . S
C464 H458 0.949 . S
C464 C468 1.368 . S
C465 C446 1.429 . S
C465 C459 1.429 . S
C465 C466 1.523 . S
C466 C447 1.368 . S
C466 C460 1.368 . S
C466 C465 1.523 . S
C467 C451 1.429 . S
C467 C463 1.429 . S
C467 C468 1.523 . S
C468 C452 1.368 . S
C468 C464 1.368 . S
C468 C467 1.523 . S
H469 C444 0.950 . S
H470 C446 0.950 . S
H471 C447 0.949 . S
H472 C449 0.950 . S
H473 C451 0.950 . S
C474 C475 1.349 . S
C474 C476 1.327 . S
C474 H499 0.950 . S
C475 C474 1.349 . S
C475 C491 1.349 . S
C476 C474 1.327 . S
C476 C495 1.429 . S
C476 H500 0.950 . S
C477 C494 1.574 . S
C477 C496 1.368 . S
C477 H501 0.949 . S
H478 C482 0.949 . S
C479 C480 1.349 . S
C479 C481 1.327 . S
C479 H502 0.950 . S
C480 C479 1.349 . S
C480 C492 1.349 . S
C481 C479 1.327 . S
C481 C497 1.429 . S
C481 H503 0.950 . S
C482 H478 0.949 . S
C482 C490 1.574 . S
C482 C498 1.368 . S
H483 C491 0.950 . S
H484 C489 0.950 . S
H485 C490 0.949 . S
H486 C492 0.950 . S
H487 C493 0.950 . S
H488 C494 0.949 . S
C489 H484 0.950 . S
C489 C491 1.327 . S
C489 C495 1.429 . S
C490 C482 1.574 . S
C490 H485 0.949 . S
C490 C496 1.368 . S
C491 C475 1.349 . S
C491 H483 0.950 . S
C491 C489 1.327 . S
C492 C480 1.349 . S
C492 H486 0.950 . S
C492 C493 1.327 . S
C493 H487 0.950 . S
C493 C492 1.327 . S
C493 C497 1.429 . S
C494 C477 1.574 . S
C494 H488 0.949 . S
C494 C498 1.368 . S
C495 C476 1.429 . S
C495 C489 1.429 . S
C495 C496 1.523 . S
C496 C477 1.368 . S
C496 C490 1.368 . S
C496 C495 1.523 . S
C497 C481 1.429 . S
C497 C493 1.429 . S
C497 C498 1.523 . S
C498 C482 1.368 . S
C498 C494 1.368 . S
C498 C497 1.523 . S
H499 C474 0.950 . S
H500 C476 0.950 . S
H501 C477 0.949 . S
H502 C479 0.950 . S
H503 C481 0.950 . S
C504 C505 1.349 . S
C504 C506 1.327 . S
C504 H529 0.950 . S
C505 C504 1.349 . S
C505 C521 1.349 . S
C506 C504 1.327 . S
C506 C525 1.429 . S
C506 H530 0.950 . S
C507 C524 1.574 . S
C507 C526 1.368 . S
C507 H531 0.949 . S
H508 C512 0.949 . S
C509 C510 1.349 . S
C509 C511 1.327 . S
C509 H532 0.950 . S
C510 C509 1.349 . S
C510 C522 1.349 . S
C511 C509 1.327 . S
C511 C527 1.429 . S
C511 H533 0.950 . S
C512 H508 0.949 . S
C512 C520 1.574 . S
C512 C528 1.368 . S
H513 C521 0.950 . S
H514 C519 0.950 . S
H515 C520 0.949 . S
H516 C522 0.950 . S
H517 C523 0.950 . S
H518 C524 0.949 . S
C519 H514 0.950 . S
C519 C521 1.327 . S
C519 C525 1.429 . S
C520 C512 1.574 . S
C520 H515 0.949 . S
C520 C526 1.368 . S
C521 C505 1.349 . S
C521 H513 0.950 . S
C521 C519 1.327 . S
C522 C510 1.349 . S
C522 H516 0.950 . S
C522 C523 1.327 . S
C523 H517 0.950 . S
C523 C522 1.327 . S
C523 C527 1.429 . S
C524 C507 1.574 . S
C524 H518 0.949 . S
C524 C528 1.368 . S
C525 C506 1.429 . S
C525 C519 1.429 . S
C525 C526 1.523 . S
C526 C507 1.368 . S
C526 C520 1.368 . S
C526 C525 1.523 . S
C527 C511 1.429 . S
C527 C523 1.429 . S
C527 C528 1.523 . S
C528 C512 1.368 . S
C528 C524 1.368 . S
C528 C527 1.523 . S
H529 C504 0.950 . S
H530 C506 0.950 . S
H531 C507 0.949 . S
H532 C509 0.950 . S
H533 C511 0.950 . S
C534 C535 1.349 . S
C534 C536 1.327 . S
C534 H559 0.950 . S
C535 C534 1.349 . S
C535 C551 1.349 . S
C536 C534 1.327 . S
C536 C555 1.429 . S
C536 H560 0.950 . S
C537 C554 1.574 . S
C537 C556 1.368 . S
C537 H561 0.949 . S
H538 C542 0.949 . S
C539 C540 1.349 . S
C539 C541 1.327 . S
C539 H562 0.950 . S
C540 C539 1.349 . S
C540 C552 1.349 . S
C541 C539 1.327 . S
C541 C557 1.429 . S
C541 H563 0.950 . S
C542 H538 0.949 . S
C542 C550 1.574 . S
C542 C558 1.368 . S
H543 C551 0.950 . S
H544 C549 0.950 . S
H545 C550 0.949 . S
H546 C552 0.950 . S
H547 C553 0.950 . S
H548 C554 0.949 . S
C549 H544 0.950 . S
C549 C551 1.327 . S
C549 C555 1.429 . S
C550 C542 1.574 . S
C550 H545 0.949 . S
C550 C556 1.368 . S
C551 C535 1.349 . S
C551 H543 0.950 . S
C551 C549 1.327 . S
C552 C540 1.349 . S
C552 H546 0.950 . S
C552 C553 1.327 . S
C553 H547 0.950 . S
C553 C552 1.327 . S
C553 C557 1.429 . S
C554 C537 1.574 . S
C554 H548 0.949 . S
C554 C558 1.368 . S
C555 C536 1.429 . S
C555 C549 1.429 . S
C555 C556 1.523 . S
C556 C537 1.368 . S
C556 C550 1.368 . S
C556 C555 1.523 . S
C557 C541 1.429 . S
C557 C553 1.429 . S
C557 C558 1.523 . S
C558 C542 1.368 . S
C558 C554 1.368 . S
C558 C557 1.523 . S
H559 C534 0.950 . S
H560 C536 0.950 . S
H561 C537 0.949 . S
H562 C539 0.950 . S
H563 C541 0.950 . S
C564 C565 1.349 . S
C564 C566 1.327 . S
C564 H589 0.950 . S
C565 C564 1.349 . S
C565 C581 1.349 . S
C566 C564 1.327 . S
C566 C585 1.429 . S
C566 H590 0.950 . S
C567 C584 1.574 . S
C567 C586 1.368 . S
C567 H591 0.949 . S
H568 C572 0.949 . S
C569 C570 1.349 . S
C569 C571 1.327 . S
C569 H592 0.950 . S
C570 C569 1.349 . S
C570 C582 1.349 . S
C571 C569 1.327 . S
C571 C587 1.429 . S
C571 H593 0.950 . S
C572 H568 0.949 . S
C572 C580 1.574 . S
C572 C588 1.368 . S
H573 C581 0.950 . S
H574 C579 0.950 . S
H575 C580 0.949 . S
H576 C582 0.950 . S
H577 C583 0.950 . S
H578 C584 0.949 . S
C579 H574 0.950 . S
C579 C581 1.327 . S
C579 C585 1.429 . S
C580 C572 1.574 . S
C580 H575 0.949 . S
C580 C586 1.368 . S
C581 C565 1.349 . S
C581 H573 0.950 . S
C581 C579 1.327 . S
C582 C570 1.349 . S
C582 H576 0.950 . S
C582 C583 1.327 . S
C583 H577 0.950 . S
C583 C582 1.327 . S
C583 C587 1.429 . S
C584 C567 1.574 . S
C584 H578 0.949 . S
C584 C588 1.368 . S
C585 C566 1.429 . S
C585 C579 1.429 . S
C585 C586 1.523 . S
C586 C567 1.368 . S
C586 C580 1.368 . S
C586 C585 1.523 . S
C587 C571 1.429 . S
C587 C583 1.429 . S
C587 C588 1.523 . S
C588 C572 1.368 . S
C588 C584 1.368 . S
C588 C587 1.523 . S
H589 C564 0.950 . S
H590 C566 0.950 . S
H591 C567 0.949 . S
H592 C569 0.950 . S
H593 C571 0.950 . S
C594 C595 1.349 . S
C594 C596 1.327 . S
C594 H619 0.950 . S
C595 C594 1.349 . S
C595 C611 1.349 . S
C596 C594 1.327 . S
C596 C615 1.429 . S
C596 H620 0.950 . S
C597 C614 1.574 . S
C597 C616 1.368 . S
C597 H621 0.949 . S
H598 C602 0.949 . S
C599 C600 1.349 . S
C599 C601 1.327 . S
C599 H622 0.950 . S
C600 C599 1.349 . S
C600 C612 1.349 . S
C601 C599 1.327 . S
C601 C617 1.429 . S
C601 H623 0.950 . S
C602 H598 0.949 . S
C602 C610 1.574 . S
C602 C618 1.368 . S
H603 C611 0.950 . S
H604 C609 0.950 . S
H605 C610 0.949 . S
H606 C612 0.950 . S
H607 C613 0.950 . S
H608 C614 0.949 . S
C609 H604 0.950 . S
C609 C611 1.327 . S
C609 C615 1.429 . S
C610 C602 1.574 . S
C610 H605 0.949 . S
C610 C616 1.368 . S
C611 C595 1.349 . S
C611 H603 0.950 . S
C611 C609 1.327 . S
C612 C600 1.349 . S
C612 H606 0.950 . S
C612 C613 1.327 . S
C613 H607 0.950 . S
C613 C612 1.327 . S
C613 C617 1.429 . S
C614 C597 1.574 . S
C614 H608 0.949 . S
C614 C618 1.368 . S
C615 C596 1.429 . S
C615 C609 1.429 . S
C615 C616 1.523 . S
C616 C597 1.368 . S
C616 C610 1.368 . S
C616 C615 1.523 . S
C617 C601 1.429 . S
C617 C613 1.429 . S
C617 C618 1.523 . S
C618 C602 1.368 . S
C618 C614 1.368 . S
C618 C617 1.523 . S
H619 C594 0.950 . S
H620 C596 0.950 . S
H621 C597 0.949 . S
H622 C599 0.950 . S
H623 C601 0.950 . S
C624 C625 1.349 . S
C624 C626 1.327 . S
C624 H649 0.950 . S
C625 C624 1.349 . S
C625 C641 1.349 . S
C626 C624 1.327 . S
C626 C645 1.429 . S
C626 H650 0.950 . S
C627 C644 1.574 . S
C627 C646 1.368 . S
C627 H651 0.949 . S
H628 C632 0.949 . S
C629 C630 1.349 . S
C629 C631 1.327 . S
C629 H652 0.950 . S
C630 C629 1.349 . S
C630 C642 1.349 . S
C631 C629 1.327 . S
C631 C647 1.429 . S
C631 H653 0.950 . S
C632 H628 0.949 . S
C632 C640 1.574 . S
C632 C648 1.368 . S
H633 C641 0.950 . S
H634 C639 0.950 . S
H635 C640 0.949 . S
H636 C642 0.950 . S
H637 C643 0.950 . S
H638 C644 0.949 . S
C639 H634 0.950 . S
C639 C641 1.327 . S
C639 C645 1.429 . S
C640 C632 1.574 . S
C640 H635 0.949 . S
C640 C646 1.368 . S
C641 C625 1.349 . S
C641 H633 0.950 . S
C641 C639 1.327 . S
C642 C630 1.349 . S
C642 H636 0.950 . S
C642 C643 1.327 . S
C643 H637 0.950 . S
C643 C642 1.327 . S
C643 C647 1.429 . S
C644 C627 1.574 . S
C644 H638 0.949 . S
C644 C648 1.368 . S
C645 C626 1.429 . S
C645 C639 1.429 . S
C645 C646 1.523 . S
C646 C627 1.368 . S
C646 C640 1.368 . S
C646 C645 1.523 . S
C647 C631 1.429 . S
C647 C643 1.429 . S
C647 C648 1.523 . S
C648 C632 1.368 . S
C648 C644 1.368 . S
C648 C647 1.523 . S
H649 C624 0.950 . S
H650 C626 0.950 . S
H651 C627 0.949 . S
H652 C629 0.950 . S
H653 C631 0.950 . S
C654 C655 1.349 . S
C654 C656 1.327 . S
C654 H679 0.950 . S
C655 C654 1.349 . S
C655 C671 1.349 . S
C656 C654 1.327 . S
C656 C675 1.429 . S
C656 H680 0.950 . S
C657 C674 1.574 . S
C657 C676 1.368 . S
C657 H681 0.949 . S
H658 C662 0.949 . S
C659 C660 1.349 . S
C659 C661 1.327 . S
C659 H682 0.950 . S
C660 C659 1.349 . S
C660 C672 1.349 . S
C661 C659 1.327 . S
C661 C677 1.429 . S
C661 H683 0.950 . S
C662 H658 0.949 . S
C662 C670 1.574 . S
C662 C678 1.368 . S
H663 C671 0.950 . S
H664 C669 0.950 . S
H665 C670 0.949 . S
H666 C672 0.950 . S
H667 C673 0.950 . S
H668 C674 0.949 . S
C669 H664 0.950 . S
C669 C671 1.327 . S
C669 C675 1.429 . S
C670 C662 1.574 . S
C670 H665 0.949 . S
C670 C676 1.368 . S
C671 C655 1.349 . S
C671 H663 0.950 . S
C671 C669 1.327 . S
C672 C660 1.349 . S
C672 H666 0.950 . S
C672 C673 1.327 . S
C673 H667 0.950 . S
C673 C672 1.327 . S
C673 C677 1.429 . S
C674 C657 1.574 . S
C674 H668 0.949 . S
C674 C678 1.368 . S
C675 C656 1.429 . S
C675 C669 1.429 . S
C675 C676 1.523 . S
C676 C657 1.368 . S
C676 C670 1.368 . S
C676 C675 1.523 . S
C677 C661 1.429 . S
C677 C673 1.429 . S
C677 C678 1.523 . S
C678 C662 1.368 . S
C678 C674 1.368 . S
C678 C677 1.523 . S
H679 C654 0.950 . S
H680 C656 0.950 . S
H681 C657 0.949 . S
H682 C659 0.950 . S
H683 C661 0.950 . S
C684 C685 1.349 . S
C684 C686 1.327 . S
C684 H709 0.950 . S
C685 C684 1.349 . S
C685 C701 1.349 . S
C686 C684 1.327 . S
C686 C705 1.429 . S
C686 H710 0.950 . S
C687 C704 1.574 . S
C687 C706 1.368 . S
C687 H711 0.949 . S
H688 C692 0.949 . S
C689 C690 1.349 . S
C689 C691 1.327 . S
C689 H712 0.950 . S
C690 C689 1.349 . S
C690 C702 1.349 . S
C691 C689 1.327 . S
C691 C707 1.429 . S
C691 H713 0.950 . S
C692 H688 0.949 . S
C692 C700 1.574 . S
C692 C708 1.368 . S
H693 C701 0.950 . S
H694 C699 0.950 . S
H695 C700 0.949 . S
H696 C702 0.950 . S
H697 C703 0.950 . S
H698 C704 0.949 . S
C699 H694 0.950 . S
C699 C701 1.327 . S
C699 C705 1.429 . S
C700 C692 1.574 . S
C700 H695 0.949 . S
C700 C706 1.368 . S
C701 C685 1.349 . S
C701 H693 0.950 . S
C701 C699 1.327 . S
C702 C690 1.349 . S
C702 H696 0.950 . S
C702 C703 1.327 . S
C703 H697 0.950 . S
C703 C702 1.327 . S
C703 C707 1.429 . S
C704 C687 1.574 . S
C704 H698 0.949 . S
C704 C708 1.368 . S
C705 C686 1.429 . S
C705 C699 1.429 . S
C705 C706 1.523 . S
C706 C687 1.368 . S
C706 C700 1.368 . S
C706 C705 1.523 . S
C707 C691 1.429 . S
C707 C703 1.429 . S
C707 C708 1.523 . S
C708 C692 1.368 . S
C708 C704 1.368 . S
C708 C707 1.523 . S
H709 C684 0.950 . S
H710 C686 0.950 . S
H711 C687 0.949 . S
H712 C689 0.950 . S
H713 C691 0.950 . S
C714 C715 1.349 . S
C714 C716 1.327 . S
C714 H739 0.950 . S
C715 C714 1.349 . S
C715 C731 1.349 . S
C716 C714 1.327 . S
C716 C735 1.429 . S
C716 H740 0.950 . S
C717 C734 1.574 . S
C717 C736 1.368 . S
C717 H741 0.949 . S
H718 C722 0.949 . S
C719 C720 1.349 . S
C719 C721 1.327 . S
C719 H742 0.950 . S
C720 C719 1.349 . S
C720 C732 1.349 . S
C721 C719 1.327 . S
C721 C737 1.429 . S
C721 H743 0.950 . S
C722 H718 0.949 . S
C722 C730 1.574 . S
C722 C738 1.368 . S
H723 C731 0.950 . S
H724 C729 0.950 . S
H725 C730 0.949 . S
H726 C732 0.950 . S
H727 C733 0.950 . S
H728 C734 0.949 . S
C729 H724 0.950 . S
C729 C731 1.327 . S
C729 C735 1.429 . S
C730 C722 1.574 . S
C730 H725 0.949 . S
C730 C736 1.368 . S
C731 C715 1.349 . S
C731 H723 0.950 . S
C731 C729 1.327 . S
C732 C720 1.349 . S
C732 H726 0.950 . S
C732 C733 1.327 . S
C733 H727 0.950 . S
C733 C732 1.327 . S
C733 C737 1.429 . S
C734 C717 1.574 . S
C734 H728 0.949 . S
C734 C738 1.368 . S
C735 C716 1.429 . S
C735 C729 1.429 . S
C735 C736 1.523 . S
C736 C717 1.368 . S
C736 C730 1.368 . S
C736 C735 1.523 . S
C737 C721 1.429 . S
C737 C733 1.429 . S
C737 C738 1.523 . S
C738 C722 1.368 . S
C738 C734 1.368 . S
C738 C737 1.523 . S
H739 C714 0.950 . S
H740 C716 0.950 . S
H741 C717 0.949 . S
H742 C719 0.950 . S
H743 C721 0.950 . S
C744 C745 1.349 . S
C744 C746 1.327 . S
C744 H769 0.950 . S
C745 C744 1.349 . S
C745 C761 1.349 . S
C746 C744 1.327 . S
C746 C765 1.429 . S
C746 H770 0.950 . S
C747 C764 1.574 . S
C747 C766 1.368 . S
C747 H771 0.949 . S
H748 C752 0.949 . S
C749 C750 1.349 . S
C749 C751 1.327 . S
C749 H772 0.950 . S
C750 C749 1.349 . S
C750 C762 1.349 . S
C751 C749 1.327 . S
C751 C767 1.429 . S
C751 H773 0.950 . S
C752 H748 0.949 . S
C752 C760 1.574 . S
C752 C768 1.368 . S
H753 C761 0.950 . S
H754 C759 0.950 . S
H755 C760 0.949 . S
H756 C762 0.950 . S
H757 C763 0.950 . S
H758 C764 0.949 . S
C759 H754 0.950 . S
C759 C761 1.327 . S
C759 C765 1.429 . S
C760 C752 1.574 . S
C760 H755 0.949 . S
C760 C766 1.368 . S
C761 C745 1.349 . S
C761 H753 0.950 . S
C761 C759 1.327 . S
C762 C750 1.349 . S
C762 H756 0.950 . S
C762 C763 1.327 . S
C763 H757 0.950 . S
C763 C762 1.327 . S
C763 C767 1.429 . S
C764 C747 1.574 . S
C764 H758 0.949 . S
C764 C768 1.368 . S
C765 C746 1.429 . S
C765 C759 1.429 . S
C765 C766 1.523 . S
C766 C747 1.368 . S
C766 C760 1.368 . S
C766 C765 1.523 . S
C767 C751 1.429 . S
C767 C763 1.429 . S
C767 C768 1.523 . S
C768 C752 1.368 . S
C768 C764 1.368 . S
C768 C767 1.523 . S
H769 C744 0.950 . S
H770 C746 0.950 . S
H771 C747 0.949 . S
H772 C749 0.950 . S
H773 C751 0.950 . S
C774 C775 1.349 . S
C774 C776 1.327 . S
C774 H799 0.950 . S
C775 C774 1.349 . S
C775 C791 1.349 . S
C776 C774 1.327 . S
C776 C795 1.429 . S
C776 H800 0.950 . S
C777 C794 1.574 . S
C777 C796 1.368 . S
C777 H801 0.949 . S
H778 C782 0.949 . S
C779 C780 1.349 . S
C779 C781 1.327 . S
C779 H802 0.950 . S
C780 C779 1.349 . S
C780 C792 1.349 . S
C781 C779 1.327 . S
C781 C797 1.429 . S
C781 H803 0.950 . S
C782 H778 0.949 . S
C782 C790 1.574 . S
C782 C798 1.368 . S
H783 C791 0.950 . S
H784 C789 0.950 . S
H785 C790 0.949 . S
H786 C792 0.950 . S
H787 C793 0.950 . S
H788 C794 0.949 . S
C789 H784 0.950 . S
C789 C791 1.327 . S
C789 C795 1.429 . S
C790 C782 1.574 . S
C790 H785 0.949 . S
C790 C796 1.368 . S
C791 C775 1.349 . S
C791 H783 0.950 . S
C791 C789 1.327 . S
C792 C780 1.349 . S
C792 H786 0.950 . S
C792 C793 1.327 . S
C793 H787 0.950 . S
C793 C792 1.327 . S
C793 C797 1.429 . S
C794 C777 1.574 . S
C794 H788 0.949 . S
C794 C798 1.368 . S
C795 C776 1.429 . S
C795 C789 1.429 . S
C795 C796 1.523 . S
C796 C777 1.368 . S
C796 C790 1.368 . S
C796 C795 1.523 . S
C797 C781 1.429 . S
C797 C793 1.429 . S
C797 C798 1.523 . S
C798 C782 1.368 . S
C798 C794 1.368 . S
C798 C797 1.523 . S
H799 C774 0.950 . S
H800 C776 0.950 . S
H801 C777 0.949 . S
H802 C779 0.950 . S
H803 C781 0.950 . S
C804 C805 1.349 . S
C804 C806 1.327 . S
C804 H829 0.950 . S
C805 C804 1.349 . S
C805 C821 1.349 . S
C806 C804 1.327 . S
C806 C825 1.429 . S
C806 H830 0.950 . S
C807 C824 1.574 . S
C807 C826 1.368 . S
C807 H831 0.949 . S
H808 C812 0.949 . S
C809 C810 1.349 . S
C809 C811 1.327 . S
C809 H832 0.950 . S
C810 C809 1.349 . S
C810 C822 1.349 . S
C811 C809 1.327 . S
C811 C827 1.429 . S
C811 H833 0.950 . S
C812 H808 0.949 . S
C812 C820 1.574 . S
C812 C828 1.368 . S
H813 C821 0.950 . S
H814 C819 0.950 . S
H815 C820 0.949 . S
H816 C822 0.950 . S
H817 C823 0.950 . S
H818 C824 0.949 . S
C819 H814 0.950 . S
C819 C821 1.327 . S
C819 C825 1.429 . S
C820 C812 1.574 . S
C820 H815 0.949 . S
C820 C826 1.368 . S
C821 C805 1.349 . S
C821 H813 0.950 . S
C821 C819 1.327 . S
C822 C810 1.349 . S
C822 H816 0.950 . S
C822 C823 1.327 . S
C823 H817 0.950 . S
C823 C822 1.327 . S
C823 C827 1.429 . S
C824 C807 1.574 . S
C824 H818 0.949 . S
C824 C828 1.368 . S
C825 C806 1.429 . S
C825 C819 1.429 . S
C825 C826 1.523 . S
C826 C807 1.368 . S
C826 C820 1.368 . S
C826 C825 1.523 . S
C827 C811 1.429 . S
C827 C823 1.429 . S
C827 C828 1.523 . S
C828 C812 1.368 . S
C828 C824 1.368 . S
C828 C827 1.523 . S
H829 C804 0.950 . S
H830 C806 0.950 . S
H831 C807 0.949 . S
H832 C809 0.950 . S
H833 C811 0.950 . S
C834 C835 1.349 . S
C834 C836 1.327 . S
C834 H859 0.950 . S
C835 C834 1.349 . S
C835 C851 1.349 . S
C836 C834 1.327 . S
C836 C855 1.429 . S
C836 H860 0.950 . S
C837 C854 1.574 . S
C837 C856 1.368 . S
C837 H861 0.949 . S
H838 C842 0.949 . S
C839 C840 1.349 . S
C839 C841 1.327 . S
C839 H862 0.950 . S
C840 C839 1.349 . S
C840 C852 1.349 . S
C841 C839 1.327 . S
C841 C857 1.429 . S
C841 H863 0.950 . S
C842 H838 0.949 . S
C842 C850 1.574 . S
C842 C858 1.368 . S
H843 C851 0.950 . S
H844 C849 0.950 . S
H845 C850 0.949 . S
H846 C852 0.950 . S
H847 C853 0.950 . S
H848 C854 0.949 . S
C849 H844 0.950 . S
C849 C851 1.327 . S
C849 C855 1.429 . S
C850 C842 1.574 . S
C850 H845 0.949 . S
C850 C856 1.368 . S
C851 C835 1.349 . S
C851 H843 0.950 . S
C851 C849 1.327 . S
C852 C840 1.349 . S
C852 H846 0.950 . S
C852 C853 1.327 . S
C853 H847 0.950 . S
C853 C852 1.327 . S
C853 C857 1.429 . S
C854 C837 1.574 . S
C854 H848 0.949 . S
C854 C858 1.368 . S
C855 C836 1.429 . S
C855 C849 1.429 . S
C855 C856 1.523 . S
C856 C837 1.368 . S
C856 C850 1.368 . S
C856 C855 1.523 . S
C857 C841 1.429 . S
C857 C853 1.429 . S
C857 C858 1.523 . S
C858 C842 1.368 . S
C858 C854 1.368 . S
C858 C857 1.523 . S
H859 C834 0.950 . S
H860 C836 0.950 . S
H861 C837 0.949 . S
H862 C839 0.950 . S
H863 C841 0.950 . S
C864 C865 1.349 . S
C864 C866 1.327 . S
C864 H889 0.950 . S
C865 C864 1.349 . S
C865 C881 1.349 . S
C866 C864 1.327 . S
C866 C885 1.429 . S
C866 H890 0.950 . S
C867 C884 1.574 . S
C867 C886 1.368 . S
C867 H891 0.949 . S
H868 C872 0.949 . S
C869 C870 1.349 . S
C869 C871 1.327 . S
C869 H892 0.950 . S
C870 C869 1.349 . S
C870 C882 1.349 . S
C871 C869 1.327 . S
C871 C887 1.429 . S
C871 H893 0.950 . S
C872 H868 0.949 . S
C872 C880 1.574 . S
C872 C888 1.368 . S
H873 C881 0.950 . S
H874 C879 0.950 . S
H875 C880 0.949 . S
H876 C882 0.950 . S
H877 C883 0.950 . S
H878 C884 0.949 . S
C879 H874 0.950 . S
C879 C881 1.327 . S
C879 C885 1.429 . S
C880 C872 1.574 . S
C880 H875 0.949 . S
C880 C886 1.368 . S
C881 C865 1.349 . S
C881 H873 0.950 . S
C881 C879 1.327 . S
C882 C870 1.349 . S
C882 H876 0.950 . S
C882 C883 1.327 . S
C883 H877 0.950 . S
C883 C882 1.327 . S
C883 C887 1.429 . S
C884 C867 1.574 . S
C884 H878 0.949 . S
C884 C888 1.368 . S
C885 C866 1.429 . S
C885 C879 1.429 . S
C885 C886 1.523 . S
C886 C867 1.368 . S
C886 C880 1.368 . S
C886 C885 1.523 . S
C887 C871 1.429 . S
C887 C883 1.429 . S
C887 C888 1.523 . S
C888 C872 1.368 . S
C888 C884 1.368 . S
C888 C887 1.523 . S
H889 C864 0.950 . S
H890 C866 0.950 . S
H891 C867 0.949 . S
H892 C869 0.950 . S
H893 C871 0.950 . S
C894 C895 1.349 . S
C894 C896 1.327 . S
C894 H919 0.950 . S
C895 C894 1.349 . S
C895 C911 1.349 . S
C896 C894 1.327 . S
C896 C915 1.429 . S
C896 H920 0.950 . S
C897 C914 1.574 . S
C897 C916 1.368 . S
C897 H921 0.949 . S
H898 C902 0.949 . S
C899 C900 1.349 . S
C899 C901 1.327 . S
C899 H922 0.950 . S
C900 C899 1.349 . S
C900 C912 1.349 . S
C901 C899 1.327 . S
C901 C917 1.429 . S
C901 H923 0.950 . S
C902 H898 0.949 . S
C902 C910 1.574 . S
C902 C918 1.368 . S
H903 C911 0.950 . S
H904 C909 0.950 . S
H905 C910 0.949 . S
H906 C912 0.950 . S
H907 C913 0.950 . S
H908 C914 0.949 . S
C909 H904 0.950 . S
C909 C911 1.327 . S
C909 C915 1.429 . S
C910 C902 1.574 . S
C910 H905 0.949 . S
C910 C916 1.368 . S
C911 C895 1.349 . S
C911 H903 0.950 . S
C911 C909 1.327 . S
C912 C900 1.349 . S
C912 H906 0.950 . S
C912 C913 1.327 . S
C913 H907 0.950 . S
C913 C912 1.327 . S
C913 C917 1.429 . S
C914 C897 1.574 . S
C914 H908 0.949 . S
C914 C918 1.368 . S
C915 C896 1.429 . S
C915 C909 1.429 . S
C915 C916 1.523 . S
C916 C897 1.368 . S
C916 C910 1.368 . S
C916 C915 1.523 . S
C917 C901 1.429 . S
C917 C913 1.429 . S
C917 C918 1.523 . S
C918 C902 1.368 . S
C918 C914 1.368 . S
C918 C917 1.523 . S
H919 C894 0.950 . S
H920 C896 0.950 . S
H921 C897 0.949 . S
H922 C899 0.950 . S
H923 C901 0.950 . S
C924 C925 1.349 . S
C924 C926 1.327 . S
C924 H949 0.950 . S
C925 C924 1.349 . S
C925 C941 1.349 . S
C926 C924 1.327 . S
C926 C945 1.429 . S
C926 H950 0.950 . S
C927 C944 1.574 . S
C927 C946 1.368 . S
C927 H951 0.949 . S
H928 C932 0.949 . S
C929 C930 1.349 . S
C929 C931 1.327 . S
C929 H952 0.950 . S
C930 C929 1.349 . S
C930 C942 1.349 . S
C931 C929 1.327 . S
C931 C947 1.429 . S
C931 H953 0.950 . S
C932 H928 0.949 . S
C932 C940 1.574 . S
C932 C948 1.368 . S
H933 C941 0.950 . S
H934 C939 0.950 . S
H935 C940 0.949 . S
H936 C942 0.950 . S
H937 C943 0.950 . S
H938 C944 0.949 . S
C939 H934 0.950 . S
C939 C941 1.327 . S
C939 C945 1.429 . S
C940 C932 1.574 . S
C940 H935 0.949 . S
C940 C946 1.368 . S
C941 C925 1.349 . S
C941 H933 0.950 . S
C941 C939 1.327 . S
C942 C930 1.349 . S
C942 H936 0.950 . S
C942 C943 1.327 . S
C943 H937 0.950 . S
C943 C942 1.327 . S
C943 C947 1.429 . S
C944 C927 1.574 . S
C944 H938 0.949 . S
C944 C948 1.368 . S
C945 C926 1.429 . S
C945 C939 1.429 . S
C945 C946 1.523 . S
C946 C927 1.368 . S
C946 C940 1.368 . S
C946 C945 1.523 . S
C947 C931 1.429 . S
C947 C943 1.429 . S
C947 C948 1.523 . S
C948 C932 1.368 . S
C948 C944 1.368 . S
C948 C947 1.523 . S
H949 C924 0.950 . S
H950 C926 0.950 . S
H951 C927 0.949 . S
H952 C929 0.950 . S
H953 C931 0.950 . S
C954 C955 1.349 . S
C954 C956 1.327 . S
C954 H979 0.950 . S
C955 C954 1.349 . S
C955 C971 1.349 . S
C956 C954 1.327 . S
C956 C975 1.429 . S
C956 H980 0.950 . S
C957 C974 1.574 . S
C957 C976 1.368 . S
C957 H981 0.949 . S
H958 C962 0.949 . S
C959 C960 1.349 . S
C959 C961 1.327 . S
C959 H982 0.950 . S
C960 C959 1.349 . S
C960 C972 1.349 . S
C961 C959 1.327 . S
C961 C977 1.429 . S
C961 H983 0.950 . S
C962 H958 0.949 . S
C962 C970 1.574 . S
C962 C978 1.368 . S
H963 C971 0.950 . S
H964 C969 0.950 . S
H965 C970 0.949 . S
H966 C972 0.950 . S
H967 C973 0.950 . S
H968 C974 0.949 . S
C969 H964 0.950 . S
C969 C971 1.327 . S
C969 C975 1.429 . S
C970 C962 1.574 . S
C970 H965 0.949 . S
C970 C976 1.368 . S
C971 C955 1.349 . S
C971 H963 0.950 . S
C971 C969 1.327 . S
C972 C960 1.349 . S
C972 H966 0.950 . S
C972 C973 1.327 . S
C973 H967 0.950 . S
C973 C972 1.327 . S
C973 C977 1.429 . S
C974 C957 1.574 . S
C974 H968 0.949 . S
C974 C978 1.368 . S
C975 C956 1.429 . S
C975 C969 1.429 . S
C975 C976 1.523 . S
C976 C957 1.368 . S
C976 C970 1.368 . S
C976 C975 1.523 . S
C977 C961 1.429 . S
C977 C973 1.429 . S
C977 C978 1.523 . S
C978 C962 1.368 . S
C978 C974 1.368 . S
C978 C977 1.523 . S
H979 C954 0.950 . S
H980 C956 0.950 . S
H981 C957 0.949 . S
H982 C959 0.950 . S
H983 C961 0.950 . S
C984 C985 1.349 . S
C984 C986 1.327 . S
C984 H1009 0.950 . S
C985 C984 1.349 . S
C985 C1001 1.349 . S
C986 C984 1.327 . S
C986 C1005 1.429 . S
C986 H1010 0.950 . S
C987 C1004 1.574 . S
C987 C1006 1.368 . S
C987 H1011 0.949 . S
H988 C992 0.949 . S
C989 C990 1.349 . S
C989 C991 1.327 . S
C989 H1012 0.950 . S
C990 C989 1.349 . S
C990 C1002 1.349 . S
C991 C989 1.327 . S
C991 C1007 1.429 . S
C991 H1013 0.950 . S
C992 H988 0.949 . S
C992 C1000 1.574 . S
C992 C1008 1.368 . S
H993 C1001 0.950 . S
H994 C999 0.950 . S
H995 C1000 0.949 . S
H996 C1002 0.950 . S
H997 C1003 0.950 . S
H998 C1004 0.949 . S
C999 H994 0.950 . S
C999 C1001 1.327 . S
C999 C1005 1.429 . S
C1000 C992 1.574 . S
C1000 H995 0.949 . S
C1000 C1006 1.368 . S
C1001 C985 1.349 . S
C1001 H993 0.950 . S
C1001 C999 1.327 . S
C1002 C990 1.349 . S
C1002 H996 0.950 . S
C1002 C1003 1.327 . S
C1003 H997 0.950 . S
C1003 C1002 1.327 . S
C1003 C1007 1.429 . S
C1004 C987 1.574 . S
C1004 H998 0.949 . S
C1004 C1008 1.368 . S
C1005 C986 1.429 . S
C1005 C999 1.429 . S
C1005 C1006 1.523 . S
C1006 C987 1.368 . S
C1006 C1000 1.368 . S
C1006 C1005 1.523 . S
C1007 C991 1.429 . S
C1007 C1003 1.429 . S
C1007 C1008 1.523 . S
C1008 C992 1.368 . S
C1008 C1004 1.368 . S
C1008 C1007 1.523 . S
H1009 C984 0.950 . S
H1010 C986 0.950 . S
H1011 C987 0.949 . S
H1012 C989 0.950 . S
H1013 C991 0.950 . S
C1014 C1015 1.349 . S
C1014 C1016 1.327 . S
C1014 H1039 0.950 . S
C1015 C1014 1.349 . S
C1015 C1031 1.349 . S
C1016 C1014 1.327 . S
C1016 C1035 1.429 . S
C1016 H1040 0.950 . S
C1017 C1034 1.574 . S
C1017 C1036 1.368 . S
C1017 H1041 0.949 . S
H1018 C1022 0.949 . S
C1019 C1020 1.349 . S
C1019 C1021 1.327 . S
C1019 H1042 0.950 . S
C1020 C1019 1.349 . S
C1020 C1032 1.349 . S
C1021 C1019 1.327 . S
C1021 C1037 1.429 . S
C1021 H1043 0.950 . S
C1022 H1018 0.949 . S
C1022 C1030 1.574 . S
C1022 C1038 1.368 . S
H1023 C1031 0.950 . S
H1024 C1029 0.950 . S
H1025 C1030 0.949 . S
H1026 C1032 0.950 . S
H1027 C1033 0.950 . S
H1028 C1034 0.949 . S
C1029 H1024 0.950 . S
C1029 C1031 1.327 . S
C1029 C1035 1.429 . S
C1030 C1022 1.574 . S
C1030 H1025 0.949 . S
C1030 C1036 1.368 . S
C1031 C1015 1.349 . S
C1031 H1023 0.950 . S
C1031 C1029 1.327 . S
C1032 C1020 1.349 . S
C1032 H1026 0.950 . S
C1032 C1033 1.327 . S
C1033 H1027 0.950 . S
C1033 C1032 1.327 . S
C1033 C1037 1.429 . S
C1034 C1017 1.574 . S
C1034 H1028 0.949 . S
C1034 C1038 1.368 . S
C1035 C1016 1.429 . S
C1035 C1029 1.429 . S
C1035 C1036 1.523 . S
C1036 C1017 1.368 . S
C1036 C1030 1.368 . S
C1036 C1035 1.523 . S
C1037 C1021 1.429 . S
C1037 C1033 1.429 . S
C1037 C1038 1.523 . S
C1038 C1022 1.368 . S
C1038 C1034 1.368 . S
C1038 C1037 1.523 . S
H1039 C1014 0.950 . S
H1040 C1016 0.950 . S
H1041 C1017 0.949 . S
H1042 C1019 0.950 . S
H1043 C1021 0.950 . S
C1044 C1045 1.349 . S
C1044 C1046 1.327 . S
C1044 H1069 0.950 . S
C1045 C1044 1.349 . S
C1045 C1061 1.349 . S
C1046 C1044 1.327 . S
C1046 C1065 1.429 . S
C1046 H1070 0.950 . S
C1047 C1064 1.574 . S
C1047 C1066 1.368 . S
C1047 H1071 0.949 . S
H1048 C1052 0.949 . S
C1049 C1050 1.349 . S
C1049 C1051 1.327 . S
C1049 H1072 0.950 . S
C1050 C1049 1.349 . S
C1050 C1062 1.349 . S
C1051 C1049 1.327 . S
C1051 C1067 1.429 . S
C1051 H1073 0.950 . S
C1052 H1048 0.949 . S
C1052 C1060 1.574 . S
C1052 C1068 1.368 . S
H1053 C1061 0.950 . S
H1054 C1059 0.950 . S
H1055 C1060 0.949 . S
H1056 C1062 0.950 . S
H1057 C1063 0.950 . S
H1058 C1064 0.949 . S
C1059 H1054 0.950 . S
C1059 C1061 1.327 . S
C1059 C1065 1.429 . S
C1060 C1052 1.574 . S
C1060 H1055 0.949 . S
C1060 C1066 1.368 . S
C1061 C1045 1.349 . S
C1061 H1053 0.950 . S
C1061 C1059 1.327 . S
C1062 C1050 1.349 . S
C1062 H1056 0.950 . S
C1062 C1063 1.327 . S
C1063 H1057 0.950 . S
C1063 C1062 1.327 . S
C1063 C1067 1.429 . S
C1064 C1047 1.574 . S
C1064 H1058 0.949 . S
C1064 C1068 1.368 . S
C1065 C1046 1.429 . S
C1065 C1059 1.429 . S
C1065 C1066 1.523 . S
C1066 C1047 1.368 . S
C1066 C1060 1.368 . S
C1066 C1065 1.523 . S
C1067 C1051 1.429 . S
C1067 C1063 1.429 . S
C1067 C1068 1.523 . S
C1068 C1052 1.368 . S
C1068 C1064 1.368 . S
C1068 C1067 1.523 . S
H1069 C1044 0.950 . S
H1070 C1046 0.950 . S
H1071 C1047 0.949 . S
H1072 C1049 0.950 . S
H1073 C1051 0.950 . S
C1074 C1075 1.349 . S
C1074 C1076 1.327 . S
C1074 H1099 0.950 . S
C1075 C1074 1.349 . S
C1075 C1091 1.349 . S
C1076 C1074 1.327 . S
C1076 C1095 1.429 . S
C1076 H1100 0.950 . S
C1077 C1094 1.574 . S
C1077 C1096 1.368 . S
C1077 H1101 0.949 . S
H1078 C1082 0.949 . S
C1079 C1080 1.349 . S
C1079 C1081 1.327 . S
C1079 H1102 0.950 . S
C1080 C1079 1.349 . S
C1080 C1092 1.349 . S
C1081 C1079 1.327 . S
C1081 C1097 1.429 . S
C1081 H1103 0.950 . S
C1082 H1078 0.949 . S
C1082 C1090 1.574 . S
C1082 C1098 1.368 . S
H1083 C1091 0.950 . S
H1084 C1089 0.950 . S
H1085 C1090 0.949 . S
H1086 C1092 0.950 . S
H1087 C1093 0.950 . S
H1088 C1094 0.949 . S
C1089 H1084 0.950 . S
C1089 C1091 1.327 . S
C1089 C1095 1.429 . S
C1090 C1082 1.574 . S
C1090 H1085 0.949 . S
C1090 C1096 1.368 . S
C1091 C1075 1.349 . S
C1091 H1083 0.950 . S
C1091 C1089 1.327 . S
C1092 C1080 1.349 . S
C1092 H1086 0.950 . S
C1092 C1093 1.327 . S
C1093 H1087 0.950 . S
C1093 C1092 1.327 . S
C1093 C1097 1.429 . S
C1094 C1077 1.574 . S
C1094 H1088 0.949 . S
C1094 C1098 1.368 . S
C1095 C1076 1.429 . S
C1095 C1089 1.429 . S
C1095 C1096 1.523 . S
C1096 C1077 1.368 . S
C1096 C1090 1.368 . S
C1096 C1095 1.523 . S
C1097 C1081 1.429 . S
C1097 C1093 1.429 . S
C1097 C1098 1.523 . S
C1098 C1082 1.368 . S
C1098 C1094 1.368 . S
C1098 C1097 1.523 . S
H1099 C1074 0.950 . S
H1100 C1076 0.950 . S
H1101 C1077 0.949 . S
H1102 C1079 0.950 . S
H1103 C1081 0.950 . S
C1104 C1105 1.349 . S
C1104 C1106 1.327 . S
C1104 H1129 0.950 . S
C1105 C1104 1.349 . S
C1105 C1121 1.349 . S
C1106 C1104 1.327 . S
C1106 C1125 1.429 . S
C1106 H1130 0.950 . S
C1107 C1124 1.574 . S
C1107 C1126 1.368 . S
C1107 H1131 0.949 . S
H1108 C1112 0.949 . S
C1109 C1110 1.349 . S
C1109 C1111 1.327 . S
C1109 H1132 0.950 . S
C1110 C1109 1.349 . S
C1110 C1122 1.349 . S
C1111 C1109 1.327 . S
C1111 C1127 1.429 . S
C1111 H1133 0.950 . S
C1112 H1108 0.949 . S
C1112 C1120 1.574 . S
C1112 C1128 1.368 . S
H1113 C1121 0.950 . S
H1114 C1119 0.950 . S
H1115 C1120 0.949 . S
H1116 C1122 0.950 . S
H1117 C1123 0.950 . S
H1118 C1124 0.949 . S
C1119 H1114 0.950 . S
C1119 C1121 1.327 . S
C1119 C1125 1.429 . S
C1120 C1112 1.574 . S
C1120 H1115 0.949 . S
C1120 C1126 1.368 . S
C1121 C1105 1.349 . S
C1121 H1113 0.950 . S
C1121 C1119 1.327 . S
C1122 C1110 1.349 . S
C1122 H1116 0.950 . S
C1122 C1123 1.327 . S
C1123 H1117 0.950 . S
C1123 C1122 1.327 . S
C1123 C1127 1.429 . S
C1124 C1107 1.574 . S
C1124 H1118 0.949 . S
C1124 C1128 1.368 . S
C1125 C1106 1.429 . S
C1125 C1119 1.429 . S
C1125 C1126 1.523 . S
C1126 C1107 1.368 . S
C1126 C1120 1.368 . S
C1126 C1125 1.523 . S
C1127 C1111 1.429 . S
C1127 C1123 1.429 . S
C1127 C1128 1.523 . S
C1128 C1112 1.368 . S
C1128 C1124 1.368 . S
C1128 C1127 1.523 . S
H1129 C1104 0.950 . S
H1130 C1106 0.950 . S
H1131 C1107 0.949 . S
H1132 C1109 0.950 . S
H1133 C1111 0.950 . S
C1134 C1135 1.349 . S
C1134 C1136 1.327 . S
C1134 H1159 0.950 . S
C1135 C1134 1.349 . S
C1135 C1151 1.349 . S
C1136 C1134 1.327 . S
C1136 C1155 1.429 . S
C1136 H1160 0.950 . S
C1137 C1154 1.574 . S
C1137 C1156 1.368 . S
C1137 H1161 0.949 . S
H1138 C1142 0.949 . S
C1139 C1140 1.349 . S
C1139 C1141 1.327 . S
C1139 H1162 0.950 . S
C1140 C1139 1.349 . S
C1140 C1152 1.349 . S
C1141 C1139 1.327 . S
C1141 C1157 1.429 . S
C1141 H1163 0.950 . S
C1142 H1138 0.949 . S
C1142 C1150 1.574 . S
C1142 C1158 1.368 . S
H1143 C1151 0.950 . S
H1144 C1149 0.950 . S
H1145 C1150 0.949 . S
H1146 C1152 0.950 . S
H1147 C1153 0.950 . S
H1148 C1154 0.949 . S
C1149 H1144 0.950 . S
C1149 C1151 1.327 . S
C1149 C1155 1.429 . S
C1150 C1142 1.574 . S
C1150 H1145 0.949 . S
C1150 C1156 1.368 . S
C1151 C1135 1.349 . S
C1151 H1143 0.950 . S
C1151 C1149 1.327 . S
C1152 C1140 1.349 . S
C1152 H1146 0.950 . S
C1152 C1153 1.327 . S
C1153 H1147 0.950 . S
C1153 C1152 1.327 . S
C1153 C1157 1.429 . S
C1154 C1137 1.574 . S
C1154 H1148 0.949 . S
C1154 C1158 1.368 . S
C1155 C1136 1.429 . S
C1155 C1149 1.429 . S
C1155 C1156 1.523 . S
C1156 C1137 1.368 . S
C1156 C1150 1.368 . S
C1156 C1155 1.523 . S
C1157 C1141 1.429 . S
C1157 C1153 1.429 . S
C1157 C1158 1.523 . S
C1158 C1142 1.368 . S
C1158 C1154 1.368 . S
C1158 C1157 1.523 . S
H1159 C1134 0.950 . S
H1160 C1136 0.950 . S
H1161 C1137 0.949 . S
H1162 C1139 0.950 . S
H1163 C1141 0.950 . S
C445 C39 1.667 . S
C450 C327 1.514 . S
C475 C91 1.660 . S
C480 C348 1.528 . S
C510 C369 1.369 . S
C505 C128 1.486 . S
C540 C398 1.422 . S
C535 C188 1.486 . S
C570 C411 1.420 . S
C565 C250 1.528 . S
C600 C435 1.565 . S
C595 C304 1.659 . S
C625 C75 1.551 . S
C630 C379 1.426 . S
C655 C144 1.704 . S
C660 C393 1.594 . S
C690 C421 1.482 . S
C685 C198 1.602 . S
C720 C440 1.438 . S
C715 C234 1.515 . S
C745 C294 1.425 . S
C750 C337 1.339 . S
C780 C358 1.410 . S
C775 C29 1.505 . S
C810 C400 1.599 . S
C805 C38 1.685 . S
C835 C92 1.690 . S
C840 C414 1.521 . S
C870 C432 1.451 . S
C865 C135 1.514 . S
C895 C181 1.505 . S
C900 C330 1.368 . S
C925 C251 1.557 . S
C930 C351 1.415 . S
C955 C303 1.691 . S
C960 C372 1.504 . S
C985 C82 1.576 . S
C990 C442 1.499 . S
C1020 C335 1.552 . S
C1015 C145 1.728 . S
C1045 C197 1.634 . S
C1050 C356 1.477 . S
C1075 C241 1.541 . S
C1080 C377 1.397 . S
C1105 C287 1.452 . S
C1110 C390 1.398 . S
C1135 C22 1.534 . S
C1140 C419 1.405 . S
