# Generated by pormake.
# Topology tsx, (6,3)-cn, num edge types: 1
# Building blocks:
#     Node 0, Type 0, BuildingBlock: JUFBIX_clean_sbu_0, # of connection points: 6
#     Node 1, Type 0, BuildingBlock: JUFBIX_clean_sbu_0, # of connection points: 6
#     Node 2, Type 1, BuildingBlock: KAKCAD_clean_linker_0, # of connection points: 3
#     Node 3, Type 1, BuildingBlock: KAKCAD_clean_linker_0, # of connection points: 3
#     Node 4, Type 1, BuildingBlock: KAKCAD_clean_linker_0, # of connection points: 3
#     Node 5, Type 1, BuildingBlock: KAKCAD_clean_linker_0, # of connection points: 3
#     Edge 6, Type (0, 1), BuildingBlock: TEMPAE_clean_linker_10, # of connection points: 2
#     Edge 7, Type (0, 1), BuildingBlock: TEMPAE_clean_linker_10, # of connection points: 2
#     Edge 8, Type (0, 1), BuildingBlock: TEMPAE_clean_linker_10, # of connection points: 2
#     Edge 9, Type (0, 1), BuildingBlock: TEMPAE_clean_linker_10, # of connection points: 2
#     Edge 10, Type (0, 1), BuildingBlock: TEMPAE_clean_linker_10, # of connection points: 2
#     Edge 11, Type (0, 1), BuildingBlock: TEMPAE_clean_linker_10, # of connection points: 2
#     Edge 12, Type (0, 1), BuildingBlock: TEMPAE_clean_linker_10, # of connection points: 2
#     Edge 13, Type (0, 1), BuildingBlock: TEMPAE_clean_linker_10, # of connection points: 2
#     Edge 14, Type (0, 1), BuildingBlock: TEMPAE_clean_linker_10, # of connection points: 2
#     Edge 15, Type (0, 1), BuildingBlock: TEMPAE_clean_linker_10, # of connection points: 2
#     Edge 16, Type (0, 1), BuildingBlock: TEMPAE_clean_linker_10, # of connection points: 2
#     Edge 17, Type (0, 1), BuildingBlock: TEMPAE_clean_linker_10, # of connection points: 2
# Relax obj value: 0.159
# Max RMSD: 0.166
# Mean RMSD: 0.134
data_MOF--net-tsx--node1-JUFBIX_clean_sbu_0--node2-KAKCAD_clean_linker_0--edge1-TEMPAE_clean_linker_10
_symmetry_space_group_name_H-M    P1
_symmetry_Int_Tables_number       1
_symmetry_cell_setting            triclinic
loop_
_symmetry_equiv_pos_as_xyz
'x, y, z'
_cell_length_a     24.210545
_cell_length_b     28.753192
_cell_length_c     43.956656
_cell_angle_alpha  92.64735
_cell_angle_beta   89.565321
_cell_angle_gamma 97.700265
loop_
_atom_site_label
_atom_site_type_symbol
_atom_site_fract_x
_atom_site_fract_y
_atom_site_fract_z
_atom_type_partial_charge
Co0 Co 0.05784 0.00115 0.01408 0.0
C1 C 0.01085 0.0253 0.95934 0.0
Co2 Co 0.98376 0.03849 0.0192 0.0
C3 C 0.13439 0.93119 0.01672 0.0
C4 C 0.16606 0.99011 0.99069 0.0
N5 N 0.12161 0.97258 0.00725 0.0
N6 N 0.18526 0.92255 0.00686 0.0
C7 C 0.20516 0.95964 0.9905 0.0
H8 H 0.10698 0.90793 0.03058 0.0
H9 H 0.16954 0.02275 0.9791 0.0
C10 C 0.0309 0.01514 0.07403 0.0
N11 N 0.92024 0.06683 0.02677 0.0
C12 C 0.90489 0.10673 0.01638 0.0
C13 C 0.88054 0.05206 0.04718 0.0
N14 N 0.85765 0.11756 0.02994 0.0
C15 C 0.84224 0.08317 0.04924 0.0
C16 C 0.96013 0.94066 0.01393 0.0
O17 O 0.06586 0.99727 0.05692 0.0
O18 O 0.99263 0.03424 0.06193 0.0
O19 O 0.93936 0.97886 0.01691 0.0
O20 O 0.01266 0.94149 0.01246 0.0
O21 O 0.97591 0.04273 0.97672 0.0
H22 H 0.8802 0.02111 0.0603 0.0
H23 H 0.92885 0.12823 1.00006 0.0
O24 O 0.0491 0.00548 0.97107 0.0
O25 O 0.10217 0.06138 0.01594 0.0
O26 O 0.02843 0.09778 0.02096 0.0
C27 C 0.08099 0.0995 0.01871 0.0
H28 H 0.24453 0.9638 0.97843 0.0
H29 H 0.80585 0.08079 0.06385 0.0
Co30 Co 0.53459 0.46873 0.50985 0.0
C31 C 0.48449 0.49703 0.45744 0.0
Co32 Co 0.46546 0.51086 0.51837 0.0
C33 C 0.61094 0.39727 0.51035 0.0
C34 C 0.63389 0.45168 0.47919 0.0
N35 N 0.59508 0.43715 0.50009 0.0
N36 N 0.65786 0.38635 0.49633 0.0
C37 C 0.67227 0.42074 0.47683 0.0
H38 H 0.58807 0.37632 0.52732 0.0
H39 H 0.63423 0.48293 0.46636 0.0
C40 C 0.51565 0.48348 0.57089 0.0
N41 N 0.40595 0.54316 0.52818 0.0
C42 C 0.39243 0.58319 0.51708 0.0
C43 C 0.36765 0.53177 0.54998 0.0
N44 N 0.34749 0.59736 0.53134 0.0
C45 C 0.33181 0.56499 0.55201 0.0
C46 C 0.43364 0.41365 0.51308 0.0
O47 O 0.5459 0.46251 0.55245 0.0
O48 O 0.47921 0.50629 0.56034 0.0
O49 O 0.41716 0.45339 0.51829 0.0
O50 O 0.48503 0.41131 0.50806 0.0
O51 O 0.45252 0.51548 0.47614 0.0
H52 H 0.36628 0.50144 0.56379 0.0
H53 H 0.41592 0.60213 0.49942 0.0
O54 O 0.52244 0.4754 0.46761 0.0
O55 O 0.58335 0.52669 0.51162 0.0
O56 O 0.5141 0.5679 0.51853 0.0
C57 C 0.56595 0.56638 0.5152 0.0
H58 H 0.70847 0.42368 0.46209 0.0
H59 H 0.29665 0.56512 0.56737 0.0
C60 C 0.02898 0.9705 0.3192 0.0
C61 C 0.03751 0.01296 0.30414 0.0
C62 C 0.02778 0.97047 0.35097 0.0
C63 C 0.03568 0.01287 0.36866 0.0
C64 C 0.04407 0.05541 0.35366 0.0
C65 C 0.04489 0.05546 0.32179 0.0
C66 C 0.03541 0.01229 0.40259 0.0
C67 C 0.05939 0.97756 0.41721 0.0
C68 C 0.05671 0.97435 0.449 0.0
C69 C 0.03071 0.00737 0.46654 0.0
C70 C 0.00749 0.04312 0.4524 0.0
C71 C 0.01002 0.04528 0.42046 0.0
C72 C 0.97787 0.0771 0.47043 0.0
C73 C 0.93524 0.06138 0.49086 0.0
C74 C 0.98852 0.12522 0.46506 0.0
C75 C 0.9551 0.15661 0.47834 0.0
C76 C 0.91001 0.14058 0.49723 0.0
C77 C 0.08088 0.93583 0.46325 0.0
C78 C 0.07192 0.89013 0.44987 0.0
C79 C 0.1158 0.94472 0.48883 0.0
C80 C 0.14301 0.90897 0.49997 0.0
C81 C 0.13565 0.86363 0.48578 0.0
C82 C 0.09906 0.85456 0.4609 0.0
C83 C 0.90149 0.0928 0.50408 0.0
H84 H 0.02378 0.93707 0.30645 0.0
H85 H 0.02026 0.937 0.36165 0.0
H86 H 0.0507 0.08872 0.36651 0.0
H87 H 0.05084 0.08887 0.311 0.0
H88 H 0.08089 0.95297 0.40378 0.0
H89 H 0.9902 0.07167 0.40946 0.0
H90 H 0.02804 0.00498 0.49105 0.0
H91 H 0.92603 0.02441 0.49531 0.0
H92 H 0.02149 0.13832 0.44963 0.0
H93 H 0.9627 0.19303 0.47236 0.0
H94 H 0.04467 0.88204 0.43035 0.0
H95 H 0.1237 0.97967 0.49949 0.0
H96 H 0.86753 0.07943 0.51881 0.0
H97 H 0.09276 0.82031 0.44918 0.0
H98 H 0.17038 0.91697 0.51942 0.0
C99 C 0.98679 0.07458 0.71396 0.0
C100 C 0.99192 0.03416 0.73005 0.0
C101 C 0.98433 0.07223 0.68206 0.0
C102 C 0.98683 0.02941 0.66566 0.0
C103 C 0.99341 0.9894 0.68178 0.0
C104 C 0.9959 0.99174 0.71351 0.0
C105 C 0.98161 0.02562 0.63191 0.0
C106 C 0.01066 0.05942 0.6135 0.0
C107 C 0.00899 0.05316 0.58154 0.0
C108 C 0.97695 0.01343 0.56798 0.0
C109 C 0.94693 0.97996 0.58609 0.0
C110 C 0.94925 0.98643 0.61791 0.0
C111 C 0.91405 0.93731 0.57224 0.0
C112 C 0.87496 0.94047 0.54923 0.0
C113 C 0.91926 0.89324 0.58352 0.0
C114 C 0.88414 0.85339 0.57318 0.0
C115 C 0.8427 0.85676 0.55149 0.0
C116 C 0.04521 0.08582 0.56265 0.0
C117 C 0.04342 0.13438 0.5657 0.0
C118 C 0.0855 0.06876 0.54359 0.0
C119 C 0.12585 0.09994 0.52947 0.0
C120 C 0.12589 0.14862 0.53383 0.0
C121 C 0.08319 0.16557 0.55114 0.0
C122 C 0.83939 0.90048 0.53898 0.0
H123 H 0.98335 0.10775 0.72605 0.0
H124 H 0.97905 0.10361 0.6703 0.0
H125 H 0.99685 0.95612 0.66981 0.0
H126 H 1.00124 0.96022 0.72513 0.0
H127 H 0.03697 0.08925 0.62398 0.0
H128 H 0.92552 0.96074 0.63188 0.0
H129 H 0.97651 0.00802 0.54342 0.0
H130 H 0.87021 0.97414 0.54022 0.0
H131 H 0.94989 0.88977 0.60083 0.0
H132 H 0.88869 0.82 0.58266 0.0
H133 H 0.01247 0.14819 0.58018 0.0
H134 H 0.08771 0.03141 0.54107 0.0
H135 H 0.80778 0.90418 0.52229 0.0
H136 H 0.08262 0.20299 0.55496 0.0
H137 H 0.15835 0.08614 0.51617 0.0
C138 C 0.51162 0.44525 0.81729 0.0
C139 C 0.5242 0.48562 0.80035 0.0
C140 C 0.50683 0.44899 0.84899 0.0
C141 C 0.51482 0.49318 0.86463 0.0
C142 C 0.52729 0.53358 0.84769 0.0
C143 C 0.53184 0.52985 0.81595 0.0
C144 C 0.51117 0.49689 0.8985 0.0
C145 C 0.53324 0.46436 0.91605 0.0
C146 C 0.52996 0.46682 0.948 0.0
C147 C 0.5051 0.50332 0.9627 0.0
C148 C 0.48323 0.5367 0.94548 0.0
C149 C 0.4861 0.53286 0.91344 0.0
C150 C 0.45671 0.57567 0.96033 0.0
C151 C 0.41733 0.56753 0.98386 0.0
C152 C 0.46769 0.62099 0.94917 0.0
C153 C 0.43744 0.65647 0.95968 0.0
C154 C 0.39546 0.64768 0.9817 0.0
C155 C 0.55444 0.43143 0.96529 0.0
C156 C 0.54602 0.38403 0.95503 0.0
C157 C 0.5911 0.44504 0.98969 0.0
C158 C 0.62161 0.41236 0.00211 0.0
C159 C 0.61586 0.36551 0.99039 0.0
C160 C 0.57651 0.35158 0.96725 0.0
C161 C 0.38695 0.60331 0.9945 0.0
H162 H 0.50593 0.4106 0.8061 0.0
H163 H 0.4965 0.41714 0.86124 0.0
H164 H 0.53427 0.56814 0.85898 0.0
H165 H 0.54078 0.56174 0.80362 0.0
H166 H 0.5545 0.4375 0.90476 0.0
H167 H 0.46765 0.55747 0.90004 0.0
H168 H 0.50301 0.50584 0.98734 0.0
H169 H 0.40805 0.53298 0.99297 0.0
H170 H 0.4988 0.62872 0.93162 0.0
H171 H 0.44603 0.69067 0.94999 0.0
H172 H 0.5174 0.37236 0.93654 0.0
H173 H 0.59837 0.48135 0.9981 0.0
H174 H 0.35502 0.5956 0.01161 0.0
H175 H 0.57111 0.31606 0.9574 0.0
H176 H 0.65079 0.42408 0.02031 0.0
C177 C 0.48623 0.57778 0.21707 0.0
C178 C 0.47813 0.53362 0.23013 0.0
C179 C 0.48881 0.58114 0.18543 0.0
C180 C 0.4831 0.54043 0.16613 0.0
C181 C 0.47532 0.4963 0.17917 0.0
C182 C 0.47298 0.49294 0.21077 0.0
C183 C 0.48408 0.54394 0.1325 0.0
C184 C 0.52381 0.57605 0.11847 0.0
C185 C 0.52424 0.58038 0.08663 0.0
C186 C 0.4849 0.55068 0.0687 0.0
C187 C 0.44498 0.51833 0.08255 0.0
C188 C 0.44484 0.51532 0.11434 0.0
C189 C 0.40324 0.48646 0.06452 0.0
C190 C 0.34691 0.48277 0.07305 0.0
C191 C 0.42005 0.45455 0.04229 0.0
C192 C 0.38196 0.41679 0.03101 0.0
C193 C 0.32674 0.41067 0.04185 0.0
C194 C 0.56552 0.61646 0.07268 0.0
C195 C 0.58148 0.65982 0.08839 0.0
C196 C 0.59063 0.60777 0.04436 0.0
C197 C 0.63185 0.64116 0.0326 0.0
C198 C 0.64922 0.68381 0.04901 0.0
C199 C 0.62314 0.6926 0.07699 0.0
C200 C 0.30902 0.44529 0.0618 0.0
H201 H 0.48965 0.60982 0.23127 0.0
H202 H 0.49413 0.61564 0.17605 0.0
H203 H 0.4716 0.46429 0.16491 0.0
H204 H 0.4678 0.45837 0.22005 0.0
H205 H 0.55518 0.59714 0.1325 0.0
H206 H 0.41387 0.49042 0.12501 0.0
H207 H 0.48413 0.55349 0.04422 0.0
H208 H 0.3329 0.50738 0.08986 0.0
H209 H 0.46336 0.45674 0.03542 0.0
H210 H 0.39668 0.39064 0.01557 0.0
H211 H 0.56218 0.66849 0.10984 0.0
H212 H 0.57953 0.57475 0.03159 0.0
H213 H 0.26642 0.44197 0.07 0.0
H214 H 0.6357 0.72446 0.0907 0.0
H215 H 0.65027 0.63337 0.01075 0.0
C216 C 0.17512 0.14738 0.022 0.0
C217 C 0.11718 0.14529 0.01909 0.0
C218 C 0.2098 0.19063 0.02332 0.0
C219 C 0.18602 0.23277 0.02131 0.0
C220 C 0.12775 0.2308 0.01738 0.0
C221 C 0.09397 0.1871 0.01652 0.0
C222 C 0.27167 0.1913 0.02791 0.0
C223 C 0.10093 0.27494 0.01486 0.0
C224 C 0.26234 0.34288 0.06022 0.0
C225 C 0.28968 0.36584 0.03577 0.0
C226 C 0.22852 0.29969 0.05572 0.0
C227 C 0.22144 0.27894 0.02596 0.0
C228 C 0.24864 0.302 1.00107 0.0
C229 C 0.28293 0.34513 0.00631 0.0
C230 C 0.20096 0.27596 0.08295 0.0
C231 C 0.24153 0.2811 0.96899 0.0
H232 H 0.19338 0.11521 0.02393 0.0
H233 H 0.04928 0.18573 0.01393 0.0
H234 H 0.29537 0.21176 0.01015 0.0
H235 H 0.28409 0.20893 0.05028 0.0
H236 H 0.28399 0.15541 0.02723 0.0
H237 H 0.05584 0.26721 0.00931 0.0
H238 H 0.10556 0.29598 0.03671 0.0
H239 H 0.12209 0.29698 0.99703 0.0
H240 H 0.26841 0.3583 0.08313 0.0
H241 H 0.30405 0.36285 0.9874 0.0
H242 H 0.21469 0.24092 0.08492 0.0
H243 H 0.15507 0.27031 0.07996 0.0
H244 H 0.21084 0.29681 0.1046 0.0
H245 H 0.25666 0.24632 0.96743 0.0
H246 H 0.26449 0.30393 0.95207 0.0
H247 H 0.19668 0.27533 0.96284 0.0
C248 C 0.27036 0.88509 0.01152 0.0
C249 C 0.21203 0.88129 0.0107 0.0
C250 C 0.29772 0.84505 0.01107 0.0
C251 C 0.26602 0.7999 0.00964 0.0
C252 C 0.20704 0.79581 0.01068 0.0
C253 C 0.18071 0.83662 0.01128 0.0
C254 C 0.36065 0.85113 0.01031 0.0
C255 C 0.17171 0.74836 0.00923 0.0
C256 C 0.33735 0.70787 0.96603 0.0
C257 C 0.35882 0.68412 0.98948 0.0
C258 C 0.30549 0.74438 0.97239 0.0
C259 C 0.29465 0.75772 0.00303 0.0
C260 C 0.31447 0.73281 0.02687 0.0
C261 C 0.34625 0.69611 0.0198 0.0
C262 C 0.28485 0.76964 0.94622 0.0
C263 C 0.30374 0.74597 0.0598 0.0
H264 H 0.29471 0.91957 0.01171 0.0
H265 H 0.13564 0.83344 0.01056 0.0
H266 H 0.37692 0.8291 0.02731 0.0
H267 H 0.37496 0.83934 0.98754 0.0
H268 H 0.37909 0.88827 0.01492 0.0
H269 H 0.12729 0.75097 0.01462 0.0
H270 H 0.17406 0.73199 0.98598 0.0
H271 H 0.18752 0.72459 0.02529 0.0
H272 H 0.3459 0.69804 0.94253 0.0
H273 H 0.36274 0.67782 0.03799 0.0
H274 H 0.3047 0.80678 0.94713 0.0
H275 H 0.23916 0.76985 0.94806 0.0
H276 H 0.2942 0.75325 0.92372 0.0
H277 H 0.32667 0.78121 0.06578 0.0
H278 H 0.31719 0.72042 0.07548 0.0
H279 H 0.25877 0.74811 0.06355 0.0
C280 C 0.88267 0.88595 0.99052 0.0
C281 C 0.92277 0.89609 0.01346 0.0
C282 C 0.84104 0.84718 0.99215 0.0
C283 C 0.83828 0.81939 0.01803 0.0
C284 C 0.88016 0.82867 0.04072 0.0
C285 C 0.92253 0.86667 0.03789 0.0
C286 C 0.79846 0.83746 0.96696 0.0
C287 C 0.87793 0.80074 0.06905 0.0
C288 C 0.69484 0.76689 0.04423 0.0
C289 C 0.69551 0.71862 0.03795 0.0
C290 C 0.74089 0.79987 0.03769 0.0
C291 C 0.78819 0.78464 0.02328 0.0
C292 C 0.788 0.73644 0.01507 0.0
C293 C 0.74203 0.70389 0.0229 0.0
C294 C 0.73954 0.85091 0.04718 0.0
C295 C 0.83689 0.71912 0.99871 0.0
H296 H 0.88317 0.90904 0.97165 0.0
H297 H 0.95339 0.87519 0.05575 0.0
H298 H 0.79099 0.79934 0.9606 0.0
H299 H 0.75823 0.84811 0.97494 0.0
H300 H 0.81173 0.85701 0.94635 0.0
H301 H 0.91574 0.81014 0.08338 0.0
H302 H 0.84092 0.80737 0.08282 0.0
H303 H 0.87336 0.76257 0.06296 0.0
H304 H 0.65856 0.77903 0.05488 0.0
H305 H 0.74344 0.66679 0.01804 0.0
H306 H 0.74482 0.87283 0.02699 0.0
H307 H 0.77465 0.86337 0.06289 0.0
H308 H 0.69995 0.85681 0.05875 0.0
H309 H 0.84913 0.7407 0.97885 0.0
H310 H 0.82752 0.68171 0.99066 0.0
H311 H 0.87329 0.72271 0.01421 0.0
C312 C 0.8232 0.1738 0.99646 0.0
C313 C 0.82939 0.15769 0.02564 0.0
C314 C 0.79077 0.20988 0.99177 0.0
C315 C 0.76497 0.23083 0.017 0.0
C316 C 0.77338 0.2161 0.04668 0.0
C317 C 0.80506 0.17941 0.05059 0.0
C318 C 0.7822 0.22421 0.95972 0.0
C319 C 0.7477 0.2382 0.07423 0.0
C320 C 0.71019 0.34673 0.00535 0.0
C321 C 0.65319 0.33187 1.00033 0.0
C322 C 0.74694 0.31443 0.01149 0.0
C323 C 0.72641 0.26602 0.01216 0.0
C324 C 0.66879 0.25092 0.00788 0.0
C325 C 0.63288 0.28403 0.00235 0.0
C326 C 0.80794 0.33196 0.01651 0.0
C327 C 0.64522 0.19959 0.00837 0.0
H328 H 0.84177 0.15676 0.97719 0.0
H329 H 0.81061 0.16737 0.07322 0.0
H330 H 0.7375 0.21578 0.95355 0.0
H331 H 0.79359 0.26269 0.95818 0.0
H332 H 0.80722 0.20609 0.94278 0.0
H333 H 0.76208 0.22545 0.0959 0.0
H334 H 0.75808 0.277 0.07453 0.0
H335 H 0.70164 0.23004 0.07313 0.0
H336 H 0.72657 0.38345 0.00347 0.0
H337 H 0.58881 0.27225 0.99912 0.0
H338 H 0.833 0.31795 0.99786 0.0
H339 H 0.82226 0.31909 0.03812 0.0
H340 H 0.81661 0.37093 0.01735 0.0
H341 H 0.6655 0.17927 0.99044 0.0
H342 H 0.59945 0.19361 0.00459 0.0
H343 H 0.65419 0.18537 0.03057 0.0
C344 C 0.58678 0.65394 0.52068 0.0
C345 C 0.60582 0.61014 0.5163 0.0
C346 C 0.6244 0.69546 0.52366 0.0
C347 C 0.68237 0.69302 0.5223 0.0
C348 C 0.70179 0.64912 0.51678 0.0
C349 C 0.66327 0.60818 0.51383 0.0
C350 C 0.60215 0.74169 0.52942 0.0
C351 C 0.76334 0.64515 0.51522 0.0
C352 C 0.78424 0.80431 0.51333 0.0
C353 C 0.80119 0.81525 0.54355 0.0
C354 C 0.74517 0.76476 0.50597 0.0
C355 C 0.72272 0.73568 0.52941 0.0
C356 C 0.73929 0.74688 0.55995 0.0
C357 C 0.77812 0.78657 0.56664 0.0
C358 C 0.72828 0.75384 0.47316 0.0
C359 C 0.71616 0.71684 0.58562 0.0
H360 H 0.54242 0.65579 0.5224 0.0
H361 H 0.67833 0.5745 0.51024 0.0
H362 H 0.61359 0.75589 0.55276 0.0
H363 H 0.62116 0.76783 0.5133 0.0
H364 H 0.55608 0.73811 0.52715 0.0
H365 H 0.7715 0.60902 0.50836 0.0
H366 H 0.78435 0.66987 0.49879 0.0
H367 H 0.78258 0.65495 0.53784 0.0
H368 H 0.80214 0.82626 0.4954 0.0
H369 H 0.7901 0.79542 0.59012 0.0
H370 H 0.6824 0.75182 0.4709 0.0
H371 H 0.73963 0.71903 0.46555 0.0
H372 H 0.7485 0.78062 0.45775 0.0
H373 H 0.67011 0.71496 0.58644 0.0
H374 H 0.73328 0.73057 0.60815 0.0
H375 H 0.72597 0.68045 0.58161 0.0
C376 C 0.6899 0.32715 0.52899 0.0
C377 C 0.68731 0.34663 0.50043 0.0
C378 C 0.72279 0.2911 0.53341 0.0
C379 C 0.75351 0.27417 0.50864 0.0
C380 C 0.74938 0.29271 0.47959 0.0
C381 C 0.71638 0.32849 0.47588 0.0
C382 C 0.72591 0.27207 0.56467 0.0
C383 C 0.78089 0.27549 0.45243 0.0
C384 C 0.88691 0.21986 0.51542 0.0
C385 C 0.86893 0.17277 0.50662 0.0
C386 C 0.849 0.25275 0.51853 0.0
C387 C 0.79164 0.23823 0.51271 0.0
C388 C 0.77271 0.19006 0.50622 0.0
C389 C 0.81156 0.15792 0.50322 0.0
C390 C 0.87098 0.30366 0.52577 0.0
C391 C 0.71196 0.17298 0.50004 0.0
H392 H 0.66774 0.34116 0.54807 0.0
H393 H 0.71358 0.34263 0.45361 0.0
H394 H 0.71705 0.23316 0.56338 0.0
H395 H 0.76872 0.28148 0.57383 0.0
H396 H 0.69616 0.28614 0.58089 0.0
H397 H 0.77201 0.29274 0.43124 0.0
H398 H 0.82638 0.28244 0.45686 0.0
H399 H 0.76985 0.23697 0.44862 0.0
H400 H 0.93105 0.23144 0.51864 0.0
H401 H 0.79719 0.1217 0.49623 0.0
H402 H 0.845 0.31889 0.5435 0.0
H403 H 0.8689 0.32397 0.50503 0.0
H404 H 0.91491 0.30823 0.53373 0.0
H405 H 0.68507 0.18876 0.51707 0.0
H406 H 0.7027 0.1341 0.50035 0.0
H407 H 0.7007 0.184 0.47729 0.0
C408 C 0.39253 0.33492 0.49126 0.0
C409 C 0.39278 0.37101 0.51378 0.0
C410 C 0.35047 0.29607 0.49073 0.0
C411 C 0.30926 0.29276 0.51389 0.0
C412 C 0.31069 0.32861 0.53719 0.0
C413 C 0.35184 0.36771 0.5365 0.0
C414 C 0.3492 0.25927 0.46503 0.0
C415 C 0.26871 0.32577 0.56287 0.0
C416 C 0.1664 0.22075 0.50749 0.0
C417 C 0.17412 0.1817 0.52406 0.0
C418 C 0.21123 0.2557 0.502 0.0
C419 C 0.26443 0.25201 0.5142 0.0
C420 C 0.27277 0.21161 0.52986 0.0
C421 C 0.22756 0.17667 0.53432 0.0
C422 C 0.20102 0.29766 0.48449 0.0
C423 C 0.32837 0.20682 0.54388 0.0
H424 H 0.42398 0.33796 0.47351 0.0
H425 H 0.35239 0.39568 0.55397 0.0
H426 H 0.35083 0.2242 0.4742 0.0
H427 H 0.30945 0.25727 0.45233 0.0
H428 H 0.38439 0.26692 0.44886 0.0
H429 H 0.27759 0.35533 0.58007 0.0
H430 H 0.22625 0.3262 0.55369 0.0
H431 H 0.26852 0.29225 0.57445 0.0
H432 H 0.12501 0.22443 0.4995 0.0
H433 H 0.23331 0.14668 0.54746 0.0
H434 H 0.23428 0.30566 0.46727 0.0
H435 H 0.20206 0.32894 0.50033 0.0
H436 H 0.15998 0.29197 0.4728 0.0
H437 H 0.36242 0.2137 0.52701 0.0
H438 H 0.3294 0.17139 0.55275 0.0
H439 H 0.33706 0.23333 0.563 0.0
C440 C 0.3194 0.65502 0.4966 0.0
C441 C 0.32134 0.6384 0.52599 0.0
C442 C 0.29091 0.69319 0.49087 0.0
C443 C 0.26433 0.71554 0.51521 0.0
C444 C 0.26767 0.6998 0.54508 0.0
C445 C 0.29591 0.6613 0.55007 0.0
C446 C 0.28788 0.7087 0.45865 0.0
C447 C 0.24059 0.72309 0.5717 0.0
C448 C 0.22452 0.8369 0.50301 0.0
C449 C 0.16776 0.82629 0.49567 0.0
C450 C 0.25634 0.80133 0.5099 0.0
C451 C 0.23091 0.75399 0.50921 0.0
C452 C 0.17342 0.74317 0.50245 0.0
C453 C 0.14253 0.77943 0.49596 0.0
C454 C 0.31742 0.81428 0.5173 0.0
C455 C 0.14472 0.69313 0.50154 0.0
H456 H 0.33862 0.63718 0.47792 0.0
H457 H 0.29816 0.64907 0.57291 0.0
H458 H 0.24385 0.70363 0.45095 0.0
H459 H 0.30339 0.7467 0.45768 0.0
H460 H 0.31257 0.68886 0.4425 0.0
H461 H 0.24958 0.70821 0.59373 0.0
H462 H 0.25531 0.76137 0.573 0.0
H463 H 0.19476 0.71874 0.56845 0.0
H464 H 0.24458 0.87288 0.50247 0.0
H465 H 0.09851 0.77098 0.49083 0.0
H466 H 0.34299 0.79815 0.49974 0.0
H467 H 0.32693 0.80025 0.53947 0.0
H468 H 0.33024 0.8529 0.51836 0.0
H469 H 0.16482 0.67168 0.48417 0.0
H470 H 0.09966 0.69065 0.49608 0.0
H471 H 0.14906 0.67743 0.52384 0.0
C472 C 0.07025 0.98762 0.12174 0.0
C473 C 0.03427 0.01443 0.10768 0.0
C474 C 0.07271 0.98653 0.15366 0.0
C475 C 0.03882 0.01326 0.1719 0.0
C476 C 1.00289 0.04073 0.1578 0.0
C477 C 1.00085 0.04079 0.12593 0.0
C478 C 0.11113 0.95644 0.16788 0.0
C479 C 0.96641 0.07002 0.1764 0.0
C480 C 1.00153 0.98013 0.25296 0.0
C481 C 0.0385 0.01273 0.27018 0.0
C482 C 1.00208 0.97924 0.22099 0.0
C483 C 0.04006 0.01211 0.20576 0.0
C484 C 0.07756 0.04506 0.22292 0.0
C485 C 0.0765 0.04485 0.25488 0.0
C486 C 0.96145 0.94348 0.20353 0.0
C487 C 0.11843 0.08088 0.20751 0.0
H488 H 0.09607 0.96706 0.10781 0.0
H489 H 0.97307 0.0618 0.1153 0.0
H490 H 0.14093 0.97841 0.1834 0.0
H491 H 0.08657 0.92979 0.18181 0.0
H492 H 0.1351 0.93805 0.15056 0.0
H493 H 0.94166 0.09024 0.16193 0.0
H494 H 0.93726 0.04706 0.1906 0.0
H495 H 0.99245 0.09505 0.1921 0.0
H496 H 0.97139 0.95563 0.26447 0.0
H497 H 0.10584 0.06968 0.2679 0.0
H498 H 0.98415 0.92282 0.18689 0.0
H499 H 0.93246 0.96166 0.19041 0.0
H500 H 0.93653 0.91885 0.21871 0.0
H501 H 0.14533 0.06293 0.19158 0.0
H502 H 0.14544 0.10361 0.22408 0.0
H503 H 0.09554 0.10354 0.19382 0.0
C504 C 0.96622 0.05104 0.91278 0.0
C505 C 0.00756 0.02843 0.92583 0.0
C506 C 0.96276 0.0542 0.88107 0.0
C507 C 1.0015 0.03424 0.86193 0.0
C508 C 0.04353 0.01167 0.87496 0.0
C509 C 0.04607 0.00905 0.90672 0.0
C510 C 0.91737 0.07856 0.86803 0.0
C511 C 0.08556 0.98987 0.85532 0.0
C512 C 0.96268 0.999 0.77973 0.0
C513 C 0.99258 0.03563 0.76394 0.0
C514 C 0.96464 0.9985 0.8116 0.0
C515 C 0.99716 0.03561 0.8282 0.0
C516 C 0.02656 0.07321 0.8125 0.0
C517 C 0.0239 0.07279 0.78054 0.0
C518 C 0.93247 0.95786 0.82748 0.0
C519 C 0.06168 0.11341 0.82942 0.0
H520 H 0.93639 0.06625 0.92735 0.0
H521 H 0.07825 0.99162 0.91656 0.0
H522 H 0.93594 0.10747 0.85375 0.0
H523 H 0.88988 0.05343 0.85309 0.0
H524 H 0.89142 0.09333 0.88604 0.0
H525 H 0.11643 0.97457 0.86902 0.0
H526 H 0.06381 0.96172 0.83993 0.0
H527 H 0.10825 0.01664 0.84076 0.0
H528 H 0.93758 0.97059 0.76711 0.0
H529 H 0.04746 0.101 0.7685 0.0
H530 H 0.90342 0.97103 0.84443 0.0
H531 H 0.96164 0.93911 0.84006 0.0
H532 H 0.90812 0.93233 0.81131 0.0
H533 H 0.03611 0.12983 0.84685 0.0
H534 H 0.08021 0.14085 0.81398 0.0
H535 H 0.09589 0.10003 0.84159 0.0
C536 C 0.49232 0.51039 0.62358 0.0
C537 C 0.52187 0.48209 0.60436 0.0
C538 C 0.49613 0.50952 0.65531 0.0
C539 C 0.5301 0.47937 0.66836 0.0
C540 C 0.56044 0.45087 0.64918 0.0
C541 C 0.55611 0.45267 0.61733 0.0
C542 C 0.46336 0.54072 0.6749 0.0
C543 C 0.59684 0.41812 0.66231 0.0
C544 C 0.56944 0.51076 0.75099 0.0
C545 C 0.52839 0.48168 0.7665 0.0
C546 C 0.57192 0.50911 0.71903 0.0
C547 C 0.53258 0.47744 0.70212 0.0
C548 C 0.49228 0.44687 0.71761 0.0
C549 C 0.49053 0.44948 0.74957 0.0
C550 C 0.61543 0.54238 0.70335 0.0
C551 C 0.44958 0.41261 0.70041 0.0
H552 H 0.46593 0.53344 0.61383 0.0
H553 H 0.579 0.43067 0.60265 0.0
H554 H 0.43336 0.51891 0.68933 0.0
H555 H 0.49186 0.56404 0.6904 0.0
H556 H 0.43983 0.56291 0.66116 0.0
H557 H 0.61867 0.39904 0.64435 0.0
H558 H 0.62842 0.43815 0.67775 0.0
H559 H 0.57112 0.39201 0.67612 0.0
H560 H 0.59953 0.53513 0.76387 0.0
H561 H 0.45827 0.42721 0.76126 0.0
H562 H 0.59479 0.5678 0.69073 0.0
H563 H 0.63882 0.52276 0.68647 0.0
H564 H 0.64553 0.56235 0.7197 0.0
H565 H 0.42095 0.43219 0.68805 0.0
H566 H 0.42441 0.38836 0.71573 0.0
H567 H 0.47034 0.39146 0.68316 0.0
C568 C 0.51182 0.47781 0.40387 0.0
C569 C 0.47931 0.50176 0.42419 0.0
C570 C 0.50948 0.48322 0.37239 0.0
C571 C 0.47397 0.51352 0.36087 0.0
C572 C 0.44057 0.53746 0.38118 0.0
C573 C 0.44351 0.53119 0.41263 0.0
C574 C 0.54549 0.45683 0.35147 0.0
C575 C 0.4024 0.57023 0.36974 0.0
C576 C 0.51187 0.55996 0.28284 0.0
C577 C 0.47536 0.52987 0.2638 0.0
C578 C 0.51088 0.5558 0.31454 0.0
C579 C 0.47267 0.52054 0.32755 0.0
C580 C 0.43509 0.49056 0.30855 0.0
C581 C 0.43679 0.49567 0.27693 0.0
C582 C 0.55161 0.58846 0.33406 0.0
C583 C 0.39378 0.45252 0.32157 0.0
H584 H 0.53952 0.45491 0.41257 0.0
H585 H 0.41839 0.54994 0.42818 0.0
H586 H 0.51918 0.43482 0.3343 0.0
H587 H 0.57492 0.48204 0.33891 0.0
H588 H 0.56991 0.43382 0.36401 0.0
H589 H 0.37836 0.5855 0.38843 0.0
H590 H 0.42718 0.59934 0.35791 0.0
H591 H 0.37266 0.55124 0.35288 0.0
H592 H 0.54224 0.58612 0.27289 0.0
H593 H 0.40777 0.47282 0.26246 0.0
H594 H 0.58062 0.56798 0.34538 0.0
H595 H 0.52905 0.60625 0.35227 0.0
H596 H 0.57649 0.61566 0.32063 0.0
H597 H 0.41636 0.42699 0.3329 0.0
H598 H 0.36607 0.43321 0.30383 0.0
H599 H 0.3676 0.46793 0.33913 0.0
loop_
_geom_bond_atom_site_label_1
_geom_bond_atom_site_label_2
_geom_bond_distance
_geom_bond_site_symmetry_2
_ccdc_geom_bond_type
Co0 N5 2.057 . S
Co0 O17 2.021 . S
Co0 O20 2.062 1_455 S
Co0 O24 2.117 1_554 S
Co0 O25 2.020 1_565 S
C1 O21 1.259 1_455 S
C1 O24 1.258 1_545 S
Co2 N11 2.057 . S
Co2 O18 2.117 . S
Co2 O19 2.020 1_545 S
Co2 O21 2.021 1_554 S
Co2 O26 2.062 1_655 S
C3 N5 1.316 . S
C3 N6 1.347 . S
C3 H8 0.931 . S
C4 N5 1.375 1_556 S
C4 C7 1.350 . S
C4 H9 0.930 . S
N5 Co0 2.057 . S
N5 C3 1.316 . S
N5 C4 1.375 1_554 S
N6 C3 1.347 . S
N6 C7 1.373 1_554 S
C7 C4 1.350 . S
C7 N6 1.373 1_556 S
C7 H28 0.931 . S
H8 C3 0.931 . S
H9 C4 0.930 . S
C10 O17 1.259 1_545 S
C10 O18 1.258 1_455 S
N11 Co2 2.057 . S
N11 C12 1.316 . S
N11 C13 1.375 . S
C12 N11 1.316 . S
C12 N14 1.347 . S
C12 H23 0.931 1_554 S
C13 N11 1.375 . S
C13 C15 1.350 . S
C13 H22 0.930 . S
N14 C12 1.347 . S
N14 C15 1.373 . S
C15 C13 1.350 . S
C15 N14 1.373 . S
C15 H29 0.931 . S
C16 O19 1.256 . S
C16 O20 1.255 . S
O17 Co0 2.021 . S
O17 C10 1.259 1_565 S
O18 Co2 2.117 . S
O18 C10 1.258 1_655 S
O19 Co2 2.020 1_565 S
O19 C16 1.256 . S
O20 Co0 2.062 1_655 S
O20 C16 1.255 . S
O21 C1 1.259 1_655 S
O21 Co2 2.021 1_556 S
H22 C13 0.930 . S
H23 C12 0.931 1_556 S
O24 Co0 2.117 1_556 S
O24 C1 1.258 1_565 S
O25 Co0 2.020 1_545 S
O25 C27 1.256 . S
O26 Co2 2.062 1_455 S
O26 C27 1.255 . S
C27 O25 1.256 . S
C27 O26 1.255 . S
H28 C7 0.931 . S
H29 C15 0.931 . S
Co30 N35 2.057 . S
Co30 O47 2.021 . S
Co30 O50 2.062 . S
Co30 O54 2.117 . S
Co30 O55 2.020 . S
C31 O51 1.259 . S
C31 O54 1.258 . S
Co32 N41 2.057 . S
Co32 O48 2.117 . S
Co32 O49 2.020 . S
Co32 O51 2.021 . S
Co32 O56 2.062 . S
C33 N35 1.316 . S
C33 N36 1.347 . S
C33 H38 0.931 . S
C34 N35 1.375 . S
C34 C37 1.350 . S
C34 H39 0.930 . S
N35 Co30 2.057 . S
N35 C33 1.316 . S
N35 C34 1.375 . S
N36 C33 1.347 . S
N36 C37 1.373 . S
C37 C34 1.350 . S
C37 N36 1.373 . S
C37 H58 0.931 . S
H38 C33 0.931 . S
H39 C34 0.930 . S
C40 O47 1.259 . S
C40 O48 1.258 . S
N41 Co32 2.057 . S
N41 C42 1.316 . S
N41 C43 1.375 . S
C42 N41 1.316 . S
C42 N44 1.347 . S
C42 H53 0.931 . S
C43 N41 1.375 . S
C43 C45 1.350 . S
C43 H52 0.930 . S
N44 C42 1.347 . S
N44 C45 1.373 . S
C45 C43 1.350 . S
C45 N44 1.373 . S
C45 H59 0.931 . S
C46 O49 1.256 . S
C46 O50 1.255 . S
O47 Co30 2.021 . S
O47 C40 1.259 . S
O48 Co32 2.117 . S
O48 C40 1.258 . S
O49 Co32 2.020 . S
O49 C46 1.256 . S
O50 Co30 2.062 . S
O50 C46 1.255 . S
O51 C31 1.259 . S
O51 Co32 2.021 . S
H52 C43 0.930 . S
H53 C42 0.931 . S
O54 Co30 2.117 . S
O54 C31 1.258 . S
O55 Co30 2.020 . S
O55 C57 1.256 . S
O56 Co32 2.062 . S
O56 C57 1.255 . S
C57 O55 1.256 . S
C57 O56 1.255 . S
H58 C37 0.931 . S
H59 C45 0.931 . S
C60 C61 1.386 1_665 S
C60 C62 1.397 . S
C60 H84 0.931 . S
C61 C60 1.386 1_445 S
C61 C65 1.397 . S
C62 C60 1.397 . S
C62 C63 1.384 1_665 S
C62 H85 0.930 . S
C63 C62 1.384 1_445 S
C63 C64 1.377 . S
C63 C66 1.481 . S
C64 C63 1.377 . S
C64 C65 1.389 . S
C64 H86 0.929 . S
C65 C61 1.397 . S
C65 C64 1.389 . S
C65 H87 0.931 . S
C66 C63 1.481 . S
C66 C67 1.387 1_545 S
C66 C71 1.390 1_455 S
C67 C66 1.387 1_565 S
C67 C68 1.401 . S
C67 H88 0.930 . S
C68 C67 1.401 . S
C68 C69 1.376 1_465 S
C68 C77 1.511 . S
C69 C68 1.376 1_645 S
C69 C70 1.392 . S
C69 H90 0.931 . S
C70 C69 1.392 . S
C70 C71 1.361 . S
C70 C72 1.500 . S
C71 C66 1.390 1_655 S
C71 C70 1.361 . S
C71 H89 0.931 . S
C72 C70 1.500 . S
C72 C73 1.371 . S
C72 C74 1.365 . S
C73 C72 1.371 . S
C73 C83 1.386 . S
C73 H91 0.931 . S
C74 C72 1.365 . S
C74 C75 1.409 . S
C74 H92 0.929 . S
C75 C74 1.409 . S
C75 C76 1.380 . S
C75 H93 0.930 . S
C76 C75 1.380 . S
C76 C83 1.357 . S
C77 C68 1.511 . S
C77 C78 1.341 . S
C77 C79 1.371 . S
C78 C77 1.341 . S
C78 C82 1.394 . S
C78 H94 0.930 . S
C79 C77 1.371 . S
C79 C80 1.392 . S
C79 H95 0.931 . S
C80 C79 1.392 . S
C80 C81 1.331 . S
C80 H98 0.932 . S
C81 C80 1.331 . S
C81 C82 1.336 . S
C82 C78 1.394 . S
C82 C81 1.336 . S
C82 H97 0.929 . S
C83 C73 1.386 . S
C83 C76 1.357 . S
C83 H96 0.928 . S
H84 C60 0.931 . S
H85 C62 0.930 . S
H86 C64 0.929 . S
H87 C65 0.931 . S
H88 C67 0.930 . S
H89 C71 0.931 . S
H90 C69 0.931 . S
H91 C73 0.931 . S
H92 C74 0.929 . S
H93 C75 0.930 . S
H94 C78 0.930 . S
H95 C79 0.931 . S
H96 C83 0.928 . S
H97 C82 0.929 . S
H98 C80 0.932 . S
C99 C100 1.386 . S
C99 C101 1.397 . S
C99 H123 0.931 . S
C100 C99 1.386 . S
C100 C104 1.397 1_545 S
C101 C99 1.397 . S
C101 C102 1.384 . S
C101 H124 0.930 . S
C102 C101 1.384 . S
C102 C103 1.377 1_545 S
C102 C105 1.481 . S
C103 C102 1.377 1_565 S
C103 C104 1.389 . S
C103 H125 0.929 . S
C104 C100 1.397 1_565 S
C104 C103 1.389 . S
C104 H126 0.931 . S
C105 C102 1.481 . S
C105 C106 1.387 . S
C105 C110 1.390 1_445 S
C106 C105 1.387 . S
C106 C107 1.401 . S
C106 H127 0.930 . S
C107 C106 1.401 . S
C107 C108 1.376 . S
C107 C116 1.511 . S
C108 C107 1.376 . S
C108 C109 1.392 1_445 S
C108 H129 0.930 1_455 S
C109 C108 1.392 1_665 S
C109 C110 1.361 . S
C109 C111 1.500 . S
C110 C105 1.390 1_665 S
C110 C109 1.361 . S
C110 H128 0.931 . S
C111 C109 1.500 . S
C111 C112 1.371 . S
C111 C113 1.365 . S
C112 C111 1.371 . S
C112 C122 1.386 . S
C112 H130 0.931 . S
C113 C111 1.365 . S
C113 C114 1.409 . S
C113 H131 0.929 . S
C114 C113 1.409 . S
C114 C115 1.380 . S
C114 H132 0.930 . S
C115 C114 1.380 . S
C115 C122 1.357 . S
C116 C107 1.511 . S
C116 C117 1.341 . S
C116 C118 1.371 . S
C117 C116 1.341 . S
C117 C121 1.394 . S
C117 H133 0.930 . S
C118 C116 1.371 . S
C118 C119 1.392 . S
C118 H134 0.931 . S
C119 C118 1.392 . S
C119 C120 1.331 . S
C119 H137 0.932 . S
C120 C119 1.331 . S
C120 C121 1.336 . S
C121 C117 1.394 . S
C121 C120 1.336 . S
C121 H136 0.929 . S
C122 C112 1.386 . S
C122 C115 1.357 . S
C122 H135 0.928 . S
H123 C99 0.931 . S
H124 C101 0.930 . S
H125 C103 0.929 . S
H126 C104 0.931 . S
H127 C106 0.930 . S
H128 C110 0.931 . S
H129 C108 0.930 1_655 S
H130 C112 0.931 . S
H131 C113 0.929 . S
H132 C114 0.930 . S
H133 C117 0.930 . S
H134 C118 0.931 . S
H135 C122 0.928 . S
H136 C121 0.929 . S
H137 C119 0.932 . S
C138 C139 1.386 . S
C138 C140 1.397 . S
C138 H162 0.931 . S
C139 C138 1.386 . S
C139 C143 1.397 . S
C140 C138 1.397 . S
C140 C141 1.384 . S
C140 H163 0.930 . S
C141 C140 1.384 . S
C141 C142 1.377 . S
C141 C144 1.481 . S
C142 C141 1.377 . S
C142 C143 1.389 . S
C142 H164 0.929 . S
C143 C139 1.397 . S
C143 C142 1.389 . S
C143 H165 0.931 . S
C144 C141 1.481 . S
C144 C145 1.387 . S
C144 C149 1.390 . S
C145 C144 1.387 . S
C145 C146 1.401 . S
C145 H166 0.930 . S
C146 C145 1.401 . S
C146 C147 1.376 . S
C146 C155 1.511 . S
C147 C146 1.376 . S
C147 C148 1.392 . S
C147 H168 0.931 . S
C148 C147 1.392 . S
C148 C149 1.361 . S
C148 C150 1.500 . S
C149 C144 1.390 . S
C149 C148 1.361 . S
C149 H167 0.931 . S
C150 C148 1.500 . S
C150 C151 1.371 . S
C150 C152 1.365 . S
C151 C150 1.371 . S
C151 C161 1.386 1_556 S
C151 H169 0.931 . S
C152 C150 1.365 . S
C152 C153 1.409 . S
C152 H170 0.929 . S
C153 C152 1.409 . S
C153 C154 1.380 . S
C153 H171 0.930 . S
C154 C153 1.380 . S
C154 C161 1.357 1_556 S
C155 C146 1.511 . S
C155 C156 1.341 . S
C155 C157 1.371 . S
C156 C155 1.341 . S
C156 C160 1.394 . S
C156 H172 0.930 . S
C157 C155 1.371 . S
C157 C158 1.392 1_556 S
C157 H173 0.934 . S
C158 C157 1.392 1_554 S
C158 C159 1.331 1_554 S
C158 H176 0.932 . S
C159 C158 1.331 1_556 S
C159 C160 1.336 . S
C160 C156 1.394 . S
C160 C159 1.336 . S
C160 H175 0.929 . S
C161 C151 1.386 1_554 S
C161 C154 1.357 1_554 S
C161 H174 0.928 . S
H162 C138 0.931 . S
H163 C140 0.930 . S
H164 C142 0.929 . S
H165 C143 0.931 . S
H166 C145 0.930 . S
H167 C149 0.931 . S
H168 C147 0.931 . S
H169 C151 0.931 . S
H170 C152 0.929 . S
H171 C153 0.930 . S
H172 C156 0.930 . S
H173 C157 0.934 . S
H174 C161 0.928 . S
H175 C160 0.929 . S
H176 C158 0.932 . S
C177 C178 1.386 . S
C177 C179 1.397 . S
C177 H201 0.931 . S
C178 C177 1.386 . S
C178 C182 1.397 . S
C179 C177 1.397 . S
C179 C180 1.384 . S
C179 H202 0.930 . S
C180 C179 1.384 . S
C180 C181 1.377 . S
C180 C183 1.481 . S
C181 C180 1.377 . S
C181 C182 1.389 . S
C181 H203 0.929 . S
C182 C178 1.397 . S
C182 C181 1.389 . S
C182 H204 0.931 . S
C183 C180 1.481 . S
C183 C184 1.387 . S
C183 C188 1.390 . S
C184 C183 1.387 . S
C184 C185 1.401 . S
C184 H205 0.930 . S
C185 C184 1.401 . S
C185 C186 1.376 . S
C185 C194 1.511 . S
C186 C185 1.376 . S
C186 C187 1.392 . S
C186 H207 0.931 . S
C187 C186 1.392 . S
C187 C188 1.361 . S
C187 C189 1.500 . S
C188 C183 1.390 . S
C188 C187 1.361 . S
C188 H206 0.931 . S
C189 C187 1.500 . S
C189 C190 1.371 . S
C189 C191 1.365 . S
C190 C189 1.371 . S
C190 C200 1.386 . S
C190 H208 0.931 . S
C191 C189 1.365 . S
C191 C192 1.409 . S
C191 H209 0.929 . S
C192 C191 1.409 . S
C192 C193 1.380 . S
C192 H210 0.930 . S
C193 C192 1.380 . S
C193 C200 1.357 . S
C194 C185 1.511 . S
C194 C195 1.341 . S
C194 C196 1.371 . S
C195 C194 1.341 . S
C195 C199 1.394 . S
C195 H211 0.930 . S
C196 C194 1.371 . S
C196 C197 1.392 . S
C196 H212 0.931 . S
C197 C196 1.392 . S
C197 C198 1.331 . S
C197 H215 0.932 . S
C198 C197 1.331 . S
C198 C199 1.336 . S
C199 C195 1.394 . S
C199 C198 1.336 . S
C199 H214 0.929 . S
C200 C190 1.386 . S
C200 C193 1.357 . S
C200 H213 0.928 . S
H201 C177 0.931 . S
H202 C179 0.930 . S
H203 C181 0.929 . S
H204 C182 0.931 . S
H205 C184 0.930 . S
H206 C188 0.931 . S
H207 C186 0.931 . S
H208 C190 0.931 . S
H209 C191 0.929 . S
H210 C192 0.930 . S
H211 C195 0.930 . S
H212 C196 0.931 . S
H213 C200 0.928 . S
H214 C199 0.929 . S
H215 C197 0.932 . S
C216 C217 1.391 . S
C216 C218 1.394 . S
C216 H232 0.931 . S
C217 C216 1.391 . S
C217 C221 1.376 1_554 S
C218 C216 1.394 . S
C218 C219 1.369 . S
C218 C222 1.531 . S
C219 C218 1.369 . S
C219 C220 1.410 1_554 S
C219 C227 1.503 . S
C220 C219 1.410 1_556 S
C220 C221 1.392 . S
C220 C223 1.511 . S
C221 C217 1.376 1_556 S
C221 C220 1.392 . S
C221 H233 0.929 . S
C222 C218 1.531 . S
C222 H234 0.960 . S
C222 H235 0.962 . S
C222 H236 0.960 . S
C223 C220 1.511 . S
C223 H237 0.961 . S
C223 H238 0.961 . S
C223 H239 0.961 . S
C224 C225 1.370 . S
C224 C226 1.363 . S
C224 H240 0.931 . S
C225 C224 1.370 . S
C225 C229 1.408 . S
C226 C224 1.363 . S
C226 C227 1.370 . S
C226 C230 1.524 . S
C227 C219 1.503 . S
C227 C226 1.370 . S
C227 C228 1.403 . S
C228 C227 1.403 . S
C228 C229 1.404 . S
C228 C231 1.539 1_554 S
C229 C225 1.408 . S
C229 C228 1.404 . S
C229 H241 0.930 . S
C230 C226 1.524 . S
C230 H242 0.956 . S
C230 H243 0.961 . S
C230 H244 0.961 . S
C231 C228 1.539 1_556 S
C231 H245 0.958 1_556 S
C231 H246 0.961 . S
C231 H247 0.960 . S
H232 C216 0.931 . S
H233 C221 0.929 . S
H234 C222 0.960 . S
H235 C222 0.962 . S
H236 C222 0.960 . S
H237 C223 0.961 . S
H238 C223 0.961 . S
H239 C223 0.961 . S
H240 C224 0.931 . S
H241 C229 0.930 . S
H242 C230 0.956 . S
H243 C230 0.961 . S
H244 C230 0.961 . S
H245 C231 0.958 1_554 S
H246 C231 0.961 . S
H247 C231 0.960 . S
C248 C249 1.391 . S
C248 C250 1.394 . S
C248 H264 0.931 . S
C249 C248 1.391 . S
C249 C253 1.376 . S
C250 C248 1.394 . S
C250 C251 1.369 . S
C250 C254 1.532 . S
C251 C250 1.369 . S
C251 C252 1.410 . S
C251 C259 1.503 . S
C252 C251 1.410 . S
C252 C253 1.392 . S
C252 C255 1.511 . S
C253 C249 1.376 . S
C253 C252 1.392 . S
C253 H265 0.929 . S
C254 C250 1.532 . S
C254 H266 0.963 . S
C254 H267 0.956 1_554 S
C254 H268 0.962 . S
C255 C252 1.511 . S
C255 H269 0.961 . S
C255 H270 0.961 . S
C255 H271 0.961 . S
C256 C257 1.370 1_556 S
C256 C258 1.363 . S
C256 H272 0.931 . S
C257 C256 1.370 1_554 S
C257 C261 1.408 . S
C258 C256 1.363 . S
C258 C259 1.370 1_556 S
C258 C262 1.524 . S
C259 C251 1.503 . S
C259 C258 1.370 1_554 S
C259 C260 1.403 . S
C260 C259 1.403 . S
C260 C261 1.404 . S
C260 C263 1.539 . S
C261 C257 1.408 . S
C261 C260 1.404 . S
C261 H273 0.930 . S
C262 C258 1.524 . S
C262 H274 0.956 . S
C262 H275 0.961 . S
C262 H276 0.961 . S
C263 C260 1.539 . S
C263 H277 0.958 . S
C263 H278 0.961 . S
C263 H279 0.960 . S
H264 C248 0.931 . S
H265 C253 0.929 . S
H266 C254 0.963 . S
H267 C254 0.956 1_556 S
H268 C254 0.962 . S
H269 C255 0.961 . S
H270 C255 0.961 . S
H271 C255 0.961 . S
H272 C256 0.931 . S
H273 C261 0.930 . S
H274 C262 0.956 . S
H275 C262 0.961 . S
H276 C262 0.961 . S
H277 C263 0.958 . S
H278 C263 0.961 . S
H279 C263 0.960 . S
C280 C281 1.391 . S
C280 C282 1.394 . S
C280 H296 0.931 1_554 S
C281 C280 1.391 . S
C281 C285 1.376 . S
C282 C280 1.394 . S
C282 C283 1.369 . S
C282 C286 1.531 1_554 S
C283 C282 1.369 . S
C283 C284 1.410 . S
C283 C291 1.503 . S
C284 C283 1.410 . S
C284 C285 1.392 . S
C284 C287 1.511 . S
C285 C281 1.376 . S
C285 C284 1.392 . S
C285 H297 0.929 . S
C286 C282 1.531 1_556 S
C286 H298 0.960 . S
C286 H299 0.962 1_556 S
C286 H300 0.960 . S
C287 C284 1.511 . S
C287 H301 0.961 . S
C287 H302 0.961 . S
C287 H303 0.961 . S
C288 C289 1.370 . S
C288 C290 1.363 . S
C288 H304 0.931 . S
C289 C288 1.370 . S
C289 C293 1.408 . S
C290 C288 1.363 . S
C290 C291 1.370 . S
C290 C294 1.524 . S
C291 C283 1.503 . S
C291 C290 1.370 . S
C291 C292 1.403 1_554 S
C292 C291 1.403 1_556 S
C292 C293 1.404 1_556 S
C292 C295 1.539 . S
C293 C289 1.408 . S
C293 C292 1.404 1_554 S
C293 H305 0.930 1_554 S
C294 C290 1.524 . S
C294 H306 0.956 . S
C294 H307 0.961 . S
C294 H308 0.961 . S
C295 C292 1.539 . S
C295 H309 0.958 . S
C295 H310 0.961 . S
C295 H311 0.960 . S
H296 C280 0.931 1_556 S
H297 C285 0.929 . S
H298 C286 0.960 . S
H299 C286 0.962 1_554 S
H300 C286 0.960 . S
H301 C287 0.961 . S
H302 C287 0.961 . S
H303 C287 0.961 . S
H304 C288 0.931 . S
H305 C293 0.930 1_556 S
H306 C294 0.956 . S
H307 C294 0.961 . S
H308 C294 0.961 . S
H309 C295 0.958 . S
H310 C295 0.961 . S
H311 C295 0.960 . S
C312 C313 1.391 1_556 S
C312 C314 1.394 . S
C312 H328 0.931 . S
C313 C312 1.391 1_554 S
C313 C317 1.376 . S
C314 C312 1.394 . S
C314 C315 1.369 1_556 S
C314 C318 1.531 . S
C315 C314 1.369 1_554 S
C315 C316 1.410 . S
C315 C323 1.503 . S
C316 C315 1.410 . S
C316 C317 1.392 . S
C316 C319 1.511 . S
C317 C313 1.376 . S
C317 C316 1.392 . S
C317 H329 0.929 . S
C318 C314 1.531 . S
C318 H330 0.960 . S
C318 H331 0.962 . S
C318 H332 0.960 . S
C319 C316 1.511 . S
C319 H333 0.961 . S
C319 H334 0.961 . S
C319 H335 0.961 . S
C320 C321 1.372 . S
C320 C322 1.363 1_556 S
C320 H336 0.931 . S
C321 C320 1.372 . S
C321 C325 1.404 1_556 S
C322 C320 1.363 1_554 S
C322 C323 1.370 . S
C322 C326 1.524 . S
C323 C315 1.503 . S
C323 C322 1.370 . S
C323 C324 1.403 . S
C324 C323 1.403 . S
C324 C325 1.404 . S
C324 C327 1.539 . S
C325 C321 1.404 1_554 S
C325 C324 1.404 . S
C325 H337 0.930 . S
C326 C322 1.524 . S
C326 H338 0.956 1_554 S
C326 H339 0.961 . S
C326 H340 0.961 . S
C327 C324 1.539 . S
C327 H341 0.958 1_554 S
C327 H342 0.961 . S
C327 H343 0.960 . S
H328 C312 0.931 . S
H329 C317 0.929 . S
H330 C318 0.960 . S
H331 C318 0.962 . S
H332 C318 0.960 . S
H333 C319 0.961 . S
H334 C319 0.961 . S
H335 C319 0.961 . S
H336 C320 0.931 . S
H337 C325 0.930 . S
H338 C326 0.956 1_556 S
H339 C326 0.961 . S
H340 C326 0.961 . S
H341 C327 0.958 1_556 S
H342 C327 0.961 . S
H343 C327 0.960 . S
C344 C345 1.391 . S
C344 C346 1.394 . S
C344 H360 0.931 . S
C345 C344 1.391 . S
C345 C349 1.376 . S
C346 C344 1.394 . S
C346 C347 1.369 . S
C346 C350 1.531 . S
C347 C346 1.369 . S
C347 C348 1.410 . S
C347 C355 1.503 . S
C348 C347 1.410 . S
C348 C349 1.392 . S
C348 C351 1.511 . S
C349 C345 1.376 . S
C349 C348 1.392 . S
C349 H361 0.929 . S
C350 C346 1.531 . S
C350 H362 0.960 . S
C350 H363 0.962 . S
C350 H364 0.960 . S
C351 C348 1.511 . S
C351 H365 0.961 . S
C351 H366 0.961 . S
C351 H367 0.961 . S
C352 C353 1.370 . S
C352 C354 1.363 . S
C352 H368 0.931 . S
C353 C352 1.370 . S
C353 C357 1.408 . S
C354 C352 1.363 . S
C354 C355 1.370 . S
C354 C358 1.524 . S
C355 C347 1.503 . S
C355 C354 1.370 . S
C355 C356 1.403 . S
C356 C355 1.403 . S
C356 C357 1.404 . S
C356 C359 1.539 . S
C357 C353 1.408 . S
C357 C356 1.404 . S
C357 H369 0.930 . S
C358 C354 1.524 . S
C358 H370 0.956 . S
C358 H371 0.961 . S
C358 H372 0.961 . S
C359 C356 1.539 . S
C359 H373 0.958 . S
C359 H374 0.961 . S
C359 H375 0.960 . S
H360 C344 0.931 . S
H361 C349 0.929 . S
H362 C350 0.960 . S
H363 C350 0.962 . S
H364 C350 0.960 . S
H365 C351 0.961 . S
H366 C351 0.961 . S
H367 C351 0.961 . S
H368 C352 0.931 . S
H369 C357 0.930 . S
H370 C358 0.956 . S
H371 C358 0.961 . S
H372 C358 0.961 . S
H373 C359 0.958 . S
H374 C359 0.961 . S
H375 C359 0.960 . S
C376 C377 1.391 . S
C376 C378 1.394 . S
C376 H392 0.931 . S
C377 C376 1.391 . S
C377 C381 1.376 . S
C378 C376 1.394 . S
C378 C379 1.369 . S
C378 C382 1.531 . S
C379 C378 1.369 . S
C379 C380 1.410 . S
C379 C387 1.503 . S
C380 C379 1.410 . S
C380 C381 1.392 . S
C380 C383 1.511 . S
C381 C377 1.376 . S
C381 C380 1.392 . S
C381 H393 0.929 . S
C382 C378 1.531 . S
C382 H394 0.960 . S
C382 H395 0.962 . S
C382 H396 0.960 . S
C383 C380 1.511 . S
C383 H397 0.961 . S
C383 H398 0.961 . S
C383 H399 0.961 . S
C384 C385 1.370 . S
C384 C386 1.363 . S
C384 H400 0.931 . S
C385 C384 1.370 . S
C385 C389 1.408 . S
C386 C384 1.363 . S
C386 C387 1.370 . S
C386 C390 1.524 . S
C387 C379 1.503 . S
C387 C386 1.370 . S
C387 C388 1.403 . S
C388 C387 1.403 . S
C388 C389 1.404 . S
C388 C391 1.539 . S
C389 C385 1.408 . S
C389 C388 1.404 . S
C389 H401 0.930 . S
C390 C386 1.524 . S
C390 H402 0.956 . S
C390 H403 0.961 . S
C390 H404 0.961 . S
C391 C388 1.539 . S
C391 H405 0.958 . S
C391 H406 0.961 . S
C391 H407 0.960 . S
H392 C376 0.931 . S
H393 C381 0.929 . S
H394 C382 0.960 . S
H395 C382 0.962 . S
H396 C382 0.960 . S
H397 C383 0.961 . S
H398 C383 0.961 . S
H399 C383 0.961 . S
H400 C384 0.931 . S
H401 C389 0.930 . S
H402 C390 0.956 . S
H403 C390 0.961 . S
H404 C390 0.961 . S
H405 C391 0.958 . S
H406 C391 0.961 . S
H407 C391 0.960 . S
C408 C409 1.391 . S
C408 C410 1.394 . S
C408 H424 0.931 . S
C409 C408 1.391 . S
C409 C413 1.376 . S
C410 C408 1.394 . S
C410 C411 1.369 . S
C410 C414 1.531 . S
C411 C410 1.369 . S
C411 C412 1.410 . S
C411 C419 1.503 . S
C412 C411 1.410 . S
C412 C413 1.392 . S
C412 C415 1.511 . S
C413 C409 1.376 . S
C413 C412 1.392 . S
C413 H425 0.929 . S
C414 C410 1.531 . S
C414 H426 0.960 . S
C414 H427 0.962 . S
C414 H428 0.960 . S
C415 C412 1.511 . S
C415 H429 0.961 . S
C415 H430 0.961 . S
C415 H431 0.961 . S
C416 C417 1.370 . S
C416 C418 1.363 . S
C416 H432 0.931 . S
C417 C416 1.370 . S
C417 C421 1.408 . S
C418 C416 1.363 . S
C418 C419 1.370 . S
C418 C422 1.524 . S
C419 C411 1.503 . S
C419 C418 1.370 . S
C419 C420 1.403 . S
C420 C419 1.403 . S
C420 C421 1.404 . S
C420 C423 1.539 . S
C421 C417 1.408 . S
C421 C420 1.404 . S
C421 H433 0.930 . S
C422 C418 1.524 . S
C422 H434 0.956 . S
C422 H435 0.961 . S
C422 H436 0.961 . S
C423 C420 1.539 . S
C423 H437 0.958 . S
C423 H438 0.961 . S
C423 H439 0.960 . S
H424 C408 0.931 . S
H425 C413 0.929 . S
H426 C414 0.960 . S
H427 C414 0.962 . S
H428 C414 0.960 . S
H429 C415 0.961 . S
H430 C415 0.961 . S
H431 C415 0.961 . S
H432 C416 0.931 . S
H433 C421 0.930 . S
H434 C422 0.956 . S
H435 C422 0.961 . S
H436 C422 0.961 . S
H437 C423 0.958 . S
H438 C423 0.961 . S
H439 C423 0.960 . S
C440 C441 1.391 . S
C440 C442 1.394 . S
C440 H456 0.931 . S
C441 C440 1.391 . S
C441 C445 1.376 . S
C442 C440 1.394 . S
C442 C443 1.369 . S
C442 C446 1.531 . S
C443 C442 1.369 . S
C443 C444 1.410 . S
C443 C451 1.503 . S
C444 C443 1.410 . S
C444 C445 1.392 . S
C444 C447 1.511 . S
C445 C441 1.376 . S
C445 C444 1.392 . S
C445 H457 0.929 . S
C446 C442 1.531 . S
C446 H458 0.960 . S
C446 H459 0.962 . S
C446 H460 0.960 . S
C447 C444 1.511 . S
C447 H461 0.961 . S
C447 H462 0.961 . S
C447 H463 0.961 . S
C448 C449 1.370 . S
C448 C450 1.363 . S
C448 H464 0.931 . S
C449 C448 1.370 . S
C449 C453 1.408 . S
C450 C448 1.363 . S
C450 C451 1.370 . S
C450 C454 1.524 . S
C451 C443 1.503 . S
C451 C450 1.370 . S
C451 C452 1.403 . S
C452 C451 1.403 . S
C452 C453 1.404 . S
C452 C455 1.539 . S
C453 C449 1.408 . S
C453 C452 1.404 . S
C453 H465 0.930 . S
C454 C450 1.524 . S
C454 H466 0.956 . S
C454 H467 0.961 . S
C454 H468 0.961 . S
C455 C452 1.539 . S
C455 H469 0.958 . S
C455 H470 0.961 . S
C455 H471 0.960 . S
H456 C440 0.931 . S
H457 C445 0.929 . S
H458 C446 0.960 . S
H459 C446 0.962 . S
H460 C446 0.960 . S
H461 C447 0.961 . S
H462 C447 0.961 . S
H463 C447 0.961 . S
H464 C448 0.931 . S
H465 C453 0.930 . S
H466 C454 0.956 . S
H467 C454 0.961 . S
H468 C454 0.961 . S
H469 C455 0.958 . S
H470 C455 0.961 . S
H471 C455 0.960 . S
C472 C473 1.391 . S
C472 C474 1.394 . S
C472 H488 0.931 . S
C473 C472 1.391 . S
C473 C477 1.376 1_455 S
C474 C472 1.394 . S
C474 C475 1.369 . S
C474 C478 1.531 . S
C475 C474 1.369 . S
C475 C476 1.410 1_455 S
C475 C483 1.503 . S
C476 C475 1.410 1_655 S
C476 C477 1.392 . S
C476 C479 1.511 . S
C477 C473 1.376 1_655 S
C477 C476 1.392 . S
C477 H489 0.929 . S
C478 C474 1.531 . S
C478 H490 0.960 . S
C478 H491 0.962 1_545 S
C478 H492 0.960 . S
C479 C476 1.511 . S
C479 H493 0.961 . S
C479 H494 0.961 . S
C479 H495 0.961 . S
C480 C481 1.370 1_665 S
C480 C482 1.363 . S
C480 H496 0.931 . S
C481 C480 1.370 1_445 S
C481 C485 1.408 . S
C482 C480 1.363 . S
C482 C483 1.370 1_665 S
C482 C486 1.524 . S
C483 C475 1.503 . S
C483 C482 1.370 1_445 S
C483 C484 1.403 . S
C484 C483 1.403 . S
C484 C485 1.404 . S
C484 C487 1.539 . S
C485 C481 1.408 . S
C485 C484 1.404 . S
C485 H497 0.930 . S
C486 C482 1.524 . S
C486 H498 0.956 1_655 S
C486 H499 0.961 . S
C486 H500 0.961 . S
C487 C484 1.539 . S
C487 H501 0.958 . S
C487 H502 0.961 . S
C487 H503 0.960 . S
H488 C472 0.931 . S
H489 C477 0.929 . S
H490 C478 0.960 . S
H491 C478 0.962 1_565 S
H492 C478 0.960 . S
H493 C479 0.961 . S
H494 C479 0.961 . S
H495 C479 0.961 . S
H496 C480 0.931 . S
H497 C485 0.930 . S
H498 C486 0.956 1_455 S
H499 C486 0.961 . S
H500 C486 0.961 . S
H501 C487 0.958 . S
H502 C487 0.961 . S
H503 C487 0.960 . S
C504 C505 1.391 1_655 S
C504 C506 1.394 . S
C504 H520 0.931 . S
C505 C504 1.391 1_455 S
C505 C509 1.376 . S
C506 C504 1.394 . S
C506 C507 1.369 1_655 S
C506 C510 1.531 . S
C507 C506 1.369 1_455 S
C507 C508 1.410 . S
C507 C515 1.503 . S
C508 C507 1.410 . S
C508 C509 1.392 . S
C508 C511 1.511 . S
C509 C505 1.376 . S
C509 C508 1.392 . S
C509 H521 0.929 . S
C510 C506 1.531 . S
C510 H522 0.960 . S
C510 H523 0.962 . S
C510 H524 0.960 . S
C511 C508 1.511 . S
C511 H525 0.976 . S
C511 H526 0.961 . S
C511 H527 0.961 . S
C512 C513 1.370 1_665 S
C512 C514 1.363 . S
C512 H528 0.931 . S
C513 C512 1.370 1_445 S
C513 C517 1.408 . S
C514 C512 1.363 . S
C514 C515 1.370 1_665 S
C514 C518 1.524 . S
C515 C507 1.503 . S
C515 C514 1.370 1_445 S
C515 C516 1.403 . S
C516 C515 1.403 . S
C516 C517 1.404 . S
C516 C519 1.539 . S
C517 C513 1.408 . S
C517 C516 1.404 . S
C517 H529 0.930 . S
C518 C514 1.524 . S
C518 H530 0.956 . S
C518 H531 0.961 1_655 S
C518 H532 0.961 . S
C519 C516 1.539 . S
C519 H533 0.958 . S
C519 H534 0.961 . S
C519 H535 0.960 . S
H520 C504 0.931 . S
H521 C509 0.929 . S
H522 C510 0.960 . S
H523 C510 0.962 . S
H524 C510 0.960 . S
H525 C511 0.976 . S
H526 C511 0.961 . S
H527 C511 0.961 . S
H528 C512 0.931 . S
H529 C517 0.930 . S
H530 C518 0.956 . S
H531 C518 0.961 1_455 S
H532 C518 0.961 . S
H533 C519 0.958 . S
H534 C519 0.961 . S
H535 C519 0.960 . S
C536 C537 1.391 . S
C536 C538 1.394 . S
C536 H552 0.931 . S
C537 C536 1.391 . S
C537 C541 1.376 . S
C538 C536 1.394 . S
C538 C539 1.369 . S
C538 C542 1.531 . S
C539 C538 1.369 . S
C539 C540 1.410 . S
C539 C547 1.503 . S
C540 C539 1.410 . S
C540 C541 1.392 . S
C540 C543 1.511 . S
C541 C537 1.376 . S
C541 C540 1.392 . S
C541 H553 0.929 . S
C542 C538 1.531 . S
C542 H554 0.960 . S
C542 H555 0.962 . S
C542 H556 0.960 . S
C543 C540 1.511 . S
C543 H557 0.961 . S
C543 H558 0.961 . S
C543 H559 0.961 . S
C544 C545 1.370 . S
C544 C546 1.363 . S
C544 H560 0.931 . S
C545 C544 1.370 . S
C545 C549 1.408 . S
C546 C544 1.363 . S
C546 C547 1.370 . S
C546 C550 1.524 . S
C547 C539 1.503 . S
C547 C546 1.370 . S
C547 C548 1.403 . S
C548 C547 1.403 . S
C548 C549 1.404 . S
C548 C551 1.539 . S
C549 C545 1.408 . S
C549 C548 1.404 . S
C549 H561 0.930 . S
C550 C546 1.524 . S
C550 H562 0.956 . S
C550 H563 0.961 . S
C550 H564 0.961 . S
C551 C548 1.539 . S
C551 H565 0.958 . S
C551 H566 0.961 . S
C551 H567 0.960 . S
H552 C536 0.931 . S
H553 C541 0.929 . S
H554 C542 0.960 . S
H555 C542 0.962 . S
H556 C542 0.960 . S
H557 C543 0.961 . S
H558 C543 0.961 . S
H559 C543 0.961 . S
H560 C544 0.931 . S
H561 C549 0.930 . S
H562 C550 0.956 . S
H563 C550 0.961 . S
H564 C550 0.961 . S
H565 C551 0.958 . S
H566 C551 0.961 . S
H567 C551 0.960 . S
C568 C569 1.391 . S
C568 C570 1.394 . S
C568 H584 0.931 . S
C569 C568 1.391 . S
C569 C573 1.376 . S
C570 C568 1.394 . S
C570 C571 1.369 . S
C570 C574 1.531 . S
C571 C570 1.369 . S
C571 C572 1.410 . S
C571 C579 1.503 . S
C572 C571 1.410 . S
C572 C573 1.392 . S
C572 C575 1.511 . S
C573 C569 1.376 . S
C573 C572 1.392 . S
C573 H585 0.929 . S
C574 C570 1.531 . S
C574 H586 0.960 . S
C574 H587 0.962 . S
C574 H588 0.960 . S
C575 C572 1.511 . S
C575 H589 0.961 . S
C575 H590 0.961 . S
C575 H591 0.961 . S
C576 C577 1.370 . S
C576 C578 1.363 . S
C576 H592 0.931 . S
C577 C576 1.370 . S
C577 C581 1.408 . S
C578 C576 1.363 . S
C578 C579 1.370 . S
C578 C582 1.524 . S
C579 C571 1.503 . S
C579 C578 1.370 . S
C579 C580 1.403 . S
C580 C579 1.403 . S
C580 C581 1.404 . S
C580 C583 1.539 . S
C581 C577 1.408 . S
C581 C580 1.404 . S
C581 H593 0.930 . S
C582 C578 1.524 . S
C582 H594 0.956 . S
C582 H595 0.961 . S
C582 H596 0.961 . S
C583 C580 1.539 . S
C583 H597 0.958 . S
C583 H598 0.961 . S
C583 H599 0.960 . S
H584 C568 0.931 . S
H585 C573 0.929 . S
H586 C574 0.960 . S
H587 C574 0.962 . S
H588 C574 0.960 . S
H589 C575 0.961 . S
H590 C575 0.961 . S
H591 C575 0.961 . S
H592 C576 0.931 . S
H593 C581 0.930 . S
H594 C582 0.956 . S
H595 C582 0.961 . S
H596 C582 0.961 . S
H597 C583 0.958 . S
H598 C583 0.961 . S
H599 C583 0.960 . S
C225 C193 1.459 . S
C217 C27 1.490 . S
C249 N6 1.416 . S
C257 C154 1.419 1_554 S
C281 C16 1.475 . S
C289 C198 1.452 . S
C313 N14 1.385 . S
C321 C159 1.417 . S
C345 C57 1.486 . S
C353 C115 1.441 . S
C377 N36 1.416 . S
C385 C76 1.413 . S
C417 C120 1.449 . S
C409 C46 1.474 . S
C449 C81 1.400 . S
C441 N44 1.395 . S
C473 C10 1.388 . S
C481 C61 1.392 . S
C505 C1 1.524 . S
C513 C100 1.534 . S
C545 C139 1.393 . S
C537 C40 1.390 . S
C569 C31 1.523 . S
C577 C178 1.534 . S
