# Generated by pormake.
# Topology dag, (6,3)-cn, num edge types: 1
# Building blocks:
#     Node 0, Type 0, BuildingBlock: IZENUY_clean_sbu_0, # of connection points: 6
#     Node 1, Type 0, BuildingBlock: IZENUY_clean_sbu_0, # of connection points: 6
#     Node 2, Type 0, BuildingBlock: IZENUY_clean_sbu_0, # of connection points: 6
#     Node 3, Type 0, BuildingBlock: IZENUY_clean_sbu_0, # of connection points: 6
#     Node 4, Type 1, BuildingBlock: VETTIZ_charged_linker_0, # of connection points: 3
#     Node 5, Type 1, BuildingBlock: VETTIZ_charged_linker_0, # of connection points: 3
#     Node 6, Type 1, BuildingBlock: VETTIZ_charged_linker_0, # of connection points: 3
#     Node 7, Type 1, BuildingBlock: VETTIZ_charged_linker_0, # of connection points: 3
#     Node 8, Type 1, BuildingBlock: VETTIZ_charged_linker_0, # of connection points: 3
#     Node 9, Type 1, BuildingBlock: VETTIZ_charged_linker_0, # of connection points: 3
#     Node 10, Type 1, BuildingBlock: VETTIZ_charged_linker_0, # of connection points: 3
#     Node 11, Type 1, BuildingBlock: VETTIZ_charged_linker_0, # of connection points: 3
#     Edge 12, Type (0, 1), BuildingBlock: CIFDUS_clean_linker_0, # of connection points: 2
#     Edge 13, Type (0, 1), BuildingBlock: CIFDUS_clean_linker_0, # of connection points: 2
#     Edge 14, Type (0, 1), BuildingBlock: CIFDUS_clean_linker_0, # of connection points: 2
#     Edge 15, Type (0, 1), BuildingBlock: CIFDUS_clean_linker_0, # of connection points: 2
#     Edge 16, Type (0, 1), BuildingBlock: CIFDUS_clean_linker_0, # of connection points: 2
#     Edge 17, Type (0, 1), BuildingBlock: CIFDUS_clean_linker_0, # of connection points: 2
#     Edge 18, Type (0, 1), BuildingBlock: CIFDUS_clean_linker_0, # of connection points: 2
#     Edge 19, Type (0, 1), BuildingBlock: CIFDUS_clean_linker_0, # of connection points: 2
#     Edge 20, Type (0, 1), BuildingBlock: CIFDUS_clean_linker_0, # of connection points: 2
#     Edge 21, Type (0, 1), BuildingBlock: CIFDUS_clean_linker_0, # of connection points: 2
#     Edge 22, Type (0, 1), BuildingBlock: CIFDUS_clean_linker_0, # of connection points: 2
#     Edge 23, Type (0, 1), BuildingBlock: CIFDUS_clean_linker_0, # of connection points: 2
#     Edge 24, Type (0, 1), BuildingBlock: CIFDUS_clean_linker_0, # of connection points: 2
#     Edge 25, Type (0, 1), BuildingBlock: CIFDUS_clean_linker_0, # of connection points: 2
#     Edge 26, Type (0, 1), BuildingBlock: CIFDUS_clean_linker_0, # of connection points: 2
#     Edge 27, Type (0, 1), BuildingBlock: CIFDUS_clean_linker_0, # of connection points: 2
#     Edge 28, Type (0, 1), BuildingBlock: CIFDUS_clean_linker_0, # of connection points: 2
#     Edge 29, Type (0, 1), BuildingBlock: CIFDUS_clean_linker_0, # of connection points: 2
#     Edge 30, Type (0, 1), BuildingBlock: CIFDUS_clean_linker_0, # of connection points: 2
#     Edge 31, Type (0, 1), BuildingBlock: CIFDUS_clean_linker_0, # of connection points: 2
#     Edge 32, Type (0, 1), BuildingBlock: CIFDUS_clean_linker_0, # of connection points: 2
#     Edge 33, Type (0, 1), BuildingBlock: CIFDUS_clean_linker_0, # of connection points: 2
#     Edge 34, Type (0, 1), BuildingBlock: CIFDUS_clean_linker_0, # of connection points: 2
#     Edge 35, Type (0, 1), BuildingBlock: CIFDUS_clean_linker_0, # of connection points: 2
# Relax obj value: 0.264
# Max RMSD: 0.202
# Mean RMSD: 0.161
data_MOF--net-dag--node1-IZENUY_clean_sbu_0--node2-VETTIZ_charged_linker_0--edge1-CIFDUS_clean_linker_0
_symmetry_space_group_name_H-M    P1
_symmetry_Int_Tables_number       1
_symmetry_cell_setting            triclinic
loop_
_symmetry_equiv_pos_as_xyz
'x, y, z'
_cell_length_a     42.838864
_cell_length_b     42.83932
_cell_length_c     37.030458
_cell_angle_alpha  93.127832
_cell_angle_beta   86.956999
_cell_angle_gamma 87.765124
loop_
_atom_site_label
_atom_site_type_symbol
_atom_site_fract_x
_atom_site_fract_y
_atom_site_fract_z
_atom_type_partial_charge
Fe0 Fe 0.22355 0.83734 0.07377 0.0
Fe1 Fe 0.15727 0.85352 0.05354 0.0
O2 O 0.18431 0.82646 0.06999 0.0
Fe3 Fe 0.17211 0.78914 0.08238 0.0
O4 O 0.18497 0.7953 0.1279 0.0
O5 O 0.23062 0.81428 0.1131 0.0
O6 O 0.21168 0.86979 0.10581 0.0
C7 C 0.19282 0.89151 0.09849 0.0
C8 C 0.23154 0.77711 0.04525 0.0
O9 O 0.17624 0.88835 0.07137 0.0
C10 C 0.1391 0.7962 0.02188 0.0
O11 O 0.22391 0.86253 0.03458 0.0
O12 O 0.17928 0.85322 0.0106 0.0
O13 O 0.20946 0.76873 0.06643 0.0
O14 O 0.2373 0.80555 0.04244 0.0
C15 C 0.12281 0.83163 0.11011 0.0
O16 O 0.13291 0.82431 0.03267 0.0
O17 O 0.15819 0.77941 0.03775 0.0
C18 C 0.20701 0.86181 0.0074 0.0
O19 O 0.13414 0.85492 0.0956 0.0
O20 O 0.13273 0.80388 0.10045 0.0
C21 C 0.21197 0.80281 0.13596 0.0
Fe22 Fe 0.70166 0.67243 0.5259 0.0
Fe23 Fe 0.65451 0.71894 0.5684 0.0
O24 O 0.66396 0.68166 0.54664 0.0
Fe25 Fe 0.63529 0.6533 0.54568 0.0
O26 O 0.66297 0.61947 0.54431 0.0
O27 O 0.7081 0.63969 0.55427 0.0
O28 O 0.72257 0.69642 0.55938 0.0
C29 C 0.71347 0.70689 0.59113 0.0
C30 C 0.65974 0.64639 0.47649 0.0
O31 O 0.68505 0.71382 0.5992 0.0
C32 C 0.60036 0.70869 0.53558 0.0
O33 O 0.6978 0.70411 0.49618 0.0
O34 O 0.67974 0.74044 0.5371 0.0
O35 O 0.63574 0.65306 0.49705 0.0
O36 O 0.68698 0.64697 0.48871 0.0
C37 C 0.62754 0.67622 0.61548 0.0
O38 O 0.62289 0.72643 0.53874 0.0
O39 O 0.60179 0.68139 0.54678 0.0
C40 C 0.69114 0.73239 0.50547 0.0
O41 O 0.62795 0.70366 0.60395 0.0
O42 O 0.63398 0.65257 0.59427 0.0
C43 C 0.6901 0.61723 0.55588 0.0
Fe44 Fe 0.85058 0.22377 0.01298 0.0
Fe45 Fe 0.86411 0.15861 0.03826 0.0
O46 O 0.83758 0.18593 0.02121 0.0
Fe47 Fe 0.79879 0.1753 0.01268 0.0
O48 O 0.80281 0.18526 0.9657 0.0
O49 O 0.82623 0.22962 0.9746 0.0
O50 O 0.88117 0.20802 0.98029 0.0
C51 C 0.90241 0.18897 0.9885 0.0
C52 C 0.79201 0.23737 0.04465 0.0
O53 O 0.89929 0.17444 0.01716 0.0
C54 C 0.8075 0.1453 0.07505 0.0
O55 O 0.8772 0.22519 0.05068 0.0
O56 O 0.86688 0.18297 0.07937 0.0
O57 O 0.78113 0.21431 0.02705 0.0
O58 O 0.82098 0.24152 0.04462 0.0
C59 C 0.8376 0.12279 0.98584 0.0
O60 O 0.83466 0.13703 0.06259 0.0
O61 O 0.79081 0.16445 0.05913 0.0
C62 C 0.8763 0.21051 0.07957 0.0
O63 O 0.86228 0.13335 0.99805 0.0
O64 O 0.81073 0.13456 0.99665 0.0
C65 C 0.81169 0.21094 0.95464 0.0
Fe66 Fe 0.3712 0.34695 0.54217 0.0
Fe67 Fe 0.30306 0.33784 0.56579 0.0
O68 O 0.33836 0.32347 0.54259 0.0
Fe69 Fe 0.34144 0.28605 0.51978 0.0
O70 O 0.37319 0.27336 0.54713 0.0
O71 O 0.40048 0.31444 0.53746 0.0
O72 O 0.3729 0.34549 0.59058 0.0
C73 C 0.35068 0.35505 0.61267 0.0
C74 C 0.37193 0.32571 0.47183 0.0
O75 O 0.32312 0.35935 0.60203 0.0
C76 C 0.28309 0.30654 0.50192 0.0
O77 O 0.34877 0.38422 0.54655 0.0
O78 O 0.30062 0.37182 0.53819 0.0
O79 O 0.36836 0.29832 0.48269 0.0
O80 O 0.37025 0.34921 0.49393 0.0
C81 C 0.30513 0.27668 0.58447 0.0
O82 O 0.27732 0.31825 0.53392 0.0
O83 O 0.31013 0.29612 0.4914 0.0
C84 C 0.32206 0.39104 0.53567 0.0
O85 O 0.30302 0.30528 0.59462 0.0
O86 O 0.31479 0.26784 0.55241 0.0
C87 C 0.39855 0.28712 0.54819 0.0
C88 C 0.14979 0.07075 0.22246 0.0
C89 C 0.13196 0.05083 0.20112 0.0
C90 C 0.09937 0.05638 0.20109 0.0
C91 C 0.10313 0.1035 0.23917 0.0
C92 C 0.13484 0.09708 0.24119 0.0
C93 C 0.15007 0.12222 0.26332 0.0
H94 H 0.13886 0.26436 0.35452 0.0
C95 C 0.09534 0.13437 0.25766 0.0
C96 C 0.12256 0.14549 0.27215 0.0
H97 H 0.21785 0.19802 0.34215 0.0
H98 H 0.18797 0.16227 0.30704 0.0
H99 H 0.12164 0.25628 0.27263 0.0
H100 H 0.082 0.21258 0.36585 0.0
H101 H 0.05229 0.22964 0.3407 0.0
H102 H 0.08056 0.2541 0.36065 0.0
H103 H 0.09226 0.27624 0.30269 0.0
H104 H 0.08211 0.25045 0.26525 0.0
C105 C 0.17592 0.13615 0.23896 0.0
C106 C 0.16202 0.10765 0.29774 0.0
C107 C 0.98843 0.1839 0.24296 0.0
C108 C 0.97627 0.21474 0.24746 0.0
C109 C 0.99372 0.23762 0.26509 0.0
C110 C 0.0233 0.22962 0.27771 0.0
C111 C 0.03577 0.19875 0.27138 0.0
C112 C 0.01825 0.17663 0.25412 0.0
C113 C 0.03629 0.14639 0.24461 0.0
C114 C 0.06758 0.1536 0.25945 0.0
C115 C 0.06713 0.18401 0.2758 0.0
C116 C 0.03834 0.14084 0.2026 0.0
C117 C 0.02018 0.12039 0.2653 0.0
C118 C 0.14944 0.24201 0.34434 0.0
C119 C 0.18066 0.23387 0.35097 0.0
C120 C 0.19393 0.20481 0.33702 0.0
C121 C 0.17651 0.18402 0.31681 0.0
C122 C 0.1455 0.19242 0.31004 0.0
C123 C 0.13234 0.22098 0.32358 0.0
C124 C 0.0993 0.22603 0.31224 0.0
C125 C 0.09438 0.195 0.29178 0.0
C126 C 0.12175 0.17566 0.29023 0.0
C127 C 0.0985 0.25378 0.28708 0.0
C128 C 0.07719 0.231 0.34659 0.0
H129 H 0.06007 0.08562 0.21838 0.0
H130 H 0.17488 0.06677 0.22309 0.0
H131 H 0.14847 0.08706 0.30506 0.0
H132 H 0.15906 0.124 0.32198 0.0
H133 H 0.187 0.09964 0.29372 0.0
H134 H 0.16754 0.13956 0.21146 0.0
H135 H 0.19714 0.12029 0.23585 0.0
H136 H 0.18275 0.15944 0.24912 0.0
H137 H 0.97604 0.16618 0.22814 0.0
H138 H 0.98483 0.26169 0.26823 0.0
H139 H 0.03579 0.24791 0.29075 0.0
H140 H 0.03478 0.16301 0.18876 0.0
H141 H 0.02033 0.12469 0.1934 0.0
H142 H 0.06165 0.13166 0.19177 0.0
H143 H 0.01185 0.12924 0.29309 0.0
H144 H 0.03618 0.10015 0.26927 0.0
H145 H 0.99957 0.11209 0.25115 0.0
H146 H 0.08519 0.04088 0.18538 0.0
C147 C 0.08485 0.08242 0.22019 0.0
C148 C 0.37691 0.48238 0.80734 0.0
C149 C 0.39246 0.46588 0.77732 0.0
C150 C 0.42269 0.47451 0.76585 0.0
C151 C 0.41947 0.51805 0.8104 0.0
C152 C 0.39092 0.50825 0.82356 0.0
C153 C 0.37698 0.52963 0.85431 0.0
H154 H 0.37709 0.66868 0.94882 0.0
C155 C 0.42569 0.54794 0.82982 0.0
C156 C 0.40123 0.55457 0.85614 0.0
H157 H 0.31029 0.59603 0.95867 0.0
H158 H 0.34259 0.56195 0.91678 0.0
H159 H 0.44196 0.62156 0.94391 0.0
H160 H 0.38366 0.66348 0.86705 0.0
H161 H 0.42206 0.66342 0.84836 0.0
H162 H 0.41192 0.68539 0.89057 0.0
H163 H 0.43954 0.66285 0.93772 0.0
H164 H 0.4664 0.63698 0.91008 0.0
C165 C 0.37521 0.511 0.88903 0.0
C166 C 0.34496 0.54293 0.8431 0.0
C167 C 0.51186 0.61395 0.78005 0.0
C168 C 0.52015 0.64492 0.78786 0.0
C169 C 0.5053 0.66191 0.81808 0.0
C170 C 0.48198 0.64845 0.83956 0.0
C171 C 0.47301 0.61789 0.8303 0.0
C172 C 0.48829 0.60105 0.8013 0.0
C173 C 0.47482 0.56959 0.79411 0.0
C174 C 0.4487 0.5703 0.82348 0.0
C175 C 0.44767 0.59864 0.84451 0.0
C176 C 0.50044 0.54397 0.79959 0.0
C177 C 0.46222 0.56885 0.75556 0.0
C178 C 0.36947 0.64536 0.94213 0.0
C179 C 0.34088 0.6352 0.95674 0.0
C180 C 0.33222 0.60443 0.9479 0.0
C181 C 0.35085 0.58478 0.92326 0.0
C182 C 0.37821 0.59615 0.90696 0.0
C183 C 0.38753 0.62568 0.91719 0.0
C184 C 0.41667 0.63431 0.89626 0.0
C185 C 0.42343 0.60498 0.87187 0.0
C186 C 0.40064 0.58286 0.878 0.0
C187 C 0.44262 0.63945 0.92323 0.0
C188 C 0.40849 0.66324 0.87453 0.0
H189 H 0.45891 0.50629 0.77162 0.0
H190 H 0.3539 0.47597 0.81716 0.0
H191 H 0.34655 0.54932 0.81436 0.0
H192 H 0.33677 0.56457 0.85877 0.0
H193 H 0.32667 0.52539 0.84582 0.0
H194 H 0.39395 0.4922 0.88815 0.0
H195 H 0.35241 0.49972 0.8924 0.0
H196 H 0.37906 0.52572 0.91375 0.0
H197 H 0.52237 0.60045 0.75661 0.0
H198 H 0.51143 0.68576 0.82474 0.0
H199 H 0.47124 0.66265 0.86193 0.0
H200 H 0.51706 0.55213 0.81984 0.0
H201 H 0.51427 0.53742 0.77389 0.0
H202 H 0.49069 0.5227 0.81066 0.0
H203 H 0.45064 0.59176 0.75037 0.0
H204 H 0.44418 0.55162 0.75129 0.0
H205 H 0.4815 0.56402 0.73451 0.0
H206 H 0.43519 0.46237 0.74269 0.0
C207 C 0.43633 0.50032 0.78238 0.0
C208 C 0.75394 0.85323 0.33037 0.0
C209 C 0.76354 0.8245 0.34381 0.0
C210 C 0.79324 0.81105 0.33291 0.0
C211 C 0.80353 0.85429 0.29535 0.0
C212 C 0.77429 0.86762 0.30588 0.0
C213 C 0.76781 0.89745 0.28713 0.0
H214 H 0.82278 0.00679 0.17602 0.0
C215 C 0.81908 0.87469 0.26979 0.0
C216 C 0.79838 0.9002 0.2648 0.0
H217 H 0.72955 0.00454 0.22568 0.0
H218 H 0.7438 0.95606 0.25359 0.0
H219 H 0.8603 0.98523 0.24276 0.0
H220 H 0.82638 0.93653 0.1493 0.0
H221 H 0.86288 0.91856 0.15609 0.0
H222 H 0.86048 0.95948 0.14685 0.0
H223 H 0.87857 0.98699 0.19824 0.0
H224 H 0.88957 0.95691 0.22799 0.0
C225 C 0.76223 0.92456 0.3163 0.0
C226 C 0.7399 0.89246 0.26288 0.0
C227 C 0.92977 0.84538 0.2184 0.0
C228 C 0.9509 0.86099 0.19611 0.0
C229 C 0.94168 0.89022 0.18352 0.0
C230 C 0.91198 0.9038 0.19295 0.0
C231 C 0.89108 0.88811 0.21535 0.0
C232 C 0.90013 0.85953 0.22792 0.0
C233 C 0.87505 0.84699 0.25251 0.0
C234 C 0.84936 0.87252 0.25199 0.0
C235 C 0.85889 0.89633 0.23 0.0
C236 C 0.88808 0.84469 0.29063 0.0
C237 C 0.86508 0.81551 0.23494 0.0
C238 C 0.80552 0.99603 0.19327 0.0
C239 C 0.77528 0.00957 0.19932 0.0
C240 C 0.75311 0.9945 0.221 0.0
C241 C 0.76145 0.96645 0.23704 0.0
C242 C 0.79204 0.95319 0.23067 0.0
C243 C 0.81325 0.96798 0.20869 0.0
C244 C 0.84405 0.95017 0.20273 0.0
C245 C 0.83822 0.92219 0.22497 0.0
C246 C 0.80791 0.92406 0.24178 0.0
C247 C 0.86966 0.97077 0.21841 0.0
C248 C 0.84905 0.94077 0.16167 0.0
H249 H 0.83555 0.81422 0.30171 0.0
H250 H 0.73098 0.86375 0.33805 0.0
H251 H 0.74026 0.86797 0.25113 0.0
H252 H 0.74059 0.90712 0.23926 0.0
H253 H 0.71724 0.89708 0.27864 0.0
H254 H 0.78038 0.9235 0.33664 0.0
H255 H 0.739 0.92317 0.33081 0.0
H256 H 0.76365 0.94781 0.30507 0.0
H257 H 0.93636 0.82302 0.22871 0.0
H258 H 0.95746 0.9025 0.16598 0.0
H259 H 0.90651 0.92603 0.18235 0.0
H260 H 0.90532 0.86294 0.29588 0.0
H261 H 0.90009 0.82157 0.29341 0.0
H262 H 0.86986 0.84896 0.3128 0.0
H263 H 0.86497 0.81649 0.20498 0.0
H264 H 0.84102 0.80969 0.24351 0.0
H265 H 0.88148 0.79597 0.2409 0.0
H266 H 0.80093 0.78892 0.34303 0.0
C267 C 0.81329 0.82578 0.30892 0.0
C268 C 0.70421 0.26481 0.76413 0.0
C269 C 0.72707 0.27726 0.78619 0.0
C270 C 0.7377 0.30736 0.77963 0.0
C271 C 0.70364 0.31157 0.72981 0.0
C272 C 0.69275 0.28236 0.73642 0.0
C273 C 0.66748 0.27318 0.71162 0.0
H274 H 0.578 0.30989 0.57328 0.0
C275 C 0.68731 0.32354 0.6989 0.0
C276 C 0.66612 0.30105 0.68802 0.0
H277 H 0.56987 0.23038 0.63959 0.0
H278 H 0.61468 0.24672 0.67238 0.0
H279 H 0.58601 0.35778 0.63688 0.0
H280 H 0.65253 0.30755 0.56235 0.0
H281 H 0.66812 0.34437 0.57063 0.0
H282 H 0.63086 0.34169 0.55017 0.0
H283 H 0.59152 0.36659 0.59021 0.0
H284 H 0.61411 0.38453 0.62469 0.0
C285 C 0.63668 0.27044 0.73496 0.0
C286 C 0.67855 0.24274 0.68948 0.0
C287 C 0.70984 0.43134 0.65358 0.0
C288 C 0.69893 0.44744 0.62423 0.0
C289 C 0.67918 0.43221 0.6003 0.0
C290 C 0.66961 0.402 0.60597 0.0
C291 C 0.6797 0.38662 0.63602 0.0
C292 C 0.70019 0.40081 0.65868 0.0
C293 C 0.70948 0.37987 0.68811 0.0
C294 C 0.69012 0.35147 0.68009 0.0
C295 C 0.67245 0.35593 0.64987 0.0
C296 C 0.69935 0.39669 0.72519 0.0
C297 C 0.74507 0.37192 0.68259 0.0
C298 C 0.58625 0.29547 0.59425 0.0
C299 C 0.57064 0.26858 0.60352 0.0
C300 C 0.58156 0.25118 0.63191 0.0
C301 C 0.60745 0.26079 0.65095 0.0
C302 C 0.62219 0.28837 0.64189 0.0
C303 C 0.61151 0.30501 0.61377 0.0
C304 C 0.62832 0.33468 0.60898 0.0
C305 C 0.65079 0.33348 0.63913 0.0
C306 C 0.6474 0.30625 0.6582 0.0
C307 C 0.60394 0.3625 0.61521 0.0
C308 C 0.64576 0.33227 0.57104 0.0
H309 H 0.73533 0.34712 0.74815 0.0
H310 H 0.69541 0.24184 0.76814 0.0
H311 H 0.70329 0.24419 0.67915 0.0
H312 H 0.66498 0.23826 0.66537 0.0
H313 H 0.67715 0.2222 0.70647 0.0
H314 H 0.6359 0.2865 0.75968 0.0
H315 H 0.63422 0.24629 0.74392 0.0
H316 H 0.61571 0.27745 0.72073 0.0
H317 H 0.72531 0.44232 0.6722 0.0
H318 H 0.67014 0.44414 0.57775 0.0
H319 H 0.65408 0.39212 0.58712 0.0
H320 H 0.67607 0.40895 0.72405 0.0
H321 H 0.71633 0.41444 0.73307 0.0
H322 H 0.69649 0.38046 0.74716 0.0
H323 H 0.75264 0.37035 0.6533 0.0
H324 H 0.75187 0.34884 0.6923 0.0
H325 H 0.75884 0.39015 0.69612 0.0
H326 H 0.75453 0.31814 0.79663 0.0
C327 C 0.7263 0.3244 0.75155 0.0
C328 C 0.63633 0.50649 0.29227 0.0
C329 C 0.62134 0.52369 0.32213 0.0
C330 C 0.59067 0.51651 0.33357 0.0
C331 C 0.59144 0.47375 0.28805 0.0
C332 C 0.62077 0.48191 0.27537 0.0
C333 C 0.63298 0.46115 0.24317 0.0
H334 H 0.62268 0.32669 0.14163 0.0
C335 C 0.58281 0.44557 0.26676 0.0
C336 C 0.60672 0.4384 0.23987 0.0
H337 H 0.69297 0.39602 0.13242 0.0
H338 H 0.66374 0.43004 0.17728 0.0
H339 H 0.6155 0.32949 0.22274 0.0
H340 H 0.56152 0.37853 0.14743 0.0
H341 H 0.53513 0.36557 0.18086 0.0
H342 H 0.55931 0.3373 0.15297 0.0
H343 H 0.58598 0.31083 0.19774 0.0
H344 H 0.57688 0.33149 0.24099 0.0
C345 C 0.66392 0.44466 0.25308 0.0
C346 C 0.63629 0.48139 0.20982 0.0
C347 C 0.49054 0.3846 0.31118 0.0
C348 C 0.47982 0.35496 0.30097 0.0
C349 C 0.4936 0.33851 0.26982 0.0
C350 C 0.51825 0.35112 0.24969 0.0
C351 C 0.52963 0.38018 0.26124 0.0
C352 C 0.51546 0.39661 0.29121 0.0
C353 C 0.53147 0.42637 0.30065 0.0
C354 C 0.55784 0.42502 0.27149 0.0
C355 C 0.55664 0.39792 0.24861 0.0
C356 C 0.54376 0.42392 0.33908 0.0
C357 C 0.50806 0.45437 0.2969 0.0
C358 C 0.6314 0.34953 0.14855 0.0
C359 C 0.66035 0.35851 0.13383 0.0
C360 C 0.67099 0.38833 0.14393 0.0
C361 C 0.65403 0.40804 0.16998 0.0
C362 C 0.62622 0.39778 0.18625 0.0
C363 C 0.61479 0.36946 0.17459 0.0
C364 C 0.58494 0.36232 0.19502 0.0
C365 C 0.58043 0.39097 0.22096 0.0
C366 C 0.60495 0.41142 0.21612 0.0
C367 C 0.59079 0.33189 0.21506 0.0
C368 C 0.55873 0.36057 0.16784 0.0
H369 H 0.55257 0.48707 0.32711 0.0
H370 H 0.65968 0.51191 0.28253 0.0
H371 H 0.62013 0.50247 0.21276 0.0
H372 H 0.62983 0.4688 0.18458 0.0
H373 H 0.66045 0.48961 0.20599 0.0
H374 H 0.66129 0.43545 0.28055 0.0
H375 H 0.68323 0.46123 0.25321 0.0
H376 H 0.67126 0.42434 0.23465 0.0
H377 H 0.48082 0.39755 0.3354 0.0
H378 H 0.4856 0.3157 0.26142 0.0
H379 H 0.5281 0.3373 0.22653 0.0
H380 H 0.55405 0.40006 0.3424 0.0
H381 H 0.52452 0.42851 0.36025 0.0
H382 H 0.56263 0.43987 0.34489 0.0
H383 H 0.49087 0.44879 0.27625 0.0
H384 H 0.51967 0.47524 0.28727 0.0
H385 H 0.49465 0.46075 0.32293 0.0
H386 H 0.57866 0.52938 0.35657 0.0
C387 C 0.57564 0.49175 0.31665 0.0
C388 C 0.20616 0.14827 0.70909 0.0
C389 C 0.23595 0.1379 0.69462 0.0
C390 C 0.24806 0.10828 0.70308 0.0
C391 C 0.20133 0.10069 0.74118 0.0
C392 C 0.18937 0.12946 0.73206 0.0
C393 C 0.1576 0.13763 0.74983 0.0
H394 H 0.04051 0.10227 0.86762 0.0
C395 C 0.17784 0.0873 0.76599 0.0
C396 C 0.15205 0.10879 0.77074 0.0
H397 H 0.04901 0.18658 0.80963 0.0
H398 H 0.09646 0.16477 0.77773 0.0
H399 H 0.05789 0.05498 0.80288 0.0
H400 H 0.11272 0.09519 0.88568 0.0
H401 H 0.12172 0.05468 0.88169 0.0
H402 H 0.08218 0.06839 0.89342 0.0
H403 H 0.06025 0.03789 0.84579 0.0
H404 H 0.08776 0.02662 0.80818 0.0
C405 C 0.13405 0.14121 0.71983 0.0
C406 C 0.16016 0.16731 0.77524 0.0
C407 C 0.20127 0.9846 0.82525 0.0
C408 C 0.18257 0.96666 0.84787 0.0
C409 C 0.15115 0.97627 0.8564 0.0
C410 C 0.13859 0.00383 0.84371 0.0
C411 C 0.1576 0.02217 0.82219 0.0
C412 C 0.18804 0.01208 0.81217 0.0
C413 C 0.20346 0.03373 0.78647 0.0
C414 C 0.17769 0.05902 0.78441 0.0
C415 C 0.1512 0.05224 0.80604 0.0
C416 C 0.2107 0.01545 0.74953 0.0
C417 C 0.23262 0.04666 0.80402 0.0
C418 C 0.05264 0.11604 0.84804 0.0
C419 C 0.04142 0.14633 0.84149 0.0
C420 C 0.05733 0.1632 0.81515 0.0
C421 C 0.08496 0.15057 0.79694 0.0
C422 C 0.09673 0.12078 0.80521 0.0
C423 C 0.08021 0.10387 0.82989 0.0
C424 C 0.09601 0.07278 0.8357 0.0
C425 C 0.12535 0.07407 0.8111 0.0
C426 C 0.12571 0.10218 0.79343 0.0
C427 C 0.07445 0.04659 0.82276 0.0
C428 C 0.10351 0.07241 0.8762 0.0
H429 H 0.24147 0.0675 0.73239 0.0
H430 H 0.196 0.1707 0.7026 0.0
H431 H 0.18325 0.16747 0.78765 0.0
H432 H 0.14286 0.1687 0.79849 0.0
H433 H 0.15771 0.18891 0.76016 0.0
H434 H 0.13986 0.12397 0.69664 0.0
H435 H 0.13444 0.16496 0.70923 0.0
H436 H 0.10983 0.13647 0.72901 0.0
H437 H 0.22539 0.97736 0.81796 0.0
H438 H 0.13646 0.96277 0.87387 0.0
H439 H 0.11469 0.01006 0.85176 0.0
H440 H 0.19324 0.99734 0.74463 0.0
H441 H 0.23418 0.00336 0.74843 0.0
H442 H 0.20923 0.03054 0.72636 0.0
H443 H 0.22693 0.05431 0.83289 0.0
H444 H 0.24146 0.06737 0.79101 0.0
H445 H 0.25187 0.02845 0.80317 0.0
H446 H 0.27102 0.09986 0.69223 0.0
C447 C 0.23093 0.08963 0.72643 0.0
C448 C 0.26128 0.70587 0.33513 0.0
C449 C 0.27328 0.73025 0.31507 0.0
C450 C 0.30006 0.74505 0.32721 0.0
C451 C 0.30198 0.71169 0.37793 0.0
C452 C 0.27618 0.69674 0.36588 0.0
C453 C 0.2681 0.66942 0.38804 0.0
H454 H 0.30603 0.57652 0.52229 0.0
C455 C 0.31188 0.69662 0.41066 0.0
C456 C 0.29204 0.67181 0.41674 0.0
H457 H 0.24057 0.5587 0.43971 0.0
H458 H 0.24704 0.61104 0.41882 0.0
H459 H 0.35638 0.6023 0.47068 0.0
H460 H 0.2856 0.6486 0.54311 0.0
H461 H 0.31634 0.67455 0.54137 0.0
H462 H 0.32277 0.63629 0.55867 0.0
H463 H 0.35614 0.60213 0.51919 0.0
H464 H 0.37393 0.63255 0.49516 0.0
C465 C 0.27313 0.63895 0.36335 0.0
C466 C 0.23438 0.67493 0.40479 0.0
C467 C 0.4079 0.73224 0.47503 0.0
C468 C 0.4212 0.72294 0.50697 0.0
C469 C 0.4051 0.70214 0.52875 0.0
C470 C 0.37731 0.68941 0.51805 0.0
C471 C 0.36547 0.69716 0.48497 0.0
C472 C 0.37976 0.71935 0.46486 0.0
C473 C 0.36202 0.72621 0.43187 0.0
C474 C 0.33589 0.70318 0.43471 0.0
C475 C 0.33868 0.68575 0.46542 0.0
C476 C 0.38412 0.7186 0.39781 0.0
C477 C 0.34932 0.76063 0.43622 0.0
C478 C 0.29274 0.5841 0.50002 0.0
C479 C 0.27324 0.56345 0.48218 0.0
C480 C 0.25587 0.5742 0.45373 0.0
C481 C 0.26008 0.60433 0.44132 0.0
C482 C 0.28214 0.62354 0.45728 0.0
C483 C 0.29735 0.61356 0.48681 0.0
C484 C 0.32158 0.63565 0.49897 0.0
C485 C 0.31942 0.66003 0.47092 0.0
C486 C 0.29619 0.65303 0.44672 0.0
C487 C 0.35376 0.61744 0.49614 0.0
C488 C 0.31133 0.64944 0.53759 0.0
H489 H 0.33452 0.74826 0.36611 0.0
H490 H 0.24079 0.69385 0.32715 0.0
H491 H 0.23086 0.69923 0.41692 0.0
H492 H 0.22904 0.6593 0.42685 0.0
H493 H 0.21698 0.67154 0.38387 0.0
H494 H 0.28934 0.64218 0.33948 0.0
H495 H 0.25073 0.63111 0.35291 0.0
H496 H 0.28433 0.61963 0.37732 0.0
H497 H 0.41942 0.74863 0.45808 0.0
H498 H 0.41482 0.69443 0.55334 0.0
H499 H 0.36676 0.67303 0.5353 0.0
H500 H 0.39867 0.69692 0.40093 0.0
H501 H 0.40022 0.73788 0.39324 0.0
H502 H 0.37148 0.71391 0.37302 0.0
H503 H 0.34288 0.76758 0.46513 0.0
H504 H 0.32759 0.76464 0.42208 0.0
H505 H 0.36714 0.77684 0.4265 0.0
H506 H 0.31072 0.76315 0.31211 0.0
C507 C 0.3142 0.73614 0.35857 0.0
C508 C 0.83929 0.93073 0.87526 0.0
C509 C 0.85216 0.94911 0.90288 0.0
C510 C 0.87839 0.93739 0.91991 0.0
C511 C 0.88054 0.89073 0.87996 0.0
C512 C 0.85403 0.90163 0.86409 0.0
C513 C 0.84502 0.8795 0.83369 0.0
H514 H 0.87744 0.74826 0.72489 0.0
C515 C 0.89177 0.86114 0.86041 0.0
C516 C 0.87115 0.85426 0.8333 0.0
H517 H 0.79641 0.81187 0.7283 0.0
H518 H 0.81707 0.84314 0.77668 0.0
H519 H 0.92993 0.80318 0.73834 0.0
H520 H 0.87999 0.74596 0.81285 0.0
H521 H 0.91982 0.74615 0.8226 0.0
H522 H 0.90897 0.72955 0.77957 0.0
H523 H 0.9373 0.7616 0.73831 0.0
H524 H 0.95591 0.78814 0.76901 0.0
C525 C 0.84607 0.89729 0.79835 0.0
C526 C 0.8126 0.86675 0.84434 0.0
C527 C 0.994 0.81108 0.89406 0.0
C528 C 0.0131 0.78587 0.8793 0.0
C529 C 0.00291 0.76722 0.85009 0.0
C530 C 0.97392 0.77426 0.83534 0.0
C531 C 0.95528 0.80028 0.84997 0.0
C532 C 0.96556 0.81794 0.87905 0.0
C533 C 0.94407 0.84548 0.89051 0.0
C534 C 0.91886 0.84166 0.86375 0.0
C535 C 0.92525 0.81517 0.83999 0.0
C536 C 0.96239 0.87569 0.88527 0.0
C537 C 0.93136 0.84131 0.92989 0.0
C538 C 0.86453 0.76917 0.73594 0.0
C539 C 0.83537 0.77782 0.72286 0.0
C540 C 0.81888 0.80486 0.7381 0.0
C541 C 0.83089 0.82295 0.76622 0.0
C542 C 0.85974 0.81395 0.77953 0.0
C543 C 0.87612 0.78743 0.76462 0.0
C544 C 0.90583 0.78109 0.78366 0.0
C545 C 0.90421 0.80792 0.81251 0.0
C546 C 0.87725 0.82726 0.80951 0.0
C547 C 0.93388 0.78338 0.75603 0.0
C548 C 0.90385 0.74892 0.80048 0.0
H549 H 0.9127 0.90106 0.92258 0.0
H550 H 0.81913 0.93935 0.86177 0.0
H551 H 0.80839 0.867 0.87427 0.0
H552 H 0.8106 0.84196 0.83502 0.0
H553 H 0.79335 0.88104 0.83363 0.0
H554 H 0.86695 0.91192 0.7968 0.0
H555 H 0.82498 0.91306 0.79721 0.0
H556 H 0.84817 0.88165 0.77361 0.0
H557 H 0.00161 0.82592 0.9163 0.0
H558 H 0.01761 0.74776 0.83828 0.0
H559 H 0.96735 0.75956 0.81282 0.0
H560 H 0.9812 0.872 0.86337 0.0
H561 H 0.97364 0.88335 0.91041 0.0
H562 H 0.94763 0.8953 0.87647 0.0
H563 H 0.92771 0.81622 0.93445 0.0
H564 H 0.90818 0.85313 0.93629 0.0
H565 H 0.94799 0.84987 0.94983 0.0
H566 H 0.88842 0.95119 0.94145 0.0
C567 C 0.8925 0.9083 0.9088 0.0
H568 H 0.16767 0.94647 0.07966 0.0
H569 H 0.21102 0.90299 0.1678 0.0
H570 H 0.19879 0.95027 0.20715 0.0
H571 H 0.17061 0.00207 0.2179 0.0
H572 H 0.12618 0.04347 0.12918 0.0
H573 H 0.14414 0.99897 0.08855 0.0
C574 C 0.17475 0.94738 0.10738 0.0
C575 C 0.18988 0.92118 0.12092 0.0
C576 C 0.16724 0.97423 0.1298 0.0
C577 C 0.19931 0.92291 0.15675 0.0
C578 C 0.19217 0.94985 0.1793 0.0
C579 C 0.16542 0.00142 0.18953 0.0
C580 C 0.14682 0.02565 0.1765 0.0
C581 C 0.1754 0.97538 0.16636 0.0
C582 C 0.14012 0.02476 0.13976 0.0
C583 C 0.15037 0.99938 0.11656 0.0
H584 H 0.58473 0.71207 0.65872 0.0
H585 H 0.64325 0.62752 0.65505 0.0
H586 H 0.61809 0.61267 0.71173 0.0
H587 H 0.57526 0.62021 0.75789 0.0
H588 H 0.51403 0.70265 0.76017 0.0
H589 H 0.54487 0.72226 0.70934 0.0
C590 C 0.59234 0.69077 0.67081 0.0
C591 C 0.61548 0.6707 0.65255 0.0
C592 C 0.57717 0.6819 0.70309 0.0
C593 C 0.62514 0.64311 0.66839 0.0
C594 C 0.61079 0.63458 0.7008 0.0
C595 C 0.56892 0.64266 0.74752 0.0
C596 C 0.54222 0.65973 0.76242 0.0
C597 C 0.58608 0.65323 0.71767 0.0
C598 C 0.53458 0.68908 0.74923 0.0
C599 C 0.55202 0.70016 0.71992 0.0
H600 H 0.7589 0.10634 0.08114 0.0
H601 H 0.83148 0.14904 0.14036 0.0
H602 H 0.82316 0.11366 0.18907 0.0
H603 H 0.80254 0.06458 0.20877 0.0
H604 H 0.73258 0.01883 0.14835 0.0
H605 H 0.73186 0.06143 0.10661 0.0
C606 C 0.77192 0.10854 0.10542 0.0
C607 C 0.79562 0.13027 0.1075 0.0
C608 C 0.76778 0.08718 0.13279 0.0
C609 C 0.81299 0.13259 0.13852 0.0
C610 C 0.80839 0.11221 0.1662 0.0
C611 C 0.7864 0.06458 0.18714 0.0
C612 C 0.76773 0.03875 0.18141 0.0
C613 C 0.78693 0.08852 0.1628 0.0
C614 C 0.74697 0.03869 0.15332 0.0
C615 C 0.74685 0.06286 0.12926 0.0
H616 H 0.45386 0.2781 0.51093 0.0
H617 H 0.40658 0.26317 0.61365 0.0
H618 H 0.4569 0.25075 0.63944 0.0
H619 H 0.51457 0.25344 0.63493 0.0
H620 H 0.56119 0.26786 0.53137 0.0
H621 H 0.51095 0.27051 0.50343 0.0
C622 C 0.45464 0.27114 0.53863 0.0
C623 C 0.4269 0.27157 0.56053 0.0
C624 C 0.48353 0.26432 0.55315 0.0
C625 C 0.42783 0.26266 0.59635 0.0
C626 C 0.45658 0.25587 0.61112 0.0
C627 C 0.51378 0.25606 0.60602 0.0
C628 C 0.54149 0.26118 0.58541 0.0
C629 C 0.48468 0.25789 0.59014 0.0
C630 C 0.54009 0.26456 0.54795 0.0
C631 C 0.51139 0.26613 0.53196 0.0
H632 H 0.69397 0.59901 0.43864 0.0
H633 H 0.61302 0.66144 0.43374 0.0
H634 H 0.59616 0.63103 0.3813 0.0
H635 H 0.59999 0.58246 0.34316 0.0
H636 H 0.67932 0.5183 0.34898 0.0
H637 H 0.70158 0.55372 0.39407 0.0
C638 C 0.67318 0.6064 0.42536 0.0
C639 C 0.65455 0.63219 0.4402 0.0
C640 C 0.66309 0.58822 0.39568 0.0
C641 C 0.62753 0.64145 0.42295 0.0
C642 C 0.61781 0.62402 0.39306 0.0
C643 C 0.62243 0.57655 0.35388 0.0
C644 C 0.63781 0.54773 0.34324 0.0
C645 C 0.63467 0.59666 0.3802 0.0
C646 C 0.66707 0.54044 0.35681 0.0
C647 C 0.67967 0.56057 0.38278 0.0
H648 H 0.91318 0.20014 0.91693 0.0
H649 H 0.95805 0.16695 0.01015 0.0
H650 H 0.0056 0.15314 0.97307 0.0
H651 H 0.03324 0.14685 0.91393 0.0
H652 H 0.98927 0.17781 0.81942 0.0
H653 H 0.94277 0.19666 0.85723 0.0
C654 C 0.93356 0.19032 0.92911 0.0
C655 C 0.93199 0.18436 0.96617 0.0
C656 C 0.96089 0.18186 0.90741 0.0
C657 C 0.95851 0.17149 0.98163 0.0
C658 C 0.98575 0.16357 0.96047 0.0
C659 C 0.01345 0.15773 0.9016 0.0
C660 C 0.01436 0.16049 0.86398 0.0
C661 C 0.98694 0.16799 0.92329 0.0
C662 C 0.98898 0.17536 0.84839 0.0
C663 C 0.9624 0.18598 0.86997 0.0
H664 H 0.2658 0.42263 0.52614 0.0
H665 H 0.36609 0.43056 0.51472 0.0
H666 H 0.35932 0.4835 0.49584 0.0
H667 H 0.32585 0.52828 0.48474 0.0
H668 H 0.22561 0.52324 0.49594 0.0
H669 H 0.23134 0.46836 0.51213 0.0
C670 C 0.28608 0.43595 0.51934 0.0
C671 C 0.31641 0.42268 0.52242 0.0
C672 C 0.28208 0.4669 0.50851 0.0
C673 C 0.34247 0.44022 0.51325 0.0
C674 C 0.33869 0.47056 0.50229 0.0
C675 C 0.30519 0.51524 0.49093 0.0
C676 C 0.2754 0.52985 0.4899 0.0
C677 C 0.30873 0.48422 0.50034 0.0
C678 C 0.24882 0.51245 0.49685 0.0
C679 C 0.25214 0.48117 0.50619 0.0
H680 H 0.13405 0.81715 0.95549 0.0
H681 H 0.10203 0.746 0.02464 0.0
H682 H 0.06211 0.73204 0.98206 0.0
H683 H 0.03103 0.74676 0.93038 0.0
H684 H 0.0638 0.81805 0.86182 0.0
H685 H 0.10928 0.82485 0.8982 0.0
C686 C 0.11885 0.79799 0.96059 0.0
C687 C 0.12063 0.78268 0.993 0.0
C688 C 0.09611 0.79026 0.93611 0.0
C689 C 0.10103 0.7579 0.99963 0.0
C690 C 0.07811 0.75013 0.97544 0.0
C691 C 0.04891 0.76276 0.92268 0.0
C692 C 0.04443 0.78174 0.89345 0.0
C693 C 0.07468 0.76697 0.94426 0.0
C694 C 0.0672 0.80296 0.88397 0.0
C695 C 0.09294 0.8071 0.90501 0.0
H696 H 0.79606 0.07603 0.9774 0.0
H697 H 0.88706 0.10518 0.94022 0.0
H698 H 0.89776 0.05487 0.90736 0.0
H699 H 0.88426 0.00072 0.8953 0.0
H700 H 0.79463 0.96951 0.93306 0.0
H701 H 0.78006 0.02248 0.95913 0.0
C702 C 0.81792 0.0715 0.96149 0.0
C703 C 0.84093 0.0941 0.96168 0.0
C704 C 0.82425 0.04209 0.94304 0.0
C705 C 0.86918 0.08796 0.94098 0.0
C706 C 0.87535 0.05922 0.92214 0.0
C707 C 0.86132 0.00577 0.90869 0.0
C708 C 0.84058 0.98153 0.91264 0.0
C709 C 0.85353 0.03583 0.92397 0.0
C710 C 0.81086 0.98805 0.92976 0.0
C711 C 0.80268 0.0182 0.94483 0.0
H712 H 0.41079 0.28769 0.42633 0.0
H713 H 0.35767 0.37567 0.43387 0.0
H714 H 0.38309 0.39041 0.37724 0.0
H715 H 0.42582 0.38188 0.33109 0.0
H716 H 0.48194 0.29585 0.32524 0.0
H717 H 0.44955 0.27636 0.37487 0.0
C718 C 0.40428 0.30967 0.41497 0.0
C719 C 0.38277 0.33077 0.43431 0.0
C720 C 0.41975 0.31847 0.38287 0.0
C721 C 0.37452 0.35927 0.41955 0.0
C722 C 0.38905 0.36774 0.38724 0.0
C723 C 0.4306 0.35866 0.34034 0.0
C724 C 0.45641 0.34053 0.32499 0.0
C725 C 0.4126 0.34811 0.36953 0.0
C726 C 0.46211 0.31024 0.33666 0.0
C727 C 0.44378 0.29921 0.36526 0.0
H728 H 0.18653 0.85117 0.94042 0.0
H729 H 0.24712 0.90972 0.00111 0.0
H730 H 0.25043 0.94521 0.95157 0.0
H731 H 0.22712 0.96475 0.89691 0.0
H732 H 0.16411 0.90723 0.83874 0.0
H733 H 0.17114 0.86584 0.88081 0.0
C734 C 0.2011 0.87129 0.94239 0.0
C735 C 0.21604 0.8782 0.97458 0.0
C736 C 0.20222 0.89191 0.91428 0.0
C737 C 0.23526 0.90401 0.97664 0.0
C738 C 0.23695 0.92444 0.94843 0.0
C739 C 0.21604 0.9426 0.89272 0.0
C740 C 0.19511 0.93888 0.865 0.0
C741 C 0.21929 0.91941 0.9179 0.0
C742 C 0.18039 0.91038 0.85994 0.0
C743 C 0.18418 0.8869 0.88416 0.0
H744 H 0.55044 0.73147 0.57716 0.0
H745 H 0.58345 0.7102 0.46643 0.0
H746 H 0.53016 0.71777 0.44639 0.0
H747 H 0.47348 0.7223 0.46199 0.0
H748 H 0.44056 0.74253 0.57322 0.0
H749 H 0.49443 0.74417 0.59153 0.0
C750 C 0.54592 0.72952 0.54858 0.0
C751 C 0.57047 0.72054 0.52314 0.0
C752 C 0.51524 0.73337 0.53749 0.0
C753 C 0.56469 0.71745 0.48625 0.0
C754 C 0.53426 0.72156 0.4749 0.0
C755 C 0.47811 0.72809 0.49003 0.0
C756 C 0.45309 0.73182 0.5163 0.0
C757 C 0.50919 0.72842 0.50045 0.0
C758 C 0.45946 0.73906 0.5526 0.0
C759 C 0.49025 0.73994 0.5631 0.0
H760 H 0.3171 0.39705 0.65892 0.0
H761 H 0.40262 0.33975 0.64802 0.0
H762 H 0.4211 0.36599 0.70241 0.0
H763 H 0.41627 0.41 0.74762 0.0
H764 H 0.33237 0.46957 0.75633 0.0
H765 H 0.30959 0.43709 0.70919 0.0
C766 C 0.33948 0.38987 0.66889 0.0
C767 C 0.35872 0.36695 0.64907 0.0
C768 C 0.35035 0.40558 0.69977 0.0
C769 C 0.3876 0.35777 0.66244 0.0
C770 C 0.39821 0.37274 0.69354 0.0
C771 C 0.39283 0.41559 0.73952 0.0
C772 C 0.37626 0.44238 0.75505 0.0
C773 C 0.38032 0.39748 0.71156 0.0
C774 C 0.34562 0.449 0.7449 0.0
C775 C 0.33269 0.43062 0.71764 0.0
H776 H 0.07325 0.79415 0.12159 0.0
H777 H 0.10982 0.8832 0.15426 0.0
H778 H 0.06059 0.89866 0.18743 0.0
H779 H 0.00546 0.88968 0.20106 0.0
H780 H 0.96714 0.80199 0.16727 0.0
H781 H 0.01871 0.78292 0.14124 0.0
C782 C 0.07058 0.8166 0.13666 0.0
C783 C 0.09496 0.83766 0.13512 0.0
C784 C 0.0418 0.82572 0.15516 0.0
C785 C 0.09122 0.86676 0.15466 0.0
C786 C 0.06307 0.87566 0.17361 0.0
C787 C 0.00853 0.86626 0.18831 0.0
C788 C 0.98261 0.84741 0.18554 0.0
C789 C 0.03792 0.8558 0.173 0.0
C790 C 0.98686 0.81691 0.16963 0.0
C791 C 0.01627 0.80611 0.15457 0.0
H792 H 0.69306 0.59397 0.62201 0.0
H793 H 0.71208 0.57099 0.50811 0.0
H794 H 0.72151 0.51587 0.5201 0.0
H795 H 0.71712 0.47367 0.56193 0.0
H796 H 0.69503 0.49589 0.67559 0.0
H797 H 0.6949 0.55184 0.66517 0.0
C798 C 0.70018 0.57689 0.60012 0.0
C799 C 0.70224 0.58618 0.56434 0.0
C800 C 0.70473 0.54515 0.6072 0.0
C801 C 0.71081 0.5641 0.53587 0.0
C802 C 0.71596 0.53266 0.54271 0.0
C803 C 0.71279 0.49081 0.58449 0.0
C804 C 0.7057 0.48071 0.61937 0.0
C805 C 0.71192 0.52279 0.5781 0.0
C806 C 0.70064 0.50309 0.6485 0.0
C807 C 0.70026 0.53508 0.64248 0.0
H808 H 0.86648 0.19463 0.14889 0.0
H809 H 0.92119 0.25413 0.08234 0.0
H810 H 0.95358 0.26683 0.13307 0.0
H811 H 0.97203 0.25306 0.19238 0.0
H812 H 0.91856 0.19165 0.25746 0.0
H813 H 0.87942 0.18835 0.21185 0.0
C814 C 0.88518 0.21077 0.1457 0.0
C815 C 0.89193 0.2228 0.11172 0.0
C816 C 0.90388 0.21767 0.17482 0.0
C817 C 0.91573 0.24428 0.10814 0.0
C818 C 0.93433 0.25149 0.13712 0.0
C819 C 0.95106 0.24015 0.1972 0.0
C820 C 0.94803 0.22262 0.22808 0.0
C821 C 0.9294 0.23731 0.17012 0.0
C822 C 0.92112 0.20546 0.23391 0.0
C823 C 0.89902 0.20324 0.20762 0.0
H824 H 0.20767 0.74758 0.16731 0.0
H825 H 0.2424 0.8401 0.18279 0.0
H826 H 0.2627 0.82654 0.24087 0.0
H827 H 0.2709 0.78819 0.28653 0.0
H828 H 0.24268 0.69324 0.2662 0.0
H829 H 0.21874 0.70822 0.21142 0.0
C830 C 0.2195 0.76475 0.18364 0.0
C831 C 0.22336 0.79483 0.17125 0.0
C832 C 0.23211 0.7564 0.21619 0.0
C833 C 0.23921 0.81681 0.19205 0.0
C834 C 0.25076 0.80906 0.22516 0.0
C835 C 0.26005 0.77047 0.27 0.0
C836 C 0.25862 0.73956 0.2812 0.0
C837 C 0.24757 0.77881 0.23736 0.0
C838 C 0.24361 0.71742 0.25932 0.0
C839 C 0.23013 0.72585 0.22754 0.0
H840 H 0.77598 0.72011 0.58328 0.0
H841 H 0.70092 0.70805 0.66323 0.0
H842 H 0.73354 0.72558 0.71134 0.0
H843 H 0.78087 0.74982 0.73046 0.0
H844 H 0.8565 0.76341 0.65247 0.0
H845 H 0.82662 0.73946 0.60401 0.0
C846 C 0.76706 0.72086 0.61128 0.0
C847 C 0.73584 0.71335 0.61953 0.0
C848 C 0.78597 0.73143 0.63918 0.0
C849 C 0.72463 0.7143 0.656 0.0
C850 C 0.74327 0.72427 0.68364 0.0
C851 C 0.79097 0.74699 0.70291 0.0
C852 C 0.82058 0.75842 0.6948 0.0
C853 C 0.77356 0.73375 0.67547 0.0
C854 C 0.83368 0.7546 0.65919 0.0
C855 C 0.8165 0.74114 0.63153 0.0
H856 H 0.72972 0.24888 0.03579 0.0
H857 H 0.80687 0.27991 0.09716 0.0
H858 H 0.77324 0.32081 0.12861 0.0
H859 H 0.7221 0.34716 0.13977 0.0
H860 H 0.64439 0.31758 0.07878 0.0
H861 H 0.67806 0.27664 0.04615 0.0
C862 C 0.73907 0.26453 0.05614 0.0
C863 C 0.77074 0.26134 0.06407 0.0
C864 C 0.7196 0.28832 0.07408 0.0
C865 C 0.78262 0.28194 0.09036 0.0
C866 C 0.76342 0.30536 0.10841 0.0
C867 C 0.71263 0.3322 0.11882 0.0
C868 C 0.68091 0.33556 0.11148 0.0
C869 C 0.73196 0.3088 0.10043 0.0
C870 C 0.66879 0.31538 0.08496 0.0
C871 C 0.688 0.29199 0.06633 0.0
H872 H 0.30398 0.21293 0.57339 0.0
H873 H 0.28087 0.28866 0.65348 0.0
H874 H 0.25966 0.25201 0.6951 0.0
H875 H 0.2452 0.19917 0.70807 0.0
H876 H 0.26708 0.12285 0.62896 0.0
H877 H 0.29184 0.15888 0.58799 0.0
C878 C 0.29441 0.22139 0.59999 0.0
C879 C 0.29374 0.25363 0.60998 0.0
C880 C 0.28212 0.20009 0.62406 0.0
C881 C 0.2815 0.26408 0.64477 0.0
C882 C 0.26936 0.24313 0.66873 0.0
C883 C 0.25545 0.19043 0.68185 0.0
C884 C 0.25403 0.15856 0.6713 0.0
C885 C 0.26916 0.21122 0.65848 0.0
C886 C 0.26797 0.14734 0.63765 0.0
C887 C 0.2819 0.16796 0.61417 0.0
H888 H 0.6982 0.72334 0.43293 0.0
H889 H 0.7023 0.79469 0.51913 0.0
H890 H 0.72165 0.83147 0.47545 0.0
H891 H 0.74273 0.84122 0.41329 0.0
H892 H 0.73958 0.76845 0.32866 0.0
H893 H 0.71415 0.7344 0.37102 0.0
C894 C 0.70314 0.74701 0.44221 0.0
C895 C 0.69935 0.75611 0.4793 0.0
C896 C 0.71441 0.76776 0.41713 0.0
C897 C 0.7052 0.78706 0.49074 0.0
C898 C 0.71635 0.80804 0.46578 0.0
C899 C 0.7357 0.81818 0.40416 0.0
C900 C 0.74285 0.8072 0.36806 0.0
C901 C 0.72175 0.79841 0.42899 0.0
C902 C 0.73414 0.77724 0.35637 0.0
C903 C 0.71981 0.75777 0.38059 0.0
H904 H 0.75632 0.20181 0.92395 0.0
H905 H 0.84511 0.24436 0.90728 0.0
H906 H 0.82763 0.26651 0.85193 0.0
H907 H 0.78631 0.27605 0.8103 0.0
H908 H 0.69536 0.23837 0.8307 0.0
H909 H 0.71472 0.21145 0.88185 0.0
C910 C 0.77194 0.21554 0.90783 0.0
C911 C 0.80198 0.22138 0.91946 0.0
C912 C 0.76131 0.22915 0.87675 0.0
C913 C 0.82186 0.23964 0.89878 0.0
C914 C 0.81186 0.25232 0.86721 0.0
C915 C 0.77051 0.26225 0.82606 0.0
C916 C 0.73929 0.25954 0.81647 0.0
C917 C 0.78143 0.24774 0.85633 0.0
C918 C 0.71961 0.2407 0.83687 0.0
C919 C 0.73058 0.22544 0.86644 0.0
H920 H 0.28849 0.29873 0.42921 0.0
H921 H 0.22041 0.30145 0.51953 0.0
H922 H 0.18065 0.28296 0.47912 0.0
H923 H 0.16764 0.2592 0.41942 0.0
H924 H 0.23725 0.25489 0.33061 0.0
H925 H 0.27399 0.28108 0.369 0.0
C926 C 0.26484 0.29564 0.44003 0.0
C927 C 0.25752 0.30089 0.47737 0.0
C928 C 0.24246 0.28451 0.41689 0.0
C929 C 0.22665 0.29741 0.49088 0.0
C930 C 0.20398 0.28667 0.46782 0.0
C931 C 0.1906 0.26475 0.40841 0.0
C932 C 0.19997 0.25496 0.37246 0.0
C933 C 0.21192 0.27916 0.43097 0.0
C934 C 0.22977 0.26201 0.35836 0.0
C935 C 0.25076 0.27689 0.38028 0.0
H936 H 0.24165 0.71565 0.05929 0.0
H937 H 0.2684 0.78565 0.98521 0.0
H938 H 0.30432 0.74787 0.95166 0.0
H939 H 0.32805 0.69543 0.94308 0.0
H940 H 0.30376 0.62513 0.0176 0.0
H941 H 0.26656 0.66248 0.05098 0.0
C942 C 0.25525 0.72252 0.03571 0.0
C943 C 0.25242 0.75342 0.02482 0.0
C944 C 0.27627 0.70072 0.01665 0.0
C945 C 0.27032 0.76208 0.99434 0.0
C946 C 0.29084 0.7405 0.97507 0.0
C947 C 0.31507 0.68835 0.96701 0.0
C948 C 0.31895 0.65766 0.97807 0.0
C949 C 0.29413 0.70988 0.98611 0.0
C950 C 0.30114 0.64862 0.00846 0.0
C951 C 0.27996 0.66998 0.0276 0.0
loop_
_geom_bond_atom_site_label_1
_geom_bond_atom_site_label_2
_geom_bond_distance
_geom_bond_site_symmetry_2
_ccdc_geom_bond_type
Fe0 O2 1.918 . S
Fe0 O5 1.997 . S
Fe0 O6 2.002 . S
Fe0 O11 1.976 . S
Fe0 O14 1.996 . S
Fe1 O2 1.918 . S
Fe1 O9 1.997 . S
Fe1 O12 1.996 . S
Fe1 O16 1.976 . S
Fe1 O19 2.002 . S
O2 Fe0 1.918 . S
O2 Fe1 1.918 . S
O2 Fe3 1.918 . S
Fe3 O2 1.918 . S
Fe3 O4 2.002 . S
Fe3 O13 1.976 . S
Fe3 O17 1.996 . S
Fe3 O20 1.997 . S
O4 Fe3 2.002 . S
O4 C21 1.295 . S
O5 Fe0 1.997 . S
O5 C21 1.235 . S
O6 Fe0 2.002 . S
O6 C7 1.295 . S
C7 O6 1.295 . S
C7 O9 1.235 . S
C8 O13 1.287 . S
C8 O14 1.255 . S
O9 Fe1 1.997 . S
O9 C7 1.235 . S
C10 O16 1.287 . S
C10 O17 1.255 . S
O11 Fe0 1.976 . S
O11 C18 1.287 . S
O12 Fe1 1.996 . S
O12 C18 1.255 . S
O13 Fe3 1.976 . S
O13 C8 1.287 . S
O14 Fe0 1.996 . S
O14 C8 1.255 . S
C15 O19 1.295 . S
C15 O20 1.235 . S
O16 Fe1 1.976 . S
O16 C10 1.287 . S
O17 Fe3 1.996 . S
O17 C10 1.255 . S
C18 O11 1.287 . S
C18 O12 1.255 . S
O19 Fe1 2.002 . S
O19 C15 1.295 . S
O20 Fe3 1.997 . S
O20 C15 1.235 . S
C21 O4 1.295 . S
C21 O5 1.235 . S
Fe22 O24 1.918 . S
Fe22 O27 1.997 . S
Fe22 O28 2.002 . S
Fe22 O33 1.976 . S
Fe22 O36 1.996 . S
Fe23 O24 1.918 . S
Fe23 O31 1.997 . S
Fe23 O34 1.996 . S
Fe23 O38 1.976 . S
Fe23 O41 2.002 . S
O24 Fe22 1.918 . S
O24 Fe23 1.918 . S
O24 Fe25 1.918 . S
Fe25 O24 1.918 . S
Fe25 O26 2.002 . S
Fe25 O35 1.976 . S
Fe25 O39 1.996 . S
Fe25 O42 1.997 . S
O26 Fe25 2.002 . S
O26 C43 1.295 . S
O27 Fe22 1.997 . S
O27 C43 1.235 . S
O28 Fe22 2.002 . S
O28 C29 1.295 . S
C29 O28 1.295 . S
C29 O31 1.235 . S
C30 O35 1.287 . S
C30 O36 1.255 . S
O31 Fe23 1.997 . S
O31 C29 1.235 . S
C32 O38 1.287 . S
C32 O39 1.255 . S
O33 Fe22 1.976 . S
O33 C40 1.287 . S
O34 Fe23 1.996 . S
O34 C40 1.255 . S
O35 Fe25 1.976 . S
O35 C30 1.287 . S
O36 Fe22 1.996 . S
O36 C30 1.255 . S
C37 O41 1.295 . S
C37 O42 1.235 . S
O38 Fe23 1.976 . S
O38 C32 1.287 . S
O39 Fe25 1.996 . S
O39 C32 1.255 . S
C40 O33 1.287 . S
C40 O34 1.255 . S
O41 Fe23 2.002 . S
O41 C37 1.295 . S
O42 Fe25 1.997 . S
O42 C37 1.235 . S
C43 O26 1.295 . S
C43 O27 1.235 . S
Fe44 O46 1.917 1_556 S
Fe44 O49 2.001 . S
Fe44 O50 2.005 . S
Fe44 O55 1.972 1_556 S
Fe44 O58 1.993 1_556 S
Fe45 O46 1.918 . S
Fe45 O53 1.997 1_554 S
Fe45 O56 1.996 . S
Fe45 O60 1.976 . S
Fe45 O63 2.002 1_554 S
O46 Fe44 1.917 1_554 S
O46 Fe45 1.918 . S
O46 Fe47 1.918 1_554 S
Fe47 O46 1.918 1_556 S
Fe47 O48 2.003 . S
Fe47 O57 1.976 1_556 S
Fe47 O61 1.995 1_556 S
Fe47 O64 1.997 . S
O48 Fe47 2.003 . S
O48 C65 1.295 . S
O49 Fe44 2.001 . S
O49 C65 1.235 . S
O50 Fe44 2.005 . S
O50 C51 1.295 . S
C51 O50 1.295 . S
C51 O53 1.235 . S
C52 O57 1.287 . S
C52 O58 1.255 . S
O53 Fe45 1.997 1_556 S
O53 C51 1.235 . S
C54 O60 1.287 . S
C54 O61 1.255 . S
O55 Fe44 1.972 1_554 S
O55 C62 1.287 . S
O56 Fe45 1.996 . S
O56 C62 1.255 . S
O57 Fe47 1.976 1_554 S
O57 C52 1.287 . S
O58 Fe44 1.993 1_554 S
O58 C52 1.255 . S
C59 O63 1.295 . S
C59 O64 1.235 . S
O60 Fe45 1.976 . S
O60 C54 1.287 . S
O61 Fe47 1.995 1_554 S
O61 C54 1.255 . S
C62 O55 1.287 . S
C62 O56 1.255 . S
O63 Fe45 2.002 1_556 S
O63 C59 1.295 . S
O64 Fe47 1.997 . S
O64 C59 1.235 . S
C65 O48 1.295 . S
C65 O49 1.235 . S
Fe66 O68 1.918 . S
Fe66 O71 1.997 . S
Fe66 O72 2.002 . S
Fe66 O77 1.976 . S
Fe66 O80 1.996 . S
Fe67 O68 1.918 . S
Fe67 O75 1.997 . S
Fe67 O78 1.996 . S
Fe67 O82 1.976 . S
Fe67 O85 2.002 . S
O68 Fe66 1.918 . S
O68 Fe67 1.918 . S
O68 Fe69 1.918 . S
Fe69 O68 1.918 . S
Fe69 O70 2.002 . S
Fe69 O79 1.976 . S
Fe69 O83 1.996 . S
Fe69 O86 1.997 . S
O70 Fe69 2.002 . S
O70 C87 1.295 . S
O71 Fe66 1.997 . S
O71 C87 1.235 . S
O72 Fe66 2.002 . S
O72 C73 1.295 . S
C73 O72 1.295 . S
C73 O75 1.235 . S
C74 O79 1.287 . S
C74 O80 1.255 . S
O75 Fe67 1.997 . S
O75 C73 1.235 . S
C76 O82 1.287 . S
C76 O83 1.255 . S
O77 Fe66 1.976 . S
O77 C84 1.287 . S
O78 Fe67 1.996 . S
O78 C84 1.255 . S
O79 Fe69 1.976 . S
O79 C74 1.287 . S
O80 Fe66 1.996 . S
O80 C74 1.255 . S
C81 O85 1.295 . S
C81 O86 1.235 . S
O82 Fe67 1.976 . S
O82 C76 1.287 . S
O83 Fe69 1.996 . S
O83 C76 1.255 . S
C84 O77 1.287 . S
C84 O78 1.255 . S
O85 Fe67 2.002 . S
O85 C81 1.295 . S
O86 Fe69 1.997 . S
O86 C81 1.235 . S
C87 O70 1.295 . S
C87 O71 1.235 . S
C88 C89 1.391 . S
C88 C92 1.391 . S
C88 H130 0.948 . S
C89 C88 1.391 . S
C89 C90 1.391 . S
C90 C89 1.391 . S
C90 H146 0.947 . S
C90 C147 1.392 . S
C91 C92 1.391 . S
C91 C95 1.397 . S
C91 C147 1.419 . S
C92 C88 1.391 . S
C92 C91 1.391 . S
C92 C93 1.399 . S
C93 C92 1.399 . S
C93 C96 1.396 . S
C93 C105 1.453 . S
C93 C106 1.684 . S
H94 C118 0.948 . S
C95 C91 1.397 . S
C95 C96 1.394 . S
C95 C114 1.723 . S
C96 C93 1.396 . S
C96 C95 1.394 . S
C96 C126 1.723 . S
H97 C120 0.947 . S
H98 C121 0.948 . S
H99 C127 0.982 . S
H100 C128 0.979 . S
H101 C128 0.980 . S
H102 C128 0.983 . S
H103 C127 0.979 . S
H104 C127 0.977 . S
C105 C93 1.453 . S
C105 H134 0.982 . S
C105 H135 0.979 . S
C105 H136 0.977 . S
C106 C93 1.684 . S
C106 H131 0.979 . S
C106 H132 0.980 . S
C106 H133 0.983 . S
C107 C108 1.391 . S
C107 C112 1.391 . S
C107 H137 0.948 . S
C108 C107 1.391 . S
C108 C109 1.391 . S
C109 C108 1.391 . S
C109 C110 1.392 . S
C109 H138 0.947 . S
C110 C109 1.392 . S
C110 C111 1.419 . S
C110 H139 0.948 . S
C111 C110 1.419 . S
C111 C112 1.391 . S
C111 C115 1.397 . S
C112 C107 1.391 . S
C112 C111 1.391 . S
C112 C113 1.399 . S
C113 C112 1.399 . S
C113 C114 1.396 . S
C113 C116 1.453 . S
C113 C117 1.684 . S
C114 C95 1.723 . S
C114 C113 1.396 . S
C114 C115 1.394 . S
C115 C111 1.397 . S
C115 C114 1.394 . S
C115 C125 1.723 . S
C116 C113 1.453 . S
C116 H140 0.982 . S
C116 H141 0.979 . S
C116 H142 0.977 . S
C117 C113 1.684 . S
C117 H143 0.979 . S
C117 H144 0.980 . S
C117 H145 0.983 . S
C118 H94 0.948 . S
C118 C119 1.391 . S
C118 C123 1.391 . S
C119 C118 1.391 . S
C119 C120 1.391 . S
C120 H97 0.947 . S
C120 C119 1.391 . S
C120 C121 1.392 . S
C121 H98 0.948 . S
C121 C120 1.392 . S
C121 C122 1.419 . S
C122 C121 1.419 . S
C122 C123 1.391 . S
C122 C126 1.397 . S
C123 C118 1.391 . S
C123 C122 1.391 . S
C123 C124 1.399 . S
C124 C123 1.399 . S
C124 C125 1.396 . S
C124 C127 1.453 . S
C124 C128 1.684 . S
C125 C115 1.723 . S
C125 C124 1.396 . S
C125 C126 1.394 . S
C126 C96 1.723 . S
C126 C122 1.397 . S
C126 C125 1.394 . S
C127 H99 0.982 . S
C127 H103 0.979 . S
C127 H104 0.977 . S
C127 C124 1.453 . S
C128 H100 0.979 . S
C128 H101 0.980 . S
C128 H102 0.983 . S
C128 C124 1.684 . S
H129 C147 0.948 . S
H130 C88 0.948 . S
H131 C106 0.979 . S
H132 C106 0.980 . S
H133 C106 0.983 . S
H134 C105 0.982 . S
H135 C105 0.979 . S
H136 C105 0.977 . S
H137 C107 0.948 . S
H138 C109 0.947 . S
H139 C110 0.948 . S
H140 C116 0.982 . S
H141 C116 0.979 . S
H142 C116 0.977 . S
H143 C117 0.979 . S
H144 C117 0.980 . S
H145 C117 0.983 . S
H146 C90 0.947 . S
C147 C90 1.392 . S
C147 C91 1.419 . S
C147 H129 0.948 . S
C148 C149 1.391 . S
C148 C152 1.391 . S
C148 H190 0.948 . S
C149 C148 1.391 . S
C149 C150 1.391 . S
C150 C149 1.391 . S
C150 H206 0.947 . S
C150 C207 1.392 . S
C151 C152 1.391 . S
C151 C155 1.397 . S
C151 C207 1.419 . S
C152 C148 1.391 . S
C152 C151 1.391 . S
C152 C153 1.399 . S
C153 C152 1.399 . S
C153 C156 1.396 . S
C153 C165 1.453 . S
C153 C166 1.684 . S
H154 C178 0.948 . S
C155 C151 1.397 . S
C155 C156 1.394 . S
C155 C174 1.723 . S
C156 C153 1.396 . S
C156 C155 1.394 . S
C156 C186 1.723 . S
H157 C180 0.947 . S
H158 C181 0.948 . S
H159 C187 0.982 . S
H160 C188 0.979 . S
H161 C188 0.980 . S
H162 C188 0.983 . S
H163 C187 0.979 . S
H164 C187 0.977 . S
C165 C153 1.453 . S
C165 H194 0.982 . S
C165 H195 0.979 . S
C165 H196 0.977 . S
C166 C153 1.684 . S
C166 H191 0.979 . S
C166 H192 0.980 . S
C166 H193 0.983 . S
C167 C168 1.391 . S
C167 C172 1.391 . S
C167 H197 0.948 . S
C168 C167 1.391 . S
C168 C169 1.391 . S
C169 C168 1.391 . S
C169 C170 1.392 . S
C169 H198 0.947 . S
C170 C169 1.392 . S
C170 C171 1.419 . S
C170 H199 0.948 . S
C171 C170 1.419 . S
C171 C172 1.391 . S
C171 C175 1.397 . S
C172 C167 1.391 . S
C172 C171 1.391 . S
C172 C173 1.399 . S
C173 C172 1.399 . S
C173 C174 1.396 . S
C173 C176 1.453 . S
C173 C177 1.684 . S
C174 C155 1.723 . S
C174 C173 1.396 . S
C174 C175 1.394 . S
C175 C171 1.397 . S
C175 C174 1.394 . S
C175 C185 1.723 . S
C176 C173 1.453 . S
C176 H200 0.982 . S
C176 H201 0.979 . S
C176 H202 0.977 . S
C177 C173 1.684 . S
C177 H203 0.979 . S
C177 H204 0.980 . S
C177 H205 0.983 . S
C178 H154 0.948 . S
C178 C179 1.391 . S
C178 C183 1.391 . S
C179 C178 1.391 . S
C179 C180 1.391 . S
C180 H157 0.947 . S
C180 C179 1.391 . S
C180 C181 1.392 . S
C181 H158 0.948 . S
C181 C180 1.392 . S
C181 C182 1.419 . S
C182 C181 1.419 . S
C182 C183 1.391 . S
C182 C186 1.397 . S
C183 C178 1.391 . S
C183 C182 1.391 . S
C183 C184 1.399 . S
C184 C183 1.399 . S
C184 C185 1.396 . S
C184 C187 1.453 . S
C184 C188 1.684 . S
C185 C175 1.723 . S
C185 C184 1.396 . S
C185 C186 1.394 . S
C186 C156 1.723 . S
C186 C182 1.397 . S
C186 C185 1.394 . S
C187 H159 0.982 . S
C187 H163 0.979 . S
C187 H164 0.977 . S
C187 C184 1.453 . S
C188 H160 0.979 . S
C188 H161 0.980 . S
C188 H162 0.983 . S
C188 C184 1.684 . S
H189 C207 0.948 . S
H190 C148 0.948 . S
H191 C166 0.979 . S
H192 C166 0.980 . S
H193 C166 0.983 . S
H194 C165 0.982 . S
H195 C165 0.979 . S
H196 C165 0.977 . S
H197 C167 0.948 . S
H198 C169 0.947 . S
H199 C170 0.948 . S
H200 C176 0.982 . S
H201 C176 0.979 . S
H202 C176 0.977 . S
H203 C177 0.979 . S
H204 C177 0.980 . S
H205 C177 0.983 . S
H206 C150 0.947 . S
C207 C150 1.392 . S
C207 C151 1.419 . S
C207 H189 0.948 . S
C208 C209 1.391 . S
C208 C212 1.391 . S
C208 H250 0.948 . S
C209 C208 1.391 . S
C209 C210 1.391 . S
C210 C209 1.391 . S
C210 H266 0.947 . S
C210 C267 1.392 . S
C211 C212 1.391 . S
C211 C215 1.397 . S
C211 C267 1.419 . S
C212 C208 1.391 . S
C212 C211 1.391 . S
C212 C213 1.399 . S
C213 C212 1.399 . S
C213 C216 1.396 . S
C213 C225 1.453 . S
C213 C226 1.684 . S
H214 C238 0.948 . S
C215 C211 1.397 . S
C215 C216 1.394 . S
C215 C234 1.723 . S
C216 C213 1.396 . S
C216 C215 1.394 . S
C216 C246 1.723 . S
H217 C240 0.947 . S
H218 C241 0.948 . S
H219 C247 0.982 . S
H220 C248 0.979 . S
H221 C248 0.980 . S
H222 C248 0.983 . S
H223 C247 0.979 . S
H224 C247 0.977 . S
C225 C213 1.453 . S
C225 H254 0.982 . S
C225 H255 0.979 . S
C225 H256 0.977 . S
C226 C213 1.684 . S
C226 H251 0.979 . S
C226 H252 0.980 . S
C226 H253 0.983 . S
C227 C228 1.391 . S
C227 C232 1.391 . S
C227 H257 0.948 . S
C228 C227 1.391 . S
C228 C229 1.391 . S
C229 C228 1.391 . S
C229 C230 1.392 . S
C229 H258 0.947 . S
C230 C229 1.392 . S
C230 C231 1.419 . S
C230 H259 0.948 . S
C231 C230 1.419 . S
C231 C232 1.391 . S
C231 C235 1.397 . S
C232 C227 1.391 . S
C232 C231 1.391 . S
C232 C233 1.399 . S
C233 C232 1.399 . S
C233 C234 1.396 . S
C233 C236 1.453 . S
C233 C237 1.684 . S
C234 C215 1.723 . S
C234 C233 1.396 . S
C234 C235 1.394 . S
C235 C231 1.397 . S
C235 C234 1.394 . S
C235 C245 1.723 . S
C236 C233 1.453 . S
C236 H260 0.982 . S
C236 H261 0.979 . S
C236 H262 0.977 . S
C237 C233 1.684 . S
C237 H263 0.979 . S
C237 H264 0.980 . S
C237 H265 0.983 . S
C238 H214 0.948 . S
C238 C239 1.391 . S
C238 C243 1.391 . S
C239 C238 1.391 . S
C239 C240 1.391 . S
C240 H217 0.947 . S
C240 C239 1.391 . S
C240 C241 1.392 . S
C241 H218 0.948 . S
C241 C240 1.392 . S
C241 C242 1.419 . S
C242 C241 1.419 . S
C242 C243 1.391 . S
C242 C246 1.397 . S
C243 C238 1.391 . S
C243 C242 1.391 . S
C243 C244 1.399 . S
C244 C243 1.399 . S
C244 C245 1.396 . S
C244 C247 1.453 . S
C244 C248 1.684 . S
C245 C235 1.723 . S
C245 C244 1.396 . S
C245 C246 1.394 . S
C246 C216 1.723 . S
C246 C242 1.397 . S
C246 C245 1.394 . S
C247 H219 0.982 . S
C247 H223 0.979 . S
C247 H224 0.977 . S
C247 C244 1.453 . S
C248 H220 0.979 . S
C248 H221 0.980 . S
C248 H222 0.983 . S
C248 C244 1.684 . S
H249 C267 0.948 . S
H250 C208 0.948 . S
H251 C226 0.979 . S
H252 C226 0.980 . S
H253 C226 0.983 . S
H254 C225 0.982 . S
H255 C225 0.979 . S
H256 C225 0.977 . S
H257 C227 0.948 . S
H258 C229 0.947 . S
H259 C230 0.948 . S
H260 C236 0.982 . S
H261 C236 0.979 . S
H262 C236 0.977 . S
H263 C237 0.979 . S
H264 C237 0.980 . S
H265 C237 0.983 . S
H266 C210 0.947 . S
C267 C210 1.392 . S
C267 C211 1.419 . S
C267 H249 0.948 . S
C268 C269 1.391 . S
C268 C272 1.391 . S
C268 H310 0.948 . S
C269 C268 1.391 . S
C269 C270 1.391 . S
C270 C269 1.391 . S
C270 H326 0.947 . S
C270 C327 1.392 . S
C271 C272 1.391 . S
C271 C275 1.397 . S
C271 C327 1.419 . S
C272 C268 1.391 . S
C272 C271 1.391 . S
C272 C273 1.399 . S
C273 C272 1.399 . S
C273 C276 1.396 . S
C273 C285 1.453 . S
C273 C286 1.684 . S
H274 C298 0.948 . S
C275 C271 1.397 . S
C275 C276 1.394 . S
C275 C294 1.723 . S
C276 C273 1.396 . S
C276 C275 1.394 . S
C276 C306 1.723 . S
H277 C300 0.947 . S
H278 C301 0.948 . S
H279 C307 0.982 . S
H280 C308 0.979 . S
H281 C308 0.980 . S
H282 C308 0.983 . S
H283 C307 0.979 . S
H284 C307 0.977 . S
C285 C273 1.453 . S
C285 H314 0.982 . S
C285 H315 0.979 . S
C285 H316 0.977 . S
C286 C273 1.684 . S
C286 H311 0.979 . S
C286 H312 0.980 . S
C286 H313 0.983 . S
C287 C288 1.391 . S
C287 C292 1.391 . S
C287 H317 0.948 . S
C288 C287 1.391 . S
C288 C289 1.391 . S
C289 C288 1.391 . S
C289 C290 1.392 . S
C289 H318 0.947 . S
C290 C289 1.392 . S
C290 C291 1.419 . S
C290 H319 0.948 . S
C291 C290 1.419 . S
C291 C292 1.391 . S
C291 C295 1.397 . S
C292 C287 1.391 . S
C292 C291 1.391 . S
C292 C293 1.399 . S
C293 C292 1.399 . S
C293 C294 1.396 . S
C293 C296 1.453 . S
C293 C297 1.684 . S
C294 C275 1.723 . S
C294 C293 1.396 . S
C294 C295 1.394 . S
C295 C291 1.397 . S
C295 C294 1.394 . S
C295 C305 1.723 . S
C296 C293 1.453 . S
C296 H320 0.982 . S
C296 H321 0.979 . S
C296 H322 0.977 . S
C297 C293 1.684 . S
C297 H323 0.979 . S
C297 H324 0.980 . S
C297 H325 0.983 . S
C298 H274 0.948 . S
C298 C299 1.391 . S
C298 C303 1.391 . S
C299 C298 1.391 . S
C299 C300 1.391 . S
C300 H277 0.947 . S
C300 C299 1.391 . S
C300 C301 1.392 . S
C301 H278 0.948 . S
C301 C300 1.392 . S
C301 C302 1.419 . S
C302 C301 1.419 . S
C302 C303 1.391 . S
C302 C306 1.397 . S
C303 C298 1.391 . S
C303 C302 1.391 . S
C303 C304 1.399 . S
C304 C303 1.399 . S
C304 C305 1.396 . S
C304 C307 1.453 . S
C304 C308 1.684 . S
C305 C295 1.723 . S
C305 C304 1.396 . S
C305 C306 1.394 . S
C306 C276 1.723 . S
C306 C302 1.397 . S
C306 C305 1.394 . S
C307 H279 0.982 . S
C307 H283 0.979 . S
C307 H284 0.977 . S
C307 C304 1.453 . S
C308 H280 0.979 . S
C308 H281 0.980 . S
C308 H282 0.983 . S
C308 C304 1.684 . S
H309 C327 0.948 . S
H310 C268 0.948 . S
H311 C286 0.979 . S
H312 C286 0.980 . S
H313 C286 0.983 . S
H314 C285 0.982 . S
H315 C285 0.979 . S
H316 C285 0.977 . S
H317 C287 0.948 . S
H318 C289 0.947 . S
H319 C290 0.948 . S
H320 C296 0.982 . S
H321 C296 0.979 . S
H322 C296 0.977 . S
H323 C297 0.979 . S
H324 C297 0.980 . S
H325 C297 0.983 . S
H326 C270 0.947 . S
C327 C270 1.392 . S
C327 C271 1.419 . S
C327 H309 0.948 . S
C328 C329 1.391 . S
C328 C332 1.391 . S
C328 H370 0.948 . S
C329 C328 1.391 . S
C329 C330 1.391 . S
C330 C329 1.391 . S
C330 H386 0.947 . S
C330 C387 1.392 . S
C331 C332 1.391 . S
C331 C335 1.397 . S
C331 C387 1.419 . S
C332 C328 1.391 . S
C332 C331 1.391 . S
C332 C333 1.399 . S
C333 C332 1.399 . S
C333 C336 1.396 . S
C333 C345 1.453 . S
C333 C346 1.684 . S
H334 C358 0.948 . S
C335 C331 1.397 . S
C335 C336 1.394 . S
C335 C354 1.723 . S
C336 C333 1.396 . S
C336 C335 1.394 . S
C336 C366 1.723 . S
H337 C360 0.947 . S
H338 C361 0.948 . S
H339 C367 0.982 . S
H340 C368 0.979 . S
H341 C368 0.980 . S
H342 C368 0.983 . S
H343 C367 0.979 . S
H344 C367 0.977 . S
C345 C333 1.453 . S
C345 H374 0.982 . S
C345 H375 0.979 . S
C345 H376 0.977 . S
C346 C333 1.684 . S
C346 H371 0.979 . S
C346 H372 0.980 . S
C346 H373 0.983 . S
C347 C348 1.391 . S
C347 C352 1.391 . S
C347 H377 0.948 . S
C348 C347 1.391 . S
C348 C349 1.391 . S
C349 C348 1.391 . S
C349 C350 1.392 . S
C349 H378 0.947 . S
C350 C349 1.392 . S
C350 C351 1.419 . S
C350 H379 0.948 . S
C351 C350 1.419 . S
C351 C352 1.391 . S
C351 C355 1.397 . S
C352 C347 1.391 . S
C352 C351 1.391 . S
C352 C353 1.399 . S
C353 C352 1.399 . S
C353 C354 1.396 . S
C353 C356 1.453 . S
C353 C357 1.684 . S
C354 C335 1.723 . S
C354 C353 1.396 . S
C354 C355 1.394 . S
C355 C351 1.397 . S
C355 C354 1.394 . S
C355 C365 1.723 . S
C356 C353 1.453 . S
C356 H380 0.982 . S
C356 H381 0.979 . S
C356 H382 0.977 . S
C357 C353 1.684 . S
C357 H383 0.979 . S
C357 H384 0.980 . S
C357 H385 0.983 . S
C358 H334 0.948 . S
C358 C359 1.391 . S
C358 C363 1.391 . S
C359 C358 1.391 . S
C359 C360 1.391 . S
C360 H337 0.947 . S
C360 C359 1.391 . S
C360 C361 1.392 . S
C361 H338 0.948 . S
C361 C360 1.392 . S
C361 C362 1.419 . S
C362 C361 1.419 . S
C362 C363 1.391 . S
C362 C366 1.397 . S
C363 C358 1.391 . S
C363 C362 1.391 . S
C363 C364 1.399 . S
C364 C363 1.399 . S
C364 C365 1.396 . S
C364 C367 1.453 . S
C364 C368 1.684 . S
C365 C355 1.723 . S
C365 C364 1.396 . S
C365 C366 1.394 . S
C366 C336 1.723 . S
C366 C362 1.397 . S
C366 C365 1.394 . S
C367 H339 0.982 . S
C367 H343 0.979 . S
C367 H344 0.977 . S
C367 C364 1.453 . S
C368 H340 0.979 . S
C368 H341 0.980 . S
C368 H342 0.983 . S
C368 C364 1.684 . S
H369 C387 0.948 . S
H370 C328 0.948 . S
H371 C346 0.979 . S
H372 C346 0.980 . S
H373 C346 0.983 . S
H374 C345 0.982 . S
H375 C345 0.979 . S
H376 C345 0.977 . S
H377 C347 0.948 . S
H378 C349 0.947 . S
H379 C350 0.948 . S
H380 C356 0.982 . S
H381 C356 0.979 . S
H382 C356 0.977 . S
H383 C357 0.979 . S
H384 C357 0.980 . S
H385 C357 0.983 . S
H386 C330 0.947 . S
C387 C330 1.392 . S
C387 C331 1.419 . S
C387 H369 0.948 . S
C388 C389 1.391 . S
C388 C392 1.391 . S
C388 H430 0.948 . S
C389 C388 1.391 . S
C389 C390 1.391 . S
C390 C389 1.391 . S
C390 H446 0.947 . S
C390 C447 1.392 . S
C391 C392 1.391 . S
C391 C395 1.397 . S
C391 C447 1.419 . S
C392 C388 1.391 . S
C392 C391 1.391 . S
C392 C393 1.399 . S
C393 C392 1.399 . S
C393 C396 1.396 . S
C393 C405 1.453 . S
C393 C406 1.684 . S
H394 C418 0.948 . S
C395 C391 1.397 . S
C395 C396 1.394 . S
C395 C414 1.723 . S
C396 C393 1.396 . S
C396 C395 1.394 . S
C396 C426 1.723 . S
H397 C420 0.947 . S
H398 C421 0.948 . S
H399 C427 0.982 . S
H400 C428 0.979 . S
H401 C428 0.980 . S
H402 C428 0.983 . S
H403 C427 0.979 . S
H404 C427 0.977 . S
C405 C393 1.453 . S
C405 H434 0.982 . S
C405 H435 0.979 . S
C405 H436 0.977 . S
C406 C393 1.684 . S
C406 H431 0.979 . S
C406 H432 0.980 . S
C406 H433 0.983 . S
C407 C408 1.391 . S
C407 C412 1.391 . S
C407 H437 0.948 . S
C408 C407 1.391 . S
C408 C409 1.391 . S
C409 C408 1.391 . S
C409 C410 1.392 . S
C409 H438 0.947 . S
C410 C409 1.392 . S
C410 C411 1.419 . S
C410 H439 0.948 . S
C411 C410 1.419 . S
C411 C412 1.391 . S
C411 C415 1.397 . S
C412 C407 1.391 . S
C412 C411 1.391 . S
C412 C413 1.399 . S
C413 C412 1.399 . S
C413 C414 1.396 . S
C413 C416 1.453 . S
C413 C417 1.684 . S
C414 C395 1.723 . S
C414 C413 1.396 . S
C414 C415 1.394 . S
C415 C411 1.397 . S
C415 C414 1.394 . S
C415 C425 1.723 . S
C416 C413 1.453 . S
C416 H440 0.982 . S
C416 H441 0.979 . S
C416 H442 0.977 . S
C417 C413 1.684 . S
C417 H443 0.979 . S
C417 H444 0.980 . S
C417 H445 0.983 . S
C418 H394 0.948 . S
C418 C419 1.391 . S
C418 C423 1.391 . S
C419 C418 1.391 . S
C419 C420 1.391 . S
C420 H397 0.947 . S
C420 C419 1.391 . S
C420 C421 1.392 . S
C421 H398 0.948 . S
C421 C420 1.392 . S
C421 C422 1.419 . S
C422 C421 1.419 . S
C422 C423 1.391 . S
C422 C426 1.397 . S
C423 C418 1.391 . S
C423 C422 1.391 . S
C423 C424 1.399 . S
C424 C423 1.399 . S
C424 C425 1.396 . S
C424 C427 1.453 . S
C424 C428 1.684 . S
C425 C415 1.723 . S
C425 C424 1.396 . S
C425 C426 1.394 . S
C426 C396 1.723 . S
C426 C422 1.397 . S
C426 C425 1.394 . S
C427 H399 0.982 . S
C427 H403 0.979 . S
C427 H404 0.977 . S
C427 C424 1.453 . S
C428 H400 0.979 . S
C428 H401 0.980 . S
C428 H402 0.983 . S
C428 C424 1.684 . S
H429 C447 0.948 . S
H430 C388 0.948 . S
H431 C406 0.979 . S
H432 C406 0.980 . S
H433 C406 0.983 . S
H434 C405 0.982 . S
H435 C405 0.979 . S
H436 C405 0.977 . S
H437 C407 0.948 . S
H438 C409 0.947 . S
H439 C410 0.948 . S
H440 C416 0.982 . S
H441 C416 0.979 . S
H442 C416 0.977 . S
H443 C417 0.979 . S
H444 C417 0.980 . S
H445 C417 0.983 . S
H446 C390 0.947 . S
C447 C390 1.392 . S
C447 C391 1.419 . S
C447 H429 0.948 . S
C448 C449 1.391 . S
C448 C452 1.391 . S
C448 H490 0.948 . S
C449 C448 1.391 . S
C449 C450 1.391 . S
C450 C449 1.391 . S
C450 H506 0.947 . S
C450 C507 1.392 . S
C451 C452 1.391 . S
C451 C455 1.397 . S
C451 C507 1.419 . S
C452 C448 1.391 . S
C452 C451 1.391 . S
C452 C453 1.399 . S
C453 C452 1.399 . S
C453 C456 1.396 . S
C453 C465 1.453 . S
C453 C466 1.684 . S
H454 C478 0.948 . S
C455 C451 1.397 . S
C455 C456 1.394 . S
C455 C474 1.723 . S
C456 C453 1.396 . S
C456 C455 1.394 . S
C456 C486 1.723 . S
H457 C480 0.947 . S
H458 C481 0.948 . S
H459 C487 0.982 . S
H460 C488 0.979 . S
H461 C488 0.980 . S
H462 C488 0.983 . S
H463 C487 0.979 . S
H464 C487 0.977 . S
C465 C453 1.453 . S
C465 H494 0.982 . S
C465 H495 0.979 . S
C465 H496 0.977 . S
C466 C453 1.684 . S
C466 H491 0.979 . S
C466 H492 0.980 . S
C466 H493 0.983 . S
C467 C468 1.391 . S
C467 C472 1.391 . S
C467 H497 0.948 . S
C468 C467 1.391 . S
C468 C469 1.391 . S
C469 C468 1.391 . S
C469 C470 1.392 . S
C469 H498 0.947 . S
C470 C469 1.392 . S
C470 C471 1.419 . S
C470 H499 0.948 . S
C471 C470 1.419 . S
C471 C472 1.391 . S
C471 C475 1.397 . S
C472 C467 1.391 . S
C472 C471 1.391 . S
C472 C473 1.399 . S
C473 C472 1.399 . S
C473 C474 1.396 . S
C473 C476 1.453 . S
C473 C477 1.684 . S
C474 C455 1.723 . S
C474 C473 1.396 . S
C474 C475 1.394 . S
C475 C471 1.397 . S
C475 C474 1.394 . S
C475 C485 1.723 . S
C476 C473 1.453 . S
C476 H500 0.982 . S
C476 H501 0.979 . S
C476 H502 0.977 . S
C477 C473 1.684 . S
C477 H503 0.979 . S
C477 H504 0.980 . S
C477 H505 0.983 . S
C478 H454 0.948 . S
C478 C479 1.391 . S
C478 C483 1.391 . S
C479 C478 1.391 . S
C479 C480 1.391 . S
C480 H457 0.947 . S
C480 C479 1.391 . S
C480 C481 1.392 . S
C481 H458 0.948 . S
C481 C480 1.392 . S
C481 C482 1.419 . S
C482 C481 1.419 . S
C482 C483 1.391 . S
C482 C486 1.397 . S
C483 C478 1.391 . S
C483 C482 1.391 . S
C483 C484 1.399 . S
C484 C483 1.399 . S
C484 C485 1.396 . S
C484 C487 1.453 . S
C484 C488 1.684 . S
C485 C475 1.723 . S
C485 C484 1.396 . S
C485 C486 1.394 . S
C486 C456 1.723 . S
C486 C482 1.397 . S
C486 C485 1.394 . S
C487 H459 0.982 . S
C487 H463 0.979 . S
C487 H464 0.977 . S
C487 C484 1.453 . S
C488 H460 0.979 . S
C488 H461 0.980 . S
C488 H462 0.983 . S
C488 C484 1.684 . S
H489 C507 0.948 . S
H490 C448 0.948 . S
H491 C466 0.979 . S
H492 C466 0.980 . S
H493 C466 0.983 . S
H494 C465 0.982 . S
H495 C465 0.979 . S
H496 C465 0.977 . S
H497 C467 0.948 . S
H498 C469 0.947 . S
H499 C470 0.948 . S
H500 C476 0.982 . S
H501 C476 0.979 . S
H502 C476 0.977 . S
H503 C477 0.979 . S
H504 C477 0.980 . S
H505 C477 0.983 . S
H506 C450 0.947 . S
C507 C450 1.392 . S
C507 C451 1.419 . S
C507 H489 0.948 . S
C508 C509 1.391 . S
C508 C512 1.391 . S
C508 H550 0.948 . S
C509 C508 1.391 . S
C509 C510 1.391 . S
C510 C509 1.391 . S
C510 H566 0.947 . S
C510 C567 1.392 . S
C511 C512 1.391 . S
C511 C515 1.397 . S
C511 C567 1.419 . S
C512 C508 1.391 . S
C512 C511 1.391 . S
C512 C513 1.399 . S
C513 C512 1.399 . S
C513 C516 1.396 . S
C513 C525 1.453 . S
C513 C526 1.684 . S
H514 C538 0.948 . S
C515 C511 1.397 . S
C515 C516 1.394 . S
C515 C534 1.723 . S
C516 C513 1.396 . S
C516 C515 1.394 . S
C516 C546 1.723 . S
H517 C540 0.947 . S
H518 C541 0.948 . S
H519 C547 0.982 . S
H520 C548 0.979 . S
H521 C548 0.980 . S
H522 C548 0.983 . S
H523 C547 0.979 . S
H524 C547 0.977 . S
C525 C513 1.453 . S
C525 H554 0.982 . S
C525 H555 0.979 . S
C525 H556 0.977 . S
C526 C513 1.684 . S
C526 H551 0.979 . S
C526 H552 0.980 . S
C526 H553 0.983 . S
C527 C528 1.391 . S
C527 C532 1.391 . S
C527 H557 0.948 . S
C528 C527 1.391 . S
C528 C529 1.391 . S
C529 C528 1.391 . S
C529 C530 1.392 . S
C529 H558 0.947 . S
C530 C529 1.392 . S
C530 C531 1.419 . S
C530 H559 0.948 . S
C531 C530 1.419 . S
C531 C532 1.391 . S
C531 C535 1.397 . S
C532 C527 1.391 . S
C532 C531 1.391 . S
C532 C533 1.399 . S
C533 C532 1.399 . S
C533 C534 1.396 . S
C533 C536 1.453 . S
C533 C537 1.684 . S
C534 C515 1.723 . S
C534 C533 1.396 . S
C534 C535 1.394 . S
C535 C531 1.397 . S
C535 C534 1.394 . S
C535 C545 1.723 . S
C536 C533 1.453 . S
C536 H560 0.982 . S
C536 H561 0.979 . S
C536 H562 0.977 . S
C537 C533 1.684 . S
C537 H563 0.979 . S
C537 H564 0.980 . S
C537 H565 0.983 . S
C538 H514 0.948 . S
C538 C539 1.391 . S
C538 C543 1.391 . S
C539 C538 1.391 . S
C539 C540 1.391 . S
C540 H517 0.947 . S
C540 C539 1.391 . S
C540 C541 1.392 . S
C541 H518 0.948 . S
C541 C540 1.392 . S
C541 C542 1.419 . S
C542 C541 1.419 . S
C542 C543 1.391 . S
C542 C546 1.397 . S
C543 C538 1.391 . S
C543 C542 1.391 . S
C543 C544 1.399 . S
C544 C543 1.399 . S
C544 C545 1.396 . S
C544 C547 1.453 . S
C544 C548 1.684 . S
C545 C535 1.723 . S
C545 C544 1.396 . S
C545 C546 1.394 . S
C546 C516 1.723 . S
C546 C542 1.397 . S
C546 C545 1.394 . S
C547 H519 0.982 . S
C547 H523 0.979 . S
C547 H524 0.977 . S
C547 C544 1.453 . S
C548 H520 0.979 . S
C548 H521 0.980 . S
C548 H522 0.983 . S
C548 C544 1.684 . S
H549 C567 0.948 . S
H550 C508 0.948 . S
H551 C526 0.979 . S
H552 C526 0.980 . S
H553 C526 0.983 . S
H554 C525 0.982 . S
H555 C525 0.979 . S
H556 C525 0.977 . S
H557 C527 0.948 . S
H558 C529 0.947 . S
H559 C530 0.948 . S
H560 C536 0.982 . S
H561 C536 0.979 . S
H562 C536 0.977 . S
H563 C537 0.979 . S
H564 C537 0.980 . S
H565 C537 0.983 . S
H566 C510 0.947 . S
C567 C510 1.392 . S
C567 C511 1.419 . S
C567 H549 0.948 . S
H568 C574 0.930 . S
H569 C577 0.930 . S
H570 C578 0.930 . S
H571 C579 0.930 . S
H572 C582 0.930 . S
H573 C583 0.930 . S
C574 H568 0.930 . S
C574 C575 1.355 . S
C574 C576 1.415 . S
C575 C574 1.355 . S
C575 C577 1.419 . S
C576 C574 1.415 . S
C576 C581 1.425 . S
C576 C583 1.409 1_565 S
C577 H569 0.930 . S
C577 C575 1.419 . S
C577 C578 1.362 . S
C578 H570 0.930 . S
C578 C577 1.362 . S
C578 C581 1.409 . S
C579 H571 0.930 . S
C579 C580 1.355 . S
C579 C581 1.415 1_545 S
C580 C579 1.355 . S
C580 C582 1.419 . S
C581 C576 1.425 . S
C581 C578 1.409 . S
C581 C579 1.415 1_565 S
C582 H572 0.930 . S
C582 C580 1.419 . S
C582 C583 1.362 . S
C583 H573 0.930 . S
C583 C576 1.409 1_545 S
C583 C582 1.362 . S
H584 C590 0.930 . S
H585 C593 0.930 . S
H586 C594 0.930 . S
H587 C595 0.930 . S
H588 C598 0.930 . S
H589 C599 0.930 . S
C590 H584 0.930 . S
C590 C591 1.355 . S
C590 C592 1.415 . S
C591 C590 1.355 . S
C591 C593 1.419 . S
C592 C590 1.415 . S
C592 C597 1.425 . S
C592 C599 1.409 . S
C593 H585 0.930 . S
C593 C591 1.419 . S
C593 C594 1.362 . S
C594 H586 0.930 . S
C594 C593 1.362 . S
C594 C597 1.409 . S
C595 H587 0.930 . S
C595 C596 1.355 . S
C595 C597 1.415 . S
C596 C595 1.355 . S
C596 C598 1.419 . S
C597 C592 1.425 . S
C597 C594 1.409 . S
C597 C595 1.415 . S
C598 H588 0.930 . S
C598 C596 1.419 . S
C598 C599 1.362 . S
C599 H589 0.930 . S
C599 C592 1.409 . S
C599 C598 1.362 . S
H600 C606 0.930 . S
H601 C609 0.930 . S
H602 C610 0.930 . S
H603 C611 0.930 . S
H604 C614 0.930 1_565 S
H605 C615 0.930 . S
C606 H600 0.930 . S
C606 C607 1.355 . S
C606 C608 1.415 . S
C607 C606 1.355 . S
C607 C609 1.419 . S
C608 C606 1.415 . S
C608 C613 1.425 . S
C608 C615 1.409 . S
C609 H601 0.930 . S
C609 C607 1.419 . S
C609 C610 1.362 . S
C610 H602 0.930 . S
C610 C609 1.362 . S
C610 C613 1.409 . S
C611 H603 0.930 . S
C611 C612 1.355 . S
C611 C613 1.415 . S
C612 C611 1.355 . S
C612 C614 1.419 . S
C613 C608 1.425 . S
C613 C610 1.409 . S
C613 C611 1.415 . S
C614 H604 0.930 1_545 S
C614 C612 1.419 . S
C614 C615 1.362 . S
C615 H605 0.930 . S
C615 C608 1.409 . S
C615 C614 1.362 . S
H616 C622 0.930 . S
H617 C625 0.930 . S
H618 C626 0.930 . S
H619 C627 0.930 . S
H620 C630 0.930 . S
H621 C631 0.930 . S
C622 H616 0.930 . S
C622 C623 1.355 . S
C622 C624 1.415 . S
C623 C622 1.355 . S
C623 C625 1.419 . S
C624 C622 1.415 . S
C624 C629 1.425 . S
C624 C631 1.409 . S
C625 H617 0.930 . S
C625 C623 1.419 . S
C625 C626 1.362 . S
C626 H618 0.930 . S
C626 C625 1.362 . S
C626 C629 1.409 . S
C627 H619 0.930 . S
C627 C628 1.355 . S
C627 C629 1.415 . S
C628 C627 1.355 . S
C628 C630 1.419 . S
C629 C624 1.425 . S
C629 C626 1.409 . S
C629 C627 1.415 . S
C630 H620 0.930 . S
C630 C628 1.419 . S
C630 C631 1.362 . S
C631 H621 0.930 . S
C631 C624 1.409 . S
C631 C630 1.362 . S
H632 C638 0.930 . S
H633 C641 0.930 . S
H634 C642 0.930 . S
H635 C643 0.930 . S
H636 C646 0.930 . S
H637 C647 0.930 . S
C638 H632 0.930 . S
C638 C639 1.355 . S
C638 C640 1.415 . S
C639 C638 1.355 . S
C639 C641 1.419 . S
C640 C638 1.415 . S
C640 C645 1.425 . S
C640 C647 1.409 . S
C641 H633 0.930 . S
C641 C639 1.419 . S
C641 C642 1.362 . S
C642 H634 0.930 . S
C642 C641 1.362 . S
C642 C645 1.409 . S
C643 H635 0.930 . S
C643 C644 1.355 . S
C643 C645 1.415 . S
C644 C643 1.355 . S
C644 C646 1.419 . S
C645 C640 1.425 . S
C645 C642 1.409 . S
C645 C643 1.415 . S
C646 H636 0.930 . S
C646 C644 1.419 . S
C646 C647 1.362 . S
C647 H637 0.930 . S
C647 C640 1.409 . S
C647 C646 1.362 . S
H648 C654 0.930 . S
H649 C657 0.930 . S
H650 C658 0.930 . S
H651 C659 0.930 . S
H652 C662 0.930 . S
H653 C663 0.930 . S
C654 H648 0.930 . S
C654 C655 1.355 . S
C654 C656 1.415 . S
C655 C654 1.355 . S
C655 C657 1.419 . S
C656 C654 1.415 . S
C656 C661 1.425 . S
C656 C663 1.409 . S
C657 H649 0.930 . S
C657 C655 1.419 . S
C657 C658 1.362 . S
C658 H650 0.930 . S
C658 C657 1.362 . S
C658 C661 1.409 . S
C659 H651 0.930 . S
C659 C660 1.355 . S
C659 C661 1.415 1_455 S
C660 C659 1.355 . S
C660 C662 1.419 . S
C661 C656 1.425 . S
C661 C658 1.409 . S
C661 C659 1.415 1_655 S
C662 H652 0.930 . S
C662 C660 1.419 . S
C662 C663 1.362 1_455 S
C663 H653 0.930 . S
C663 C656 1.409 . S
C663 C662 1.362 1_655 S
H664 C670 0.930 . S
H665 C673 0.930 . S
H666 C674 0.930 . S
H667 C675 0.930 . S
H668 C678 0.930 . S
H669 C679 0.930 . S
C670 H664 0.930 . S
C670 C671 1.355 . S
C670 C672 1.415 . S
C671 C670 1.355 . S
C671 C673 1.419 . S
C672 C670 1.415 . S
C672 C677 1.425 . S
C672 C679 1.409 . S
C673 H665 0.930 . S
C673 C671 1.419 . S
C673 C674 1.362 . S
C674 H666 0.930 . S
C674 C673 1.362 . S
C674 C677 1.409 . S
C675 H667 0.930 . S
C675 C676 1.355 . S
C675 C677 1.415 . S
C676 C675 1.355 . S
C676 C678 1.419 . S
C677 C672 1.425 . S
C677 C674 1.409 . S
C677 C675 1.415 . S
C678 H668 0.930 . S
C678 C676 1.419 . S
C678 C679 1.362 . S
C679 H669 0.930 . S
C679 C672 1.409 . S
C679 C678 1.362 . S
H680 C686 0.930 . S
H681 C689 0.930 . S
H682 C690 0.930 . S
H683 C691 0.930 . S
H684 C694 0.930 . S
H685 C695 0.930 . S
C686 H680 0.930 . S
C686 C687 1.355 . S
C686 C688 1.415 . S
C687 C686 1.355 . S
C687 C689 1.419 1_556 S
C688 C686 1.415 . S
C688 C693 1.425 . S
C688 C695 1.409 . S
C689 H681 0.930 . S
C689 C687 1.419 1_554 S
C689 C690 1.362 1_554 S
C690 H682 0.930 . S
C690 C689 1.362 1_556 S
C690 C693 1.409 . S
C691 H683 0.930 . S
C691 C692 1.355 . S
C691 C693 1.415 . S
C692 C691 1.355 . S
C692 C694 1.419 . S
C693 C688 1.425 . S
C693 C690 1.409 . S
C693 C691 1.415 . S
C694 H684 0.930 . S
C694 C692 1.419 . S
C694 C695 1.362 . S
C695 H685 0.930 . S
C695 C688 1.409 . S
C695 C694 1.362 . S
H696 C702 0.930 . S
H697 C705 0.930 . S
H698 C706 0.930 . S
H699 C707 0.930 . S
H700 C710 0.930 . S
H701 C711 0.930 . S
C702 H696 0.930 . S
C702 C703 1.355 . S
C702 C704 1.415 . S
C703 C702 1.355 . S
C703 C705 1.419 . S
C704 C702 1.415 . S
C704 C709 1.425 . S
C704 C711 1.409 1_545 S
C705 H697 0.930 . S
C705 C703 1.419 . S
C705 C706 1.362 . S
C706 H698 0.930 . S
C706 C705 1.362 . S
C706 C709 1.409 . S
C707 H699 0.930 . S
C707 C708 1.355 . S
C707 C709 1.415 1_565 S
C708 C707 1.355 . S
C708 C710 1.419 . S
C709 C704 1.425 . S
C709 C706 1.409 . S
C709 C707 1.415 1_545 S
C710 H700 0.930 . S
C710 C708 1.419 . S
C710 C711 1.362 . S
C711 H701 0.930 . S
C711 C704 1.409 1_565 S
C711 C710 1.362 . S
H712 C718 0.930 . S
H713 C721 0.930 . S
H714 C722 0.930 . S
H715 C723 0.930 . S
H716 C726 0.930 . S
H717 C727 0.930 . S
C718 H712 0.930 . S
C718 C719 1.355 . S
C718 C720 1.415 . S
C719 C718 1.355 . S
C719 C721 1.419 . S
C720 C718 1.415 . S
C720 C725 1.425 . S
C720 C727 1.409 . S
C721 H713 0.930 . S
C721 C719 1.419 . S
C721 C722 1.362 . S
C722 H714 0.930 . S
C722 C721 1.362 . S
C722 C725 1.409 . S
C723 H715 0.930 . S
C723 C724 1.355 . S
C723 C725 1.415 . S
C724 C723 1.355 . S
C724 C726 1.419 . S
C725 C720 1.425 . S
C725 C722 1.409 . S
C725 C723 1.415 . S
C726 H716 0.930 . S
C726 C724 1.419 . S
C726 C727 1.362 . S
C727 H717 0.930 . S
C727 C720 1.409 . S
C727 C726 1.362 . S
H728 C734 0.930 . S
H729 C737 0.930 . S
H730 C738 0.930 1_554 S
H731 C739 0.930 . S
H732 C742 0.930 . S
H733 C743 0.930 . S
C734 H728 0.930 . S
C734 C735 1.355 . S
C734 C736 1.415 . S
C735 C734 1.355 . S
C735 C737 1.419 1_556 S
C736 C734 1.415 . S
C736 C741 1.425 . S
C736 C743 1.409 . S
C737 H729 0.930 . S
C737 C735 1.419 1_554 S
C737 C738 1.362 1_554 S
C738 H730 0.930 1_556 S
C738 C737 1.362 1_556 S
C738 C741 1.409 . S
C739 H731 0.930 . S
C739 C740 1.355 . S
C739 C741 1.415 . S
C740 C739 1.355 . S
C740 C742 1.419 . S
C741 C736 1.425 . S
C741 C738 1.409 . S
C741 C739 1.415 . S
C742 H732 0.930 . S
C742 C740 1.419 . S
C742 C743 1.362 . S
C743 H733 0.930 . S
C743 C736 1.409 . S
C743 C742 1.362 . S
H744 C750 0.930 . S
H745 C753 0.930 . S
H746 C754 0.930 . S
H747 C755 0.930 . S
H748 C758 0.930 . S
H749 C759 0.930 . S
C750 H744 0.930 . S
C750 C751 1.355 . S
C750 C752 1.415 . S
C751 C750 1.355 . S
C751 C753 1.419 . S
C752 C750 1.415 . S
C752 C757 1.425 . S
C752 C759 1.409 . S
C753 H745 0.930 . S
C753 C751 1.419 . S
C753 C754 1.362 . S
C754 H746 0.930 . S
C754 C753 1.362 . S
C754 C757 1.409 . S
C755 H747 0.930 . S
C755 C756 1.355 . S
C755 C757 1.415 . S
C756 C755 1.355 . S
C756 C758 1.419 . S
C757 C752 1.425 . S
C757 C754 1.409 . S
C757 C755 1.415 . S
C758 H748 0.930 . S
C758 C756 1.419 . S
C758 C759 1.362 . S
C759 H749 0.930 . S
C759 C752 1.409 . S
C759 C758 1.362 . S
H760 C766 0.930 . S
H761 C769 0.930 . S
H762 C770 0.930 . S
H763 C771 0.930 . S
H764 C774 0.930 . S
H765 C775 0.930 . S
C766 H760 0.930 . S
C766 C767 1.355 . S
C766 C768 1.415 . S
C767 C766 1.355 . S
C767 C769 1.419 . S
C768 C766 1.415 . S
C768 C773 1.425 . S
C768 C775 1.409 . S
C769 H761 0.930 . S
C769 C767 1.419 . S
C769 C770 1.362 . S
C770 H762 0.930 . S
C770 C769 1.362 . S
C770 C773 1.409 . S
C771 H763 0.930 . S
C771 C772 1.355 . S
C771 C773 1.415 . S
C772 C771 1.355 . S
C772 C774 1.419 . S
C773 C768 1.425 . S
C773 C770 1.409 . S
C773 C771 1.415 . S
C774 H764 0.930 . S
C774 C772 1.419 . S
C774 C775 1.362 . S
C775 H765 0.930 . S
C775 C768 1.409 . S
C775 C774 1.362 . S
H776 C782 0.930 . S
H777 C785 0.930 . S
H778 C786 0.930 . S
H779 C787 0.930 . S
H780 C790 0.930 . S
H781 C791 0.930 . S
C782 H776 0.930 . S
C782 C783 1.355 . S
C782 C784 1.415 . S
C783 C782 1.355 . S
C783 C785 1.419 . S
C784 C782 1.415 . S
C784 C789 1.425 . S
C784 C791 1.409 1_455 S
C785 H777 0.930 . S
C785 C783 1.419 . S
C785 C786 1.362 . S
C786 H778 0.930 . S
C786 C785 1.362 . S
C786 C789 1.409 . S
C787 H779 0.930 . S
C787 C788 1.355 . S
C787 C789 1.415 1_655 S
C788 C787 1.355 . S
C788 C790 1.419 . S
C789 C784 1.425 . S
C789 C786 1.409 . S
C789 C787 1.415 1_455 S
C790 H780 0.930 . S
C790 C788 1.419 . S
C790 C791 1.362 . S
C791 H781 0.930 . S
C791 C784 1.409 1_655 S
C791 C790 1.362 . S
H792 C798 0.930 . S
H793 C801 0.930 . S
H794 C802 0.930 . S
H795 C803 0.930 . S
H796 C806 0.930 . S
H797 C807 0.930 . S
C798 H792 0.930 . S
C798 C799 1.355 . S
C798 C800 1.415 . S
C799 C798 1.355 . S
C799 C801 1.419 . S
C800 C798 1.415 . S
C800 C805 1.425 . S
C800 C807 1.409 . S
C801 H793 0.930 . S
C801 C799 1.419 . S
C801 C802 1.362 . S
C802 H794 0.930 . S
C802 C801 1.362 . S
C802 C805 1.409 . S
C803 H795 0.930 . S
C803 C804 1.355 . S
C803 C805 1.415 . S
C804 C803 1.355 . S
C804 C806 1.419 . S
C805 C800 1.425 . S
C805 C802 1.409 . S
C805 C803 1.415 . S
C806 H796 0.930 . S
C806 C804 1.419 . S
C806 C807 1.362 . S
C807 H797 0.930 . S
C807 C800 1.409 . S
C807 C806 1.362 . S
H808 C814 0.930 . S
H809 C817 0.930 . S
H810 C818 0.930 . S
H811 C819 0.930 1_455 S
H812 C822 0.930 . S
H813 C823 0.930 . S
C814 H808 0.930 . S
C814 C815 1.355 . S
C814 C816 1.415 . S
C815 C814 1.355 . S
C815 C817 1.419 . S
C816 C814 1.415 . S
C816 C821 1.425 . S
C816 C823 1.409 . S
C817 H809 0.930 . S
C817 C815 1.419 . S
C817 C818 1.362 . S
C818 H810 0.930 . S
C818 C817 1.362 . S
C818 C821 1.409 . S
C819 H811 0.930 1_655 S
C819 C820 1.355 . S
C819 C821 1.415 . S
C820 C819 1.355 . S
C820 C822 1.419 . S
C821 C816 1.425 . S
C821 C818 1.409 . S
C821 C819 1.415 . S
C822 H812 0.930 . S
C822 C820 1.419 . S
C822 C823 1.362 . S
C823 H813 0.930 . S
C823 C816 1.409 . S
C823 C822 1.362 . S
H824 C830 0.930 . S
H825 C833 0.930 . S
H826 C834 0.930 . S
H827 C835 0.930 . S
H828 C838 0.930 . S
H829 C839 0.930 . S
C830 H824 0.930 . S
C830 C831 1.355 . S
C830 C832 1.415 . S
C831 C830 1.355 . S
C831 C833 1.419 . S
C832 C830 1.415 . S
C832 C837 1.425 . S
C832 C839 1.409 . S
C833 H825 0.930 . S
C833 C831 1.419 . S
C833 C834 1.362 . S
C834 H826 0.930 . S
C834 C833 1.362 . S
C834 C837 1.409 . S
C835 H827 0.930 . S
C835 C836 1.355 . S
C835 C837 1.415 . S
C836 C835 1.355 . S
C836 C838 1.419 . S
C837 C832 1.425 . S
C837 C834 1.409 . S
C837 C835 1.415 . S
C838 H828 0.930 . S
C838 C836 1.419 . S
C838 C839 1.362 . S
C839 H829 0.930 . S
C839 C832 1.409 . S
C839 C838 1.362 . S
H840 C846 0.930 . S
H841 C849 0.930 . S
H842 C850 0.930 . S
H843 C851 0.930 . S
H844 C854 0.930 . S
H845 C855 0.930 . S
C846 H840 0.930 . S
C846 C847 1.355 . S
C846 C848 1.415 . S
C847 C846 1.355 . S
C847 C849 1.419 . S
C848 C846 1.415 . S
C848 C853 1.425 . S
C848 C855 1.409 . S
C849 H841 0.930 . S
C849 C847 1.419 . S
C849 C850 1.362 . S
C850 H842 0.930 . S
C850 C849 1.362 . S
C850 C853 1.409 . S
C851 H843 0.930 . S
C851 C852 1.355 . S
C851 C853 1.415 . S
C852 C851 1.355 . S
C852 C854 1.419 . S
C853 C848 1.425 . S
C853 C850 1.409 . S
C853 C851 1.415 . S
C854 H844 0.930 . S
C854 C852 1.419 . S
C854 C855 1.362 . S
C855 H845 0.930 . S
C855 C848 1.409 . S
C855 C854 1.362 . S
H856 C862 0.930 . S
H857 C865 0.930 . S
H858 C866 0.930 . S
H859 C867 0.930 . S
H860 C870 0.930 . S
H861 C871 0.930 . S
C862 H856 0.930 . S
C862 C863 1.355 . S
C862 C864 1.415 . S
C863 C862 1.355 . S
C863 C865 1.419 . S
C864 C862 1.415 . S
C864 C869 1.425 . S
C864 C871 1.409 . S
C865 H857 0.930 . S
C865 C863 1.419 . S
C865 C866 1.362 . S
C866 H858 0.930 . S
C866 C865 1.362 . S
C866 C869 1.409 . S
C867 H859 0.930 . S
C867 C868 1.355 . S
C867 C869 1.415 . S
C868 C867 1.355 . S
C868 C870 1.419 . S
C869 C864 1.425 . S
C869 C866 1.409 . S
C869 C867 1.415 . S
C870 H860 0.930 . S
C870 C868 1.419 . S
C870 C871 1.362 . S
C871 H861 0.930 . S
C871 C864 1.409 . S
C871 C870 1.362 . S
H872 C878 0.930 . S
H873 C881 0.930 . S
H874 C882 0.930 . S
H875 C883 0.930 . S
H876 C886 0.930 . S
H877 C887 0.930 . S
C878 H872 0.930 . S
C878 C879 1.355 . S
C878 C880 1.415 . S
C879 C878 1.355 . S
C879 C881 1.419 . S
C880 C878 1.415 . S
C880 C885 1.425 . S
C880 C887 1.409 . S
C881 H873 0.930 . S
C881 C879 1.419 . S
C881 C882 1.362 . S
C882 H874 0.930 . S
C882 C881 1.362 . S
C882 C885 1.409 . S
C883 H875 0.930 . S
C883 C884 1.355 . S
C883 C885 1.415 . S
C884 C883 1.355 . S
C884 C886 1.419 . S
C885 C880 1.425 . S
C885 C882 1.409 . S
C885 C883 1.415 . S
C886 H876 0.930 . S
C886 C884 1.419 . S
C886 C887 1.362 . S
C887 H877 0.930 . S
C887 C880 1.409 . S
C887 C886 1.362 . S
H888 C894 0.930 . S
H889 C897 0.930 . S
H890 C898 0.930 . S
H891 C899 0.930 . S
H892 C902 0.930 . S
H893 C903 0.930 . S
C894 H888 0.930 . S
C894 C895 1.355 . S
C894 C896 1.415 . S
C895 C894 1.355 . S
C895 C897 1.419 . S
C896 C894 1.415 . S
C896 C901 1.425 . S
C896 C903 1.409 . S
C897 H889 0.930 . S
C897 C895 1.419 . S
C897 C898 1.362 . S
C898 H890 0.930 . S
C898 C897 1.362 . S
C898 C901 1.409 . S
C899 H891 0.930 . S
C899 C900 1.355 . S
C899 C901 1.415 . S
C900 C899 1.355 . S
C900 C902 1.419 . S
C901 C896 1.425 . S
C901 C898 1.409 . S
C901 C899 1.415 . S
C902 H892 0.930 . S
C902 C900 1.419 . S
C902 C903 1.362 . S
C903 H893 0.930 . S
C903 C896 1.409 . S
C903 C902 1.362 . S
H904 C910 0.930 . S
H905 C913 0.930 . S
H906 C914 0.930 . S
H907 C915 0.930 . S
H908 C918 0.930 . S
H909 C919 0.930 . S
C910 H904 0.930 . S
C910 C911 1.355 . S
C910 C912 1.415 . S
C911 C910 1.355 . S
C911 C913 1.419 . S
C912 C910 1.415 . S
C912 C917 1.425 . S
C912 C919 1.409 . S
C913 H905 0.930 . S
C913 C911 1.419 . S
C913 C914 1.362 . S
C914 H906 0.930 . S
C914 C913 1.362 . S
C914 C917 1.409 . S
C915 H907 0.930 . S
C915 C916 1.355 . S
C915 C917 1.415 . S
C916 C915 1.355 . S
C916 C918 1.419 . S
C917 C912 1.425 . S
C917 C914 1.409 . S
C917 C915 1.415 . S
C918 H908 0.930 . S
C918 C916 1.419 . S
C918 C919 1.362 . S
C919 H909 0.930 . S
C919 C912 1.409 . S
C919 C918 1.362 . S
H920 C926 0.930 . S
H921 C929 0.930 . S
H922 C930 0.930 . S
H923 C931 0.930 . S
H924 C934 0.930 . S
H925 C935 0.930 . S
C926 H920 0.930 . S
C926 C927 1.355 . S
C926 C928 1.415 . S
C927 C926 1.355 . S
C927 C929 1.419 . S
C928 C926 1.415 . S
C928 C933 1.425 . S
C928 C935 1.409 . S
C929 H921 0.930 . S
C929 C927 1.419 . S
C929 C930 1.362 . S
C930 H922 0.930 . S
C930 C929 1.362 . S
C930 C933 1.409 . S
C931 H923 0.930 . S
C931 C932 1.355 . S
C931 C933 1.415 . S
C932 C931 1.355 . S
C932 C934 1.419 . S
C933 C928 1.425 . S
C933 C930 1.409 . S
C933 C931 1.415 . S
C934 H924 0.930 . S
C934 C932 1.419 . S
C934 C935 1.362 . S
C935 H925 0.930 . S
C935 C928 1.409 . S
C935 C934 1.362 . S
H936 C942 0.930 . S
H937 C945 0.930 . S
H938 C946 0.930 . S
H939 C947 0.930 . S
H940 C950 0.930 . S
H941 C951 0.930 . S
C942 H936 0.930 . S
C942 C943 1.355 . S
C942 C944 1.415 . S
C943 C942 1.355 . S
C943 C945 1.419 1_554 S
C944 C942 1.415 . S
C944 C949 1.425 1_554 S
C944 C951 1.409 . S
C945 H937 0.930 . S
C945 C943 1.419 1_556 S
C945 C946 1.362 . S
C946 H938 0.930 . S
C946 C945 1.362 . S
C946 C949 1.409 . S
C947 H939 0.930 . S
C947 C948 1.355 . S
C947 C949 1.415 . S
C948 C947 1.355 . S
C948 C950 1.419 1_556 S
C949 C944 1.425 1_556 S
C949 C946 1.409 . S
C949 C947 1.415 . S
C950 H940 0.930 . S
C950 C948 1.419 1_554 S
C950 C951 1.362 . S
C951 H941 0.930 . S
C951 C944 1.409 . S
C951 C950 1.362 . S
C575 C7 1.388 . S
C580 C89 1.290 . S
C591 C37 1.678 . S
C596 C168 1.528 . S
C607 C54 1.521 . S
C612 C239 1.442 1_545 S
C628 C299 1.763 . S
C623 C87 1.781 . S
C644 C329 1.477 . S
C639 C30 1.620 . S
C655 C51 1.385 . S
C660 C419 1.398 . S
C671 C84 1.777 . S
C676 C479 1.767 . S
C687 C10 1.534 1_556 S
C692 C528 1.487 1_455 S
C703 C59 1.404 . S
C708 C509 1.348 . S
C724 C348 1.584 . S
C719 C74 1.625 . S
C740 C408 1.272 1_565 S
C735 C18 1.546 1_556 S
C751 C32 1.772 . S
C756 C468 1.674 . S
C772 C149 1.424 . S
C767 C73 1.679 . S
C783 C15 1.378 . S
C788 C228 1.329 . S
C804 C288 1.600 . S
C799 C43 1.779 . S
C820 C108 1.474 1_655 S
C815 C62 1.516 . S
C836 C449 1.676 . S
C831 C21 1.741 . S
C852 C539 1.139 . S
C847 C29 1.206 . S
C863 C52 1.397 . S
C868 C359 1.398 . S
C884 C389 1.204 . S
C879 C81 1.199 . S
C900 C209 1.126 . S
C895 C40 1.178 . S
C911 C65 1.709 . S
C916 C269 1.649 . S
C932 C119 1.083 . S
C927 C76 1.166 . S
C948 C179 1.357 . S
C943 C8 1.451 . S
