# Generated by pormake.
# Topology rtl, (3,6)-cn, num edge types: 1
# Building blocks:
#     Node 0, Type 0, BuildingBlock: ESEHIV_clean_linker_0, # of connection points: 3
#     Node 1, Type 0, BuildingBlock: ESEHIV_clean_linker_0, # of connection points: 3
#     Node 2, Type 0, BuildingBlock: ESEHIV_clean_linker_0, # of connection points: 3
#     Node 3, Type 0, BuildingBlock: ESEHIV_clean_linker_0, # of connection points: 3
#     Node 4, Type 1, BuildingBlock: KUMBOL_clean_sbu_1, # of connection points: 6
#     Node 5, Type 1, BuildingBlock: KUMBOL_clean_sbu_1, # of connection points: 6
#     Edge 6, Type (0, 1), BuildingBlock: KIFKEQ_clean_linker_1, # of connection points: 2
#     Edge 7, Type (0, 1), BuildingBlock: KIFKEQ_clean_linker_1, # of connection points: 2
#     Edge 8, Type (0, 1), BuildingBlock: KIFKEQ_clean_linker_1, # of connection points: 2
#     Edge 9, Type (0, 1), BuildingBlock: KIFKEQ_clean_linker_1, # of connection points: 2
#     Edge 10, Type (0, 1), BuildingBlock: KIFKEQ_clean_linker_1, # of connection points: 2
#     Edge 11, Type (0, 1), BuildingBlock: KIFKEQ_clean_linker_1, # of connection points: 2
#     Edge 12, Type (0, 1), BuildingBlock: KIFKEQ_clean_linker_1, # of connection points: 2
#     Edge 13, Type (0, 1), BuildingBlock: KIFKEQ_clean_linker_1, # of connection points: 2
#     Edge 14, Type (0, 1), BuildingBlock: KIFKEQ_clean_linker_1, # of connection points: 2
#     Edge 15, Type (0, 1), BuildingBlock: KIFKEQ_clean_linker_1, # of connection points: 2
#     Edge 16, Type (0, 1), BuildingBlock: KIFKEQ_clean_linker_1, # of connection points: 2
#     Edge 17, Type (0, 1), BuildingBlock: KIFKEQ_clean_linker_1, # of connection points: 2
# Relax obj value: 0.018
# Max RMSD: 0.115
# Mean RMSD: 0.069
data_MOF--net-rtl--node1-KUMBOL_clean_sbu_1--node2-ESEHIV_clean_linker_0--edge1-KIFKEQ_clean_linker_1
_symmetry_space_group_name_H-M    P1
_symmetry_Int_Tables_number       1
_symmetry_cell_setting            triclinic
loop_
_symmetry_equiv_pos_as_xyz
'x, y, z'
_cell_length_a     31.20355
_cell_length_b     32.011657
_cell_length_c     28.35483
_cell_angle_alpha  77.439842
_cell_angle_beta   99.525254
_cell_angle_gamma 90.990301
loop_
_atom_site_label
_atom_site_type_symbol
_atom_site_fract_x
_atom_site_fract_y
_atom_site_fract_z
_atom_type_partial_charge
H0 H 0.16176 0.89253 1.0024 0.0
H1 H 0.25762 0.81014 0.1051 0.0
H2 H 0.2554 0.82486 0.95018 0.0
C3 C 0.19011 0.87163 0.00946 0.0
C4 C 0.20677 0.86167 0.97009 0.0
C5 C 0.2084 0.85352 0.05814 0.0
C6 C 0.24339 0.82418 0.06757 0.0
C7 C 0.26059 0.81365 0.02871 0.0
C8 C 0.24229 0.83289 0.98021 0.0
H9 H 0.63995 0.63238 0.64929 0.0
H10 H 0.72252 0.71189 0.56218 0.0
H11 H 0.71646 0.72874 0.70757 0.0
C12 C 0.66261 0.65846 0.64513 0.0
C13 C 0.67576 0.6792 0.68397 0.0
C14 C 0.67933 0.67006 0.6013 0.0
C15 C 0.70962 0.70286 0.59614 0.0
C16 C 0.72319 0.72428 0.6342 0.0
C17 C 0.70653 0.71195 0.67835 0.0
H18 H 0.8766 0.13341 0.07587 0.0
H19 H 0.7863 0.19441 0.14001 0.0
H20 H 0.78084 0.22409 0.98397 0.0
C21 C 0.84972 0.15562 0.0717 0.0
C22 C 0.83049 0.17776 0.02456 0.0
C23 C 0.83352 0.16106 0.11349 0.0
C24 C 0.79809 0.1892 0.10782 0.0
C25 C 0.77906 0.21219 0.06128 0.0
C26 C 0.79541 0.20625 0.01992 0.0
H27 H 0.38443 0.37173 0.46263 0.0
H28 H 0.308 0.28266 0.54814 0.0
H29 H 0.31018 0.27769 0.3979 0.0
C30 C 0.36238 0.34509 0.46547 0.0
C31 C 0.34886 0.32693 0.42464 0.0
C32 C 0.34832 0.32877 0.51027 0.0
C33 C 0.32027 0.29396 0.5141 0.0
C34 C 0.30613 0.27515 0.47391 0.0
C35 C 0.32086 0.29175 0.42923 0.0
C36 C 0.91689 0.11334 0.49121 0.0
C37 C 0.8443 0.08476 0.48374 0.0
C38 C 0.88846 0.08119 0.50569 0.0
C39 C 0.8298 0.12009 0.44565 0.0
C40 C 0.90231 0.14949 0.45406 0.0
C41 C 0.85874 0.15239 0.43085 0.0
N42 N 0.95905 0.10913 0.51356 0.0
C43 C 0.98778 0.1411 0.50294 0.0
C44 C 0.93194 0.18176 0.44164 0.0
C45 C 0.97474 0.17774 0.46658 0.0
Gd46 Gd 0.03893 0.96093 0.51632 0.0
Gd47 Gd 0.97879 0.04595 0.57259 0.0
N48 N 0.90354 0.04745 0.54268 0.0
C49 C 0.8158 0.05334 0.50167 0.0
C50 C 0.87517 0.01876 0.56282 0.0
C51 C 0.83118 0.02062 0.54198 0.0
H52 H 0.88599 0.99487 0.59565 0.0
H53 H 0.80906 0.9972 0.5575 0.0
H54 H 0.14168 0.99106 0.52707 0.0
H55 H 0.02084 0.13801 0.52225 0.0
H56 H 0.21347 0.96396 0.57471 0.0
H57 H 0.78164 0.05492 0.48584 0.0
H58 H 0.79608 0.12317 0.42807 0.0
H59 H 0.97411 0.87439 0.52626 0.0
H60 H 0.92199 0.21008 0.41332 0.0
H61 H 0.99771 0.20277 0.45772 0.0
H62 H 0.18215 0.82813 0.673 0.0
H63 H 0.84697 0.17975 0.40191 0.0
H64 H 0.03803 0.77532 0.64132 0.0
H65 H 0.97324 0.80289 0.57999 0.0
N66 N 0.0359 0.89013 0.56169 0.0
C67 C 0.07303 0.87427 0.59231 0.0
C68 C 1.00134 0.86406 0.55505 0.0
C69 C 0.03791 0.80745 0.61904 0.0
C70 C 1.00125 0.82293 0.58458 0.0
C71 C 0.07495 0.83263 0.62212 0.0
H72 H 0.11614 0.78506 0.67583 0.0
N73 N 0.1076 0.93776 0.56053 0.0
C74 C 0.11025 0.89843 0.59089 0.0
C75 C 0.18767 0.90601 0.61347 0.0
C76 C 0.15028 0.88178 0.61895 0.0
C77 C 0.14411 0.9607 0.55314 0.0
C78 C 0.18465 0.94539 0.5799 0.0
O79 O 0.98273 0.0572 0.49162 0.0
O80 O 0.97396 0.9901 0.47754 0.0
O81 O 0.06272 0.98164 0.44731 0.0
O82 O 0.04984 0.91491 0.47336 0.0
O83 O 0.95973 0.97613 0.59163 0.0
O84 O 0.96791 0.94946 0.52412 0.0
O85 O 0.06949 0.97615 0.58883 0.0
O86 O 0.00876 0.9848 0.62054 0.0
O87 O 0.94344 0.06429 0.62505 0.0
O88 O 0.01026 0.08265 0.62439 0.0
O89 O 0.06318 0.02905 0.50181 0.0
O90 O 0.04914 0.06011 0.56509 0.0
C91 C 0.96785 0.03153 0.46275 0.0
C92 C 0.94915 0.94915 0.56263 0.0
C93 C 0.03921 0.94111 0.38831 0.0
C94 C 0.04438 0.92888 0.30748 0.0
C95 C 0.97416 0.944 0.32762 0.0
C96 C 0.99408 0.94668 0.37468 0.0
C97 C 0.99905 0.9351 0.29415 0.0
C98 C 0.06421 0.93231 0.35477 0.0
C99 C 0.06063 0.9437 0.43761 0.0
C100 C 0.15182 0.84127 0.65061 0.0
C101 C 0.1142 0.81679 0.65231 0.0
H102 H 0.21907 0.89428 0.63426 0.0
C103 C 0.05014 0.97532 0.62667 0.0
C104 C 0.07101 0.05749 0.5296 0.0
C105 C 0.96492 0.12592 0.65485 0.0
C106 C 0.93891 0.16439 0.71063 0.0
C107 C 0.95699 0.20326 0.63279 0.0
C108 C 0.96823 0.16486 0.62175 0.0
C109 C 0.94237 0.20313 0.67683 0.0
C110 C 0.95037 0.12585 0.69921 0.0
C111 C 0.97569 0.08481 0.64403 0.0
H112 H 0.93929 0.94839 0.31721 0.0
H113 H 0.97438 0.95271 0.40056 0.0
H114 H 0.9827 0.93228 0.25823 0.0
H115 H 0.09915 0.92834 0.36555 0.0
H116 H 0.95967 0.23325 0.60714 0.0
H117 H 0.97948 0.16566 0.58755 0.0
H118 H 0.93426 0.23339 0.68468 0.0
H119 H 0.94733 0.09562 0.72446 0.0
C120 C 0.65527 0.53933 0.0781 0.0
C121 C 0.6552 0.61509 0.04025 0.0
C122 C 0.6336 0.57882 0.06224 0.0
C123 C 0.69867 0.61116 0.03439 0.0
C124 C 0.69889 0.5353 0.07222 0.0
C125 C 0.72044 0.5714 0.05031 0.0
N126 N 0.6334 0.50472 0.09833 0.0
C127 C 0.65348 0.46556 0.11486 0.0
C128 C 0.71948 0.49498 0.08823 0.0
C129 C 0.6967 0.46 0.10982 0.0
Gd130 Gd 0.46177 0.4873 0.00611 0.0
Gd131 Gd 0.56083 0.51703 0.10376 0.0
N132 N 0.59094 0.58132 0.06672 0.0
C133 C 0.63237 0.65421 0.02448 0.0
C134 C 0.56913 0.61976 0.05322 0.0
C135 C 0.58929 0.6566 0.03141 0.0
H136 H 0.53642 0.62254 0.05956 0.0
H137 H 0.57165 0.6869 0.0202 0.0
H138 H 0.49946 0.3891 1.00136 0.0
H139 H 0.63638 0.43885 0.13295 0.0
H140 H 0.48654 0.31377 0.03622 0.0
H141 H 0.64781 0.68281 0.00739 0.0
H142 H 0.71572 0.63867 0.01744 0.0
H143 H 0.37753 0.54289 0.02124 0.0
H144 H 0.75296 0.49057 0.08433 0.0
H145 H 0.71248 0.42882 0.12283 0.0
H146 H 0.3605 0.31825 0.11132 0.0
H147 H 0.75393 0.56889 0.0454 0.0
H148 H 0.29175 0.45475 0.09364 0.0
H149 H 0.3099 0.52894 0.05674 0.0
N150 N 0.39687 0.4773 0.03809 0.0
C151 C 0.38684 0.43613 0.0566 0.0
C152 C 0.36949 0.51044 0.03703 0.0
C153 C 0.32117 0.46066 0.07779 0.0
C154 C 0.33133 0.50262 0.05706 0.0
C155 C 0.34896 0.42679 0.07766 0.0
H156 H 0.31136 0.37635 0.11476 0.0
N157 N 0.45115 0.41344 0.03396 0.0
C158 C 0.41516 0.40343 0.05532 0.0
C159 C 0.43246 0.328 0.06881 0.0
C160 C 0.40537 0.36044 0.07413 0.0
C161 C 0.47489 0.38172 0.02435 0.0
C162 C 0.4668 0.33869 0.04286 0.0
O163 O 0.57125 0.52856 0.02464 0.0
O164 O 0.50343 0.54208 0.97692 0.0
O165 O 0.45177 0.46537 0.9365 0.0
O166 O 0.40863 0.51338 0.94904 0.0
O167 O 0.49806 0.55601 0.09046 0.0
O168 O 0.46425 0.55635 0.01117 0.0
O169 O 0.45381 0.48537 0.08487 0.0
O170 O 0.51981 0.46024 0.12834 0.0
O171 O 0.55247 0.54895 0.16201 0.0
O172 O 0.60584 0.5039 0.17241 0.0
O173 O 0.52833 0.45642 0.01305 0.0
O174 O 0.55506 0.44878 0.09526 0.0
C175 C 0.5459 0.54546 0.9833 0.0
C176 C 0.46978 0.57206 0.05085 0.0
C177 C 0.39189 0.49529 0.86978 0.0
C178 C 0.37692 0.47701 0.78953 0.0
C179 C 0.33537 0.53381 0.80643 0.0
C180 C 0.35887 0.52704 0.85379 0.0
C181 C 0.34449 0.50917 0.77432 0.0
C182 C 0.40049 0.46982 0.83751 0.0
C183 C 0.41819 0.491 0.91908 0.0
C184 C 0.36822 0.35107 0.09627 0.0
C185 C 0.34011 0.38414 0.09803 0.0
H186 H 0.42603 0.2946 0.08271 0.0
C187 C 0.47743 0.46258 0.12434 0.0
C188 C 0.55455 0.43755 0.05324 0.0
C189 C 0.57677 0.50949 0.24222 0.0
C190 C 0.58217 0.51464 0.32773 0.0
C191 C 0.55263 0.451 0.30114 0.0
C192 C 0.55913 0.46869 0.25341 0.0
C193 C 0.56426 0.4736 0.33817 0.0
C194 C 0.5878 0.53248 0.27918 0.0
C195 C 0.58492 0.52819 0.19252 0.0
H196 H 0.3102 0.55847 0.79446 0.0
H197 H 0.3515 0.54718 0.87767 0.0
H198 H 0.32599 0.51498 0.73755 0.0
H199 H 0.42583 0.44525 0.84912 0.0
H200 H 0.53912 0.41939 0.30962 0.0
H201 H 0.55096 0.45041 0.2254 0.0
H202 H 0.56005 0.45847 0.37511 0.0
H203 H 0.60079 0.56428 0.26988 0.0
H204 H 0.23553 0.26179 0.40697 0.0
H205 H 0.30462 0.20801 0.55222 0.0
H206 H 0.1797 0.20774 0.41903 0.0
H207 H 0.24824 0.15503 0.56455 0.0
H208 H 0.11077 0.10878 0.5888 0.0
H209 H 0.16899 0.1592 0.57322 0.0
H210 H 0.16915 0.12692 0.43317 0.0
H211 H 0.11095 0.07627 0.44864 0.0
C212 C 0.23924 0.23813 0.44113 0.0
C213 C 0.27444 0.23962 0.47879 0.0
C214 C 0.20711 0.20729 0.4481 0.0
C215 C 0.20932 0.17755 0.49299 0.0
C216 C 0.24522 0.17809 0.52993 0.0
C217 C 0.27749 0.20851 0.52282 0.0
C218 C 0.12316 0.11237 0.55467 0.0
C219 C 0.10623 0.08835 0.52006 0.0
C220 C 0.15669 0.14109 0.54588 0.0
C221 C 0.17374 0.14687 0.50205 0.0
C222 C 0.15652 0.12327 0.46716 0.0
C223 C 0.12334 0.0941 0.47621 0.0
H224 H 0.27142 0.73751 0.09646 0.0
H225 H 0.33105 0.81668 0.98199 0.0
H226 H 0.32592 0.68123 0.10525 0.0
H227 H 0.38481 0.76008 0.99018 0.0
H228 H 0.42485 0.62671 0.97137 0.0
H229 H 0.37824 0.68718 0.97037 0.0
H230 H 0.40704 0.66366 0.12826 0.0
H231 H 0.45395 0.60278 0.12944 0.0
C232 C 0.29657 0.74325 0.0738 0.0
C233 C 0.29653 0.78142 0.0381 0.0
C234 C 0.32772 0.71097 0.0788 0.0
C235 C 0.35927 0.71613 0.04801 0.0
C236 C 0.36038 0.75495 0.01381 0.0
C237 C 0.32951 0.7873 0.00907 0.0
C238 C 0.42149 0.63448 1.00592 0.0
C239 C 0.4431 0.60992 0.0505 0.0
C240 C 0.39499 0.66932 1.00529 0.0
C241 C 0.38914 0.68022 0.04923 0.0
C242 C 0.41086 0.65585 0.09387 0.0
C243 C 0.43787 0.62119 0.09448 0.0
H244 H 0.79733 0.73737 0.69567 0.0
H245 H 0.71931 0.79131 0.55575 0.0
H246 H 0.85166 0.79232 0.67934 0.0
H247 H 0.77269 0.84676 0.5398 0.0
H248 H 0.89819 0.90749 0.50018 0.0
H249 H 0.84362 0.854 0.5195 0.0
H250 H 0.86734 0.86689 0.67019 0.0
H251 H 0.92342 0.91896 0.65115 0.0
C252 C 0.79152 0.76141 0.6618 0.0
C253 C 0.75433 0.75982 0.6268 0.0
C254 C 0.82258 0.79295 0.65239 0.0
C255 C 0.81689 0.8238 0.60793 0.0
C256 C 0.7788 0.82296 0.57383 0.0
C257 C 0.74804 0.79131 0.58307 0.0
C258 C 0.89197 0.89862 0.53751 0.0
C259 C 0.91531 0.91724 0.57417 0.0
C260 C 0.86031 0.86828 0.54854 0.0
C261 C 0.85082 0.85612 0.59645 0.0
C262 C 0.87408 0.87501 0.63307 0.0
C263 C 0.90597 0.90517 0.62206 0.0
H264 H 0.70731 0.20108 0.1061 0.0
H265 H 0.76931 0.29363 1.00528 0.0
H266 H 0.64984 0.25333 0.10111 0.0
H267 H 0.71228 0.34618 1.00078 0.0
H268 H 0.58519 0.42154 0.97384 0.0
H269 H 0.63632 0.36491 0.97259 0.0
H270 H 0.64143 0.31793 0.12837 0.0
H271 H 0.58924 0.37327 0.12906 0.0
C272 C 0.70867 0.23266 0.08295 0.0
C273 C 0.7429 0.2433 0.05622 0.0
C274 C 0.6758 0.26264 0.08013 0.0
C275 C 0.6765 0.30409 0.05073 0.0
C276 C 0.71032 0.3144 0.02322 0.0
C277 C 0.74308 0.28432 0.02586 0.0
C278 C 0.59694 0.39875 0.00763 0.0
C279 C 0.58365 0.40209 0.05164 0.0
C280 C 0.62649 0.36655 0.00704 0.0
C281 C 0.64323 0.33696 0.05044 0.0
C282 C 0.62892 0.3398 0.09415 0.0
C283 C 0.59933 0.37183 0.09467 0.0
H284 H 0.18706 0.79965 0.13962 0.0
H285 H 0.1873 0.93313 0.06761 0.0
H286 H 0.14939 0.81823 0.20148 0.0
H287 H 0.15035 0.95189 0.12964 0.0
H288 H 0.0366 0.96279 0.20905 0.0
H289 H 0.07882 0.9443 0.15134 0.0
H290 H 0.15568 0.85394 0.26923 0.0
H291 H 0.11207 0.871 0.32661 0.0
C292 C 0.17974 0.83301 0.13757 0.0
C293 C 0.18975 0.8649 0.09862 0.0
C294 C 0.15818 0.8437 0.17297 0.0
C295 C 0.14641 0.88653 0.17021 0.0
C296 C 0.15801 0.91851 0.13223 0.0
C297 C 0.17934 0.90781 0.09682 0.0
C298 C 0.06224 0.9387 0.2226 0.0
C299 C 0.07087 0.91835 0.27245 0.0
C300 C 0.08686 0.92849 0.18962 0.0
C301 C 0.12081 0.89775 0.20568 0.0
C302 C 0.12956 0.87749 0.25556 0.0
C303 C 0.10487 0.88766 0.28855 0.0
H304 H 0.59154 0.65904 0.69242 0.0
H305 H 0.71696 0.66983 0.7795 0.0
H306 H 0.56179 0.63005 0.76616 0.0
H307 H 0.68634 0.64313 0.85412 0.0
H308 H 0.63013 0.54071 0.96897 0.0
H309 H 0.66204 0.57802 0.89903 0.0
H310 H 0.53949 0.64436 0.83592 0.0
H311 H 0.50737 0.60593 0.90507 0.0
C312 C 0.61276 0.65555 0.72743 0.0
C313 C 0.65687 0.66618 0.72987 0.0
C314 C 0.59546 0.63947 0.76997 0.0
C315 C 0.62157 0.63406 0.8164 0.0
C316 C 0.66537 0.64622 0.81903 0.0
C317 C 0.68283 0.66207 0.77624 0.0
C318 C 0.61012 0.56351 0.9403 0.0
C319 C 0.56607 0.56999 0.94229 0.0
C320 C 0.6285 0.58516 0.90024 0.0
C321 C 0.60332 0.61403 0.86134 0.0
C322 C 0.55967 0.62163 0.86446 0.0
C323 C 0.54121 0.59967 0.90423 0.0
H324 H 0.79294 0.1173 0.18698 0.0
H325 H 0.9199 0.1543 0.15294 0.0
H326 H 0.82561 0.08501 0.27128 0.0
H327 H 0.95268 0.12178 0.23736 0.0
H328 H 0.98282 0.109 0.40604 0.0
H329 H 0.95075 0.13831 0.32073 0.0
H330 H 0.87614 0.02369 0.31836 0.0
H331 H 0.90777 0.99469 0.40399 0.0
C332 C 0.82787 0.11828 0.19751 0.0
C333 C 0.85388 0.13839 0.16344 0.0
C334 C 0.84658 0.0996 0.24565 0.0
C335 C 0.89166 0.10106 0.26095 0.0
C336 C 0.91778 0.12054 0.22669 0.0
C337 C 0.89911 0.13877 0.17832 0.0
C338 C 0.95939 0.09022 0.38734 0.0
C339 C 0.94789 0.04952 0.41149 0.0
C340 C 0.94138 0.10679 0.3384 0.0
C341 C 0.91116 0.08316 0.31277 0.0
C342 C 0.89924 0.04267 0.33721 0.0
C343 C 0.91754 0.02597 0.38605 0.0
H344 H 0.37829 0.28978 0.60565 0.0
H345 H 0.34659 0.4138 0.51046 0.0
H346 H 0.39471 0.32317 0.67611 0.0
H347 H 0.36141 0.44718 0.58059 0.0
H348 H 0.41172 0.5043 0.70706 0.0
H349 H 0.41346 0.46654 0.64125 0.0
H350 H 0.35815 0.35583 0.72555 0.0
H351 H 0.35874 0.39331 0.7921 0.0
C352 C 0.37489 0.32422 0.59989 0.0
C353 C 0.36114 0.34921 0.55263 0.0
C354 C 0.38413 0.34338 0.64023 0.0
C355 C 0.37936 0.38796 0.6343 0.0
C356 C 0.3664 0.41291 0.5867 0.0
C357 C 0.35766 0.3938 0.54637 0.0
C358 C 0.4011 0.47146 0.71177 0.0
C359 C 0.38526 0.45148 0.7544 0.0
C360 C 0.40154 0.44996 0.67393 0.0
C361 C 0.38522 0.4083 0.67751 0.0
C362 C 0.37139 0.38765 0.7215 0.0
C363 C 0.37161 0.40903 0.75968 0.0
H364 H 0.59627 0.65594 0.56124 0.0
H365 H 0.73 0.63438 0.5503 0.0
H366 H 0.57228 0.61995 0.49426 0.0
H367 H 0.70643 0.59664 0.48478 0.0
H368 H 0.65258 0.56645 0.33856 0.0
H369 H 0.67452 0.60561 0.40255 0.0
H370 H 0.5671 0.55293 0.47355 0.0
H371 H 0.54305 0.51658 0.40731 0.0
C372 C 0.62049 0.64305 0.5447 0.0
C373 C 0.66494 0.64793 0.5608 0.0
C374 C 0.60682 0.6222 0.50648 0.0
C375 C 0.63734 0.60518 0.48394 0.0
C376 C 0.6819 0.60999 0.50044 0.0
C377 C 0.69551 0.63141 0.53817 0.0
C378 C 0.63305 0.56382 0.36724 0.0
C379 C 0.59584 0.53835 0.36742 0.0
C380 C 0.64614 0.58577 0.40456 0.0
C381 C 0.62281 0.5824 0.4436 0.0
C382 C 0.58564 0.55686 0.44386 0.0
C383 C 0.57219 0.53537 0.40614 0.0
H384 H 0.91516 0.17129 0.0112 0.0
H385 H 0.78275 0.17032 0.93682 0.0
H386 H 0.94145 0.16579 0.93618 0.0
H387 H 0.80898 0.16516 0.86199 0.0
H388 H 0.87101 0.21071 0.72447 0.0
H389 H 0.84564 0.21163 0.80105 0.0
H390 H 0.94474 0.11782 0.87928 0.0
H391 H 0.97091 0.11774 0.80264 0.0
C392 C 0.89167 0.16937 0.97907 0.0
C393 C 0.84683 0.17168 0.97995 0.0
C394 C 0.90673 0.16626 0.93605 0.0
C395 C 0.87731 0.16546 0.89293 0.0
C396 C 0.83252 0.1666 0.89424 0.0
C397 C 0.81749 0.16959 0.93718 0.0
C398 C 0.8876 0.1905 0.75803 0.0
C399 C 0.92307 0.16425 0.75741 0.0
C400 C 0.87275 0.19066 0.80188 0.0
C401 C 0.89307 0.1647 0.84632 0.0
C402 C 0.92857 0.13843 0.84576 0.0
C403 C 0.94329 0.13808 0.80179 0.0
H404 H 0.37917 0.2844 0.36209 0.0
H405 H 0.35269 0.41134 0.3804 0.0
H406 H 0.40759 0.31551 0.28687 0.0
H407 H 0.38195 0.44233 0.30629 0.0
H408 H 0.40155 0.48543 0.14847 0.0
H409 H 0.36692 0.45051 0.2175 0.0
H410 H 0.47161 0.35644 0.26385 0.0
H411 H 0.50536 0.39064 0.1936 0.0
C412 C 0.3791 0.31889 0.34985 0.0
C413 C 0.36388 0.34539 0.37737 0.0
C414 C 0.39576 0.33672 0.30706 0.0
C415 C 0.39719 0.38143 0.29061 0.0
C416 C 0.381 0.4078 0.31758 0.0
C417 C 0.36462 0.39003 0.36038 0.0
C418 C 0.41683 0.45696 0.17305 0.0
C419 C 0.45619 0.44082 0.16574 0.0
C420 C 0.39722 0.43716 0.21287 0.0
C421 C 0.41658 0.40077 0.24641 0.0
C422 C 0.45559 0.38415 0.23849 0.0
C423 C 0.47518 0.40399 0.19859 0.0
H424 H 0.17064 0.94221 0.93224 0.0
H425 H 0.19565 0.82363 0.89077 0.0
H426 H 0.13277 0.97094 0.8492 0.0
H427 H 0.16036 0.85399 0.80713 0.0
H428 H 0.13763 0.95996 0.65481 0.0
H429 H 0.17693 0.9319 0.73742 0.0
H430 H 0.05826 0.93586 0.79569 0.0
H431 H 0.01818 0.96114 0.71278 0.0
C432 C 0.1682 0.92221 0.90568 0.0
C433 C 0.18614 0.88037 0.91862 0.0
C434 C 0.14682 0.9389 0.85811 0.0
C435 C 0.14391 0.91455 0.82225 0.0
C436 C 0.16264 0.87334 0.83438 0.0
C437 C 0.18314 0.8562 0.88222 0.0
C438 C 0.1197 0.95384 0.68495 0.0
C439 C 0.07459 0.96142 0.67693 0.0
C440 C 0.14229 0.93831 0.73221 0.0
C441 C 0.12037 0.93164 0.77245 0.0
C442 C 0.07567 0.94079 0.76495 0.0
C443 C 0.05287 0.95523 0.71754 0.0
loop_
_geom_bond_atom_site_label_1
_geom_bond_atom_site_label_2
_geom_bond_distance
_geom_bond_site_symmetry_2
_ccdc_geom_bond_type
H0 C3 0.931 . S
H1 C6 0.928 . S
H2 C8 0.930 . S
C3 H0 0.931 . S
C3 C4 1.413 1_554 S
C3 C5 1.360 . S
C4 C3 1.413 1_556 S
C4 C8 1.429 . S
C5 C3 1.360 . S
C5 C6 1.372 . S
C6 H1 0.928 . S
C6 C5 1.372 . S
C6 C7 1.404 . S
C7 C6 1.404 . S
C7 C8 1.391 1_554 S
C8 H2 0.930 . S
C8 C4 1.429 . S
C8 C7 1.391 1_556 S
H9 C12 0.931 . S
H10 C15 0.928 . S
H11 C17 0.930 . S
C12 H9 0.931 . S
C12 C13 1.413 . S
C12 C14 1.360 . S
C13 C12 1.413 . S
C13 C17 1.429 . S
C14 C12 1.360 . S
C14 C15 1.372 . S
C15 H10 0.928 . S
C15 C14 1.372 . S
C15 C16 1.404 . S
C16 C15 1.404 . S
C16 C17 1.391 . S
C17 H11 0.930 . S
C17 C13 1.429 . S
C17 C16 1.391 . S
H18 C21 0.931 . S
H19 C24 0.928 . S
H20 C26 0.930 1_556 S
C21 H18 0.931 . S
C21 C22 1.413 . S
C21 C23 1.360 . S
C22 C21 1.413 . S
C22 C26 1.429 . S
C23 C21 1.360 . S
C23 C24 1.372 . S
C24 H19 0.928 . S
C24 C23 1.372 . S
C24 C25 1.404 . S
C25 C24 1.404 . S
C25 C26 1.391 . S
C26 H20 0.930 1_554 S
C26 C22 1.429 . S
C26 C25 1.391 . S
H27 C30 0.931 . S
H28 C33 0.928 . S
H29 C35 0.930 . S
C30 H27 0.931 . S
C30 C31 1.413 . S
C30 C32 1.360 . S
C31 C30 1.413 . S
C31 C35 1.429 . S
C32 C30 1.360 . S
C32 C33 1.372 . S
C33 H28 0.928 . S
C33 C32 1.372 . S
C33 C34 1.404 . S
C34 C33 1.404 . S
C34 C35 1.391 . S
C35 H29 0.930 . S
C35 C31 1.429 . S
C35 C34 1.391 . S
C36 C38 1.422 . S
C36 C40 1.415 . S
C36 N42 1.369 . S
C37 C38 1.421 . S
C37 C39 1.417 . S
C37 C49 1.422 . S
C38 C36 1.422 . S
C38 C37 1.421 . S
C38 N48 1.359 . S
C39 C37 1.417 . S
C39 C41 1.329 . S
C39 H58 0.930 . S
C40 C36 1.415 . S
C40 C41 1.437 . S
C40 C44 1.413 . S
C41 C39 1.329 . S
C41 C40 1.437 . S
C41 H63 0.929 . S
N42 C36 1.369 . S
N42 C43 1.338 . S
N42 Gd47 2.622 . S
C43 N42 1.338 . S
C43 C45 1.378 . S
C43 H55 0.929 1_655 S
C44 C40 1.413 . S
C44 C45 1.348 . S
C44 H60 0.931 . S
C45 C43 1.378 . S
C45 C44 1.348 . S
C45 H61 0.930 1_655 S
Gd46 N66 2.622 . S
Gd46 N73 2.570 . S
Gd46 O80 2.346 1_465 S
Gd46 O81 2.468 . S
Gd46 O82 2.427 . S
Gd46 O84 2.388 1_455 S
Gd46 O85 2.386 . S
Gd46 O89 2.307 1_565 S
Gd46 C99 2.805 . S
Gd47 N42 2.622 . S
Gd47 N48 2.570 . S
Gd47 O79 2.386 . S
Gd47 O83 2.307 1_545 S
Gd47 O86 2.353 1_655 S
Gd47 O87 2.468 . S
Gd47 O88 2.427 . S
Gd47 O90 2.388 1_655 S
Gd47 C111 2.805 . S
N48 C38 1.359 . S
N48 Gd47 2.570 . S
N48 C50 1.343 . S
C49 C37 1.422 . S
C49 C51 1.321 . S
C49 H57 0.931 . S
C50 N48 1.343 . S
C50 C51 1.390 . S
C50 H52 0.931 . S
C51 C49 1.321 . S
C51 C50 1.390 . S
C51 H53 0.930 . S
H52 C50 0.931 . S
H53 C51 0.930 . S
H54 C77 0.931 . S
H55 C43 0.929 1_455 S
H56 C78 0.930 . S
H57 C49 0.931 . S
H58 C39 0.930 . S
H59 C68 0.929 1_655 S
H60 C44 0.931 . S
H61 C45 0.930 1_455 S
H62 C100 0.930 . S
H63 C41 0.929 . S
H64 C69 0.931 . S
H65 C70 0.930 1_655 S
N66 Gd46 2.622 . S
N66 C67 1.369 . S
N66 C68 1.338 . S
C67 N66 1.369 . S
C67 C71 1.415 . S
C67 C74 1.422 . S
C68 H59 0.929 1_455 S
C68 N66 1.338 . S
C68 C70 1.378 . S
C69 H64 0.931 . S
C69 C70 1.348 . S
C69 C71 1.413 . S
C70 H65 0.930 1_455 S
C70 C68 1.378 . S
C70 C69 1.348 . S
C71 C67 1.415 . S
C71 C69 1.413 . S
C71 C101 1.437 . S
H72 C101 0.929 . S
N73 Gd46 2.570 . S
N73 C74 1.359 . S
N73 C77 1.343 . S
C74 C67 1.422 . S
C74 N73 1.359 . S
C74 C76 1.421 . S
C75 C76 1.422 . S
C75 C78 1.321 . S
C75 H102 0.931 . S
C76 C74 1.421 . S
C76 C75 1.422 . S
C76 C100 1.417 . S
C77 H54 0.931 . S
C77 N73 1.343 . S
C77 C78 1.390 . S
C78 H56 0.930 . S
C78 C75 1.321 . S
C78 C77 1.390 . S
O79 Gd47 2.386 . S
O79 C91 1.265 . S
O80 Gd46 2.346 1_645 S
O80 C91 1.253 . S
O81 Gd46 2.468 . S
O81 C99 1.263 . S
O82 Gd46 2.427 . S
O82 C99 1.252 . S
O83 Gd47 2.307 1_565 S
O83 C92 1.261 . S
O84 Gd46 2.388 1_655 S
O84 C92 1.252 . S
O85 Gd46 2.386 . S
O85 C103 1.265 . S
O86 Gd47 2.353 1_455 S
O86 C103 1.242 1_545 S
O87 Gd47 2.468 . S
O87 C111 1.263 . S
O88 Gd47 2.427 . S
O88 C111 1.252 . S
O89 Gd46 2.307 1_545 S
O89 C104 1.261 . S
O90 Gd47 2.388 1_455 S
O90 C104 1.252 . S
C91 O79 1.265 . S
C91 O80 1.253 . S
C92 O83 1.261 . S
C92 O84 1.252 . S
C93 C96 1.394 . S
C93 C98 1.370 . S
C93 C99 1.500 . S
C94 C97 1.383 . S
C94 C98 1.395 . S
C95 C96 1.396 . S
C95 C97 1.365 . S
C95 H112 0.929 . S
C96 C93 1.394 . S
C96 C95 1.396 . S
C96 H113 0.930 . S
C97 C94 1.383 . S
C97 C95 1.365 . S
C97 H114 0.931 . S
C98 C93 1.370 . S
C98 C94 1.395 . S
C98 H115 0.930 . S
C99 Gd46 2.805 . S
C99 O81 1.263 . S
C99 O82 1.252 . S
C99 C93 1.500 . S
C100 H62 0.930 . S
C100 C76 1.417 . S
C100 C101 1.329 . S
C101 C71 1.437 . S
C101 H72 0.929 . S
C101 C100 1.329 . S
H102 C75 0.931 . S
C103 O85 1.265 . S
C103 O86 1.242 1_565 S
C104 O89 1.261 . S
C104 O90 1.252 . S
C105 C108 1.394 . S
C105 C110 1.370 . S
C105 C111 1.500 . S
C106 C109 1.383 . S
C106 C110 1.395 . S
C107 C108 1.396 . S
C107 C109 1.365 . S
C107 H116 0.929 . S
C108 C105 1.394 . S
C108 C107 1.396 . S
C108 H117 0.930 . S
C109 C106 1.383 . S
C109 C107 1.365 . S
C109 H118 0.931 . S
C110 C105 1.370 . S
C110 C106 1.395 . S
C110 H119 0.930 . S
C111 Gd47 2.805 . S
C111 O87 1.263 . S
C111 O88 1.252 . S
C111 C105 1.500 . S
H112 C95 0.929 . S
H113 C96 0.930 . S
H114 C97 0.931 . S
H115 C98 0.930 . S
H116 C107 0.929 . S
H117 C108 0.930 . S
H118 C109 0.931 . S
H119 C110 0.930 . S
C120 C122 1.422 . S
C120 C124 1.415 . S
C120 N126 1.369 . S
C121 C122 1.421 . S
C121 C123 1.417 . S
C121 C133 1.422 . S
C122 C120 1.422 . S
C122 C121 1.421 . S
C122 N132 1.359 . S
C123 C121 1.417 . S
C123 C125 1.329 . S
C123 H142 0.930 . S
C124 C120 1.415 . S
C124 C125 1.437 . S
C124 C128 1.413 . S
C125 C123 1.329 . S
C125 C124 1.437 . S
C125 H147 0.929 . S
N126 C120 1.369 . S
N126 C127 1.338 . S
N126 Gd131 2.622 . S
C127 N126 1.338 . S
C127 C129 1.378 . S
C127 H139 0.929 . S
C128 C124 1.413 . S
C128 C129 1.348 . S
C128 H144 0.931 . S
C129 C127 1.378 . S
C129 C128 1.348 . S
C129 H145 0.930 . S
Gd130 N150 2.624 . S
Gd130 N157 2.570 1_556 S
Gd130 O164 2.353 . S
Gd130 O165 2.468 . S
Gd130 O166 2.427 . S
Gd130 O168 2.388 1_556 S
Gd130 O169 2.386 1_556 S
Gd130 O173 2.307 1_556 S
Gd130 C183 2.805 . S
Gd131 N126 2.622 . S
Gd131 N132 2.570 . S
Gd131 O163 2.386 . S
Gd131 O167 2.307 . S
Gd131 O170 2.353 . S
Gd131 O171 2.468 . S
Gd131 O172 2.427 . S
Gd131 O174 2.388 . S
Gd131 C195 2.805 . S
N132 C122 1.359 . S
N132 Gd131 2.570 . S
N132 C134 1.343 . S
C133 C121 1.422 . S
C133 C135 1.321 . S
C133 H141 0.931 . S
C134 N132 1.343 . S
C134 C135 1.390 . S
C134 H136 0.931 . S
C135 C133 1.321 . S
C135 C134 1.390 . S
C135 H137 0.930 . S
H136 C134 0.931 . S
H137 C135 0.930 . S
H138 C161 0.931 . S
H139 C127 0.929 . S
H140 C162 0.930 . S
H141 C133 0.931 . S
H142 C123 0.930 . S
H143 C152 0.929 . S
H144 C128 0.931 . S
H145 C129 0.930 . S
H146 C184 0.930 . S
H147 C125 0.929 . S
H148 C153 0.931 . S
H149 C154 0.930 . S
N150 Gd130 2.624 . S
N150 C151 1.366 1_556 S
N150 C152 1.337 . S
C151 N150 1.366 1_554 S
C151 C155 1.415 . S
C151 C158 1.422 . S
C152 H143 0.929 . S
C152 N150 1.337 . S
C152 C154 1.378 . S
C153 H148 0.931 . S
C153 C154 1.348 1_554 S
C153 C155 1.413 . S
C154 H149 0.930 . S
C154 C152 1.378 . S
C154 C153 1.348 1_556 S
C155 C151 1.415 . S
C155 C153 1.413 . S
C155 C185 1.437 . S
H156 C185 0.929 . S
N157 Gd130 2.570 1_554 S
N157 C158 1.359 . S
N157 C161 1.343 . S
C158 C151 1.422 . S
C158 N157 1.359 . S
C158 C160 1.421 . S
C159 C160 1.422 . S
C159 C162 1.321 . S
C159 H186 0.931 . S
C160 C158 1.421 . S
C160 C159 1.422 . S
C160 C184 1.417 . S
C161 H138 0.931 . S
C161 N157 1.343 . S
C161 C162 1.390 . S
C162 H140 0.930 . S
C162 C159 1.321 . S
C162 C161 1.390 . S
O163 Gd131 2.386 . S
O163 C175 1.265 1_554 S
O164 Gd130 2.353 . S
O164 C175 1.242 . S
O165 Gd130 2.468 . S
O165 C183 1.263 . S
O166 Gd130 2.427 . S
O166 C183 1.252 . S
O167 Gd131 2.307 . S
O167 C176 1.261 . S
O168 Gd130 2.388 1_554 S
O168 C176 1.252 . S
O169 Gd130 2.386 1_554 S
O169 C187 1.265 . S
O170 Gd131 2.353 . S
O170 C187 1.242 . S
O171 Gd131 2.468 . S
O171 C195 1.263 . S
O172 Gd131 2.427 . S
O172 C195 1.252 . S
O173 Gd130 2.307 1_554 S
O173 C188 1.261 . S
O174 Gd131 2.388 . S
O174 C188 1.252 . S
C175 O163 1.265 1_556 S
C175 O164 1.242 . S
C176 O167 1.261 . S
C176 O168 1.252 . S
C177 C180 1.394 . S
C177 C182 1.370 . S
C177 C183 1.500 . S
C178 C181 1.383 . S
C178 C182 1.395 . S
C179 C180 1.396 . S
C179 C181 1.365 . S
C179 H196 0.929 . S
C180 C177 1.394 . S
C180 C179 1.396 . S
C180 H197 0.930 . S
C181 C178 1.383 . S
C181 C179 1.365 . S
C181 H198 0.931 . S
C182 C177 1.370 . S
C182 C178 1.395 . S
C182 H199 0.930 . S
C183 Gd130 2.805 . S
C183 O165 1.263 . S
C183 O166 1.252 . S
C183 C177 1.500 . S
C184 H146 0.930 . S
C184 C160 1.417 . S
C184 C185 1.329 . S
C185 C155 1.437 . S
C185 H156 0.929 . S
C185 C184 1.329 . S
H186 C159 0.931 . S
C187 O169 1.265 . S
C187 O170 1.242 . S
C188 O173 1.261 . S
C188 O174 1.252 . S
C189 C192 1.394 . S
C189 C194 1.370 . S
C189 C195 1.500 . S
C190 C193 1.383 . S
C190 C194 1.395 . S
C191 C192 1.396 . S
C191 C193 1.365 . S
C191 H200 0.929 . S
C192 C189 1.394 . S
C192 C191 1.396 . S
C192 H201 0.930 . S
C193 C190 1.383 . S
C193 C191 1.365 . S
C193 H202 0.931 . S
C194 C189 1.370 . S
C194 C190 1.395 . S
C194 H203 0.930 . S
C195 Gd131 2.805 . S
C195 O171 1.263 . S
C195 O172 1.252 . S
C195 C189 1.500 . S
H196 C179 0.929 . S
H197 C180 0.930 . S
H198 C181 0.931 . S
H199 C182 0.930 . S
H200 C191 0.929 . S
H201 C192 0.930 . S
H202 C193 0.931 . S
H203 C194 0.930 . S
H204 C212 0.950 . S
H205 C217 0.950 . S
H206 C214 0.950 . S
H207 C216 0.950 . S
H208 C218 0.950 . S
H209 C220 0.950 . S
H210 C222 0.950 . S
H211 C223 0.950 . S
C212 H204 0.950 . S
C212 C213 1.386 . S
C212 C214 1.391 . S
C213 C212 1.386 . S
C213 C217 1.393 . S
C214 H206 0.950 . S
C214 C212 1.391 . S
C214 C215 1.400 . S
C215 C214 1.400 . S
C215 C216 1.398 . S
C215 C221 1.491 . S
C216 H207 0.950 . S
C216 C215 1.398 . S
C216 C217 1.391 . S
C217 H205 0.950 . S
C217 C213 1.393 . S
C217 C216 1.391 . S
C218 H208 0.950 . S
C218 C219 1.386 . S
C218 C220 1.391 . S
C219 C218 1.386 . S
C219 C223 1.393 . S
C220 H209 0.950 . S
C220 C218 1.391 . S
C220 C221 1.400 . S
C221 C215 1.491 . S
C221 C220 1.400 . S
C221 C222 1.398 . S
C222 H210 0.950 . S
C222 C221 1.398 . S
C222 C223 1.391 . S
C223 H211 0.950 . S
C223 C219 1.393 . S
C223 C222 1.391 . S
H224 C232 0.950 . S
H225 C237 0.950 . S
H226 C234 0.950 . S
H227 C236 0.950 . S
H228 C238 0.950 . S
H229 C240 0.950 . S
H230 C242 0.950 . S
H231 C243 0.950 . S
C232 H224 0.950 . S
C232 C233 1.386 . S
C232 C234 1.391 . S
C233 C232 1.386 . S
C233 C237 1.393 . S
C234 H226 0.950 . S
C234 C232 1.391 . S
C234 C235 1.400 . S
C235 C234 1.400 . S
C235 C236 1.398 . S
C235 C241 1.491 . S
C236 H227 0.950 . S
C236 C235 1.398 . S
C236 C237 1.391 . S
C237 H225 0.950 . S
C237 C233 1.393 . S
C237 C236 1.391 . S
C238 H228 0.950 . S
C238 C239 1.386 . S
C238 C240 1.391 . S
C239 C238 1.386 . S
C239 C243 1.393 . S
C240 H229 0.950 . S
C240 C238 1.391 . S
C240 C241 1.400 . S
C241 C235 1.491 . S
C241 C240 1.400 . S
C241 C242 1.398 . S
C242 H230 0.950 . S
C242 C241 1.398 . S
C242 C243 1.391 . S
C243 H231 0.950 . S
C243 C239 1.393 . S
C243 C242 1.391 . S
H244 C252 0.950 . S
H245 C257 0.950 . S
H246 C254 0.950 . S
H247 C256 0.950 . S
H248 C258 0.950 . S
H249 C260 0.950 . S
H250 C262 0.950 . S
H251 C263 0.950 . S
C252 H244 0.950 . S
C252 C253 1.386 . S
C252 C254 1.391 . S
C253 C252 1.386 . S
C253 C257 1.393 . S
C254 H246 0.950 . S
C254 C252 1.391 . S
C254 C255 1.400 . S
C255 C254 1.400 . S
C255 C256 1.398 . S
C255 C261 1.491 . S
C256 H247 0.950 . S
C256 C255 1.398 . S
C256 C257 1.391 . S
C257 H245 0.950 . S
C257 C253 1.393 . S
C257 C256 1.391 . S
C258 H248 0.950 . S
C258 C259 1.386 . S
C258 C260 1.391 . S
C259 C258 1.386 . S
C259 C263 1.393 . S
C260 H249 0.950 . S
C260 C258 1.391 . S
C260 C261 1.400 . S
C261 C255 1.491 . S
C261 C260 1.400 . S
C261 C262 1.398 . S
C262 H250 0.950 . S
C262 C261 1.398 . S
C262 C263 1.391 . S
C263 H251 0.950 . S
C263 C259 1.393 . S
C263 C262 1.391 . S
H264 C272 0.950 . S
H265 C277 0.950 . S
H266 C274 0.950 . S
H267 C276 0.950 . S
H268 C278 0.950 . S
H269 C280 0.950 . S
H270 C282 0.950 . S
H271 C283 0.950 . S
C272 H264 0.950 . S
C272 C273 1.386 . S
C272 C274 1.391 . S
C273 C272 1.386 . S
C273 C277 1.393 . S
C274 H266 0.950 . S
C274 C272 1.391 . S
C274 C275 1.400 . S
C275 C274 1.400 . S
C275 C276 1.398 . S
C275 C281 1.491 . S
C276 H267 0.950 . S
C276 C275 1.398 . S
C276 C277 1.391 . S
C277 H265 0.950 . S
C277 C273 1.393 . S
C277 C276 1.391 . S
C278 H268 0.950 . S
C278 C279 1.386 . S
C278 C280 1.391 . S
C279 C278 1.386 . S
C279 C283 1.393 . S
C280 H269 0.950 . S
C280 C278 1.391 . S
C280 C281 1.400 . S
C281 C275 1.491 . S
C281 C280 1.400 . S
C281 C282 1.398 . S
C282 H270 0.950 . S
C282 C281 1.398 . S
C282 C283 1.391 . S
C283 H271 0.950 . S
C283 C279 1.393 . S
C283 C282 1.391 . S
H284 C292 0.950 . S
H285 C297 0.950 . S
H286 C294 0.950 . S
H287 C296 0.950 . S
H288 C298 0.950 1_545 S
H289 C300 0.950 . S
H290 C302 0.950 . S
H291 C303 0.950 . S
C292 H284 0.950 . S
C292 C293 1.386 . S
C292 C294 1.391 . S
C293 C292 1.386 . S
C293 C297 1.393 . S
C294 H286 0.950 . S
C294 C292 1.391 . S
C294 C295 1.400 . S
C295 C294 1.400 . S
C295 C296 1.398 . S
C295 C301 1.491 . S
C296 H287 0.950 . S
C296 C295 1.398 . S
C296 C297 1.391 . S
C297 H285 0.950 . S
C297 C293 1.393 . S
C297 C296 1.391 . S
C298 H288 0.950 1_565 S
C298 C299 1.386 . S
C298 C300 1.391 . S
C299 C298 1.386 . S
C299 C303 1.393 . S
C300 H289 0.950 . S
C300 C298 1.391 . S
C300 C301 1.400 . S
C301 C295 1.491 . S
C301 C300 1.400 . S
C301 C302 1.398 . S
C302 H290 0.950 . S
C302 C301 1.398 . S
C302 C303 1.391 . S
C303 H291 0.950 . S
C303 C299 1.393 . S
C303 C302 1.391 . S
H304 C312 0.950 . S
H305 C317 0.950 . S
H306 C314 0.950 . S
H307 C316 0.950 . S
H308 C318 0.950 . S
H309 C320 0.950 . S
H310 C322 0.950 . S
H311 C323 0.950 . S
C312 H304 0.950 . S
C312 C313 1.386 . S
C312 C314 1.391 . S
C313 C312 1.386 . S
C313 C317 1.393 . S
C314 H306 0.950 . S
C314 C312 1.391 . S
C314 C315 1.400 . S
C315 C314 1.400 . S
C315 C316 1.398 . S
C315 C321 1.491 . S
C316 H307 0.950 . S
C316 C315 1.398 . S
C316 C317 1.391 . S
C317 H305 0.950 . S
C317 C313 1.393 . S
C317 C316 1.391 . S
C318 H308 0.950 . S
C318 C319 1.386 . S
C318 C320 1.391 . S
C319 C318 1.386 . S
C319 C323 1.393 . S
C320 H309 0.950 . S
C320 C318 1.391 . S
C320 C321 1.400 . S
C321 C315 1.491 . S
C321 C320 1.400 . S
C321 C322 1.398 . S
C322 H310 0.950 . S
C322 C321 1.398 . S
C322 C323 1.391 . S
C323 H311 0.950 . S
C323 C319 1.393 . S
C323 C322 1.391 . S
H324 C332 0.950 . S
H325 C337 0.950 . S
H326 C334 0.950 . S
H327 C336 0.950 . S
H328 C338 0.950 . S
H329 C340 0.950 . S
H330 C342 0.950 . S
H331 C343 0.950 . S
C332 H324 0.950 . S
C332 C333 1.386 . S
C332 C334 1.391 . S
C333 C332 1.386 . S
C333 C337 1.393 . S
C334 H326 0.950 . S
C334 C332 1.391 . S
C334 C335 1.400 . S
C335 C334 1.400 . S
C335 C336 1.398 . S
C335 C341 1.491 . S
C336 H327 0.950 . S
C336 C335 1.398 . S
C336 C337 1.391 . S
C337 H325 0.950 . S
C337 C333 1.393 . S
C337 C336 1.391 . S
C338 H328 0.950 . S
C338 C339 1.386 . S
C338 C340 1.391 . S
C339 C338 1.386 . S
C339 C343 1.393 . S
C340 H329 0.950 . S
C340 C338 1.391 . S
C340 C341 1.400 . S
C341 C335 1.491 . S
C341 C340 1.400 . S
C341 C342 1.398 . S
C342 H330 0.950 . S
C342 C341 1.398 . S
C342 C343 1.391 . S
C343 H331 0.950 . S
C343 C339 1.393 . S
C343 C342 1.391 . S
H344 C352 0.950 . S
H345 C357 0.950 . S
H346 C354 0.950 . S
H347 C356 0.950 . S
H348 C358 0.950 . S
H349 C360 0.950 . S
H350 C362 0.950 . S
H351 C363 0.950 . S
C352 H344 0.950 . S
C352 C353 1.386 . S
C352 C354 1.391 . S
C353 C352 1.386 . S
C353 C357 1.393 . S
C354 H346 0.950 . S
C354 C352 1.391 . S
C354 C355 1.400 . S
C355 C354 1.400 . S
C355 C356 1.398 . S
C355 C361 1.491 . S
C356 H347 0.950 . S
C356 C355 1.398 . S
C356 C357 1.391 . S
C357 H345 0.950 . S
C357 C353 1.393 . S
C357 C356 1.391 . S
C358 H348 0.950 . S
C358 C359 1.386 . S
C358 C360 1.391 . S
C359 C358 1.386 . S
C359 C363 1.393 . S
C360 H349 0.950 . S
C360 C358 1.391 . S
C360 C361 1.400 . S
C361 C355 1.491 . S
C361 C360 1.400 . S
C361 C362 1.398 . S
C362 H350 0.950 . S
C362 C361 1.398 . S
C362 C363 1.391 . S
C363 H351 0.950 . S
C363 C359 1.393 . S
C363 C362 1.391 . S
H364 C372 0.950 . S
H365 C377 0.950 . S
H366 C374 0.950 . S
H367 C376 0.950 . S
H368 C378 0.950 . S
H369 C380 0.950 . S
H370 C382 0.950 . S
H371 C383 0.950 . S
C372 H364 0.950 . S
C372 C373 1.386 . S
C372 C374 1.391 . S
C373 C372 1.386 . S
C373 C377 1.393 . S
C374 H366 0.950 . S
C374 C372 1.391 . S
C374 C375 1.400 . S
C375 C374 1.400 . S
C375 C376 1.398 . S
C375 C381 1.491 . S
C376 H367 0.950 . S
C376 C375 1.398 . S
C376 C377 1.391 . S
C377 H365 0.950 . S
C377 C373 1.393 . S
C377 C376 1.391 . S
C378 H368 0.950 . S
C378 C379 1.386 . S
C378 C380 1.391 . S
C379 C378 1.386 . S
C379 C383 1.393 . S
C380 H369 0.950 . S
C380 C378 1.391 . S
C380 C381 1.400 . S
C381 C375 1.491 . S
C381 C380 1.400 . S
C381 C382 1.398 . S
C382 H370 0.950 . S
C382 C381 1.398 . S
C382 C383 1.391 . S
C383 H371 0.950 . S
C383 C379 1.393 . S
C383 C382 1.391 . S
H384 C392 0.950 1_554 S
H385 C397 0.950 . S
H386 C394 0.950 . S
H387 C396 0.950 . S
H388 C398 0.950 . S
H389 C400 0.950 . S
H390 C402 0.950 . S
H391 C403 0.950 . S
C392 H384 0.950 1_556 S
C392 C393 1.386 . S
C392 C394 1.391 . S
C393 C392 1.386 . S
C393 C397 1.393 . S
C394 H386 0.950 . S
C394 C392 1.391 . S
C394 C395 1.400 . S
C395 C394 1.400 . S
C395 C396 1.398 . S
C395 C401 1.491 . S
C396 H387 0.950 . S
C396 C395 1.398 . S
C396 C397 1.391 . S
C397 H385 0.950 . S
C397 C393 1.393 . S
C397 C396 1.391 . S
C398 H388 0.950 . S
C398 C399 1.386 . S
C398 C400 1.391 . S
C399 C398 1.386 . S
C399 C403 1.393 . S
C400 H389 0.950 . S
C400 C398 1.391 . S
C400 C401 1.400 . S
C401 C395 1.491 . S
C401 C400 1.400 . S
C401 C402 1.398 . S
C402 H390 0.950 . S
C402 C401 1.398 . S
C402 C403 1.391 . S
C403 H391 0.950 . S
C403 C399 1.393 . S
C403 C402 1.391 . S
H404 C412 0.950 . S
H405 C417 0.950 . S
H406 C414 0.950 . S
H407 C416 0.950 . S
H408 C418 0.950 . S
H409 C420 0.950 . S
H410 C422 0.950 . S
H411 C423 0.950 . S
C412 H404 0.950 . S
C412 C413 1.386 . S
C412 C414 1.391 . S
C413 C412 1.386 . S
C413 C417 1.393 . S
C414 H406 0.950 . S
C414 C412 1.391 . S
C414 C415 1.400 . S
C415 C414 1.400 . S
C415 C416 1.398 . S
C415 C421 1.491 . S
C416 H407 0.950 . S
C416 C415 1.398 . S
C416 C417 1.391 . S
C417 H405 0.950 . S
C417 C413 1.393 . S
C417 C416 1.391 . S
C418 H408 0.950 . S
C418 C419 1.386 . S
C418 C420 1.391 . S
C419 C418 1.386 . S
C419 C423 1.393 . S
C420 H409 0.950 . S
C420 C418 1.391 . S
C420 C421 1.400 . S
C421 C415 1.491 . S
C421 C420 1.400 . S
C421 C422 1.398 . S
C422 H410 0.950 . S
C422 C421 1.398 . S
C422 C423 1.391 . S
C423 H411 0.950 . S
C423 C419 1.393 . S
C423 C422 1.391 . S
H424 C432 0.950 . S
H425 C437 0.950 . S
H426 C434 0.950 . S
H427 C436 0.950 . S
H428 C438 0.950 . S
H429 C440 0.950 . S
H430 C442 0.950 1_545 S
H431 C443 0.950 1_545 S
C432 H424 0.950 . S
C432 C433 1.386 . S
C432 C434 1.391 . S
C433 C432 1.386 . S
C433 C437 1.393 . S
C434 H426 0.950 . S
C434 C432 1.391 . S
C434 C435 1.400 . S
C435 C434 1.400 . S
C435 C436 1.398 . S
C435 C441 1.491 . S
C436 H427 0.950 . S
C436 C435 1.398 . S
C436 C437 1.391 . S
C437 H425 0.950 . S
C437 C433 1.393 . S
C437 C436 1.391 . S
C438 H428 0.950 . S
C438 C439 1.386 . S
C438 C440 1.391 . S
C439 C438 1.386 . S
C439 C443 1.393 . S
C440 H429 0.950 . S
C440 C438 1.391 . S
C440 C441 1.400 . S
C441 C435 1.491 . S
C441 C440 1.400 . S
C441 C442 1.398 . S
C442 H430 0.950 1_565 S
C442 C441 1.398 . S
C442 C443 1.391 . S
C443 H431 0.950 1_565 S
C443 C439 1.393 . S
C443 C442 1.391 . S
C219 C104 1.539 . S
C213 C34 1.572 . S
C233 C7 1.547 . S
C239 C176 1.542 . S
C253 C16 1.560 . S
C259 C92 1.552 . S
C273 C25 1.543 . S
C279 C188 1.541 . S
C299 C94 1.344 . S
C293 C5 1.528 . S
C319 C175 1.567 . S
C313 C13 1.555 . S
C333 C23 1.542 . S
C339 C91 1.550 . S
C353 C32 1.521 . S
C359 C178 1.347 . S
C379 C190 1.349 . S
C373 C14 1.516 . S
C399 C106 1.344 . S
C393 C22 1.525 1_556 S
C419 C187 1.562 . S
C413 C31 1.561 . S
C433 C4 1.537 . S
C439 C103 1.545 . S
