# Generated by pormake.
# Topology zzz, (3,6)-cn, num edge types: 1
# Building blocks:
#     Node 0, Type 0, BuildingBlock: BELTOD_clean_linker_0, # of connection points: 3
#     Node 1, Type 0, BuildingBlock: BELTOD_clean_linker_0, # of connection points: 3
#     Node 2, Type 0, BuildingBlock: BELTOD_clean_linker_0, # of connection points: 3
#     Node 3, Type 0, BuildingBlock: BELTOD_clean_linker_0, # of connection points: 3
#     Node 4, Type 0, BuildingBlock: BELTOD_clean_linker_0, # of connection points: 3
#     Node 5, Type 0, BuildingBlock: BELTOD_clean_linker_0, # of connection points: 3
#     Node 6, Type 0, BuildingBlock: BELTOD_clean_linker_0, # of connection points: 3
#     Node 7, Type 0, BuildingBlock: BELTOD_clean_linker_0, # of connection points: 3
#     Node 8, Type 1, BuildingBlock: HISSIN_clean_sbu_0, # of connection points: 6
#     Node 9, Type 1, BuildingBlock: HISSIN_clean_sbu_0, # of connection points: 6
#     Node 10, Type 1, BuildingBlock: HISSIN_clean_sbu_0, # of connection points: 6
#     Node 11, Type 1, BuildingBlock: HISSIN_clean_sbu_0, # of connection points: 6
#     Edge 12, Type (0, 1), BuildingBlock: OJICUG_clean_linker_0, # of connection points: 2
#     Edge 13, Type (0, 1), BuildingBlock: OJICUG_clean_linker_0, # of connection points: 2
#     Edge 14, Type (0, 1), BuildingBlock: OJICUG_clean_linker_0, # of connection points: 2
#     Edge 15, Type (0, 1), BuildingBlock: OJICUG_clean_linker_0, # of connection points: 2
#     Edge 16, Type (0, 1), BuildingBlock: OJICUG_clean_linker_0, # of connection points: 2
#     Edge 17, Type (0, 1), BuildingBlock: OJICUG_clean_linker_0, # of connection points: 2
#     Edge 18, Type (0, 1), BuildingBlock: OJICUG_clean_linker_0, # of connection points: 2
#     Edge 19, Type (0, 1), BuildingBlock: OJICUG_clean_linker_0, # of connection points: 2
#     Edge 20, Type (0, 1), BuildingBlock: OJICUG_clean_linker_0, # of connection points: 2
#     Edge 21, Type (0, 1), BuildingBlock: OJICUG_clean_linker_0, # of connection points: 2
#     Edge 22, Type (0, 1), BuildingBlock: OJICUG_clean_linker_0, # of connection points: 2
#     Edge 23, Type (0, 1), BuildingBlock: OJICUG_clean_linker_0, # of connection points: 2
#     Edge 24, Type (0, 1), BuildingBlock: OJICUG_clean_linker_0, # of connection points: 2
#     Edge 25, Type (0, 1), BuildingBlock: OJICUG_clean_linker_0, # of connection points: 2
#     Edge 26, Type (0, 1), BuildingBlock: OJICUG_clean_linker_0, # of connection points: 2
#     Edge 27, Type (0, 1), BuildingBlock: OJICUG_clean_linker_0, # of connection points: 2
#     Edge 28, Type (0, 1), BuildingBlock: OJICUG_clean_linker_0, # of connection points: 2
#     Edge 29, Type (0, 1), BuildingBlock: OJICUG_clean_linker_0, # of connection points: 2
#     Edge 30, Type (0, 1), BuildingBlock: OJICUG_clean_linker_0, # of connection points: 2
#     Edge 31, Type (0, 1), BuildingBlock: OJICUG_clean_linker_0, # of connection points: 2
#     Edge 32, Type (0, 1), BuildingBlock: OJICUG_clean_linker_0, # of connection points: 2
#     Edge 33, Type (0, 1), BuildingBlock: OJICUG_clean_linker_0, # of connection points: 2
#     Edge 34, Type (0, 1), BuildingBlock: OJICUG_clean_linker_0, # of connection points: 2
#     Edge 35, Type (0, 1), BuildingBlock: OJICUG_clean_linker_0, # of connection points: 2
# Relax obj value: 0.454
# Max RMSD: 0.243
# Mean RMSD: 0.186
data_MOF--net-zzz--node1-HISSIN_clean_sbu_0--node2-BELTOD_clean_linker_0--edge1-OJICUG_clean_linker_0
_symmetry_space_group_name_H-M    P1
_symmetry_Int_Tables_number       1
_symmetry_cell_setting            triclinic
loop_
_symmetry_equiv_pos_as_xyz
'x, y, z'
_cell_length_a     39.829703
_cell_length_b     39.960716
_cell_length_c     15.201459
_cell_angle_alpha  90.703239
_cell_angle_beta   91.430929
_cell_angle_gamma 90.993775
loop_
_atom_site_label
_atom_site_type_symbol
_atom_site_fract_x
_atom_site_fract_y
_atom_site_fract_z
_atom_type_partial_charge
P0 P 0.72863 0.484 0.34078 0.0
H1 H 0.74145 0.50877 0.52105 0.0
H2 H 0.79395 0.52555 0.59649 0.0
H3 H 0.84242 0.53136 0.34584 0.0
H4 H 0.78957 0.51555 0.27093 0.0
H5 H 0.66084 0.46059 0.30021 0.0
H6 H 0.61829 0.47684 0.19283 0.0
H7 H 0.68016 0.56176 0.12202 0.0
H8 H 0.72322 0.54478 0.23061 0.0
H9 H 0.77002 0.42719 0.38514 0.0
H10 H 0.73635 0.47706 0.14964 0.0
O11 O 0.7117 0.46248 0.42214 0.0
H12 H 0.8094 0.39482 0.29882 0.0
H13 H 0.77562 0.44542 0.06388 0.0
C14 C 0.76152 0.51045 0.39016 0.0
C15 C 0.76301 0.51486 0.48193 0.0
C16 C 0.79332 0.52398 0.5253 0.0
C17 C 0.82286 0.52889 0.47776 0.0
C18 C 0.82036 0.52777 0.38506 0.0
C19 C 0.78995 0.51881 0.34177 0.0
C20 C 0.69489 0.50196 0.27559 0.0
C21 C 0.66485 0.48342 0.26403 0.0
C22 C 0.6404 0.49276 0.20195 0.0
C23 C 0.64546 0.52078 0.14839 0.0
C24 C 0.67536 0.53993 0.1616 0.0
C25 C 0.69988 0.53054 0.22448 0.0
C26 C 0.75007 0.45431 0.27379 0.0
C27 C 0.7703 0.43037 0.3145 0.0
C28 C 0.79292 0.41206 0.26527 0.0
C29 C 0.79571 0.41762 0.17462 0.0
C30 C 0.77374 0.44007 0.13328 0.0
C31 C 0.75126 0.4584 0.18256 0.0
P32 P 0.05441 0.72659 0.36503 0.0
H33 H 0.02996 0.73866 0.54312 0.0
H34 H 1.01459 0.79072 0.61545 0.0
H35 H 1.00777 0.83859 0.36255 0.0
H36 H 0.02211 0.78599 0.29055 0.0
H37 H 0.08808 0.67164 0.28579 0.0
H38 H 0.07379 0.63089 0.17014 0.0
H39 H 0.97653 0.6757 0.13541 0.0
H40 H 0.99114 0.71642 0.25469 0.0
H41 H 0.10572 0.76967 0.44845 0.0
H42 H 0.07377 0.74138 0.18415 0.0
O43 O 0.07096 0.70481 0.44794 0.0
H44 H 0.13831 0.81664 0.39046 0.0
H45 H 0.10639 0.78748 0.12645 0.0
C46 C 0.02724 0.7581 0.41092 0.0
C47 C 0.02375 0.75988 0.50259 0.0
C48 C 0.01557 0.79007 0.54434 0.0
C49 C 1.01083 0.81944 0.49555 0.0
C50 C 1.01116 0.81672 0.4029 0.0
C51 C 0.01911 0.78637 0.36117 0.0
C52 C 0.04035 0.69635 0.28116 0.0
C53 C 0.06327 0.67213 0.25521 0.0
C54 C 0.05507 0.64884 0.18855 0.0
C55 C 0.02377 0.6495 0.14391 0.0
C56 C 1.00081 0.67431 0.1687 0.0
C57 C 1.009 0.69751 0.2371 0.0
C58 C 0.08757 0.75181 0.32073 0.0
C59 C 0.10697 0.77258 0.37785 0.0
C60 C 0.1254 0.7995 0.3448 0.0
C61 C 0.12482 0.80574 0.25405 0.0
C62 C 0.10779 0.78304 0.19659 0.0
C63 C 0.08902 0.75651 0.22972 0.0
P64 P 0.80901 0.04386 0.34253 0.0
H65 H 0.79582 0.02893 0.52773 0.0
H66 H 0.74402 0.01692 0.60426 0.0
H67 H 0.69117 1.00458 0.35402 0.0
H68 H 0.74353 0.01578 0.27797 0.0
H69 H 0.88159 0.03417 0.35025 0.0
H70 H 0.92088 0.02065 0.23721 0.0
H71 H 0.83837 0.98483 0.06889 0.0
H72 H 0.7989 1.00135 0.18175 0.0
H73 H 0.75252 0.0887 0.36582 0.0
H74 H 0.82844 0.07328 0.17228 0.0
O75 O 0.83238 0.06341 0.42076 0.0
H76 H 0.72184 0.12393 0.2633 0.0
H77 H 0.79771 0.10846 0.06945 0.0
C78 C 0.7739 0.02328 0.39658 0.0
C79 C 0.77338 0.02265 0.48897 0.0
C80 C 0.74337 0.01629 0.53302 0.0
C81 C 0.71283 0.01045 0.48603 0.0
C82 C 0.71395 1.00879 0.39321 0.0
C83 C 0.7441 0.015 0.34918 0.0
C84 C 0.83708 0.01939 0.27484 0.0
C85 C 0.87187 0.02294 0.28974 0.0
C86 C 0.89459 0.01483 0.22418 0.0
C87 C 0.8833 1.00218 0.14143 0.0
C88 C 0.8484 0.99552 0.12997 0.0
C89 C 0.8256 1.0042 0.19563 0.0
C90 C 0.79153 0.07638 0.27475 0.0
C91 C 0.76283 0.09313 0.30168 0.0
C92 C 0.74554 0.11376 0.24334 0.0
C93 C 0.75699 0.11833 0.15746 0.0
C94 C 0.7879 0.10472 0.1345 0.0
C95 C 0.80525 0.08419 0.19313 0.0
P96 P 0.47547 0.80786 0.36392 0.0
H97 H 0.47641 0.78682 0.54703 0.0
H98 H 0.48982 0.73425 0.61419 0.0
H99 H 0.5379 0.70269 0.37552 0.0
H100 H 0.52101 0.75438 0.30601 0.0
H101 H 0.46355 0.87797 0.33096 0.0
H102 H 0.48049 0.91553 0.21565 0.0
H103 H 0.54917 0.84166 0.12079 0.0
H104 H 0.53186 0.80378 0.23752 0.0
H105 H 0.42132 0.76235 0.41082 0.0
H106 H 0.4625 0.80109 0.17179 0.0
O107 O 0.4546 0.82969 0.43862 0.0
H108 H 0.38841 0.72083 0.32441 0.0
H109 H 0.43071 0.75962 0.08636 0.0
C110 C 0.49831 0.7754 0.4215 0.0
C111 C 0.49073 0.76911 0.50955 0.0
C112 C 0.49856 0.73853 0.54844 0.0
C113 C 0.51479 0.71324 0.50093 0.0
C114 C 0.52459 0.72072 0.41447 0.0
C115 C 0.51587 0.75107 0.37485 0.0
C116 C 0.49672 0.838 0.29477 0.0
C117 C 0.48316 0.87007 0.28768 0.0
C118 C 0.49285 0.89169 0.22096 0.0
C119 C 0.51622 0.88176 0.15832 0.0
C120 C 0.53091 0.85009 0.1674 0.0
C121 C 0.52134 0.82847 0.23516 0.0
C122 C 0.44476 0.7846 0.29821 0.0
C123 C 0.42265 0.76253 0.33974 0.0
C124 C 0.40398 0.73872 0.29038 0.0
C125 C 0.40721 0.73665 0.1986 0.0
C126 C 0.42731 0.76064 0.15679 0.0
C127 C 0.44595 0.78434 0.20615 0.0
P128 P 0.29956 0.45057 0.08709 0.0
H129 H 0.2761 0.41775 0.92253 0.0
H130 H 0.23055 0.43308 0.82205 0.0
H131 H 0.23294 0.53321 0.93289 0.0
H132 H 0.27988 0.51818 0.0291 0.0
H133 H 0.34372 0.40529 0.17984 0.0
H134 H 0.39315 0.41639 0.27232 0.0
H135 H 0.40188 0.51545 0.16427 0.0
H136 H 0.35227 0.50358 0.06854 0.0
H137 H 0.23363 0.43951 0.1612 0.0
H138 H 0.31519 0.51157 0.19353 0.0
O139 O 0.28843 0.41016 0.09211 0.0
H140 H 0.19844 0.47539 0.25011 0.0
H141 H 0.28034 0.54748 0.27804 0.0
C142 C 0.28111 0.46645 0.98555 0.0
C143 C 0.26794 0.44345 0.92269 0.0
C144 C 0.2412 0.45214 0.86616 0.0
C145 C 0.2267 0.48404 0.87161 0.0
C146 C 0.24288 0.50828 0.92683 0.0
C147 C 0.27004 0.49965 0.98234 0.0
C148 C 0.34392 0.45369 0.11716 0.0
C149 C 0.35708 0.42884 0.17207 0.0
C150 C 0.38548 0.43529 0.22584 0.0
C151 C 0.40114 0.46703 0.22725 0.0
C152 C 0.39012 0.49082 0.16552 0.0
C153 C 0.36205 0.48392 0.10971 0.0
C154 C 0.27739 0.47228 0.17154 0.0
C155 C 0.24435 0.46246 0.18922 0.0
C156 C 0.22412 0.48327 0.23886 0.0
C157 C 0.23652 0.5145 0.2702 0.0
C158 C 0.27011 0.52343 0.25602 0.0
C159 C 0.29029 0.50256 0.20721 0.0
P160 P 0.09269 0.3061 0.09534 0.0
H161 H 0.11903 0.28112 0.9283 0.0
H162 H 0.10327 0.23183 0.83977 0.0
H163 H 1.01077 0.22268 0.98052 0.0
H164 H 0.02632 0.27279 0.06695 0.0
H165 H 0.13164 0.36428 0.15677 0.0
H166 H 0.11585 0.4116 0.24662 0.0
H167 H 1.0112 0.38969 0.18613 0.0
H168 H 0.02747 0.34167 0.0951 0.0
H169 H 0.10629 0.23723 0.14216 0.0
H170 H 0.0581 0.32154 0.26281 0.0
O171 O 0.13431 0.30566 0.08485 0.0
H172 H 0.0781 0.19989 0.24344 0.0
H173 H 0.02764 0.2847 0.35624 0.0
C174 C 0.07401 0.28098 1.00502 0.0
C175 C 0.09471 0.26942 0.938 0.0
C176 C 0.08589 0.2406 0.88823 0.0
C177 C 0.05612 0.22229 0.90422 0.0
C178 C 0.03391 0.2358 0.96574 0.0
C179 C 0.04268 0.26486 1.01509 0.0
C180 C 0.08085 0.34909 0.11856 0.0
C181 C 0.10529 0.3704 0.15877 0.0
C182 C 0.09616 0.39762 0.21124 0.0
C183 C 0.06218 0.40424 0.22582 0.0
C184 C 0.03765 0.38503 0.1779 0.0
C185 C 0.04692 0.35787 0.12411 0.0
C186 C 0.08311 0.28205 0.19125 0.0
C187 C 0.09014 0.24784 0.19114 0.0
C188 C 0.07351 0.22647 0.24812 0.0
C189 C 0.04924 0.23905 0.30509 0.0
C190 C 0.04564 0.27385 0.31253 0.0
C191 C 0.06281 0.29516 0.25698 0.0
P192 P 0.22802 0.07586 0.06908 0.0
H193 H 0.24327 0.07491 0.87996 0.0
H194 H 0.29426 0.05766 0.80629 0.0
H195 H 0.32571 1.0047 0.03839 0.0
H196 H 0.27389 0.02056 0.11071 0.0
H197 H 0.16349 0.10485 0.10863 0.0
H198 H 0.12255 0.09222 0.21929 0.0
H199 H 0.17077 0.99802 0.26899 0.0
H200 H 0.21271 0.01169 0.15894 0.0
H201 H 0.29654 0.10312 0.06438 0.0
H202 H 0.22437 0.0828 0.2646 0.0
O203 O 0.21637 0.10864 1.0093 0.0
H204 H 0.34167 0.08784 0.16485 0.0
H205 H 0.26953 0.06952 0.36729 0.0
C206 C 0.25431 0.04917 1.00149 0.0
C207 C 0.26009 0.0581 0.91377 0.0
C208 C 0.28959 0.04854 0.87174 0.0
C209 C 0.31433 0.03033 0.91701 0.0
C210 C 0.30722 0.01888 1.00187 0.0
C211 C 0.27719 0.02752 0.0428 0.0
C212 C 0.19114 0.05906 0.12359 0.0
C213 C 0.16467 0.08084 0.14064 0.0
C214 C 0.1411 0.07357 0.20503 0.0
C215 C 0.14322 0.04421 0.25508 0.0
C216 C 0.1685 0.02126 0.23364 0.0
C217 C 0.19225 0.02868 0.16906 0.0
C218 C 0.25705 0.09086 0.15431 0.0
C219 C 0.29045 0.09724 0.13157 0.0
C220 C 0.31644 0.08844 0.18959 0.0
C221 C 0.30886 0.07502 0.27205 0.0
C222 C 0.27587 0.0776 0.3019 0.0
C223 C 0.24991 0.08531 0.24286 0.0
P224 P 0.49086 0.24904 0.17515 0.0
H225 H 0.44706 0.25964 1.01915 0.0
H226 H 0.44898 0.30221 0.90386 0.0
H227 H 0.54933 0.33078 0.99234 0.0
H228 H 0.54723 0.28985 0.10489 0.0
H229 H 0.43509 0.21136 0.25071 0.0
H230 H 0.43694 0.15968 0.33278 0.0
H231 H 0.53189 0.13655 0.21798 0.0
H232 H 0.52939 0.18812 0.13299 0.0
H233 H 0.49739 0.27694 0.35379 0.0
H234 H 0.56295 0.23499 0.16096 0.0
O235 O 0.4585 0.269 0.21812 0.0
H236 H 0.54612 0.2942 0.44418 0.0
H237 H 0.6119 0.25329 0.25045 0.0
C238 C 0.49728 0.2701 0.07065 0.0
C239 C 0.47001 0.27408 1.01125 0.0
C240 C 0.47095 0.29891 0.94606 0.0
C241 C 0.49936 0.32018 0.93831 0.0
C242 C 0.52722 0.31466 0.99435 0.0
C243 C 0.52607 0.29041 0.05966 0.0
C244 C 0.48259 0.20448 0.18692 0.0
C245 C 0.45562 0.19459 0.23926 0.0
C246 C 0.45677 0.16489 0.28716 0.0
C247 C 0.4851 0.14447 0.28438 0.0
C248 C 0.51008 0.1522 0.22342 0.0
C249 C 0.50853 0.18168 0.17408 0.0
C250 C 0.52657 0.2561 0.24869 0.0
C251 C 0.52218 0.27092 0.3314 0.0
C252 C 0.55005 0.28022 0.38387 0.0
C253 C 0.58266 0.27508 0.35382 0.0
C254 C 0.58697 0.25727 0.27506 0.0
C255 C 0.55898 0.24713 0.22376 0.0
Eu256 Eu 0.98665 0.03052 0.657 0.0
Eu257 Eu 0.05285 1.01001 0.7718 0.0
C258 C 0.03196 0.08653 0.76097 0.0
C259 C 0.9324 0.08927 0.54307 0.0
C260 C 0.94725 0.11482 0.59587 0.0
C261 C 0.93457 0.12581 0.41753 0.0
C262 C 0.95858 0.14429 0.55812 0.0
C263 C 0.92408 0.09583 0.45509 0.0
C264 C 0.95454 0.14902 0.46705 0.0
C265 C 0.93515 0.05452 0.57209 0.0
O266 O 1.00965 0.01096 0.86794 0.0
O267 O 0.96605 1.00137 0.76999 0.0
C268 C 0.97778 1.00332 0.85129 0.0
O269 O 0.99514 0.97704 0.61434 0.0
O270 O 0.08545 0.02092 0.88624 0.0
O271 O 0.09827 0.98131 0.79546 0.0
O272 O 0.02969 0.95985 0.72816 0.0
C273 C 1.01098 0.95327 0.65683 0.0
O274 O 0.03039 0.04507 0.57059 0.0
O275 O 0.07121 0.01247 0.63239 0.0
O276 O 0.05717 0.06611 0.75364 0.0
O277 O 0.95866 0.03787 0.53361 0.0
O278 O 0.93583 0.0502 0.65698 0.0
O279 O 1.00127 0.07555 0.74345 0.0
C280 C 0.11517 0.9752 0.94337 0.0
C281 C 0.09093 0.9641 1.00209 0.0
C282 C 0.15672 0.94079 1.01644 0.0
C283 C 0.09942 0.94106 0.06676 0.0
C284 C 0.14826 0.96409 0.95217 0.0
C285 C 0.13218 0.92851 0.07306 0.0
C286 C 0.10591 0.99667 0.86955 0.0
C287 C 0.05978 0.03048 0.56676 0.0
H288 H 0.95357 0.11064 0.6644 0.0
H289 H 0.92968 0.12933 0.3479 0.0
H290 H 0.97356 0.16144 0.59913 0.0
H291 H 0.91258 0.0766 0.41331 0.0
H292 H 0.0652 0.97233 0.99597 0.0
H293 H 0.18213 0.93158 1.02013 0.0
H294 H 0.07984 0.93164 0.10852 0.0
H295 H 0.16728 0.97258 0.9074 0.0
Eu296 Eu 0.52755 0.04428 0.77771 0.0
Eu297 Eu 0.50358 0.98015 0.65495 0.0
C298 C 0.5254 0.96887 0.8554 0.0
C299 C 0.57693 0.1161 0.89211 0.0
C300 C 0.58203 0.13142 0.97467 0.0
C301 C 0.63502 0.12805 0.85792 0.0
C302 C 0.61391 0.14326 1.00084 0.0
C303 C 0.60314 0.11575 0.83225 0.0
C304 C 0.64128 0.14001 0.94452 0.0
C305 C 0.54658 0.09546 0.87674 0.0
O306 O 0.45673 0.99211 0.73054 0.0
O307 O 0.47069 0.0443 0.78721 0.0
C308 C 0.44873 0.01967 0.77279 0.0
O309 O 0.52758 0.06125 0.63634 0.0
O310 O 0.47587 0.9331 0.63016 0.0
O311 O 0.50525 0.95489 0.52736 0.0
O312 O 0.48516 0.02672 0.58668 0.0
C313 C 0.50404 0.05359 0.57732 0.0
O314 O 0.57716 0.02476 0.72887 0.0
O315 O 0.55724 0.99063 0.61577 0.0
O316 O 0.52731 0.95659 0.77515 0.0
O317 O 0.53045 0.09841 0.80155 0.0
O318 O 0.54959 0.06432 0.89974 0.0
O319 O 0.5196 1.00076 0.86906 0.0
C320 C 0.45007 0.93878 0.48924 0.0
C321 C 0.41867 0.94222 0.52852 0.0
C322 C 0.42856 0.96759 0.36048 0.0
C323 C 0.39344 0.96035 0.48685 0.0
C324 C 0.45379 0.94934 0.40209 0.0
C325 C 0.39906 0.975 0.40494 0.0
C326 C 0.48043 0.93461 0.54548 0.0
C327 C 0.58213 1.00677 0.65717 0.0
H328 H 0.56202 0.13176 1.02172 0.0
H329 H 0.65526 0.1259 0.81205 0.0
H330 H 0.6175 0.15198 0.06817 0.0
H331 H 0.59957 0.10394 0.76807 0.0
H332 H 0.41471 0.93408 0.59523 0.0
H333 H 0.43306 0.9778 0.29605 0.0
H334 H 0.3708 0.96538 0.5224 0.0
H335 H 0.47757 0.94673 0.36981 0.0
Eu336 Eu 0.48057 0.52172 0.74821 0.0
Eu337 Eu 0.54994 0.50385 0.65299 0.0
C338 C 0.55218 0.53019 0.84929 0.0
C339 C 0.41233 0.56637 0.87365 0.0
C340 C 0.42184 0.599 0.85055 0.0
C341 C 0.38278 0.58861 0.99864 0.0
C342 C 0.41214 0.62621 0.90159 0.0
C343 C 0.39229 0.56137 0.94696 0.0
C344 C 0.39309 0.62126 0.97714 0.0
C345 C 0.42479 0.53735 0.82514 0.0
O346 O 0.53683 0.45883 0.736 0.0
O347 O 0.48003 0.46516 0.74176 0.0
C348 C 0.50675 0.44667 0.75235 0.0
O349 O 0.46825 0.51697 0.60226 0.0
O350 O 0.60332 0.4941 0.66897 0.0
O351 O 0.58053 0.49433 0.53831 0.0
O352 O 0.50941 0.48111 0.56293 0.0
C353 C 0.4808 0.49579 0.54563 0.0
O354 O 0.50496 0.57196 0.71837 0.0
O355 O 0.53498 0.55433 0.60037 0.0
O356 O 0.56439 0.53568 0.77155 0.0
O357 O 0.42993 0.54145 0.74165 0.0
O358 O 0.44899 0.52117 0.86378 0.0
O359 O 0.52109 0.51915 0.85584 0.0
C360 C 0.62028 0.45336 0.56856 0.0
C361 C 0.60848 0.42579 0.61535 0.0
C362 C 0.65085 0.416 0.47425 0.0
C363 C 0.6165 0.39347 0.58943 0.0
C364 C 0.6421 0.44844 0.49939 0.0
C365 C 0.63681 0.38794 0.51617 0.0
C366 C 0.60683 0.48656 0.58614 0.0
C367 C 0.52077 0.57837 0.64522 0.0
H368 H 0.43762 0.60341 0.79467 0.0
H369 H 0.36813 0.58409 0.05654 0.0
H370 H 0.42106 0.65099 0.88439 0.0
H371 H 0.38484 0.53631 0.96556 0.0
H372 H 0.59139 0.42914 0.66884 0.0
H373 H 0.66703 0.41293 0.41877 0.0
H374 H 0.6044 0.37302 0.62306 0.0
H375 H 0.65096 0.46966 0.46243 0.0
Eu376 Eu 0.03447 0.55659 0.64383 0.0
Eu377 Eu 1.01377 0.48753 0.73953 0.0
C378 C 0.09127 0.5097 0.73342 0.0
C379 C 0.08788 0.61824 0.53342 0.0
C380 C 0.11734 0.60883 0.5788 0.0
C381 C 0.11796 0.61789 0.39707 0.0
C382 C 0.14604 0.60148 0.53255 0.0
C383 C 0.08908 0.62494 0.44337 0.0
C384 C 0.14574 0.60361 0.44037 0.0
C385 C 0.05511 0.61175 0.57246 0.0
O386 O 0.02153 0.52769 0.84629 0.0
O387 O 1.00605 0.57193 0.76356 0.0
C388 C 1.01181 0.55889 0.84088 0.0
O389 O 0.98141 0.54523 0.59569 0.0
O390 O 1.01327 0.45723 0.85834 0.0
O391 O 0.99289 0.43677 0.73579 0.0
O392 O 0.96393 0.51164 0.7075 0.0
C393 C 0.95731 0.52992 0.63788 0.0
O394 O 0.05151 0.516 0.54983 0.0
O395 O 0.01565 0.47458 0.59422 0.0
O396 O 0.06985 0.48443 0.72642 0.0
O397 O 0.03665 0.5892 0.53025 0.0
O398 O 0.05528 0.6073 0.65738 0.0
O399 O 0.08151 0.54049 0.71901 0.0
C400 C 0.96677 0.42059 0.86604 0.0
C401 C 0.93472 0.43132 0.84017 0.0
C402 C 0.94244 0.39071 0.98771 0.0
C403 C 0.90678 0.42209 0.88815 0.0
C404 C 0.97045 0.39981 0.93916 0.0
C405 C 0.91039 0.40221 0.96338 0.0
C406 C 0.99655 0.43255 0.82025 0.0
C407 C 0.03592 0.48705 0.53555 0.0
H408 H 0.11726 0.60353 0.6485 0.0
H409 H 0.11738 0.62053 0.32626 0.0
H410 H 0.16694 0.59059 0.56828 0.0
H411 H 0.06656 0.63206 0.40741 0.0
H412 H 0.93139 0.44767 0.7844 0.0
H413 H 0.94595 0.37538 0.0454 0.0
H414 H 0.88257 0.43197 0.86882 0.0
H415 H 0.99507 0.39139 0.96007 0.0
C416 C 0.1333 0.02392 0.41027 0.0
C417 C 0.12095 0.03919 0.33316 0.0
H418 H 0.12427 1.00946 0.54302 0.0
C419 C 0.08787 0.05139 0.33388 0.0
H420 H 0.1587 0.01475 0.41393 0.0
C421 C 0.06814 0.04887 0.40925 0.0
C422 C 0.08071 0.03386 0.48635 0.0
H423 H 0.07701 0.0629 0.27596 0.0
H424 H 0.04292 0.05859 0.4068 0.0
C425 C 0.11353 0.02122 0.48527 0.0
C426 C 0.52138 0.11772 0.40045 0.0
C427 C 0.49057 0.11853 0.35325 0.0
H428 H 0.54956 0.09716 0.50822 0.0
C429 C 0.4644 0.09687 0.37882 0.0
H430 H 0.5419 0.13443 0.38375 0.0
C431 C 0.46889 0.07521 0.45023 0.0
C432 C 0.4994 0.07526 0.49897 0.0
H433 H 0.44031 0.09698 0.34419 0.0
H434 H 0.44817 0.05912 0.46887 0.0
C435 C 0.52565 0.0966 0.47264 0.0
C436 C 0.41963 0.50549 0.35168 0.0
C437 C 0.42491 0.47634 0.30155 0.0
H438 H 0.43263 0.53415 0.4679 0.0
C439 C 0.45008 0.45433 0.33016 0.0
H440 H 0.40014 0.52271 0.33248 0.0
C441 C 0.4689 0.46095 0.40806 0.0
C442 C 0.46252 0.48939 0.46011 0.0
H443 H 0.45473 0.43162 0.29316 0.0
H444 H 0.48771 0.44326 0.42887 0.0
C445 C 0.438 0.5118 0.43012 0.0
C446 C 0.07159 0.45764 0.31664 0.0
C447 C 0.05296 0.42785 0.29884 0.0
H448 H 0.08091 0.49968 0.40402 0.0
C449 C 0.02765 0.41888 0.35757 0.0
H450 H 0.09116 0.46556 0.27287 0.0
C451 C 0.02194 0.43833 0.43306 0.0
C452 C 0.04119 0.46755 0.45229 0.0
H453 H 1.01312 0.39595 0.34736 0.0
H454 H 1.00268 0.43001 0.47729 0.0
C455 C 0.0657 0.47727 0.39204 0.0
C456 C 0.94206 0.9935 0.08136 0.0
C457 C 0.90736 0.99881 0.06625 0.0
H458 H 0.99133 0.99098 0.02685 0.0
C459 C 0.89632 1.00342 0.97837 0.0
H460 H 0.95191 0.98901 0.14702 0.0
C461 C 0.919 1.00354 0.90909 0.0
C462 C 0.95369 0.9997 0.92494 0.0
H463 H 0.87024 1.0083 0.96267 0.0
H464 H 0.90934 1.00802 0.84311 0.0
C465 C 0.96486 0.99433 1.01203 0.0
C466 C 0.52478 0.89015 0.99542 0.0
C467 C 0.52304 0.90368 0.08121 0.0
H468 H 0.52689 0.89987 0.85698 0.0
C469 C 0.52494 0.9387 0.0918 0.0
H470 H 0.52308 0.86334 0.98444 0.0
C471 C 0.52688 0.95962 1.01879 0.0
C472 C 0.52706 0.9462 0.93274 0.0
H473 H 0.52427 0.95008 0.15676 0.0
H474 H 0.52745 0.98644 0.02998 0.0
C475 C 0.52678 0.91115 0.92211 0.0
C476 C 0.63204 0.53771 0.99183 0.0
C477 C 0.62082 0.52791 0.07488 0.0
H478 H 0.61942 0.54638 0.85635 0.0
C479 C 0.58608 0.52211 0.08458 0.0
H480 H 0.65852 0.54206 0.9811 0.0
C481 C 0.56355 0.5243 1.01246 0.0
C482 C 0.57507 0.53248 0.92856 0.0
H483 H 0.57631 0.51511 0.14772 0.0
H484 H 0.53724 0.51854 1.02203 0.0
C485 C 0.60951 0.54 0.91981 0.0
C486 C 0.0262 0.59154 0.07588 0.0
C487 C 0.01646 0.6252 0.06953 0.0
H488 H 0.03203 0.54426 1.01007 0.0
C489 C 1.00239 0.6359 0.98909 0.0
H490 H 0.03675 0.58223 0.13704 0.0
C491 C 0.99977 0.61406 0.91592 0.0
C492 C 1.01086 0.5808 0.92131 0.0
H493 H 0.99482 0.66162 0.98139 0.0
H494 H 0.98991 0.62361 0.8543 0.0
C495 C 0.02335 0.56965 1.003 0.0
C496 C 1.01381 0.18682 0.30386 0.0
C497 C 0.02508 0.21617 0.34792 0.0
H498 H 0.98345 0.14267 0.30673 0.0
C499 C 1.01106 0.22453 0.42915 0.0
H500 H 0.02313 0.17996 0.23995 0.0
C501 C 0.98652 0.20393 0.46543 0.0
C502 C 0.97609 0.17398 0.42258 0.0
H503 H 0.01916 0.24686 0.46534 0.0
H504 H 0.9762 0.21127 0.52782 0.0
C505 C 0.99001 0.16584 0.34111 0.0
C506 C 0.36726 0.05635 0.31203 0.0
C507 C 0.33231 0.05141 0.31488 0.0
H508 H 0.41573 0.03564 0.33657 0.0
C509 C 0.31961 0.02099 0.34765 0.0
H510 H 0.3779 0.07941 0.28734 0.0
C511 C 0.34122 0.99609 0.37597 0.0
C512 C 0.37605 1.00077 0.37134 0.0
H513 H 0.29287 0.01567 0.34818 0.0
H514 H 0.33063 0.97284 0.39974 0.0
C515 C 0.3889 0.03119 0.33954 0.0
C516 C 0.61634 0.29659 0.48342 0.0
C517 C 0.61018 0.29596 0.39228 0.0
H518 H 0.63296 0.32584 0.59508 0.0
C519 C 0.62284 0.32201 0.34116 0.0
H520 H 0.60713 0.27644 0.52387 0.0
C521 C 0.63591 0.35099 0.38169 0.0
C522 C 0.63714 0.35401 0.47417 0.0
H523 H 0.61838 0.322 0.27052 0.0
H524 H 0.64093 0.37213 0.33998 0.0
C525 C 0.63058 0.32519 0.52399 0.0
C526 C 0.18105 0.54225 0.2786 0.0
C527 C 0.21401 0.5388 0.31158 0.0
H528 H 0.13376 0.5653 0.29325 0.0
C529 C 0.22548 0.55944 0.38204 0.0
H530 H 0.1717 0.52736 0.22292 0.0
C531 C 0.20401 0.58231 0.42049 0.0
C532 C 0.17057 0.58468 0.38989 0.0
H533 H 0.25078 0.5574 0.40893 0.0
H534 H 0.21332 0.59743 0.47578 0.0
C535 C 0.15953 0.56474 0.31759 0.0
C536 C 0.12456 0.86806 0.25982 0.0
C537 C 0.13595 0.83854 0.22007 0.0
H538 H 0.11489 0.92024 0.24434 0.0
C539 C 0.15204 0.84052 0.1391 0.0
H540 H 0.11183 0.86728 0.32194 0.0
C541 C 0.15362 0.87082 0.09455 0.0
C542 C 0.13896 0.89956 0.13015 0.0
H543 H 0.16122 0.81816 0.10741 0.0
H544 H 0.16372 0.87102 0.02906 0.0
C545 C 0.12598 0.89831 0.21508 0.0
C546 C 0.72804 0.11266 1.01107 0.0
C547 C 0.73374 0.13139 0.08893 0.0
H548 H 0.69433 0.10056 0.90445 0.0
C549 C 0.71267 0.15831 0.10711 0.0
H550 H 0.74368 0.09161 0.99533 0.0
C551 C 0.68427 0.16391 0.05365 0.0
C552 C 0.67616 0.14227 0.98213 0.0
H553 H 0.71686 0.17356 0.16589 0.0
H554 H 0.6674 0.18359 0.0723 0.0
C555 C 0.69953 0.11794 0.95844 0.0
C556 C 0.38317 0.70976 0.06031 0.0
C557 C 0.3946 0.70682 0.14807 0.0
H558 H 0.3731 0.68458 0.93702 0.0
C559 C 0.3994 0.67471 0.18251 0.0
H560 H 0.37864 0.73413 0.03239 0.0
C561 C 0.39604 0.64642 0.12814 0.0
C562 C 0.38795 0.64972 0.03828 0.0
H563 H 0.40853 0.67151 0.24953 0.0
H564 H 0.40254 0.62232 0.15495 0.0
C565 C 0.37998 0.68145 1.00579 0.0
C566 C 0.85711 0.40743 0.16386 0.0
C567 C 0.82462 0.40474 0.12584 0.0
H568 H 0.90986 0.40868 0.1418 0.0
C569 C 0.82084 0.39505 0.03693 0.0
H570 H 0.86092 0.41518 0.23195 0.0
C571 C 0.84901 0.3914 0.98506 0.0
C572 C 0.88141 0.39735 1.02129 0.0
H573 H 0.79609 0.39223 1.00629 0.0
H574 H 0.84538 0.38581 0.91553 0.0
C575 C 0.88525 0.40374 0.11206 0.0
C576 C 0.01703 0.17649 0.83982 0.0
C577 C 0.04976 0.18817 0.86249 0.0
H578 H 0.98571 0.13587 0.79032 0.0
C579 C 0.07653 0.16618 0.84872 0.0
H580 H 0.9957 0.19252 0.84845 0.0
C581 C 0.0708 0.13367 0.8146 0.0
C582 C 0.03808 0.12187 0.79313 0.0
H583 H 0.10207 0.17366 0.8667 0.0
H584 H 0.09213 0.11757 0.80648 0.0
C585 C 1.0113 0.1439 0.80571 0.0
C586 C 0.35374 1.00897 0.80104 0.0
C587 C 0.34866 0.02671 0.88001 0.0
H588 H 0.38925 0.99223 0.7061 0.0
C589 C 0.37663 0.0424 0.92246 0.0
H590 H 0.33268 0.99679 0.76653 0.0
C591 C 0.40878 0.04072 0.88659 0.0
C592 C 0.41409 0.02254 0.80836 0.0
H593 H 0.37349 0.0565 0.98297 0.0
H594 H 0.42965 0.05321 0.92112 0.0
C595 C 0.38614 1.00643 0.76643 0.0
C596 C 0.52919 0.36042 0.83804 0.0
C597 C 0.49948 0.35002 0.87897 0.0
H598 H 0.55481 0.39854 0.76665 0.0
C599 C 0.47114 0.37047 0.8704 0.0
H600 H 0.5514 0.34519 0.84154 0.0
C601 C 0.47304 0.40116 0.82629 0.0
C602 C 0.50335 0.41234 0.78979 0.0
H603 H 0.4479 0.36362 0.90157 0.0
H604 H 0.45106 0.41674 0.82401 0.0
C605 C 0.53114 0.39112 0.79458 0.0
C606 C 0.18412 0.52261 0.79883 0.0
C607 C 0.19301 0.49055 0.82846 0.0
H608 H 0.14544 0.55388 0.74538 0.0
C609 C 0.16831 0.46486 0.82259 0.0
H610 H 0.20233 0.54304 0.8012 0.0
C611 C 0.13586 0.47102 0.78983 0.0
C612 C 0.12671 0.50317 0.7624 0.0
H613 H 0.17353 0.44002 0.84638 0.0
H614 H 0.11764 0.45057 0.78835 0.0
C615 C 0.15142 0.52883 0.76639 0.0
C616 C 0.98866 0.87859 0.50555 0.0
C617 C 1.00856 0.85301 0.54099 0.0
H618 H 0.97349 0.92969 0.51406 0.0
C619 C 0.02793 0.86044 0.61802 0.0
H620 H 0.97308 0.87394 0.44716 0.0
C621 C 0.02799 0.89251 0.65702 0.0
C622 C 1.00877 0.91827 0.62019 0.0
H623 H 0.04408 0.8418 0.64683 0.0
H624 H 0.04386 0.8973 0.71485 0.0
C625 C 0.98877 0.91067 0.54448 0.0
C626 C 0.67418 0.02754 0.60927 0.0
C627 C 0.67992 1.00797 0.53323 0.0
H628 H 0.63951 0.04257 0.7078 0.0
C629 C 0.65344 0.98698 0.50131 0.0
H630 H 0.69351 0.0445 0.63556 0.0
C631 C 0.62225 0.98606 0.54272 0.0
C632 C 0.61636 1.00605 0.61772 0.0
H633 H 0.65671 0.97113 0.44401 0.0
H634 H 0.60257 0.96982 0.51497 0.0
C635 C 0.64297 0.02657 0.65082 0.0
C636 C 0.52015 0.67352 0.63071 0.0
C637 C 0.51889 0.6787 0.53881 0.0
H638 H 0.52103 0.63813 0.73621 0.0
C639 C 0.51952 0.65011 0.48338 0.0
H640 H 0.52064 0.69443 0.67658 0.0
C641 C 0.5211 0.61784 0.51824 0.0
C642 C 0.52113 0.6129 0.60957 0.0
H643 H 0.51771 0.65227 0.4126 0.0
H644 H 0.52109 0.5966 0.47326 0.0
C645 C 0.52068 0.6411 0.66545 0.0
C646 C 0.86372 0.51247 0.59895 0.0
C647 C 0.85645 0.53189 0.52423 0.0
H648 H 0.90084 0.49662 0.69345 0.0
C649 C 0.88228 0.55221 0.49108 0.0
H650 H 0.84475 0.49605 0.62578 0.0
C651 C 0.91463 0.55228 0.5296 0.0
C652 C 0.92213 0.53205 0.60251 0.0
H653 H 0.87764 0.56785 0.43454 0.0
H654 H 0.93394 0.5678 0.50093 0.0
C655 C 0.89607 0.51259 0.63762 0.0
loop_
_geom_bond_atom_site_label_1
_geom_bond_atom_site_label_2
_geom_bond_distance
_geom_bond_site_symmetry_2
_ccdc_geom_bond_type
P0 O11 1.490 . S
P0 C14 1.812 . S
P0 C20 1.803 . S
P0 C26 1.819 . S
H1 C15 0.941 . S
H2 C16 0.939 . S
H3 C18 0.940 . S
H4 C19 0.940 . S
H5 C21 0.939 . S
H6 C22 0.942 . S
H7 C24 0.940 . S
H8 C25 0.939 . S
H9 C27 0.941 . S
H10 C31 0.939 . S
O11 P0 1.490 . S
H12 C28 0.939 . S
H13 C30 0.940 . S
C14 P0 1.812 . S
C14 C15 1.389 . S
C14 C19 1.391 . S
C15 H1 0.941 . S
C15 C14 1.389 . S
C15 C16 1.397 . S
C16 H2 0.939 . S
C16 C15 1.397 . S
C16 C17 1.378 . S
C17 C16 1.378 . S
C17 C18 1.378 . S
C18 H3 0.940 . S
C18 C17 1.378 . S
C18 C19 1.396 . S
C19 H4 0.940 . S
C19 C14 1.391 . S
C19 C18 1.396 . S
C20 P0 1.803 . S
C20 C21 1.378 . S
C20 C25 1.400 . S
C21 H5 0.939 . S
C21 C20 1.378 . S
C21 C22 1.361 . S
C22 H6 0.942 . S
C22 C21 1.361 . S
C22 C23 1.369 . S
C23 C22 1.369 . S
C23 C24 1.404 . S
C24 H7 0.940 . S
C24 C23 1.404 . S
C24 C25 1.389 . S
C25 H8 0.939 . S
C25 C20 1.400 . S
C25 C24 1.389 . S
C26 P0 1.819 . S
C26 C27 1.391 . S
C26 C31 1.391 . S
C27 H9 0.941 . S
C27 C26 1.391 . S
C27 C28 1.396 . S
C28 H12 0.939 . S
C28 C27 1.396 . S
C28 C29 1.397 . S
C29 C28 1.397 . S
C29 C30 1.385 . S
C30 H13 0.940 . S
C30 C29 1.385 . S
C30 C31 1.388 . S
C31 H10 0.939 . S
C31 C26 1.391 . S
C31 C30 1.388 . S
P32 O43 1.490 . S
P32 C46 1.812 1_455 S
P32 C52 1.803 1_455 S
P32 C58 1.819 1_455 S
H33 C47 0.941 . S
H34 C48 0.938 . S
H35 C50 0.940 . S
H36 C51 0.940 . S
H37 C53 0.939 . S
H38 C54 0.942 . S
H39 C56 0.940 . S
H40 C57 0.939 . S
H41 C59 0.941 . S
H42 C63 0.939 . S
O43 P32 1.490 . S
H44 C60 0.939 1_455 S
H45 C62 0.940 . S
C46 P32 1.812 1_655 S
C46 C47 1.389 1_655 S
C46 C51 1.391 . S
C47 H33 0.941 . S
C47 C46 1.389 1_455 S
C47 C48 1.395 . S
C48 H34 0.938 . S
C48 C47 1.395 . S
C48 C49 1.381 1_455 S
C49 C48 1.381 1_655 S
C49 C50 1.378 . S
C50 H35 0.940 . S
C50 C49 1.378 . S
C50 C51 1.396 . S
C51 H36 0.940 . S
C51 C46 1.391 . S
C51 C50 1.396 . S
C52 P32 1.803 1_655 S
C52 C53 1.378 1_655 S
C52 C57 1.400 . S
C53 H37 0.939 . S
C53 C52 1.378 1_455 S
C53 C54 1.361 . S
C54 H38 0.942 . S
C54 C53 1.361 . S
C54 C55 1.369 1_455 S
C55 C54 1.369 1_655 S
C55 C56 1.404 . S
C56 H39 0.940 . S
C56 C55 1.404 . S
C56 C57 1.389 . S
C57 H40 0.939 . S
C57 C52 1.400 . S
C57 C56 1.389 . S
C58 P32 1.819 1_655 S
C58 C59 1.391 1_655 S
C58 C63 1.391 . S
C59 H41 0.941 . S
C59 C58 1.391 1_455 S
C59 C60 1.396 1_455 S
C60 H44 0.939 1_655 S
C60 C59 1.396 1_655 S
C60 C61 1.397 . S
C61 C60 1.397 . S
C61 C62 1.385 . S
C62 H45 0.940 . S
C62 C61 1.385 . S
C62 C63 1.388 . S
C63 H42 0.939 . S
C63 C58 1.391 . S
C63 C62 1.388 . S
P64 O75 1.490 . S
P64 C78 1.812 . S
P64 C84 1.803 . S
P64 C90 1.819 . S
H65 C79 0.941 . S
H66 C80 0.939 . S
H67 C82 0.940 . S
H68 C83 0.940 . S
H69 C85 0.939 . S
H70 C86 0.942 . S
H71 C88 0.940 . S
H72 C89 0.939 . S
H73 C91 0.941 . S
H74 C95 0.939 . S
O75 P64 1.490 . S
H76 C92 0.939 . S
H77 C94 0.940 . S
C78 P64 1.812 . S
C78 C79 1.389 . S
C78 C83 1.391 1_545 S
C79 H65 0.941 . S
C79 C78 1.389 . S
C79 C80 1.397 . S
C80 H66 0.939 . S
C80 C79 1.397 . S
C80 C81 1.378 1_545 S
C81 C80 1.378 1_565 S
C81 C82 1.378 . S
C82 H67 0.940 . S
C82 C81 1.378 . S
C82 C83 1.396 . S
C83 H68 0.940 . S
C83 C78 1.391 1_565 S
C83 C82 1.396 . S
C84 P64 1.803 . S
C84 C85 1.378 . S
C84 C89 1.400 1_545 S
C85 H69 0.939 . S
C85 C84 1.378 . S
C85 C86 1.361 . S
C86 H70 0.942 . S
C86 C85 1.361 . S
C86 C87 1.369 1_545 S
C87 C86 1.369 1_565 S
C87 C88 1.404 . S
C88 H71 0.940 . S
C88 C87 1.404 . S
C88 C89 1.389 . S
C89 H72 0.939 . S
C89 C84 1.400 1_565 S
C89 C88 1.389 . S
C90 P64 1.819 . S
C90 C91 1.391 . S
C90 C95 1.391 1_545 S
C91 H73 0.941 . S
C91 C90 1.391 . S
C91 C92 1.396 . S
C92 H76 0.939 . S
C92 C91 1.396 . S
C92 C93 1.397 1_545 S
C93 C92 1.397 1_565 S
C93 C94 1.385 . S
C94 H77 0.940 . S
C94 C93 1.385 . S
C94 C95 1.388 . S
C95 H74 0.939 . S
C95 C90 1.391 1_565 S
C95 C94 1.388 . S
P96 O107 1.490 . S
P96 C110 1.812 . S
P96 C116 1.803 . S
P96 C122 1.819 . S
H97 C111 0.941 . S
H98 C112 0.939 . S
H99 C114 0.940 . S
H100 C115 0.940 . S
H101 C117 0.939 . S
H102 C118 0.942 . S
H103 C120 0.940 . S
H104 C121 0.939 . S
H105 C123 0.941 . S
H106 C127 0.939 . S
O107 P96 1.490 . S
H108 C124 0.939 . S
H109 C126 0.940 . S
C110 P96 1.812 . S
C110 C111 1.389 . S
C110 C115 1.391 . S
C111 H97 0.941 . S
C111 C110 1.389 . S
C111 C112 1.397 . S
C112 H98 0.939 . S
C112 C111 1.397 . S
C112 C113 1.378 . S
C113 C112 1.378 . S
C113 C114 1.378 . S
C114 H99 0.940 . S
C114 C113 1.378 . S
C114 C115 1.396 . S
C115 H100 0.940 . S
C115 C110 1.391 . S
C115 C114 1.396 . S
C116 P96 1.803 . S
C116 C117 1.378 . S
C116 C121 1.400 . S
C117 H101 0.939 . S
C117 C116 1.378 . S
C117 C118 1.361 . S
C118 H102 0.942 . S
C118 C117 1.361 . S
C118 C119 1.369 . S
C119 C118 1.369 . S
C119 C120 1.404 . S
C120 H103 0.940 . S
C120 C119 1.404 . S
C120 C121 1.389 . S
C121 H104 0.939 . S
C121 C116 1.400 . S
C121 C120 1.389 . S
C122 P96 1.819 . S
C122 C123 1.391 . S
C122 C127 1.391 . S
C123 H105 0.941 . S
C123 C122 1.391 . S
C123 C124 1.396 . S
C124 H108 0.939 . S
C124 C123 1.396 . S
C124 C125 1.397 . S
C125 C124 1.397 . S
C125 C126 1.385 . S
C126 H109 0.940 . S
C126 C125 1.385 . S
C126 C127 1.388 . S
C127 H106 0.939 . S
C127 C122 1.391 . S
C127 C126 1.388 . S
P128 O139 1.490 . S
P128 C142 1.812 1_554 S
P128 C148 1.803 . S
P128 C154 1.819 . S
H129 C143 0.941 . S
H130 C144 0.939 . S
H131 C146 0.940 . S
H132 C147 0.940 1_554 S
H133 C149 0.939 . S
H134 C150 0.942 . S
H135 C152 0.940 . S
H136 C153 0.939 . S
H137 C155 0.941 . S
H138 C159 0.939 . S
O139 P128 1.490 . S
H140 C156 0.939 . S
H141 C158 0.940 . S
C142 P128 1.812 1_556 S
C142 C143 1.389 . S
C142 C147 1.391 . S
C143 H129 0.941 . S
C143 C142 1.389 . S
C143 C144 1.397 . S
C144 H130 0.939 . S
C144 C143 1.397 . S
C144 C145 1.378 . S
C145 C144 1.378 . S
C145 C146 1.378 . S
C146 H131 0.940 . S
C146 C145 1.378 . S
C146 C147 1.396 . S
C147 H132 0.940 1_556 S
C147 C142 1.391 . S
C147 C146 1.396 . S
C148 P128 1.803 . S
C148 C149 1.378 . S
C148 C153 1.400 . S
C149 H133 0.939 . S
C149 C148 1.378 . S
C149 C150 1.361 . S
C150 H134 0.942 . S
C150 C149 1.361 . S
C150 C151 1.369 . S
C151 C150 1.369 . S
C151 C152 1.404 . S
C152 H135 0.940 . S
C152 C151 1.404 . S
C152 C153 1.389 . S
C153 H136 0.939 . S
C153 C148 1.400 . S
C153 C152 1.389 . S
C154 P128 1.819 . S
C154 C155 1.391 . S
C154 C159 1.391 . S
C155 H137 0.941 . S
C155 C154 1.391 . S
C155 C156 1.396 . S
C156 H140 0.939 . S
C156 C155 1.396 . S
C156 C157 1.397 . S
C157 C156 1.397 . S
C157 C158 1.385 . S
C158 H141 0.940 . S
C158 C157 1.385 . S
C158 C159 1.388 . S
C159 H138 0.939 . S
C159 C154 1.391 . S
C159 C158 1.388 . S
P160 O171 1.490 . S
P160 C174 1.812 1_554 S
P160 C180 1.803 . S
P160 C186 1.819 . S
H161 C175 0.941 . S
H162 C176 0.939 . S
H163 C178 0.940 . S
H164 C179 0.940 . S
H165 C181 0.939 . S
H166 C182 0.942 . S
H167 C184 0.940 . S
H168 C185 0.939 1_556 S
H169 C187 0.941 . S
H170 C191 0.939 . S
O171 P160 1.490 . S
H172 C188 0.939 . S
H173 C190 0.940 . S
C174 P160 1.812 1_556 S
C174 C175 1.389 . S
C174 C179 1.391 . S
C175 H161 0.941 . S
C175 C174 1.389 . S
C175 C176 1.397 . S
C176 H162 0.939 . S
C176 C175 1.397 . S
C176 C177 1.378 . S
C177 C176 1.378 . S
C177 C178 1.378 . S
C178 H163 0.940 . S
C178 C177 1.378 . S
C178 C179 1.396 . S
C179 H164 0.940 . S
C179 C174 1.391 . S
C179 C178 1.396 . S
C180 P160 1.803 . S
C180 C181 1.378 . S
C180 C185 1.400 . S
C181 H165 0.939 . S
C181 C180 1.378 . S
C181 C182 1.361 . S
C182 H166 0.942 . S
C182 C181 1.361 . S
C182 C183 1.369 . S
C183 C182 1.369 . S
C183 C184 1.404 . S
C184 H167 0.940 . S
C184 C183 1.404 . S
C184 C185 1.389 . S
C185 H168 0.939 1_554 S
C185 C180 1.400 . S
C185 C184 1.389 . S
C186 P160 1.819 . S
C186 C187 1.391 . S
C186 C191 1.391 . S
C187 H169 0.941 . S
C187 C186 1.391 . S
C187 C188 1.396 . S
C188 H172 0.939 . S
C188 C187 1.396 . S
C188 C189 1.397 . S
C189 C188 1.397 . S
C189 C190 1.385 . S
C190 H173 0.940 . S
C190 C189 1.385 . S
C190 C191 1.388 . S
C191 H170 0.939 . S
C191 C186 1.391 . S
C191 C190 1.388 . S
P192 O203 1.490 . S
P192 C206 1.812 1_554 S
P192 C212 1.803 . S
P192 C218 1.819 . S
H193 C207 0.941 . S
H194 C208 0.939 . S
H195 C210 0.940 . S
H196 C211 0.940 . S
H197 C213 0.939 . S
H198 C214 0.942 . S
H199 C216 0.940 . S
H200 C217 0.939 1_556 S
H201 C219 0.941 . S
H202 C223 0.939 . S
O203 P192 1.490 . S
H204 C220 0.939 . S
H205 C222 0.940 . S
C206 P192 1.812 1_556 S
C206 C207 1.389 . S
C206 C211 1.391 . S
C207 H193 0.941 . S
C207 C206 1.389 . S
C207 C208 1.397 . S
C208 H194 0.939 . S
C208 C207 1.397 . S
C208 C209 1.378 . S
C209 C208 1.378 . S
C209 C210 1.378 . S
C210 H195 0.940 . S
C210 C209 1.378 . S
C210 C211 1.396 . S
C211 H196 0.940 . S
C211 C206 1.391 . S
C211 C210 1.396 . S
C212 P192 1.803 . S
C212 C213 1.378 . S
C212 C217 1.400 . S
C213 H197 0.939 . S
C213 C212 1.378 . S
C213 C214 1.361 . S
C214 H198 0.942 . S
C214 C213 1.361 . S
C214 C215 1.369 . S
C215 C214 1.369 . S
C215 C216 1.404 . S
C216 H199 0.940 . S
C216 C215 1.404 . S
C216 C217 1.389 . S
C217 H200 0.939 1_554 S
C217 C212 1.400 . S
C217 C216 1.389 . S
C218 P192 1.819 . S
C218 C219 1.391 . S
C218 C223 1.391 . S
C219 H201 0.941 . S
C219 C218 1.391 . S
C219 C220 1.396 . S
C220 H204 0.939 . S
C220 C219 1.396 . S
C220 C221 1.397 . S
C221 C220 1.397 . S
C221 C222 1.385 . S
C222 H205 0.940 . S
C222 C221 1.385 . S
C222 C223 1.388 . S
C223 H202 0.939 . S
C223 C218 1.391 . S
C223 C222 1.388 . S
P224 O235 1.490 . S
P224 C238 1.812 1_554 S
P224 C244 1.803 . S
P224 C250 1.819 . S
H225 C239 0.941 . S
H226 C240 0.939 . S
H227 C242 0.940 . S
H228 C243 0.940 1_554 S
H229 C245 0.939 . S
H230 C246 0.942 . S
H231 C248 0.940 . S
H232 C249 0.939 . S
H233 C251 0.941 . S
H234 C255 0.939 . S
O235 P224 1.490 . S
H236 C252 0.939 . S
H237 C254 0.940 . S
C238 P224 1.812 1_556 S
C238 C239 1.389 . S
C238 C243 1.391 . S
C239 H225 0.941 . S
C239 C238 1.389 . S
C239 C240 1.397 . S
C240 H226 0.939 . S
C240 C239 1.397 . S
C240 C241 1.378 . S
C241 C240 1.378 . S
C241 C242 1.378 . S
C242 H227 0.940 . S
C242 C241 1.378 . S
C242 C243 1.396 . S
C243 H228 0.940 1_556 S
C243 C238 1.391 . S
C243 C242 1.396 . S
C244 P224 1.803 . S
C244 C245 1.378 . S
C244 C249 1.400 . S
C245 H229 0.939 . S
C245 C244 1.378 . S
C245 C246 1.361 . S
C246 H230 0.942 . S
C246 C245 1.361 . S
C246 C247 1.369 . S
C247 C246 1.369 . S
C247 C248 1.404 . S
C248 H231 0.940 . S
C248 C247 1.404 . S
C248 C249 1.389 . S
C249 H232 0.939 . S
C249 C244 1.400 . S
C249 C248 1.389 . S
C250 P224 1.819 . S
C250 C251 1.391 . S
C250 C255 1.391 . S
C251 H233 0.941 . S
C251 C250 1.391 . S
C251 C252 1.396 . S
C252 H236 0.939 . S
C252 C251 1.396 . S
C252 C253 1.397 . S
C253 C252 1.397 . S
C253 C254 1.385 . S
C254 H237 0.940 . S
C254 C253 1.385 . S
C254 C255 1.388 . S
C255 H234 0.939 . S
C255 C250 1.391 . S
C255 C254 1.388 . S
Eu256 C265 2.828 . S
Eu256 O267 2.392 . S
Eu256 O269 2.418 1_545 S
Eu256 O274 2.373 1_655 S
Eu256 O277 2.488 . S
Eu256 O278 2.471 . S
Eu256 O279 2.349 1_655 S
Eu257 O266 2.373 1_455 S
Eu257 O270 2.488 . S
Eu257 O271 2.471 . S
Eu257 O272 2.349 . S
Eu257 O275 2.392 1_565 S
Eu257 O276 2.418 1_565 S
Eu257 C286 2.828 . S
C258 O276 1.244 . S
C258 O279 1.265 . S
C259 C260 1.379 1_655 S
C259 C263 1.373 . S
C259 C265 1.505 . S
C260 C259 1.379 1_455 S
C260 C262 1.369 . S
C260 H288 0.930 . S
C261 C263 1.383 . S
C261 C264 1.382 . S
C261 H289 0.930 . S
C262 C260 1.369 . S
C262 C264 1.392 1_455 S
C262 H290 0.930 . S
C263 C259 1.373 . S
C263 C261 1.383 . S
C263 H291 0.931 . S
C264 C261 1.382 . S
C264 C262 1.392 1_655 S
C265 Eu256 2.828 . S
C265 C259 1.505 . S
C265 O277 1.249 . S
C265 O278 1.244 . S
O266 Eu257 2.373 1_655 S
O266 C268 1.258 . S
O267 Eu256 2.392 . S
O267 C268 1.242 1_545 S
C268 O266 1.258 . S
C268 O267 1.242 1_565 S
O269 Eu256 2.418 1_565 S
O269 C273 1.244 . S
O270 Eu257 2.488 . S
O270 C286 1.249 . S
O271 Eu257 2.471 . S
O271 C286 1.244 . S
O272 Eu257 2.349 . S
O272 C273 1.265 1_455 S
C273 O269 1.244 . S
C273 O272 1.265 1_655 S
O274 Eu256 2.373 1_455 S
O274 C287 1.258 . S
O275 Eu257 2.392 1_545 S
O275 C287 1.242 . S
O276 Eu257 2.418 1_545 S
O276 C258 1.244 . S
O277 Eu256 2.488 . S
O277 C265 1.249 . S
O278 Eu256 2.471 . S
O278 C265 1.244 . S
O279 Eu256 2.349 1_455 S
O279 C258 1.265 . S
C280 C281 1.379 . S
C280 C284 1.373 1_556 S
C280 C286 1.505 . S
C281 C280 1.379 . S
C281 C283 1.369 1_556 S
C281 H292 0.930 1_455 S
C282 C284 1.383 . S
C282 C285 1.382 . S
C282 H293 0.930 . S
C283 C281 1.369 1_554 S
C283 C285 1.392 . S
C283 H294 0.930 1_455 S
C284 C280 1.373 1_554 S
C284 C282 1.383 . S
C284 H295 0.931 . S
C285 C282 1.382 . S
C285 C283 1.392 . S
C286 Eu257 2.828 . S
C286 O270 1.249 . S
C286 O271 1.244 . S
C286 C280 1.505 . S
C287 O274 1.258 . S
C287 O275 1.242 . S
H288 C260 0.930 . S
H289 C261 0.930 . S
H290 C262 0.930 . S
H291 C263 0.931 . S
H292 C281 0.930 1_655 S
H293 C282 0.930 . S
H294 C283 0.930 1_655 S
H295 C284 0.931 . S
Eu296 C305 2.828 . S
Eu296 O307 2.392 . S
Eu296 O309 2.418 . S
Eu296 O314 2.373 . S
Eu296 O317 2.488 . S
Eu296 O318 2.471 . S
Eu296 O319 2.349 1_545 S
Eu297 O306 2.373 1_565 S
Eu297 O310 2.488 . S
Eu297 O311 2.471 1_565 S
Eu297 O312 2.349 1_565 S
Eu297 O315 2.392 . S
Eu297 O316 2.418 . S
Eu297 C326 2.828 . S
C298 O316 1.244 . S
C298 O319 1.265 . S
C299 C300 1.379 . S
C299 C303 1.373 . S
C299 C305 1.505 . S
C300 C299 1.379 . S
C300 C302 1.369 . S
C300 H328 0.930 1_545 S
C301 C303 1.383 . S
C301 C304 1.382 . S
C301 H329 0.930 . S
C302 C300 1.369 . S
C302 C304 1.392 . S
C302 H330 0.930 1_546 S
C303 C299 1.373 . S
C303 C301 1.383 . S
C303 H331 0.931 . S
C304 C301 1.382 . S
C304 C302 1.392 . S
C305 Eu296 2.828 . S
C305 C299 1.505 . S
C305 O317 1.249 . S
C305 O318 1.244 . S
O306 Eu297 2.373 1_545 S
O306 C308 1.258 . S
O307 Eu296 2.392 . S
O307 C308 1.242 . S
C308 O306 1.258 . S
C308 O307 1.242 . S
O309 Eu296 2.418 . S
O309 C313 1.244 . S
O310 Eu297 2.488 . S
O310 C326 1.249 . S
O311 Eu297 2.471 1_545 S
O311 C326 1.244 1_545 S
O312 Eu297 2.349 1_545 S
O312 C313 1.265 . S
C313 O309 1.244 . S
C313 O312 1.265 . S
O314 Eu296 2.373 . S
O314 C327 1.258 1_545 S
O315 Eu297 2.392 . S
O315 C327 1.242 . S
O316 Eu297 2.418 . S
O316 C298 1.244 . S
O317 Eu296 2.488 . S
O317 C305 1.249 . S
O318 Eu296 2.471 . S
O318 C305 1.244 . S
O319 Eu296 2.349 1_565 S
O319 C298 1.265 . S
C320 C321 1.379 1_565 S
C320 C324 1.373 . S
C320 C326 1.505 . S
C321 C320 1.379 1_545 S
C321 C323 1.369 . S
C321 H332 0.930 . S
C322 C324 1.383 . S
C322 C325 1.382 . S
C322 H333 0.930 . S
C323 C321 1.369 . S
C323 C325 1.392 1_545 S
C323 H334 0.930 . S
C324 C320 1.373 . S
C324 C322 1.383 . S
C324 H335 0.931 . S
C325 C322 1.382 . S
C325 C323 1.392 1_565 S
C326 Eu297 2.828 . S
C326 O310 1.249 . S
C326 O311 1.244 1_565 S
C326 C320 1.505 . S
C327 O314 1.258 1_565 S
C327 O315 1.242 . S
H328 C300 0.930 1_565 S
H329 C301 0.930 . S
H330 C302 0.930 1_564 S
H331 C303 0.931 . S
H332 C321 0.930 . S
H333 C322 0.930 . S
H334 C323 0.930 . S
H335 C324 0.931 . S
Eu336 C345 2.828 . S
Eu336 O347 2.392 . S
Eu336 O349 2.418 . S
Eu336 O354 2.373 . S
Eu336 O357 2.488 . S
Eu336 O358 2.471 . S
Eu336 O359 2.349 . S
Eu337 O346 2.373 . S
Eu337 O350 2.488 . S
Eu337 O351 2.471 . S
Eu337 O352 2.349 . S
Eu337 O355 2.392 . S
Eu337 O356 2.418 . S
Eu337 C366 2.828 . S
C338 O356 1.244 . S
C338 O359 1.265 . S
C339 C340 1.379 . S
C339 C343 1.373 . S
C339 C345 1.505 . S
C340 C339 1.379 . S
C340 C342 1.369 . S
C340 H368 0.930 . S
C341 C343 1.383 . S
C341 C344 1.382 . S
C341 H369 0.930 . S
C342 C340 1.369 . S
C342 C344 1.392 . S
C342 H370 0.930 . S
C343 C339 1.373 . S
C343 C341 1.383 . S
C343 H371 0.931 . S
C344 C341 1.382 . S
C344 C342 1.392 . S
C345 Eu336 2.828 . S
C345 C339 1.505 . S
C345 O357 1.249 . S
C345 O358 1.244 . S
O346 Eu337 2.373 . S
O346 C348 1.258 . S
O347 Eu336 2.392 . S
O347 C348 1.242 . S
C348 O346 1.258 . S
C348 O347 1.242 . S
O349 Eu336 2.418 . S
O349 C353 1.244 . S
O350 Eu337 2.488 . S
O350 C366 1.249 . S
O351 Eu337 2.471 . S
O351 C366 1.244 . S
O352 Eu337 2.349 . S
O352 C353 1.265 . S
C353 O349 1.244 . S
C353 O352 1.265 . S
O354 Eu336 2.373 . S
O354 C367 1.258 . S
O355 Eu337 2.392 . S
O355 C367 1.242 . S
O356 Eu337 2.418 . S
O356 C338 1.244 . S
O357 Eu336 2.488 . S
O357 C345 1.249 . S
O358 Eu336 2.471 . S
O358 C345 1.244 . S
O359 Eu336 2.349 . S
O359 C338 1.265 . S
C360 C361 1.379 . S
C360 C364 1.373 . S
C360 C366 1.505 . S
C361 C360 1.379 . S
C361 C363 1.369 . S
C361 H372 0.930 . S
C362 C364 1.383 . S
C362 C365 1.382 . S
C362 H373 0.930 . S
C363 C361 1.369 . S
C363 C365 1.392 . S
C363 H374 0.930 . S
C364 C360 1.373 . S
C364 C362 1.383 . S
C364 H375 0.931 . S
C365 C362 1.382 . S
C365 C363 1.392 . S
C366 Eu337 2.828 . S
C366 O350 1.249 . S
C366 O351 1.244 . S
C366 C360 1.505 . S
C367 O354 1.258 . S
C367 O355 1.242 . S
H368 C340 0.930 . S
H369 C341 0.930 . S
H370 C342 0.930 . S
H371 C343 0.931 . S
H372 C361 0.930 . S
H373 C362 0.930 . S
H374 C363 0.930 . S
H375 C364 0.931 . S
Eu376 C385 2.828 . S
Eu376 O387 2.392 . S
Eu376 O389 2.418 1_455 S
Eu376 O394 2.373 . S
Eu376 O397 2.488 . S
Eu376 O398 2.471 . S
Eu376 O399 2.349 . S
Eu377 O386 2.373 . S
Eu377 O390 2.488 . S
Eu377 O391 2.471 . S
Eu377 O392 2.349 . S
Eu377 O395 2.392 1_655 S
Eu377 O396 2.418 1_655 S
Eu377 C406 2.828 . S
C378 O396 1.244 . S
C378 O399 1.265 . S
C379 C380 1.379 . S
C379 C383 1.373 . S
C379 C385 1.505 . S
C380 C379 1.379 . S
C380 C382 1.369 . S
C380 H408 0.930 . S
C381 C383 1.383 . S
C381 C384 1.382 . S
C381 H409 0.930 . S
C382 C380 1.369 . S
C382 C384 1.392 . S
C382 H410 0.930 . S
C383 C379 1.373 . S
C383 C381 1.383 . S
C383 H411 0.931 . S
C384 C381 1.382 . S
C384 C382 1.392 . S
C385 Eu376 2.828 . S
C385 C379 1.505 . S
C385 O397 1.249 . S
C385 O398 1.244 . S
O386 Eu377 2.373 . S
O386 C388 1.258 . S
O387 Eu376 2.392 . S
O387 C388 1.242 1_455 S
C388 O386 1.258 . S
C388 O387 1.242 1_655 S
O389 Eu376 2.418 1_655 S
O389 C393 1.244 . S
O390 Eu377 2.488 . S
O390 C406 1.249 . S
O391 Eu377 2.471 . S
O391 C406 1.244 . S
O392 Eu377 2.349 . S
O392 C393 1.265 . S
C393 O389 1.244 . S
C393 O392 1.265 . S
O394 Eu376 2.373 . S
O394 C407 1.258 . S
O395 Eu377 2.392 1_455 S
O395 C407 1.242 . S
O396 Eu377 2.418 1_455 S
O396 C378 1.244 . S
O397 Eu376 2.488 . S
O397 C385 1.249 . S
O398 Eu376 2.471 . S
O398 C385 1.244 . S
O399 Eu376 2.349 . S
O399 C378 1.265 . S
C400 C401 1.379 . S
C400 C404 1.373 1_556 S
C400 C406 1.505 . S
C401 C400 1.379 . S
C401 C403 1.369 1_556 S
C401 H412 0.930 . S
C402 C404 1.383 . S
C402 C405 1.382 . S
C402 H413 0.930 . S
C403 C401 1.369 1_554 S
C403 C405 1.392 . S
C403 H414 0.930 1_554 S
C404 C400 1.373 1_554 S
C404 C402 1.383 . S
C404 H415 0.931 . S
C405 C402 1.382 . S
C405 C403 1.392 . S
C406 Eu377 2.828 . S
C406 O390 1.249 . S
C406 O391 1.244 . S
C406 C400 1.505 . S
C407 O394 1.258 . S
C407 O395 1.242 . S
H408 C380 0.930 . S
H409 C381 0.930 . S
H410 C382 0.930 . S
H411 C383 0.931 . S
H412 C401 0.930 . S
H413 C402 0.930 . S
H414 C403 0.930 1_556 S
H415 C404 0.931 . S
C416 C417 1.387 . S
C416 H420 0.950 1_545 S
C416 C425 1.390 . S
C417 C416 1.387 . S
C417 C419 1.387 . S
H418 C425 0.950 1_565 S
C419 C417 1.387 . S
C419 C421 1.390 . S
C419 H423 0.950 . S
H420 C416 0.950 1_565 S
C421 C419 1.390 . S
C421 C422 1.387 . S
C421 H424 0.950 . S
C422 C421 1.387 . S
C422 C425 1.387 . S
H423 C419 0.950 . S
H424 C421 0.950 . S
C425 C416 1.390 . S
C425 H418 0.950 1_545 S
C425 C422 1.387 . S
C426 C427 1.387 . S
C426 H430 0.950 . S
C426 C435 1.390 . S
C427 C426 1.387 . S
C427 C429 1.387 . S
H428 C435 0.950 . S
C429 C427 1.387 . S
C429 C431 1.390 . S
C429 H433 0.950 . S
H430 C426 0.950 . S
C431 C429 1.390 . S
C431 C432 1.387 . S
C431 H434 0.950 . S
C432 C431 1.387 . S
C432 C435 1.387 . S
H433 C429 0.950 . S
H434 C431 0.950 . S
C435 C426 1.390 . S
C435 H428 0.950 . S
C435 C432 1.387 . S
C436 C437 1.387 . S
C436 H440 0.950 . S
C436 C445 1.390 . S
C437 C436 1.387 . S
C437 C439 1.387 . S
H438 C445 0.950 . S
C439 C437 1.387 . S
C439 C441 1.390 . S
C439 H443 0.950 . S
H440 C436 0.950 . S
C441 C439 1.390 . S
C441 C442 1.387 . S
C441 H444 0.950 . S
C442 C441 1.387 . S
C442 C445 1.387 . S
H443 C439 0.950 . S
H444 C441 0.950 . S
C445 C436 1.390 . S
C445 H438 0.950 . S
C445 C442 1.387 . S
C446 C447 1.387 . S
C446 H450 0.950 . S
C446 C455 1.390 . S
C447 C446 1.387 . S
C447 C449 1.387 . S
H448 C455 0.950 . S
C449 C447 1.387 . S
C449 C451 1.390 . S
C449 H453 0.950 . S
H450 C446 0.950 . S
C451 C449 1.390 . S
C451 C452 1.387 . S
C451 H454 0.950 1_455 S
C452 C451 1.387 . S
C452 C455 1.387 . S
H453 C449 0.950 . S
H454 C451 0.950 1_655 S
C455 C446 1.390 . S
C455 H448 0.950 . S
C455 C452 1.387 . S
C456 C457 1.387 1_545 S
C456 H460 0.950 . S
C456 C465 1.390 . S
C457 C456 1.387 1_565 S
C457 C459 1.387 . S
H458 C465 0.950 . S
C459 C457 1.387 . S
C459 C461 1.390 . S
C459 H463 0.950 . S
H460 C456 0.950 . S
C461 C459 1.390 . S
C461 C462 1.387 1_554 S
C461 H464 0.950 1_554 S
C462 C461 1.387 1_556 S
C462 C465 1.387 1_566 S
H463 C459 0.950 . S
H464 C461 0.950 1_556 S
C465 C456 1.390 . S
C465 H458 0.950 . S
C465 C462 1.387 1_544 S
C466 C467 1.387 . S
C466 H470 0.950 . S
C466 C475 1.390 1_554 S
C467 C466 1.387 . S
C467 C469 1.387 . S
H468 C475 0.950 . S
C469 C467 1.387 . S
C469 C471 1.390 1_554 S
C469 H473 0.950 . S
H470 C466 0.950 . S
C471 C469 1.390 1_556 S
C471 C472 1.387 . S
C471 H474 0.950 . S
C472 C471 1.387 . S
C472 C475 1.387 . S
H473 C469 0.950 . S
H474 C471 0.950 . S
C475 C466 1.390 1_556 S
C475 H468 0.950 . S
C475 C472 1.387 . S
C476 C477 1.387 . S
C476 H480 0.950 . S
C476 C485 1.390 1_554 S
C477 C476 1.387 . S
C477 C479 1.387 . S
H478 C485 0.950 . S
C479 C477 1.387 . S
C479 C481 1.390 1_554 S
C479 H483 0.950 . S
H480 C476 0.950 . S
C481 C479 1.390 1_556 S
C481 C482 1.387 . S
C481 H484 0.950 . S
C482 C481 1.387 . S
C482 C485 1.387 . S
H483 C479 0.950 . S
H484 C481 0.950 . S
C485 C476 1.390 1_556 S
C485 H478 0.950 . S
C485 C482 1.387 . S
C486 C487 1.387 . S
C486 H490 0.950 . S
C486 C495 1.390 . S
C487 C486 1.387 . S
C487 C489 1.387 . S
H488 C495 0.950 1_455 S
C489 C487 1.387 . S
C489 C491 1.390 1_554 S
C489 H493 0.950 . S
H490 C486 0.950 . S
C491 C489 1.390 1_556 S
C491 C492 1.387 . S
C491 H494 0.950 . S
C492 C491 1.387 . S
C492 C495 1.387 1_556 S
H493 C489 0.950 . S
H494 C491 0.950 . S
C495 C486 1.390 . S
C495 H488 0.950 1_655 S
C495 C492 1.387 1_554 S
C496 C497 1.387 . S
C496 H500 0.950 . S
C496 C505 1.390 . S
C497 C496 1.387 . S
C497 C499 1.387 . S
H498 C505 0.950 1_655 S
C499 C497 1.387 . S
C499 C501 1.390 . S
C499 H503 0.950 . S
H500 C496 0.950 . S
C501 C499 1.390 . S
C501 C502 1.387 1_455 S
C501 H504 0.950 . S
C502 C501 1.387 1_655 S
C502 C505 1.387 1_655 S
H503 C499 0.950 . S
H504 C501 0.950 . S
C505 C496 1.390 . S
C505 H498 0.950 1_455 S
C505 C502 1.387 1_455 S
C506 C507 1.387 . S
C506 H510 0.950 . S
C506 C515 1.390 1_545 S
C507 C506 1.387 . S
C507 C509 1.387 . S
H508 C515 0.950 . S
C509 C507 1.387 . S
C509 C511 1.390 . S
C509 H513 0.950 . S
H510 C506 0.950 . S
C511 C509 1.390 . S
C511 C512 1.387 1_545 S
C511 H514 0.950 . S
C512 C511 1.387 1_565 S
C512 C515 1.387 . S
H513 C509 0.950 . S
H514 C511 0.950 . S
C515 C506 1.390 1_565 S
C515 H508 0.950 . S
C515 C512 1.387 . S
C516 C517 1.387 . S
C516 H520 0.950 . S
C516 C525 1.390 . S
C517 C516 1.387 . S
C517 C519 1.387 . S
H518 C525 0.950 . S
C519 C517 1.387 . S
C519 C521 1.390 . S
C519 H523 0.950 . S
H520 C516 0.950 . S
C521 C519 1.390 . S
C521 C522 1.387 . S
C521 H524 0.950 . S
C522 C521 1.387 . S
C522 C525 1.387 . S
H523 C519 0.950 . S
H524 C521 0.950 . S
C525 C516 1.390 . S
C525 H518 0.950 . S
C525 C522 1.387 . S
C526 C527 1.387 . S
C526 H530 0.950 . S
C526 C535 1.390 . S
C527 C526 1.387 . S
C527 C529 1.387 . S
H528 C535 0.950 . S
C529 C527 1.387 . S
C529 C531 1.390 . S
C529 H533 0.950 . S
H530 C526 0.950 . S
C531 C529 1.390 . S
C531 C532 1.387 . S
C531 H534 0.950 . S
C532 C531 1.387 . S
C532 C535 1.387 . S
H533 C529 0.950 . S
H534 C531 0.950 . S
C535 C526 1.390 . S
C535 H528 0.950 . S
C535 C532 1.387 . S
C536 C537 1.387 . S
C536 H540 0.950 . S
C536 C545 1.390 1_655 S
C537 C536 1.387 . S
C537 C539 1.387 . S
H538 C545 0.950 . S
C539 C537 1.387 . S
C539 C541 1.390 1_655 S
C539 H543 0.950 . S
H540 C536 0.950 . S
C541 C539 1.390 1_455 S
C541 C542 1.387 . S
C541 H544 0.950 . S
C542 C541 1.387 . S
C542 C545 1.387 . S
H543 C539 0.950 . S
H544 C541 0.950 . S
C545 C536 1.390 1_455 S
C545 H538 0.950 . S
C545 C542 1.387 . S
C546 C547 1.387 . S
C546 H550 0.950 . S
C546 C555 1.365 1_565 S
C547 C546 1.387 . S
C547 C549 1.387 1_565 S
H548 C555 0.946 1_566 S
C549 C547 1.387 1_545 S
C549 C551 1.390 . S
C549 H553 0.950 . S
H550 C546 0.950 . S
C551 C549 1.390 . S
C551 C552 1.387 . S
C551 H554 0.950 . S
C552 C551 1.387 . S
C552 C555 1.416 . S
H553 C549 0.950 . S
H554 C551 0.950 . S
C555 C546 1.365 1_545 S
C555 H548 0.946 1_544 S
C555 C552 1.416 . S
C556 C557 1.387 . S
C556 H560 0.950 . S
C556 C565 1.390 1_554 S
C557 C556 1.387 . S
C557 C559 1.387 . S
H558 C565 0.950 . S
C559 C557 1.387 . S
C559 C561 1.390 . S
C559 H563 0.950 . S
H560 C556 0.950 . S
C561 C559 1.390 . S
C561 C562 1.387 1_554 S
C561 H564 0.950 . S
C562 C561 1.387 1_556 S
C562 C565 1.387 . S
H563 C559 0.950 . S
H564 C561 0.950 . S
C565 C556 1.390 1_556 S
C565 H558 0.950 . S
C565 C562 1.387 . S
C566 C567 1.387 . S
C566 H570 0.950 . S
C566 C575 1.390 . S
C567 C566 1.387 . S
C567 C569 1.387 . S
H568 C575 0.950 . S
C569 C567 1.387 . S
C569 C571 1.390 . S
C569 H573 0.950 1_554 S
H570 C566 0.950 . S
C571 C569 1.390 . S
C571 C572 1.387 . S
C571 H574 0.950 1_554 S
C572 C571 1.387 . S
C572 C575 1.387 . S
H573 C569 0.950 1_556 S
H574 C571 0.950 1_556 S
C575 C566 1.390 . S
C575 H568 0.950 . S
C575 C572 1.387 . S
C576 C577 1.387 . S
C576 H580 0.950 . S
C576 C585 1.390 . S
C577 C576 1.387 . S
C577 C579 1.387 . S
H578 C585 0.950 . S
C579 C577 1.387 . S
C579 C581 1.390 . S
C579 H583 0.950 . S
H580 C576 0.950 . S
C581 C579 1.390 . S
C581 C582 1.387 . S
C581 H584 0.950 . S
C582 C581 1.387 . S
C582 C585 1.387 . S
H583 C579 0.950 . S
H584 C581 0.950 . S
C585 C576 1.390 . S
C585 H578 0.950 . S
C585 C582 1.387 . S
C586 C587 1.387 . S
C586 H590 0.950 . S
C586 C595 1.390 . S
C587 C586 1.387 . S
C587 C589 1.387 . S
H588 C595 0.950 . S
C589 C587 1.387 . S
C589 C591 1.390 . S
C589 H593 0.950 . S
H590 C586 0.950 . S
C591 C589 1.390 . S
C591 C592 1.387 . S
C591 H594 0.950 . S
C592 C591 1.387 . S
C592 C595 1.387 . S
H593 C589 0.950 . S
H594 C591 0.950 . S
C595 C586 1.390 . S
C595 H588 0.950 . S
C595 C592 1.387 . S
C596 C597 1.387 . S
C596 H600 0.950 . S
C596 C605 1.390 . S
C597 C596 1.387 . S
C597 C599 1.387 . S
H598 C605 0.950 . S
C599 C597 1.387 . S
C599 C601 1.390 . S
C599 H603 0.950 . S
H600 C596 0.950 . S
C601 C599 1.390 . S
C601 C602 1.387 . S
C601 H604 0.950 . S
C602 C601 1.387 . S
C602 C605 1.387 . S
H603 C599 0.950 . S
H604 C601 0.950 . S
C605 C596 1.390 . S
C605 H598 0.950 . S
C605 C602 1.387 . S
C606 C607 1.387 . S
C606 H610 0.950 . S
C606 C615 1.390 . S
C607 C606 1.387 . S
C607 C609 1.387 . S
H608 C615 0.950 . S
C609 C607 1.387 . S
C609 C611 1.390 . S
C609 H613 0.950 . S
H610 C606 0.950 . S
C611 C609 1.390 . S
C611 C612 1.387 . S
C611 H614 0.950 . S
C612 C611 1.387 . S
C612 C615 1.387 . S
H613 C609 0.950 . S
H614 C611 0.950 . S
C615 C606 1.390 . S
C615 H608 0.950 . S
C615 C612 1.387 . S
C616 C617 1.387 . S
C616 H620 0.950 . S
C616 C625 1.390 . S
C617 C616 1.387 . S
C617 C619 1.387 . S
H618 C625 0.950 . S
C619 C617 1.387 . S
C619 C621 1.390 . S
C619 H623 0.950 1_655 S
H620 C616 0.950 . S
C621 C619 1.390 . S
C621 C622 1.387 . S
C621 H624 0.950 1_655 S
C622 C621 1.387 . S
C622 C625 1.387 . S
H623 C619 0.950 1_455 S
H624 C621 0.950 1_455 S
C625 C616 1.390 . S
C625 H618 0.950 . S
C625 C622 1.387 . S
C626 C627 1.387 1_545 S
C626 H630 0.950 . S
C626 C635 1.390 . S
C627 C626 1.387 1_565 S
C627 C629 1.387 . S
H628 C635 0.950 . S
C629 C627 1.387 . S
C629 C631 1.390 . S
C629 H633 0.950 . S
H630 C626 0.950 . S
C631 C629 1.390 . S
C631 C632 1.387 . S
C631 H634 0.950 . S
C632 C631 1.387 . S
C632 C635 1.387 1_565 S
H633 C629 0.950 . S
H634 C631 0.950 . S
C635 C626 1.390 . S
C635 H628 0.950 . S
C635 C632 1.387 1_545 S
C636 C637 1.387 . S
C636 H640 0.950 . S
C636 C645 1.390 . S
C637 C636 1.387 . S
C637 C639 1.387 . S
H638 C645 0.950 . S
C639 C637 1.387 . S
C639 C641 1.390 . S
C639 H643 0.950 . S
H640 C636 0.950 . S
C641 C639 1.390 . S
C641 C642 1.387 . S
C641 H644 0.950 . S
C642 C641 1.387 . S
C642 C645 1.387 . S
H643 C639 0.950 . S
H644 C641 0.950 . S
C645 C636 1.390 . S
C645 H638 0.950 . S
C645 C642 1.387 . S
C646 C647 1.387 . S
C646 H650 0.950 . S
C646 C655 1.390 . S
C647 C646 1.387 . S
C647 C649 1.387 . S
H648 C655 0.950 . S
C649 C647 1.387 . S
C649 C651 1.390 . S
C649 H653 0.950 . S
H650 C646 0.950 . S
C651 C649 1.390 . S
C651 C652 1.387 . S
C651 H654 0.950 . S
C652 C651 1.387 . S
C652 C655 1.387 . S
H653 C649 0.950 . S
H654 C651 0.950 . S
C655 C646 1.390 . S
C655 H648 0.950 . S
C655 C652 1.387 . S
C417 C215 2.756 . S
C422 C287 2.971 . S
C432 C313 2.665 . S
C427 C247 2.320 . S
C442 C353 2.588 . S
C437 C151 2.324 . S
C452 C407 2.898 . S
C447 C183 2.712 . S
C462 C268 2.969 . S
C457 C87 2.698 . S
C467 C119 2.388 . S
C472 C298 2.664 . S
C477 C23 2.284 . S
C482 C338 2.587 . S
C487 C55 2.638 . S
C492 C388 2.898 . S
C502 C264 0.863 . S
C497 C189 0.907 . S
C512 C325 0.956 . S
C507 C221 1.031 . S
C522 C365 0.710 . S
C517 C253 0.690 . S
C527 C157 0.741 . S
C532 C384 0.741 . S
C537 C61 0.804 . S
C542 C285 0.865 . S
C552 C304 0.958 1_554 S
C547 C93 0.883 . S
C562 C344 0.704 . S
C557 C125 0.710 . S
C567 C29 0.753 . S
C572 C405 0.748 . S
C577 C177 2.609 . S
C582 C258 3.001 . S
C587 C209 3.024 . S
C592 C308 3.375 . S
C602 C348 3.173 . S
C597 C241 2.785 . S
C612 C378 2.770 . S
C607 C145 2.388 . S
C617 C49 2.556 . S
C622 C273 3.001 . S
C632 C327 3.375 . S
C627 C81 3.007 . S
C642 C367 3.172 . S
C637 C113 2.879 . S
C647 C17 2.371 . S
C652 C393 2.771 . S
