# Generated by pormake.
# Topology rtl, (3,6)-cn, num edge types: 1
# Building blocks:
#     Node 0, Type 0, BuildingBlock: VETTIZ_charged_linker_0, # of connection points: 3
#     Node 1, Type 0, BuildingBlock: VETTIZ_charged_linker_0, # of connection points: 3
#     Node 2, Type 0, BuildingBlock: VETTIZ_charged_linker_0, # of connection points: 3
#     Node 3, Type 0, BuildingBlock: VETTIZ_charged_linker_0, # of connection points: 3
#     Node 4, Type 1, BuildingBlock: CIFDUS_clean_sbu_1, # of connection points: 6
#     Node 5, Type 1, BuildingBlock: CIFDUS_clean_sbu_1, # of connection points: 6
#     Edge 6, Type (0, 1), BuildingBlock: XUDNAN_clean_linker_2, # of connection points: 2
#     Edge 7, Type (0, 1), BuildingBlock: XUDNAN_clean_linker_2, # of connection points: 2
#     Edge 8, Type (0, 1), BuildingBlock: XUDNAN_clean_linker_2, # of connection points: 2
#     Edge 9, Type (0, 1), BuildingBlock: XUDNAN_clean_linker_2, # of connection points: 2
#     Edge 10, Type (0, 1), BuildingBlock: XUDNAN_clean_linker_2, # of connection points: 2
#     Edge 11, Type (0, 1), BuildingBlock: XUDNAN_clean_linker_2, # of connection points: 2
#     Edge 12, Type (0, 1), BuildingBlock: XUDNAN_clean_linker_2, # of connection points: 2
#     Edge 13, Type (0, 1), BuildingBlock: XUDNAN_clean_linker_2, # of connection points: 2
#     Edge 14, Type (0, 1), BuildingBlock: XUDNAN_clean_linker_2, # of connection points: 2
#     Edge 15, Type (0, 1), BuildingBlock: XUDNAN_clean_linker_2, # of connection points: 2
#     Edge 16, Type (0, 1), BuildingBlock: XUDNAN_clean_linker_2, # of connection points: 2
#     Edge 17, Type (0, 1), BuildingBlock: XUDNAN_clean_linker_2, # of connection points: 2
# Relax obj value: 0.030
# Max RMSD: 0.064
# Mean RMSD: 0.050
data_MOF--net-rtl--node1-CIFDUS_clean_sbu_1--node2-VETTIZ_charged_linker_0--edge1-XUDNAN_clean_linker_2
_symmetry_space_group_name_H-M    P1
_symmetry_Int_Tables_number       1
_symmetry_cell_setting            triclinic
loop_
_symmetry_equiv_pos_as_xyz
'x, y, z'
_cell_length_a     36.878564
_cell_length_b     42.055698
_cell_length_c     29.481641
_cell_angle_alpha  90.034998
_cell_angle_beta   97.55761
_cell_angle_gamma 89.895149
loop_
_atom_site_label
_atom_site_type_symbol
_atom_site_fract_x
_atom_site_fract_y
_atom_site_fract_z
_atom_type_partial_charge
C0 C 0.24466 0.91656 0.93241 0.0
C1 C 0.21821 0.94052 0.92154 0.0
C2 C 0.20765 0.95926 0.95734 0.0
C3 C 0.24703 0.92854 0.01344 0.0
C4 C 0.25858 0.91096 0.97838 0.0
C5 C 0.2849 0.88502 0.9961 0.0
H6 H 0.35119 0.79034 0.17295 0.0
C7 C 0.26383 0.91475 0.05744 0.0
C8 C 0.28598 0.88908 0.04754 0.0
H9 H 0.36966 0.78231 0.03187 0.0
H10 H 0.33952 0.83299 0.01462 0.0
H11 H 0.37248 0.86821 0.17761 0.0
H12 H 0.27205 0.81491 0.15902 0.0
H13 H 0.266 0.84657 0.19612 0.0
H14 H 0.30071 0.81719 0.21309 0.0
H15 H 0.35568 0.84761 0.22387 0.0
H16 H 0.34168 0.88783 0.20869 0.0
C17 C 0.32247 0.89227 0.98041 0.0
C18 C 0.26805 0.85279 0.97889 0.0
C19 C 0.22721 0.95693 0.20711 0.0
C20 C 0.23444 0.94625 0.2526 0.0
C21 C 0.25831 0.92027 0.26278 0.0
C22 C 0.27425 0.90477 0.22823 0.0
C23 C 0.26589 0.91498 0.18268 0.0
C24 C 0.24299 0.94083 0.17276 0.0
C25 C 0.23591 0.9473 0.12212 0.0
C26 C 0.25907 0.92164 0.10353 0.0
C27 C 0.27634 0.90264 0.13916 0.0
C28 C 0.25019 0.98103 0.11336 0.0
C29 C 0.19446 0.94246 0.10633 0.0
C30 C 0.34893 0.79977 0.1385 0.0
C31 C 0.36208 0.7823 0.10347 0.0
C32 C 0.35942 0.7954 0.05921 0.0
C33 C 0.34169 0.82463 0.04925 0.0
C34 C 0.32647 0.8409 0.08396 0.0
C35 C 0.33181 0.82919 0.12815 0.0
C36 C 0.31586 0.85074 0.16117 0.0
C37 C 0.29812 0.87626 0.12913 0.0
C38 C 0.30386 0.8701 0.08376 0.0
C39 C 0.34784 0.86425 0.19499 0.0
C40 C 0.28729 0.83154 0.18398 0.0
H41 H 0.21227 0.96828 0.02855 0.0
H42 H 0.25387 0.90205 0.90579 0.0
H43 H 0.23831 0.85223 0.98195 0.0
H44 H 0.27981 0.83222 0.99871 0.0
H45 H 0.27122 0.8489 0.94234 0.0
H46 H 0.32736 0.91836 0.97945 0.0
H47 H 0.32401 0.88275 0.94557 0.0
H48 H 0.34561 0.88284 1.00428 0.0
H49 H 0.20846 0.97648 0.19818 0.0
H50 H 0.26429 0.91167 0.29761 0.0
H51 H 0.29175 0.88491 0.23825 0.0
H52 H 0.27641 0.9857 0.13563 0.0
H53 H 0.23027 0.99952 0.12087 0.0
H54 H 0.25644 0.98429 0.07804 0.0
H55 H 0.18286 0.92401 0.12731 0.0
H56 H 0.18857 0.93354 0.0709 0.0
H57 H 0.17888 0.96479 0.10954 0.0
H58 H 0.18715 0.97771 0.95031 0.0
C59 C 0.22201 0.95353 1.003 0.0
C60 C 0.72665 0.62507 0.73545 0.0
C61 C 0.70363 0.59848 0.73737 0.0
C62 C 0.69728 0.57816 0.69927 0.0
C63 C 0.73123 0.61334 0.65568 0.0
C64 C 0.74087 0.63166 0.6943 0.0
C65 C 0.76538 0.65898 0.68459 0.0
H66 H 0.84229 0.74441 0.52509 0.0
C67 C 0.74603 0.62828 0.61684 0.0
C68 C 0.76752 0.65443 0.63362 0.0
H69 H 0.84744 0.76553 0.66905 0.0
H70 H 0.81542 0.7163 0.68068 0.0
H71 H 0.85335 0.66309 0.53588 0.0
H72 H 0.76979 0.73303 0.50691 0.0
H73 H 0.74754 0.69836 0.48574 0.0
H74 H 0.78705 0.71228 0.46139 0.0
H75 H 0.84508 0.68737 0.48543 0.0
H76 H 0.82228 0.64972 0.48903 0.0
C77 C 0.80296 0.65421 0.71371 0.0
C78 C 0.74619 0.69051 0.69431 0.0
C79 C 0.69009 0.60105 0.45427 0.0
C80 C 0.6967 0.61296 0.41159 0.0
C81 C 0.72695 0.63279 0.40904 0.0
C82 C 0.74939 0.64213 0.4488 0.0
C83 C 0.74104 0.63204 0.49165 0.0
C84 C 0.71277 0.61082 0.49393 0.0
C85 C 0.7098 0.60114 0.54256 0.0
C86 C 0.73872 0.6225 0.56899 0.0
C87 C 0.75644 0.64074 0.53883 0.0
C88 C 0.71967 0.56531 0.54816 0.0
C89 C 0.67077 0.60925 0.55293 0.0
C90 C 0.83715 0.7382 0.55935 0.0
C91 C 0.84715 0.75902 0.59609 0.0
C92 C 0.84009 0.74987 0.64014 0.0
C93 C 0.8212 0.7214 0.6467 0.0
C94 C 0.80915 0.70191 0.60879 0.0
C95 C 0.81788 0.71033 0.56618 0.0
C96 C 0.8008 0.68875 0.52886 0.0
C97 C 0.78008 0.66591 0.55575 0.0
C98 C 0.78537 0.67318 0.6028 0.0
C99 C 0.83187 0.67134 0.50829 0.0
C100 C 0.77512 0.70891 0.49373 0.0
H101 H 0.70415 0.56968 0.63021 0.0
H102 H 0.73176 0.64115 0.76427 0.0
H103 H 0.71653 0.6894 0.68113 0.0
H104 H 0.75685 0.71111 0.67715 0.0
H105 H 0.74882 0.69535 0.73164 0.0
H106 H 0.81163 0.62888 0.71295 0.0
H107 H 0.80176 0.66083 0.74998 0.0
H108 H 0.82495 0.66789 0.70083 0.0
H109 H 0.66745 0.58504 0.45665 0.0
H110 H 0.73278 0.64156 0.37621 0.0
H111 H 0.77192 0.65742 0.44474 0.0
H112 H 0.73188 0.55569 0.51842 0.0
H113 H 0.69512 0.55069 0.55165 0.0
H114 H 0.74057 0.56099 0.57821 0.0
H115 H 0.66413 0.63456 0.54459 0.0
H116 H 0.66731 0.60579 0.58914 0.0
H117 H 0.65011 0.59416 0.53225 0.0
H118 H 0.67946 0.55775 0.70005 0.0
C119 C 0.71107 0.58538 0.65857 0.0
C120 C 0.80304 0.12741 0.16497 0.0
C121 C 0.8307 0.10434 0.1735 0.0
C122 C 0.84096 0.08662 0.1367 0.0
C123 C 0.79898 0.11721 0.08342 0.0
C124 C 0.78739 0.13326 0.11976 0.0
C125 C 0.7579 0.15715 0.10427 0.0
H126 H 0.66894 0.24786 0.93555 0.0
C127 C 0.78035 0.13143 0.0407 0.0
C128 C 0.75628 0.15485 0.05247 0.0
H129 H 0.65209 0.24221 0.07778 0.0
H130 H 0.69599 0.19991 0.09009 0.0
H131 H 0.76192 0.23439 0.95265 0.0
H132 H 0.67188 0.16817 0.92073 0.0
H133 H 0.70578 0.16366 0.88391 0.0
H134 H 0.67962 0.19984 0.88216 0.0
H135 H 0.73058 0.23787 0.90071 0.0
H136 H 0.76755 0.20962 0.90553 0.0
C137 C 0.77114 0.19021 0.12264 0.0
C138 C 0.72183 0.14576 0.12087 0.0
C139 C 0.82247 0.0971 0.89258 0.0
C140 C 0.81961 0.10978 0.84826 0.0
C141 C 0.79537 0.13559 0.83733 0.0
C142 C 0.77591 0.14923 0.87094 0.0
C143 C 0.78097 0.1371 0.91599 0.0
C144 C 0.80418 0.11143 0.92567 0.0
C145 C 0.8103 0.10321 0.97539 0.0
C146 C 0.78585 0.12724 0.99443 0.0
C147 C 0.76803 0.14706 0.95985 0.0
C148 C 0.8515 0.1086 0.99317 0.0
C149 C 0.79665 0.06878 0.98101 0.0
C150 C 0.67511 0.23761 0.96937 0.0
C151 C 0.657 0.24866 0.00582 0.0
C152 C 0.66529 0.23421 0.04908 0.0
C153 C 0.69103 0.20967 0.05632 0.0
C154 C 0.70922 0.19924 0.02013 0.0
C155 C 0.7007 0.21247 0.97715 0.0
C156 C 0.72134 0.19609 0.94245 0.0
C157 C 0.74315 0.17089 0.97182 0.0
C158 C 0.73661 0.17385 0.01767 0.0
C159 C 0.74667 0.22071 0.92396 0.0
C160 C 0.69332 0.18118 0.90501 0.0
H161 H 0.83477 0.07898 0.06524 0.0
H162 H 0.79406 0.14076 0.1929 0.0
H163 H 0.72271 0.12003 0.12974 0.0
H164 H 0.69802 0.14816 0.09389 0.0
H165 H 0.71618 0.15899 0.1518 0.0
H166 H 0.79972 0.19452 0.11594 0.0
H167 H 0.77061 0.19181 0.16016 0.0
H168 H 0.75478 0.21004 0.10632 0.0
H169 H 0.84019 0.077 0.90237 0.0
H170 H 0.79253 0.14598 0.80345 0.0
H171 H 0.75855 0.16923 0.86104 0.0
H172 H 0.86465 0.12514 0.97081 0.0
H173 H 0.86712 0.08594 0.99462 0.0
H174 H 0.85586 0.1201 0.02719 0.0
H175 H 0.7709 0.06435 0.95768 0.0
H176 H 0.78983 0.06391 0.01573 0.0
H177 H 0.81724 0.05111 0.97273 0.0
H178 H 0.86209 0.0686 0.14257 0.0
C179 C 0.82524 0.09289 0.09177 0.0
C180 C 0.27466 0.41942 0.35049 0.0
C181 C 0.30422 0.44035 0.3482 0.0
C182 C 0.31915 0.45618 0.3887 0.0
C183 C 0.27775 0.42809 0.43239 0.0
C184 C 0.26244 0.41325 0.39264 0.0
C185 C 0.23481 0.38844 0.40133 0.0
H186 H 0.16584 0.29495 0.55458 0.0
C187 C 0.26028 0.41488 0.4708 0.0
C188 C 0.23506 0.3916 0.45267 0.0
H189 H 0.15604 0.28338 0.40819 0.0
H190 H 0.18309 0.33541 0.4008 0.0
H191 H 0.24583 0.32244 0.57144 0.0
H192 H 0.14149 0.3696 0.55128 0.0
H193 H 0.17142 0.39646 0.5828 0.0
H194 H 0.16229 0.35838 0.60736 0.0
H195 H 0.21106 0.31931 0.60865 0.0
H196 H 0.24327 0.35093 0.61498 0.0
C197 C 0.24906 0.35548 0.38747 0.0
C198 C 0.19726 0.39797 0.37515 0.0
C199 C 0.3063 0.44444 0.63652 0.0
C200 C 0.29444 0.43557 0.67842 0.0
C201 C 0.26086 0.41928 0.67707 0.0
C202 C 0.24161 0.40911 0.63559 0.0
C203 C 0.25595 0.41506 0.59473 0.0
C204 C 0.28625 0.43431 0.5951 0.0
C205 C 0.29447 0.44106 0.54719 0.0
C206 C 0.26562 0.42084 0.51876 0.0
C207 C 0.24403 0.40484 0.54726 0.0
C208 C 0.33376 0.42935 0.54332 0.0
C209 C 0.28838 0.477 0.53767 0.0
C210 C 0.16908 0.30404 0.52099 0.0
C211 C 0.15954 0.2851 0.48199 0.0
C212 C 0.16341 0.29761 0.43864 0.0
C213 C 0.17948 0.32759 0.43455 0.0
C214 C 0.19192 0.34509 0.47427 0.0
C215 C 0.18506 0.33393 0.51641 0.0
C216 C 0.19995 0.35577 0.55487 0.0
C217 C 0.21986 0.38027 0.5293 0.0
C218 C 0.21502 0.37393 0.48213 0.0
C219 C 0.22639 0.3363 0.58955 0.0
C220 C 0.16728 0.37076 0.5755 0.0
H221 H 0.31898 0.46266 0.46011 0.0
H222 H 0.26181 0.40712 0.32036 0.0
H223 H 0.192 0.42377 0.37965 0.0
H224 H 0.17426 0.38544 0.38776 0.0
H225 H 0.19632 0.39331 0.33792 0.0
H226 H 0.27916 0.35555 0.38684 0.0
H227 H 0.23605 0.34827 0.35287 0.0
H228 H 0.24477 0.33654 0.41219 0.0
H229 H 0.33132 0.45773 0.63585 0.0
H230 H 0.24974 0.41367 0.70832 0.0
H231 H 0.2169 0.39599 0.63694 0.0
H232 H 0.3389 0.40596 0.56062 0.0
H233 H 0.35442 0.44641 0.55975 0.0
H234 H 0.3388 0.42542 0.50772 0.0
H235 H 0.26529 0.4862 0.55471 0.0
H236 H 0.28056 0.48229 0.501 0.0
H237 H 0.31313 0.49093 0.55074 0.0
H238 H 0.34216 0.47211 0.3887 0.0
C239 C 0.30589 0.45038 0.43051 0.0
O240 O 0.98549 0.03563 0.49136 0.0
Mn241 Mn 0.01987 0.01792 0.54731 0.0
O242 O 0.98285 0.99555 0.44089 0.0
Mn243 Mn 0.00818 0.96662 0.48073 0.0
O244 O 0.05481 1.00091 0.60384 0.0
O245 O 0.04136 0.06304 0.55753 0.0
Mn246 Mn 0.03247 0.07153 0.61372 0.0
O247 O 0.97842 0.02411 0.59056 0.0
O248 O 0.0591 0.04249 0.65234 0.0
O249 O 0.06286 0.01216 0.50571 0.0
O250 O 0.05714 0.96305 0.48009 0.0
O251 O 0.05501 0.107 0.59796 0.0
O252 O 0.98293 0.07383 0.61474 0.0
C253 C 0.98185 0.94407 0.52857 0.0
C254 C 0.97474 0.02378 0.45178 0.0
C255 C 0.067 0.01395 0.64239 0.0
C256 C 0.05614 0.09141 0.56026 0.0
C257 C 0.96563 0.04794 0.6108 0.0
C258 C 0.0756 0.98813 0.48595 0.0
O259 O 0.9962 0.97267 0.53648 0.0
O260 O 0.98644 0.93009 0.49053 0.0
O261 O 0.54115 0.53646 0.09634 0.0
Mn262 Mn 0.50484 0.51515 0.04417 0.0
O263 O 0.56439 0.49819 0.14291 0.0
Mn264 Mn 0.53858 0.46625 0.11131 0.0
O265 O 0.46741 0.49753 0.99025 0.0
O266 O 0.47895 0.55929 0.04095 0.0
Mn267 Mn 0.48381 0.56899 0.98393 0.0
O268 O 0.54158 0.52559 0.99526 0.0
O269 O 0.46023 0.53969 0.94338 0.0
O270 O 0.46854 0.50207 0.09127 0.0
O271 O 0.49325 0.45871 0.12877 0.0
O272 O 0.45818 0.6021 1.00002 0.0
O273 O 0.53231 0.5765 0.98221 0.0
C274 C 0.55363 0.44909 0.04774 0.0
C275 C 0.56182 0.5271 0.13203 0.0
C276 C 0.45434 0.51064 0.95207 0.0
C277 C 0.46258 0.5872 0.03886 0.0
C278 C 0.55087 0.55189 0.9777 0.0
C279 C 0.46696 0.47836 0.11889 0.0
O280 O 0.52714 0.46955 0.05054 0.0
O281 O 0.5696 0.43978 0.08715 0.0
H282 H 0.09524 0.2532 0.45297 0.0
H283 H 0.20469 0.24061 0.52434 0.0
H284 H 0.19241 0.18351 0.53472 0.0
H285 H 0.05194 0.20596 0.5266 0.0
H286 H 0.01829 0.1895 0.48301 0.0
H287 H 0.03804 0.22768 0.47446 0.0
H288 H 0.05773 0.20712 0.39839 0.0
H289 H 0.03889 0.16846 0.40768 0.0
H290 H 0.08613 0.17217 0.39884 0.0
H291 H 0.16768 0.12909 0.54176 0.0
H292 H 0.12854 0.08527 0.56187 0.0
H293 H 0.03336 0.13313 0.492 0.0
C294 C 0.11668 0.23813 0.46996 0.0
C295 C 0.15109 0.25099 0.48732 0.0
C296 C 0.17829 0.23097 0.51052 0.0
C297 C 0.17168 0.1985 0.51611 0.0
C298 C 0.1376 0.18632 0.49845 0.0
C299 C 0.11025 0.20561 0.47665 0.0
C300 C 0.07457 0.18739 0.46664 0.0
C301 C 0.04393 0.20359 0.48906 0.0
C302 C 0.06368 0.18357 0.4148 0.0
C303 C 0.08558 0.15554 0.48867 0.0
C304 C 0.12254 0.155 0.50472 0.0
C305 C 0.13886 0.129 0.52866 0.0
C306 C 0.11648 0.10386 0.53926 0.0
C307 C 0.0781 0.10533 0.52724 0.0
C308 C 0.06277 0.13075 0.49974 0.0
H309 H 0.43126 0.75901 0.10116 0.0
H310 H 0.32171 0.73134 0.12194 0.0
H311 H 0.34076 0.67481 0.12612 0.0
H312 H 0.44875 0.69937 0.02955 0.0
H313 H 0.4961 0.69353 0.05236 0.0
H314 H 0.4748 0.73137 0.05855 0.0
H315 H 0.49342 0.72807 0.1464 0.0
H316 H 0.51404 0.68963 0.14035 0.0
H317 H 0.47933 0.69437 0.17751 0.0
H318 H 0.36854 0.62151 0.11279 0.0
H319 H 0.40184 0.57749 0.08072 0.0
H320 H 0.49506 0.63896 0.07673 0.0
C321 C 0.41174 0.741 0.10797 0.0
C322 C 0.37519 0.74928 0.1117 0.0
C323 C 0.34998 0.72529 0.1197 0.0
C324 C 0.36062 0.69319 0.12227 0.0
C325 C 0.39686 0.68556 0.11804 0.0
C326 C 0.42219 0.70889 0.11173 0.0
C327 C 0.45852 0.69433 0.10431 0.0
C328 C 0.47018 0.70527 0.05847 0.0
C329 C 0.48807 0.70207 0.14454 0.0
C330 C 0.44889 0.65926 0.10382 0.0
C331 C 0.41344 0.65455 0.11284 0.0
C332 C 0.39679 0.62468 0.10745 0.0
C333 C 0.41606 0.59955 0.0899 0.0
C334 C 0.45151 0.60454 0.07808 0.0
C335 C 0.46872 0.63419 0.08778 0.0
H336 H 0.90679 0.79221 0.64049 0.0
H337 H 0.8173 0.79936 0.52961 0.0
H338 H 0.83757 0.85306 0.5116 0.0
H339 H 0.90704 0.87833 0.67277 0.0
H340 H 0.95616 0.88019 0.68479 0.0
H341 H 0.93262 0.84357 0.69359 0.0
H342 H 0.97158 0.81369 0.64005 0.0
H343 H 0.99571 0.84995 0.63209 0.0
H344 H 0.9734 0.82868 0.58308 0.0
H345 H 0.86664 0.90569 0.50513 0.0
H346 H 0.91124 0.94797 0.49702 0.0
H347 H 0.98659 0.90571 0.60542 0.0
C348 C 0.89124 0.80537 0.61293 0.0
C349 C 0.86022 0.79163 0.58672 0.0
C350 C 0.84108 0.80932 0.5502 0.0
C351 C 0.85214 0.84004 0.54001 0.0
C352 C 0.88251 0.85304 0.5666 0.0
C353 C 0.90233 0.83613 0.60169 0.0
C354 C 0.93603 0.85476 0.62173 0.0
C355 C 0.93278 0.86479 0.67118 0.0
C356 C 0.97126 0.83563 0.61902 0.0
C357 C 0.93326 0.88368 0.59045 0.0
C358 C 0.90101 0.88287 0.56069 0.0
C359 C 0.89183 0.90671 0.52851 0.0
C360 C 0.91714 0.93104 0.52475 0.0
C361 C 0.95204 0.93073 0.55143 0.0
C362 C 0.95967 0.9073 0.58584 0.0
H363 H 0.66282 0.30763 0.96632 0.0
H364 H 0.58969 0.24976 0.03508 0.0
H365 H 0.54713 0.29508 0.03528 0.0
H366 H 0.65702 0.37553 0.02689 0.0
H367 H 0.65692 0.40307 0.97997 0.0
H368 H 0.67735 0.36452 0.9767 0.0
H369 H 0.63529 0.35388 0.90055 0.0
H370 H 0.61423 0.39243 0.90418 0.0
H371 H 0.58642 0.35711 0.89894 0.0
H372 H 0.51433 0.34771 0.03285 0.0
H373 H 0.50186 0.40436 0.04504 0.0
H374 H 0.59934 0.42985 0.98638 0.0
C375 C 0.63723 0.30427 0.97995 0.0
C376 C 0.62939 0.27494 1.00004 0.0
C377 C 0.59619 0.27184 0.01909 0.0
C378 C 0.57164 0.29743 0.01901 0.0
C379 C 0.58034 0.32617 0.99947 0.0
C380 C 0.61251 0.32982 0.98064 0.0
C381 C 0.61737 0.36423 0.96695 0.0
C382 C 0.65434 0.37762 0.98901 0.0
C383 C 0.61311 0.36709 0.91455 0.0
C384 C 0.58515 0.37991 0.9855 0.0
C385 C 0.56277 0.35717 1.00113 0.0
C386 C 0.53147 0.36564 0.0202 0.0
C387 C 0.52417 0.39807 0.02617 0.0
C388 C 0.54918 0.42177 0.01582 0.0
C389 C 0.5791 0.4125 0.99319 0.0
H390 H 0.19526 0.91455 0.30968 0.0
H391 H 0.22925 0.00932 0.27667 0.0
H392 H 0.19703 0.0315 0.3387 0.0
H393 H 0.10561 0.93823 0.33077 0.0
H394 H 0.10373 0.90884 0.37483 0.0
H395 H 0.13068 0.90151 0.32926 0.0
H396 H 0.18776 0.89179 0.38914 0.0
H397 H 0.16107 0.89951 0.43489 0.0
H398 H 0.20204 0.92212 0.43095 0.0
H399 H 0.15777 0.04272 0.40468 0.0
H400 H 0.11344 0.04155 0.46149 0.0
H401 H 0.1093 0.9387 0.4502 0.0
C402 C 0.19635 0.93994 0.31591 0.0
C403 C 0.21514 0.96021 0.28901 0.0
C404 C 0.21504 0.99342 0.29718 0.0
C405 C 0.19698 0.00615 0.33242 0.0
C406 C 0.17889 0.98534 0.35876 0.0
C407 C 0.17827 0.95294 0.35033 0.0
C408 C 0.15522 0.93554 0.38084 0.0
C409 C 0.12185 0.92013 0.35224 0.0
C410 C 0.1779 0.91079 0.41074 0.0
C411 C 0.14385 0.9629 0.40903 0.0
C412 C 0.15719 0.99162 0.39584 0.0
C413 C 0.14751 0.02025 0.41547 0.0
C414 C 0.12259 0.01939 0.44806 0.0
C415 C 0.10791 0.99007 0.46067 0.0
C416 C 0.12002 0.96161 0.44184 0.0
H417 H 0.71556 0.56895 0.82302 0.0
H418 H 0.63533 0.62019 0.72967 0.0
H419 H 0.58796 0.6083 0.77867 0.0
H420 H 0.65461 0.50753 0.85365 0.0
H421 H 0.67292 0.50582 0.91336 0.0
H422 H 0.70182 0.51763 0.8715 0.0
H423 H 0.71741 0.57033 0.91508 0.0
H424 H 0.68923 0.55837 0.95755 0.0
H425 H 0.68083 0.59582 0.92827 0.0
H426 H 0.54842 0.58644 0.83001 0.0
H427 H 0.51912 0.56912 0.8954 0.0
H428 H 0.624 0.53741 0.96539 0.0
C429 C 0.68815 0.57816 0.81376 0.0
C430 C 0.67887 0.59565 0.77273 0.0
C431 C 0.64279 0.607 0.76109 0.0
C432 C 0.6157 0.60005 0.78841 0.0
C433 C 0.62516 0.58196 0.82769 0.0
C434 C 0.66056 0.57195 0.8415 0.0
C435 C 0.6627 0.55409 0.88691 0.0
C436 C 0.67369 0.5192 0.88099 0.0
C437 C 0.68911 0.57066 0.92417 0.0
C438 C 0.62315 0.55644 0.89658 0.0
C439 C 0.60212 0.57152 0.86058 0.0
C440 C 0.56464 0.57526 0.85893 0.0
C441 C 0.54826 0.5651 0.89625 0.0
C442 C 0.5693 0.55243 0.93592 0.0
C443 C 0.60724 0.54702 0.93564 0.0
H444 H 0.84318 0.04809 0.21904 0.0
H445 H 0.86243 0.14949 0.2324 0.0
H446 H 0.89909 0.1408 0.30807 0.0
H447 H 0.83589 0.03426 0.34082 0.0
H448 H 0.85781 0.99593 0.34075 0.0
H449 H 0.83125 0.01065 0.28934 0.0
H450 H 0.88716 0.0034 0.24527 0.0
H451 H 0.91382 0.98868 0.29644 0.0
H452 H 0.92993 0.02218 0.26667 0.0
H453 H 0.93684 0.12003 0.38078 0.0
H454 H 0.9719 0.08899 0.44345 0.0
H455 H 0.92687 1.00173 0.38098 0.0
C456 C 0.85483 0.06845 0.23817 0.0
C457 C 0.84998 0.09944 0.22022 0.0
C458 C 0.86553 0.12559 0.24606 0.0
C459 C 0.88644 0.12087 0.2889 0.0
C460 C 0.89102 0.0899 0.30553 0.0
C461 C 0.87534 0.06419 0.28106 0.0
C462 C 0.88485 0.03326 0.30583 0.0
C463 C 0.8504 0.0176 0.32002 0.0
C464 C 0.90516 0.01057 0.27682 0.0
C465 C 0.90963 0.04536 0.34707 0.0
C466 C 0.9125 0.0781 0.34688 0.0
C467 C 0.93451 0.09439 0.38145 0.0
C468 C 0.95423 0.07663 0.41692 0.0
C469 C 0.95209 0.04301 0.41695 0.0
C470 C 0.9292 0.02741 0.38175 0.0
H471 H 0.33961 0.48694 0.70517 0.0
H472 H 0.3024 0.39669 0.75376 0.0
H473 H 0.33923 0.40551 0.82834 0.0
H474 H 0.43287 0.4792 0.76221 0.0
H475 H 0.43743 0.52103 0.77499 0.0
H476 H 0.40766 0.50793 0.72513 0.0
H477 H 0.35346 0.53813 0.7532 0.0
H478 H 0.38307 0.55137 0.80303 0.0
H479 H 0.34169 0.53009 0.80952 0.0
H480 H 0.38041 0.42407 0.89875 0.0
H481 H 0.42197 0.45187 0.9589 0.0
H482 H 0.43365 0.52858 0.8633 0.0
C483 C 0.33935 0.46887 0.73125 0.0
C484 C 0.31742 0.44133 0.72337 0.0
C485 C 0.31798 0.41847 0.75895 0.0
C486 C 0.3392 0.42305 0.80149 0.0
C487 C 0.36028 0.45044 0.80813 0.0
C488 C 0.36067 0.47291 0.77395 0.0
C489 C 0.38591 0.5002 0.78994 0.0
C490 C 0.41786 0.5022 0.76137 0.0
C491 C 0.36475 0.53181 0.78887 0.0
C492 C 0.39902 0.48977 0.83857 0.0
C493 C 0.38419 0.46091 0.84842 0.0
C494 C 0.3923 0.44669 0.8914 0.0
C495 C 0.41599 0.46258 0.92534 0.0
C496 C 0.43106 0.49244 0.9161 0.0
C497 C 0.42253 0.50586 0.87184 0.0
H498 H 0.70127 0.56342 0.35321 0.0
H499 H 0.63719 0.64699 0.37522 0.0
H500 H 0.59817 0.63754 0.30112 0.0
H501 H 0.69965 0.57278 0.23158 0.0
H502 H 0.69585 0.53077 0.2198 0.0
H503 H 0.71866 0.54443 0.27408 0.0
H504 H 0.67511 0.51069 0.31694 0.0
H505 H 0.65276 0.49638 0.26288 0.0
H506 H 0.62634 0.51532 0.30257 0.0
H507 H 0.56594 0.61797 0.22367 0.0
H508 H 0.53995 0.58701 0.15528 0.0
H509 H 0.62626 0.51707 0.18534 0.0
C510 C 0.67884 0.57952 0.34237 0.0
C511 C 0.67183 0.60576 0.36953 0.0
C512 C 0.64257 0.62662 0.35458 0.0
C513 C 0.62053 0.62155 0.31255 0.0
C514 C 0.6284 0.59561 0.28596 0.0
C515 C 0.65668 0.5748 0.30062 0.0
C516 C 0.65891 0.5482 0.26666 0.0
C517 C 0.69544 0.54911 0.24686 0.0
C518 C 0.65291 0.51574 0.28857 0.0
C519 C 0.62728 0.55697 0.23083 0.0
C520 C 0.61015 0.58457 0.24205 0.0
C521 C 0.57934 0.59644 0.21445 0.0
C522 C 0.56497 0.57894 0.17542 0.0
C523 C 0.58128 0.54982 0.16491 0.0
C524 C 0.6134 0.53941 0.19234 0.0
H525 H 0.80593 0.09929 0.75353 0.0
H526 H 0.89113 0.0931 0.87 0.0
H527 H 0.93174 0.06715 0.82209 0.0
H528 H 0.82994 0.02425 0.69798 0.0
H529 H 0.82165 0.04021 0.64086 0.0
H530 H 0.79619 0.05505 0.68468 0.0
H531 H 0.81729 0.11251 0.67046 0.0
H532 H 0.84197 0.09789 0.62598 0.0
H533 H 0.86549 0.12071 0.67265 0.0
H534 H 0.96304 0.04048 0.76433 0.0
H535 H 0.99072 0.02891 0.69471 0.0
H536 H 0.89115 0.0592 0.61109 0.0
C537 C 0.83312 0.09247 0.76885 0.0
C538 C 0.84456 0.09716 0.81627 0.0
C539 C 0.8808 0.08847 0.83451 0.0
C540 C 0.90426 0.07366 0.80752 0.0
C541 C 0.89171 0.0681 0.76172 0.0
C542 C 0.85754 0.07806 0.74192 0.0
C543 C 0.85285 0.07177 0.69057 0.0
C544 C 0.82339 0.04633 0.67776 0.0
C545 C 0.84391 0.10257 0.66332 0.0
C546 C 0.89058 0.05884 0.68459 0.0
C547 C 0.91154 0.05524 0.7267 0.0
C548 C 0.94696 0.04317 0.7311 0.0
C549 C 0.96229 0.03625 0.69133 0.0
C550 C 0.94288 0.04259 0.6476 0.0
C551 C 0.90618 0.05333 0.64407 0.0
H552 H 0.33952 0.4926 0.31553 0.0
H553 H 0.30957 0.3944 0.28305 0.0
H554 H 0.33975 0.3976 0.21417 0.0
H555 H 0.33454 0.52194 0.19621 0.0
H556 H 0.37453 0.54657 0.20893 0.0
H557 H 0.34561 0.5389 0.25249 0.0
H558 H 0.40136 0.51734 0.30646 0.0
H559 H 0.43041 0.52515 0.26328 0.0
H560 H 0.42854 0.48574 0.28687 0.0
H561 H 0.37855 0.4082 0.15415 0.0
H562 H 0.42651 0.42522 0.10849 0.0
H563 H 0.43441 0.51594 0.17878 0.0
C564 C 0.33895 0.47179 0.29385 0.0
C565 C 0.32117 0.44343 0.30487 0.0
C566 C 0.32152 0.41687 0.27515 0.0
C567 C 0.33894 0.41831 0.2358 0.0
C568 C 0.35631 0.4464 0.22631 0.0
C569 C 0.35669 0.47267 0.25446 0.0
C570 C 0.38046 0.49883 0.23848 0.0
C571 C 0.3574 0.52831 0.22312 0.0
C572 C 0.41207 0.50725 0.276 0.0
C573 C 0.39434 0.48264 0.19797 0.0
C574 C 0.37942 0.45258 0.19126 0.0
C575 C 0.38989 0.43189 0.15843 0.0
C576 C 0.41704 0.44176 0.13259 0.0
C577 C 0.43337 0.47206 0.13947 0.0
C578 C 0.42136 0.49308 0.17188 0.0
H579 H 0.19815 0.99667 0.87743 0.0
H580 H 0.19609 0.8944 0.85762 0.0
H581 H 0.16073 0.90167 0.78111 0.0
H582 H 0.10774 0.01071 0.82932 0.0
H583 H 0.1172 0.04798 0.80313 0.0
H584 H 0.14578 0.03478 0.85379 0.0
H585 H 0.20303 0.0393 0.81165 0.0
H586 H 0.17459 0.05265 0.76081 0.0
H587 H 0.20396 0.01857 0.75827 0.0
H588 H 0.12089 0.92052 0.70816 0.0
H589 H 0.08127 0.94925 0.64686 0.0
H590 H 0.10895 0.03838 0.71728 0.0
C591 C 0.19052 0.97575 0.85698 0.0
C592 C 0.20004 0.94496 0.87369 0.0
C593 C 0.1897 0.91829 0.84542 0.0
C594 C 0.16939 0.92217 0.80194 0.0
C595 C 0.15974 0.95286 0.78704 0.0
C596 C 0.17022 0.97917 0.81373 0.0
C597 C 0.15499 0.00949 0.79119 0.0
C598 C 0.12994 0.02674 0.82114 0.0
C599 C 0.18599 0.03128 0.7798 0.0
C600 C 0.13345 0.99615 0.74824 0.0
C601 C 0.13675 0.96351 0.74593 0.0
C602 C 0.11835 0.94613 0.70954 0.0
C603 C 0.0959 0.96262 0.67489 0.0
C604 C 0.09176 0.99606 0.67725 0.0
C605 C 0.1112 0.0128 0.71436 0.0
loop_
_geom_bond_atom_site_label_1
_geom_bond_atom_site_label_2
_geom_bond_distance
_geom_bond_site_symmetry_2
_ccdc_geom_bond_type
C0 C1 1.391 . S
C0 C4 1.391 . S
C0 H42 0.948 . S
C1 C0 1.391 . S
C1 C2 1.391 . S
C2 C1 1.391 . S
C2 H58 0.947 . S
C2 C59 1.392 1_556 S
C3 C4 1.391 1_554 S
C3 C7 1.397 . S
C3 C59 1.419 . S
C4 C0 1.391 . S
C4 C3 1.391 1_556 S
C4 C5 1.399 . S
C5 C4 1.399 . S
C5 C8 1.396 1_556 S
C5 C17 1.453 . S
C5 C18 1.684 . S
H6 C30 0.948 . S
C7 C3 1.397 . S
C7 C8 1.394 . S
C7 C26 1.723 . S
C8 C5 1.396 1_554 S
C8 C7 1.394 . S
C8 C38 1.723 . S
H9 C32 0.947 . S
H10 C33 0.948 . S
H11 C39 0.982 . S
H12 C40 0.979 . S
H13 C40 0.980 . S
H14 C40 0.983 . S
H15 C39 0.979 . S
H16 C39 0.977 . S
C17 C5 1.453 . S
C17 H46 0.982 . S
C17 H47 0.979 . S
C17 H48 0.977 . S
C18 C5 1.684 . S
C18 H43 0.979 . S
C18 H44 0.980 . S
C18 H45 0.983 . S
C19 C20 1.391 . S
C19 C24 1.391 . S
C19 H49 0.948 . S
C20 C19 1.391 . S
C20 C21 1.391 . S
C21 C20 1.391 . S
C21 C22 1.392 . S
C21 H50 0.947 . S
C22 C21 1.392 . S
C22 C23 1.419 . S
C22 H51 0.948 . S
C23 C22 1.419 . S
C23 C24 1.391 . S
C23 C27 1.397 . S
C24 C19 1.391 . S
C24 C23 1.391 . S
C24 C25 1.399 . S
C25 C24 1.399 . S
C25 C26 1.396 . S
C25 C28 1.453 . S
C25 C29 1.684 . S
C26 C7 1.723 . S
C26 C25 1.396 . S
C26 C27 1.394 . S
C27 C23 1.397 . S
C27 C26 1.394 . S
C27 C37 1.723 . S
C28 C25 1.453 . S
C28 H52 0.982 . S
C28 H53 0.979 . S
C28 H54 0.977 . S
C29 C25 1.684 . S
C29 H55 0.979 . S
C29 H56 0.980 . S
C29 H57 0.983 . S
C30 H6 0.948 . S
C30 C31 1.391 . S
C30 C35 1.391 . S
C31 C30 1.391 . S
C31 C32 1.391 . S
C32 H9 0.947 . S
C32 C31 1.391 . S
C32 C33 1.392 . S
C33 H10 0.948 . S
C33 C32 1.392 . S
C33 C34 1.419 . S
C34 C33 1.419 . S
C34 C35 1.391 . S
C34 C38 1.397 . S
C35 C30 1.391 . S
C35 C34 1.391 . S
C35 C36 1.399 . S
C36 C35 1.399 . S
C36 C37 1.396 . S
C36 C39 1.453 . S
C36 C40 1.684 . S
C37 C27 1.723 . S
C37 C36 1.396 . S
C37 C38 1.394 . S
C38 C8 1.723 . S
C38 C34 1.397 . S
C38 C37 1.394 . S
C39 H11 0.982 . S
C39 H15 0.979 . S
C39 H16 0.977 . S
C39 C36 1.453 . S
C40 H12 0.979 . S
C40 H13 0.980 . S
C40 H14 0.983 . S
C40 C36 1.684 . S
H41 C59 0.948 . S
H42 C0 0.948 . S
H43 C18 0.979 . S
H44 C18 0.980 . S
H45 C18 0.983 . S
H46 C17 0.982 . S
H47 C17 0.979 . S
H48 C17 0.977 . S
H49 C19 0.948 . S
H50 C21 0.947 . S
H51 C22 0.948 . S
H52 C28 0.982 . S
H53 C28 0.979 . S
H54 C28 0.977 . S
H55 C29 0.979 . S
H56 C29 0.980 . S
H57 C29 0.983 . S
H58 C2 0.947 . S
C59 C2 1.392 1_554 S
C59 C3 1.419 . S
C59 H41 0.948 . S
C60 C61 1.391 . S
C60 C64 1.391 . S
C60 H102 0.948 . S
C61 C60 1.391 . S
C61 C62 1.391 . S
C62 C61 1.391 . S
C62 H118 0.947 . S
C62 C119 1.392 . S
C63 C64 1.391 . S
C63 C67 1.397 . S
C63 C119 1.419 . S
C64 C60 1.391 . S
C64 C63 1.391 . S
C64 C65 1.399 . S
C65 C64 1.399 . S
C65 C68 1.396 . S
C65 C77 1.453 . S
C65 C78 1.684 . S
H66 C90 0.948 . S
C67 C63 1.397 . S
C67 C68 1.394 . S
C67 C86 1.723 . S
C68 C65 1.396 . S
C68 C67 1.394 . S
C68 C98 1.723 . S
H69 C92 0.947 . S
H70 C93 0.948 . S
H71 C99 0.982 . S
H72 C100 0.979 . S
H73 C100 0.980 . S
H74 C100 0.983 . S
H75 C99 0.979 . S
H76 C99 0.977 . S
C77 C65 1.453 . S
C77 H106 0.982 . S
C77 H107 0.979 . S
C77 H108 0.977 . S
C78 C65 1.684 . S
C78 H103 0.979 . S
C78 H104 0.980 . S
C78 H105 0.983 . S
C79 C80 1.391 . S
C79 C84 1.391 . S
C79 H109 0.948 . S
C80 C79 1.391 . S
C80 C81 1.391 . S
C81 C80 1.391 . S
C81 C82 1.392 . S
C81 H110 0.947 . S
C82 C81 1.392 . S
C82 C83 1.419 . S
C82 H111 0.948 . S
C83 C82 1.419 . S
C83 C84 1.391 . S
C83 C87 1.397 . S
C84 C79 1.391 . S
C84 C83 1.391 . S
C84 C85 1.399 . S
C85 C84 1.399 . S
C85 C86 1.396 . S
C85 C88 1.453 . S
C85 C89 1.684 . S
C86 C67 1.723 . S
C86 C85 1.396 . S
C86 C87 1.394 . S
C87 C83 1.397 . S
C87 C86 1.394 . S
C87 C97 1.723 . S
C88 C85 1.453 . S
C88 H112 0.982 . S
C88 H113 0.979 . S
C88 H114 0.977 . S
C89 C85 1.684 . S
C89 H115 0.979 . S
C89 H116 0.980 . S
C89 H117 0.983 . S
C90 H66 0.948 . S
C90 C91 1.391 . S
C90 C95 1.391 . S
C91 C90 1.391 . S
C91 C92 1.391 . S
C92 H69 0.947 . S
C92 C91 1.391 . S
C92 C93 1.392 . S
C93 H70 0.948 . S
C93 C92 1.392 . S
C93 C94 1.419 . S
C94 C93 1.419 . S
C94 C95 1.391 . S
C94 C98 1.397 . S
C95 C90 1.391 . S
C95 C94 1.391 . S
C95 C96 1.399 . S
C96 C95 1.399 . S
C96 C97 1.396 . S
C96 C99 1.453 . S
C96 C100 1.684 . S
C97 C87 1.723 . S
C97 C96 1.396 . S
C97 C98 1.394 . S
C98 C68 1.723 . S
C98 C94 1.397 . S
C98 C97 1.394 . S
C99 H71 0.982 . S
C99 H75 0.979 . S
C99 H76 0.977 . S
C99 C96 1.453 . S
C100 H72 0.979 . S
C100 H73 0.980 . S
C100 H74 0.983 . S
C100 C96 1.684 . S
H101 C119 0.948 . S
H102 C60 0.948 . S
H103 C78 0.979 . S
H104 C78 0.980 . S
H105 C78 0.983 . S
H106 C77 0.982 . S
H107 C77 0.979 . S
H108 C77 0.977 . S
H109 C79 0.948 . S
H110 C81 0.947 . S
H111 C82 0.948 . S
H112 C88 0.982 . S
H113 C88 0.979 . S
H114 C88 0.977 . S
H115 C89 0.979 . S
H116 C89 0.980 . S
H117 C89 0.983 . S
H118 C62 0.947 . S
C119 C62 1.392 . S
C119 C63 1.419 . S
C119 H101 0.948 . S
C120 C121 1.391 . S
C120 C124 1.391 . S
C120 H162 0.948 . S
C121 C120 1.391 . S
C121 C122 1.391 . S
C122 C121 1.391 . S
C122 H178 0.947 . S
C122 C179 1.392 . S
C123 C124 1.391 . S
C123 C127 1.397 . S
C123 C179 1.419 . S
C124 C120 1.391 . S
C124 C123 1.391 . S
C124 C125 1.399 . S
C125 C124 1.399 . S
C125 C128 1.396 . S
C125 C137 1.453 . S
C125 C138 1.684 . S
H126 C150 0.948 . S
C127 C123 1.397 . S
C127 C128 1.394 . S
C127 C146 1.723 1_554 S
C128 C125 1.396 . S
C128 C127 1.394 . S
C128 C158 1.723 . S
H129 C152 0.947 . S
H130 C153 0.948 . S
H131 C159 0.982 . S
H132 C160 0.979 . S
H133 C160 0.980 . S
H134 C160 0.983 . S
H135 C159 0.979 . S
H136 C159 0.977 . S
C137 C125 1.453 . S
C137 H166 0.982 . S
C137 H167 0.979 . S
C137 H168 0.977 . S
C138 C125 1.684 . S
C138 H163 0.979 . S
C138 H164 0.980 . S
C138 H165 0.983 . S
C139 C140 1.391 . S
C139 C144 1.391 . S
C139 H169 0.948 . S
C140 C139 1.391 . S
C140 C141 1.391 . S
C141 C140 1.391 . S
C141 C142 1.392 . S
C141 H170 0.947 . S
C142 C141 1.392 . S
C142 C143 1.419 . S
C142 H171 0.948 . S
C143 C142 1.419 . S
C143 C144 1.391 . S
C143 C147 1.397 . S
C144 C139 1.391 . S
C144 C143 1.391 . S
C144 C145 1.399 . S
C145 C144 1.399 . S
C145 C146 1.396 . S
C145 C148 1.453 . S
C145 C149 1.684 . S
C146 C127 1.723 1_556 S
C146 C145 1.396 . S
C146 C147 1.394 . S
C147 C143 1.397 . S
C147 C146 1.394 . S
C147 C157 1.723 . S
C148 C145 1.453 . S
C148 H172 0.982 . S
C148 H173 0.979 . S
C148 H174 0.977 1_556 S
C149 C145 1.684 . S
C149 H175 0.979 . S
C149 H176 0.980 1_556 S
C149 H177 0.983 . S
C150 H126 0.948 . S
C150 C151 1.395 . S
C150 C155 1.391 . S
C151 C150 1.395 . S
C151 C152 1.387 1_556 S
C152 H129 0.947 . S
C152 C151 1.387 1_554 S
C152 C153 1.392 . S
C153 H130 0.948 . S
C153 C152 1.392 . S
C153 C154 1.419 . S
C154 C153 1.419 . S
C154 C155 1.391 1_554 S
C154 C158 1.397 . S
C155 C150 1.391 . S
C155 C154 1.391 1_556 S
C155 C156 1.399 . S
C156 C155 1.399 . S
C156 C157 1.396 . S
C156 C159 1.453 . S
C156 C160 1.684 . S
C157 C147 1.723 . S
C157 C156 1.396 . S
C157 C158 1.394 1_556 S
C158 C128 1.723 . S
C158 C154 1.397 . S
C158 C157 1.394 1_554 S
C159 H131 0.982 . S
C159 H135 0.979 . S
C159 H136 0.977 . S
C159 C156 1.453 . S
C160 H132 0.979 . S
C160 H133 0.980 . S
C160 H134 0.983 . S
C160 C156 1.684 . S
H161 C179 0.948 . S
H162 C120 0.948 . S
H163 C138 0.979 . S
H164 C138 0.980 . S
H165 C138 0.983 . S
H166 C137 0.982 . S
H167 C137 0.979 . S
H168 C137 0.977 . S
H169 C139 0.948 . S
H170 C141 0.947 . S
H171 C142 0.948 . S
H172 C148 0.982 . S
H173 C148 0.979 . S
H174 C148 0.977 1_554 S
H175 C149 0.979 . S
H176 C149 0.980 1_554 S
H177 C149 0.983 . S
H178 C122 0.947 . S
C179 C122 1.392 . S
C179 C123 1.419 . S
C179 H161 0.948 . S
C180 C181 1.391 . S
C180 C184 1.391 . S
C180 H222 0.948 . S
C181 C180 1.391 . S
C181 C182 1.391 . S
C182 C181 1.391 . S
C182 H238 0.947 . S
C182 C239 1.392 . S
C183 C184 1.391 . S
C183 C187 1.397 . S
C183 C239 1.419 . S
C184 C180 1.391 . S
C184 C183 1.391 . S
C184 C185 1.399 . S
C185 C184 1.399 . S
C185 C188 1.396 . S
C185 C197 1.453 . S
C185 C198 1.684 . S
H186 C210 0.948 . S
C187 C183 1.397 . S
C187 C188 1.394 . S
C187 C206 1.723 . S
C188 C185 1.396 . S
C188 C187 1.394 . S
C188 C218 1.723 . S
H189 C212 0.947 . S
H190 C213 0.948 . S
H191 C219 0.982 . S
H192 C220 0.979 . S
H193 C220 0.980 . S
H194 C220 0.983 . S
H195 C219 0.979 . S
H196 C219 0.977 . S
C197 C185 1.453 . S
C197 H226 0.982 . S
C197 H227 0.979 . S
C197 H228 0.977 . S
C198 C185 1.684 . S
C198 H223 0.979 . S
C198 H224 0.980 . S
C198 H225 0.983 . S
C199 C200 1.391 . S
C199 C204 1.391 . S
C199 H229 0.948 . S
C200 C199 1.391 . S
C200 C201 1.391 . S
C201 C200 1.391 . S
C201 C202 1.392 . S
C201 H230 0.947 . S
C202 C201 1.392 . S
C202 C203 1.419 . S
C202 H231 0.948 . S
C203 C202 1.419 . S
C203 C204 1.391 . S
C203 C207 1.397 . S
C204 C199 1.391 . S
C204 C203 1.391 . S
C204 C205 1.399 . S
C205 C204 1.399 . S
C205 C206 1.396 . S
C205 C208 1.453 . S
C205 C209 1.684 . S
C206 C187 1.723 . S
C206 C205 1.396 . S
C206 C207 1.394 . S
C207 C203 1.397 . S
C207 C206 1.394 . S
C207 C217 1.723 . S
C208 C205 1.453 . S
C208 H232 0.982 . S
C208 H233 0.979 . S
C208 H234 0.977 . S
C209 C205 1.684 . S
C209 H235 0.979 . S
C209 H236 0.980 . S
C209 H237 0.983 . S
C210 H186 0.948 . S
C210 C211 1.391 . S
C210 C215 1.391 . S
C211 C210 1.391 . S
C211 C212 1.391 . S
C212 H189 0.947 . S
C212 C211 1.391 . S
C212 C213 1.392 . S
C213 H190 0.948 . S
C213 C212 1.392 . S
C213 C214 1.419 . S
C214 C213 1.419 . S
C214 C215 1.391 . S
C214 C218 1.397 . S
C215 C210 1.391 . S
C215 C214 1.391 . S
C215 C216 1.399 . S
C216 C215 1.399 . S
C216 C217 1.396 . S
C216 C219 1.453 . S
C216 C220 1.684 . S
C217 C207 1.723 . S
C217 C216 1.396 . S
C217 C218 1.394 . S
C218 C188 1.723 . S
C218 C214 1.397 . S
C218 C217 1.394 . S
C219 H191 0.982 . S
C219 H195 0.979 . S
C219 H196 0.977 . S
C219 C216 1.453 . S
C220 H192 0.979 . S
C220 H193 0.980 . S
C220 H194 0.983 . S
C220 C216 1.684 . S
H221 C239 0.948 . S
H222 C180 0.948 . S
H223 C198 0.979 . S
H224 C198 0.980 . S
H225 C198 0.983 . S
H226 C197 0.982 . S
H227 C197 0.979 . S
H228 C197 0.977 . S
H229 C199 0.948 . S
H230 C201 0.947 . S
H231 C202 0.948 . S
H232 C208 0.982 . S
H233 C208 0.979 . S
H234 C208 0.977 . S
H235 C209 0.979 . S
H236 C209 0.980 . S
H237 C209 0.983 . S
H238 C182 0.947 . S
C239 C182 1.392 . S
C239 C183 1.419 . S
C239 H221 0.948 . S
O240 Mn241 2.163 1_655 S
O240 C254 1.244 . S
Mn241 O240 2.163 1_455 S
Mn241 O244 2.160 1_545 S
Mn241 O245 2.221 . S
Mn241 O247 2.163 1_455 S
Mn241 O249 2.160 1_545 S
Mn241 O259 2.221 1_445 S
O242 Mn243 2.087 1_545 S
O242 C254 1.256 . S
Mn243 O242 2.087 1_565 S
Mn243 O250 2.089 1_655 S
Mn243 O259 2.290 . S
Mn243 O260 2.251 . S
O244 Mn241 2.160 1_565 S
O244 C255 1.239 . S
O245 Mn241 2.221 . S
O245 Mn246 2.290 . S
O245 C256 1.278 . S
Mn246 O245 2.290 . S
Mn246 O248 2.089 . S
Mn246 O251 2.251 . S
Mn246 O252 2.087 1_455 S
O247 Mn241 2.163 1_655 S
O247 C257 1.244 . S
O248 Mn246 2.089 . S
O248 C255 1.256 1_545 S
O249 Mn241 2.160 1_565 S
O249 C258 1.239 . S
O250 Mn243 2.089 1_455 S
O250 C258 1.256 . S
O251 Mn246 2.251 . S
O251 C256 1.241 . S
O252 Mn246 2.087 1_655 S
O252 C257 1.256 . S
C253 O259 1.278 . S
C253 O260 1.241 . S
C254 O240 1.244 . S
C254 O242 1.256 . S
C255 O244 1.239 . S
C255 O248 1.256 1_565 S
C256 O245 1.278 . S
C256 O251 1.241 . S
C257 O247 1.244 . S
C257 O252 1.256 . S
C258 O249 1.239 . S
C258 O250 1.256 . S
O259 Mn241 2.221 1_665 S
O259 Mn243 2.290 . S
O259 C253 1.278 . S
O260 Mn243 2.251 . S
O260 C253 1.241 . S
O261 Mn262 2.163 . S
O261 C275 1.244 . S
Mn262 O261 2.163 . S
Mn262 O265 2.160 1_554 S
Mn262 O266 2.221 . S
Mn262 O268 2.163 1_554 S
Mn262 O270 2.160 . S
Mn262 O280 2.221 . S
O263 Mn264 2.087 . S
O263 C275 1.256 . S
Mn264 O263 2.087 . S
Mn264 O271 2.089 . S
Mn264 O280 2.290 . S
Mn264 O281 2.251 . S
O265 Mn262 2.160 1_556 S
O265 C276 1.239 . S
O266 Mn262 2.221 . S
O266 Mn267 2.290 1_554 S
O266 C277 1.278 . S
Mn267 O266 2.290 1_556 S
Mn267 O269 2.089 . S
Mn267 O272 2.251 1_556 S
Mn267 O273 2.087 . S
O268 Mn262 2.163 1_556 S
O268 C278 1.244 . S
O269 Mn267 2.089 . S
O269 C276 1.256 . S
O270 Mn262 2.160 . S
O270 C279 1.239 . S
O271 Mn264 2.089 . S
O271 C279 1.256 . S
O272 Mn267 2.251 1_554 S
O272 C277 1.241 . S
O273 Mn267 2.087 . S
O273 C278 1.256 . S
C274 O280 1.278 . S
C274 O281 1.241 . S
C275 O261 1.244 . S
C275 O263 1.256 . S
C276 O265 1.239 . S
C276 O269 1.256 . S
C277 O266 1.278 . S
C277 O272 1.241 . S
C278 O268 1.244 . S
C278 O273 1.256 . S
C279 O270 1.239 . S
C279 O271 1.256 . S
O280 Mn262 2.221 . S
O280 Mn264 2.290 . S
O280 C274 1.278 . S
O281 Mn264 2.251 . S
O281 C274 1.241 . S
H282 C294 0.930 . S
H283 C296 0.930 . S
H284 C297 0.930 . S
H285 C301 0.959 . S
H286 C301 0.959 . S
H287 C301 0.961 . S
H288 C302 0.960 . S
H289 C302 0.961 . S
H290 C302 0.959 . S
H291 C305 0.929 . S
H292 C306 0.931 . S
H293 C308 0.930 . S
C294 H282 0.930 . S
C294 C295 1.399 . S
C294 C299 1.399 . S
C295 C294 1.399 . S
C295 C296 1.376 . S
C296 H283 0.930 . S
C296 C295 1.376 . S
C296 C297 1.388 . S
C297 H284 0.930 . S
C297 C296 1.388 . S
C297 C298 1.390 . S
C298 C297 1.390 . S
C298 C299 1.394 . S
C298 C304 1.465 . S
C299 C294 1.399 . S
C299 C298 1.394 . S
C299 C300 1.516 . S
C300 C299 1.516 . S
C300 C301 1.502 . S
C300 C302 1.561 . S
C300 C303 1.526 . S
C301 H285 0.959 . S
C301 H286 0.959 . S
C301 H287 0.961 . S
C301 C300 1.502 . S
C302 H288 0.960 . S
C302 H289 0.961 . S
C302 H290 0.959 . S
C302 C300 1.561 . S
C303 C300 1.526 . S
C303 C304 1.396 . S
C303 C308 1.390 . S
C304 C298 1.465 . S
C304 C303 1.396 . S
C304 C305 1.399 . S
C305 H291 0.929 . S
C305 C304 1.399 . S
C305 C306 1.385 . S
C306 H292 0.931 . S
C306 C305 1.385 . S
C306 C307 1.389 . S
C307 C306 1.389 . S
C307 C308 1.387 . S
C308 H293 0.930 . S
C308 C303 1.390 . S
C308 C307 1.387 . S
H309 C321 0.930 . S
H310 C323 0.930 . S
H311 C324 0.930 . S
H312 C328 0.959 . S
H313 C328 0.959 . S
H314 C328 0.961 . S
H315 C329 0.960 . S
H316 C329 0.961 . S
H317 C329 0.959 . S
H318 C332 0.929 . S
H319 C333 0.931 . S
H320 C335 0.930 . S
C321 H309 0.930 . S
C321 C322 1.399 . S
C321 C326 1.399 . S
C322 C321 1.399 . S
C322 C323 1.376 . S
C323 H310 0.930 . S
C323 C322 1.376 . S
C323 C324 1.388 . S
C324 H311 0.930 . S
C324 C323 1.388 . S
C324 C325 1.390 . S
C325 C324 1.390 . S
C325 C326 1.394 . S
C325 C331 1.465 . S
C326 C321 1.399 . S
C326 C325 1.394 . S
C326 C327 1.516 . S
C327 C326 1.516 . S
C327 C328 1.502 . S
C327 C329 1.561 . S
C327 C330 1.526 . S
C328 H312 0.959 . S
C328 H313 0.959 . S
C328 H314 0.961 . S
C328 C327 1.502 . S
C329 H315 0.960 . S
C329 H316 0.961 . S
C329 H317 0.959 . S
C329 C327 1.561 . S
C330 C327 1.526 . S
C330 C331 1.396 . S
C330 C335 1.390 . S
C331 C325 1.465 . S
C331 C330 1.396 . S
C331 C332 1.399 . S
C332 H318 0.929 . S
C332 C331 1.399 . S
C332 C333 1.385 . S
C333 H319 0.931 . S
C333 C332 1.385 . S
C333 C334 1.389 . S
C334 C333 1.389 . S
C334 C335 1.387 . S
C335 H320 0.930 . S
C335 C330 1.390 . S
C335 C334 1.387 . S
H336 C348 0.930 . S
H337 C350 0.930 . S
H338 C351 0.930 . S
H339 C355 0.959 . S
H340 C355 0.959 . S
H341 C355 0.961 . S
H342 C356 0.960 . S
H343 C356 0.961 . S
H344 C356 0.959 . S
H345 C359 0.929 . S
H346 C360 0.931 . S
H347 C362 0.930 . S
C348 H336 0.930 . S
C348 C349 1.399 . S
C348 C353 1.399 . S
C349 C348 1.399 . S
C349 C350 1.376 . S
C350 H337 0.930 . S
C350 C349 1.376 . S
C350 C351 1.388 . S
C351 H338 0.930 . S
C351 C350 1.388 . S
C351 C352 1.390 . S
C352 C351 1.390 . S
C352 C353 1.394 . S
C352 C358 1.465 . S
C353 C348 1.399 . S
C353 C352 1.394 . S
C353 C354 1.516 . S
C354 C353 1.516 . S
C354 C355 1.502 . S
C354 C356 1.561 . S
C354 C357 1.526 . S
C355 H339 0.959 . S
C355 H340 0.959 . S
C355 H341 0.961 . S
C355 C354 1.502 . S
C356 H342 0.960 . S
C356 H343 0.961 . S
C356 H344 0.959 . S
C356 C354 1.561 . S
C357 C354 1.526 . S
C357 C358 1.396 . S
C357 C362 1.390 . S
C358 C352 1.465 . S
C358 C357 1.396 . S
C358 C359 1.399 . S
C359 H345 0.929 . S
C359 C358 1.399 . S
C359 C360 1.385 . S
C360 H346 0.931 . S
C360 C359 1.385 . S
C360 C361 1.389 . S
C361 C360 1.389 . S
C361 C362 1.387 . S
C362 H347 0.930 . S
C362 C357 1.390 . S
C362 C361 1.387 . S
H363 C375 0.930 . S
H364 C377 0.930 . S
H365 C378 0.930 . S
H366 C382 0.959 . S
H367 C382 0.959 . S
H368 C382 0.961 . S
H369 C383 0.960 . S
H370 C383 0.961 . S
H371 C383 0.959 . S
H372 C386 0.929 . S
H373 C387 0.931 . S
H374 C389 0.930 . S
C375 H363 0.930 . S
C375 C376 1.403 . S
C375 C380 1.399 . S
C376 C375 1.403 . S
C376 C377 1.370 1_556 S
C377 H364 0.930 . S
C377 C376 1.370 1_554 S
C377 C378 1.388 . S
C378 H365 0.930 . S
C378 C377 1.388 . S
C378 C379 1.390 . S
C379 C378 1.390 . S
C379 C380 1.394 1_554 S
C379 C385 1.465 . S
C380 C375 1.399 . S
C380 C379 1.394 1_556 S
C380 C381 1.516 . S
C381 C380 1.516 . S
C381 C382 1.502 . S
C381 C383 1.561 . S
C381 C384 1.526 . S
C382 H366 0.959 . S
C382 H367 0.959 . S
C382 H368 0.961 . S
C382 C381 1.502 . S
C383 H369 0.960 . S
C383 H370 0.961 . S
C383 H371 0.959 . S
C383 C381 1.561 . S
C384 C381 1.526 . S
C384 C385 1.396 1_556 S
C384 C389 1.390 . S
C385 C379 1.465 . S
C385 C384 1.396 1_554 S
C385 C386 1.399 . S
C386 H372 0.929 . S
C386 C385 1.399 . S
C386 C387 1.385 . S
C387 H373 0.931 . S
C387 C386 1.385 . S
C387 C388 1.389 . S
C388 C387 1.389 . S
C388 C389 1.387 1_554 S
C389 H374 0.930 . S
C389 C384 1.390 . S
C389 C388 1.387 1_556 S
H390 C402 0.930 . S
H391 C404 0.930 . S
H392 C405 0.930 1_545 S
H393 C409 0.959 . S
H394 C409 0.959 . S
H395 C409 0.961 . S
H396 C410 0.960 . S
H397 C410 0.961 . S
H398 C410 0.959 . S
H399 C413 0.929 . S
H400 C414 0.931 . S
H401 C416 0.930 . S
C402 H390 0.930 . S
C402 C403 1.399 . S
C402 C407 1.399 . S
C403 C402 1.399 . S
C403 C404 1.376 . S
C404 H391 0.930 . S
C404 C403 1.376 . S
C404 C405 1.388 . S
C405 H392 0.930 1_565 S
C405 C404 1.388 . S
C405 C406 1.390 . S
C406 C405 1.390 . S
C406 C407 1.394 . S
C406 C412 1.465 . S
C407 C402 1.399 . S
C407 C406 1.394 . S
C407 C408 1.516 . S
C408 C407 1.516 . S
C408 C409 1.502 . S
C408 C410 1.561 . S
C408 C411 1.526 . S
C409 H393 0.959 . S
C409 H394 0.959 . S
C409 H395 0.961 . S
C409 C408 1.502 . S
C410 H396 0.960 . S
C410 H397 0.961 . S
C410 H398 0.959 . S
C410 C408 1.561 . S
C411 C408 1.526 . S
C411 C412 1.396 . S
C411 C416 1.390 . S
C412 C406 1.465 . S
C412 C411 1.396 . S
C412 C413 1.399 1_565 S
C413 H399 0.929 . S
C413 C412 1.399 1_545 S
C413 C414 1.385 . S
C414 H400 0.931 . S
C414 C413 1.385 . S
C414 C415 1.389 1_545 S
C415 C414 1.389 1_565 S
C415 C416 1.387 . S
C416 H401 0.930 . S
C416 C411 1.390 . S
C416 C415 1.387 . S
H417 C429 0.930 . S
H418 C431 0.930 . S
H419 C432 0.930 . S
H420 C436 0.959 . S
H421 C436 0.959 . S
H422 C436 0.961 . S
H423 C437 0.960 . S
H424 C437 0.961 . S
H425 C437 0.959 . S
H426 C440 0.929 . S
H427 C441 0.931 . S
H428 C443 0.930 . S
C429 H417 0.930 . S
C429 C430 1.399 . S
C429 C434 1.399 . S
C430 C429 1.399 . S
C430 C431 1.376 . S
C431 H418 0.930 . S
C431 C430 1.376 . S
C431 C432 1.388 . S
C432 H419 0.930 . S
C432 C431 1.388 . S
C432 C433 1.390 . S
C433 C432 1.390 . S
C433 C434 1.394 . S
C433 C439 1.465 . S
C434 C429 1.399 . S
C434 C433 1.394 . S
C434 C435 1.516 . S
C435 C434 1.516 . S
C435 C436 1.502 . S
C435 C437 1.561 . S
C435 C438 1.526 . S
C436 H420 0.959 . S
C436 H421 0.959 . S
C436 H422 0.961 . S
C436 C435 1.502 . S
C437 H423 0.960 . S
C437 H424 0.961 . S
C437 H425 0.959 . S
C437 C435 1.561 . S
C438 C435 1.526 . S
C438 C439 1.396 . S
C438 C443 1.390 . S
C439 C433 1.465 . S
C439 C438 1.396 . S
C439 C440 1.399 . S
C440 H426 0.929 . S
C440 C439 1.399 . S
C440 C441 1.385 . S
C441 H427 0.931 . S
C441 C440 1.385 . S
C441 C442 1.389 . S
C442 C441 1.389 . S
C442 C443 1.387 . S
C443 H428 0.930 . S
C443 C438 1.390 . S
C443 C442 1.387 . S
H444 C456 0.930 . S
H445 C458 0.930 . S
H446 C459 0.930 . S
H447 C463 0.959 . S
H448 C463 0.959 . S
H449 C463 0.961 . S
H450 C464 0.962 . S
H451 C464 0.964 . S
H452 C464 0.958 1_545 S
H453 C467 0.929 . S
H454 C468 0.931 . S
H455 C470 0.930 . S
C456 H444 0.930 . S
C456 C457 1.399 . S
C456 C461 1.399 . S
C457 C456 1.399 . S
C457 C458 1.376 . S
C458 H445 0.930 . S
C458 C457 1.376 . S
C458 C459 1.388 . S
C459 H446 0.930 . S
C459 C458 1.388 . S
C459 C460 1.390 . S
C460 C459 1.390 . S
C460 C461 1.394 . S
C460 C466 1.465 . S
C461 C456 1.399 . S
C461 C460 1.394 . S
C461 C462 1.516 . S
C462 C461 1.516 . S
C462 C463 1.502 . S
C462 C464 1.558 1_545 S
C462 C465 1.526 . S
C463 H447 0.959 . S
C463 H448 0.959 . S
C463 H449 0.961 . S
C463 C462 1.502 . S
C464 H450 0.962 . S
C464 H451 0.964 . S
C464 H452 0.958 1_565 S
C464 C462 1.558 1_565 S
C465 C462 1.526 . S
C465 C466 1.396 . S
C465 C470 1.390 . S
C466 C460 1.465 . S
C466 C465 1.396 . S
C466 C467 1.399 . S
C467 H453 0.929 . S
C467 C466 1.399 . S
C467 C468 1.385 . S
C468 H454 0.931 . S
C468 C467 1.385 . S
C468 C469 1.389 . S
C469 C468 1.389 . S
C469 C470 1.387 . S
C470 H455 0.930 . S
C470 C465 1.390 . S
C470 C469 1.387 . S
H471 C483 0.930 . S
H472 C485 0.930 . S
H473 C486 0.930 . S
H474 C490 0.959 . S
H475 C490 0.959 . S
H476 C490 0.961 . S
H477 C491 0.960 . S
H478 C491 0.961 . S
H479 C491 0.959 . S
H480 C494 0.929 . S
H481 C495 0.931 . S
H482 C497 0.930 . S
C483 H471 0.930 . S
C483 C484 1.399 . S
C483 C488 1.399 . S
C484 C483 1.399 . S
C484 C485 1.376 . S
C485 H472 0.930 . S
C485 C484 1.376 . S
C485 C486 1.388 . S
C486 H473 0.930 . S
C486 C485 1.388 . S
C486 C487 1.390 . S
C487 C486 1.390 . S
C487 C488 1.394 . S
C487 C493 1.465 . S
C488 C483 1.399 . S
C488 C487 1.394 . S
C488 C489 1.516 . S
C489 C488 1.516 . S
C489 C490 1.502 . S
C489 C491 1.561 . S
C489 C492 1.526 . S
C490 H474 0.959 . S
C490 H475 0.959 . S
C490 H476 0.961 . S
C490 C489 1.502 . S
C491 H477 0.960 . S
C491 H478 0.961 . S
C491 H479 0.959 . S
C491 C489 1.561 . S
C492 C489 1.526 . S
C492 C493 1.396 . S
C492 C497 1.390 . S
C493 C487 1.465 . S
C493 C492 1.396 . S
C493 C494 1.399 . S
C494 H480 0.929 . S
C494 C493 1.399 . S
C494 C495 1.385 . S
C495 H481 0.931 . S
C495 C494 1.385 . S
C495 C496 1.389 . S
C496 C495 1.389 . S
C496 C497 1.387 . S
C497 H482 0.930 . S
C497 C492 1.390 . S
C497 C496 1.387 . S
H498 C510 0.930 . S
H499 C512 0.930 . S
H500 C513 0.930 . S
H501 C517 0.959 . S
H502 C517 0.959 . S
H503 C517 0.961 . S
H504 C518 0.960 . S
H505 C518 0.961 . S
H506 C518 0.959 . S
H507 C521 0.929 . S
H508 C522 0.931 . S
H509 C524 0.930 . S
C510 H498 0.930 . S
C510 C511 1.399 . S
C510 C515 1.399 . S
C511 C510 1.399 . S
C511 C512 1.376 . S
C512 H499 0.930 . S
C512 C511 1.376 . S
C512 C513 1.388 . S
C513 H500 0.930 . S
C513 C512 1.388 . S
C513 C514 1.390 . S
C514 C513 1.390 . S
C514 C515 1.394 . S
C514 C520 1.465 . S
C515 C510 1.399 . S
C515 C514 1.394 . S
C515 C516 1.516 . S
C516 C515 1.516 . S
C516 C517 1.502 . S
C516 C518 1.561 . S
C516 C519 1.526 . S
C517 H501 0.959 . S
C517 H502 0.959 . S
C517 H503 0.961 . S
C517 C516 1.502 . S
C518 H504 0.960 . S
C518 H505 0.961 . S
C518 H506 0.959 . S
C518 C516 1.561 . S
C519 C516 1.526 . S
C519 C520 1.396 . S
C519 C524 1.390 . S
C520 C514 1.465 . S
C520 C519 1.396 . S
C520 C521 1.399 . S
C521 H507 0.929 . S
C521 C520 1.399 . S
C521 C522 1.385 . S
C522 H508 0.931 . S
C522 C521 1.385 . S
C522 C523 1.389 . S
C523 C522 1.389 . S
C523 C524 1.387 . S
C524 H509 0.930 . S
C524 C519 1.390 . S
C524 C523 1.387 . S
H525 C537 0.930 . S
H526 C539 0.930 . S
H527 C540 0.930 . S
H528 C544 0.959 . S
H529 C544 0.959 . S
H530 C544 0.961 . S
H531 C545 0.960 . S
H532 C545 0.961 . S
H533 C545 0.959 . S
H534 C548 0.929 . S
H535 C549 0.931 . S
H536 C551 0.930 . S
C537 H525 0.930 . S
C537 C538 1.399 . S
C537 C542 1.399 . S
C538 C537 1.399 . S
C538 C539 1.376 . S
C539 H526 0.930 . S
C539 C538 1.376 . S
C539 C540 1.388 . S
C540 H527 0.930 . S
C540 C539 1.388 . S
C540 C541 1.390 . S
C541 C540 1.390 . S
C541 C542 1.394 . S
C541 C547 1.465 . S
C542 C537 1.399 . S
C542 C541 1.394 . S
C542 C543 1.516 . S
C543 C542 1.516 . S
C543 C544 1.502 . S
C543 C545 1.561 . S
C543 C546 1.526 . S
C544 H528 0.959 . S
C544 H529 0.959 . S
C544 H530 0.961 . S
C544 C543 1.502 . S
C545 H531 0.960 . S
C545 H532 0.961 . S
C545 H533 0.959 . S
C545 C543 1.561 . S
C546 C543 1.526 . S
C546 C547 1.396 . S
C546 C551 1.390 . S
C547 C541 1.465 . S
C547 C546 1.396 . S
C547 C548 1.399 . S
C548 H534 0.929 . S
C548 C547 1.399 . S
C548 C549 1.385 . S
C549 H535 0.931 . S
C549 C548 1.385 . S
C549 C550 1.389 . S
C550 C549 1.389 . S
C550 C551 1.387 . S
C551 H536 0.930 . S
C551 C546 1.390 . S
C551 C550 1.387 . S
H552 C564 0.930 . S
H553 C566 0.930 . S
H554 C567 0.930 . S
H555 C571 0.959 . S
H556 C571 0.959 . S
H557 C571 0.961 . S
H558 C572 0.960 . S
H559 C572 0.961 . S
H560 C572 0.959 . S
H561 C575 0.929 . S
H562 C576 0.931 . S
H563 C578 0.930 . S
C564 H552 0.930 . S
C564 C565 1.399 . S
C564 C569 1.399 . S
C565 C564 1.399 . S
C565 C566 1.376 . S
C566 H553 0.930 . S
C566 C565 1.376 . S
C566 C567 1.388 . S
C567 H554 0.930 . S
C567 C566 1.388 . S
C567 C568 1.390 . S
C568 C567 1.390 . S
C568 C569 1.394 . S
C568 C574 1.465 . S
C569 C564 1.399 . S
C569 C568 1.394 . S
C569 C570 1.516 . S
C570 C569 1.516 . S
C570 C571 1.502 . S
C570 C572 1.561 . S
C570 C573 1.526 . S
C571 H555 0.959 . S
C571 H556 0.959 . S
C571 H557 0.961 . S
C571 C570 1.502 . S
C572 H558 0.960 . S
C572 H559 0.961 . S
C572 H560 0.959 . S
C572 C570 1.561 . S
C573 C570 1.526 . S
C573 C574 1.396 . S
C573 C578 1.390 . S
C574 C568 1.465 . S
C574 C573 1.396 . S
C574 C575 1.399 . S
C575 H561 0.929 . S
C575 C574 1.399 . S
C575 C576 1.385 . S
C576 H562 0.931 . S
C576 C575 1.385 . S
C576 C577 1.389 . S
C577 C576 1.389 . S
C577 C578 1.387 . S
C578 H563 0.930 . S
C578 C573 1.390 . S
C578 C577 1.387 . S
H579 C591 0.930 1_545 S
H580 C593 0.930 . S
H581 C594 0.930 . S
H582 C598 0.959 . S
H583 C598 0.959 . S
H584 C598 0.961 . S
H585 C599 0.960 . S
H586 C599 0.961 . S
H587 C599 0.959 . S
H588 C602 0.929 . S
H589 C603 0.931 . S
H590 C605 0.930 1_545 S
C591 H579 0.930 1_565 S
C591 C592 1.399 . S
C591 C596 1.399 . S
C592 C591 1.399 . S
C592 C593 1.376 . S
C593 H580 0.930 . S
C593 C592 1.376 . S
C593 C594 1.388 . S
C594 H581 0.930 . S
C594 C593 1.388 . S
C594 C595 1.390 . S
C595 C594 1.390 . S
C595 C596 1.394 . S
C595 C601 1.465 . S
C596 C591 1.399 . S
C596 C595 1.394 . S
C596 C597 1.516 1_565 S
C597 C596 1.516 1_545 S
C597 C598 1.502 . S
C597 C599 1.561 . S
C597 C600 1.526 1_545 S
C598 H582 0.959 . S
C598 H583 0.959 . S
C598 H584 0.961 . S
C598 C597 1.502 . S
C599 H585 0.960 . S
C599 H586 0.961 . S
C599 H587 0.959 . S
C599 C597 1.561 . S
C600 C597 1.526 1_565 S
C600 C601 1.396 . S
C600 C605 1.390 . S
C601 C595 1.465 . S
C601 C600 1.396 . S
C601 C602 1.399 . S
C602 H588 0.929 . S
C602 C601 1.399 . S
C602 C603 1.385 . S
C603 H589 0.931 . S
C603 C602 1.385 . S
C603 C604 1.389 . S
C604 C603 1.389 . S
C604 C605 1.387 . S
C605 H590 0.930 1_565 S
C605 C600 1.390 . S
C605 C604 1.387 . S
C307 C256 1.302 . S
C295 C211 1.532 . S
C322 C31 1.415 . S
C334 C277 1.357 . S
C349 C91 1.656 . S
C361 C253 1.416 . S
C376 C151 1.631 . S
C388 C274 1.415 . S
C415 C258 1.660 . S
C403 C20 1.631 . S
C442 C278 1.547 . S
C430 C61 1.510 . S
C457 C121 1.553 . S
C469 C254 1.552 . S
C484 C200 1.610 . S
C496 C276 1.580 . S
C523 C275 1.547 . S
C511 C80 1.512 . S
C550 C257 1.549 . S
C538 C140 1.612 . S
C577 C279 1.631 . S
C565 C181 1.616 . S
C592 C1 1.561 . S
C604 C255 1.596 . S
