# Generated by pormake.
# Topology ctn, (3,4)-cn, num edge types: 1
# Building blocks:
#     Node 0, Type 0, BuildingBlock: CUQRIR_clean_linker_1, # of connection points: 3
#     Node 1, Type 0, BuildingBlock: CUQRIR_clean_linker_1, # of connection points: 3
#     Node 2, Type 0, BuildingBlock: CUQRIR_clean_linker_1, # of connection points: 3
#     Node 3, Type 0, BuildingBlock: CUQRIR_clean_linker_1, # of connection points: 3
#     Node 4, Type 0, BuildingBlock: CUQRIR_clean_linker_1, # of connection points: 3
#     Node 5, Type 0, BuildingBlock: CUQRIR_clean_linker_1, # of connection points: 3
#     Node 6, Type 0, BuildingBlock: CUQRIR_clean_linker_1, # of connection points: 3
#     Node 7, Type 0, BuildingBlock: CUQRIR_clean_linker_1, # of connection points: 3
#     Node 8, Type 0, BuildingBlock: CUQRIR_clean_linker_1, # of connection points: 3
#     Node 9, Type 0, BuildingBlock: CUQRIR_clean_linker_1, # of connection points: 3
#     Node 10, Type 0, BuildingBlock: CUQRIR_clean_linker_1, # of connection points: 3
#     Node 11, Type 0, BuildingBlock: CUQRIR_clean_linker_1, # of connection points: 3
#     Node 12, Type 0, BuildingBlock: CUQRIR_clean_linker_1, # of connection points: 3
#     Node 13, Type 0, BuildingBlock: CUQRIR_clean_linker_1, # of connection points: 3
#     Node 14, Type 0, BuildingBlock: CUQRIR_clean_linker_1, # of connection points: 3
#     Node 15, Type 0, BuildingBlock: CUQRIR_clean_linker_1, # of connection points: 3
#     Node 16, Type 1, BuildingBlock: TATPOV_clean_sbu_0, # of connection points: 4
#     Node 17, Type 1, BuildingBlock: TATPOV_clean_sbu_0, # of connection points: 4
#     Node 18, Type 1, BuildingBlock: TATPOV_clean_sbu_0, # of connection points: 4
#     Node 19, Type 1, BuildingBlock: TATPOV_clean_sbu_0, # of connection points: 4
#     Node 20, Type 1, BuildingBlock: TATPOV_clean_sbu_0, # of connection points: 4
#     Node 21, Type 1, BuildingBlock: TATPOV_clean_sbu_0, # of connection points: 4
#     Node 22, Type 1, BuildingBlock: TATPOV_clean_sbu_0, # of connection points: 4
#     Node 23, Type 1, BuildingBlock: TATPOV_clean_sbu_0, # of connection points: 4
#     Node 24, Type 1, BuildingBlock: TATPOV_clean_sbu_0, # of connection points: 4
#     Node 25, Type 1, BuildingBlock: TATPOV_clean_sbu_0, # of connection points: 4
#     Node 26, Type 1, BuildingBlock: TATPOV_clean_sbu_0, # of connection points: 4
#     Node 27, Type 1, BuildingBlock: TATPOV_clean_sbu_0, # of connection points: 4
#     Edge 28, Type (0, 1), BuildingBlock: OJICUG_clean_linker_0, # of connection points: 2
#     Edge 29, Type (0, 1), BuildingBlock: OJICUG_clean_linker_0, # of connection points: 2
#     Edge 30, Type (0, 1), BuildingBlock: OJICUG_clean_linker_0, # of connection points: 2
#     Edge 31, Type (0, 1), BuildingBlock: OJICUG_clean_linker_0, # of connection points: 2
#     Edge 32, Type (0, 1), BuildingBlock: OJICUG_clean_linker_0, # of connection points: 2
#     Edge 33, Type (0, 1), BuildingBlock: OJICUG_clean_linker_0, # of connection points: 2
#     Edge 34, Type (0, 1), BuildingBlock: OJICUG_clean_linker_0, # of connection points: 2
#     Edge 35, Type (0, 1), BuildingBlock: OJICUG_clean_linker_0, # of connection points: 2
#     Edge 36, Type (0, 1), BuildingBlock: OJICUG_clean_linker_0, # of connection points: 2
#     Edge 37, Type (0, 1), BuildingBlock: OJICUG_clean_linker_0, # of connection points: 2
#     Edge 38, Type (0, 1), BuildingBlock: OJICUG_clean_linker_0, # of connection points: 2
#     Edge 39, Type (0, 1), BuildingBlock: OJICUG_clean_linker_0, # of connection points: 2
#     Edge 40, Type (0, 1), BuildingBlock: OJICUG_clean_linker_0, # of connection points: 2
#     Edge 41, Type (0, 1), BuildingBlock: OJICUG_clean_linker_0, # of connection points: 2
#     Edge 42, Type (0, 1), BuildingBlock: OJICUG_clean_linker_0, # of connection points: 2
#     Edge 43, Type (0, 1), BuildingBlock: OJICUG_clean_linker_0, # of connection points: 2
#     Edge 44, Type (0, 1), BuildingBlock: OJICUG_clean_linker_0, # of connection points: 2
#     Edge 45, Type (0, 1), BuildingBlock: OJICUG_clean_linker_0, # of connection points: 2
#     Edge 46, Type (0, 1), BuildingBlock: OJICUG_clean_linker_0, # of connection points: 2
#     Edge 47, Type (0, 1), BuildingBlock: OJICUG_clean_linker_0, # of connection points: 2
#     Edge 48, Type (0, 1), BuildingBlock: OJICUG_clean_linker_0, # of connection points: 2
#     Edge 49, Type (0, 1), BuildingBlock: OJICUG_clean_linker_0, # of connection points: 2
#     Edge 50, Type (0, 1), BuildingBlock: OJICUG_clean_linker_0, # of connection points: 2
#     Edge 51, Type (0, 1), BuildingBlock: OJICUG_clean_linker_0, # of connection points: 2
#     Edge 52, Type (0, 1), BuildingBlock: OJICUG_clean_linker_0, # of connection points: 2
#     Edge 53, Type (0, 1), BuildingBlock: OJICUG_clean_linker_0, # of connection points: 2
#     Edge 54, Type (0, 1), BuildingBlock: OJICUG_clean_linker_0, # of connection points: 2
#     Edge 55, Type (0, 1), BuildingBlock: OJICUG_clean_linker_0, # of connection points: 2
#     Edge 56, Type (0, 1), BuildingBlock: OJICUG_clean_linker_0, # of connection points: 2
#     Edge 57, Type (0, 1), BuildingBlock: OJICUG_clean_linker_0, # of connection points: 2
#     Edge 58, Type (0, 1), BuildingBlock: OJICUG_clean_linker_0, # of connection points: 2
#     Edge 59, Type (0, 1), BuildingBlock: OJICUG_clean_linker_0, # of connection points: 2
#     Edge 60, Type (0, 1), BuildingBlock: OJICUG_clean_linker_0, # of connection points: 2
#     Edge 61, Type (0, 1), BuildingBlock: OJICUG_clean_linker_0, # of connection points: 2
#     Edge 62, Type (0, 1), BuildingBlock: OJICUG_clean_linker_0, # of connection points: 2
#     Edge 63, Type (0, 1), BuildingBlock: OJICUG_clean_linker_0, # of connection points: 2
#     Edge 64, Type (0, 1), BuildingBlock: OJICUG_clean_linker_0, # of connection points: 2
#     Edge 65, Type (0, 1), BuildingBlock: OJICUG_clean_linker_0, # of connection points: 2
#     Edge 66, Type (0, 1), BuildingBlock: OJICUG_clean_linker_0, # of connection points: 2
#     Edge 67, Type (0, 1), BuildingBlock: OJICUG_clean_linker_0, # of connection points: 2
#     Edge 68, Type (0, 1), BuildingBlock: OJICUG_clean_linker_0, # of connection points: 2
#     Edge 69, Type (0, 1), BuildingBlock: OJICUG_clean_linker_0, # of connection points: 2
#     Edge 70, Type (0, 1), BuildingBlock: OJICUG_clean_linker_0, # of connection points: 2
#     Edge 71, Type (0, 1), BuildingBlock: OJICUG_clean_linker_0, # of connection points: 2
#     Edge 72, Type (0, 1), BuildingBlock: OJICUG_clean_linker_0, # of connection points: 2
#     Edge 73, Type (0, 1), BuildingBlock: OJICUG_clean_linker_0, # of connection points: 2
#     Edge 74, Type (0, 1), BuildingBlock: OJICUG_clean_linker_0, # of connection points: 2
#     Edge 75, Type (0, 1), BuildingBlock: OJICUG_clean_linker_0, # of connection points: 2
# Relax obj value: 0.088
# Max RMSD: 0.207
# Mean RMSD: 0.128
data_MOF--net-ctn--node1-TATPOV_clean_sbu_0--node2-CUQRIR_clean_linker_1--edge1-OJICUG_clean_linker_0
_symmetry_space_group_name_H-M    P1
_symmetry_Int_Tables_number       1
_symmetry_cell_setting            triclinic
loop_
_symmetry_equiv_pos_as_xyz
'x, y, z'
_cell_length_a     36.427735
_cell_length_b     33.508097
_cell_length_c     34.513244
_cell_angle_alpha  98.311978
_cell_angle_beta   89.806141
_cell_angle_gamma 94.382525
loop_
_atom_site_label
_atom_site_type_symbol
_atom_site_fract_x
_atom_site_fract_y
_atom_site_fract_z
_atom_type_partial_charge
C0 C 0.03575 0.9867 0.07524 0.0
N1 N 0.05428 1.00172 0.04564 0.0
N2 N 0.00274 1.00247 0.08074 0.0
C3 C 0.05003 0.9569 0.09917 0.0
C4 C 1.00144 0.02726 0.05326 0.0
N5 N 0.03245 0.02639 0.03134 0.0
C6 C 0.97039 0.0535 0.04864 0.0
H7 H 0.02748 0.94057 0.11351 0.0
H8 H 0.06869 0.97346 0.1224 0.0
H9 H 0.06583 0.93452 0.08053 0.0
H10 H 0.9503 0.05356 0.0728 0.0
H11 H 0.95554 0.04207 0.02077 0.0
H12 H 0.98158 0.08499 0.04712 0.0
C13 C 0.25942 0.73864 0.2394 0.0
N14 N 0.27265 0.72074 0.26873 0.0
N15 N 0.28178 0.77125 0.23332 0.0
C16 C 0.22555 0.7232 0.21525 0.0
C17 C 0.30907 0.77259 0.26025 0.0
N18 N 0.30328 0.74226 0.28217 0.0
C19 C 0.34291 0.80159 0.26316 0.0
H20 H 0.23359 0.70201 0.18943 0.0
H21 H 0.21237 0.74827 0.20451 0.0
H22 H 0.20512 0.707 0.23247 0.0
H23 H 0.34665 0.81701 0.2937 0.0
H24 H 0.34112 0.82484 0.24354 0.0
H25 H 0.36745 0.78445 0.25551 0.0
C26 C 0.97049 0.49193 0.09449 0.0
N27 N 0.99109 0.46045 0.09762 0.0
N28 N 0.94841 0.48373 0.06233 0.0
C29 C 0.96967 0.52914 0.12458 0.0
C30 C 0.95616 0.44598 0.04626 0.0
N31 N 0.98144 0.43151 0.06815 0.0
C32 C 0.94166 0.42461 0.00723 0.0
H33 H 0.94253 0.54209 0.12467 0.0
H34 H 0.99119 0.55219 0.11754 0.0
H35 H 0.97545 0.52207 0.15429 0.0
H36 H 0.93416 0.44652 0.98794 0.0
H37 H 0.91682 0.40471 0.0121 0.0
H38 H 0.96229 0.40539 0.99196 0.0
C39 C 0.69981 0.72562 0.22327 0.0
N40 N 0.73125 0.74769 0.2162 0.0
N41 N 0.6874 0.73779 0.25969 0.0
C42 C 0.68143 0.69165 0.19504 0.0
C43 C 0.71207 0.7684 0.27445 0.0
N44 N 0.7392 0.77397 0.24831 0.0
C45 C 0.70699 0.79614 0.31228 0.0
H46 H 0.66393 0.7045 0.17444 0.0
H47 H 0.6637 0.67091 0.21073 0.0
H48 H 0.70227 0.67435 0.17778 0.0
H49 H 0.72374 0.78651 0.33556 0.0
H50 H 0.67783 0.79522 0.32165 0.0
H51 H 0.71626 0.82786 0.30932 0.0
C52 C 0.02858 1.0016 0.48796 0.0
N53 N 0.06216 1.00303 0.50511 0.0
N54 N 0.0306 0.01953 0.45529 0.0
C55 C 0.99428 0.97923 0.50108 0.0
C56 C 0.06674 0.03126 0.45253 0.0
N57 N 0.08612 0.02096 0.48261 0.0
C58 C 0.08295 0.05389 0.42113 0.0
H59 H 1.00111 0.95231 0.51411 0.0
H60 H 0.97485 0.96907 0.47633 0.0
H61 H 0.98035 0.99968 0.52367 0.0
H62 H 0.06188 0.07052 0.40842 0.0
H63 H 0.09375 0.03193 0.39748 0.0
H64 H 0.10616 0.07557 0.43297 0.0
C65 C 0.19049 0.75164 0.78598 0.0
N66 N 0.21343 0.73188 0.80589 0.0
N67 N 0.18533 0.73255 0.74897 0.0
C68 C 0.17532 0.79143 0.80142 0.0
C69 C 0.2063 0.70076 0.74662 0.0
N70 N 0.22395 0.70065 0.78112 0.0
C71 C 0.20679 0.66794 0.71193 0.0
H72 H 0.14934 0.78562 0.81724 0.0
H73 H 0.16925 0.8084 0.77716 0.0
H74 H 0.19508 0.81041 0.82202 0.0
H75 H 0.2307 0.67474 0.69332 0.0
H76 H 0.18136 0.66624 0.69399 0.0
H77 H 0.20966 0.63811 0.72151 0.0
C78 C 0.92684 0.56205 0.43376 0.0
N79 N 0.95089 0.5952 0.43777 0.0
N80 N 0.89764 0.56777 0.4577 0.0
C81 C 0.93399 0.52211 0.40998 0.0
C82 C 0.90442 0.60613 0.47593 0.0
N83 N 0.93666 0.62282 0.46376 0.0
C84 C 0.88288 0.62479 0.51023 0.0
H85 H 0.90771 0.50381 0.40195 0.0
H86 H 0.95088 0.50502 0.42756 0.0
H87 H 0.94944 0.52691 0.38305 0.0
H88 H 0.89839 0.62363 0.53762 0.0
H89 H 0.85536 0.60851 0.51182 0.0
H90 H 0.8795 0.65702 0.5081 0.0
C91 C 0.80281 0.83431 0.85821 0.0
N92 N 0.83066 0.8125 0.84282 0.0
N93 N 0.79602 0.86344 0.83641 0.0
C94 C 0.78012 0.82494 0.89285 0.0
C95 C 0.82073 0.85871 0.80709 0.0
N96 N 0.84154 0.82752 0.81057 0.0
C97 C 0.82203 0.88197 0.77278 0.0
H98 H 0.76652 0.7939 0.88634 0.0
H99 H 0.75899 0.84684 0.90049 0.0
H100 H 0.79825 0.82593 0.91875 0.0
H101 H 0.85009 0.88381 0.76026 0.0
H102 H 0.81362 0.91306 0.7813 0.0
H103 H 0.80272 0.8662 0.74975 0.0
C104 C 0.30222 0.33688 0.35812 0.0
N105 N 0.32981 0.31483 0.34248 0.0
N106 N 0.29479 0.36539 0.33585 0.0
C107 C 0.28025 0.32821 0.39348 0.0
C108 C 0.31887 0.36006 0.30598 0.0
N109 N 0.33989 0.32907 0.3096 0.0
C110 C 0.31944 0.38262 0.27121 0.0
H111 H 0.26647 0.29721 0.38769 0.0
H112 H 0.25934 0.35031 0.40133 0.0
H113 H 0.29892 0.32951 0.419 0.0
H114 H 0.31064 0.41361 0.27929 0.0
H115 H 0.30012 0.36616 0.24853 0.0
H116 H 0.34738 0.38464 0.2584 0.0
C117 C 0.48285 0.99719 0.58733 0.0
N118 N 0.50089 0.9639 0.59091 0.0
N119 N 0.45758 0.98888 0.55801 0.0
C120 C 0.49062 0.03792 0.61184 0.0
C121 C 0.46041 0.94928 0.54449 0.0
N122 N 0.48642 0.93389 0.56469 0.0
C123 C 0.43898 0.92597 0.51014 0.0
H124 H 0.46893 0.05865 0.60881 0.0
H125 H 0.51702 0.05212 0.60242 0.0
H126 H 0.49347 0.03435 0.64313 0.0
H127 H 0.45652 0.92453 0.48369 0.0
H128 H 0.41352 0.94042 0.50452 0.0
H129 H 0.43127 0.89456 0.51535 0.0
C130 C 0.19231 0.22675 0.72261 0.0
N131 N 0.22341 0.24731 0.71206 0.0
N132 N 0.17334 0.25074 0.74905 0.0
C133 C 0.17933 0.18421 0.70553 0.0
C134 C 0.19364 0.28655 0.75407 0.0
N135 N 0.22396 0.28466 0.73138 0.0
C136 C 0.18376 0.32313 0.78173 0.0
H137 H 0.14947 0.17793 0.71049 0.0
H138 H 0.19466 0.16283 0.71974 0.0
H139 H 0.18497 0.17888 0.67365 0.0
H140 H 0.17352 0.31389 0.80968 0.0
H141 H 0.16114 0.33711 0.76849 0.0
H142 H 0.20727 0.34619 0.7878 0.0
C143 C 0.75864 0.24073 0.73874 0.0
N144 N 0.77149 0.22385 0.76893 0.0
N145 N 0.7804 0.27388 0.73293 0.0
C146 C 0.72582 0.2238 0.71353 0.0
C147 C 0.80691 0.27661 0.7609 0.0
N148 N 0.80123 0.24656 0.78318 0.0
C149 C 0.84001 0.30668 0.76456 0.0
H150 H 0.73516 0.20266 0.68833 0.0
H151 H 0.71229 0.24812 0.70187 0.0
H152 H 0.70529 0.20717 0.73028 0.0
H153 H 0.84193 0.32334 0.79476 0.0
H154 H 0.83868 0.32887 0.74377 0.0
H155 H 0.86532 0.29031 0.75916 0.0
C156 C 0.53274 0.4779 0.56938 0.0
N157 N 0.55062 0.49267 0.53926 0.0
N158 N 0.5 0.4942 0.57589 0.0
C159 C 0.54825 0.44923 0.59377 0.0
C160 C 0.49839 0.51909 0.54855 0.0
N161 N 0.52896 0.51816 0.52608 0.0
C162 C 0.46695 0.54477 0.54408 0.0
H163 H 0.52646 0.43249 0.60872 0.0
H164 H 0.56678 0.46683 0.61656 0.0
H165 H 0.56453 0.42716 0.57535 0.0
H166 H 0.47316 0.5751 0.56139 0.0
H167 H 0.44094 0.53109 0.55502 0.0
H168 H 0.46329 0.54867 0.51298 0.0
C169 C 0.52427 0.49821 0.98596 0.0
N170 N 0.55782 0.50147 1.00346 0.0
N171 N 0.52553 0.51645 0.95346 0.0
C172 C 0.49089 0.47404 0.99872 0.0
C173 C 0.56118 0.53039 0.95128 0.0
N174 N 0.581 0.52111 0.98152 0.0
C175 C 0.57651 0.55397 0.92017 0.0
H176 H 0.47201 0.46278 0.97372 0.0
H177 H 0.47585 0.49364 0.02105 0.0
H178 H 0.49895 0.44773 0.01197 0.0
H179 H 0.55475 0.56993 0.90776 0.0
H180 H 0.58782 0.53272 0.89624 0.0
H181 H 0.59916 0.57632 0.93215 0.0
C182 C 0.6894 0.24768 0.28576 0.0
N183 N 0.71227 0.22767 0.30546 0.0
N184 N 0.68338 0.22828 0.24898 0.0
C185 C 0.67525 0.28804 0.30112 0.0
C186 C 0.70384 0.19604 0.24655 0.0
N187 N 0.72195 0.19593 0.28081 0.0
C188 C 0.70343 0.16291 0.21208 0.0
H189 H 0.64939 0.28308 0.31742 0.0
H190 H 0.66927 0.30496 0.27679 0.0
H191 H 0.69558 0.30669 0.3213 0.0
H192 H 0.72682 0.16941 0.1927 0.0
H193 H 0.67754 0.16121 0.19488 0.0
H194 H 0.70651 0.13319 0.22179 0.0
C195 C 0.42954 0.06012 0.93505 0.0
N196 N 0.45376 0.0931 0.93817 0.0
N197 N 0.40042 0.06672 0.95891 0.0
C198 C 0.43628 0.01967 0.91202 0.0
C199 C 0.40745 0.10538 0.97621 0.0
N200 N 0.43974 0.12145 0.96354 0.0
C201 C 0.38606 0.12508 0.01015 0.0
H202 H 0.40984 1.00155 0.90438 0.0
H203 H 0.45299 1.00282 0.93001 0.0
H204 H 0.45174 0.02366 0.8849 0.0
H205 H 0.40171 0.12488 0.03765 0.0
H206 H 0.35856 0.10895 0.01235 0.0
H207 H 0.38263 0.15706 0.00699 0.0
Zn208 Zn 0.31399 0.84774 0.01437 0.0
Zn209 Zn 0.24957 0.87978 0.02429 0.0
O210 O 0.25801 0.85675 0.07713 0.0
O211 O 0.31024 0.82821 0.06578 0.0
O212 O 0.20242 0.9101 0.03184 0.0
O213 O 0.34074 0.90092 0.01041 0.0
O214 O 0.28676 0.92649 0.01317 0.0
C215 C 0.28353 0.83655 0.08821 0.0
C216 C 0.26219 0.81177 0.95578 0.0
O217 O 0.24068 0.83522 0.9757 0.0
O218 O 0.29556 0.8121 0.96589 0.0
C219 C 0.18444 0.9212 1.00404 0.0
O220 O 0.19445 0.91033 0.96768 0.0
C221 C 0.32158 0.93062 0.00929 0.0
Zn222 Zn 0.08766 0.45707 0.31758 0.0
Zn223 Zn 0.12986 0.51998 0.2974 0.0
O224 O 0.09589 0.54861 0.33845 0.0
O225 O 0.06605 0.49673 0.36029 0.0
O226 O 0.16584 0.56475 0.28474 0.0
O227 O 0.132 0.42789 0.32849 0.0
O228 O 0.16561 0.48153 0.31529 0.0
C229 C 0.07282 0.5346 0.36179 0.0
C230 C 0.07712 0.46979 0.23689 0.0
O231 O 0.10215 0.49843 0.24576 0.0
O232 O 0.06584 0.44814 0.26242 0.0
C233 C 0.18425 0.58708 0.31202 0.0
O234 O 0.17824 0.58182 0.34856 0.0
C235 C 0.16324 0.44648 0.32567 0.0
Zn236 Zn 0.79976 0.58983 0.93036 0.0
Zn237 Zn 0.79579 0.6441 0.9963 0.0
O238 O 0.8364 0.61032 0.01216 0.0
O239 O 0.83875 0.56477 0.9593 0.0
O240 O 0.78621 0.68431 0.04445 0.0
O241 O 0.81304 0.63616 0.89851 0.0
O242 O 0.81184 0.67917 0.9531 0.0
C243 C 0.8496 0.57896 0.99375 0.0
C244 C 0.72986 0.58153 0.96765 0.0
O245 O 0.74498 0.61084 0.9914 0.0
O246 O 0.74704 0.5675 0.93733 0.0
C247 C 0.80547 0.69186 0.07573 0.0
O248 O 0.83663 0.67489 0.07751 0.0
C249 C 0.81749 0.6721 0.91625 0.0
Zn250 Zn 0.82624 0.99818 0.3451 0.0
Zn251 Zn 0.86375 1.00421 0.27861 0.0
O252 O 0.83007 0.05157 0.28341 0.0
O253 O 0.79564 0.04345 0.33469 0.0
O254 O 0.89403 0.01035 0.23017 0.0
O255 O 0.87296 0.01264 0.37638 0.0
O256 O 0.90403 0.01011 0.32135 0.0
C257 C 0.80426 0.06281 0.30664 0.0
C258 C 0.8189 0.9253 0.28866 0.0
O259 O 0.83662 0.94734 0.26674 0.0
O260 O 0.81217 0.93931 0.32383 0.0
C261 C 0.90222 0.98046 0.20539 0.0
O262 O 0.88976 0.94372 0.21028 0.0
C263 C 0.90335 0.0146 0.35864 0.0
Zn264 Zn 0.30462 0.09126 0.42907 0.0
Zn265 Zn 0.29974 0.14409 0.49572 0.0
O266 O 0.3409 0.11005 0.50904 0.0
O267 O 0.34882 0.07011 0.45354 0.0
O268 O 0.29332 0.18322 0.54546 0.0
O269 O 0.31295 0.13822 0.39727 0.0
O270 O 0.314 0.18019 0.45272 0.0
C271 C 0.35779 0.08231 0.48899 0.0
C272 C 0.23521 0.08048 0.4694 0.0
O273 O 0.24911 0.11128 0.49209 0.0
O274 O 0.25318 0.06589 0.43982 0.0
C275 C 0.29467 0.16998 0.57815 0.0
O276 O 0.3023 0.13233 0.57842 0.0
C277 C 0.31782 0.17389 0.41553 0.0
Zn278 Zn 0.32198 0.49643 0.8393 0.0
Zn279 Zn 0.36123 0.50513 0.77441 0.0
O280 O 0.32965 0.55414 0.78081 0.0
O281 O 0.29369 0.54411 0.83049 0.0
O282 O 0.3921 0.51092 0.72638 0.0
O283 O 0.36832 0.50752 0.87159 0.0
O284 O 0.40072 0.50777 0.81761 0.0
C285 C 0.30371 0.56504 0.80399 0.0
C286 C 0.31273 0.42705 0.77947 0.0
O287 O 0.33171 0.45006 0.75948 0.0
O288 O 0.30601 0.43886 0.81514 0.0
C289 C 0.40364 0.47986 0.70567 0.0
O290 O 0.39497 0.44395 0.71558 0.0
C291 C 0.39915 0.51006 0.85475 0.0
Zn292 Zn 0.81458 0.34622 0.51217 0.0
Zn293 Zn 0.7494 0.37791 0.52164 0.0
O294 O 0.75789 0.35607 0.57482 0.0
O295 O 0.81047 0.32803 0.56439 0.0
O296 O 0.70179 0.40721 0.52845 0.0
O297 O 0.84026 0.39991 0.50735 0.0
O298 O 0.786 0.42488 0.51024 0.0
C299 C 0.78356 0.33652 0.58651 0.0
C300 C 0.76254 0.30897 0.45414 0.0
O301 O 0.74103 0.33263 0.47376 0.0
O302 O 0.79598 0.30962 0.46413 0.0
C303 C 0.68314 0.41622 0.50011 0.0
O304 O 0.69293 0.40381 0.46397 0.0
C305 C 0.82077 0.42935 0.50617 0.0
Zn306 Zn 0.58999 0.95622 0.81366 0.0
Zn307 Zn 0.63287 0.01941 0.79553 0.0
O308 O 0.59799 0.0474 0.83618 0.0
O309 O 0.56762 0.99499 0.85653 0.0
O310 O 0.6688 0.06472 0.78407 0.0
O311 O 0.63403 0.92684 0.82513 0.0
O312 O 0.66829 0.98087 0.81399 0.0
C313 C 0.57449 0.03292 0.85882 0.0
C314 C 0.58174 0.96987 0.73297 0.0
O315 O 0.60679 0.99826 0.74281 0.0
O316 O 0.56937 0.94818 0.75803 0.0
C317 C 0.68576 0.08811 0.8117 0.0
O318 O 0.67855 0.0835 0.84818 0.0
C319 C 0.66542 0.94549 0.82365 0.0
Zn320 Zn 0.99469 0.28456 0.8881 0.0
Zn321 Zn 0.99808 0.21913 0.91046 0.0
O322 O 0.04039 0.2221 0.86945 0.0
O323 O 0.02482 0.27257 0.84058 0.0
O324 O 0.00527 0.16528 0.93028 0.0
O325 O 0.01823 0.31744 0.93537 0.0
O326 O 0.00307 0.26264 0.96153 0.0
C327 C 0.04503 0.24385 0.84207 0.0
C328 C 0.92552 0.24245 0.87827 0.0
O329 O 0.945 0.21371 0.88439 0.0
O330 O 0.93986 0.2784 0.88288 0.0
C331 C 0.03521 0.15969 0.94716 0.0
O332 O 0.06134 0.18928 0.95225 0.0
C333 C 0.01423 0.30016 0.96544 0.0
Zn334 Zn 0.50017 0.7796 0.37851 0.0
Zn335 Zn 0.50135 0.71679 0.40966 0.0
O336 O 0.54514 0.71521 0.37026 0.0
O337 O 0.5334 0.76191 0.33446 0.0
O338 O 0.50927 0.66838 0.43797 0.0
O339 O 0.52067 0.81643 0.42559 0.0
O340 O 0.50562 0.76469 0.45635 0.0
C341 C 0.55237 0.73348 0.34081 0.0
C342 C 0.43015 0.73604 0.37173 0.0
O343 O 0.44837 0.70857 0.38313 0.0
O344 O 0.44564 0.77094 0.3707 0.0
C345 C 0.52022 0.63438 0.42273 0.0
O346 O 0.52436 0.62681 0.38462 0.0
C347 C 0.5162 0.80206 0.45732 0.0
Zn348 Zn 0.95495 0.84447 0.60597 0.0
Zn349 Zn 0.01057 0.81581 0.63626 0.0
O350 O 0.03509 0.86741 0.61733 0.0
O351 O 0.98644 0.89743 0.60276 0.0
O352 O 0.05126 0.79381 0.66227 0.0
O353 O 0.92285 0.83431 0.65293 0.0
O354 O 0.97247 0.81891 0.68162 0.0
C355 C 0.02112 0.89757 0.60615 0.0
C356 C 0.9758 0.76988 0.56164 0.0
O357 O 0.99748 0.77109 0.59068 0.0
O358 O 0.9556 0.79877 0.5599 0.0
C359 C 0.08136 0.78325 0.64695 0.0
O360 O 0.08845 0.78786 0.61044 0.0
C361 C 0.93816 0.82402 0.68249 0.0
Zn362 Zn 0.45437 0.3426 0.105 0.0
Zn363 Zn 0.51014 0.31535 0.13633 0.0
O364 O 0.53412 0.36723 0.11732 0.0
O365 O 0.48496 0.39602 0.10204 0.0
O366 O 0.55087 0.29395 0.16308 0.0
O367 O 0.42177 0.33239 0.15147 0.0
O368 O 0.47138 0.31841 0.18117 0.0
C369 C 0.51966 0.39695 0.10583 0.0
C370 C 0.47688 0.26864 0.06117 0.0
O371 O 0.49812 0.27028 0.09065 0.0
O372 O 0.45623 0.29705 0.05902 0.0
C373 C 0.58024 0.28145 0.14746 0.0
O374 O 0.58659 0.28378 0.11033 0.0
C375 C 0.43694 0.32291 0.18148 0.0
C376 C 0.20012 0.7551 0.87515 0.0
C377 C 0.22577 0.74441 0.84565 0.0
H378 H 0.19137 0.78577 0.93302 0.0
C379 C 0.2634 0.75183 0.85415 0.0
H380 H 0.17091 0.74892 0.86928 0.0
C381 C 0.27517 0.77214 0.89073 0.0
C382 C 0.24942 0.78589 0.91922 0.0
H383 H 0.28357 0.74411 0.83174 0.0
H384 H 0.30445 0.77894 0.89589 0.0
C385 C 0.21178 0.77622 0.91146 0.0
C386 C 0.01125 0.57024 0.44468 0.0
C387 C 0.98879 0.59426 0.42636 0.0
H388 H 0.05577 0.53161 0.43789 0.0
C389 C 0.99962 0.60593 0.39038 0.0
H390 H 0.00287 0.5605 0.47218 0.0
C391 C 0.03035 0.59007 0.37098 0.0
C392 C 0.04981 0.56167 0.3871 0.0
H393 H 0.9822 0.62381 0.37557 0.0
H394 H 0.03632 0.59656 0.34165 0.0
C395 C 0.04119 0.55347 0.42493 0.0
C396 C 0.85239 0.77592 0.89373 0.0
C397 C 0.83943 0.77505 0.85529 0.0
H398 H 0.85459 0.74464 0.94357 0.0
C399 C 0.82415 0.73817 0.83508 0.0
H400 H 0.86378 0.80418 0.91003 0.0
C401 C 0.81898 0.70384 0.85414 0.0
C402 C 0.82833 0.70607 0.89403 0.0
H403 H 0.81319 0.73697 0.80577 0.0
H404 H 0.80523 0.67646 0.83848 0.0
C405 C 0.84644 0.74207 0.9131 0.0
C406 C 0.0021 0.00801 0.38945 0.0
C407 C 1.0008 0.02368 0.42936 0.0
H408 H 0.97201 0.99316 0.33528 0.0
C409 C 0.96861 0.03995 0.44471 0.0
H410 H 0.02667 0.99507 0.37721 0.0
C411 C 0.93732 0.03815 0.42125 0.0
C412 C 0.93785 0.02067 0.38174 0.0
H413 H 0.96734 0.05257 0.47535 0.0
H414 H 0.91242 0.04962 0.43432 0.0
C415 C 0.97086 1.00678 0.36566 0.0
C416 C 0.25053 0.25081 0.6472 0.0
C417 C 0.24823 0.23306 0.68159 0.0
H418 H 0.26727 0.24488 0.58718 0.0
C419 C 0.26547 0.19738 0.68327 0.0
H420 H 0.23685 0.27802 0.64523 0.0
C421 C 0.28257 0.17814 0.65019 0.0
C422 C 0.28261 0.19423 0.61471 0.0
H423 H 0.26393 0.18334 0.70965 0.0
H424 H 0.29414 0.14963 0.65195 0.0
C425 C 0.26763 0.2316 0.61397 0.0
C426 C 0.45693 0.4533 0.61226 0.0
C427 C 0.47518 0.4907 0.60789 0.0
H428 H 0.42014 0.42043 0.64688 0.0
C429 C 0.46885 0.52491 0.63495 0.0
H430 H 0.46099 0.4268 0.59116 0.0
C431 C 0.44505 0.52164 0.66639 0.0
C432 C 0.42748 0.48394 0.67147 0.0
H433 H 0.48272 0.55403 0.63191 0.0
H434 H 0.44099 0.54845 0.68708 0.0
C435 C 0.43354 0.44982 0.64398 0.0
C436 C 0.75392 0.31608 0.68837 0.0
C437 C 0.78187 0.29236 0.69779 0.0
H438 H 0.73219 0.34882 0.64551 0.0
C439 C 0.81043 0.28445 0.6713 0.0
H440 H 0.73166 0.32245 0.70865 0.0
C441 C 0.81096 0.29941 0.63569 0.0
C442 C 0.7827 0.32253 0.62546 0.0
H443 H 0.83198 0.26589 0.67798 0.0
H444 H 0.8334 0.29217 0.61589 0.0
C445 C 0.75426 0.33104 0.65238 0.0
C446 C 0.557 0.98717 0.63028 0.0
C447 C 0.52596 0.95978 0.62199 0.0
H448 H 0.59911 0.01203 0.67196 0.0
C449 C 0.51641 0.93224 0.64793 0.0
H450 H 0.56518 0.00819 0.61023 0.0
C451 C 0.53573 0.93422 0.68319 0.0
C452 C 0.56506 0.96382 0.69312 0.0
H453 H 0.49249 0.91097 0.64205 0.0
H454 H 0.52651 0.91376 0.70345 0.0
C455 C 0.57634 0.9893 0.66559 0.0
C456 C 0.83218 0.26639 0.84678 0.0
C457 C 0.82591 0.23809 0.813 0.0
H458 H 0.86863 0.28933 0.89464 0.0
C459 C 0.84874 0.20592 0.8055 0.0
H460 H 0.8148 0.29133 0.85301 0.0
C461 C 0.87955 0.20438 0.82955 0.0
C462 C 0.88792 0.23528 0.86111 0.0
H463 H 0.84443 0.18398 0.77932 0.0
H464 H 0.89853 0.18131 0.82133 0.0
C465 C 0.86292 0.26513 0.87051 0.0
C466 C 0.48432 0.85969 0.55137 0.0
C467 C 0.5035 0.89747 0.55015 0.0
H468 H 0.47385 0.79866 0.52265 0.0
C469 C 0.5331 0.90014 0.52443 0.0
H470 H 0.4611 0.8573 0.57079 0.0
C471 C 0.54001 0.86711 0.4965 0.0
C472 C 0.5177 0.83069 0.49429 0.0
H473 H 0.54789 0.92915 0.52285 0.0
H474 H 0.5606 0.87124 0.47439 0.0
C475 C 0.49151 0.8263 0.52368 0.0
C476 C 0.1369 0.21776 0.79734 0.0
C477 C 0.13888 0.24185 0.76727 0.0
H478 H 0.10509 0.19913 0.84502 0.0
C479 C 0.10837 0.26206 0.75888 0.0
H480 H 0.16053 0.20225 0.80419 0.0
C481 C 0.07696 0.26045 0.78185 0.0
C482 C 0.07561 0.23876 0.81391 0.0
H483 H 0.10968 0.28074 0.73572 0.0
H484 H 0.05439 0.27784 0.77555 0.0
C485 C 0.10534 0.21614 0.8206 0.0
C486 C 0.53075 0.53349 0.45844 0.0
C487 C 0.53785 0.54577 0.4985 0.0
H488 H 0.51983 0.55195 0.40278 0.0
C489 C 0.54276 0.58732 0.5125 0.0
H490 H 0.52558 0.50168 0.44726 0.0
C491 C 0.53792 0.61605 0.48769 0.0
C492 C 0.52873 0.60387 0.44801 0.0
H493 H 0.54732 0.59738 0.54349 0.0
H494 H 0.54019 0.6478 0.4999 0.0
C495 C 0.52674 0.56231 0.43325 0.0
C496 C 0.90554 0.82614 0.78777 0.0
C497 C 0.86816 0.81285 0.782 0.0
H498 H 0.95742 0.83997 0.76068 0.0
C499 C 0.85573 0.79779 0.74384 0.0
H500 H 0.91552 0.83884 0.8168 0.0
C501 C 0.87895 0.80023 0.71174 0.0
C502 C 0.91556 0.81663 0.71713 0.0
H503 H 0.82689 0.78817 0.73862 0.0
H504 H 0.86775 0.79087 0.68251 0.0
C505 C 0.92924 0.82753 0.7556 0.0
C506 C 0.08145 0.94567 0.5345 0.0
C507 C 0.06901 0.9847 0.53941 0.0
H508 H 0.07621 0.88697 0.55294 0.0
C509 C 0.04933 0.99756 0.5735 0.0
H510 H 0.09609 0.93483 0.50817 0.0
C511 C 0.03641 0.96985 0.59807 0.0
C512 C 0.04463 0.92928 0.59007 0.0
H513 H 0.03905 0.02736 0.57761 0.0
H514 H 0.0173 0.97925 0.62111 0.0
C515 C 0.06956 0.91815 0.55989 0.0
C516 C 0.12217 0.74319 0.73218 0.0
C517 C 0.15903 0.74113 0.72119 0.0
H518 H 0.06874 0.75797 0.71723 0.0
C519 C 0.17016 0.75007 0.68428 0.0
H520 H 0.11322 0.73584 0.76043 0.0
C521 C 0.14472 0.76274 0.6592 0.0
C522 C 0.10804 0.76664 0.67106 0.0
H523 H 0.19866 0.74855 0.67558 0.0
H524 H 0.15398 0.77066 0.63125 0.0
C525 C 0.09691 0.75589 0.70744 0.0
C526 C 0.94049 0.69658 0.47375 0.0
C527 C 0.95449 0.66068 0.48126 0.0
H528 H 0.93634 0.75958 0.49325 0.0
C529 C 0.97947 0.66177 0.5122 0.0
H530 H 0.92068 0.6959 0.45028 0.0
C531 C 0.98836 0.698 0.53711 0.0
C532 C 0.97197 0.7335 0.53154 0.0
H533 H 0.98988 0.63404 0.51874 0.0
H534 H 0.00621 0.69756 0.56206 0.0
C535 C 0.94914 0.73275 0.49863 0.0
C536 C 0.78854 0.81521 0.28684 0.0
C537 C 0.76716 0.80712 0.25247 0.0
H538 H 0.82105 0.85968 0.32567 0.0
C539 C 0.76804 0.83602 0.22671 0.0
H540 H 0.78844 0.79314 0.30687 0.0
C541 C 0.78741 0.87388 0.23699 0.0
C542 C 0.80534 0.88337 0.27351 0.0
H543 H 0.75145 0.83051 0.20024 0.0
H544 H 0.78592 0.89669 0.21789 0.0
C545 C 0.80692 0.85324 0.29763 0.0
C546 C 0.73607 0.14385 0.32093 0.0
C547 C 0.74482 0.16525 0.28974 0.0
H548 H 0.7478 0.09446 0.35065 0.0
C549 C 0.7742 0.15408 0.26515 0.0
H550 H 0.71325 0.15182 0.33995 0.0
C551 C 0.7938 0.1211 0.2708 0.0
C552 C 0.78439 0.09868 0.30129 0.0
H553 H 0.78145 0.17052 0.24107 0.0
H554 H 0.81596 0.11287 0.25094 0.0
C555 C 0.75565 0.11085 0.32669 0.0
C556 C 0.34112 0.02882 0.96836 0.0
C557 C 0.37909 0.03568 0.97534 0.0
H558 H 0.29247 0.98984 0.97442 0.0
C559 C 0.397 0.01057 0.99697 0.0
H560 H 0.32706 0.04825 0.95181 0.0
C561 C 0.37774 0.9774 0.00947 0.0
C562 C 0.34004 0.96907 1.001 0.0
H563 H 0.42627 0.016 1.00295 0.0
H564 H 0.39261 0.95763 0.02489 0.0
C565 C 0.32153 0.99571 0.98137 0.0
C566 C 0.26355 0.42862 0.33966 0.0
C567 C 0.26178 0.38633 0.33627 0.0
H568 H 0.23354 0.48111 0.33878 0.0
C569 C 0.22746 0.36419 0.33147 0.0
H570 H 0.28986 0.4461 0.34366 0.0
C571 C 0.19533 0.38393 0.32952 0.0
C572 C 0.19701 0.42623 0.33156 0.0
H573 H 0.22572 0.33148 0.32846 0.0
H574 H 0.16931 0.36591 0.32508 0.0
C575 C 0.23142 0.44847 0.33697 0.0
C576 C 0.14849 0.00896 0.45996 0.0
C577 C 0.12532 0.02865 0.4878 0.0
H578 H 0.20098 0.00989 0.43196 0.0
C579 C 0.13958 0.06338 0.51235 0.0
H580 H 0.13766 0.98273 0.44009 0.0
C581 C 0.17576 0.07955 0.50746 0.0
C582 C 0.19818 0.06141 0.47759 0.0
H583 H 0.12182 0.07966 0.53322 0.0
H584 H 0.18547 0.10734 0.52578 0.0
C585 C 0.18447 0.02507 0.45487 0.0
C586 C 0.74295 0.18837 0.8204 0.0
C587 C 0.75628 0.18739 0.78217 0.0
H588 H 0.70991 0.15733 0.85994 0.0
C589 C 0.74994 0.15195 0.75526 0.0
H590 H 0.74759 0.21556 0.84145 0.0
C591 C 0.72781 0.11922 0.76525 0.0
C592 C 0.71232 0.12103 0.80271 0.0
H593 H 0.76059 0.15051 0.7258 0.0
H594 H 0.72206 0.09292 0.74331 0.0
C595 C 0.72123 0.15526 0.83072 0.0
C596 C 0.4081 0.03563 0.56475 0.0
C597 C 0.4352 0.01611 0.54195 0.0
H598 H 0.36273 0.07288 0.56592 0.0
C599 C 0.43833 0.02079 0.5023 0.0
H600 H 0.40492 0.03176 0.59522 0.0
C601 C 0.41371 0.04318 0.48521 0.0
C602 C 0.38605 0.06208 0.50777 0.0
H603 H 0.45919 1.00599 0.48435 0.0
H604 H 0.41598 0.04525 0.45425 0.0
C605 C 0.38402 0.05893 0.54793 0.0
C606 C 0.6164 0.48753 0.55174 0.0
C607 C 0.58656 0.48229 0.52531 0.0
H608 H 0.66977 0.46995 0.56507 0.0
C609 C 0.59018 0.45839 0.48883 0.0
H610 H 0.61414 0.50572 0.58012 0.0
C611 C 0.62222 0.43815 0.47991 0.0
C612 C 0.65084 0.44077 0.50774 0.0
H613 H 0.56728 0.45312 0.46838 0.0
H614 H 0.62369 0.41869 0.4521 0.0
C615 C 0.64797 0.46662 0.54331 0.0
C616 C 0.76284 0.24775 0.35302 0.0
C617 C 0.72512 0.2403 0.34503 0.0
H618 H 0.80432 0.27529 0.39413 0.0
C619 C 0.69979 0.25127 0.37477 0.0
H620 H 0.78275 0.2398 0.33039 0.0
C621 C 0.71183 0.2727 0.41078 0.0
C622 C 0.74954 0.28248 0.41802 0.0
H623 H 0.67052 0.24513 0.36925 0.0
H624 H 0.69163 0.28251 0.4325 0.0
C625 C 0.77501 0.26841 0.38935 0.0
C626 C 0.51418 0.06761 0.94321 0.0
C627 C 0.49138 0.09199 0.92577 0.0
H628 H 0.55859 0.0289 0.93496 0.0
C629 C 0.5015 0.10401 0.88973 0.0
H630 H 0.50637 0.05762 0.97077 0.0
C631 C 0.53183 0.08824 0.86944 0.0
C632 C 0.55164 0.05959 0.88477 0.0
H633 H 0.48381 0.12218 0.87559 0.0
H634 H 0.53728 0.09508 0.84013 0.0
C635 C 0.54372 0.05094 0.9226 0.0
C636 C 0.32288 0.24057 0.33483 0.0
C637 C 0.33844 0.27735 0.35495 0.0
H638 H 0.30404 0.17886 0.3382 0.0
C639 C 0.35173 0.27814 0.39324 0.0
H640 H 0.31168 0.23946 0.30563 0.0
C641 C 0.34598 0.24423 0.41256 0.0
C642 C 0.3277 0.2083 0.39357 0.0
H643 H 0.36339 0.30632 0.40945 0.0
H644 H 0.35458 0.24667 0.44288 0.0
C645 C 0.31787 0.20621 0.35383 0.0
C646 C 0.46247 0.53356 0.94261 0.0
C647 C 0.49549 0.51932 0.92737 0.0
H648 H 0.40605 0.54149 0.93158 0.0
C649 C 0.49771 0.50488 0.88724 0.0
H650 H 0.46046 0.54526 0.97341 0.0
C651 C 0.46674 0.50322 0.86298 0.0
C652 C 0.43307 0.5154 0.87879 0.0
H653 H 0.52294 0.49346 0.87507 0.0
H654 H 0.46872 0.49087 0.83232 0.0
C655 C 0.43147 0.5313 0.91868 0.0
C656 C 0.73666 0.74295 0.14467 0.0
C657 C 0.75298 0.74204 0.18122 0.0
H658 H 0.7406 0.72827 0.08251 0.0
C659 C 0.78891 0.73005 0.18282 0.0
H660 H 0.70908 0.75257 0.14297 0.0
C661 C 0.80713 0.71598 0.14827 0.0
C662 C 0.78961 0.71381 0.11162 0.0
H663 H 0.80183 0.72913 0.21085 0.0
H664 H 0.83405 0.7048 0.15046 0.0
C665 C 0.75476 0.72901 0.11018 0.0
C666 C 0.97205 0.02921 0.14152 0.0
C667 C 0.97679 0.99727 0.11135 0.0
H668 H 0.94439 0.04917 0.19484 0.0
C669 C 0.9563 0.96019 0.11151 0.0
H670 H 0.9878 0.05799 0.1417 0.0
C671 C 0.93179 0.95482 0.14191 0.0
C672 C 0.92709 0.98668 0.17243 0.0
H673 H 0.9596 0.93539 0.08822 0.0
H674 H 0.91659 0.92569 0.14151 0.0
C675 C 0.94725 0.02408 0.17172 0.0
C676 C 0.31055 0.78183 0.17108 0.0
C677 C 0.28282 0.79022 0.19845 0.0
H678 H 0.33254 0.78977 0.11533 0.0
C679 C 0.25525 0.815 0.19021 0.0
H680 H 0.33177 0.76244 0.17681 0.0
C681 C 0.25519 0.83059 0.15453 0.0
C682 C 0.28286 0.82168 0.12677 0.0
H683 H 0.23362 0.82177 0.21118 0.0
H684 H 0.23347 0.84926 0.1486 0.0
C685 C 0.3107 0.79741 0.13581 0.0
C686 C 0.0113 0.42868 0.15304 0.0
C687 C 0.01713 0.45815 0.12831 0.0
H688 H 0.02574 0.40916 0.20698 0.0
C689 C 0.04562 0.48875 0.13705 0.0
H690 H 0.98927 0.40503 0.14681 0.0
C691 C 0.06647 0.49141 0.1714 0.0
C692 C 0.05904 0.46355 0.19775 0.0
H693 H 0.05054 0.51164 0.11809 0.0
H694 H 0.08721 0.51638 0.17811 0.0
C695 C 0.032 0.43137 0.18755 0.0
C696 C 0.35127 0.70056 0.30173 0.0
C697 C 0.32848 0.73257 0.31096 0.0
H698 H 0.40179 0.67568 0.31493 0.0
C699 C 0.33558 0.75995 0.34524 0.0
H700 H 0.34639 0.67941 0.27509 0.0
C701 C 0.36704 0.75806 0.36773 0.0
C702 C 0.39188 0.72842 0.35664 0.0
H703 H 0.31837 0.78486 0.35269 0.0
H704 H 0.37351 0.78179 0.39211 0.0
C705 C 0.3828 0.69837 0.32457 0.0
C706 C 0.03128 0.39511 0.03596 0.0
C707 C 0.99841 0.39425 0.05706 0.0
H708 H 0.06264 0.36454 0.98983 0.0
C709 C 0.97682 0.35747 0.05564 0.0
H710 H 0.04794 0.42335 0.03631 0.0
C711 C 0.98527 0.32355 0.02934 0.0
C712 C 0.0151 0.32645 1.00376 0.0
H713 H 0.95107 0.35653 0.07137 0.0
H714 H 0.96584 0.29713 0.02553 0.0
C715 C 0.03947 0.36151 0.00924 0.0
C716 C 0.65005 0.71337 0.31228 0.0
C717 C 0.6522 0.72758 0.27597 0.0
H718 H 0.61603 0.70312 0.36128 0.0
C719 C 0.62018 0.73777 0.25866 0.0
H720 H 0.67471 0.70568 0.32602 0.0
C721 C 0.58692 0.73692 0.2788 0.0
C722 C 0.58511 0.72544 0.31643 0.0
H723 H 0.62154 0.74913 0.23083 0.0
H724 H 0.56303 0.74729 0.26577 0.0
C725 C 0.61659 0.71193 0.33229 0.0
C726 C 0.06704 0.08641 0.01237 0.0
C727 C 0.04133 0.05311 1.00286 0.0
H728 H 0.08531 0.14636 1.00219 0.0
C729 C 0.0172 0.0528 0.9711 0.0
H730 H 0.08543 0.08762 0.03717 0.0
C731 C 0.01607 0.08679 0.95191 0.0
C732 C 0.03971 0.12156 0.96354 0.0
H733 H 0.99702 0.02746 0.96342 0.0
H734 H 0.99562 0.08645 0.92914 0.0
C735 C 0.06643 0.12024 0.99271 0.0
C736 C 0.35389 0.29895 0.24287 0.0
C737 C 0.36638 0.31415 0.28098 0.0
H738 H 0.36609 0.29103 0.18159 0.0
C739 C 0.40389 0.32677 0.28678 0.0
H740 H 0.32497 0.28976 0.23765 0.0
C741 C 0.42774 0.32734 0.25464 0.0
C742 C 0.41411 0.31623 0.21616 0.0
H743 H 0.41394 0.3395 0.31577 0.0
H744 H 0.45606 0.33928 0.25971 0.0
C745 C 0.37729 0.30052 0.2108 0.0
C746 C 0.5454 0.49678 0.07201 0.0
C747 C 0.56537 0.48406 0.03811 0.0
H748 H 0.51395 0.47833 0.11992 0.0
C749 C 0.57893 0.44557 0.03383 0.0
H750 H 0.53425 0.52613 0.07559 0.0
C751 C 0.56785 0.41823 0.05968 0.0
C752 C 0.54264 0.42899 0.08968 0.0
H753 H 0.5938 0.43483 0.00764 0.0
H754 H 0.5753 0.38729 0.05318 0.0
C755 C 0.53334 0.46922 0.09706 0.0
C756 C 0.62061 0.24147 0.23304 0.0
C757 C 0.65711 0.23744 0.2214 0.0
H758 H 0.56776 0.25856 0.2188 0.0
C759 C 0.66804 0.24519 0.18405 0.0
H760 H 0.61175 0.23505 0.26164 0.0
C761 C 0.64284 0.25857 0.15916 0.0
C762 C 0.60661 0.26446 0.17165 0.0
H763 H 0.69626 0.24221 0.17482 0.0
H764 H 0.65198 0.26547 0.13081 0.0
C765 C 0.59561 0.25498 0.20852 0.0
C766 C 0.48227 0.16068 0.01201 0.0
C767 C 0.45789 0.15936 0.98047 0.0
H768 H 0.50775 0.1967 0.06249 0.0
C769 C 0.44412 0.19517 0.97237 0.0
H770 H 0.49246 0.13303 0.019 0.0
C771 C 0.45213 0.2314 0.99737 0.0
C772 C 0.47409 0.23231 0.03097 0.0
H773 H 0.42475 0.1943 0.94847 0.0
H774 H 0.43938 0.25811 0.99157 0.0
C775 C 0.49051 0.19699 0.03703 0.0
C776 C 0.27754 0.31754 0.76826 0.0
C777 C 0.2546 0.31451 0.73528 0.0
H778 H 0.31359 0.35639 0.80868 0.0
C779 C 0.25536 0.34674 0.71342 0.0
H780 H 0.27653 0.29323 0.78588 0.0
C781 C 0.27703 0.38264 0.72594 0.0
C782 C 0.29708 0.38697 0.76119 0.0
H783 H 0.23699 0.34528 0.68858 0.0
H784 H 0.27561 0.40805 0.70999 0.0
C785 C 0.29822 0.35371 0.78148 0.0
C786 C 0.27669 0.65949 0.76612 0.0
C787 C 0.24677 0.67 0.79017 0.0
H788 H 0.31811 0.618 0.75139 0.0
C789 C 0.23702 0.64747 0.82029 0.0
H790 H 0.28465 0.67679 0.74285 0.0
C791 C 0.25597 0.61378 0.82525 0.0
C792 C 0.28503 0.60208 0.80011 0.0
H793 H 0.21378 0.65497 0.83885 0.0
H794 H 0.24723 0.59637 0.84821 0.0
C795 C 0.29565 0.62583 0.77098 0.0
C796 C 0.83887 0.52855 0.46654 0.0
C797 C 0.87681 0.53596 0.47353 0.0
H798 H 0.79076 0.48862 0.47213 0.0
C799 C 0.89521 0.51064 0.4945 0.0
H800 H 0.82444 0.5481 0.45049 0.0
C801 C 0.87648 0.47684 0.50639 0.0
C802 C 0.83881 0.46806 0.49801 0.0
H803 H 0.92445 0.51647 0.50047 0.0
H804 H 0.89173 0.45703 0.52138 0.0
C805 C 0.81981 0.4948 0.47898 0.0
C806 C 0.76513 0.92693 0.84044 0.0
C807 C 0.76315 0.88459 0.83646 0.0
H808 H 0.73557 0.97969 0.83929 0.0
C809 C 0.72883 0.86264 0.83043 0.0
H810 H 0.79144 0.94426 0.84538 0.0
C811 C 0.69693 0.88262 0.82777 0.0
C812 C 0.69886 0.92497 0.83031 0.0
H813 H 0.72692 0.8299 0.82695 0.0
H814 H 0.67093 0.86473 0.82235 0.0
C815 C 0.73325 0.94702 0.83704 0.0
C816 C 0.6434 0.50982 0.95884 0.0
C817 C 0.62013 0.52966 0.98643 0.0
H818 H 0.69587 0.51072 0.93089 0.0
C819 C 0.63407 0.56493 0.01041 0.0
H820 H 0.63279 0.48317 0.93939 0.0
C821 C 0.67017 0.58129 0.00536 0.0
C822 C 0.69271 0.56285 0.97581 0.0
H823 H 0.61617 0.58132 0.03104 0.0
H824 H 0.67974 0.60937 0.02331 0.0
C825 C 0.67922 0.52617 0.95351 0.0
C826 C 0.24448 0.68536 0.32045 0.0
C827 C 0.25688 0.68446 0.28188 0.0
H828 H 0.21147 0.65488 0.36043 0.0
C829 C 0.24883 0.64957 0.25466 0.0
H830 H 0.25039 0.71213 0.34175 0.0
C831 C 0.22594 0.61746 0.26478 0.0
C832 C 0.2114 0.61929 0.30266 0.0
H833 H 0.25872 0.64818 0.22491 0.0
H834 H 0.21889 0.59165 0.24265 0.0
C835 C 0.22202 0.65283 0.33089 0.0
C836 C 0.93333 0.54967 0.04439 0.0
C837 C 0.92284 0.50906 0.0479 0.0
H838 H 0.91776 0.60429 0.02499 0.0
C839 C 0.8875 0.49276 0.03539 0.0
H840 H 0.96056 0.5628 0.05342 0.0
C841 C 0.86383 0.51579 0.01786 0.0
C842 C 0.87452 0.55605 0.0138 0.0
H843 H 0.87846 0.46189 0.03858 0.0
H844 H 0.83706 0.50216 0.0075 0.0
C845 C 0.90907 0.57324 0.02795 0.0
C846 C 0.09352 0.96841 0.99412 0.0
C847 C 0.08996 0.99035 0.0316 0.0
H848 H 0.12625 0.92914 0.95591 0.0
C849 C 0.1194 0.99288 0.05829 0.0
H850 H 0.07101 0.9656 0.97325 0.0
C851 C 0.15023 0.97092 0.04916 0.0
C852 C 0.15287 0.94678 0.01258 0.0
H853 H 0.11734 0.00982 0.0873 0.0
H854 H 0.17164 0.97215 0.0711 0.0
C855 C 0.12487 0.94708 0.98454 0.0
loop_
_geom_bond_atom_site_label_1
_geom_bond_atom_site_label_2
_geom_bond_distance
_geom_bond_site_symmetry_2
_ccdc_geom_bond_type
C0 N1 1.317 1_565 S
C0 N2 1.348 1_465 S
C0 C3 1.485 . S
N1 C0 1.317 1_545 S
N1 N5 1.370 . S
N2 C0 1.348 1_645 S
N2 C4 1.346 . S
C3 C0 1.485 . S
C3 H7 0.960 . S
C3 H8 0.961 . S
C3 H9 0.960 . S
C4 N2 1.346 . S
C4 N5 1.307 1_655 S
C4 C6 1.486 . S
N5 N1 1.370 . S
N5 C4 1.307 1_455 S
C6 C4 1.486 . S
C6 H10 0.960 . S
C6 H11 0.960 . S
C6 H12 0.959 . S
H7 C3 0.960 . S
H8 C3 0.961 . S
H9 C3 0.960 . S
H10 C6 0.960 . S
H11 C6 0.960 . S
H12 C6 0.959 . S
C13 N14 1.317 . S
C13 N15 1.348 . S
C13 C16 1.485 . S
N14 C13 1.317 . S
N14 N18 1.370 . S
N15 C13 1.348 . S
N15 C17 1.346 . S
C16 C13 1.485 . S
C16 H20 0.960 . S
C16 H21 0.961 . S
C16 H22 0.960 . S
C17 N15 1.346 . S
C17 N18 1.307 . S
C17 C19 1.486 . S
N18 N14 1.370 . S
N18 C17 1.307 . S
C19 C17 1.486 . S
C19 H23 0.960 . S
C19 H24 0.960 . S
C19 H25 0.959 . S
H20 C16 0.960 . S
H21 C16 0.961 . S
H22 C16 0.960 . S
H23 C19 0.960 . S
H24 C19 0.960 . S
H25 C19 0.959 . S
C26 N27 1.317 . S
C26 N28 1.348 . S
C26 C29 1.485 . S
N27 C26 1.317 . S
N27 N31 1.370 . S
N28 C26 1.348 . S
N28 C30 1.346 . S
C29 C26 1.485 . S
C29 H33 0.960 . S
C29 H34 0.961 . S
C29 H35 0.960 . S
C30 N28 1.346 . S
C30 N31 1.307 . S
C30 C32 1.486 . S
N31 N27 1.370 . S
N31 C30 1.307 . S
C32 C30 1.486 . S
C32 H36 0.960 1_554 S
C32 H37 0.960 . S
C32 H38 0.959 . S
H33 C29 0.960 . S
H34 C29 0.961 . S
H35 C29 0.960 . S
H36 C32 0.960 1_556 S
H37 C32 0.960 . S
H38 C32 0.959 . S
C39 N40 1.317 . S
C39 N41 1.348 . S
C39 C42 1.485 . S
N40 C39 1.317 . S
N40 N44 1.370 . S
N41 C39 1.348 . S
N41 C43 1.346 . S
C42 C39 1.485 . S
C42 H46 0.960 . S
C42 H47 0.961 . S
C42 H48 0.960 . S
C43 N41 1.346 . S
C43 N44 1.307 . S
C43 C45 1.486 . S
N44 N40 1.370 . S
N44 C43 1.307 . S
C45 C43 1.486 . S
C45 H49 0.960 . S
C45 H50 0.960 . S
C45 H51 0.959 . S
H46 C42 0.960 . S
H47 C42 0.961 . S
H48 C42 0.960 . S
H49 C45 0.960 . S
H50 C45 0.960 . S
H51 C45 0.959 . S
C52 N53 1.317 . S
C52 N54 1.348 . S
C52 C55 1.485 1_455 S
N53 C52 1.317 . S
N53 N57 1.370 . S
N54 C52 1.348 . S
N54 C56 1.346 . S
C55 C52 1.485 1_655 S
C55 H59 0.961 . S
C55 H60 0.961 . S
C55 H61 0.960 . S
C56 N54 1.346 . S
C56 N57 1.307 . S
C56 C58 1.486 1_565 S
N57 N53 1.370 . S
N57 C56 1.307 . S
C58 C56 1.486 1_545 S
C58 H62 0.960 . S
C58 H63 0.960 . S
C58 H64 0.959 . S
H59 C55 0.961 . S
H60 C55 0.961 . S
H61 C55 0.960 . S
H62 C58 0.960 . S
H63 C58 0.960 . S
H64 C58 0.959 . S
C65 N66 1.317 . S
C65 N67 1.348 . S
C65 C68 1.485 . S
N66 C65 1.317 . S
N66 N70 1.370 . S
N67 C65 1.348 . S
N67 C69 1.346 . S
C68 C65 1.485 . S
C68 H72 0.960 . S
C68 H73 0.961 . S
C68 H74 0.960 . S
C69 N67 1.346 . S
C69 N70 1.307 . S
C69 C71 1.486 . S
N70 N66 1.370 . S
N70 C69 1.307 . S
C71 C69 1.486 . S
C71 H75 0.960 . S
C71 H76 0.960 . S
C71 H77 0.959 . S
H72 C68 0.960 . S
H73 C68 0.961 . S
H74 C68 0.960 . S
H75 C71 0.960 . S
H76 C71 0.960 . S
H77 C71 0.959 . S
C78 N79 1.317 . S
C78 N80 1.348 . S
C78 C81 1.485 . S
N79 C78 1.317 . S
N79 N83 1.370 . S
N80 C78 1.348 . S
N80 C82 1.346 . S
C81 C78 1.485 . S
C81 H85 0.960 . S
C81 H86 0.961 . S
C81 H87 0.960 . S
C82 N80 1.346 . S
C82 N83 1.307 . S
C82 C84 1.486 . S
N83 N79 1.370 . S
N83 C82 1.307 . S
C84 C82 1.486 . S
C84 H88 0.960 . S
C84 H89 0.960 . S
C84 H90 0.959 . S
H85 C81 0.960 . S
H86 C81 0.961 . S
H87 C81 0.960 . S
H88 C84 0.960 . S
H89 C84 0.960 . S
H90 C84 0.959 . S
C91 N92 1.317 . S
C91 N93 1.348 . S
C91 C94 1.485 . S
N92 C91 1.317 . S
N92 N96 1.370 . S
N93 C91 1.348 . S
N93 C95 1.346 . S
C94 C91 1.485 . S
C94 H98 0.960 . S
C94 H99 0.961 . S
C94 H100 0.960 . S
C95 N93 1.346 . S
C95 N96 1.307 . S
C95 C97 1.486 . S
N96 N92 1.370 . S
N96 C95 1.307 . S
C97 C95 1.486 . S
C97 H101 0.960 . S
C97 H102 0.960 . S
C97 H103 0.959 . S
H98 C94 0.960 . S
H99 C94 0.961 . S
H100 C94 0.960 . S
H101 C97 0.960 . S
H102 C97 0.960 . S
H103 C97 0.959 . S
C104 N105 1.317 . S
C104 N106 1.348 . S
C104 C107 1.485 . S
N105 C104 1.317 . S
N105 N109 1.370 . S
N106 C104 1.348 . S
N106 C108 1.346 . S
C107 C104 1.485 . S
C107 H111 0.960 . S
C107 H112 0.961 . S
C107 H113 0.960 . S
C108 N106 1.346 . S
C108 N109 1.307 . S
C108 C110 1.486 . S
N109 N105 1.370 . S
N109 C108 1.307 . S
C110 C108 1.486 . S
C110 H114 0.960 . S
C110 H115 0.960 . S
C110 H116 0.959 . S
H111 C107 0.960 . S
H112 C107 0.961 . S
H113 C107 0.960 . S
H114 C110 0.960 . S
H115 C110 0.960 . S
H116 C110 0.959 . S
C117 N118 1.317 . S
C117 N119 1.348 . S
C117 C120 1.485 1_565 S
N118 C117 1.317 . S
N118 N122 1.370 . S
N119 C117 1.348 . S
N119 C121 1.346 . S
C120 C117 1.485 1_545 S
C120 H124 0.960 . S
C120 H125 0.961 . S
C120 H126 0.960 . S
C121 N119 1.346 . S
C121 N122 1.307 . S
C121 C123 1.486 . S
N122 N118 1.370 . S
N122 C121 1.307 . S
C123 C121 1.486 . S
C123 H127 0.960 . S
C123 H128 0.960 . S
C123 H129 0.959 . S
H124 C120 0.960 . S
H125 C120 0.961 . S
H126 C120 0.960 . S
H127 C123 0.960 . S
H128 C123 0.960 . S
H129 C123 0.959 . S
C130 N131 1.317 . S
C130 N132 1.348 . S
C130 C133 1.485 . S
N131 C130 1.317 . S
N131 N135 1.370 . S
N132 C130 1.348 . S
N132 C134 1.346 . S
C133 C130 1.485 . S
C133 H137 0.960 . S
C133 H138 0.961 . S
C133 H139 0.960 . S
C134 N132 1.346 . S
C134 N135 1.307 . S
C134 C136 1.486 . S
N135 N131 1.370 . S
N135 C134 1.307 . S
C136 C134 1.486 . S
C136 H140 0.960 . S
C136 H141 0.960 . S
C136 H142 0.959 . S
H137 C133 0.960 . S
H138 C133 0.961 . S
H139 C133 0.960 . S
H140 C136 0.960 . S
H141 C136 0.960 . S
H142 C136 0.959 . S
C143 N144 1.317 . S
C143 N145 1.348 . S
C143 C146 1.485 . S
N144 C143 1.317 . S
N144 N148 1.370 . S
N145 C143 1.348 . S
N145 C147 1.346 . S
C146 C143 1.485 . S
C146 H150 0.960 . S
C146 H151 0.961 . S
C146 H152 0.960 . S
C147 N145 1.346 . S
C147 N148 1.307 . S
C147 C149 1.486 . S
N148 N144 1.370 . S
N148 C147 1.307 . S
C149 C147 1.486 . S
C149 H153 0.960 . S
C149 H154 0.960 . S
C149 H155 0.959 . S
H150 C146 0.960 . S
H151 C146 0.961 . S
H152 C146 0.960 . S
H153 C149 0.960 . S
H154 C149 0.960 . S
H155 C149 0.959 . S
C156 N157 1.317 . S
C156 N158 1.348 . S
C156 C159 1.485 . S
N157 C156 1.317 . S
N157 N161 1.370 . S
N158 C156 1.348 . S
N158 C160 1.346 . S
C159 C156 1.485 . S
C159 H163 0.960 . S
C159 H164 0.961 . S
C159 H165 0.960 . S
C160 N158 1.346 . S
C160 N161 1.307 . S
C160 C162 1.486 . S
N161 N157 1.370 . S
N161 C160 1.307 . S
C162 C160 1.486 . S
C162 H166 0.960 . S
C162 H167 0.960 . S
C162 H168 0.959 . S
H163 C159 0.960 . S
H164 C159 0.961 . S
H165 C159 0.960 . S
H166 C162 0.960 . S
H167 C162 0.960 . S
H168 C162 0.959 . S
C169 N170 1.317 . S
C169 N171 1.348 . S
C169 C172 1.485 . S
N170 C169 1.317 . S
N170 N174 1.370 . S
N171 C169 1.348 . S
N171 C173 1.346 . S
C172 C169 1.485 . S
C172 H176 0.960 . S
C172 H177 0.961 . S
C172 H178 0.960 . S
C173 N171 1.346 . S
C173 N174 1.307 . S
C173 C175 1.486 . S
N174 N170 1.370 . S
N174 C173 1.307 . S
C175 C173 1.486 . S
C175 H179 0.960 . S
C175 H180 0.960 . S
C175 H181 0.959 . S
H176 C172 0.960 . S
H177 C172 0.961 . S
H178 C172 0.960 . S
H179 C175 0.960 . S
H180 C175 0.960 . S
H181 C175 0.959 . S
C182 N183 1.317 . S
C182 N184 1.348 . S
C182 C185 1.485 . S
N183 C182 1.317 . S
N183 N187 1.370 . S
N184 C182 1.348 . S
N184 C186 1.346 . S
C185 C182 1.485 . S
C185 H189 0.960 . S
C185 H190 0.961 . S
C185 H191 0.960 . S
C186 N184 1.346 . S
C186 N187 1.307 . S
C186 C188 1.486 . S
N187 N183 1.370 . S
N187 C186 1.307 . S
C188 C186 1.486 . S
C188 H192 0.960 . S
C188 H193 0.960 . S
C188 H194 0.959 . S
H189 C185 0.960 . S
H190 C185 0.961 . S
H191 C185 0.960 . S
H192 C188 0.960 . S
H193 C188 0.960 . S
H194 C188 0.959 . S
C195 N196 1.317 . S
C195 N197 1.348 . S
C195 C198 1.485 . S
N196 C195 1.317 . S
N196 N200 1.370 . S
N197 C195 1.348 . S
N197 C199 1.346 . S
C198 C195 1.485 . S
C198 H202 0.960 . S
C198 H203 0.961 1_545 S
C198 H204 0.960 . S
C199 N197 1.346 . S
C199 N200 1.307 . S
C199 C201 1.486 1_556 S
N200 N196 1.370 . S
N200 C199 1.307 . S
C201 C199 1.486 1_554 S
C201 H205 0.960 . S
C201 H206 0.960 . S
C201 H207 0.959 . S
H202 C198 0.960 . S
H203 C198 0.961 1_565 S
H204 C198 0.960 . S
H205 C201 0.960 . S
H206 C201 0.960 . S
H207 C201 0.959 . S
Zn208 O211 2.032 . S
Zn208 O213 2.049 1_554 S
Zn208 O218 2.066 1_554 S
Zn209 O210 1.962 . S
Zn209 O212 1.986 . S
Zn209 O214 1.996 . S
Zn209 O217 1.943 1_554 S
O210 Zn209 1.962 . S
O210 C215 1.254 . S
O211 Zn208 2.032 . S
O211 C215 1.269 . S
O212 Zn209 1.986 . S
O212 C219 1.262 . S
O213 Zn208 2.049 1_556 S
O213 C221 1.260 . S
O214 Zn209 1.996 . S
O214 C221 1.257 1_554 S
C215 O210 1.254 . S
C215 O211 1.269 . S
C216 O217 1.249 . S
C216 O218 1.270 . S
O217 Zn209 1.943 1_556 S
O217 C216 1.249 . S
O218 Zn208 2.066 1_556 S
O218 C216 1.270 . S
C219 O212 1.262 . S
C219 O220 1.232 . S
O220 C219 1.232 . S
C221 O213 1.260 . S
C221 O214 1.257 1_556 S
Zn222 O225 2.031 . S
Zn222 O227 2.049 . S
Zn222 O232 2.067 . S
Zn223 O224 1.962 . S
Zn223 O226 1.986 . S
Zn223 O228 1.996 . S
Zn223 O231 1.943 . S
O224 Zn223 1.962 . S
O224 C229 1.254 . S
O225 Zn222 2.031 . S
O225 C229 1.269 . S
O226 Zn223 1.986 . S
O226 C233 1.262 . S
O227 Zn222 2.049 . S
O227 C235 1.260 . S
O228 Zn223 1.996 . S
O228 C235 1.257 . S
C229 O224 1.254 . S
C229 O225 1.269 . S
C230 O231 1.249 . S
C230 O232 1.270 . S
O231 Zn223 1.943 . S
O231 C230 1.249 . S
O232 Zn222 2.067 . S
O232 C230 1.270 . S
C233 O226 1.262 . S
C233 O234 1.232 . S
O234 C233 1.232 . S
C235 O227 1.260 . S
C235 O228 1.257 . S
Zn236 O239 2.031 . S
Zn236 O241 2.049 . S
Zn236 O246 2.067 . S
Zn237 O238 1.962 . S
Zn237 O240 1.986 . S
Zn237 O242 1.996 1_554 S
Zn237 O245 1.943 . S
O238 Zn237 1.962 . S
O238 C243 1.254 . S
O239 Zn236 2.031 . S
O239 C243 1.269 1_556 S
O240 Zn237 1.986 . S
O240 C247 1.262 . S
O241 Zn236 2.049 . S
O241 C249 1.260 . S
O242 Zn237 1.996 1_556 S
O242 C249 1.257 . S
C243 O238 1.254 . S
C243 O239 1.269 1_554 S
C244 O245 1.249 1_556 S
C244 O246 1.270 . S
O245 Zn237 1.943 . S
O245 C244 1.249 1_554 S
O246 Zn236 2.067 . S
O246 C244 1.270 . S
C247 O240 1.262 . S
C247 O248 1.232 . S
O248 C247 1.232 . S
C249 O241 1.260 . S
C249 O242 1.257 . S
Zn250 O253 2.031 . S
Zn250 O255 2.049 1_545 S
Zn250 O260 2.067 1_545 S
Zn251 O252 1.962 . S
Zn251 O254 1.986 . S
Zn251 O256 1.996 . S
Zn251 O259 1.943 1_545 S
O252 Zn251 1.962 . S
O252 C257 1.254 . S
O253 Zn250 2.031 . S
O253 C257 1.269 . S
O254 Zn251 1.986 . S
O254 C261 1.262 . S
O255 Zn250 2.049 1_565 S
O255 C263 1.260 . S
O256 Zn251 1.996 . S
O256 C263 1.257 1_545 S
C257 O252 1.254 . S
C257 O253 1.269 . S
C258 O259 1.249 . S
C258 O260 1.270 . S
O259 Zn251 1.943 1_565 S
O259 C258 1.249 . S
O260 Zn250 2.067 1_565 S
O260 C258 1.270 . S
C261 O254 1.262 . S
C261 O262 1.232 . S
O262 C261 1.232 . S
C263 O255 1.260 . S
C263 O256 1.257 1_565 S
Zn264 O267 2.031 . S
Zn264 O269 2.049 . S
Zn264 O274 2.067 . S
Zn265 O266 1.962 . S
Zn265 O268 1.986 . S
Zn265 O270 1.996 . S
Zn265 O273 1.943 . S
O266 Zn265 1.962 . S
O266 C271 1.254 . S
O267 Zn264 2.031 . S
O267 C271 1.269 . S
O268 Zn265 1.986 . S
O268 C275 1.262 . S
O269 Zn264 2.049 . S
O269 C277 1.260 . S
O270 Zn265 1.996 . S
O270 C277 1.257 . S
C271 O266 1.254 . S
C271 O267 1.269 . S
C272 O273 1.249 . S
C272 O274 1.270 . S
O273 Zn265 1.943 . S
O273 C272 1.249 . S
O274 Zn264 2.067 . S
O274 C272 1.270 . S
C275 O268 1.262 . S
C275 O276 1.232 . S
O276 C275 1.232 . S
C277 O269 1.260 . S
C277 O270 1.257 . S
Zn278 O281 2.031 . S
Zn278 O283 2.049 . S
Zn278 O288 2.067 . S
Zn279 O280 1.962 . S
Zn279 O282 1.986 . S
Zn279 O284 1.996 . S
Zn279 O287 1.943 . S
O280 Zn279 1.962 . S
O280 C285 1.254 . S
O281 Zn278 2.031 . S
O281 C285 1.269 . S
O282 Zn279 1.986 . S
O282 C289 1.262 . S
O283 Zn278 2.049 . S
O283 C291 1.260 . S
O284 Zn279 1.996 . S
O284 C291 1.257 . S
C285 O280 1.254 . S
C285 O281 1.269 . S
C286 O287 1.249 . S
C286 O288 1.270 . S
O287 Zn279 1.943 . S
O287 C286 1.249 . S
O288 Zn278 2.067 . S
O288 C286 1.270 . S
C289 O282 1.262 . S
C289 O290 1.232 . S
O290 C289 1.232 . S
C291 O283 1.260 . S
C291 O284 1.257 . S
Zn292 O295 2.031 . S
Zn292 O297 2.049 . S
Zn292 O302 2.067 . S
Zn293 O294 1.962 . S
Zn293 O296 1.986 . S
Zn293 O298 1.996 . S
Zn293 O301 1.943 . S
O294 Zn293 1.962 . S
O294 C299 1.254 . S
O295 Zn292 2.031 . S
O295 C299 1.269 . S
O296 Zn293 1.986 . S
O296 C303 1.262 . S
O297 Zn292 2.049 . S
O297 C305 1.260 . S
O298 Zn293 1.996 . S
O298 C305 1.257 . S
C299 O294 1.254 . S
C299 O295 1.269 . S
C300 O301 1.249 . S
C300 O302 1.270 . S
O301 Zn293 1.943 . S
O301 C300 1.249 . S
O302 Zn292 2.067 . S
O302 C300 1.270 . S
C303 O296 1.262 . S
C303 O304 1.232 . S
O304 C303 1.232 . S
C305 O297 1.260 . S
C305 O298 1.257 . S
Zn306 O309 2.031 1_565 S
Zn306 O311 2.049 . S
Zn306 O316 2.067 . S
Zn307 O308 1.962 . S
Zn307 O310 1.986 . S
Zn307 O312 1.996 1_545 S
Zn307 O315 1.943 . S
O308 Zn307 1.962 . S
O308 C313 1.254 . S
O309 Zn306 2.031 1_545 S
O309 C313 1.269 . S
O310 Zn307 1.986 . S
O310 C317 1.262 . S
O311 Zn306 2.049 . S
O311 C319 1.260 . S
O312 Zn307 1.996 1_565 S
O312 C319 1.257 . S
C313 O308 1.254 . S
C313 O309 1.269 . S
C314 O315 1.249 1_565 S
C314 O316 1.270 . S
O315 Zn307 1.943 . S
O315 C314 1.249 1_545 S
O316 Zn306 2.067 . S
O316 C314 1.270 . S
C317 O310 1.262 . S
C317 O318 1.232 . S
O318 C317 1.232 . S
C319 O311 1.260 . S
C319 O312 1.257 . S
Zn320 O323 2.031 . S
Zn320 O325 2.049 1_455 S
Zn320 O330 2.067 1_455 S
Zn321 O322 1.962 . S
Zn321 O324 1.986 . S
Zn321 O326 1.996 . S
Zn321 O329 1.943 1_455 S
O322 Zn321 1.962 . S
O322 C327 1.254 . S
O323 Zn320 2.031 . S
O323 C327 1.269 . S
O324 Zn321 1.986 . S
O324 C331 1.262 . S
O325 Zn320 2.049 1_655 S
O325 C333 1.260 . S
O326 Zn321 1.996 . S
O326 C333 1.257 1_455 S
C327 O322 1.254 . S
C327 O323 1.269 . S
C328 O329 1.249 . S
C328 O330 1.270 . S
O329 Zn321 1.943 1_655 S
O329 C328 1.249 . S
O330 Zn320 2.067 1_655 S
O330 C328 1.270 . S
C331 O324 1.262 . S
C331 O332 1.232 . S
O332 C331 1.232 . S
C333 O325 1.260 . S
C333 O326 1.257 1_655 S
Zn334 O337 2.031 . S
Zn334 O339 2.049 . S
Zn334 O344 2.067 . S
Zn335 O336 1.962 . S
Zn335 O338 1.986 . S
Zn335 O340 1.996 . S
Zn335 O343 1.943 . S
O336 Zn335 1.962 . S
O336 C341 1.254 . S
O337 Zn334 2.031 . S
O337 C341 1.269 . S
O338 Zn335 1.986 . S
O338 C345 1.262 . S
O339 Zn334 2.049 . S
O339 C347 1.260 . S
O340 Zn335 1.996 . S
O340 C347 1.257 . S
C341 O336 1.254 . S
C341 O337 1.269 . S
C342 O343 1.249 . S
C342 O344 1.270 . S
O343 Zn335 1.943 . S
O343 C342 1.249 . S
O344 Zn334 2.067 . S
O344 C342 1.270 . S
C345 O338 1.262 . S
C345 O346 1.232 . S
O346 C345 1.232 . S
C347 O339 1.260 . S
C347 O340 1.257 . S
Zn348 O351 2.031 1_655 S
Zn348 O353 2.049 . S
Zn348 O358 2.067 . S
Zn349 O350 1.962 . S
Zn349 O352 1.986 . S
Zn349 O354 1.996 1_455 S
Zn349 O357 1.943 . S
O350 Zn349 1.962 . S
O350 C355 1.254 . S
O351 Zn348 2.031 1_455 S
O351 C355 1.269 . S
O352 Zn349 1.986 . S
O352 C359 1.262 . S
O353 Zn348 2.049 . S
O353 C361 1.260 . S
O354 Zn349 1.996 1_655 S
O354 C361 1.257 . S
C355 O350 1.254 . S
C355 O351 1.269 . S
C356 O357 1.249 1_655 S
C356 O358 1.270 . S
O357 Zn349 1.943 . S
O357 C356 1.249 1_455 S
O358 Zn348 2.067 . S
O358 C356 1.270 . S
C359 O352 1.262 . S
C359 O360 1.232 . S
O360 C359 1.232 . S
C361 O353 1.260 . S
C361 O354 1.257 . S
Zn362 O365 2.031 . S
Zn362 O367 2.049 . S
Zn362 O372 2.067 . S
Zn363 O364 1.962 . S
Zn363 O366 1.986 . S
Zn363 O368 1.996 . S
Zn363 O371 1.943 . S
O364 Zn363 1.962 . S
O364 C369 1.254 . S
O365 Zn362 2.031 . S
O365 C369 1.269 . S
O366 Zn363 1.986 . S
O366 C373 1.262 . S
O367 Zn362 2.049 . S
O367 C375 1.260 . S
O368 Zn363 1.996 . S
O368 C375 1.257 . S
C369 O364 1.254 . S
C369 O365 1.269 . S
C370 O371 1.249 . S
C370 O372 1.270 . S
O371 Zn363 1.943 . S
O371 C370 1.249 . S
O372 Zn362 2.067 . S
O372 C370 1.270 . S
C373 O366 1.262 . S
C373 O374 1.232 . S
O374 C373 1.232 . S
C375 O367 1.260 . S
C375 O368 1.257 . S
C376 C377 1.387 . S
C376 H380 0.950 . S
C376 C385 1.390 . S
C377 C376 1.387 . S
C377 C379 1.387 . S
H378 C385 0.950 . S
C379 C377 1.387 . S
C379 C381 1.390 . S
C379 H383 0.950 . S
H380 C376 0.950 . S
C381 C379 1.390 . S
C381 C382 1.387 . S
C381 H384 0.950 . S
C382 C381 1.387 . S
C382 C385 1.387 . S
H383 C379 0.950 . S
H384 C381 0.950 . S
C385 C376 1.390 . S
C385 H378 0.950 . S
C385 C382 1.387 . S
C386 C387 1.398 . S
C386 H390 0.943 1_455 S
C386 C395 1.390 . S
C387 C386 1.398 . S
C387 C389 1.400 . S
H388 C395 0.950 . S
C389 C387 1.400 . S
C389 C391 1.390 . S
C389 H393 0.950 . S
H390 C386 0.943 1_655 S
C391 C389 1.390 . S
C391 C392 1.387 . S
C391 H394 0.950 . S
C392 C391 1.387 . S
C392 C395 1.387 . S
H393 C389 0.950 . S
H394 C391 0.950 . S
C395 C386 1.390 . S
C395 H388 0.950 . S
C395 C392 1.387 . S
C396 C397 1.387 . S
C396 H400 0.950 . S
C396 C405 1.390 . S
C397 C396 1.387 . S
C397 C399 1.387 . S
H398 C405 0.950 . S
C399 C397 1.387 . S
C399 C401 1.390 . S
C399 H403 0.950 . S
H400 C396 0.950 . S
C401 C399 1.390 . S
C401 C402 1.387 . S
C401 H404 0.950 . S
C402 C401 1.387 . S
C402 C405 1.387 . S
H403 C399 0.950 . S
H404 C401 0.950 . S
C405 C396 1.390 . S
C405 H398 0.950 . S
C405 C402 1.387 . S
C406 C407 1.387 1_655 S
C406 H410 0.950 . S
C406 C415 1.390 . S
C407 C406 1.387 1_455 S
C407 C409 1.387 1_465 S
H408 C415 0.950 . S
C409 C407 1.387 1_645 S
C409 C411 1.390 . S
C409 H413 0.950 1_655 S
H410 C406 0.950 . S
C411 C409 1.390 . S
C411 C412 1.387 1_545 S
C411 H414 0.950 . S
C412 C411 1.387 1_565 S
C412 C415 1.387 . S
H413 C409 0.950 1_455 S
H414 C411 0.950 . S
C415 C406 1.390 . S
C415 H408 0.950 . S
C415 C412 1.387 . S
C416 C417 1.387 . S
C416 H420 0.950 . S
C416 C425 1.390 . S
C417 C416 1.387 . S
C417 C419 1.387 . S
H418 C425 0.950 . S
C419 C417 1.387 . S
C419 C421 1.390 . S
C419 H423 0.950 . S
H420 C416 0.950 . S
C421 C419 1.390 . S
C421 C422 1.387 . S
C421 H424 0.950 . S
C422 C421 1.387 . S
C422 C425 1.387 . S
H423 C419 0.950 . S
H424 C421 0.950 . S
C425 C416 1.390 . S
C425 H418 0.950 . S
C425 C422 1.387 . S
C426 C427 1.387 . S
C426 H430 0.950 . S
C426 C435 1.390 . S
C427 C426 1.387 . S
C427 C429 1.387 . S
H428 C435 0.950 . S
C429 C427 1.387 . S
C429 C431 1.390 . S
C429 H433 0.950 . S
H430 C426 0.950 . S
C431 C429 1.390 . S
C431 C432 1.387 . S
C431 H434 0.950 . S
C432 C431 1.387 . S
C432 C435 1.387 . S
H433 C429 0.950 . S
H434 C431 0.950 . S
C435 C426 1.390 . S
C435 H428 0.950 . S
C435 C432 1.387 . S
C436 C437 1.387 . S
C436 H440 0.950 . S
C436 C445 1.390 . S
C437 C436 1.387 . S
C437 C439 1.387 . S
H438 C445 0.950 . S
C439 C437 1.387 . S
C439 C441 1.390 . S
C439 H443 0.950 . S
H440 C436 0.950 . S
C441 C439 1.390 . S
C441 C442 1.387 . S
C441 H444 0.950 . S
C442 C441 1.387 . S
C442 C445 1.387 . S
H443 C439 0.950 . S
H444 C441 0.950 . S
C445 C436 1.390 . S
C445 H438 0.950 . S
C445 C442 1.387 . S
C446 C447 1.387 1_545 S
C446 H450 0.950 . S
C446 C455 1.390 . S
C447 C446 1.387 1_565 S
C447 C449 1.387 . S
H448 C455 0.950 . S
C449 C447 1.387 . S
C449 C451 1.390 . S
C449 H453 0.950 . S
H450 C446 0.950 . S
C451 C449 1.390 . S
C451 C452 1.387 . S
C451 H454 0.950 . S
C452 C451 1.387 . S
C452 C455 1.387 1_565 S
H453 C449 0.950 . S
H454 C451 0.950 . S
C455 C446 1.390 . S
C455 H448 0.950 . S
C455 C452 1.387 1_545 S
C456 C457 1.387 . S
C456 H460 0.950 . S
C456 C465 1.390 . S
C457 C456 1.387 . S
C457 C459 1.387 . S
H458 C465 0.950 . S
C459 C457 1.387 . S
C459 C461 1.390 . S
C459 H463 0.950 . S
H460 C456 0.950 . S
C461 C459 1.390 . S
C461 C462 1.387 . S
C461 H464 0.950 . S
C462 C461 1.387 . S
C462 C465 1.387 . S
H463 C459 0.950 . S
H464 C461 0.950 . S
C465 C456 1.390 . S
C465 H458 0.950 . S
C465 C462 1.387 . S
C466 C467 1.387 . S
C466 H470 0.950 . S
C466 C475 1.390 . S
C467 C466 1.387 . S
C467 C469 1.387 . S
H468 C475 0.950 . S
C469 C467 1.387 . S
C469 C471 1.390 . S
C469 H473 0.950 . S
H470 C466 0.950 . S
C471 C469 1.390 . S
C471 C472 1.387 . S
C471 H474 0.950 . S
C472 C471 1.387 . S
C472 C475 1.387 . S
H473 C469 0.950 . S
H474 C471 0.950 . S
C475 C466 1.390 . S
C475 H468 0.950 . S
C475 C472 1.387 . S
C476 C477 1.387 . S
C476 H480 0.950 . S
C476 C485 1.390 . S
C477 C476 1.387 . S
C477 C479 1.387 . S
H478 C485 0.950 . S
C479 C477 1.387 . S
C479 C481 1.390 . S
C479 H483 0.950 . S
H480 C476 0.950 . S
C481 C479 1.390 . S
C481 C482 1.387 . S
C481 H484 0.950 . S
C482 C481 1.387 . S
C482 C485 1.387 . S
H483 C479 0.950 . S
H484 C481 0.950 . S
C485 C476 1.390 . S
C485 H478 0.950 . S
C485 C482 1.387 . S
C486 C487 1.387 . S
C486 H490 0.950 . S
C486 C495 1.390 . S
C487 C486 1.387 . S
C487 C489 1.387 . S
H488 C495 0.950 . S
C489 C487 1.387 . S
C489 C491 1.390 . S
C489 H493 0.950 . S
H490 C486 0.950 . S
C491 C489 1.390 . S
C491 C492 1.387 . S
C491 H494 0.950 . S
C492 C491 1.387 . S
C492 C495 1.387 . S
H493 C489 0.950 . S
H494 C491 0.950 . S
C495 C486 1.390 . S
C495 H488 0.950 . S
C495 C492 1.387 . S
C496 C497 1.387 . S
C496 H500 0.950 . S
C496 C505 1.390 . S
C497 C496 1.387 . S
C497 C499 1.387 . S
H498 C505 0.950 . S
C499 C497 1.387 . S
C499 C501 1.390 . S
C499 H503 0.950 . S
H500 C496 0.950 . S
C501 C499 1.390 . S
C501 C502 1.387 . S
C501 H504 0.950 . S
C502 C501 1.387 . S
C502 C505 1.387 . S
H503 C499 0.950 . S
H504 C501 0.950 . S
C505 C496 1.390 . S
C505 H498 0.950 . S
C505 C502 1.387 . S
C506 C507 1.387 . S
C506 H510 0.950 . S
C506 C515 1.390 . S
C507 C506 1.387 . S
C507 C509 1.387 . S
H508 C515 0.950 . S
C509 C507 1.387 . S
C509 C511 1.390 . S
C509 H513 0.950 . S
H510 C506 0.950 . S
C511 C509 1.390 . S
C511 C512 1.387 . S
C511 H514 0.950 . S
C512 C511 1.387 . S
C512 C515 1.387 . S
H513 C509 0.950 . S
H514 C511 0.950 . S
C515 C506 1.390 . S
C515 H508 0.950 . S
C515 C512 1.387 . S
C516 C517 1.387 . S
C516 H520 0.950 . S
C516 C525 1.390 . S
C517 C516 1.387 . S
C517 C519 1.387 . S
H518 C525 0.950 . S
C519 C517 1.387 . S
C519 C521 1.390 . S
C519 H523 0.950 . S
H520 C516 0.950 . S
C521 C519 1.390 . S
C521 C522 1.387 . S
C521 H524 0.950 . S
C522 C521 1.387 . S
C522 C525 1.387 . S
H523 C519 0.950 . S
H524 C521 0.950 . S
C525 C516 1.390 . S
C525 H518 0.950 . S
C525 C522 1.387 . S
C526 C527 1.387 . S
C526 H530 0.950 . S
C526 C535 1.390 . S
C527 C526 1.387 . S
C527 C529 1.387 1_655 S
H528 C535 0.950 . S
C529 C527 1.387 1_455 S
C529 C531 1.390 . S
C529 H533 0.950 . S
H530 C526 0.950 . S
C531 C529 1.390 . S
C531 C532 1.387 1_455 S
C531 H534 0.950 . S
C532 C531 1.387 1_655 S
C532 C535 1.387 . S
H533 C529 0.950 . S
H534 C531 0.950 . S
C535 C526 1.390 . S
C535 H528 0.950 . S
C535 C532 1.387 . S
C536 C537 1.387 . S
C536 H540 0.950 . S
C536 C545 1.390 . S
C537 C536 1.387 . S
C537 C539 1.387 . S
H538 C545 0.950 . S
C539 C537 1.387 . S
C539 C541 1.390 . S
C539 H543 0.950 . S
H540 C536 0.950 . S
C541 C539 1.390 . S
C541 C542 1.387 . S
C541 H544 0.950 . S
C542 C541 1.387 . S
C542 C545 1.387 . S
H543 C539 0.950 . S
H544 C541 0.950 . S
C545 C536 1.390 . S
C545 H538 0.950 . S
C545 C542 1.387 . S
C546 C547 1.387 . S
C546 H550 0.950 . S
C546 C555 1.390 . S
C547 C546 1.387 . S
C547 C549 1.387 . S
H548 C555 0.950 . S
C549 C547 1.387 . S
C549 C551 1.390 . S
C549 H553 0.950 . S
H550 C546 0.950 . S
C551 C549 1.390 . S
C551 C552 1.387 . S
C551 H554 0.950 . S
C552 C551 1.387 . S
C552 C555 1.387 . S
H553 C549 0.950 . S
H554 C551 0.950 . S
C555 C546 1.390 . S
C555 H548 0.950 . S
C555 C552 1.387 . S
C556 C557 1.387 1_565 S
C556 H560 0.950 . S
C556 C565 1.390 . S
C557 C556 1.387 1_545 S
C557 C559 1.404 . S
H558 C565 0.950 . S
C559 C557 1.404 . S
C559 C561 1.383 1_546 S
C559 H563 0.940 1_556 S
H560 C556 0.950 . S
C561 C559 1.383 1_564 S
C561 C562 1.387 1_554 S
C561 H564 0.950 1_565 S
C562 C561 1.387 1_556 S
C562 C565 1.387 . S
H563 C559 0.940 1_554 S
H564 C561 0.950 1_545 S
C565 C556 1.390 . S
C565 H558 0.950 . S
C565 C562 1.387 . S
C566 C567 1.387 . S
C566 H570 0.950 . S
C566 C575 1.390 . S
C567 C566 1.387 . S
C567 C569 1.387 . S
H568 C575 0.950 . S
C569 C567 1.387 . S
C569 C571 1.390 . S
C569 H573 0.950 . S
H570 C566 0.950 . S
C571 C569 1.390 . S
C571 C572 1.387 . S
C571 H574 0.950 . S
C572 C571 1.387 . S
C572 C575 1.387 . S
H573 C569 0.950 . S
H574 C571 0.950 . S
C575 C566 1.390 . S
C575 H568 0.950 . S
C575 C572 1.387 . S
C576 C577 1.387 . S
C576 H580 0.950 . S
C576 C585 1.390 . S
C577 C576 1.387 . S
C577 C579 1.387 . S
H578 C585 0.950 . S
C579 C577 1.387 . S
C579 C581 1.390 . S
C579 H583 0.950 . S
H580 C576 0.950 . S
C581 C579 1.390 . S
C581 C582 1.387 . S
C581 H584 0.950 . S
C582 C581 1.387 . S
C582 C585 1.387 . S
H583 C579 0.950 . S
H584 C581 0.950 . S
C585 C576 1.390 . S
C585 H578 0.950 . S
C585 C582 1.387 . S
C586 C587 1.387 . S
C586 H590 0.950 . S
C586 C595 1.390 . S
C587 C586 1.387 . S
C587 C589 1.387 . S
H588 C595 0.950 . S
C589 C587 1.387 . S
C589 C591 1.390 . S
C589 H593 0.950 . S
H590 C586 0.950 . S
C591 C589 1.390 . S
C591 C592 1.387 . S
C591 H594 0.950 . S
C592 C591 1.387 . S
C592 C595 1.387 . S
H593 C589 0.950 . S
H594 C591 0.950 . S
C595 C586 1.390 . S
C595 H588 0.950 . S
C595 C592 1.387 . S
C596 C597 1.387 . S
C596 H600 0.950 . S
C596 C605 1.390 . S
C597 C596 1.387 . S
C597 C599 1.387 . S
H598 C605 0.950 . S
C599 C597 1.387 . S
C599 C601 1.390 . S
C599 H603 0.950 1_545 S
H600 C596 0.950 . S
C601 C599 1.390 . S
C601 C602 1.387 . S
C601 H604 0.950 . S
C602 C601 1.387 . S
C602 C605 1.387 . S
H603 C599 0.950 1_565 S
H604 C601 0.950 . S
C605 C596 1.390 . S
C605 H598 0.950 . S
C605 C602 1.387 . S
C606 C607 1.387 . S
C606 H610 0.950 . S
C606 C615 1.390 . S
C607 C606 1.387 . S
C607 C609 1.387 . S
H608 C615 0.950 . S
C609 C607 1.387 . S
C609 C611 1.390 . S
C609 H613 0.950 . S
H610 C606 0.950 . S
C611 C609 1.390 . S
C611 C612 1.387 . S
C611 H614 0.950 . S
C612 C611 1.387 . S
C612 C615 1.387 . S
H613 C609 0.950 . S
H614 C611 0.950 . S
C615 C606 1.390 . S
C615 H608 0.950 . S
C615 C612 1.387 . S
C616 C617 1.387 . S
C616 H620 0.950 . S
C616 C625 1.390 . S
C617 C616 1.387 . S
C617 C619 1.387 . S
H618 C625 0.950 . S
C619 C617 1.387 . S
C619 C621 1.390 . S
C619 H623 0.950 . S
H620 C616 0.950 . S
C621 C619 1.390 . S
C621 C622 1.387 . S
C621 H624 0.950 . S
C622 C621 1.387 . S
C622 C625 1.387 . S
H623 C619 0.950 . S
H624 C621 0.950 . S
C625 C616 1.390 . S
C625 H618 0.950 . S
C625 C622 1.387 . S
C626 C627 1.387 . S
C626 H630 0.950 . S
C626 C635 1.390 . S
C627 C626 1.387 . S
C627 C629 1.387 . S
H628 C635 0.950 . S
C629 C627 1.387 . S
C629 C631 1.390 . S
C629 H633 0.950 . S
H630 C626 0.950 . S
C631 C629 1.390 . S
C631 C632 1.387 . S
C631 H634 0.950 . S
C632 C631 1.387 . S
C632 C635 1.387 . S
H633 C629 0.950 . S
H634 C631 0.950 . S
C635 C626 1.390 . S
C635 H628 0.950 . S
C635 C632 1.387 . S
C636 C637 1.387 . S
C636 H640 0.950 . S
C636 C645 1.390 . S
C637 C636 1.387 . S
C637 C639 1.387 . S
H638 C645 0.950 . S
C639 C637 1.387 . S
C639 C641 1.390 . S
C639 H643 0.950 . S
H640 C636 0.950 . S
C641 C639 1.390 . S
C641 C642 1.387 . S
C641 H644 0.950 . S
C642 C641 1.387 . S
C642 C645 1.387 . S
H643 C639 0.950 . S
H644 C641 0.950 . S
C645 C636 1.390 . S
C645 H638 0.950 . S
C645 C642 1.387 . S
C646 C647 1.387 . S
C646 H650 0.950 . S
C646 C655 1.390 . S
C647 C646 1.387 . S
C647 C649 1.387 . S
H648 C655 0.950 . S
C649 C647 1.387 . S
C649 C651 1.390 . S
C649 H653 0.950 . S
H650 C646 0.950 . S
C651 C649 1.390 . S
C651 C652 1.387 . S
C651 H654 0.950 . S
C652 C651 1.387 . S
C652 C655 1.387 . S
H653 C649 0.950 . S
H654 C651 0.950 . S
C655 C646 1.390 . S
C655 H648 0.950 . S
C655 C652 1.387 . S
C656 C657 1.387 . S
C656 H660 0.950 . S
C656 C665 1.390 . S
C657 C656 1.387 . S
C657 C659 1.387 . S
H658 C665 0.950 . S
C659 C657 1.387 . S
C659 C661 1.390 . S
C659 H663 0.950 . S
H660 C656 0.950 . S
C661 C659 1.390 . S
C661 C662 1.387 . S
C661 H664 0.950 . S
C662 C661 1.387 . S
C662 C665 1.387 . S
H663 C659 0.950 . S
H664 C661 0.950 . S
C665 C656 1.390 . S
C665 H658 0.950 . S
C665 C662 1.387 . S
C666 C667 1.387 . S
C666 H670 0.950 . S
C666 C675 1.390 . S
C667 C666 1.387 . S
C667 C669 1.387 1_545 S
H668 C675 0.950 . S
C669 C667 1.387 1_565 S
C669 C671 1.390 . S
C669 H673 0.950 . S
H670 C666 0.950 . S
C671 C669 1.390 . S
C671 C672 1.387 1_565 S
C671 H674 0.950 . S
C672 C671 1.387 1_545 S
C672 C675 1.387 . S
H673 C669 0.950 . S
H674 C671 0.950 . S
C675 C666 1.390 . S
C675 H668 0.950 . S
C675 C672 1.387 . S
C676 C677 1.387 . S
C676 H680 0.950 . S
C676 C685 1.390 . S
C677 C676 1.387 . S
C677 C679 1.387 . S
H678 C685 0.950 . S
C679 C677 1.387 . S
C679 C681 1.390 . S
C679 H683 0.950 . S
H680 C676 0.950 . S
C681 C679 1.390 . S
C681 C682 1.387 . S
C681 H684 0.950 . S
C682 C681 1.387 . S
C682 C685 1.387 . S
H683 C679 0.950 . S
H684 C681 0.950 . S
C685 C676 1.390 . S
C685 H678 0.950 . S
C685 C682 1.387 . S
C686 C687 1.387 . S
C686 H690 0.950 . S
C686 C695 1.390 . S
C687 C686 1.387 . S
C687 C689 1.387 . S
H688 C695 0.950 . S
C689 C687 1.387 . S
C689 C691 1.390 . S
C689 H693 0.950 . S
H690 C686 0.950 . S
C691 C689 1.390 . S
C691 C692 1.387 . S
C691 H694 0.950 . S
C692 C691 1.387 . S
C692 C695 1.387 . S
H693 C689 0.950 . S
H694 C691 0.950 . S
C695 C686 1.390 . S
C695 H688 0.950 . S
C695 C692 1.387 . S
C696 C697 1.387 . S
C696 H700 0.950 . S
C696 C705 1.390 . S
C697 C696 1.387 . S
C697 C699 1.387 . S
H698 C705 0.950 . S
C699 C697 1.387 . S
C699 C701 1.390 . S
C699 H703 0.950 . S
H700 C696 0.950 . S
C701 C699 1.390 . S
C701 C702 1.387 . S
C701 H704 0.950 . S
C702 C701 1.387 . S
C702 C705 1.387 . S
H703 C699 0.950 . S
H704 C701 0.950 . S
C705 C696 1.390 . S
C705 H698 0.950 . S
C705 C702 1.387 . S
C706 C707 1.407 . S
C706 H710 0.940 1_554 S
C706 C715 1.380 1_554 S
C707 C706 1.407 . S
C707 C709 1.387 . S
H708 C715 0.950 . S
C709 C707 1.387 . S
C709 C711 1.390 . S
C709 H713 0.950 . S
H710 C706 0.940 1_556 S
C711 C709 1.390 . S
C711 C712 1.387 1_554 S
C711 H714 0.950 . S
C712 C711 1.387 1_556 S
C712 C715 1.387 . S
H713 C709 0.950 . S
H714 C711 0.950 . S
C715 C706 1.380 1_556 S
C715 H708 0.950 . S
C715 C712 1.387 . S
C716 C717 1.387 . S
C716 H720 0.950 . S
C716 C725 1.390 . S
C717 C716 1.387 . S
C717 C719 1.387 . S
H718 C725 0.950 . S
C719 C717 1.387 . S
C719 C721 1.390 . S
C719 H723 0.950 . S
H720 C716 0.950 . S
C721 C719 1.390 . S
C721 C722 1.387 . S
C721 H724 0.950 . S
C722 C721 1.387 . S
C722 C725 1.387 . S
H723 C719 0.950 . S
H724 C721 0.950 . S
C725 C716 1.390 . S
C725 H718 0.950 . S
C725 C722 1.387 . S
C726 C727 1.387 1_556 S
C726 H730 0.952 . S
C726 C735 1.390 . S
C727 C726 1.387 1_554 S
C727 C729 1.387 1_455 S
H728 C735 0.950 . S
C729 C727 1.387 1_655 S
C729 C731 1.390 1_554 S
C729 H733 0.950 . S
H730 C726 0.952 . S
C731 C729 1.390 1_556 S
C731 C732 1.387 1_655 S
C731 H734 0.950 . S
C732 C731 1.387 1_455 S
C732 C735 1.387 . S
H733 C729 0.950 . S
H734 C731 0.950 . S
C735 C726 1.390 . S
C735 H728 0.950 . S
C735 C732 1.387 . S
C736 C737 1.387 . S
C736 H740 0.950 . S
C736 C745 1.390 . S
C737 C736 1.387 . S
C737 C739 1.387 . S
H738 C745 0.950 . S
C739 C737 1.387 . S
C739 C741 1.390 . S
C739 H743 0.950 . S
H740 C736 0.950 . S
C741 C739 1.390 . S
C741 C742 1.387 . S
C741 H744 0.950 . S
C742 C741 1.387 . S
C742 C745 1.387 . S
H743 C739 0.950 . S
H744 C741 0.950 . S
C745 C736 1.390 . S
C745 H738 0.950 . S
C745 C742 1.387 . S
C746 C747 1.387 . S
C746 H750 0.950 . S
C746 C755 1.390 . S
C747 C746 1.387 . S
C747 C749 1.387 . S
H748 C755 0.950 . S
C749 C747 1.387 . S
C749 C751 1.390 . S
C749 H753 0.950 . S
H750 C746 0.950 . S
C751 C749 1.390 . S
C751 C752 1.387 . S
C751 H754 0.950 . S
C752 C751 1.387 . S
C752 C755 1.387 . S
H753 C749 0.950 . S
H754 C751 0.950 . S
C755 C746 1.390 . S
C755 H748 0.950 . S
C755 C752 1.387 . S
C756 C757 1.387 . S
C756 H760 0.950 . S
C756 C765 1.390 . S
C757 C756 1.387 . S
C757 C759 1.387 . S
H758 C765 0.950 . S
C759 C757 1.387 . S
C759 C761 1.390 . S
C759 H763 0.950 . S
H760 C756 0.950 . S
C761 C759 1.390 . S
C761 C762 1.387 . S
C761 H764 0.950 . S
C762 C761 1.387 . S
C762 C765 1.387 . S
H763 C759 0.950 . S
H764 C761 0.950 . S
C765 C756 1.390 . S
C765 H758 0.950 . S
C765 C762 1.387 . S
C766 C767 1.387 1_554 S
C766 H770 0.950 . S
C766 C775 1.390 . S
C767 C766 1.387 1_556 S
C767 C769 1.387 . S
H768 C775 0.950 . S
C769 C767 1.387 . S
C769 C771 1.390 1_556 S
C769 H773 0.950 . S
H770 C766 0.950 . S
C771 C769 1.390 1_554 S
C771 C772 1.387 . S
C771 H774 0.950 . S
C772 C771 1.387 . S
C772 C775 1.387 . S
H773 C769 0.950 . S
H774 C771 0.950 . S
C775 C766 1.390 . S
C775 H768 0.950 . S
C775 C772 1.387 . S
C776 C777 1.387 . S
C776 H780 0.950 . S
C776 C785 1.390 . S
C777 C776 1.387 . S
C777 C779 1.387 . S
H778 C785 0.950 . S
C779 C777 1.387 . S
C779 C781 1.390 . S
C779 H783 0.950 . S
H780 C776 0.950 . S
C781 C779 1.390 . S
C781 C782 1.387 . S
C781 H784 0.950 . S
C782 C781 1.387 . S
C782 C785 1.387 . S
H783 C779 0.950 . S
H784 C781 0.950 . S
C785 C776 1.390 . S
C785 H778 0.950 . S
C785 C782 1.387 . S
C786 C787 1.387 . S
C786 H790 0.950 . S
C786 C795 1.390 . S
C787 C786 1.387 . S
C787 C789 1.387 . S
H788 C795 0.950 . S
C789 C787 1.387 . S
C789 C791 1.390 . S
C789 H793 0.950 . S
H790 C786 0.950 . S
C791 C789 1.390 . S
C791 C792 1.387 . S
C791 H794 0.950 . S
C792 C791 1.387 . S
C792 C795 1.387 . S
H793 C789 0.950 . S
H794 C791 0.950 . S
C795 C786 1.390 . S
C795 H788 0.950 . S
C795 C792 1.387 . S
C796 C797 1.387 . S
C796 H800 0.950 . S
C796 C805 1.390 . S
C797 C796 1.387 . S
C797 C799 1.387 . S
H798 C805 0.950 . S
C799 C797 1.387 . S
C799 C801 1.390 . S
C799 H803 0.950 . S
H800 C796 0.950 . S
C801 C799 1.390 . S
C801 C802 1.387 . S
C801 H804 0.950 . S
C802 C801 1.387 . S
C802 C805 1.387 . S
H803 C799 0.950 . S
H804 C801 0.950 . S
C805 C796 1.390 . S
C805 H798 0.950 . S
C805 C802 1.387 . S
C806 C807 1.387 . S
C806 H810 0.950 . S
C806 C815 1.390 . S
C807 C806 1.387 . S
C807 C809 1.387 . S
H808 C815 0.950 . S
C809 C807 1.387 . S
C809 C811 1.390 . S
C809 H813 0.950 . S
H810 C806 0.950 . S
C811 C809 1.390 . S
C811 C812 1.387 . S
C811 H814 0.950 . S
C812 C811 1.387 . S
C812 C815 1.387 . S
H813 C809 0.950 . S
H814 C811 0.950 . S
C815 C806 1.390 . S
C815 H808 0.950 . S
C815 C812 1.387 . S
C816 C817 1.387 . S
C816 H820 0.950 . S
C816 C825 1.390 . S
C817 C816 1.387 . S
C817 C819 1.387 1_556 S
H818 C825 0.950 . S
C819 C817 1.387 1_554 S
C819 C821 1.390 . S
C819 H823 0.950 . S
H820 C816 0.950 . S
C821 C819 1.390 . S
C821 C822 1.387 1_554 S
C821 H824 0.950 . S
C822 C821 1.387 1_556 S
C822 C825 1.387 . S
H823 C819 0.950 . S
H824 C821 0.950 . S
C825 C816 1.390 . S
C825 H818 0.950 . S
C825 C822 1.387 . S
C826 C827 1.387 . S
C826 H830 0.950 . S
C826 C835 1.390 . S
C827 C826 1.387 . S
C827 C829 1.387 . S
H828 C835 0.950 . S
C829 C827 1.387 . S
C829 C831 1.390 . S
C829 H833 0.950 . S
H830 C826 0.950 . S
C831 C829 1.390 . S
C831 C832 1.387 . S
C831 H834 0.950 . S
C832 C831 1.387 . S
C832 C835 1.387 . S
H833 C829 0.950 . S
H834 C831 0.950 . S
C835 C826 1.390 . S
C835 H828 0.950 . S
C835 C832 1.387 . S
C836 C837 1.387 . S
C836 H840 0.950 . S
C836 C845 1.390 . S
C837 C836 1.387 . S
C837 C839 1.387 . S
H838 C845 0.950 . S
C839 C837 1.387 . S
C839 C841 1.390 . S
C839 H843 0.950 . S
H840 C836 0.950 . S
C841 C839 1.390 . S
C841 C842 1.387 . S
C841 H844 0.950 1_554 S
C842 C841 1.387 . S
C842 C845 1.387 . S
H843 C839 0.950 . S
H844 C841 0.950 1_556 S
C845 C836 1.390 . S
C845 H838 0.950 . S
C845 C842 1.387 . S
C846 C847 1.387 1_556 S
C846 H850 0.950 . S
C846 C855 1.390 . S
C847 C846 1.387 1_554 S
C847 C849 1.387 . S
H848 C855 0.950 . S
C849 C847 1.387 . S
C849 C851 1.390 . S
C849 H853 0.950 . S
H850 C846 0.950 . S
C851 C849 1.390 . S
C851 C852 1.387 . S
C851 H854 0.950 . S
C852 C851 1.387 . S
C852 C855 1.387 1_554 S
H853 C849 0.950 . S
H854 C851 0.950 . S
C855 C846 1.390 . S
C855 H848 0.950 . S
C855 C852 1.387 1_556 S
C382 C216 1.342 . S
C377 N66 1.329 . S
C392 C229 1.550 . S
C387 N79 1.504 1_455 S
C397 N92 1.759 . S
C402 C249 1.687 . S
C412 C263 1.366 . S
C407 N54 1.392 . S
C422 C275 1.515 . S
C417 N131 1.518 . S
C432 C289 1.271 . S
C427 N158 1.265 . S
C437 N145 1.528 . S
C442 C299 1.522 . S
C452 C314 1.708 . S
C447 N118 1.708 . S
C457 N148 1.804 . S
C462 C328 1.739 . S
C472 C347 1.414 . S
C467 N122 1.499 . S
C477 N132 1.315 . S
C482 C327 1.292 . S
C492 C345 1.471 . S
C487 N161 1.442 . S
C497 N96 1.829 . S
C502 C361 1.775 . S
C507 N53 1.628 . S
C512 C355 1.655 . S
C517 N67 1.241 . S
C522 C359 1.250 . S
C527 N83 1.411 . S
C532 C356 1.417 . S
C537 N44 1.428 . S
C542 C258 1.429 . S
C547 N187 1.469 . S
C552 C257 1.486 . S
C562 C221 1.200 . S
C557 N197 1.268 . S
C572 C235 1.375 . S
C567 N106 1.446 . S
C577 N57 1.756 1_545 S
C582 C272 1.788 . S
C592 C317 1.508 . S
C587 N144 1.481 . S
C602 C271 1.422 . S
C597 N119 1.414 1_545 S
C612 C303 1.687 . S
C607 N157 1.639 . S
C622 C300 1.341 . S
C617 N183 1.331 . S
C627 N196 1.527 . S
C632 C313 1.550 . S
C637 N105 1.758 . S
C642 C277 1.683 . S
C652 C291 1.368 . S
C647 N171 1.391 . S
C657 N40 1.518 . S
C662 C247 1.515 . S
C672 C261 1.271 . S
C667 N2 1.265 . S
C682 C215 1.523 . S
C677 N15 1.529 . S
C692 C230 1.707 . S
C687 N27 1.707 1_455 S
C697 N18 1.805 . S
C702 C342 1.740 . S
C707 N31 1.498 . S
C712 C333 1.412 . S
C717 N41 1.314 . S
C722 C341 1.291 . S
C727 N5 1.440 . S
C732 C331 1.470 . S
C742 C375 1.771 . S
C737 N109 1.830 . S
C752 C369 1.654 . S
C747 N170 1.630 1_554 S
C762 C373 1.250 . S
C757 N184 1.242 . S
C767 N200 1.411 . S
C772 C370 1.417 . S
C777 N135 1.429 . S
C782 C286 1.429 . S
C792 C285 1.486 . S
C787 N70 1.468 . S
C802 C305 1.200 . S
C797 N80 1.268 . S
C812 C319 1.375 . S
C807 N93 1.446 . S
C817 N174 1.756 . S
C822 C244 1.788 . S
C832 C233 1.508 . S
C827 N14 1.481 . S
C837 N28 1.414 . S
C842 C243 1.422 . S
C852 C219 1.687 . S
C847 N1 1.639 1_565 S
