# Generated by pormake.
# Topology ctn, (3,4)-cn, num edge types: 1
# Building blocks:
#     Node 0, Type 0, BuildingBlock: MIDCAF_clean_linker_0, # of connection points: 3
#     Node 1, Type 0, BuildingBlock: MIDCAF_clean_linker_0, # of connection points: 3
#     Node 2, Type 0, BuildingBlock: MIDCAF_clean_linker_0, # of connection points: 3
#     Node 3, Type 0, BuildingBlock: MIDCAF_clean_linker_0, # of connection points: 3
#     Node 4, Type 0, BuildingBlock: MIDCAF_clean_linker_0, # of connection points: 3
#     Node 5, Type 0, BuildingBlock: MIDCAF_clean_linker_0, # of connection points: 3
#     Node 6, Type 0, BuildingBlock: MIDCAF_clean_linker_0, # of connection points: 3
#     Node 7, Type 0, BuildingBlock: MIDCAF_clean_linker_0, # of connection points: 3
#     Node 8, Type 0, BuildingBlock: MIDCAF_clean_linker_0, # of connection points: 3
#     Node 9, Type 0, BuildingBlock: MIDCAF_clean_linker_0, # of connection points: 3
#     Node 10, Type 0, BuildingBlock: MIDCAF_clean_linker_0, # of connection points: 3
#     Node 11, Type 0, BuildingBlock: MIDCAF_clean_linker_0, # of connection points: 3
#     Node 12, Type 0, BuildingBlock: MIDCAF_clean_linker_0, # of connection points: 3
#     Node 13, Type 0, BuildingBlock: MIDCAF_clean_linker_0, # of connection points: 3
#     Node 14, Type 0, BuildingBlock: MIDCAF_clean_linker_0, # of connection points: 3
#     Node 15, Type 0, BuildingBlock: MIDCAF_clean_linker_0, # of connection points: 3
#     Node 16, Type 1, BuildingBlock: KUFVIS_clean_sbu_0, # of connection points: 4
#     Node 17, Type 1, BuildingBlock: KUFVIS_clean_sbu_0, # of connection points: 4
#     Node 18, Type 1, BuildingBlock: KUFVIS_clean_sbu_0, # of connection points: 4
#     Node 19, Type 1, BuildingBlock: KUFVIS_clean_sbu_0, # of connection points: 4
#     Node 20, Type 1, BuildingBlock: KUFVIS_clean_sbu_0, # of connection points: 4
#     Node 21, Type 1, BuildingBlock: KUFVIS_clean_sbu_0, # of connection points: 4
#     Node 22, Type 1, BuildingBlock: KUFVIS_clean_sbu_0, # of connection points: 4
#     Node 23, Type 1, BuildingBlock: KUFVIS_clean_sbu_0, # of connection points: 4
#     Node 24, Type 1, BuildingBlock: KUFVIS_clean_sbu_0, # of connection points: 4
#     Node 25, Type 1, BuildingBlock: KUFVIS_clean_sbu_0, # of connection points: 4
#     Node 26, Type 1, BuildingBlock: KUFVIS_clean_sbu_0, # of connection points: 4
#     Node 27, Type 1, BuildingBlock: KUFVIS_clean_sbu_0, # of connection points: 4
#     Edge 28, Type (0, 1), BuildingBlock: CIFDUS_clean_linker_0, # of connection points: 2
#     Edge 29, Type (0, 1), BuildingBlock: CIFDUS_clean_linker_0, # of connection points: 2
#     Edge 30, Type (0, 1), BuildingBlock: CIFDUS_clean_linker_0, # of connection points: 2
#     Edge 31, Type (0, 1), BuildingBlock: CIFDUS_clean_linker_0, # of connection points: 2
#     Edge 32, Type (0, 1), BuildingBlock: CIFDUS_clean_linker_0, # of connection points: 2
#     Edge 33, Type (0, 1), BuildingBlock: CIFDUS_clean_linker_0, # of connection points: 2
#     Edge 34, Type (0, 1), BuildingBlock: CIFDUS_clean_linker_0, # of connection points: 2
#     Edge 35, Type (0, 1), BuildingBlock: CIFDUS_clean_linker_0, # of connection points: 2
#     Edge 36, Type (0, 1), BuildingBlock: CIFDUS_clean_linker_0, # of connection points: 2
#     Edge 37, Type (0, 1), BuildingBlock: CIFDUS_clean_linker_0, # of connection points: 2
#     Edge 38, Type (0, 1), BuildingBlock: CIFDUS_clean_linker_0, # of connection points: 2
#     Edge 39, Type (0, 1), BuildingBlock: CIFDUS_clean_linker_0, # of connection points: 2
#     Edge 40, Type (0, 1), BuildingBlock: CIFDUS_clean_linker_0, # of connection points: 2
#     Edge 41, Type (0, 1), BuildingBlock: CIFDUS_clean_linker_0, # of connection points: 2
#     Edge 42, Type (0, 1), BuildingBlock: CIFDUS_clean_linker_0, # of connection points: 2
#     Edge 43, Type (0, 1), BuildingBlock: CIFDUS_clean_linker_0, # of connection points: 2
#     Edge 44, Type (0, 1), BuildingBlock: CIFDUS_clean_linker_0, # of connection points: 2
#     Edge 45, Type (0, 1), BuildingBlock: CIFDUS_clean_linker_0, # of connection points: 2
#     Edge 46, Type (0, 1), BuildingBlock: CIFDUS_clean_linker_0, # of connection points: 2
#     Edge 47, Type (0, 1), BuildingBlock: CIFDUS_clean_linker_0, # of connection points: 2
#     Edge 48, Type (0, 1), BuildingBlock: CIFDUS_clean_linker_0, # of connection points: 2
#     Edge 49, Type (0, 1), BuildingBlock: CIFDUS_clean_linker_0, # of connection points: 2
#     Edge 50, Type (0, 1), BuildingBlock: CIFDUS_clean_linker_0, # of connection points: 2
#     Edge 51, Type (0, 1), BuildingBlock: CIFDUS_clean_linker_0, # of connection points: 2
#     Edge 52, Type (0, 1), BuildingBlock: CIFDUS_clean_linker_0, # of connection points: 2
#     Edge 53, Type (0, 1), BuildingBlock: CIFDUS_clean_linker_0, # of connection points: 2
#     Edge 54, Type (0, 1), BuildingBlock: CIFDUS_clean_linker_0, # of connection points: 2
#     Edge 55, Type (0, 1), BuildingBlock: CIFDUS_clean_linker_0, # of connection points: 2
#     Edge 56, Type (0, 1), BuildingBlock: CIFDUS_clean_linker_0, # of connection points: 2
#     Edge 57, Type (0, 1), BuildingBlock: CIFDUS_clean_linker_0, # of connection points: 2
#     Edge 58, Type (0, 1), BuildingBlock: CIFDUS_clean_linker_0, # of connection points: 2
#     Edge 59, Type (0, 1), BuildingBlock: CIFDUS_clean_linker_0, # of connection points: 2
#     Edge 60, Type (0, 1), BuildingBlock: CIFDUS_clean_linker_0, # of connection points: 2
#     Edge 61, Type (0, 1), BuildingBlock: CIFDUS_clean_linker_0, # of connection points: 2
#     Edge 62, Type (0, 1), BuildingBlock: CIFDUS_clean_linker_0, # of connection points: 2
#     Edge 63, Type (0, 1), BuildingBlock: CIFDUS_clean_linker_0, # of connection points: 2
#     Edge 64, Type (0, 1), BuildingBlock: CIFDUS_clean_linker_0, # of connection points: 2
#     Edge 65, Type (0, 1), BuildingBlock: CIFDUS_clean_linker_0, # of connection points: 2
#     Edge 66, Type (0, 1), BuildingBlock: CIFDUS_clean_linker_0, # of connection points: 2
#     Edge 67, Type (0, 1), BuildingBlock: CIFDUS_clean_linker_0, # of connection points: 2
#     Edge 68, Type (0, 1), BuildingBlock: CIFDUS_clean_linker_0, # of connection points: 2
#     Edge 69, Type (0, 1), BuildingBlock: CIFDUS_clean_linker_0, # of connection points: 2
#     Edge 70, Type (0, 1), BuildingBlock: CIFDUS_clean_linker_0, # of connection points: 2
#     Edge 71, Type (0, 1), BuildingBlock: CIFDUS_clean_linker_0, # of connection points: 2
#     Edge 72, Type (0, 1), BuildingBlock: CIFDUS_clean_linker_0, # of connection points: 2
#     Edge 73, Type (0, 1), BuildingBlock: CIFDUS_clean_linker_0, # of connection points: 2
#     Edge 74, Type (0, 1), BuildingBlock: CIFDUS_clean_linker_0, # of connection points: 2
#     Edge 75, Type (0, 1), BuildingBlock: CIFDUS_clean_linker_0, # of connection points: 2
# Relax obj value: 0.012
# Max RMSD: 0.063
# Mean RMSD: 0.029
data_MOF--net-ctn--node1-KUFVIS_clean_sbu_0--node2-MIDCAF_clean_linker_0--edge1-CIFDUS_clean_linker_0
_symmetry_space_group_name_H-M    P1
_symmetry_Int_Tables_number       1
_symmetry_cell_setting            triclinic
loop_
_symmetry_equiv_pos_as_xyz
'x, y, z'
_cell_length_a     59.384556
_cell_length_b     59.331556
_cell_length_c     59.583863
_cell_angle_alpha  91.078111
_cell_angle_beta   90.284596
_cell_angle_gamma 91.590999
loop_
_atom_site_label
_atom_site_type_symbol
_atom_site_fract_x
_atom_site_fract_y
_atom_site_fract_z
_atom_type_partial_charge
C0 C 0.98861 0.05124 0.10942 0.0
C1 C 0.99595 0.0361 0.12563 0.0
C2 C 0.01609 0.02473 0.12171 0.0
C3 C 0.0286 0.02853 0.10219 0.0
H4 H 0.09031 0.01309 0.06853 0.0
H5 H 0.12255 0.99067 0.05785 0.0
H6 H 0.11412 0.01039 0.98887 0.0
H7 H 0.08285 0.03353 0.99977 0.0
H8 H 0.07 0.0942 0.00682 0.0
H9 H 0.06129 0.12506 0.98241 0.0
H10 H 0.991 0.11839 1.00058 0.0
H11 H 1.00018 0.08832 0.02618 0.0
H12 H 0.99485 0.06691 0.07798 0.0
H13 H 0.97298 0.05998 0.11159 0.0
H14 H 0.02242 0.01314 0.13391 0.0
H15 H 0.0441 0.0196 0.09986 0.0
N16 N 0.05272 0.03548 0.06025 0.0
N17 N 0.05918 0.05678 0.02802 0.0
N18 N 0.02912 0.06536 0.05174 0.0
C19 C 0.0649 0.03954 0.04139 0.0
C20 C 0.0414 0.0698 0.03307 0.0
C21 C 0.03472 0.0483 0.06551 0.0
C22 C 0.08409 0.02524 0.03506 0.0
C23 C 0.09541 0.01262 0.0511 0.0
C24 C 0.11384 0.99965 0.04491 0.0
C25 C 0.12118 0.99871 0.02245 0.0
C26 C 0.10948 0.01106 0.00642 0.0
C27 C 0.09136 0.02427 0.01266 0.0
C28 C 0.03577 0.08874 0.01837 0.0
C29 C 0.05268 0.09935 0.00564 0.0
C30 C 0.0476 0.11701 0.99145 0.0
C31 C 0.02533 0.12424 0.98914 0.0
C32 C 0.0084 0.11364 1.00205 0.0
C33 C 0.01361 0.09626 0.01666 0.0
C34 C 0.02134 0.04387 0.08612 0.0
C35 C 1.00114 0.05512 0.09 0.0
C36 C 0.27337 0.62946 0.22128 0.0
C37 C 0.25444 0.62672 0.20711 0.0
C38 C 0.25093 0.64277 0.1905 0.0
C39 C 0.2659 0.66118 0.18819 0.0
H40 H 0.27029 0.72533 0.16175 0.0
H41 H 0.26157 0.75478 0.13531 0.0
H42 H 0.33092 0.77846 0.13717 0.0
H43 H 0.33975 0.74913 0.16401 0.0
H44 H 0.3654 0.73857 0.21128 0.0
H45 H 0.39554 0.74618 0.2383 0.0
H46 H 0.37432 0.68779 0.27574 0.0
H47 H 0.34423 0.67981 0.24844 0.0
H48 H 0.30275 0.6494 0.2302 0.0
H49 H 0.27672 0.61725 0.23408 0.0
H50 H 0.23636 0.64135 0.1795 0.0
H51 H 0.2625 0.67324 0.17527 0.0
N52 N 0.29658 0.69939 0.18423 0.0
N53 N 0.32882 0.72023 0.19577 0.0
N54 N 0.31867 0.68671 0.21392 0.0
C55 C 0.31067 0.71761 0.18191 0.0
C56 C 0.33293 0.7049 0.21188 0.0
C57 C 0.30049 0.68377 0.20007 0.0
C58 C 0.30571 0.73491 0.16507 0.0
C59 C 0.28375 0.7367 0.15648 0.0
C60 C 0.27871 0.75363 0.14143 0.0
C61 C 0.29557 0.7689 0.13431 0.0
C62 C 0.31765 0.76683 0.14238 0.0
C63 C 0.32264 0.75012 0.1578 0.0
C64 C 0.35219 0.70865 0.22769 0.0
C65 C 0.36714 0.72721 0.22516 0.0
C66 C 0.38441 0.73167 0.24074 0.0
C67 C 0.38722 0.71772 0.25931 0.0
C68 C 0.37272 0.69877 0.26154 0.0
C69 C 0.35539 0.69428 0.24592 0.0
C70 C 0.2848 0.66401 0.20242 0.0
C71 C 0.28837 0.64786 0.21897 0.0
C72 C 0.00815 0.41697 1.0009 0.0
C73 C 0.99183 0.40825 0.98571 0.0
C74 C 0.97168 0.4198 0.98304 0.0
C75 C 0.96775 0.43948 0.99549 0.0
H76 H 0.9318 0.49831 0.99345 0.0
H77 H 0.90005 0.52121 0.98347 0.0
H78 H 0.90728 0.55815 0.04638 0.0
H79 H 0.93947 0.53568 0.05613 0.0
H80 H 0.99381 0.53217 0.07881 0.0
H81 H 0.01588 0.54 0.11274 0.0
H82 H 0.03002 0.46908 0.11723 0.0
H83 H 0.0091 0.46163 0.08261 0.0
H84 H 0.01686 0.44264 0.02547 0.0
H85 H 0.02379 0.40834 1.00334 0.0
H86 H 0.95888 0.41355 0.97129 0.0
H87 H 0.95192 0.44778 0.9931 0.0
N88 N 0.96209 0.48205 0.01925 0.0
N89 N 0.96972 0.50519 0.05089 0.0
N90 N 0.99117 0.47313 0.04403 0.0
C91 C 0.9573 0.50054 0.03201 0.0
C92 C 0.98664 0.49153 0.05703 0.0
C93 C 0.97903 0.46832 0.02506 0.0
C94 C 0.93828 0.51504 0.02566 0.0
C95 C 0.92673 0.51137 0.00516 0.0
C96 C 0.90837 0.52446 0.99946 0.0
C97 C 0.90096 0.54154 0.01411 0.0
C98 C 0.91267 0.54539 0.0345 0.0
C99 C 0.9311 0.53237 0.04016 0.0
C100 C 0.99977 0.4963 0.07793 0.0
C101 C 1.0017 0.51828 0.08705 0.0
C102 C 0.01427 0.52272 0.10666 0.0
C103 C 0.02487 0.50521 0.11797 0.0
C104 C 0.02264 0.48316 0.10888 0.0
C105 C 0.01046 0.47882 0.08903 0.0
C106 C 0.98377 0.44795 0.01117 0.0
C107 C 1.00409 0.43653 0.01364 0.0
C108 C 0.72414 0.77198 0.14216 0.0
C109 C 0.70529 0.76552 0.12877 0.0
C110 C 0.68462 0.77577 0.13331 0.0
C111 C 0.68266 0.79125 0.15111 0.0
H112 H 0.63882 0.80072 0.20669 0.0
H113 H 0.60727 0.79437 0.23205 0.0
H114 H 0.64023 0.83715 0.28235 0.0
H115 H 0.67188 0.84353 0.2571 0.0
H116 H 0.71194 0.87537 0.2403 0.0
H117 H 0.74025 0.9043 0.24968 0.0
H118 H 0.78274 0.87953 0.19656 0.0
H119 H 0.75407 0.85065 0.18672 0.0
H120 H 0.737 0.79242 0.16971 0.0
H121 H 0.74027 0.7643 0.13969 0.0
H122 H 0.66983 0.77194 0.12312 0.0
H123 H 0.66643 0.79851 0.15437 0.0
N124 N 0.68023 0.81157 0.1967 0.0
N125 N 0.69436 0.84091 0.22004 0.0
N126 N 0.71546 0.82871 0.18913 0.0
C127 C 0.67787 0.82528 0.215 0.0
C128 C 0.71312 0.8429 0.20714 0.0
C129 C 0.69898 0.81311 0.18378 0.0
C130 C 0.658 0.82256 0.22985 0.0
C131 C 0.63933 0.80891 0.22309 0.0
C132 C 0.62116 0.80538 0.23757 0.0
C133 C 0.6213 0.81523 0.25921 0.0
C134 C 0.63974 0.82918 0.26584 0.0
C135 C 0.65782 0.83291 0.25129 0.0
C136 C 0.73067 0.86051 0.21277 0.0
C137 C 0.72728 0.87597 0.23054 0.0
C138 C 0.7436 0.89258 0.23602 0.0
C139 C 0.76384 0.89419 0.22396 0.0
C140 C 0.76723 0.8789 0.20604 0.0
C141 C 0.75083 0.86224 0.2005 0.0
C142 C 0.70145 0.79751 0.16439 0.0
C143 C 0.72229 0.78803 0.15954 0.0
C144 C 0.03518 0.9184 0.55294 0.0
C145 C 0.0251 0.89793 0.54527 0.0
C146 C 0.01715 0.89644 0.52296 0.0
C147 C 0.01992 0.91473 0.50854 0.0
H148 H 0.01414 0.9389 0.4392 0.0
H149 H 0.99206 0.94109 0.405 0.0
H150 H 0.98972 0.01358 0.4138 0.0
H151 H 0.01352 0.01126 0.44722 0.0
H152 H 0.07617 0.01981 0.46612 0.0
H153 H 0.10894 0.04413 0.47533 0.0
H154 H 0.11297 0.01428 0.54071 0.0
H155 H 0.0802 0.99032 0.5318 0.0
H156 H 0.04632 0.95184 0.54505 0.0
H157 H 0.04098 0.92045 0.57014 0.0
H158 H 0.00945 0.88091 0.5164 0.0
H159 H 0.01411 0.91287 0.49133 0.0
N160 N 0.02398 0.95552 0.48101 0.0
N161 N 0.04465 0.98878 0.47284 0.0
N162 N 0.0517 0.96954 0.50606 0.0
C163 C 0.02831 0.9731 0.46714 0.0
C164 C 0.05657 0.98697 0.49228 0.0
C165 C 0.03547 0.95379 0.50066 0.0
C166 C 0.01541 0.97487 0.44595 0.0
C167 C 0.009 0.9553 0.43372 0.0
C168 C 0.99608 0.95662 0.41416 0.0
C169 C 0.98847 0.9775 0.40662 0.0
C170 C 0.9953 0.99718 0.41876 0.0
C171 C 0.00885 0.99588 0.43804 0.0
C172 C 0.07551 1.00299 0.49814 0.0
C173 C 0.0839 0.01856 0.48253 0.0
C174 C 0.10281 0.03238 0.48774 0.0
C175 C 0.11367 0.03103 0.50871 0.0
C176 C 0.10493 0.01588 0.52448 0.0
C177 C 0.08615 1.00203 0.51927 0.0
C178 C 0.03087 0.93483 0.51607 0.0
C179 C 0.03816 0.93651 0.53853 0.0
C180 C 0.2424 0.74455 0.87677 0.0
C181 C 0.2275 0.76237 0.87958 0.0
C182 C 0.20885 0.76342 0.86503 0.0
C183 C 0.20543 0.7472 0.84784 0.0
H184 H 0.16501 0.72973 0.79312 0.0
H185 H 0.13241 0.73082 0.76825 0.0
H186 H 0.14931 0.66615 0.73957 0.0
H187 H 0.18193 0.66488 0.76455 0.0
H188 H 0.22696 0.63921 0.78528 0.0
H189 H 0.25644 0.61147 0.78028 0.0
H190 H 0.30402 0.65642 0.81468 0.0
H191 H 0.27469 0.68397 0.81999 0.0
H192 H 0.25099 0.71504 0.85808 0.0
H193 H 0.25671 0.74297 0.88792 0.0
H194 H 0.19715 0.77703 0.86663 0.0
H195 H 0.19103 0.74865 0.83678 0.0
N196 N 0.19908 0.71248 0.81276 0.0
N197 N 0.2121 0.68076 0.79304 0.0
N198 N 0.2332 0.6966 0.82305 0.0
C199 C 0.19624 0.6967 0.79601 0.0
C200 C 0.23071 0.6807 0.80647 0.0
C201 C 0.21747 0.71247 0.82644 0.0
C202 C 0.1762 0.6972 0.78092 0.0
C203 C 0.16182 0.71568 0.78158 0.0
C204 C 0.14318 0.7164 0.76719 0.0
C205 C 0.13828 0.69861 0.75188 0.0
C206 C 0.15251 0.68005 0.7513 0.0
C207 C 0.1713 0.6794 0.76557 0.0
C208 C 0.24843 0.66381 0.80305 0.0
C209 C 0.2437 0.64317 0.79176 0.0
C210 C 0.26052 0.62725 0.78902 0.0
C211 C 0.2825 0.63182 0.79711 0.0
C212 C 0.28726 0.6525 0.80819 0.0
C213 C 0.2704 0.66822 0.8113 0.0
C214 C 0.22059 0.72957 0.84484 0.0
C215 C 0.23903 0.72842 0.85965 0.0
C216 C 0.02119 0.60492 0.51249 0.0
C217 C 0.00669 0.61168 0.52979 0.0
C218 C 0.98705 0.59859 0.5337 0.0
C219 C 0.98195 0.57931 0.52058 0.0
H220 H 0.9302 0.53256 0.50574 0.0
H221 H 0.8967 0.5095 0.51428 0.0
H222 H 0.92354 0.45394 0.47614 0.0
H223 H 0.95697 0.47695 0.46737 0.0
H224 H 0.9889 0.50017 0.42238 0.0
H225 H 0.01279 0.49152 0.39018 0.0
H226 H 0.06698 0.532 0.41993 0.0
H227 H 0.04317 0.54088 0.45198 0.0
H228 H 0.02761 0.58105 0.48608 0.0
H229 H 0.03636 0.61472 0.50891 0.0
H230 H 0.97569 0.6031 0.54712 0.0
H231 H 0.96666 0.5697 0.52416 0.0
N232 N 0.97201 0.53933 0.49339 0.0
N233 N 0.98048 0.51478 0.46345 0.0
N234 N 1.00441 0.54599 0.47191 0.0
C235 C 0.96676 0.5206 0.48072 0.0
C236 C 0.99934 0.52741 0.45892 0.0
C237 C 0.99082 0.55211 0.48916 0.0
C238 C 0.94632 0.50663 0.48583 0.0
C239 C 0.92901 0.51542 0.49917 0.0
C240 C 0.90977 0.50227 0.50402 0.0
C241 C 0.90756 0.47991 0.49596 0.0
C242 C 0.9249 0.47105 0.48277 0.0
C243 C 0.94397 0.48431 0.47762 0.0
C244 C 0.01407 0.52128 0.43978 0.0
C245 C 0.00595 0.50712 0.42215 0.0
C246 C 0.01958 0.50222 0.40365 0.0
C247 C 0.04176 0.51104 0.40257 0.0
C248 C 0.05003 0.52478 0.4204 0.0
C249 C 0.03631 0.52999 0.43869 0.0
C250 C 0.99637 0.57257 0.50317 0.0
C251 C 0.01608 0.58564 0.49932 0.0
C252 C 0.89175 0.80415 0.77605 0.0
C253 C 0.8902 0.81047 0.75348 0.0
C254 C 0.87153 0.82291 0.74677 0.0
C255 C 0.8545 0.82815 0.76211 0.0
H256 H 0.79009 0.86133 0.77215 0.0
H257 H 0.76132 0.8897 0.76681 0.0
H258 H 0.75256 0.8951 0.8385 0.0
H259 H 0.78079 0.86647 0.84391 0.0
H260 H 0.78647 0.81578 0.86703 0.0
H261 H 0.78029 0.78901 0.89692 0.0
H262 H 0.83836 0.7523 0.87539 0.0
H263 H 0.84486 0.77929 0.84553 0.0
H264 H 0.87643 0.80363 0.80838 0.0
H265 H 0.90612 0.7951 0.78202 0.0
H266 H 0.86968 0.82794 0.7295 0.0
H267 H 0.84009 0.83724 0.7563 0.0
N268 N 0.82147 0.84071 0.79687 0.0
N269 N 0.80335 0.83105 0.83047 0.0
N270 N 0.83537 0.81187 0.81912 0.0
C271 C 0.80466 0.84407 0.81196 0.0
C272 C 0.81854 0.8148 0.83413 0.0
C273 C 0.83707 0.82474 0.80053 0.0
C274 C 0.78773 0.86164 0.80845 0.0
C275 C 0.78204 0.86859 0.78676 0.0
C276 C 0.7655 0.88469 0.78368 0.0
C277 C 0.75475 0.89452 0.80226 0.0
C278 C 0.76064 0.8878 0.82392 0.0
C279 C 0.77675 0.87137 0.82697 0.0
C280 C 0.81602 0.79963 0.85361 0.0
C281 C 0.7981 0.80216 0.86869 0.0
C282 C 0.79448 0.78674 0.88583 0.0
C283 C 0.80867 0.76836 0.88836 0.0
C284 C 0.82718 0.76633 0.87394 0.0
C285 C 0.83081 0.78176 0.85673 0.0
C286 C 0.85569 0.8209 0.78443 0.0
C287 C 0.8747 0.80915 0.79124 0.0
C288 C 0.3831 0.27579 0.27018 0.0
C289 C 0.39492 0.29228 0.25786 0.0
C290 C 0.38797 0.31477 0.25959 0.0
C291 C 0.36993 0.32056 0.27353 0.0
H292 H 0.31686 0.3694 0.28502 0.0
H293 H 0.29125 0.40036 0.27842 0.0
H294 H 0.24247 0.36966 0.32268 0.0
H295 H 0.26775 0.33899 0.32934 0.0
H296 H 0.28273 0.30402 0.36247 0.0
H297 H 0.27058 0.2775 0.39074 0.0
H298 H 0.32592 0.23476 0.3741 0.0
H299 H 0.3384 0.26148 0.34553 0.0
H300 H 0.35693 0.26837 0.29355 0.0
H301 H 0.38731 0.25819 0.26882 0.0
H302 H 0.39669 0.328 0.25052 0.0
H303 H 0.36512 0.33802 0.27469 0.0
N304 N 0.32728 0.3282 0.29821 0.0
N305 N 0.30488 0.31853 0.32908 0.0
N306 N 0.33497 0.29594 0.31903 0.0
C307 C 0.30952 0.33256 0.31187 0.0
C308 C 0.31751 0.3003 0.33293 0.0
C309 C 0.34003 0.3098 0.30169 0.0
C310 C 0.29444 0.35167 0.30772 0.0
C311 C 0.30068 0.36928 0.29334 0.0
C312 C 0.28608 0.38705 0.28965 0.0
C313 C 0.26482 0.38737 0.29999 0.0
C314 C 0.25863 0.36977 0.3143 0.0
C315 C 0.27325 0.35224 0.31821 0.0
C316 C 0.31141 0.28482 0.35141 0.0
C317 C 0.29252 0.28911 0.36481 0.0
C318 C 0.28549 0.27388 0.38106 0.0
C319 C 0.29717 0.25396 0.38445 0.0
C320 C 0.31666 0.25003 0.37186 0.0
C321 C 0.32369 0.26529 0.35542 0.0
C322 C 0.35869 0.30405 0.28628 0.0
C323 C 0.36546 0.28162 0.28432 0.0
C324 C 0.48022 0.88712 0.51777 0.0
C325 C 0.47562 0.8857 0.49466 0.0
C326 C 0.46832 0.9049 0.4836 0.0
C327 C 0.46532 0.92511 0.49556 0.0
H328 H 0.41189 0.97332 0.51052 0.0
H329 H 0.38153 0.99812 0.50121 0.0
H330 H 0.41662 0.05332 0.53606 0.0
H331 H 0.44646 0.02806 0.54636 0.0
H332 H 0.49031 0.01385 0.58016 0.0
H333 H 0.51604 0.02143 0.61166 0.0
H334 H 0.52279 0.94971 0.62022 0.0
H335 H 0.49811 0.9423 0.5882 0.0
H336 H 0.4815 0.90808 0.54745 0.0
H337 H 0.48584 0.8725 0.52662 0.0
H338 H 0.46453 0.90411 0.4658 0.0
H339 H 0.45952 0.93962 0.48665 0.0
N340 N 0.45191 0.96316 0.52461 0.0
N341 N 0.46264 0.98771 0.55443 0.0
N342 N 0.48001 0.95286 0.54989 0.0
C343 C 0.44938 0.98295 0.53612 0.0
C344 C 0.47795 0.97265 0.56145 0.0
C345 C 0.46725 0.94809 0.53135 0.0
C346 C 0.43161 0.99864 0.5293 0.0
C347 C 0.41321 0.99079 0.51612 0.0
C348 C 0.39578 0.00513 0.51063 0.0
C349 C 0.39641 0.02787 0.51786 0.0
C350 C 0.41518 0.03585 0.53057 0.0
C351 C 0.43243 0.02138 0.53638 0.0
C352 C 0.49233 0.97749 0.58151 0.0
C353 C 0.49727 0.99974 0.58886 0.0
C354 C 0.51196 0.00406 0.60703 0.0
C355 C 0.52178 0.98621 0.61851 0.0
C356 C 0.51614 0.96396 0.61152 0.0
C357 C 0.50182 0.95967 0.59318 0.0
C358 C 0.47008 0.92663 0.51869 0.0
C359 C 0.47776 0.90747 0.52963 0.0
C360 C 0.21358 0.27525 0.63127 0.0
C361 C 0.19601 0.25961 0.62618 0.0
C362 C 0.17669 0.25939 0.63972 0.0
C363 C 0.1753 0.27401 0.65837 0.0
H364 H 0.13543 0.29016 0.7138 0.0
H365 H 0.10492 0.28637 0.74085 0.0
H366 H 0.14392 0.32593 0.78944 0.0
H367 H 0.17452 0.32969 0.76255 0.0
H368 H 0.23531 0.33492 0.74576 0.0
H369 H 0.26545 0.36226 0.75446 0.0
H370 H 0.25395 0.39427 0.69081 0.0
H371 H 0.22527 0.3653 0.6815 0.0
H372 H 0.2262 0.30152 0.65329 0.0
H373 H 0.22856 0.27605 0.62098 0.0
H374 H 0.16293 0.24744 0.6363 0.0
H375 H 0.16036 0.27305 0.6687 0.0
N376 N 0.17575 0.30092 0.69974 0.0
N377 N 0.19305 0.32831 0.72347 0.0
N378 N 0.20925 0.31942 0.68869 0.0
C379 C 0.17588 0.31317 0.7193 0.0
C380 C 0.20961 0.33163 0.70818 0.0
C381 C 0.19247 0.30382 0.68441 0.0
C382 C 0.15748 0.31027 0.73591 0.0
C383 C 0.13758 0.298 0.73026 0.0
C384 C 0.12001 0.29595 0.74571 0.0
C385 C 0.12197 0.30594 0.76726 0.0
C386 C 0.14196 0.31792 0.77304 0.0
C387 C 0.15945 0.32015 0.75753 0.0
C388 C 0.22805 0.34813 0.71303 0.0
C389 C 0.23946 0.34775 0.73363 0.0
C390 C 0.25659 0.36367 0.73866 0.0
C391 C 0.26212 0.381 0.72358 0.0
C392 C 0.25061 0.38115 0.70281 0.0
C393 C 0.23401 0.36466 0.69747 0.0
C394 C 0.19313 0.28932 0.66379 0.0
C395 C 0.21213 0.28996 0.64977 0.0
C396 C 0.76161 0.14477 0.72777 0.0
C397 C 0.7572 0.12662 0.71265 0.0
C398 C 0.76816 0.12674 0.69168 0.0
C399 C 0.78347 0.14423 0.68633 0.0
H400 H 0.79432 0.20484 0.6392 0.0
H401 H 0.79002 0.23152 0.60885 0.0
H402 H 0.83456 0.27924 0.64367 0.0
H403 H 0.83899 0.25265 0.67402 0.0
H404 H 0.84832 0.23645 0.73615 0.0
H405 H 0.87687 0.24056 0.7655 0.0
H406 H 0.89945 0.17332 0.74959 0.0
H407 H 0.8693 0.16879 0.72185 0.0
H408 H 0.78078 0.17518 0.73492 0.0
H409 H 0.75299 0.14592 0.7437 0.0
H410 H 0.76544 0.11305 0.67962 0.0
H411 H 0.79202 0.14377 0.67031 0.0
N412 N 0.80419 0.19309 0.68022 0.0
N413 N 0.83624 0.21369 0.69316 0.0
N414 N 0.8231 0.18209 0.71277 0.0
C415 C 0.8193 0.21059 0.67783 0.0
C416 C 0.83836 0.19927 0.71042 0.0
C417 C 0.80598 0.17895 0.69779 0.0
C418 C 0.81698 0.22657 0.6591 0.0
C419 C 0.80325 0.22099 0.6404 0.0
C420 C 0.80089 0.23621 0.62293 0.0
C421 C 0.81197 0.25746 0.62389 0.0
C422 C 0.82571 0.26304 0.64254 0.0
C423 C 0.82832 0.24773 0.65987 0.0
C424 C 0.85677 0.20236 0.72686 0.0
C425 C 0.8595 0.22266 0.73903 0.0
C426 C 0.87607 0.225 0.75574 0.0
C427 C 0.89085 0.20733 0.76009 0.0
C428 C 0.88825 0.18717 0.74731 0.0
C429 C 0.87114 0.1846 0.73118 0.0
C430 C 0.78848 0.16155 0.70204 0.0
C431 C 0.77734 0.16176 0.72268 0.0
C432 C 0.49928 0.54856 0.61941 0.0
C433 C 0.49618 0.52642 0.62721 0.0
C434 C 0.50758 0.50895 0.61611 0.0
C435 C 0.52122 0.51344 0.59749 0.0
H436 H 0.59184 0.50628 0.56916 0.0
H437 H 0.6246 0.48503 0.5581 0.0
H438 H 0.61293 0.50199 0.4888 0.0
H439 H 0.58101 0.52421 0.50013 0.0
H440 H 0.55716 0.57355 0.49431 0.0
H441 H 0.54471 0.60387 0.47059 0.0
H442 H 0.49605 0.62267 0.52072 0.0
H443 H 0.5081 0.59217 0.54425 0.0
H444 H 0.51411 0.57012 0.59482 0.0
H445 H 0.49141 0.56262 0.62779 0.0
H446 H 0.50546 0.49164 0.6213 0.0
H447 H 0.52933 0.49955 0.58904 0.0
N448 N 0.55344 0.52691 0.56192 0.0
N449 N 0.55806 0.54821 0.52932 0.0
N450 N 0.53002 0.55732 0.55521 0.0
C451 C 0.56457 0.53098 0.54242 0.0
C452 C 0.54082 0.56151 0.53562 0.0
C453 C 0.53611 0.54004 0.56839 0.0
C454 C 0.58384 0.51704 0.53555 0.0
C455 C 0.59627 0.50541 0.55155 0.0
C456 C 0.61503 0.49307 0.54514 0.0
C457 C 0.62165 0.4917 0.52248 0.0
C458 C 0.60883 0.503 0.50646 0.0
C459 C 0.59034 0.51565 0.51293 0.0
C460 C 0.53363 0.58028 0.52124 0.0
C461 C 0.54382 0.58414 0.50033 0.0
C462 C 0.53675 0.60163 0.48674 0.0
C463 C 0.51934 0.61572 0.49371 0.0
C464 C 0.50927 0.61195 0.51466 0.0
C465 C 0.5163 0.59448 0.52823 0.0
C466 C 0.52344 0.53542 0.58926 0.0
C467 C 0.51249 0.55294 0.60056 0.0
C468 C 0.54887 0.42347 0.04359 0.0
C469 C 0.53643 0.40409 0.03637 0.0
C470 C 0.52615 0.40416 0.01501 0.0
C471 C 0.52876 0.42284 1.00109 0.0
H472 H 0.49701 0.45903 0.95035 0.0
H473 H 0.47226 0.46444 0.91843 0.0
H474 H 0.51573 0.51892 0.89595 0.0
H475 H 0.54046 0.51384 0.92822 0.0
H476 H 0.58625 0.52496 0.95454 0.0
H477 H 0.62138 0.54682 0.95883 0.0
H478 H 0.63615 0.51181 0.0198 0.0
H479 H 0.60086 0.49005 0.01577 0.0
H480 H 0.56178 0.45635 0.03562 0.0
H481 H 0.55654 0.42441 0.06011 0.0
H482 H 0.51665 0.38953 0.0087 0.0
H483 H 0.52103 0.42213 0.98458 0.0
N484 N 0.5322 0.46466 0.97532 0.0
N485 N 0.55529 0.49522 0.96431 0.0
N486 N 0.56492 0.47444 0.99586 0.0
C487 C 0.53646 0.48192 0.96106 0.0
C488 C 0.56963 0.49159 0.98168 0.0
C489 C 0.5463 0.46088 0.99281 0.0
C490 C 0.52093 0.48585 0.94188 0.0
C491 C 0.50135 0.47225 0.93871 0.0
C492 C 0.48714 0.47529 0.92031 0.0
C493 C 0.49209 0.49199 0.90448 0.0
C494 C 0.51133 0.50601 0.9079 0.0
C495 C 0.52559 0.50297 0.92636 0.0
C496 C 0.59066 0.5056 0.98473 0.0
C497 C 0.59688 0.52191 0.96892 0.0
C498 C 0.61714 0.53436 0.97129 0.0
C499 C 0.63168 0.53088 0.98954 0.0
C500 C 0.62528 0.51494 0.0056 0.0
C501 C 0.60506 0.5024 1.0032 0.0
C502 C 0.54197 0.44176 0.00806 0.0
C503 C 0.55178 0.44193 0.02957 0.0
C504 C 0.72865 0.24527 0.38634 0.0
C505 C 0.71281 0.26228 0.38921 0.0
C506 C 0.69517 0.26356 0.37352 0.0
C507 C 0.69346 0.24832 0.35536 0.0
H508 H 0.64665 0.2186 0.30936 0.0
H509 H 0.61468 0.22129 0.28366 0.0
H510 H 0.65374 0.19185 0.23036 0.0
H511 H 0.68573 0.18863 0.25618 0.0
H512 H 0.71775 0.14636 0.28558 0.0
H513 H 0.74468 0.1163 0.28148 0.0
H514 H 0.79065 0.15221 0.32663 0.0
H515 H 0.76365 0.18237 0.33095 0.0
H516 H 0.7395 0.21718 0.36653 0.0
H517 H 0.74229 0.2436 0.39828 0.0
H518 H 0.68285 0.27663 0.37502 0.0
H519 H 0.67969 0.24998 0.34358 0.0
N520 N 0.68999 0.21634 0.31838 0.0
N521 N 0.70396 0.1861 0.29726 0.0
N522 N 0.72334 0.19942 0.32953 0.0
C523 C 0.68808 0.20191 0.30047 0.0
C524 C 0.72163 0.18469 0.31178 0.0
C525 C 0.70758 0.21532 0.33295 0.0
C526 C 0.66873 0.20337 0.28481 0.0
C527 C 0.64846 0.21267 0.29217 0.0
C528 C 0.63012 0.21413 0.27753 0.0
C529 C 0.6318 0.20679 0.25508 0.0
C530 C 0.65209 0.19771 0.24759 0.0
C531 C 0.67031 0.19577 0.26239 0.0
C532 C 0.73845 0.16681 0.30865 0.0
C533 C 0.73361 0.14797 0.29459 0.0
C534 C 0.74898 0.13065 0.29234 0.0
C535 C 0.76972 0.13185 0.30383 0.0
C536 C 0.77483 0.15087 0.31752 0.0
C537 C 0.7593 0.16808 0.32005 0.0
C538 C 0.70938 0.23138 0.35239 0.0
C539 C 0.72698 0.23003 0.36816 0.0
C540 C 0.5058 0.11047 0.00994 0.0
C541 C 0.48941 0.11636 0.0258 0.0
C542 C 0.47081 0.10158 0.02886 0.0
C543 C 0.46845 0.08159 0.01616 0.0
H544 H 0.42712 0.02524 0.00795 0.0
H545 H 0.39144 1.00382 0.00979 0.0
H546 H 0.4093 0.96611 0.95016 0.0
H547 H 0.4448 0.98741 0.94813 0.0
H548 H 0.494 0.9941 0.92779 0.0
H549 H 0.51828 0.98785 0.89541 0.0
H550 H 0.55276 0.05164 0.90914 0.0
H551 H 0.52857 0.05806 0.94135 0.0
H552 H 0.51622 0.08667 0.98489 0.0
H553 H 0.52025 0.12156 0.00706 0.0
H554 H 0.45808 0.10542 0.04121 0.0
H555 H 0.45379 0.07076 0.01895 0.0
N556 N 0.46316 0.04116 0.98867 0.0
N557 N 0.47479 0.01784 0.95896 0.0
N558 N 0.49645 0.05005 0.96934 0.0
C559 C 0.45965 0.02252 0.97535 0.0
C560 C 0.49327 0.03144 0.95586 0.0
C561 C 0.48152 0.05501 0.98584 0.0
C562 C 0.43882 0.00827 0.97774 0.0
C563 C 0.42355 0.01226 0.99531 0.0
C564 C 0.40314 0.99991 0.99647 0.0
C565 C 0.39748 0.98345 0.98 0.0
C566 C 0.41305 0.97893 0.96292 0.0
C567 C 0.43348 0.99112 0.96183 0.0
C568 C 0.50912 0.02672 0.93715 0.0
C569 C 0.50685 0.00676 0.92404 0.0
C570 C 0.52086 1.00306 0.90553 0.0
C571 C 0.53731 0.01932 0.89959 0.0
C572 C 0.54003 0.03892 0.91309 0.0
C573 C 0.52618 0.04255 0.93165 0.0
C574 C 0.48461 0.07584 0.99998 0.0
C575 C 0.50341 0.09048 0.99715 0.0
Mn576 Mn 0.2517 0.87418 0.00867 0.0
Mn577 Mn 0.24684 0.89639 0.95717 0.0
C578 C 0.23405 0.85358 0.97983 0.0
C579 C 0.27063 0.85378 0.03564 0.0
C580 C 0.21832 0.91052 0.99689 0.0
O581 O 0.27543 0.89996 0.00931 0.0
O582 O 0.27253 0.91135 0.97351 0.0
C583 C 0.28941 0.88124 0.9369 0.0
N584 N 0.2665 0.8818 0.93652 0.0
C585 C 0.26466 0.85997 0.90207 0.0
C586 C 0.28824 0.85928 0.90203 0.0
C587 C 0.30065 0.8699 0.91955 0.0
C588 C 0.25438 0.87158 0.91976 0.0
H589 H 0.29903 0.88934 0.95036 0.0
C590 C 0.28201 0.91211 0.99291 0.0
O591 O 0.25571 0.86842 0.04112 0.0
O592 O 0.27531 0.85161 0.01445 0.0
N593 N 0.22282 0.88279 0.93963 0.0
C594 C 0.20018 0.88374 0.94295 0.0
C595 C 0.18535 0.87312 0.92739 0.0
C596 C 0.19393 0.86175 0.90853 0.0
C597 C 0.21729 0.86111 0.9054 0.0
C598 C 0.23125 0.87212 0.9214 0.0
H599 H 0.19348 0.89242 0.95743 0.0
O600 O 0.22978 0.84892 1.00061 0.0
O601 O 0.2483 0.87017 0.97665 0.0
O602 O 0.22613 0.89642 0.01053 0.0
O603 O 0.22543 0.9125 0.97681 0.0
C604 C 0.22727 0.84965 0.88724 0.0
C605 C 0.25093 0.84912 0.88555 0.0
H606 H 0.29697 0.85042 0.88876 0.0
H607 H 0.31885 0.86933 0.91971 0.0
H608 H 0.16734 0.87364 0.92995 0.0
H609 H 0.18244 0.85342 0.89667 0.0
H610 H 0.2169 0.84091 0.87466 0.0
H611 H 0.25841 0.83994 0.87172 0.0
Mn612 Mn 0.14522 0.50013 0.25658 0.0
Mn613 Mn 0.12413 0.55248 0.25745 0.0
C614 C 0.16595 0.53022 0.24251 0.0
C615 C 0.16589 0.47111 0.27175 0.0
C616 C 0.10913 0.51633 0.22376 0.0
O617 O 0.12045 0.49766 0.28025 0.0
O618 O 0.10758 0.53314 0.27913 0.0
C619 C 0.13849 0.56623 0.30348 0.0
N620 N 0.13863 0.56986 0.28097 0.0
C621 C 0.16206 0.60335 0.28596 0.0
C622 C 0.16205 0.60005 0.3092 0.0
C623 C 0.15024 0.58138 0.31798 0.0
C624 C 0.14997 0.58775 0.27234 0.0
H625 H 0.12953 0.55186 0.3103 0.0
C626 C 0.1072 0.51308 0.28677 0.0
O627 O 0.15023 0.46712 0.25684 0.0
O628 O 0.16886 0.49186 0.2787 0.0
N629 N 0.13881 0.57298 0.23745 0.0
C630 C 0.13801 0.57317 0.21459 0.0
C631 C 0.14942 0.59047 0.20312 0.0
C632 C 0.16139 0.60747 0.21526 0.0
C633 C 0.16177 0.60706 0.23878 0.0
C634 C 0.14994 0.58948 0.2493 0.0
H635 H 0.12887 0.56012 0.20517 0.0
O636 O 0.16973 0.5098 0.23558 0.0
O637 O 0.14991 0.5324 0.25707 0.0
O638 O 0.12181 0.50114 0.23121 0.0
O639 O 0.10853 0.53617 0.23235 0.0
C640 C 0.17377 0.62315 0.25218 0.0
C641 C 0.17394 0.62128 0.27575 0.0
H642 H 0.17119 0.61163 0.32044 0.0
H643 H 0.15024 0.57866 0.33589 0.0
H644 H 0.14909 0.59065 0.18496 0.0
H645 H 0.17039 0.62064 0.20634 0.0
H646 H 0.18317 0.63686 0.24451 0.0
H647 H 0.18347 0.63359 0.28585 0.0
Mn648 Mn 0.76364 0.64243 0.00684 0.0
Mn649 Mn 0.71118 0.655 0.98928 0.0
C650 C 0.73301 0.61821 0.01372 0.0
C651 C 0.79889 0.62602 1.00322 0.0
C652 C 0.73365 0.67742 0.02974 0.0
O653 O 0.77032 0.66604 0.98289 0.0
O654 O 0.73447 0.67286 0.97315 0.0
C655 C 0.71437 0.63675 0.94282 0.0
N656 N 0.70365 0.63742 0.96296 0.0
C657 C 0.67401 0.61229 0.94915 0.0
C658 C 0.68469 0.61139 0.92823 0.0
C659 C 0.70503 0.62357 0.9251 0.0
C660 C 0.68427 0.62548 0.96626 0.0
H661 H 0.72988 0.64627 0.94028 0.0
C662 C 0.75577 0.67631 0.97124 0.0
O663 O 0.79562 0.6429 0.01682 0.0
O664 O 0.78185 0.61912 0.99089 0.0
N665 N 0.68674 0.63892 1.00315 0.0
C666 C 0.67902 0.64092 0.02457 0.0
C667 C 0.65907 0.62937 0.03064 0.0
C668 C 0.64708 0.61617 0.01455 0.0
C669 C 0.65517 0.61462 0.99253 0.0
C670 C 0.67519 0.62645 0.98749 0.0
H671 H 0.68809 0.65113 0.03695 0.0
O672 O 0.7508 0.61804 0.02645 0.0
O673 O 0.73343 0.63267 0.99766 0.0
O674 O 0.75212 0.66718 0.02785 0.0
O675 O 0.71685 0.6738 0.01662 0.0
C676 C 0.64426 0.60165 0.97543 0.0
C677 C 0.65369 0.60046 0.95376 0.0
H678 H 0.67749 0.60132 0.9145 0.0
H679 H 0.7134 0.62292 0.90902 0.0
H680 H 0.65293 0.63066 0.04767 0.0
H681 H 0.63174 0.60722 0.01931 0.0
H682 H 0.6288 0.59225 0.97885 0.0
H683 H 0.64534 0.59015 0.94086 0.0
Mn684 Mn 0.88483 0.01411 0.26055 0.0
Mn685 Mn 0.89906 0.95936 0.25858 0.0
C686 C 0.86216 0.98747 0.24148 0.0
C687 C 0.86619 0.0443 0.27718 0.0
C688 C 0.92195 0.99554 0.23049 0.0
O689 O 0.90796 0.0123 0.28614 0.0
O690 O 0.91381 0.97485 0.2849 0.0
C691 C 0.87584 0.94437 0.29982 0.0
N692 N 0.87948 0.94199 0.27737 0.0
C693 C 0.85363 0.91006 0.27478 0.0
C694 C 0.85001 0.91186 0.29797 0.0
C695 C 0.86104 0.92919 0.31051 0.0
C696 C 0.8686 0.92566 0.26506 0.0
H697 H 0.88399 0.95787 0.30944 0.0
C698 C 0.91682 0.99456 0.29381 0.0
O699 O 0.88324 0.04754 0.26396 0.0
O700 O 0.86074 0.02355 0.28166 0.0
N701 N 0.88562 0.94227 0.23416 0.0
C702 C 0.88959 0.94396 0.21174 0.0
C703 C 0.87885 0.92863 0.19667 0.0
C704 C 0.86431 0.91162 0.2048 0.0
C705 C 0.86064 0.91008 0.22795 0.0
C706 C 0.87191 0.92577 0.24218 0.0
H707 H 0.90076 0.95697 0.20537 0.0
O708 O 0.86117 0.00866 0.23665 0.0
O709 O 0.87634 0.98258 0.25716 0.0
O710 O 0.90984 0.01173 0.23718 0.0
O711 O 0.91981 0.97556 0.23802 0.0
C712 C 0.84596 0.89386 0.23743 0.0
C713 C 0.84248 0.89383 0.26083 0.0
H714 H 0.83849 0.90028 0.30625 0.0
H715 H 0.85806 0.93091 0.32836 0.0
H716 H 0.88174 0.92994 0.17881 0.0
H717 H 0.85591 0.89994 0.1931 0.0
H718 H 0.83694 0.88158 0.22684 0.0
H719 H 0.83079 0.88157 0.26787 0.0
Mn720 Mn 0.25855 0.13041 0.51336 0.0
Mn721 Mn 0.21082 0.14793 0.48858 0.0
C722 C 0.22556 0.10837 0.51432 0.0
C723 C 0.29289 0.11194 0.51407 0.0
C724 C 0.22872 0.16743 0.53269 0.0
O725 O 0.27046 0.15463 0.49194 0.0
O726 O 0.23759 0.16329 0.47554 0.0
C727 C 0.21818 0.12883 0.44301 0.0
N728 N 0.20512 0.13067 0.46164 0.0
C729 C 0.17604 0.10666 0.44495 0.0
C730 C 0.18914 0.10459 0.42555 0.0
C731 C 0.21034 0.11566 0.42461 0.0
C732 C 0.18479 0.11993 0.4628 0.0
H733 H 0.23446 0.13735 0.44221 0.0
C734 C 0.25905 0.16537 0.47754 0.0
O735 O 0.28836 0.1281 0.52809 0.0
O736 O 0.2777 0.10686 0.49887 0.0
N737 N 0.1835 0.13423 0.49939 0.0
C738 C 0.17322 0.13747 0.51955 0.0
C739 C 0.15189 0.12744 0.52327 0.0
C740 C 0.14125 0.1144 0.50617 0.0
C741 C 0.15204 0.11152 0.48548 0.0
C742 C 0.17322 0.12203 0.48269 0.0
H743 H 0.18122 0.14762 0.5327 0.0
O744 O 0.24119 0.10595 0.52933 0.0
O745 O 0.22959 0.12357 0.49941 0.0
O746 O 0.2455 0.15463 0.53382 0.0
O747 O 0.21469 0.1666 0.51638 0.0
C748 C 0.14272 0.0984 0.4676 0.0
C749 C 0.15477 0.09588 0.44739 0.0
H750 H 0.18316 0.09445 0.41131 0.0
H751 H 0.22058 0.11408 0.40972 0.0
H752 H 0.14369 0.12973 0.5393 0.0
H753 H 0.1249 0.10652 0.50917 0.0
H754 H 0.12644 0.08993 0.46932 0.0
H755 H 0.14757 0.08551 0.43388 0.0
Mn756 Mn 0.38331 0.49917 0.76123 0.0
Mn757 Mn 0.39876 0.44503 0.7556 0.0
C758 C 0.36158 0.47338 0.74005 0.0
C759 C 0.36302 0.52736 0.77935 0.0
C760 C 0.42131 0.48352 0.73055 0.0
O761 O 0.40604 0.49613 0.78716 0.0
O762 O 0.41304 0.45914 0.78269 0.0
C763 C 0.37583 0.42698 0.79576 0.0
N764 N 0.37917 0.42637 0.77316 0.0
C765 C 0.35237 0.39545 0.76834 0.0
C766 C 0.34878 0.39565 0.79158 0.0
C767 C 0.36052 0.41153 0.80533 0.0
C768 C 0.36782 0.41128 0.75975 0.0
H769 H 0.38472 0.43924 0.80638 0.0
C770 C 0.41545 0.47804 0.79333 0.0
O771 O 0.38024 0.53226 0.76682 0.0
O772 O 0.3586 0.50613 0.7825 0.0
N773 N 0.38571 0.42933 0.73013 0.0
C774 C 0.39038 0.432 0.70795 0.0
C775 C 0.37976 0.41762 0.69191 0.0
C776 C 0.36458 0.40059 0.69882 0.0
C777 C 0.3602 0.39803 0.72175 0.0
C778 C 0.37144 0.41271 0.73698 0.0
H779 H 0.40207 0.44503 0.70254 0.0
O780 O 0.36014 0.49481 0.73665 0.0
O781 O 0.37571 0.46784 0.7555 0.0
O782 O 0.40877 0.499 0.73813 0.0
O783 O 0.41946 0.46294 0.73645 0.0
C784 C 0.34487 0.3817 0.73005 0.0
C785 C 0.3409 0.38046 0.75332 0.0
H786 H 0.33689 0.38383 0.79902 0.0
H787 H 0.35773 0.41189 0.82327 0.0
H788 H 0.38323 0.41971 0.67424 0.0
H789 H 0.35627 0.38967 0.68638 0.0
H790 H 0.33579 0.37023 0.71866 0.0
H791 H 0.32878 0.3681 0.75947 0.0
Mn792 Mn 0.76041 0.37566 0.51398 0.0
Mn793 Mn 0.75625 0.39752 0.4622 0.0
C794 C 0.74498 0.35426 0.48455 0.0
C795 C 0.77875 0.35599 0.54194 0.0
C796 C 0.72523 0.40999 0.50033 0.0
O797 O 0.78341 0.40198 0.51522 0.0
O798 O 0.77947 0.41494 0.47997 0.0
C799 C 0.80128 0.38599 0.44504 0.0
N800 N 0.77842 0.38455 0.44314 0.0
C801 C 0.78069 0.36169 0.40946 0.0
C802 C 0.80426 0.36305 0.41099 0.0
C803 C 0.81459 0.37523 0.42887 0.0
C804 C 0.7683 0.37287 0.42599 0.0
H805 H 0.80931 0.39523 0.45881 0.0
C806 C 0.78867 0.41554 0.49951 0.0
O807 O 0.76342 0.37045 0.54667 0.0
O808 O 0.78418 0.35357 0.52095 0.0
N809 N 0.73459 0.38183 0.44331 0.0
C810 C 0.7117 0.38105 0.445 0.0
C811 C 0.69882 0.36897 0.42876 0.0
C812 C 0.70958 0.3579 0.41091 0.0
C813 C 0.73314 0.35906 0.40945 0.0
C814 C 0.74509 0.3715 0.42604 0.0
H815 H 0.70335 0.38946 0.45873 0.0
O816 O 0.73967 0.34968 0.50511 0.0
O817 O 0.75857 0.37151 0.48192 0.0
O818 O 0.73408 0.3972 0.51465 0.0
O819 O 0.73233 0.41168 0.48023 0.0
C820 C 0.74525 0.34798 0.39244 0.0
C821 C 0.76901 0.34928 0.39246 0.0
H822 H 0.81459 0.35466 0.39864 0.0
H823 H 0.83277 0.37626 0.43023 0.0
H824 H 0.68065 0.36808 0.43005 0.0
H825 H 0.69959 0.34838 0.39856 0.0
H826 H 0.73647 0.33813 0.37946 0.0
H827 H 0.77814 0.34042 0.37947 0.0
Mn828 Mn 0.63842 0.00771 0.75203 0.0
Mn829 Mn 0.62545 0.06275 0.74965 0.0
C830 C 0.66089 0.03284 0.73204 0.0
C831 C 0.65727 0.97782 0.76812 0.0
C832 C 0.60111 0.02605 0.72211 0.0
O833 O 0.6163 0.01117 0.77832 0.0
O834 O 0.61032 0.04833 0.7754 0.0
C835 C 0.64876 0.07829 0.79142 0.0
N836 N 0.64564 0.07989 0.76885 0.0
C837 C 0.67317 0.11031 0.76684 0.0
C838 C 0.67661 0.10906 0.79007 0.0
C839 C 0.6644 0.09293 0.8024 0.0
C840 C 0.65746 0.09519 0.7568 0.0
H841 H 0.63942 0.06591 0.80096 0.0
C842 C 0.60721 0.02941 0.78508 0.0
O843 O 0.63967 0.97438 0.75537 0.0
O844 O 0.66305 0.99867 0.77265 0.0
N845 N 0.63917 0.07898 0.7256 0.0
C846 C 0.63422 0.07768 0.70324 0.0
C847 C 0.64509 0.0926 0.68852 0.0
C848 C 0.66074 0.10885 0.69695 0.0
C849 C 0.66531 0.1101 0.72006 0.0
C850 C 0.65385 0.09488 0.73393 0.0
H851 H 0.62209 0.06532 0.69668 0.0
O852 O 0.66122 0.0114 0.72748 0.0
O853 O 0.64752 0.03888 0.74808 0.0
O854 O 0.61263 0.00976 0.72918 0.0
O855 O 0.60421 0.04646 0.72893 0.0
C856 C 0.68094 0.12571 0.72984 0.0
C857 C 0.68493 0.12577 0.7532 0.0
H858 H 0.68867 0.12031 0.7986 0.0
H859 H 0.66702 0.0918 0.82033 0.0
H860 H 0.64143 0.09156 0.67072 0.0
H861 H 0.66922 0.12021 0.68553 0.0
H862 H 0.6902 0.13756 0.71951 0.0
H863 H 0.69722 0.13763 0.76048 0.0
Mn864 Mn 1.00366 0.26119 0.88205 0.0
Mn865 Mn 0.94864 0.25678 0.89571 0.0
C866 C 0.97786 0.24326 0.85785 0.0
C867 C 0.03408 0.27932 0.86465 0.0
C868 C 0.98445 0.22824 0.91656 0.0
O869 O 1.00081 0.28557 0.90678 0.0
O870 O 0.96343 0.28195 0.913 0.0
C871 C 0.93398 0.2998 0.87677 0.0
N872 N 0.93211 0.2769 0.8776 0.0
C873 C 0.90288 0.27578 0.84944 0.0
C874 C 0.90441 0.29936 0.84838 0.0
C875 C 0.92006 0.31141 0.86207 0.0
C876 C 0.9172 0.26513 0.86439 0.0
H877 H 0.94605 0.30912 0.88719 0.0
C878 C 0.98275 0.29153 0.91669 0.0
O879 O 0.03705 0.26526 0.88077 0.0
O880 O 0.01344 0.28393 0.85965 0.0
N881 N 0.93241 0.23313 0.87978 0.0
C882 C 0.93349 0.21041 0.88237 0.0
C883 C 0.91888 0.19592 0.86989 0.0
C884 C 0.90326 0.20492 0.85498 0.0
C885 C 0.90238 0.22835 0.85267 0.0
C886 C 0.91717 0.24197 0.86575 0.0
H887 H 0.94541 0.20339 0.89386 0.0
O888 O 0.99905 0.23867 0.85665 0.0
O889 O 0.97256 0.25772 0.87335 0.0
O890 O 1.00084 0.23619 0.90515 0.0
O891 O 0.96429 0.23505 0.91479 0.0
C892 C 0.88762 0.23872 0.8377 0.0
C893 C 0.88794 0.26241 0.83601 0.0
H894 H 0.89375 0.30838 0.83701 0.0
H895 H 0.9214 0.32961 0.86127 0.0
H896 H 0.91971 0.17785 0.87171 0.0
H897 H 0.89218 0.19368 0.84521 0.0
H898 H 0.87615 0.22861 0.82721 0.0
H899 H 0.87671 0.27017 0.82423 0.0
Mn900 Mn 0.51019 0.75155 0.37418 0.0
Mn901 Mn 0.4575 0.74414 0.39438 0.0
C902 C 0.48307 0.7316 0.35334 0.0
C903 C 0.53779 0.77142 0.3543 0.0
C904 C 0.49714 0.7178 0.41071 0.0
O905 O 0.50862 0.77613 0.39845 0.0
O906 O 0.47298 0.77002 0.4104 0.0
C907 C 0.43814 0.78654 0.37861 0.0
N908 N 0.43765 0.76359 0.37908 0.0
C909 C 0.40453 0.76133 0.35561 0.0
C910 C 0.40461 0.78494 0.35498 0.0
C911 C 0.42152 0.79759 0.36648 0.0
C912 C 0.4215 0.75125 0.368 0.0
H913 H 0.45113 0.79634 0.38738 0.0
C914 C 0.49193 0.78096 0.41096 0.0
O915 O 0.54294 0.75751 0.36993 0.0
O916 O 0.5165 0.77437 0.35062 0.0
N917 N 0.44058 0.71992 0.38007 0.0
C918 C 0.44361 0.6973 0.38134 0.0
C919 C 0.42851 0.68226 0.37015 0.0
C920 C 0.41039 0.69062 0.35788 0.0
C921 C 0.4075 0.71396 0.35698 0.0
C922 C 0.423 0.72812 0.3686 0.0
H923 H 0.45753 0.69077 0.39071 0.0
O924 O 0.5043 0.72822 0.34993 0.0
O925 O 0.47842 0.74623 0.36902 0.0
O926 O 0.51159 0.7272 0.39793 0.0
O927 O 0.47639 0.7229 0.41086 0.0
C928 C 0.39006 0.72373 0.3447 0.0
C929 C 0.38856 0.7474 0.34404 0.0
H930 H 0.39189 0.79353 0.34555 0.0
H931 H 0.42176 0.81582 0.36598 0.0
H932 H 0.43088 0.66427 0.3709 0.0
H933 H 0.3989 0.67898 0.3491 0.0
H934 H 0.37789 0.71321 0.33545 0.0
H935 H 0.37528 0.75471 0.33427 0.0
Mn936 Mn 0.00983 0.75162 0.63457 0.0
Mn937 Mn 0.99129 0.70139 0.6543 0.0
C938 C 0.01162 0.7191 0.6124 0.0
C939 C 0.00524 0.78553 0.61591 0.0
C940 C 0.03561 0.72374 0.66876 0.0
O941 O 0.98974 0.76104 0.66082 0.0
O942 O 0.97795 0.72649 0.67178 0.0
C943 C 0.94329 0.70432 0.64127 0.0
N944 N 0.96306 0.69325 0.64041 0.0
C945 C 0.94632 0.66347 0.61737 0.0
C946 C 0.92574 0.67449 0.61812 0.0
C947 C 0.92425 0.69503 0.63007 0.0
C948 C 0.96472 0.67354 0.62886 0.0
H949 H 0.94208 0.72013 0.65041 0.0
C950 C 0.97811 0.74808 0.67353 0.0
O951 O 0.02126 0.78301 0.63042 0.0
O952 O 0.99117 0.76857 0.61282 0.0
N953 N 1.00269 0.67562 0.63874 0.0
C954 C 0.02396 0.66757 0.63897 0.0
C955 C 0.0284 0.64728 0.62752 0.0
C956 C 0.01091 0.63539 0.61611 0.0
C957 C 0.98911 0.64387 0.61631 0.0
C958 C 0.98566 0.66409 0.62815 0.0
H959 H 0.03747 0.67661 0.64775 0.0
O960 O 0.02499 0.73627 0.6086 0.0
O961 O 0.99791 0.72137 0.62913 0.0
O962 O 0.03379 0.74094 0.65647 0.0
O963 O 0.02067 0.70786 0.66931 0.0
C964 C 0.97073 0.63324 0.60494 0.0
C965 C 0.94937 0.64307 0.60541 0.0
H966 H 0.91103 0.66742 0.60945 0.0
H967 H 0.90845 0.70369 0.63064 0.0
H968 H 0.04528 0.64087 0.6274 0.0
H969 H 0.01445 0.61987 0.60709 0.0
H970 H 0.97293 0.61767 0.59551 0.0
H971 H 0.93545 0.63491 0.59635 0.0
Mn972 Mn 0.51585 0.25741 0.12514 0.0
Mn973 Mn 0.4933 0.20953 0.14681 0.0
C974 C 0.51729 0.22371 0.10498 0.0
C975 C 0.51364 0.29081 0.10509 0.0
C976 C 0.53832 0.22986 0.1618 0.0
O977 O 0.49545 0.26931 0.15 0.0
O978 O 0.48074 0.23633 0.16226 0.0
C979 C 0.44637 0.21453 0.13106 0.0
N980 N 0.46533 0.2022 0.13206 0.0
C981 C 0.44751 0.17152 0.11107 0.0
C982 C 0.42774 0.18384 0.10992 0.0
C983 C 0.42721 0.20548 0.11988 0.0
C984 C 0.46611 0.18147 0.12233 0.0
H985 H 0.44589 0.23114 0.13876 0.0
C986 C 0.48249 0.25791 0.16284 0.0
O987 O 0.5291 0.28798 0.12013 0.0
O988 O 0.49895 0.27438 0.102 0.0
N989 N 0.50368 0.18207 0.13365 0.0
C990 C 0.52428 0.17272 0.13563 0.0
C991 C 0.52779 0.15126 0.12614 0.0
C992 C 0.51002 0.1395 0.11503 0.0
C993 C 0.48886 0.14928 0.11358 0.0
C994 C 0.48635 0.17071 0.12337 0.0
H995 H 0.53796 0.18161 0.14429 0.0
O996 O 0.53132 0.24024 0.1008 0.0
O997 O 0.50258 0.22741 0.12068 0.0
O998 O 0.53838 0.24633 0.14837 0.0
O999 O 0.52217 0.21527 0.16286 0.0
C1000 C 0.47022 0.13874 0.10257 0.0
C1001 C 0.44957 0.14987 0.10128 0.0
H1002 H 0.41292 0.17692 0.10132 0.0
H1003 H 0.41204 0.21513 0.11899 0.0
H1004 H 0.54417 0.1438 0.12739 0.0
H1005 H 0.51284 0.12302 0.10762 0.0
H1006 H 0.47168 0.12223 0.09473 0.0
H1007 H 0.43547 0.14174 0.09247 0.0
H1008 H 0.19717 0.78201 0.90787 0.0
H1009 H 0.26786 0.78232 0.89121 0.0
H1010 H 0.27593 0.80989 0.92115 0.0
H1011 H 0.26313 0.83413 0.95191 0.0
H1012 H 0.1928 0.83479 0.96888 0.0
H1013 H 0.18425 0.80668 0.93896 0.0
C1014 C 0.21429 0.78829 0.91065 0.0
C1015 C 0.23189 0.77993 0.89737 0.0
C1016 C 0.21886 0.80433 0.92792 0.0
C1017 C 0.25404 0.7881 0.9014 0.0
C1018 C 0.25869 0.80393 0.91849 0.0
C1019 C 0.24591 0.82824 0.94885 0.0
C1020 C 0.22847 0.8369 0.96193 0.0
C1021 C 0.24126 0.81216 0.9318 0.0
C1022 C 0.20636 0.82858 0.95858 0.0
C1023 C 0.20152 0.81257 0.94152 0.0
H1024 H 0.03034 0.5154 0.3587 0.0
H1025 H 0.08534 0.49745 0.4017 0.0
H1026 H 0.10986 0.49343 0.36903 0.0
H1027 H 0.11652 0.49819 0.32844 0.0
H1028 H 0.0623 0.5194 0.2862 0.0
H1029 H 0.03649 0.51851 0.3181 0.0
C1030 C 0.04759 0.51023 0.36085 0.0
C1031 C 0.05602 0.50673 0.38257 0.0
C1032 C 0.06171 0.5085 0.34205 0.0
C1033 C 0.07852 0.5004 0.38515 0.0
C1034 C 0.09252 0.49805 0.36648 0.0
C1035 C 0.09891 0.50203 0.32621 0.0
C1036 C 0.09114 0.50851 0.30504 0.0
C1037 C 0.08443 0.50245 0.34487 0.0
C1038 C 0.06849 0.51413 0.30236 0.0
C1039 C 0.0538 0.51376 0.32061 0.0
H1040 H 0.76778 0.74938 0.89646 0.0
H1041 H 0.83728 0.74722 0.91726 0.0
H1042 H 0.82748 0.7181 0.94454 0.0
H1043 H 0.7986 0.69368 0.96302 0.0
H1044 H 0.72926 0.69691 0.94101 0.0
H1045 H 0.73962 0.7252 0.91399 0.0
C1046 C 0.78078 0.74275 0.90713 0.0
C1047 C 0.80315 0.75068 0.90502 0.0
C1048 C 0.77505 0.72613 0.92266 0.0
C1049 C 0.8199 0.7414 0.91855 0.0
C1050 C 0.81428 0.7248 0.9342 0.0
C1051 C 0.78579 0.70053 0.95228 0.0
C1052 C 0.76313 0.69313 0.95435 0.0
C1053 C 0.79184 0.71705 0.93647 0.0
C1054 C 0.74681 0.70225 0.94013 0.0
C1055 C 0.75269 0.71851 0.92454 0.0
H1056 H 0.98461 0.01125 0.37534 0.0
H1057 H 0.9564 0.94598 0.39301 0.0
H1058 H 0.93285 0.94551 0.35973 0.0
H1059 H 0.92049 0.96285 0.32534 0.0
H1060 H 0.94448 0.02974 0.30898 0.0
H1061 H 0.96904 0.03053 0.34234 0.0
C1062 C 0.97313 0.99703 0.3722 0.0
C1063 C 0.97301 0.97838 0.38666 0.0
C1064 C 0.95875 0.99716 0.35325 0.0
C1065 C 0.95782 0.9602 0.38195 0.0
C1066 C 0.94402 0.95999 0.36297 0.0
C1067 C 0.93095 0.97771 0.32907 0.0
C1068 C 0.93075 0.99614 0.31457 0.0
C1069 C 0.9445 0.97823 0.34842 0.0
C1070 C 0.9443 0.01533 0.31987 0.0
C1071 C 0.95839 0.01573 0.3389 0.0
H1072 H 0.23237 0.23477 0.61614 0.0
H1073 H 0.16465 0.2471 0.59403 0.0
H1074 H 0.16866 0.2198 0.56304 0.0
H1075 H 0.19165 0.19247 0.54212 0.0
H1076 H 0.25922 0.18015 0.56518 0.0
H1077 H 0.25503 0.20748 0.59568 0.0
C1078 C 0.21855 0.23164 0.60441 0.0
C1079 C 0.1983 0.24307 0.6073 0.0
C1080 C 0.22094 0.21589 0.58676 0.0
C1081 C 0.18038 0.23845 0.59224 0.0
C1082 C 0.1827 0.22291 0.57447 0.0
C1083 C 0.20547 0.1958 0.55378 0.0
C1084 C 0.22573 0.18419 0.55123 0.0
C1085 C 0.20293 0.21152 0.57155 0.0
C1086 C 0.24339 0.18868 0.56667 0.0
C1087 C 0.24106 0.20438 0.58416 0.0
H1088 H 0.49968 0.49438 0.65976 0.0
H1089 H 0.45681 0.54737 0.63754 0.0
H1090 H 0.43115 0.53993 0.66832 0.0
H1091 H 0.41985 0.51759 0.7008 0.0
H1092 H 0.46056 0.46235 0.72109 0.0
H1093 H 0.48773 0.4712 0.69159 0.0
C1094 C 0.48463 0.50419 0.66142 0.0
C1095 C 0.48051 0.52161 0.64626 0.0
C1096 C 0.4694 0.49936 0.67884 0.0
C1097 C 0.46094 0.53425 0.64912 0.0
C1098 C 0.44604 0.52987 0.66666 0.0
C1099 C 0.43478 0.50761 0.69891 0.0
C1100 C 0.43824 0.48944 0.71325 0.0
C1101 C 0.45004 0.51243 0.68157 0.0
C1102 C 0.45747 0.47643 0.71029 0.0
C1103 C 0.47303 0.48149 0.69342 0.0
H1104 H 0.80235 0.30179 0.62847 0.0
H1105 H 0.81412 0.24992 0.57859 0.0
H1106 H 0.80708 0.27655 0.54864 0.0
H1107 H 0.79548 0.31407 0.53669 0.0
H1108 H 0.78138 0.36509 0.58678 0.0
H1109 H 0.79185 0.33953 0.61655 0.0
C1110 C 0.80366 0.29642 0.61103 0.0
C1111 C 0.80874 0.27393 0.60574 0.0
C1112 C 0.79921 0.31171 0.59394 0.0
C1113 C 0.81004 0.2671 0.58308 0.0
C1114 C 0.8061 0.28234 0.56596 0.0
C1115 C 0.79509 0.31969 0.55411 0.0
C1116 C 0.78779 0.34146 0.55955 0.0
C1117 C 0.80041 0.30462 0.57119 0.0
C1118 C 0.78697 0.34841 0.58219 0.0
C1119 C 0.79288 0.33378 0.59922 0.0
H1120 H 0.52193 0.02013 0.6506 0.0
H1121 H 0.55927 0.96233 0.62863 0.0
H1122 H 0.58592 0.9687 0.65934 0.0
H1123 H 0.59943 0.99107 0.69196 0.0
H1124 H 0.5641 0.05057 0.71234 0.0
H1125 H 0.53621 0.04332 0.68255 0.0
C1126 C 0.53601 0.00903 0.65231 0.0
C1127 C 0.53827 0.9906 0.63727 0.0
C1128 C 0.55176 0.01311 0.66977 0.0
C1129 C 0.5566 0.97632 0.64013 0.0
C1130 C 0.57205 0.98005 0.65764 0.0
C1131 C 0.58553 1.00237 0.69001 0.0
C1132 C 0.5838 0.02125 0.70448 0.0
C1133 C 0.56982 0.99838 0.67256 0.0
C1134 C 0.56586 0.03591 0.70145 0.0
C1135 C 0.54989 0.03177 0.68441 0.0
H1136 H 0.91333 0.24597 0.77447 0.0
H1137 H 0.9087 0.17435 0.78653 0.0
H1138 H 0.93732 0.17865 0.81572 0.0
H1139 H 0.96209 0.20318 0.83991 0.0
H1140 H 0.9615 0.27512 0.83156 0.0
H1141 H 0.93624 0.27032 0.79925 0.0
C1142 C 0.91814 0.23123 0.78361 0.0
C1143 C 0.90862 0.20985 0.77797 0.0
C1144 C 0.93377 0.23391 0.80124 0.0
C1145 C 0.9159 0.19102 0.78987 0.0
C1146 C 0.93223 0.19345 0.80682 0.0
C1147 C 0.95641 0.21769 0.83087 0.0
C1148 C 0.96323 0.23945 0.83812 0.0
C1149 C 0.94109 0.21485 0.81285 0.0
C1150 C 0.95608 0.25823 0.82633 0.0
C1151 C 0.9417 0.25549 0.80788 0.0
H1152 H 0.50212 0.87677 0.45871 0.0
H1153 H 0.45354 0.84619 0.50307 0.0
H1154 H 0.45498 0.81064 0.48165 0.0
H1155 H 0.4688 0.78887 0.44935 0.0
H1156 H 0.51884 0.81865 0.4059 0.0
H1157 H 0.51839 0.85378 0.42806 0.0
C1158 C 0.49196 0.86223 0.46365 0.0
C1159 C 0.4776 0.86401 0.48225 0.0
C1160 C 0.4932 0.84175 0.45148 0.0
C1161 C 0.46469 0.8451 0.48877 0.0
C1162 C 0.46549 0.82484 0.47652 0.0
C1163 C 0.47974 0.80298 0.44483 0.0
C1164 C 0.49372 0.80119 0.42591 0.0
C1165 C 0.47951 0.82304 0.45772 0.0
C1166 C 0.508 0.81955 0.42044 0.0
C1167 C 0.50763 0.8397 0.43302 0.0
H1168 H 0.12452 0.29594 0.81167 0.0
H1169 H 0.07717 0.31143 0.75941 0.0
H1170 H 0.04596 0.30677 0.78563 0.0
H1171 H 0.03195 0.29629 0.82279 0.0
H1172 H 0.07902 0.279 0.87464 0.0
H1173 H 0.11052 0.28689 0.8494 0.0
C1174 C 0.10739 0.29856 0.80611 0.0
C1175 C 0.10318 0.30391 0.78358 0.0
C1176 C 0.08948 0.29562 0.82124 0.0
C1177 C 0.08085 0.30699 0.77657 0.0
C1178 C 0.063 0.30445 0.79159 0.0
C1179 C 0.04911 0.29463 0.82871 0.0
C1180 C 0.05314 0.28715 0.8506 0.0
C1181 C 0.06709 0.29852 0.81389 0.0
C1182 C 0.07547 0.28477 0.85789 0.0
C1183 C 0.09349 0.28918 0.84343 0.0
H1184 H 0.54503 0.64464 0.46877 0.0
H1185 H 0.47603 0.62834 0.4859 0.0
H1186 H 0.46315 0.65871 0.46237 0.0
H1187 H 0.47136 0.68959 0.43649 0.0
H1188 H 0.54041 0.7053 0.41878 0.0
H1189 H 0.55323 0.67535 0.44274 0.0
C1190 C 0.52716 0.64758 0.46721 0.0
C1191 C 0.51157 0.63419 0.47916 0.0
C1192 C 0.51981 0.66499 0.4535 0.0
C1193 C 0.48847 0.63854 0.47717 0.0
C1194 C 0.48105 0.65584 0.4636 0.0
C1195 C 0.48923 0.68656 0.43791 0.0
C1196 C 0.50483 0.6998 0.42577 0.0
C1197 C 0.49657 0.66919 0.45168 0.0
C1198 C 0.52793 0.69544 0.42782 0.0
C1199 C 0.53533 0.67827 0.44155 0.0
H1200 H 0.9103 0.76999 0.75128 0.0
H1201 H 0.90873 0.83399 0.71821 0.0
H1202 H 0.93654 0.82094 0.691 0.0
H1203 H 0.96092 0.79073 0.67616 0.0
H1204 H 0.96187 0.72722 0.71041 0.0
H1205 H 0.93523 0.741 0.73783 0.0
C1206 C 0.91627 0.78132 0.7384 0.0
C1207 C 0.90745 0.80302 0.73697 0.0
C1208 C 0.9323 0.7738 0.72297 0.0
C1209 C 0.91503 0.81712 0.71966 0.0
C1210 C 0.93106 0.80972 0.70416 0.0
C1211 C 0.95548 0.78004 0.68978 0.0
C1212 C 0.9634 0.7579 0.69107 0.0
C1213 C 0.93979 0.78801 0.70559 0.0
C1214 C 0.95599 0.74424 0.70879 0.0
C1215 C 0.94071 0.75209 0.72455 0.0
H1216 H 0.99102 0.86585 0.54913 0.0
H1217 H 0.05702 0.88495 0.57508 0.0
H1218 H 0.05581 0.85304 0.60006 0.0
H1219 H 0.03683 0.81914 0.61392 0.0
H1220 H 0.97187 0.79811 0.58701 0.0
H1221 H 0.97195 0.83121 0.563 0.0
C1222 C 0.0052 0.86296 0.56014 0.0
C1223 C 0.02398 0.87807 0.56029 0.0
C1224 C 1.00461 0.8442 0.57433 0.0
C1225 C 0.0421 0.87403 0.57487 0.0
C1226 C 0.04153 0.85564 0.5891 0.0
C1227 C 0.02257 0.82184 0.60295 0.0
C1228 C 1.00433 0.8062 0.60235 0.0
C1229 C 0.02292 0.84061 0.58895 0.0
C1230 C 0.98611 0.80991 0.58785 0.0
C1231 C 0.98618 0.82882 0.57407 0.0
H1232 H 0.12446 0.73419 0.72764 0.0
H1233 H 0.10737 0.6648 0.74181 0.0
H1234 H 0.07431 0.66629 0.7173 0.0
H1235 H 0.04987 0.68751 0.69226 0.0
H1236 H 0.06741 0.7569 0.67796 0.0
H1237 H 0.10048 0.75517 0.70215 0.0
C1238 C 0.11342 0.71943 0.72547 0.0
C1239 C 0.11837 0.69944 0.73663 0.0
C1240 C 0.09445 0.72039 0.71133 0.0
C1241 C 0.10408 0.68035 0.7333 0.0
C1242 C 0.0851 0.68122 0.71937 0.0
C1243 C 0.06089 0.70228 0.69443 0.0
C1244 C 0.05598 0.72232 0.68328 0.0
C1245 C 0.08006 0.70118 0.70834 0.0
C1246 C 0.07066 0.74121 0.68623 0.0
C1247 C 0.08962 0.74027 0.70013 0.0
H1248 H 0.97782 0.64386 0.5436 0.0
H1249 H 0.04754 0.62569 0.54751 0.0
H1250 H 0.05583 0.65851 0.57191 0.0
H1251 H 0.04266 0.69126 0.59418 0.0
H1252 H 0.97259 0.70792 0.59139 0.0
H1253 H 0.96507 0.67713 0.56432 0.0
C1254 C 0.99483 0.64704 0.5498 0.0
C1255 C 0.01198 0.63222 0.54381 0.0
C1256 C 0.99943 0.66579 0.56398 0.0
C1257 C 0.03403 0.63688 0.5517 0.0
C1258 C 0.03878 0.65562 0.56573 0.0
C1259 C 0.02583 0.68812 0.58747 0.0
C1260 C 0.00804 0.70126 0.59514 0.0
C1261 C 0.02156 0.67004 0.57223 0.0
C1262 C 0.98637 0.69752 0.58608 0.0
C1263 C 0.98209 0.67999 0.57058 0.0
H1264 H 0.78992 0.92058 0.19652 0.0
H1265 H 0.77735 0.90667 0.26629 0.0
H1266 H 0.80563 0.93519 0.27762 0.0
H1267 H 0.83495 0.9631 0.26791 0.0
H1268 H 0.84831 0.97729 0.19859 0.0
H1269 H 0.81878 0.94963 0.18679 0.0
C1270 C 0.7935 0.92368 0.21419 0.0
C1271 C 0.78143 0.91149 0.23051 0.0
C1272 C 0.80998 0.94008 0.22065 0.0
C1273 C 0.78608 0.916 0.25336 0.0
C1274 C 0.80232 0.93227 0.25988 0.0
C1275 C 0.83141 0.95999 0.25022 0.0
C1276 C 0.84413 0.97148 0.23405 0.0
C1277 C 0.81449 0.94424 0.2437 0.0
C1278 C 0.83893 0.96816 0.21123 0.0
C1279 C 0.82211 0.95238 0.20454 0.0
H1280 H 0.81479 0.13468 0.29522 0.0
H1281 H 0.76042 0.0869 0.30757 0.0
H1282 H 0.78599 0.05567 0.30244 0.0
H1283 H 0.82326 0.04183 0.29248 0.0
H1284 H 0.87726 0.08934 0.27789 0.0
H1285 H 0.85256 0.12074 0.28619 0.0
C1286 C 0.80864 0.11743 0.29701 0.0
C1287 C 0.78573 0.1131 0.30168 0.0
C1288 C 0.82339 0.0995 0.29366 0.0
C1289 C 0.77793 0.09065 0.30374 0.0
C1290 C 0.79256 0.07279 0.30089 0.0
C1291 C 0.82974 0.05905 0.29144 0.0
C1292 C 0.8521 0.06323 0.28467 0.0
C1293 C 0.81525 0.07699 0.29558 0.0
C1294 C 0.86012 0.08566 0.2831 0.0
C1295 C 0.84597 0.10362 0.28777 0.0
H1296 H 0.37471 0.96395 0.01496 0.0
H1297 H 0.36949 0.97731 0.9442 0.0
H1298 H 0.33293 0.9577 0.94248 0.0
H1299 H 0.30322 0.93585 0.96039 0.0
H1300 H 0.30797 0.92081 0.03087 0.0
H1301 H 0.34377 0.9423 0.03342 0.0
C1302 C 0.36545 0.96267 0.99924 0.0
C1303 C 0.37493 0.97189 0.97967 0.0
C1304 C 0.34436 0.95114 0.99831 0.0
C1305 C 0.36278 0.97003 0.95939 0.0
C1306 C 0.3418 0.95893 0.95842 0.0
C1307 C 0.31187 0.93733 0.97645 0.0
C1308 C 0.30276 0.92665 0.99542 0.0
C1309 C 0.33255 0.94926 0.97769 0.0
C1310 C 0.31447 0.92883 0.01597 0.0
C1311 C 0.33501 0.94107 0.01743 0.0
H1312 H 0.22026 0.38336 0.28977 0.0
H1313 H 0.27388 0.43282 0.30105 0.0
H1314 H 0.24757 0.46323 0.29509 0.0
H1315 H 0.20938 0.47572 0.28585 0.0
H1316 H 0.15643 0.42601 0.27239 0.0
H1317 H 0.18224 0.39576 0.28045 0.0
C1318 C 0.22613 0.40081 0.29106 0.0
C1319 C 0.24897 0.40584 0.29589 0.0
C1320 C 0.21097 0.41815 0.28738 0.0
C1321 C 0.25643 0.42852 0.29717 0.0
C1322 C 0.24136 0.4459 0.2939 0.0
C1323 C 0.20345 0.45826 0.28501 0.0
C1324 C 0.18098 0.45308 0.27876 0.0
C1325 C 0.2186 0.44092 0.28895 0.0
C1326 C 0.17362 0.4304 0.27726 0.0
C1327 C 0.18839 0.4131 0.28179 0.0
H1328 H 0.14955 0.03948 0.48163 0.0
H1329 H 0.12417 0.05387 0.54792 0.0
H1330 H 0.15783 0.07712 0.55659 0.0
H1331 H 0.19356 0.09545 0.54438 0.0
H1332 H 0.2175 0.08256 0.47738 0.0
H1333 H 0.18573 0.05631 0.47006 0.0
C1334 C 0.15134 0.04775 0.49795 0.0
C1335 C 0.13427 0.04503 0.51403 0.0
C1336 C 0.17066 0.06121 0.50277 0.0
C1337 C 0.13709 0.05557 0.53526 0.0
C1338 C 0.15635 0.06888 0.54024 0.0
C1339 C 0.19182 0.08666 0.52832 0.0
C1340 C 0.20735 0.09124 0.51122 0.0
C1341 C 0.17313 0.07206 0.52403 0.0
C1342 C 0.20533 0.07958 0.49057 0.0
C1343 C 0.18722 0.06458 0.4864 0.0
H1344 H 0.72877 0.10035 0.68559 0.0
H1345 H 0.75081 0.10935 0.75456 0.0
H1346 H 0.72319 0.08116 0.76626 0.0
H1347 H 0.69144 0.05529 0.75749 0.0
H1348 H 0.6715 0.04292 0.68873 0.0
H1349 H 0.7003 0.07045 0.67622 0.0
C1350 C 0.72794 0.0959 0.70312 0.0
C1351 C 0.7416 0.10766 0.71916 0.0
C1352 C 0.71246 0.07895 0.70979 0.0
C1353 C 0.74003 0.10144 0.74183 0.0
C1354 C 0.72441 0.08501 0.74859 0.0
C1355 C 0.69352 0.05863 0.73976 0.0
C1356 C 0.67901 0.04795 0.72403 0.0
C1357 C 0.71026 0.07403 0.7328 0.0
C1358 C 0.68228 0.05151 0.70107 0.0
C1359 C 0.6987 0.06719 0.69398 0.0
H1360 H 0.37972 0.06162 0.54432 0.0
H1361 H 0.36955 0.0281 0.47995 0.0
H1362 H 0.33679 0.05092 0.47295 0.0
H1363 H 0.31029 0.08005 0.48551 0.0
H1364 H 0.32249 0.11479 0.54891 0.0
H1365 H 0.35542 0.0923 0.55545 0.0
C1366 C 0.37072 0.05951 0.52852 0.0
C1367 C 0.37722 0.04289 0.51283 0.0
C1368 C 0.35214 0.07302 0.52434 0.0
C1369 C 0.36482 0.04033 0.49266 0.0
C1370 C 0.34611 0.05353 0.48852 0.0
C1371 C 0.32026 0.08278 0.50066 0.0
C1372 C 0.3138 0.09905 0.51671 0.0
C1373 C 0.33946 0.06982 0.50433 0.0
C1374 C 0.327 0.10243 0.53622 0.0
C1375 C 0.34586 0.08951 0.54005 0.0
H1376 H 0.63745 0.45283 0.54038 0.0
H1377 H 0.65193 0.50152 0.48902 0.0
H1378 H 0.68442 0.48028 0.47719 0.0
H1379 H 0.70924 0.44808 0.48158 0.0
H1380 H 0.69639 0.40113 0.53479 0.0
H1381 H 0.66321 0.42183 0.54598 0.0
C1382 C 0.64783 0.45908 0.52681 0.0
C1383 C 0.6419 0.47879 0.51558 0.0
C1384 C 0.66697 0.44711 0.52042 0.0
C1385 C 0.65555 0.48619 0.49774 0.0
C1386 C 0.67436 0.47414 0.49104 0.0
C1387 C 0.69917 0.44236 0.49562 0.0
C1388 C 0.70534 0.42303 0.50727 0.0
C1389 C 0.68023 0.45456 0.50223 0.0
C1390 C 0.69217 0.41601 0.52556 0.0
C1391 C 0.67311 0.42781 0.53195 0.0
H1392 H 0.75104 0.283 0.40557 0.0
H1393 H 0.67914 0.27902 0.41558 0.0
H1394 H 0.68257 0.30681 0.44631 0.0
H1395 H 0.70619 0.33265 0.47037 0.0
H1396 H 0.77792 0.33615 0.45995 0.0
H1397 H 0.7745 0.30768 0.42991 0.0
C1398 C 0.73613 0.28792 0.41467 0.0
C1399 C 0.71489 0.27885 0.40826 0.0
C1400 C 0.73822 0.30378 0.43239 0.0
C1401 C 0.6957 0.28588 0.41997 0.0
C1402 C 0.69765 0.30167 0.43767 0.0
C1403 C 0.72097 0.32707 0.46146 0.0
C1404 C 0.74217 0.33681 0.4668 0.0
C1405 C 0.71882 0.3108 0.444 0.0
C1406 C 0.76135 0.32923 0.4556 0.0
C1407 C 0.75942 0.31291 0.43852 0.0
H1408 H 0.54533 0.05067 0.86818 0.0
H1409 H 0.55905 0.98179 0.88387 0.0
H1410 H 0.58147 0.97819 0.84954 0.0
H1411 H 0.59806 0.99533 0.81526 0.0
H1412 H 0.58305 0.06451 0.80076 0.0
H1413 H 0.56054 0.06714 0.83429 0.0
C1414 C 0.55338 0.03491 0.86422 0.0
C1415 C 0.55075 0.01665 0.87871 0.0
C1416 C 0.5661 0.03297 0.84454 0.0
C1417 C 0.56082 0.99614 0.87299 0.0
C1418 C 0.57369 0.9941 0.85338 0.0
C1419 C 0.58977 0.01092 0.81938 0.0
C1420 C 0.59254 0.02968 0.80534 0.0
C1421 C 0.57657 0.01248 0.83902 0.0
C1422 C 0.58154 0.04973 0.81109 0.0
C1423 C 0.56855 0.05135 0.83038 0.0
H1424 H 0.31886 0.23114 0.4176 0.0
H1425 H 0.25418 0.23802 0.38547 0.0
H1426 H 0.23716 0.21116 0.41113 0.0
H1427 H 0.24012 0.18666 0.44279 0.0
H1428 H 0.30404 0.17897 0.47626 0.0
H1429 H 0.32192 0.20515 0.44987 0.0
C1430 C 0.30109 0.22659 0.41621 0.0
C1431 C 0.28773 0.23675 0.39982 0.0
C1432 C 0.29127 0.21112 0.43125 0.0
C1433 C 0.26472 0.23075 0.39818 0.0
C1434 C 0.25499 0.21533 0.41279 0.0
C1435 C 0.25799 0.19063 0.44453 0.0
C1436 C 0.27063 0.1809 0.46171 0.0
C1437 C 0.26803 0.20562 0.42948 0.0
C1438 C 0.29383 0.18623 0.46329 0.0
C1439 C 0.30406 0.20121 0.44819 0.0
H1440 H 0.47469 0.45789 0.87843 0.0
H1441 H 0.47754 0.53044 0.88422 0.0
H1442 H 0.45399 0.53295 0.85046 0.0
H1443 H 0.43226 0.51414 0.81912 0.0
H1444 H 0.43031 0.44126 0.81472 0.0
H1445 H 0.45339 0.43945 0.84811 0.0
C1446 C 0.46995 0.47429 0.87253 0.0
C1447 C 0.47774 0.49391 0.884 0.0
C1448 C 0.45646 0.47559 0.85323 0.0
C1449 C 0.47188 0.51502 0.87567 0.0
C1450 C 0.45831 0.51647 0.85641 0.0
C1451 C 0.43686 0.4979 0.82551 0.0
C1452 C 0.42948 0.47793 0.81415 0.0
C1453 C 0.45045 0.49682 0.845 0.0
C1454 C 0.43573 0.45702 0.82279 0.0
C1455 C 0.44897 0.45587 0.84202 0.0
H1456 H 0.74191 0.75582 0.1025 0.0
H1457 H 0.67257 0.73497 0.11366 0.0
H1458 H 0.67483 0.70721 0.08335 0.0
H1459 H 0.69655 0.68815 0.05391 0.0
H1460 H 0.76699 0.70563 0.04599 0.0
H1461 H 0.76434 0.73492 0.0752 0.0
C1462 C 0.72733 0.74503 0.09871 0.0
C1463 C 0.707 0.74798 0.11045 0.0
C1464 C 0.72895 0.72829 0.08182 0.0
C1465 C 0.6883 0.73383 0.10468 0.0
C1466 C 0.68961 0.71765 0.08743 0.0
C1467 C 0.7113 0.69836 0.05861 0.0
C1468 C 0.7319 0.69478 0.04776 0.0
C1469 C 0.70982 0.71473 0.07587 0.0
C1470 C 0.75095 0.708 0.05417 0.0
C1471 C 0.74943 0.72479 0.07082 0.0
H1472 H 0.98794 0.99641 0.14738 0.0
H1473 H 0.97392 0.0674 0.15104 0.0
H1474 H 0.9505 0.06126 0.18396 0.0
H1475 H 0.93307 0.03571 0.21113 0.0
H1476 H 0.9476 0.96479 0.20803 0.0
H1477 H 0.97209 0.97112 0.17589 0.0
C1478 C 0.98004 0.01062 0.15554 0.0
C1479 C 0.9826 0.03232 0.14648 0.0
C1480 C 0.96668 0.00702 0.17467 0.0
C1481 C 0.97194 0.05043 0.15725 0.0
C1482 C 0.95864 0.04697 0.17622 0.0
C1483 C 0.94168 0.02161 0.20357 0.0
C1484 C 0.93832 0.99977 0.21208 0.0
C1485 C 0.9557 0.02531 0.18496 0.0
C1486 C 0.94979 0.9818 0.20197 0.0
C1487 C 0.96378 0.98538 0.18348 0.0
H1488 H 0.31565 0.77972 0.09477 0.0
H1489 H 0.26239 0.79902 0.13951 0.0
H1490 H 0.25124 0.82828 0.1137 0.0
H1491 H 0.25533 0.84701 0.07771 0.0
H1492 H 0.30684 0.82641 0.03147 0.0
H1493 H 0.32018 0.7992 0.05861 0.0
C1494 C 0.30176 0.79052 0.09888 0.0
C1495 C 0.2898 0.78725 0.11894 0.0
C1496 C 0.29514 0.80702 0.08371 0.0
C1497 C 0.2717 0.80115 0.12406 0.0
C1498 C 0.26536 0.81789 0.10935 0.0
C1499 C 0.26966 0.83678 0.07365 0.0
C1500 C 0.28013 0.83878 0.05264 0.0
C1501 C 0.27678 0.82079 0.08903 0.0
C1502 C 0.2985 0.82519 0.04755 0.0
C1503 C 0.30609 0.8096 0.06304 0.0
H1504 H 0.06277 0.4843 0.13256 0.0
H1505 H 0.01701 0.53671 0.15136 0.0
H1506 H 0.03915 0.54505 0.18515 0.0
H1507 H 0.07147 0.53747 0.20966 0.0
H1508 H 0.11535 0.48312 0.19224 0.0
H1509 H 0.09353 0.47518 0.15805 0.0
C1510 C 0.05729 0.4973 0.14414 0.0
C1511 C 0.03818 0.5099 0.13906 0.0
C1512 C 0.06974 0.50163 0.16398 0.0
C1513 C 0.03186 0.527 0.15432 0.0
C1514 C 0.04442 0.53168 0.17386 0.0
C1515 C 0.07624 0.52385 0.19841 0.0
C1516 C 0.09509 0.51096 0.20354 0.0
C1517 C 0.06343 0.51915 0.17885 0.0
C1518 C 0.10088 0.49326 0.18882 0.0
C1519 C 0.08845 0.48875 0.16919 0.0
H1520 H 0.41577 0.68945 0.28055 0.0
H1521 H 0.39762 0.75928 0.27723 0.0
H1522 H 0.42611 0.76956 0.30541 0.0
H1523 H 0.45568 0.75884 0.33153 0.0
H1524 H 0.47432 0.68944 0.33554 0.0
H1525 H 0.44615 0.67875 0.30658 0.0
C1526 C 0.41798 0.70688 0.28611 0.0
C1527 C 0.40463 0.72358 0.27666 0.0
C1528 C 0.43442 0.71272 0.30246 0.0
C1529 C 0.40789 0.74614 0.28389 0.0
C1530 C 0.42413 0.75205 0.30008 0.0
C1531 C 0.45339 0.74135 0.32614 0.0
C1532 C 0.46637 0.72478 0.33601 0.0
C1533 C 0.43739 0.73549 0.30953 0.0
C1534 C 0.46406 0.70233 0.32838 0.0
C1535 C 0.448 0.69628 0.31188 0.0
H1536 H 0.96297 0.37245 0.98294 0.0
H1537 H 0.02833 0.39575 0.96074 0.0
H1538 H 0.03233 0.36094 0.9383 0.0
H1539 H 0.01586 0.32467 0.92323 0.0
H1540 H 0.95035 0.30226 0.94668 0.0
H1541 H 0.94793 0.33575 0.97031 0.0
C1542 C 0.9781 0.36989 0.97318 0.0
C1543 C 0.99518 0.38671 0.97323 0.0
C1544 C 0.98025 0.34995 0.96047 0.0
C1545 C 0.01492 0.38301 0.96091 0.0
C1546 C 0.01716 0.36315 0.94804 0.0
C1547 C 1.00121 0.327 0.93372 0.0
C1548 C 0.98323 0.31097 0.93284 0.0
C1549 C 0.99977 0.34658 0.94744 0.0
C1550 C 0.96437 0.31434 0.94665 0.0
C1551 C 0.96291 0.33354 0.96026 0.0
H1552 H 0.62502 0.80355 0.30286 0.0
H1553 H 0.57593 0.81508 0.25106 0.0
H1554 H 0.54548 0.8043 0.27657 0.0
H1555 H 0.53299 0.78958 0.313 0.0
H1556 H 0.58246 0.77641 0.36404 0.0
H1557 H 0.61251 0.79022 0.33962 0.0
C1558 C 0.60763 0.80404 0.29728 0.0
C1559 C 0.60274 0.81011 0.27511 0.0
C1560 C 0.59027 0.7975 0.31192 0.0
C1561 C 0.58014 0.81028 0.26799 0.0
C1562 C 0.56272 0.80419 0.28259 0.0
C1563 C 0.55032 0.79004 0.31887 0.0
C1564 C 0.5555 0.782 0.3403 0.0
C1565 C 0.56761 0.79748 0.3045 0.0
C1566 C 0.57805 0.78246 0.34759 0.0
C1567 C 0.59525 0.79032 0.33362 0.0
H1568 H 0.99317 0.1566 0.99311 0.0
H1569 H 0.04505 0.13301 0.94852 0.0
H1570 H 0.03771 0.16347 0.92306 0.0
H1571 H 0.01653 0.19674 0.91302 0.0
H1572 H 0.96232 0.21841 0.95545 0.0
H1573 H 0.97027 0.18845 0.98181 0.0
C1574 C 1.0027 0.15782 0.9777 0.0
C1575 C 0.01993 0.14251 0.97313 0.0
C1576 C 0.99793 0.17507 0.96261 0.0
C1577 C 0.03216 0.14478 0.95304 0.0
C1578 C 0.02783 0.16213 0.93825 0.0
C1579 C 0.0065 0.19495 0.92808 0.0
C1580 C 0.989 0.20991 0.93238 0.0
C1581 C 0.01084 0.17742 0.9429 0.0
C1582 C 0.97589 0.20712 0.95176 0.0
C1583 C 0.98046 0.19002 0.96686 0.0
H1584 H 0.40825 0.3095 0.21714 0.0
H1585 H 0.42611 0.26042 0.26642 0.0
H1586 H 0.45504 0.2462 0.24172 0.0
H1587 H 0.4738 0.24584 0.20527 0.0
H1588 H 0.45869 0.29625 0.15677 0.0
H1589 H 0.43065 0.31222 0.18226 0.0
C1590 C 0.4187 0.29598 0.22271 0.0
C1591 C 0.41436 0.28569 0.24349 0.0
C1592 C 0.43588 0.28811 0.20855 0.0
C1593 C 0.42829 0.26818 0.25025 0.0
C1594 C 0.44508 0.26012 0.2362 0.0
C1595 C 0.46453 0.2605 0.20041 0.0
C1596 C 0.4681 0.26976 0.17916 0.0
C1597 C 0.4487 0.26962 0.21516 0.0
C1598 C 0.45625 0.2889 0.17311 0.0
C1599 C 0.44013 0.29791 0.18763 0.0
H1600 H 0.50086 0.37384 0.04141 0.0
H1601 H 0.56932 0.38792 0.06352 0.0
H1602 H 0.56765 0.35518 0.08737 0.0
H1603 H 0.5474 0.32204 0.10148 0.0
H1604 H 0.48002 0.30581 0.07784 0.0
H1605 H 0.4808 0.33965 0.05484 0.0
C1606 C 0.51551 0.36968 0.05126 0.0
C1607 C 0.53509 0.3837 0.05074 0.0
C1608 C 0.51468 0.35035 0.06467 0.0
C1609 C 0.55378 0.37796 0.0639 0.0
C1610 C 0.55295 0.35905 0.07745 0.0
C1611 C 0.5328 0.32593 0.0914 0.0
C1612 C 0.51363 0.31148 0.09148 0.0
C1613 C 0.53353 0.34513 0.07797 0.0
C1614 C 0.49499 0.31667 0.0781 0.0
C1615 C 0.49544 0.33602 0.06495 0.0
H1616 H 0.63087 0.22741 0.2148 0.0
H1617 H 0.5891 0.19042 0.26108 0.0
H1618 H 0.55656 0.19376 0.23608 0.0
H1619 H 0.53993 0.2076 0.20127 0.0
H1620 H 0.58119 0.24657 0.15596 0.0
H1621 H 0.61393 0.24213 0.18032 0.0
C1622 C 0.61464 0.22 0.21927 0.0
C1623 C 0.61233 0.20858 0.23962 0.0
C1624 C 0.59593 0.22242 0.20504 0.0
C1625 C 0.5912 0.19931 0.24548 0.0
C1626 C 0.57264 0.2012 0.23119 0.0
C1627 C 0.5561 0.21507 0.19668 0.0
C1628 C 0.55809 0.22734 0.17677 0.0
C1629 C 0.57478 0.21278 0.21097 0.0
C1630 C 0.57914 0.23712 0.17123 0.0
C1631 C 0.5979 0.23454 0.18512 0.0
H1632 H 0.52704 0.13525 0.04591 0.0
H1633 H 0.45629 0.1461 0.03509 0.0
H1634 H 0.4589 0.18073 0.05784 0.0
H1635 H 0.48089 0.20711 0.0823 0.0
H1636 H 0.55158 0.19678 0.09289 0.0
H1637 H 0.54957 0.163 0.06847 0.0
C1638 C 0.51225 0.14532 0.04833 0.0
C1639 C 0.49145 0.13793 0.03896 0.0
C1640 C 0.51386 0.16525 0.06147 0.0
C1641 C 0.47242 0.15115 0.0424 0.0
C1642 C 0.47393 0.17107 0.05527 0.0
C1643 C 0.49577 0.19732 0.07929 0.0
C1644 C 0.51614 0.20372 0.08995 0.0
C1645 C 0.49445 0.17807 0.0652 0.0
C1646 C 0.53561 0.19168 0.08523 0.0
C1647 C 0.53445 0.17243 0.07129 0.0
H1648 H 0.29057 0.40522 0.69581 0.0
H1649 H 0.27252 0.39812 0.76567 0.0
H1650 H 0.30181 0.42545 0.77647 0.0
H1651 H 0.33302 0.45103 0.76653 0.0
H1652 H 0.3486 0.46203 0.69707 0.0
H1653 H 0.31904 0.43425 0.68558 0.0
C1654 C 0.29259 0.40987 0.71338 0.0
C1655 C 0.2794 0.39894 0.72983 0.0
C1656 C 0.30892 0.42652 0.71957 0.0
C1657 C 0.28277 0.40534 0.75253 0.0
C1658 C 0.29936 0.42133 0.75881 0.0
C1659 C 0.32985 0.4473 0.74887 0.0
C1660 C 0.34328 0.45778 0.73261 0.0
C1661 C 0.31266 0.43182 0.74252 0.0
C1662 C 0.33866 0.45365 0.7098 0.0
C1663 C 0.3218 0.43782 0.70329 0.0
H1664 H 0.28106 0.58725 0.80701 0.0
H1665 H 0.32445 0.63938 0.78002 0.0
H1666 H 0.35398 0.61207 0.7736 0.0
H1667 H 0.36676 0.57292 0.77398 0.0
H1668 H 0.3235 0.52096 0.80173 0.0
H1669 H 0.29486 0.54862 0.80978 0.0
C1670 C 0.29699 0.59257 0.79971 0.0
C1671 C 0.30052 0.61522 0.79381 0.0
C1672 C 0.31398 0.57682 0.7963 0.0
C1673 C 0.32137 0.62202 0.78471 0.0
C1674 C 0.33823 0.60641 0.78101 0.0
C1675 C 0.3512 0.5677 0.78207 0.0
C1676 C 0.3473 0.54485 0.78714 0.0
C1677 C 0.33467 0.58371 0.78657 0.0
C1678 C 0.32701 0.53841 0.79764 0.0
C1679 C 0.31053 0.55421 0.80215 0.0
H1680 H 0.86384 0.49147 0.49134 0.0
H1681 H 0.90543 0.43688 0.5114 0.0
H1682 H 0.87183 0.41295 0.51737 0.0
H1683 H 0.83067 0.40661 0.514 0.0
H1684 H 0.78958 0.46018 0.49068 0.0
H1685 H 0.8227 0.48563 0.48937 0.0
C1686 C 0.86549 0.47444 0.49733 0.0
C1687 C 0.88707 0.46593 0.50089 0.0
C1688 C 0.84613 0.46064 0.50023 0.0
C1689 C 0.889 0.44373 0.50835 0.0
C1690 C 0.8698 0.43008 0.51184 0.0
C1691 C 0.82898 0.42404 0.50921 0.0
C1692 C 0.80776 0.43171 0.50279 0.0
C1693 C 0.84828 0.43823 0.5075 0.0
C1694 C 0.80577 0.45408 0.49594 0.0
C1695 C 0.8247 0.46854 0.49503 0.0
H1696 H 0.71653 0.89152 0.77691 0.0
H1697 H 0.75473 0.93665 0.82102 0.0
H1698 H 0.72729 0.96612 0.81548 0.0
H1699 H 0.69322 0.97955 0.79682 0.0
H1700 H 0.65418 0.93387 0.75379 0.0
H1701 H 0.68087 0.9041 0.76042 0.0
C1702 C 0.71877 0.90783 0.78527 0.0
C1703 C 0.73769 0.91204 0.79917 0.0
C1704 C 0.7027 0.92455 0.7823 0.0
C1705 C 0.74029 0.93308 0.81022 0.0
C1706 C 0.72462 0.94991 0.80705 0.0
C1707 C 0.69039 0.963 0.78911 0.0
C1708 C 0.67175 0.95902 0.77474 0.0
C1709 C 0.70583 0.9459 0.793 0.0
C1710 C 0.66833 0.93743 0.76496 0.0
C1711 C 0.68368 0.9204 0.76863 0.0
H1712 H 0.65052 0.55101 0.02714 0.0
H1713 H 0.66201 0.53953 0.95642 0.0
H1714 H 0.69584 0.56376 0.95837 0.0
H1715 H 0.71972 0.59143 0.97913 0.0
H1716 H 0.70906 0.60301 0.04976 0.0
H1717 H 0.67761 0.57517 0.04909 0.0
C1718 C 0.66064 0.55351 0.01225 0.0
C1719 C 0.65347 0.54381 0.99156 0.0
C1720 C 0.68012 0.56758 0.01347 0.0
C1721 C 0.66684 0.54719 0.97244 0.0
C1722 C 0.68629 0.56091 0.97357 0.0
C1723 C 0.71057 0.58767 0.99439 0.0
C1724 C 0.71595 0.59971 0.01428 0.0
C1725 C 0.69265 0.57176 0.99379 0.0
C1726 C 0.70474 0.5942 0.03417 0.0
C1727 C 0.68678 0.57835 0.03375 0.0
H1728 H 0.23818 0.60974 0.24609 0.0
H1729 H 0.23404 0.60043 0.17418 0.0
H1730 H 0.20663 0.56935 0.17864 0.0
H1731 H 0.18337 0.54494 0.20314 0.0
H1732 H 0.18767 0.55465 0.27486 0.0
H1733 H 0.21595 0.58494 0.27041 0.0
C1734 C 0.23154 0.60072 0.23139 0.0
C1735 C 0.23821 0.60741 0.20985 0.0
C1736 C 0.21587 0.58284 0.23407 0.0
C1737 C 0.22904 0.5958 0.19097 0.0
C1738 C 0.21347 0.57792 0.1935 0.0
C1739 C 0.19059 0.55376 0.21769 0.0
C1740 C 0.18309 0.5482 0.23923 0.0
C1741 C 0.20668 0.57134 0.21496 0.0
C1742 C 0.1928 0.55924 0.25809 0.0
C1743 C 0.20903 0.57644 0.25556 0.0
H1744 H 0.89457 0.58651 0.02183 0.0
H1745 H 0.86168 0.52659 0.99364 0.0
H1746 H 0.82812 0.54789 0.98561 0.0
H1747 H 0.80701 0.58306 0.98882 0.0
H1748 H 0.83929 0.64225 0.01907 0.0
H1749 H 0.87398 0.62175 0.02409 0.0
C1750 C 0.88004 0.57803 0.01404 0.0
C1751 C 0.88077 0.55489 0.00844 0.0
C1752 C 0.86057 0.5903 0.00982 0.0
C1753 C 0.86183 0.54441 0.99793 0.0
C1754 C 0.84251 0.55656 0.99344 0.0
C1755 C 0.82176 0.59155 0.99618 0.0
C1756 C 0.82055 0.61417 1.00353 0.0
C1757 C 0.84157 0.57947 0.99953 0.0
C1758 C 0.83974 0.62484 0.01329 0.0
C1759 C 0.85959 0.61311 0.01624 0.0
H1760 H 0.13406 0.95813 0.03894 0.0
H1761 H 0.15308 0.00846 0.99058 0.0
H1762 H 0.18407 0.98548 0.978 0.0
H1763 H 0.20595 0.95101 0.98052 0.0
H1764 H 0.18864 0.90207 0.03071 0.0
H1765 H 0.15724 0.92483 0.04301 0.0
C1766 C 0.14513 0.96432 0.02589 0.0
C1767 C 0.14087 0.985 0.01563 0.0
C1768 C 0.16337 0.95125 0.01903 0.0
C1769 C 0.15542 0.99241 0.99849 0.0
C1770 C 0.17335 0.97935 0.99136 0.0
C1771 C 0.1953 0.94533 0.99414 0.0
C1772 C 0.19964 0.92481 0.00459 0.0
C1773 C 0.17742 0.95868 1.0014 0.0
C1774 C 0.18579 0.91783 0.0224 0.0
C1775 C 0.16775 0.93081 0.02943 0.0
loop_
_geom_bond_atom_site_label_1
_geom_bond_atom_site_label_2
_geom_bond_distance
_geom_bond_site_symmetry_2
_ccdc_geom_bond_type
C0 C1 1.384 . S
C0 H13 0.947 . S
C0 C35 1.382 . S
C1 C0 1.384 . S
C1 C2 1.378 . S
C2 C1 1.378 . S
C2 C3 1.378 1_655 S
C2 H14 0.954 1_545 S
C3 C2 1.378 1_455 S
C3 H15 0.950 . S
C3 C34 1.383 . S
H4 C23 0.947 . S
H5 C24 0.946 . S
H6 C26 0.962 1_556 S
H7 C27 0.945 . S
H8 C29 0.952 . S
H9 C30 0.949 . S
H10 C32 0.988 . S
H11 C33 0.948 . S
H12 C35 0.951 . S
H13 C0 0.947 . S
H14 C2 0.954 1_565 S
H15 C3 0.950 . S
N16 C19 1.382 . S
N16 C21 1.363 . S
N17 C19 1.371 . S
N17 C20 1.372 . S
N18 C20 1.361 . S
N18 C21 1.377 . S
C19 N16 1.382 . S
C19 N17 1.371 . S
C19 C22 1.480 . S
C20 N17 1.372 . S
C20 N18 1.361 . S
C20 C28 1.457 . S
C21 N16 1.363 . S
C21 N18 1.377 . S
C21 C34 1.479 . S
C22 C19 1.480 . S
C22 C23 1.383 1_545 S
C22 C27 1.385 . S
C23 H4 0.947 . S
C23 C22 1.383 1_565 S
C23 C24 1.388 . S
C24 H5 0.946 . S
C24 C23 1.388 . S
C24 C25 1.384 . S
C25 C24 1.384 . S
C25 C26 1.377 . S
C26 H6 0.962 1_554 S
C26 C25 1.377 . S
C26 C27 1.369 1_565 S
C27 H7 0.945 . S
C27 C22 1.385 . S
C27 C26 1.369 1_545 S
C28 C20 1.457 . S
C28 C29 1.372 1_554 S
C28 C33 1.364 . S
C29 H8 0.952 . S
C29 C28 1.372 1_556 S
C29 C30 1.389 . S
C30 H9 0.949 . S
C30 C29 1.389 . S
C30 C31 1.387 . S
C31 C30 1.387 . S
C31 C32 1.372 . S
C32 H10 0.988 . S
C32 C31 1.372 . S
C32 C33 1.379 1_556 S
C33 H11 0.948 . S
C33 C28 1.364 . S
C33 C32 1.379 1_554 S
C34 C3 1.383 . S
C34 C21 1.479 . S
C34 C35 1.398 1_455 S
C35 C0 1.382 . S
C35 H12 0.951 . S
C35 C34 1.398 1_655 S
C36 C37 1.384 . S
C36 H49 0.947 . S
C36 C71 1.382 . S
C37 C36 1.384 . S
C37 C38 1.378 . S
C38 C37 1.378 . S
C38 C39 1.378 . S
C38 H50 0.952 . S
C39 C38 1.378 . S
C39 H51 0.950 . S
C39 C70 1.383 . S
H40 C59 0.947 . S
H41 C60 0.946 . S
H42 C62 0.953 . S
H43 C63 0.945 . S
H44 C65 0.952 . S
H45 C66 0.949 . S
H46 C68 0.950 . S
H47 C69 0.948 . S
H48 C71 0.951 . S
H49 C36 0.947 . S
H50 C38 0.952 . S
H51 C39 0.950 . S
N52 C55 1.382 . S
N52 C57 1.363 . S
N53 C55 1.371 . S
N53 C56 1.372 . S
N54 C56 1.361 . S
N54 C57 1.377 . S
C55 N52 1.382 . S
C55 N53 1.371 . S
C55 C58 1.480 . S
C56 N53 1.372 . S
C56 N54 1.361 . S
C56 C64 1.457 . S
C57 N52 1.363 . S
C57 N54 1.377 . S
C57 C70 1.479 . S
C58 C55 1.480 . S
C58 C59 1.383 . S
C58 C63 1.385 . S
C59 H40 0.947 . S
C59 C58 1.383 . S
C59 C60 1.388 . S
C60 H41 0.946 . S
C60 C59 1.388 . S
C60 C61 1.384 . S
C61 C60 1.384 . S
C61 C62 1.377 . S
C62 H42 0.953 . S
C62 C61 1.377 . S
C62 C63 1.369 . S
C63 H43 0.945 . S
C63 C58 1.385 . S
C63 C62 1.369 . S
C64 C56 1.457 . S
C64 C65 1.372 . S
C64 C69 1.364 . S
C65 H44 0.952 . S
C65 C64 1.372 . S
C65 C66 1.389 . S
C66 H45 0.949 . S
C66 C65 1.389 . S
C66 C67 1.387 . S
C67 C66 1.387 . S
C67 C68 1.372 . S
C68 H46 0.950 . S
C68 C67 1.372 . S
C68 C69 1.379 . S
C69 H47 0.948 . S
C69 C64 1.364 . S
C69 C68 1.379 . S
C70 C39 1.383 . S
C70 C57 1.479 . S
C70 C71 1.398 . S
C71 C36 1.382 . S
C71 H48 0.951 . S
C71 C70 1.398 . S
C72 C73 1.384 . S
C72 H85 0.947 1_655 S
C72 C107 1.382 1_556 S
C73 C72 1.384 . S
C73 C74 1.378 . S
C74 C73 1.378 . S
C74 C75 1.378 . S
C74 H86 0.952 . S
C75 C74 1.378 . S
C75 H87 0.950 . S
C75 C106 1.383 1_556 S
H76 C95 0.927 1_556 S
H77 C96 0.946 1_556 S
H78 C98 0.953 . S
H79 C99 0.945 . S
H80 C101 0.952 . S
H81 C102 0.949 . S
H82 C104 0.950 . S
H83 C105 0.948 . S
H84 C107 0.932 1_455 S
H85 C72 0.947 1_455 S
H86 C74 0.952 . S
H87 C75 0.950 . S
N88 C91 1.382 . S
N88 C93 1.363 . S
N89 C91 1.371 . S
N89 C92 1.372 . S
N90 C92 1.361 . S
N90 C93 1.377 . S
C91 N88 1.382 . S
C91 N89 1.371 . S
C91 C94 1.480 . S
C92 N89 1.372 . S
C92 N90 1.361 . S
C92 C100 1.457 1_655 S
C93 N88 1.363 . S
C93 N90 1.377 . S
C93 C106 1.479 . S
C94 C91 1.480 . S
C94 C95 1.383 . S
C94 C99 1.385 . S
C95 H76 0.927 1_554 S
C95 C94 1.383 . S
C95 C96 1.388 . S
C96 H77 0.946 1_554 S
C96 C95 1.388 . S
C96 C97 1.384 . S
C97 C96 1.384 . S
C97 C98 1.377 . S
C98 H78 0.953 . S
C98 C97 1.377 . S
C98 C99 1.369 . S
C99 H79 0.945 . S
C99 C94 1.385 . S
C99 C98 1.369 . S
C100 C92 1.457 1_455 S
C100 C101 1.372 1_455 S
C100 C105 1.364 . S
C101 H80 0.952 . S
C101 C100 1.372 1_655 S
C101 C102 1.389 1_655 S
C102 H81 0.949 . S
C102 C101 1.389 1_455 S
C102 C103 1.387 . S
C103 C102 1.387 . S
C103 C104 1.372 . S
C104 H82 0.950 . S
C104 C103 1.372 . S
C104 C105 1.379 . S
C105 H83 0.948 . S
C105 C100 1.364 . S
C105 C104 1.379 . S
C106 C75 1.383 1_554 S
C106 C93 1.479 . S
C106 C107 1.398 . S
C107 C72 1.382 1_554 S
C107 H84 0.932 1_655 S
C107 C106 1.398 . S
C108 C109 1.384 . S
C108 H121 0.947 . S
C108 C143 1.382 . S
C109 C108 1.384 . S
C109 C110 1.378 . S
C110 C109 1.378 . S
C110 C111 1.378 . S
C110 H122 0.952 . S
C111 C110 1.378 . S
C111 H123 0.950 . S
C111 C142 1.383 . S
H112 C131 0.947 . S
H113 C132 0.946 . S
H114 C134 0.953 . S
H115 C135 0.945 . S
H116 C137 0.952 . S
H117 C138 0.949 . S
H118 C140 0.950 . S
H119 C141 0.948 . S
H120 C143 0.951 . S
H121 C108 0.947 . S
H122 C110 0.952 . S
H123 C111 0.950 . S
N124 C127 1.382 . S
N124 C129 1.363 . S
N125 C127 1.371 . S
N125 C128 1.372 . S
N126 C128 1.361 . S
N126 C129 1.377 . S
C127 N124 1.382 . S
C127 N125 1.371 . S
C127 C130 1.480 . S
C128 N125 1.372 . S
C128 N126 1.361 . S
C128 C136 1.457 . S
C129 N124 1.363 . S
C129 N126 1.377 . S
C129 C142 1.479 . S
C130 C127 1.480 . S
C130 C131 1.383 . S
C130 C135 1.385 . S
C131 H112 0.947 . S
C131 C130 1.383 . S
C131 C132 1.388 . S
C132 H113 0.946 . S
C132 C131 1.388 . S
C132 C133 1.384 . S
C133 C132 1.384 . S
C133 C134 1.377 . S
C134 H114 0.953 . S
C134 C133 1.377 . S
C134 C135 1.369 . S
C135 H115 0.945 . S
C135 C130 1.385 . S
C135 C134 1.369 . S
C136 C128 1.457 . S
C136 C137 1.372 . S
C136 C141 1.364 . S
C137 H116 0.952 . S
C137 C136 1.372 . S
C137 C138 1.389 . S
C138 H117 0.949 . S
C138 C137 1.389 . S
C138 C139 1.387 . S
C139 C138 1.387 . S
C139 C140 1.372 . S
C140 H118 0.950 . S
C140 C139 1.372 . S
C140 C141 1.379 . S
C141 H119 0.948 . S
C141 C136 1.364 . S
C141 C140 1.379 . S
C142 C111 1.383 . S
C142 C129 1.479 . S
C142 C143 1.398 . S
C143 C108 1.382 . S
C143 H120 0.951 . S
C143 C142 1.398 . S
C144 C145 1.384 . S
C144 H157 0.947 . S
C144 C179 1.382 . S
C145 C144 1.384 . S
C145 C146 1.378 . S
C146 C145 1.378 . S
C146 C147 1.378 . S
C146 H158 0.983 . S
C147 C146 1.378 . S
C147 H159 0.950 . S
C147 C178 1.383 . S
H148 C167 0.947 . S
H149 C168 0.946 . S
H150 C170 0.962 1_545 S
H151 C171 0.945 1_545 S
H152 C173 0.952 . S
H153 C174 0.949 . S
H154 C176 0.950 . S
H155 C177 0.948 . S
H156 C179 0.951 . S
H157 C144 0.947 . S
H158 C146 0.983 . S
H159 C147 0.950 . S
N160 C163 1.382 . S
N160 C165 1.363 . S
N161 C163 1.371 . S
N161 C164 1.372 . S
N162 C164 1.361 . S
N162 C165 1.377 . S
C163 N160 1.382 . S
C163 N161 1.371 . S
C163 C166 1.480 . S
C164 N161 1.372 . S
C164 N162 1.361 . S
C164 C172 1.470 . S
C165 N160 1.363 . S
C165 N162 1.377 . S
C165 C178 1.479 . S
C166 C163 1.480 . S
C166 C167 1.383 1_455 S
C166 C171 1.385 . S
C167 H148 0.947 . S
C167 C166 1.383 1_655 S
C167 C168 1.388 . S
C168 H149 0.946 . S
C168 C167 1.388 . S
C168 C169 1.384 . S
C169 C168 1.384 . S
C169 C170 1.333 1_655 S
C170 H150 0.962 1_565 S
C170 C169 1.333 1_455 S
C170 C171 1.406 . S
C171 H151 0.945 1_565 S
C171 C166 1.385 . S
C171 C170 1.406 . S
C172 C164 1.470 . S
C172 C173 1.353 1_565 S
C172 C177 1.370 . S
C173 H152 0.952 . S
C173 C172 1.353 1_545 S
C173 C174 1.389 . S
C174 H153 0.949 . S
C174 C173 1.389 . S
C174 C175 1.387 . S
C175 C174 1.387 . S
C175 C176 1.372 . S
C176 H154 0.950 . S
C176 C175 1.372 . S
C176 C177 1.379 1_545 S
C177 H155 0.948 . S
C177 C172 1.370 . S
C177 C176 1.379 1_565 S
C178 C147 1.383 . S
C178 C165 1.479 . S
C178 C179 1.398 . S
C179 C144 1.382 . S
C179 H156 0.951 . S
C179 C178 1.398 . S
C180 C181 1.384 . S
C180 H193 0.947 . S
C180 C215 1.382 . S
C181 C180 1.384 . S
C181 C182 1.378 . S
C182 C181 1.378 . S
C182 C183 1.378 . S
C182 H194 0.952 . S
C183 C182 1.378 . S
C183 H195 0.950 . S
C183 C214 1.383 . S
H184 C203 0.947 . S
H185 C204 0.946 . S
H186 C206 0.953 . S
H187 C207 0.945 . S
H188 C209 0.952 . S
H189 C210 0.949 . S
H190 C212 0.950 . S
H191 C213 0.948 . S
H192 C215 0.951 . S
H193 C180 0.947 . S
H194 C182 0.952 . S
H195 C183 0.950 . S
N196 C199 1.382 . S
N196 C201 1.363 . S
N197 C199 1.371 . S
N197 C200 1.372 . S
N198 C200 1.361 . S
N198 C201 1.377 . S
C199 N196 1.382 . S
C199 N197 1.371 . S
C199 C202 1.480 . S
C200 N197 1.372 . S
C200 N198 1.361 . S
C200 C208 1.457 . S
C201 N196 1.363 . S
C201 N198 1.377 . S
C201 C214 1.479 . S
C202 C199 1.480 . S
C202 C203 1.383 . S
C202 C207 1.385 . S
C203 H184 0.947 . S
C203 C202 1.383 . S
C203 C204 1.388 . S
C204 H185 0.946 . S
C204 C203 1.388 . S
C204 C205 1.384 . S
C205 C204 1.384 . S
C205 C206 1.377 . S
C206 H186 0.953 . S
C206 C205 1.377 . S
C206 C207 1.369 . S
C207 H187 0.945 . S
C207 C202 1.385 . S
C207 C206 1.369 . S
C208 C200 1.457 . S
C208 C209 1.372 . S
C208 C213 1.364 . S
C209 H188 0.952 . S
C209 C208 1.372 . S
C209 C210 1.389 . S
C210 H189 0.949 . S
C210 C209 1.389 . S
C210 C211 1.387 . S
C211 C210 1.387 . S
C211 C212 1.372 . S
C212 H190 0.950 . S
C212 C211 1.372 . S
C212 C213 1.379 . S
C213 H191 0.948 . S
C213 C208 1.364 . S
C213 C212 1.379 . S
C214 C183 1.383 . S
C214 C201 1.479 . S
C214 C215 1.398 . S
C215 C180 1.382 . S
C215 H192 0.951 . S
C215 C214 1.398 . S
C216 C217 1.384 1_455 S
C216 H229 0.947 . S
C216 C251 1.382 1_455 S
C217 C216 1.384 1_655 S
C217 C218 1.378 . S
C218 C217 1.378 . S
C218 C219 1.378 . S
C218 H230 0.952 . S
C219 C218 1.378 . S
C219 H231 0.950 . S
C219 C250 1.383 . S
H220 C239 0.947 . S
H221 C240 0.946 . S
H222 C242 0.953 . S
H223 C243 0.945 . S
H224 C245 0.991 . S
H225 C246 0.949 . S
H226 C248 0.950 . S
H227 C249 0.948 . S
H228 C251 0.951 1_455 S
H229 C216 0.947 . S
H230 C218 0.952 . S
H231 C219 0.950 . S
N232 C235 1.382 . S
N232 C237 1.363 . S
N233 C235 1.371 . S
N233 C236 1.372 . S
N234 C236 1.361 . S
N234 C237 1.377 . S
C235 N232 1.382 . S
C235 N233 1.371 . S
C235 C238 1.480 . S
C236 N233 1.372 . S
C236 N234 1.361 . S
C236 C244 1.457 1_655 S
C237 N232 1.363 . S
C237 N234 1.377 . S
C237 C250 1.479 . S
C238 C235 1.480 . S
C238 C239 1.383 . S
C238 C243 1.385 . S
C239 H220 0.947 . S
C239 C238 1.383 . S
C239 C240 1.388 . S
C240 H221 0.946 . S
C240 C239 1.388 . S
C240 C241 1.384 . S
C241 C240 1.384 . S
C241 C242 1.377 . S
C242 H222 0.953 . S
C242 C241 1.377 . S
C242 C243 1.369 . S
C243 H223 0.945 . S
C243 C238 1.385 . S
C243 C242 1.369 . S
C244 C236 1.457 1_455 S
C244 C245 1.359 1_455 S
C244 C249 1.364 . S
C245 H224 0.991 . S
C245 C244 1.359 1_655 S
C245 C246 1.362 1_655 S
C246 H225 0.949 . S
C246 C245 1.362 1_455 S
C246 C247 1.387 . S
C247 C246 1.387 . S
C247 C248 1.372 . S
C248 H226 0.950 . S
C248 C247 1.372 . S
C248 C249 1.379 . S
C249 H227 0.948 . S
C249 C244 1.364 . S
C249 C248 1.379 . S
C250 C219 1.383 . S
C250 C237 1.479 . S
C250 C251 1.398 . S
C251 C216 1.382 1_655 S
C251 H228 0.951 1_655 S
C251 C250 1.398 . S
C252 C253 1.384 . S
C252 H265 0.947 . S
C252 C287 1.382 . S
C253 C252 1.384 . S
C253 C254 1.378 . S
C254 C253 1.378 . S
C254 C255 1.378 . S
C254 H266 0.952 . S
C255 C254 1.378 . S
C255 H267 0.950 . S
C255 C286 1.383 . S
H256 C275 0.947 . S
H257 C276 0.946 . S
H258 C278 0.953 . S
H259 C279 0.945 . S
H260 C281 0.952 . S
H261 C282 0.949 . S
H262 C284 0.950 . S
H263 C285 0.948 . S
H264 C287 0.951 . S
H265 C252 0.947 . S
H266 C254 0.952 . S
H267 C255 0.950 . S
N268 C271 1.382 . S
N268 C273 1.363 . S
N269 C271 1.371 . S
N269 C272 1.372 . S
N270 C272 1.361 . S
N270 C273 1.377 . S
C271 N268 1.382 . S
C271 N269 1.371 . S
C271 C274 1.480 . S
C272 N269 1.372 . S
C272 N270 1.361 . S
C272 C280 1.457 . S
C273 N268 1.363 . S
C273 N270 1.377 . S
C273 C286 1.479 . S
C274 C271 1.480 . S
C274 C275 1.383 . S
C274 C279 1.385 . S
C275 H256 0.947 . S
C275 C274 1.383 . S
C275 C276 1.388 . S
C276 H257 0.946 . S
C276 C275 1.388 . S
C276 C277 1.384 . S
C277 C276 1.384 . S
C277 C278 1.377 . S
C278 H258 0.953 . S
C278 C277 1.377 . S
C278 C279 1.369 . S
C279 H259 0.945 . S
C279 C274 1.385 . S
C279 C278 1.369 . S
C280 C272 1.457 . S
C280 C281 1.372 . S
C280 C285 1.364 . S
C281 H260 0.952 . S
C281 C280 1.372 . S
C281 C282 1.389 . S
C282 H261 0.949 . S
C282 C281 1.389 . S
C282 C283 1.387 . S
C283 C282 1.387 . S
C283 C284 1.372 . S
C284 H262 0.950 . S
C284 C283 1.372 . S
C284 C285 1.379 . S
C285 H263 0.948 . S
C285 C280 1.364 . S
C285 C284 1.379 . S
C286 C255 1.383 . S
C286 C273 1.479 . S
C286 C287 1.398 . S
C287 C252 1.382 . S
C287 H264 0.951 . S
C287 C286 1.398 . S
C288 C289 1.384 . S
C288 H301 0.947 . S
C288 C323 1.382 . S
C289 C288 1.384 . S
C289 C290 1.378 . S
C290 C289 1.378 . S
C290 C291 1.378 . S
C290 H302 0.952 . S
C291 C290 1.378 . S
C291 H303 0.950 . S
C291 C322 1.383 . S
H292 C311 0.947 . S
H293 C312 0.946 . S
H294 C314 0.953 . S
H295 C315 0.945 . S
H296 C317 0.952 . S
H297 C318 0.949 . S
H298 C320 0.950 . S
H299 C321 0.948 . S
H300 C323 0.951 . S
H301 C288 0.947 . S
H302 C290 0.952 . S
H303 C291 0.950 . S
N304 C307 1.382 . S
N304 C309 1.363 . S
N305 C307 1.371 . S
N305 C308 1.372 . S
N306 C308 1.361 . S
N306 C309 1.377 . S
C307 N304 1.382 . S
C307 N305 1.371 . S
C307 C310 1.480 . S
C308 N305 1.372 . S
C308 N306 1.361 . S
C308 C316 1.457 . S
C309 N304 1.363 . S
C309 N306 1.377 . S
C309 C322 1.479 . S
C310 C307 1.480 . S
C310 C311 1.383 . S
C310 C315 1.385 . S
C311 H292 0.947 . S
C311 C310 1.383 . S
C311 C312 1.388 . S
C312 H293 0.946 . S
C312 C311 1.388 . S
C312 C313 1.384 . S
C313 C312 1.384 . S
C313 C314 1.377 . S
C314 H294 0.953 . S
C314 C313 1.377 . S
C314 C315 1.369 . S
C315 H295 0.945 . S
C315 C310 1.385 . S
C315 C314 1.369 . S
C316 C308 1.457 . S
C316 C317 1.372 . S
C316 C321 1.364 . S
C317 H296 0.952 . S
C317 C316 1.372 . S
C317 C318 1.389 . S
C318 H297 0.949 . S
C318 C317 1.389 . S
C318 C319 1.387 . S
C319 C318 1.387 . S
C319 C320 1.372 . S
C320 H298 0.950 . S
C320 C319 1.372 . S
C320 C321 1.379 . S
C321 H299 0.948 . S
C321 C316 1.364 . S
C321 C320 1.379 . S
C322 C291 1.383 . S
C322 C309 1.479 . S
C322 C323 1.398 . S
C323 C288 1.382 . S
C323 H300 0.951 . S
C323 C322 1.398 . S
C324 C325 1.384 . S
C324 H337 0.947 . S
C324 C359 1.382 . S
C325 C324 1.384 . S
C325 C326 1.378 . S
C326 C325 1.378 . S
C326 C327 1.378 . S
C326 H338 0.952 . S
C327 C326 1.378 . S
C327 H339 0.950 . S
C327 C358 1.383 . S
H328 C347 0.947 . S
H329 C348 0.946 . S
H330 C350 0.953 . S
H331 C351 0.945 . S
H332 C353 0.928 1_545 S
H333 C354 0.949 1_545 S
H334 C356 0.950 . S
H335 C357 0.948 . S
H336 C359 0.951 . S
H337 C324 0.947 . S
H338 C326 0.952 . S
H339 C327 0.950 . S
N340 C343 1.382 . S
N340 C345 1.363 . S
N341 C343 1.371 . S
N341 C344 1.372 . S
N342 C344 1.361 . S
N342 C345 1.377 . S
C343 N340 1.382 . S
C343 N341 1.371 . S
C343 C346 1.453 1_565 S
C344 N341 1.372 . S
C344 N342 1.361 . S
C344 C352 1.457 . S
C345 N340 1.363 . S
C345 N342 1.377 . S
C345 C358 1.479 . S
C346 C343 1.453 1_545 S
C346 C347 1.376 1_545 S
C346 C351 1.420 . S
C347 H328 0.947 . S
C347 C346 1.376 1_565 S
C347 C348 1.388 1_565 S
C348 H329 0.946 . S
C348 C347 1.388 1_545 S
C348 C349 1.384 . S
C349 C348 1.384 . S
C349 C350 1.377 . S
C350 H330 0.953 . S
C350 C349 1.377 . S
C350 C351 1.369 . S
C351 H331 0.945 . S
C351 C346 1.420 . S
C351 C350 1.369 . S
C352 C344 1.457 . S
C352 C353 1.372 . S
C352 C357 1.364 . S
C353 H332 0.928 1_565 S
C353 C352 1.372 . S
C353 C354 1.389 . S
C354 H333 0.949 1_565 S
C354 C353 1.389 . S
C354 C355 1.387 . S
C355 C354 1.387 . S
C355 C356 1.372 . S
C356 H334 0.950 . S
C356 C355 1.372 . S
C356 C357 1.379 . S
C357 H335 0.948 . S
C357 C352 1.364 . S
C357 C356 1.379 . S
C358 C327 1.383 . S
C358 C345 1.479 . S
C358 C359 1.398 . S
C359 C324 1.382 . S
C359 H336 0.951 . S
C359 C358 1.398 . S
C360 C361 1.384 . S
C360 H373 0.947 . S
C360 C395 1.382 . S
C361 C360 1.384 . S
C361 C362 1.378 . S
C362 C361 1.378 . S
C362 C363 1.378 . S
C362 H374 0.952 . S
C363 C362 1.378 . S
C363 H375 0.950 . S
C363 C394 1.383 . S
H364 C383 0.947 . S
H365 C384 0.946 . S
H366 C386 0.953 . S
H367 C387 0.945 . S
H368 C389 0.952 . S
H369 C390 0.949 . S
H370 C392 0.950 . S
H371 C393 0.948 . S
H372 C395 0.951 . S
H373 C360 0.947 . S
H374 C362 0.952 . S
H375 C363 0.950 . S
N376 C379 1.382 . S
N376 C381 1.363 . S
N377 C379 1.371 . S
N377 C380 1.372 . S
N378 C380 1.361 . S
N378 C381 1.377 . S
C379 N376 1.382 . S
C379 N377 1.371 . S
C379 C382 1.480 . S
C380 N377 1.372 . S
C380 N378 1.361 . S
C380 C388 1.457 . S
C381 N376 1.363 . S
C381 N378 1.377 . S
C381 C394 1.479 . S
C382 C379 1.480 . S
C382 C383 1.383 . S
C382 C387 1.385 . S
C383 H364 0.947 . S
C383 C382 1.383 . S
C383 C384 1.388 . S
C384 H365 0.946 . S
C384 C383 1.388 . S
C384 C385 1.384 . S
C385 C384 1.384 . S
C385 C386 1.377 . S
C386 H366 0.953 . S
C386 C385 1.377 . S
C386 C387 1.369 . S
C387 H367 0.945 . S
C387 C382 1.385 . S
C387 C386 1.369 . S
C388 C380 1.457 . S
C388 C389 1.372 . S
C388 C393 1.364 . S
C389 H368 0.952 . S
C389 C388 1.372 . S
C389 C390 1.389 . S
C390 H369 0.949 . S
C390 C389 1.389 . S
C390 C391 1.387 . S
C391 C390 1.387 . S
C391 C392 1.372 . S
C392 H370 0.950 . S
C392 C391 1.372 . S
C392 C393 1.379 . S
C393 H371 0.948 . S
C393 C388 1.364 . S
C393 C392 1.379 . S
C394 C363 1.383 . S
C394 C381 1.479 . S
C394 C395 1.398 . S
C395 C360 1.382 . S
C395 H372 0.951 . S
C395 C394 1.398 . S
C396 C397 1.384 . S
C396 H409 0.947 . S
C396 C431 1.382 . S
C397 C396 1.384 . S
C397 C398 1.378 . S
C398 C397 1.378 . S
C398 C399 1.378 . S
C398 H410 0.952 . S
C399 C398 1.378 . S
C399 H411 0.950 . S
C399 C430 1.383 . S
H400 C419 0.947 . S
H401 C420 0.946 . S
H402 C422 0.953 . S
H403 C423 0.945 . S
H404 C425 0.952 . S
H405 C426 0.949 . S
H406 C428 0.950 . S
H407 C429 0.948 . S
H408 C431 0.951 . S
H409 C396 0.947 . S
H410 C398 0.952 . S
H411 C399 0.950 . S
N412 C415 1.382 . S
N412 C417 1.363 . S
N413 C415 1.371 . S
N413 C416 1.372 . S
N414 C416 1.361 . S
N414 C417 1.377 . S
C415 N412 1.382 . S
C415 N413 1.371 . S
C415 C418 1.480 . S
C416 N413 1.372 . S
C416 N414 1.361 . S
C416 C424 1.457 . S
C417 N412 1.363 . S
C417 N414 1.377 . S
C417 C430 1.479 . S
C418 C415 1.480 . S
C418 C419 1.383 . S
C418 C423 1.385 . S
C419 H400 0.947 . S
C419 C418 1.383 . S
C419 C420 1.388 . S
C420 H401 0.946 . S
C420 C419 1.388 . S
C420 C421 1.384 . S
C421 C420 1.384 . S
C421 C422 1.377 . S
C422 H402 0.953 . S
C422 C421 1.377 . S
C422 C423 1.369 . S
C423 H403 0.945 . S
C423 C418 1.385 . S
C423 C422 1.369 . S
C424 C416 1.457 . S
C424 C425 1.372 . S
C424 C429 1.364 . S
C425 H404 0.952 . S
C425 C424 1.372 . S
C425 C426 1.389 . S
C426 H405 0.949 . S
C426 C425 1.389 . S
C426 C427 1.387 . S
C427 C426 1.387 . S
C427 C428 1.372 . S
C428 H406 0.950 . S
C428 C427 1.372 . S
C428 C429 1.379 . S
C429 H407 0.948 . S
C429 C424 1.364 . S
C429 C428 1.379 . S
C430 C399 1.383 . S
C430 C417 1.479 . S
C430 C431 1.398 . S
C431 C396 1.382 . S
C431 H408 0.951 . S
C431 C430 1.398 . S
C432 C433 1.384 . S
C432 H445 0.947 . S
C432 C467 1.382 . S
C433 C432 1.384 . S
C433 C434 1.378 . S
C434 C433 1.378 . S
C434 C435 1.378 . S
C434 H446 0.952 . S
C435 C434 1.378 . S
C435 H447 0.950 . S
C435 C466 1.383 . S
H436 C455 0.947 . S
H437 C456 0.946 . S
H438 C458 0.953 . S
H439 C459 0.945 . S
H440 C461 0.952 . S
H441 C462 0.949 . S
H442 C464 0.950 . S
H443 C465 0.948 . S
H444 C467 0.951 . S
H445 C432 0.947 . S
H446 C434 0.952 . S
H447 C435 0.950 . S
N448 C451 1.382 . S
N448 C453 1.363 . S
N449 C451 1.371 . S
N449 C452 1.372 . S
N450 C452 1.361 . S
N450 C453 1.377 . S
C451 N448 1.382 . S
C451 N449 1.371 . S
C451 C454 1.480 . S
C452 N449 1.372 . S
C452 N450 1.361 . S
C452 C460 1.457 . S
C453 N448 1.363 . S
C453 N450 1.377 . S
C453 C466 1.479 . S
C454 C451 1.480 . S
C454 C455 1.383 . S
C454 C459 1.385 . S
C455 H436 0.947 . S
C455 C454 1.383 . S
C455 C456 1.388 . S
C456 H437 0.946 . S
C456 C455 1.388 . S
C456 C457 1.384 . S
C457 C456 1.384 . S
C457 C458 1.377 . S
C458 H438 0.953 . S
C458 C457 1.377 . S
C458 C459 1.369 . S
C459 H439 0.945 . S
C459 C454 1.385 . S
C459 C458 1.369 . S
C460 C452 1.457 . S
C460 C461 1.372 . S
C460 C465 1.364 . S
C461 H440 0.952 . S
C461 C460 1.372 . S
C461 C462 1.389 . S
C462 H441 0.949 . S
C462 C461 1.389 . S
C462 C463 1.387 . S
C463 C462 1.387 . S
C463 C464 1.372 . S
C464 H442 0.950 . S
C464 C463 1.372 . S
C464 C465 1.379 . S
C465 H443 0.948 . S
C465 C460 1.364 . S
C465 C464 1.379 . S
C466 C435 1.383 . S
C466 C453 1.479 . S
C466 C467 1.398 . S
C467 C432 1.382 . S
C467 H444 0.951 . S
C467 C466 1.398 . S
C468 C469 1.384 . S
C468 H481 0.947 . S
C468 C503 1.382 . S
C469 C468 1.384 . S
C469 C470 1.378 . S
C470 C469 1.378 . S
C470 C471 1.378 1_554 S
C470 H482 0.952 . S
C471 C470 1.378 1_556 S
C471 H483 0.950 . S
C471 C502 1.383 . S
H472 C491 0.947 . S
H473 C492 0.946 . S
H474 C494 0.953 . S
H475 C495 0.945 . S
H476 C497 0.952 . S
H477 C498 0.949 . S
H478 C500 0.950 1_554 S
H479 C501 0.948 . S
H480 C503 0.951 . S
H481 C468 0.947 . S
H482 C470 0.952 . S
H483 C471 0.950 . S
N484 C487 1.382 . S
N484 C489 1.363 . S
N485 C487 1.371 . S
N485 C488 1.372 . S
N486 C488 1.361 . S
N486 C489 1.377 . S
C487 N484 1.382 . S
C487 N485 1.371 . S
C487 C490 1.480 . S
C488 N485 1.372 . S
C488 N486 1.361 . S
C488 C496 1.457 . S
C489 N484 1.363 . S
C489 N486 1.377 . S
C489 C502 1.479 . S
C490 C487 1.480 . S
C490 C491 1.383 . S
C490 C495 1.385 . S
C491 H472 0.947 . S
C491 C490 1.383 . S
C491 C492 1.388 . S
C492 H473 0.946 . S
C492 C491 1.388 . S
C492 C493 1.384 . S
C493 C492 1.384 . S
C493 C494 1.377 . S
C494 H474 0.953 . S
C494 C493 1.377 . S
C494 C495 1.369 . S
C495 H475 0.945 . S
C495 C490 1.385 . S
C495 C494 1.369 . S
C496 C488 1.457 . S
C496 C497 1.372 . S
C496 C501 1.364 . S
C497 H476 0.952 . S
C497 C496 1.372 . S
C497 C498 1.389 . S
C498 H477 0.949 . S
C498 C497 1.389 . S
C498 C499 1.387 . S
C499 C498 1.387 . S
C499 C500 1.372 . S
C500 H478 0.950 1_556 S
C500 C499 1.372 . S
C500 C501 1.379 . S
C501 H479 0.948 . S
C501 C496 1.364 . S
C501 C500 1.379 . S
C502 C471 1.383 . S
C502 C489 1.479 . S
C502 C503 1.398 1_556 S
C503 C468 1.382 . S
C503 H480 0.951 . S
C503 C502 1.398 1_554 S
C504 C505 1.384 . S
C504 H517 0.947 . S
C504 C539 1.382 . S
C505 C504 1.384 . S
C505 C506 1.378 . S
C506 C505 1.378 . S
C506 C507 1.378 . S
C506 H518 0.952 . S
C507 C506 1.378 . S
C507 H519 0.950 . S
C507 C538 1.383 . S
H508 C527 0.947 . S
H509 C528 0.946 . S
H510 C530 0.953 . S
H511 C531 0.945 . S
H512 C533 0.952 . S
H513 C534 0.949 . S
H514 C536 0.950 . S
H515 C537 0.948 . S
H516 C539 0.951 . S
H517 C504 0.947 . S
H518 C506 0.952 . S
H519 C507 0.950 . S
N520 C523 1.382 . S
N520 C525 1.363 . S
N521 C523 1.371 . S
N521 C524 1.372 . S
N522 C524 1.361 . S
N522 C525 1.377 . S
C523 N520 1.382 . S
C523 N521 1.371 . S
C523 C526 1.480 . S
C524 N521 1.372 . S
C524 N522 1.361 . S
C524 C532 1.457 . S
C525 N520 1.363 . S
C525 N522 1.377 . S
C525 C538 1.479 . S
C526 C523 1.480 . S
C526 C527 1.383 . S
C526 C531 1.385 . S
C527 H508 0.947 . S
C527 C526 1.383 . S
C527 C528 1.388 . S
C528 H509 0.946 . S
C528 C527 1.388 . S
C528 C529 1.384 . S
C529 C528 1.384 . S
C529 C530 1.377 . S
C530 H510 0.953 . S
C530 C529 1.377 . S
C530 C531 1.369 . S
C531 H511 0.945 . S
C531 C526 1.385 . S
C531 C530 1.369 . S
C532 C524 1.457 . S
C532 C533 1.372 . S
C532 C537 1.364 . S
C533 H512 0.952 . S
C533 C532 1.372 . S
C533 C534 1.389 . S
C534 H513 0.949 . S
C534 C533 1.389 . S
C534 C535 1.387 . S
C535 C534 1.387 . S
C535 C536 1.372 . S
C536 H514 0.950 . S
C536 C535 1.372 . S
C536 C537 1.379 . S
C537 H515 0.948 . S
C537 C532 1.364 . S
C537 C536 1.379 . S
C538 C507 1.383 . S
C538 C525 1.479 . S
C538 C539 1.398 . S
C539 C504 1.382 . S
C539 H516 0.951 . S
C539 C538 1.398 . S
C540 C541 1.384 . S
C540 H553 0.947 . S
C540 C575 1.382 1_554 S
C541 C540 1.384 . S
C541 C542 1.378 . S
C542 C541 1.378 . S
C542 C543 1.378 . S
C542 H554 0.952 . S
C543 C542 1.378 . S
C543 H555 0.950 . S
C543 C574 1.383 . S
H544 C563 0.947 1_554 S
H545 C564 0.927 1_544 S
H546 C566 0.953 . S
H547 C567 0.945 . S
H548 C569 0.952 . S
H549 C570 0.949 1_565 S
H550 C572 0.950 . S
H551 C573 0.948 . S
H552 C575 0.951 . S
H553 C540 0.947 . S
H554 C542 0.952 . S
H555 C543 0.950 . S
N556 C559 1.382 . S
N556 C561 1.363 . S
N557 C559 1.371 . S
N557 C560 1.372 . S
N558 C560 1.361 . S
N558 C561 1.377 . S
C559 N556 1.382 . S
C559 N557 1.371 . S
C559 C562 1.480 . S
C560 N557 1.372 . S
C560 N558 1.361 . S
C560 C568 1.457 . S
C561 N556 1.363 . S
C561 N558 1.377 . S
C561 C574 1.479 1_556 S
C562 C559 1.480 . S
C562 C563 1.383 . S
C562 C567 1.385 1_545 S
C563 H544 0.947 1_556 S
C563 C562 1.383 . S
C563 C564 1.390 1_545 S
C564 H545 0.927 1_566 S
C564 C563 1.390 1_565 S
C564 C565 1.395 . S
C565 C564 1.395 . S
C565 C566 1.377 . S
C566 H546 0.953 . S
C566 C565 1.377 . S
C566 C567 1.369 . S
C567 H547 0.945 . S
C567 C562 1.385 1_565 S
C567 C566 1.369 . S
C568 C560 1.457 . S
C568 C569 1.372 . S
C568 C573 1.364 . S
C569 H548 0.952 . S
C569 C568 1.372 . S
C569 C570 1.389 . S
C570 H549 0.949 1_545 S
C570 C569 1.389 . S
C570 C571 1.387 . S
C571 C570 1.387 . S
C571 C572 1.372 . S
C572 H550 0.950 . S
C572 C571 1.372 . S
C572 C573 1.379 . S
C573 H551 0.948 . S
C573 C568 1.364 . S
C573 C572 1.379 . S
C574 C543 1.383 . S
C574 C561 1.479 1_554 S
C574 C575 1.398 1_554 S
C575 C540 1.382 1_556 S
C575 H552 0.951 . S
C575 C574 1.398 1_556 S
Mn576 O581 2.095 . S
Mn576 O591 2.162 . S
Mn576 O592 2.297 . S
Mn576 O600 2.374 1_554 S
Mn576 O601 2.209 1_554 S
Mn576 O602 2.094 . S
Mn577 O582 2.121 . S
Mn577 N584 2.257 . S
Mn577 N593 2.282 . S
Mn577 O601 2.215 . S
Mn577 O603 2.117 . S
C578 O600 1.255 . S
C578 O601 1.283 . S
C579 O591 1.281 . S
C579 O592 1.236 . S
C580 O602 1.240 . S
C580 O603 1.264 1_554 S
O581 Mn576 2.095 . S
O581 C590 1.250 . S
O582 Mn577 2.121 . S
O582 C590 1.258 1_556 S
C583 N584 1.326 . S
C583 C587 1.460 . S
C583 H589 0.929 . S
N584 Mn577 2.257 . S
N584 C583 1.326 . S
N584 C588 1.362 . S
C585 C586 1.258 . S
C585 C588 1.431 . S
C585 C605 1.449 . S
C586 C585 1.258 . S
C586 C587 1.477 . S
C586 H606 0.931 . S
C587 C583 1.460 . S
C587 C586 1.477 . S
C587 H607 0.930 . S
C588 N584 1.362 . S
C588 C585 1.431 . S
C588 C598 1.476 . S
H589 C583 0.929 . S
C590 O581 1.250 . S
C590 O582 1.258 1_554 S
O591 Mn576 2.162 . S
O591 C579 1.281 . S
O592 Mn576 2.297 . S
O592 C579 1.236 . S
N593 Mn577 2.282 . S
N593 C594 1.328 . S
N593 C598 1.318 . S
C594 N593 1.328 . S
C594 C595 1.457 . S
C594 H599 0.929 . S
C595 C594 1.457 . S
C595 C596 1.291 . S
C595 H608 0.931 . S
C596 C595 1.291 . S
C596 C597 1.373 . S
C596 H609 0.929 . S
C597 C596 1.373 . S
C597 C598 1.396 . S
C597 C604 1.403 . S
C598 C588 1.476 . S
C598 N593 1.318 . S
C598 C597 1.396 . S
H599 C594 0.929 . S
O600 Mn576 2.374 1_556 S
O600 C578 1.255 . S
O601 Mn576 2.209 1_556 S
O601 Mn577 2.215 . S
O601 C578 1.283 . S
O602 Mn576 2.094 . S
O602 C580 1.240 . S
O603 Mn577 2.117 . S
O603 C580 1.264 1_556 S
C604 C597 1.403 . S
C604 C605 1.399 . S
C604 H610 0.929 . S
C605 C585 1.449 . S
C605 C604 1.399 . S
C605 H611 0.930 . S
H606 C586 0.931 . S
H607 C587 0.930 . S
H608 C595 0.931 . S
H609 C596 0.929 . S
H610 C604 0.929 . S
H611 C605 0.930 . S
Mn612 O617 2.095 . S
Mn612 O627 2.162 . S
Mn612 O628 2.297 . S
Mn612 O636 2.385 . S
Mn612 O637 2.209 . S
Mn612 O638 2.094 . S
Mn613 O618 2.121 . S
Mn613 N620 2.257 . S
Mn613 N629 2.282 . S
Mn613 O637 2.215 . S
Mn613 O639 2.117 . S
C614 O636 1.234 . S
C614 O637 1.283 . S
C615 O627 1.281 . S
C615 O628 1.236 . S
C616 O638 1.240 . S
C616 O639 1.264 . S
O617 Mn612 2.095 . S
O617 C626 1.250 . S
O618 Mn613 2.121 . S
O618 C626 1.258 . S
C619 N620 1.326 . S
C619 C623 1.460 . S
C619 H625 0.929 . S
N620 Mn613 2.257 . S
N620 C619 1.326 . S
N620 C624 1.362 . S
C621 C622 1.258 . S
C621 C624 1.431 . S
C621 C641 1.449 . S
C622 C621 1.258 . S
C622 C623 1.477 . S
C622 H642 0.931 . S
C623 C619 1.460 . S
C623 C622 1.477 . S
C623 H643 0.930 . S
C624 N620 1.362 . S
C624 C621 1.431 . S
C624 C634 1.476 . S
H625 C619 0.929 . S
C626 O617 1.250 . S
C626 O618 1.258 . S
O627 Mn612 2.162 . S
O627 C615 1.281 . S
O628 Mn612 2.297 . S
O628 C615 1.236 . S
N629 Mn613 2.282 . S
N629 C630 1.328 . S
N629 C634 1.318 . S
C630 N629 1.328 . S
C630 C631 1.457 . S
C630 H635 0.929 . S
C631 C630 1.457 . S
C631 C632 1.291 . S
C631 H644 0.931 . S
C632 C631 1.291 . S
C632 C633 1.373 . S
C632 H645 0.929 . S
C633 C632 1.373 . S
C633 C634 1.396 . S
C633 C640 1.403 . S
C634 C624 1.476 . S
C634 N629 1.318 . S
C634 C633 1.396 . S
H635 C630 0.929 . S
O636 Mn612 2.385 . S
O636 C614 1.234 . S
O637 Mn612 2.209 . S
O637 Mn613 2.215 . S
O637 C614 1.283 . S
O638 Mn612 2.094 . S
O638 C616 1.240 . S
O639 Mn613 2.117 . S
O639 C616 1.264 . S
C640 C633 1.403 . S
C640 C641 1.399 . S
C640 H646 0.929 . S
C641 C621 1.449 . S
C641 C640 1.399 . S
C641 H647 0.930 . S
H642 C622 0.931 . S
H643 C623 0.930 . S
H644 C631 0.931 . S
H645 C632 0.929 . S
H646 C640 0.929 . S
H647 C641 0.930 . S
Mn648 O653 2.095 1_554 S
Mn648 O663 2.162 . S
Mn648 O664 2.297 1_554 S
Mn648 O672 2.385 . S
Mn648 O673 2.209 1_554 S
Mn648 O674 2.094 . S
Mn649 O654 2.121 . S
Mn649 N656 2.257 . S
Mn649 N665 2.282 . S
Mn649 O673 2.215 . S
Mn649 O675 2.117 1_556 S
C650 O672 1.237 1_556 S
C650 O673 1.281 . S
C651 O663 1.281 . S
C651 O664 1.236 1_554 S
C652 O674 1.240 . S
C652 O675 1.264 . S
O653 Mn648 2.095 1_556 S
O653 C662 1.250 . S
O654 Mn649 2.121 . S
O654 C662 1.258 . S
C655 N656 1.326 . S
C655 C659 1.460 . S
C655 H661 0.929 . S
N656 Mn649 2.257 . S
N656 C655 1.326 . S
N656 C660 1.362 . S
C657 C658 1.258 . S
C657 C660 1.431 . S
C657 C677 1.449 . S
C658 C657 1.258 . S
C658 C659 1.477 . S
C658 H678 0.931 . S
C659 C655 1.460 . S
C659 C658 1.477 . S
C659 H679 0.930 . S
C660 N656 1.362 . S
C660 C657 1.431 . S
C660 C670 1.476 . S
H661 C655 0.929 . S
C662 O653 1.250 . S
C662 O654 1.258 . S
O663 Mn648 2.162 . S
O663 C651 1.281 . S
O664 Mn648 2.297 1_556 S
O664 C651 1.236 1_556 S
N665 Mn649 2.282 . S
N665 C666 1.328 1_556 S
N665 C670 1.318 . S
C666 N665 1.328 1_554 S
C666 C667 1.457 . S
C666 H671 0.929 . S
C667 C666 1.457 . S
C667 C668 1.291 . S
C667 H680 0.931 . S
C668 C667 1.291 . S
C668 C669 1.373 1_554 S
C668 H681 0.929 . S
C669 C668 1.373 1_556 S
C669 C670 1.396 . S
C669 C676 1.403 . S
C670 C660 1.476 . S
C670 N665 1.318 . S
C670 C669 1.396 . S
H671 C666 0.929 . S
O672 Mn648 2.385 . S
O672 C650 1.237 1_554 S
O673 Mn648 2.209 1_556 S
O673 Mn649 2.215 . S
O673 C650 1.281 . S
O674 Mn648 2.094 . S
O674 C652 1.240 . S
O675 Mn649 2.117 1_554 S
O675 C652 1.264 . S
C676 C669 1.403 . S
C676 C677 1.399 . S
C676 H682 0.929 . S
C677 C657 1.449 . S
C677 C676 1.399 . S
C677 H683 0.930 . S
H678 C658 0.931 . S
H679 C659 0.930 . S
H680 C667 0.931 . S
H681 C668 0.929 . S
H682 C676 0.929 . S
H683 C677 0.930 . S
Mn684 O689 2.095 . S
Mn684 O699 2.162 . S
Mn684 O700 2.297 . S
Mn684 O708 2.385 1_545 S
Mn684 O709 2.209 1_545 S
Mn684 O710 2.094 . S
Mn685 O690 2.121 . S
Mn685 N692 2.257 . S
Mn685 N701 2.282 . S
Mn685 O709 2.215 . S
Mn685 O711 2.117 . S
C686 O708 1.234 . S
C686 O709 1.283 . S
C687 O699 1.281 . S
C687 O700 1.236 . S
C688 O710 1.240 . S
C688 O711 1.264 1_545 S
O689 Mn684 2.095 . S
O689 C698 1.236 1_545 S
O690 Mn685 2.121 . S
O690 C698 1.276 . S
C691 N692 1.326 . S
C691 C695 1.460 . S
C691 H697 0.929 . S
N692 Mn685 2.257 . S
N692 C691 1.326 . S
N692 C696 1.362 . S
C693 C694 1.258 . S
C693 C696 1.431 . S
C693 C713 1.449 . S
C694 C693 1.258 . S
C694 C695 1.477 . S
C694 H714 0.931 . S
C695 C691 1.460 . S
C695 C694 1.477 . S
C695 H715 0.930 . S
C696 N692 1.362 . S
C696 C693 1.431 . S
C696 C706 1.476 . S
H697 C691 0.929 . S
C698 O689 1.236 1_565 S
C698 O690 1.276 . S
O699 Mn684 2.162 . S
O699 C687 1.281 . S
O700 Mn684 2.297 . S
O700 C687 1.236 . S
N701 Mn685 2.282 . S
N701 C702 1.328 . S
N701 C706 1.318 . S
C702 N701 1.328 . S
C702 C703 1.457 . S
C702 H707 0.929 . S
C703 C702 1.457 . S
C703 C704 1.291 . S
C703 H716 0.931 . S
C704 C703 1.291 . S
C704 C705 1.373 . S
C704 H717 0.929 . S
C705 C704 1.373 . S
C705 C706 1.396 . S
C705 C712 1.403 . S
C706 C696 1.476 . S
C706 N701 1.318 . S
C706 C705 1.396 . S
H707 C702 0.929 . S
O708 Mn684 2.385 1_565 S
O708 C686 1.234 . S
O709 Mn684 2.209 1_565 S
O709 Mn685 2.215 . S
O709 C686 1.283 . S
O710 Mn684 2.094 . S
O710 C688 1.240 . S
O711 Mn685 2.117 . S
O711 C688 1.264 1_565 S
C712 C705 1.403 . S
C712 C713 1.399 . S
C712 H718 0.929 . S
C713 C693 1.449 . S
C713 C712 1.399 . S
C713 H719 0.930 . S
H714 C694 0.931 . S
H715 C695 0.930 . S
H716 C703 0.931 . S
H717 C704 0.929 . S
H718 C712 0.929 . S
H719 C713 0.930 . S
Mn720 O725 2.095 . S
Mn720 O735 2.162 . S
Mn720 O736 2.297 . S
Mn720 O744 2.385 . S
Mn720 O745 2.209 . S
Mn720 O746 2.094 . S
Mn721 O726 2.121 . S
Mn721 N728 2.257 . S
Mn721 N737 2.282 . S
Mn721 O745 2.215 . S
Mn721 O747 2.117 . S
C722 O744 1.234 . S
C722 O745 1.283 . S
C723 O735 1.281 . S
C723 O736 1.236 . S
C724 O746 1.240 . S
C724 O747 1.264 . S
O725 Mn720 2.095 . S
O725 C734 1.250 . S
O726 Mn721 2.121 . S
O726 C734 1.258 . S
C727 N728 1.326 . S
C727 C731 1.460 . S
C727 H733 0.929 . S
N728 Mn721 2.257 . S
N728 C727 1.326 . S
N728 C732 1.362 . S
C729 C730 1.258 . S
C729 C732 1.431 . S
C729 C749 1.449 . S
C730 C729 1.258 . S
C730 C731 1.477 . S
C730 H750 0.931 . S
C731 C727 1.460 . S
C731 C730 1.477 . S
C731 H751 0.930 . S
C732 N728 1.362 . S
C732 C729 1.431 . S
C732 C742 1.476 . S
H733 C727 0.929 . S
C734 O725 1.250 . S
C734 O726 1.258 . S
O735 Mn720 2.162 . S
O735 C723 1.281 . S
O736 Mn720 2.297 . S
O736 C723 1.236 . S
N737 Mn721 2.282 . S
N737 C738 1.328 . S
N737 C742 1.318 . S
C738 N737 1.328 . S
C738 C739 1.457 . S
C738 H743 0.929 . S
C739 C738 1.457 . S
C739 C740 1.291 . S
C739 H752 0.931 . S
C740 C739 1.291 . S
C740 C741 1.373 . S
C740 H753 0.929 . S
C741 C740 1.373 . S
C741 C742 1.396 . S
C741 C748 1.403 . S
C742 C732 1.476 . S
C742 N737 1.318 . S
C742 C741 1.396 . S
H743 C738 0.929 . S
O744 Mn720 2.385 . S
O744 C722 1.234 . S
O745 Mn720 2.209 . S
O745 Mn721 2.215 . S
O745 C722 1.283 . S
O746 Mn720 2.094 . S
O746 C724 1.240 . S
O747 Mn721 2.117 . S
O747 C724 1.264 . S
C748 C741 1.403 . S
C748 C749 1.399 . S
C748 H754 0.929 . S
C749 C729 1.449 . S
C749 C748 1.399 . S
C749 H755 0.930 . S
H750 C730 0.931 . S
H751 C731 0.930 . S
H752 C739 0.931 . S
H753 C740 0.929 . S
H754 C748 0.929 . S
H755 C749 0.930 . S
Mn756 O761 2.095 . S
Mn756 O771 2.162 . S
Mn756 O772 2.297 . S
Mn756 O780 2.385 . S
Mn756 O781 2.209 . S
Mn756 O782 2.094 . S
Mn757 O762 2.121 . S
Mn757 N764 2.257 . S
Mn757 N773 2.282 . S
Mn757 O781 2.215 . S
Mn757 O783 2.117 . S
C758 O780 1.234 . S
C758 O781 1.283 . S
C759 O771 1.281 . S
C759 O772 1.236 . S
C760 O782 1.240 . S
C760 O783 1.264 . S
O761 Mn756 2.095 . S
O761 C770 1.250 . S
O762 Mn757 2.121 . S
O762 C770 1.258 . S
C763 N764 1.326 . S
C763 C767 1.460 . S
C763 H769 0.929 . S
N764 Mn757 2.257 . S
N764 C763 1.326 . S
N764 C768 1.362 . S
C765 C766 1.258 . S
C765 C768 1.431 . S
C765 C785 1.449 . S
C766 C765 1.258 . S
C766 C767 1.477 . S
C766 H786 0.931 . S
C767 C763 1.460 . S
C767 C766 1.477 . S
C767 H787 0.930 . S
C768 N764 1.362 . S
C768 C765 1.431 . S
C768 C778 1.476 . S
H769 C763 0.929 . S
C770 O761 1.250 . S
C770 O762 1.258 . S
O771 Mn756 2.162 . S
O771 C759 1.281 . S
O772 Mn756 2.297 . S
O772 C759 1.236 . S
N773 Mn757 2.282 . S
N773 C774 1.328 . S
N773 C778 1.318 . S
C774 N773 1.328 . S
C774 C775 1.457 . S
C774 H779 0.929 . S
C775 C774 1.457 . S
C775 C776 1.291 . S
C775 H788 0.931 . S
C776 C775 1.291 . S
C776 C777 1.373 . S
C776 H789 0.929 . S
C777 C776 1.373 . S
C777 C778 1.396 . S
C777 C784 1.403 . S
C778 C768 1.476 . S
C778 N773 1.318 . S
C778 C777 1.396 . S
H779 C774 0.929 . S
O780 Mn756 2.385 . S
O780 C758 1.234 . S
O781 Mn756 2.209 . S
O781 Mn757 2.215 . S
O781 C758 1.283 . S
O782 Mn756 2.094 . S
O782 C760 1.240 . S
O783 Mn757 2.117 . S
O783 C760 1.264 . S
C784 C777 1.403 . S
C784 C785 1.399 . S
C784 H790 0.929 . S
C785 C765 1.449 . S
C785 C784 1.399 . S
C785 H791 0.930 . S
H786 C766 0.931 . S
H787 C767 0.930 . S
H788 C775 0.931 . S
H789 C776 0.929 . S
H790 C784 0.929 . S
H791 C785 0.930 . S
Mn792 O797 2.095 . S
Mn792 O807 2.162 . S
Mn792 O808 2.297 . S
Mn792 O816 2.385 . S
Mn792 O817 2.209 . S
Mn792 O818 2.094 . S
Mn793 O798 2.121 . S
Mn793 N800 2.257 . S
Mn793 N809 2.282 . S
Mn793 O817 2.215 . S
Mn793 O819 2.117 . S
C794 O816 1.234 . S
C794 O817 1.283 . S
C795 O807 1.281 . S
C795 O808 1.236 . S
C796 O818 1.240 . S
C796 O819 1.264 . S
O797 Mn792 2.095 . S
O797 C806 1.250 . S
O798 Mn793 2.121 . S
O798 C806 1.258 . S
C799 N800 1.326 . S
C799 C803 1.460 . S
C799 H805 0.929 . S
N800 Mn793 2.257 . S
N800 C799 1.326 . S
N800 C804 1.362 . S
C801 C802 1.258 . S
C801 C804 1.431 . S
C801 C821 1.449 . S
C802 C801 1.258 . S
C802 C803 1.477 . S
C802 H822 0.931 . S
C803 C799 1.460 . S
C803 C802 1.477 . S
C803 H823 0.930 . S
C804 N800 1.362 . S
C804 C801 1.431 . S
C804 C814 1.476 . S
H805 C799 0.929 . S
C806 O797 1.250 . S
C806 O798 1.258 . S
O807 Mn792 2.162 . S
O807 C795 1.281 . S
O808 Mn792 2.297 . S
O808 C795 1.236 . S
N809 Mn793 2.282 . S
N809 C810 1.328 . S
N809 C814 1.318 . S
C810 N809 1.328 . S
C810 C811 1.457 . S
C810 H815 0.929 . S
C811 C810 1.457 . S
C811 C812 1.291 . S
C811 H824 0.931 . S
C812 C811 1.291 . S
C812 C813 1.373 . S
C812 H825 0.929 . S
C813 C812 1.373 . S
C813 C814 1.396 . S
C813 C820 1.403 . S
C814 C804 1.476 . S
C814 N809 1.318 . S
C814 C813 1.396 . S
H815 C810 0.929 . S
O816 Mn792 2.385 . S
O816 C794 1.234 . S
O817 Mn792 2.209 . S
O817 Mn793 2.215 . S
O817 C794 1.283 . S
O818 Mn792 2.094 . S
O818 C796 1.240 . S
O819 Mn793 2.117 . S
O819 C796 1.264 . S
C820 C813 1.403 . S
C820 C821 1.399 . S
C820 H826 0.929 . S
C821 C801 1.449 . S
C821 C820 1.399 . S
C821 H827 0.930 . S
H822 C802 0.931 . S
H823 C803 0.930 . S
H824 C811 0.931 . S
H825 C812 0.929 . S
H826 C820 0.929 . S
H827 C821 0.930 . S
Mn828 O833 2.095 . S
Mn828 O843 2.162 . S
Mn828 O844 2.297 . S
Mn828 O852 2.385 1_565 S
Mn828 O853 2.209 1_565 S
Mn828 O854 2.094 . S
Mn829 O834 2.121 . S
Mn829 N836 2.257 . S
Mn829 N845 2.282 . S
Mn829 O853 2.215 . S
Mn829 O855 2.117 . S
C830 O852 1.234 . S
C830 O853 1.283 . S
C831 O843 1.281 . S
C831 O844 1.236 . S
C832 O854 1.219 1_545 S
C832 O855 1.291 . S
O833 Mn828 2.095 . S
O833 C842 1.250 1_565 S
O834 Mn829 2.121 . S
O834 C842 1.258 . S
C835 N836 1.326 . S
C835 C839 1.460 . S
C835 H841 0.929 . S
N836 Mn829 2.257 . S
N836 C835 1.326 . S
N836 C840 1.362 . S
C837 C838 1.258 . S
C837 C840 1.431 . S
C837 C857 1.449 . S
C838 C837 1.258 . S
C838 C839 1.477 . S
C838 H858 0.931 . S
C839 C835 1.460 . S
C839 C838 1.477 . S
C839 H859 0.930 . S
C840 N836 1.362 . S
C840 C837 1.431 . S
C840 C850 1.476 . S
H841 C835 0.929 . S
C842 O833 1.250 1_545 S
C842 O834 1.258 . S
O843 Mn828 2.162 . S
O843 C831 1.281 . S
O844 Mn828 2.297 . S
O844 C831 1.236 . S
N845 Mn829 2.282 . S
N845 C846 1.328 . S
N845 C850 1.318 . S
C846 N845 1.328 . S
C846 C847 1.457 . S
C846 H851 0.929 . S
C847 C846 1.457 . S
C847 C848 1.291 . S
C847 H860 0.931 . S
C848 C847 1.291 . S
C848 C849 1.373 . S
C848 H861 0.929 . S
C849 C848 1.373 . S
C849 C850 1.396 . S
C849 C856 1.403 . S
C850 C840 1.476 . S
C850 N845 1.318 . S
C850 C849 1.396 . S
H851 C846 0.929 . S
O852 Mn828 2.385 1_545 S
O852 C830 1.234 . S
O853 Mn828 2.209 1_545 S
O853 Mn829 2.215 . S
O853 C830 1.283 . S
O854 Mn828 2.094 . S
O854 C832 1.219 1_565 S
O855 Mn829 2.117 . S
O855 C832 1.291 . S
C856 C849 1.403 . S
C856 C857 1.399 . S
C856 H862 0.929 . S
C857 C837 1.449 . S
C857 C856 1.399 . S
C857 H863 0.930 . S
H858 C838 0.931 . S
H859 C839 0.930 . S
H860 C847 0.931 . S
H861 C848 0.929 . S
H862 C856 0.929 . S
H863 C857 0.930 . S
Mn864 O869 2.095 . S
Mn864 O879 2.162 . S
Mn864 O880 2.297 . S
Mn864 O888 2.385 1_455 S
Mn864 O889 2.209 1_455 S
Mn864 O890 2.094 . S
Mn865 O870 2.121 . S
Mn865 N872 2.257 . S
Mn865 N881 2.282 . S
Mn865 O889 2.215 . S
Mn865 O891 2.117 . S
C866 O888 1.234 . S
C866 O889 1.283 . S
C867 O879 1.281 . S
C867 O880 1.236 . S
C868 O890 1.240 . S
C868 O891 1.264 1_455 S
O869 Mn864 2.095 . S
O869 C878 1.250 1_455 S
O870 Mn865 2.121 . S
O870 C878 1.258 . S
C871 N872 1.326 . S
C871 C875 1.460 . S
C871 H877 0.929 . S
N872 Mn865 2.257 . S
N872 C871 1.326 . S
N872 C876 1.362 . S
C873 C874 1.258 . S
C873 C876 1.431 . S
C873 C893 1.449 . S
C874 C873 1.258 . S
C874 C875 1.477 . S
C874 H894 0.931 . S
C875 C871 1.460 . S
C875 C874 1.477 . S
C875 H895 0.930 . S
C876 N872 1.362 . S
C876 C873 1.431 . S
C876 C886 1.476 . S
H877 C871 0.929 . S
C878 O869 1.250 1_655 S
C878 O870 1.258 . S
O879 Mn864 2.162 . S
O879 C867 1.281 . S
O880 Mn864 2.297 . S
O880 C867 1.236 . S
N881 Mn865 2.282 . S
N881 C882 1.328 . S
N881 C886 1.318 . S
C882 N881 1.328 . S
C882 C883 1.457 . S
C882 H887 0.929 . S
C883 C882 1.457 . S
C883 C884 1.291 . S
C883 H896 0.931 . S
C884 C883 1.291 . S
C884 C885 1.373 . S
C884 H897 0.929 . S
C885 C884 1.373 . S
C885 C886 1.396 . S
C885 C892 1.403 . S
C886 C876 1.476 . S
C886 N881 1.318 . S
C886 C885 1.396 . S
H887 C882 0.929 . S
O888 Mn864 2.385 1_655 S
O888 C866 1.234 . S
O889 Mn864 2.209 1_655 S
O889 Mn865 2.215 . S
O889 C866 1.283 . S
O890 Mn864 2.094 . S
O890 C868 1.240 . S
O891 Mn865 2.117 . S
O891 C868 1.264 1_655 S
C892 C885 1.403 . S
C892 C893 1.399 . S
C892 H898 0.929 . S
C893 C873 1.449 . S
C893 C892 1.399 . S
C893 H899 0.930 . S
H894 C874 0.931 . S
H895 C875 0.930 . S
H896 C883 0.931 . S
H897 C884 0.929 . S
H898 C892 0.929 . S
H899 C893 0.930 . S
Mn900 O905 2.095 . S
Mn900 O915 2.162 . S
Mn900 O916 2.297 . S
Mn900 O924 2.385 . S
Mn900 O925 2.209 . S
Mn900 O926 2.094 . S
Mn901 O906 2.121 . S
Mn901 N908 2.257 . S
Mn901 N917 2.282 . S
Mn901 O925 2.215 . S
Mn901 O927 2.117 . S
C902 O924 1.234 . S
C902 O925 1.283 . S
C903 O915 1.281 . S
C903 O916 1.236 . S
C904 O926 1.240 . S
C904 O927 1.264 . S
O905 Mn900 2.095 . S
O905 C914 1.250 . S
O906 Mn901 2.121 . S
O906 C914 1.258 . S
C907 N908 1.326 . S
C907 C911 1.460 . S
C907 H913 0.929 . S
N908 Mn901 2.257 . S
N908 C907 1.326 . S
N908 C912 1.362 . S
C909 C910 1.258 . S
C909 C912 1.431 . S
C909 C929 1.449 . S
C910 C909 1.258 . S
C910 C911 1.477 . S
C910 H930 0.931 . S
C911 C907 1.460 . S
C911 C910 1.477 . S
C911 H931 0.930 . S
C912 N908 1.362 . S
C912 C909 1.431 . S
C912 C922 1.476 . S
H913 C907 0.929 . S
C914 O905 1.250 . S
C914 O906 1.258 . S
O915 Mn900 2.162 . S
O915 C903 1.281 . S
O916 Mn900 2.297 . S
O916 C903 1.236 . S
N917 Mn901 2.282 . S
N917 C918 1.328 . S
N917 C922 1.318 . S
C918 N917 1.328 . S
C918 C919 1.457 . S
C918 H923 0.929 . S
C919 C918 1.457 . S
C919 C920 1.291 . S
C919 H932 0.931 . S
C920 C919 1.291 . S
C920 C921 1.373 . S
C920 H933 0.929 . S
C921 C920 1.373 . S
C921 C922 1.396 . S
C921 C928 1.403 . S
C922 C912 1.476 . S
C922 N917 1.318 . S
C922 C921 1.396 . S
H923 C918 0.929 . S
O924 Mn900 2.385 . S
O924 C902 1.234 . S
O925 Mn900 2.209 . S
O925 Mn901 2.215 . S
O925 C902 1.283 . S
O926 Mn900 2.094 . S
O926 C904 1.240 . S
O927 Mn901 2.117 . S
O927 C904 1.264 . S
C928 C921 1.403 . S
C928 C929 1.399 . S
C928 H934 0.929 . S
C929 C909 1.449 . S
C929 C928 1.399 . S
C929 H935 0.930 . S
H930 C910 0.931 . S
H931 C911 0.930 . S
H932 C919 0.931 . S
H933 C920 0.929 . S
H934 C928 0.929 . S
H935 C929 0.930 . S
Mn936 O941 2.095 1_455 S
Mn936 O951 2.162 . S
Mn936 O952 2.297 1_455 S
Mn936 O960 2.385 . S
Mn936 O961 2.209 1_455 S
Mn936 O962 2.094 . S
Mn937 O942 2.121 . S
Mn937 N944 2.257 . S
Mn937 N953 2.282 1_655 S
Mn937 O961 2.215 . S
Mn937 O963 2.117 1_655 S
C938 O960 1.234 . S
C938 O961 1.283 1_455 S
C939 O951 1.281 . S
C939 O952 1.236 1_455 S
C940 O962 1.240 . S
C940 O963 1.264 . S
O941 Mn936 2.095 1_655 S
O941 C950 1.250 . S
O942 Mn937 2.121 . S
O942 C950 1.258 . S
C943 N944 1.326 . S
C943 C947 1.460 . S
C943 H949 0.929 . S
N944 Mn937 2.257 . S
N944 C943 1.326 . S
N944 C948 1.362 . S
C945 C946 1.258 . S
C945 C948 1.431 . S
C945 C965 1.449 . S
C946 C945 1.258 . S
C946 C947 1.477 . S
C946 H966 0.931 . S
C947 C943 1.460 . S
C947 C946 1.477 . S
C947 H967 0.930 . S
C948 N944 1.362 . S
C948 C945 1.431 . S
C948 C958 1.476 . S
H949 C943 0.929 . S
C950 O941 1.250 . S
C950 O942 1.258 . S
O951 Mn936 2.162 . S
O951 C939 1.281 . S
O952 Mn936 2.297 1_655 S
O952 C939 1.236 1_655 S
N953 Mn937 2.282 1_455 S
N953 C954 1.328 . S
N953 C958 1.318 1_455 S
C954 N953 1.328 . S
C954 C955 1.457 . S
C954 H959 0.929 . S
C955 C954 1.457 . S
C955 C956 1.291 . S
C955 H968 0.931 . S
C956 C955 1.291 . S
C956 C957 1.373 1_455 S
C956 H969 0.929 . S
C957 C956 1.373 1_655 S
C957 C958 1.396 . S
C957 C964 1.403 . S
C958 C948 1.476 . S
C958 N953 1.318 1_655 S
C958 C957 1.396 . S
H959 C954 0.929 . S
O960 Mn936 2.385 . S
O960 C938 1.234 . S
O961 Mn936 2.209 1_655 S
O961 Mn937 2.215 . S
O961 C938 1.283 1_655 S
O962 Mn936 2.094 . S
O962 C940 1.240 . S
O963 Mn937 2.117 1_455 S
O963 C940 1.264 . S
C964 C957 1.403 . S
C964 C965 1.399 . S
C964 H970 0.929 . S
C965 C945 1.449 . S
C965 C964 1.399 . S
C965 H971 0.930 . S
H966 C946 0.931 . S
H967 C947 0.930 . S
H968 C955 0.931 . S
H969 C956 0.929 . S
H970 C964 0.929 . S
H971 C965 0.930 . S
Mn972 O977 2.095 . S
Mn972 O987 2.162 . S
Mn972 O988 2.297 . S
Mn972 O996 2.385 . S
Mn972 O997 2.209 . S
Mn972 O998 2.094 . S
Mn973 O978 2.121 . S
Mn973 N980 2.257 . S
Mn973 N989 2.282 . S
Mn973 O997 2.215 . S
Mn973 O999 2.117 . S
C974 O996 1.234 . S
C974 O997 1.283 . S
C975 O987 1.281 . S
C975 O988 1.236 . S
C976 O998 1.240 . S
C976 O999 1.264 . S
O977 Mn972 2.095 . S
O977 C986 1.250 . S
O978 Mn973 2.121 . S
O978 C986 1.258 . S
C979 N980 1.326 . S
C979 C983 1.460 . S
C979 H985 0.929 . S
N980 Mn973 2.257 . S
N980 C979 1.326 . S
N980 C984 1.362 . S
C981 C982 1.258 . S
C981 C984 1.431 . S
C981 C1001 1.449 . S
C982 C981 1.258 . S
C982 C983 1.477 . S
C982 H1002 0.931 . S
C983 C979 1.460 . S
C983 C982 1.477 . S
C983 H1003 0.930 . S
C984 N980 1.362 . S
C984 C981 1.431 . S
C984 C994 1.476 . S
H985 C979 0.929 . S
C986 O977 1.250 . S
C986 O978 1.258 . S
O987 Mn972 2.162 . S
O987 C975 1.281 . S
O988 Mn972 2.297 . S
O988 C975 1.236 . S
N989 Mn973 2.282 . S
N989 C990 1.328 . S
N989 C994 1.318 . S
C990 N989 1.328 . S
C990 C991 1.457 . S
C990 H995 0.929 . S
C991 C990 1.457 . S
C991 C992 1.291 . S
C991 H1004 0.931 . S
C992 C991 1.291 . S
C992 C993 1.373 . S
C992 H1005 0.929 . S
C993 C992 1.373 . S
C993 C994 1.396 . S
C993 C1000 1.403 . S
C994 C984 1.476 . S
C994 N989 1.318 . S
C994 C993 1.396 . S
H995 C990 0.929 . S
O996 Mn972 2.385 . S
O996 C974 1.234 . S
O997 Mn972 2.209 . S
O997 Mn973 2.215 . S
O997 C974 1.283 . S
O998 Mn972 2.094 . S
O998 C976 1.240 . S
O999 Mn973 2.117 . S
O999 C976 1.264 . S
C1000 C993 1.403 . S
C1000 C1001 1.399 . S
C1000 H1006 0.929 . S
C1001 C981 1.449 . S
C1001 C1000 1.399 . S
C1001 H1007 0.930 . S
H1002 C982 0.931 . S
H1003 C983 0.930 . S
H1004 C991 0.931 . S
H1005 C992 0.929 . S
H1006 C1000 0.929 . S
H1007 C1001 0.930 . S
H1008 C1014 0.930 . S
H1009 C1017 0.930 . S
H1010 C1018 0.930 . S
H1011 C1019 0.930 . S
H1012 C1022 0.930 . S
H1013 C1023 0.930 . S
C1014 H1008 0.930 . S
C1014 C1015 1.355 . S
C1014 C1016 1.415 . S
C1015 C1014 1.355 . S
C1015 C1017 1.419 . S
C1016 C1014 1.415 . S
C1016 C1021 1.425 . S
C1016 C1023 1.409 . S
C1017 H1009 0.930 . S
C1017 C1015 1.419 . S
C1017 C1018 1.362 . S
C1018 H1010 0.930 . S
C1018 C1017 1.362 . S
C1018 C1021 1.409 . S
C1019 H1011 0.930 . S
C1019 C1020 1.355 . S
C1019 C1021 1.415 . S
C1020 C1019 1.355 . S
C1020 C1022 1.419 . S
C1021 C1016 1.425 . S
C1021 C1018 1.409 . S
C1021 C1019 1.415 . S
C1022 H1012 0.930 . S
C1022 C1020 1.419 . S
C1022 C1023 1.362 . S
C1023 H1013 0.930 . S
C1023 C1016 1.409 . S
C1023 C1022 1.362 . S
H1024 C1030 0.930 . S
H1025 C1033 0.930 . S
H1026 C1034 0.930 . S
H1027 C1035 0.930 . S
H1028 C1038 0.930 . S
H1029 C1039 0.930 . S
C1030 H1024 0.930 . S
C1030 C1031 1.355 . S
C1030 C1032 1.415 . S
C1031 C1030 1.355 . S
C1031 C1033 1.419 . S
C1032 C1030 1.415 . S
C1032 C1037 1.425 . S
C1032 C1039 1.409 . S
C1033 H1025 0.930 . S
C1033 C1031 1.419 . S
C1033 C1034 1.362 . S
C1034 H1026 0.930 . S
C1034 C1033 1.362 . S
C1034 C1037 1.409 . S
C1035 H1027 0.930 . S
C1035 C1036 1.355 . S
C1035 C1037 1.415 . S
C1036 C1035 1.355 . S
C1036 C1038 1.419 . S
C1037 C1032 1.425 . S
C1037 C1034 1.409 . S
C1037 C1035 1.415 . S
C1038 H1028 0.930 . S
C1038 C1036 1.419 . S
C1038 C1039 1.362 . S
C1039 H1029 0.930 . S
C1039 C1032 1.409 . S
C1039 C1038 1.362 . S
H1040 C1046 0.930 . S
H1041 C1049 0.930 . S
H1042 C1050 0.930 . S
H1043 C1051 0.930 . S
H1044 C1054 0.930 . S
H1045 C1055 0.930 . S
C1046 H1040 0.930 . S
C1046 C1047 1.355 . S
C1046 C1048 1.415 . S
C1047 C1046 1.355 . S
C1047 C1049 1.419 . S
C1048 C1046 1.415 . S
C1048 C1053 1.425 . S
C1048 C1055 1.409 . S
C1049 H1041 0.930 . S
C1049 C1047 1.419 . S
C1049 C1050 1.362 . S
C1050 H1042 0.930 . S
C1050 C1049 1.362 . S
C1050 C1053 1.409 . S
C1051 H1043 0.930 . S
C1051 C1052 1.355 . S
C1051 C1053 1.415 . S
C1052 C1051 1.355 . S
C1052 C1054 1.419 . S
C1053 C1048 1.425 . S
C1053 C1050 1.409 . S
C1053 C1051 1.415 . S
C1054 H1044 0.930 . S
C1054 C1052 1.419 . S
C1054 C1055 1.362 . S
C1055 H1045 0.930 . S
C1055 C1048 1.409 . S
C1055 C1054 1.362 . S
H1056 C1062 0.930 . S
H1057 C1065 0.930 . S
H1058 C1066 0.934 . S
H1059 C1067 0.930 . S
H1060 C1070 0.930 . S
H1061 C1071 0.930 . S
C1062 H1056 0.930 . S
C1062 C1063 1.355 . S
C1062 C1064 1.415 . S
C1063 C1062 1.355 . S
C1063 C1065 1.419 . S
C1064 C1062 1.415 . S
C1064 C1069 1.425 . S
C1064 C1071 1.409 . S
C1065 H1057 0.930 . S
C1065 C1063 1.419 . S
C1065 C1066 1.360 1_565 S
C1066 H1058 0.934 . S
C1066 C1065 1.360 1_545 S
C1066 C1069 1.408 1_545 S
C1067 H1059 0.930 . S
C1067 C1068 1.354 1_545 S
C1067 C1069 1.415 1_545 S
C1068 C1067 1.354 1_565 S
C1068 C1070 1.420 . S
C1069 C1064 1.425 . S
C1069 C1066 1.408 1_565 S
C1069 C1067 1.415 1_565 S
C1070 H1060 0.930 . S
C1070 C1068 1.420 . S
C1070 C1071 1.362 . S
C1071 H1061 0.930 . S
C1071 C1064 1.409 . S
C1071 C1070 1.362 . S
H1072 C1078 0.930 . S
H1073 C1081 0.930 . S
H1074 C1082 0.930 . S
H1075 C1083 0.930 . S
H1076 C1086 0.930 . S
H1077 C1087 0.930 . S
C1078 H1072 0.930 . S
C1078 C1079 1.355 . S
C1078 C1080 1.415 . S
C1079 C1078 1.355 . S
C1079 C1081 1.419 . S
C1080 C1078 1.415 . S
C1080 C1085 1.425 . S
C1080 C1087 1.409 . S
C1081 H1073 0.930 . S
C1081 C1079 1.419 . S
C1081 C1082 1.362 . S
C1082 H1074 0.930 . S
C1082 C1081 1.362 . S
C1082 C1085 1.409 . S
C1083 H1075 0.930 . S
C1083 C1084 1.355 . S
C1083 C1085 1.415 . S
C1084 C1083 1.355 . S
C1084 C1086 1.419 . S
C1085 C1080 1.425 . S
C1085 C1082 1.409 . S
C1085 C1083 1.415 . S
C1086 H1076 0.930 . S
C1086 C1084 1.419 . S
C1086 C1087 1.362 . S
C1087 H1077 0.930 . S
C1087 C1080 1.409 . S
C1087 C1086 1.362 . S
H1088 C1094 0.930 . S
H1089 C1097 0.930 . S
H1090 C1098 0.930 . S
H1091 C1099 0.930 . S
H1092 C1102 0.930 . S
H1093 C1103 0.930 . S
C1094 H1088 0.930 . S
C1094 C1095 1.355 . S
C1094 C1096 1.415 . S
C1095 C1094 1.355 . S
C1095 C1097 1.419 . S
C1096 C1094 1.415 . S
C1096 C1101 1.425 . S
C1096 C1103 1.409 . S
C1097 H1089 0.930 . S
C1097 C1095 1.419 . S
C1097 C1098 1.362 . S
C1098 H1090 0.930 . S
C1098 C1097 1.362 . S
C1098 C1101 1.409 . S
C1099 H1091 0.930 . S
C1099 C1100 1.355 . S
C1099 C1101 1.415 . S
C1100 C1099 1.355 . S
C1100 C1102 1.419 . S
C1101 C1096 1.425 . S
C1101 C1098 1.409 . S
C1101 C1099 1.415 . S
C1102 H1092 0.930 . S
C1102 C1100 1.419 . S
C1102 C1103 1.362 . S
C1103 H1093 0.930 . S
C1103 C1096 1.409 . S
C1103 C1102 1.362 . S
H1104 C1110 0.930 . S
H1105 C1113 0.930 . S
H1106 C1114 0.930 . S
H1107 C1115 0.930 . S
H1108 C1118 0.930 . S
H1109 C1119 0.930 . S
C1110 H1104 0.930 . S
C1110 C1111 1.355 . S
C1110 C1112 1.415 . S
C1111 C1110 1.355 . S
C1111 C1113 1.419 . S
C1112 C1110 1.415 . S
C1112 C1117 1.425 . S
C1112 C1119 1.409 . S
C1113 H1105 0.930 . S
C1113 C1111 1.419 . S
C1113 C1114 1.362 . S
C1114 H1106 0.930 . S
C1114 C1113 1.362 . S
C1114 C1117 1.409 . S
C1115 H1107 0.930 . S
C1115 C1116 1.355 . S
C1115 C1117 1.415 . S
C1116 C1115 1.355 . S
C1116 C1118 1.419 . S
C1117 C1112 1.425 . S
C1117 C1114 1.409 . S
C1117 C1115 1.415 . S
C1118 H1108 0.930 . S
C1118 C1116 1.419 . S
C1118 C1119 1.362 . S
C1119 H1109 0.930 . S
C1119 C1112 1.409 . S
C1119 C1118 1.362 . S
H1120 C1126 0.930 1_545 S
H1121 C1129 0.930 . S
H1122 C1130 0.930 . S
H1123 C1131 0.930 . S
H1124 C1134 0.930 . S
H1125 C1135 0.930 . S
C1126 H1120 0.930 1_565 S
C1126 C1127 1.355 . S
C1126 C1128 1.415 . S
C1127 C1126 1.355 . S
C1127 C1129 1.419 . S
C1128 C1126 1.415 . S
C1128 C1133 1.425 . S
C1128 C1135 1.409 1_565 S
C1129 H1121 0.930 . S
C1129 C1127 1.419 . S
C1129 C1130 1.362 . S
C1130 H1122 0.930 . S
C1130 C1129 1.362 . S
C1130 C1133 1.409 . S
C1131 H1123 0.930 . S
C1131 C1132 1.355 . S
C1131 C1133 1.415 . S
C1132 C1131 1.355 . S
C1132 C1134 1.419 1_565 S
C1133 C1128 1.425 . S
C1133 C1130 1.409 . S
C1133 C1131 1.415 . S
C1134 H1124 0.930 . S
C1134 C1132 1.419 1_545 S
C1134 C1135 1.362 . S
C1135 H1125 0.930 . S
C1135 C1128 1.409 1_545 S
C1135 C1134 1.362 . S
H1136 C1142 0.930 . S
H1137 C1145 0.930 . S
H1138 C1146 0.930 . S
H1139 C1147 0.930 . S
H1140 C1150 0.930 . S
H1141 C1151 0.930 . S
C1142 H1136 0.930 . S
C1142 C1143 1.355 . S
C1142 C1144 1.415 . S
C1143 C1142 1.355 . S
C1143 C1145 1.419 . S
C1144 C1142 1.415 . S
C1144 C1149 1.425 . S
C1144 C1151 1.409 . S
C1145 H1137 0.930 . S
C1145 C1143 1.419 . S
C1145 C1146 1.362 . S
C1146 H1138 0.930 . S
C1146 C1145 1.362 . S
C1146 C1149 1.409 . S
C1147 H1139 0.930 . S
C1147 C1148 1.355 . S
C1147 C1149 1.415 . S
C1148 C1147 1.355 . S
C1148 C1150 1.419 . S
C1149 C1144 1.425 . S
C1149 C1146 1.409 . S
C1149 C1147 1.415 . S
C1150 H1140 0.930 . S
C1150 C1148 1.419 . S
C1150 C1151 1.362 . S
C1151 H1141 0.930 . S
C1151 C1144 1.409 . S
C1151 C1150 1.362 . S
H1152 C1158 0.930 . S
H1153 C1161 0.930 . S
H1154 C1162 0.930 . S
H1155 C1163 0.930 . S
H1156 C1166 0.930 . S
H1157 C1167 0.930 . S
C1158 H1152 0.930 . S
C1158 C1159 1.355 . S
C1158 C1160 1.415 . S
C1159 C1158 1.355 . S
C1159 C1161 1.419 . S
C1160 C1158 1.415 . S
C1160 C1165 1.425 . S
C1160 C1167 1.409 . S
C1161 H1153 0.930 . S
C1161 C1159 1.419 . S
C1161 C1162 1.362 . S
C1162 H1154 0.930 . S
C1162 C1161 1.362 . S
C1162 C1165 1.409 . S
C1163 H1155 0.930 . S
C1163 C1164 1.355 . S
C1163 C1165 1.415 . S
C1164 C1163 1.355 . S
C1164 C1166 1.419 . S
C1165 C1160 1.425 . S
C1165 C1162 1.409 . S
C1165 C1163 1.415 . S
C1166 H1156 0.930 . S
C1166 C1164 1.419 . S
C1166 C1167 1.362 . S
C1167 H1157 0.930 . S
C1167 C1160 1.409 . S
C1167 C1166 1.362 . S
H1168 C1174 0.930 . S
H1169 C1177 0.930 . S
H1170 C1178 0.930 . S
H1171 C1179 0.930 . S
H1172 C1182 0.930 . S
H1173 C1183 0.930 . S
C1174 H1168 0.930 . S
C1174 C1175 1.355 . S
C1174 C1176 1.415 . S
C1175 C1174 1.355 . S
C1175 C1177 1.419 . S
C1176 C1174 1.415 . S
C1176 C1181 1.425 . S
C1176 C1183 1.409 . S
C1177 H1169 0.930 . S
C1177 C1175 1.419 . S
C1177 C1178 1.362 . S
C1178 H1170 0.930 . S
C1178 C1177 1.362 . S
C1178 C1181 1.409 . S
C1179 H1171 0.930 . S
C1179 C1180 1.355 . S
C1179 C1181 1.415 . S
C1180 C1179 1.355 . S
C1180 C1182 1.419 . S
C1181 C1176 1.425 . S
C1181 C1178 1.409 . S
C1181 C1179 1.415 . S
C1182 H1172 0.930 . S
C1182 C1180 1.419 . S
C1182 C1183 1.362 . S
C1183 H1173 0.930 . S
C1183 C1176 1.409 . S
C1183 C1182 1.362 . S
H1184 C1190 0.930 . S
H1185 C1193 0.930 . S
H1186 C1194 0.930 . S
H1187 C1195 0.930 . S
H1188 C1198 0.930 . S
H1189 C1199 0.930 . S
C1190 H1184 0.930 . S
C1190 C1191 1.355 . S
C1190 C1192 1.415 . S
C1191 C1190 1.355 . S
C1191 C1193 1.419 . S
C1192 C1190 1.415 . S
C1192 C1197 1.425 . S
C1192 C1199 1.409 . S
C1193 H1185 0.930 . S
C1193 C1191 1.419 . S
C1193 C1194 1.362 . S
C1194 H1186 0.930 . S
C1194 C1193 1.362 . S
C1194 C1197 1.409 . S
C1195 H1187 0.930 . S
C1195 C1196 1.355 . S
C1195 C1197 1.415 . S
C1196 C1195 1.355 . S
C1196 C1198 1.419 . S
C1197 C1192 1.425 . S
C1197 C1194 1.409 . S
C1197 C1195 1.415 . S
C1198 H1188 0.930 . S
C1198 C1196 1.419 . S
C1198 C1199 1.362 . S
C1199 H1189 0.930 . S
C1199 C1192 1.409 . S
C1199 C1198 1.362 . S
H1200 C1206 0.930 . S
H1201 C1209 0.930 . S
H1202 C1210 0.930 . S
H1203 C1211 0.930 . S
H1204 C1214 0.930 . S
H1205 C1215 0.930 . S
C1206 H1200 0.930 . S
C1206 C1207 1.355 . S
C1206 C1208 1.415 . S
C1207 C1206 1.355 . S
C1207 C1209 1.419 . S
C1208 C1206 1.415 . S
C1208 C1213 1.425 . S
C1208 C1215 1.409 . S
C1209 H1201 0.930 . S
C1209 C1207 1.419 . S
C1209 C1210 1.362 . S
C1210 H1202 0.930 . S
C1210 C1209 1.362 . S
C1210 C1213 1.409 . S
C1211 H1203 0.930 . S
C1211 C1212 1.355 . S
C1211 C1213 1.415 . S
C1212 C1211 1.355 . S
C1212 C1214 1.419 . S
C1213 C1208 1.425 . S
C1213 C1210 1.409 . S
C1213 C1211 1.415 . S
C1214 H1204 0.930 . S
C1214 C1212 1.419 . S
C1214 C1215 1.362 . S
C1215 H1205 0.930 . S
C1215 C1208 1.409 . S
C1215 C1214 1.362 . S
H1216 C1222 0.930 . S
H1217 C1225 0.930 . S
H1218 C1226 0.930 . S
H1219 C1227 0.930 . S
H1220 C1230 0.930 . S
H1221 C1231 0.930 . S
C1222 H1216 0.930 . S
C1222 C1223 1.355 . S
C1222 C1224 1.415 . S
C1223 C1222 1.355 . S
C1223 C1225 1.419 . S
C1224 C1222 1.415 . S
C1224 C1229 1.425 . S
C1224 C1231 1.409 1_455 S
C1225 H1217 0.930 . S
C1225 C1223 1.419 . S
C1225 C1226 1.362 . S
C1226 H1218 0.930 . S
C1226 C1225 1.362 . S
C1226 C1229 1.409 . S
C1227 H1219 0.930 . S
C1227 C1228 1.355 . S
C1227 C1229 1.415 . S
C1228 C1227 1.355 . S
C1228 C1230 1.419 1_455 S
C1229 C1224 1.425 . S
C1229 C1226 1.409 . S
C1229 C1227 1.415 . S
C1230 H1220 0.930 . S
C1230 C1228 1.419 1_655 S
C1230 C1231 1.362 . S
C1231 H1221 0.930 . S
C1231 C1224 1.409 1_655 S
C1231 C1230 1.362 . S
H1232 C1238 0.930 . S
H1233 C1241 0.930 . S
H1234 C1242 0.930 . S
H1235 C1243 0.930 . S
H1236 C1246 0.930 . S
H1237 C1247 0.930 . S
C1238 H1232 0.930 . S
C1238 C1239 1.355 . S
C1238 C1240 1.415 . S
C1239 C1238 1.355 . S
C1239 C1241 1.419 . S
C1240 C1238 1.415 . S
C1240 C1245 1.425 . S
C1240 C1247 1.409 . S
C1241 H1233 0.930 . S
C1241 C1239 1.419 . S
C1241 C1242 1.362 . S
C1242 H1234 0.930 . S
C1242 C1241 1.362 . S
C1242 C1245 1.409 . S
C1243 H1235 0.930 . S
C1243 C1244 1.355 . S
C1243 C1245 1.415 . S
C1244 C1243 1.355 . S
C1244 C1246 1.419 . S
C1245 C1240 1.425 . S
C1245 C1242 1.409 . S
C1245 C1243 1.415 . S
C1246 H1236 0.930 . S
C1246 C1244 1.419 . S
C1246 C1247 1.362 . S
C1247 H1237 0.930 . S
C1247 C1240 1.409 . S
C1247 C1246 1.362 . S
H1248 C1254 0.930 . S
H1249 C1257 0.930 . S
H1250 C1258 0.930 . S
H1251 C1259 0.930 . S
H1252 C1262 0.930 . S
H1253 C1263 0.930 . S
C1254 H1248 0.930 . S
C1254 C1255 1.355 . S
C1254 C1256 1.415 . S
C1255 C1254 1.355 . S
C1255 C1257 1.419 1_655 S
C1256 C1254 1.415 . S
C1256 C1261 1.409 1_655 S
C1256 C1263 1.409 . S
C1257 H1249 0.930 . S
C1257 C1255 1.419 1_455 S
C1257 C1258 1.362 . S
C1258 H1250 0.930 . S
C1258 C1257 1.362 . S
C1258 C1261 1.422 . S
C1259 H1251 0.930 . S
C1259 C1260 1.355 1_455 S
C1259 C1261 1.421 . S
C1260 C1259 1.355 1_655 S
C1260 C1262 1.419 . S
C1261 C1256 1.409 1_455 S
C1261 C1258 1.422 . S
C1261 C1259 1.421 . S
C1262 H1252 0.930 . S
C1262 C1260 1.419 . S
C1262 C1263 1.362 . S
C1263 H1253 0.930 . S
C1263 C1256 1.409 . S
C1263 C1262 1.362 . S
H1264 C1270 0.930 . S
H1265 C1273 0.930 . S
H1266 C1274 0.930 . S
H1267 C1275 0.930 . S
H1268 C1278 0.930 . S
H1269 C1279 0.930 . S
C1270 H1264 0.930 . S
C1270 C1271 1.355 . S
C1270 C1272 1.415 . S
C1271 C1270 1.355 . S
C1271 C1273 1.419 . S
C1272 C1270 1.415 . S
C1272 C1277 1.425 . S
C1272 C1279 1.409 . S
C1273 H1265 0.930 . S
C1273 C1271 1.419 . S
C1273 C1274 1.362 . S
C1274 H1266 0.930 . S
C1274 C1273 1.362 . S
C1274 C1277 1.409 . S
C1275 H1267 0.930 . S
C1275 C1276 1.355 . S
C1275 C1277 1.415 . S
C1276 C1275 1.355 . S
C1276 C1278 1.419 . S
C1277 C1272 1.425 . S
C1277 C1274 1.409 . S
C1277 C1275 1.415 . S
C1278 H1268 0.930 . S
C1278 C1276 1.419 . S
C1278 C1279 1.362 . S
C1279 H1269 0.930 . S
C1279 C1272 1.409 . S
C1279 C1278 1.362 . S
H1280 C1286 0.930 . S
H1281 C1289 0.930 . S
H1282 C1290 0.930 . S
H1283 C1291 0.930 . S
H1284 C1294 0.930 . S
H1285 C1295 0.930 . S
C1286 H1280 0.930 . S
C1286 C1287 1.355 . S
C1286 C1288 1.415 . S
C1287 C1286 1.355 . S
C1287 C1289 1.419 . S
C1288 C1286 1.415 . S
C1288 C1293 1.425 . S
C1288 C1295 1.409 . S
C1289 H1281 0.930 . S
C1289 C1287 1.419 . S
C1289 C1290 1.362 . S
C1290 H1282 0.930 . S
C1290 C1289 1.362 . S
C1290 C1293 1.409 . S
C1291 H1283 0.930 . S
C1291 C1292 1.355 . S
C1291 C1293 1.415 . S
C1292 C1291 1.355 . S
C1292 C1294 1.419 . S
C1293 C1288 1.425 . S
C1293 C1290 1.409 . S
C1293 C1291 1.415 . S
C1294 H1284 0.930 . S
C1294 C1292 1.419 . S
C1294 C1295 1.362 . S
C1295 H1285 0.930 . S
C1295 C1288 1.409 . S
C1295 C1294 1.362 . S
H1296 C1302 0.930 . S
H1297 C1305 0.930 . S
H1298 C1306 0.930 . S
H1299 C1307 0.930 . S
H1300 C1310 0.930 . S
H1301 C1311 0.930 . S
C1302 H1296 0.930 . S
C1302 C1303 1.355 . S
C1302 C1304 1.415 . S
C1303 C1302 1.355 . S
C1303 C1305 1.419 1_556 S
C1304 C1302 1.415 . S
C1304 C1309 1.425 1_556 S
C1304 C1311 1.409 . S
C1305 H1297 0.930 . S
C1305 C1303 1.419 1_554 S
C1305 C1306 1.362 . S
C1306 H1298 0.930 . S
C1306 C1305 1.362 . S
C1306 C1309 1.409 . S
C1307 H1299 0.930 . S
C1307 C1308 1.355 . S
C1307 C1309 1.415 . S
C1308 C1307 1.355 . S
C1308 C1310 1.419 1_554 S
C1309 C1304 1.425 1_554 S
C1309 C1306 1.409 . S
C1309 C1307 1.415 . S
C1310 H1300 0.930 . S
C1310 C1308 1.419 1_556 S
C1310 C1311 1.362 . S
C1311 H1301 0.930 . S
C1311 C1304 1.409 . S
C1311 C1310 1.362 . S
H1312 C1318 0.930 . S
H1313 C1321 0.930 . S
H1314 C1322 0.930 . S
H1315 C1323 0.930 . S
H1316 C1326 0.930 . S
H1317 C1327 0.930 . S
C1318 H1312 0.930 . S
C1318 C1319 1.355 . S
C1318 C1320 1.415 . S
C1319 C1318 1.355 . S
C1319 C1321 1.419 . S
C1320 C1318 1.415 . S
C1320 C1325 1.425 . S
C1320 C1327 1.409 . S
C1321 H1313 0.930 . S
C1321 C1319 1.419 . S
C1321 C1322 1.362 . S
C1322 H1314 0.930 . S
C1322 C1321 1.362 . S
C1322 C1325 1.409 . S
C1323 H1315 0.930 . S
C1323 C1324 1.355 . S
C1323 C1325 1.415 . S
C1324 C1323 1.355 . S
C1324 C1326 1.419 . S
C1325 C1320 1.425 . S
C1325 C1322 1.409 . S
C1325 C1323 1.415 . S
C1326 H1316 0.930 . S
C1326 C1324 1.419 . S
C1326 C1327 1.362 . S
C1327 H1317 0.930 . S
C1327 C1320 1.409 . S
C1327 C1326 1.362 . S
H1328 C1334 0.930 . S
H1329 C1337 0.930 . S
H1330 C1338 0.930 . S
H1331 C1339 0.930 . S
H1332 C1342 0.930 . S
H1333 C1343 0.930 . S
C1334 H1328 0.930 . S
C1334 C1335 1.355 . S
C1334 C1336 1.415 . S
C1335 C1334 1.355 . S
C1335 C1337 1.419 . S
C1336 C1334 1.415 . S
C1336 C1341 1.425 . S
C1336 C1343 1.409 . S
C1337 H1329 0.930 . S
C1337 C1335 1.419 . S
C1337 C1338 1.362 . S
C1338 H1330 0.930 . S
C1338 C1337 1.362 . S
C1338 C1341 1.409 . S
C1339 H1331 0.930 . S
C1339 C1340 1.355 . S
C1339 C1341 1.415 . S
C1340 C1339 1.355 . S
C1340 C1342 1.419 . S
C1341 C1336 1.425 . S
C1341 C1338 1.409 . S
C1341 C1339 1.415 . S
C1342 H1332 0.930 . S
C1342 C1340 1.419 . S
C1342 C1343 1.362 . S
C1343 H1333 0.930 . S
C1343 C1336 1.409 . S
C1343 C1342 1.362 . S
H1344 C1350 0.930 . S
H1345 C1353 0.930 . S
H1346 C1354 0.930 . S
H1347 C1355 0.930 . S
H1348 C1358 0.930 . S
H1349 C1359 0.930 . S
C1350 H1344 0.930 . S
C1350 C1351 1.355 . S
C1350 C1352 1.415 . S
C1351 C1350 1.355 . S
C1351 C1353 1.419 . S
C1352 C1350 1.415 . S
C1352 C1357 1.425 . S
C1352 C1359 1.409 . S
C1353 H1345 0.930 . S
C1353 C1351 1.419 . S
C1353 C1354 1.362 . S
C1354 H1346 0.930 . S
C1354 C1353 1.362 . S
C1354 C1357 1.409 . S
C1355 H1347 0.930 . S
C1355 C1356 1.355 . S
C1355 C1357 1.415 . S
C1356 C1355 1.355 . S
C1356 C1358 1.419 . S
C1357 C1352 1.425 . S
C1357 C1354 1.409 . S
C1357 C1355 1.415 . S
C1358 H1348 0.930 . S
C1358 C1356 1.419 . S
C1358 C1359 1.362 . S
C1359 H1349 0.930 . S
C1359 C1352 1.409 . S
C1359 C1358 1.362 . S
H1360 C1366 0.930 . S
H1361 C1369 0.930 . S
H1362 C1370 0.930 . S
H1363 C1371 0.930 . S
H1364 C1374 0.930 . S
H1365 C1375 0.930 . S
C1366 H1360 0.930 . S
C1366 C1367 1.355 . S
C1366 C1368 1.415 . S
C1367 C1366 1.355 . S
C1367 C1369 1.419 . S
C1368 C1366 1.415 . S
C1368 C1373 1.425 . S
C1368 C1375 1.409 . S
C1369 H1361 0.930 . S
C1369 C1367 1.419 . S
C1369 C1370 1.362 . S
C1370 H1362 0.930 . S
C1370 C1369 1.362 . S
C1370 C1373 1.409 . S
C1371 H1363 0.930 . S
C1371 C1372 1.355 . S
C1371 C1373 1.415 . S
C1372 C1371 1.355 . S
C1372 C1374 1.419 . S
C1373 C1368 1.425 . S
C1373 C1370 1.409 . S
C1373 C1371 1.415 . S
C1374 H1364 0.930 . S
C1374 C1372 1.419 . S
C1374 C1375 1.362 . S
C1375 H1365 0.930 . S
C1375 C1368 1.409 . S
C1375 C1374 1.362 . S
H1376 C1382 0.930 . S
H1377 C1385 0.930 . S
H1378 C1386 0.930 . S
H1379 C1387 0.930 . S
H1380 C1390 0.930 . S
H1381 C1391 0.930 . S
C1382 H1376 0.930 . S
C1382 C1383 1.355 . S
C1382 C1384 1.415 . S
C1383 C1382 1.355 . S
C1383 C1385 1.419 . S
C1384 C1382 1.415 . S
C1384 C1389 1.425 . S
C1384 C1391 1.409 . S
C1385 H1377 0.930 . S
C1385 C1383 1.419 . S
C1385 C1386 1.362 . S
C1386 H1378 0.930 . S
C1386 C1385 1.362 . S
C1386 C1389 1.409 . S
C1387 H1379 0.930 . S
C1387 C1388 1.355 . S
C1387 C1389 1.415 . S
C1388 C1387 1.355 . S
C1388 C1390 1.419 . S
C1389 C1384 1.425 . S
C1389 C1386 1.409 . S
C1389 C1387 1.415 . S
C1390 H1380 0.930 . S
C1390 C1388 1.419 . S
C1390 C1391 1.362 . S
C1391 H1381 0.930 . S
C1391 C1384 1.409 . S
C1391 C1390 1.362 . S
H1392 C1398 0.930 . S
H1393 C1401 0.930 . S
H1394 C1402 0.930 . S
H1395 C1403 0.930 . S
H1396 C1406 0.930 . S
H1397 C1407 0.930 . S
C1398 H1392 0.930 . S
C1398 C1399 1.355 . S
C1398 C1400 1.415 . S
C1399 C1398 1.355 . S
C1399 C1401 1.419 . S
C1400 C1398 1.415 . S
C1400 C1405 1.425 . S
C1400 C1407 1.409 . S
C1401 H1393 0.930 . S
C1401 C1399 1.419 . S
C1401 C1402 1.362 . S
C1402 H1394 0.930 . S
C1402 C1401 1.362 . S
C1402 C1405 1.409 . S
C1403 H1395 0.930 . S
C1403 C1404 1.355 . S
C1403 C1405 1.415 . S
C1404 C1403 1.355 . S
C1404 C1406 1.419 . S
C1405 C1400 1.425 . S
C1405 C1402 1.409 . S
C1405 C1403 1.415 . S
C1406 H1396 0.930 . S
C1406 C1404 1.419 . S
C1406 C1407 1.362 . S
C1407 H1397 0.930 . S
C1407 C1400 1.409 . S
C1407 C1406 1.362 . S
H1408 C1414 0.930 . S
H1409 C1417 0.930 . S
H1410 C1418 0.930 . S
H1411 C1419 0.930 . S
H1412 C1422 0.930 . S
H1413 C1423 0.930 . S
C1414 H1408 0.930 . S
C1414 C1415 1.355 . S
C1414 C1416 1.415 . S
C1415 C1414 1.355 . S
C1415 C1417 1.419 1_545 S
C1416 C1414 1.415 . S
C1416 C1421 1.425 . S
C1416 C1423 1.409 . S
C1417 H1409 0.930 . S
C1417 C1415 1.419 1_565 S
C1417 C1418 1.362 . S
C1418 H1410 0.930 . S
C1418 C1417 1.362 . S
C1418 C1421 1.409 1_565 S
C1419 H1411 0.930 . S
C1419 C1420 1.355 1_565 S
C1419 C1421 1.415 1_565 S
C1420 C1419 1.355 1_545 S
C1420 C1422 1.419 . S
C1421 C1416 1.425 . S
C1421 C1418 1.409 1_545 S
C1421 C1419 1.415 1_545 S
C1422 H1412 0.930 . S
C1422 C1420 1.419 . S
C1422 C1423 1.362 . S
C1423 H1413 0.930 . S
C1423 C1416 1.409 . S
C1423 C1422 1.362 . S
H1424 C1430 0.930 . S
H1425 C1433 0.930 . S
H1426 C1434 0.930 . S
H1427 C1435 0.930 . S
H1428 C1438 0.930 . S
H1429 C1439 0.930 . S
C1430 H1424 0.930 . S
C1430 C1431 1.355 . S
C1430 C1432 1.415 . S
C1431 C1430 1.355 . S
C1431 C1433 1.419 . S
C1432 C1430 1.415 . S
C1432 C1437 1.425 . S
C1432 C1439 1.409 . S
C1433 H1425 0.930 . S
C1433 C1431 1.419 . S
C1433 C1434 1.362 . S
C1434 H1426 0.930 . S
C1434 C1433 1.362 . S
C1434 C1437 1.409 . S
C1435 H1427 0.930 . S
C1435 C1436 1.355 . S
C1435 C1437 1.415 . S
C1436 C1435 1.355 . S
C1436 C1438 1.419 . S
C1437 C1432 1.425 . S
C1437 C1434 1.409 . S
C1437 C1435 1.415 . S
C1438 H1428 0.930 . S
C1438 C1436 1.419 . S
C1438 C1439 1.362 . S
C1439 H1429 0.930 . S
C1439 C1432 1.409 . S
C1439 C1438 1.362 . S
H1440 C1446 0.930 . S
H1441 C1449 0.930 . S
H1442 C1450 0.930 . S
H1443 C1451 0.930 . S
H1444 C1454 0.930 . S
H1445 C1455 0.930 . S
C1446 H1440 0.930 . S
C1446 C1447 1.355 . S
C1446 C1448 1.415 . S
C1447 C1446 1.355 . S
C1447 C1449 1.419 . S
C1448 C1446 1.415 . S
C1448 C1453 1.425 . S
C1448 C1455 1.409 . S
C1449 H1441 0.930 . S
C1449 C1447 1.419 . S
C1449 C1450 1.362 . S
C1450 H1442 0.930 . S
C1450 C1449 1.362 . S
C1450 C1453 1.409 . S
C1451 H1443 0.930 . S
C1451 C1452 1.355 . S
C1451 C1453 1.415 . S
C1452 C1451 1.355 . S
C1452 C1454 1.419 . S
C1453 C1448 1.425 . S
C1453 C1450 1.409 . S
C1453 C1451 1.415 . S
C1454 H1444 0.930 . S
C1454 C1452 1.419 . S
C1454 C1455 1.362 . S
C1455 H1445 0.930 . S
C1455 C1448 1.409 . S
C1455 C1454 1.362 . S
H1456 C1462 0.930 . S
H1457 C1465 0.930 . S
H1458 C1466 0.930 . S
H1459 C1467 0.930 . S
H1460 C1470 0.930 . S
H1461 C1471 0.930 . S
C1462 H1456 0.930 . S
C1462 C1463 1.355 . S
C1462 C1464 1.415 . S
C1463 C1462 1.355 . S
C1463 C1465 1.419 . S
C1464 C1462 1.415 . S
C1464 C1469 1.425 . S
C1464 C1471 1.409 . S
C1465 H1457 0.930 . S
C1465 C1463 1.419 . S
C1465 C1466 1.362 . S
C1466 H1458 0.930 . S
C1466 C1465 1.362 . S
C1466 C1469 1.409 . S
C1467 H1459 0.930 . S
C1467 C1468 1.355 . S
C1467 C1469 1.415 . S
C1468 C1467 1.355 . S
C1468 C1470 1.419 . S
C1469 C1464 1.425 . S
C1469 C1466 1.409 . S
C1469 C1467 1.415 . S
C1470 H1460 0.930 . S
C1470 C1468 1.419 . S
C1470 C1471 1.362 . S
C1471 H1461 0.930 . S
C1471 C1464 1.409 . S
C1471 C1470 1.362 . S
H1472 C1478 0.930 1_565 S
H1473 C1481 0.930 . S
H1474 C1482 0.930 . S
H1475 C1483 0.930 . S
H1476 C1486 0.930 . S
H1477 C1487 0.930 . S
C1478 H1472 0.930 1_545 S
C1478 C1479 1.355 . S
C1478 C1480 1.415 . S
C1479 C1478 1.355 . S
C1479 C1481 1.419 . S
C1480 C1478 1.415 . S
C1480 C1485 1.425 . S
C1480 C1487 1.409 1_545 S
C1481 H1473 0.930 . S
C1481 C1479 1.419 . S
C1481 C1482 1.362 . S
C1482 H1474 0.930 . S
C1482 C1481 1.362 . S
C1482 C1485 1.409 . S
C1483 H1475 0.930 . S
C1483 C1484 1.355 . S
C1483 C1485 1.415 . S
C1484 C1483 1.355 . S
C1484 C1486 1.419 1_545 S
C1485 C1480 1.425 . S
C1485 C1482 1.409 . S
C1485 C1483 1.415 . S
C1486 H1476 0.930 . S
C1486 C1484 1.419 1_565 S
C1486 C1487 1.362 . S
C1487 H1477 0.930 . S
C1487 C1480 1.409 1_565 S
C1487 C1486 1.362 . S
H1488 C1494 0.930 . S
H1489 C1497 0.930 . S
H1490 C1498 0.930 . S
H1491 C1499 0.930 . S
H1492 C1502 0.930 . S
H1493 C1503 0.930 . S
C1494 H1488 0.930 . S
C1494 C1495 1.355 . S
C1494 C1496 1.415 . S
C1495 C1494 1.355 . S
C1495 C1497 1.419 . S
C1496 C1494 1.415 . S
C1496 C1501 1.425 . S
C1496 C1503 1.409 . S
C1497 H1489 0.930 . S
C1497 C1495 1.419 . S
C1497 C1498 1.362 . S
C1498 H1490 0.930 . S
C1498 C1497 1.362 . S
C1498 C1501 1.409 . S
C1499 H1491 0.930 . S
C1499 C1500 1.355 . S
C1499 C1501 1.415 . S
C1500 C1499 1.355 . S
C1500 C1502 1.419 . S
C1501 C1496 1.425 . S
C1501 C1498 1.409 . S
C1501 C1499 1.415 . S
C1502 H1492 0.930 . S
C1502 C1500 1.419 . S
C1502 C1503 1.362 . S
C1503 H1493 0.930 . S
C1503 C1496 1.409 . S
C1503 C1502 1.362 . S
H1504 C1510 0.930 . S
H1505 C1513 0.930 . S
H1506 C1514 0.930 . S
H1507 C1515 0.930 . S
H1508 C1518 0.930 . S
H1509 C1519 0.930 . S
C1510 H1504 0.930 . S
C1510 C1511 1.355 . S
C1510 C1512 1.415 . S
C1511 C1510 1.355 . S
C1511 C1513 1.419 . S
C1512 C1510 1.415 . S
C1512 C1517 1.425 . S
C1512 C1519 1.409 . S
C1513 H1505 0.930 . S
C1513 C1511 1.419 . S
C1513 C1514 1.362 . S
C1514 H1506 0.930 . S
C1514 C1513 1.362 . S
C1514 C1517 1.409 . S
C1515 H1507 0.930 . S
C1515 C1516 1.355 . S
C1515 C1517 1.415 . S
C1516 C1515 1.355 . S
C1516 C1518 1.419 . S
C1517 C1512 1.425 . S
C1517 C1514 1.409 . S
C1517 C1515 1.415 . S
C1518 H1508 0.930 . S
C1518 C1516 1.419 . S
C1518 C1519 1.362 . S
C1519 H1509 0.930 . S
C1519 C1512 1.409 . S
C1519 C1518 1.362 . S
H1520 C1526 0.930 . S
H1521 C1529 0.930 . S
H1522 C1530 0.930 . S
H1523 C1531 0.930 . S
H1524 C1534 0.930 . S
H1525 C1535 0.930 . S
C1526 H1520 0.930 . S
C1526 C1527 1.355 . S
C1526 C1528 1.415 . S
C1527 C1526 1.355 . S
C1527 C1529 1.419 . S
C1528 C1526 1.415 . S
C1528 C1533 1.425 . S
C1528 C1535 1.409 . S
C1529 H1521 0.930 . S
C1529 C1527 1.419 . S
C1529 C1530 1.362 . S
C1530 H1522 0.930 . S
C1530 C1529 1.362 . S
C1530 C1533 1.409 . S
C1531 H1523 0.930 . S
C1531 C1532 1.355 . S
C1531 C1533 1.415 . S
C1532 C1531 1.355 . S
C1532 C1534 1.419 . S
C1533 C1528 1.425 . S
C1533 C1530 1.409 . S
C1533 C1531 1.415 . S
C1534 H1524 0.930 . S
C1534 C1532 1.419 . S
C1534 C1535 1.362 . S
C1535 H1525 0.930 . S
C1535 C1528 1.409 . S
C1535 C1534 1.362 . S
H1536 C1542 0.930 . S
H1537 C1545 0.930 . S
H1538 C1546 0.930 . S
H1539 C1547 0.930 . S
H1540 C1550 0.930 . S
H1541 C1551 0.930 . S
C1542 H1536 0.930 . S
C1542 C1543 1.355 . S
C1542 C1544 1.415 . S
C1543 C1542 1.355 . S
C1543 C1545 1.419 1_655 S
C1544 C1542 1.415 . S
C1544 C1549 1.425 1_655 S
C1544 C1551 1.409 . S
C1545 H1537 0.930 . S
C1545 C1543 1.419 1_455 S
C1545 C1546 1.362 . S
C1546 H1538 0.930 . S
C1546 C1545 1.362 . S
C1546 C1549 1.409 . S
C1547 H1539 0.930 . S
C1547 C1548 1.355 1_455 S
C1547 C1549 1.415 . S
C1548 C1547 1.355 1_655 S
C1548 C1550 1.419 . S
C1549 C1544 1.425 1_455 S
C1549 C1546 1.409 . S
C1549 C1547 1.415 . S
C1550 H1540 0.930 . S
C1550 C1548 1.419 . S
C1550 C1551 1.362 . S
C1551 H1541 0.930 . S
C1551 C1544 1.409 . S
C1551 C1550 1.362 . S
H1552 C1558 0.930 . S
H1553 C1561 0.930 . S
H1554 C1562 0.930 . S
H1555 C1563 0.930 . S
H1556 C1566 0.930 . S
H1557 C1567 0.930 . S
C1558 H1552 0.930 . S
C1558 C1559 1.355 . S
C1558 C1560 1.415 . S
C1559 C1558 1.355 . S
C1559 C1561 1.419 . S
C1560 C1558 1.415 . S
C1560 C1565 1.425 . S
C1560 C1567 1.409 . S
C1561 H1553 0.930 . S
C1561 C1559 1.419 . S
C1561 C1562 1.362 . S
C1562 H1554 0.930 . S
C1562 C1561 1.362 . S
C1562 C1565 1.409 . S
C1563 H1555 0.930 . S
C1563 C1564 1.355 . S
C1563 C1565 1.415 . S
C1564 C1563 1.355 . S
C1564 C1566 1.419 . S
C1565 C1560 1.425 . S
C1565 C1562 1.409 . S
C1565 C1563 1.415 . S
C1566 H1556 0.930 . S
C1566 C1564 1.419 . S
C1566 C1567 1.362 . S
C1567 H1557 0.930 . S
C1567 C1560 1.409 . S
C1567 C1566 1.362 . S
H1568 C1574 0.930 1_655 S
H1569 C1577 0.930 . S
H1570 C1578 0.930 . S
H1571 C1579 0.930 . S
H1572 C1582 0.930 . S
H1573 C1583 0.930 . S
C1574 H1568 0.930 1_455 S
C1574 C1575 1.355 . S
C1574 C1576 1.415 . S
C1575 C1574 1.355 . S
C1575 C1577 1.419 . S
C1576 C1574 1.415 . S
C1576 C1581 1.425 . S
C1576 C1583 1.409 1_455 S
C1577 H1569 0.930 . S
C1577 C1575 1.419 . S
C1577 C1578 1.362 . S
C1578 H1570 0.930 . S
C1578 C1577 1.362 . S
C1578 C1581 1.409 . S
C1579 H1571 0.930 . S
C1579 C1580 1.355 . S
C1579 C1581 1.415 . S
C1580 C1579 1.355 . S
C1580 C1582 1.419 1_455 S
C1581 C1576 1.425 . S
C1581 C1578 1.409 . S
C1581 C1579 1.415 . S
C1582 H1572 0.930 . S
C1582 C1580 1.419 1_655 S
C1582 C1583 1.362 . S
C1583 H1573 0.930 . S
C1583 C1576 1.409 1_655 S
C1583 C1582 1.362 . S
H1584 C1590 0.930 . S
H1585 C1593 0.930 . S
H1586 C1594 0.930 . S
H1587 C1595 0.930 . S
H1588 C1598 0.930 . S
H1589 C1599 0.930 . S
C1590 H1584 0.930 . S
C1590 C1591 1.355 . S
C1590 C1592 1.415 . S
C1591 C1590 1.355 . S
C1591 C1593 1.419 . S
C1592 C1590 1.415 . S
C1592 C1597 1.425 . S
C1592 C1599 1.409 . S
C1593 H1585 0.930 . S
C1593 C1591 1.419 . S
C1593 C1594 1.362 . S
C1594 H1586 0.930 . S
C1594 C1593 1.362 . S
C1594 C1597 1.409 . S
C1595 H1587 0.930 . S
C1595 C1596 1.355 . S
C1595 C1597 1.415 . S
C1596 C1595 1.355 . S
C1596 C1598 1.419 . S
C1597 C1592 1.425 . S
C1597 C1594 1.409 . S
C1597 C1595 1.415 . S
C1598 H1588 0.930 . S
C1598 C1596 1.419 . S
C1598 C1599 1.362 . S
C1599 H1589 0.930 . S
C1599 C1592 1.409 . S
C1599 C1598 1.362 . S
H1600 C1606 0.930 . S
H1601 C1609 0.930 . S
H1602 C1610 0.930 . S
H1603 C1611 0.930 . S
H1604 C1614 0.930 . S
H1605 C1615 0.930 . S
C1606 H1600 0.930 . S
C1606 C1607 1.355 . S
C1606 C1608 1.415 . S
C1607 C1606 1.355 . S
C1607 C1609 1.419 . S
C1608 C1606 1.415 . S
C1608 C1613 1.425 . S
C1608 C1615 1.409 . S
C1609 H1601 0.930 . S
C1609 C1607 1.419 . S
C1609 C1610 1.362 . S
C1610 H1602 0.930 . S
C1610 C1609 1.362 . S
C1610 C1613 1.409 . S
C1611 H1603 0.930 . S
C1611 C1612 1.355 . S
C1611 C1613 1.415 . S
C1612 C1611 1.355 . S
C1612 C1614 1.419 . S
C1613 C1608 1.425 . S
C1613 C1610 1.409 . S
C1613 C1611 1.415 . S
C1614 H1604 0.930 . S
C1614 C1612 1.419 . S
C1614 C1615 1.362 . S
C1615 H1605 0.930 . S
C1615 C1608 1.409 . S
C1615 C1614 1.362 . S
H1616 C1622 0.930 . S
H1617 C1625 0.930 . S
H1618 C1626 0.930 . S
H1619 C1627 0.930 . S
H1620 C1630 0.930 . S
H1621 C1631 0.930 . S
C1622 H1616 0.930 . S
C1622 C1623 1.355 . S
C1622 C1624 1.415 . S
C1623 C1622 1.355 . S
C1623 C1625 1.419 . S
C1624 C1622 1.415 . S
C1624 C1629 1.425 . S
C1624 C1631 1.409 . S
C1625 H1617 0.930 . S
C1625 C1623 1.419 . S
C1625 C1626 1.362 . S
C1626 H1618 0.930 . S
C1626 C1625 1.362 . S
C1626 C1629 1.409 . S
C1627 H1619 0.930 . S
C1627 C1628 1.355 . S
C1627 C1629 1.415 . S
C1628 C1627 1.355 . S
C1628 C1630 1.419 . S
C1629 C1624 1.425 . S
C1629 C1626 1.409 . S
C1629 C1627 1.415 . S
C1630 H1620 0.930 . S
C1630 C1628 1.419 . S
C1630 C1631 1.362 . S
C1631 H1621 0.930 . S
C1631 C1624 1.409 . S
C1631 C1630 1.362 . S
H1632 C1638 0.930 . S
H1633 C1641 0.930 . S
H1634 C1642 0.930 . S
H1635 C1643 0.930 . S
H1636 C1646 0.930 . S
H1637 C1647 0.930 . S
C1638 H1632 0.930 . S
C1638 C1639 1.355 . S
C1638 C1640 1.415 . S
C1639 C1638 1.355 . S
C1639 C1641 1.419 . S
C1640 C1638 1.415 . S
C1640 C1645 1.425 . S
C1640 C1647 1.409 . S
C1641 H1633 0.930 . S
C1641 C1639 1.419 . S
C1641 C1642 1.362 . S
C1642 H1634 0.930 . S
C1642 C1641 1.362 . S
C1642 C1645 1.409 . S
C1643 H1635 0.930 . S
C1643 C1644 1.355 . S
C1643 C1645 1.415 . S
C1644 C1643 1.355 . S
C1644 C1646 1.419 . S
C1645 C1640 1.425 . S
C1645 C1642 1.409 . S
C1645 C1643 1.415 . S
C1646 H1636 0.930 . S
C1646 C1644 1.419 . S
C1646 C1647 1.362 . S
C1647 H1637 0.930 . S
C1647 C1640 1.409 . S
C1647 C1646 1.362 . S
H1648 C1654 0.930 . S
H1649 C1657 0.930 . S
H1650 C1658 0.930 . S
H1651 C1659 0.930 . S
H1652 C1662 0.930 . S
H1653 C1663 0.930 . S
C1654 H1648 0.930 . S
C1654 C1655 1.355 . S
C1654 C1656 1.415 . S
C1655 C1654 1.355 . S
C1655 C1657 1.419 . S
C1656 C1654 1.415 . S
C1656 C1661 1.425 . S
C1656 C1663 1.409 . S
C1657 H1649 0.930 . S
C1657 C1655 1.419 . S
C1657 C1658 1.362 . S
C1658 H1650 0.930 . S
C1658 C1657 1.362 . S
C1658 C1661 1.409 . S
C1659 H1651 0.930 . S
C1659 C1660 1.355 . S
C1659 C1661 1.415 . S
C1660 C1659 1.355 . S
C1660 C1662 1.419 . S
C1661 C1656 1.425 . S
C1661 C1658 1.409 . S
C1661 C1659 1.415 . S
C1662 H1652 0.930 . S
C1662 C1660 1.419 . S
C1662 C1663 1.362 . S
C1663 H1653 0.930 . S
C1663 C1656 1.409 . S
C1663 C1662 1.362 . S
H1664 C1670 0.930 . S
H1665 C1673 0.930 . S
H1666 C1674 0.930 . S
H1667 C1675 0.930 . S
H1668 C1678 0.930 . S
H1669 C1679 0.930 . S
C1670 H1664 0.930 . S
C1670 C1671 1.355 . S
C1670 C1672 1.415 . S
C1671 C1670 1.355 . S
C1671 C1673 1.419 . S
C1672 C1670 1.415 . S
C1672 C1677 1.425 . S
C1672 C1679 1.409 . S
C1673 H1665 0.930 . S
C1673 C1671 1.419 . S
C1673 C1674 1.362 . S
C1674 H1666 0.930 . S
C1674 C1673 1.362 . S
C1674 C1677 1.409 . S
C1675 H1667 0.930 . S
C1675 C1676 1.355 . S
C1675 C1677 1.415 . S
C1676 C1675 1.355 . S
C1676 C1678 1.419 . S
C1677 C1672 1.425 . S
C1677 C1674 1.409 . S
C1677 C1675 1.415 . S
C1678 H1668 0.930 . S
C1678 C1676 1.419 . S
C1678 C1679 1.362 . S
C1679 H1669 0.930 . S
C1679 C1672 1.409 . S
C1679 C1678 1.362 . S
H1680 C1686 0.930 . S
H1681 C1689 0.930 . S
H1682 C1690 0.930 . S
H1683 C1691 0.930 . S
H1684 C1694 0.930 . S
H1685 C1695 0.930 . S
C1686 H1680 0.930 . S
C1686 C1687 1.355 . S
C1686 C1688 1.415 . S
C1687 C1686 1.355 . S
C1687 C1689 1.419 . S
C1688 C1686 1.415 . S
C1688 C1693 1.425 . S
C1688 C1695 1.409 . S
C1689 H1681 0.930 . S
C1689 C1687 1.419 . S
C1689 C1690 1.362 . S
C1690 H1682 0.930 . S
C1690 C1689 1.362 . S
C1690 C1693 1.409 . S
C1691 H1683 0.930 . S
C1691 C1692 1.355 . S
C1691 C1693 1.415 . S
C1692 C1691 1.355 . S
C1692 C1694 1.419 . S
C1693 C1688 1.425 . S
C1693 C1690 1.409 . S
C1693 C1691 1.415 . S
C1694 H1684 0.930 . S
C1694 C1692 1.419 . S
C1694 C1695 1.362 . S
C1695 H1685 0.930 . S
C1695 C1688 1.409 . S
C1695 C1694 1.362 . S
H1696 C1702 0.930 . S
H1697 C1705 0.930 . S
H1698 C1706 0.930 . S
H1699 C1707 0.930 . S
H1700 C1710 0.930 . S
H1701 C1711 0.930 . S
C1702 H1696 0.930 . S
C1702 C1703 1.355 . S
C1702 C1704 1.415 . S
C1703 C1702 1.355 . S
C1703 C1705 1.419 . S
C1704 C1702 1.415 . S
C1704 C1709 1.425 . S
C1704 C1711 1.409 . S
C1705 H1697 0.930 . S
C1705 C1703 1.419 . S
C1705 C1706 1.362 . S
C1706 H1698 0.930 . S
C1706 C1705 1.362 . S
C1706 C1709 1.409 . S
C1707 H1699 0.930 . S
C1707 C1708 1.355 . S
C1707 C1709 1.415 . S
C1708 C1707 1.355 . S
C1708 C1710 1.419 . S
C1709 C1704 1.425 . S
C1709 C1706 1.409 . S
C1709 C1707 1.415 . S
C1710 H1700 0.930 . S
C1710 C1708 1.419 . S
C1710 C1711 1.362 . S
C1711 H1701 0.930 . S
C1711 C1704 1.409 . S
C1711 C1710 1.362 . S
H1712 C1718 0.926 1_554 S
H1713 C1721 0.930 . S
H1714 C1722 0.930 . S
H1715 C1723 0.930 . S
H1716 C1726 0.930 . S
H1717 C1727 0.930 . S
C1718 H1712 0.926 1_556 S
C1718 C1719 1.355 . S
C1718 C1720 1.415 . S
C1719 C1718 1.355 . S
C1719 C1721 1.419 . S
C1720 C1718 1.415 . S
C1720 C1725 1.425 . S
C1720 C1727 1.409 1_556 S
C1721 H1713 0.930 . S
C1721 C1719 1.419 . S
C1721 C1722 1.362 . S
C1722 H1714 0.930 . S
C1722 C1721 1.362 . S
C1722 C1725 1.409 . S
C1723 H1715 0.930 . S
C1723 C1724 1.355 . S
C1723 C1725 1.415 . S
C1724 C1723 1.355 . S
C1724 C1726 1.419 1_556 S
C1725 C1720 1.425 . S
C1725 C1722 1.409 . S
C1725 C1723 1.415 . S
C1726 H1716 0.930 . S
C1726 C1724 1.419 1_554 S
C1726 C1727 1.362 . S
C1727 H1717 0.930 . S
C1727 C1720 1.409 1_554 S
C1727 C1726 1.362 . S
H1728 C1734 0.930 . S
H1729 C1737 0.930 . S
H1730 C1738 0.930 . S
H1731 C1739 0.930 . S
H1732 C1742 0.930 . S
H1733 C1743 0.930 . S
C1734 H1728 0.930 . S
C1734 C1735 1.355 . S
C1734 C1736 1.415 . S
C1735 C1734 1.355 . S
C1735 C1737 1.419 . S
C1736 C1734 1.415 . S
C1736 C1741 1.425 . S
C1736 C1743 1.409 . S
C1737 H1729 0.930 . S
C1737 C1735 1.419 . S
C1737 C1738 1.362 . S
C1738 H1730 0.930 . S
C1738 C1737 1.362 . S
C1738 C1741 1.409 . S
C1739 H1731 0.930 . S
C1739 C1740 1.355 . S
C1739 C1741 1.415 . S
C1740 C1739 1.355 . S
C1740 C1742 1.419 . S
C1741 C1736 1.425 . S
C1741 C1738 1.409 . S
C1741 C1739 1.415 . S
C1742 H1732 0.930 . S
C1742 C1740 1.419 . S
C1742 C1743 1.362 . S
C1743 H1733 0.930 . S
C1743 C1736 1.409 . S
C1743 C1742 1.362 . S
H1744 C1750 0.930 . S
H1745 C1753 0.930 . S
H1746 C1754 0.930 . S
H1747 C1755 0.930 . S
H1748 C1758 0.930 1_556 S
H1749 C1759 0.930 . S
C1750 H1744 0.930 . S
C1750 C1751 1.355 . S
C1750 C1752 1.415 . S
C1751 C1750 1.355 . S
C1751 C1753 1.419 . S
C1752 C1750 1.415 . S
C1752 C1757 1.425 . S
C1752 C1759 1.409 . S
C1753 H1745 0.930 . S
C1753 C1751 1.419 . S
C1753 C1754 1.362 . S
C1754 H1746 0.930 . S
C1754 C1753 1.362 . S
C1754 C1757 1.409 . S
C1755 H1747 0.930 . S
C1755 C1756 1.355 . S
C1755 C1757 1.415 . S
C1756 C1755 1.355 . S
C1756 C1758 1.419 . S
C1757 C1752 1.425 . S
C1757 C1754 1.409 . S
C1757 C1755 1.415 . S
C1758 H1748 0.930 1_554 S
C1758 C1756 1.419 . S
C1758 C1759 1.362 . S
C1759 H1749 0.930 . S
C1759 C1752 1.409 . S
C1759 C1758 1.362 . S
H1760 C1766 0.930 . S
H1761 C1769 0.930 . S
H1762 C1770 0.930 . S
H1763 C1771 0.930 . S
H1764 C1774 0.930 . S
H1765 C1775 0.930 . S
C1766 H1760 0.930 . S
C1766 C1767 1.355 . S
C1766 C1768 1.415 . S
C1767 C1766 1.355 . S
C1767 C1769 1.419 . S
C1768 C1766 1.415 . S
C1768 C1773 1.425 . S
C1768 C1775 1.409 . S
C1769 H1761 0.930 . S
C1769 C1767 1.419 . S
C1769 C1770 1.362 . S
C1770 H1762 0.930 . S
C1770 C1769 1.362 . S
C1770 C1773 1.409 . S
C1771 H1763 0.930 . S
C1771 C1772 1.355 . S
C1771 C1773 1.415 . S
C1772 C1771 1.355 . S
C1772 C1774 1.419 . S
C1773 C1768 1.425 . S
C1773 C1770 1.409 . S
C1773 C1771 1.415 . S
C1774 H1764 0.930 . S
C1774 C1772 1.419 . S
C1774 C1775 1.362 . S
C1775 H1765 0.930 . S
C1775 C1768 1.409 . S
C1775 C1774 1.362 . S
C1020 C578 1.424 . S
C1015 C181 1.453 . S
C1036 C626 1.587 . S
C1031 C247 1.655 . S
C1047 C283 1.453 . S
C1052 C662 1.355 . S
C1068 C698 1.530 . S
C1063 C169 1.611 . S
C1084 C724 1.505 . S
C1079 C361 1.508 . S
C1100 C760 1.572 . S
C1095 C433 1.576 . S
C1111 C421 1.517 . S
C1116 C795 1.516 . S
C1132 C832 1.601 1_565 S
C1127 C355 1.602 . S
C1143 C427 1.475 . S
C1148 C866 1.464 . S
C1164 C914 1.567 . S
C1159 C325 1.593 . S
C1175 C385 1.479 . S
C1180 C867 1.479 . S
C1196 C904 1.606 . S
C1191 C463 1.589 . S
C1207 C253 1.495 . S
C1212 C950 1.415 . S
C1223 C145 1.598 . S
C1228 C939 1.605 . S
C1239 C205 1.511 . S
C1244 C940 1.506 . S
C1255 C217 1.627 . S
C1260 C938 1.630 1_655 S
C1271 C139 1.482 . S
C1276 C686 1.452 . S
C1287 C535 1.462 . S
C1292 C687 1.467 . S
C1308 C590 1.574 . S
C1303 C565 1.620 . S
C1324 C615 1.483 . S
C1319 C313 1.485 . S
C1335 C175 1.628 . S
C1340 C722 1.632 . S
C1356 C830 1.485 . S
C1351 C397 1.503 . S
C1372 C723 1.570 . S
C1367 C349 1.582 . S
C1388 C796 1.597 . S
C1383 C457 1.580 . S
C1404 C794 1.460 . S
C1399 C505 1.478 . S
C1415 C571 1.656 . S
C1420 C842 1.580 . S
C1431 C319 1.449 . S
C1436 C734 1.346 . S
C1452 C770 1.532 . S
C1447 C493 1.600 . S
C1463 C109 1.482 . S
C1468 C652 1.481 . S
C1484 C688 1.567 . S
C1479 C1 1.572 . S
C1500 C579 1.506 . S
C1495 C61 1.499 . S
C1516 C616 1.592 . S
C1511 C103 1.609 . S
C1527 C67 1.466 . S
C1532 C902 1.432 . S
C1543 C73 1.590 . S
C1548 C878 1.520 . S
C1559 C133 1.478 . S
C1564 C903 1.479 . S
C1575 C31 1.605 . S
C1580 C868 1.604 . S
C1596 C986 1.429 . S
C1591 C289 1.498 . S
C1612 C975 1.608 . S
C1607 C469 1.601 . S
C1628 C976 1.505 . S
C1623 C529 1.511 . S
C1639 C541 1.625 . S
C1644 C974 1.609 . S
C1655 C391 1.505 . S
C1660 C758 1.482 . S
C1676 C759 1.456 . S
C1671 C211 1.451 . S
C1692 C806 1.536 . S
C1687 C241 1.613 . S
C1708 C831 1.473 . S
C1703 C277 1.476 . S
C1719 C499 1.607 . S
C1724 C650 1.611 . S
C1740 C614 1.502 . S
C1735 C37 1.511 . S
C1751 C97 1.588 . S
C1756 C651 1.571 . S
C1772 C580 1.595 . S
C1767 C25 1.580 . S
