# Generated by pormake.
# Topology rtl, (3,6)-cn, num edge types: 1
# Building blocks:
#     Node 0, Type 0, BuildingBlock: INOVEN_clean_linker_0, # of connection points: 3
#     Node 1, Type 0, BuildingBlock: INOVEN_clean_linker_0, # of connection points: 3
#     Node 2, Type 0, BuildingBlock: INOVEN_clean_linker_0, # of connection points: 3
#     Node 3, Type 0, BuildingBlock: INOVEN_clean_linker_0, # of connection points: 3
#     Node 4, Type 1, BuildingBlock: VOLQOD_clean_sbu_1, # of connection points: 6
#     Node 5, Type 1, BuildingBlock: VOLQOD_clean_sbu_1, # of connection points: 6
#     Edge 6, Type (0, 1), BuildingBlock: XUDNAN_clean_linker_2, # of connection points: 2
#     Edge 7, Type (0, 1), BuildingBlock: XUDNAN_clean_linker_2, # of connection points: 2
#     Edge 8, Type (0, 1), BuildingBlock: XUDNAN_clean_linker_2, # of connection points: 2
#     Edge 9, Type (0, 1), BuildingBlock: XUDNAN_clean_linker_2, # of connection points: 2
#     Edge 10, Type (0, 1), BuildingBlock: XUDNAN_clean_linker_2, # of connection points: 2
#     Edge 11, Type (0, 1), BuildingBlock: XUDNAN_clean_linker_2, # of connection points: 2
#     Edge 12, Type (0, 1), BuildingBlock: XUDNAN_clean_linker_2, # of connection points: 2
#     Edge 13, Type (0, 1), BuildingBlock: XUDNAN_clean_linker_2, # of connection points: 2
#     Edge 14, Type (0, 1), BuildingBlock: XUDNAN_clean_linker_2, # of connection points: 2
#     Edge 15, Type (0, 1), BuildingBlock: XUDNAN_clean_linker_2, # of connection points: 2
#     Edge 16, Type (0, 1), BuildingBlock: XUDNAN_clean_linker_2, # of connection points: 2
#     Edge 17, Type (0, 1), BuildingBlock: XUDNAN_clean_linker_2, # of connection points: 2
# Relax obj value: 0.042
# Max RMSD: 0.144
# Mean RMSD: 0.093
data_MOF--net-rtl--node1-VOLQOD_clean_sbu_1--node2-INOVEN_clean_linker_0--edge1-XUDNAN_clean_linker_2
_symmetry_space_group_name_H-M    P1
_symmetry_Int_Tables_number       1
_symmetry_cell_setting            triclinic
loop_
_symmetry_equiv_pos_as_xyz
'x, y, z'
_cell_length_a     37.682401
_cell_length_b     37.415481
_cell_length_c     22.024679
_cell_angle_alpha  90.840443
_cell_angle_beta   92.125416
_cell_angle_gamma 90.730314
loop_
_atom_site_label
_atom_site_type_symbol
_atom_site_fract_x
_atom_site_fract_y
_atom_site_fract_z
_atom_type_partial_charge
H0 H 0.16798 0.76366 0.90025 0.0
H1 H 0.1059 0.83243 0.01176 0.0
H2 H 0.1926 0.77369 0.09192 0.0
N3 N 0.21134 0.74151 0.98628 0.0
N4 N 0.23079 0.73009 0.02862 0.0
C5 C 0.16168 0.77445 0.94444 0.0
C6 C 0.13407 0.79901 0.94964 0.0
C7 C 0.18263 0.7649 -0.00465 0.0
C8 C 0.17595 0.78013 0.05252 0.0
C9 C 0.14805 0.80432 0.05851 0.0
C10 C 0.12702 0.81326 0.00717 0.0
H11 H 0.67359 0.75733 0.63894 0.0
H12 H 0.61983 0.66574 0.55566 0.0
H13 H 0.68167 0.73595 0.44775 0.0
N14 N 0.703 0.78034 0.53981 0.0
N15 N 0.72594 0.78235 0.50053 0.0
C16 C 0.66644 0.74105 0.59914 0.0
C17 C 0.64479 0.71046 0.6044 0.0
C18 C 0.68013 0.75009 0.54305 0.0
C19 C 0.67133 0.72891 0.49132 0.0
C20 C 0.64873 0.69902 0.49551 0.0
C21 C 0.63565 0.68998 0.55205 0.0
H22 H 0.81846 0.22761 0.90307 0.0
H23 H 0.90506 0.1758 -0.00222 0.0
H24 H 0.83199 0.23937 0.09684 0.0
N25 N 0.79523 0.26219 -0.00423 0.0
N26 N 0.7764 0.27069 0.03892 0.0
C27 C 0.83322 0.22135 0.94461 0.0
C28 C 0.86279 0.19897 0.94316 0.0
C29 C 0.82209 0.2361 -0.00067 0.0
C30 C 0.84014 0.22774 0.05431 0.0
C31 C 0.87027 0.20599 0.05336 0.0
C32 C 0.88143 0.192 -0.00209 0.0
H33 H 0.3201 0.25835 0.41498 0.0
H34 H 0.38506 0.34396 0.49171 0.0
H35 H 0.32946 0.27395 0.60938 0.0
N36 N 0.29816 0.23319 0.51877 0.0
N37 N 0.2891 0.22256 0.56942 0.0
C38 C 0.33187 0.27226 0.45444 0.0
C39 C 0.35475 0.30157 0.44679 0.0
C40 C 0.32322 0.2615 0.51295 0.0
C41 C 0.33723 0.28082 0.5641 0.0
C42 C 0.35922 0.31082 0.55642 0.0
C43 C 0.36858 0.32037 0.49783 0.0
O44 O 0.92096 0.988 0.47806 0.0
Zn45 Zn 0.95978 0.02512 0.48449 0.0
O46 O 0.00595 0.00342 0.49727 0.0
Zn47 Zn 0.02345 0.01382 0.58057 0.0
Zn48 Zn 1.00086 0.95165 0.48391 0.0
Zn49 Zn 0.03869 0.0237 0.43995 0.0
O50 O 0.06934 0.04239 0.58103 0.0
O51 O 0.07878 0.05079 0.4834 0.0
O52 O 0.94884 0.05742 0.554 0.0
O53 O 0.98874 0.04372 0.62648 0.0
O54 O 0.03295 0.96841 0.6257 0.0
O55 O 0.01956 0.9254 0.55781 0.0
O56 O 0.02949 0.93531 0.41302 0.0
O57 O 0.95766 0.05539 0.41045 0.0
O58 O 0.06026 0.9843 0.39071 0.0
O59 O 0.01366 0.05805 0.38281 0.0
C60 C 0.92052 0.9541 0.4723 0.0
C61 C 0.08778 0.05554 0.53926 0.0
C62 C 0.03079 0.93541 0.61072 0.0
C63 C 0.96144 0.06078 0.60813 0.0
C64 C 0.05324 0.95109 0.38312 0.0
C65 C 0.98132 0.06732 0.37608 0.0
O66 O 0.94923 0.93649 0.47129 0.0
O67 O 0.58575 0.47306 0.02406 0.0
Zn68 Zn 0.55494 0.51528 0.03484 0.0
O69 O 0.50523 0.50197 0.02887 0.0
Zn70 Zn 0.48609 0.52347 0.9556 0.0
Zn71 Zn 0.50115 0.44929 0.02228 0.0
Zn72 Zn 0.48033 0.52116 0.09961 0.0
O73 O 0.44662 0.55566 0.97452 0.0
O74 O 0.44246 0.55761 0.07458 0.0
O75 O 0.56888 0.55158 0.97382 0.0
O76 O 0.52123 0.55389 0.91243 0.0
O77 O 0.46583 0.48637 0.89899 0.0
O78 O 0.47428 0.43409 0.94332 0.0
O79 O 0.47303 0.43084 0.0918 0.0
O80 O 0.56671 0.53689 0.11546 0.0
O81 O 0.4549 0.4801 0.13935 0.0
O82 O 0.51586 0.54469 0.16144 0.0
C83 C 0.58078 0.4394 0.02215 0.0
C84 C 0.43212 0.56756 0.02172 0.0
C85 C 0.46213 0.45256 0.89913 0.0
C86 C 0.55289 0.56369 0.92684 0.0
C87 C 0.45531 0.44617 0.13269 0.0
C88 C 0.54964 0.54797 0.16054 0.0
O89 O 0.54973 0.42557 0.02376 0.0
H90 H 0.24918 0.18893 0.47872 0.0
H91 H 0.26901 0.1957 0.6736 0.0
H92 H 0.22093 0.15104 0.68809 0.0
H93 H 0.15557 0.18306 0.48217 0.0
H94 H 0.15057 0.15211 0.41885 0.0
H95 H 0.18794 0.18259 0.4239 0.0
H96 H 0.23103 0.12936 0.41683 0.0
H97 H 0.19375 0.0987 0.41157 0.0
H98 H 0.22797 0.09335 0.46997 0.0
H99 H 0.16885 0.1081 0.68102 0.0
H100 H 0.11676 0.06975 0.65346 0.0
H101 H 0.13122 0.09146 0.46266 0.0
C102 C 0.24372 0.18066 0.52437 0.0
C103 C 0.26283 0.19543 0.57544 0.0
C104 C 0.25463 0.18432 0.6343 0.0
C105 C 0.22747 0.15908 0.64281 0.0
C106 C 0.20884 0.14524 0.59169 0.0
C107 C 0.21668 0.15555 0.5336 0.0
C108 C 0.19182 0.13766 0.4865 0.0
C109 C 0.1702 0.16552 0.45078 0.0
C110 C 0.21238 0.11332 0.4437 0.0
C111 C 0.1685 0.11604 0.52719 0.0
C112 C 0.17883 0.12063 0.58767 0.0
C113 C 0.16065 0.10411 0.63377 0.0
C114 C 0.13105 0.0824 0.61763 0.0
C115 C 0.11985 0.07747 0.55587 0.0
C116 C 0.13911 0.09444 0.51027 0.0
H117 H 0.27175 0.69618 0.11123 0.0
H118 H 0.25564 0.71304 0.91768 0.0
H119 H 0.30601 0.67415 0.89717 0.0
H120 H 0.36813 0.69434 0.11254 0.0
H121 H 0.37194 0.65938 0.16776 0.0
H122 H 0.33471 0.68913 0.16836 0.0
H123 H 0.29134 0.63486 0.16006 0.0
H124 H 0.32842 0.60496 0.15951 0.0
H125 H 0.29513 0.60293 0.09861 0.0
H126 H 0.35702 0.6342 0.89631 0.0
H127 H 0.40627 0.59324 0.91424 0.0
H128 H 0.3909 0.59986 0.10884 0.0
C129 C 0.27903 0.69156 0.0647 0.0
C130 C 0.2598 0.70751 0.01623 0.0
C131 C 0.26984 0.70101 0.95564 0.0
C132 C 0.2985 0.67901 0.94348 0.0
C133 C 0.31684 0.66362 0.99221 0.0
C134 C 0.30762 0.66938 0.05163 0.0
C135 C 0.33175 0.64882 0.09514 0.0
C136 C 0.35289 0.67446 0.13851 0.0
C137 C 0.31038 0.62126 0.1304 0.0
C138 C 0.35585 0.63067 0.05066 0.0
C139 C 0.34664 0.63985 0.99167 0.0
C140 C 0.36454 0.62674 0.94225 0.0
C141 C 0.39257 0.60339 0.95313 0.0
C142 C 0.40262 0.59312 0.01308 0.0
C143 C 0.38396 0.60715 0.06255 0.0
H144 H 0.7906 0.78332 0.45568 0.0
H145 H 0.71153 0.85022 0.53641 0.0
H146 H 0.7516 0.90281 0.52951 0.0
H147 H 0.86441 0.82358 0.53687 0.0
H148 H 0.89439 0.81964 0.47529 0.0
H149 H 0.85818 0.78817 0.48093 0.0
H150 H 0.83598 0.8035 0.37172 0.0
H151 H 0.8721 0.83515 0.36586 0.0
H152 H 0.82694 0.84933 0.35304 0.0
H153 H 0.80043 0.94751 0.51557 0.0
H154 H 0.85677 0.9806 0.50548 0.0
H155 H 0.90615 0.88382 0.44004 0.0
C156 C 0.7818 0.80922 0.47118 0.0
C157 C 0.74822 0.81296 0.49631 0.0
C158 C 0.73735 0.84694 0.51721 0.0
C159 C 0.7598 0.87691 0.5131 0.0
C160 C 0.79305 0.87228 0.4886 0.0
C161 C 0.80422 0.83923 0.46861 0.0
C162 C 0.84229 0.841 0.44878 0.0
C163 C 0.86622 0.81666 0.48781 0.0
C164 C 0.84444 0.8317 0.3808 0.0
C165 C 0.85087 0.88014 0.46128 0.0
C166 C 0.82187 0.89779 0.48315 0.0
C167 C 0.82332 0.93401 0.49845 0.0
C168 C 0.85546 0.95259 0.49236 0.0
C169 C 0.88595 0.93481 0.47206 0.0
C170 C 0.88336 0.89816 0.4557 0.0
H171 H 0.71265 0.27642 0.08986 0.0
H172 H 0.78529 0.32905 0.97077 0.0
H173 H 0.74232 0.37726 0.95361 0.0
H174 H 0.63322 0.29601 0.00039 0.0
H175 H 0.60588 0.30334 0.06473 0.0
H176 H 0.64289 0.27341 0.07071 0.0
H177 H 0.66875 0.3096 0.16364 0.0
H178 H 0.63169 0.33948 0.15819 0.0
H179 H 0.67643 0.35702 0.15705 0.0
H180 H 0.69312 0.41974 0.94993 0.0
H181 H 0.63843 0.45456 0.95762 0.0
H182 H 0.59429 0.37372 0.07351 0.0
C183 C 0.71936 0.29834 0.06066 0.0
C184 C 0.75207 0.2991 0.03147 0.0
C185 C 0.76017 0.32791 -0.00694 0.0
C186 C 0.73601 0.35541 0.98316 0.0
C187 C 0.70368 0.35359 0.01152 0.0
C188 C 0.69509 0.32585 0.04929 0.0
C189 C 0.65785 0.3302 0.07233 0.0
C190 C 0.63353 0.29887 0.05073 0.0
C191 C 0.65875 0.33433 0.14194 0.0
C192 C 0.64712 0.36475 0.04173 0.0
C193 C 0.67423 0.37776 0.00733 0.0
C194 C 0.67156 0.40979 0.97637 0.0
C195 C 0.64044 0.42937 0.98107 0.0
C196 C 0.61215 0.41666 0.01574 0.0
C197 C 0.61535 0.3837 0.04595 0.0
H198 H 0.08659 0.80825 0.12014 0.0
H199 H 0.19649 0.84411 0.12558 0.0
H200 H 0.18486 0.88378 0.21336 0.0
H201 H 0.04854 0.88992 0.1522 0.0
H202 H 0.01461 0.87286 0.2 0.0
H203 H 0.03222 0.84465 0.14182 0.0
H204 H 0.04921 0.79721 0.22195 0.0
H205 H 0.03118 0.82505 0.28041 0.0
H206 H 0.07642 0.81017 0.28786 0.0
H207 H 0.15916 0.92542 0.28983 0.0
H208 H 0.12311 0.96069 0.35993 0.0
H209 H 0.0308 0.89474 0.31004 0.0
C210 C 0.10832 0.82385 0.14094 0.0
C211 C 0.14246 0.82314 0.11671 0.0
C212 C 0.1703 0.84404 0.1443 0.0
C213 C 0.16388 0.86674 0.19381 0.0
C214 C 0.12964 0.86761 0.21565 0.0
C215 C 0.1025 0.84613 0.19103 0.0
C216 C 0.0679 0.85286 0.22191 0.0
C217 C 0.03914 0.86585 0.17625 0.0
C218 C 0.05545 0.81933 0.25501 0.0
C219 C 0.07955 0.88228 0.26646 0.0
C220 C 0.11522 0.89053 0.26184 0.0
C221 C 0.13141 0.91871 0.29483 0.0
C222 C 0.1107 0.93873 0.33411 0.0
C223 C 0.07436 0.93013 0.34064 0.0
C224 C 0.0587 0.90142 0.3066 0.0
H225 H 0.58057 0.68185 0.63472 0.0
H226 H 0.68601 0.70836 0.7093 0.0
H227 H 0.67195 0.67792 0.80425 0.0
H228 H 0.53328 0.68763 0.77987 0.0
H229 H 0.50484 0.65001 0.75883 0.0
H230 H 0.52124 0.67885 0.70102 0.0
H231 H 0.54735 0.62392 0.64619 0.0
H232 H 0.53149 0.595 0.70408 0.0
H233 H 0.57794 0.5956 0.68724 0.0
H234 H 0.6494 0.63794 0.88507 0.0
H235 H 0.61876 0.59429 0.94841 0.0
H236 H 0.52851 0.59279 0.81976 0.0
C237 C 0.60046 0.68187 0.67148 0.0
C238 C 0.63433 0.69762 0.66468 0.0
C239 C 0.65966 0.69706 0.71384 0.0
C240 C 0.652 0.67962 0.76782 0.0
C241 C 0.61884 0.66313 0.77202 0.0
C242 C 0.59331 0.66449 0.72545 0.0
C243 C 0.56081 0.64234 0.73937 0.0
C244 C 0.52811 0.66614 0.74513 0.0
C245 C 0.55403 0.61245 0.69137 0.0
C246 C 0.57251 0.62732 0.80015 0.0
C247 C 0.6059 0.63989 0.81849 0.0
C248 C 0.62302 0.62832 0.87163 0.0
C249 C 0.60546 0.60335 0.90712 0.0
C250 C 0.57118 0.59011 0.88916 0.0
C251 C 0.55457 0.60251 0.83503 0.0
H252 H 0.84789 0.16943 0.15154 0.0
H253 H 0.94008 0.22066 0.07732 0.0
H254 H 0.97852 0.19415 0.15759 0.0
H255 H 0.87979 0.17473 0.31631 0.0
H256 H 0.86091 0.13138 0.33127 0.0
H257 H 0.84015 0.1595 0.27486 0.0
H258 H 0.84414 0.10822 0.19521 0.0
H259 H 0.86556 0.08022 0.2508 0.0
H260 H 0.88678 0.08924 0.18053 0.0
H261 H 0.00769 0.15493 0.23476 0.0
H262 H 0.02522 0.10995 0.31075 0.0
H263 H 0.91403 0.08421 0.33553 0.0
C264 C 0.87594 0.17622 0.15406 0.0
C265 C 0.89113 0.19739 0.10916 0.0
C266 C 0.92809 0.2048 0.11206 0.0
C267 C 0.95007 0.1898 0.15728 0.0
C268 C 0.93459 0.16763 0.19937 0.0
C269 C 0.8983 0.16132 0.19892 0.0
C270 C 0.88887 0.13404 0.24605 0.0
C271 C 0.86609 0.15093 0.29504 0.0
C272 C 0.87025 0.10099 0.21634 0.0
C273 C 0.92555 0.12515 0.27144 0.0
C274 C 0.95154 0.14495 0.24418 0.0
C275 C 0.98755 0.13973 0.25732 0.0
C276 C 0.99727 0.1139 0.30016 0.0
C277 C 0.97104 0.09364 0.32932 0.0
C278 C 0.93474 0.09951 0.31457 0.0
H279 H 0.39623 0.29692 0.66405 0.0
H280 H 0.34287 0.38059 0.56309 0.0
H281 H 0.36079 0.42451 0.64315 0.0
H282 H 0.37605 0.33132 0.8176 0.0
H283 H 0.41885 0.31954 0.85009 0.0
H284 H 0.39934 0.29357 0.78755 0.0
H285 H 0.45573 0.30429 0.72622 0.0
H286 H 0.47532 0.33043 0.78836 0.0
H287 H 0.47081 0.34943 0.71378 0.0
H288 H 0.38714 0.45982 0.72756 0.0
H289 H 0.42028 0.48601 0.81535 0.0
H290 H 0.45791 0.38068 0.86543 0.0
C291 C 0.38793 0.32439 0.65968 0.0
C292 C 0.36827 0.33559 0.60762 0.0
C293 C 0.35813 0.37172 0.6026 0.0
C294 C 0.36804 0.39677 0.64786 0.0
C295 C 0.38805 0.38523 0.69797 0.0
C296 C 0.39786 0.35 0.70461 0.0
C297 C 0.42102 0.34555 0.76191 0.0
C298 C 0.40271 0.32104 0.80696 0.0
C299 C 0.45791 0.33161 0.74663 0.0
C300 C 0.42314 0.38392 0.78545 0.0
C301 C 0.40364 0.4061 0.74775 0.0
C302 C 0.40229 0.44277 0.75783 0.0
C303 C 0.42144 0.45738 0.80781 0.0
C304 C 0.44183 0.43545 0.84743 0.0
C305 C 0.44241 0.3981 0.83627 0.0
H306 H 0.58325 0.67376 0.45532 0.0
H307 H 0.69512 0.67186 0.41541 0.0
H308 H 0.68163 0.63086 0.32843 0.0
H309 H 0.56313 0.58139 0.41711 0.0
H310 H 0.52006 0.59045 0.38285 0.0
H311 H 0.53833 0.61928 0.44269 0.0
H312 H 0.53102 0.67409 0.37299 0.0
H313 H 0.51251 0.64548 0.3131 0.0
H314 H 0.55056 0.67353 0.29949 0.0
H315 H 0.65674 0.58992 0.24825 0.0
H316 H 0.62158 0.55483 0.17235 0.0
H317 H 0.52468 0.58385 0.26122 0.0
C318 C 0.60484 0.6646 0.4282 0.0
C319 C 0.64024 0.67588 0.44181 0.0
C320 C 0.66783 0.66375 0.4052 0.0
C321 C 0.66045 0.64029 0.35613 0.0
C322 C 0.62534 0.62946 0.34421 0.0
C323 C 0.59789 0.64143 0.37864 0.0
C324 C 0.56239 0.62648 0.35458 0.0
C325 C 0.54496 0.603 0.40215 0.0
C326 C 0.53767 0.6567 0.33379 0.0
C327 C 0.57423 0.60426 0.30109 0.0
C328 C 0.6107 0.6062 0.29658 0.0
C329 C 0.62816 0.58827 0.25109 0.0
C330 C 0.6078 0.56835 0.20814 0.0
C331 C 0.5702 0.56663 0.21045 0.0
C332 C 0.5533 0.58451 0.25822 0.0
H333 H 0.89355 0.13347 0.92397 0.0
H334 H 0.85976 0.22923 0.82955 0.0
H335 H 0.87927 0.2031 0.73341 0.0
H336 H 0.97404 0.124 0.84286 0.0
H337 H 0.9721 0.07584 0.8426 0.0
H338 H 0.95296 0.1009 0.90339 0.0
H339 H 0.89256 0.06843 0.88156 0.0
H340 H 0.91146 0.04334 0.82058 0.0
H341 H 0.87226 0.06948 0.80619 0.0
H342 H 0.9014 0.16616 0.64718 0.0
H343 H 0.92937 0.12308 0.57822 0.0
H344 H 0.95499 0.05496 0.731 0.0
C345 C 0.89054 0.14933 0.88346 0.0
C346 C 0.87468 0.18342 0.88479 0.0
C347 C 0.87087 0.2027 0.82996 0.0
C348 C 0.88218 0.18823 0.77503 0.0
C349 C 0.89781 0.15473 0.77573 0.0
C350 C 0.90245 0.13574 0.82861 0.0
C351 C 0.92159 0.10105 0.81757 0.0
C352 C 0.95729 0.10043 0.85375 0.0
C353 C 0.89805 0.06867 0.83235 0.0
C354 C 0.92696 0.10349 0.75005 0.0
C355 C 0.91257 0.13442 0.72666 0.0
C356 C 0.91305 0.14201 0.66501 0.0
C357 C 0.92886 0.11738 0.62626 0.0
C358 C 0.9445 0.08598 0.64958 0.0
C359 C 0.94361 0.07904 0.71227 0.0
H360 H 0.41717 0.30439 0.38824 0.0
H361 H 0.30668 0.33453 0.37317 0.0
H362 H 0.31966 0.37227 0.28507 0.0
H363 H 0.45395 0.38571 0.35875 0.0
H364 H 0.48974 0.37012 0.31364 0.0
H365 H 0.47119 0.34142 0.3694 0.0
H366 H 0.45757 0.29248 0.28715 0.0
H367 H 0.4768 0.32073 0.23112 0.0
H368 H 0.43214 0.30355 0.21922 0.0
H369 H 0.34686 0.41498 0.21294 0.0
H370 H 0.38469 0.45251 0.14905 0.0
H371 H 0.47661 0.39079 0.20397 0.0
C372 C 0.39558 0.31784 0.36459 0.0
C373 C 0.36086 0.3163 0.38633 0.0
C374 C 0.33325 0.33492 0.35595 0.0
C375 C 0.34045 0.35655 0.3063 0.0
C376 C 0.37526 0.35858 0.28713 0.0
C377 C 0.40221 0.33892 0.31417 0.0
C378 C 0.43761 0.34717 0.28667 0.0
C379 C 0.4647 0.36199 0.33501 0.0
C380 C 0.45186 0.31401 0.25409 0.0
C381 C 0.42665 0.37562 0.24178 0.0
C382 C 0.3906 0.38195 0.24302 0.0
C383 C 0.37491 0.40957 0.21023 0.0
C384 C 0.39655 0.43089 0.17458 0.0
C385 C 0.43323 0.42405 0.17136 0.0
C386 C 0.44841 0.39595 0.20496 0.0
H387 H 0.11707 0.868 0.92315 0.0
H388 H 0.10803 0.75959 0.85101 0.0
H389 H 0.0786 0.78229 0.75714 0.0
H390 H 0.03215 0.89915 0.86126 0.0
H391 H 0.0496 0.94302 0.84574 0.0
H392 H 0.06834 0.91778 0.90786 0.0
H393 H 0.13072 0.92409 0.86302 0.0
H394 H 0.11218 0.94918 0.80067 0.0
H395 H 0.13723 0.90947 0.78591 0.0
H396 H 0.05199 0.81758 0.66963 0.0
H397 H 0.03079 0.8623 0.59572 0.0
H398 H 0.05726 0.94713 0.72703 0.0
C399 C 0.10826 0.84889 0.8882 0.0
C400 C 0.11458 0.81197 0.89458 0.0
C401 C 0.10355 0.788 0.84695 0.0
C402 C 0.08669 0.80062 0.79366 0.0
C403 C 0.08108 0.83725 0.78881 0.0
C404 C 0.0915 0.86099 0.83492 0.0
C405 C 0.08362 0.89916 0.81785 0.0
C406 C 0.05683 0.91574 0.86072 0.0
C407 C 0.11798 0.92179 0.81679 0.0
C408 C 0.06742 0.89331 0.75462 0.0
C409 C 0.06601 0.85745 0.73867 0.0
C410 C 0.0528 0.84571 0.68179 0.0
C411 C 0.04084 0.87134 0.64009 0.0
C412 C 0.04229 0.90829 0.65547 0.0
C413 C 0.05562 0.91916 0.71375 0.0
loop_
_geom_bond_atom_site_label_1
_geom_bond_atom_site_label_2
_geom_bond_distance
_geom_bond_site_symmetry_2
_ccdc_geom_bond_type
H0 C5 0.929 . S
H1 C10 0.931 . S
H2 C8 0.930 . S
N3 N4 1.234 1_556 S
N3 C7 1.453 1_556 S
N4 N3 1.234 1_554 S
C5 H0 0.929 . S
C5 C6 1.373 . S
C5 C7 1.368 1_556 S
C6 C5 1.373 . S
C6 C10 1.397 1_556 S
C7 N3 1.453 1_554 S
C7 C5 1.368 1_554 S
C7 C8 1.373 . S
C8 H2 0.930 . S
C8 C7 1.373 . S
C8 C9 1.371 . S
C9 C8 1.371 . S
C9 C10 1.383 . S
C10 H1 0.931 . S
C10 C6 1.397 1_554 S
C10 C9 1.383 . S
H11 C16 0.929 . S
H12 C21 0.931 . S
H13 C19 0.930 . S
N14 N15 1.234 . S
N14 C18 1.453 . S
N15 N14 1.234 . S
C16 H11 0.929 . S
C16 C17 1.373 . S
C16 C18 1.368 . S
C17 C16 1.373 . S
C17 C21 1.397 . S
C18 N14 1.453 . S
C18 C16 1.368 . S
C18 C19 1.373 . S
C19 H13 0.930 . S
C19 C18 1.373 . S
C19 C20 1.371 . S
C20 C19 1.371 . S
C20 C21 1.383 . S
C21 H12 0.931 . S
C21 C17 1.397 . S
C21 C20 1.383 . S
H22 C27 0.929 . S
H23 C32 0.931 . S
H24 C30 0.930 . S
N25 N26 1.234 1_556 S
N25 C29 1.453 1_556 S
N26 N25 1.234 1_554 S
C27 H22 0.929 . S
C27 C28 1.373 . S
C27 C29 1.368 1_556 S
C28 C27 1.373 . S
C28 C32 1.397 1_556 S
C29 N25 1.453 1_554 S
C29 C27 1.368 1_554 S
C29 C30 1.373 . S
C30 H24 0.930 . S
C30 C29 1.373 . S
C30 C31 1.371 . S
C31 C30 1.371 . S
C31 C32 1.383 . S
C32 H23 0.931 . S
C32 C28 1.397 1_554 S
C32 C31 1.383 . S
H33 C38 0.929 . S
H34 C43 0.931 . S
H35 C41 0.930 . S
N36 N37 1.234 . S
N36 C40 1.453 . S
N37 N36 1.234 . S
C38 H33 0.929 . S
C38 C39 1.373 . S
C38 C40 1.368 . S
C39 C38 1.373 . S
C39 C43 1.397 . S
C40 N36 1.453 . S
C40 C38 1.368 . S
C40 C41 1.373 . S
C41 H35 0.930 . S
C41 C40 1.373 . S
C41 C42 1.371 . S
C42 C41 1.371 . S
C42 C43 1.383 . S
C43 H34 0.931 . S
C43 C39 1.397 . S
C43 C42 1.383 . S
O44 Zn45 1.953 1_565 S
O44 C60 1.225 . S
Zn45 O44 1.953 1_545 S
Zn45 O46 1.949 1_655 S
Zn45 O52 1.919 . S
Zn45 O57 1.924 . S
O46 Zn45 1.949 1_455 S
O46 Zn47 1.923 . S
O46 Zn48 1.950 1_545 S
O46 Zn49 1.945 . S
Zn47 O46 1.923 . S
Zn47 O50 1.933 . S
Zn47 O53 1.943 . S
Zn47 O54 1.965 1_545 S
Zn48 O46 1.950 1_565 S
Zn48 O55 1.938 . S
Zn48 O56 1.906 . S
Zn48 O66 1.953 1_455 S
Zn49 O46 1.945 . S
Zn49 O51 1.932 . S
Zn49 O58 1.977 1_545 S
Zn49 O59 1.910 1_455 S
O50 Zn47 1.933 . S
O50 C61 1.226 . S
O51 Zn49 1.932 . S
O51 C61 1.307 . S
O52 Zn45 1.919 . S
O52 C63 1.253 . S
O53 Zn47 1.943 . S
O53 C63 1.280 1_455 S
O54 Zn47 1.965 1_565 S
O54 C62 1.303 . S
O55 Zn48 1.938 . S
O55 C62 1.247 . S
O56 Zn48 1.906 . S
O56 C64 1.304 . S
O57 Zn45 1.924 . S
O57 C65 1.311 . S
O58 Zn49 1.977 1_565 S
O58 C64 1.272 . S
O59 Zn49 1.910 1_655 S
O59 C65 1.231 . S
C60 O44 1.225 . S
C60 O66 1.298 . S
C61 O50 1.226 . S
C61 O51 1.307 . S
C62 O54 1.303 . S
C62 O55 1.247 . S
C63 O52 1.253 . S
C63 O53 1.280 1_655 S
C64 O56 1.304 . S
C64 O58 1.272 . S
C65 O57 1.311 . S
C65 O59 1.231 . S
O66 Zn48 1.953 1_655 S
O66 C60 1.298 . S
O67 Zn68 1.953 . S
O67 C83 1.225 . S
Zn68 O67 1.953 . S
Zn68 O69 1.949 . S
Zn68 O75 1.919 1_554 S
Zn68 O80 1.924 . S
O69 Zn68 1.949 . S
O69 Zn70 1.923 1_554 S
O69 Zn71 1.950 . S
O69 Zn72 1.945 . S
Zn70 O69 1.923 1_556 S
Zn70 O73 1.933 . S
Zn70 O76 1.941 . S
Zn70 O77 1.965 . S
Zn71 O69 1.950 . S
Zn71 O78 1.938 1_554 S
Zn71 O79 1.906 . S
Zn71 O89 1.953 . S
Zn72 O69 1.945 . S
Zn72 O74 1.932 . S
Zn72 O81 1.977 . S
Zn72 O82 1.910 . S
O73 Zn70 1.933 . S
O73 C84 1.226 1_556 S
O74 Zn72 1.932 . S
O74 C84 1.307 . S
O75 Zn68 1.919 1_556 S
O75 C86 1.253 . S
O76 Zn70 1.941 . S
O76 C86 1.283 . S
O77 Zn70 1.965 . S
O77 C85 1.303 . S
O78 Zn71 1.938 1_556 S
O78 C85 1.247 . S
O79 Zn71 1.906 . S
O79 C87 1.304 . S
O80 Zn68 1.924 . S
O80 C88 1.311 . S
O81 Zn72 1.977 . S
O81 C87 1.272 . S
O82 Zn72 1.910 . S
O82 C88 1.231 . S
C83 O67 1.225 . S
C83 O89 1.298 . S
C84 O73 1.226 1_554 S
C84 O74 1.307 . S
C85 O77 1.303 . S
C85 O78 1.247 . S
C86 O75 1.253 . S
C86 O76 1.283 . S
C87 O79 1.304 . S
C87 O81 1.272 . S
C88 O80 1.311 . S
C88 O82 1.231 . S
O89 Zn71 1.953 . S
O89 C83 1.298 . S
H90 C102 0.930 . S
H91 C104 0.930 . S
H92 C105 0.930 . S
H93 C109 0.959 . S
H94 C109 0.959 . S
H95 C109 0.961 . S
H96 C110 0.960 . S
H97 C110 0.961 . S
H98 C110 0.959 . S
H99 C113 0.929 . S
H100 C114 0.931 . S
H101 C116 0.930 . S
C102 H90 0.930 . S
C102 C103 1.399 . S
C102 C107 1.399 . S
C103 C102 1.399 . S
C103 C104 1.376 . S
C104 H91 0.930 . S
C104 C103 1.376 . S
C104 C105 1.388 . S
C105 H92 0.930 . S
C105 C104 1.388 . S
C105 C106 1.390 . S
C106 C105 1.390 . S
C106 C107 1.394 . S
C106 C112 1.465 . S
C107 C102 1.399 . S
C107 C106 1.394 . S
C107 C108 1.516 . S
C108 C107 1.516 . S
C108 C109 1.502 . S
C108 C110 1.561 . S
C108 C111 1.526 . S
C109 H93 0.959 . S
C109 H94 0.959 . S
C109 H95 0.961 . S
C109 C108 1.502 . S
C110 H96 0.960 . S
C110 H97 0.961 . S
C110 H98 0.959 . S
C110 C108 1.561 . S
C111 C108 1.526 . S
C111 C112 1.396 . S
C111 C116 1.390 . S
C112 C106 1.465 . S
C112 C111 1.396 . S
C112 C113 1.399 . S
C113 H99 0.929 . S
C113 C112 1.399 . S
C113 C114 1.385 . S
C114 H100 0.931 . S
C114 C113 1.385 . S
C114 C115 1.389 . S
C115 C114 1.389 . S
C115 C116 1.387 . S
C116 H101 0.930 . S
C116 C111 1.390 . S
C116 C115 1.387 . S
H117 C129 0.930 . S
H118 C131 0.930 . S
H119 C132 0.930 . S
H120 C136 0.959 . S
H121 C136 0.959 . S
H122 C136 0.961 . S
H123 C137 0.960 . S
H124 C137 0.961 . S
H125 C137 0.959 . S
H126 C140 0.929 . S
H127 C141 0.931 . S
H128 C143 0.930 . S
C129 H117 0.930 . S
C129 C130 1.399 . S
C129 C134 1.399 . S
C130 C129 1.399 . S
C130 C131 1.376 1_554 S
C131 H118 0.930 . S
C131 C130 1.376 1_556 S
C131 C132 1.388 . S
C132 H119 0.930 . S
C132 C131 1.388 . S
C132 C133 1.390 1_556 S
C133 C132 1.390 1_554 S
C133 C134 1.394 . S
C133 C139 1.465 . S
C134 C129 1.399 . S
C134 C133 1.394 . S
C134 C135 1.516 . S
C135 C134 1.516 . S
C135 C136 1.502 . S
C135 C137 1.561 . S
C135 C138 1.526 . S
C136 H120 0.959 . S
C136 H121 0.959 . S
C136 H122 0.961 . S
C136 C135 1.502 . S
C137 H123 0.960 . S
C137 H124 0.961 . S
C137 H125 0.959 . S
C137 C135 1.561 . S
C138 C135 1.526 . S
C138 C139 1.396 . S
C138 C143 1.390 . S
C139 C133 1.465 . S
C139 C138 1.396 . S
C139 C140 1.399 1_554 S
C140 H126 0.929 . S
C140 C139 1.399 1_556 S
C140 C141 1.385 . S
C141 H127 0.931 . S
C141 C140 1.385 . S
C141 C142 1.389 1_556 S
C142 C141 1.389 1_554 S
C142 C143 1.387 . S
C143 H128 0.930 . S
C143 C138 1.390 . S
C143 C142 1.387 . S
H144 C156 0.930 . S
H145 C158 0.930 . S
H146 C159 0.930 . S
H147 C163 0.959 . S
H148 C163 0.959 . S
H149 C163 0.961 . S
H150 C164 0.960 . S
H151 C164 0.961 . S
H152 C164 0.959 . S
H153 C167 0.929 . S
H154 C168 0.931 . S
H155 C170 0.930 . S
C156 H144 0.930 . S
C156 C157 1.399 . S
C156 C161 1.399 . S
C157 C156 1.399 . S
C157 C158 1.376 . S
C158 H145 0.930 . S
C158 C157 1.376 . S
C158 C159 1.388 . S
C159 H146 0.930 . S
C159 C158 1.388 . S
C159 C160 1.390 . S
C160 C159 1.390 . S
C160 C161 1.394 . S
C160 C166 1.465 . S
C161 C156 1.399 . S
C161 C160 1.394 . S
C161 C162 1.516 . S
C162 C161 1.516 . S
C162 C163 1.502 . S
C162 C164 1.561 . S
C162 C165 1.526 . S
C163 H147 0.959 . S
C163 H148 0.959 . S
C163 H149 0.961 . S
C163 C162 1.502 . S
C164 H150 0.960 . S
C164 H151 0.961 . S
C164 H152 0.959 . S
C164 C162 1.561 . S
C165 C162 1.526 . S
C165 C166 1.396 . S
C165 C170 1.390 . S
C166 C160 1.465 . S
C166 C165 1.396 . S
C166 C167 1.399 . S
C167 H153 0.929 . S
C167 C166 1.399 . S
C167 C168 1.385 . S
C168 H154 0.931 . S
C168 C167 1.385 . S
C168 C169 1.389 . S
C169 C168 1.389 . S
C169 C170 1.387 . S
C170 H155 0.930 . S
C170 C165 1.390 . S
C170 C169 1.387 . S
H171 C183 0.930 . S
H172 C185 0.930 . S
H173 C186 0.930 . S
H174 C190 0.959 . S
H175 C190 0.959 . S
H176 C190 0.961 . S
H177 C191 0.960 . S
H178 C191 0.961 . S
H179 C191 0.959 . S
H180 C194 0.929 . S
H181 C195 0.931 . S
H182 C197 0.930 . S
C183 H171 0.930 . S
C183 C184 1.399 . S
C183 C188 1.399 . S
C184 C183 1.399 . S
C184 C185 1.376 1_554 S
C185 H172 0.930 . S
C185 C184 1.376 1_556 S
C185 C186 1.388 . S
C186 H173 0.930 . S
C186 C185 1.388 . S
C186 C187 1.390 1_556 S
C187 C186 1.390 1_554 S
C187 C188 1.394 . S
C187 C193 1.465 . S
C188 C183 1.399 . S
C188 C187 1.394 . S
C188 C189 1.516 . S
C189 C188 1.516 . S
C189 C190 1.502 . S
C189 C191 1.561 . S
C189 C192 1.526 . S
C190 H174 0.959 . S
C190 H175 0.959 . S
C190 H176 0.961 . S
C190 C189 1.502 . S
C191 H177 0.960 . S
C191 H178 0.961 . S
C191 H179 0.959 . S
C191 C189 1.561 . S
C192 C189 1.526 . S
C192 C193 1.396 . S
C192 C197 1.390 . S
C193 C187 1.465 . S
C193 C192 1.396 . S
C193 C194 1.399 1_554 S
C194 H180 0.929 . S
C194 C193 1.399 1_556 S
C194 C195 1.385 . S
C195 H181 0.931 . S
C195 C194 1.385 . S
C195 C196 1.389 1_556 S
C196 C195 1.389 1_554 S
C196 C197 1.387 . S
C197 H182 0.930 . S
C197 C192 1.390 . S
C197 C196 1.387 . S
H198 C210 0.930 . S
H199 C212 0.930 . S
H200 C213 0.930 . S
H201 C217 0.959 . S
H202 C217 0.959 . S
H203 C217 0.961 . S
H204 C218 0.960 . S
H205 C218 0.961 . S
H206 C218 0.959 . S
H207 C221 0.929 . S
H208 C222 0.931 . S
H209 C224 0.930 . S
C210 H198 0.930 . S
C210 C211 1.399 . S
C210 C215 1.399 . S
C211 C210 1.399 . S
C211 C212 1.376 . S
C212 H199 0.930 . S
C212 C211 1.376 . S
C212 C213 1.388 . S
C213 H200 0.930 . S
C213 C212 1.388 . S
C213 C214 1.390 . S
C214 C213 1.390 . S
C214 C215 1.394 . S
C214 C220 1.465 . S
C215 C210 1.399 . S
C215 C214 1.394 . S
C215 C216 1.516 . S
C216 C215 1.516 . S
C216 C217 1.502 . S
C216 C218 1.561 . S
C216 C219 1.526 . S
C217 H201 0.959 . S
C217 H202 0.959 . S
C217 H203 0.961 . S
C217 C216 1.502 . S
C218 H204 0.960 . S
C218 H205 0.961 . S
C218 H206 0.959 . S
C218 C216 1.561 . S
C219 C216 1.526 . S
C219 C220 1.396 . S
C219 C224 1.390 . S
C220 C214 1.465 . S
C220 C219 1.396 . S
C220 C221 1.399 . S
C221 H207 0.929 . S
C221 C220 1.399 . S
C221 C222 1.385 . S
C222 H208 0.931 . S
C222 C221 1.385 . S
C222 C223 1.389 . S
C223 C222 1.389 . S
C223 C224 1.387 . S
C224 H209 0.930 . S
C224 C219 1.390 . S
C224 C223 1.387 . S
H225 C237 0.930 . S
H226 C239 0.930 . S
H227 C240 0.930 . S
H228 C244 0.959 . S
H229 C244 0.959 . S
H230 C244 0.961 . S
H231 C245 0.960 . S
H232 C245 0.961 . S
H233 C245 0.959 . S
H234 C248 0.929 . S
H235 C249 0.931 . S
H236 C251 0.930 . S
C237 H225 0.930 . S
C237 C238 1.399 . S
C237 C242 1.399 . S
C238 C237 1.399 . S
C238 C239 1.376 . S
C239 H226 0.930 . S
C239 C238 1.376 . S
C239 C240 1.388 . S
C240 H227 0.930 . S
C240 C239 1.388 . S
C240 C241 1.390 . S
C241 C240 1.390 . S
C241 C242 1.394 . S
C241 C247 1.465 . S
C242 C237 1.399 . S
C242 C241 1.394 . S
C242 C243 1.516 . S
C243 C242 1.516 . S
C243 C244 1.502 . S
C243 C245 1.561 . S
C243 C246 1.526 . S
C244 H228 0.959 . S
C244 H229 0.959 . S
C244 H230 0.961 . S
C244 C243 1.502 . S
C245 H231 0.960 . S
C245 H232 0.961 . S
C245 H233 0.959 . S
C245 C243 1.561 . S
C246 C243 1.526 . S
C246 C247 1.396 . S
C246 C251 1.390 . S
C247 C241 1.465 . S
C247 C246 1.396 . S
C247 C248 1.399 . S
C248 H234 0.929 . S
C248 C247 1.399 . S
C248 C249 1.385 . S
C249 H235 0.931 . S
C249 C248 1.385 . S
C249 C250 1.389 . S
C250 C249 1.389 . S
C250 C251 1.387 . S
C251 H236 0.930 . S
C251 C246 1.390 . S
C251 C250 1.387 . S
H252 C264 0.930 . S
H253 C266 0.930 . S
H254 C267 0.930 . S
H255 C271 0.959 . S
H256 C271 0.959 . S
H257 C271 0.961 . S
H258 C272 0.960 . S
H259 C272 0.961 . S
H260 C272 0.959 . S
H261 C275 0.929 . S
H262 C276 0.931 . S
H263 C278 0.930 . S
C264 H252 0.930 . S
C264 C265 1.399 . S
C264 C269 1.399 . S
C265 C264 1.399 . S
C265 C266 1.376 . S
C266 H253 0.930 . S
C266 C265 1.376 . S
C266 C267 1.388 . S
C267 H254 0.930 . S
C267 C266 1.388 . S
C267 C268 1.390 . S
C268 C267 1.390 . S
C268 C269 1.394 . S
C268 C274 1.465 . S
C269 C264 1.399 . S
C269 C268 1.394 . S
C269 C270 1.516 . S
C270 C269 1.516 . S
C270 C271 1.502 . S
C270 C272 1.561 . S
C270 C273 1.526 . S
C271 H255 0.959 . S
C271 H256 0.959 . S
C271 H257 0.961 . S
C271 C270 1.502 . S
C272 H258 0.960 . S
C272 H259 0.961 . S
C272 H260 0.959 . S
C272 C270 1.561 . S
C273 C270 1.526 . S
C273 C274 1.396 . S
C273 C278 1.390 . S
C274 C268 1.465 . S
C274 C273 1.396 . S
C274 C275 1.399 . S
C275 H261 0.929 . S
C275 C274 1.399 . S
C275 C276 1.385 . S
C276 H262 0.931 . S
C276 C275 1.385 . S
C276 C277 1.389 . S
C277 C276 1.389 . S
C277 C278 1.387 . S
C278 H263 0.930 . S
C278 C273 1.390 . S
C278 C277 1.387 . S
H279 C291 0.930 . S
H280 C293 0.930 . S
H281 C294 0.930 . S
H282 C298 0.959 . S
H283 C298 0.959 . S
H284 C298 0.961 . S
H285 C299 0.960 . S
H286 C299 0.961 . S
H287 C299 0.959 . S
H288 C302 0.929 . S
H289 C303 0.931 . S
H290 C305 0.930 . S
C291 H279 0.930 . S
C291 C292 1.399 . S
C291 C296 1.399 . S
C292 C291 1.399 . S
C292 C293 1.376 . S
C293 H280 0.930 . S
C293 C292 1.376 . S
C293 C294 1.388 . S
C294 H281 0.930 . S
C294 C293 1.388 . S
C294 C295 1.390 . S
C295 C294 1.390 . S
C295 C296 1.394 . S
C295 C301 1.465 . S
C296 C291 1.399 . S
C296 C295 1.394 . S
C296 C297 1.516 . S
C297 C296 1.516 . S
C297 C298 1.502 . S
C297 C299 1.561 . S
C297 C300 1.526 . S
C298 H282 0.959 . S
C298 H283 0.959 . S
C298 H284 0.961 . S
C298 C297 1.502 . S
C299 H285 0.960 . S
C299 H286 0.961 . S
C299 H287 0.959 . S
C299 C297 1.561 . S
C300 C297 1.526 . S
C300 C301 1.396 . S
C300 C305 1.390 . S
C301 C295 1.465 . S
C301 C300 1.396 . S
C301 C302 1.399 . S
C302 H288 0.929 . S
C302 C301 1.399 . S
C302 C303 1.385 . S
C303 H289 0.931 . S
C303 C302 1.385 . S
C303 C304 1.389 . S
C304 C303 1.389 . S
C304 C305 1.387 . S
C305 H290 0.930 . S
C305 C300 1.390 . S
C305 C304 1.387 . S
H306 C318 0.930 . S
H307 C320 0.930 . S
H308 C321 0.930 . S
H309 C325 0.959 . S
H310 C325 0.959 . S
H311 C325 0.961 . S
H312 C326 0.960 . S
H313 C326 0.961 . S
H314 C326 0.959 . S
H315 C329 0.929 . S
H316 C330 0.931 . S
H317 C332 0.930 . S
C318 H306 0.930 . S
C318 C319 1.399 . S
C318 C323 1.399 . S
C319 C318 1.399 . S
C319 C320 1.376 . S
C320 H307 0.930 . S
C320 C319 1.376 . S
C320 C321 1.388 . S
C321 H308 0.930 . S
C321 C320 1.388 . S
C321 C322 1.390 . S
C322 C321 1.390 . S
C322 C323 1.394 . S
C322 C328 1.465 . S
C323 C318 1.399 . S
C323 C322 1.394 . S
C323 C324 1.516 . S
C324 C323 1.516 . S
C324 C325 1.502 . S
C324 C326 1.561 . S
C324 C327 1.526 . S
C325 H309 0.959 . S
C325 H310 0.959 . S
C325 H311 0.961 . S
C325 C324 1.502 . S
C326 H312 0.960 . S
C326 H313 0.961 . S
C326 H314 0.959 . S
C326 C324 1.561 . S
C327 C324 1.526 . S
C327 C328 1.396 . S
C327 C332 1.390 . S
C328 C322 1.465 . S
C328 C327 1.396 . S
C328 C329 1.399 . S
C329 H315 0.929 . S
C329 C328 1.399 . S
C329 C330 1.385 . S
C330 H316 0.931 . S
C330 C329 1.385 . S
C330 C331 1.389 . S
C331 C330 1.389 . S
C331 C332 1.387 . S
C332 H317 0.930 . S
C332 C327 1.390 . S
C332 C331 1.387 . S
H333 C345 0.930 . S
H334 C347 0.930 . S
H335 C348 0.930 . S
H336 C352 0.959 . S
H337 C352 0.959 . S
H338 C352 0.961 . S
H339 C353 0.960 . S
H340 C353 0.961 . S
H341 C353 0.959 . S
H342 C356 0.929 . S
H343 C357 0.931 . S
H344 C359 0.930 . S
C345 H333 0.930 . S
C345 C346 1.399 . S
C345 C350 1.399 . S
C346 C345 1.399 . S
C346 C347 1.376 . S
C347 H334 0.930 . S
C347 C346 1.376 . S
C347 C348 1.388 . S
C348 H335 0.930 . S
C348 C347 1.388 . S
C348 C349 1.390 . S
C349 C348 1.390 . S
C349 C350 1.394 . S
C349 C355 1.465 . S
C350 C345 1.399 . S
C350 C349 1.394 . S
C350 C351 1.516 . S
C351 C350 1.516 . S
C351 C352 1.502 . S
C351 C353 1.561 . S
C351 C354 1.526 . S
C352 H336 0.959 . S
C352 H337 0.959 . S
C352 H338 0.961 . S
C352 C351 1.502 . S
C353 H339 0.960 . S
C353 H340 0.961 . S
C353 H341 0.959 . S
C353 C351 1.561 . S
C354 C351 1.526 . S
C354 C355 1.396 . S
C354 C359 1.390 . S
C355 C349 1.465 . S
C355 C354 1.396 . S
C355 C356 1.399 . S
C356 H342 0.929 . S
C356 C355 1.399 . S
C356 C357 1.385 . S
C357 H343 0.931 . S
C357 C356 1.385 . S
C357 C358 1.389 . S
C358 C357 1.389 . S
C358 C359 1.387 . S
C359 H344 0.930 . S
C359 C354 1.390 . S
C359 C358 1.387 . S
H360 C372 0.930 . S
H361 C374 0.930 . S
H362 C375 0.930 . S
H363 C379 0.959 . S
H364 C379 0.959 . S
H365 C379 0.961 . S
H366 C380 0.960 . S
H367 C380 0.961 . S
H368 C380 0.959 . S
H369 C383 0.929 . S
H370 C384 0.931 . S
H371 C386 0.930 . S
C372 H360 0.930 . S
C372 C373 1.399 . S
C372 C377 1.399 . S
C373 C372 1.399 . S
C373 C374 1.376 . S
C374 H361 0.930 . S
C374 C373 1.376 . S
C374 C375 1.388 . S
C375 H362 0.930 . S
C375 C374 1.388 . S
C375 C376 1.390 . S
C376 C375 1.390 . S
C376 C377 1.394 . S
C376 C382 1.465 . S
C377 C372 1.399 . S
C377 C376 1.394 . S
C377 C378 1.516 . S
C378 C377 1.516 . S
C378 C379 1.502 . S
C378 C380 1.561 . S
C378 C381 1.526 . S
C379 H363 0.959 . S
C379 H364 0.959 . S
C379 H365 0.961 . S
C379 C378 1.502 . S
C380 H366 0.960 . S
C380 H367 0.961 . S
C380 H368 0.959 . S
C380 C378 1.561 . S
C381 C378 1.526 . S
C381 C382 1.396 . S
C381 C386 1.390 . S
C382 C376 1.465 . S
C382 C381 1.396 . S
C382 C383 1.399 . S
C383 H369 0.929 . S
C383 C382 1.399 . S
C383 C384 1.385 . S
C384 H370 0.931 . S
C384 C383 1.385 . S
C384 C385 1.389 . S
C385 C384 1.389 . S
C385 C386 1.387 . S
C386 H371 0.930 . S
C386 C381 1.390 . S
C386 C385 1.387 . S
H387 C399 0.930 . S
H388 C401 0.930 . S
H389 C402 0.930 . S
H390 C406 0.959 . S
H391 C406 0.959 . S
H392 C406 0.961 . S
H393 C407 0.960 . S
H394 C407 0.961 . S
H395 C407 0.959 . S
H396 C410 0.929 . S
H397 C411 0.931 . S
H398 C413 0.930 . S
C399 H387 0.930 . S
C399 C400 1.399 . S
C399 C404 1.399 . S
C400 C399 1.399 . S
C400 C401 1.376 . S
C401 H388 0.930 . S
C401 C400 1.376 . S
C401 C402 1.388 . S
C402 H389 0.930 . S
C402 C401 1.388 . S
C402 C403 1.390 . S
C403 C402 1.390 . S
C403 C404 1.394 . S
C403 C409 1.465 . S
C404 C399 1.399 . S
C404 C403 1.394 . S
C404 C405 1.516 . S
C405 C404 1.516 . S
C405 C406 1.502 . S
C405 C407 1.561 . S
C405 C408 1.526 . S
C406 H390 0.959 . S
C406 H391 0.959 . S
C406 H392 0.961 . S
C406 C405 1.502 . S
C407 H393 0.960 . S
C407 H394 0.961 . S
C407 H395 0.959 . S
C407 C405 1.561 . S
C408 C405 1.526 . S
C408 C409 1.396 . S
C408 C413 1.390 . S
C409 C403 1.465 . S
C409 C408 1.396 . S
C409 C410 1.399 . S
C410 H396 0.929 . S
C410 C409 1.399 . S
C410 C411 1.385 . S
C411 H397 0.931 . S
C411 C410 1.385 . S
C411 C412 1.389 . S
C412 C411 1.389 . S
C412 C413 1.387 . S
C413 H398 0.930 . S
C413 C408 1.390 . S
C413 C412 1.387 . S
C115 C61 1.483 . S
C103 N37 1.468 . S
C130 N4 1.491 . S
C142 C84 1.484 . S
C157 N15 1.500 . S
C169 C60 1.511 . S
C184 N26 1.516 . S
C196 C83 1.508 . S
C223 C64 1.513 . S
C211 C9 1.518 . S
C250 C86 1.461 . S
C238 C17 1.534 . S
C265 C31 1.505 . S
C277 C65 1.464 . S
C292 C42 1.500 . S
C304 C85 1.464 . S
C331 C88 1.420 . S
C319 C20 1.406 . S
C358 C63 1.447 . S
C346 C28 1.467 . S
C385 C87 1.426 . S
C373 C39 1.417 . S
C400 C6 1.453 . S
C412 C62 1.383 . S
