# Generated by pormake.
# Topology apo, (3,6)-cn, num edge types: 1
# Building blocks:
#     Node 0, Type 0, BuildingBlock: PAMTOO_clean_linker_0, # of connection points: 3
#     Node 1, Type 0, BuildingBlock: PAMTOO_clean_linker_0, # of connection points: 3
#     Node 2, Type 0, BuildingBlock: PAMTOO_clean_linker_0, # of connection points: 3
#     Node 3, Type 0, BuildingBlock: PAMTOO_clean_linker_0, # of connection points: 3
#     Node 4, Type 0, BuildingBlock: PAMTOO_clean_linker_0, # of connection points: 3
#     Node 5, Type 0, BuildingBlock: PAMTOO_clean_linker_0, # of connection points: 3
#     Node 6, Type 0, BuildingBlock: PAMTOO_clean_linker_0, # of connection points: 3
#     Node 7, Type 0, BuildingBlock: PAMTOO_clean_linker_0, # of connection points: 3
#     Node 8, Type 1, BuildingBlock: KUMBUR_clean_sbu_1, # of connection points: 6
#     Node 9, Type 1, BuildingBlock: KUMBUR_clean_sbu_1, # of connection points: 6
#     Node 10, Type 1, BuildingBlock: KUMBUR_clean_sbu_1, # of connection points: 6
#     Node 11, Type 1, BuildingBlock: KUMBUR_clean_sbu_1, # of connection points: 6
#     Edge 12, Type (0, 1), BuildingBlock: ZUJKAS_clean_linker_0, # of connection points: 2
#     Edge 13, Type (0, 1), BuildingBlock: ZUJKAS_clean_linker_0, # of connection points: 2
#     Edge 14, Type (0, 1), BuildingBlock: ZUJKAS_clean_linker_0, # of connection points: 2
#     Edge 15, Type (0, 1), BuildingBlock: ZUJKAS_clean_linker_0, # of connection points: 2
#     Edge 16, Type (0, 1), BuildingBlock: ZUJKAS_clean_linker_0, # of connection points: 2
#     Edge 17, Type (0, 1), BuildingBlock: ZUJKAS_clean_linker_0, # of connection points: 2
#     Edge 18, Type (0, 1), BuildingBlock: ZUJKAS_clean_linker_0, # of connection points: 2
#     Edge 19, Type (0, 1), BuildingBlock: ZUJKAS_clean_linker_0, # of connection points: 2
#     Edge 20, Type (0, 1), BuildingBlock: ZUJKAS_clean_linker_0, # of connection points: 2
#     Edge 21, Type (0, 1), BuildingBlock: ZUJKAS_clean_linker_0, # of connection points: 2
#     Edge 22, Type (0, 1), BuildingBlock: ZUJKAS_clean_linker_0, # of connection points: 2
#     Edge 23, Type (0, 1), BuildingBlock: ZUJKAS_clean_linker_0, # of connection points: 2
#     Edge 24, Type (0, 1), BuildingBlock: ZUJKAS_clean_linker_0, # of connection points: 2
#     Edge 25, Type (0, 1), BuildingBlock: ZUJKAS_clean_linker_0, # of connection points: 2
#     Edge 26, Type (0, 1), BuildingBlock: ZUJKAS_clean_linker_0, # of connection points: 2
#     Edge 27, Type (0, 1), BuildingBlock: ZUJKAS_clean_linker_0, # of connection points: 2
#     Edge 28, Type (0, 1), BuildingBlock: ZUJKAS_clean_linker_0, # of connection points: 2
#     Edge 29, Type (0, 1), BuildingBlock: ZUJKAS_clean_linker_0, # of connection points: 2
#     Edge 30, Type (0, 1), BuildingBlock: ZUJKAS_clean_linker_0, # of connection points: 2
#     Edge 31, Type (0, 1), BuildingBlock: ZUJKAS_clean_linker_0, # of connection points: 2
#     Edge 32, Type (0, 1), BuildingBlock: ZUJKAS_clean_linker_0, # of connection points: 2
#     Edge 33, Type (0, 1), BuildingBlock: ZUJKAS_clean_linker_0, # of connection points: 2
#     Edge 34, Type (0, 1), BuildingBlock: ZUJKAS_clean_linker_0, # of connection points: 2
#     Edge 35, Type (0, 1), BuildingBlock: ZUJKAS_clean_linker_0, # of connection points: 2
# Relax obj value: 0.041
# Max RMSD: 0.211
# Mean RMSD: 0.154
data_MOF--net-apo--node1-KUMBUR_clean_sbu_1--node2-PAMTOO_clean_linker_0--edge1-ZUJKAS_clean_linker_0
_symmetry_space_group_name_H-M    P1
_symmetry_Int_Tables_number       1
_symmetry_cell_setting            triclinic
loop_
_symmetry_equiv_pos_as_xyz
'x, y, z'
_cell_length_a     35.250931
_cell_length_b     55.387919
_cell_length_c     63.866648
_cell_angle_alpha  89.942303
_cell_angle_beta   90.010026
_cell_angle_gamma 90.425539
loop_
_atom_site_label
_atom_site_type_symbol
_atom_site_fract_x
_atom_site_fract_y
_atom_site_fract_z
_atom_type_partial_charge
H0 H 0.3478 0.41144 0.43316 0.0
H1 H 0.29194 0.37989 0.37957 0.0
H2 H 0.28119 0.34643 0.43987 0.0
H3 H 0.29195 0.31203 0.40573 0.0
C4 C 0.27943 0.32241 0.39253 0.0
O5 O 0.26332 0.34328 0.40013 0.0
H6 H 0.30275 0.32696 0.38142 0.0
C7 C 0.33001 0.39749 0.4263 0.0
C8 C 0.31546 0.37901 0.43917 0.0
C9 C 0.32162 0.39822 0.40476 0.0
C10 C 0.29894 0.37976 0.39609 0.0
C11 C 0.28466 0.3611 0.40872 0.0
C12 C 0.29247 0.36092 0.43024 0.0
H13 H 0.17952 0.09613 0.93645 0.0
H14 H 0.23884 0.16405 0.94191 0.0
H15 H 0.22006 0.13324 0.8813 0.0
H16 H 0.29799 0.15041 0.89139 0.0
C17 C 0.29021 0.16771 0.8991 0.0
O18 O 0.25141 0.16883 0.90174 0.0
H19 H 0.30438 0.16817 0.91467 0.0
C20 C 0.19374 0.11138 0.92916 0.0
C21 C 0.19759 0.11221 0.90722 0.0
C22 C 0.20812 0.13005 0.94186 0.0
C23 C 0.22697 0.14967 0.93241 0.0
C24 C 0.23176 0.15045 0.91065 0.0
C25 C 0.21676 0.13198 0.89813 0.0
H26 H 0.85353 0.10556 0.59261 0.0
H27 H 0.78904 0.13344 0.64436 0.0
H28 H 0.78335 0.16845 0.58482 0.0
H29 H 0.79317 0.20171 0.61951 0.0
C30 C 0.77916 0.19114 0.63221 0.0
O31 O 0.76299 0.1705 0.62391 0.0
H32 H 0.80135 0.18628 0.64386 0.0
C33 C 0.83325 0.11834 0.59873 0.0
C34 C 0.8195 0.13688 0.5857 0.0
C35 C 0.82225 0.11663 0.61987 0.0
C36 C 0.79789 0.1342 0.62812 0.0
C37 C 0.78469 0.15299 0.61551 0.0
C38 C 0.79477 0.15404 0.59434 0.0
H39 H 0.65913 0.40747 0.09426 0.0
H40 H 0.72258 0.34215 0.08503 0.0
H41 H 0.71904 0.37483 0.14572 0.0
H42 H 0.79278 0.35855 0.12998 0.0
C43 C 0.78369 0.34058 0.12388 0.0
O44 O 0.74465 0.33869 0.124 0.0
H45 H 0.79427 0.33903 0.10753 0.0
C46 C 0.67738 0.39345 0.10034 0.0
C47 C 0.68769 0.39372 0.12162 0.0
C48 C 0.68982 0.37505 0.08686 0.0
C49 C 0.71219 0.35639 0.0951 0.0
C50 C 0.72244 0.35638 0.11629 0.0
C51 C 0.71018 0.37492 0.12947 0.0
H52 H 0.67859 0.59611 0.59174 0.0
H53 H 0.73992 0.66317 0.58461 0.0
H54 H 0.73711 0.6278 0.64431 0.0
H55 H 0.7249 0.67918 0.64552 0.0
C56 C 0.74435 0.68528 0.63283 0.0
O57 O 0.76152 0.66559 0.62371 0.0
H58 H 0.72742 0.69492 0.62075 0.0
C59 C 0.69619 0.61033 0.5983 0.0
C60 C 0.70631 0.60942 0.61959 0.0
C61 C 0.70817 0.62956 0.58544 0.0
C62 C 0.73081 0.64799 0.59412 0.0
C63 C 0.74085 0.64736 0.61533 0.0
C64 C 0.72887 0.62808 0.62796 0.0
H65 H 0.84076 0.91725 0.08962 0.0
H66 H 0.78793 0.87987 0.1413 0.0
H67 H 0.7841 0.84908 0.07976 0.0
H68 H 0.71475 0.83929 0.1023 0.0
C69 C 0.72455 0.84309 0.11852 0.0
O70 O 0.76374 0.84348 0.11896 0.0
H71 H 0.71351 0.86106 0.12331 0.0
C72 C 0.82437 0.90216 0.09568 0.0
C73 C 0.81312 0.88357 0.08199 0.0
C74 C 0.81585 0.90103 0.11718 0.0
C75 C 0.79545 0.881 0.12488 0.0
C76 C 0.784 0.8624 0.11139 0.0
C77 C 0.79325 0.86353 0.09006 0.0
H78 H 0.16595 0.91004 0.42719 0.0
H79 H 0.22327 0.84233 0.43615 0.0
H80 H 0.22499 0.87627 0.376 0.0
H81 H 0.21008 0.82469 0.37583 0.0
C82 C 0.22969 0.81896 0.38853 0.0
O83 O 0.24667 0.83893 0.39755 0.0
H84 H 0.21294 0.80913 0.40065 0.0
C85 C 0.18278 0.89537 0.42107 0.0
C86 C 0.19363 0.89557 0.39983 0.0
C87 C 0.19354 0.87642 0.4345 0.0
C88 C 0.21514 0.85738 0.42631 0.0
C89 C 0.22602 0.85736 0.40525 0.0
C90 C 0.21565 0.87645 0.39215 0.0
H91 H 0.35323 0.60362 0.92919 0.0
H92 H 0.29831 0.63807 0.877 0.0
H93 H 0.29671 0.6718 0.93725 0.0
H94 H 0.22465 0.67524 0.91573 0.0
C95 C 0.2344 0.67332 0.89925 0.0
O96 O 0.27348 0.67467 0.89856 0.0
H97 H 0.22442 0.65538 0.8935 0.0
C98 C 0.3374 0.61862 0.92282 0.0
C99 C 0.32643 0.63768 0.93605 0.0
C100 C 0.32782 0.61864 0.90144 0.0
C101 C 0.30671 0.63792 0.89332 0.0
C102 C 0.29521 0.65678 0.90634 0.0
C103 C 0.30544 0.65683 0.92752 0.0
Tb104 Tb 0.04861 0.12552 0.23598 0.0
C105 C 0.89167 0.10431 0.26714 0.0
N106 N 0.91112 0.12541 0.26943 0.0
C107 C 0.85731 0.14714 0.25634 0.0
C108 C 0.85509 0.10362 0.25823 0.0
C109 C 0.89329 0.14682 0.2656 0.0
C110 C 0.83845 0.1254 0.2522 0.0
C111 C 0.88756 0.06143 0.27453 0.0
C112 C 0.90742 0.08355 0.27519 0.0
C113 C 0.85201 0.06032 0.26461 0.0
C114 C 0.83581 0.0814 0.25644 0.0
Tb115 Tb 0.97141 0.12218 0.2829 0.0
N116 N 0.94228 0.08525 0.28409 0.0
C117 C 0.90382 0.04127 0.28417 0.0
C118 C 0.95735 0.06608 0.29461 0.0
C119 C 0.93858 0.04371 0.29457 0.0
H120 H 0.90641 0.16377 0.26987 0.0
H121 H 0.951 0.02837 0.30244 0.0
H122 H 0.12415 0.10268 0.25887 0.0
H123 H 0.02703 0.21136 0.19705 0.0
H124 H 0.98428 0.06797 0.30255 0.0
H125 H 0.88945 0.02391 0.28405 0.0
H126 H 0.01385 0.16855 0.20447 0.0
H127 H 0.84391 0.16416 0.25274 0.0
H128 H 0.83646 0.04342 0.26362 0.0
H129 H 0.8079 0.08044 0.24938 0.0
H130 H 0.18715 0.11708 0.27077 0.0
H131 H 0.8104 0.1257 0.24527 0.0
H132 H 0.08412 0.2311 0.21198 0.0
N133 N 0.10728 0.13705 0.2475 0.0
C134 C 0.11767 0.16028 0.24368 0.0
C135 C 0.16777 0.12946 0.26328 0.0
C136 C 0.15314 0.16935 0.25027 0.0
C137 C 0.13211 0.12135 0.25656 0.0
C138 C 0.17818 0.15363 0.26034 0.0
N139 N 0.05959 0.1648 0.22601 0.0
C140 C 0.03734 0.17727 0.21227 0.0
C141 C 0.1024 0.19893 0.2283 0.0
C142 C 0.09258 0.17479 0.23295 0.0
C143 C 0.07768 0.21248 0.21591 0.0
C144 C 0.04536 0.20143 0.20752 0.0
H145 H 0.20574 0.1599 0.26565 0.0
H146 H 0.18956 0.20101 0.25141 0.0
H147 H 0.14504 0.22699 0.23222 0.0
O148 O 0.06738 0.12777 0.20474 0.0
O149 O 0.06196 0.13901 0.26752 0.0
O150 O 0.00658 0.15488 0.28006 0.0
O151 O 0.0706 0.09439 0.22168 0.0
O152 O 0.99178 0.14066 0.23069 0.0
O153 O 0.9715 0.15465 0.2629 0.0
O154 O 0.98639 0.1179 0.31449 0.0
O155 O 0.97846 0.09242 0.26045 0.0
O156 O 0.99169 0.11143 0.2296 0.0
O157 O 0.93375 0.13436 0.30624 0.0
O158 O 0.02714 0.1061 0.28888 0.0
O159 O 0.0523 0.09384 0.25678 0.0
C160 C 0.04368 0.1556 0.27802 0.0
C161 C 0.11689 0.10169 0.19523 0.0
C162 C 0.1578 0.10225 0.16429 0.0
C163 C 0.18777 0.09349 0.17662 0.0
C164 C 0.14711 0.09273 0.20719 0.0
C165 C 0.1824 0.08883 0.19792 0.0
C166 C 0.12246 0.10646 0.17381 0.0
C167 C 0.9723 0.15587 0.24228 0.0
C168 C 0.07903 0.10563 0.20438 0.0
C169 C 0.16252 0.19362 0.24637 0.0
C170 C 0.13713 0.20842 0.23548 0.0
C171 C 0.97588 0.09366 0.24003 0.0
C172 C 0.96304 0.14703 0.33762 0.0
C173 C 0.95638 0.16 0.37384 0.0
C174 C 0.98053 0.17972 0.36977 0.0
C175 C 0.98664 0.16702 0.33368 0.0
C176 C 0.94751 0.14376 0.35766 0.0
C177 C 0.9953 0.1833 0.3497 0.0
C178 C 0.0484 0.09171 0.27734 0.0
C179 C 0.95635 0.12864 0.32146 0.0
H180 H 0.21543 0.09034 0.16981 0.0
H181 H 0.14347 0.08852 0.2236 0.0
H182 H 0.20562 0.08202 0.20725 0.0
H183 H 0.09892 0.11292 0.16447 0.0
H184 H 0.98779 0.19235 0.3821 0.0
H185 H 0.99873 0.16981 0.31834 0.0
H186 H 0.92947 0.12823 0.36084 0.0
H187 H 0.01382 0.19857 0.34659 0.0
Tb188 Tb 0.45897 0.38637 0.7383 0.0
C189 C 0.62005 0.408 0.75934 0.0
N190 N 0.60137 0.38678 0.76264 0.0
C191 C 0.65204 0.3655 0.74576 0.0
C192 C 0.6545 0.40896 0.74816 0.0
C193 C 0.61838 0.36553 0.75736 0.0
C194 C 0.66978 0.38737 0.74073 0.0
C195 C 0.62578 0.45067 0.76724 0.0
C196 C 0.60606 0.42853 0.76869 0.0
C197 C 0.65907 0.45205 0.75521 0.0
C198 C 0.67336 0.43123 0.74563 0.0
Tb199 Tb 0.54498 0.38936 0.78058 0.0
N200 N 0.57351 0.4265 0.77992 0.0
C201 C 0.61181 0.47052 0.77831 0.0
C202 C 0.56087 0.44539 0.79169 0.0
C203 C 0.57952 0.46777 0.79084 0.0
H204 H 0.60655 0.34849 0.7624 0.0
H205 H 0.56899 0.48285 0.79984 0.0
H206 H 0.38568 0.40837 0.76339 0.0
H207 H 0.47531 0.30163 0.69681 0.0
H208 H 0.53617 0.44319 0.8015 0.0
H209 H 0.62616 0.48787 0.77765 0.0
H210 H 0.48804 0.34463 0.70376 0.0
H211 H 0.66468 0.34859 0.7411 0.0
H212 H 0.67442 0.46897 0.75362 0.0
H213 H 0.69964 0.43239 0.73687 0.0
H214 H 0.32537 0.39304 0.7785 0.0
H215 H 0.69618 0.3873 0.73204 0.0
H216 H 0.423 0.28057 0.71534 0.0
N217 N 0.40267 0.37395 0.75229 0.0
C218 C 0.39283 0.35051 0.74926 0.0
C219 C 0.34426 0.38084 0.77046 0.0
C220 C 0.35902 0.34089 0.75767 0.0
C221 C 0.37836 0.38946 0.76195 0.0
C222 C 0.3348 0.35636 0.76859 0.0
N223 N 0.44726 0.34717 0.72828 0.0
C224 C 0.46676 0.33535 0.71293 0.0
C225 C 0.40684 0.3122 0.73302 0.0
C226 C 0.41645 0.33647 0.7372 0.0
C227 C 0.42934 0.29927 0.71898 0.0
C228 C 0.45894 0.31108 0.70853 0.0
H229 H 0.30848 0.3497 0.77527 0.0
H230 H 0.32476 0.30847 0.76115 0.0
H231 H 0.36663 0.28331 0.73948 0.0
O232 O 0.4314 0.38489 0.7088 0.0
O233 O 0.45106 0.37343 0.77056 0.0
O234 O 0.50816 0.35726 0.78031 0.0
O235 O 0.43567 0.41847 0.72637 0.0
O236 O 0.51438 0.37106 0.72985 0.0
O237 O 0.53961 0.35691 0.7609 0.0
O238 O 0.53885 0.39248 0.8134 0.0
O239 O 0.53244 0.41899 0.75874 0.0
O240 O 0.51419 0.40051 0.72841 0.0
O241 O 0.58717 0.37511 0.80017 0.0
O242 O 0.49147 0.40598 0.79043 0.0
O243 O 0.45859 0.41726 0.76011 0.0
C244 C 0.47086 0.35686 0.78024 0.0
C245 C 0.40253 0.42055 0.69296 0.0
C246 C 0.37697 0.42254 0.65738 0.0
C247 C 0.36063 0.44493 0.66222 0.0
C248 C 0.3862 0.44304 0.69732 0.0
C249 C 0.36537 0.4551 0.68203 0.0
C250 C 0.39805 0.41041 0.67286 0.0
C251 C 0.53506 0.35554 0.74045 0.0
C252 C 0.42347 0.40772 0.70956 0.0
C253 C 0.35032 0.31636 0.75456 0.0
C254 C 0.37424 0.30202 0.74228 0.0
C255 C 0.53246 0.41778 0.73825 0.0
C256 C 0.59701 0.39638 0.83162 0.0
C257 C 0.61923 0.40483 0.86716 0.0
C258 C 0.64594 0.42125 0.85887 0.0
C259 C 0.62454 0.41244 0.82378 0.0
C260 C 0.59457 0.39251 0.85336 0.0
C261 C 0.64851 0.42498 0.83734 0.0
C262 C 0.46707 0.41978 0.78025 0.0
C263 C 0.57172 0.383 0.81724 0.0
H264 H 0.34462 0.45475 0.65055 0.0
H265 H 0.3892 0.45123 0.71264 0.0
H266 H 0.35282 0.4724 0.68554 0.0
H267 H 0.41057 0.39307 0.66932 0.0
H268 H 0.66568 0.43073 0.869 0.0
H269 H 0.62809 0.41502 0.80717 0.0
H270 H 0.57369 0.37989 0.85947 0.0
H271 H 0.66961 0.43733 0.83111 0.0
Tb272 Tb 0.05076 0.89044 0.74121 0.0
C273 C 0.89572 0.85544 0.7735 0.0
N274 N 0.90815 0.87834 0.77006 0.0
C275 C 0.8501 0.88774 0.75238 0.0
C276 C 0.86032 0.84748 0.76585 0.0
C277 C 0.88544 0.89481 0.76037 0.0
C278 C 0.83765 0.86389 0.75492 0.0
C279 C 0.90598 0.81658 0.78978 0.0
C280 C 0.91829 0.8403 0.78527 0.0
C281 C 0.87137 0.80815 0.78153 0.0
C282 C 0.84846 0.82363 0.76971 0.0
Tb283 Tb 0.96564 0.88834 0.78393 0.0
N284 N 0.95095 0.8494 0.7935 0.0
C285 C 0.92797 0.80244 0.8032 0.0
C286 C 0.97032 0.83645 0.80822 0.0
C287 C 0.95991 0.81259 0.81277 0.0
H288 H 0.89476 0.91332 0.75864 0.0
H289 H 0.97601 0.80226 0.82403 0.0
H290 H 0.11241 0.84939 0.75924 0.0
H291 H 0.07467 0.98398 0.72189 0.0
H292 H 0.99328 0.84453 0.81696 0.0
H293 H 0.91957 0.7841 0.80703 0.0
H294 H 0.04158 0.94439 0.72038 0.0
H295 H 0.83245 0.9007 0.74435 0.0
H296 H 0.86153 0.78994 0.78473 0.0
H297 H 0.82135 0.81713 0.76395 0.0
H298 H 0.17072 0.84945 0.78042 0.0
H299 H 0.81025 0.85847 0.74876 0.0
H300 H 0.13216 0.98887 0.74384 0.0
N301 N 0.10745 0.8877 0.75885 0.0
C302 C 0.12625 0.9089 0.76203 0.0
C303 C 0.15812 0.86637 0.77572 0.0
C304 C 0.16072 0.90983 0.7732 0.0
C305 C 0.12438 0.86643 0.76418 0.0
C306 C 0.17597 0.88823 0.78066 0.0
N307 N 0.0794 0.92754 0.74168 0.0
C308 C 0.06654 0.9465 0.73003 0.0
C309 C 0.1319 0.95161 0.75418 0.0
C310 C 0.11221 0.92948 0.75272 0.0
C311 C 0.1178 0.97152 0.74319 0.0
C312 C 0.08531 0.96884 0.7308 0.0
H313 H 0.20238 0.88813 0.78934 0.0
H314 H 0.20579 0.93326 0.78455 0.0
H315 H 0.1805 0.9699 0.76785 0.0
O316 O 0.04376 0.89346 0.70846 0.0
O317 O 0.03976 0.91993 0.7634 0.0
O318 O 0.02177 0.90105 0.79352 0.0
O319 O 0.09276 0.87647 0.72134 0.0
O320 O 0.99723 0.90737 0.73181 0.0
O321 O 0.96647 0.91959 0.76247 0.0
O322 O 0.93823 0.88672 0.81323 0.0
O323 O 0.95675 0.87522 0.75184 0.0
O324 O 0.01327 0.8586 0.7416 0.0
O325 O 0.94394 0.92031 0.7968 0.0
O326 O 0.0203 0.87168 0.792 0.0
O327 O 0.04554 0.85785 0.76081 0.0
C328 C 0.04013 0.9184 0.78386 0.0
C329 C 0.10121 0.89783 0.68973 0.0
C330 C 0.12136 0.90695 0.65395 0.0
C331 C 0.14743 0.92397 0.66188 0.0
C332 C 0.12834 0.91437 0.69724 0.0
C333 C 0.15092 0.92755 0.68338 0.0
C334 C 0.09807 0.89398 0.66802 0.0
C335 C 0.97392 0.92169 0.74218 0.0
C336 C 0.07669 0.88422 0.70437 0.0
C337 C 0.17953 0.93211 0.77578 0.0
C338 C 0.1652 0.95297 0.76622 0.0
C339 C 0.97596 0.85837 0.74219 0.0
C340 C 0.94816 0.92138 0.8339 0.0
C341 C 0.94727 0.92366 0.87216 0.0
C342 C 0.97606 0.94135 0.87131 0.0
C343 C 0.97653 0.93935 0.83348 0.0
C344 C 0.93334 0.9138 0.85332 0.0
C345 C 0.99039 0.94919 0.85209 0.0
C346 C 0.04086 0.85624 0.78124 0.0
C347 C 0.93446 0.90997 0.81436 0.0
H348 H 0.16597 0.93401 0.65145 0.0
H349 H 0.13255 0.91691 0.7138 0.0
H350 H 0.17162 0.94033 0.68936 0.0
H351 H 0.07766 0.88093 0.66212 0.0
H352 H 0.98704 0.94944 0.88553 0.0
H353 H 0.9881 0.94578 0.81879 0.0
H354 H 0.91147 0.89994 0.85376 0.0
H355 H 0.01229 0.96299 0.85161 0.0
Tb356 Tb 0.46841 0.62262 0.2425 0.0
C357 C 0.6357 0.64707 0.26532 0.0
N358 N 0.61786 0.62541 0.26779 0.0
C359 C 0.67202 0.60505 0.25377 0.0
C360 C 0.67232 0.64859 0.25656 0.0
C361 C 0.63554 0.60447 0.26236 0.0
C362 C 0.69046 0.6272 0.25078 0.0
C363 C 0.63345 0.69072 0.26795 0.0
C364 C 0.61636 0.66786 0.27085 0.0
C365 C 0.66996 0.69234 0.25921 0.0
C366 C 0.68935 0.67134 0.25355 0.0
Tb367 Tb 0.55822 0.62676 0.28153 0.0
N368 N 0.58045 0.66563 0.27855 0.0
C369 C 0.61333 0.71125 0.27393 0.0
C370 C 0.56189 0.68554 0.28571 0.0
C371 C 0.57764 0.7086 0.28313 0.0
H372 H 0.62187 0.58724 0.26502 0.0
H373 H 0.56244 0.72432 0.28853 0.0
H374 H 0.40385 0.66192 0.25789 0.0
H375 H 0.46127 0.52564 0.23164 0.0
H376 H 0.53554 0.68393 0.29401 0.0
H377 H 0.62542 0.72915 0.27194 0.0
H378 H 0.48837 0.56617 0.22705 0.0
H379 H 0.68592 0.58841 0.24949 0.0
H380 H 0.68343 0.70976 0.25676 0.0
H381 H 0.71743 0.67289 0.24676 0.0
H382 H 0.34017 0.66081 0.27398 0.0
H383 H 0.71864 0.6276 0.24401 0.0
H384 H 0.39936 0.52038 0.24935 0.0
N385 N 0.4086 0.62381 0.25614 0.0
C386 C 0.39098 0.60213 0.25892 0.0
C387 C 0.35428 0.64415 0.26997 0.0
C388 C 0.35436 0.60059 0.26766 0.0
C389 C 0.39059 0.64474 0.26115 0.0
C390 C 0.33615 0.62197 0.27336 0.0
N391 N 0.44536 0.58382 0.24453 0.0
C392 C 0.46285 0.56422 0.23605 0.0
C393 C 0.39248 0.55861 0.25511 0.0
C394 C 0.40999 0.58142 0.25291 0.0
C395 C 0.41179 0.53826 0.24795 0.0
C396 C 0.44686 0.54114 0.23808 0.0
H397 H 0.30798 0.62157 0.28014 0.0
H398 H 0.30901 0.57625 0.27703 0.0
H399 H 0.34214 0.53954 0.26575 0.0
O400 O 0.47177 0.61555 0.21017 0.0
O401 O 0.46273 0.60846 0.27468 0.0
O402 O 0.52175 0.59478 0.28437 0.0
O403 O 0.42894 0.639 0.2223 0.0
O404 O 0.52154 0.60436 0.23383 0.0
O405 O 0.55186 0.59278 0.26449 0.0
O406 O 0.55866 0.63642 0.3134 0.0
O407 O 0.56393 0.63977 0.24909 0.0
O408 O 0.50528 0.65456 0.24036 0.0
O409 O 0.5984 0.61076 0.30144 0.0
O410 O 0.5046 0.64399 0.29082 0.0
O411 O 0.47525 0.65614 0.26016 0.0
C412 C 0.48453 0.59339 0.28492 0.0
C413 C 0.41359 0.61641 0.19203 0.0
C414 C 0.38921 0.60851 0.15688 0.0
C415 C 0.36176 0.59289 0.16552 0.0
C416 C 0.38553 0.60106 0.20029 0.0
C417 C 0.3599 0.5893 0.1871 0.0
C418 C 0.41513 0.62028 0.17029 0.0
C419 C 0.54515 0.59041 0.24428 0.0
C420 C 0.44179 0.62814 0.20578 0.0
C421 C 0.33713 0.57784 0.27031 0.0
C422 C 0.35608 0.55691 0.26397 0.0
C423 C 0.54243 0.65478 0.23863 0.0
C424 C 0.57769 0.60545 0.3362 0.0
C425 C 0.58292 0.59775 0.37376 0.0
C426 C 0.56245 0.57607 0.37102 0.0
C427 C 0.55767 0.58366 0.33382 0.0
C428 C 0.5903 0.61243 0.35617 0.0
C429 C 0.54994 0.56912 0.35116 0.0
C430 C 0.48021 0.65757 0.28057 0.0
C431 C 0.58526 0.62119 0.31809 0.0
H432 H 0.34126 0.58378 0.15559 0.0
H433 H 0.38323 0.5982 0.21688 0.0
H434 H 0.3384 0.57745 0.19365 0.0
H435 H 0.4367 0.63217 0.1638 0.0
H436 H 0.5567 0.56423 0.38417 0.0
H437 H 0.54823 0.57783 0.31856 0.0
H438 H 0.60552 0.62938 0.35799 0.0
H439 H 0.53444 0.55232 0.34919 0.0
H440 H 0.18893 0.94396 0.40881 0.0
H441 H 0.16662 0.97633 0.38606 0.0
H442 H 0.15148 0.92537 0.33568 0.0
H443 H 0.17153 0.89264 0.35867 0.0
H444 H 0.19399 0.994 0.3498 0.0
H445 H 0.04922 0.95695 0.33666 0.0
H446 H 0.08072 0.94493 0.35626 0.0
H447 H 0.08616 0.93658 0.32921 0.0
C448 C 0.18027 0.93951 0.39301 0.0
C449 C 0.18166 0.91557 0.3857 0.0
C450 C 0.16787 0.95811 0.37994 0.0
C451 C 0.1567 0.95323 0.35927 0.0
C452 C 0.15907 0.9295 0.35172 0.0
H453 H 0.07819 0.0506 0.26028 0.0
H454 H 0.10732 0.01673 0.27901 0.0
C455 C 0.17111 0.91084 0.36483 0.0
C456 C 0.14277 0.97305 0.34567 0.0
H457 H 0.06657 0.99148 0.31681 0.0
C458 C 0.16614 0.99342 0.34259 0.0
C459 C 0.10634 0.97233 0.33629 0.0
C460 C 0.07899 0.95164 0.33991 0.0
C461 C 0.15403 0.01304 0.33043 0.0
C462 C 0.11774 0.01225 0.32111 0.0
C463 C 0.09457 0.99183 0.32387 0.0
C464 C 0.10228 0.03313 0.30958 0.0
C465 C 0.17991 0.03462 0.32767 0.0
C466 C 0.08995 0.05343 0.32065 0.0
C467 C 0.07307 0.07263 0.31009 0.0
C468 C 0.06841 0.07193 0.28822 0.0
C469 C 0.08156 0.05174 0.2771 0.0
C470 C 0.09809 0.03237 0.28775 0.0
H471 H 0.2093 0.03086 0.33298 0.0
H472 H 0.18066 0.04027 0.31098 0.0
H473 H 0.16878 0.04996 0.33693 0.0
H474 H 0.09273 0.0542 0.33753 0.0
H475 H 0.06339 0.08794 0.31912 0.0
H476 H 0.35827 0.62129 0.86211 0.0
H477 H 0.37839 0.58781 0.83971 0.0
H478 H 0.34449 0.53693 0.88743 0.0
H479 H 0.32378 0.57023 0.90976 0.0
H480 H 0.43393 0.55224 0.85008 0.0
H481 H 0.29277 0.51147 0.83325 0.0
H482 H 0.29852 0.54194 0.84288 0.0
H483 H 0.30233 0.51679 0.86051 0.0
C484 C 0.35469 0.60295 0.86771 0.0
C485 C 0.33944 0.59838 0.88769 0.0
C486 C 0.36634 0.58388 0.85496 0.0
C487 C 0.36251 0.55993 0.86184 0.0
C488 C 0.34717 0.55529 0.88172 0.0
H489 H 0.47467 0.43049 0.82191 0.0
H490 H 0.44858 0.46488 0.84073 0.0
C491 C 0.33572 0.57433 0.89453 0.0
C492 C 0.37599 0.53979 0.84861 0.0
H493 H 0.34678 0.48852 0.82346 0.0
C494 C 0.41488 0.53838 0.84414 0.0
C495 C 0.35097 0.52189 0.84074 0.0
C496 C 0.30875 0.52311 0.8444 0.0
C497 C 0.42959 0.51914 0.83249 0.0
C498 C 0.40476 0.50079 0.82527 0.0
C499 C 0.36573 0.50254 0.8292 0.0
C500 C 0.41908 0.47945 0.81392 0.0
C501 C 0.47159 0.51852 0.82797 0.0
C502 C 0.41027 0.47596 0.79272 0.0
C503 C 0.42527 0.45632 0.78182 0.0
C504 C 0.44911 0.43975 0.792 0.0
C505 C 0.45676 0.44296 0.81346 0.0
C506 C 0.44195 0.46265 0.82428 0.0
H507 H 0.48536 0.53637 0.8306 0.0
H508 H 0.48523 0.50519 0.83849 0.0
H509 H 0.47689 0.51283 0.81156 0.0
H510 H 0.39245 0.48871 0.78452 0.0
H511 H 0.41863 0.4544 0.76534 0.0
H512 H 0.70258 0.56124 0.61019 0.0
H513 H 0.67439 0.5288 0.63121 0.0
H514 H 0.6508 0.57954 0.6806 0.0
H515 H 0.67785 0.61225 0.65942 0.0
H516 H 0.69263 0.51166 0.67147 0.0
H517 H 0.54676 0.54884 0.6685 0.0
H518 H 0.58426 0.55939 0.65149 0.0
H519 H 0.58223 0.5694 0.67822 0.0
C520 C 0.69122 0.56553 0.62549 0.0
C521 C 0.69211 0.58938 0.63304 0.0
C522 C 0.67536 0.54694 0.63752 0.0
C523 C 0.65995 0.55185 0.65729 0.0
C524 C 0.66194 0.57546 0.66521 0.0
H525 H 0.53994 0.46498 0.7492 0.0
H526 H 0.57289 0.49705 0.72992 0.0
C527 C 0.6778 0.59407 0.65318 0.0
C528 C 0.64125 0.53229 0.66943 0.0
H529 H 0.55607 0.5146 0.69001 0.0
C530 C 0.66276 0.51224 0.6755 0.0
C531 C 0.60226 0.53313 0.67461 0.0
C532 C 0.57736 0.55372 0.66774 0.0
C533 C 0.64643 0.49313 0.68692 0.0
C534 C 0.60744 0.49397 0.69207 0.0
C535 C 0.58597 0.51404 0.68604 0.0
C536 C 0.58829 0.47427 0.70381 0.0
C537 C 0.67118 0.47246 0.69375 0.0
C538 C 0.5856 0.4509 0.69539 0.0
C539 C 0.56696 0.43251 0.70646 0.0
C540 C 0.5508 0.43726 0.7261 0.0
C541 C 0.55285 0.46076 0.73428 0.0
C542 C 0.57146 0.4791 0.72324 0.0
H543 H 0.70178 0.47737 0.69325 0.0
H544 H 0.66388 0.46659 0.70988 0.0
H545 H 0.66653 0.45691 0.6831 0.0
H546 H 0.59772 0.44692 0.68021 0.0
H547 H 0.56565 0.41454 0.69981 0.0
H548 H 0.81494 0.94983 0.11019 0.0
H549 H 0.84023 0.98183 0.13269 0.0
H550 H 0.87016 0.92887 0.17926 0.0
H551 H 0.84606 0.89664 0.15656 0.0
H552 H 0.82089 0.99536 0.17372 0.0
H553 H 0.97044 0.9648 0.16871 0.0
H554 H 0.93392 0.95377 0.15129 0.0
H555 H 0.93728 0.94221 0.17752 0.0
C556 C 0.82715 0.94495 0.12516 0.0
C557 C 0.82885 0.92063 0.13147 0.0
C558 C 0.84133 0.96328 0.13806 0.0
C559 C 0.85761 0.95769 0.15749 0.0
C560 C 0.85831 0.93354 0.16415 0.0
H561 H 0.96982 0.04648 0.25171 0.0
H562 H 0.93864 0.01353 0.23265 0.0
C563 C 0.84415 0.91517 0.15125 0.0
C564 C 0.87435 0.97716 0.17057 0.0
H565 H 0.95791 0.9974 0.19148 0.0
C566 C 0.85084 0.99583 0.17761 0.0
C567 C 0.91345 0.97771 0.1756 0.0
C568 C 0.94039 0.95869 0.16777 0.0
C569 C 0.86536 0.01497 0.18969 0.0
C570 C 0.90448 0.01559 0.19455 0.0
C571 C 0.92791 0.99682 0.18771 0.0
C572 C 0.92187 0.03579 0.20642 0.0
C573 C 0.83873 0.03421 0.19741 0.0
C574 C 0.923 0.05916 0.19791 0.0
C575 C 0.94067 0.07802 0.20882 0.0
C576 C 0.95736 0.07379 0.22843 0.0
C577 C 0.95643 0.05034 0.23684 0.0
C578 C 0.93888 0.03149 0.22592 0.0
H579 H 0.80862 0.02823 0.19659 0.0
H580 H 0.84547 0.03931 0.21383 0.0
H581 H 0.84202 0.05058 0.18752 0.0
H582 H 0.91062 0.06274 0.18271 0.0
H583 H 0.94108 0.09592 0.20197 0.0
H584 H 0.84524 0.11891 0.66095 0.0
H585 H 0.86913 0.08597 0.68279 0.0
H586 H 0.85688 0.03661 0.6311 0.0
H587 H 0.83185 0.06915 0.60927 0.0
H588 H 0.82654 0.03235 0.68628 0.0
H589 H 0.9752 0.03911 0.65699 0.0
H590 H 0.94459 0.06511 0.65812 0.0
H591 H 0.93647 0.04228 0.63875 0.0
C592 C 0.84711 0.101 0.65427 0.0
C593 C 0.83663 0.09671 0.63331 0.0
C594 C 0.86095 0.08226 0.66676 0.0
C595 C 0.86478 0.059 0.65847 0.0
C596 C 0.85422 0.05454 0.63768 0.0
H597 H 0.97 0.92731 0.69972 0.0
H598 H 0.94183 0.96058 0.68023 0.0
C599 C 0.8402 0.0732 0.62521 0.0
C600 C 0.88026 0.03931 0.67144 0.0
H601 H 0.96123 0.00776 0.68072 0.0
C602 C 0.85599 0.02696 0.68521 0.0
C603 C 0.91857 0.03239 0.66978 0.0
C604 C 0.9455 0.04536 0.65519 0.0
C605 C 0.869 0.0074 0.6972 0.0
C606 C 0.90751 1.00049 0.69565 0.0
C607 C 0.93176 0.01307 0.68192 0.0
C608 C 0.92321 0.97996 0.70773 0.0
C609 C 0.84113 0.9939 0.71088 0.0
C610 C 0.92221 0.9798 0.72971 0.0
C611 C 0.93804 0.96065 0.74094 0.0
C612 C 0.95567 0.94149 0.73038 0.0
C613 C 0.95669 0.94177 0.70837 0.0
C614 C 0.94062 0.96079 0.69718 0.0
H615 H 0.81135 0.99706 0.70593 0.0
H616 H 0.84655 0.97418 0.71059 0.0
H617 H 0.84412 1.00027 0.72727 0.0
H618 H 0.90977 0.99467 0.73821 0.0
H619 H 0.93711 0.96114 0.75788 0.0
H620 H 0.66387 0.39127 0.16255 0.0
H621 H 0.6425 0.42454 0.18481 0.0
H622 H 0.6614 0.47471 0.13421 0.0
H623 H 0.68392 0.44185 0.11204 0.0
H624 H 0.68661 0.47388 0.19247 0.0
H625 H 0.54417 0.47883 0.155 0.0
H626 H 0.57201 0.45156 0.15489 0.0
H627 H 0.58487 0.47626 0.13812 0.0
C628 C 0.66399 0.40942 0.15623 0.0
C629 C 0.67537 0.41383 0.13543 0.0
C630 C 0.65162 0.42835 0.16894 0.0
C631 C 0.65019 0.45194 0.16104 0.0
C632 C 0.66204 0.45653 0.14047 0.0
H633 H 0.5586 0.58764 0.20236 0.0
H634 H 0.58637 0.55405 0.18304 0.0
C635 C 0.67461 0.43769 0.1278 0.0
C636 C 0.63557 0.47182 0.17407 0.0
H637 H 0.5593 0.50869 0.17994 0.0
C638 C 0.65873 0.48148 0.18988 0.0
C639 C 0.59933 0.48165 0.17046 0.0
C640 C 0.57338 0.47156 0.15379 0.0
C641 C 0.6468 0.50123 0.20194 0.0
C642 C 0.6104 0.51108 0.19837 0.0
C643 C 0.58719 0.50116 0.18265 0.0
C644 C 0.59583 0.5319 0.21046 0.0
C645 C 0.67374 0.51181 0.21791 0.0
C646 C 0.59198 0.53065 0.23232 0.0
C647 C 0.57642 0.54993 0.24343 0.0
C648 C 0.56394 0.57065 0.23282 0.0
C649 C 0.56793 0.57189 0.21096 0.0
C650 C 0.58378 0.55272 0.1999 0.0
H651 H 0.7036 0.50679 0.21461 0.0
H652 H 0.67179 0.5318 0.21834 0.0
H653 H 0.66629 0.50473 0.23365 0.0
H654 H 0.60016 0.51453 0.24075 0.0
H655 H 0.57319 0.54834 0.26025 0.0
H656 H 0.35067 0.39572 0.36491 0.0
H657 H 0.37708 0.42875 0.34377 0.0
H658 H 0.35309 0.47903 0.39341 0.0
H659 H 0.32612 0.44631 0.4145 0.0
H660 H 0.34279 0.47323 0.33046 0.0
H661 H 0.46801 0.48822 0.38178 0.0
H662 H 0.43926 0.46114 0.38305 0.0
H663 H 0.42305 0.48852 0.39503 0.0
C664 C 0.35064 0.41384 0.37125 0.0
C665 C 0.33657 0.4183 0.3915 0.0
C666 C 0.36589 0.43266 0.35918 0.0
C667 C 0.36757 0.45624 0.36717 0.0
C668 C 0.35277 0.46087 0.38713 0.0
H669 H 0.41384 0.5918 0.30258 0.0
H670 H 0.38442 0.55807 0.3216 0.0
C671 C 0.33745 0.44212 0.39918 0.0
C672 C 0.385 0.47603 0.35471 0.0
H673 H 0.45816 0.51681 0.35471 0.0
C674 C 0.36805 0.48274 0.33571 0.0
C675 C 0.41818 0.48822 0.36152 0.0
C676 C 0.43848 0.48109 0.38136 0.0
C677 C 0.38308 0.50165 0.3235 0.0
C678 C 0.41567 0.51425 0.33059 0.0
C679 C 0.43296 0.50725 0.34941 0.0
C680 C 0.43278 0.53448 0.31855 0.0
C681 C 0.36435 0.5078 0.30296 0.0
C682 C 0.46981 0.53249 0.31075 0.0
C683 C 0.48653 0.55164 0.29979 0.0
C684 C 0.46668 0.57326 0.29664 0.0
C685 C 0.42965 0.57527 0.30457 0.0
C686 C 0.41281 0.55602 0.31541 0.0
H687 H 0.34511 0.49312 0.29752 0.0
H688 H 0.34729 0.5244 0.30495 0.0
H689 H 0.38595 0.51136 0.29066 0.0
H690 H 0.48572 0.51604 0.31303 0.0
H691 H 0.51492 0.54943 0.29363 0.0
H692 H 0.22834 0.09231 0.87171 0.0
H693 H 0.20174 0.06021 0.84985 0.0
H694 H 0.10592 0.05395 0.89153 0.0
H695 H 0.13093 0.08703 0.91267 0.0
H696 H 0.18668 0.01408 0.85826 0.0
H697 H 0.05293 0.0593 0.83632 0.0
H698 H 0.09145 0.07512 0.84901 0.0
H699 H 0.05853 0.05723 0.86416 0.0
C700 C 0.20122 0.08447 0.87602 0.0
C701 C 0.18172 0.09245 0.89393 0.0
C702 C 0.18624 0.06592 0.8636 0.0
C703 C 0.1515 0.05492 0.86883 0.0
C704 C 0.1323 0.06254 0.88687 0.0
H705 H 0.06925 0.91585 0.82337 0.0
H706 H 0.09726 0.94886 0.84391 0.0
C707 C 0.14701 0.08124 0.89916 0.0
C708 C 0.13574 0.03514 0.85567 0.0
H709 H 0.05629 0.01707 0.82922 0.0
C710 C 0.15825 0.0148 0.8518 0.0
C711 C 0.09887 0.03623 0.84694 0.0
C712 C 0.07422 0.05826 0.84912 0.0
C713 C 0.14464 0.99535 0.83978 0.0
C714 C 0.10712 0.99597 0.83195 0.0
C715 C 0.08487 0.01647 0.83549 0.0
C716 C 0.09056 0.97581 0.81962 0.0
C717 C 0.17082 0.97456 0.83523 0.0
C718 C 0.0764 0.98015 0.79944 0.0
C719 C 0.05984 0.96148 0.78791 0.0
C720 C 0.0574 0.93806 0.79624 0.0
C721 C 0.07115 0.93372 0.81652 0.0
C722 C 0.08748 0.95249 0.82816 0.0
H723 H 0.20108 0.97985 0.83719 0.0
H724 H 0.16468 0.9596 0.84632 0.0
H725 H 0.16665 0.96769 0.81905 0.0
H726 H 0.07814 0.99804 0.79261 0.0
H727 H 0.04854 0.96545 0.77254 0.0
H728 H 0.2208 0.09138 0.96745 0.0
H729 H 0.21187 0.08895 1.00542 0.0
H730 H 0.17697 0.16336 1.00656 0.0
H731 H 0.18558 0.16592 0.96848 0.0
H732 H 0.2479 0.12139 0.03734 0.0
H733 H 0.08995 0.12295 0.03666 0.0
H734 H 0.11735 0.11431 0.014 0.0
H735 H 0.11456 0.14547 0.02138 0.0
C736 C 0.211 0.10719 0.97576 0.0
C737 C 0.20369 0.12881 0.96497 0.0
C738 C 0.2061 0.1058 0.99744 0.0
C739 C 0.19342 0.1259 1.00871 0.0
C740 C 0.18643 0.14759 0.99807 0.0
H741 H 0.134 0.14082 0.14089 0.0
H742 H 0.14337 0.14765 0.10331 0.0
C743 C 0.19162 0.14907 0.97638 0.0
C744 C 0.18795 0.12411 0.03164 0.0
H745 H 0.11988 0.12147 0.06962 0.0
C746 C 0.21996 0.12145 0.04445 0.0
C747 C 0.15146 0.12438 0.04079 0.0
C748 C 0.11621 0.12679 0.02758 0.0
C749 C 0.21647 0.11907 0.06625 0.0
C750 C 0.17988 0.11866 0.07542 0.0
C751 C 0.14788 0.12171 0.06259 0.0
C752 C 0.17418 0.11452 0.0982 0.0
C753 C 0.25209 0.11741 0.07927 0.0
C754 C 0.1878 0.09345 0.10774 0.0
C755 C 0.18262 0.08956 0.12918 0.0
C756 C 0.16323 0.10651 0.14149 0.0
C757 C 0.14892 0.12738 0.13182 0.0
C758 C 0.15434 0.13134 0.11037 0.0
H759 H 0.2769 0.12542 0.071 0.0
H760 H 0.24871 0.12671 0.09454 0.0
H761 H 0.25842 0.09813 0.08233 0.0
H762 H 0.20219 0.07987 0.09857 0.0
H763 H 0.19329 0.07307 0.13607 0.0
H764 H 0.26581 0.3736 0.47175 0.0
H765 H 0.27952 0.37703 0.50927 0.0
H766 H 0.39838 0.38706 0.49542 0.0
H767 H 0.38461 0.38433 0.45793 0.0
H768 H 0.32303 0.35221 0.53637 0.0
H769 H 0.37805 0.44602 0.52993 0.0
H770 H 0.35421 0.43102 0.50857 0.0
H771 H 0.40342 0.42507 0.51389 0.0
C772 C 0.29488 0.37637 0.47676 0.0
C773 C 0.32408 0.379 0.46194 0.0
C774 C 0.30269 0.37836 0.49818 0.0
C775 C 0.33987 0.38288 0.50518 0.0
C776 C 0.36932 0.38433 0.49041 0.0
H777 H 0.43193 0.40513 0.63129 0.0
H778 H 0.4245 0.39266 0.59456 0.0
C779 C 0.36146 0.38267 0.469 0.0
C780 C 0.34763 0.38657 0.52786 0.0
H781 H 0.3842 0.42707 0.563 0.0
C782 C 0.33642 0.36857 0.54217 0.0
C783 C 0.36495 0.40801 0.53549 0.0
C784 C 0.37551 0.42873 0.52121 0.0
C785 C 0.34214 0.37144 0.56382 0.0
C786 C 0.35958 0.39276 0.57132 0.0
C787 C 0.37122 0.41061 0.55709 0.0
C788 C 0.36374 0.39773 0.59399 0.0
C789 C 0.32947 0.35175 0.57862 0.0
C790 C 0.33199 0.4045 0.60576 0.0
C791 C 0.33619 0.41181 0.62657 0.0
C792 C 0.37222 0.41234 0.63604 0.0
C793 C 0.40382 0.4047 0.62444 0.0
C794 C 0.39965 0.39767 0.60349 0.0
H795 H 0.32183 0.33484 0.57022 0.0
H796 H 0.35219 0.34782 0.59015 0.0
H797 H 0.30425 0.35793 0.58746 0.0
H798 H 0.30411 0.40484 0.59863 0.0
H799 H 0.31134 0.41748 0.63519 0.0
H800 H 0.68959 0.41452 0.06117 0.0
H801 H 0.67322 0.41632 0.02409 0.0
H802 H 0.65394 0.33935 0.0236 0.0
H803 H 0.669 0.33749 0.06104 0.0
H804 H 0.70889 0.3933 0.99132 0.0
H805 H 0.55736 0.36521 0.99619 0.0
H806 H 0.58431 0.37445 0.01889 0.0
H807 H 0.59057 0.34485 1.00801 0.0
C808 C 0.68127 0.398 0.05331 0.0
C809 C 0.68025 0.37589 0.06416 0.0
C810 C 0.67217 0.39904 0.03206 0.0
C811 C 0.6618 0.37804 0.02115 0.0
C812 C 0.66113 0.35586 0.03181 0.0
H813 H 0.61406 0.36106 0.88716 0.0
H814 H 0.62227 0.35309 0.9247 0.0
C815 C 0.6702 0.35479 0.05315 0.0
C816 C 0.65309 0.37952 0.99845 0.0
H817 H 0.58249 0.37183 0.96228 0.0
C818 C 0.68127 0.38855 0.98498 0.0
C819 C 0.61709 0.37319 0.99019 0.0
C820 C 0.58542 0.36406 1.00404 0.0
C821 C 0.67435 0.39168 0.96353 0.0
C822 C 0.63811 0.38593 0.95536 0.0
C823 C 0.61018 0.37629 0.96866 0.0
C824 C 0.62868 0.3907 0.93315 0.0
C825 C 0.70591 0.40113 0.94974 0.0
C826 C 0.62814 0.4145 0.92567 0.0
C827 C 0.6233 0.41911 0.90435 0.0
C828 C 0.61882 0.39999 0.89006 0.0
C829 C 0.61725 0.37618 0.89777 0.0
C830 C 0.62211 0.37159 0.91918 0.0
H831 H 0.73414 0.39912 0.95726 0.0
H832 H 0.70617 0.3916 0.93446 0.0
H833 H 0.70137 0.42062 0.94667 0.0
H834 H 0.63248 0.42952 0.93628 0.0
H835 H 0.62392 0.43766 0.89896 0.0
H836 H 0.83486 0.0999 0.55825 0.0
H837 H 0.85883 0.10293 0.52255 0.0
H838 H 0.85242 0.18057 0.52583 0.0
H839 H 0.83189 0.17787 0.56211 0.0
H840 H 0.83101 0.11901 0.4879 0.0
H841 H 0.95809 0.17426 0.50588 0.0
H842 H 0.92906 0.161 0.52612 0.0
H843 H 0.91563 0.18911 0.51404 0.0
C844 C 0.83931 0.11768 0.55161 0.0
C845 C 0.83185 0.13863 0.56336 0.0
C846 C 0.85262 0.11937 0.53103 0.0
C847 C 0.85834 0.142 0.52159 0.0
C848 C 0.84944 0.1629 0.53294 0.0
H849 H 0.88303 0.16284 0.3867 0.0
H850 H 0.85865 0.1579 0.42243 0.0
C851 C 0.83691 0.16127 0.55365 0.0
C852 C 0.87329 0.14369 0.49984 0.0
H853 H 0.94108 0.17122 0.46984 0.0
C854 C 0.85528 0.13028 0.48398 0.0
C855 C 0.90544 0.158 0.49472 0.0
C856 C 0.9284 0.17118 0.51114 0.0
C857 C 0.86813 0.13106 0.46316 0.0
C858 C 0.89893 0.14647 0.45785 0.0
C859 C 0.9172 0.15962 0.47378 0.0
C860 C 0.9132 0.14908 0.43602 0.0
C861 C 0.84912 0.11482 0.44729 0.0
C862 C 0.95214 0.14669 0.43179 0.0
C863 C 0.96614 0.1503 0.41156 0.0
C864 C 0.94139 0.156 0.39513 0.0
C865 C 0.90247 0.1582 0.39918 0.0
C866 C 0.88855 0.15514 0.41954 0.0
H867 H 0.83578 0.09884 0.45491 0.0
H868 H 0.8263 0.12496 0.43926 0.0
H869 H 0.86956 0.10839 0.43535 0.0
H870 H 0.9718 0.1421 0.44419 0.0
H871 H 0.99628 0.14851 0.40868 0.0
H872 H 0.8035 0.92235 0.05628 0.0
H873 H 0.82221 0.92643 0.01958 0.0
H874 H 0.86336 0.85326 0.01997 0.0
H875 H 0.84385 0.84895 0.05664 0.0
H876 H 0.89158 0.92448 1.00404 0.0
H877 H 0.80401 0.85349 0.96612 0.0
H878 H 0.7956 0.86353 0.99258 0.0
H879 H 0.83251 0.84215 0.98718 0.0
C880 C 0.81626 0.90707 0.04848 0.0
C881 C 0.82228 0.88534 0.05933 0.0
C882 C 0.82686 0.90939 0.02749 0.0
C883 C 0.84383 0.89008 0.01688 0.0
C884 C 0.84947 0.86823 0.02761 0.0
H885 H 0.98675 0.91139 0.90733 0.0
H886 H 0.96137 0.90176 0.94202 0.0
C887 C 0.83848 0.86581 0.0486 0.0
C888 C 0.85792 0.89355 0.99512 0.0
H889 H 0.85349 0.87091 0.94538 0.0
C890 C 0.88308 0.91281 0.99121 0.0
C891 C 0.84653 0.87851 0.97829 0.0
C892 C 0.81788 0.85841 0.98117 0.0
C893 C 0.89741 0.91734 0.97109 0.0
C894 C 0.88726 0.90174 0.95442 0.0
C895 C 0.86168 0.88266 0.95821 0.0
C896 C 0.90251 0.9053 0.93293 0.0
C897 C 0.92265 0.93917 0.96783 0.0
C898 C 0.87786 0.90929 0.91601 0.0
C899 C 0.89233 0.9145 0.89607 0.0
C900 C 0.93172 0.9159 0.89274 0.0
C901 C 0.95628 0.91091 0.90952 0.0
C902 C 0.94181 0.90547 0.92936 0.0
H903 H 0.91869 0.9528 0.98038 0.0
H904 H 0.95276 0.93348 0.96817 0.0
H905 H 0.917 0.94788 0.95249 0.0
H906 H 0.84742 0.90911 0.91836 0.0
H907 H 0.87273 0.91831 0.88345 0.0
H908 H 0.75169 0.64111 0.55125 0.0
H909 H 0.73253 0.64069 0.51433 0.0
H910 H 0.61952 0.6187 0.53231 0.0
H911 H 0.63809 0.61972 0.56913 0.0
H912 H 0.70515 0.60091 0.49214 0.0
H913 H 0.59949 0.67445 0.49206 0.0
H914 H 0.63342 0.67051 0.51296 0.0
H915 H 0.59099 0.65229 0.51208 0.0
C916 C 0.7226 0.63659 0.54733 0.0
C917 C 0.69643 0.6304 0.56311 0.0
C918 C 0.71176 0.63625 0.52625 0.0
C919 C 0.67448 0.62998 0.5206 0.0
C920 C 0.64823 0.62404 0.53633 0.0
H921 H 0.54534 0.59437 0.41116 0.0
H922 H 0.56978 0.60368 0.4461 0.0
C923 C 0.65903 0.62433 0.55736 0.0
C924 C 0.66341 0.62817 0.49826 0.0
H925 H 0.59818 0.6477 0.46264 0.0
C926 C 0.68213 0.61137 0.48557 0.0
C927 C 0.63332 0.64182 0.48978 0.0
C928 C 0.61336 0.66095 0.50236 0.0
C929 C 0.67052 0.60711 0.46486 0.0
C930 C 0.63977 0.62031 0.45655 0.0
C931 C 0.62167 0.63755 0.46908 0.0
C932 C 0.62488 0.61569 0.43522 0.0
C933 C 0.69024 0.58782 0.45233 0.0
C934 C 0.64756 0.61977 0.41749 0.0
C935 C 0.63376 0.61432 0.39749 0.0
C936 C 0.59697 0.60476 0.39487 0.0
C937 C 0.57401 0.60132 0.41266 0.0
C938 C 0.58782 0.60679 0.43262 0.0
H939 H 0.70759 0.57583 0.46241 0.0
H940 H 0.66932 0.57657 0.44365 0.0
H941 H 0.70939 0.59651 0.44073 0.0
H942 H 0.67604 0.62698 0.41913 0.0
H943 H 0.65224 0.61706 0.38414 0.0
H944 H 0.39238 0.62243 0.95459 0.0
H945 H 0.40591 0.61876 0.99198 0.0
H946 H 0.29686 0.64932 1.00642 0.0
H947 H 0.28216 0.65179 0.96914 0.0
H948 H 0.41093 0.65145 0.02355 0.0
H949 H 0.29318 0.58696 0.03909 0.0
H950 H 0.30775 0.59505 0.01293 0.0
H951 H 0.27758 0.6148 0.02771 0.0
C952 C 0.37104 0.62812 0.9657 0.0
C953 C 0.33594 0.63711 0.95879 0.0
C954 C 0.37901 0.62623 0.98708 0.0
C955 C 0.35212 0.63334 1.00201 0.0
C956 C 0.3177 0.64321 0.9952 0.0
H957 H 0.39147 0.65167 0.13611 0.0
H958 H 0.38525 0.65834 0.09832 0.0
C959 C 0.30955 0.64492 0.97383 0.0
C960 C 0.35983 0.62994 0.02468 0.0
H961 H 0.32553 0.60255 0.06873 0.0
C962 C 0.39235 0.64071 0.03345 0.0
C963 C 0.33588 0.61559 0.03749 0.0
C964 C 0.30187 0.60223 0.02881 0.0
C965 C 0.40134 0.63773 0.05474 0.0
C966 C 0.37667 0.62405 0.06769 0.0
C967 C 0.34433 0.61316 0.05885 0.0
C968 C 0.38383 0.62032 0.09039 0.0
C969 C 0.43759 0.6488 0.063 0.0
C970 C 0.38481 0.59679 0.09856 0.0
C971 C 0.38775 0.59299 0.12011 0.0
C972 C 0.38998 0.61265 0.13395 0.0
C973 C 0.39027 0.63621 0.12575 0.0
C974 C 0.38685 0.64002 0.10416 0.0
H975 H 0.45828 0.65236 0.05022 0.0
H976 H 0.43109 0.6663 0.07058 0.0
H977 H 0.4511 0.6369 0.07481 0.0
H978 H 0.38255 0.58131 0.08826 0.0
H979 H 0.38775 0.57464 0.12601 0.0
H980 H 0.23662 0.8631 0.46826 0.0
H981 H 0.21966 0.86478 0.50529 0.0
H982 H 0.11012 0.8935 0.48908 0.0
H983 H 0.12607 0.89071 0.45196 0.0
H984 H 0.20402 0.90393 0.52778 0.0
H985 H 0.08031 0.8418 0.53055 0.0
H986 H 0.11196 0.84331 0.50837 0.0
H987 H 0.07503 0.86528 0.51143 0.0
C988 C 0.20857 0.86926 0.47251 0.0
C989 C 0.18271 0.87672 0.45706 0.0
C990 C 0.19902 0.87037 0.49372 0.0
C991 C 0.16341 0.87895 0.5 0.0
C992 C 0.13744 0.88632 0.48464 0.0
H993 H 0.11833 0.93993 0.62226 0.0
H994 H 0.12584 0.93247 0.58473 0.0
C995 C 0.14687 0.88506 0.4634 0.0
C996 C 0.15455 0.88168 0.52261 0.0
H997 H 0.08995 0.86695 0.56054 0.0
C998 C 0.17918 0.89572 0.53494 0.0
C999 C 0.1224 0.87071 0.53205 0.0
C1000 C 0.09612 0.85423 0.51997 0.0
C1001 C 0.17225 0.89947 0.55631 0.0
C1002 C 0.13918 0.88944 0.56554 0.0
C1003 C 0.11494 0.87494 0.55336 0.0
C1004 C 0.12981 0.89366 0.58789 0.0
C1005 C 0.20083 0.91384 0.56887 0.0
C1006 C 0.12735 0.87423 0.60198 0.0
C1007 C 0.12258 0.87844 0.62343 0.0
C1008 C 0.1203 0.90217 0.6311 0.0
C1009 C 0.12062 0.92149 0.6168 0.0
C1010 C 0.12505 0.91725 0.59539 0.0
H1011 H 0.22903 0.91434 0.56111 0.0
H1012 H 0.19086 0.93271 0.57041 0.0
H1013 H 0.20428 0.90618 0.58483 0.0
H1014 H 0.1307 0.85586 0.59649 0.0
H1015 H 0.12258 0.86323 0.6341 0.0
H1016 H 0.2482 0.33068 0.35403 0.0
H1017 H 0.20332 0.30505 0.33455 0.0
H1018 H 0.20064 0.2546 0.38605 0.0
H1019 H 0.24484 0.28041 0.40564 0.0
H1020 H 0.21451 0.25909 0.3216 0.0
H1021 H 0.08871 0.26188 0.37343 0.0
H1022 H 0.12792 0.28282 0.37599 0.0
H1023 H 0.13096 0.25296 0.38697 0.0
C1024 C 0.23757 0.31425 0.36122 0.0
C1025 C 0.25006 0.3074 0.38122 0.0
C1026 C 0.21203 0.29962 0.35012 0.0
C1027 C 0.19826 0.278 0.35891 0.0
C1028 C 0.21021 0.27141 0.3791 0.0
H1029 H 0.1145 0.15147 0.29454 0.0
H1030 H 0.15118 0.18214 0.31335 0.0
C1031 C 0.23568 0.28605 0.39021 0.0
C1032 C 0.17345 0.2616 0.34646 0.0
H1033 H 0.08899 0.23088 0.34732 0.0
C1034 C 0.18694 0.25309 0.32716 0.0
C1035 C 0.13722 0.25399 0.35356 0.0
C1036 C 0.12014 0.26357 0.37352 0.0
C1037 C 0.16572 0.23668 0.31507 0.0
C1038 C 0.13037 0.22817 0.32266 0.0
C1039 C 0.11631 0.23721 0.34165 0.0
C1040 C 0.10793 0.20959 0.31125 0.0
C1041 C 0.18108 0.22885 0.29412 0.0
C1042 C 0.07103 0.21458 0.30425 0.0
C1043 C 0.05005 0.19703 0.29342 0.0
C1044 C 0.06556 0.17418 0.28953 0.0
C1045 C 0.10221 0.16911 0.29686 0.0
C1046 C 0.12316 0.18662 0.30764 0.0
H1047 H 0.20326 0.24149 0.28823 0.0
H1048 H 0.19401 0.21073 0.29568 0.0
H1049 H 0.15798 0.22766 0.28234 0.0
H1050 H 0.05863 0.23213 0.30699 0.0
H1051 H 0.02182 0.20139 0.28795 0.0
H1052 H 0.30323 0.21415 0.91182 0.0
H1053 H 0.32927 0.2479 0.89125 0.0
H1054 H 0.33415 0.20203 0.83677 0.0
H1055 H 0.30753 0.16848 0.85722 0.0
H1056 H 0.39879 0.24915 0.87225 0.0
H1057 H 0.28556 0.26263 0.81324 0.0
H1058 H 0.27822 0.24517 0.83681 0.0
H1059 H 0.3018 0.23204 0.81465 0.0
C1060 C 0.30954 0.21145 0.89539 0.0
C1061 C 0.3039 0.18874 0.88612 0.0
C1062 C 0.32438 0.23067 0.88367 0.0
C1063 C 0.3334 0.22755 0.86242 0.0
C1064 C 0.3268 0.205 0.85302 0.0
H1065 H 0.49488 0.31134 0.78923 0.0
H1066 H 0.46103 0.28011 0.80923 0.0
C1067 C 0.31189 0.1858 0.86473 0.0
C1068 C 0.35212 0.24736 0.85052 0.0
H1069 H 0.34499 0.28211 0.80646 0.0
C1070 C 0.3869 0.25645 0.85793 0.0
C1071 C 0.33642 0.25704 0.83195 0.0
C1072 C 0.29827 0.24891 0.82377 0.0
C1073 C 0.40678 0.27459 0.84708 0.0
C1074 C 0.3918 0.2836 0.8281 0.0
C1075 C 0.35663 0.27493 0.82089 0.0
C1076 C 0.41206 0.30227 0.81566 0.0
C1077 C 0.44344 0.28416 0.85616 0.0
C1078 C 0.39547 0.32489 0.81234 0.0
C1079 C 0.4148 0.34271 0.801 0.0
C1080 C 0.45078 0.33812 0.7925 0.0
C1081 C 0.46729 0.31542 0.79574 0.0
C1082 C 0.44799 0.29759 0.80714 0.0
H1083 H 0.446 0.27991 0.87311 0.0
H1084 H 0.46766 0.27571 0.84793 0.0
H1085 H 0.44572 0.30403 0.85408 0.0
H1086 H 0.3678 0.32888 0.81879 0.0
H1087 H 0.40176 0.3602 0.7991 0.0
H1088 H 0.74532 0.2325 0.618 0.0
H1089 H 0.69997 0.25816 0.63658 0.0
H1090 H 0.69978 0.20838 0.68858 0.0
H1091 H 0.74564 0.18289 0.67012 0.0
H1092 H 0.62723 0.24848 0.65279 0.0
H1093 H 0.72936 0.27291 0.71575 0.0
H1094 H 0.74392 0.2586 0.69171 0.0
H1095 H 0.72206 0.24105 0.71215 0.0
C1096 C 0.7355 0.22708 0.63339 0.0
C1097 C 0.74939 0.20604 0.64288 0.0
C1098 C 0.70959 0.24167 0.64395 0.0
C1099 C 0.69713 0.23542 0.66412 0.0
C1100 C 0.70971 0.21382 0.67323 0.0
H1101 H 0.55627 0.31116 0.7545 0.0
H1102 H 0.59351 0.28085 0.73576 0.0
C1103 C 0.73569 0.19925 0.66268 0.0
C1104 C 0.67166 0.25181 0.67577 0.0
H1105 H 0.66684 0.28735 0.71934 0.0
C1106 C 0.63583 0.25697 0.66735 0.0
C1107 C 0.68302 0.26287 0.69475 0.0
C1108 C 0.7218 0.2588 0.70409 0.0
C1109 C 0.61091 0.2728 0.6775 0.0
C1110 C 0.62244 0.284 0.69637 0.0
C1111 C 0.65808 0.27865 0.70489 0.0
C1112 C 0.59842 0.30185 0.70728 0.0
C1113 C 0.5723 0.27719 0.66809 0.0
C1114 C 0.58907 0.32371 0.69751 0.0
C1115 C 0.56794 0.34103 0.70818 0.0
C1116 C 0.556 0.33681 0.72886 0.0
C1117 C 0.56522 0.31486 0.73859 0.0
C1118 C 0.58639 0.29756 0.72791 0.0
H1119 H 0.56402 0.26265 0.65699 0.0
H1120 H 0.55028 0.2785 0.68047 0.0
H1121 H 0.5729 0.2945 0.65934 0.0
H1122 H 0.59879 0.32759 0.68177 0.0
H1123 H 0.56163 0.35793 0.70042 0.0
H1124 H 0.80488 0.34272 0.16515 0.0
H1125 H 0.83449 0.31096 0.18633 0.0
H1126 H 0.82755 0.26213 0.13386 0.0
H1127 H 0.7985 0.29399 0.11261 0.0
H1128 H 0.80937 0.26437 0.19724 0.0
H1129 H 0.94041 0.26117 0.14915 0.0
H1130 H 0.90667 0.2854 0.1471 0.0
H1131 H 0.89743 0.25696 0.13446 0.0
C1132 C 0.80987 0.32521 0.15819 0.0
C1133 C 0.80042 0.32088 0.13715 0.0
C1134 C 0.8266 0.30709 0.17027 0.0
C1135 C 0.83397 0.28437 0.16152 0.0
C1136 C 0.82299 0.27973 0.14076 0.0
H1137 H 0.94062 0.15304 0.20351 0.0
H1138 H 0.90536 0.1843 0.18489 0.0
C1139 C 0.80634 0.29784 0.12867 0.0
C1140 C 0.85359 0.26562 0.17399 0.0
H1141 H 0.93312 0.23082 0.17506 0.0
C1142 C 0.8365 0.25709 0.19247 0.0
C1143 C 0.88907 0.25624 0.16776 0.0
C1144 C 0.90971 0.26554 0.14865 0.0
C1145 C 0.85355 0.23896 0.2046 0.0
C1146 C 0.8888 0.22944 0.19821 0.0
C1147 C 0.90599 0.23811 0.17985 0.0
C1148 C 0.90832 0.21023 0.21015 0.0
C1149 C 0.83334 0.22974 0.22387 0.0
C1150 C 0.92168 0.21448 0.23054 0.0
C1151 C 0.94198 0.19666 0.2412 0.0
C1152 C 0.9494 0.1744 0.23156 0.0
C1153 C 0.93556 0.17011 0.21126 0.0
C1154 C 0.91535 0.1879 0.20063 0.0
H1155 H 0.80292 0.23485 0.22396 0.0
H1156 H 0.83535 0.20978 0.225 0.0
H1157 H 0.84694 0.23761 0.23799 0.0
H1158 H 0.91714 0.23175 0.23803 0.0
H1159 H 0.95259 0.20047 0.25678 0.0
H1160 H 0.74249 0.7345 0.63419 0.0
H1161 H 0.78626 0.76211 0.65221 0.0
H1162 H 0.85406 0.70173 0.67183 0.0
H1163 H 0.81003 0.67392 0.65404 0.0
H1164 H 0.80667 0.75407 0.69958 0.0
H1165 H 0.92743 0.75692 0.64326 0.0
H1166 H 0.87935 0.75108 0.63469 0.0
H1167 H 0.90452 0.72844 0.649 0.0
C1168 C 0.7671 0.72716 0.64203 0.0
C1169 C 0.77344 0.70215 0.64226 0.0
C1170 C 0.79196 0.74291 0.65234 0.0
C1171 C 0.82356 0.73392 0.66306 0.0
C1172 C 0.83011 0.70897 0.66333 0.0
H1173 H 0.99905 0.81263 0.73288 0.0
H1174 H 0.96298 0.78118 0.71426 0.0
C1175 C 0.80505 0.69316 0.65314 0.0
C1176 C 0.84814 0.7506 0.67509 0.0
H1177 H 0.93302 0.78066 0.67374 0.0
C1178 C 0.83434 0.75987 0.694 0.0
C1179 C 0.88433 0.75779 0.66783 0.0
C1180 C 0.90004 0.74818 0.64755 0.0
C1181 C 0.85573 0.77641 0.7058 0.0
C1182 C 0.89139 0.78439 0.69818 0.0
C1183 C 0.90559 0.77464 0.67949 0.0
C1184 C 0.91363 0.80343 0.7091 0.0
C1185 C 0.84027 0.78489 0.72651 0.0
C1186 C 0.89817 0.82646 0.71197 0.0
C1187 C 0.91865 0.84435 0.72253 0.0
C1188 C 0.95505 0.8396 0.73039 0.0
C1189 C 0.97099 0.81675 0.72702 0.0
C1190 C 0.95042 0.79879 0.71645 0.0
H1191 H 0.81804 0.77245 0.73266 0.0
H1192 H 0.86332 0.78641 0.73828 0.0
H1193 H 0.82734 0.80295 0.72448 0.0
H1194 H 0.87027 0.83067 0.70594 0.0
H1195 H 0.90609 0.86199 0.72438 0.0
H1196 H 0.66044 0.84492 0.14244 0.0
H1197 H 0.63155 0.81274 0.16359 0.0
H1198 H 0.7228 0.76506 0.14694 0.0
H1199 H 0.75172 0.79718 0.1256 0.0
H1200 H 0.60979 0.7654 0.14729 0.0
H1201 H 0.71411 0.76032 0.21253 0.0
H1202 H 0.70989 0.78665 0.19597 0.0
H1203 H 0.73304 0.76013 0.18636 0.0
C1204 C 0.67466 0.8277 0.14359 0.0
C1205 C 0.70885 0.82376 0.13285 0.0
C1206 C 0.65808 0.80933 0.15559 0.0
C1207 C 0.67537 0.78667 0.15709 0.0
C1208 C 0.70945 0.78259 0.14633 0.0
H1209 H 0.61276 0.65347 0.22091 0.0
H1210 H 0.64492 0.6854 0.20108 0.0
C1211 C 0.72593 0.80094 0.13418 0.0
C1212 C 0.65649 0.76695 0.16895 0.0
H1213 H 0.6647 0.73128 0.21235 0.0
C1214 C 0.6217 0.75795 0.16154 0.0
C1215 C 0.67231 0.7572 0.18743 0.0
C1216 C 0.70927 0.7666 0.19622 0.0
C1217 C 0.60241 0.73923 0.172 0.0
C1218 C 0.61785 0.72972 0.19071 0.0
C1219 C 0.65282 0.73864 0.19805 0.0
C1220 C 0.59821 0.71046 0.20285 0.0
C1221 C 0.56613 0.72946 0.16261 0.0
C1222 C 0.56141 0.71401 0.21067 0.0
C1223 C 0.54293 0.69574 0.22196 0.0
C1224 C 0.56115 0.67374 0.22591 0.0
C1225 C 0.59808 0.6703 0.21822 0.0
C1226 C 0.61648 0.68851 0.20687 0.0
H1227 H 0.56415 0.7336 0.14562 0.0
H1228 H 0.56385 0.7096 0.16474 0.0
H1229 H 0.54157 0.73796 0.17049 0.0
H1230 H 0.54711 0.73101 0.20822 0.0
H1231 H 0.5147 0.69905 0.22796 0.0
H1232 H 0.23567 0.76983 0.39227 0.0
H1233 H 0.28133 0.74312 0.37516 0.0
H1234 H 0.33452 0.80469 0.34563 0.0
H1235 H 0.28877 0.83149 0.36269 0.0
H1236 H 0.29248 0.739 0.3309 0.0
H1237 H 0.42405 0.76697 0.37264 0.0
H1238 H 0.3772 0.77308 0.3827 0.0
H1239 H 0.39639 0.79111 0.3618 0.0
C1240 C 0.25745 0.77767 0.38236 0.0
C1241 C 0.25927 0.80274 0.37913 0.0
C1242 C 0.28339 0.76242 0.37257 0.0
C1243 C 0.31162 0.77198 0.3594 0.0
C1244 C 0.31343 0.79702 0.35607 0.0
H1245 H 0.44522 0.69799 0.26563 0.0
H1246 H 0.40482 0.72593 0.28502 0.0
C1247 C 0.28734 0.81227 0.36579 0.0
C1248 C 0.33793 0.7556 0.34836 0.0
H1249 H 0.4313 0.74033 0.34386 0.0
C1250 C 0.32282 0.73925 0.33374 0.0
C1251 C 0.37743 0.75589 0.35225 0.0
C1252 C 0.39487 0.77254 0.36831 0.0
C1253 C 0.34629 0.72338 0.32266 0.0
C1254 C 0.38585 0.72401 0.32625 0.0
C1255 C 0.40095 0.74009 0.34108 0.0
C1256 C 0.41181 0.70786 0.31479 0.0
C1257 C 0.32867 0.70583 0.30738 0.0
C1258 C 0.42974 0.68882 0.32525 0.0
C1259 C 0.45255 0.6727 0.31419 0.0
C1260 C 0.45785 0.67542 0.29249 0.0
C1261 C 0.44101 0.69511 0.28225 0.0
C1262 C 0.41803 0.71111 0.29329 0.0
H1263 H 0.29734 0.70474 0.30908 0.0
H1264 H 0.33528 0.7117 0.29116 0.0
H1265 H 0.34064 0.68751 0.30958 0.0
H1266 H 0.42535 0.68612 0.34189 0.0
H1267 H 0.4653 0.65779 0.32255 0.0
H1268 H 0.21446 0.71904 0.91102 0.0
H1269 H 0.18415 0.75029 0.88959 0.0
H1270 H 0.18808 0.70316 0.83592 0.0
H1271 H 0.21808 0.67182 0.85739 0.0
H1272 H 0.20837 0.77311 0.85179 0.0
H1273 H 0.0748 0.72055 0.84106 0.0
H1274 H 0.10964 0.71287 0.86064 0.0
H1275 H 0.11741 0.70513 0.83368 0.0
C1276 C 0.20877 0.71542 0.89465 0.0
C1277 C 0.21762 0.69291 0.88591 0.0
C1278 C 0.19161 0.73324 0.88244 0.0
C1279 C 0.18318 0.72882 0.8613 0.0
C1280 C 0.19357 0.7067 0.85232 0.0
H1281 H 0.06248 0.81203 0.76697 0.0
H1282 H 0.09892 0.78137 0.78584 0.0
C1283 C 0.21074 0.68889 0.86453 0.0
C1284 C 0.16289 0.7472 0.84878 0.0
H1285 H 0.07988 0.75754 0.82282 0.0
C1286 C 0.18028 0.76975 0.84545 0.0
C1287 C 0.12627 0.7427 0.84052 0.0
C1288 C 0.10569 0.71909 0.84425 0.0
C1289 C 0.16211 0.7879 0.83389 0.0
C1290 C 0.12532 0.78347 0.82583 0.0
C1291 C 0.1081 0.76085 0.82901 0.0
C1292 C 0.10384 0.80221 0.81436 0.0
C1293 C 0.18268 0.8115 0.83012 0.0
C1294 C 0.09409 0.8239 0.82427 0.0
C1295 C 0.07339 0.8414 0.81354 0.0
C1296 C 0.06188 0.83744 0.79275 0.0
C1297 C 0.07122 0.81559 0.78295 0.0
C1298 C 0.09195 0.79808 0.79369 0.0
H1299 H 0.21381 0.80964 0.83223 0.0
H1300 H 0.17711 0.81841 0.81409 0.0
H1301 H 0.17251 0.82511 0.8415 0.0
H1302 H 0.10228 0.82723 0.84036 0.0
H1303 H 0.06665 0.85812 0.82145 0.0
loop_
_geom_bond_atom_site_label_1
_geom_bond_atom_site_label_2
_geom_bond_distance
_geom_bond_site_symmetry_2
_ccdc_geom_bond_type
H0 C7 0.929 . S
H1 C10 0.930 . S
H2 C12 0.929 . S
H3 C4 0.969 . S
C4 H3 0.969 . S
C4 O5 1.550 . S
C4 H6 0.973 . S
O5 C4 1.550 . S
O5 C11 1.412 . S
H6 C4 0.973 . S
C7 H0 0.929 . S
C7 C8 1.400 . S
C7 C9 1.364 . S
C8 C7 1.400 . S
C8 C12 1.377 . S
C9 C7 1.364 . S
C9 C10 1.374 . S
C10 H1 0.930 . S
C10 C9 1.374 . S
C10 C11 1.383 . S
C11 O5 1.412 . S
C11 C10 1.383 . S
C11 C12 1.394 . S
C12 H2 0.929 . S
C12 C8 1.377 . S
C12 C11 1.394 . S
H13 C20 0.929 . S
H14 C23 0.930 . S
H15 C25 0.929 . S
H16 C17 0.969 . S
C17 H16 0.969 . S
C17 O18 1.550 . S
C17 H19 0.973 . S
O18 C17 1.550 . S
O18 C24 1.412 . S
H19 C17 0.973 . S
C20 H13 0.929 . S
C20 C21 1.400 . S
C20 C22 1.364 . S
C21 C20 1.400 . S
C21 C25 1.377 . S
C22 C20 1.364 . S
C22 C23 1.374 . S
C23 H14 0.930 . S
C23 C22 1.374 . S
C23 C24 1.383 . S
C24 O18 1.412 . S
C24 C23 1.383 . S
C24 C25 1.394 . S
C25 H15 0.929 . S
C25 C21 1.377 . S
C25 C24 1.394 . S
H26 C33 0.929 . S
H27 C36 0.930 . S
H28 C38 0.929 . S
H29 C30 0.969 . S
C30 H29 0.969 . S
C30 O31 1.550 . S
C30 H32 0.973 . S
O31 C30 1.550 . S
O31 C37 1.412 . S
H32 C30 0.973 . S
C33 H26 0.929 . S
C33 C34 1.400 . S
C33 C35 1.364 . S
C34 C33 1.400 . S
C34 C38 1.377 . S
C35 C33 1.364 . S
C35 C36 1.374 . S
C36 H27 0.930 . S
C36 C35 1.374 . S
C36 C37 1.383 . S
C37 O31 1.412 . S
C37 C36 1.383 . S
C37 C38 1.394 . S
C38 H28 0.929 . S
C38 C34 1.377 . S
C38 C37 1.394 . S
H39 C46 0.929 . S
H40 C49 0.930 . S
H41 C51 0.929 . S
H42 C43 0.969 . S
C43 H42 0.969 . S
C43 O44 1.550 . S
C43 H45 0.973 . S
O44 C43 1.550 . S
O44 C50 1.412 . S
H45 C43 0.973 . S
C46 H39 0.929 . S
C46 C47 1.400 . S
C46 C48 1.364 . S
C47 C46 1.400 . S
C47 C51 1.377 . S
C48 C46 1.364 . S
C48 C49 1.374 . S
C49 H40 0.930 . S
C49 C48 1.374 . S
C49 C50 1.383 . S
C50 O44 1.412 . S
C50 C49 1.383 . S
C50 C51 1.394 . S
C51 H41 0.929 . S
C51 C47 1.377 . S
C51 C50 1.394 . S
H52 C59 0.929 . S
H53 C62 0.930 . S
H54 C64 0.929 . S
H55 C56 0.969 . S
C56 H55 0.969 . S
C56 O57 1.550 . S
C56 H58 0.973 . S
O57 C56 1.550 . S
O57 C63 1.412 . S
H58 C56 0.973 . S
C59 H52 0.929 . S
C59 C60 1.400 . S
C59 C61 1.364 . S
C60 C59 1.400 . S
C60 C64 1.377 . S
C61 C59 1.364 . S
C61 C62 1.374 . S
C62 H53 0.930 . S
C62 C61 1.374 . S
C62 C63 1.383 . S
C63 O57 1.412 . S
C63 C62 1.383 . S
C63 C64 1.394 . S
C64 H54 0.929 . S
C64 C60 1.377 . S
C64 C63 1.394 . S
H65 C72 0.929 . S
H66 C75 0.930 . S
H67 C77 0.929 . S
H68 C69 0.969 . S
C69 H68 0.969 . S
C69 O70 1.550 . S
C69 H71 0.973 . S
O70 C69 1.550 . S
O70 C76 1.412 . S
H71 C69 0.973 . S
C72 H65 0.929 . S
C72 C73 1.400 . S
C72 C74 1.364 . S
C73 C72 1.400 . S
C73 C77 1.377 . S
C74 C72 1.364 . S
C74 C75 1.374 . S
C75 H66 0.930 . S
C75 C74 1.374 . S
C75 C76 1.383 . S
C76 O70 1.412 . S
C76 C75 1.383 . S
C76 C77 1.394 . S
C77 H67 0.929 . S
C77 C73 1.377 . S
C77 C76 1.394 . S
H78 C85 0.929 . S
H79 C88 0.930 . S
H80 C90 0.929 . S
H81 C82 0.969 . S
C82 H81 0.969 . S
C82 O83 1.550 . S
C82 H84 0.973 . S
O83 C82 1.550 . S
O83 C89 1.412 . S
H84 C82 0.973 . S
C85 H78 0.929 . S
C85 C86 1.400 . S
C85 C87 1.364 . S
C86 C85 1.400 . S
C86 C90 1.377 . S
C87 C85 1.364 . S
C87 C88 1.374 . S
C88 H79 0.930 . S
C88 C87 1.374 . S
C88 C89 1.383 . S
C89 O83 1.412 . S
C89 C88 1.383 . S
C89 C90 1.394 . S
C90 H80 0.929 . S
C90 C86 1.377 . S
C90 C89 1.394 . S
H91 C98 0.929 . S
H92 C101 0.930 . S
H93 C103 0.929 . S
H94 C95 0.969 . S
C95 H94 0.969 . S
C95 O96 1.550 . S
C95 H97 0.973 . S
O96 C95 1.550 . S
O96 C102 1.412 . S
H97 C95 0.973 . S
C98 H91 0.929 . S
C98 C99 1.400 . S
C98 C100 1.364 . S
C99 C98 1.400 . S
C99 C103 1.377 . S
C100 C98 1.364 . S
C100 C101 1.374 . S
C101 H92 0.930 . S
C101 C100 1.374 . S
C101 C102 1.383 . S
C102 O96 1.412 . S
C102 C101 1.383 . S
C102 C103 1.394 . S
C103 H93 0.929 . S
C103 C99 1.377 . S
C103 C102 1.394 . S
Tb104 N133 2.617 . S
Tb104 N139 2.572 . S
Tb104 O148 2.465 . S
Tb104 O149 2.387 . S
Tb104 O151 2.428 . S
Tb104 O152 2.308 . S
Tb104 O156 2.349 . S
Tb104 O159 2.393 . S
Tb104 C168 2.802 . S
C105 N106 1.379 . S
C105 C108 1.416 . S
C105 C112 1.424 . S
N106 C105 1.379 . S
N106 C109 1.334 . S
N106 Tb115 2.617 . S
C107 C109 1.390 . S
C107 C110 1.339 . S
C107 H127 0.930 . S
C108 C105 1.416 . S
C108 C110 1.416 . S
C108 C114 1.448 . S
C109 N106 1.334 . S
C109 C107 1.390 . S
C109 H120 0.930 . S
C110 C107 1.339 . S
C110 C108 1.416 . S
C110 H131 0.930 . S
C111 C112 1.413 . S
C111 C113 1.427 . S
C111 C117 1.416 . S
C112 C105 1.424 . S
C112 C111 1.413 . S
C112 N116 1.361 . S
C113 C111 1.427 . S
C113 C114 1.328 . S
C113 H128 0.929 . S
C114 C108 1.448 . S
C114 C113 1.328 . S
C114 H129 0.930 . S
Tb115 N106 2.617 . S
Tb115 N116 2.572 . S
Tb115 O150 2.349 1_655 S
Tb115 O153 2.393 . S
Tb115 O154 2.465 . S
Tb115 O155 2.387 . S
Tb115 O157 2.428 . S
Tb115 O158 2.308 1_655 S
Tb115 C179 2.802 . S
N116 C112 1.361 . S
N116 Tb115 2.572 . S
N116 C118 1.340 . S
C117 C111 1.416 . S
C117 C119 1.332 . S
C117 H125 0.931 . S
C118 N116 1.340 . S
C118 C119 1.407 . S
C118 H124 0.930 . S
C119 C117 1.332 . S
C119 C118 1.407 . S
C119 H121 0.929 . S
H120 C109 0.930 . S
H121 C119 0.929 . S
H122 C137 0.930 . S
H123 C144 0.929 . S
H124 C118 0.930 . S
H125 C117 0.931 . S
H126 C140 0.930 . S
H127 C107 0.930 . S
H128 C113 0.929 . S
H129 C114 0.930 . S
H130 C135 0.930 . S
H131 C110 0.930 . S
H132 C143 0.931 . S
N133 Tb104 2.617 . S
N133 C134 1.379 . S
N133 C137 1.334 . S
C134 N133 1.379 . S
C134 C136 1.416 . S
C134 C142 1.424 . S
C135 H130 0.930 . S
C135 C137 1.390 . S
C135 C138 1.339 . S
C136 C134 1.416 . S
C136 C138 1.416 . S
C136 C169 1.448 . S
C137 H122 0.930 . S
C137 N133 1.334 . S
C137 C135 1.390 . S
C138 C135 1.339 . S
C138 C136 1.416 . S
C138 H145 0.930 . S
N139 Tb104 2.572 . S
N139 C140 1.340 . S
N139 C142 1.361 . S
C140 H126 0.930 . S
C140 N139 1.340 . S
C140 C144 1.407 . S
C141 C142 1.413 . S
C141 C143 1.416 . S
C141 C170 1.427 . S
C142 C134 1.424 . S
C142 N139 1.361 . S
C142 C141 1.413 . S
C143 H132 0.931 . S
C143 C141 1.416 . S
C143 C144 1.332 . S
C144 H123 0.929 . S
C144 C140 1.407 . S
C144 C143 1.332 . S
H145 C138 0.930 . S
H146 C169 0.930 . S
H147 C170 0.929 . S
O148 Tb104 2.465 . S
O148 C168 1.264 . S
O149 Tb104 2.387 . S
O149 C160 1.264 . S
O150 Tb115 2.349 1_455 S
O150 C160 1.243 . S
O151 Tb104 2.428 . S
O151 C168 1.256 . S
O152 Tb104 2.308 . S
O152 C167 1.266 1_455 S
O153 Tb115 2.393 . S
O153 C167 1.248 . S
O154 Tb115 2.465 . S
O154 C179 1.264 . S
O155 Tb115 2.387 . S
O155 C171 1.264 . S
O156 Tb104 2.349 . S
O156 C171 1.243 1_455 S
O157 Tb115 2.428 . S
O157 C179 1.256 . S
O158 Tb115 2.308 1_455 S
O158 C178 1.266 . S
O159 Tb104 2.393 . S
O159 C178 1.248 . S
C160 O149 1.264 . S
C160 O150 1.243 . S
C161 C164 1.399 . S
C161 C166 1.383 . S
C161 C168 1.496 . S
C162 C163 1.399 . S
C162 C166 1.389 . S
C163 C162 1.399 . S
C163 C165 1.380 . S
C163 H180 0.929 . S
C164 C161 1.399 . S
C164 C165 1.392 . S
C164 H181 0.929 . S
C165 C163 1.380 . S
C165 C164 1.392 . S
C165 H182 0.929 . S
C166 C161 1.383 . S
C166 C162 1.389 . S
C166 H183 0.931 . S
C167 O152 1.266 1_655 S
C167 O153 1.248 . S
C168 Tb104 2.802 . S
C168 O148 1.264 . S
C168 O151 1.256 . S
C168 C161 1.496 . S
C169 C136 1.448 . S
C169 H146 0.930 . S
C169 C170 1.328 . S
C170 C141 1.427 . S
C170 H147 0.929 . S
C170 C169 1.328 . S
C171 O155 1.264 . S
C171 O156 1.243 1_655 S
C172 C175 1.399 . S
C172 C176 1.383 . S
C172 C179 1.496 . S
C173 C174 1.399 . S
C173 C176 1.389 . S
C174 C173 1.399 . S
C174 C177 1.380 . S
C174 H184 0.929 . S
C175 C172 1.399 . S
C175 C177 1.392 . S
C175 H185 0.929 . S
C176 C172 1.383 . S
C176 C173 1.389 . S
C176 H186 0.931 . S
C177 C174 1.380 . S
C177 C175 1.392 . S
C177 H187 0.929 . S
C178 O158 1.266 . S
C178 O159 1.248 . S
C179 Tb115 2.802 . S
C179 O154 1.264 . S
C179 O157 1.256 . S
C179 C172 1.496 . S
H180 C163 0.929 . S
H181 C164 0.929 . S
H182 C165 0.929 . S
H183 C166 0.931 . S
H184 C174 0.929 . S
H185 C175 0.929 . S
H186 C176 0.931 . S
H187 C177 0.929 . S
Tb188 N217 2.617 . S
Tb188 N223 2.572 . S
Tb188 O232 2.465 . S
Tb188 O233 2.387 . S
Tb188 O235 2.428 . S
Tb188 O236 2.308 . S
Tb188 O240 2.349 . S
Tb188 O243 2.393 . S
Tb188 C252 2.802 . S
C189 N190 1.379 . S
C189 C192 1.416 . S
C189 C196 1.424 . S
N190 C189 1.379 . S
N190 C193 1.334 . S
N190 Tb199 2.617 . S
C191 C193 1.390 . S
C191 C194 1.339 . S
C191 H211 0.930 . S
C192 C189 1.416 . S
C192 C194 1.416 . S
C192 C198 1.448 . S
C193 N190 1.334 . S
C193 C191 1.390 . S
C193 H204 0.930 . S
C194 C191 1.339 . S
C194 C192 1.416 . S
C194 H215 0.930 . S
C195 C196 1.413 . S
C195 C197 1.427 . S
C195 C201 1.416 . S
C196 C189 1.424 . S
C196 C195 1.413 . S
C196 N200 1.361 . S
C197 C195 1.427 . S
C197 C198 1.328 . S
C197 H212 0.929 . S
C198 C192 1.448 . S
C198 C197 1.328 . S
C198 H213 0.930 . S
Tb199 N190 2.617 . S
Tb199 N200 2.572 . S
Tb199 O234 2.349 . S
Tb199 O237 2.393 . S
Tb199 O238 2.465 . S
Tb199 O239 2.387 . S
Tb199 O241 2.428 . S
Tb199 O242 2.308 . S
Tb199 C263 2.802 . S
N200 C196 1.361 . S
N200 Tb199 2.572 . S
N200 C202 1.340 . S
C201 C195 1.416 . S
C201 C203 1.332 . S
C201 H209 0.931 . S
C202 N200 1.340 . S
C202 C203 1.407 . S
C202 H208 0.930 . S
C203 C201 1.332 . S
C203 C202 1.407 . S
C203 H205 0.929 . S
H204 C193 0.930 . S
H205 C203 0.929 . S
H206 C221 0.930 . S
H207 C228 0.929 . S
H208 C202 0.930 . S
H209 C201 0.931 . S
H210 C224 0.930 . S
H211 C191 0.930 . S
H212 C197 0.929 . S
H213 C198 0.930 . S
H214 C219 0.930 . S
H215 C194 0.930 . S
H216 C227 0.931 . S
N217 Tb188 2.617 . S
N217 C218 1.379 . S
N217 C221 1.334 . S
C218 N217 1.379 . S
C218 C220 1.416 . S
C218 C226 1.424 . S
C219 H214 0.930 . S
C219 C221 1.390 . S
C219 C222 1.339 . S
C220 C218 1.416 . S
C220 C222 1.416 . S
C220 C253 1.448 . S
C221 H206 0.930 . S
C221 N217 1.334 . S
C221 C219 1.390 . S
C222 C219 1.339 . S
C222 C220 1.416 . S
C222 H229 0.930 . S
N223 Tb188 2.572 . S
N223 C224 1.340 . S
N223 C226 1.361 . S
C224 H210 0.930 . S
C224 N223 1.340 . S
C224 C228 1.407 . S
C225 C226 1.413 . S
C225 C227 1.416 . S
C225 C254 1.427 . S
C226 C218 1.424 . S
C226 N223 1.361 . S
C226 C225 1.413 . S
C227 H216 0.931 . S
C227 C225 1.416 . S
C227 C228 1.332 . S
C228 H207 0.929 . S
C228 C224 1.407 . S
C228 C227 1.332 . S
H229 C222 0.930 . S
H230 C253 0.930 . S
H231 C254 0.929 . S
O232 Tb188 2.465 . S
O232 C252 1.264 . S
O233 Tb188 2.387 . S
O233 C244 1.264 . S
O234 Tb199 2.349 . S
O234 C244 1.243 . S
O235 Tb188 2.428 . S
O235 C252 1.256 . S
O236 Tb188 2.308 . S
O236 C251 1.266 . S
O237 Tb199 2.393 . S
O237 C251 1.248 . S
O238 Tb199 2.465 . S
O238 C263 1.264 . S
O239 Tb199 2.387 . S
O239 C255 1.264 . S
O240 Tb188 2.349 . S
O240 C255 1.243 . S
O241 Tb199 2.428 . S
O241 C263 1.256 . S
O242 Tb199 2.308 . S
O242 C262 1.266 . S
O243 Tb188 2.393 . S
O243 C262 1.248 . S
C244 O233 1.264 . S
C244 O234 1.243 . S
C245 C248 1.399 . S
C245 C250 1.383 . S
C245 C252 1.496 . S
C246 C247 1.399 . S
C246 C250 1.389 . S
C247 C246 1.399 . S
C247 C249 1.380 . S
C247 H264 0.929 . S
C248 C245 1.399 . S
C248 C249 1.392 . S
C248 H265 0.929 . S
C249 C247 1.380 . S
C249 C248 1.392 . S
C249 H266 0.929 . S
C250 C245 1.383 . S
C250 C246 1.389 . S
C250 H267 0.931 . S
C251 O236 1.266 . S
C251 O237 1.248 . S
C252 Tb188 2.802 . S
C252 O232 1.264 . S
C252 O235 1.256 . S
C252 C245 1.496 . S
C253 C220 1.448 . S
C253 H230 0.930 . S
C253 C254 1.328 . S
C254 C225 1.427 . S
C254 H231 0.929 . S
C254 C253 1.328 . S
C255 O239 1.264 . S
C255 O240 1.243 . S
C256 C259 1.399 . S
C256 C260 1.383 . S
C256 C263 1.496 . S
C257 C258 1.399 . S
C257 C260 1.389 . S
C258 C257 1.399 . S
C258 C261 1.380 . S
C258 H268 0.929 . S
C259 C256 1.399 . S
C259 C261 1.392 . S
C259 H269 0.929 . S
C260 C256 1.383 . S
C260 C257 1.389 . S
C260 H270 0.931 . S
C261 C258 1.380 . S
C261 C259 1.392 . S
C261 H271 0.929 . S
C262 O242 1.266 . S
C262 O243 1.248 . S
C263 Tb199 2.802 . S
C263 O238 1.264 . S
C263 O241 1.256 . S
C263 C256 1.496 . S
H264 C247 0.929 . S
H265 C248 0.929 . S
H266 C249 0.929 . S
H267 C250 0.931 . S
H268 C258 0.929 . S
H269 C259 0.929 . S
H270 C260 0.931 . S
H271 C261 0.929 . S
Tb272 N301 2.617 . S
Tb272 N307 2.572 . S
Tb272 O316 2.465 . S
Tb272 O317 2.387 . S
Tb272 O319 2.428 . S
Tb272 O320 2.308 . S
Tb272 O324 2.349 . S
Tb272 O327 2.393 . S
Tb272 C336 2.802 . S
C273 N274 1.379 . S
C273 C276 1.416 . S
C273 C280 1.424 . S
N274 C273 1.379 . S
N274 C277 1.334 . S
N274 Tb283 2.617 . S
C275 C277 1.390 . S
C275 C278 1.339 . S
C275 H295 0.930 . S
C276 C273 1.416 . S
C276 C278 1.416 . S
C276 C282 1.448 . S
C277 N274 1.334 . S
C277 C275 1.390 . S
C277 H288 0.930 . S
C278 C275 1.339 . S
C278 C276 1.416 . S
C278 H299 0.930 . S
C279 C280 1.413 . S
C279 C281 1.427 . S
C279 C285 1.416 . S
C280 C273 1.424 . S
C280 C279 1.413 . S
C280 N284 1.361 . S
C281 C279 1.427 . S
C281 C282 1.328 . S
C281 H296 0.929 . S
C282 C276 1.448 . S
C282 C281 1.328 . S
C282 H297 0.930 . S
Tb283 N274 2.617 . S
Tb283 N284 2.572 . S
Tb283 O318 2.349 1_655 S
Tb283 O321 2.393 . S
Tb283 O322 2.465 . S
Tb283 O323 2.387 . S
Tb283 O325 2.428 . S
Tb283 O326 2.308 1_655 S
Tb283 C347 2.802 . S
N284 C280 1.361 . S
N284 Tb283 2.572 . S
N284 C286 1.340 . S
C285 C279 1.416 . S
C285 C287 1.332 . S
C285 H293 0.931 . S
C286 N284 1.340 . S
C286 C287 1.407 . S
C286 H292 0.930 . S
C287 C285 1.332 . S
C287 C286 1.407 . S
C287 H289 0.929 . S
H288 C277 0.930 . S
H289 C287 0.929 . S
H290 C305 0.930 . S
H291 C312 0.929 . S
H292 C286 0.930 . S
H293 C285 0.931 . S
H294 C308 0.930 . S
H295 C275 0.930 . S
H296 C281 0.929 . S
H297 C282 0.930 . S
H298 C303 0.930 . S
H299 C278 0.930 . S
H300 C311 0.931 . S
N301 Tb272 2.617 . S
N301 C302 1.379 . S
N301 C305 1.334 . S
C302 N301 1.379 . S
C302 C304 1.416 . S
C302 C310 1.424 . S
C303 H298 0.930 . S
C303 C305 1.390 . S
C303 C306 1.339 . S
C304 C302 1.416 . S
C304 C306 1.416 . S
C304 C337 1.448 . S
C305 H290 0.930 . S
C305 N301 1.334 . S
C305 C303 1.390 . S
C306 C303 1.339 . S
C306 C304 1.416 . S
C306 H313 0.930 . S
N307 Tb272 2.572 . S
N307 C308 1.340 . S
N307 C310 1.361 . S
C308 H294 0.930 . S
C308 N307 1.340 . S
C308 C312 1.407 . S
C309 C310 1.413 . S
C309 C311 1.416 . S
C309 C338 1.427 . S
C310 C302 1.424 . S
C310 N307 1.361 . S
C310 C309 1.413 . S
C311 H300 0.931 . S
C311 C309 1.416 . S
C311 C312 1.332 . S
C312 H291 0.929 . S
C312 C308 1.407 . S
C312 C311 1.332 . S
H313 C306 0.930 . S
H314 C337 0.930 . S
H315 C338 0.929 . S
O316 Tb272 2.465 . S
O316 C336 1.264 . S
O317 Tb272 2.387 . S
O317 C328 1.264 . S
O318 Tb283 2.349 1_455 S
O318 C328 1.243 . S
O319 Tb272 2.428 . S
O319 C336 1.256 . S
O320 Tb272 2.308 . S
O320 C335 1.266 1_455 S
O321 Tb283 2.393 . S
O321 C335 1.248 . S
O322 Tb283 2.465 . S
O322 C347 1.264 . S
O323 Tb283 2.387 . S
O323 C339 1.264 . S
O324 Tb272 2.349 . S
O324 C339 1.243 1_455 S
O325 Tb283 2.428 . S
O325 C347 1.256 . S
O326 Tb283 2.308 1_455 S
O326 C346 1.266 . S
O327 Tb272 2.393 . S
O327 C346 1.248 . S
C328 O317 1.264 . S
C328 O318 1.243 . S
C329 C332 1.399 . S
C329 C334 1.383 . S
C329 C336 1.496 . S
C330 C331 1.399 . S
C330 C334 1.389 . S
C331 C330 1.399 . S
C331 C333 1.380 . S
C331 H348 0.929 . S
C332 C329 1.399 . S
C332 C333 1.392 . S
C332 H349 0.929 . S
C333 C331 1.380 . S
C333 C332 1.392 . S
C333 H350 0.929 . S
C334 C329 1.383 . S
C334 C330 1.389 . S
C334 H351 0.931 . S
C335 O320 1.266 1_655 S
C335 O321 1.248 . S
C336 Tb272 2.802 . S
C336 O316 1.264 . S
C336 O319 1.256 . S
C336 C329 1.496 . S
C337 C304 1.448 . S
C337 H314 0.930 . S
C337 C338 1.328 . S
C338 C309 1.427 . S
C338 H315 0.929 . S
C338 C337 1.328 . S
C339 O323 1.264 . S
C339 O324 1.243 1_655 S
C340 C343 1.399 . S
C340 C344 1.383 . S
C340 C347 1.496 . S
C341 C342 1.399 . S
C341 C344 1.389 . S
C342 C341 1.399 . S
C342 C345 1.380 . S
C342 H352 0.929 . S
C343 C340 1.399 . S
C343 C345 1.392 . S
C343 H353 0.929 . S
C344 C340 1.383 . S
C344 C341 1.389 . S
C344 H354 0.931 . S
C345 C342 1.380 . S
C345 C343 1.392 . S
C345 H355 0.929 . S
C346 O326 1.266 . S
C346 O327 1.248 . S
C347 Tb283 2.802 . S
C347 O322 1.264 . S
C347 O325 1.256 . S
C347 C340 1.496 . S
H348 C331 0.929 . S
H349 C332 0.929 . S
H350 C333 0.929 . S
H351 C334 0.931 . S
H352 C342 0.929 . S
H353 C343 0.929 . S
H354 C344 0.931 . S
H355 C345 0.929 . S
Tb356 N385 2.617 . S
Tb356 N391 2.572 . S
Tb356 O400 2.465 . S
Tb356 O401 2.387 . S
Tb356 O403 2.428 . S
Tb356 O404 2.308 . S
Tb356 O408 2.349 . S
Tb356 O411 2.393 . S
Tb356 C420 2.802 . S
C357 N358 1.379 . S
C357 C360 1.416 . S
C357 C364 1.424 . S
N358 C357 1.379 . S
N358 C361 1.334 . S
N358 Tb367 2.617 . S
C359 C361 1.390 . S
C359 C362 1.339 . S
C359 H379 0.930 . S
C360 C357 1.416 . S
C360 C362 1.416 . S
C360 C366 1.448 . S
C361 N358 1.334 . S
C361 C359 1.390 . S
C361 H372 0.930 . S
C362 C359 1.339 . S
C362 C360 1.416 . S
C362 H383 0.930 . S
C363 C364 1.413 . S
C363 C365 1.427 . S
C363 C369 1.416 . S
C364 C357 1.424 . S
C364 C363 1.413 . S
C364 N368 1.361 . S
C365 C363 1.427 . S
C365 C366 1.328 . S
C365 H380 0.929 . S
C366 C360 1.448 . S
C366 C365 1.328 . S
C366 H381 0.930 . S
Tb367 N358 2.617 . S
Tb367 N368 2.572 . S
Tb367 O402 2.349 . S
Tb367 O405 2.393 . S
Tb367 O406 2.465 . S
Tb367 O407 2.387 . S
Tb367 O409 2.428 . S
Tb367 O410 2.308 . S
Tb367 C431 2.802 . S
N368 C364 1.361 . S
N368 Tb367 2.572 . S
N368 C370 1.340 . S
C369 C363 1.416 . S
C369 C371 1.332 . S
C369 H377 0.931 . S
C370 N368 1.340 . S
C370 C371 1.407 . S
C370 H376 0.930 . S
C371 C369 1.332 . S
C371 C370 1.407 . S
C371 H373 0.929 . S
H372 C361 0.930 . S
H373 C371 0.929 . S
H374 C389 0.930 . S
H375 C396 0.929 . S
H376 C370 0.930 . S
H377 C369 0.931 . S
H378 C392 0.930 . S
H379 C359 0.930 . S
H380 C365 0.929 . S
H381 C366 0.930 . S
H382 C387 0.930 . S
H383 C362 0.930 . S
H384 C395 0.931 . S
N385 Tb356 2.617 . S
N385 C386 1.379 . S
N385 C389 1.334 . S
C386 N385 1.379 . S
C386 C388 1.416 . S
C386 C394 1.424 . S
C387 H382 0.930 . S
C387 C389 1.390 . S
C387 C390 1.339 . S
C388 C386 1.416 . S
C388 C390 1.416 . S
C388 C421 1.448 . S
C389 H374 0.930 . S
C389 N385 1.334 . S
C389 C387 1.390 . S
C390 C387 1.339 . S
C390 C388 1.416 . S
C390 H397 0.930 . S
N391 Tb356 2.572 . S
N391 C392 1.340 . S
N391 C394 1.361 . S
C392 H378 0.930 . S
C392 N391 1.340 . S
C392 C396 1.407 . S
C393 C394 1.413 . S
C393 C395 1.416 . S
C393 C422 1.427 . S
C394 C386 1.424 . S
C394 N391 1.361 . S
C394 C393 1.413 . S
C395 H384 0.931 . S
C395 C393 1.416 . S
C395 C396 1.332 . S
C396 H375 0.929 . S
C396 C392 1.407 . S
C396 C395 1.332 . S
H397 C390 0.930 . S
H398 C421 0.930 . S
H399 C422 0.929 . S
O400 Tb356 2.465 . S
O400 C420 1.264 . S
O401 Tb356 2.387 . S
O401 C412 1.264 . S
O402 Tb367 2.349 . S
O402 C412 1.243 . S
O403 Tb356 2.428 . S
O403 C420 1.256 . S
O404 Tb356 2.308 . S
O404 C419 1.266 . S
O405 Tb367 2.393 . S
O405 C419 1.248 . S
O406 Tb367 2.465 . S
O406 C431 1.264 . S
O407 Tb367 2.387 . S
O407 C423 1.264 . S
O408 Tb356 2.349 . S
O408 C423 1.243 . S
O409 Tb367 2.428 . S
O409 C431 1.256 . S
O410 Tb367 2.308 . S
O410 C430 1.266 . S
O411 Tb356 2.393 . S
O411 C430 1.248 . S
C412 O401 1.264 . S
C412 O402 1.243 . S
C413 C416 1.399 . S
C413 C418 1.383 . S
C413 C420 1.496 . S
C414 C415 1.399 . S
C414 C418 1.389 . S
C415 C414 1.399 . S
C415 C417 1.380 . S
C415 H432 0.929 . S
C416 C413 1.399 . S
C416 C417 1.392 . S
C416 H433 0.929 . S
C417 C415 1.380 . S
C417 C416 1.392 . S
C417 H434 0.929 . S
C418 C413 1.383 . S
C418 C414 1.389 . S
C418 H435 0.931 . S
C419 O404 1.266 . S
C419 O405 1.248 . S
C420 Tb356 2.802 . S
C420 O400 1.264 . S
C420 O403 1.256 . S
C420 C413 1.496 . S
C421 C388 1.448 . S
C421 H398 0.930 . S
C421 C422 1.328 . S
C422 C393 1.427 . S
C422 H399 0.929 . S
C422 C421 1.328 . S
C423 O407 1.264 . S
C423 O408 1.243 . S
C424 C427 1.399 . S
C424 C428 1.383 . S
C424 C431 1.496 . S
C425 C426 1.399 . S
C425 C428 1.389 . S
C426 C425 1.399 . S
C426 C429 1.380 . S
C426 H436 0.929 . S
C427 C424 1.399 . S
C427 C429 1.392 . S
C427 H437 0.929 . S
C428 C424 1.383 . S
C428 C425 1.389 . S
C428 H438 0.931 . S
C429 C426 1.380 . S
C429 C427 1.392 . S
C429 H439 0.929 . S
C430 O410 1.266 . S
C430 O411 1.248 . S
C431 Tb367 2.802 . S
C431 O406 1.264 . S
C431 O409 1.256 . S
C431 C424 1.496 . S
H432 C415 0.929 . S
H433 C416 0.929 . S
H434 C417 0.929 . S
H435 C418 0.931 . S
H436 C426 0.929 . S
H437 C427 0.929 . S
H438 C428 0.931 . S
H439 C429 0.929 . S
H440 C448 0.929 . S
H441 C450 0.930 . S
H442 C452 0.930 . S
H443 C455 0.929 . S
H444 C458 0.930 . S
H445 C460 0.960 . S
H446 C460 0.960 . S
H447 C460 0.960 . S
C448 H440 0.929 . S
C448 C449 1.377 . S
C448 C450 1.384 . S
C449 C448 1.377 . S
C449 C455 1.390 . S
C450 H441 0.930 . S
C450 C448 1.384 . S
C450 C451 1.372 . S
C451 C450 1.372 . S
C451 C452 1.400 . S
C451 C456 1.490 . S
C452 H442 0.930 . S
C452 C451 1.400 . S
C452 C455 1.386 . S
H453 C469 0.930 . S
H454 C470 0.931 . S
C455 H443 0.929 . S
C455 C449 1.390 . S
C455 C452 1.386 . S
C456 C451 1.490 . S
C456 C458 1.395 . S
C456 C459 1.403 . S
H457 C463 0.930 . S
C458 H444 0.930 . S
C458 C456 1.395 . S
C458 C461 1.403 1_565 S
C459 C456 1.403 . S
C459 C460 1.524 . S
C459 C463 1.400 . S
C460 H445 0.960 . S
C460 H446 0.960 . S
C460 H447 0.960 . S
C460 C459 1.524 . S
C461 C458 1.403 1_545 S
C461 C462 1.392 . S
C461 C465 1.495 . S
C462 C461 1.392 . S
C462 C463 1.385 1_545 S
C462 C464 1.478 . S
C463 H457 0.930 . S
C463 C459 1.400 . S
C463 C462 1.385 1_565 S
C464 C462 1.478 . S
C464 C466 1.381 . S
C464 C470 1.383 . S
C465 C461 1.495 . S
C465 H471 0.959 . S
C465 H472 0.961 . S
C465 H473 0.960 . S
C466 C464 1.381 . S
C466 C467 1.394 . S
C466 H474 0.930 . S
C467 C466 1.394 . S
C467 C468 1.383 . S
C467 H475 0.929 . S
C468 C467 1.383 . S
C468 C469 1.377 . S
C469 H453 0.930 . S
C469 C468 1.377 . S
C469 C470 1.379 . S
C470 H454 0.931 . S
C470 C464 1.383 . S
C470 C469 1.379 . S
H471 C465 0.959 . S
H472 C465 0.961 . S
H473 C465 0.960 . S
H474 C466 0.930 . S
H475 C467 0.929 . S
H476 C484 0.929 . S
H477 C486 0.930 . S
H478 C488 0.930 . S
H479 C491 0.929 . S
H480 C494 0.930 . S
H481 C496 0.960 . S
H482 C496 0.960 . S
H483 C496 0.960 . S
C484 H476 0.929 . S
C484 C485 1.377 . S
C484 C486 1.384 . S
C485 C484 1.377 . S
C485 C491 1.390 . S
C486 H477 0.930 . S
C486 C484 1.384 . S
C486 C487 1.372 . S
C487 C486 1.372 . S
C487 C488 1.400 . S
C487 C492 1.490 . S
C488 H478 0.930 . S
C488 C487 1.400 . S
C488 C491 1.386 . S
H489 C505 0.930 . S
H490 C506 0.931 . S
C491 H479 0.929 . S
C491 C485 1.390 . S
C491 C488 1.386 . S
C492 C487 1.490 . S
C492 C494 1.395 . S
C492 C495 1.403 . S
H493 C499 0.930 . S
C494 H480 0.930 . S
C494 C492 1.395 . S
C494 C497 1.403 . S
C495 C492 1.403 . S
C495 C496 1.524 . S
C495 C499 1.400 . S
C496 H481 0.960 . S
C496 H482 0.960 . S
C496 H483 0.960 . S
C496 C495 1.524 . S
C497 C494 1.403 . S
C497 C498 1.392 . S
C497 C501 1.495 . S
C498 C497 1.392 . S
C498 C499 1.385 . S
C498 C500 1.478 . S
C499 H493 0.930 . S
C499 C495 1.400 . S
C499 C498 1.385 . S
C500 C498 1.478 . S
C500 C502 1.381 . S
C500 C506 1.383 . S
C501 C497 1.495 . S
C501 H507 0.959 . S
C501 H508 0.961 . S
C501 H509 0.960 . S
C502 C500 1.381 . S
C502 C503 1.394 . S
C502 H510 0.930 . S
C503 C502 1.394 . S
C503 C504 1.383 . S
C503 H511 0.929 . S
C504 C503 1.383 . S
C504 C505 1.377 . S
C505 H489 0.930 . S
C505 C504 1.377 . S
C505 C506 1.379 . S
C506 H490 0.931 . S
C506 C500 1.383 . S
C506 C505 1.379 . S
H507 C501 0.959 . S
H508 C501 0.961 . S
H509 C501 0.960 . S
H510 C502 0.930 . S
H511 C503 0.929 . S
H512 C520 0.929 . S
H513 C522 0.930 . S
H514 C524 0.930 . S
H515 C527 0.929 . S
H516 C530 0.930 . S
H517 C532 0.960 . S
H518 C532 0.960 . S
H519 C532 0.960 . S
C520 H512 0.929 . S
C520 C521 1.377 . S
C520 C522 1.384 . S
C521 C520 1.377 . S
C521 C527 1.390 . S
C522 H513 0.930 . S
C522 C520 1.384 . S
C522 C523 1.372 . S
C523 C522 1.372 . S
C523 C524 1.400 . S
C523 C528 1.490 . S
C524 H514 0.930 . S
C524 C523 1.400 . S
C524 C527 1.386 . S
H525 C541 0.930 . S
H526 C542 0.931 . S
C527 H515 0.929 . S
C527 C521 1.390 . S
C527 C524 1.386 . S
C528 C523 1.490 . S
C528 C530 1.395 . S
C528 C531 1.403 . S
H529 C535 0.930 . S
C530 H516 0.930 . S
C530 C528 1.395 . S
C530 C533 1.403 . S
C531 C528 1.403 . S
C531 C532 1.524 . S
C531 C535 1.400 . S
C532 H517 0.960 . S
C532 H518 0.960 . S
C532 H519 0.960 . S
C532 C531 1.524 . S
C533 C530 1.403 . S
C533 C534 1.392 . S
C533 C537 1.495 . S
C534 C533 1.392 . S
C534 C535 1.385 . S
C534 C536 1.478 . S
C535 H529 0.930 . S
C535 C531 1.400 . S
C535 C534 1.385 . S
C536 C534 1.478 . S
C536 C538 1.381 . S
C536 C542 1.383 . S
C537 C533 1.495 . S
C537 H543 0.959 . S
C537 H544 0.961 . S
C537 H545 0.960 . S
C538 C536 1.381 . S
C538 C539 1.394 . S
C538 H546 0.930 . S
C539 C538 1.394 . S
C539 C540 1.383 . S
C539 H547 0.929 . S
C540 C539 1.383 . S
C540 C541 1.377 . S
C541 H525 0.930 . S
C541 C540 1.377 . S
C541 C542 1.379 . S
C542 H526 0.931 . S
C542 C536 1.383 . S
C542 C541 1.379 . S
H543 C537 0.959 . S
H544 C537 0.961 . S
H545 C537 0.960 . S
H546 C538 0.930 . S
H547 C539 0.929 . S
H548 C556 0.929 . S
H549 C558 0.930 . S
H550 C560 0.930 . S
H551 C563 0.929 . S
H552 C566 0.930 . S
H553 C568 0.960 . S
H554 C568 0.960 . S
H555 C568 0.960 . S
C556 H548 0.929 . S
C556 C557 1.377 . S
C556 C558 1.384 . S
C557 C556 1.377 . S
C557 C563 1.390 . S
C558 H549 0.930 . S
C558 C556 1.384 . S
C558 C559 1.372 . S
C559 C558 1.372 . S
C559 C560 1.400 . S
C559 C564 1.490 . S
C560 H550 0.930 . S
C560 C559 1.400 . S
C560 C563 1.386 . S
H561 C577 0.930 . S
H562 C578 0.931 . S
C563 H551 0.929 . S
C563 C557 1.390 . S
C563 C560 1.386 . S
C564 C559 1.490 . S
C564 C566 1.395 . S
C564 C567 1.403 . S
H565 C571 0.930 . S
C566 H552 0.930 . S
C566 C564 1.395 . S
C566 C569 1.403 1_565 S
C567 C564 1.403 . S
C567 C568 1.524 . S
C567 C571 1.400 . S
C568 H553 0.960 . S
C568 H554 0.960 . S
C568 H555 0.960 . S
C568 C567 1.524 . S
C569 C566 1.403 1_545 S
C569 C570 1.392 . S
C569 C573 1.495 . S
C570 C569 1.392 . S
C570 C571 1.385 1_545 S
C570 C572 1.478 . S
C571 H565 0.930 . S
C571 C567 1.400 . S
C571 C570 1.385 1_565 S
C572 C570 1.478 . S
C572 C574 1.381 . S
C572 C578 1.383 . S
C573 C569 1.495 . S
C573 H579 0.959 . S
C573 H580 0.961 . S
C573 H581 0.960 . S
C574 C572 1.381 . S
C574 C575 1.394 . S
C574 H582 0.930 . S
C575 C574 1.394 . S
C575 C576 1.383 . S
C575 H583 0.929 . S
C576 C575 1.383 . S
C576 C577 1.377 . S
C577 H561 0.930 . S
C577 C576 1.377 . S
C577 C578 1.379 . S
C578 H562 0.931 . S
C578 C572 1.383 . S
C578 C577 1.379 . S
H579 C573 0.959 . S
H580 C573 0.961 . S
H581 C573 0.960 . S
H582 C574 0.930 . S
H583 C575 0.929 . S
H584 C592 0.929 . S
H585 C594 0.930 . S
H586 C596 0.930 . S
H587 C599 0.929 . S
H588 C602 0.930 . S
H589 C604 0.960 . S
H590 C604 0.960 . S
H591 C604 0.960 . S
C592 H584 0.929 . S
C592 C593 1.377 . S
C592 C594 1.384 . S
C593 C592 1.377 . S
C593 C599 1.390 . S
C594 H585 0.930 . S
C594 C592 1.384 . S
C594 C595 1.372 . S
C595 C594 1.372 . S
C595 C596 1.400 . S
C595 C600 1.490 . S
C596 H586 0.930 . S
C596 C595 1.400 . S
C596 C599 1.386 . S
H597 C613 0.930 . S
H598 C614 0.931 . S
C599 H587 0.929 . S
C599 C593 1.390 . S
C599 C596 1.386 . S
C600 C595 1.490 . S
C600 C602 1.395 . S
C600 C603 1.403 . S
H601 C607 0.930 . S
C602 H588 0.930 . S
C602 C600 1.395 . S
C602 C605 1.403 . S
C603 C600 1.403 . S
C603 C604 1.524 . S
C603 C607 1.400 . S
C604 H589 0.960 . S
C604 H590 0.960 . S
C604 H591 0.960 . S
C604 C603 1.524 . S
C605 C602 1.403 . S
C605 C606 1.392 . S
C605 C609 1.495 1_545 S
C606 C605 1.392 . S
C606 C607 1.385 . S
C606 C608 1.478 1_545 S
C607 H601 0.930 . S
C607 C603 1.400 . S
C607 C606 1.385 . S
C608 C606 1.478 1_565 S
C608 C610 1.381 . S
C608 C614 1.383 . S
C609 C605 1.495 1_565 S
C609 H615 0.959 . S
C609 H616 0.961 . S
C609 H617 0.960 . S
C610 C608 1.381 . S
C610 C611 1.394 . S
C610 H618 0.930 . S
C611 C610 1.394 . S
C611 C612 1.383 . S
C611 H619 0.929 . S
C612 C611 1.383 . S
C612 C613 1.377 . S
C613 H597 0.930 . S
C613 C612 1.377 . S
C613 C614 1.379 . S
C614 H598 0.931 . S
C614 C608 1.383 . S
C614 C613 1.379 . S
H615 C609 0.959 . S
H616 C609 0.961 . S
H617 C609 0.960 . S
H618 C610 0.930 . S
H619 C611 0.929 . S
H620 C628 0.929 . S
H621 C630 0.930 . S
H622 C632 0.930 . S
H623 C635 0.929 . S
H624 C638 0.930 . S
H625 C640 0.960 . S
H626 C640 0.960 . S
H627 C640 0.960 . S
C628 H620 0.929 . S
C628 C629 1.377 . S
C628 C630 1.384 . S
C629 C628 1.377 . S
C629 C635 1.390 . S
C630 H621 0.930 . S
C630 C628 1.384 . S
C630 C631 1.372 . S
C631 C630 1.372 . S
C631 C632 1.400 . S
C631 C636 1.490 . S
C632 H622 0.930 . S
C632 C631 1.400 . S
C632 C635 1.386 . S
H633 C649 0.930 . S
H634 C650 0.931 . S
C635 H623 0.929 . S
C635 C629 1.390 . S
C635 C632 1.386 . S
C636 C631 1.490 . S
C636 C638 1.395 . S
C636 C639 1.403 . S
H637 C643 0.930 . S
C638 H624 0.930 . S
C638 C636 1.395 . S
C638 C641 1.403 . S
C639 C636 1.403 . S
C639 C640 1.524 . S
C639 C643 1.400 . S
C640 H625 0.960 . S
C640 H626 0.960 . S
C640 H627 0.960 . S
C640 C639 1.524 . S
C641 C638 1.403 . S
C641 C642 1.392 . S
C641 C645 1.495 . S
C642 C641 1.392 . S
C642 C643 1.385 . S
C642 C644 1.478 . S
C643 H637 0.930 . S
C643 C639 1.400 . S
C643 C642 1.385 . S
C644 C642 1.478 . S
C644 C646 1.381 . S
C644 C650 1.383 . S
C645 C641 1.495 . S
C645 H651 0.959 . S
C645 H652 0.961 . S
C645 H653 0.960 . S
C646 C644 1.381 . S
C646 C647 1.394 . S
C646 H654 0.930 . S
C647 C646 1.394 . S
C647 C648 1.383 . S
C647 H655 0.929 . S
C648 C647 1.383 . S
C648 C649 1.377 . S
C649 H633 0.930 . S
C649 C648 1.377 . S
C649 C650 1.379 . S
C650 H634 0.931 . S
C650 C644 1.383 . S
C650 C649 1.379 . S
H651 C645 0.959 . S
H652 C645 0.961 . S
H653 C645 0.960 . S
H654 C646 0.930 . S
H655 C647 0.929 . S
H656 C664 0.929 . S
H657 C666 0.930 . S
H658 C668 0.930 . S
H659 C671 0.929 . S
H660 C674 0.930 . S
H661 C676 0.960 . S
H662 C676 0.960 . S
H663 C676 0.960 . S
C664 H656 0.929 . S
C664 C665 1.377 . S
C664 C666 1.384 . S
C665 C664 1.377 . S
C665 C671 1.390 . S
C666 H657 0.930 . S
C666 C664 1.384 . S
C666 C667 1.372 . S
C667 C666 1.372 . S
C667 C668 1.400 . S
C667 C672 1.490 . S
C668 H658 0.930 . S
C668 C667 1.400 . S
C668 C671 1.386 . S
H669 C685 0.930 . S
H670 C686 0.931 . S
C671 H659 0.929 . S
C671 C665 1.390 . S
C671 C668 1.386 . S
C672 C667 1.490 . S
C672 C674 1.395 . S
C672 C675 1.403 . S
H673 C679 0.930 . S
C674 H660 0.930 . S
C674 C672 1.395 . S
C674 C677 1.403 . S
C675 C672 1.403 . S
C675 C676 1.524 . S
C675 C679 1.400 . S
C676 H661 0.960 . S
C676 H662 0.960 . S
C676 H663 0.960 . S
C676 C675 1.524 . S
C677 C674 1.403 . S
C677 C678 1.392 . S
C677 C681 1.495 . S
C678 C677 1.392 . S
C678 C679 1.385 . S
C678 C680 1.478 . S
C679 H673 0.930 . S
C679 C675 1.400 . S
C679 C678 1.385 . S
C680 C678 1.478 . S
C680 C682 1.381 . S
C680 C686 1.383 . S
C681 C677 1.495 . S
C681 H687 0.959 . S
C681 H688 0.961 . S
C681 H689 0.960 . S
C682 C680 1.381 . S
C682 C683 1.394 . S
C682 H690 0.930 . S
C683 C682 1.394 . S
C683 C684 1.383 . S
C683 H691 0.929 . S
C684 C683 1.383 . S
C684 C685 1.377 . S
C685 H669 0.930 . S
C685 C684 1.377 . S
C685 C686 1.379 . S
C686 H670 0.931 . S
C686 C680 1.383 . S
C686 C685 1.379 . S
H687 C681 0.959 . S
H688 C681 0.961 . S
H689 C681 0.960 . S
H690 C682 0.930 . S
H691 C683 0.929 . S
H692 C700 0.929 . S
H693 C702 0.930 . S
H694 C704 0.930 . S
H695 C707 0.929 . S
H696 C710 0.930 . S
H697 C712 0.960 . S
H698 C712 0.960 . S
H699 C712 0.960 . S
C700 H692 0.929 . S
C700 C701 1.377 . S
C700 C702 1.384 . S
C701 C700 1.377 . S
C701 C707 1.390 . S
C702 H693 0.930 . S
C702 C700 1.384 . S
C702 C703 1.372 . S
C703 C702 1.372 . S
C703 C704 1.400 . S
C703 C708 1.490 . S
C704 H694 0.930 . S
C704 C703 1.400 . S
C704 C707 1.386 . S
H705 C721 0.930 . S
H706 C722 0.931 . S
C707 H695 0.929 . S
C707 C701 1.390 . S
C707 C704 1.386 . S
C708 C703 1.490 . S
C708 C710 1.395 . S
C708 C711 1.403 . S
H709 C715 0.930 . S
C710 H696 0.930 . S
C710 C708 1.395 . S
C710 C713 1.403 1_545 S
C711 C708 1.403 . S
C711 C712 1.524 . S
C711 C715 1.400 . S
C712 H697 0.960 . S
C712 H698 0.960 . S
C712 H699 0.960 . S
C712 C711 1.524 . S
C713 C710 1.403 1_565 S
C713 C714 1.392 . S
C713 C717 1.495 . S
C714 C713 1.392 . S
C714 C715 1.385 1_565 S
C714 C716 1.478 . S
C715 H709 0.930 . S
C715 C711 1.400 . S
C715 C714 1.385 1_545 S
C716 C714 1.478 . S
C716 C718 1.381 . S
C716 C722 1.383 . S
C717 C713 1.495 . S
C717 H723 0.959 . S
C717 H724 0.961 . S
C717 H725 0.960 . S
C718 C716 1.381 . S
C718 C719 1.394 . S
C718 H726 0.930 . S
C719 C718 1.394 . S
C719 C720 1.383 . S
C719 H727 0.929 . S
C720 C719 1.383 . S
C720 C721 1.377 . S
C721 H705 0.930 . S
C721 C720 1.377 . S
C721 C722 1.379 . S
C722 H706 0.931 . S
C722 C716 1.383 . S
C722 C721 1.379 . S
H723 C717 0.959 . S
H724 C717 0.961 . S
H725 C717 0.960 . S
H726 C718 0.930 . S
H727 C719 0.929 . S
H728 C736 0.929 . S
H729 C738 0.930 . S
H730 C740 0.930 . S
H731 C743 0.929 . S
H732 C746 0.930 . S
H733 C748 0.960 1_554 S
H734 C748 0.960 . S
H735 C748 0.960 . S
C736 H728 0.929 . S
C736 C737 1.377 . S
C736 C738 1.384 . S
C737 C736 1.377 . S
C737 C743 1.390 . S
C738 H729 0.930 . S
C738 C736 1.384 . S
C738 C739 1.372 . S
C739 C738 1.372 . S
C739 C740 1.400 . S
C739 C744 1.490 1_556 S
C740 H730 0.930 . S
C740 C739 1.400 . S
C740 C743 1.386 . S
H741 C757 0.930 . S
H742 C758 0.931 . S
C743 H731 0.929 . S
C743 C737 1.390 . S
C743 C740 1.386 . S
C744 C739 1.490 1_554 S
C744 C746 1.395 . S
C744 C747 1.403 . S
H745 C751 0.930 . S
C746 H732 0.930 . S
C746 C744 1.395 . S
C746 C749 1.403 . S
C747 C744 1.403 . S
C747 C748 1.524 1_554 S
C747 C751 1.400 . S
C748 H733 0.960 1_556 S
C748 H734 0.960 . S
C748 H735 0.960 . S
C748 C747 1.524 1_556 S
C749 C746 1.403 . S
C749 C750 1.392 . S
C749 C753 1.495 . S
C750 C749 1.392 . S
C750 C751 1.385 . S
C750 C752 1.478 . S
C751 H745 0.930 . S
C751 C747 1.400 . S
C751 C750 1.385 . S
C752 C750 1.478 . S
C752 C754 1.381 . S
C752 C758 1.383 . S
C753 C749 1.495 . S
C753 H759 0.959 . S
C753 H760 0.961 . S
C753 H761 0.960 . S
C754 C752 1.381 . S
C754 C755 1.394 . S
C754 H762 0.930 . S
C755 C754 1.394 . S
C755 C756 1.383 . S
C755 H763 0.929 . S
C756 C755 1.383 . S
C756 C757 1.377 . S
C757 H741 0.930 . S
C757 C756 1.377 . S
C757 C758 1.379 . S
C758 H742 0.931 . S
C758 C752 1.383 . S
C758 C757 1.379 . S
H759 C753 0.959 . S
H760 C753 0.961 . S
H761 C753 0.960 . S
H762 C754 0.930 . S
H763 C755 0.929 . S
H764 C772 0.929 . S
H765 C774 0.930 . S
H766 C776 0.930 . S
H767 C779 0.929 . S
H768 C782 0.930 . S
H769 C784 0.960 . S
H770 C784 0.960 . S
H771 C784 0.960 . S
C772 H764 0.929 . S
C772 C773 1.377 . S
C772 C774 1.384 . S
C773 C772 1.377 . S
C773 C779 1.390 . S
C774 H765 0.930 . S
C774 C772 1.384 . S
C774 C775 1.372 . S
C775 C774 1.372 . S
C775 C776 1.400 . S
C775 C780 1.490 . S
C776 H766 0.930 . S
C776 C775 1.400 . S
C776 C779 1.386 . S
H777 C793 0.930 . S
H778 C794 0.931 . S
C779 H767 0.929 . S
C779 C773 1.390 . S
C779 C776 1.386 . S
C780 C775 1.490 . S
C780 C782 1.395 . S
C780 C783 1.403 . S
H781 C787 0.930 . S
C782 H768 0.930 . S
C782 C780 1.395 . S
C782 C785 1.403 . S
C783 C780 1.403 . S
C783 C784 1.524 . S
C783 C787 1.400 . S
C784 H769 0.960 . S
C784 H770 0.960 . S
C784 H771 0.960 . S
C784 C783 1.524 . S
C785 C782 1.403 . S
C785 C786 1.392 . S
C785 C789 1.495 . S
C786 C785 1.392 . S
C786 C787 1.385 . S
C786 C788 1.478 . S
C787 H781 0.930 . S
C787 C783 1.400 . S
C787 C786 1.385 . S
C788 C786 1.478 . S
C788 C790 1.381 . S
C788 C794 1.383 . S
C789 C785 1.495 . S
C789 H795 0.959 . S
C789 H796 0.961 . S
C789 H797 0.960 . S
C790 C788 1.381 . S
C790 C791 1.394 . S
C790 H798 0.930 . S
C791 C790 1.394 . S
C791 C792 1.383 . S
C791 H799 0.929 . S
C792 C791 1.383 . S
C792 C793 1.377 . S
C793 H777 0.930 . S
C793 C792 1.377 . S
C793 C794 1.379 . S
C794 H778 0.931 . S
C794 C788 1.383 . S
C794 C793 1.379 . S
H795 C789 0.959 . S
H796 C789 0.961 . S
H797 C789 0.960 . S
H798 C790 0.930 . S
H799 C791 0.929 . S
H800 C808 0.929 . S
H801 C810 0.930 . S
H802 C812 0.930 . S
H803 C815 0.929 . S
H804 C818 0.930 . S
H805 C820 0.960 1_556 S
H806 C820 0.960 . S
H807 C820 0.960 . S
C808 H800 0.929 . S
C808 C809 1.377 . S
C808 C810 1.384 . S
C809 C808 1.377 . S
C809 C815 1.390 . S
C810 H801 0.930 . S
C810 C808 1.384 . S
C810 C811 1.372 . S
C811 C810 1.372 . S
C811 C812 1.400 . S
C811 C816 1.490 1_554 S
C812 H802 0.930 . S
C812 C811 1.400 . S
C812 C815 1.386 . S
H813 C829 0.930 . S
H814 C830 0.931 . S
C815 H803 0.929 . S
C815 C809 1.390 . S
C815 C812 1.386 . S
C816 C811 1.490 1_556 S
C816 C818 1.395 . S
C816 C819 1.403 . S
H817 C823 0.930 . S
C818 H804 0.930 . S
C818 C816 1.395 . S
C818 C821 1.403 . S
C819 C816 1.403 . S
C819 C820 1.524 1_556 S
C819 C823 1.400 . S
C820 H805 0.960 1_554 S
C820 H806 0.960 . S
C820 H807 0.960 . S
C820 C819 1.524 1_554 S
C821 C818 1.403 . S
C821 C822 1.392 . S
C821 C825 1.495 . S
C822 C821 1.392 . S
C822 C823 1.385 . S
C822 C824 1.478 . S
C823 H817 0.930 . S
C823 C819 1.400 . S
C823 C822 1.385 . S
C824 C822 1.478 . S
C824 C826 1.381 . S
C824 C830 1.383 . S
C825 C821 1.495 . S
C825 H831 0.959 . S
C825 H832 0.961 . S
C825 H833 0.960 . S
C826 C824 1.381 . S
C826 C827 1.394 . S
C826 H834 0.930 . S
C827 C826 1.394 . S
C827 C828 1.383 . S
C827 H835 0.929 . S
C828 C827 1.383 . S
C828 C829 1.377 . S
C829 H813 0.930 . S
C829 C828 1.377 . S
C829 C830 1.379 . S
C830 H814 0.931 . S
C830 C824 1.383 . S
C830 C829 1.379 . S
H831 C825 0.959 . S
H832 C825 0.961 . S
H833 C825 0.960 . S
H834 C826 0.930 . S
H835 C827 0.929 . S
H836 C844 0.929 . S
H837 C846 0.930 . S
H838 C848 0.930 . S
H839 C851 0.929 . S
H840 C854 0.930 . S
H841 C856 0.960 . S
H842 C856 0.960 . S
H843 C856 0.960 . S
C844 H836 0.929 . S
C844 C845 1.377 . S
C844 C846 1.384 . S
C845 C844 1.377 . S
C845 C851 1.390 . S
C846 H837 0.930 . S
C846 C844 1.384 . S
C846 C847 1.372 . S
C847 C846 1.372 . S
C847 C848 1.400 . S
C847 C852 1.490 . S
C848 H838 0.930 . S
C848 C847 1.400 . S
C848 C851 1.386 . S
H849 C865 0.930 . S
H850 C866 0.931 . S
C851 H839 0.929 . S
C851 C845 1.390 . S
C851 C848 1.386 . S
C852 C847 1.490 . S
C852 C854 1.395 . S
C852 C855 1.403 . S
H853 C859 0.930 . S
C854 H840 0.930 . S
C854 C852 1.395 . S
C854 C857 1.403 . S
C855 C852 1.403 . S
C855 C856 1.524 . S
C855 C859 1.400 . S
C856 H841 0.960 . S
C856 H842 0.960 . S
C856 H843 0.960 . S
C856 C855 1.524 . S
C857 C854 1.403 . S
C857 C858 1.392 . S
C857 C861 1.495 . S
C858 C857 1.392 . S
C858 C859 1.385 . S
C858 C860 1.478 . S
C859 H853 0.930 . S
C859 C855 1.400 . S
C859 C858 1.385 . S
C860 C858 1.478 . S
C860 C862 1.381 . S
C860 C866 1.383 . S
C861 C857 1.495 . S
C861 H867 0.959 . S
C861 H868 0.961 . S
C861 H869 0.960 . S
C862 C860 1.381 . S
C862 C863 1.394 . S
C862 H870 0.930 . S
C863 C862 1.394 . S
C863 C864 1.383 . S
C863 H871 0.929 . S
C864 C863 1.383 . S
C864 C865 1.377 . S
C865 H849 0.930 . S
C865 C864 1.377 . S
C865 C866 1.379 . S
C866 H850 0.931 . S
C866 C860 1.383 . S
C866 C865 1.379 . S
H867 C861 0.959 . S
H868 C861 0.961 . S
H869 C861 0.960 . S
H870 C862 0.930 . S
H871 C863 0.929 . S
H872 C880 0.929 . S
H873 C882 0.930 1_556 S
H874 C884 0.930 . S
H875 C887 0.929 . S
H876 C890 0.930 . S
H877 C892 0.960 . S
H878 C892 0.960 . S
H879 C892 0.960 . S
C880 H872 0.929 . S
C880 C881 1.377 . S
C880 C882 1.384 . S
C881 C880 1.377 . S
C881 C887 1.390 . S
C882 H873 0.930 1_554 S
C882 C880 1.384 . S
C882 C883 1.372 . S
C883 C882 1.372 . S
C883 C884 1.400 . S
C883 C888 1.490 1_554 S
C884 H874 0.930 . S
C884 C883 1.400 . S
C884 C887 1.386 . S
H885 C901 0.930 . S
H886 C902 0.931 . S
C887 H875 0.929 . S
C887 C881 1.390 . S
C887 C884 1.386 . S
C888 C883 1.490 1_556 S
C888 C890 1.395 . S
C888 C891 1.403 . S
H889 C895 0.930 . S
C890 H876 0.930 . S
C890 C888 1.395 . S
C890 C893 1.403 . S
C891 C888 1.403 . S
C891 C892 1.524 . S
C891 C895 1.400 . S
C892 H877 0.960 . S
C892 H878 0.960 . S
C892 H879 0.960 . S
C892 C891 1.524 . S
C893 C890 1.403 . S
C893 C894 1.392 . S
C893 C897 1.495 . S
C894 C893 1.392 . S
C894 C895 1.385 . S
C894 C896 1.478 . S
C895 H889 0.930 . S
C895 C891 1.400 . S
C895 C894 1.385 . S
C896 C894 1.478 . S
C896 C898 1.381 . S
C896 C902 1.383 . S
C897 C893 1.495 . S
C897 H903 0.959 . S
C897 H904 0.961 . S
C897 H905 0.960 . S
C898 C896 1.381 . S
C898 C899 1.394 . S
C898 H906 0.930 . S
C899 C898 1.394 . S
C899 C900 1.383 . S
C899 H907 0.929 . S
C900 C899 1.383 . S
C900 C901 1.377 . S
C901 H885 0.930 . S
C901 C900 1.377 . S
C901 C902 1.379 . S
C902 H886 0.931 . S
C902 C896 1.383 . S
C902 C901 1.379 . S
H903 C897 0.959 . S
H904 C897 0.961 . S
H905 C897 0.960 . S
H906 C898 0.930 . S
H907 C899 0.929 . S
H908 C916 0.929 . S
H909 C918 0.930 . S
H910 C920 0.930 . S
H911 C923 0.929 . S
H912 C926 0.930 . S
H913 C928 0.960 . S
H914 C928 0.960 . S
H915 C928 0.960 . S
C916 H908 0.929 . S
C916 C917 1.377 . S
C916 C918 1.384 . S
C917 C916 1.377 . S
C917 C923 1.390 . S
C918 H909 0.930 . S
C918 C916 1.384 . S
C918 C919 1.372 . S
C919 C918 1.372 . S
C919 C920 1.400 . S
C919 C924 1.490 . S
C920 H910 0.930 . S
C920 C919 1.400 . S
C920 C923 1.386 . S
H921 C937 0.930 . S
H922 C938 0.931 . S
C923 H911 0.929 . S
C923 C917 1.390 . S
C923 C920 1.386 . S
C924 C919 1.490 . S
C924 C926 1.395 . S
C924 C927 1.403 . S
H925 C931 0.930 . S
C926 H912 0.930 . S
C926 C924 1.395 . S
C926 C929 1.403 . S
C927 C924 1.403 . S
C927 C928 1.524 . S
C927 C931 1.400 . S
C928 H913 0.960 . S
C928 H914 0.960 . S
C928 H915 0.960 . S
C928 C927 1.524 . S
C929 C926 1.403 . S
C929 C930 1.392 . S
C929 C933 1.495 . S
C930 C929 1.392 . S
C930 C931 1.385 . S
C930 C932 1.478 . S
C931 H925 0.930 . S
C931 C927 1.400 . S
C931 C930 1.385 . S
C932 C930 1.478 . S
C932 C934 1.381 . S
C932 C938 1.383 . S
C933 C929 1.495 . S
C933 H939 0.959 . S
C933 H940 0.961 . S
C933 H941 0.960 . S
C934 C932 1.381 . S
C934 C935 1.394 . S
C934 H942 0.930 . S
C935 C934 1.394 . S
C935 C936 1.383 . S
C935 H943 0.929 . S
C936 C935 1.383 . S
C936 C937 1.377 . S
C937 H921 0.930 . S
C937 C936 1.377 . S
C937 C938 1.379 . S
C938 H922 0.931 . S
C938 C932 1.383 . S
C938 C937 1.379 . S
H939 C933 0.959 . S
H940 C933 0.961 . S
H941 C933 0.960 . S
H942 C934 0.930 . S
H943 C935 0.929 . S
H944 C952 0.929 . S
H945 C954 0.930 . S
H946 C956 0.930 1_554 S
H947 C959 0.929 . S
H948 C962 0.930 . S
H949 C964 0.960 . S
H950 C964 0.960 . S
H951 C964 0.960 . S
C952 H944 0.929 . S
C952 C953 1.377 . S
C952 C954 1.384 . S
C953 C952 1.377 . S
C953 C959 1.390 . S
C954 H945 0.930 . S
C954 C952 1.384 . S
C954 C955 1.372 . S
C955 C954 1.372 . S
C955 C956 1.400 . S
C955 C960 1.490 1_556 S
C956 H946 0.930 1_556 S
C956 C955 1.400 . S
C956 C959 1.386 . S
H957 C973 0.930 . S
H958 C974 0.931 . S
C959 H947 0.929 . S
C959 C953 1.390 . S
C959 C956 1.386 . S
C960 C955 1.490 1_554 S
C960 C962 1.395 . S
C960 C963 1.403 . S
H961 C967 0.930 . S
C962 H948 0.930 . S
C962 C960 1.395 . S
C962 C965 1.403 . S
C963 C960 1.403 . S
C963 C964 1.524 . S
C963 C967 1.400 . S
C964 H949 0.960 . S
C964 H950 0.960 . S
C964 H951 0.960 . S
C964 C963 1.524 . S
C965 C962 1.403 . S
C965 C966 1.392 . S
C965 C969 1.495 . S
C966 C965 1.392 . S
C966 C967 1.385 . S
C966 C968 1.478 . S
C967 H961 0.930 . S
C967 C963 1.400 . S
C967 C966 1.385 . S
C968 C966 1.478 . S
C968 C970 1.381 . S
C968 C974 1.383 . S
C969 C965 1.495 . S
C969 H975 0.959 . S
C969 H976 0.961 . S
C969 H977 0.960 . S
C970 C968 1.381 . S
C970 C971 1.394 . S
C970 H978 0.930 . S
C971 C970 1.394 . S
C971 C972 1.383 . S
C971 H979 0.929 . S
C972 C971 1.383 . S
C972 C973 1.377 . S
C973 H957 0.930 . S
C973 C972 1.377 . S
C973 C974 1.379 . S
C974 H958 0.931 . S
C974 C968 1.383 . S
C974 C973 1.379 . S
H975 C969 0.959 . S
H976 C969 0.961 . S
H977 C969 0.960 . S
H978 C970 0.930 . S
H979 C971 0.929 . S
H980 C988 0.929 . S
H981 C990 0.930 . S
H982 C992 0.930 . S
H983 C995 0.929 . S
H984 C998 0.930 . S
H985 C1000 0.960 . S
H986 C1000 0.960 . S
H987 C1000 0.960 . S
C988 H980 0.929 . S
C988 C989 1.377 . S
C988 C990 1.384 . S
C989 C988 1.377 . S
C989 C995 1.390 . S
C990 H981 0.930 . S
C990 C988 1.384 . S
C990 C991 1.372 . S
C991 C990 1.372 . S
C991 C992 1.400 . S
C991 C996 1.490 . S
C992 H982 0.930 . S
C992 C991 1.400 . S
C992 C995 1.386 . S
H993 C1009 0.930 . S
H994 C1010 0.931 . S
C995 H983 0.929 . S
C995 C989 1.390 . S
C995 C992 1.386 . S
C996 C991 1.490 . S
C996 C998 1.395 . S
C996 C999 1.403 . S
H997 C1003 0.930 . S
C998 H984 0.930 . S
C998 C996 1.395 . S
C998 C1001 1.403 . S
C999 C996 1.403 . S
C999 C1000 1.524 . S
C999 C1003 1.400 . S
C1000 H985 0.960 . S
C1000 H986 0.960 . S
C1000 H987 0.960 . S
C1000 C999 1.524 . S
C1001 C998 1.403 . S
C1001 C1002 1.392 . S
C1001 C1005 1.495 . S
C1002 C1001 1.392 . S
C1002 C1003 1.385 . S
C1002 C1004 1.478 . S
C1003 H997 0.930 . S
C1003 C999 1.400 . S
C1003 C1002 1.385 . S
C1004 C1002 1.478 . S
C1004 C1006 1.381 . S
C1004 C1010 1.383 . S
C1005 C1001 1.495 . S
C1005 H1011 0.959 . S
C1005 H1012 0.961 . S
C1005 H1013 0.960 . S
C1006 C1004 1.381 . S
C1006 C1007 1.394 . S
C1006 H1014 0.930 . S
C1007 C1006 1.394 . S
C1007 C1008 1.383 . S
C1007 H1015 0.929 . S
C1008 C1007 1.383 . S
C1008 C1009 1.377 . S
C1009 H993 0.930 . S
C1009 C1008 1.377 . S
C1009 C1010 1.379 . S
C1010 H994 0.931 . S
C1010 C1004 1.383 . S
C1010 C1009 1.379 . S
H1011 C1005 0.959 . S
H1012 C1005 0.961 . S
H1013 C1005 0.960 . S
H1014 C1006 0.930 . S
H1015 C1007 0.929 . S
H1016 C1024 0.929 . S
H1017 C1026 0.930 . S
H1018 C1028 0.930 . S
H1019 C1031 0.929 . S
H1020 C1034 0.930 . S
H1021 C1036 0.960 . S
H1022 C1036 0.960 . S
H1023 C1036 0.960 . S
C1024 H1016 0.929 . S
C1024 C1025 1.377 . S
C1024 C1026 1.384 . S
C1025 C1024 1.377 . S
C1025 C1031 1.390 . S
C1026 H1017 0.930 . S
C1026 C1024 1.384 . S
C1026 C1027 1.372 . S
C1027 C1026 1.372 . S
C1027 C1028 1.400 . S
C1027 C1032 1.490 . S
C1028 H1018 0.930 . S
C1028 C1027 1.400 . S
C1028 C1031 1.386 . S
H1029 C1045 0.930 . S
H1030 C1046 0.931 . S
C1031 H1019 0.929 . S
C1031 C1025 1.390 . S
C1031 C1028 1.386 . S
C1032 C1027 1.490 . S
C1032 C1034 1.395 . S
C1032 C1035 1.403 . S
H1033 C1039 0.930 . S
C1034 H1020 0.930 . S
C1034 C1032 1.395 . S
C1034 C1037 1.403 . S
C1035 C1032 1.403 . S
C1035 C1036 1.524 . S
C1035 C1039 1.400 . S
C1036 H1021 0.960 . S
C1036 H1022 0.960 . S
C1036 H1023 0.960 . S
C1036 C1035 1.524 . S
C1037 C1034 1.403 . S
C1037 C1038 1.392 . S
C1037 C1041 1.495 . S
C1038 C1037 1.392 . S
C1038 C1039 1.385 . S
C1038 C1040 1.478 . S
C1039 H1033 0.930 . S
C1039 C1035 1.400 . S
C1039 C1038 1.385 . S
C1040 C1038 1.478 . S
C1040 C1042 1.381 . S
C1040 C1046 1.383 . S
C1041 C1037 1.495 . S
C1041 H1047 0.959 . S
C1041 H1048 0.961 . S
C1041 H1049 0.960 . S
C1042 C1040 1.381 . S
C1042 C1043 1.394 . S
C1042 H1050 0.930 . S
C1043 C1042 1.394 . S
C1043 C1044 1.383 . S
C1043 H1051 0.929 . S
C1044 C1043 1.383 . S
C1044 C1045 1.377 . S
C1045 H1029 0.930 . S
C1045 C1044 1.377 . S
C1045 C1046 1.379 . S
C1046 H1030 0.931 . S
C1046 C1040 1.383 . S
C1046 C1045 1.379 . S
H1047 C1041 0.959 . S
H1048 C1041 0.961 . S
H1049 C1041 0.960 . S
H1050 C1042 0.930 . S
H1051 C1043 0.929 . S
H1052 C1060 0.929 . S
H1053 C1062 0.930 . S
H1054 C1064 0.930 . S
H1055 C1067 0.929 . S
H1056 C1070 0.930 . S
H1057 C1072 0.960 . S
H1058 C1072 0.960 . S
H1059 C1072 0.960 . S
C1060 H1052 0.929 . S
C1060 C1061 1.377 . S
C1060 C1062 1.384 . S
C1061 C1060 1.377 . S
C1061 C1067 1.390 . S
C1062 H1053 0.930 . S
C1062 C1060 1.384 . S
C1062 C1063 1.372 . S
C1063 C1062 1.372 . S
C1063 C1064 1.400 . S
C1063 C1068 1.490 . S
C1064 H1054 0.930 . S
C1064 C1063 1.400 . S
C1064 C1067 1.386 . S
H1065 C1081 0.930 . S
H1066 C1082 0.931 . S
C1067 H1055 0.929 . S
C1067 C1061 1.390 . S
C1067 C1064 1.386 . S
C1068 C1063 1.490 . S
C1068 C1070 1.395 . S
C1068 C1071 1.403 . S
H1069 C1075 0.930 . S
C1070 H1056 0.930 . S
C1070 C1068 1.395 . S
C1070 C1073 1.403 . S
C1071 C1068 1.403 . S
C1071 C1072 1.524 . S
C1071 C1075 1.400 . S
C1072 H1057 0.960 . S
C1072 H1058 0.960 . S
C1072 H1059 0.960 . S
C1072 C1071 1.524 . S
C1073 C1070 1.403 . S
C1073 C1074 1.392 . S
C1073 C1077 1.495 . S
C1074 C1073 1.392 . S
C1074 C1075 1.385 . S
C1074 C1076 1.478 . S
C1075 H1069 0.930 . S
C1075 C1071 1.400 . S
C1075 C1074 1.385 . S
C1076 C1074 1.478 . S
C1076 C1078 1.381 . S
C1076 C1082 1.383 . S
C1077 C1073 1.495 . S
C1077 H1083 0.959 . S
C1077 H1084 0.961 . S
C1077 H1085 0.960 . S
C1078 C1076 1.381 . S
C1078 C1079 1.394 . S
C1078 H1086 0.930 . S
C1079 C1078 1.394 . S
C1079 C1080 1.383 . S
C1079 H1087 0.929 . S
C1080 C1079 1.383 . S
C1080 C1081 1.377 . S
C1081 H1065 0.930 . S
C1081 C1080 1.377 . S
C1081 C1082 1.379 . S
C1082 H1066 0.931 . S
C1082 C1076 1.383 . S
C1082 C1081 1.379 . S
H1083 C1077 0.959 . S
H1084 C1077 0.961 . S
H1085 C1077 0.960 . S
H1086 C1078 0.930 . S
H1087 C1079 0.929 . S
H1088 C1096 0.929 . S
H1089 C1098 0.930 . S
H1090 C1100 0.930 . S
H1091 C1103 0.929 . S
H1092 C1106 0.930 . S
H1093 C1108 0.960 . S
H1094 C1108 0.960 . S
H1095 C1108 0.960 . S
C1096 H1088 0.929 . S
C1096 C1097 1.377 . S
C1096 C1098 1.384 . S
C1097 C1096 1.377 . S
C1097 C1103 1.390 . S
C1098 H1089 0.930 . S
C1098 C1096 1.384 . S
C1098 C1099 1.372 . S
C1099 C1098 1.372 . S
C1099 C1100 1.400 . S
C1099 C1104 1.490 . S
C1100 H1090 0.930 . S
C1100 C1099 1.400 . S
C1100 C1103 1.386 . S
H1101 C1117 0.930 . S
H1102 C1118 0.931 . S
C1103 H1091 0.929 . S
C1103 C1097 1.390 . S
C1103 C1100 1.386 . S
C1104 C1099 1.490 . S
C1104 C1106 1.395 . S
C1104 C1107 1.403 . S
H1105 C1111 0.930 . S
C1106 H1092 0.930 . S
C1106 C1104 1.395 . S
C1106 C1109 1.403 . S
C1107 C1104 1.403 . S
C1107 C1108 1.524 . S
C1107 C1111 1.400 . S
C1108 H1093 0.960 . S
C1108 H1094 0.960 . S
C1108 H1095 0.960 . S
C1108 C1107 1.524 . S
C1109 C1106 1.403 . S
C1109 C1110 1.392 . S
C1109 C1113 1.495 . S
C1110 C1109 1.392 . S
C1110 C1111 1.385 . S
C1110 C1112 1.478 . S
C1111 H1105 0.930 . S
C1111 C1107 1.400 . S
C1111 C1110 1.385 . S
C1112 C1110 1.478 . S
C1112 C1114 1.381 . S
C1112 C1118 1.383 . S
C1113 C1109 1.495 . S
C1113 H1119 0.959 . S
C1113 H1120 0.961 . S
C1113 H1121 0.960 . S
C1114 C1112 1.381 . S
C1114 C1115 1.394 . S
C1114 H1122 0.930 . S
C1115 C1114 1.394 . S
C1115 C1116 1.383 . S
C1115 H1123 0.929 . S
C1116 C1115 1.383 . S
C1116 C1117 1.377 . S
C1117 H1101 0.930 . S
C1117 C1116 1.377 . S
C1117 C1118 1.379 . S
C1118 H1102 0.931 . S
C1118 C1112 1.383 . S
C1118 C1117 1.379 . S
H1119 C1113 0.959 . S
H1120 C1113 0.961 . S
H1121 C1113 0.960 . S
H1122 C1114 0.930 . S
H1123 C1115 0.929 . S
H1124 C1132 0.929 . S
H1125 C1134 0.930 . S
H1126 C1136 0.930 . S
H1127 C1139 0.929 . S
H1128 C1142 0.930 . S
H1129 C1144 0.960 . S
H1130 C1144 0.960 . S
H1131 C1144 0.960 . S
C1132 H1124 0.929 . S
C1132 C1133 1.377 . S
C1132 C1134 1.384 . S
C1133 C1132 1.377 . S
C1133 C1139 1.390 . S
C1134 H1125 0.930 . S
C1134 C1132 1.384 . S
C1134 C1135 1.372 . S
C1135 C1134 1.372 . S
C1135 C1136 1.400 . S
C1135 C1140 1.490 . S
C1136 H1126 0.930 . S
C1136 C1135 1.400 . S
C1136 C1139 1.386 . S
H1137 C1153 0.930 . S
H1138 C1154 0.931 . S
C1139 H1127 0.929 . S
C1139 C1133 1.390 . S
C1139 C1136 1.386 . S
C1140 C1135 1.490 . S
C1140 C1142 1.395 . S
C1140 C1143 1.403 . S
H1141 C1147 0.930 . S
C1142 H1128 0.930 . S
C1142 C1140 1.395 . S
C1142 C1145 1.403 . S
C1143 C1140 1.403 . S
C1143 C1144 1.524 . S
C1143 C1147 1.400 . S
C1144 H1129 0.960 . S
C1144 H1130 0.960 . S
C1144 H1131 0.960 . S
C1144 C1143 1.524 . S
C1145 C1142 1.403 . S
C1145 C1146 1.392 . S
C1145 C1149 1.495 . S
C1146 C1145 1.392 . S
C1146 C1147 1.385 . S
C1146 C1148 1.478 . S
C1147 H1141 0.930 . S
C1147 C1143 1.400 . S
C1147 C1146 1.385 . S
C1148 C1146 1.478 . S
C1148 C1150 1.381 . S
C1148 C1154 1.383 . S
C1149 C1145 1.495 . S
C1149 H1155 0.959 . S
C1149 H1156 0.961 . S
C1149 H1157 0.960 . S
C1150 C1148 1.381 . S
C1150 C1151 1.394 . S
C1150 H1158 0.930 . S
C1151 C1150 1.394 . S
C1151 C1152 1.383 . S
C1151 H1159 0.929 1_655 S
C1152 C1151 1.383 . S
C1152 C1153 1.377 . S
C1153 H1137 0.930 . S
C1153 C1152 1.377 . S
C1153 C1154 1.379 . S
C1154 H1138 0.931 . S
C1154 C1148 1.383 . S
C1154 C1153 1.379 . S
H1155 C1149 0.959 . S
H1156 C1149 0.961 . S
H1157 C1149 0.960 . S
H1158 C1150 0.930 . S
H1159 C1151 0.929 1_455 S
H1160 C1168 0.929 . S
H1161 C1170 0.930 . S
H1162 C1172 0.930 . S
H1163 C1175 0.929 . S
H1164 C1178 0.930 . S
H1165 C1180 0.960 . S
H1166 C1180 0.960 . S
H1167 C1180 0.960 . S
C1168 H1160 0.929 . S
C1168 C1169 1.377 . S
C1168 C1170 1.384 . S
C1169 C1168 1.377 . S
C1169 C1175 1.390 . S
C1170 H1161 0.930 . S
C1170 C1168 1.384 . S
C1170 C1171 1.372 . S
C1171 C1170 1.372 . S
C1171 C1172 1.400 . S
C1171 C1176 1.490 . S
C1172 H1162 0.930 . S
C1172 C1171 1.400 . S
C1172 C1175 1.386 . S
H1173 C1189 0.930 . S
H1174 C1190 0.931 . S
C1175 H1163 0.929 . S
C1175 C1169 1.390 . S
C1175 C1172 1.386 . S
C1176 C1171 1.490 . S
C1176 C1178 1.395 . S
C1176 C1179 1.403 . S
H1177 C1183 0.930 . S
C1178 H1164 0.930 . S
C1178 C1176 1.395 . S
C1178 C1181 1.403 . S
C1179 C1176 1.403 . S
C1179 C1180 1.524 . S
C1179 C1183 1.400 . S
C1180 H1165 0.960 . S
C1180 H1166 0.960 . S
C1180 H1167 0.960 . S
C1180 C1179 1.524 . S
C1181 C1178 1.403 . S
C1181 C1182 1.392 . S
C1181 C1185 1.495 . S
C1182 C1181 1.392 . S
C1182 C1183 1.385 . S
C1182 C1184 1.478 . S
C1183 H1177 0.930 . S
C1183 C1179 1.400 . S
C1183 C1182 1.385 . S
C1184 C1182 1.478 . S
C1184 C1186 1.381 . S
C1184 C1190 1.383 . S
C1185 C1181 1.495 . S
C1185 H1191 0.959 . S
C1185 H1192 0.961 . S
C1185 H1193 0.960 . S
C1186 C1184 1.381 . S
C1186 C1187 1.394 . S
C1186 H1194 0.930 . S
C1187 C1186 1.394 . S
C1187 C1188 1.383 . S
C1187 H1195 0.929 . S
C1188 C1187 1.383 . S
C1188 C1189 1.377 . S
C1189 H1173 0.930 . S
C1189 C1188 1.377 . S
C1189 C1190 1.379 . S
C1190 H1174 0.931 . S
C1190 C1184 1.383 . S
C1190 C1189 1.379 . S
H1191 C1185 0.959 . S
H1192 C1185 0.961 . S
H1193 C1185 0.960 . S
H1194 C1186 0.930 . S
H1195 C1187 0.929 . S
H1196 C1204 0.929 . S
H1197 C1206 0.930 . S
H1198 C1208 0.930 . S
H1199 C1211 0.929 . S
H1200 C1214 0.930 . S
H1201 C1216 0.960 . S
H1202 C1216 0.960 . S
H1203 C1216 0.960 . S
C1204 H1196 0.929 . S
C1204 C1205 1.377 . S
C1204 C1206 1.384 . S
C1205 C1204 1.377 . S
C1205 C1211 1.390 . S
C1206 H1197 0.930 . S
C1206 C1204 1.384 . S
C1206 C1207 1.372 . S
C1207 C1206 1.372 . S
C1207 C1208 1.400 . S
C1207 C1212 1.490 . S
C1208 H1198 0.930 . S
C1208 C1207 1.400 . S
C1208 C1211 1.386 . S
H1209 C1225 0.930 . S
H1210 C1226 0.931 . S
C1211 H1199 0.929 . S
C1211 C1205 1.390 . S
C1211 C1208 1.386 . S
C1212 C1207 1.490 . S
C1212 C1214 1.395 . S
C1212 C1215 1.403 . S
H1213 C1219 0.930 . S
C1214 H1200 0.930 . S
C1214 C1212 1.395 . S
C1214 C1217 1.403 . S
C1215 C1212 1.403 . S
C1215 C1216 1.524 . S
C1215 C1219 1.400 . S
C1216 H1201 0.960 . S
C1216 H1202 0.960 . S
C1216 H1203 0.960 . S
C1216 C1215 1.524 . S
C1217 C1214 1.403 . S
C1217 C1218 1.392 . S
C1217 C1221 1.495 . S
C1218 C1217 1.392 . S
C1218 C1219 1.385 . S
C1218 C1220 1.478 . S
C1219 H1213 0.930 . S
C1219 C1215 1.400 . S
C1219 C1218 1.385 . S
C1220 C1218 1.478 . S
C1220 C1222 1.381 . S
C1220 C1226 1.383 . S
C1221 C1217 1.495 . S
C1221 H1227 0.959 . S
C1221 H1228 0.961 . S
C1221 H1229 0.960 . S
C1222 C1220 1.381 . S
C1222 C1223 1.394 . S
C1222 H1230 0.930 . S
C1223 C1222 1.394 . S
C1223 C1224 1.383 . S
C1223 H1231 0.929 . S
C1224 C1223 1.383 . S
C1224 C1225 1.377 . S
C1225 H1209 0.930 . S
C1225 C1224 1.377 . S
C1225 C1226 1.379 . S
C1226 H1210 0.931 . S
C1226 C1220 1.383 . S
C1226 C1225 1.379 . S
H1227 C1221 0.959 . S
H1228 C1221 0.961 . S
H1229 C1221 0.960 . S
H1230 C1222 0.930 . S
H1231 C1223 0.929 . S
H1232 C1240 0.929 . S
H1233 C1242 0.930 . S
H1234 C1244 0.930 . S
H1235 C1247 0.929 . S
H1236 C1250 0.930 . S
H1237 C1252 0.960 . S
H1238 C1252 0.960 . S
H1239 C1252 0.960 . S
C1240 H1232 0.929 . S
C1240 C1241 1.377 . S
C1240 C1242 1.384 . S
C1241 C1240 1.377 . S
C1241 C1247 1.390 . S
C1242 H1233 0.930 . S
C1242 C1240 1.384 . S
C1242 C1243 1.372 . S
C1243 C1242 1.372 . S
C1243 C1244 1.400 . S
C1243 C1248 1.490 . S
C1244 H1234 0.930 . S
C1244 C1243 1.400 . S
C1244 C1247 1.386 . S
H1245 C1261 0.930 . S
H1246 C1262 0.931 . S
C1247 H1235 0.929 . S
C1247 C1241 1.390 . S
C1247 C1244 1.386 . S
C1248 C1243 1.490 . S
C1248 C1250 1.395 . S
C1248 C1251 1.403 . S
H1249 C1255 0.930 . S
C1250 H1236 0.930 . S
C1250 C1248 1.395 . S
C1250 C1253 1.403 . S
C1251 C1248 1.403 . S
C1251 C1252 1.524 . S
C1251 C1255 1.400 . S
C1252 H1237 0.960 . S
C1252 H1238 0.960 . S
C1252 H1239 0.960 . S
C1252 C1251 1.524 . S
C1253 C1250 1.403 . S
C1253 C1254 1.392 . S
C1253 C1257 1.495 . S
C1254 C1253 1.392 . S
C1254 C1255 1.385 . S
C1254 C1256 1.478 . S
C1255 H1249 0.930 . S
C1255 C1251 1.400 . S
C1255 C1254 1.385 . S
C1256 C1254 1.478 . S
C1256 C1258 1.381 . S
C1256 C1262 1.383 . S
C1257 C1253 1.495 . S
C1257 H1263 0.959 . S
C1257 H1264 0.961 . S
C1257 H1265 0.960 . S
C1258 C1256 1.381 . S
C1258 C1259 1.394 . S
C1258 H1266 0.930 . S
C1259 C1258 1.394 . S
C1259 C1260 1.383 . S
C1259 H1267 0.929 . S
C1260 C1259 1.383 . S
C1260 C1261 1.377 . S
C1261 H1245 0.930 . S
C1261 C1260 1.377 . S
C1261 C1262 1.379 . S
C1262 H1246 0.931 . S
C1262 C1256 1.383 . S
C1262 C1261 1.379 . S
H1263 C1257 0.959 . S
H1264 C1257 0.961 . S
H1265 C1257 0.960 . S
H1266 C1258 0.930 . S
H1267 C1259 0.929 . S
H1268 C1276 0.929 . S
H1269 C1278 0.930 . S
H1270 C1280 0.930 . S
H1271 C1283 0.929 . S
H1272 C1286 0.930 . S
H1273 C1288 0.960 . S
H1274 C1288 0.960 . S
H1275 C1288 0.960 . S
C1276 H1268 0.929 . S
C1276 C1277 1.377 . S
C1276 C1278 1.384 . S
C1277 C1276 1.377 . S
C1277 C1283 1.390 . S
C1278 H1269 0.930 . S
C1278 C1276 1.384 . S
C1278 C1279 1.372 . S
C1279 C1278 1.372 . S
C1279 C1280 1.400 . S
C1279 C1284 1.490 . S
C1280 H1270 0.930 . S
C1280 C1279 1.400 . S
C1280 C1283 1.386 . S
H1281 C1297 0.930 . S
H1282 C1298 0.931 . S
C1283 H1271 0.929 . S
C1283 C1277 1.390 . S
C1283 C1280 1.386 . S
C1284 C1279 1.490 . S
C1284 C1286 1.395 . S
C1284 C1287 1.403 . S
H1285 C1291 0.930 . S
C1286 H1272 0.930 . S
C1286 C1284 1.395 . S
C1286 C1289 1.403 . S
C1287 C1284 1.403 . S
C1287 C1288 1.524 . S
C1287 C1291 1.400 . S
C1288 H1273 0.960 . S
C1288 H1274 0.960 . S
C1288 H1275 0.960 . S
C1288 C1287 1.524 . S
C1289 C1286 1.403 . S
C1289 C1290 1.392 . S
C1289 C1293 1.495 . S
C1290 C1289 1.392 . S
C1290 C1291 1.385 . S
C1290 C1292 1.478 . S
C1291 H1285 0.930 . S
C1291 C1287 1.400 . S
C1291 C1290 1.385 . S
C1292 C1290 1.478 . S
C1292 C1294 1.381 . S
C1292 C1298 1.383 . S
C1293 C1289 1.495 . S
C1293 H1299 0.959 . S
C1293 H1300 0.961 . S
C1293 H1301 0.960 . S
C1294 C1292 1.381 . S
C1294 C1295 1.394 . S
C1294 H1302 0.930 . S
C1295 C1294 1.394 . S
C1295 C1296 1.383 . S
C1295 H1303 0.929 . S
C1296 C1295 1.383 . S
C1296 C1297 1.377 . S
C1297 H1281 0.930 . S
C1297 C1296 1.377 . S
C1297 C1298 1.379 . S
C1298 H1282 0.931 . S
C1298 C1292 1.383 . S
C1298 C1297 1.379 . S
H1299 C1293 0.959 . S
H1300 C1293 0.961 . S
H1301 C1293 0.960 . S
H1302 C1294 0.930 . S
H1303 C1295 0.929 . S
C449 C86 1.638 . S
C468 C178 1.618 . S
C504 C262 1.689 . S
C485 C100 1.723 . S
C540 C255 1.620 . S
C521 C60 1.630 . S
C557 C74 1.709 . S
C576 C171 1.703 . S
C612 C335 1.688 . S
C593 C35 1.720 . S
C648 C419 1.605 . S
C629 C47 1.640 . S
C665 C9 1.708 . S
C684 C412 1.712 . S
C701 C21 1.632 . S
C720 C328 1.620 . S
C756 C162 1.414 . S
C737 C22 1.597 . S
C792 C246 1.446 . S
C773 C8 1.614 . S
C828 C257 1.386 . S
C809 C48 1.607 . S
C864 C173 1.429 . S
C845 C34 1.624 . S
C900 C341 1.435 . S
C881 C73 1.618 . S
C917 C61 1.600 . S
C936 C425 1.406 . S
C972 C414 1.445 . S
C953 C99 1.628 . S
C989 C87 1.610 . S
C1008 C330 1.389 . S
C1044 C160 1.632 . S
C1025 C4 1.548 . S
C1080 C244 1.507 . S
C1061 C17 1.495 . S
C1097 C30 1.544 . S
C1116 C251 1.621 . S
C1152 C167 1.459 . S
C1133 C43 1.480 . S
C1188 C339 1.503 . S
C1169 C56 1.468 . S
C1205 C69 1.573 . S
C1224 C423 1.639 . S
C1241 C82 1.457 . S
C1260 C430 1.462 . S
C1277 C95 1.574 . S
C1296 C346 1.615 . S
