# Generated by pormake.
# Topology pyr, (3,6)-cn, num edge types: 1
# Building blocks:
#     Node 0, Type 0, BuildingBlock: BETDIP_clean_linker_0, # of connection points: 3
#     Node 1, Type 0, BuildingBlock: BETDIP_clean_linker_0, # of connection points: 3
#     Node 2, Type 0, BuildingBlock: BETDIP_clean_linker_0, # of connection points: 3
#     Node 3, Type 0, BuildingBlock: BETDIP_clean_linker_0, # of connection points: 3
#     Node 4, Type 0, BuildingBlock: BETDIP_clean_linker_0, # of connection points: 3
#     Node 5, Type 0, BuildingBlock: BETDIP_clean_linker_0, # of connection points: 3
#     Node 6, Type 0, BuildingBlock: BETDIP_clean_linker_0, # of connection points: 3
#     Node 7, Type 0, BuildingBlock: BETDIP_clean_linker_0, # of connection points: 3
#     Node 8, Type 1, BuildingBlock: VOLQOD_clean_sbu_1, # of connection points: 6
#     Node 9, Type 1, BuildingBlock: VOLQOD_clean_sbu_1, # of connection points: 6
#     Node 10, Type 1, BuildingBlock: VOLQOD_clean_sbu_1, # of connection points: 6
#     Node 11, Type 1, BuildingBlock: VOLQOD_clean_sbu_1, # of connection points: 6
#     Edge 12, Type (0, 1), BuildingBlock: CIFDUS_clean_linker_0, # of connection points: 2
#     Edge 13, Type (0, 1), BuildingBlock: CIFDUS_clean_linker_0, # of connection points: 2
#     Edge 14, Type (0, 1), BuildingBlock: CIFDUS_clean_linker_0, # of connection points: 2
#     Edge 15, Type (0, 1), BuildingBlock: CIFDUS_clean_linker_0, # of connection points: 2
#     Edge 16, Type (0, 1), BuildingBlock: CIFDUS_clean_linker_0, # of connection points: 2
#     Edge 17, Type (0, 1), BuildingBlock: CIFDUS_clean_linker_0, # of connection points: 2
#     Edge 18, Type (0, 1), BuildingBlock: CIFDUS_clean_linker_0, # of connection points: 2
#     Edge 19, Type (0, 1), BuildingBlock: CIFDUS_clean_linker_0, # of connection points: 2
#     Edge 20, Type (0, 1), BuildingBlock: CIFDUS_clean_linker_0, # of connection points: 2
#     Edge 21, Type (0, 1), BuildingBlock: CIFDUS_clean_linker_0, # of connection points: 2
#     Edge 22, Type (0, 1), BuildingBlock: CIFDUS_clean_linker_0, # of connection points: 2
#     Edge 23, Type (0, 1), BuildingBlock: CIFDUS_clean_linker_0, # of connection points: 2
#     Edge 24, Type (0, 1), BuildingBlock: CIFDUS_clean_linker_0, # of connection points: 2
#     Edge 25, Type (0, 1), BuildingBlock: CIFDUS_clean_linker_0, # of connection points: 2
#     Edge 26, Type (0, 1), BuildingBlock: CIFDUS_clean_linker_0, # of connection points: 2
#     Edge 27, Type (0, 1), BuildingBlock: CIFDUS_clean_linker_0, # of connection points: 2
#     Edge 28, Type (0, 1), BuildingBlock: CIFDUS_clean_linker_0, # of connection points: 2
#     Edge 29, Type (0, 1), BuildingBlock: CIFDUS_clean_linker_0, # of connection points: 2
#     Edge 30, Type (0, 1), BuildingBlock: CIFDUS_clean_linker_0, # of connection points: 2
#     Edge 31, Type (0, 1), BuildingBlock: CIFDUS_clean_linker_0, # of connection points: 2
#     Edge 32, Type (0, 1), BuildingBlock: CIFDUS_clean_linker_0, # of connection points: 2
#     Edge 33, Type (0, 1), BuildingBlock: CIFDUS_clean_linker_0, # of connection points: 2
#     Edge 34, Type (0, 1), BuildingBlock: CIFDUS_clean_linker_0, # of connection points: 2
#     Edge 35, Type (0, 1), BuildingBlock: CIFDUS_clean_linker_0, # of connection points: 2
# Relax obj value: 0.108
# Max RMSD: 0.183
# Mean RMSD: 0.149
data_MOF--net-pry--node1-VOLQOD_clean_sbu_1--node2-BETDIP_clean_linker_0--edge1-CIFDUS_clean_linker_0
_symmetry_space_group_name_H-M    P1
_symmetry_Int_Tables_number       1
_symmetry_cell_setting            triclinic
loop_
_symmetry_equiv_pos_as_xyz
'x, y, z'
_cell_length_a     32.359154
_cell_length_b     31.830934
_cell_length_c     33.767439
_cell_angle_alpha  93.112365
_cell_angle_beta   85.599239
_cell_angle_gamma 95.683926
loop_
_atom_site_label
_atom_site_type_symbol
_atom_site_fract_x
_atom_site_fract_y
_atom_site_fract_z
_atom_type_partial_charge
H0 H 0.08287 0.1687 0.19485 0.0
H1 H 0.17023 0.15579 0.09344 0.0
H2 H 0.16578 0.07058 0.18847 0.0
H3 H 0.16349 0.22271 0.08801 0.0
C4 C 0.13112 0.2271 0.09647 0.0
C5 C 0.10739 0.15231 0.17897 0.0
C6 C 0.12222 0.11776 0.19583 0.0
C7 C 0.12445 0.16643 0.14207 0.0
C8 C 0.15671 0.14529 0.12185 0.0
C9 C 0.17247 0.11101 0.13843 0.0
C10 C 0.15431 0.09702 0.17521 0.0
N11 N 0.10888 0.20202 0.12626 0.0
H12 H 0.35229 0.90792 0.71697 0.0
H13 H 0.36575 0.83021 0.61069 0.0
H14 H 0.45713 0.83421 0.69771 0.0
H15 H 0.33858 0.89407 0.58605 0.0
C16 C 0.31318 0.89434 0.60905 0.0
C17 C 0.37056 0.88664 0.69852 0.0
C18 C 0.40644 0.87261 0.71225 0.0
C19 C 0.3573 0.87308 0.6612 0.0
C20 C 0.37849 0.84292 0.63801 0.0
C21 C 0.41408 0.82734 0.65138 0.0
C22 C 0.4286 0.84389 0.68791 0.0
N23 N 0.32063 0.88808 0.6491 0.0
H24 H 0.65796 0.45436 0.89407 0.0
H25 H 0.57799 0.33854 0.8857 0.0
H26 H 0.66521 0.35656 0.97574 0.0
H27 H 0.53947 0.37563 0.85176 0.0
C28 C 0.56178 0.39731 0.83558 0.0
C29 C 0.64692 0.42375 0.90541 0.0
C30 C 0.66561 0.40856 0.93743 0.0
C31 C 0.61451 0.39934 0.88717 0.0
C32 C 0.601 0.35895 0.90093 0.0
C33 C 0.61906 0.34347 0.93303 0.0
C34 C 0.65077 0.36878 0.95141 0.0
N35 N 0.59859 0.41489 0.8532 0.0
H36 H 0.87771 0.52062 0.41576 0.0
H37 H 0.97459 0.61839 0.38457 0.0
H38 H 0.87554 0.64535 0.47088 0.0
H39 H 0.00644 0.56601 0.35245 0.0
C40 C 0.98016 0.54553 0.34217 0.0
C41 C 0.89241 0.55243 0.42053 0.0
C42 C 0.87275 0.5813 0.44664 0.0
C43 C 0.92935 0.56503 0.39828 0.0
C44 C 0.947 0.60722 0.40254 0.0
C45 C 0.92819 0.63593 0.42944 0.0
C46 C 0.89143 0.62257 0.45182 0.0
N47 N 0.94481 0.53599 0.36868 0.0
H48 H 0.85709 0.91751 0.94986 0.0
H49 H 0.93938 0.91848 0.84354 0.0
H50 H 0.83061 0.98573 0.84958 0.0
H51 H 0.97668 0.8804 0.87292 0.0
C52 C 0.95933 0.86655 0.89849 0.0
C53 C 0.86589 0.92852 0.92029 0.0
C54 C 0.8402 0.95413 0.90258 0.0
C55 C 0.90152 0.91477 0.89926 0.0
C56 C 0.912 0.92819 0.86036 0.0
C57 C 0.88674 0.95388 0.84213 0.0
C58 C 0.85091 0.96679 0.86358 0.0
N59 N 0.92376 0.8848 0.9168 0.0
H60 H 0.63968 0.07081 0.3428 0.0
H61 H 0.63137 0.15623 0.44559 0.0
H62 H 0.56794 0.17736 0.34226 0.0
H63 H 0.65572 0.10529 0.47687 0.0
C64 C 0.67533 0.0892 0.45464 0.0
C65 C 0.62726 0.09825 0.35795 0.0
C66 C 0.60267 0.12284 0.33793 0.0
C67 C 0.6374 0.10954 0.39689 0.0
C68 C 0.62234 0.14593 0.4162 0.0
C69 C 0.59717 0.17068 0.39677 0.0
C70 C 0.58754 0.15881 0.35755 0.0
N71 N 0.66535 0.08537 0.41428 0.0
H72 H 0.34339 0.55185 0.1453 0.0
H73 H 0.4377 0.65721 0.14749 0.0
H74 H 0.33526 0.65898 0.0747 0.0
H75 H 0.42276 0.64326 0.2149 0.0
C76 C 0.42654 0.60962 0.21322 0.0
C77 C 0.35675 0.58186 0.1341 0.0
C78 C 0.33598 0.60214 0.10661 0.0
C79 C 0.39321 0.60174 0.14932 0.0
C80 C 0.40978 0.64131 0.13569 0.0
C81 C 0.38874 0.66189 0.109 0.0
C82 C 0.35229 0.64208 0.09417 0.0
N83 N 0.41027 0.58386 0.18128 0.0
H84 H 0.07019 0.35319 0.61543 0.0
H85 H 0.15883 0.46133 0.60053 0.0
H86 H 0.16259 0.35613 0.51619 0.0
H87 H 0.16128 0.44117 0.66758 0.0
C88 C 0.12832 0.44238 0.67619 0.0
C89 C 0.09469 0.37005 0.59715 0.0
C90 C 0.11328 0.3498 0.5632 0.0
C91 C 0.11117 0.41011 0.61069 0.0
C92 C 0.14497 0.43115 0.58906 0.0
C93 C 0.16417 0.41124 0.55565 0.0
C94 C 0.1472 0.37144 0.5419 0.0
N95 N 0.09842 0.42551 0.64942 0.0
O96 O 0.98918 0.0897 0.5439 0.0
Zn97 Zn 0.96508 0.02885 0.53982 0.0
O98 O 0.00342 0.9946 0.50697 0.0
Zn99 Zn 0.97737 0.96837 0.45956 0.0
Zn100 Zn 0.05461 0.02883 0.48995 0.0
Zn101 Zn 0.01789 0.95126 0.53985 0.0
O102 O 0.97423 0.90406 0.4594 0.0
O103 O 0.00082 0.89452 0.51658 0.0
O104 O 0.91102 0.02718 0.51401 0.0
O105 O 0.91875 0.98581 0.45922 0.0
O106 O 0.00886 0.98851 0.40844 0.0
O107 O 0.05979 0.03369 0.43042 0.0
O108 O 0.10666 0.00553 0.50701 0.0
O109 O 0.95197 0.00836 0.59622 0.0
O110 O 0.07891 0.95426 0.54548 0.0
O111 O 0.98936 0.95358 0.5941 0.0
C112 C 0.02455 0.108 0.53247 0.0
C113 C 0.98445 0.8798 0.48512 0.0
C114 C 0.04011 0.01558 0.40197 0.0
C115 C 0.89688 0.0092 0.48253 0.0
C116 C 0.11056 0.97619 0.53032 0.0
C117 C 0.96426 0.97721 0.61273 0.0
O118 O 0.05226 0.08785 0.51308 0.0
O119 O 0.48651 0.09578 0.98982 0.0
Zn120 Zn 0.46041 0.03647 0.99847 0.0
O121 O 0.49905 0.00501 0.02504 0.0
Zn122 Zn 0.51428 0.95722 0.99064 0.0
Zn123 Zn 0.5504 0.04025 0.03675 0.0
Zn124 Zn 0.47129 0.98426 0.07435 0.0
O125 O 0.50018 0.90233 0.01696 0.0
O126 O 0.46393 0.92088 0.07259 0.0
O127 O 0.44793 0.00916 0.94426 0.0
O128 O 0.48439 0.95343 0.94095 0.0
O129 O 0.57491 0.96219 0.97365 0.0
O130 O 0.60246 0.01709 0.00921 0.0
O131 O 0.5568 0.04707 0.09613 0.0
O132 O 0.40578 0.04077 0.03197 0.0
O133 O 0.50442 0.00352 0.12094 0.0
O134 O 0.41512 0.00625 0.08549 0.0
C135 C 0.52132 0.11529 0.99812 0.0
C136 C 0.47858 0.89273 0.04879 0.0
C137 C 0.60635 0.98645 0.9837 0.0
C138 C 0.45978 0.97588 0.92591 0.0
C139 C 0.53658 0.02922 0.12555 0.0
C140 C 0.39294 0.0277 0.06621 0.0
O141 O 0.54784 0.0976 0.01587 0.0
O142 O 0.56205 0.50858 0.60205 0.0
Zn143 Zn 0.55725 0.53958 0.55254 0.0
O144 O 0.51814 0.50695 0.51841 0.0
Zn145 Zn 0.54375 0.49576 0.46549 0.0
Zn146 Zn 0.49924 0.45243 0.54137 0.0
Zn147 Zn 0.47182 0.53998 0.5124 0.0
O148 O 0.51727 0.52195 0.42208 0.0
O149 O 0.47041 0.55792 0.45676 0.0
O150 O 0.61465 0.54753 0.52378 0.0
O151 O 0.60314 0.51804 0.46395 0.0
O152 O 0.54403 0.43408 0.45204 0.0
O153 O 0.52067 0.40288 0.50757 0.0
O154 O 0.43664 0.44407 0.54302 0.0
O155 O 0.53678 0.59633 0.57159 0.0
O156 O 0.41797 0.50518 0.52478 0.0
O157 O 0.475 0.59345 0.54638 0.0
C158 C 0.54415 0.47477 0.61653 0.0
C159 C 0.48914 0.54729 0.42386 0.0
C160 C 0.53603 0.40093 0.47166 0.0
C161 C 0.62756 0.53692 0.48834 0.0
C162 C 0.40869 0.46753 0.53566 0.0
C163 C 0.50294 0.61239 0.56715 0.0
O164 O 0.5181 0.45059 0.59724 0.0
O165 O 0.96308 0.51987 0.09092 0.0
Zn166 Zn 0.96627 0.49465 0.03411 0.0
O167 O 0.00615 0.53053 0.99982 0.0
Zn168 Zn 0.9795 0.54982 0.95534 0.0
Zn169 Zn 0.0286 0.58047 0.02999 0.0
Zn170 Zn 0.05158 0.4982 0.97843 0.0
O171 O 0.00419 0.52867 0.90261 0.0
O172 O 0.05367 0.49083 0.91917 0.0
O173 O 0.90866 0.48798 0.01155 0.0
O174 O 0.92029 0.52665 0.95815 0.0
O175 O 0.98174 0.61331 0.95521 0.0
O176 O 0.0127 0.63519 0.0101 0.0
O177 O 0.09089 0.5821 0.03079 0.0
O178 O 0.98721 0.43662 0.03928 0.0
O179 O 0.10689 0.52612 0.99254 0.0
O180 O 0.04672 0.44133 0.00182 0.0
C181 C 0.98268 0.55239 0.10696 0.0
C182 C 0.03324 0.50516 0.89303 0.0
C183 C 0.99485 0.64288 0.97932 0.0
C184 C 0.89606 0.50295 0.98069 0.0
C185 C 0.11748 0.5586 0.01429 0.0
C186 C 0.02041 0.42089 0.02531 0.0
O187 O 0.00782 0.57724 0.08644 0.0
H188 H 0.08809 0.04031 0.21865 0.0
H189 H 0.12195 0.16733 0.2637 0.0
H190 H 0.10069 0.14667 0.33156 0.0
H191 H 0.07357 0.09224 0.3782 0.0
H192 H 0.03462 0.96632 0.33327 0.0
H193 H 0.05671 0.98657 0.26531 0.0
C194 C 0.09056 0.06337 0.24342 0.0
C195 C 0.10657 0.10524 0.23636 0.0
C196 C 0.07756 0.05138 0.2823 0.0
C197 C 0.10943 0.13502 0.2685 0.0
C198 C 0.09748 0.12316 0.30727 0.0
C199 C 0.07006 0.0692 0.35352 0.0
C200 C 0.05297 0.0277 0.36075 0.0
C201 C 0.08175 0.0814 0.31455 0.0
C202 C 0.0478 -0.00158 0.32844 0.0
C203 C 0.06046 0.00999 0.28961 0.0
H204 H 0.40206 0.95017 0.75104 0.0
H205 H 0.4393 0.82548 0.76536 0.0
H206 H 0.45918 0.84676 0.83205 0.0
H207 H 0.465 0.89989 0.88671 0.0
H208 H 0.42396 0.02328 0.87483 0.0
H209 H 0.40519 0.00272 0.80716 0.0
C210 C 0.41408 0.92742 0.76881 0.0
C211 C 0.41941 0.8863 0.75276 0.0
C212 C 0.42436 0.93943 0.80777 0.0
C213 C 0.43571 0.85762 0.77629 0.0
C214 C 0.44669 0.86959 0.81472 0.0
C215 C 0.45191 0.92238 0.8694 0.0
C216 C 0.44606 0.96315 0.8858 0.0
C217 C 0.44106 0.91033 0.83075 0.0
C218 C 0.42868 0.99166 0.86301 0.0
C219 C 0.41812 0.97998 0.82425 0.0
H220 H 0.60624 0.45399 0.78671 0.0
H221 H 0.49789 0.36344 0.79343 0.0
H222 H 0.48313 0.37822 0.72584 0.0
H223 H 0.50095 0.41711 0.66489 0.0
H224 H 0.60852 0.50898 0.65921 0.0
H225 H 0.62364 0.49332 0.72617 0.0
C226 C 0.57939 0.43751 0.77341 0.0
C227 C 0.55316 0.40762 0.79496 0.0
C228 C 0.57099 0.44633 0.73465 0.0
C229 C 0.51846 0.38664 0.77735 0.0
C230 C 0.51005 0.39501 0.73871 0.0
C231 C 0.52781 0.43356 0.67821 0.0
C232 C 0.55355 0.46412 0.65691 0.0
C233 C 0.53613 0.42478 0.71704 0.0
C234 C 0.58805 0.48537 0.67486 0.0
C235 C 0.59679 0.47645 0.71322 0.0
H236 H 0.01495 0.59694 0.28631 0.0
H237 H 0.93444 0.48215 0.30246 0.0
H238 H 0.92561 0.4751 0.23081 0.0
H239 H 0.94248 0.50122 0.16337 0.0
H240 H 0.02012 0.61877 0.14921 0.0
H241 H 0.02753 0.62554 0.22029 0.0
C242 C 0.99573 0.57027 0.27396 0.0
C243 C 0.9759 0.53978 0.29911 0.0
C244 C 0.98983 0.56723 0.23322 0.0
C245 C 0.95025 0.5058 0.28329 0.0
C246 C 0.94508 0.50189 0.24247 0.0
C247 C 0.9605 0.52861 0.17589 0.0
C248 C 0.98097 0.55915 0.15076 0.0
C249 C 0.96477 0.53246 0.2171 0.0
C250 C 0.00415 0.59453 0.16764 0.0
C251 C 0.00867 0.59843 0.20837 0.0
H252 H 0.23739 0.08289 0.17336 0.0
H253 H 0.19169 0.0963 0.05828 0.0
H254 H 0.25573 0.0724 0.02582 0.0
H255 H 0.32602 0.04975 0.03 0.0
H256 H 0.36894 0.03173 0.14523 0.0
H257 H 0.30432 0.05439 0.1775 0.0
C258 C 0.24081 0.07975 0.14118 0.0
C259 C 0.2096 0.09197 0.1185 0.0
C260 C 0.27743 0.06518 0.12259 0.0
C261 C 0.21538 0.08817 0.07672 0.0
C262 C 0.25198 0.07422 0.05802 0.0
C263 C 0.32113 0.05066 0.06216 0.0
C264 C 0.35246 0.03933 0.08511 0.0
C265 C 0.2835 0.06319 0.08065 0.0
C266 C 0.34539 0.0402 0.12677 0.0
C267 C 0.30845 0.05327 0.14531 0.0
H268 H 0.29662 0.93706 0.54566 0.0
H269 H 0.23877 0.88039 0.65182 0.0
H270 H 0.17144 0.90145 0.63686 0.0
H271 H 0.12891 0.93516 0.59367 0.0
H272 H 0.18588 0.99499 0.48873 0.0
H273 H 0.2538 0.97404 0.50338 0.0
C274 C 0.26916 0.92939 0.56538 0.0
C275 C 0.27253 0.90719 0.59969 0.0
C276 C 0.23055 0.94232 0.55695 0.0
C277 C 0.23697 0.89763 0.62531 0.0
C278 C 0.19845 0.90961 0.61676 0.0
C279 C 0.15616 0.9437 0.57394 0.0
C280 C 0.1523 0.96632 0.53999 0.0
C281 C 0.1949 0.93189 0.5827 0.0
C282 C 0.18804 0.97763 0.5151 0.0
C283 C 0.22682 0.96549 0.52337 0.0
H284 H 0.73107 0.44992 0.89611 0.0
H285 H 0.68592 0.41772 0.01525 0.0
H286 H 0.75322 0.44417 0.0397 0.0
H287 H 0.8268 0.47227 0.02619 0.0
H288 H 0.86952 0.50667 0.90691 0.0
H289 H 0.80123 0.48414 0.88394 0.0
C290 C 0.73543 0.44968 0.92762 0.0
C291 C 0.70352 0.43142 0.95363 0.0
C292 C 0.77407 0.46499 0.94151 0.0
C293 C 0.71019 0.4309 0.99435 0.0
C294 C 0.74868 0.44605 0.00841 0.0
C295 C 0.82102 0.47496 0.99526 0.0
C296 C 0.8534 0.49083 0.96837 0.0
C297 C 0.78124 0.46227 0.98207 0.0
C298 C 0.84526 0.4946 0.9284 0.0
C299 C 0.80615 0.48167 0.91509 0.0
H300 H 0.8086 0.54945 0.40529 0.0
H301 H 0.83999 0.59296 0.52328 0.0
H302 H 0.76617 0.5838 0.54703 0.0
H303 H 0.69258 0.56507 0.53318 0.0
H304 H 0.66294 0.52392 0.41366 0.0
H305 H 0.73631 0.53077 0.39158 0.0
C306 C 0.79934 0.55606 0.4364 0.0
C307 C 0.82945 0.57112 0.46272 0.0
C308 C 0.75717 0.55175 0.4494 0.0
C309 C 0.81711 0.5809 0.50267 0.0
C310 C 0.77502 0.5759 0.51613 0.0
C311 C 0.70219 0.55785 0.50229 0.0
C312 C 0.6722 0.54403 0.47521 0.0
C313 C 0.7447 0.5618 0.48958 0.0
C314 C 0.68523 0.53461 0.43526 0.0
C315 C 0.72725 0.53837 0.42252 0.0
H316 H 0.05445 0.25806 0.11373 0.0
H317 H 0.16744 0.27338 0.03717 0.0
H318 H 0.14172 0.33209 0.00621 0.0
H319 H 0.08935 0.38115 0.00286 0.0
H320 H 0.97672 0.36918 0.08025 0.0
H321 H -0.00023 0.30683 0.1084 0.0
C322 C 0.07324 0.27416 0.09014 0.0
C323 C 0.11295 0.26151 0.07784 0.0
C324 C 0.05833 0.30845 0.07255 0.0
C325 C 0.13691 0.28265 0.04725 0.0
C326 C 0.12221 0.31621 0.02948 0.0
C327 C 0.06947 0.36483 0.02563 0.0
C328 C 0.03134 0.38013 0.03942 0.0
C329 C 0.08324 0.32967 0.04217 0.0
C330 C 0.0062 0.35822 0.06895 0.0
C331 C 0.01948 0.32263 0.08523 0.0
H332 H 0.54088 0.30253 0.94139 0.0
H333 H 0.67025 0.28597 0.95279 0.0
H334 H 0.65101 0.21498 0.97546 0.0
H335 H 0.59805 0.15737 0.99128 0.0
H336 H 0.46883 0.1712 0.97655 0.0
H337 H 0.48755 0.24334 0.95535 0.0
C338 C 0.56486 0.28324 0.94853 0.0
C339 C 0.60688 0.29984 0.9459 0.0
C340 C 0.55368 0.24197 0.96085 0.0
C341 C 0.63757 0.27447 0.95548 0.0
C342 C 0.62667 0.2337 0.96815 0.0
C343 C 0.57388 0.17619 0.98366 0.0
C344 C 0.53211 0.15905 0.98573 0.0
C345 C 0.58487 0.21721 0.97104 0.0
C346 C 0.50126 0.18368 0.9752 0.0
C347 C 0.51193 0.22491 0.96311 0.0
H348 H 0.94423 0.68321 0.49596 0.0
H349 H 0.9469 0.68933 0.36864 0.0
H350 H 0.96475 0.766 0.37411 0.0
H351 H 0.97589 0.83187 0.41597 0.0
H352 H 0.97421 0.82384 0.54337 0.0
H353 H 0.95933 0.74754 0.53703 0.0
C354 C 0.94911 0.7014 0.46945 0.0
C355 C 0.94424 0.68099 0.43206 0.0
C356 C 0.95906 0.74516 0.47287 0.0
C357 C 0.9509 0.70455 0.39776 0.0
C358 C 0.96071 0.74834 0.40091 0.0
C359 C 0.97223 0.81332 0.44224 0.0
C360 C 0.9759 0.83351 0.48003 0.0
C361 C 0.96419 0.76911 0.43842 0.0
C362 C 0.97163 0.80909 0.51387 0.0
C363 C 0.96308 0.76541 0.51035 0.0
H364 H 0.45444 0.7649 0.68081 0.0
H365 H 0.41961 0.80928 0.5703 0.0
H366 H 0.44424 0.747 0.53478 0.0
H367 H 0.47229 0.67784 0.53544 0.0
H368 H 0.51469 0.6379 0.64402 0.0
H369 H 0.49188 0.70166 0.67974 0.0
C370 C 0.45316 0.76201 0.64881 0.0
C371 C 0.43416 0.79197 0.62873 0.0
C372 C 0.4689 0.72683 0.62812 0.0
C373 C 0.43255 0.78642 0.58715 0.0
C374 C 0.44708 0.75089 0.56658 0.0
C375 C 0.47697 0.6835 0.56683 0.0
C376 C 0.49472 0.65329 0.5873 0.0
C377 C 0.46458 0.72053 0.58687 0.0
C378 C 0.50117 0.66092 0.62776 0.0
C379 C 0.48791 0.69719 0.64816 0.0
H380 H 0.91411 0.903 0.78062 0.0
H381 H 0.88161 0.02996 0.80859 0.0
H382 H 0.90046 0.04823 0.73956 0.0
H383 H 0.92924 0.02856 0.67152 0.0
H384 H 0.9647 0.90199 0.64646 0.0
H385 H 0.94233 0.88356 0.71413 0.0
C386 C 0.91161 0.93488 0.77188 0.0
C387 C 0.89693 0.96515 0.79998 0.0
C388 C 0.92324 0.94534 0.73254 0.0
C389 C 0.89267 0.00593 0.78759 0.0
C390 C 0.90368 0.01647 0.74815 0.0
C391 C 0.93184 0.99694 0.68089 0.0
C392 C 0.94886 0.96684 0.65389 0.0
C393 C 0.91938 0.9865 0.72037 0.0
C394 C 0.95213 0.92599 0.66659 0.0
C395 C 0.93924 0.91529 0.70533 0.0
H396 H 0.57104 0.04698 0.30739 0.0
H397 H 0.61449 0.17375 0.27503 0.0
H398 H 0.60045 0.15533 0.20568 0.0
H399 H 0.57439 0.10337 0.1545 0.0
H400 H 0.52658 0.97798 0.18806 0.0
H401 H 0.5441 0.99539 0.25651 0.0
C402 C 0.57757 0.07041 0.28502 0.0
C403 C 0.59377 0.11157 0.29611 0.0
C404 C 0.56875 0.05978 0.24545 0.0
C405 C 0.6017 0.14192 0.2671 0.0
C406 C 0.59386 0.13136 0.22749 0.0
C407 C 0.56823 0.07979 0.17676 0.0
C408 C 0.54949 0.0394 0.16626 0.0
C409 C 0.57726 0.09041 0.21633 0.0
C410 C 0.54098 0.00932 0.19549 0.0
C411 C 0.55095 0.01924 0.23461 0.0
H412 H 0.43077 0.6469 0.28568 0.0
H413 H 0.45431 0.53148 0.21875 0.0
H414 H 0.47801 0.50258 0.27804 0.0
H415 H 0.49072 0.51013 0.34944 0.0
H416 H 0.46171 0.624 0.41666 0.0
H417 H 0.44145 0.65369 0.3567 0.0
C418 C 0.44118 0.61543 0.28416 0.0
C419 C 0.44094 0.59129 0.2482 0.0
C420 C 0.45371 0.59886 0.31836 0.0
C421 C 0.45413 0.55049 0.24634 0.0
C422 C 0.46772 0.53406 0.28015 0.0
C423 C 0.48018 0.54152 0.35077 0.0
C424 C 0.47784 0.56499 0.38723 0.0
C425 C 0.4675 0.55794 0.31637 0.0
C426 C 0.46361 0.60535 0.38887 0.0
C427 C 0.45209 0.62236 0.35465 0.0
H428 H 0.05239 0.46246 0.70827 0.0
H429 H 0.17774 0.44853 0.73706 0.0
H430 H 0.15921 0.46587 0.80711 0.0
H431 H 0.1075 0.48455 0.85997 0.0
H432 H 0.98304 0.50282 0.83136 0.0
H433 H 0.00103 0.4843 0.76128 0.0
C434 C 0.0755 0.46318 0.72998 0.0
C435 C 0.11621 0.4539 0.71791 0.0
C436 C 0.06481 0.47393 0.77006 0.0
C437 C 0.14616 0.4555 0.74598 0.0
C438 C 0.1356 0.46533 0.78593 0.0
C439 C 0.08428 0.48432 0.8384 0.0
C440 C 0.04398 0.49465 0.85072 0.0
C441 C 0.09503 0.47447 0.79829 0.0
C442 C 0.01434 0.49496 0.82245 0.0
C443 C 0.02456 0.48431 0.78246 0.0
H444 H 0.76394 0.93991 0.87485 0.0
H445 H 0.82708 0.99085 0.97714 0.0
H446 H 0.76039 0.00724 0.01124 0.0
H447 H 0.68352 0.00604 0.01187 0.0
H448 H 0.62144 0.95064 0.91018 0.0
H449 H 0.68814 0.93732 0.8759 0.0
C450 C 0.76306 0.95493 0.90449 0.0
C451 C 0.80022 0.96459 0.92337 0.0
C452 C 0.72474 0.96339 0.92402 0.0
C453 C 0.79873 0.98322 0.96208 0.0
C454 C 0.76067 0.99261 0.98149 0.0
C455 C 0.68474 0.99124 0.98217 0.0
C456 C 0.64756 0.97939 0.96363 0.0
C457 C 0.72338 0.98274 0.96277 0.0
C458 C 0.64955 0.95983 0.92526 0.0
C459 C 0.6877 0.95226 0.90553 0.0
H460 H 0.72981 0.04254 0.40962 0.0
H461 H 0.70705 0.1008 0.52659 0.0
H462 H 0.7729 0.07968 0.54631 0.0
H463 H 0.83815 0.0477 0.52927 0.0
H464 H 0.86086 0.98901 0.41231 0.0
H465 H 0.79355 0.00706 0.39374 0.0
C466 C 0.73915 0.05044 0.43948 0.0
C467 C 0.71382 0.07349 0.46661 0.0
C468 C 0.77701 0.03821 0.45056 0.0
C469 C 0.72617 0.08316 0.50525 0.0
C470 C 0.7638 0.07117 0.51648 0.0
C471 C 0.82838 0.03865 0.49974 0.0
C472 C 0.85477 0.0173 0.47215 0.0
C473 C 0.78969 0.04916 0.48922 0.0
C474 C 0.84128 0.0055 0.43416 0.0
C475 C 0.80281 0.01591 0.42345 0.0
H476 H 0.31034 0.58961 0.03211 0.0
H477 H 0.26806 0.57983 0.15577 0.0
H478 H 0.19592 0.56661 0.13791 0.0
H479 H 0.14469 0.56293 0.0874 0.0
H480 H 0.18667 0.56828 0.96345 0.0
H481 H 0.25936 0.57891 0.98093 0.0
C482 C 0.28526 0.58377 0.05495 0.0
C483 C 0.2942 0.58558 0.0951 0.0
C484 C 0.244 0.57644 0.04445 0.0
C485 C 0.26176 0.578 0.12463 0.0
C486 C 0.22057 0.571 0.11448 0.0
C487 C 0.16991 0.5667 0.06437 0.0
C488 C 0.16087 0.56601 0.02439 0.0
C489 C 0.21131 0.57119 0.0746 0.0
C490 C 0.19335 0.56949 0.99447 0.0
C491 C 0.23471 0.57531 0.00445 0.0
H492 H 0.23098 0.36767 0.55303 0.0
H493 H 0.19352 0.49023 0.53181 0.0
H494 H 0.2668 0.51843 0.52247 0.0
H495 H 0.3409 0.50897 0.5254 0.0
H496 H 0.3773 0.38666 0.55051 0.0
H497 H 0.30467 0.35756 0.55354 0.0
C498 C 0.23891 0.40027 0.54525 0.0
C499 C 0.20719 0.4268 0.54242 0.0
C500 C 0.28073 0.4164 0.54148 0.0
C501 C 0.21765 0.46928 0.53361 0.0
C502 C 0.2594 0.48537 0.52864 0.0
C503 C 0.33302 0.47592 0.53148 0.0
C504 C 0.36455 0.45014 0.53801 0.0
C505 C 0.29115 0.45941 0.53344 0.0
C506 C 0.3537 0.40735 0.54572 0.0
C507 C 0.31219 0.39059 0.54727 0.0
H508 H 0.95112 0.83141 0.97118 0.0
H509 H 0.98935 0.80711 0.84765 0.0
H510 H 0.00314 0.73537 0.86139 0.0
H511 H 0.00315 0.67907 0.90832 0.0
H512 H 0.97218 0.705 0.03305 0.0
H513 H 0.95698 0.77657 0.01938 0.0
C514 C 0.96248 0.81028 0.94743 0.0
C515 C 0.96877 0.82407 0.90839 0.0
C516 C 0.97169 0.76949 0.95582 0.0
C517 C 0.98422 0.79691 0.87789 0.0
C518 C 0.99204 0.75595 0.8857 0.0
C519 C 0.99318 0.70052 0.93245 0.0
C520 C 0.98839 0.68687 0.97152 0.0
C521 C 0.98571 0.74183 0.9245 0.0
C522 C 0.97612 0.715 0.00272 0.0
C523 C 0.96728 0.7558 0.99489 0.0
H524 H 0.45794 0.69525 0.06716 0.0
H525 H 0.34626 0.72765 0.13483 0.0
H526 H 0.36528 0.80262 0.12387 0.0
H527 H 0.41285 0.85845 0.09405 0.0
H528 H 0.5226 0.82651 0.02251 0.0
H529 H 0.50534 0.75178 0.03584 0.0
C530 C 0.43802 0.71897 0.07937 0.0
C531 C 0.4009 0.70657 0.10161 0.0
C532 C 0.44878 0.76183 0.07227 0.0
C533 C 0.3749 0.73699 0.1174 0.0
C534 C 0.38578 0.77967 0.11123 0.0
C535 C 0.43315 0.83517 0.08163 0.0
C536 C 0.469 0.84786 0.05757 0.0
C537 C 0.42255 0.7924 0.08862 0.0
C538 C 0.49474 0.81736 0.04112 0.0
C539 C 0.48493 0.7747 0.04873 0.0
H540 H 0.03603 0.30563 0.5682 0.0
H541 H 0.16634 0.29025 0.53944 0.0
H542 H 0.14996 0.21507 0.52667 0.0
H543 H 0.09965 0.15324 0.52527 0.0
H544 H 0.96974 0.16599 0.55794 0.0
H545 H 0.98526 0.2424 0.56871 0.0
C546 C 0.06083 0.28582 0.55923 0.0
C547 C 0.10224 0.30403 0.55401 0.0
C548 C 0.05144 0.24199 0.55314 0.0
C549 C 0.13397 0.2777 0.54236 0.0
C550 C 0.12478 0.23442 0.53557 0.0
C551 C 0.07462 0.17264 0.53472 0.0
C552 C 0.03362 0.15394 0.54068 0.0
C553 C 0.08373 0.21625 0.541 0.0
C554 C 0.00166 0.17958 0.55327 0.0
C555 C 0.01047 0.22329 0.55927 0.0
H556 H 0.59491 0.24659 0.36442 0.0
H557 H 0.56667 0.183 0.47422 0.0
H558 H 0.54429 0.24815 0.50718 0.0
H559 H 0.53375 0.32382 0.50487 0.0
H560 H 0.5618 0.38597 0.39402 0.0
H561 H 0.58235 0.32058 0.36145 0.0
C562 C 0.58329 0.24672 0.39541 0.0
C563 C 0.58244 0.20989 0.41674 0.0
C564 C 0.57032 0.28412 0.41407 0.0
C565 C 0.56809 0.21102 0.45716 0.0
C566 C 0.55507 0.24821 0.47599 0.0
C567 C 0.5441 0.32298 0.47355 0.0
C568 C 0.54629 0.35998 0.45211 0.0
C569 C 0.55622 0.28508 0.45477 0.0
C570 C 0.5599 0.35819 0.41148 0.0
C571 C 0.57173 0.32074 0.39269 0.0
loop_
_geom_bond_atom_site_label_1
_geom_bond_atom_site_label_2
_geom_bond_distance
_geom_bond_site_symmetry_2
_ccdc_geom_bond_type
H0 C5 0.930 . S
H1 C8 0.930 . S
H2 C10 0.930 . S
H3 C4 1.016 . S
C4 H3 1.016 . S
C4 N11 1.286 . S
C5 H0 0.930 . S
C5 C6 1.397 . S
C5 C7 1.361 . S
C6 C5 1.397 . S
C6 C10 1.390 . S
C7 C5 1.361 . S
C7 C8 1.393 . S
C7 N11 1.413 . S
C8 H1 0.930 . S
C8 C7 1.393 . S
C8 C9 1.399 . S
C9 C8 1.399 . S
C9 C10 1.381 . S
C10 H2 0.930 . S
C10 C6 1.390 . S
C10 C9 1.381 . S
N11 C4 1.286 . S
N11 C7 1.413 . S
H12 C17 0.930 . S
H13 C20 0.930 . S
H14 C22 0.930 . S
H15 C16 1.016 . S
C16 H15 1.016 . S
C16 N23 1.286 . S
C17 H12 0.930 . S
C17 C18 1.397 . S
C17 C19 1.361 . S
C18 C17 1.397 . S
C18 C22 1.390 . S
C19 C17 1.361 . S
C19 C20 1.393 . S
C19 N23 1.413 . S
C20 H13 0.930 . S
C20 C19 1.393 . S
C20 C21 1.399 . S
C21 C20 1.399 . S
C21 C22 1.381 . S
C22 H14 0.930 . S
C22 C18 1.390 . S
C22 C21 1.381 . S
N23 C16 1.286 . S
N23 C19 1.413 . S
H24 C29 0.930 . S
H25 C32 0.930 . S
H26 C34 0.930 . S
H27 C28 1.016 . S
C28 H27 1.016 . S
C28 N35 1.286 . S
C29 H24 0.930 . S
C29 C30 1.397 . S
C29 C31 1.361 . S
C30 C29 1.397 . S
C30 C34 1.390 . S
C31 C29 1.361 . S
C31 C32 1.393 . S
C31 N35 1.413 . S
C32 H25 0.930 . S
C32 C31 1.393 . S
C32 C33 1.399 . S
C33 C32 1.399 . S
C33 C34 1.381 . S
C34 H26 0.930 . S
C34 C30 1.390 . S
C34 C33 1.381 . S
N35 C28 1.286 . S
N35 C31 1.413 . S
H36 C41 0.930 . S
H37 C44 0.930 . S
H38 C46 0.930 . S
H39 C40 1.016 . S
C40 H39 1.016 . S
C40 N47 1.286 . S
C41 H36 0.930 . S
C41 C42 1.397 . S
C41 C43 1.361 . S
C42 C41 1.397 . S
C42 C46 1.390 . S
C43 C41 1.361 . S
C43 C44 1.393 . S
C43 N47 1.413 . S
C44 H37 0.930 . S
C44 C43 1.393 . S
C44 C45 1.399 . S
C45 C44 1.399 . S
C45 C46 1.381 . S
C46 H38 0.930 . S
C46 C42 1.390 . S
C46 C45 1.381 . S
N47 C40 1.286 . S
N47 C43 1.413 . S
H48 C53 0.930 . S
H49 C56 0.930 . S
H50 C58 0.930 1_545 S
H51 C52 1.016 . S
C52 H51 1.016 . S
C52 N59 1.286 . S
C53 H48 0.930 . S
C53 C54 1.397 . S
C53 C55 1.361 . S
C54 C53 1.397 . S
C54 C58 1.390 . S
C55 C53 1.361 . S
C55 C56 1.393 . S
C55 N59 1.413 . S
C56 H49 0.930 . S
C56 C55 1.393 . S
C56 C57 1.399 . S
C57 C56 1.399 . S
C57 C58 1.381 . S
C58 H50 0.930 1_565 S
C58 C54 1.390 . S
C58 C57 1.381 . S
N59 C52 1.286 . S
N59 C55 1.413 . S
H60 C65 0.930 . S
H61 C68 0.930 . S
H62 C70 0.930 . S
H63 C64 1.016 . S
C64 H63 1.016 . S
C64 N71 1.286 . S
C65 H60 0.930 . S
C65 C66 1.397 . S
C65 C67 1.361 . S
C66 C65 1.397 . S
C66 C70 1.390 . S
C67 C65 1.361 . S
C67 C68 1.393 . S
C67 N71 1.413 . S
C68 H61 0.930 . S
C68 C67 1.393 . S
C68 C69 1.399 . S
C69 C68 1.399 . S
C69 C70 1.381 . S
C70 H62 0.930 . S
C70 C66 1.390 . S
C70 C69 1.381 . S
N71 C64 1.286 . S
N71 C67 1.413 . S
H72 C77 0.930 . S
H73 C80 0.930 . S
H74 C82 0.930 . S
H75 C76 1.016 . S
C76 H75 1.016 . S
C76 N83 1.286 . S
C77 H72 0.930 . S
C77 C78 1.397 . S
C77 C79 1.361 . S
C78 C77 1.397 . S
C78 C82 1.390 . S
C79 C77 1.361 . S
C79 C80 1.393 . S
C79 N83 1.413 . S
C80 H73 0.930 . S
C80 C79 1.393 . S
C80 C81 1.399 . S
C81 C80 1.399 . S
C81 C82 1.381 . S
C82 H74 0.930 . S
C82 C78 1.390 . S
C82 C81 1.381 . S
N83 C76 1.286 . S
N83 C79 1.413 . S
H84 C89 0.930 . S
H85 C92 0.930 . S
H86 C94 0.930 . S
H87 C88 1.016 . S
C88 H87 1.016 . S
C88 N95 1.286 . S
C89 H84 0.930 . S
C89 C90 1.397 . S
C89 C91 1.361 . S
C90 C89 1.397 . S
C90 C94 1.390 . S
C91 C89 1.361 . S
C91 C92 1.393 . S
C91 N95 1.413 . S
C92 H85 0.930 . S
C92 C91 1.393 . S
C92 C93 1.399 . S
C93 C92 1.399 . S
C93 C94 1.381 . S
C94 H86 0.930 . S
C94 C90 1.390 . S
C94 C93 1.381 . S
N95 C88 1.286 . S
N95 C91 1.413 . S
O96 Zn97 1.962 . S
O96 C112 1.202 1_655 S
Zn97 O96 1.962 . S
Zn97 O98 1.949 1_655 S
Zn97 O104 1.919 . S
Zn97 O109 1.924 . S
O98 Zn97 1.949 1_455 S
O98 Zn99 1.923 1_445 S
O98 Zn100 1.950 . S
O98 Zn101 1.945 1_545 S
Zn99 O98 1.923 1_665 S
Zn99 O102 1.933 . S
Zn99 O105 1.941 1_565 S
Zn99 O106 1.965 1_665 S
Zn100 O98 1.950 . S
Zn100 O107 1.938 . S
Zn100 O108 1.896 1_545 S
Zn100 O118 1.953 . S
Zn101 O98 1.945 1_565 S
Zn101 O103 1.932 1_455 S
Zn101 O110 1.977 . S
Zn101 O111 1.910 1_455 S
O102 Zn99 1.933 . S
O102 C113 1.226 . S
O103 Zn101 1.932 1_655 S
O103 C113 1.307 . S
O104 Zn97 1.919 . S
O104 C115 1.253 . S
O105 Zn99 1.941 1_545 S
O105 C115 1.283 . S
O106 Zn99 1.965 1_445 S
O106 C114 1.303 . S
O107 Zn100 1.938 . S
O107 C114 1.247 . S
O108 Zn100 1.896 1_565 S
O108 C116 1.317 . S
O109 Zn97 1.924 . S
O109 C117 1.311 1_545 S
O110 Zn101 1.977 . S
O110 C116 1.272 . S
O111 Zn101 1.910 1_655 S
O111 C117 1.231 . S
C112 O96 1.202 1_455 S
C112 O118 1.298 . S
C113 O102 1.226 . S
C113 O103 1.307 . S
C114 O106 1.303 . S
C114 O107 1.247 . S
C115 O104 1.253 . S
C115 O105 1.283 . S
C116 O108 1.317 . S
C116 O110 1.272 . S
C117 O109 1.311 1_565 S
C117 O111 1.231 . S
O118 Zn100 1.953 . S
O118 C112 1.298 . S
O119 Zn120 1.953 . S
O119 C135 1.225 . S
Zn120 O119 1.953 . S
Zn120 O121 1.949 1_556 S
Zn120 O127 1.919 . S
Zn120 O132 1.924 1_556 S
O121 Zn120 1.949 1_554 S
O121 Zn122 1.923 1_544 S
O121 Zn123 1.950 . S
O121 Zn124 1.945 1_545 S
Zn122 O121 1.923 1_566 S
Zn122 O125 1.933 1_556 S
Zn122 O128 1.941 . S
Zn122 O129 1.965 . S
Zn123 O121 1.950 . S
Zn123 O130 1.938 . S
Zn123 O131 1.906 . S
Zn123 O141 1.953 . S
Zn124 O121 1.945 1_565 S
Zn124 O126 1.932 . S
Zn124 O133 1.977 1_565 S
Zn124 O134 1.910 1_565 S
O125 Zn122 1.933 1_554 S
O125 C136 1.226 . S
O126 Zn124 1.932 . S
O126 C136 1.307 . S
O127 Zn120 1.919 . S
O127 C138 1.253 1_545 S
O128 Zn122 1.941 . S
O128 C138 1.283 . S
O129 Zn122 1.965 . S
O129 C137 1.303 1_565 S
O130 Zn123 1.938 . S
O130 C137 1.247 1_554 S
O131 Zn123 1.906 . S
O131 C139 1.304 . S
O132 Zn120 1.924 1_554 S
O132 C140 1.311 . S
O133 Zn124 1.977 1_545 S
O133 C139 1.272 . S
O134 Zn124 1.910 1_545 S
O134 C140 1.231 . S
C135 O119 1.225 . S
C135 O141 1.298 1_556 S
C136 O125 1.226 . S
C136 O126 1.307 . S
C137 O129 1.303 1_545 S
C137 O130 1.247 1_556 S
C138 O127 1.253 1_565 S
C138 O128 1.283 . S
C139 O131 1.304 . S
C139 O133 1.272 . S
C140 O132 1.311 . S
C140 O134 1.231 . S
O141 Zn123 1.953 . S
O141 C135 1.298 1_554 S
O142 Zn143 1.953 . S
O142 C158 1.225 . S
Zn143 O142 1.953 . S
Zn143 O144 1.949 . S
Zn143 O150 1.919 . S
Zn143 O155 1.924 . S
O144 Zn143 1.949 . S
O144 Zn145 1.923 . S
O144 Zn146 1.950 . S
O144 Zn147 1.945 . S
Zn145 O144 1.923 . S
Zn145 O148 1.933 . S
Zn145 O151 1.941 . S
Zn145 O152 1.965 . S
Zn146 O144 1.950 . S
Zn146 O153 1.938 . S
Zn146 O154 1.906 . S
Zn146 O164 1.953 . S
Zn147 O144 1.945 . S
Zn147 O149 1.932 . S
Zn147 O156 1.977 . S
Zn147 O157 1.910 . S
O148 Zn145 1.933 . S
O148 C159 1.226 . S
O149 Zn147 1.932 . S
O149 C159 1.307 . S
O150 Zn143 1.919 . S
O150 C161 1.253 . S
O151 Zn145 1.941 . S
O151 C161 1.283 . S
O152 Zn145 1.965 . S
O152 C160 1.303 . S
O153 Zn146 1.938 . S
O153 C160 1.247 . S
O154 Zn146 1.906 . S
O154 C162 1.304 . S
O155 Zn143 1.924 . S
O155 C163 1.311 . S
O156 Zn147 1.977 . S
O156 C162 1.272 . S
O157 Zn147 1.910 . S
O157 C163 1.231 . S
C158 O142 1.225 . S
C158 O164 1.298 . S
C159 O148 1.226 . S
C159 O149 1.307 . S
C160 O152 1.303 . S
C160 O153 1.247 . S
C161 O150 1.253 . S
C161 O151 1.283 . S
C162 O154 1.304 . S
C162 O156 1.272 . S
C163 O155 1.311 . S
C163 O157 1.231 . S
O164 Zn146 1.953 . S
O164 C158 1.298 . S
O165 Zn166 1.953 . S
O165 C181 1.225 . S
Zn166 O165 1.953 . S
Zn166 O167 1.949 1_655 S
Zn166 O173 1.919 . S
Zn166 O178 1.924 . S
O167 Zn166 1.949 1_455 S
O167 Zn168 1.923 1_554 S
O167 Zn169 1.950 . S
O167 Zn170 1.945 1_554 S
Zn168 O167 1.923 1_556 S
Zn168 O171 1.933 . S
Zn168 O174 1.941 1_455 S
Zn168 O175 1.965 . S
Zn169 O167 1.950 . S
Zn169 O176 1.938 . S
Zn169 O177 1.906 . S
Zn169 O187 1.953 . S
Zn170 O167 1.945 1_556 S
Zn170 O172 1.932 . S
Zn170 O179 1.977 1_556 S
Zn170 O180 1.910 1_556 S
O171 Zn168 1.933 . S
O171 C182 1.226 . S
O172 Zn170 1.932 . S
O172 C182 1.307 . S
O173 Zn166 1.919 . S
O173 C184 1.253 1_554 S
O174 Zn168 1.941 1_655 S
O174 C184 1.283 . S
O175 Zn168 1.965 . S
O175 C183 1.303 . S
O176 Zn169 1.938 . S
O176 C183 1.247 1_554 S
O177 Zn169 1.906 . S
O177 C185 1.304 . S
O178 Zn166 1.924 . S
O178 C186 1.311 1_655 S
O179 Zn170 1.977 1_554 S
O179 C185 1.272 . S
O180 Zn170 1.910 1_554 S
O180 C186 1.231 . S
C181 O165 1.225 . S
C181 O187 1.298 1_655 S
C182 O171 1.226 . S
C182 O172 1.307 . S
C183 O175 1.303 . S
C183 O176 1.247 1_556 S
C184 O173 1.253 1_556 S
C184 O174 1.283 . S
C185 O177 1.304 . S
C185 O179 1.272 . S
C186 O178 1.311 1_455 S
C186 O180 1.231 . S
O187 Zn169 1.953 . S
O187 C181 1.298 1_455 S
H188 C194 0.930 . S
H189 C197 0.930 . S
H190 C198 0.930 . S
H191 C199 0.930 . S
H192 C202 0.930 1_565 S
H193 C203 0.930 . S
C194 H188 0.930 . S
C194 C195 1.355 . S
C194 C196 1.415 . S
C195 C194 1.355 . S
C195 C197 1.419 . S
C196 C194 1.415 . S
C196 C201 1.425 . S
C196 C203 1.409 . S
C197 H189 0.930 . S
C197 C195 1.419 . S
C197 C198 1.362 . S
C198 H190 0.930 . S
C198 C197 1.362 . S
C198 C201 1.409 . S
C199 H191 0.930 . S
C199 C200 1.355 . S
C199 C201 1.415 . S
C200 C199 1.355 . S
C200 C202 1.419 . S
C201 C196 1.425 . S
C201 C198 1.409 . S
C201 C199 1.415 . S
C202 H192 0.930 1_545 S
C202 C200 1.419 . S
C202 C203 1.362 . S
C203 H193 0.930 . S
C203 C196 1.409 . S
C203 C202 1.362 . S
H204 C210 0.930 . S
H205 C213 0.930 . S
H206 C214 0.930 . S
H207 C215 0.930 . S
H208 C218 0.930 1_545 S
H209 C219 0.930 . S
C210 H204 0.930 . S
C210 C211 1.355 . S
C210 C212 1.415 . S
C211 C210 1.355 . S
C211 C213 1.419 . S
C212 C210 1.415 . S
C212 C217 1.425 . S
C212 C219 1.409 . S
C213 H205 0.930 . S
C213 C211 1.419 . S
C213 C214 1.362 . S
C214 H206 0.930 . S
C214 C213 1.362 . S
C214 C217 1.409 . S
C215 H207 0.930 . S
C215 C216 1.355 . S
C215 C217 1.415 . S
C216 C215 1.355 . S
C216 C218 1.419 . S
C217 C212 1.425 . S
C217 C214 1.409 . S
C217 C215 1.415 . S
C218 H208 0.930 1_565 S
C218 C216 1.419 . S
C218 C219 1.362 . S
C219 H209 0.930 . S
C219 C212 1.409 . S
C219 C218 1.362 . S
H220 C226 0.930 . S
H221 C229 0.930 . S
H222 C230 0.930 . S
H223 C231 0.930 . S
H224 C234 0.930 . S
H225 C235 0.930 . S
C226 H220 0.930 . S
C226 C227 1.355 . S
C226 C228 1.415 . S
C227 C226 1.355 . S
C227 C229 1.419 . S
C228 C226 1.415 . S
C228 C233 1.425 . S
C228 C235 1.409 . S
C229 H221 0.930 . S
C229 C227 1.419 . S
C229 C230 1.362 . S
C230 H222 0.930 . S
C230 C229 1.362 . S
C230 C233 1.409 . S
C231 H223 0.930 . S
C231 C232 1.355 . S
C231 C233 1.415 . S
C232 C231 1.355 . S
C232 C234 1.419 . S
C233 C228 1.425 . S
C233 C230 1.409 . S
C233 C231 1.415 . S
C234 H224 0.930 . S
C234 C232 1.419 . S
C234 C235 1.362 . S
C235 H225 0.930 . S
C235 C228 1.409 . S
C235 C234 1.362 . S
H236 C242 0.930 . S
H237 C245 0.930 . S
H238 C246 0.930 . S
H239 C247 0.930 . S
H240 C250 0.930 . S
H241 C251 0.930 . S
C242 H236 0.930 . S
C242 C243 1.355 . S
C242 C244 1.415 . S
C243 C242 1.355 . S
C243 C245 1.419 . S
C244 C242 1.415 . S
C244 C249 1.425 . S
C244 C251 1.409 . S
C245 H237 0.930 . S
C245 C243 1.419 . S
C245 C246 1.362 . S
C246 H238 0.930 . S
C246 C245 1.362 . S
C246 C249 1.409 . S
C247 H239 0.930 . S
C247 C248 1.355 . S
C247 C249 1.415 . S
C248 C247 1.355 . S
C248 C250 1.419 . S
C249 C244 1.425 . S
C249 C246 1.409 . S
C249 C247 1.415 . S
C250 H240 0.930 . S
C250 C248 1.419 . S
C250 C251 1.362 . S
C251 H241 0.930 . S
C251 C244 1.409 . S
C251 C250 1.362 . S
H252 C258 0.930 . S
H253 C261 0.930 . S
H254 C262 0.930 . S
H255 C263 0.930 . S
H256 C266 0.930 . S
H257 C267 0.930 . S
C258 H252 0.930 . S
C258 C259 1.355 . S
C258 C260 1.415 . S
C259 C258 1.355 . S
C259 C261 1.419 . S
C260 C258 1.415 . S
C260 C265 1.425 . S
C260 C267 1.409 . S
C261 H253 0.930 . S
C261 C259 1.419 . S
C261 C262 1.362 . S
C262 H254 0.930 . S
C262 C261 1.362 . S
C262 C265 1.409 . S
C263 H255 0.930 . S
C263 C264 1.355 . S
C263 C265 1.415 . S
C264 C263 1.355 . S
C264 C266 1.419 . S
C265 C260 1.425 . S
C265 C262 1.409 . S
C265 C263 1.415 . S
C266 H256 0.930 . S
C266 C264 1.419 . S
C266 C267 1.362 . S
C267 H257 0.930 . S
C267 C260 1.409 . S
C267 C266 1.362 . S
H268 C274 0.930 . S
H269 C277 0.930 . S
H270 C278 0.930 . S
H271 C279 0.930 . S
H272 C282 0.930 . S
H273 C283 0.930 . S
C274 H268 0.930 . S
C274 C275 1.355 . S
C274 C276 1.415 . S
C275 C274 1.355 . S
C275 C277 1.419 . S
C276 C274 1.415 . S
C276 C281 1.425 . S
C276 C283 1.409 . S
C277 H269 0.930 . S
C277 C275 1.419 . S
C277 C278 1.362 . S
C278 H270 0.930 . S
C278 C277 1.362 . S
C278 C281 1.409 . S
C279 H271 0.930 . S
C279 C280 1.355 . S
C279 C281 1.415 . S
C280 C279 1.355 . S
C280 C282 1.419 . S
C281 C276 1.425 . S
C281 C278 1.409 . S
C281 C279 1.415 . S
C282 H272 0.930 . S
C282 C280 1.419 . S
C282 C283 1.362 . S
C283 H273 0.930 . S
C283 C276 1.409 . S
C283 C282 1.362 . S
H284 C290 0.930 . S
H285 C293 0.930 . S
H286 C294 0.930 . S
H287 C295 0.930 . S
H288 C298 0.930 . S
H289 C299 0.930 . S
C290 H284 0.930 . S
C290 C291 1.355 . S
C290 C292 1.415 . S
C291 C290 1.355 . S
C291 C293 1.419 . S
C292 C290 1.415 . S
C292 C297 1.425 . S
C292 C299 1.409 . S
C293 H285 0.930 . S
C293 C291 1.419 . S
C293 C294 1.362 . S
C294 H286 0.930 . S
C294 C293 1.362 . S
C294 C297 1.409 . S
C295 H287 0.930 . S
C295 C296 1.355 . S
C295 C297 1.415 . S
C296 C295 1.355 . S
C296 C298 1.419 . S
C297 C292 1.425 . S
C297 C294 1.409 . S
C297 C295 1.415 . S
C298 H288 0.930 . S
C298 C296 1.419 . S
C298 C299 1.362 . S
C299 H289 0.930 . S
C299 C292 1.409 . S
C299 C298 1.362 . S
H300 C306 0.930 . S
H301 C309 0.930 . S
H302 C310 0.930 . S
H303 C311 0.930 . S
H304 C314 0.930 . S
H305 C315 0.930 . S
C306 H300 0.930 . S
C306 C307 1.355 . S
C306 C308 1.415 . S
C307 C306 1.355 . S
C307 C309 1.419 . S
C308 C306 1.415 . S
C308 C313 1.425 . S
C308 C315 1.409 . S
C309 H301 0.930 . S
C309 C307 1.419 . S
C309 C310 1.362 . S
C310 H302 0.930 . S
C310 C309 1.362 . S
C310 C313 1.409 . S
C311 H303 0.930 . S
C311 C312 1.355 . S
C311 C313 1.415 . S
C312 C311 1.355 . S
C312 C314 1.419 . S
C313 C308 1.425 . S
C313 C310 1.409 . S
C313 C311 1.415 . S
C314 H304 0.930 . S
C314 C312 1.419 . S
C314 C315 1.362 . S
C315 H305 0.930 . S
C315 C308 1.409 . S
C315 C314 1.362 . S
H316 C322 0.930 . S
H317 C325 0.930 . S
H318 C326 0.930 . S
H319 C327 0.930 . S
H320 C330 0.930 1_655 S
H321 C331 0.930 1_655 S
C322 H316 0.930 . S
C322 C323 1.355 . S
C322 C324 1.415 . S
C323 C322 1.355 . S
C323 C325 1.419 . S
C324 C322 1.415 . S
C324 C329 1.425 . S
C324 C331 1.409 . S
C325 H317 0.930 . S
C325 C323 1.419 . S
C325 C326 1.362 . S
C326 H318 0.930 . S
C326 C325 1.362 . S
C326 C329 1.409 . S
C327 H319 0.930 . S
C327 C328 1.355 . S
C327 C329 1.415 . S
C328 C327 1.355 . S
C328 C330 1.419 . S
C329 C324 1.425 . S
C329 C326 1.409 . S
C329 C327 1.415 . S
C330 H320 0.930 1_455 S
C330 C328 1.419 . S
C330 C331 1.362 . S
C331 H321 0.930 1_455 S
C331 C324 1.409 . S
C331 C330 1.362 . S
H332 C338 0.930 . S
H333 C341 0.930 . S
H334 C342 0.930 . S
H335 C343 0.930 . S
H336 C346 0.930 . S
H337 C347 0.930 . S
C338 H332 0.930 . S
C338 C339 1.355 . S
C338 C340 1.415 . S
C339 C338 1.355 . S
C339 C341 1.419 . S
C340 C338 1.415 . S
C340 C345 1.425 . S
C340 C347 1.409 . S
C341 H333 0.930 . S
C341 C339 1.419 . S
C341 C342 1.362 . S
C342 H334 0.930 . S
C342 C341 1.362 . S
C342 C345 1.409 . S
C343 H335 0.930 . S
C343 C344 1.355 . S
C343 C345 1.415 . S
C344 C343 1.355 . S
C344 C346 1.419 . S
C345 C340 1.425 . S
C345 C342 1.409 . S
C345 C343 1.415 . S
C346 H336 0.930 . S
C346 C344 1.419 . S
C346 C347 1.362 . S
C347 H337 0.930 . S
C347 C340 1.409 . S
C347 C346 1.362 . S
H348 C354 0.930 . S
H349 C357 0.930 . S
H350 C358 0.930 . S
H351 C359 0.930 . S
H352 C362 0.930 . S
H353 C363 0.930 . S
C354 H348 0.930 . S
C354 C355 1.355 . S
C354 C356 1.415 . S
C355 C354 1.355 . S
C355 C357 1.419 . S
C356 C354 1.415 . S
C356 C361 1.425 . S
C356 C363 1.409 . S
C357 H349 0.930 . S
C357 C355 1.419 . S
C357 C358 1.362 . S
C358 H350 0.930 . S
C358 C357 1.362 . S
C358 C361 1.409 . S
C359 H351 0.930 . S
C359 C360 1.355 . S
C359 C361 1.415 . S
C360 C359 1.355 . S
C360 C362 1.419 . S
C361 C356 1.425 . S
C361 C358 1.409 . S
C361 C359 1.415 . S
C362 H352 0.930 . S
C362 C360 1.419 . S
C362 C363 1.362 . S
C363 H353 0.930 . S
C363 C356 1.409 . S
C363 C362 1.362 . S
H364 C370 0.930 . S
H365 C373 0.930 . S
H366 C374 0.930 . S
H367 C375 0.930 . S
H368 C378 0.930 . S
H369 C379 0.930 . S
C370 H364 0.930 . S
C370 C371 1.355 . S
C370 C372 1.415 . S
C371 C370 1.355 . S
C371 C373 1.419 . S
C372 C370 1.415 . S
C372 C377 1.425 . S
C372 C379 1.409 . S
C373 H365 0.930 . S
C373 C371 1.419 . S
C373 C374 1.362 . S
C374 H366 0.930 . S
C374 C373 1.362 . S
C374 C377 1.409 . S
C375 H367 0.930 . S
C375 C376 1.355 . S
C375 C377 1.415 . S
C376 C375 1.355 . S
C376 C378 1.419 . S
C377 C372 1.425 . S
C377 C374 1.409 . S
C377 C375 1.415 . S
C378 H368 0.930 . S
C378 C376 1.419 . S
C378 C379 1.362 . S
C379 H369 0.930 . S
C379 C372 1.409 . S
C379 C378 1.362 . S
H380 C386 0.930 . S
H381 C389 0.930 . S
H382 C390 0.930 . S
H383 C391 0.930 . S
H384 C394 0.938 . S
H385 C395 0.930 . S
C386 H380 0.930 . S
C386 C387 1.355 . S
C386 C388 1.415 . S
C387 C386 1.355 . S
C387 C389 1.419 1_565 S
C388 C386 1.415 . S
C388 C393 1.425 1_565 S
C388 C395 1.409 . S
C389 H381 0.930 . S
C389 C387 1.419 1_545 S
C389 C390 1.362 . S
C390 H382 0.930 . S
C390 C389 1.362 . S
C390 C393 1.409 . S
C391 H383 0.930 . S
C391 C392 1.355 1_545 S
C391 C393 1.415 . S
C392 C391 1.355 1_565 S
C392 C394 1.419 . S
C393 C388 1.425 1_545 S
C393 C390 1.409 . S
C393 C391 1.415 . S
C394 H384 0.938 . S
C394 C392 1.419 . S
C394 C395 1.362 . S
C395 H385 0.930 . S
C395 C388 1.409 . S
C395 C394 1.362 . S
H396 C402 0.930 . S
H397 C405 0.930 . S
H398 C406 0.930 . S
H399 C407 0.930 . S
H400 C410 0.930 1_565 S
H401 C411 0.930 1_565 S
C402 H396 0.930 . S
C402 C403 1.355 . S
C402 C404 1.415 . S
C403 C402 1.355 . S
C403 C405 1.419 . S
C404 C402 1.415 . S
C404 C409 1.425 . S
C404 C411 1.409 . S
C405 H397 0.930 . S
C405 C403 1.419 . S
C405 C406 1.362 . S
C406 H398 0.930 . S
C406 C405 1.362 . S
C406 C409 1.409 . S
C407 H399 0.930 . S
C407 C408 1.355 . S
C407 C409 1.415 . S
C408 C407 1.355 . S
C408 C410 1.419 . S
C409 C404 1.425 . S
C409 C406 1.409 . S
C409 C407 1.415 . S
C410 H400 0.930 1_545 S
C410 C408 1.419 . S
C410 C411 1.362 . S
C411 H401 0.930 1_545 S
C411 C404 1.409 . S
C411 C410 1.362 . S
H412 C418 0.930 . S
H413 C421 0.930 . S
H414 C422 0.930 . S
H415 C423 0.930 . S
H416 C426 0.930 . S
H417 C427 0.930 . S
C418 H412 0.930 . S
C418 C419 1.355 . S
C418 C420 1.415 . S
C419 C418 1.355 . S
C419 C421 1.419 . S
C420 C418 1.415 . S
C420 C425 1.425 . S
C420 C427 1.409 . S
C421 H413 0.930 . S
C421 C419 1.419 . S
C421 C422 1.362 . S
C422 H414 0.930 . S
C422 C421 1.362 . S
C422 C425 1.409 . S
C423 H415 0.930 . S
C423 C424 1.355 . S
C423 C425 1.415 . S
C424 C423 1.355 . S
C424 C426 1.419 . S
C425 C420 1.425 . S
C425 C422 1.409 . S
C425 C423 1.415 . S
C426 H416 0.930 . S
C426 C424 1.419 . S
C426 C427 1.362 . S
C427 H417 0.930 . S
C427 C420 1.409 . S
C427 C426 1.362 . S
H428 C434 0.930 . S
H429 C437 0.930 . S
H430 C438 0.930 . S
H431 C439 0.930 . S
H432 C442 0.930 . S
H433 C443 0.930 . S
C434 H428 0.930 . S
C434 C435 1.355 . S
C434 C436 1.415 . S
C435 C434 1.355 . S
C435 C437 1.419 . S
C436 C434 1.415 . S
C436 C441 1.425 . S
C436 C443 1.409 . S
C437 H429 0.930 . S
C437 C435 1.419 . S
C437 C438 1.362 . S
C438 H430 0.930 . S
C438 C437 1.362 . S
C438 C441 1.409 . S
C439 H431 0.930 . S
C439 C440 1.355 . S
C439 C441 1.415 . S
C440 C439 1.355 . S
C440 C442 1.419 . S
C441 C436 1.425 . S
C441 C438 1.409 . S
C441 C439 1.415 . S
C442 H432 0.930 . S
C442 C440 1.419 . S
C442 C443 1.362 . S
C443 H433 0.930 . S
C443 C436 1.409 . S
C443 C442 1.362 . S
H444 C450 0.930 . S
H445 C453 0.930 . S
H446 C454 0.943 . S
H447 C455 0.930 1_554 S
H448 C458 0.930 . S
H449 C459 0.930 . S
C450 H444 0.930 . S
C450 C451 1.355 . S
C450 C452 1.415 . S
C451 C450 1.355 . S
C451 C453 1.419 1_565 S
C452 C450 1.415 . S
C452 C457 1.425 1_565 S
C452 C459 1.409 . S
C453 H445 0.930 . S
C453 C451 1.419 1_545 S
C453 C454 1.362 . S
C454 H446 0.943 . S
C454 C453 1.362 . S
C454 C457 1.409 . S
C455 H447 0.930 1_556 S
C455 C456 1.355 1_545 S
C455 C457 1.415 . S
C456 C455 1.355 1_565 S
C456 C458 1.419 . S
C457 C452 1.425 1_545 S
C457 C454 1.409 . S
C457 C455 1.415 . S
C458 H448 0.930 . S
C458 C456 1.419 . S
C458 C459 1.362 . S
C459 H449 0.930 . S
C459 C452 1.409 . S
C459 C458 1.362 . S
H460 C466 0.930 . S
H461 C469 0.930 1_565 S
H462 C470 0.930 . S
H463 C471 0.930 1_565 S
H464 C474 0.930 . S
H465 C475 0.930 . S
C466 H460 0.930 . S
C466 C467 1.355 . S
C466 C468 1.415 . S
C467 C466 1.355 . S
C467 C469 1.419 . S
C468 C466 1.415 . S
C468 C473 1.425 . S
C468 C475 1.409 . S
C469 H461 0.930 1_545 S
C469 C467 1.419 . S
C469 C470 1.362 1_545 S
C470 H462 0.930 . S
C470 C469 1.362 1_565 S
C470 C473 1.409 1_565 S
C471 H463 0.930 1_545 S
C471 C472 1.355 . S
C471 C473 1.415 . S
C472 C471 1.355 . S
C472 C474 1.419 . S
C473 C468 1.425 . S
C473 C470 1.409 1_545 S
C473 C471 1.415 . S
C474 H464 0.930 . S
C474 C472 1.419 . S
C474 C475 1.362 . S
C475 H465 0.930 . S
C475 C468 1.409 . S
C475 C474 1.362 . S
H476 C482 0.930 . S
H477 C485 0.930 . S
H478 C486 0.930 . S
H479 C487 0.930 . S
H480 C490 0.930 . S
H481 C491 0.930 . S
C482 H476 0.930 . S
C482 C483 1.355 . S
C482 C484 1.415 . S
C483 C482 1.355 . S
C483 C485 1.419 . S
C484 C482 1.415 . S
C484 C489 1.425 . S
C484 C491 1.409 1_554 S
C485 H477 0.930 . S
C485 C483 1.419 . S
C485 C486 1.362 . S
C486 H478 0.930 . S
C486 C485 1.362 . S
C486 C489 1.409 . S
C487 H479 0.930 . S
C487 C488 1.355 . S
C487 C489 1.415 . S
C488 C487 1.355 . S
C488 C490 1.419 1_554 S
C489 C484 1.425 . S
C489 C486 1.409 . S
C489 C487 1.415 . S
C490 H480 0.930 . S
C490 C488 1.419 1_556 S
C490 C491 1.362 . S
C491 H481 0.930 . S
C491 C484 1.409 1_556 S
C491 C490 1.362 . S
H492 C498 0.930 . S
H493 C501 0.930 . S
H494 C502 0.930 . S
H495 C503 0.930 . S
H496 C506 0.930 . S
H497 C507 0.930 . S
C498 H492 0.930 . S
C498 C499 1.355 . S
C498 C500 1.415 . S
C499 C498 1.355 . S
C499 C501 1.419 . S
C500 C498 1.415 . S
C500 C505 1.425 . S
C500 C507 1.409 . S
C501 H493 0.930 . S
C501 C499 1.419 . S
C501 C502 1.362 . S
C502 H494 0.930 . S
C502 C501 1.362 . S
C502 C505 1.409 . S
C503 H495 0.930 . S
C503 C504 1.355 . S
C503 C505 1.415 . S
C504 C503 1.355 . S
C504 C506 1.419 . S
C505 C500 1.425 . S
C505 C502 1.409 . S
C505 C503 1.415 . S
C506 H496 0.930 . S
C506 C504 1.419 . S
C506 C507 1.362 . S
C507 H497 0.930 . S
C507 C500 1.409 . S
C507 C506 1.362 . S
H508 C514 0.930 1_554 S
H509 C517 0.930 . S
H510 C518 0.930 . S
H511 C519 0.930 . S
H512 C522 0.930 . S
H513 C523 0.930 . S
C514 H508 0.930 1_556 S
C514 C515 1.355 . S
C514 C516 1.415 . S
C515 C514 1.355 . S
C515 C517 1.419 . S
C516 C514 1.415 . S
C516 C521 1.425 . S
C516 C523 1.409 1_556 S
C517 H509 0.930 . S
C517 C515 1.419 . S
C517 C518 1.362 . S
C518 H510 0.930 . S
C518 C517 1.362 . S
C518 C521 1.409 . S
C519 H511 0.930 . S
C519 C520 1.355 . S
C519 C521 1.415 . S
C520 C519 1.355 . S
C520 C522 1.419 1_556 S
C521 C516 1.425 . S
C521 C518 1.409 . S
C521 C519 1.415 . S
C522 H512 0.930 . S
C522 C520 1.419 1_554 S
C522 C523 1.362 . S
C523 H513 0.930 . S
C523 C516 1.409 1_554 S
C523 C522 1.362 . S
H524 C530 0.930 . S
H525 C533 0.930 . S
H526 C534 0.930 . S
H527 C535 0.930 . S
H528 C538 0.930 . S
H529 C539 0.930 . S
C530 H524 0.930 . S
C530 C531 1.355 . S
C530 C532 1.415 . S
C531 C530 1.355 . S
C531 C533 1.419 . S
C532 C530 1.415 . S
C532 C537 1.425 . S
C532 C539 1.409 . S
C533 H525 0.930 . S
C533 C531 1.419 . S
C533 C534 1.362 . S
C534 H526 0.930 . S
C534 C533 1.362 . S
C534 C537 1.409 . S
C535 H527 0.930 . S
C535 C536 1.355 . S
C535 C537 1.415 . S
C536 C535 1.355 . S
C536 C538 1.419 . S
C537 C532 1.425 . S
C537 C534 1.409 . S
C537 C535 1.415 . S
C538 H528 0.930 . S
C538 C536 1.419 . S
C538 C539 1.362 . S
C539 H529 0.930 . S
C539 C532 1.409 . S
C539 C538 1.362 . S
H540 C546 0.930 . S
H541 C549 0.930 . S
H542 C550 0.930 . S
H543 C551 0.930 . S
H544 C554 0.930 . S
H545 C555 0.930 . S
C546 H540 0.930 . S
C546 C547 1.355 . S
C546 C548 1.415 . S
C547 C546 1.355 . S
C547 C549 1.419 . S
C548 C546 1.415 . S
C548 C553 1.425 . S
C548 C555 1.409 . S
C549 H541 0.930 . S
C549 C547 1.419 . S
C549 C550 1.362 . S
C550 H542 0.930 . S
C550 C549 1.362 . S
C550 C553 1.409 . S
C551 H543 0.930 . S
C551 C552 1.355 . S
C551 C553 1.415 . S
C552 C551 1.355 . S
C552 C554 1.419 . S
C553 C548 1.425 . S
C553 C550 1.409 . S
C553 C551 1.415 . S
C554 H544 0.930 . S
C554 C552 1.419 . S
C554 C555 1.362 . S
C555 H545 0.930 . S
C555 C548 1.409 . S
C555 C554 1.362 . S
H556 C562 0.930 . S
H557 C565 0.930 . S
H558 C566 0.930 . S
H559 C567 0.930 . S
H560 C570 0.930 . S
H561 C571 0.930 . S
C562 H556 0.930 . S
C562 C563 1.355 . S
C562 C564 1.415 . S
C563 C562 1.355 . S
C563 C565 1.419 . S
C564 C562 1.415 . S
C564 C569 1.425 . S
C564 C571 1.409 . S
C565 H557 0.930 . S
C565 C563 1.419 . S
C565 C566 1.362 . S
C566 H558 0.930 . S
C566 C565 1.362 . S
C566 C569 1.409 . S
C567 H559 0.930 . S
C567 C568 1.355 . S
C567 C569 1.415 . S
C568 C567 1.355 . S
C568 C570 1.419 . S
C569 C564 1.425 . S
C569 C566 1.409 . S
C569 C567 1.415 . S
C570 H560 0.930 . S
C570 C568 1.419 . S
C570 C571 1.362 . S
C571 H561 0.930 . S
C571 C564 1.409 . S
C571 C570 1.362 . S
C195 C6 1.735 . S
C200 C114 1.683 . S
C211 C18 1.832 . S
C216 C138 1.795 . S
C232 C158 1.442 . S
C227 C28 1.433 . S
C243 C40 1.042 . S
C248 C181 1.038 . S
C264 C140 1.876 . S
C259 C9 1.923 . S
C280 C116 1.614 . S
C275 C16 1.638 . S
C296 C184 1.556 . S
C291 C30 1.611 . S
C312 C161 1.331 . S
C307 C42 1.358 . S
C323 C4 1.431 . S
C328 C186 1.421 . S
C344 C135 1.643 . S
C339 C33 1.624 . S
C355 C45 1.375 . S
C360 C113 1.395 . S
C371 C21 1.673 . S
C376 C163 1.642 . S
C392 C117 1.807 . S
C387 C57 1.809 . S
C403 C66 1.786 . S
C408 C139 1.777 . S
C419 C76 1.738 . S
C424 C159 1.740 . S
C435 C88 1.175 . S
C440 C182 1.228 . S
C451 C54 1.764 . S
C456 C137 1.716 1_565 S
C472 C115 1.527 . S
C467 C64 1.567 . S
C488 C185 1.398 . S
C483 C78 1.396 . S
C504 C162 1.279 . S
C499 C93 1.315 . S
C515 C52 1.627 . S
C520 C183 1.667 1_655 S
C536 C136 1.556 . S
C531 C81 1.507 . S
C552 C112 1.357 . S
C547 C90 1.334 . S
C563 C69 1.968 . S
C568 C160 1.916 . S
