# Generated by pormake.
# Topology ptr, (4,4)-cn, num edge types: 1
# Building blocks:
#     Node 0, Type 0, BuildingBlock: TATPOV_clean_sbu_0, # of connection points: 4
#     Node 1, Type 0, BuildingBlock: TATPOV_clean_sbu_0, # of connection points: 4
#     Node 2, Type 0, BuildingBlock: TATPOV_clean_sbu_0, # of connection points: 4
#     Node 3, Type 0, BuildingBlock: TATPOV_clean_sbu_0, # of connection points: 4
#     Node 4, Type 0, BuildingBlock: TATPOV_clean_sbu_0, # of connection points: 4
#     Node 5, Type 0, BuildingBlock: TATPOV_clean_sbu_0, # of connection points: 4
#     Node 6, Type 0, BuildingBlock: TATPOV_clean_sbu_0, # of connection points: 4
#     Node 7, Type 0, BuildingBlock: TATPOV_clean_sbu_0, # of connection points: 4
#     Node 8, Type 0, BuildingBlock: TATPOV_clean_sbu_0, # of connection points: 4
#     Node 9, Type 0, BuildingBlock: TATPOV_clean_sbu_0, # of connection points: 4
#     Node 10, Type 0, BuildingBlock: TATPOV_clean_sbu_0, # of connection points: 4
#     Node 11, Type 0, BuildingBlock: TATPOV_clean_sbu_0, # of connection points: 4
#     Node 12, Type 0, BuildingBlock: TATPOV_clean_sbu_0, # of connection points: 4
#     Node 13, Type 0, BuildingBlock: TATPOV_clean_sbu_0, # of connection points: 4
#     Node 14, Type 0, BuildingBlock: TATPOV_clean_sbu_0, # of connection points: 4
#     Node 15, Type 0, BuildingBlock: TATPOV_clean_sbu_0, # of connection points: 4
#     Node 16, Type 0, BuildingBlock: TATPOV_clean_sbu_0, # of connection points: 4
#     Node 17, Type 0, BuildingBlock: TATPOV_clean_sbu_0, # of connection points: 4
#     Node 18, Type 1, BuildingBlock: NAHDIM_clean_linker_0, # of connection points: 4
#     Node 19, Type 1, BuildingBlock: NAHDIM_clean_linker_0, # of connection points: 4
#     Node 20, Type 1, BuildingBlock: NAHDIM_clean_linker_0, # of connection points: 4
#     Node 21, Type 1, BuildingBlock: NAHDIM_clean_linker_0, # of connection points: 4
#     Node 22, Type 1, BuildingBlock: NAHDIM_clean_linker_0, # of connection points: 4
#     Node 23, Type 1, BuildingBlock: NAHDIM_clean_linker_0, # of connection points: 4
#     Node 24, Type 1, BuildingBlock: NAHDIM_clean_linker_0, # of connection points: 4
#     Node 25, Type 1, BuildingBlock: NAHDIM_clean_linker_0, # of connection points: 4
#     Node 26, Type 1, BuildingBlock: NAHDIM_clean_linker_0, # of connection points: 4
#     Node 27, Type 1, BuildingBlock: NAHDIM_clean_linker_0, # of connection points: 4
#     Node 28, Type 1, BuildingBlock: NAHDIM_clean_linker_0, # of connection points: 4
#     Node 29, Type 1, BuildingBlock: NAHDIM_clean_linker_0, # of connection points: 4
#     Node 30, Type 1, BuildingBlock: NAHDIM_clean_linker_0, # of connection points: 4
#     Node 31, Type 1, BuildingBlock: NAHDIM_clean_linker_0, # of connection points: 4
#     Node 32, Type 1, BuildingBlock: NAHDIM_clean_linker_0, # of connection points: 4
#     Node 33, Type 1, BuildingBlock: NAHDIM_clean_linker_0, # of connection points: 4
#     Node 34, Type 1, BuildingBlock: NAHDIM_clean_linker_0, # of connection points: 4
#     Node 35, Type 1, BuildingBlock: NAHDIM_clean_linker_0, # of connection points: 4
#     Edge 36, Type (0, 1), BuildingBlock: OJICUG_clean_linker_0, # of connection points: 2
#     Edge 37, Type (0, 1), BuildingBlock: OJICUG_clean_linker_0, # of connection points: 2
#     Edge 38, Type (0, 1), BuildingBlock: OJICUG_clean_linker_0, # of connection points: 2
#     Edge 39, Type (0, 1), BuildingBlock: OJICUG_clean_linker_0, # of connection points: 2
#     Edge 40, Type (0, 1), BuildingBlock: OJICUG_clean_linker_0, # of connection points: 2
#     Edge 41, Type (0, 1), BuildingBlock: OJICUG_clean_linker_0, # of connection points: 2
#     Edge 42, Type (0, 1), BuildingBlock: OJICUG_clean_linker_0, # of connection points: 2
#     Edge 43, Type (0, 1), BuildingBlock: OJICUG_clean_linker_0, # of connection points: 2
#     Edge 44, Type (0, 1), BuildingBlock: OJICUG_clean_linker_0, # of connection points: 2
#     Edge 45, Type (0, 1), BuildingBlock: OJICUG_clean_linker_0, # of connection points: 2
#     Edge 46, Type (0, 1), BuildingBlock: OJICUG_clean_linker_0, # of connection points: 2
#     Edge 47, Type (0, 1), BuildingBlock: OJICUG_clean_linker_0, # of connection points: 2
#     Edge 48, Type (0, 1), BuildingBlock: OJICUG_clean_linker_0, # of connection points: 2
#     Edge 49, Type (0, 1), BuildingBlock: OJICUG_clean_linker_0, # of connection points: 2
#     Edge 50, Type (0, 1), BuildingBlock: OJICUG_clean_linker_0, # of connection points: 2
#     Edge 51, Type (0, 1), BuildingBlock: OJICUG_clean_linker_0, # of connection points: 2
#     Edge 52, Type (0, 1), BuildingBlock: OJICUG_clean_linker_0, # of connection points: 2
#     Edge 53, Type (0, 1), BuildingBlock: OJICUG_clean_linker_0, # of connection points: 2
#     Edge 54, Type (0, 1), BuildingBlock: OJICUG_clean_linker_0, # of connection points: 2
#     Edge 55, Type (0, 1), BuildingBlock: OJICUG_clean_linker_0, # of connection points: 2
#     Edge 56, Type (0, 1), BuildingBlock: OJICUG_clean_linker_0, # of connection points: 2
#     Edge 57, Type (0, 1), BuildingBlock: OJICUG_clean_linker_0, # of connection points: 2
#     Edge 58, Type (0, 1), BuildingBlock: OJICUG_clean_linker_0, # of connection points: 2
#     Edge 59, Type (0, 1), BuildingBlock: OJICUG_clean_linker_0, # of connection points: 2
#     Edge 60, Type (0, 1), BuildingBlock: OJICUG_clean_linker_0, # of connection points: 2
#     Edge 61, Type (0, 1), BuildingBlock: OJICUG_clean_linker_0, # of connection points: 2
#     Edge 62, Type (0, 1), BuildingBlock: OJICUG_clean_linker_0, # of connection points: 2
#     Edge 63, Type (0, 1), BuildingBlock: OJICUG_clean_linker_0, # of connection points: 2
#     Edge 64, Type (0, 1), BuildingBlock: OJICUG_clean_linker_0, # of connection points: 2
#     Edge 65, Type (0, 1), BuildingBlock: OJICUG_clean_linker_0, # of connection points: 2
#     Edge 66, Type (0, 1), BuildingBlock: OJICUG_clean_linker_0, # of connection points: 2
#     Edge 67, Type (0, 1), BuildingBlock: OJICUG_clean_linker_0, # of connection points: 2
#     Edge 68, Type (0, 1), BuildingBlock: OJICUG_clean_linker_0, # of connection points: 2
#     Edge 69, Type (0, 1), BuildingBlock: OJICUG_clean_linker_0, # of connection points: 2
#     Edge 70, Type (0, 1), BuildingBlock: OJICUG_clean_linker_0, # of connection points: 2
#     Edge 71, Type (0, 1), BuildingBlock: OJICUG_clean_linker_0, # of connection points: 2
#     Edge 72, Type (0, 1), BuildingBlock: OJICUG_clean_linker_0, # of connection points: 2
#     Edge 73, Type (0, 1), BuildingBlock: OJICUG_clean_linker_0, # of connection points: 2
#     Edge 74, Type (0, 1), BuildingBlock: OJICUG_clean_linker_0, # of connection points: 2
#     Edge 75, Type (0, 1), BuildingBlock: OJICUG_clean_linker_0, # of connection points: 2
#     Edge 76, Type (0, 1), BuildingBlock: OJICUG_clean_linker_0, # of connection points: 2
#     Edge 77, Type (0, 1), BuildingBlock: OJICUG_clean_linker_0, # of connection points: 2
#     Edge 78, Type (0, 1), BuildingBlock: OJICUG_clean_linker_0, # of connection points: 2
#     Edge 79, Type (0, 1), BuildingBlock: OJICUG_clean_linker_0, # of connection points: 2
#     Edge 80, Type (0, 1), BuildingBlock: OJICUG_clean_linker_0, # of connection points: 2
#     Edge 81, Type (0, 1), BuildingBlock: OJICUG_clean_linker_0, # of connection points: 2
#     Edge 82, Type (0, 1), BuildingBlock: OJICUG_clean_linker_0, # of connection points: 2
#     Edge 83, Type (0, 1), BuildingBlock: OJICUG_clean_linker_0, # of connection points: 2
#     Edge 84, Type (0, 1), BuildingBlock: OJICUG_clean_linker_0, # of connection points: 2
#     Edge 85, Type (0, 1), BuildingBlock: OJICUG_clean_linker_0, # of connection points: 2
#     Edge 86, Type (0, 1), BuildingBlock: OJICUG_clean_linker_0, # of connection points: 2
#     Edge 87, Type (0, 1), BuildingBlock: OJICUG_clean_linker_0, # of connection points: 2
#     Edge 88, Type (0, 1), BuildingBlock: OJICUG_clean_linker_0, # of connection points: 2
#     Edge 89, Type (0, 1), BuildingBlock: OJICUG_clean_linker_0, # of connection points: 2
#     Edge 90, Type (0, 1), BuildingBlock: OJICUG_clean_linker_0, # of connection points: 2
#     Edge 91, Type (0, 1), BuildingBlock: OJICUG_clean_linker_0, # of connection points: 2
#     Edge 92, Type (0, 1), BuildingBlock: OJICUG_clean_linker_0, # of connection points: 2
#     Edge 93, Type (0, 1), BuildingBlock: OJICUG_clean_linker_0, # of connection points: 2
#     Edge 94, Type (0, 1), BuildingBlock: OJICUG_clean_linker_0, # of connection points: 2
#     Edge 95, Type (0, 1), BuildingBlock: OJICUG_clean_linker_0, # of connection points: 2
#     Edge 96, Type (0, 1), BuildingBlock: OJICUG_clean_linker_0, # of connection points: 2
#     Edge 97, Type (0, 1), BuildingBlock: OJICUG_clean_linker_0, # of connection points: 2
#     Edge 98, Type (0, 1), BuildingBlock: OJICUG_clean_linker_0, # of connection points: 2
#     Edge 99, Type (0, 1), BuildingBlock: OJICUG_clean_linker_0, # of connection points: 2
#     Edge 100, Type (0, 1), BuildingBlock: OJICUG_clean_linker_0, # of connection points: 2
#     Edge 101, Type (0, 1), BuildingBlock: OJICUG_clean_linker_0, # of connection points: 2
#     Edge 102, Type (0, 1), BuildingBlock: OJICUG_clean_linker_0, # of connection points: 2
#     Edge 103, Type (0, 1), BuildingBlock: OJICUG_clean_linker_0, # of connection points: 2
#     Edge 104, Type (0, 1), BuildingBlock: OJICUG_clean_linker_0, # of connection points: 2
#     Edge 105, Type (0, 1), BuildingBlock: OJICUG_clean_linker_0, # of connection points: 2
#     Edge 106, Type (0, 1), BuildingBlock: OJICUG_clean_linker_0, # of connection points: 2
#     Edge 107, Type (0, 1), BuildingBlock: OJICUG_clean_linker_0, # of connection points: 2
# Relax obj value: 0.077
# Max RMSD: 0.285
# Mean RMSD: 0.116
data_MOF--net-ptr--node1-TATPOV_clean_sbu_0--node2-NAHDIM_clean_linker_0--edge1-OJICUG_clean_linker_0
_symmetry_space_group_name_H-M    P1
_symmetry_Int_Tables_number       1
_symmetry_cell_setting            triclinic
loop_
_symmetry_equiv_pos_as_xyz
'x, y, z'
_cell_length_a     75.627821
_cell_length_b     76.615368
_cell_length_c     63.796458
_cell_angle_alpha  90.716202
_cell_angle_beta   91.080017
_cell_angle_gamma 121.80161
loop_
_atom_site_label
_atom_site_type_symbol
_atom_site_fract_x
_atom_site_fract_y
_atom_site_fract_z
_atom_type_partial_charge
Zn0 Zn 0.9625 0.33789 0.01934 0.0
Zn1 Zn 0.00128 0.34293 0.01999 0.0
O2 O 0.98064 0.31181 0.01823 0.0
O3 O 0.94921 0.30698 0.01785 0.0
O4 O 0.02912 0.34526 0.02101 0.0
O5 O 0.97019 0.35332 0.04749 0.0
O6 O 0.00153 0.358 0.04675 0.0
C7 C 0.96096 0.29985 0.01743 0.0
C8 C 0.98869 0.36094 0.98456 0.0
O9 O 0.00199 0.35795 0.99359 0.0
O10 O 0.97088 0.3539 0.99225 0.0
C11 C 0.03202 0.33321 0.00981 0.0
O12 O 0.01696 0.3195 0.99729 0.0
C13 C 0.98826 0.3608 0.05565 0.0
Zn14 Zn 0.65563 0.62348 0.01098 0.0
Zn15 Zn 0.6554 0.65827 0.02001 0.0
O16 O 0.68567 0.66853 0.01275 0.0
O17 O 0.68645 0.64079 0.00558 0.0
O18 O 0.65629 0.68457 0.02645 0.0
O19 O 0.64562 0.61391 0.04036 0.0
O20 O 0.64468 0.64175 0.0468 0.0
C21 C 0.69569 0.66017 0.00731 0.0
C22 C 0.62811 0.62954 0.98383 0.0
O23 O 0.63465 0.64566 0.99525 0.0
O24 O 0.63472 0.61764 0.9872 0.0
C25 C 0.6666 0.69985 0.01478 0.0
O26 O 0.67632 0.69822 0.99876 0.0
C27 C 0.64172 0.62456 0.05258 0.0
Zn28 Zn 0.34094 0.9697 0.01953 0.0
Zn29 Zn 0.34232 0.00504 0.01067 0.0
O30 O 0.31291 0.98408 0.01982 0.0
O31 O 0.31065 0.955 0.02713 0.0
O32 O 0.33743 0.0274 0.00271 0.0
O33 O 0.35039 0.96945 0.98988 0.0
O34 O 0.35321 0.9991 0.98418 0.0
C35 C 0.30246 0.96571 0.02597 0.0
C36 C 0.36934 0.00608 0.04632 0.0
O37 O 0.36364 0.01596 0.03504 0.0
O38 O 0.36208 0.98713 0.04264 0.0
C39 C 0.34952 0.04669 0.00125 0.0
O40 O 0.36957 0.05524 0.00517 0.0
C41 C 0.35539 0.98447 0.97808 0.0
Zn42 Zn 0.03367 0.65363 0.03243 0.0
Zn43 Zn 0.99634 0.64743 0.01745 0.0
O44 O 0.01523 0.67773 0.02514 0.0
O45 O 0.04618 0.68462 0.03541 0.0
O46 O 0.97233 0.64844 0.00505 0.0
O47 O 0.03555 0.64142 0.00441 0.0
O48 O 0.00576 0.63712 0.99316 0.0
C49 C 0.03375 0.6906 0.03146 0.0
C50 C 0.99634 0.62559 0.05644 0.0
O51 O 0.98612 0.62845 0.04225 0.0
O52 O 0.01604 0.63474 0.05593 0.0
C53 C 0.96636 0.65871 0.01522 0.0
O54 O 0.9729 0.6642 0.03481 0.0
C55 C 0.0215 0.63562 0.99015 0.0
Zn56 Zn 0.34802 0.38741 0.02063 0.0
Zn57 Zn 0.3461 0.35605 0.99737 0.0
O58 O 0.31811 0.3443 0.01077 0.0
O59 O 0.31915 0.36763 0.03208 0.0
O60 O 0.33996 0.33019 0.98226 0.0
O61 O 0.35133 0.40141 0.99257 0.0
O62 O 0.35176 0.37679 0.97477 0.0
C63 C 0.30946 0.34963 0.02409 0.0
C64 C 0.37932 0.37778 0.03244 0.0
O65 O 0.37034 0.36382 0.01814 0.0
O66 O 0.37318 0.39005 0.03597 0.0
C67 C 0.33798 0.31588 0.99381 0.0
O68 O 0.34342 0.32003 0.01378 0.0
C69 C 0.35293 0.394 0.97531 0.0
Zn70 Zn 0.67121 0.0484 0.9903 0.0
Zn71 Zn 0.66162 0.01202 0.00743 0.0
O72 O 0.69266 0.02791 0.00142 0.0
O73 O 0.7019 0.05823 0.98935 0.0
O74 O 0.66007 0.9879 0.02146 0.0
O75 O 0.6599 0.05419 0.0164 0.0
O76 O 0.65137 0.02424 0.02927 0.0
C77 C 0.7066 0.04533 0.99486 0.0
C78 C 0.64044 0.01088 0.96629 0.0
O79 O 0.64254 0.00126 0.98132 0.0
O80 O 0.65105 0.03039 0.96633 0.0
C81 C 0.66032 0.97397 0.01069 0.0
O82 O 0.65854 0.97384 0.99016 0.0
C83 C 0.65185 0.04109 0.03068 0.0
Zn84 Zn 0.62728 0.68427 0.32202 0.0
Zn85 Zn 0.66028 0.68592 0.34232 0.0
O86 O 0.64656 0.6587 0.32555 0.0
O87 O 0.62079 0.65766 0.30764 0.0
O88 O 0.68463 0.6874 0.35742 0.0
O89 O 0.61534 0.68381 0.3503 0.0
O90 O 0.64308 0.68704 0.36615 0.0
C91 C 0.63139 0.64979 0.31233 0.0
C92 C 0.66725 0.72026 0.31331 0.0
O93 O 0.67429 0.7118 0.32492 0.0
O94 O 0.64786 0.71189 0.30983 0.0
C95 C 0.69481 0.68024 0.34933 0.0
O96 O 0.68935 0.67127 0.33068 0.0
C97 C 0.62562 0.68579 0.36702 0.0
Zn98 Zn 0.29881 0.94108 0.34527 0.0
Zn99 Zn 0.30997 0.98026 0.35666 0.0
O100 O 0.33679 0.98264 0.347 0.0
O101 O 0.32854 0.95157 0.33709 0.0
O102 O 0.32025 0.00924 0.36669 0.0
O103 O 0.29054 0.93252 0.37526 0.0
O104 O 0.29788 0.96377 0.3832 0.0
C105 C 0.34202 0.97054 0.33965 0.0
C106 C 0.27732 0.95758 0.32171 0.0
O107 O 0.28866 0.9738 0.33293 0.0
O108 O 0.27855 0.94184 0.32428 0.0
C109 C 0.33401 0.02452 0.35676 0.0
O110 O 0.34057 0.02147 0.339 0.0
C111 C 0.29131 0.9454 0.38847 0.0
Zn112 Zn 0.0105 0.30337 0.3561 0.0
Zn113 Zn 0.01396 0.33722 0.33936 0.0
O114 O 0.98305 0.32004 0.34727 0.0
O115 O 0.97997 0.29189 0.35971 0.0
O116 O 0.01757 0.3632 0.32766 0.0
O117 O 0.01993 0.29778 0.32883 0.0
O118 O 0.02203 0.32503 0.31511 0.0
C119 C 0.97192 0.30226 0.3549 0.0
C120 C 0.04006 0.34052 0.37857 0.0
O121 O 0.035 0.34859 0.36418 0.0
O122 O 0.03148 0.32119 0.37901 0.0
C123 C 0.00925 0.37199 0.33647 0.0
O124 O 0.99756 0.36343 0.35272 0.0
C125 C 0.02375 0.3094 0.31341 0.0
Zn126 Zn 0.70849 0.98291 0.37034 0.0
Zn127 Zn 0.6736 0.97406 0.34766 0.0
O128 O 0.68582 0.00399 0.35674 0.0
O129 O 0.71531 0.01252 0.37315 0.0
O130 O 0.64854 0.96752 0.33005 0.0
O131 O 0.71876 0.97505 0.34451 0.0
O132 O 0.69109 0.9698 0.32675 0.0
C133 C 0.70265 0.01736 0.36626 0.0
C134 C 0.66948 0.95088 0.38769 0.0
O135 O 0.6616 0.95386 0.37136 0.0
O136 O 0.68903 0.9614 0.39114 0.0
C137 C 0.65081 0.97939 0.31525 0.0
O138 O 0.66926 0.99559 0.31199 0.0
C139 C 0.7083 0.97053 0.32739 0.0
Zn140 Zn 0.02413 0.73033 0.36128 0.0
Zn141 Zn 0.02114 0.69723 0.34092 0.0
O142 O 0.99265 0.68621 0.35365 0.0
O143 O 0.99443 0.71237 0.37049 0.0
O144 O 0.01603 0.67103 0.32716 0.0
O145 O 0.03023 0.74415 0.33308 0.0
O146 O 0.02778 0.71728 0.31703 0.0
C147 C 0.98429 0.69354 0.36498 0.0
C148 C 0.05245 0.71904 0.37787 0.0
O149 O 0.04444 0.70536 0.36321 0.0
O150 O 0.04664 0.73171 0.38022 0.0
C151 C 0.02789 0.66399 0.32888 0.0
O152 O 0.046 0.67508 0.33878 0.0
C153 C 0.03079 0.73528 0.31641 0.0
Zn154 Zn 0.32314 0.37519 0.32024 0.0
Zn155 Zn 0.31888 0.34206 0.34069 0.0
O156 O 0.34831 0.35758 0.32964 0.0
O157 O 0.35369 0.38579 0.3151 0.0
O158 O 0.32025 0.31985 0.35563 0.0
O159 O 0.31545 0.3835 0.3475 0.0
O160 O 0.31311 0.35716 0.36369 0.0
C161 C 0.36025 0.37427 0.32045 0.0
C162 C 0.29125 0.3348 0.3023 0.0
O163 O 0.29604 0.32772 0.3179 0.0
O164 O 0.30069 0.35403 0.29967 0.0
C165 C 0.32278 0.3074 0.34466 0.0
O166 O 0.32154 0.30782 0.32412 0.0
C167 C 0.3122 0.3733 0.36402 0.0
Zn168 Zn 0.29503 0.01713 0.66086 0.0
Zn169 Zn 0.32969 0.02096 0.67939 0.0
O170 O 0.31467 0.99215 0.66542 0.0
O171 O 0.28755 0.98946 0.64864 0.0
O172 O 0.3556 0.02398 0.6927 0.0
O173 O 0.28554 0.01931 0.68966 0.0
O174 O 0.31471 0.02456 0.70408 0.0
C175 C 0.29855 0.98206 0.65351 0.0
C176 C 0.33343 0.05204 0.64723 0.0
O177 O 0.34166 0.04488 0.65913 0.0
O178 O 0.31385 0.04333 0.64547 0.0
C179 C 0.36538 0.01711 0.68312 0.0
O180 O 0.35815 0.00775 0.66477 0.0
C181 C 0.29724 0.02318 0.70574 0.0
Zn182 Zn 0.98669 0.28306 0.65846 0.0
Zn183 Zn 0.98739 0.31477 0.67831 0.0
O184 O 0.01744 0.32648 0.66861 0.0
O185 O 0.01743 0.30044 0.65367 0.0
O186 O 0.98989 0.33929 0.69349 0.0
O187 O 0.9768 0.26694 0.68497 0.0
O188 O 0.97777 0.29303 0.70111 0.0
C189 C 0.02707 0.31917 0.65945 0.0
C190 C 0.95932 0.29457 0.63931 0.0
O191 O 0.96563 0.30754 0.65461 0.0
O192 O 0.96625 0.28278 0.63733 0.0
C193 C 0.00024 0.35678 0.68524 0.0
O194 O 0.00811 0.35833 0.6667 0.0
C195 C 0.97431 0.27484 0.70134 0.0
Zn196 Zn 0.68857 0.63812 0.70717 0.0
Zn197 Zn 0.68473 0.66372 0.68122 0.0
O198 O 0.65722 0.64789 0.69674 0.0
O199 O 0.66084 0.62882 0.71988 0.0
O200 O 0.67829 0.68107 0.66279 0.0
O201 O 0.69013 0.6233 0.68146 0.0
O202 O 0.692 0.64728 0.6611 0.0
C203 C 0.65014 0.63536 0.71169 0.0
C204 C 0.7201 0.68141 0.7141 0.0
O205 O 0.70965 0.68404 0.69998 0.0
O206 O 0.71478 0.66342 0.71938 0.0
C207 C 0.68122 0.69802 0.66987 0.0
O208 O 0.69017 0.70489 0.68849 0.0
C209 C 0.69264 0.63115 0.6636 0.0
Zn210 Zn 0.37099 0.31381 0.7003 0.0
Zn211 Zn 0.33805 0.31166 0.67853 0.0
O212 O 0.35684 0.341 0.68938 0.0
O213 O 0.38456 0.34476 0.70561 0.0
O214 O 0.31693 0.31539 0.66316 0.0
O215 O 0.37713 0.30405 0.67284 0.0
O216 O 0.35092 0.30311 0.65599 0.0
C217 C 0.37413 0.35233 0.69914 0.0
C218 C 0.32928 0.28556 0.71675 0.0
O219 O 0.32264 0.2906 0.70088 0.0
O220 O 0.34868 0.29349 0.72008 0.0
C221 C 0.30962 0.32432 0.67357 0.0
O222 O 0.31338 0.32705 0.69392 0.0
C223 C 0.36646 0.30088 0.65605 0.0
Zn224 Zn 0.68949 0.06278 0.69834 0.0
Zn225 Zn 0.68352 0.02793 0.67865 0.0
O226 O 0.65503 0.02011 0.68921 0.0
O227 O 0.65844 0.04805 0.70354 0.0
O228 O 0.67659 0.00151 0.66415 0.0
O229 O 0.69947 0.07717 0.67046 0.0
O230 O 0.69342 0.04854 0.65509 0.0
C231 C 0.64713 0.02923 0.6982 0.0
C232 C 0.71301 0.04605 0.71686 0.0
O233 O 0.70507 0.03311 0.70157 0.0
O234 O 0.70859 0.05979 0.71916 0.0
C235 C 0.66575 0.98479 0.67372 0.0
O236 O 0.66088 0.98552 0.69324 0.0
C237 C 0.69906 0.06737 0.65409 0.0
Zn238 Zn 0.98387 0.70948 0.6554 0.0
Zn239 Zn 0.97684 0.6748 0.67528 0.0
O240 O 0.0069 0.68913 0.66601 0.0
O241 O 0.01416 0.71809 0.65169 0.0
O242 O 0.97463 0.65033 0.68946 0.0
O243 O 0.97604 0.71764 0.68265 0.0
O244 O 0.97159 0.6902 0.69838 0.0
C245 C 0.01975 0.70589 0.65741 0.0
C246 C 0.95109 0.67099 0.63583 0.0
O247 O 0.95509 0.66315 0.65128 0.0
O248 O 0.96142 0.69031 0.63366 0.0
C249 C 0.96346 0.63185 0.68265 0.0
O250 O 0.95113 0.6276 0.66611 0.0
C251 C 0.97174 0.70692 0.69892 0.0
C252 C 0.23297 0.26188 0.04742 0.0
C253 C 0.23141 0.28074 0.05146 0.0
C254 C 0.21342 0.28491 0.07994 0.0
C255 C 0.21816 0.30482 0.08451 0.0
C256 C 0.2034 0.30814 0.09356 0.0
C257 C 0.18354 0.29108 0.09809 0.0
C258 C 0.17859 0.27092 0.09299 0.0
C259 C 0.19374 0.26807 0.08408 0.0
C260 C 0.20914 0.32983 0.09868 0.0
C261 C 0.15751 0.25241 0.09741 0.0
C262 C 0.07158 0.32253 0.03043 0.0
C263 C 0.08988 0.32052 0.03441 0.0
C264 C 0.10983 0.32275 0.06612 0.0
C265 C 0.10175 0.30171 0.06883 0.0
C266 C 0.11196 0.29514 0.08223 0.0
C267 C 0.13048 0.3099 0.09316 0.0
C268 C 0.13832 0.33108 0.09085 0.0
C269 C 0.12771 0.3372 0.07752 0.0
C270 C 0.10297 0.27245 0.08474 0.0
C271 C 0.15802 0.34725 0.10228 0.0
C272 C 0.08516 0.30161 0.22416 0.0
C273 C 0.08014 0.28314 0.21381 0.0
C274 C 0.09563 0.28096 0.20474 0.0
C275 C 0.11648 0.29775 0.20541 0.0
C276 C 0.12159 0.31639 0.21562 0.0
C277 C 0.10584 0.31802 0.22495 0.0
C278 C 0.08966 0.26074 0.1942 0.0
C279 C 0.14364 0.33465 0.21645 0.0
C280 C 0.23742 0.26008 0.23545 0.0
C281 C 0.23342 0.27759 0.23809 0.0
C282 C 0.20001 0.2748 0.23303 0.0
C283 C 0.17914 0.25962 0.22904 0.0
C284 C 0.16583 0.26395 0.21777 0.0
C285 C 0.17353 0.28415 0.21088 0.0
C286 C 0.1943 0.29989 0.21609 0.0
C287 C 0.20737 0.295 0.22696 0.0
C288 C 0.14375 0.24682 0.21265 0.0
C289 C 0.20282 0.32178 0.20978 0.0
C290 C 0.16835 0.29431 0.10908 0.0
C291 C 0.15618 0.29952 0.0972 0.0
C292 C 0.14196 0.30328 0.10669 0.0
C293 C 0.1395 0.30147 0.12864 0.0
C294 C 0.12511 0.30482 0.13865 0.0
C295 C 0.12292 0.30313 0.16026 0.0
C296 C 0.13502 0.298 0.1727 0.0
C297 C 0.13272 0.29599 0.19465 0.0
C298 C 0.14546 0.29154 0.20666 0.0
C299 C 0.16028 0.28861 0.19726 0.0
C300 C 0.16234 0.28989 0.17523 0.0
C301 C 0.17663 0.28642 0.16517 0.0
C302 C 0.17869 0.28791 0.14354 0.0
C303 C 0.16639 0.29277 0.13109 0.0
C304 C 0.15184 0.29628 0.14087 0.0
C305 C 0.14974 0.29474 0.16296 0.0
C306 C 0.03692 0.2893 0.21692 0.0
C307 C 0.04984 0.28987 0.23599 0.0
O308 O 0.22824 0.28188 0.07258 0.0
O309 O 0.21265 0.26944 0.24248 0.0
O310 O 0.07072 0.30439 0.23341 0.0
O311 O 0.1006 0.32975 0.05316 0.0
H312 H 0.2179 0.27868 0.04189 0.0
H313 H 0.21862 0.24788 0.05263 0.0
H314 H 0.24657 0.26342 0.05622 0.0
H315 H 0.23458 0.25985 0.03043 0.0
H316 H 0.23352 0.3177 0.08126 0.0
H317 H 0.1904 0.25273 0.08053 0.0
H318 H 0.19871 0.33329 0.08964 0.0
H319 H 0.22552 0.34136 0.09494 0.0
H320 H 0.20691 0.33141 0.1156 0.0
H321 H 0.15537 0.23803 0.09045 0.0
H322 H 0.14501 0.25457 0.09114 0.0
H323 H 0.15571 0.25066 0.11462 0.0
H324 H 0.08755 0.30517 0.03081 0.0
H325 H 0.05779 0.30628 0.02993 0.0
H326 H 0.08012 0.34169 0.00452 0.0
H327 H 0.06769 0.32663 0.04598 0.0
H328 H 0.08736 0.29039 0.06082 0.0
H329 H 0.1336 0.35338 0.07558 0.0
H330 H 0.10063 0.26868 0.10161 0.0
H331 H 0.11411 0.26834 0.07898 0.0
H332 H 0.08788 0.26289 0.07601 0.0
H333 H 0.16247 0.36308 0.09818 0.0
H334 H 0.17101 0.34507 0.09848 0.0
H335 H 0.15589 0.34559 0.11946 0.0
H336 H 0.04746 0.27435 0.23758 0.0
H337 H 0.06421 0.27037 0.21252 0.0
H338 H 0.10959 0.33222 0.23285 0.0
H339 H 0.09116 0.26267 0.17699 0.0
H340 H 0.07342 0.24842 0.19739 0.0
H341 H 0.10033 0.25574 0.19959 0.0
H342 H 0.14489 0.34837 0.22412 0.0
H343 H 0.14956 0.33859 0.20031 0.0
H344 H 0.15382 0.33071 0.22524 0.0
H345 H 0.23702 0.28531 0.22269 0.0
H346 H 0.25411 0.26633 0.23243 0.0
H347 H 0.22799 0.25 0.22188 0.0
H348 H 0.23302 0.25056 0.24963 0.0
H349 H 0.17354 0.24414 0.23408 0.0
H350 H 0.22334 0.30697 0.23065 0.0
H351 H 0.14071 0.24558 0.19543 0.0
H352 H 0.13277 0.25035 0.22002 0.0
H353 H 0.14046 0.23175 0.21826 0.0
H354 H 0.2181 0.33264 0.21766 0.0
H355 H 0.1917 0.32658 0.21362 0.0
H356 H 0.20486 0.32287 0.19257 0.0
H357 H 0.15801 0.30096 0.08036 0.0
H358 H 0.11535 0.30876 0.12988 0.0
H359 H 0.11163 0.30595 0.1671 0.0
H360 H 0.14371 0.2902 0.22351 0.0
H361 H 0.18643 0.28249 0.17388 0.0
H362 H 0.19005 0.28519 0.13673 0.0
H363 H 0.03931 0.30469 0.21424 0.0
H364 H 0.02011 0.27811 0.21925 0.0
H365 H 0.04157 0.28444 0.20265 0.0
C366 C 0.7132 0.93323 0.02927 0.0
C367 C 0.69525 0.92798 0.04383 0.0
C368 C 0.70526 0.92114 0.07731 0.0
C369 C 0.68775 0.90408 0.08548 0.0
C370 C 0.68988 0.89061 0.09844 0.0
C371 C 0.70996 0.89418 0.10295 0.0
C372 C 0.72771 0.91165 0.09492 0.0
C373 C 0.72512 0.92516 0.08244 0.0
C374 C 0.67062 0.87232 0.10695 0.0
C375 C 0.7493 0.91572 0.09903 0.0
C376 C 0.68694 0.75084 0.04062 0.0
C377 C 0.69229 0.77176 0.04742 0.0
C378 C 0.69298 0.79066 0.0786 0.0
C379 C 0.71303 0.80827 0.07789 0.0
C380 C 0.71823 0.82619 0.08938 0.0
C381 C 0.703 0.8265 0.10166 0.0
C382 C 0.68274 0.80876 0.1023 0.0
C383 C 0.67814 0.79092 0.09105 0.0
C384 C 0.74008 0.84468 0.08868 0.0
C385 C 0.66597 0.80859 0.11493 0.0
C386 C 0.70659 0.79606 0.23437 0.0
C387 C 0.72746 0.81224 0.23359 0.0
C388 C 0.73275 0.83044 0.22334 0.0
C389 C 0.7168 0.83253 0.21415 0.0
C390 C 0.69572 0.81645 0.21563 0.0
C391 C 0.69099 0.79826 0.22533 0.0
C392 C 0.75536 0.84723 0.22198 0.0
C393 C 0.67812 0.8183 0.20679 0.0
C394 C 0.76193 0.99348 0.24579 0.0
C395 C 0.74576 0.97074 0.24882 0.0
C396 C 0.74862 0.94162 0.23796 0.0
C397 C 0.76328 0.93717 0.23115 0.0
C398 C 0.75717 0.9191 0.21953 0.0
C399 C 0.73577 0.90496 0.21501 0.0
C400 C 0.72075 0.90896 0.22263 0.0
C401 C 0.72734 0.92732 0.23398 0.0
C402 C 0.77359 0.91519 0.21192 0.0
C403 C 0.69779 0.89385 0.21871 0.0
C404 C 0.71214 0.87883 0.11482 0.0
C405 C 0.70803 0.86108 0.1039 0.0
C406 C 0.70836 0.84524 0.11413 0.0
C407 C 0.71292 0.84707 0.13592 0.0
C408 C 0.71323 0.83135 0.14673 0.0
C409 C 0.71648 0.83272 0.16834 0.0
C410 C 0.7199 0.85002 0.17994 0.0
C411 C 0.72193 0.85097 0.20205 0.0
C412 C 0.72693 0.86898 0.21301 0.0
C413 C 0.72924 0.88594 0.20248 0.0
C414 C 0.72555 0.88463 0.18051 0.0
C415 C 0.72611 0.90074 0.16956 0.0
C416 C 0.72155 0.89884 0.14808 0.0
C417 C 0.71702 0.88109 0.13659 0.0
C418 C 0.71713 0.86499 0.1472 0.0
C419 C 0.72099 0.86661 0.16921 0.0
C420 C 0.69795 0.75684 0.27196 0.0
C421 C 0.71182 0.77483 0.25908 0.0
O422 O 0.7031 0.93371 0.06424 0.0
O423 O 0.75561 0.95979 0.24836 0.0
O424 O 0.70077 0.77806 0.24365 0.0
O425 O 0.68774 0.773 0.06813 0.0
H426 H 0.68382 0.91109 0.04263 0.0
H427 H 0.72103 0.92502 0.03414 0.0
H428 H 0.72484 0.95002 0.02993 0.0
H429 H 0.70735 0.9284 0.01282 0.0
H430 H 0.67246 0.90132 0.08155 0.0
H431 H 0.73852 0.93853 0.07604 0.0
H432 H 0.66785 0.85807 0.09903 0.0
H433 H 0.65658 0.87326 0.10441 0.0
H434 H 0.67281 0.87105 0.12401 0.0
H435 H 0.76134 0.92937 0.09069 0.0
H436 H 0.74991 0.90213 0.09399 0.0
H437 H 0.75313 0.91827 0.1161 0.0
H438 H 0.70789 0.78448 0.0427 0.0
H439 H 0.70225 0.75264 0.03664 0.0
H440 H 0.66269 0.74159 0.0183 0.0
H441 H 0.68509 0.74212 0.05534 0.0
H442 H 0.7248 0.80789 0.06887 0.0
H443 H 0.66278 0.77715 0.09164 0.0
H444 H 0.74677 0.84966 0.10485 0.0
H445 H 0.73971 0.85763 0.08152 0.0
H446 H 0.75048 0.84156 0.07946 0.0
H447 H 0.65042 0.7946 0.11156 0.0
H448 H 0.66516 0.82234 0.11159 0.0
H449 H 0.66978 0.80915 0.1319 0.0
H450 H 0.72593 0.77548 0.25322 0.0
H451 H 0.73962 0.81052 0.24054 0.0
H452 H 0.67494 0.7857 0.22619 0.0
H453 H 0.7592 0.85161 0.2054 0.0
H454 H 0.76597 0.84254 0.22838 0.0
H455 H 0.75823 0.86106 0.23091 0.0
H456 H 0.66286 0.80651 0.21304 0.0
H457 H 0.67723 0.81623 0.18948 0.0
H458 H 0.68083 0.83376 0.21044 0.0
H459 H 0.73436 0.96586 0.23538 0.0
H460 H 0.75439 0.00261 0.24603 0.0
H461 H 0.7693 0.99547 0.23039 0.0
H462 H 0.7743 0.9995 0.25832 0.0
H463 H 0.77964 0.94818 0.23458 0.0
H464 H 0.71585 0.93034 0.23986 0.0
H465 H 0.77198 0.91267 0.19463 0.0
H466 H 0.77134 0.90102 0.219 0.0
H467 H 0.78961 0.92813 0.21599 0.0
H468 H 0.68804 0.89864 0.22674 0.0
H469 H 0.69355 0.87846 0.22422 0.0
H470 H 0.69411 0.89234 0.20162 0.0
H471 H 0.70415 0.85939 0.08723 0.0
H472 H 0.71061 0.81763 0.13865 0.0
H473 H 0.71622 0.82001 0.17588 0.0
H474 H 0.72876 0.86972 0.22997 0.0
H475 H 0.72962 0.9148 0.17757 0.0
H476 H 0.72169 0.9115 0.14056 0.0
H477 H 0.70032 0.76977 0.30188 0.0
H478 H 0.70291 0.74555 0.26883 0.0
H479 H 0.68268 0.74752 0.26292 0.0
C480 C 0.24434 0.93497 0.03378 0.0
C481 C 0.22304 0.92696 0.04161 0.0
C482 C 0.19838 0.89829 0.06275 0.0
C483 C 0.18586 0.90624 0.0676 0.0
C484 C 0.17006 0.89662 0.08221 0.0
C485 C 0.16692 0.87889 0.09228 0.0
C486 C 0.17989 0.87123 0.0878 0.0
C487 C 0.1953 0.88092 0.07289 0.0
C488 C 0.15636 0.90504 0.08653 0.0
C489 C 0.17715 0.8525 0.09843 0.0
C490 C 0.05032 0.77981 0.01069 0.0
C491 C 0.05946 0.77656 0.03081 0.0
C492 C 0.06555 0.7941 0.06449 0.0
C493 C 0.08058 0.79048 0.07286 0.0
C494 C 0.09511 0.8038 0.08822 0.0
C495 C 0.09481 0.82129 0.09504 0.0
C496 C 0.07877 0.82417 0.08767 0.0
C497 C 0.06408 0.81027 0.07267 0.0
C498 C 0.11152 0.79979 0.0962 0.0
C499 C 0.07793 0.8426 0.09466 0.0
C500 C 0.06121 0.80587 0.22821 0.0
C501 C 0.07694 0.8017 0.22481 0.0
C502 C 0.09527 0.81598 0.21487 0.0
C503 C 0.09787 0.83475 0.20831 0.0
C504 C 0.08257 0.83945 0.21281 0.0
C505 C 0.06447 0.82495 0.22287 0.0
C506 C 0.11159 0.81078 0.21083 0.0
C507 C 0.08504 0.85948 0.20635 0.0
C508 C 0.23229 0.97611 0.24221 0.0
C509 C 0.22412 0.95547 0.25289 0.0
C510 C 0.20509 0.92654 0.22762 0.0
C511 C 0.20452 0.90894 0.2205 0.0
C512 C 0.18689 0.89297 0.20979 0.0
C513 C 0.16969 0.89507 0.20541 0.0
C514 C 0.17031 0.91305 0.21225 0.0
C515 C 0.18796 0.92855 0.22345 0.0
C516 C 0.18665 0.87385 0.20322 0.0
C517 C 0.15237 0.91593 0.20765 0.0
C518 C 0.14865 0.86695 0.10558 0.0
C519 C 0.13052 0.85113 0.09569 0.0
C520 C 0.11299 0.838 0.10706 0.0
C521 C 0.11343 0.84064 0.12906 0.0
C522 C 0.09627 0.82736 0.14105 0.0
C523 C 0.09695 0.83003 0.16272 0.0
C524 C 0.11486 0.84604 0.17323 0.0
C525 C 0.11575 0.84872 0.19528 0.0
C526 C 0.13373 0.86481 0.20523 0.0
C527 C 0.15104 0.87845 0.19373 0.0
C528 C 0.15049 0.87598 0.17164 0.0
C529 C 0.16761 0.88934 0.15953 0.0
C530 C 0.16711 0.88639 0.13789 0.0
C531 C 0.1493 0.87025 0.12749 0.0
C532 C 0.13165 0.85691 0.1393 0.0
C533 C 0.13233 0.85967 0.1614 0.0
C534 C 0.01022 0.76122 0.22955 0.0
C535 C 0.03317 0.77077 0.23581 0.0
O536 O 0.21365 0.90699 0.04853 0.0
O537 O 0.2226 0.94132 0.23805 0.0
O538 O 0.0427 0.79197 0.23652 0.0
O539 O 0.05296 0.78283 0.04794 0.0
H540 H 0.21257 0.92955 0.03137 0.0
H541 H 0.24575 0.92124 0.0307 0.0
H542 H 0.26373 0.95857 0.05557 0.0
H543 H 0.24325 0.93787 0.01667 0.0
H544 H 0.18807 0.91965 0.05972 0.0
H545 H 0.20514 0.87502 0.06911 0.0
H546 H 0.14006 0.89349 0.08152 0.0
H547 H 0.16142 0.91952 0.07819 0.0
H548 H 0.15648 0.90799 0.10363 0.0
H549 H 0.1899 0.84984 0.09496 0.0
H550 H 0.16216 0.83877 0.09302 0.0
H551 H 0.17655 0.85415 0.11567 0.0
H552 H 0.07671 0.78646 0.02962 0.0
H553 H 0.05511 0.77461 0.99677 0.0
H554 H 0.05617 0.79641 0.00917 0.0
H555 H 0.03305 0.77127 0.01092 0.0
H556 H 0.08129 0.77754 0.06705 0.0
H557 H 0.05219 0.8127 0.06631 0.0
H558 H 0.11486 0.80363 0.11322 0.0
H559 H 0.12611 0.80965 0.08778 0.0
H560 H 0.10676 0.78351 0.09346 0.0
H561 H 0.06413 0.84231 0.0879 0.0
H562 H 0.09221 0.85688 0.08984 0.0
H563 H 0.07749 0.84321 0.11202 0.0
H564 H 0.03999 0.76586 0.22346 0.0
H565 H 0.07495 0.78732 0.22977 0.0
H566 H 0.05241 0.82817 0.22596 0.0
H567 H 0.11257 0.80894 0.19368 0.0
H568 H 0.10809 0.79639 0.21847 0.0
H569 H 0.12708 0.82354 0.21666 0.0
H570 H 0.07195 0.86102 0.21147 0.0
H571 H 0.08593 0.86059 0.18903 0.0
H572 H 0.09982 0.87253 0.21318 0.0
H573 H 0.20861 0.95039 0.25935 0.0
H574 H 0.23057 0.98688 0.25251 0.0
H575 H 0.22316 0.97383 0.2275 0.0
H576 H 0.24888 0.98307 0.2382 0.0
H577 H 0.21787 0.9076 0.22373 0.0
H578 H 0.18842 0.94231 0.22855 0.0
H579 H 0.18728 0.87313 0.18589 0.0
H580 H 0.172 0.85993 0.20799 0.0
H581 H 0.20006 0.87352 0.21016 0.0
H582 H 0.15613 0.93161 0.21209 0.0
H583 H 0.13867 0.90463 0.2165 0.0
H584 H 0.14793 0.91303 0.19069 0.0
H585 H 0.13019 0.84875 0.07883 0.0
H586 H 0.08214 0.81473 0.1338 0.0
H587 H 0.08324 0.81931 0.17113 0.0
H588 H 0.13428 0.86671 0.22216 0.0
H589 H 0.18168 0.90213 0.16668 0.0
H590 H 0.18081 0.89697 0.12938 0.0
H591 H 0.00232 0.76558 0.24114 0.0
H592 H 0.00219 0.7442 0.22853 0.0
H593 H 0.00886 0.76675 0.21393 0.0
C594 C 0.31119 0.10493 0.00064 0.0
C595 C 0.31225 0.09436 0.9806 0.0
C596 C 0.31636 0.11772 0.95231 0.0
C597 C 0.29543 0.11226 0.95104 0.0
C598 C 0.28892 0.12175 0.93684 0.0
C599 C 0.30369 0.13743 0.92406 0.0
C600 C 0.32481 0.14322 0.92553 0.0
C601 C 0.33077 0.13306 0.93944 0.0
C602 C 0.26624 0.11509 0.93561 0.0
C603 C 0.34113 0.16031 0.91263 0.0
C604 C 0.25891 0.22754 0.98809 0.0
C605 C 0.27699 0.23054 0.975 0.0
C606 C 0.27489 0.21407 0.94174 0.0
C607 C 0.29554 0.21955 0.93926 0.0
C608 C 0.30018 0.20727 0.92693 0.0
C609 C 0.28372 0.1888 0.91748 0.0
C610 C 0.26283 0.18337 0.9199 0.0
C611 C 0.25876 0.19645 0.93156 0.0
C612 C 0.32264 0.21386 0.92435 0.0
C613 C 0.24471 0.16348 0.91082 0.0
C614 C 0.26527 0.19915 0.78221 0.0
C615 C 0.28583 0.20572 0.78829 0.0
C616 C 0.2904 0.19268 0.79912 0.0
C617 C 0.274 0.17282 0.80433 0.0
C618 C 0.25339 0.1658 0.79729 0.0
C619 C 0.24935 0.17902 0.78601 0.0
C620 C 0.3127 0.20038 0.80554 0.0
C621 C 0.23556 0.14464 0.80235 0.0
C622 C 0.27317 0.03403 0.80194 0.0
C623 C 0.27481 0.04676 0.78294 0.0
C624 C 0.28785 0.08236 0.795 0.0
C625 C 0.30494 0.1025 0.79466 0.0
C626 C 0.30397 0.11895 0.80312 0.0
C627 C 0.28533 0.11511 0.81209 0.0
C628 C 0.26786 0.0948 0.81233 0.0
C629 C 0.26935 0.07859 0.80401 0.0
C630 C 0.32295 0.1404 0.80279 0.0
C631 C 0.24769 0.09019 0.8217 0.0
C632 C 0.2972 0.14839 0.90986 0.0
C633 C 0.29402 0.1632 0.91879 0.0
C634 C 0.28823 0.17444 0.90648 0.0
C635 C 0.28604 0.17123 0.88447 0.0
C636 C 0.28126 0.18295 0.87148 0.0
C637 C 0.27861 0.1793 0.8499 0.0
C638 C 0.28082 0.16388 0.84043 0.0
C639 C 0.27823 0.16009 0.81848 0.0
C640 C 0.27991 0.14423 0.80968 0.0
C641 C 0.28442 0.13215 0.82224 0.0
C642 C 0.28773 0.13614 0.84412 0.0
C643 C 0.29291 0.12468 0.85711 0.0
C644 C 0.29602 0.12864 0.87863 0.0
C645 C 0.29405 0.1442 0.88801 0.0
C646 C 0.28866 0.15583 0.87525 0.0
C647 C 0.28576 0.15197 0.85325 0.0
C648 C 0.2529 0.23809 0.77964 0.0
C649 C 0.26967 0.23273 0.77795 0.0
O650 O 0.32342 0.10884 0.96566 0.0
O651 O 0.2901 0.06722 0.78672 0.0
O652 O 0.26028 0.21196 0.77303 0.0
O653 O 0.27014 0.2253 0.95429 0.0
H654 H 0.29616 0.08335 0.97451 0.0
H655 H 0.30306 0.1132 0.9973 0.0
H656 H 0.32709 0.11621 0.00702 0.0
H657 H 0.30241 0.09336 0.01271 0.0
H658 H 0.28398 0.10071 0.96102 0.0
H659 H 0.34688 0.13727 0.94057 0.0
H660 H 0.26442 0.12747 0.94235 0.0
H661 H 0.25628 0.10083 0.94433 0.0
H662 H 0.26056 0.11246 0.919 0.0
H663 H 0.35714 0.16441 0.91724 0.0
H664 H 0.34016 0.17422 0.91435 0.0
H665 H 0.33829 0.15552 0.89581 0.0
H666 H 0.28173 0.21998 0.98119 0.0
H667 H 0.26378 0.23112 0.00492 0.0
H668 H 0.24576 0.21131 0.98659 0.0
H669 H 0.25339 0.23765 0.98265 0.0
H670 H 0.30799 0.23344 0.94696 0.0
H671 H 0.24287 0.19248 0.93361 0.0
H672 H 0.32546 0.21156 0.9078 0.0
H673 H 0.32631 0.20432 0.93427 0.0
H674 H 0.33346 0.23024 0.92909 0.0
H675 H 0.22967 0.15986 0.91739 0.0
H676 H 0.24691 0.1505 0.91391 0.0
H677 H 0.24369 0.16466 0.89359 0.0
H678 H 0.27748 0.23623 0.79378 0.0
H679 H 0.29832 0.22106 0.78473 0.0
H680 H 0.23358 0.17401 0.78094 0.0
H681 H 0.31489 0.20373 0.82269 0.0
H682 H 0.32385 0.21463 0.79738 0.0
H683 H 0.31644 0.18844 0.80214 0.0
H684 H 0.22034 0.14175 0.7963 0.0
H685 H 0.23482 0.14273 0.8196 0.0
H686 H 0.23818 0.13286 0.79541 0.0
H687 H 0.25945 0.0451 0.78 0.0
H688 H 0.26124 0.01755 0.79876 0.0
H689 H 0.26847 0.03934 0.81583 0.0
H690 H 0.28836 0.0356 0.80573 0.0
H691 H 0.31918 0.10527 0.78779 0.0
H692 H 0.25608 0.06309 0.80492 0.0
H693 H 0.32747 0.14691 0.81904 0.0
H694 H 0.31925 0.15045 0.79378 0.0
H695 H 0.33642 0.14077 0.79563 0.0
H696 H 0.23492 0.07397 0.81877 0.0
H697 H 0.24285 0.10044 0.8151 0.0
H698 H 0.25002 0.09322 0.8389 0.0
H699 H 0.29588 0.16589 0.93566 0.0
H700 H 0.27948 0.19508 0.87787 0.0
H701 H 0.27472 0.18869 0.84076 0.0
H702 H 0.27767 0.14125 0.79287 0.0
H703 H 0.29468 0.11252 0.85079 0.0
H704 H 0.2999 0.11928 0.88784 0.0
H705 H 0.24335 0.23396 0.76489 0.0
H706 H 0.26016 0.25478 0.78315 0.0
H707 H 0.2424 0.22944 0.79258 0.0
C708 C 0.7967 0.0548 0.0103 0.0
C709 C 0.7919 0.06485 0.99232 0.0
C710 C 0.80451 0.07095 0.95692 0.0
C711 C 0.79834 0.08442 0.95044 0.0
C712 C 0.80908 0.09873 0.93491 0.0
C713 C 0.82656 0.09976 0.92592 0.0
C714 C 0.83207 0.08538 0.93156 0.0
C715 C 0.82068 0.07087 0.9468 0.0
C716 C 0.80232 0.11336 0.92881 0.0
C717 C 0.85067 0.0861 0.92237 0.0
C718 C 0.94195 0.25456 0.98359 0.0
C719 C 0.9341 0.23424 0.97316 0.0
C720 C 0.90474 0.20946 0.95036 0.0
C721 C 0.91119 0.19535 0.94837 0.0
C722 C 0.89945 0.17726 0.9361 0.0
C723 C 0.88079 0.17309 0.92591 0.0
C724 C 0.87409 0.1871 0.92821 0.0
C725 C 0.88629 0.20519 0.94028 0.0
C726 C 0.90696 0.16258 0.93399 0.0
C727 C 0.854 0.18292 0.91801 0.0
C728 C 0.91478 0.20377 0.79162 0.0
C729 C 0.91986 0.19029 0.80081 0.0
C730 C 0.9048 0.17271 0.81101 0.0
C731 C 0.88438 0.16877 0.81259 0.0
C732 C 0.87921 0.18229 0.80345 0.0
C733 C 0.89448 0.19957 0.79299 0.0
C734 C 0.91081 0.15847 0.82037 0.0
C735 C 0.85763 0.17864 0.80501 0.0
C736 C 0.75118 0.00934 0.78168 0.0
C737 C 0.7592 0.03232 0.7815 0.0
C738 C 0.79466 0.06113 0.78904 0.0
C739 C 0.81505 0.06571 0.79182 0.0
C740 C 0.83005 0.08339 0.80318 0.0
C741 C 0.82454 0.09702 0.81154 0.0
C742 C 0.80417 0.09297 0.80793 0.0
C743 C 0.78942 0.07501 0.79683 0.0
C744 C 0.85168 0.08734 0.80656 0.0
C745 C 0.79795 0.10755 0.81594 0.0
C746 C 0.84066 0.11761 0.91311 0.0
C747 C 0.85434 0.13606 0.92393 0.0
C748 C 0.86791 0.15383 0.91331 0.0
C749 C 0.86834 0.15322 0.8912 0.0
C750 C 0.88227 0.17071 0.88006 0.0
C751 C 0.88242 0.17004 0.85828 0.0
C752 C 0.86864 0.15186 0.8468 0.0
C753 C 0.86879 0.15102 0.82466 0.0
C754 C 0.85438 0.13295 0.81367 0.0
C755 C 0.83994 0.11541 0.82424 0.0
C756 C 0.84005 0.11571 0.84644 0.0
C757 C 0.82621 0.09817 0.85764 0.0
C758 C 0.82635 0.09871 0.87948 0.0
C759 C 0.84036 0.1168 0.89094 0.0
C760 C 0.8544 0.13467 0.87996 0.0
C761 C 0.85437 0.13407 0.85772 0.0
C762 C 0.96358 0.24018 0.79613 0.0
C763 C 0.94932 0.22749 0.77742 0.0
O764 O 0.79565 0.05848 0.97338 0.0
O765 O 0.78053 0.04325 0.77885 0.0
O766 O 0.92883 0.22097 0.78147 0.0
O767 O 0.91574 0.22732 0.96171 0.0
H768 H 0.80287 0.08174 0.9947 0.0
H769 H 0.81342 0.05982 0.01032 0.0
H770 H 0.78728 0.03778 0.00857 0.0
H771 H 0.79344 0.05946 0.02561 0.0
H772 H 0.78535 0.08402 0.95771 0.0
H773 H 0.82512 0.06019 0.95175 0.0
H774 H 0.81334 0.12875 0.93602 0.0
H775 H 0.78644 0.10819 0.93419 0.0
H776 H 0.8026 0.11501 0.91153 0.0
H777 H 0.85285 0.07378 0.92835 0.0
H778 H 0.86496 0.10122 0.92621 0.0
H779 H 0.84882 0.08449 0.90503 0.0
H780 H 0.94603 0.23299 0.96442 0.0
H781 H 0.95723 0.26523 0.97607 0.0
H782 H 0.93979 0.24827 0.01564 0.0
H783 H 0.9336 0.26145 0.9758 0.0
H784 H 0.92533 0.19833 0.95629 0.0
H785 H 0.8814 0.21612 0.94201 0.0
H786 H 0.9076 0.15913 0.91716 0.0
H787 H 0.8958 0.14788 0.94141 0.0
H788 H 0.9226 0.1688 0.94149 0.0
H789 H 0.85018 0.19454 0.92273 0.0
H790 H 0.84097 0.16748 0.92223 0.0
H791 H 0.85523 0.18298 0.9007 0.0
H792 H 0.95095 0.21404 0.77475 0.0
H793 H 0.93551 0.19334 0.80035 0.0
H794 H 0.89068 0.21003 0.78594 0.0
H795 H 0.91097 0.15967 0.83773 0.0
H796 H 0.92643 0.16219 0.81551 0.0
H797 H 0.89918 0.14229 0.81563 0.0
H798 H 0.85633 0.19108 0.79785 0.0
H799 H 0.85339 0.17749 0.82173 0.0
H800 H 0.84618 0.16383 0.797 0.0
H801 H 0.75562 0.03604 0.7972 0.0
H802 H 0.734 0.00025 0.78318 0.0
H803 H 0.7583 0.00609 0.79528 0.0
H804 H 0.75529 0.00429 0.76715 0.0
H805 H 0.81904 0.05505 0.78552 0.0
H806 H 0.77387 0.07198 0.7942 0.0
H807 H 0.85581 0.08936 0.82359 0.0
H808 H 0.86309 0.1018 0.7989 0.0
H809 H 0.85315 0.07465 0.80009 0.0
H810 H 0.78225 0.10332 0.80996 0.0
H811 H 0.80944 0.12347 0.81127 0.0
H812 H 0.79788 0.10746 0.83334 0.0
H813 H 0.85417 0.13667 0.94094 0.0
H814 H 0.89324 0.18512 0.88806 0.0
H815 H 0.89344 0.18402 0.85057 0.0
H816 H 0.85441 0.13251 0.79666 0.0
H817 H 0.81513 0.08381 0.84964 0.0
H818 H 0.81534 0.0848 0.8873 0.0
H819 H 0.98008 0.24601 0.79258 0.0
H820 H 0.95953 0.23051 0.81016 0.0
H821 H 0.96189 0.2534 0.79997 0.0
C822 C 0.79672 0.71267 0.99853 0.0
C823 C 0.78125 0.70967 0.98084 0.0
C824 C 0.79848 0.70617 0.94989 0.0
C825 C 0.81526 0.72666 0.94962 0.0
C826 C 0.83167 0.73251 0.93587 0.0
C827 C 0.83113 0.71764 0.92204 0.0
C828 C 0.81379 0.69725 0.92164 0.0
C829 C 0.79769 0.69183 0.93558 0.0
C830 C 0.84987 0.75442 0.93646 0.0
C831 C 0.8126 0.68101 0.907 0.0
C832 C 0.9672 0.72623 0.96029 0.0
C833 C 0.94575 0.70991 0.96813 0.0
C834 C 0.92064 0.70641 0.9407 0.0
C835 C 0.90588 0.69286 0.92574 0.0
C836 C 0.89319 0.69801 0.91456 0.0
C837 C 0.89575 0.7175 0.91811 0.0
C838 C 0.91101 0.73153 0.93287 0.0
C839 C 0.9232 0.7258 0.94415 0.0
C840 C 0.87677 0.68242 0.89928 0.0
C841 C 0.91424 0.75249 0.93691 0.0
C842 C 0.93799 0.74844 0.78666 0.0
C843 C 0.92065 0.72877 0.78996 0.0
C844 C 0.90349 0.72629 0.80076 0.0
C845 C 0.90375 0.74385 0.80844 0.0
C846 C 0.92083 0.76369 0.80433 0.0
C847 C 0.93765 0.76571 0.79326 0.0
C848 C 0.88521 0.70491 0.80425 0.0
C849 C 0.92152 0.78274 0.81205 0.0
C850 C 0.78559 0.76829 0.76637 0.0
C851 C 0.78774 0.74966 0.76274 0.0
C852 C 0.80388 0.74155 0.79123 0.0
C853 C 0.80076 0.72329 0.79917 0.0
C854 C 0.81719 0.72255 0.80872 0.0
C855 C 0.8369 0.74095 0.81167 0.0
C856 C 0.84003 0.7596 0.80387 0.0
C857 C 0.82353 0.7596 0.79339 0.0
C858 C 0.81331 0.70206 0.81563 0.0
C859 C 0.86068 0.77956 0.80675 0.0
C860 C 0.84947 0.72277 0.90945 0.0
C861 C 0.86461 0.71994 0.91875 0.0
C862 C 0.88146 0.72258 0.9075 0.0
C863 C 0.88353 0.72845 0.88634 0.0
C864 C 0.90047 0.73157 0.87464 0.0
C865 C 0.90174 0.73623 0.8535 0.0
C866 C 0.88603 0.73783 0.84323 0.0
C867 C 0.8866 0.74148 0.8215 0.0
C868 C 0.87053 0.74262 0.81175 0.0
C869 C 0.85402 0.74069 0.82322 0.0
C870 C 0.85347 0.73753 0.84508 0.0
C871 C 0.83744 0.73609 0.85727 0.0
C872 C 0.8362 0.73149 0.87843 0.0
C873 C 0.85114 0.72849 0.88827 0.0
C874 C 0.86808 0.73104 0.87659 0.0
C875 C 0.86926 0.7356 0.85498 0.0
C876 C 0.98585 0.75221 0.78761 0.0
C877 C 0.96356 0.73912 0.77871 0.0
O878 O 0.78291 0.6993 0.96378 0.0
O879 O 0.78751 0.74139 0.78201 0.0
O880 O 0.95516 0.75138 0.77701 0.0
O881 O 0.93193 0.70005 0.95132 0.0
H882 H 0.78436 0.7249 0.97593 0.0
H883 H 0.81299 0.7226 0.9935 0.0
H884 H 0.79438 0.69767 0.00315 0.0
H885 H 0.79465 0.72021 0.01245 0.0
H886 H 0.81587 0.73807 0.96028 0.0
H887 H 0.78456 0.67612 0.93575 0.0
H888 H 0.86408 0.75486 0.94211 0.0
H889 H 0.84728 0.76453 0.94691 0.0
H890 H 0.8528 0.76062 0.92041 0.0
H891 H 0.79763 0.66608 0.908 0.0
H892 H 0.82554 0.67863 0.91087 0.0
H893 H 0.81445 0.6862 0.89058 0.0
H894 H 0.93985 0.71737 0.97856 0.0
H895 H 0.97831 0.73409 0.97378 0.0
H896 H 0.96623 0.73801 0.95132 0.0
H897 H 0.97341 0.71909 0.94985 0.0
H898 H 0.90405 0.67798 0.92315 0.0
H899 H 0.9346 0.73658 0.95559 0.0
H900 H 0.88064 0.68815 0.8831 0.0
H901 H 0.86137 0.68019 0.9027 0.0
H902 H 0.87548 0.66731 0.89984 0.0
H903 H 0.92842 0.76256 0.94681 0.0
H904 H 0.90057 0.75078 0.94501 0.0
H905 H 0.91552 0.76012 0.92184 0.0
H906 H 0.95481 0.72661 0.78999 0.0
H907 H 0.92044 0.71535 0.78403 0.0
H908 H 0.95095 0.78082 0.79026 0.0
H909 H 0.88433 0.7016 0.82121 0.0
H910 H 0.88643 0.69299 0.79547 0.0
H911 H 0.87048 0.70382 0.79937 0.0
H912 H 0.93621 0.79705 0.80808 0.0
H913 H 0.91992 0.78236 0.82933 0.0
H914 H 0.90823 0.78315 0.80498 0.0
H915 H 0.80278 0.75511 0.75495 0.0
H916 H 0.78793 0.77663 0.75157 0.0
H917 H 0.77005 0.76342 0.77257 0.0
H918 H 0.79764 0.77919 0.77796 0.0
H919 H 0.78547 0.70943 0.79738 0.0
H920 H 0.82581 0.77378 0.78737 0.0
H921 H 0.81005 0.70041 0.83261 0.0
H922 H 0.82709 0.70082 0.81309 0.0
H923 H 0.79965 0.68908 0.8071 0.0
H924 H 0.85955 0.79306 0.80293 0.0
H925 H 0.87213 0.77938 0.79628 0.0
H926 H 0.86674 0.78144 0.82315 0.0
H927 H 0.8629 0.715 0.93486 0.0
H928 H 0.91284 0.73024 0.88166 0.0
H929 H 0.91504 0.73825 0.84524 0.0
H930 H 0.87081 0.74487 0.79497 0.0
H931 H 0.82549 0.73821 0.85053 0.0
H932 H 0.82331 0.73014 0.88695 0.0
H933 H 0.99293 0.74274 0.78932 0.0
H934 H 0.98579 0.75859 0.80334 0.0
H935 H 0.99556 0.7652 0.7772 0.0
C936 C 0.90602 0.62155 0.41243 0.0
C937 C 0.90373 0.63732 0.40007 0.0
C938 C 0.87915 0.6422 0.42064 0.0
C939 C 0.87794 0.65633 0.43353 0.0
C940 C 0.8591 0.65168 0.44214 0.0
C941 C 0.84101 0.63213 0.43794 0.0
C942 C 0.84202 0.61774 0.42471 0.0
C943 C 0.86111 0.62294 0.41606 0.0
C944 C 0.85865 0.66763 0.45587 0.0
C945 C 0.82297 0.5968 0.41996 0.0
C946 C 0.72217 0.66652 0.3883 0.0
C947 C 0.73715 0.66556 0.40291 0.0
C948 C 0.75124 0.64403 0.41056 0.0
C949 C 0.74815 0.62445 0.4082 0.0
C950 C 0.7607 0.61904 0.41931 0.0
C951 C 0.77687 0.63373 0.4329 0.0
C952 C 0.78052 0.6538 0.43486 0.0
C953 C 0.76759 0.6587 0.4238 0.0
C954 C 0.75652 0.59757 0.4168 0.0
C955 C 0.79803 0.67007 0.44875 0.0
C956 C 0.73134 0.61674 0.56602 0.0
C957 C 0.72939 0.5978 0.56146 0.0
C958 C 0.7447 0.59688 0.55029 0.0
C959 C 0.76246 0.61528 0.54384 0.0
C960 C 0.76436 0.63438 0.54826 0.0
C961 C 0.74855 0.63479 0.55899 0.0
C962 C 0.74196 0.57624 0.5455 0.0
C963 C 0.78323 0.65438 0.54194 0.0
C964 C 0.89951 0.60091 0.565 0.0
C965 C 0.89284 0.61604 0.57064 0.0
C966 C 0.857 0.60762 0.56825 0.0
C967 C 0.83713 0.59026 0.56475 0.0
C968 C 0.8214 0.59171 0.55444 0.0
C969 C 0.82561 0.61113 0.54802 0.0
C970 C 0.84525 0.62897 0.55299 0.0
C971 C 0.86081 0.627 0.56292 0.0
C972 C 0.80056 0.57241 0.54969 0.0
C973 C 0.85005 0.65004 0.54721 0.0
C974 C 0.82123 0.62689 0.44776 0.0
C975 C 0.8072 0.62984 0.43617 0.0
C976 C 0.78979 0.62814 0.44545 0.0
C977 C 0.78613 0.62328 0.46687 0.0
C978 C 0.76888 0.62166 0.47675 0.0
C979 C 0.76626 0.61837 0.49817 0.0
C980 C 0.78082 0.6166 0.51052 0.0
C981 C 0.77907 0.61458 0.53251 0.0
C982 C 0.79372 0.61265 0.54429 0.0
C983 C 0.81017 0.61262 0.53466 0.0
C984 C 0.81223 0.61474 0.51269 0.0
C985 C 0.82858 0.61479 0.50247 0.0
C986 C 0.83131 0.61831 0.48111 0.0
C987 C 0.81767 0.62171 0.4691 0.0
C988 C 0.80034 0.62041 0.4788 0.0
C989 C 0.79769 0.61707 0.50066 0.0
C990 C 0.69908 0.61319 0.61002 0.0
C991 C 0.70495 0.60415 0.59267 0.0
O992 O 0.89815 0.64796 0.41332 0.0
O993 O 0.87222 0.60514 0.57642 0.0
O994 O 0.7174 0.61823 0.57788 0.0
O995 O 0.73816 0.64815 0.39994 0.0
H996 H 0.89173 0.6294 0.38726 0.0
H997 H 0.89111 0.61034 0.41967 0.0
H998 H 0.91817 0.62933 0.4251 0.0
H999 H 0.91039 0.61289 0.40184 0.0
H1000 H 0.89196 0.67115 0.43689 0.0
H1001 H 0.86182 0.61187 0.40601 0.0
H1002 H 0.84556 0.66942 0.45088 0.0
H1003 H 0.87338 0.68285 0.45541 0.0
H1004 H 0.85616 0.66256 0.47234 0.0
H1005 H 0.82648 0.58698 0.41014 0.0
H1006 H 0.81098 0.59852 0.41162 0.0
H1007 H 0.81623 0.58891 0.43484 0.0
H1008 H 0.7359 0.66881 0.41974 0.0
H1009 H 0.71186 0.65061 0.38118 0.0
H1010 H 0.74119 0.69226 0.37031 0.0
H1011 H 0.70979 0.66556 0.39862 0.0
H1012 H 0.73561 0.61328 0.39785 0.0
H1013 H 0.77037 0.67403 0.42558 0.0
H1014 H 0.77045 0.59824 0.41052 0.0
H1015 H 0.74295 0.58773 0.40607 0.0
H1016 H 0.75358 0.5903 0.43234 0.0
H1017 H 0.8 0.6854 0.44707 0.0
H1018 H 0.81289 0.67127 0.44493 0.0
H1019 H 0.79488 0.66567 0.4654 0.0
H1020 H 0.692 0.58946 0.58553 0.0
H1021 H 0.71593 0.58371 0.5666 0.0
H1022 H 0.74991 0.64932 0.5626 0.0
H1023 H 0.74421 0.57479 0.52855 0.0
H1024 H 0.72636 0.56329 0.5497 0.0
H1025 H 0.75396 0.57497 0.55443 0.0
H1026 H 0.78349 0.66794 0.54873 0.0
H1027 H 0.7833 0.65537 0.5246 0.0
H1028 H 0.7977 0.65504 0.54705 0.0
H1029 H 0.89462 0.62471 0.55611 0.0
H1030 H 0.91611 0.60934 0.56059 0.0
H1031 H 0.8899 0.59098 0.55143 0.0
H1032 H 0.89741 0.59088 0.57836 0.0
H1033 H 0.83426 0.57542 0.56929 0.0
H1034 H 0.87598 0.64057 0.56636 0.0
H1035 H 0.79708 0.57075 0.53254 0.0
H1036 H 0.78817 0.57354 0.55744 0.0
H1037 H 0.79998 0.55841 0.55515 0.0
H1038 H 0.86447 0.66245 0.55533 0.0
H1039 H 0.83691 0.65195 0.55115 0.0
H1040 H 0.85219 0.65186 0.53004 0.0
H1041 H 0.81036 0.63441 0.41997 0.0
H1042 H 0.75736 0.62324 0.4681 0.0
H1043 H 0.75284 0.61754 0.50497 0.0
H1044 H 0.79244 0.61137 0.56118 0.0
H1045 H 0.8397 0.61246 0.51091 0.0
H1046 H 0.84439 0.61856 0.47415 0.0
H1047 H 0.68162 0.60516 0.60859 0.0
H1048 H 0.70196 0.62833 0.60435 0.0
H1049 H 0.71451 0.61083 0.63662 0.0
C1050 C 0.38929 0.28609 0.37154 0.0
C1051 C 0.36709 0.27081 0.37838 0.0
C1052 C 0.36729 0.25417 0.41021 0.0
C1053 C 0.34919 0.23838 0.41893 0.0
C1054 C 0.34937 0.22263 0.42973 0.0
C1055 C 0.36819 0.22292 0.4319 0.0
C1056 C 0.38662 0.23912 0.42338 0.0
C1057 C 0.38598 0.2547 0.41273 0.0
C1058 C 0.32949 0.20566 0.43879 0.0
C1059 C 0.40697 0.24 0.42563 0.0
C1060 C 0.3458 0.07772 0.36944 0.0
C1061 C 0.35521 0.09938 0.37705 0.0
C1062 C 0.34785 0.11943 0.40159 0.0
C1063 C 0.36844 0.13637 0.40308 0.0
C1064 C 0.37367 0.15353 0.41595 0.0
C1065 C 0.35799 0.15387 0.42735 0.0
C1066 C 0.33723 0.13696 0.4257 0.0
C1067 C 0.33248 0.11989 0.41293 0.0
C1068 C 0.39597 0.1713 0.41743 0.0
C1069 C 0.32007 0.13693 0.43742 0.0
C1070 C 0.36427 0.12061 0.56155 0.0
C1071 C 0.38487 0.13693 0.55927 0.0
C1072 C 0.38914 0.15456 0.54849 0.0
C1073 C 0.37244 0.15598 0.54021 0.0
C1074 C 0.35167 0.13963 0.54282 0.0
C1075 C 0.34793 0.122 0.5531 0.0
C1076 C 0.41146 0.17163 0.54588 0.0
C1077 C 0.33337 0.14076 0.53488 0.0
C1078 C 0.41321 0.31552 0.5709 0.0
C1079 C 0.39759 0.2932 0.57625 0.0
C1080 C 0.40137 0.26433 0.56659 0.0
C1081 C 0.41651 0.26042 0.5601 0.0
C1082 C 0.41101 0.24243 0.54862 0.0
C1083 C 0.38977 0.22785 0.54391 0.0
C1084 C 0.37428 0.23122 0.55138 0.0
C1085 C 0.38024 0.24947 0.56265 0.0
C1086 C 0.42791 0.23919 0.54115 0.0
C1087 C 0.35146 0.21568 0.54719 0.0
C1088 C 0.36853 0.2062 0.443 0.0
C1089 C 0.36385 0.18866 0.4313 0.0
C1090 C 0.36327 0.17204 0.44079 0.0
C1091 C 0.36733 0.17279 0.46262 0.0
C1092 C 0.36677 0.1563 0.47271 0.0
C1093 C 0.37004 0.15689 0.49431 0.0
C1094 C 0.37411 0.17405 0.50664 0.0
C1095 C 0.37653 0.17443 0.52871 0.0
C1096 C 0.38156 0.1921 0.54039 0.0
C1097 C 0.38386 0.2094 0.53065 0.0
C1098 C 0.38055 0.20896 0.50869 0.0
C1099 C 0.38191 0.22577 0.49847 0.0
C1100 C 0.37796 0.22492 0.47697 0.0
C1101 C 0.37289 0.20737 0.46479 0.0
C1102 C 0.37204 0.19048 0.47467 0.0
C1103 C 0.37565 0.1912 0.49667 0.0
C1104 C 0.35949 0.0846 0.60154 0.0
C1105 C 0.37189 0.10135 0.58672 0.0
O1106 O 0.36668 0.26923 0.40001 0.0
O1107 O 0.40776 0.28253 0.57663 0.0
O1108 O 0.35942 0.10336 0.57195 0.0
O1109 O 0.34219 0.10239 0.38955 0.0
H1110 H 0.36174 0.25554 0.37082 0.0
H1111 H 0.39944 0.27991 0.37445 0.0
H1112 H 0.39588 0.301 0.38024 0.0
H1113 H 0.38941 0.28879 0.35445 0.0
H1114 H 0.3349 0.23836 0.4171 0.0
H1115 H 0.4001 0.26739 0.4066 0.0
H1116 H 0.32539 0.19067 0.43158 0.0
H1117 H 0.31625 0.20788 0.43611 0.0
H1118 H 0.33179 0.2049 0.45592 0.0
H1119 H 0.41986 0.25347 0.41782 0.0
H1120 H 0.40524 0.22577 0.41876 0.0
H1121 H 0.41124 0.24078 0.44251 0.0
H1122 H 0.36277 0.11125 0.36486 0.0
H1123 H 0.34437 0.07829 0.35189 0.0
H1124 H 0.32855 0.06977 0.37189 0.0
H1125 H 0.36456 0.06845 0.38395 0.0
H1126 H 0.38052 0.13631 0.39433 0.0
H1127 H 0.31665 0.10679 0.41167 0.0
H1128 H 0.39699 0.18525 0.41118 0.0
H1129 H 0.40657 0.16821 0.40853 0.0
H1130 H 0.40144 0.17468 0.4341 0.0
H1131 H 0.30454 0.1231 0.43354 0.0
H1132 H 0.31968 0.15084 0.43368 0.0
H1133 H 0.32319 0.13745 0.45456 0.0
H1134 H 0.38534 0.10143 0.57978 0.0
H1135 H 0.39762 0.13585 0.56566 0.0
H1136 H 0.3321 0.10932 0.55505 0.0
H1137 H 0.4142 0.17604 0.5292 0.0
H1138 H 0.42264 0.16722 0.55112 0.0
H1139 H 0.41464 0.18536 0.55523 0.0
H1140 H 0.31846 0.12848 0.54133 0.0
H1141 H 0.33213 0.13904 0.51753 0.0
H1142 H 0.33557 0.15591 0.53909 0.0
H1143 H 0.38529 0.28694 0.56358 0.0
H1144 H 0.40543 0.32443 0.57032 0.0
H1145 H 0.41973 0.31611 0.55529 0.0
H1146 H 0.42624 0.32284 0.58275 0.0
H1147 H 0.43275 0.27183 0.56355 0.0
H1148 H 0.36839 0.25204 0.5684 0.0
H1149 H 0.42685 0.23736 0.52379 0.0
H1150 H 0.42571 0.22483 0.54769 0.0
H1151 H 0.44373 0.25216 0.54585 0.0
H1152 H 0.3413 0.21985 0.55536 0.0
H1153 H 0.34764 0.2003 0.55231 0.0
H1154 H 0.34792 0.21447 0.53007 0.0
H1155 H 0.3605 0.18788 0.41458 0.0
H1156 H 0.36357 0.14264 0.46405 0.0
H1157 H 0.36927 0.14369 0.50124 0.0
H1158 H 0.38348 0.19233 0.55731 0.0
H1159 H 0.38577 0.2397 0.50702 0.0
H1160 H 0.37894 0.23821 0.47001 0.0
H1161 H 0.36483 0.10009 0.63056 0.0
H1162 H 0.36415 0.07305 0.5986 0.0
H1163 H 0.34344 0.07463 0.59416 0.0
C1164 C 0.87088 0.25945 0.35408 0.0
C1165 C 0.88479 0.26631 0.37401 0.0
C1166 C 0.86312 0.23927 0.39912 0.0
C1167 C 0.84809 0.24452 0.40206 0.0
C1168 C 0.83099 0.23263 0.4148 0.0
C1169 C 0.82905 0.21535 0.42483 0.0
C1170 C 0.84448 0.21042 0.42229 0.0
C1171 C 0.86128 0.22246 0.40944 0.0
C1172 C 0.81489 0.23836 0.41742 0.0
C1173 C 0.8431 0.19227 0.43292 0.0
C1174 C 0.71507 0.10496 0.34445 0.0
C1175 C 0.72436 0.1022 0.36475 0.0
C1176 C 0.73056 0.1221 0.39691 0.0
C1177 C 0.74742 0.12136 0.4053 0.0
C1178 C 0.7617 0.1366 0.41956 0.0
C1179 C 0.75918 0.15305 0.42534 0.0
C1180 C 0.7416 0.15326 0.41771 0.0
C1181 C 0.72729 0.13753 0.40378 0.0
C1182 C 0.77994 0.13552 0.42774 0.0
C1183 C 0.73841 0.17052 0.42359 0.0
C1184 C 0.72455 0.1328 0.56087 0.0
C1185 C 0.74086 0.12964 0.55674 0.0
C1186 C 0.75824 0.14417 0.54574 0.0
C1187 C 0.75939 0.16225 0.53897 0.0
C1188 C 0.74339 0.16583 0.54388 0.0
C1189 C 0.72621 0.15106 0.55488 0.0
C1190 C 0.7753 0.14014 0.54114 0.0
C1191 C 0.74432 0.18511 0.5372 0.0
C1192 C 0.90205 0.29963 0.56424 0.0
C1193 C 0.89434 0.28212 0.57973 0.0
C1194 C 0.86904 0.2505 0.55953 0.0
C1195 C 0.86591 0.23203 0.55149 0.0
C1196 C 0.84727 0.21764 0.54097 0.0
C1197 C 0.83144 0.22206 0.53814 0.0
C1198 C 0.83435 0.24065 0.54642 0.0
C1199 C 0.85313 0.25471 0.55714 0.0
C1200 C 0.84462 0.19783 0.53269 0.0
C1201 C 0.81775 0.24576 0.5436 0.0
C1202 C 0.81054 0.20185 0.43733 0.0
C1203 C 0.7932 0.18556 0.42679 0.0
C1204 C 0.77597 0.17088 0.43768 0.0
C1205 C 0.7758 0.17263 0.45976 0.0
C1206 C 0.75881 0.15812 0.47125 0.0
C1207 C 0.75903 0.15974 0.49303 0.0
C1208 C 0.7764 0.17578 0.50417 0.0
C1209 C 0.77707 0.17722 0.52634 0.0
C1210 C 0.79491 0.19286 0.53694 0.0
C1211 C 0.81216 0.20735 0.52596 0.0
C1212 C 0.8115 0.20663 0.50378 0.0
C1213 C 0.82839 0.22132 0.49226 0.0
C1214 C 0.82797 0.21999 0.47048 0.0
C1215 C 0.8107 0.20387 0.45939 0.0
C1216 C 0.79329 0.18916 0.47064 0.0
C1217 C 0.79366 0.19062 0.49287 0.0
C1218 C 0.67548 0.08662 0.56651 0.0
C1219 C 0.69885 0.09781 0.57158 0.0
O1220 O 0.87951 0.2496 0.38639 0.0
O1221 O 0.88777 0.26373 0.56908 0.0
O1222 O 0.70707 0.11878 0.57068 0.0
O1223 O 0.71769 0.10852 0.3817 0.0
H1224 H 0.8831 0.27787 0.383 0.0
H1225 H 0.87546 0.27282 0.34399 0.0
H1226 H 0.87221 0.2477 0.34507 0.0
H1227 H 0.85434 0.25271 0.35807 0.0
H1228 H 0.84945 0.25766 0.39438 0.0
H1229 H 0.87305 0.21866 0.40716 0.0
H1230 H 0.79963 0.22578 0.41092 0.0
H1231 H 0.8191 0.2528 0.40942 0.0
H1232 H 0.81297 0.24025 0.43436 0.0
H1233 H 0.85638 0.19049 0.42926 0.0
H1234 H 0.82842 0.17798 0.42792 0.0
H1235 H 0.84277 0.19407 0.45018 0.0
H1236 H 0.74156 0.11233 0.36338 0.0
H1237 H 0.71966 0.09932 0.33072 0.0
H1238 H 0.72101 0.12153 0.34243 0.0
H1239 H 0.69782 0.0966 0.34483 0.0
H1240 H 0.74959 0.10904 0.40047 0.0
H1241 H 0.71406 0.13779 0.39739 0.0
H1242 H 0.78267 0.13936 0.4448 0.0
H1243 H 0.79413 0.14694 0.41958 0.0
H1244 H 0.7776 0.12008 0.42498 0.0
H1245 H 0.7238 0.1683 0.41654 0.0
H1246 H 0.75174 0.18531 0.41829 0.0
H1247 H 0.73794 0.17172 0.44091 0.0
H1248 H 0.70559 0.09266 0.5594 0.0
H1249 H 0.74015 0.11595 0.56212 0.0
H1250 H 0.7137 0.15349 0.55846 0.0
H1251 H 0.77705 0.13978 0.52392 0.0
H1252 H 0.77216 0.12539 0.54756 0.0
H1253 H 0.79033 0.15283 0.54796 0.0
H1254 H 0.73091 0.18588 0.54278 0.0
H1255 H 0.74446 0.18578 0.51982 0.0
H1256 H 0.75896 0.19883 0.54339 0.0
H1257 H 0.8813 0.28095 0.58872 0.0
H1258 H 0.90749 0.31441 0.57279 0.0
H1259 H 0.88929 0.29676 0.5531 0.0
H1260 H 0.91507 0.301 0.5551 0.0
H1261 H 0.87827 0.22893 0.55347 0.0
H1262 H 0.85533 0.26896 0.56329 0.0
H1263 H 0.84405 0.1976 0.51528 0.0
H1264 H 0.82969 0.18452 0.53788 0.0
H1265 H 0.85754 0.19587 0.53798 0.0
H1266 H 0.82256 0.26109 0.55049 0.0
H1267 H 0.80329 0.23394 0.55112 0.0
H1268 H 0.814 0.24549 0.52663 0.0
H1269 H 0.79341 0.18388 0.4099 0.0
H1270 H 0.74516 0.14531 0.46352 0.0
H1271 H 0.74552 0.1481 0.50105 0.0
H1272 H 0.79553 0.19349 0.55395 0.0
H1273 H 0.84217 0.23398 0.49997 0.0
H1274 H 0.84145 0.23166 0.46244 0.0
H1275 H 0.6676 0.09104 0.57807 0.0
H1276 H 0.66842 0.06971 0.56672 0.0
H1277 H 0.67278 0.09069 0.55062 0.0
C1278 C 0.05268 0.46874 0.33113 0.0
C1279 C 0.03381 0.4554 0.31654 0.0
C1280 C 0.03071 0.46766 0.28247 0.0
C1281 C 0.0091 0.45891 0.28109 0.0
C1282 C 0.00039 0.46702 0.26772 0.0
C1283 C 0.01363 0.48434 0.2557 0.0
C1284 C 0.0354 0.49279 0.25665 0.0
C1285 C 0.04361 0.48403 0.26977 0.0
C1286 C 0.97709 0.45731 0.26668 0.0
C1287 C 0.05006 0.51141 0.24431 0.0
C1288 C 0.97798 0.56778 0.33606 0.0
C1289 C 0.99158 0.57641 0.31691 0.0
C1290 C 0.98256 0.55678 0.28411 0.0
C1291 C 0.00254 0.56373 0.27688 0.0
C1292 C 0.0059 0.55171 0.2627 0.0
C1293 C 0.98894 0.53225 0.25587 0.0
C1294 C 0.96864 0.52558 0.26255 0.0
C1295 C 0.96567 0.53818 0.27633 0.0
C1296 C 0.02767 0.55955 0.25548 0.0
C1297 C 0.95023 0.50485 0.25578 0.0
C1298 C 0.9551 0.54101 0.1262 0.0
C1299 C 0.97668 0.55085 0.12992 0.0
C1300 C 0.98546 0.54006 0.13804 0.0
C1301 C 0.97233 0.51908 0.1428 0.0
C1302 C 0.95075 0.50884 0.13787 0.0
C1303 C 0.94246 0.51994 0.12937 0.0
C1304 C 0.00865 0.55127 0.14231 0.0
C1305 C 0.93635 0.48641 0.1424 0.0
C1306 C 0.02814 0.41344 0.14425 0.0
C1307 C 0.01188 0.41393 0.13001 0.0
C1308 C 0.01239 0.44612 0.12837 0.0
C1309 C 0.0266 0.46726 0.13041 0.0
C1310 C 0.02038 0.48053 0.13765 0.0
C1311 C 0.99936 0.47236 0.14277 0.0
C1312 C 0.98456 0.45124 0.13898 0.0
C1313 C 0.9912 0.43832 0.13167 0.0
C1314 C 0.03647 0.50308 0.14094 0.0
C1315 C 0.96191 0.44218 0.14366 0.0
C1316 C 0.00486 0.49441 0.2432 0.0
C1317 C 0.00035 0.50755 0.25388 0.0
C1318 C 0.99279 0.51824 0.24323 0.0
C1319 C 0.98955 0.51579 0.22122 0.0
C1320 C 0.98205 0.52635 0.20999 0.0
C1321 C 0.97887 0.52376 0.18834 0.0
C1322 C 0.98353 0.51086 0.17699 0.0
C1323 C 0.98077 0.50846 0.15489 0.0
C1324 C 0.98594 0.49582 0.14408 0.0
C1325 C 0.99356 0.4852 0.15485 0.0
C1326 C 0.99598 0.48707 0.17697 0.0
C1327 C 0.00314 0.47621 0.18831 0.0
C1328 C 0.0058 0.47837 0.21001 0.0
C1329 C 0.00163 0.49164 0.22122 0.0
C1330 C 0.99405 0.50247 0.21018 0.0
C1331 C 0.99116 0.50011 0.18803 0.0
C1332 C 0.93436 0.57328 0.13135 0.0
C1333 C 0.95291 0.57165 0.1252 0.0
O1334 O 0.03956 0.46072 0.29598 0.0
O1335 O 0.01973 0.43382 0.12341 0.0
O1336 O 0.94595 0.55137 0.11991 0.0
O1337 O 0.97924 0.56751 0.29891 0.0
H1338 H 0.02162 0.45868 0.32091 0.0
H1339 H 0.05821 0.48521 0.32906 0.0
H1340 H 0.0656 0.46636 0.32756 0.0
H1341 H 0.04844 0.46498 0.34777 0.0
H1342 H 0.99907 0.44577 0.29046 0.0
H1343 H 0.06026 0.49047 0.27082 0.0
H1344 H 0.97307 0.46793 0.27406 0.0
H1345 H 0.96882 0.44248 0.27489 0.0
H1346 H 0.97139 0.45463 0.25008 0.0
H1347 H 0.06665 0.5171 0.24814 0.0
H1348 H 0.04722 0.52401 0.2475 0.0
H1349 H 0.04714 0.50754 0.22728 0.0
H1350 H 0.0036 0.5722 0.3183 0.0
H1351 H 0.98754 0.57457 0.35073 0.0
H1352 H 0.97078 0.55086 0.33626 0.0
H1353 H 0.96536 0.57113 0.33563 0.0
H1354 H 0.0155 0.57847 0.28248 0.0
H1355 H 0.95027 0.53312 0.28188 0.0
H1356 H 0.03368 0.55054 0.26282 0.0
H1357 H 0.03852 0.57604 0.25976 0.0
H1358 H 0.02757 0.55747 0.2382 0.0
H1359 H 0.93564 0.50153 0.26322 0.0
H1360 H 0.95327 0.4926 0.25987 0.0
H1361 H 0.94789 0.50419 0.2385 0.0
H1362 H 0.96337 0.57669 0.13945 0.0
H1363 H 0.98669 0.567 0.12673 0.0
H1364 H 0.92587 0.51239 0.12606 0.0
H1365 H 0.01188 0.55366 0.15949 0.0
H1366 H 0.017 0.56649 0.13486 0.0
H1367 H 0.01495 0.54195 0.13647 0.0
H1368 H 0.91995 0.48067 0.13757 0.0
H1369 H 0.93703 0.48398 0.15945 0.0
H1370 H 0.9415 0.47714 0.13401 0.0
H1371 H 0.99809 0.40865 0.13993 0.0
H1372 H 0.02272 0.3974 0.14855 0.0
H1373 H 0.03056 0.42253 0.1589 0.0
H1374 H 0.04336 0.42023 0.13657 0.0
H1375 H 0.04282 0.47322 0.12726 0.0
H1376 H 0.97986 0.42215 0.12886 0.0
H1377 H 0.03924 0.50682 0.15802 0.0
H1378 H 0.03071 0.51249 0.13408 0.0
H1379 H 0.05152 0.50744 0.13384 0.0
H1380 H 0.95208 0.42582 0.13843 0.0
H1381 H 0.95604 0.45109 0.13582 0.0
H1382 H 0.96026 0.44327 0.16081 0.0
H1383 H 0.00298 0.50968 0.27075 0.0
H1384 H 0.97847 0.53668 0.21784 0.0
H1385 H 0.97287 0.53216 0.18062 0.0
H1386 H 0.98404 0.49423 0.12713 0.0
H1387 H 0.00678 0.46588 0.18058 0.0
H1388 H 0.01131 0.46961 0.21789 0.0
H1389 H 0.92228 0.56734 0.11854 0.0
H1390 H 0.93955 0.58953 0.13512 0.0
H1391 H 0.92718 0.56409 0.14547 0.0
C1392 C 0.45267 0.38984 0.33134 0.0
C1393 C 0.44658 0.39829 0.31279 0.0
C1394 C 0.46097 0.40435 0.27834 0.0
C1395 C 0.4549 0.4174 0.27031 0.0
C1396 C 0.46727 0.43249 0.256 0.0
C1397 C 0.48627 0.43473 0.24994 0.0
C1398 C 0.49167 0.42064 0.25693 0.0
C1399 C 0.47873 0.40536 0.2709 0.0
C1400 C 0.46063 0.44679 0.24836 0.0
C1401 C 0.51171 0.42251 0.25063 0.0
C1402 C 0.60339 0.59319 0.3072 0.0
C1403 C 0.59497 0.57125 0.30147 0.0
C1404 C 0.56315 0.54322 0.28417 0.0
C1405 C 0.57157 0.53138 0.27836 0.0
C1406 C 0.56014 0.51381 0.2653 0.0
C1407 C 0.53997 0.50806 0.25792 0.0
C1408 C 0.53135 0.51977 0.26407 0.0
C1409 C 0.54306 0.53716 0.27723 0.0
C1410 C 0.56965 0.50151 0.25914 0.0
C1411 C 0.50985 0.51404 0.25658 0.0
C1412 C 0.5708 0.55875 0.13357 0.0
C1413 C 0.57751 0.54476 0.13315 0.0
C1414 C 0.56431 0.52439 0.13926 0.0
C1415 C 0.54389 0.51779 0.14546 0.0
C1416 C 0.5366 0.53138 0.14429 0.0
C1417 C 0.55018 0.55171 0.13832 0.0
C1418 C 0.57237 0.51009 0.13981 0.0
C1419 C 0.51473 0.5247 0.15021 0.0
C1420 C 0.43715 0.35831 0.09594 0.0
C1421 C 0.43686 0.37812 0.09462 0.0
C1422 C 0.46821 0.40999 0.10763 0.0
C1423 C 0.48972 0.41875 0.10929 0.0
C1424 C 0.50205 0.43491 0.1237 0.0
C1425 C 0.49268 0.44315 0.13612 0.0
C1426 C 0.47097 0.43483 0.13395 0.0
C1427 C 0.45891 0.418 0.12017 0.0
C1428 C 0.52509 0.4432 0.12552 0.0
C1429 C 0.46039 0.44377 0.14596 0.0
C1430 C 0.50175 0.45364 0.23927 0.0
C1431 C 0.5143 0.47107 0.25204 0.0
C1432 C 0.52799 0.49005 0.24342 0.0
C1433 C 0.52931 0.49188 0.22143 0.0
C1434 C 0.54263 0.51089 0.21229 0.0
C1435 C 0.54335 0.51272 0.19065 0.0
C1436 C 0.53079 0.49559 0.17728 0.0
C1437 C 0.53098 0.49751 0.15526 0.0
C1438 C 0.51846 0.48019 0.14238 0.0
C1439 C 0.50568 0.46079 0.15088 0.0
C1440 C 0.50516 0.45862 0.17294 0.0
C1441 C 0.49246 0.43944 0.18217 0.0
C1442 C 0.49122 0.43773 0.2039 0.0
C1443 C 0.50316 0.45502 0.21721 0.0
C1444 C 0.51681 0.47431 0.20827 0.0
C1445 C 0.51764 0.47615 0.18614 0.0
C1446 C 0.61021 0.60726 0.14988 0.0
C1447 C 0.60497 0.5909 0.13275 0.0
O1448 O 0.45061 0.39162 0.2942 0.0
O1449 O 0.45723 0.39446 0.09322 0.0
O1450 O 0.58355 0.579 0.12946 0.0
O1451 O 0.5739 0.56072 0.29613 0.0
H1452 H 0.45669 0.41536 0.3145 0.0
H1453 H 0.46968 0.39612 0.33137 0.0
H1454 H 0.44444 0.37282 0.3303 0.0
H1455 H 0.44895 0.39452 0.34638 0.0
H1456 H 0.4408 0.41614 0.27567 0.0
H1457 H 0.48311 0.39501 0.27708 0.0
H1458 H 0.47039 0.462 0.25641 0.0
H1459 H 0.44406 0.44094 0.2516 0.0
H1460 H 0.46295 0.44905 0.23125 0.0
H1461 H 0.51287 0.4094 0.25601 0.0
H1462 H 0.5251 0.43697 0.2575 0.0
H1463 H 0.51297 0.42334 0.23332 0.0
H1464 H 0.59918 0.56275 0.31251 0.0
H1465 H 0.60831 0.59476 0.32423 0.0
H1466 H 0.58963 0.59472 0.31032 0.0
H1467 H 0.62453 0.60933 0.28357 0.0
H1468 H 0.58704 0.5358 0.28391 0.0
H1469 H 0.5367 0.54637 0.28189 0.0
H1470 H 0.57107 0.50157 0.24185 0.0
H1471 H 0.5593 0.48528 0.26367 0.0
H1472 H 0.58529 0.50767 0.26662 0.0
H1473 H 0.50567 0.52513 0.26227 0.0
H1474 H 0.49823 0.49856 0.26218 0.0
H1475 H 0.50886 0.51331 0.23917 0.0
H1476 H 0.61131 0.58173 0.13894 0.0
H1477 H 0.59301 0.54962 0.12819 0.0
H1478 H 0.54496 0.56244 0.13806 0.0
H1479 H 0.57223 0.50516 0.15613 0.0
H1480 H 0.58846 0.51739 0.13403 0.0
H1481 H 0.56199 0.49609 0.13005 0.0
H1482 H 0.51064 0.53621 0.14604 0.0
H1483 H 0.51318 0.5224 0.16739 0.0
H1484 H 0.50338 0.50979 0.14228 0.0
H1485 H 0.42986 0.37906 0.10943 0.0
H1486 H 0.42115 0.34481 0.09763 0.0
H1487 H 0.44662 0.35923 0.10993 0.0
H1488 H 0.44424 0.35612 0.08183 0.0
H1489 H 0.49682 0.41262 0.09944 0.0
H1490 H 0.44233 0.41162 0.11894 0.0
H1491 H 0.53037 0.44551 0.14224 0.0
H1492 H 0.53372 0.45833 0.11796 0.0
H1493 H 0.52922 0.43281 0.11775 0.0
H1494 H 0.44499 0.43913 0.13874 0.0
H1495 H 0.47016 0.46081 0.14676 0.0
H1496 H 0.45786 0.43817 0.16223 0.0
H1497 H 0.51303 0.46994 0.26895 0.0
H1498 H 0.55255 0.52464 0.22177 0.0
H1499 H 0.55384 0.5278 0.18458 0.0
H1500 H 0.51856 0.48186 0.12551 0.0
H1501 H 0.48308 0.42556 0.1727 0.0
H1502 H 0.48086 0.42269 0.21016 0.0
H1503 H 0.62734 0.61792 0.15164 0.0
H1504 H 0.60429 0.59969 0.16509 0.0
H1505 H 0.60283 0.61619 0.14633 0.0
C1506 C 0.44004 0.00261 0.33716 0.0
C1507 C 0.42802 0.00294 0.31771 0.0
C1508 C 0.44508 0.99633 0.28875 0.0
C1509 C 0.46352 0.01583 0.28929 0.0
C1510 C 0.47987 0.02016 0.27602 0.0
C1511 C 0.47782 0.00466 0.26208 0.0
C1512 C 0.45926 0.98507 0.26141 0.0
C1513 C 0.44308 0.98124 0.27467 0.0
C1514 C 0.49944 0.04124 0.27699 0.0
C1515 C 0.45663 0.96811 0.24688 0.0
C1516 C 0.60376 0.98054 0.30197 0.0
C1517 C 0.5843 0.97808 0.29298 0.0
C1518 C 0.57204 0.99906 0.27764 0.0
C1519 C 0.55366 0.98243 0.26854 0.0
C1520 C 0.53926 0.98561 0.25785 0.0
C1521 C 0.5432 0.00576 0.25646 0.0
C1522 C 0.56166 0.02252 0.26561 0.0
C1523 C 0.57594 0.01894 0.27595 0.0
C1524 C 0.51977 0.96742 0.24813 0.0
C1525 C 0.56618 0.04417 0.26463 0.0
C1526 C 0.57888 0.03721 0.11839 0.0
C1527 C 0.56271 0.01755 0.12335 0.0
C1528 C 0.54728 0.01473 0.13721 0.0
C1529 C 0.54843 0.0321 0.14673 0.0
C1530 C 0.56524 0.05204 0.14245 0.0
C1531 C 0.5803 0.05441 0.1283 0.0
C1532 C 0.5295 0.99324 0.1413 0.0
C1533 C 0.56709 0.07085 0.15261 0.0
C1534 C 0.42238 0.05339 0.13257 0.0
C1535 C 0.42902 0.04346 0.11609 0.0
C1536 C 0.44796 0.02914 0.13343 0.0
C1537 C 0.44692 0.01064 0.13663 0.0
C1538 C 0.46371 0.01027 0.14571 0.0
C1539 C 0.48186 0.02897 0.15222 0.0
C1540 C 0.48312 0.04783 0.14894 0.0
C1541 C 0.46614 0.04775 0.13948 0.0
C1542 C 0.46193 0.98988 0.1486 0.0
C1543 C 0.50225 0.06799 0.15583 0.0
C1544 C 0.49539 0.00868 0.24877 0.0
C1545 C 0.51095 0.00628 0.25768 0.0
C1546 C 0.52767 0.00918 0.24598 0.0
C1547 C 0.52905 0.01465 0.22473 0.0
C1548 C 0.54561 0.01755 0.21247 0.0
C1549 C 0.54667 0.0227 0.19149 0.0
C1550 C 0.53105 0.02487 0.18192 0.0
C1551 C 0.53161 0.02948 0.16045 0.0
C1552 C 0.51565 0.03121 0.15137 0.0
C1553 C 0.4991 0.02858 0.16319 0.0
C1554 C 0.49842 0.02431 0.18475 0.0
C1555 C 0.48212 0.02189 0.19715 0.0
C1556 C 0.48119 0.01697 0.21817 0.0
C1557 C 0.49651 0.01427 0.22758 0.0
C1558 C 0.51335 0.01713 0.2155 0.0
C1559 C 0.51433 0.02221 0.19406 0.0
C1560 C 0.59046 0.05959 0.07692 0.0
C1561 C 0.60448 0.05557 0.09122 0.0
O1562 O 0.42893 0.99123 0.30151 0.0
O1563 O 0.4308 0.02806 0.12505 0.0
O1564 O 0.59245 0.03886 0.1037 0.0
O1565 O 0.58634 0.99664 0.28815 0.0
H1566 H 0.43481 0.01905 0.31271 0.0
H1567 H 0.45671 0.00934 0.3337 0.0
H1568 H 0.43357 0.98659 0.34229 0.0
H1569 H 0.4391 0.01179 0.35022 0.0
H1570 H 0.46542 0.02775 0.30005 0.0
H1571 H 0.42881 0.96626 0.27434 0.0
H1572 H 0.51269 0.04006 0.28282 0.0
H1573 H 0.49802 0.05211 0.28748 0.0
H1574 H 0.50317 0.04764 0.26104 0.0
H1575 H 0.44159 0.95346 0.24893 0.0
H1576 H 0.46953 0.96542 0.24972 0.0
H1577 H 0.45738 0.97276 0.23036 0.0
H1578 H 0.56992 0.96778 0.30171 0.0
H1579 H 0.59988 0.97495 0.31848 0.0
H1580 H 0.61418 0.9972 0.30695 0.0
H1581 H 0.61222 0.96629 0.27939 0.0
H1582 H 0.55046 0.96695 0.26969 0.0
H1583 H 0.59016 0.03165 0.28299 0.0
H1584 H 0.51811 0.97025 0.23138 0.0
H1585 H 0.50596 0.96536 0.25625 0.0
H1586 H 0.51977 0.95296 0.24914 0.0
H1587 H 0.58084 0.05542 0.27327 0.0
H1588 H 0.55313 0.04491 0.27133 0.0
H1589 H 0.56744 0.04874 0.24802 0.0
H1590 H 0.61468 0.06941 0.10133 0.0
H1591 H 0.56185 0.00437 0.11576 0.0
H1592 H 0.59299 0.06971 0.12495 0.0
H1593 H 0.52957 0.98997 0.15818 0.0
H1594 H 0.53041 0.98142 0.13196 0.0
H1595 H 0.51444 0.99192 0.13747 0.0
H1596 H 0.58199 0.08515 0.14909 0.0
H1597 H 0.56593 0.06919 0.16988 0.0
H1598 H 0.55403 0.0724 0.14691 0.0
H1599 H 0.44415 0.05535 0.10959 0.0
H1600 H 0.42098 0.06582 0.12553 0.0
H1601 H 0.43415 0.06021 0.14565 0.0
H1602 H 0.40716 0.04177 0.13907 0.0
H1603 H 0.43278 0.99638 0.13192 0.0
H1604 H 0.46702 0.06217 0.13732 0.0
H1605 H 0.46145 0.98673 0.16558 0.0
H1606 H 0.47576 0.99037 0.14229 0.0
H1607 H 0.4477 0.97698 0.1407 0.0
H1608 H 0.50062 0.08131 0.15267 0.0
H1609 H 0.51596 0.07006 0.14749 0.0
H1610 H 0.50537 0.06783 0.17288 0.0
H1611 H 0.50993 0.00189 0.27393 0.0
H1612 H 0.55794 0.01584 0.21895 0.0
H1613 H 0.55978 0.02476 0.18281 0.0
H1614 H 0.51595 0.03431 0.13478 0.0
H1615 H 0.46983 0.02367 0.19073 0.0
H1616 H 0.46823 0.01519 0.22693 0.0
H1617 H 0.57993 0.04573 0.067 0.0
H1618 H 0.60002 0.07269 0.06659 0.0
H1619 H 0.58082 0.06357 0.08632 0.0
C1620 C 0.54824 0.97096 0.68138 0.0
C1621 C 0.55709 0.98472 0.70116 0.0
C1622 C 0.5417 0.97762 0.73549 0.0
C1623 C 0.55059 0.99799 0.74283 0.0
C1624 C 0.5414 0.00286 0.75891 0.0
C1625 C 0.52283 0.98706 0.76761 0.0
C1626 C 0.51447 0.96638 0.76099 0.0
C1627 C 0.52429 0.96191 0.74521 0.0
C1628 C 0.55113 0.02499 0.76605 0.0
C1629 C 0.4946 0.94913 0.76981 0.0
C1630 C 0.46199 0.05369 0.703 0.0
C1631 C 0.44592 0.03421 0.71393 0.0
C1632 C 0.45686 0.02904 0.74804 0.0
C1633 C 0.44855 0.00781 0.74759 0.0
C1634 C 0.45752 0.99929 0.75999 0.0
C1635 C 0.47535 0.01239 0.77281 0.0
C1636 C 0.4834 0.0338 0.77365 0.0
C1637 C 0.47373 0.04179 0.76153 0.0
C1638 C 0.44819 0.97637 0.75907 0.0
C1639 C 0.50262 0.04835 0.78677 0.0
C1640 C 0.43602 0.99848 0.90175 0.0
C1641 C 0.43191 0.97897 0.89562 0.0
C1642 C 0.44746 0.97667 0.88682 0.0
C1643 C 0.46759 0.99417 0.88444 0.0
C1644 C 0.47219 0.01359 0.89205 0.0
C1645 C 0.45631 0.01546 0.90069 0.0
C1646 C 0.44219 0.95564 0.87939 0.0
C1647 C 0.4936 0.03248 0.89013 0.0
C1648 C 0.5845 0.94819 0.8894 0.0
C1649 C 0.58188 0.96571 0.89698 0.0
C1650 C 0.54905 0.9647 0.89661 0.0
C1651 C 0.52773 0.95057 0.89374 0.0
C1652 C 0.51443 0.95663 0.88566 0.0
C1653 C 0.52268 0.97749 0.88088 0.0
C1654 C 0.54401 0.99212 0.8852 0.0
C1655 C 0.55702 0.98556 0.89291 0.0
C1656 C 0.49172 0.94064 0.88159 0.0
C1657 C 0.5532 0.01461 0.88109 0.0
C1658 C 0.51086 0.9924 0.78164 0.0
C1659 C 0.49903 0.99945 0.77222 0.0
C1660 C 0.48652 0.00397 0.78402 0.0
C1661 C 0.48535 0.00095 0.80588 0.0
C1662 C 0.47199 0.00415 0.81805 0.0
C1663 C 0.47108 0.0013 0.83957 0.0
C1664 C 0.48369 0.99536 0.84981 0.0
C1665 C 0.48287 0.99247 0.87171 0.0
C1666 C 0.49587 0.98693 0.88147 0.0
C1667 C 0.50943 0.98368 0.86979 0.0
C1668 C 0.50998 0.98591 0.84776 0.0
C1669 C 0.52285 0.98205 0.83538 0.0
C1670 C 0.52323 0.98422 0.81374 0.0
C1671 C 0.51076 0.99032 0.80362 0.0
C1672 C 0.4978 0.99444 0.81576 0.0
C1673 C 0.49722 0.99198 0.83781 0.0
C1674 C 0.39694 0.00197 0.8845 0.0
C1675 C 0.40019 0.99094 0.90268 0.0
O1676 O 0.54916 0.97275 0.71867 0.0
O1677 O 0.56145 0.95766 0.90272 0.0
O1678 O 0.42104 0.00157 0.90896 0.0
O1679 O 0.44898 0.03759 0.73546 0.0
H1680 H 0.55166 0.9957 0.70015 0.0
H1681 H 0.53106 0.96365 0.68049 0.0
H1682 H 0.55176 0.9586 0.68151 0.0
H1683 H 0.55483 0.98022 0.66716 0.0
H1684 H 0.56452 0.01013 0.73582 0.0
H1685 H 0.51775 0.94621 0.73961 0.0
H1686 H 0.54158 0.03099 0.75987 0.0
H1687 H 0.56723 0.03484 0.76043 0.0
H1688 H 0.55148 0.02621 0.78344 0.0
H1689 H 0.48972 0.93399 0.76238 0.0
H1690 H 0.48187 0.95215 0.76746 0.0
H1691 H 0.49676 0.94829 0.78694 0.0
H1692 H 0.44839 0.02169 0.70883 0.0
H1693 H 0.46003 0.05129 0.68569 0.0
H1694 H 0.47794 0.0576 0.70761 0.0
H1695 H 0.46036 0.06682 0.70749 0.0
H1696 H 0.43508 0.99794 0.7375 0.0
H1697 H 0.47985 0.05815 0.76184 0.0
H1698 H 0.44678 0.97043 0.77513 0.0
H1699 H 0.4586 0.97291 0.75036 0.0
H1700 H 0.43259 0.96808 0.75107 0.0
H1701 H 0.50807 0.06471 0.78403 0.0
H1702 H 0.51543 0.0458 0.78324 0.0
H1703 H 0.49925 0.04536 0.80364 0.0
H1704 H 0.39487 0.97526 0.89659 0.0
H1705 H 0.41669 0.96544 0.89762 0.0
H1706 H 0.45949 0.03038 0.90596 0.0
H1707 H 0.44412 0.95557 0.86219 0.0
H1708 H 0.42599 0.94345 0.88296 0.0
H1709 H 0.45307 0.95188 0.88695 0.0
H1710 H 0.49534 0.04594 0.89892 0.0
H1711 H 0.49658 0.03638 0.87335 0.0
H1712 H 0.50561 0.02943 0.89603 0.0
H1713 H 0.58553 0.97587 0.88331 0.0
H1714 H 0.60089 0.95427 0.88513 0.0
H1715 H 0.57432 0.94048 0.87528 0.0
H1716 H 0.5801 0.93654 0.90166 0.0
H1717 H 0.52167 0.93458 0.89704 0.0
H1718 H 0.5734 0.99671 0.89591 0.0
H1719 H 0.48732 0.94091 0.86494 0.0
H1720 H 0.48208 0.94426 0.89147 0.0
H1721 H 0.48797 0.9249 0.88511 0.0
H1722 H 0.56912 0.02435 0.88815 0.0
H1723 H 0.54311 0.01982 0.88744 0.0
H1724 H 0.55402 0.01693 0.86391 0.0
H1725 H 0.49958 0.00146 0.75538 0.0
H1726 H 0.46199 0.00879 0.81104 0.0
H1727 H 0.46041 0.00395 0.84806 0.0
H1728 H 0.49521 0.98482 0.89828 0.0
H1729 H 0.53273 0.97722 0.84226 0.0
H1730 H 0.53345 0.98108 0.80501 0.0
H1731 H 0.38009 0.99453 0.8804 0.0
H1732 H 0.40494 0.00106 0.87049 0.0
H1733 H 0.40351 0.01845 0.88848 0.0
C1734 C 0.99217 0.56805 0.69556 0.0
C1735 C 0.97852 0.5693 0.71221 0.0
C1736 C 0.98923 0.56011 0.74406 0.0
C1737 C 0.97081 0.54279 0.75057 0.0
C1738 C 0.97143 0.52807 0.76288 0.0
C1739 C 0.9909 0.53071 0.76858 0.0
C1740 C 0.00953 0.54842 0.76232 0.0
C1741 C 0.00843 0.56312 0.75042 0.0
C1742 C 0.95129 0.50958 0.76962 0.0
C1743 C 0.03056 0.55163 0.76781 0.0
C1744 C 0.99772 0.40215 0.70366 0.0
C1745 C 0.00193 0.42179 0.71345 0.0
C1746 C 0.98739 0.43483 0.73858 0.0
C1747 C 0.00612 0.45376 0.74227 0.0
C1748 C 0.00693 0.46891 0.75554 0.0
C1749 C 0.98857 0.46527 0.76503 0.0
C1750 C 0.96963 0.44636 0.76121 0.0
C1751 C 0.96936 0.43127 0.7482 0.0
C1752 C 0.02744 0.48888 0.75932 0.0
C1753 C 0.94972 0.44216 0.7708 0.0
C1754 C 0.99966 0.43546 0.89901 0.0
C1755 C 0.01836 0.44976 0.88955 0.0
C1756 C 0.02027 0.46677 0.87931 0.0
C1757 C 0.00305 0.46931 0.8782 0.0
C1758 C 0.98429 0.45501 0.88779 0.0
C1759 C 0.98291 0.43833 0.89814 0.0
C1760 C 0.04057 0.48191 0.86944 0.0
C1761 C 0.96561 0.45723 0.88687 0.0
C1762 C 0.04621 0.62932 0.89619 0.0
C1763 C 0.032 0.60956 0.9078 0.0
C1764 C 0.0332 0.5789 0.89975 0.0
C1765 C 0.04704 0.57402 0.89142 0.0
C1766 C 0.0398 0.55504 0.88117 0.0
C1767 C 0.01814 0.54045 0.87965 0.0
C1768 C 0.00409 0.54485 0.88909 0.0
C1769 C 0.01177 0.56408 0.89906 0.0
C1770 C 0.05526 0.55075 0.87158 0.0
C1771 C 0.98098 0.52934 0.88832 0.0
C1772 C 0.99167 0.51448 0.78026 0.0
C1773 C 0.98863 0.4974 0.7688 0.0
C1774 C 0.98935 0.48157 0.7786 0.0
C1775 C 0.99257 0.48242 0.80058 0.0
C1776 C 0.99265 0.46643 0.81106 0.0
C1777 C 0.99602 0.4675 0.83268 0.0
C1778 C 0.00019 0.48494 0.84455 0.0
C1779 C 0.00433 0.48649 0.86643 0.0
C1780 C 0.00957 0.50451 0.87755 0.0
C1781 C 0.01033 0.52097 0.86747 0.0
C1782 C 0.00508 0.51925 0.84582 0.0
C1783 C 0.00464 0.5351 0.8354 0.0
C1784 C 0.99971 0.53335 0.81405 0.0
C1785 C 0.99576 0.51602 0.80214 0.0
C1786 C 0.99609 0.49986 0.81234 0.0
C1787 C 0.00035 0.50131 0.83427 0.0
C1788 C 0.01036 0.40045 0.89157 0.0
C1789 C 0.01076 0.41214 0.91139 0.0
O1790 O 0.98884 0.57409 0.73159 0.0
O1791 O 0.04113 0.59793 0.90851 0.0
O1792 O 0.99688 0.41865 0.90899 0.0
O1793 O 0.98614 0.41975 0.72592 0.0
H1794 H 0.96367 0.55412 0.71256 0.0
H1795 H 0.99534 0.55584 0.69947 0.0
H1796 H 0.00727 0.58291 0.6948 0.0
H1797 H 0.98415 0.5642 0.67989 0.0
H1798 H 0.95598 0.54086 0.74612 0.0
H1799 H 0.02254 0.5767 0.74541 0.0
H1800 H 0.94903 0.49556 0.76164 0.0
H1801 H 0.93762 0.51085 0.76577 0.0
H1802 H 0.95195 0.50763 0.78679 0.0
H1803 H 0.0434 0.56525 0.76015 0.0
H1804 H 0.03094 0.53785 0.76304 0.0
H1805 H 0.03339 0.55379 0.78504 0.0
H1806 H 0.00771 0.4349 0.7026 0.0
H1807 H 0.99666 0.40405 0.6863 0.0
H1808 H 0.98054 0.3907 0.7051 0.0
H1809 H 0.02067 0.39807 0.71746 0.0
H1810 H 0.02024 0.45685 0.73494 0.0
H1811 H 0.95497 0.41667 0.74527 0.0
H1812 H 0.03075 0.49222 0.77642 0.0
H1813 H 0.02653 0.50163 0.75246 0.0
H1814 H 0.04063 0.48864 0.75226 0.0
H1815 H 0.93607 0.42711 0.76543 0.0
H1816 H 0.9468 0.45449 0.76671 0.0
H1817 H 0.95124 0.44228 0.78815 0.0
H1818 H 0.02677 0.42559 0.91445 0.0
H1819 H 0.03149 0.44777 0.88993 0.0
H1820 H 0.96857 0.42724 0.90548 0.0
H1821 H 0.03821 0.48139 0.85217 0.0
H1822 H 0.05297 0.47863 0.87298 0.0
H1823 H 0.04595 0.49775 0.87512 0.0
H1824 H 0.95202 0.44457 0.89479 0.0
H1825 H 0.96108 0.45746 0.87026 0.0
H1826 H 0.96966 0.47206 0.89444 0.0
H1827 H 0.01694 0.60134 0.89871 0.0
H1828 H 0.03922 0.63893 0.89536 0.0
H1829 H 0.04828 0.62548 0.87993 0.0
H1830 H 0.06177 0.63832 0.90422 0.0
H1831 H 0.06357 0.58543 0.89243 0.0
H1832 H 0.00106 0.56745 0.90638 0.0
H1833 H 0.0518 0.54747 0.85449 0.0
H1834 H 0.05383 0.5369 0.87865 0.0
H1835 H 0.07157 0.56381 0.87393 0.0
H1836 H 0.97223 0.53454 0.89761 0.0
H1837 H 0.97783 0.51447 0.8944 0.0
H1838 H 0.97507 0.52656 0.8718 0.0
H1839 H 0.98614 0.49664 0.75192 0.0
H1840 H 0.98994 0.45281 0.80268 0.0
H1841 H 0.99569 0.45462 0.8399 0.0
H1842 H 0.01334 0.50582 0.89422 0.0
H1843 H 0.00796 0.54898 0.84366 0.0
H1844 H 0.99939 0.54593 0.80691 0.0
H1845 H 0.02142 0.39514 0.89347 0.0
H1846 H 0.01506 0.41059 0.87787 0.0
H1847 H 0.99447 0.38691 0.8883 0.0
C1848 C 0.59291 0.60226 0.71807 0.0
C1849 C 0.57076 0.5929 0.72369 0.0
C1850 C 0.54518 0.56439 0.74463 0.0
C1851 C 0.53119 0.57117 0.74587 0.0
C1852 C 0.51288 0.56018 0.7572 0.0
C1853 C 0.5085 0.54208 0.76739 0.0
C1854 C 0.52266 0.53535 0.76629 0.0
C1855 C 0.54083 0.54664 0.75491 0.0
C1856 C 0.49808 0.56774 0.75812 0.0
C1857 C 0.51845 0.51608 0.77689 0.0
C1858 C 0.40066 0.44329 0.67472 0.0
C1859 C 0.40644 0.43962 0.69664 0.0
C1860 C 0.40964 0.45834 0.72885 0.0
C1861 C 0.42309 0.4542 0.74008 0.0
C1862 C 0.43604 0.46744 0.75641 0.0
C1863 C 0.43568 0.48529 0.7614 0.0
C1864 C 0.42115 0.48877 0.75103 0.0
C1865 C 0.40804 0.475 0.73502 0.0
C1866 C 0.45088 0.46288 0.76756 0.0
C1867 C 0.42027 0.50757 0.7561 0.0
C1868 C 0.38602 0.46702 0.89104 0.0
C1869 C 0.39999 0.46043 0.88803 0.0
C1870 C 0.41951 0.47354 0.87941 0.0
C1871 C 0.42509 0.49356 0.87365 0.0
C1872 C 0.41139 0.50048 0.87747 0.0
C1873 C 0.39207 0.48713 0.88629 0.0
C1874 C 0.43405 0.46592 0.87615 0.0
C1875 C 0.41698 0.52183 0.87178 0.0
C1876 C 0.57547 0.61991 0.89812 0.0
C1877 C 0.56523 0.60793 0.9179 0.0
C1878 C 0.53668 0.57466 0.90313 0.0
C1879 C 0.53075 0.5543 0.89913 0.0
C1880 C 0.51248 0.54079 0.88754 0.0
C1881 C 0.49976 0.54786 0.87985 0.0
C1882 C 0.50528 0.56829 0.88436 0.0
C1883 C 0.52374 0.58154 0.89594 0.0
C1884 C 0.50704 0.51909 0.88305 0.0
C1885 C 0.49191 0.5762 0.87648 0.0
C1886 C 0.48857 0.52951 0.77819 0.0
C1887 C 0.47139 0.51484 0.76614 0.0
C1888 C 0.45236 0.50151 0.77527 0.0
C1889 C 0.45016 0.50302 0.79704 0.0
C1890 C 0.43121 0.48994 0.80671 0.0
C1891 C 0.42934 0.4914 0.82824 0.0
C1892 C 0.44647 0.50576 0.84096 0.0
C1893 C 0.44491 0.50701 0.86293 0.0
C1894 C 0.46237 0.52113 0.87514 0.0
C1895 C 0.48145 0.53423 0.86596 0.0
C1896 C 0.48323 0.53352 0.84398 0.0
C1897 C 0.50216 0.54669 0.83424 0.0
C1898 C 0.50388 0.54561 0.81267 0.0
C1899 C 0.48681 0.53117 0.80003 0.0
C1900 C 0.46752 0.51786 0.80949 0.0
C1901 C 0.46571 0.51911 0.83148 0.0
C1902 C 0.33236 0.42599 0.89211 0.0
C1903 C 0.35508 0.43324 0.89722 0.0
O1904 O 0.56298 0.57442 0.73374 0.0
O1905 O 0.55507 0.58698 0.9137 0.0
O1906 O 0.36663 0.45452 0.89842 0.0
O1907 O 0.39873 0.44704 0.71153 0.0
H1908 H 0.56013 0.59226 0.71094 0.0
H1909 H 0.5927 0.60233 0.70042 0.0
H1910 H 0.59655 0.58979 0.71906 0.0
H1911 H 0.6086 0.62933 0.73665 0.0
H1912 H 0.53437 0.5849 0.73794 0.0
H1913 H 0.55175 0.54158 0.75388 0.0
H1914 H 0.48305 0.55629 0.7502 0.0
H1915 H 0.50431 0.58275 0.75047 0.0
H1916 H 0.49483 0.56933 0.77471 0.0
H1917 H 0.53106 0.51295 0.77455 0.0
H1918 H 0.50358 0.50273 0.77063 0.0
H1919 H 0.51677 0.51747 0.79398 0.0
H1920 H 0.4238 0.44849 0.69766 0.0
H1921 H 0.40644 0.43717 0.66254 0.0
H1922 H 0.40794 0.46004 0.67247 0.0
H1923 H 0.38353 0.43582 0.67257 0.0
H1924 H 0.42383 0.4409 0.73578 0.0
H1925 H 0.39734 0.47785 0.72643 0.0
H1926 H 0.45102 0.46546 0.78475 0.0
H1927 H 0.46687 0.47347 0.76207 0.0
H1928 H 0.44679 0.44685 0.76447 0.0
H1929 H 0.4074 0.50753 0.74737 0.0
H1930 H 0.43523 0.52156 0.75209 0.0
H1931 H 0.41821 0.50853 0.77317 0.0
H1932 H 0.36036 0.42758 0.88402 0.0
H1933 H 0.39574 0.44512 0.89241 0.0
H1934 H 0.38131 0.49216 0.88898 0.0
H1935 H 0.43624 0.46496 0.8591 0.0
H1936 H 0.42808 0.45053 0.88284 0.0
H1937 H 0.44956 0.47694 0.88348 0.0
H1938 H 0.40454 0.52483 0.87563 0.0
H1939 H 0.41988 0.52399 0.85474 0.0
H1940 H 0.43157 0.53338 0.88031 0.0
H1941 H 0.55394 0.61192 0.92357 0.0
H1942 H 0.58391 0.6367 0.90163 0.0
H1943 H 0.56354 0.61626 0.88561 0.0
H1944 H 0.58664 0.61591 0.89211 0.0
H1945 H 0.54077 0.54912 0.90484 0.0
H1946 H 0.52798 0.59721 0.89905 0.0
H1947 H 0.50679 0.51647 0.86586 0.0
H1948 H 0.49122 0.50802 0.88866 0.0
H1949 H 0.51828 0.5158 0.89066 0.0
H1950 H 0.49769 0.5921 0.88229 0.0
H1951 H 0.47566 0.56596 0.88148 0.0
H1952 H 0.49161 0.576 0.85907 0.0
H1953 H 0.473 0.51342 0.74943 0.0
H1954 H 0.41761 0.47846 0.79772 0.0
H1955 H 0.41435 0.48098 0.83481 0.0
H1956 H 0.46115 0.52177 0.89202 0.0
H1957 H 0.5159 0.55801 0.84318 0.0
H1958 H 0.51882 0.55612 0.80602 0.0
H1959 H 0.32275 0.40895 0.89085 0.0
H1960 H 0.33119 0.43223 0.87687 0.0
H1961 H 0.32602 0.43139 0.90445 0.0
C1962 C 0.62511 0.73544 0.65303 0.0
C1963 C 0.63785 0.73516 0.63468 0.0
C1964 C 0.64598 0.76594 0.61504 0.0
C1965 C 0.62545 0.75897 0.60818 0.0
C1966 C 0.62098 0.77142 0.59606 0.0
C1967 C 0.63745 0.79087 0.58988 0.0
C1968 C 0.65817 0.79771 0.59632 0.0
C1969 C 0.66209 0.78523 0.60903 0.0
C1970 C 0.59862 0.76379 0.58997 0.0
C1971 C 0.67619 0.81821 0.58981 0.0
C1972 C 0.6081 0.90683 0.61332 0.0
C1973 C 0.62489 0.90687 0.62725 0.0
C1974 C 0.63593 0.88719 0.60624 0.0
C1975 C 0.65231 0.88876 0.59494 0.0
C1976 C 0.65063 0.87148 0.58505 0.0
C1977 C 0.6319 0.85216 0.58627 0.0
C1978 C 0.61526 0.85036 0.59783 0.0
C1979 C 0.61747 0.86787 0.60783 0.0
C1980 C 0.66883 0.87392 0.57314 0.0
C1981 C 0.59506 0.82998 0.59936 0.0
C1982 C 0.60452 0.86395 0.45439 0.0
C1983 C 0.62457 0.86832 0.45974 0.0
C1984 C 0.62741 0.85368 0.46961 0.0
C1985 C 0.6098 0.83443 0.47457 0.0
C1986 C 0.58966 0.82962 0.46822 0.0
C1987 C 0.58732 0.84442 0.45792 0.0
C1988 C 0.64921 0.85904 0.4753 0.0
C1989 C 0.57057 0.80918 0.47301 0.0
C1990 C 0.59473 0.68873 0.46262 0.0
C1991 C 0.59934 0.70376 0.44494 0.0
C1992 C 0.61471 0.73893 0.45958 0.0
C1993 C 0.63284 0.75842 0.46016 0.0
C1994 C 0.63322 0.77539 0.46923 0.0
C1995 C 0.61495 0.77269 0.47803 0.0
C1996 C 0.59644 0.75305 0.47734 0.0
C1997 C 0.59652 0.73631 0.46824 0.0
C1998 C 0.65324 0.79611 0.4698 0.0
C1999 C 0.57672 0.74968 0.48667 0.0
C2000 C 0.63304 0.8041 0.57676 0.0
C2001 C 0.63351 0.82078 0.58656 0.0
C2002 C 0.62967 0.83395 0.57516 0.0
C2003 C 0.6247 0.83021 0.55345 0.0
C2004 C 0.62012 0.8428 0.54166 0.0
C2005 C 0.61585 0.83936 0.52019 0.0
C2006 C 0.61606 0.82322 0.50965 0.0
C2007 C 0.61245 0.82004 0.48768 0.0
C2008 C 0.61208 0.80344 0.47783 0.0
C2009 C 0.6156 0.79007 0.48931 0.0
C2010 C 0.61995 0.79343 0.51115 0.0
C2011 C 0.62437 0.78074 0.52299 0.0
C2012 C 0.6288 0.78428 0.54442 0.0
C2013 C 0.62872 0.80047 0.55493 0.0
C2014 C 0.6244 0.81351 0.54328 0.0
C2015 C 0.62006 0.81001 0.52135 0.0
C2016 C 0.59813 0.90683 0.45478 0.0
C2017 C 0.61288 0.89913 0.45135 0.0
O2018 O 0.65099 0.75485 0.62761 0.0
O2019 O 0.61571 0.72319 0.45092 0.0
O2020 O 0.60127 0.87832 0.44617 0.0
O2021 O 0.63865 0.90473 0.61508 0.0
H2022 H 0.62702 0.72523 0.62168 0.0
H2023 H 0.61515 0.71969 0.65906 0.0
H2024 H 0.6355 0.74578 0.66601 0.0
H2025 H 0.61478 0.74092 0.64802 0.0
H2026 H 0.61276 0.74397 0.61236 0.0
H2027 H 0.67787 0.79047 0.6143 0.0
H2028 H 0.59517 0.77601 0.59285 0.0
H2029 H 0.5875 0.75 0.59876 0.0
H2030 H 0.59596 0.75971 0.57297 0.0
H2031 H 0.69147 0.82009 0.59383 0.0
H2032 H 0.67544 0.83073 0.59787 0.0
H2033 H 0.67521 0.82 0.57266 0.0
H2034 H 0.61734 0.894 0.63834 0.0
H2035 H 0.59735 0.90896 0.62312 0.0
H2036 H 0.59877 0.89202 0.60446 0.0
H2037 H 0.61527 0.91935 0.60184 0.0
H2038 H 0.66649 0.90368 0.59385 0.0
H2039 H 0.60464 0.86627 0.61661 0.0
H2040 H 0.66464 0.87109 0.55615 0.0
H2041 H 0.6726 0.86242 0.57827 0.0
H2042 H 0.68295 0.88953 0.57537 0.0
H2043 H 0.58322 0.83128 0.60808 0.0
H2044 H 0.59798 0.81893 0.60743 0.0
H2045 H 0.58865 0.82352 0.58339 0.0
H2046 H 0.62147 0.90176 0.46662 0.0
H2047 H 0.63799 0.8832 0.45634 0.0
H2048 H 0.57194 0.8411 0.4534 0.0
H2049 H 0.65198 0.86191 0.49249 0.0
H2050 H 0.66118 0.873 0.4673 0.0
H2051 H 0.65118 0.84606 0.47111 0.0
H2052 H 0.55595 0.80807 0.4676 0.0
H2053 H 0.56994 0.80673 0.49016 0.0
H2054 H 0.57147 0.79663 0.46526 0.0
H2055 H 0.58506 0.70408 0.44138 0.0
H2056 H 0.58194 0.67304 0.45765 0.0
H2057 H 0.58979 0.69356 0.47669 0.0
H2058 H 0.60876 0.68828 0.46701 0.0
H2059 H 0.64681 0.76027 0.45354 0.0
H2060 H 0.58246 0.72125 0.46836 0.0
H2061 H 0.65816 0.80146 0.48634 0.0
H2062 H 0.65071 0.80752 0.46199 0.0
H2063 H 0.66602 0.79573 0.46195 0.0
H2064 H 0.56323 0.73386 0.48349 0.0
H2065 H 0.57301 0.76083 0.48026 0.0
H2066 H 0.57905 0.75244 0.50391 0.0
H2067 H 0.63718 0.82369 0.60324 0.0
H2068 H 0.61983 0.8555 0.54888 0.0
H2069 H 0.61245 0.84958 0.51196 0.0
H2070 H 0.60922 0.80101 0.461 0.0
H2071 H 0.62461 0.76799 0.51581 0.0
H2072 H 0.6323 0.77413 0.55265 0.0
H2073 H 0.5882 0.90402 0.44054 0.0
H2074 H 0.60712 0.92355 0.45878 0.0
H2075 H 0.58782 0.89862 0.46799 0.0
C2076 C 0.10994 0.71814 0.67532 0.0
C2077 C 0.10588 0.72787 0.65648 0.0
C2078 C 0.12302 0.73528 0.62337 0.0
C2079 C 0.11811 0.74915 0.6152 0.0
C2080 C 0.13163 0.76454 0.60172 0.0
C2081 C 0.1506 0.76624 0.59661 0.0
C2082 C 0.15496 0.75146 0.60379 0.0
C2083 C 0.1409 0.73592 0.61693 0.0
C2084 C 0.12609 0.77958 0.59379 0.0
C2085 C 0.17493 0.75271 0.59842 0.0
C2086 C 0.27081 0.92513 0.65176 0.0
C2087 C 0.26241 0.90297 0.64709 0.0
C2088 C 0.23005 0.87433 0.63111 0.0
C2089 C 0.23833 0.86246 0.62496 0.0
C2090 C 0.22656 0.84477 0.61211 0.0
C2091 C 0.20623 0.83896 0.60526 0.0
C2092 C 0.19774 0.85067 0.61185 0.0
C2093 C 0.20975 0.86814 0.62482 0.0
C2094 C 0.23592 0.83243 0.60557 0.0
C2095 C 0.17605 0.84487 0.60503 0.0
C2096 C 0.23525 0.89062 0.48046 0.0
C2097 C 0.2418 0.87655 0.47863 0.0
C2098 C 0.22907 0.85622 0.48506 0.0
C2099 C 0.20922 0.8497 0.49295 0.0
C2100 C 0.20199 0.86337 0.49329 0.0
C2101 C 0.21516 0.88369 0.48711 0.0
C2102 C 0.23704 0.84186 0.48403 0.0
C2103 C 0.18062 0.85676 0.50092 0.0
C2104 C 0.09776 0.68863 0.44202 0.0
C2105 C 0.10169 0.71039 0.44317 0.0
C2106 C 0.1342 0.74125 0.45534 0.0
C2107 C 0.15523 0.7484 0.45911 0.0
C2108 C 0.16751 0.76506 0.47303 0.0
C2109 C 0.15858 0.77508 0.48304 0.0
C2110 C 0.13752 0.76846 0.47862 0.0
C2111 C 0.12552 0.75155 0.4649 0.0
C2112 C 0.18999 0.77186 0.47716 0.0
C2113 C 0.12767 0.77923 0.48841 0.0
C2114 C 0.16683 0.78494 0.5862 0.0
C2115 C 0.17983 0.80212 0.59912 0.0
C2116 C 0.19401 0.82105 0.59066 0.0
C2117 C 0.19537 0.82302 0.56866 0.0
C2118 C 0.20905 0.84201 0.55964 0.0
C2119 C 0.20972 0.84403 0.53802 0.0
C2120 C 0.19677 0.82712 0.52454 0.0
C2121 C 0.19678 0.82927 0.50256 0.0
C2122 C 0.18426 0.81206 0.48953 0.0
C2123 C 0.17136 0.79265 0.4979 0.0
C2124 C 0.17056 0.79034 0.51993 0.0
C2125 C 0.15722 0.77123 0.52899 0.0
C2126 C 0.15594 0.76938 0.5507 0.0
C2127 C 0.16835 0.78644 0.56416 0.0
C2128 C 0.18249 0.80566 0.55537 0.0
C2129 C 0.18335 0.80768 0.53326 0.0
C2130 C 0.27793 0.94082 0.49023 0.0
C2131 C 0.26908 0.92233 0.47491 0.0
O2132 O 0.1113 0.72193 0.63828 0.0
O2133 O 0.1229 0.72453 0.44235 0.0
O2134 O 0.24758 0.91087 0.47607 0.0
O2135 O 0.24113 0.89203 0.64274 0.0
H2136 H 0.11621 0.74481 0.65921 0.0
H2137 H 0.12684 0.72398 0.67684 0.0
H2138 H 0.10141 0.70116 0.6734 0.0
H2139 H 0.10511 0.72225 0.68999 0.0
H2140 H 0.10392 0.7482 0.61973 0.0
H2141 H 0.1444 0.72495 0.62317 0.0
H2142 H 0.13648 0.79479 0.6016 0.0
H2143 H 0.10971 0.77462 0.59694 0.0
H2144 H 0.12847 0.78151 0.57665 0.0
H2145 H 0.17529 0.73917 0.60383 0.0
H2146 H 0.18831 0.7668 0.60588 0.0
H2147 H 0.17697 0.7539 0.58121 0.0
H2148 H 0.26728 0.89512 0.65829 0.0
H2149 H 0.2571 0.92664 0.65522 0.0
H2150 H 0.29072 0.94018 0.62695 0.0
H2151 H 0.27653 0.92759 0.66861 0.0
H2152 H 0.25393 0.86696 0.63007 0.0
H2153 H 0.20349 0.87735 0.62979 0.0
H2154 H 0.22546 0.81612 0.60975 0.0
H2155 H 0.25152 0.83835 0.61306 0.0
H2156 H 0.23743 0.83284 0.58828 0.0
H2157 H 0.17227 0.85635 0.61039 0.0
H2158 H 0.16461 0.82977 0.61155 0.0
H2159 H 0.17428 0.84327 0.58767 0.0
H2160 H 0.27621 0.91362 0.48033 0.0
H2161 H 0.25679 0.88123 0.47235 0.0
H2162 H 0.21002 0.89447 0.48799 0.0
H2163 H 0.23714 0.83612 0.49991 0.0
H2164 H 0.25301 0.84937 0.47788 0.0
H2165 H 0.22645 0.82833 0.47376 0.0
H2166 H 0.17615 0.86809 0.49723 0.0
H2167 H 0.1804 0.85504 0.51819 0.0
H2168 H 0.16878 0.84161 0.49376 0.0
H2169 H 0.09575 0.71153 0.45866 0.0
H2170 H 0.08078 0.67704 0.44154 0.0
H2171 H 0.10479 0.68602 0.45615 0.0
H2172 H 0.10489 0.68636 0.42801 0.0
H2173 H 0.16188 0.74055 0.45145 0.0
H2174 H 0.10948 0.74661 0.46156 0.0
H2175 H 0.19319 0.77244 0.4943 0.0
H2176 H 0.2002 0.7876 0.47128 0.0
H2177 H 0.19414 0.76149 0.46941 0.0
H2178 H 0.1118 0.77352 0.48178 0.0
H2179 H 0.1375 0.79604 0.48606 0.0
H2180 H 0.12657 0.77678 0.50556 0.0
H2181 H 0.17843 0.8009 0.61601 0.0
H2182 H 0.21926 0.85561 0.5692 0.0
H2183 H 0.22049 0.85908 0.53203 0.0
H2184 H 0.18441 0.81384 0.47268 0.0
H2185 H 0.14737 0.75756 0.51939 0.0
H2186 H 0.14514 0.7544 0.55684 0.0
H2187 H 0.26999 0.94944 0.4881 0.0
H2188 H 0.29492 0.95131 0.48813 0.0
H2189 H 0.27552 0.93538 0.50659 0.0
C2190 C 0.12832 0.37518 0.65938 0.0
C2191 C 0.1145 0.37039 0.63962 0.0
C2192 C 0.13527 0.36686 0.61223 0.0
C2193 C 0.15109 0.38772 0.61141 0.0
C2194 C 0.16828 0.394 0.59864 0.0
C2195 C 0.16956 0.37917 0.58644 0.0
C2196 C 0.1534 0.35827 0.5869 0.0
C2197 C 0.13647 0.35243 0.59978 0.0
C2198 C 0.18526 0.41641 0.59838 0.0
C2199 C 0.15422 0.34202 0.57409 0.0
C2200 C 0.31063 0.3955 0.62335 0.0
C2201 C 0.2894 0.37786 0.63024 0.0
C2202 C 0.26361 0.37408 0.6035 0.0
C2203 C 0.24904 0.36049 0.58846 0.0
C2204 C 0.23528 0.36484 0.57825 0.0
C2205 C 0.23662 0.38365 0.5828 0.0
C2206 C 0.25156 0.39767 0.59779 0.0
C2207 C 0.26483 0.3927 0.60813 0.0
C2208 C 0.21919 0.34916 0.56278 0.0
C2209 C 0.25347 0.4179 0.60289 0.0
C2210 C 0.27776 0.41363 0.45164 0.0
C2211 C 0.26129 0.39358 0.45539 0.0
C2212 C 0.24369 0.39019 0.46601 0.0
C2213 C 0.24256 0.4072 0.47293 0.0
C2214 C 0.2587 0.42736 0.46832 0.0
C2215 C 0.27604 0.43028 0.45755 0.0
C2216 C 0.22644 0.36846 0.47011 0.0
C2217 C 0.25786 0.4458 0.47525 0.0
C2218 C 0.09988 0.39816 0.45746 0.0
C2219 C 0.10716 0.39062 0.43914 0.0
C2220 C 0.13329 0.38424 0.45504 0.0
C2221 C 0.13675 0.36865 0.46031 0.0
C2222 C 0.15548 0.3731 0.47002 0.0
C2223 C 0.17112 0.39378 0.47477 0.0
C2224 C 0.16797 0.40976 0.4691 0.0
C2225 C 0.14906 0.40485 0.4592 0.0
C2226 C 0.15835 0.35563 0.47559 0.0
C2227 C 0.18439 0.43194 0.47398 0.0
C2228 C 0.18821 0.38524 0.57395 0.0
C2229 C 0.20445 0.38438 0.58361 0.0
C2230 C 0.22176 0.38811 0.57243 0.0
C2231 C 0.22339 0.39361 0.55118 0.0
C2232 C 0.241 0.39831 0.53972 0.0
C2233 C 0.2418 0.40225 0.51842 0.0
C2234 C 0.22491 0.4014 0.50772 0.0
C2235 C 0.22493 0.40394 0.48579 0.0
C2236 C 0.20758 0.40231 0.47557 0.0
C2237 C 0.19016 0.39836 0.48674 0.0
C2238 C 0.19014 0.39647 0.50876 0.0
C2239 C 0.17305 0.39298 0.52052 0.0
C2240 C 0.1726 0.38983 0.54198 0.0
C2241 C 0.1891 0.38981 0.55245 0.0
C2242 C 0.20675 0.39395 0.54102 0.0
C2243 C 0.20739 0.39755 0.5192 0.0
C2244 C 0.32711 0.41999 0.45189 0.0
C2245 C 0.30464 0.406 0.44377 0.0
O2246 O 0.11869 0.35974 0.62483 0.0
O2247 O 0.11439 0.37845 0.44634 0.0
O2248 O 0.29541 0.41753 0.44224 0.0
O2249 O 0.27612 0.36854 0.61296 0.0
H2250 H 0.11726 0.38494 0.63293 0.0
H2251 H 0.14499 0.38519 0.65569 0.0
H2252 H 0.1259 0.36078 0.6661 0.0
H2253 H 0.12462 0.38335 0.67136 0.0
H2254 H 0.15027 0.39912 0.62078 0.0
H2255 H 0.12413 0.33641 0.60046 0.0
H2256 H 0.20013 0.41838 0.60428 0.0
H2257 H 0.18165 0.42619 0.60815 0.0
H2258 H 0.18761 0.42185 0.58202 0.0
H2259 H 0.14004 0.32653 0.57566 0.0
H2260 H 0.168 0.34141 0.57919 0.0
H2261 H 0.15598 0.34601 0.55727 0.0
H2262 H 0.28263 0.38403 0.64125 0.0
H2263 H 0.32133 0.40286 0.63721 0.0
H2264 H 0.30899 0.40739 0.61541 0.0
H2265 H 0.3177 0.38976 0.61224 0.0
H2266 H 0.24824 0.3462 0.58499 0.0
H2267 H 0.2761 0.40348 0.61965 0.0
H2268 H 0.22326 0.35498 0.54665 0.0
H2269 H 0.20359 0.34655 0.5659 0.0
H2270 H 0.21823 0.3342 0.56337 0.0
H2271 H 0.26738 0.42812 0.61307 0.0
H2272 H 0.23939 0.41501 0.61109 0.0
H2273 H 0.2544 0.42597 0.58822 0.0
H2274 H 0.29672 0.39373 0.45546 0.0
H2275 H 0.26209 0.38057 0.44998 0.0
H2276 H 0.28867 0.44568 0.45422 0.0
H2277 H 0.22528 0.36597 0.48726 0.0
H2278 H 0.22902 0.35689 0.46252 0.0
H2279 H 0.21132 0.36592 0.46425 0.0
H2280 H 0.27164 0.46048 0.47034 0.0
H2281 H 0.257 0.44615 0.49259 0.0
H2282 H 0.24358 0.44457 0.46853 0.0
H2283 H 0.11973 0.40403 0.4309 0.0
H2284 H 0.0938 0.40767 0.45161 0.0
H2285 H 0.11302 0.40775 0.46869 0.0
H2286 H 0.08743 0.38495 0.46599 0.0
H2287 H 0.12452 0.35283 0.45695 0.0
H2288 H 0.14665 0.41712 0.45513 0.0
H2289 H 0.15892 0.35462 0.49291 0.0
H2290 H 0.17334 0.35851 0.46965 0.0
H2291 H 0.14554 0.34061 0.46906 0.0
H2292 H 0.17968 0.44263 0.4684 0.0
H2293 H 0.19915 0.43584 0.46653 0.0
H2294 H 0.18753 0.43429 0.49118 0.0
H2295 H 0.20317 0.37987 0.59984 0.0
H2296 H 0.25427 0.39877 0.54708 0.0
H2297 H 0.25566 0.40554 0.51036 0.0
H2298 H 0.20737 0.40349 0.45865 0.0
H2299 H 0.15974 0.39248 0.51322 0.0
H2300 H 0.15897 0.38701 0.5502 0.0
H2301 H 0.33486 0.41112 0.45348 0.0
H2302 H 0.32729 0.42657 0.46757 0.0
H2303 H 0.33606 0.43283 0.44107 0.0
C2304 C 0.01536 0.38783 0.08011 0.0
C2305 C 0.99427 0.37372 0.07501 0.0
H2306 H 0.03744 0.41199 0.1009 0.0
C2307 C 0.97902 0.37274 0.08805 0.0
H2308 H 0.02746 0.3892 0.07016 0.0
C2309 C 0.98477 0.38551 0.10593 0.0
C2310 C 0.00586 0.39963 0.11105 0.0
H2311 H 0.96263 0.36209 0.08444 0.0
H2312 H 0.97269 0.38447 0.11568 0.0
C2313 C 0.02109 0.40086 0.09776 0.0
C2314 C 0.63486 0.60092 0.08229 0.0
C2315 C 0.63301 0.61657 0.07332 0.0
H2316 H 0.62769 0.58083 0.10808 0.0
C2317 C 0.62203 0.62393 0.08396 0.0
H2318 H 0.64313 0.59485 0.07441 0.0
C2319 C 0.61291 0.61566 0.10307 0.0
C2320 C 0.61513 0.6003 0.11227 0.0
H2321 H 0.62003 0.63574 0.07728 0.0
H2322 H 0.60402 0.62123 0.11053 0.0
C2323 C 0.62607 0.59292 0.10158 0.0
C2324 C 0.39944 0.03719 0.06441 0.0
C2325 C 0.38394 0.01621 0.06435 0.0
H2326 H 0.42609 0.06216 0.08078 0.0
C2327 C 0.38254 0.00452 0.0817 0.0
H2328 H 0.40071 0.04656 0.05126 0.0
C2329 C 0.39663 0.01344 0.0986 0.0
C2330 C 0.41295 0.03414 0.09825 0.0
H2331 H 0.37046 0.9884 0.08225 0.0
H2332 H 0.39494 0.00394 0.11177 0.0
C2333 C 0.41394 0.04607 0.0812 0.0
C2334 C 0.36425 0.9684 0.94896 0.0
C2335 C 0.36535 0.98579 0.95794 0.0
H2336 H 0.37417 0.95642 0.92444 0.0
C2337 C 0.37731 0.00482 0.94828 0.0
H2338 H 0.35524 0.95354 0.95608 0.0
C2339 C 0.38838 0.00652 0.93036 0.0
C2340 C 0.38728 0.98911 0.92133 0.0
H2341 H 0.37872 0.01857 0.955 0.0
H2342 H 0.3981 0.02154 0.9238 0.0
C2343 C 0.37506 0.97004 0.93083 0.0
C2344 C 0.97866 0.37327 0.953 0.0
C2345 C 0.99419 0.37322 0.9654 0.0
H2346 H 0.97156 0.38513 0.9261 0.0
C2347 C 0.01505 0.38538 0.95957 0.0
H2348 H 0.96241 0.36384 0.9569 0.0
C2349 C 0.02032 0.39784 0.94211 0.0
C2350 C 0.00486 0.39837 0.9301 0.0
H2351 H 0.02737 0.3856 0.96873 0.0
H2352 H 0.03653 0.40726 0.93808 0.0
C2353 C 0.9839 0.38552 0.9354 0.0
C2354 C 0.60819 0.60915 0.95161 0.0
C2355 C 0.61251 0.62448 0.96675 0.0
H2356 H 0.5903 0.59223 0.9242 0.0
C2357 C 0.60161 0.6347 0.96553 0.0
H2358 H 0.61651 0.60118 0.95193 0.0
C2359 C 0.58636 0.62934 0.94978 0.0
C2360 C 0.5817 0.61367 0.93496 0.0
H2361 H 0.60467 0.64667 0.97689 0.0
H2362 H 0.57809 0.63735 0.94924 0.0
C2363 C 0.59313 0.60397 0.93576 0.0
C2364 C 0.04163 0.62733 0.96537 0.0
C2365 C 0.02367 0.62772 0.96965 0.0
H2366 H 0.05834 0.62132 0.94256 0.0
C2367 C 0.00806 0.62117 0.95385 0.0
H2368 H 0.05398 0.63233 0.97715 0.0
C2369 C 0.01054 0.61478 0.93411 0.0
C2370 C 0.0286 0.61465 0.92976 0.0
H2371 H 0.99404 0.6213 0.95658 0.0
H2372 H 0.99848 0.61026 0.9221 0.0
C2373 C 0.04411 0.62095 0.94561 0.0
C2374 C 0.355 0.42321 0.95574 0.0
C2375 C 0.35523 0.40496 0.95559 0.0
H2376 H 0.35479 0.44641 0.93751 0.0
C2377 C 0.35671 0.3968 0.93629 0.0
H2378 H 0.35382 0.4299 0.9703 0.0
C2379 C 0.35737 0.40636 0.91755 0.0
C2380 C 0.35671 0.42433 0.91769 0.0
H2381 H 0.35691 0.38277 0.93559 0.0
H2382 H 0.35795 0.39944 0.90287 0.0
C2383 C 0.35563 0.43273 0.93699 0.0
C2384 C 0.6265 0.0091 0.92988 0.0
C2385 C 0.6254 0.99936 0.94877 0.0
H2386 H 0.6138 0.00608 0.89881 0.0
C2387 C 0.60964 0.97862 0.95082 0.0
H2388 H 0.63845 0.02506 0.9278 0.0
C2389 C 0.59531 0.96787 0.93432 0.0
C2390 C 0.59669 0.97752 0.91529 0.0
H2391 H 0.60825 0.97074 0.96525 0.0
H2392 H 0.58324 0.95195 0.93635 0.0
C2393 C 0.61238 0.99825 0.91328 0.0
C2394 C 0.64703 0.06482 0.05372 0.0
C2395 C 0.64145 0.04474 0.04804 0.0
H2396 H 0.63998 0.08381 0.07221 0.0
C2397 C 0.62465 0.02811 0.05784 0.0
H2398 H 0.65992 0.07793 0.04641 0.0
C2399 C 0.61299 0.03146 0.07227 0.0
C2400 C 0.61831 0.05157 0.07769 0.0
H2401 H 0.61986 0.01245 0.0536 0.0
H2402 H 0.59949 0.01825 0.07872 0.0
C2403 C 0.63568 0.06819 0.0685 0.0
C2404 C 0.99567 0.61411 0.09307 0.0
C2405 C 0.98528 0.61166 0.07375 0.0
H2406 H 0.99349 0.6037 0.12444 0.0
C2407 C 0.9643 0.59582 0.07117 0.0
H2408 H 0.01183 0.62622 0.09553 0.0
C2409 C 0.95394 0.58263 0.08759 0.0
C2410 C 0.9642 0.58538 0.10708 0.0
H2411 H 0.95596 0.59345 0.05638 0.0
H2412 H 0.93785 0.57036 0.08511 0.0
C2413 C 0.98518 0.60124 0.10962 0.0
C2414 C 0.40725 0.39539 0.06038 0.0
C2415 C 0.39579 0.37873 0.04624 0.0
H2416 H 0.42918 0.40824 0.086 0.0
C2417 C 0.39913 0.36235 0.04662 0.0
H2418 H 0.40525 0.40839 0.06036 0.0
C2419 C 0.41282 0.36216 0.06156 0.0
C2420 C 0.42357 0.37844 0.07649 0.0
H2421 H 0.39059 0.34928 0.03589 0.0
H2422 H 0.41437 0.34892 0.06154 0.0
C2423 C 0.42098 0.39527 0.0752 0.0
C2424 C 0.63065 0.69368 0.40569 0.0
C2425 C 0.61799 0.68814 0.38741 0.0
H2426 H 0.63469 0.70297 0.43813 0.0
C2427 C 0.59847 0.68621 0.38851 0.0
H2428 H 0.64575 0.69527 0.40541 0.0
C2429 C 0.59214 0.69055 0.40726 0.0
C2430 C 0.60522 0.69699 0.42528 0.0
H2431 H 0.58827 0.68184 0.37475 0.0
H2432 H 0.57726 0.68942 0.4075 0.0
C2433 C 0.62434 0.69809 0.42443 0.0
C2434 C 0.28591 0.92287 0.41878 0.0
C2435 C 0.28512 0.93927 0.41026 0.0
H2436 H 0.2819 0.90507 0.4459 0.0
C2437 C 0.2787 0.94997 0.42285 0.0
H2438 H 0.29075 0.91429 0.40942 0.0
C2439 C 0.27327 0.94445 0.4436 0.0
C2440 C 0.27492 0.9286 0.45245 0.0
H2441 H 0.27764 0.96248 0.41658 0.0
H2442 H 0.26789 0.95269 0.45266 0.0
C2443 C 0.28095 0.91765 0.43969 0.0
C2444 C 0.07011 0.37475 0.39134 0.0
C2445 C 0.05638 0.35366 0.3945 0.0
H2446 H 0.09698 0.4029 0.40291 0.0
C2447 C 0.05875 0.345 0.4128 0.0
H2448 H 0.0686 0.38189 0.37743 0.0
C2449 C 0.0748 0.35703 0.42738 0.0
C2450 C 0.08916 0.37791 0.42377 0.0
H2451 H 0.04825 0.32887 0.41585 0.0
H2452 H 0.07621 0.3499 0.44134 0.0
C2453 C 0.08638 0.38676 0.40584 0.0
C2454 C 0.03868 0.31901 0.27756 0.0
C2455 C 0.03014 0.30455 0.29349 0.0
H2456 H 0.0519 0.32584 0.24707 0.0
C2457 C 0.02789 0.28527 0.29035 0.0
H2458 H 0.0407 0.33402 0.27955 0.0
C2459 C 0.03405 0.28055 0.27175 0.0
C2460 C 0.04278 0.29503 0.25589 0.0
H2461 H 0.02128 0.27374 0.30225 0.0
H2462 H 0.03208 0.26555 0.26983 0.0
C2463 C 0.04507 0.31434 0.25899 0.0
C2464 C 0.67085 0.75456 0.29375 0.0
C2465 C 0.68155 0.74021 0.30434 0.0
H2466 H 0.68092 0.78702 0.27442 0.0
C2467 C 0.7092 0.75026 0.30524 0.0
H2468 H 0.6543 0.7484 0.29432 0.0
C2469 C 0.72712 0.77463 0.29392 0.0
C2470 C 0.71449 0.7856 0.27807 0.0
H2471 H 0.71507 0.74151 0.31242 0.0
H2472 H 0.74341 0.77987 0.29259 0.0
C2473 C 0.68736 0.77902 0.28216 0.0
C2474 C 0.24948 0.93878 0.29387 0.0
C2475 C 0.26316 0.95715 0.30505 0.0
H2476 H 0.22648 0.92393 0.26927 0.0
C2477 C 0.26347 0.97506 0.29978 0.0
H2478 H 0.24853 0.92459 0.29774 0.0
C2479 C 0.2509 0.97475 0.2832 0.0
C2480 C 0.23793 0.95654 0.27125 0.0
H2481 H 0.27363 0.98942 0.30827 0.0
H2482 H 0.25167 0.98891 0.27976 0.0
C2483 C 0.23689 0.93844 0.2774 0.0
C2484 C 0.73653 0.97019 0.30757 0.0
C2485 C 0.71683 0.96793 0.30767 0.0
H2486 H 0.76105 0.97271 0.28892 0.0
C2487 C 0.70601 0.96482 0.28845 0.0
H2488 H 0.74529 0.97262 0.32208 0.0
C2489 C 0.71506 0.96492 0.26954 0.0
C2490 C 0.73504 0.96793 0.2694 0.0
H2491 H 0.69081 0.96302 0.28791 0.0
H2492 H 0.70667 0.96324 0.25495 0.0
C2493 C 0.74555 0.97021 0.28861 0.0
C2494 C 0.03341 0.76366 0.29494 0.0
C2495 C 0.03353 0.7454 0.29604 0.0
H2496 H 0.03303 0.78587 0.27522 0.0
C2497 C 0.03498 0.73633 0.27738 0.0
H2498 H 0.03218 0.77101 0.30897 0.0
C2499 C 0.03572 0.74504 0.25802 0.0
C2500 C 0.03507 0.763 0.25692 0.0
H2501 H 0.03506 0.72224 0.27765 0.0
H2502 H 0.03623 0.73743 0.24382 0.0
C2503 C 0.03398 0.77226 0.2756 0.0
C2504 C 0.27555 0.32705 0.26597 0.0
C2505 C 0.27547 0.32053 0.28649 0.0
H2506 H 0.26264 0.31857 0.2347 0.0
C2507 C 0.26078 0.30011 0.29141 0.0
H2508 H 0.28671 0.34268 0.26167 0.0
C2509 C 0.24669 0.28639 0.27602 0.0
C2510 C 0.24739 0.29271 0.25529 0.0
H2511 H 0.26023 0.29469 0.30713 0.0
H2512 H 0.23554 0.27073 0.28022 0.0
C2513 C 0.2618 0.31324 0.25051 0.0
C2514 C 0.30997 0.39992 0.38509 0.0
C2515 C 0.30843 0.38081 0.38397 0.0
H2516 H 0.31007 0.42287 0.40473 0.0
C2517 C 0.3043 0.36948 0.40234 0.0
H2518 H 0.31323 0.40912 0.37128 0.0
C2519 C 0.30231 0.37732 0.42146 0.0
C2520 C 0.30429 0.3966 0.42263 0.0
H2521 H 0.30305 0.35473 0.40207 0.0
H2522 H 0.29971 0.36853 0.43547 0.0
C2523 C 0.30808 0.40779 0.40423 0.0
C2524 C 0.66288 0.93701 0.42398 0.0
C2525 C 0.65557 0.93614 0.40333 0.0
H2526 H 0.65509 0.92614 0.45526 0.0
C2527 C 0.63447 0.92199 0.39816 0.0
H2528 H 0.67902 0.94777 0.42849 0.0
C2529 C 0.62085 0.90944 0.41344 0.0
C2530 C 0.62797 0.91098 0.43428 0.0
H2531 H 0.62838 0.92086 0.38236 0.0
H2532 H 0.6046 0.89894 0.40912 0.0
C2533 C 0.64918 0.92466 0.43932 0.0
C2534 C 0.06573 0.72386 0.41478 0.0
C2535 C 0.06658 0.71858 0.39383 0.0
H2536 H 0.07545 0.7247 0.44663 0.0
C2537 C 0.07982 0.71156 0.38878 0.0
H2538 H 0.05552 0.72915 0.41916 0.0
C2539 C 0.09183 0.70966 0.4045 0.0
C2540 C 0.09011 0.71389 0.42567 0.0
H2541 H 0.08082 0.70749 0.37271 0.0
H2542 H 0.10206 0.7044 0.40015 0.0
C2543 C 0.07714 0.72128 0.43054 0.0
C2544 C 0.30539 0.03609 0.74316 0.0
C2545 C 0.29103 0.02739 0.72614 0.0
H2546 H 0.31156 0.04914 0.77434 0.0
C2547 C 0.27096 0.02392 0.72835 0.0
H2548 H 0.32097 0.03897 0.74197 0.0
C2549 C 0.26559 0.02965 0.74688 0.0
C2550 C 0.28019 0.03911 0.76357 0.0
H2551 H 0.25947 0.01712 0.71561 0.0
H2552 H 0.25013 0.02711 0.74796 0.0
C2553 C 0.30004 0.04194 0.76167 0.0
C2554 C 0.96855 0.24504 0.72228 0.0
C2555 C 0.96775 0.2629 0.72075 0.0
H2556 H 0.96362 0.22014 0.74127 0.0
C2557 C 0.96075 0.26913 0.73787 0.0
H2558 H 0.97393 0.23984 0.70942 0.0
C2559 C 0.9546 0.25765 0.75611 0.0
C2560 C 0.95566 0.23991 0.75769 0.0
H2561 H 0.95986 0.28276 0.73713 0.0
H2562 H 0.94906 0.26263 0.76902 0.0
C2563 C 0.96267 0.23375 0.74056 0.0
C2564 C 0.74061 0.71884 0.72442 0.0
C2565 C 0.73807 0.69932 0.72496 0.0
H2566 H 0.75777 0.74997 0.73549 0.0
C2567 C 0.75251 0.69687 0.73658 0.0
H2568 H 0.72983 0.72126 0.71541 0.0
C2569 C 0.76873 0.71339 0.74801 0.0
C2570 C 0.77063 0.73268 0.74868 0.0
H2571 H 0.75124 0.68211 0.73698 0.0
H2572 H 0.77959 0.71091 0.75675 0.0
C2573 C 0.7567 0.73535 0.73613 0.0
C2574 C 0.68494 0.59534 0.64248 0.0
C2575 C 0.69891 0.62282 0.64659 0.0
H2576 H 0.68535 0.56748 0.62112 0.0
C2577 C 0.72353 0.63973 0.63476 0.0
H2578 H 0.67096 0.58566 0.65102 0.0
C2579 C 0.73453 0.62975 0.61708 0.0
C2580 C 0.71655 0.60227 0.60894 0.0
H2581 H 0.73212 0.65595 0.63887 0.0
H2582 H 0.74863 0.63984 0.6089 0.0
C2583 C 0.69445 0.58375 0.62499 0.0
C2584 C 0.37412 0.08092 0.6342 0.0
C2585 C 0.3466 0.07095 0.63597 0.0
H2586 H 0.40669 0.10917 0.61748 0.0
C2587 C 0.33478 0.08434 0.62551 0.0
H2588 H 0.38075 0.07285 0.64139 0.0
C2589 C 0.34988 0.10761 0.61143 0.0
C2590 C 0.37642 0.1137 0.60492 0.0
H2591 H 0.31843 0.07833 0.6277 0.0
H2592 H 0.34264 0.11491 0.60379 0.0
C2593 C 0.39065 0.10411 0.6203 0.0
C2594 C 0.93005 0.29948 0.62882 0.0
C2595 C 0.94363 0.29283 0.62385 0.0
H2596 H 0.90367 0.3011 0.61881 0.0
C2597 C 0.9417 0.28372 0.60402 0.0
H2598 H 0.93126 0.30667 0.64395 0.0
C2599 C 0.9262 0.28079 0.58966 0.0
C2600 C 0.91185 0.28639 0.59499 0.0
H2601 H 0.95217 0.27875 0.59958 0.0
H2602 H 0.92518 0.27375 0.5745 0.0
C2603 C 0.91424 0.29623 0.61452 0.0
C2604 C 0.39186 0.29662 0.63528 0.0
C2605 C 0.37312 0.2963 0.63609 0.0
H2606 H 0.41429 0.29593 0.61582 0.0
C2607 C 0.36165 0.2932 0.61732 0.0
H2608 H 0.40114 0.29905 0.64941 0.0
C2609 C 0.36917 0.29131 0.59812 0.0
C2610 C 0.38823 0.29233 0.59726 0.0
H2611 H 0.34716 0.29289 0.61734 0.0
H2612 H 0.36038 0.28968 0.58384 0.0
C2613 C 0.3994 0.29478 0.61606 0.0
C2614 C 0.70341 0.06684 0.61526 0.0
C2615 C 0.70258 0.07702 0.63336 0.0
H2616 H 0.70317 0.06569 0.58165 0.0
C2617 C 0.70274 0.09535 0.63115 0.0
H2618 H 0.70328 0.05268 0.61639 0.0
C2619 C 0.70249 0.10265 0.61126 0.0
C2620 C 0.70252 0.09204 0.59313 0.0
H2621 H 0.70195 0.1035 0.64474 0.0
H2622 H 0.70146 0.11618 0.61006 0.0
C2623 C 0.70339 0.07429 0.59537 0.0
C2624 C 0.9343 0.66485 0.60003 0.0
C2625 C 0.93503 0.6574 0.61985 0.0
H2626 H 0.92054 0.65762 0.56902 0.0
C2627 C 0.92088 0.63658 0.62391 0.0
H2628 H 0.94498 0.6808 0.5964 0.0
C2629 C 0.90672 0.62338 0.6083 0.0
C2630 C 0.9066 0.63067 0.58822 0.0
H2631 H 0.9209 0.63039 0.63907 0.0
H2632 H 0.8962 0.60735 0.61174 0.0
C2633 C 0.92032 0.65159 0.58434 0.0
C2634 C 0.97043 0.73395 0.72022 0.0
C2635 C 0.96791 0.71441 0.71884 0.0
H2636 H 0.97112 0.75707 0.74008 0.0
C2637 C 0.96271 0.70258 0.73695 0.0
H2638 H 0.97454 0.74353 0.70662 0.0
C2639 C 0.96058 0.71031 0.75607 0.0
C2640 C 0.96349 0.72998 0.75751 0.0
H2641 H 0.96069 0.6875 0.73647 0.0
H2642 H 0.95712 0.7011 0.76989 0.0
C2643 C 0.96839 0.7417 0.73936 0.0
C2644 C 0.29343 0.2573 0.72584 0.0
C2645 C 0.31434 0.27114 0.73191 0.0
H2646 H 0.2631 0.23386 0.73541 0.0
C2647 C 0.32071 0.27168 0.75286 0.0
H2648 H 0.28811 0.25644 0.70975 0.0
C2649 C 0.30631 0.25915 0.7676 0.0
C2650 C 0.28533 0.24552 0.76163 0.0
H2651 H 0.33671 0.28224 0.75802 0.0
H2652 H 0.31156 0.26029 0.78376 0.0
C2653 C 0.27911 0.24442 0.7405 0.0
C2654 C 0.73798 0.03546 0.72761 0.0
C2655 C 0.72616 0.04406 0.73287 0.0
H2656 H 0.75833 0.02576 0.73868 0.0
C2657 C 0.72603 0.0497 0.75387 0.0
H2658 H 0.73845 0.0311 0.71151 0.0
C2659 C 0.7368 0.04602 0.76945 0.0
C2660 C 0.74837 0.03711 0.76432 0.0
H2661 H 0.71694 0.05625 0.75838 0.0
H2662 H 0.73583 0.04989 0.7856 0.0
C2663 C 0.74927 0.03233 0.74315 0.0
C2664 C 0.07321 0.35484 0.02646 0.0
C2665 C 0.05197 0.33439 0.01097 0.0
H2666 H 0.11021 0.36793 0.03913 0.0
C2667 C 0.05487 0.316 0.99588 0.0
H2668 H 0.07109 0.36604 0.03461 0.0
C2669 C 0.07893 0.3165 0.99698 0.0
C2670 C 0.09791 0.33404 0.01771 0.0
H2671 H 0.042 0.30442 0.9862 0.0
H2672 H 0.08015 0.30442 0.98957 0.0
C2673 C 0.09793 0.35674 0.02861 0.0
C2674 C 0.68495 0.74126 0.0038 0.0
C2675 C 0.66798 0.71932 0.01927 0.0
H2676 H 0.69933 0.77937 0.00112 0.0
C2677 C 0.65207 0.72046 0.03935 0.0
H2678 H 0.69369 0.73978 0.99142 0.0
C2679 C 0.65374 0.74425 0.04575 0.0
C2680 C 0.67573 0.76729 0.03353 0.0
H2681 H 0.64151 0.70678 0.04772 0.0
H2682 H 0.64554 0.7455 0.05883 0.0
C2683 C 0.6878 0.76577 0.00898 0.0
C2684 C 0.27352 0.93959 0.05508 0.0
C2685 C 0.28204 0.95824 0.0347 0.0
H2686 H 0.24428 0.92015 0.0803 0.0
C2687 C 0.26862 0.97131 0.02833 0.0
H2688 H 0.28275 0.93312 0.05938 0.0
C2689 C 0.2451 0.965 0.04124 0.0
C2690 C 0.23413 0.9418 0.0576 0.0
H2691 H 0.27495 0.9833 0.01692 0.0
H2692 H 0.23602 0.97148 0.03634 0.0
C2693 C 0.25026 0.93225 0.069 0.0
C2694 C 0.35304 0.08056 0.99368 0.0
C2695 C 0.34049 0.05915 0.99561 0.0
H2696 H 0.35399 0.10852 0.98742 0.0
C2697 C 0.31883 0.04947 0.99237 0.0
H2698 H 0.36975 0.08848 0.99617 0.0
C2699 C 0.3099 0.06087 0.98739 0.0
C2700 C 0.32238 0.08223 0.98531 0.0
H2701 H 0.30863 0.03302 0.99382 0.0
H2702 H 0.29314 0.05295 0.98524 0.0
C2703 C 0.34405 0.09202 0.98863 0.0
C2704 C 0.92395 0.26133 0.0106 0.0
C2705 C 0.95188 0.2778 0.01387 0.0
H2706 H 0.89573 0.22531 0.9988 0.0
C2707 C 0.96903 0.26819 0.01096 0.0
H2708 H 0.91418 0.26755 0.01288 0.0
C2709 C 0.95882 0.24187 0.00291 0.0
C2710 C 0.93099 0.2276 0.99394 0.0
H2711 H 0.98564 0.27845 0.01339 0.0
H2712 H 0.96912 0.23657 0.99907 0.0
C2713 C 0.91222 0.2348 0.00257 0.0
C2714 C 0.72765 0.6945 0.00058 0.0
C2715 C 0.71788 0.67304 0.00193 0.0
H2716 H 0.75527 0.72284 0.99284 0.0
C2717 C 0.72926 0.66384 0.99717 0.0
H2718 H 0.71934 0.70208 0.00422 0.0
C2719 C 0.74974 0.67572 0.99069 0.0
C2720 C 0.75927 0.69705 0.98859 0.0
H2721 H 0.7223 0.6474 0.99821 0.0
H2722 H 0.75808 0.66817 0.987 0.0
C2723 C 0.74817 0.70639 0.994 0.0
C2724 C 0.95473 0.68381 0.01403 0.0
C2725 C 0.95724 0.66894 0.00374 0.0
H2726 H 0.94923 0.70839 0.01081 0.0
C2727 C 0.95382 0.66617 0.98188 0.0
H2728 H 0.95735 0.68644 0.03083 0.0
C2729 C 0.94923 0.6788 0.97045 0.0
C2730 C 0.9477 0.69432 0.98064 0.0
H2731 H 0.95572 0.65494 0.97344 0.0
H2732 H 0.94768 0.67698 0.95352 0.0
C2733 C 0.95012 0.69643 0.00258 0.0
C2734 C 0.32448 0.27868 0.99857 0.0
C2735 C 0.32525 0.29421 0.98641 0.0
H2736 H 0.30873 0.24645 0.00423 0.0
C2737 C 0.31153 0.28864 0.96894 0.0
H2738 H 0.33481 0.28249 0.01215 0.0
C2739 C 0.29644 0.26799 0.96458 0.0
C2740 C 0.2951 0.25253 0.97733 0.0
H2741 H 0.31159 0.30025 0.95939 0.0
H2742 H 0.28531 0.26421 0.95175 0.0
C2743 C 0.30957 0.25806 0.99406 0.0
C2744 C 0.7324 0.03462 0.99115 0.0
C2745 C 0.72826 0.05036 0.99384 0.0
H2746 H 0.75566 0.0269 0.9879 0.0
C2747 C 0.74496 0.0708 0.99586 0.0
H2748 H 0.71979 0.01872 0.98942 0.0
C2749 C 0.76545 0.07539 0.99563 0.0
C2750 C 0.76963 0.05968 0.99279 0.0
H2751 H 0.7422 0.0832 0.99805 0.0
H2752 H 0.77807 0.09127 0.99749 0.0
C2753 C 0.75289 0.03927 0.99034 0.0
C2754 C 0.6785 0.96718 0.03963 0.0
C2755 C 0.66671 0.96077 0.0207 0.0
H2756 H 0.69715 0.96241 0.0616 0.0
C2757 C 0.6631 0.94284 0.01037 0.0
H2758 H 0.68177 0.98108 0.04783 0.0
C2759 C 0.67157 0.93186 0.01849 0.0
C2760 C 0.68418 0.93877 0.0369 0.0
H2761 H 0.65411 0.93757 0.99573 0.0
H2762 H 0.6689 0.91831 0.00998 0.0
C2763 C 0.68738 0.95647 0.0475 0.0
C2764 C 0.02581 0.71827 0.03468 0.0
C2765 C 0.04064 0.71255 0.03319 0.0
H2766 H 0.02017 0.74288 0.03561 0.0
C2767 C 0.06178 0.72795 0.0321 0.0
H2768 H 0.0094 0.70674 0.03568 0.0
C2769 C 0.06786 0.74863 0.03162 0.0
C2770 C 0.05297 0.75429 0.03262 0.0
H2771 H 0.07353 0.724 0.03087 0.0
H2772 H 0.0842 0.76019 0.03017 0.0
C2773 C 0.03193 0.73892 0.0346 0.0
C2774 C 0.28455 0.3314 0.05253 0.0
C2775 C 0.28867 0.33398 0.0311 0.0
H2776 H 0.26382 0.31234 0.076 0.0
C2777 C 0.27366 0.31988 0.01647 0.0
H2778 H 0.2961 0.3419 0.06409 0.0
C2779 C 0.25489 0.30329 0.02317 0.0
C2780 C 0.25101 0.30008 0.04466 0.0
H2781 H 0.27662 0.32152 -0.00017 0.0
H2782 H 0.24364 0.29253 0.01157 0.0
C2783 C 0.26606 0.31441 0.0593 0.0
C2784 C 0.72515 0.66935 0.35049 0.0
C2785 C 0.71267 0.68213 0.36083 0.0
H2786 H 0.75334 0.6619 0.35933 0.0
C2787 C 0.72214 0.698 0.38447 0.0
H2788 H 0.7195 0.66062 0.33586 0.0
C2789 C 0.74367 0.70043 0.3996 0.0
C2790 C 0.7518 0.68235 0.39144 0.0
H2791 H 0.71471 0.706 0.38975 0.0
H2792 H 0.7482 0.70835 0.41473 0.0
C2793 C 0.7468 0.67078 0.36447 0.0
C2794 C 0.33609 0.04865 0.39164 0.0
C2795 C 0.34429 0.04519 0.36632 0.0
H2796 H 0.34368 0.07604 0.41924 0.0
C2797 C 0.36676 0.06577 0.35386 0.0
H2798 H 0.32324 0.03569 0.39911 0.0
C2799 C 0.38107 0.09115 0.36571 0.0
C2800 C 0.36836 0.09497 0.3885 0.0
H2801 H 0.37181 0.06284 0.3392 0.0
H2802 H 0.39341 0.10393 0.35753 0.0
C2803 C 0.34935 0.07344 0.40482 0.0
C2804 C 0.94133 0.30597 0.36127 0.0
C2805 C 0.94955 0.29341 0.35839 0.0
H2806 H 0.91442 0.30722 0.36873 0.0
C2807 C 0.93627 0.27202 0.35957 0.0
H2808 H 0.95121 0.32251 0.36032 0.0
C2809 C 0.91536 0.26335 0.36407 0.0
C2810 C 0.90731 0.27589 0.3681 0.0
H2811 H 0.94206 0.26191 0.35705 0.0
H2812 H 0.90556 0.24678 0.36478 0.0
C2813 C 0.92037 0.29726 0.36616 0.0
C2814 C 0.02952 0.4034 0.31497 0.0
C2815 C 0.01412 0.39245 0.32974 0.0
H2816 H 0.04789 0.43184 0.29929 0.0
C2817 C 0.00426 0.40176 0.33895 0.0
H2818 H 0.03749 0.39672 0.30766 0.0
C2819 C 0.0101 0.42178 0.334 0.0
C2820 C 0.02585 0.43291 0.31966 0.0
H2821 H 0.99235 0.39376 0.35038 0.0
H2822 H 0.00268 0.42879 0.3418 0.0
C2823 C 0.03544 0.42348 0.31011 0.0
C2824 C 0.64048 0.61844 0.31001 0.0
C2825 C 0.62585 0.63006 0.30267 0.0
H2826 H 0.64074 0.58571 0.3051 0.0
C2827 C 0.60477 0.61833 0.28334 0.0
H2828 H 0.65344 0.62627 0.32116 0.0
C2829 C 0.59646 0.5936 0.27172 0.0
C2830 C 0.60804 0.57998 0.28437 0.0
H2831 H 0.59687 0.62612 0.27881 0.0
H2832 H 0.5828 0.58572 0.26141 0.0
C2833 C 0.63337 0.59364 0.29932 0.0
C2834 C 0.37045 0.96535 0.32802 0.0
C2835 C 0.36388 0.97871 0.33402 0.0
H2836 H 0.39578 0.96243 0.31844 0.0
C2837 C 0.37842 1e-05 0.33465 0.0
H2838 H 0.3597 0.94886 0.32756 0.0
C2839 C 0.39903 0.00776 0.32921 0.0
C2840 C 0.40553 0.99442 0.32295 0.0
H2841 H 0.37391 0.01073 0.3393 0.0
H2842 H 0.40993 0.02422 0.32992 0.0
C2843 C 0.39109 0.97311 0.32272 0.0
C2844 C 0.60828 0.95157 0.30525 0.0
C2845 C 0.63286 0.97535 0.30227 0.0
H2846 H 0.57029 0.93322 0.29364 0.0
C2847 C 0.63607 0.99418 0.28349 0.0
H2848 H 0.60715 0.94038 0.31619 0.0
C2849 C 0.6142 0.99057 0.26803 0.0
C2850 C 0.58849 0.96889 0.27621 0.0
H2851 H 0.6512 0.00791 0.28167 0.0
H2852 H 0.61557 0.0025 0.25802 0.0
C2853 C 0.58543 0.94648 0.29053 0.0
C2854 C 0.99959 0.62983 0.31401 0.0
C2855 C 0.01982 0.64227 0.32282 0.0
H2856 H 0.97485 0.59934 0.30521 0.0
C2857 C 0.0314 0.63324 0.32765 0.0
H2858 H 0.99023 0.63628 0.31009 0.0
C2859 C 0.02256 0.61208 0.3248 0.0
C2860 C 0.00204 0.59954 0.31687 0.0
H2861 H 0.047 0.64235 0.33447 0.0
H2862 H 0.03152 0.6054 0.3295 0.0
C2863 C 0.99077 0.60868 0.31115 0.0
C2864 C 0.38728 0.36533 0.31542 0.0
C2865 C 0.38198 0.38034 0.31683 0.0
H2866 H 0.41163 0.35914 0.31227 0.0
C2867 C 0.39774 0.40115 0.31576 0.0
H2868 H 0.37539 0.34915 0.31599 0.0
C2869 C 0.41853 0.40687 0.31423 0.0
C2870 C 0.42391 0.39188 0.31333 0.0
H2871 H 0.3941 0.41303 0.31682 0.0
H2872 H 0.43045 0.42305 0.31402 0.0
C2873 C 0.408 0.37103 0.31337 0.0
C2874 C 0.33273 0.28104 0.34268 0.0
C2875 C 0.33105 0.29566 0.35453 0.0
H2876 H 0.34522 0.26163 0.3411 0.0
C2877 C 0.33958 0.30066 0.37509 0.0
H2878 H 0.32638 0.2769 0.32678 0.0
C2879 C 0.35054 0.29208 0.38318 0.0
C2880 C 0.35279 0.27793 0.37107 0.0
H2881 H 0.33874 0.31202 0.38456 0.0
H2882 H 0.35787 0.29706 0.39864 0.0
C2883 C 0.34348 0.27227 0.35087 0.0
C2884 C 0.72892 0.05506 0.36948 0.0
C2885 C 0.708 0.03888 0.36799 0.0
H2886 H 0.75039 0.08758 0.36926 0.0
C2887 C 0.69234 0.04352 0.36689 0.0
H2888 H 0.74133 0.05196 0.37032 0.0
C2889 C 0.69752 0.06394 0.36676 0.0
C2890 C 0.71849 0.08011 0.36705 0.0
H2891 H 0.67607 0.03135 0.36594 0.0
H2892 H 0.68514 0.06707 0.36584 0.0
C2893 C 0.7341 0.07545 0.36882 0.0
C2894 C 0.95742 0.68509 0.39161 0.0
C2895 C 0.9633 0.67972 0.37305 0.0
H2896 H 0.93466 0.67596 0.41502 0.0
C2897 C 0.94947 0.6606 0.36313 0.0
H2898 H 0.9679 0.69955 0.39981 0.0
C2899 C 0.93007 0.64715 0.37163 0.0
C2900 C 0.92425 0.65245 0.39032 0.0
H2901 H 0.95367 0.65602 0.34887 0.0
H2902 H 0.91969 0.63246 0.36378 0.0
C2903 C 0.9383 0.67151 0.40032 0.0
C2904 C 0.39511 0.03364 0.70952 0.0
C2905 C 0.38521 0.02047 0.69196 0.0
H2906 H 0.42205 0.04846 0.73014 0.0
C2907 C 0.39485 0.01112 0.68238 0.0
H2908 H 0.38816 0.0412 0.71718 0.0
C2909 C 0.41411 0.0151 0.68996 0.0
C2910 C 0.42415 0.02847 0.70732 0.0
H2911 H 0.38765 0.00091 0.66882 0.0
H2912 H 0.42139 0.00803 0.68198 0.0
C2913 C 0.41447 0.03774 0.71701 0.0
C2914 C 0.02526 0.39988 0.68741 0.0
C2915 C 0.00539 0.3754 0.6972 0.0
H2916 H 0.04414 0.43811 0.69545 0.0
C2917 C 0.99406 0.37311 0.72247 0.0
H2918 H 0.03241 0.40052 0.67269 0.0
C2919 C 0.00128 0.39565 0.73833 0.0
C2920 C 0.01724 0.42041 0.72471 0.0
H2921 H 0.98298 0.35809 0.72827 0.0
H2922 H 0.99351 0.39463 0.75274 0.0
C2923 C 0.03356 0.4233 0.70201 0.0
C2924 C 0.62165 0.61383 0.74328 0.0
C2925 C 0.62974 0.62897 0.71997 0.0
H2926 H 0.59116 0.59523 0.76727 0.0
C2927 C 0.61418 0.63774 0.70763 0.0
H2928 H 0.6318 0.60963 0.75074 0.0
C2929 C 0.58902 0.63027 0.71739 0.0
C2930 C 0.57925 0.61004 0.73748 0.0
H2931 H 0.61994 0.64748 0.69418 0.0
H2932 H 0.5788 0.63385 0.709 0.0
C2933 C 0.59682 0.60558 0.75429 0.0
C2934 C 0.65615 0.69779 0.64344 0.0
C2935 C 0.67205 0.70841 0.65883 0.0
H2936 H 0.63277 0.69783 0.62393 0.0
C2937 C 0.6778 0.72844 0.66497 0.0
H2938 H 0.65129 0.68229 0.63845 0.0
C2939 C 0.66736 0.7374 0.65649 0.0
C2940 C 0.65078 0.72642 0.64185 0.0
H2941 H 0.69005 0.73704 0.67674 0.0
H2942 H 0.67178 0.75267 0.66189 0.0
C2943 C 0.6455 0.70666 0.63516 0.0
C2944 C 0.30784 0.95078 0.6526 0.0
C2945 C 0.29259 0.96172 0.6452 0.0
H2946 H 0.30844 0.91811 0.64891 0.0
C2947 C 0.27067 0.94883 0.62691 0.0
H2948 H 0.32133 0.95931 0.66301 0.0
C2949 C 0.26219 0.92364 0.61646 0.0
C2950 C 0.27465 0.91095 0.62931 0.0
H2951 H 0.26244 0.95624 0.62222 0.0
H2952 H 0.24813 0.91516 0.60679 0.0
C2953 C 0.30061 0.92557 0.64305 0.0
C2954 C 0.06115 0.32351 0.65076 0.0
C2955 C 0.04949 0.33244 0.65531 0.0
H2956 H 0.09071 0.32836 0.64282 0.0
C2957 C 0.05936 0.35396 0.65542 0.0
H2958 H 0.05409 0.307 0.65088 0.0
C2959 C 0.08035 0.36623 0.65038 0.0
C2960 C 0.09183 0.35722 0.64524 0.0
H2961 H 0.05078 0.36128 0.65899 0.0
H2962 H 0.08759 0.38277 0.65032 0.0
C2963 C 0.08213 0.33575 0.64606 0.0
C2964 C 0.30015 0.33524 0.64051 0.0
C2965 C 0.30135 0.33554 0.66254 0.0
H2966 H 0.29555 0.3484 0.61309 0.0
C2967 C 0.29701 0.34865 0.67388 0.0
H2968 H 0.3035 0.32541 0.63129 0.0
C2969 C 0.29253 0.36185 0.66344 0.0
C2970 C 0.29207 0.36207 0.64144 0.0
H2971 H 0.2979 0.34935 0.69087 0.0
H2972 H 0.28999 0.37231 0.67258 0.0
C2973 C 0.29564 0.34842 0.63007 0.0
C2974 C 0.64255 0.94646 0.6722 0.0
C2975 C 0.65676 0.96479 0.66237 0.0
H2976 H 0.62136 0.91392 0.66881 0.0
C2977 C 0.66122 0.96392 0.64123 0.0
H2978 H 0.63869 0.94659 0.68844 0.0
C2979 C 0.65131 0.94518 0.63004 0.0
C2980 C 0.63681 0.9269 0.63977 0.0
H2981 H 0.67202 0.97776 0.63317 0.0
H2982 H 0.65468 0.94501 0.61364 0.0
C2983 C 0.63261 0.92773 0.66098 0.0
C2984 C 0.05778 0.73217 0.65561 0.0
C2985 C 0.04153 0.71147 0.65523 0.0
H2986 H 0.09074 0.75347 0.65668 0.0
C2987 C 0.04634 0.6961 0.65399 0.0
H2988 H 0.05452 0.74433 0.6566 0.0
C2989 C 0.06705 0.70134 0.65357 0.0
C2990 C 0.08337 0.72203 0.65506 0.0
H2991 H 0.03409 0.68001 0.65348 0.0
H2992 H 0.07032 0.68919 0.65261 0.0
C2993 C 0.0785 0.73739 0.65574 0.0
C2994 C 0.98283 0.62099 0.70595 0.0
C2995 C 0.96616 0.61571 0.6918 0.0
H2996 H 4e-05 0.61072 0.72326 0.0
C2997 C 0.95299 0.59504 0.68535 0.0
H2998 H 0.99339 0.63681 0.71107 0.0
C2999 C 0.95666 0.58005 0.69258 0.0
C3000 C 0.97355 0.58538 0.70639 0.0
H3001 H 0.94008 0.59048 0.67439 0.0
H3002 H 0.94657 0.56431 0.68697 0.0
C3003 C 0.98663 0.60604 0.71299 0.0
C3004 C 0.36871 0.38176 0.6998 0.0
C3005 C 0.38237 0.37456 0.70132 0.0
H3006 H 0.36559 0.40789 0.69767 0.0
C3007 C 0.40389 0.38883 0.70299 0.0
H3008 H 0.35202 0.3711 0.69864 0.0
C3009 C 0.41163 0.40987 0.70197 0.0
C3010 C 0.39799 0.41702 0.69966 0.0
H3011 H 0.41477 0.38372 0.70409 0.0
H3012 H 0.42833 0.42055 0.70249 0.0
C3013 C 0.37644 0.40278 0.69919 0.0
C3014 C 0.61287 0.99648 0.70175 0.0
C3015 C 0.62444 0.01803 0.701 0.0
H3016 H 0.58262 0.96913 0.70306 0.0
C3017 C 0.61397 0.02866 0.70151 0.0
H3018 H 0.62057 0.98791 0.70152 0.0
C3019 C 0.59226 0.01789 0.70181 0.0
C3020 C 0.58063 0.99631 0.70203 0.0
H3021 H 0.62249 0.04526 0.70086 0.0
H3022 H 0.58453 0.02643 0.70153 0.0
C3023 C 0.59118 0.98574 0.70255 0.0
loop_
_geom_bond_atom_site_label_1
_geom_bond_atom_site_label_2
_geom_bond_distance
_geom_bond_site_symmetry_2
_ccdc_geom_bond_type
Zn0 O3 2.012 1_554 S
Zn0 O5 2.080 . S
Zn0 O10 2.050 1_554 S
Zn1 O2 1.962 1_455 S
Zn1 O4 1.986 . S
Zn1 O6 1.996 1_455 S
Zn1 O9 1.943 1_554 S
O2 Zn1 1.962 1_655 S
O2 C7 1.254 1_554 S
O3 Zn0 2.012 1_556 S
O3 C7 1.269 . S
O4 Zn1 1.986 . S
O4 C11 1.262 . S
O5 Zn0 2.080 . S
O5 C13 1.260 . S
O6 Zn1 1.996 1_655 S
O6 C13 1.257 . S
C7 O2 1.254 1_556 S
C7 O3 1.269 . S
C8 O9 1.249 . S
C8 O10 1.270 1_455 S
O9 Zn1 1.943 1_556 S
O9 C8 1.249 . S
O10 Zn0 2.050 1_556 S
O10 C8 1.270 1_655 S
C11 O4 1.262 . S
C11 O12 1.232 . S
O12 C11 1.232 . S
C13 O5 1.260 . S
C13 O6 1.257 . S
Zn14 O17 2.031 1_554 S
Zn14 O19 2.049 . S
Zn14 O24 2.067 1_554 S
Zn15 O16 1.962 . S
Zn15 O18 1.986 . S
Zn15 O20 1.996 . S
Zn15 O23 1.943 . S
O16 Zn15 1.962 . S
O16 C21 1.254 1_554 S
O17 Zn14 2.031 1_556 S
O17 C21 1.269 . S
O18 Zn15 1.986 . S
O18 C25 1.262 . S
O19 Zn14 2.049 . S
O19 C27 1.260 . S
O20 Zn15 1.996 . S
O20 C27 1.257 . S
C21 O16 1.254 1_556 S
C21 O17 1.269 . S
C22 O23 1.249 1_556 S
C22 O24 1.270 . S
O23 Zn15 1.943 . S
O23 C22 1.249 1_554 S
O24 Zn14 2.067 1_556 S
O24 C22 1.270 . S
C25 O18 1.262 . S
C25 O26 1.232 . S
O26 C25 1.232 . S
C27 O19 1.260 . S
C27 O20 1.257 . S
Zn28 O31 2.031 . S
Zn28 O33 2.049 1_554 S
Zn28 O38 2.039 1_565 S
Zn29 O30 1.962 1_545 S
Zn29 O32 1.986 1_554 S
Zn29 O34 1.996 1_544 S
Zn29 O37 1.943 . S
O30 Zn29 1.962 1_565 S
O30 C35 1.254 . S
O31 Zn28 2.031 . S
O31 C35 1.269 . S
O32 Zn29 1.986 1_556 S
O32 C39 1.262 . S
O33 Zn28 2.049 1_556 S
O33 C41 1.260 . S
O34 Zn29 1.996 1_566 S
O34 C41 1.257 . S
C35 O30 1.254 . S
C35 O31 1.269 . S
C36 O37 1.249 . S
C36 O38 1.322 . S
O37 Zn29 1.943 . S
O37 C36 1.249 . S
O38 Zn28 2.039 1_545 S
O38 C36 1.322 . S
C39 O32 1.262 . S
C39 O40 1.232 1_556 S
O40 C39 1.232 1_554 S
C41 O33 1.260 . S
C41 O34 1.257 . S
Zn42 O45 2.031 . S
Zn42 O47 2.049 1_554 S
Zn42 O52 2.067 . S
Zn43 O44 1.962 1_655 S
Zn43 O46 1.986 1_554 S
Zn43 O48 1.996 1_654 S
Zn43 O51 1.943 . S
O44 Zn43 1.962 1_455 S
O44 C49 1.254 . S
O45 Zn42 2.031 . S
O45 C49 1.269 . S
O46 Zn43 1.986 1_556 S
O46 C53 1.262 . S
O47 Zn42 2.049 1_556 S
O47 C55 1.260 . S
O48 Zn43 1.996 1_456 S
O48 C55 1.257 . S
C49 O44 1.254 . S
C49 O45 1.269 . S
C50 O51 1.249 . S
C50 O52 1.270 1_655 S
O51 Zn43 1.943 . S
O51 C50 1.249 . S
O52 Zn42 2.067 . S
O52 C50 1.270 1_455 S
C53 O46 1.262 . S
C53 O54 1.232 1_556 S
O54 C53 1.232 1_554 S
C55 O47 1.260 . S
C55 O48 1.257 . S
Zn56 O59 2.031 . S
Zn56 O61 2.049 1_554 S
Zn56 O66 2.067 . S
Zn57 O58 1.962 1_556 S
Zn57 O60 1.986 . S
Zn57 O62 1.996 . S
Zn57 O65 1.943 1_556 S
O58 Zn57 1.962 1_554 S
O58 C63 1.254 . S
O59 Zn56 2.031 . S
O59 C63 1.269 . S
O60 Zn57 1.986 . S
O60 C67 1.262 . S
O61 Zn56 2.049 1_556 S
O61 C69 1.260 . S
O62 Zn57 1.996 . S
O62 C69 1.257 . S
C63 O58 1.254 . S
C63 O59 1.269 . S
C64 O65 1.249 . S
C64 O66 1.270 . S
O65 Zn57 1.943 1_554 S
O65 C64 1.249 . S
O66 Zn56 2.067 . S
O66 C64 1.270 . S
C67 O60 1.262 . S
C67 O68 1.232 1_556 S
O68 C67 1.232 1_554 S
C69 O61 1.260 . S
C69 O62 1.257 . S
Zn70 O73 2.031 1_554 S
Zn70 O75 2.049 . S
Zn70 O80 2.067 1_554 S
Zn71 O72 1.962 1_565 S
Zn71 O74 1.986 . S
Zn71 O76 1.996 1_565 S
Zn71 O79 1.918 1_554 S
O72 Zn71 1.962 1_545 S
O72 C77 1.254 1_554 S
O73 Zn70 2.031 1_556 S
O73 C77 1.269 . S
O74 Zn71 1.986 . S
O74 C81 1.262 . S
O75 Zn70 2.049 . S
O75 C83 1.260 . S
O76 Zn71 1.996 1_545 S
O76 C83 1.257 . S
C77 O72 1.254 1_556 S
C77 O73 1.269 . S
C78 O79 1.268 . S
C78 O80 1.270 1_565 S
O79 Zn71 1.918 1_556 S
O79 C78 1.268 . S
O80 Zn70 2.067 1_556 S
O80 C78 1.270 1_545 S
C81 O74 1.262 . S
C81 O82 1.232 . S
O82 C81 1.232 . S
C83 O75 1.260 . S
C83 O76 1.257 . S
Zn84 O87 2.031 . S
Zn84 O89 2.049 . S
Zn84 O94 2.067 . S
Zn85 O86 1.962 . S
Zn85 O88 1.986 . S
Zn85 O90 1.996 . S
Zn85 O93 1.943 . S
O86 Zn85 1.962 . S
O86 C91 1.254 . S
O87 Zn84 2.031 . S
O87 C91 1.269 . S
O88 Zn85 1.986 . S
O88 C95 1.262 . S
O89 Zn84 2.049 . S
O89 C97 1.260 . S
O90 Zn85 1.996 . S
O90 C97 1.257 . S
C91 O86 1.254 . S
C91 O87 1.269 . S
C92 O93 1.249 . S
C92 O94 1.270 . S
O93 Zn85 1.943 . S
O93 C92 1.249 . S
O94 Zn84 2.067 . S
O94 C92 1.270 . S
C95 O88 1.262 . S
C95 O96 1.232 . S
O96 C95 1.232 . S
C97 O89 1.260 . S
C97 O90 1.257 . S
Zn98 O101 2.031 . S
Zn98 O103 2.049 . S
Zn98 O108 2.067 . S
Zn99 O100 1.962 . S
Zn99 O102 1.986 1_565 S
Zn99 O104 1.996 . S
Zn99 O107 1.943 . S
O100 Zn99 1.962 . S
O100 C105 1.254 . S
O101 Zn98 2.031 . S
O101 C105 1.269 . S
O102 Zn99 1.986 1_545 S
O102 C109 1.262 . S
O103 Zn98 2.049 . S
O103 C111 1.260 . S
O104 Zn99 1.996 . S
O104 C111 1.257 . S
C105 O100 1.254 . S
C105 O101 1.269 . S
C106 O107 1.249 . S
C106 O108 1.270 . S
O107 Zn99 1.943 . S
O107 C106 1.249 . S
O108 Zn98 2.067 . S
O108 C106 1.270 . S
C109 O102 1.262 . S
C109 O110 1.232 . S
O110 C109 1.232 . S
C111 O103 1.260 . S
C111 O104 1.257 . S
Zn112 O115 2.031 . S
Zn112 O117 2.049 . S
Zn112 O122 2.067 . S
Zn113 O114 1.962 1_455 S
Zn113 O116 1.986 . S
Zn113 O118 1.996 . S
Zn113 O121 1.943 . S
O114 Zn113 1.962 1_655 S
O114 C119 1.254 . S
O115 Zn112 2.031 . S
O115 C119 1.269 1_455 S
O116 Zn113 1.986 . S
O116 C123 1.262 . S
O117 Zn112 2.049 . S
O117 C125 1.260 . S
O118 Zn113 1.996 . S
O118 C125 1.257 . S
C119 O114 1.254 . S
C119 O115 1.269 1_655 S
C120 O121 1.249 . S
C120 O122 1.270 . S
O121 Zn113 1.943 . S
O121 C120 1.249 . S
O122 Zn112 2.067 . S
O122 C120 1.270 . S
C123 O116 1.262 . S
C123 O124 1.232 . S
O124 C123 1.232 . S
C125 O117 1.260 . S
C125 O118 1.257 . S
Zn126 O129 2.012 1_565 S
Zn126 O131 2.049 . S
Zn126 O136 2.067 . S
Zn127 O128 1.962 1_565 S
Zn127 O130 1.986 . S
Zn127 O132 1.996 . S
Zn127 O135 1.943 . S
O128 Zn127 1.962 1_545 S
O128 C133 1.254 . S
O129 Zn126 2.012 1_545 S
O129 C133 1.291 . S
O130 Zn127 1.986 . S
O130 C137 1.262 . S
O131 Zn126 2.049 . S
O131 C139 1.260 . S
O132 Zn127 1.996 . S
O132 C139 1.257 . S
C133 O128 1.254 . S
C133 O129 1.291 . S
C134 O135 1.249 . S
C134 O136 1.270 . S
O135 Zn127 1.943 . S
O135 C134 1.249 . S
O136 Zn126 2.067 . S
O136 C134 1.270 . S
C137 O130 1.262 . S
C137 O138 1.232 . S
O138 C137 1.232 . S
C139 O131 1.260 . S
C139 O132 1.257 . S
Zn140 O143 2.045 . S
Zn140 O145 2.049 . S
Zn140 O150 2.067 . S
Zn141 O142 1.962 1_455 S
Zn141 O144 1.986 . S
Zn141 O146 1.996 . S
Zn141 O149 1.943 . S
O142 Zn141 1.962 1_655 S
O142 C147 1.254 . S
O143 Zn140 2.045 . S
O143 C147 1.248 1_455 S
O144 Zn141 1.986 . S
O144 C151 1.262 . S
O145 Zn140 2.049 . S
O145 C153 1.260 . S
O146 Zn141 1.996 . S
O146 C153 1.257 . S
C147 O142 1.254 . S
C147 O143 1.248 1_655 S
C148 O149 1.249 . S
C148 O150 1.270 . S
O149 Zn141 1.943 . S
O149 C148 1.249 . S
O150 Zn140 2.067 . S
O150 C148 1.270 . S
C151 O144 1.262 . S
C151 O152 1.232 . S
O152 C151 1.232 . S
C153 O145 1.260 . S
C153 O146 1.257 . S
Zn154 O157 2.031 . S
Zn154 O159 2.049 . S
Zn154 O164 2.067 . S
Zn155 O156 1.962 . S
Zn155 O158 1.986 . S
Zn155 O160 1.996 . S
Zn155 O163 1.943 . S
O156 Zn155 1.962 . S
O156 C161 1.254 . S
O157 Zn154 2.031 . S
O157 C161 1.269 . S
O158 Zn155 1.986 . S
O158 C165 1.262 . S
O159 Zn154 2.049 . S
O159 C167 1.260 . S
O160 Zn155 1.996 . S
O160 C167 1.257 . S
C161 O156 1.254 . S
C161 O157 1.269 . S
C162 O163 1.249 . S
C162 O164 1.270 . S
O163 Zn155 1.943 . S
O163 C162 1.249 . S
O164 Zn154 2.067 . S
O164 C162 1.270 . S
C165 O158 1.262 . S
C165 O166 1.232 . S
O166 C165 1.232 . S
C167 O159 1.260 . S
C167 O160 1.257 . S
Zn168 O171 2.031 . S
Zn168 O173 2.049 . S
Zn168 O178 2.067 . S
Zn169 O170 1.962 1_545 S
Zn169 O172 1.986 . S
Zn169 O174 1.996 . S
Zn169 O177 1.943 . S
O170 Zn169 1.962 1_565 S
O170 C175 1.254 . S
O171 Zn168 2.031 . S
O171 C175 1.269 1_545 S
O172 Zn169 1.986 . S
O172 C179 1.262 . S
O173 Zn168 2.049 . S
O173 C181 1.260 . S
O174 Zn169 1.996 . S
O174 C181 1.257 . S
C175 O170 1.254 . S
C175 O171 1.269 1_565 S
C176 O177 1.249 . S
C176 O178 1.270 . S
O177 Zn169 1.943 . S
O177 C176 1.249 . S
O178 Zn168 2.067 . S
O178 C176 1.270 . S
C179 O172 1.262 . S
C179 O180 1.232 . S
O180 C179 1.232 . S
C181 O173 1.260 . S
C181 O174 1.257 . S
Zn182 O185 2.031 1_655 S
Zn182 O187 2.049 . S
Zn182 O192 2.067 . S
Zn183 O184 1.962 1_655 S
Zn183 O186 1.986 . S
Zn183 O188 1.996 . S
Zn183 O191 1.943 . S
O184 Zn183 1.962 1_455 S
O184 C189 1.254 . S
O185 Zn182 2.031 1_455 S
O185 C189 1.269 . S
O186 Zn183 1.986 . S
O186 C193 1.262 . S
O187 Zn182 2.049 . S
O187 C195 1.260 . S
O188 Zn183 1.996 . S
O188 C195 1.257 . S
C189 O184 1.254 . S
C189 O185 1.269 . S
C190 O191 1.249 . S
C190 O192 1.270 . S
O191 Zn183 1.943 . S
O191 C190 1.249 . S
O192 Zn182 2.067 . S
O192 C190 1.270 . S
C193 O186 1.262 . S
C193 O194 1.232 . S
O194 C193 1.232 . S
C195 O187 1.260 . S
C195 O188 1.257 . S
Zn196 O199 2.031 . S
Zn196 O201 2.049 . S
Zn196 O206 2.067 . S
Zn197 O198 1.962 . S
Zn197 O200 1.986 . S
Zn197 O202 1.996 . S
Zn197 O205 1.943 . S
O198 Zn197 1.962 . S
O198 C203 1.254 . S
O199 Zn196 2.031 . S
O199 C203 1.269 . S
O200 Zn197 1.986 . S
O200 C207 1.262 . S
O201 Zn196 2.049 . S
O201 C209 1.260 . S
O202 Zn197 1.996 . S
O202 C209 1.257 . S
C203 O198 1.254 . S
C203 O199 1.269 . S
C204 O205 1.249 . S
C204 O206 1.270 . S
O205 Zn197 1.943 . S
O205 C204 1.249 . S
O206 Zn196 2.067 . S
O206 C204 1.270 . S
C207 O200 1.262 . S
C207 O208 1.232 . S
O208 C207 1.232 . S
C209 O201 1.260 . S
C209 O202 1.257 . S
Zn210 O213 2.031 . S
Zn210 O215 2.049 . S
Zn210 O220 2.067 . S
Zn211 O212 1.962 . S
Zn211 O214 1.986 . S
Zn211 O216 1.996 . S
Zn211 O219 1.943 . S
O212 Zn211 1.962 . S
O212 C217 1.254 . S
O213 Zn210 2.031 . S
O213 C217 1.269 . S
O214 Zn211 1.986 . S
O214 C221 1.262 . S
O215 Zn210 2.049 . S
O215 C223 1.260 . S
O216 Zn211 1.996 . S
O216 C223 1.257 . S
C217 O212 1.254 . S
C217 O213 1.269 . S
C218 O219 1.249 . S
C218 O220 1.270 . S
O219 Zn211 1.943 . S
O219 C218 1.249 . S
O220 Zn210 2.067 . S
O220 C218 1.270 . S
C221 O214 1.262 . S
C221 O222 1.232 . S
O222 C221 1.232 . S
C223 O215 1.260 . S
C223 O216 1.257 . S
Zn224 O227 2.031 . S
Zn224 O229 2.049 . S
Zn224 O234 2.067 . S
Zn225 O226 1.962 . S
Zn225 O228 1.986 1_545 S
Zn225 O230 1.996 . S
Zn225 O233 1.943 . S
O226 Zn225 1.962 . S
O226 C231 1.254 . S
O227 Zn224 2.031 . S
O227 C231 1.269 . S
O228 Zn225 1.986 1_565 S
O228 C235 1.262 . S
O229 Zn224 2.049 . S
O229 C237 1.260 . S
O230 Zn225 1.996 . S
O230 C237 1.257 . S
C231 O226 1.254 . S
C231 O227 1.269 . S
C232 O233 1.249 . S
C232 O234 1.270 . S
O233 Zn225 1.943 . S
O233 C232 1.249 . S
O234 Zn224 2.067 . S
O234 C232 1.270 . S
C235 O228 1.262 . S
C235 O236 1.232 . S
O236 C235 1.232 . S
C237 O229 1.260 . S
C237 O230 1.257 . S
Zn238 O241 2.031 . S
Zn238 O243 2.049 . S
Zn238 O248 2.067 . S
Zn239 O240 1.962 1_655 S
Zn239 O242 1.986 . S
Zn239 O244 1.996 . S
Zn239 O247 1.943 . S
O240 Zn239 1.962 1_455 S
O240 C245 1.254 . S
O241 Zn238 2.031 . S
O241 C245 1.269 1_655 S
O242 Zn239 1.986 . S
O242 C249 1.262 . S
O243 Zn238 2.049 . S
O243 C251 1.260 . S
O244 Zn239 1.996 . S
O244 C251 1.257 . S
C245 O240 1.254 . S
C245 O241 1.269 1_455 S
C246 O247 1.249 . S
C246 O248 1.270 . S
O247 Zn239 1.943 . S
O247 C246 1.249 . S
O248 Zn238 2.067 . S
O248 C246 1.270 . S
C249 O242 1.262 . S
C249 O250 1.232 . S
O250 C249 1.232 . S
C251 O243 1.260 . S
C251 O244 1.257 . S
C252 C253 1.560 . S
C252 H313 0.959 . S
C252 H314 0.959 . S
C252 H315 0.960 . S
C253 C252 1.560 . S
C253 O308 1.426 . S
C253 H312 0.980 . S
C254 C255 1.407 . S
C254 C259 1.418 . S
C254 O308 1.334 . S
C255 C254 1.407 . S
C255 C256 1.360 . S
C255 H316 0.929 . S
C256 C255 1.360 . S
C256 C257 1.401 . S
C256 C260 1.527 . S
C257 C256 1.401 . S
C257 C258 1.405 . S
C257 C290 1.587 . S
C258 C257 1.405 . S
C258 C259 1.332 . S
C258 C261 1.496 . S
C259 C254 1.418 . S
C259 C258 1.332 . S
C259 H317 0.929 . S
C260 C256 1.527 . S
C260 H318 0.959 . S
C260 H319 0.961 . S
C260 H320 0.961 . S
C261 C258 1.496 . S
C261 H321 0.960 . S
C261 H322 0.960 . S
C261 H323 0.961 . S
C262 C263 1.517 . S
C262 H325 0.961 . S
C262 H326 0.960 . S
C262 H327 0.959 . S
C263 C262 1.517 . S
C263 O311 1.468 . S
C263 H324 0.980 . S
C264 C265 1.349 . S
C264 C269 1.367 . S
C264 O311 1.408 . S
C265 C264 1.349 . S
C265 C266 1.407 . S
C265 H328 0.930 . S
C266 C265 1.407 . S
C266 C267 1.449 . S
C266 C270 1.535 . S
C267 C266 1.449 . S
C267 C268 1.384 . S
C267 C292 1.553 . S
C268 C267 1.384 . S
C268 C269 1.364 . S
C268 C271 1.450 . S
C269 C264 1.367 . S
C269 C268 1.364 . S
C269 H329 0.931 . S
C270 C266 1.535 . S
C270 H330 0.959 . S
C270 H331 0.961 . S
C270 H332 0.959 . S
C271 C268 1.450 . S
C271 H333 0.960 . S
C271 H334 0.960 . S
C271 H335 0.960 . S
C272 C273 1.309 . S
C272 C277 1.304 . S
C272 O310 1.435 . S
C273 C272 1.309 . S
C273 C274 1.476 . S
C273 H337 0.930 . S
C274 C273 1.476 . S
C274 C275 1.400 . S
C274 C278 1.567 . S
C275 C274 1.400 . S
C275 C276 1.373 . S
C275 C297 1.432 . S
C276 C275 1.373 . S
C276 C277 1.339 . S
C276 C279 1.530 . S
C277 C272 1.304 . S
C277 C276 1.339 . S
C277 H338 0.930 . S
C278 C274 1.567 . S
C278 H339 0.961 . S
C278 H340 0.960 . S
C278 H341 0.958 . S
C279 C276 1.530 . S
C279 H342 0.961 . S
C279 H343 0.960 . S
C279 H344 0.960 . S
C280 C281 1.530 . S
C280 H346 0.961 . S
C280 H347 0.961 . S
C280 H348 0.959 . S
C281 C280 1.530 . S
C281 O309 1.412 . S
C281 H345 0.980 . S
C282 C283 1.288 . S
C282 C287 1.377 . S
C282 O309 1.393 . S
C283 C282 1.288 . S
C283 C284 1.369 . S
C283 H349 0.932 . S
C284 C283 1.369 . S
C284 C285 1.398 . S
C284 C288 1.527 . S
C285 C284 1.398 . S
C285 C286 1.380 . S
C285 C299 1.497 . S
C286 C285 1.380 . S
C286 C287 1.383 . S
C286 C289 1.603 . S
C287 C282 1.377 . S
C287 C286 1.383 . S
C287 H350 0.929 . S
C288 C284 1.527 . S
C288 H351 0.961 . S
C288 H352 0.959 . S
C288 H353 0.959 . S
C289 C286 1.603 . S
C289 H354 0.960 . S
C289 H355 0.962 . S
C289 H356 0.961 . S
C290 C257 1.587 . S
C290 C291 1.360 . S
C290 C303 1.412 . S
C291 C290 1.360 . S
C291 C292 1.365 . S
C291 H357 0.929 . S
C292 C267 1.553 . S
C292 C291 1.365 . S
C292 C293 1.404 . S
C293 C292 1.404 . S
C293 C294 1.395 . S
C293 C304 1.451 . S
C294 C293 1.395 . S
C294 C295 1.322 . S
C294 H358 0.930 . S
C295 C294 1.322 . S
C295 C296 1.459 . S
C295 H359 0.929 . S
C296 C295 1.459 . S
C296 C297 1.445 . S
C296 C305 1.395 . S
C297 C275 1.432 . S
C297 C296 1.445 . S
C297 C298 1.370 . S
C298 C297 1.370 . S
C298 C299 1.438 . S
C298 H360 0.930 . S
C299 C285 1.497 . S
C299 C298 1.438 . S
C299 C300 1.360 . S
C300 C299 1.360 . S
C300 C301 1.401 . S
C300 C305 1.446 . S
C301 C300 1.401 . S
C301 C302 1.347 . S
C301 H361 0.929 . S
C302 C301 1.347 . S
C302 C303 1.455 . S
C302 H362 0.930 . S
C303 C290 1.412 . S
C303 C302 1.455 . S
C303 C304 1.331 . S
C304 C293 1.451 . S
C304 C303 1.331 . S
C304 C305 1.497 . S
C305 C296 1.395 . S
C305 C300 1.446 . S
C305 C304 1.497 . S
C306 C307 1.582 . S
C306 H363 0.962 . S
C306 H364 0.959 . S
C306 H365 0.958 . S
C307 C306 1.582 . S
C307 O310 1.458 . S
C307 H336 0.980 . S
O308 C253 1.426 . S
O308 C254 1.334 . S
O309 C281 1.412 . S
O309 C282 1.393 . S
O310 C272 1.435 . S
O310 C307 1.458 . S
O311 C263 1.468 . S
O311 C264 1.408 . S
H312 C253 0.980 . S
H313 C252 0.959 . S
H314 C252 0.959 . S
H315 C252 0.960 . S
H316 C255 0.929 . S
H317 C259 0.929 . S
H318 C260 0.959 . S
H319 C260 0.961 . S
H320 C260 0.961 . S
H321 C261 0.960 . S
H322 C261 0.960 . S
H323 C261 0.961 . S
H324 C263 0.980 . S
H325 C262 0.961 . S
H326 C262 0.960 . S
H327 C262 0.959 . S
H328 C265 0.930 . S
H329 C269 0.931 . S
H330 C270 0.959 . S
H331 C270 0.961 . S
H332 C270 0.959 . S
H333 C271 0.960 . S
H334 C271 0.960 . S
H335 C271 0.960 . S
H336 C307 0.980 . S
H337 C273 0.930 . S
H338 C277 0.930 . S
H339 C278 0.961 . S
H340 C278 0.960 . S
H341 C278 0.958 . S
H342 C279 0.961 . S
H343 C279 0.960 . S
H344 C279 0.960 . S
H345 C281 0.980 . S
H346 C280 0.961 . S
H347 C280 0.961 . S
H348 C280 0.959 . S
H349 C283 0.932 . S
H350 C287 0.929 . S
H351 C288 0.961 . S
H352 C288 0.959 . S
H353 C288 0.959 . S
H354 C289 0.960 . S
H355 C289 0.962 . S
H356 C289 0.961 . S
H357 C291 0.929 . S
H358 C294 0.930 . S
H359 C295 0.929 . S
H360 C298 0.930 . S
H361 C301 0.929 . S
H362 C302 0.930 . S
H363 C306 0.962 . S
H364 C306 0.959 . S
H365 C306 0.958 . S
C366 C367 1.560 . S
C366 H427 0.959 . S
C366 H428 0.959 . S
C366 H429 0.960 . S
C367 C366 1.560 . S
C367 O422 1.426 . S
C367 H426 0.980 . S
C368 C369 1.407 . S
C368 C373 1.418 . S
C368 O422 1.334 . S
C369 C368 1.407 . S
C369 C370 1.360 . S
C369 H430 0.929 . S
C370 C369 1.360 . S
C370 C371 1.401 . S
C370 C374 1.527 . S
C371 C370 1.401 . S
C371 C372 1.405 . S
C371 C404 1.587 . S
C372 C371 1.405 . S
C372 C373 1.332 . S
C372 C375 1.496 . S
C373 C368 1.418 . S
C373 C372 1.332 . S
C373 H431 0.929 . S
C374 C370 1.527 . S
C374 H432 0.959 . S
C374 H433 0.961 . S
C374 H434 0.961 . S
C375 C372 1.496 . S
C375 H435 0.960 . S
C375 H436 0.960 . S
C375 H437 0.961 . S
C376 C377 1.517 . S
C376 H439 0.961 . S
C376 H440 0.960 . S
C376 H441 0.959 . S
C377 C376 1.517 . S
C377 O425 1.468 . S
C377 H438 0.980 . S
C378 C379 1.349 . S
C378 C383 1.367 . S
C378 O425 1.408 . S
C379 C378 1.349 . S
C379 C380 1.407 . S
C379 H442 0.930 . S
C380 C379 1.407 . S
C380 C381 1.449 . S
C380 C384 1.535 . S
C381 C380 1.449 . S
C381 C382 1.384 . S
C381 C406 1.553 . S
C382 C381 1.384 . S
C382 C383 1.364 . S
C382 C385 1.450 . S
C383 C378 1.367 . S
C383 C382 1.364 . S
C383 H443 0.931 . S
C384 C380 1.535 . S
C384 H444 0.959 . S
C384 H445 0.961 . S
C384 H446 0.959 . S
C385 C382 1.450 . S
C385 H447 0.960 . S
C385 H448 0.960 . S
C385 H449 0.960 . S
C386 C387 1.309 . S
C386 C391 1.304 . S
C386 O424 1.435 . S
C387 C386 1.309 . S
C387 C388 1.476 . S
C387 H451 0.930 . S
C388 C387 1.476 . S
C388 C389 1.400 . S
C388 C392 1.567 . S
C389 C388 1.400 . S
C389 C390 1.373 . S
C389 C411 1.432 . S
C390 C389 1.373 . S
C390 C391 1.339 . S
C390 C393 1.530 . S
C391 C386 1.304 . S
C391 C390 1.339 . S
C391 H452 0.930 . S
C392 C388 1.567 . S
C392 H453 0.961 . S
C392 H454 0.960 . S
C392 H455 0.958 . S
C393 C390 1.530 . S
C393 H456 0.961 . S
C393 H457 0.960 . S
C393 H458 0.960 . S
C394 C395 1.530 . S
C394 H460 0.961 . S
C394 H461 0.961 . S
C394 H462 0.959 . S
C395 C394 1.530 . S
C395 O423 1.412 . S
C395 H459 0.980 . S
C396 C397 1.288 . S
C396 C401 1.377 . S
C396 O423 1.393 . S
C397 C396 1.288 . S
C397 C398 1.369 . S
C397 H463 0.932 . S
C398 C397 1.369 . S
C398 C399 1.398 . S
C398 C402 1.527 . S
C399 C398 1.398 . S
C399 C400 1.380 . S
C399 C413 1.497 . S
C400 C399 1.380 . S
C400 C401 1.383 . S
C400 C403 1.603 . S
C401 C396 1.377 . S
C401 C400 1.383 . S
C401 H464 0.929 . S
C402 C398 1.527 . S
C402 H465 0.961 . S
C402 H466 0.959 . S
C402 H467 0.959 . S
C403 C400 1.603 . S
C403 H468 0.960 . S
C403 H469 0.962 . S
C403 H470 0.961 . S
C404 C371 1.587 . S
C404 C405 1.360 . S
C404 C417 1.412 . S
C405 C404 1.360 . S
C405 C406 1.365 . S
C405 H471 0.929 . S
C406 C381 1.553 . S
C406 C405 1.365 . S
C406 C407 1.404 . S
C407 C406 1.404 . S
C407 C408 1.395 . S
C407 C418 1.451 . S
C408 C407 1.395 . S
C408 C409 1.322 . S
C408 H472 0.930 . S
C409 C408 1.322 . S
C409 C410 1.459 . S
C409 H473 0.929 . S
C410 C409 1.459 . S
C410 C411 1.445 . S
C410 C419 1.395 . S
C411 C389 1.432 . S
C411 C410 1.445 . S
C411 C412 1.370 . S
C412 C411 1.370 . S
C412 C413 1.438 . S
C412 H474 0.930 . S
C413 C399 1.497 . S
C413 C412 1.438 . S
C413 C414 1.360 . S
C414 C413 1.360 . S
C414 C415 1.401 . S
C414 C419 1.446 . S
C415 C414 1.401 . S
C415 C416 1.347 . S
C415 H475 0.929 . S
C416 C415 1.347 . S
C416 C417 1.455 . S
C416 H476 0.930 . S
C417 C404 1.412 . S
C417 C416 1.455 . S
C417 C418 1.331 . S
C418 C407 1.451 . S
C418 C417 1.331 . S
C418 C419 1.497 . S
C419 C410 1.395 . S
C419 C414 1.446 . S
C419 C418 1.497 . S
C420 C421 1.582 . S
C420 H477 0.962 . S
C420 H478 0.959 . S
C420 H479 0.958 . S
C421 C420 1.582 . S
C421 O424 1.458 . S
C421 H450 0.980 . S
O422 C367 1.426 . S
O422 C368 1.334 . S
O423 C395 1.412 . S
O423 C396 1.393 . S
O424 C386 1.435 . S
O424 C421 1.458 . S
O425 C377 1.468 . S
O425 C378 1.408 . S
H426 C367 0.980 . S
H427 C366 0.959 . S
H428 C366 0.959 . S
H429 C366 0.960 . S
H430 C369 0.929 . S
H431 C373 0.929 . S
H432 C374 0.959 . S
H433 C374 0.961 . S
H434 C374 0.961 . S
H435 C375 0.960 . S
H436 C375 0.960 . S
H437 C375 0.961 . S
H438 C377 0.980 . S
H439 C376 0.961 . S
H440 C376 0.960 . S
H441 C376 0.959 . S
H442 C379 0.930 . S
H443 C383 0.931 . S
H444 C384 0.959 . S
H445 C384 0.961 . S
H446 C384 0.959 . S
H447 C385 0.960 . S
H448 C385 0.960 . S
H449 C385 0.960 . S
H450 C421 0.980 . S
H451 C387 0.930 . S
H452 C391 0.930 . S
H453 C392 0.961 . S
H454 C392 0.960 . S
H455 C392 0.958 . S
H456 C393 0.961 . S
H457 C393 0.960 . S
H458 C393 0.960 . S
H459 C395 0.980 . S
H460 C394 0.961 . S
H461 C394 0.961 . S
H462 C394 0.959 . S
H463 C397 0.932 . S
H464 C401 0.929 . S
H465 C402 0.961 . S
H466 C402 0.959 . S
H467 C402 0.959 . S
H468 C403 0.960 . S
H469 C403 0.962 . S
H470 C403 0.961 . S
H471 C405 0.929 . S
H472 C408 0.930 . S
H473 C409 0.929 . S
H474 C412 0.930 . S
H475 C415 0.929 . S
H476 C416 0.930 . S
H477 C420 0.962 . S
H478 C420 0.959 . S
H479 C420 0.958 . S
C480 C481 1.560 . S
C480 H541 0.959 . S
C480 H542 0.959 . S
C480 H543 0.960 . S
C481 C480 1.560 . S
C481 O536 1.426 . S
C481 H540 0.980 . S
C482 C483 1.407 . S
C482 C487 1.418 . S
C482 O536 1.334 . S
C483 C482 1.407 . S
C483 C484 1.360 . S
C483 H544 0.929 . S
C484 C483 1.360 . S
C484 C485 1.401 . S
C484 C488 1.527 . S
C485 C484 1.401 . S
C485 C486 1.405 . S
C485 C518 1.587 . S
C486 C485 1.405 . S
C486 C487 1.332 . S
C486 C489 1.496 . S
C487 C482 1.418 . S
C487 C486 1.332 . S
C487 H545 0.929 . S
C488 C484 1.527 . S
C488 H546 0.959 . S
C488 H547 0.961 . S
C488 H548 0.961 . S
C489 C486 1.496 . S
C489 H549 0.960 . S
C489 H550 0.960 . S
C489 H551 0.961 . S
C490 C491 1.517 . S
C490 H553 0.961 . S
C490 H554 0.960 . S
C490 H555 0.959 . S
C491 C490 1.517 . S
C491 O539 1.468 . S
C491 H552 0.980 . S
C492 C493 1.349 . S
C492 C497 1.367 . S
C492 O539 1.408 . S
C493 C492 1.349 . S
C493 C494 1.407 . S
C493 H556 0.930 . S
C494 C493 1.407 . S
C494 C495 1.449 . S
C494 C498 1.535 . S
C495 C494 1.449 . S
C495 C496 1.384 . S
C495 C520 1.553 . S
C496 C495 1.384 . S
C496 C497 1.364 . S
C496 C499 1.450 . S
C497 C492 1.367 . S
C497 C496 1.364 . S
C497 H557 0.931 . S
C498 C494 1.535 . S
C498 H558 0.959 . S
C498 H559 0.961 . S
C498 H560 0.959 . S
C499 C496 1.450 . S
C499 H561 0.960 . S
C499 H562 0.960 . S
C499 H563 0.960 . S
C500 C501 1.309 . S
C500 C505 1.304 . S
C500 O538 1.435 . S
C501 C500 1.309 . S
C501 C502 1.476 . S
C501 H565 0.930 . S
C502 C501 1.476 . S
C502 C503 1.400 . S
C502 C506 1.567 . S
C503 C502 1.400 . S
C503 C504 1.373 . S
C503 C525 1.432 . S
C504 C503 1.373 . S
C504 C505 1.339 . S
C504 C507 1.530 . S
C505 C500 1.304 . S
C505 C504 1.339 . S
C505 H566 0.930 . S
C506 C502 1.567 . S
C506 H567 0.961 . S
C506 H568 0.960 . S
C506 H569 0.958 . S
C507 C504 1.530 . S
C507 H570 0.961 . S
C507 H571 0.960 . S
C507 H572 0.960 . S
C508 C509 1.530 . S
C508 H574 0.961 . S
C508 H575 0.961 . S
C508 H576 0.959 . S
C509 C508 1.530 . S
C509 O537 1.412 . S
C509 H573 0.980 . S
C510 C511 1.288 . S
C510 C515 1.377 . S
C510 O537 1.393 . S
C511 C510 1.288 . S
C511 C512 1.369 . S
C511 H577 0.932 . S
C512 C511 1.369 . S
C512 C513 1.398 . S
C512 C516 1.527 . S
C513 C512 1.398 . S
C513 C514 1.380 . S
C513 C527 1.497 . S
C514 C513 1.380 . S
C514 C515 1.383 . S
C514 C517 1.603 . S
C515 C510 1.377 . S
C515 C514 1.383 . S
C515 H578 0.929 . S
C516 C512 1.527 . S
C516 H579 0.961 . S
C516 H580 0.959 . S
C516 H581 0.959 . S
C517 C514 1.603 . S
C517 H582 0.960 . S
C517 H583 0.962 . S
C517 H584 0.961 . S
C518 C485 1.587 . S
C518 C519 1.360 . S
C518 C531 1.412 . S
C519 C518 1.360 . S
C519 C520 1.365 . S
C519 H585 0.929 . S
C520 C495 1.553 . S
C520 C519 1.365 . S
C520 C521 1.404 . S
C521 C520 1.404 . S
C521 C522 1.395 . S
C521 C532 1.451 . S
C522 C521 1.395 . S
C522 C523 1.322 . S
C522 H586 0.930 . S
C523 C522 1.322 . S
C523 C524 1.459 . S
C523 H587 0.929 . S
C524 C523 1.459 . S
C524 C525 1.445 . S
C524 C533 1.395 . S
C525 C503 1.432 . S
C525 C524 1.445 . S
C525 C526 1.370 . S
C526 C525 1.370 . S
C526 C527 1.438 . S
C526 H588 0.930 . S
C527 C513 1.497 . S
C527 C526 1.438 . S
C527 C528 1.360 . S
C528 C527 1.360 . S
C528 C529 1.401 . S
C528 C533 1.446 . S
C529 C528 1.401 . S
C529 C530 1.347 . S
C529 H589 0.929 . S
C530 C529 1.347 . S
C530 C531 1.455 . S
C530 H590 0.930 . S
C531 C518 1.412 . S
C531 C530 1.455 . S
C531 C532 1.331 . S
C532 C521 1.451 . S
C532 C531 1.331 . S
C532 C533 1.497 . S
C533 C524 1.395 . S
C533 C528 1.446 . S
C533 C532 1.497 . S
C534 C535 1.582 . S
C534 H591 0.962 . S
C534 H592 0.959 . S
C534 H593 0.958 . S
C535 C534 1.582 . S
C535 O538 1.458 . S
C535 H564 0.980 . S
O536 C481 1.426 . S
O536 C482 1.334 . S
O537 C509 1.412 . S
O537 C510 1.393 . S
O538 C500 1.435 . S
O538 C535 1.458 . S
O539 C491 1.468 . S
O539 C492 1.408 . S
H540 C481 0.980 . S
H541 C480 0.959 . S
H542 C480 0.959 . S
H543 C480 0.960 . S
H544 C483 0.929 . S
H545 C487 0.929 . S
H546 C488 0.959 . S
H547 C488 0.961 . S
H548 C488 0.961 . S
H549 C489 0.960 . S
H550 C489 0.960 . S
H551 C489 0.961 . S
H552 C491 0.980 . S
H553 C490 0.961 . S
H554 C490 0.960 . S
H555 C490 0.959 . S
H556 C493 0.930 . S
H557 C497 0.931 . S
H558 C498 0.959 . S
H559 C498 0.961 . S
H560 C498 0.959 . S
H561 C499 0.960 . S
H562 C499 0.960 . S
H563 C499 0.960 . S
H564 C535 0.980 . S
H565 C501 0.930 . S
H566 C505 0.930 . S
H567 C506 0.961 . S
H568 C506 0.960 . S
H569 C506 0.958 . S
H570 C507 0.961 . S
H571 C507 0.960 . S
H572 C507 0.960 . S
H573 C509 0.980 . S
H574 C508 0.961 . S
H575 C508 0.961 . S
H576 C508 0.959 . S
H577 C511 0.932 . S
H578 C515 0.929 . S
H579 C516 0.961 . S
H580 C516 0.959 . S
H581 C516 0.959 . S
H582 C517 0.960 . S
H583 C517 0.962 . S
H584 C517 0.961 . S
H585 C519 0.929 . S
H586 C522 0.930 . S
H587 C523 0.929 . S
H588 C526 0.930 . S
H589 C529 0.929 . S
H590 C530 0.930 . S
H591 C534 0.962 . S
H592 C534 0.959 . S
H593 C534 0.958 . S
C594 C595 1.560 . S
C594 H655 0.959 . S
C594 H656 0.959 . S
C594 H657 0.960 . S
C595 C594 1.560 . S
C595 O650 1.426 . S
C595 H654 0.980 . S
C596 C597 1.407 . S
C596 C601 1.418 . S
C596 O650 1.334 . S
C597 C596 1.407 . S
C597 C598 1.360 . S
C597 H658 0.929 . S
C598 C597 1.360 . S
C598 C599 1.401 . S
C598 C602 1.527 . S
C599 C598 1.401 . S
C599 C600 1.405 . S
C599 C632 1.587 . S
C600 C599 1.405 . S
C600 C601 1.332 . S
C600 C603 1.496 . S
C601 C596 1.418 . S
C601 C600 1.332 . S
C601 H659 0.929 . S
C602 C598 1.527 . S
C602 H660 0.959 . S
C602 H661 0.961 . S
C602 H662 0.961 . S
C603 C600 1.496 . S
C603 H663 0.960 . S
C603 H664 0.960 . S
C603 H665 0.961 . S
C604 C605 1.517 . S
C604 H667 0.961 . S
C604 H668 0.960 . S
C604 H669 0.959 . S
C605 C604 1.517 . S
C605 O653 1.468 . S
C605 H666 0.980 . S
C606 C607 1.349 . S
C606 C611 1.367 . S
C606 O653 1.408 . S
C607 C606 1.349 . S
C607 C608 1.407 . S
C607 H670 0.930 . S
C608 C607 1.407 . S
C608 C609 1.449 . S
C608 C612 1.535 . S
C609 C608 1.449 . S
C609 C610 1.384 . S
C609 C634 1.553 . S
C610 C609 1.384 . S
C610 C611 1.364 . S
C610 C613 1.450 . S
C611 C606 1.367 . S
C611 C610 1.364 . S
C611 H671 0.931 . S
C612 C608 1.535 . S
C612 H672 0.959 . S
C612 H673 0.961 . S
C612 H674 0.959 . S
C613 C610 1.450 . S
C613 H675 0.960 . S
C613 H676 0.960 . S
C613 H677 0.960 . S
C614 C615 1.309 . S
C614 C619 1.304 . S
C614 O652 1.435 . S
C615 C614 1.309 . S
C615 C616 1.476 . S
C615 H679 0.930 . S
C616 C615 1.476 . S
C616 C617 1.400 . S
C616 C620 1.567 . S
C617 C616 1.400 . S
C617 C618 1.373 . S
C617 C639 1.432 . S
C618 C617 1.373 . S
C618 C619 1.339 . S
C618 C621 1.530 . S
C619 C614 1.304 . S
C619 C618 1.339 . S
C619 H680 0.930 . S
C620 C616 1.567 . S
C620 H681 0.961 . S
C620 H682 0.960 . S
C620 H683 0.958 . S
C621 C618 1.530 . S
C621 H684 0.961 . S
C621 H685 0.960 . S
C621 H686 0.960 . S
C622 C623 1.530 . S
C622 H688 0.961 . S
C622 H689 0.961 . S
C622 H690 0.959 . S
C623 C622 1.530 . S
C623 O651 1.412 . S
C623 H687 0.980 . S
C624 C625 1.288 . S
C624 C629 1.377 . S
C624 O651 1.393 . S
C625 C624 1.288 . S
C625 C626 1.369 . S
C625 H691 0.932 . S
C626 C625 1.369 . S
C626 C627 1.398 . S
C626 C630 1.527 . S
C627 C626 1.398 . S
C627 C628 1.380 . S
C627 C641 1.497 . S
C628 C627 1.380 . S
C628 C629 1.383 . S
C628 C631 1.603 . S
C629 C624 1.377 . S
C629 C628 1.383 . S
C629 H692 0.929 . S
C630 C626 1.527 . S
C630 H693 0.961 . S
C630 H694 0.959 . S
C630 H695 0.959 . S
C631 C628 1.603 . S
C631 H696 0.960 . S
C631 H697 0.962 . S
C631 H698 0.961 . S
C632 C599 1.587 . S
C632 C633 1.360 . S
C632 C645 1.412 . S
C633 C632 1.360 . S
C633 C634 1.365 . S
C633 H699 0.929 . S
C634 C609 1.553 . S
C634 C633 1.365 . S
C634 C635 1.404 . S
C635 C634 1.404 . S
C635 C636 1.395 . S
C635 C646 1.451 . S
C636 C635 1.395 . S
C636 C637 1.322 . S
C636 H700 0.930 . S
C637 C636 1.322 . S
C637 C638 1.459 . S
C637 H701 0.929 . S
C638 C637 1.459 . S
C638 C639 1.445 . S
C638 C647 1.395 . S
C639 C617 1.432 . S
C639 C638 1.445 . S
C639 C640 1.370 . S
C640 C639 1.370 . S
C640 C641 1.438 . S
C640 H702 0.930 . S
C641 C627 1.497 . S
C641 C640 1.438 . S
C641 C642 1.360 . S
C642 C641 1.360 . S
C642 C643 1.401 . S
C642 C647 1.446 . S
C643 C642 1.401 . S
C643 C644 1.347 . S
C643 H703 0.929 . S
C644 C643 1.347 . S
C644 C645 1.455 . S
C644 H704 0.930 . S
C645 C632 1.412 . S
C645 C644 1.455 . S
C645 C646 1.331 . S
C646 C635 1.451 . S
C646 C645 1.331 . S
C646 C647 1.497 . S
C647 C638 1.395 . S
C647 C642 1.446 . S
C647 C646 1.497 . S
C648 C649 1.582 . S
C648 H705 0.962 . S
C648 H706 0.959 . S
C648 H707 0.958 . S
C649 C648 1.582 . S
C649 O652 1.458 . S
C649 H678 0.980 . S
O650 C595 1.426 . S
O650 C596 1.334 . S
O651 C623 1.412 . S
O651 C624 1.393 . S
O652 C614 1.435 . S
O652 C649 1.458 . S
O653 C605 1.468 . S
O653 C606 1.408 . S
H654 C595 0.980 . S
H655 C594 0.959 . S
H656 C594 0.959 . S
H657 C594 0.960 . S
H658 C597 0.929 . S
H659 C601 0.929 . S
H660 C602 0.959 . S
H661 C602 0.961 . S
H662 C602 0.961 . S
H663 C603 0.960 . S
H664 C603 0.960 . S
H665 C603 0.961 . S
H666 C605 0.980 . S
H667 C604 0.961 . S
H668 C604 0.960 . S
H669 C604 0.959 . S
H670 C607 0.930 . S
H671 C611 0.931 . S
H672 C612 0.959 . S
H673 C612 0.961 . S
H674 C612 0.959 . S
H675 C613 0.960 . S
H676 C613 0.960 . S
H677 C613 0.960 . S
H678 C649 0.980 . S
H679 C615 0.930 . S
H680 C619 0.930 . S
H681 C620 0.961 . S
H682 C620 0.960 . S
H683 C620 0.958 . S
H684 C621 0.961 . S
H685 C621 0.960 . S
H686 C621 0.960 . S
H687 C623 0.980 . S
H688 C622 0.961 . S
H689 C622 0.961 . S
H690 C622 0.959 . S
H691 C625 0.932 . S
H692 C629 0.929 . S
H693 C630 0.961 . S
H694 C630 0.959 . S
H695 C630 0.959 . S
H696 C631 0.960 . S
H697 C631 0.962 . S
H698 C631 0.961 . S
H699 C633 0.929 . S
H700 C636 0.930 . S
H701 C637 0.929 . S
H702 C640 0.930 . S
H703 C643 0.929 . S
H704 C644 0.930 . S
H705 C648 0.962 . S
H706 C648 0.959 . S
H707 C648 0.958 . S
C708 C709 1.560 . S
C708 H769 0.959 . S
C708 H770 0.959 . S
C708 H771 0.960 . S
C709 C708 1.560 . S
C709 O764 1.426 . S
C709 H768 0.980 . S
C710 C711 1.407 . S
C710 C715 1.418 . S
C710 O764 1.334 . S
C711 C710 1.407 . S
C711 C712 1.360 . S
C711 H772 0.929 . S
C712 C711 1.360 . S
C712 C713 1.401 . S
C712 C716 1.527 . S
C713 C712 1.401 . S
C713 C714 1.405 . S
C713 C746 1.587 . S
C714 C713 1.405 . S
C714 C715 1.332 . S
C714 C717 1.496 . S
C715 C710 1.418 . S
C715 C714 1.332 . S
C715 H773 0.929 . S
C716 C712 1.527 . S
C716 H774 0.959 . S
C716 H775 0.961 . S
C716 H776 0.961 . S
C717 C714 1.496 . S
C717 H777 0.960 . S
C717 H778 0.960 . S
C717 H779 0.961 . S
C718 C719 1.517 . S
C718 H781 0.961 . S
C718 H782 0.960 . S
C718 H783 0.959 . S
C719 C718 1.517 . S
C719 O767 1.468 . S
C719 H780 0.980 . S
C720 C721 1.349 . S
C720 C725 1.367 . S
C720 O767 1.408 . S
C721 C720 1.349 . S
C721 C722 1.407 . S
C721 H784 0.930 . S
C722 C721 1.407 . S
C722 C723 1.449 . S
C722 C726 1.535 . S
C723 C722 1.449 . S
C723 C724 1.384 . S
C723 C748 1.553 . S
C724 C723 1.384 . S
C724 C725 1.364 . S
C724 C727 1.450 . S
C725 C720 1.367 . S
C725 C724 1.364 . S
C725 H785 0.931 . S
C726 C722 1.535 . S
C726 H786 0.959 . S
C726 H787 0.961 . S
C726 H788 0.959 . S
C727 C724 1.450 . S
C727 H789 0.960 . S
C727 H790 0.960 . S
C727 H791 0.960 . S
C728 C729 1.309 . S
C728 C733 1.304 . S
C728 O766 1.435 . S
C729 C728 1.309 . S
C729 C730 1.476 . S
C729 H793 0.930 . S
C730 C729 1.476 . S
C730 C731 1.400 . S
C730 C734 1.567 . S
C731 C730 1.400 . S
C731 C732 1.373 . S
C731 C753 1.432 . S
C732 C731 1.373 . S
C732 C733 1.339 . S
C732 C735 1.530 . S
C733 C728 1.304 . S
C733 C732 1.339 . S
C733 H794 0.930 . S
C734 C730 1.567 . S
C734 H795 0.961 . S
C734 H796 0.960 . S
C734 H797 0.958 . S
C735 C732 1.530 . S
C735 H798 0.961 . S
C735 H799 0.960 . S
C735 H800 0.960 . S
C736 C737 1.530 . S
C736 H802 0.961 . S
C736 H803 0.961 . S
C736 H804 0.959 . S
C737 C736 1.530 . S
C737 O765 1.412 . S
C737 H801 0.980 . S
C738 C739 1.288 . S
C738 C743 1.377 . S
C738 O765 1.393 . S
C739 C738 1.288 . S
C739 C740 1.369 . S
C739 H805 0.932 . S
C740 C739 1.369 . S
C740 C741 1.398 . S
C740 C744 1.527 . S
C741 C740 1.398 . S
C741 C742 1.380 . S
C741 C755 1.497 . S
C742 C741 1.380 . S
C742 C743 1.383 . S
C742 C745 1.603 . S
C743 C738 1.377 . S
C743 C742 1.383 . S
C743 H806 0.929 . S
C744 C740 1.527 . S
C744 H807 0.961 . S
C744 H808 0.959 . S
C744 H809 0.959 . S
C745 C742 1.603 . S
C745 H810 0.960 . S
C745 H811 0.962 . S
C745 H812 0.961 . S
C746 C713 1.587 . S
C746 C747 1.360 . S
C746 C759 1.412 . S
C747 C746 1.360 . S
C747 C748 1.365 . S
C747 H813 0.929 . S
C748 C723 1.553 . S
C748 C747 1.365 . S
C748 C749 1.404 . S
C749 C748 1.404 . S
C749 C750 1.395 . S
C749 C760 1.451 . S
C750 C749 1.395 . S
C750 C751 1.322 . S
C750 H814 0.930 . S
C751 C750 1.322 . S
C751 C752 1.459 . S
C751 H815 0.929 . S
C752 C751 1.459 . S
C752 C753 1.445 . S
C752 C761 1.395 . S
C753 C731 1.432 . S
C753 C752 1.445 . S
C753 C754 1.370 . S
C754 C753 1.370 . S
C754 C755 1.438 . S
C754 H816 0.930 . S
C755 C741 1.497 . S
C755 C754 1.438 . S
C755 C756 1.360 . S
C756 C755 1.360 . S
C756 C757 1.401 . S
C756 C761 1.446 . S
C757 C756 1.401 . S
C757 C758 1.347 . S
C757 H817 0.929 . S
C758 C757 1.347 . S
C758 C759 1.455 . S
C758 H818 0.930 . S
C759 C746 1.412 . S
C759 C758 1.455 . S
C759 C760 1.331 . S
C760 C749 1.451 . S
C760 C759 1.331 . S
C760 C761 1.497 . S
C761 C752 1.395 . S
C761 C756 1.446 . S
C761 C760 1.497 . S
C762 C763 1.582 . S
C762 H819 0.962 . S
C762 H820 0.959 . S
C762 H821 0.958 . S
C763 C762 1.582 . S
C763 O766 1.458 . S
C763 H792 0.980 . S
O764 C709 1.426 . S
O764 C710 1.334 . S
O765 C737 1.412 . S
O765 C738 1.393 . S
O766 C728 1.435 . S
O766 C763 1.458 . S
O767 C719 1.468 . S
O767 C720 1.408 . S
H768 C709 0.980 . S
H769 C708 0.959 . S
H770 C708 0.959 . S
H771 C708 0.960 . S
H772 C711 0.929 . S
H773 C715 0.929 . S
H774 C716 0.959 . S
H775 C716 0.961 . S
H776 C716 0.961 . S
H777 C717 0.960 . S
H778 C717 0.960 . S
H779 C717 0.961 . S
H780 C719 0.980 . S
H781 C718 0.961 . S
H782 C718 0.960 . S
H783 C718 0.959 . S
H784 C721 0.930 . S
H785 C725 0.931 . S
H786 C726 0.959 . S
H787 C726 0.961 . S
H788 C726 0.959 . S
H789 C727 0.960 . S
H790 C727 0.960 . S
H791 C727 0.960 . S
H792 C763 0.980 . S
H793 C729 0.930 . S
H794 C733 0.930 . S
H795 C734 0.961 . S
H796 C734 0.960 . S
H797 C734 0.958 . S
H798 C735 0.961 . S
H799 C735 0.960 . S
H800 C735 0.960 . S
H801 C737 0.980 . S
H802 C736 0.961 . S
H803 C736 0.961 . S
H804 C736 0.959 . S
H805 C739 0.932 . S
H806 C743 0.929 . S
H807 C744 0.961 . S
H808 C744 0.959 . S
H809 C744 0.959 . S
H810 C745 0.960 . S
H811 C745 0.962 . S
H812 C745 0.961 . S
H813 C747 0.929 . S
H814 C750 0.930 . S
H815 C751 0.929 . S
H816 C754 0.930 . S
H817 C757 0.929 . S
H818 C758 0.930 . S
H819 C762 0.962 . S
H820 C762 0.959 . S
H821 C762 0.958 . S
C822 C823 1.560 . S
C822 H883 0.959 . S
C822 H884 0.959 . S
C822 H885 0.960 . S
C823 C822 1.560 . S
C823 O878 1.426 . S
C823 H882 0.980 . S
C824 C825 1.407 . S
C824 C829 1.418 . S
C824 O878 1.334 . S
C825 C824 1.407 . S
C825 C826 1.360 . S
C825 H886 0.929 . S
C826 C825 1.360 . S
C826 C827 1.401 . S
C826 C830 1.527 . S
C827 C826 1.401 . S
C827 C828 1.405 . S
C827 C860 1.587 . S
C828 C827 1.405 . S
C828 C829 1.332 . S
C828 C831 1.496 . S
C829 C824 1.418 . S
C829 C828 1.332 . S
C829 H887 0.929 . S
C830 C826 1.527 . S
C830 H888 0.959 . S
C830 H889 0.961 . S
C830 H890 0.961 . S
C831 C828 1.496 . S
C831 H891 0.960 . S
C831 H892 0.960 . S
C831 H893 0.961 . S
C832 C833 1.517 . S
C832 H895 0.961 . S
C832 H896 0.960 . S
C832 H897 0.959 . S
C833 C832 1.517 . S
C833 O881 1.468 . S
C833 H894 0.980 . S
C834 C835 1.349 . S
C834 C839 1.367 . S
C834 O881 1.408 . S
C835 C834 1.349 . S
C835 C836 1.407 . S
C835 H898 0.930 . S
C836 C835 1.407 . S
C836 C837 1.449 . S
C836 C840 1.535 . S
C837 C836 1.449 . S
C837 C838 1.384 . S
C837 C862 1.553 . S
C838 C837 1.384 . S
C838 C839 1.364 . S
C838 C841 1.450 . S
C839 C834 1.367 . S
C839 C838 1.364 . S
C839 H899 0.931 . S
C840 C836 1.535 . S
C840 H900 0.959 . S
C840 H901 0.961 . S
C840 H902 0.959 . S
C841 C838 1.450 . S
C841 H903 0.960 . S
C841 H904 0.960 . S
C841 H905 0.960 . S
C842 C843 1.309 . S
C842 C847 1.304 . S
C842 O880 1.435 . S
C843 C842 1.309 . S
C843 C844 1.476 . S
C843 H907 0.930 . S
C844 C843 1.476 . S
C844 C845 1.400 . S
C844 C848 1.567 . S
C845 C844 1.400 . S
C845 C846 1.373 . S
C845 C867 1.432 . S
C846 C845 1.373 . S
C846 C847 1.339 . S
C846 C849 1.530 . S
C847 C842 1.304 . S
C847 C846 1.339 . S
C847 H908 0.930 . S
C848 C844 1.567 . S
C848 H909 0.961 . S
C848 H910 0.960 . S
C848 H911 0.958 . S
C849 C846 1.530 . S
C849 H912 0.961 . S
C849 H913 0.960 . S
C849 H914 0.960 . S
C850 C851 1.530 . S
C850 H916 0.961 . S
C850 H917 0.961 . S
C850 H918 0.959 . S
C851 C850 1.530 . S
C851 O879 1.412 . S
C851 H915 0.980 . S
C852 C853 1.288 . S
C852 C857 1.377 . S
C852 O879 1.393 . S
C853 C852 1.288 . S
C853 C854 1.369 . S
C853 H919 0.932 . S
C854 C853 1.369 . S
C854 C855 1.398 . S
C854 C858 1.527 . S
C855 C854 1.398 . S
C855 C856 1.380 . S
C855 C869 1.497 . S
C856 C855 1.380 . S
C856 C857 1.383 . S
C856 C859 1.603 . S
C857 C852 1.377 . S
C857 C856 1.383 . S
C857 H920 0.929 . S
C858 C854 1.527 . S
C858 H921 0.961 . S
C858 H922 0.959 . S
C858 H923 0.959 . S
C859 C856 1.603 . S
C859 H924 0.960 . S
C859 H925 0.962 . S
C859 H926 0.961 . S
C860 C827 1.587 . S
C860 C861 1.360 . S
C860 C873 1.412 . S
C861 C860 1.360 . S
C861 C862 1.365 . S
C861 H927 0.929 . S
C862 C837 1.553 . S
C862 C861 1.365 . S
C862 C863 1.404 . S
C863 C862 1.404 . S
C863 C864 1.395 . S
C863 C874 1.451 . S
C864 C863 1.395 . S
C864 C865 1.322 . S
C864 H928 0.930 . S
C865 C864 1.322 . S
C865 C866 1.459 . S
C865 H929 0.929 . S
C866 C865 1.459 . S
C866 C867 1.445 . S
C866 C875 1.395 . S
C867 C845 1.432 . S
C867 C866 1.445 . S
C867 C868 1.370 . S
C868 C867 1.370 . S
C868 C869 1.438 . S
C868 H930 0.930 . S
C869 C855 1.497 . S
C869 C868 1.438 . S
C869 C870 1.360 . S
C870 C869 1.360 . S
C870 C871 1.401 . S
C870 C875 1.446 . S
C871 C870 1.401 . S
C871 C872 1.347 . S
C871 H931 0.929 . S
C872 C871 1.347 . S
C872 C873 1.455 . S
C872 H932 0.930 . S
C873 C860 1.412 . S
C873 C872 1.455 . S
C873 C874 1.331 . S
C874 C863 1.451 . S
C874 C873 1.331 . S
C874 C875 1.497 . S
C875 C866 1.395 . S
C875 C870 1.446 . S
C875 C874 1.497 . S
C876 C877 1.582 . S
C876 H933 0.962 . S
C876 H934 0.959 . S
C876 H935 0.958 . S
C877 C876 1.582 . S
C877 O880 1.458 . S
C877 H906 0.980 . S
O878 C823 1.426 . S
O878 C824 1.334 . S
O879 C851 1.412 . S
O879 C852 1.393 . S
O880 C842 1.435 . S
O880 C877 1.458 . S
O881 C833 1.468 . S
O881 C834 1.408 . S
H882 C823 0.980 . S
H883 C822 0.959 . S
H884 C822 0.959 . S
H885 C822 0.960 . S
H886 C825 0.929 . S
H887 C829 0.929 . S
H888 C830 0.959 . S
H889 C830 0.961 . S
H890 C830 0.961 . S
H891 C831 0.960 . S
H892 C831 0.960 . S
H893 C831 0.961 . S
H894 C833 0.980 . S
H895 C832 0.961 . S
H896 C832 0.960 . S
H897 C832 0.959 . S
H898 C835 0.930 . S
H899 C839 0.931 . S
H900 C840 0.959 . S
H901 C840 0.961 . S
H902 C840 0.959 . S
H903 C841 0.960 . S
H904 C841 0.960 . S
H905 C841 0.960 . S
H906 C877 0.980 . S
H907 C843 0.930 . S
H908 C847 0.930 . S
H909 C848 0.961 . S
H910 C848 0.960 . S
H911 C848 0.958 . S
H912 C849 0.961 . S
H913 C849 0.960 . S
H914 C849 0.960 . S
H915 C851 0.980 . S
H916 C850 0.961 . S
H917 C850 0.961 . S
H918 C850 0.959 . S
H919 C853 0.932 . S
H920 C857 0.929 . S
H921 C858 0.961 . S
H922 C858 0.959 . S
H923 C858 0.959 . S
H924 C859 0.960 . S
H925 C859 0.962 . S
H926 C859 0.961 . S
H927 C861 0.929 . S
H928 C864 0.930 . S
H929 C865 0.929 . S
H930 C868 0.930 . S
H931 C871 0.929 . S
H932 C872 0.930 . S
H933 C876 0.962 . S
H934 C876 0.959 . S
H935 C876 0.958 . S
C936 C937 1.560 . S
C936 H997 0.959 . S
C936 H998 0.959 . S
C936 H999 0.960 . S
C937 C936 1.560 . S
C937 O992 1.426 . S
C937 H996 0.980 . S
C938 C939 1.407 . S
C938 C943 1.418 . S
C938 O992 1.334 . S
C939 C938 1.407 . S
C939 C940 1.360 . S
C939 H1000 0.929 . S
C940 C939 1.360 . S
C940 C941 1.401 . S
C940 C944 1.527 . S
C941 C940 1.401 . S
C941 C942 1.405 . S
C941 C974 1.587 . S
C942 C941 1.405 . S
C942 C943 1.332 . S
C942 C945 1.496 . S
C943 C938 1.418 . S
C943 C942 1.332 . S
C943 H1001 0.929 . S
C944 C940 1.527 . S
C944 H1002 0.959 . S
C944 H1003 0.961 . S
C944 H1004 0.961 . S
C945 C942 1.496 . S
C945 H1005 0.960 . S
C945 H1006 0.960 . S
C945 H1007 0.961 . S
C946 C947 1.517 . S
C946 H1009 0.961 . S
C946 H1010 0.960 . S
C946 H1011 0.959 . S
C947 C946 1.517 . S
C947 O995 1.468 . S
C947 H1008 0.980 . S
C948 C949 1.349 . S
C948 C953 1.367 . S
C948 O995 1.408 . S
C949 C948 1.349 . S
C949 C950 1.407 . S
C949 H1012 0.930 . S
C950 C949 1.407 . S
C950 C951 1.449 . S
C950 C954 1.535 . S
C951 C950 1.449 . S
C951 C952 1.384 . S
C951 C976 1.553 . S
C952 C951 1.384 . S
C952 C953 1.364 . S
C952 C955 1.450 . S
C953 C948 1.367 . S
C953 C952 1.364 . S
C953 H1013 0.931 . S
C954 C950 1.535 . S
C954 H1014 0.959 . S
C954 H1015 0.961 . S
C954 H1016 0.959 . S
C955 C952 1.450 . S
C955 H1017 0.960 . S
C955 H1018 0.960 . S
C955 H1019 0.960 . S
C956 C957 1.309 . S
C956 C961 1.304 . S
C956 O994 1.435 . S
C957 C956 1.309 . S
C957 C958 1.476 . S
C957 H1021 0.930 . S
C958 C957 1.476 . S
C958 C959 1.400 . S
C958 C962 1.567 . S
C959 C958 1.400 . S
C959 C960 1.373 . S
C959 C981 1.432 . S
C960 C959 1.373 . S
C960 C961 1.339 . S
C960 C963 1.530 . S
C961 C956 1.304 . S
C961 C960 1.339 . S
C961 H1022 0.930 . S
C962 C958 1.567 . S
C962 H1023 0.961 . S
C962 H1024 0.960 . S
C962 H1025 0.958 . S
C963 C960 1.530 . S
C963 H1026 0.961 . S
C963 H1027 0.960 . S
C963 H1028 0.960 . S
C964 C965 1.530 . S
C964 H1030 0.961 . S
C964 H1031 0.961 . S
C964 H1032 0.959 . S
C965 C964 1.530 . S
C965 O993 1.412 . S
C965 H1029 0.980 . S
C966 C967 1.288 . S
C966 C971 1.377 . S
C966 O993 1.393 . S
C967 C966 1.288 . S
C967 C968 1.369 . S
C967 H1033 0.932 . S
C968 C967 1.369 . S
C968 C969 1.398 . S
C968 C972 1.527 . S
C969 C968 1.398 . S
C969 C970 1.380 . S
C969 C983 1.497 . S
C970 C969 1.380 . S
C970 C971 1.383 . S
C970 C973 1.603 . S
C971 C966 1.377 . S
C971 C970 1.383 . S
C971 H1034 0.929 . S
C972 C968 1.527 . S
C972 H1035 0.961 . S
C972 H1036 0.959 . S
C972 H1037 0.959 . S
C973 C970 1.603 . S
C973 H1038 0.960 . S
C973 H1039 0.962 . S
C973 H1040 0.961 . S
C974 C941 1.587 . S
C974 C975 1.360 . S
C974 C987 1.412 . S
C975 C974 1.360 . S
C975 C976 1.365 . S
C975 H1041 0.929 . S
C976 C951 1.553 . S
C976 C975 1.365 . S
C976 C977 1.404 . S
C977 C976 1.404 . S
C977 C978 1.395 . S
C977 C988 1.451 . S
C978 C977 1.395 . S
C978 C979 1.322 . S
C978 H1042 0.930 . S
C979 C978 1.322 . S
C979 C980 1.459 . S
C979 H1043 0.929 . S
C980 C979 1.459 . S
C980 C981 1.445 . S
C980 C989 1.395 . S
C981 C959 1.432 . S
C981 C980 1.445 . S
C981 C982 1.370 . S
C982 C981 1.370 . S
C982 C983 1.438 . S
C982 H1044 0.930 . S
C983 C969 1.497 . S
C983 C982 1.438 . S
C983 C984 1.360 . S
C984 C983 1.360 . S
C984 C985 1.401 . S
C984 C989 1.446 . S
C985 C984 1.401 . S
C985 C986 1.347 . S
C985 H1045 0.929 . S
C986 C985 1.347 . S
C986 C987 1.455 . S
C986 H1046 0.930 . S
C987 C974 1.412 . S
C987 C986 1.455 . S
C987 C988 1.331 . S
C988 C977 1.451 . S
C988 C987 1.331 . S
C988 C989 1.497 . S
C989 C980 1.395 . S
C989 C984 1.446 . S
C989 C988 1.497 . S
C990 C991 1.582 . S
C990 H1047 0.962 . S
C990 H1048 0.959 . S
C990 H1049 0.958 . S
C991 C990 1.582 . S
C991 O994 1.458 . S
C991 H1020 0.980 . S
O992 C937 1.426 . S
O992 C938 1.334 . S
O993 C965 1.412 . S
O993 C966 1.393 . S
O994 C956 1.435 . S
O994 C991 1.458 . S
O995 C947 1.468 . S
O995 C948 1.408 . S
H996 C937 0.980 . S
H997 C936 0.959 . S
H998 C936 0.959 . S
H999 C936 0.960 . S
H1000 C939 0.929 . S
H1001 C943 0.929 . S
H1002 C944 0.959 . S
H1003 C944 0.961 . S
H1004 C944 0.961 . S
H1005 C945 0.960 . S
H1006 C945 0.960 . S
H1007 C945 0.961 . S
H1008 C947 0.980 . S
H1009 C946 0.961 . S
H1010 C946 0.960 . S
H1011 C946 0.959 . S
H1012 C949 0.930 . S
H1013 C953 0.931 . S
H1014 C954 0.959 . S
H1015 C954 0.961 . S
H1016 C954 0.959 . S
H1017 C955 0.960 . S
H1018 C955 0.960 . S
H1019 C955 0.960 . S
H1020 C991 0.980 . S
H1021 C957 0.930 . S
H1022 C961 0.930 . S
H1023 C962 0.961 . S
H1024 C962 0.960 . S
H1025 C962 0.958 . S
H1026 C963 0.961 . S
H1027 C963 0.960 . S
H1028 C963 0.960 . S
H1029 C965 0.980 . S
H1030 C964 0.961 . S
H1031 C964 0.961 . S
H1032 C964 0.959 . S
H1033 C967 0.932 . S
H1034 C971 0.929 . S
H1035 C972 0.961 . S
H1036 C972 0.959 . S
H1037 C972 0.959 . S
H1038 C973 0.960 . S
H1039 C973 0.962 . S
H1040 C973 0.961 . S
H1041 C975 0.929 . S
H1042 C978 0.930 . S
H1043 C979 0.929 . S
H1044 C982 0.930 . S
H1045 C985 0.929 . S
H1046 C986 0.930 . S
H1047 C990 0.962 . S
H1048 C990 0.959 . S
H1049 C990 0.958 . S
C1050 C1051 1.560 . S
C1050 H1111 0.959 . S
C1050 H1112 0.959 . S
C1050 H1113 0.960 . S
C1051 C1050 1.560 . S
C1051 O1106 1.426 . S
C1051 H1110 0.980 . S
C1052 C1053 1.407 . S
C1052 C1057 1.418 . S
C1052 O1106 1.334 . S
C1053 C1052 1.407 . S
C1053 C1054 1.360 . S
C1053 H1114 0.929 . S
C1054 C1053 1.360 . S
C1054 C1055 1.401 . S
C1054 C1058 1.527 . S
C1055 C1054 1.401 . S
C1055 C1056 1.405 . S
C1055 C1088 1.587 . S
C1056 C1055 1.405 . S
C1056 C1057 1.332 . S
C1056 C1059 1.496 . S
C1057 C1052 1.418 . S
C1057 C1056 1.332 . S
C1057 H1115 0.929 . S
C1058 C1054 1.527 . S
C1058 H1116 0.959 . S
C1058 H1117 0.961 . S
C1058 H1118 0.961 . S
C1059 C1056 1.496 . S
C1059 H1119 0.960 . S
C1059 H1120 0.960 . S
C1059 H1121 0.961 . S
C1060 C1061 1.517 . S
C1060 H1123 0.961 . S
C1060 H1124 0.960 . S
C1060 H1125 0.959 . S
C1061 C1060 1.517 . S
C1061 O1109 1.468 . S
C1061 H1122 0.980 . S
C1062 C1063 1.349 . S
C1062 C1067 1.367 . S
C1062 O1109 1.408 . S
C1063 C1062 1.349 . S
C1063 C1064 1.407 . S
C1063 H1126 0.930 . S
C1064 C1063 1.407 . S
C1064 C1065 1.449 . S
C1064 C1068 1.535 . S
C1065 C1064 1.449 . S
C1065 C1066 1.384 . S
C1065 C1090 1.553 . S
C1066 C1065 1.384 . S
C1066 C1067 1.364 . S
C1066 C1069 1.450 . S
C1067 C1062 1.367 . S
C1067 C1066 1.364 . S
C1067 H1127 0.931 . S
C1068 C1064 1.535 . S
C1068 H1128 0.959 . S
C1068 H1129 0.961 . S
C1068 H1130 0.959 . S
C1069 C1066 1.450 . S
C1069 H1131 0.960 . S
C1069 H1132 0.960 . S
C1069 H1133 0.960 . S
C1070 C1071 1.309 . S
C1070 C1075 1.304 . S
C1070 O1108 1.435 . S
C1071 C1070 1.309 . S
C1071 C1072 1.476 . S
C1071 H1135 0.930 . S
C1072 C1071 1.476 . S
C1072 C1073 1.400 . S
C1072 C1076 1.567 . S
C1073 C1072 1.400 . S
C1073 C1074 1.373 . S
C1073 C1095 1.432 . S
C1074 C1073 1.373 . S
C1074 C1075 1.339 . S
C1074 C1077 1.530 . S
C1075 C1070 1.304 . S
C1075 C1074 1.339 . S
C1075 H1136 0.930 . S
C1076 C1072 1.567 . S
C1076 H1137 0.961 . S
C1076 H1138 0.960 . S
C1076 H1139 0.958 . S
C1077 C1074 1.530 . S
C1077 H1140 0.961 . S
C1077 H1141 0.960 . S
C1077 H1142 0.960 . S
C1078 C1079 1.530 . S
C1078 H1144 0.961 . S
C1078 H1145 0.961 . S
C1078 H1146 0.959 . S
C1079 C1078 1.530 . S
C1079 O1107 1.412 . S
C1079 H1143 0.980 . S
C1080 C1081 1.288 . S
C1080 C1085 1.377 . S
C1080 O1107 1.393 . S
C1081 C1080 1.288 . S
C1081 C1082 1.369 . S
C1081 H1147 0.932 . S
C1082 C1081 1.369 . S
C1082 C1083 1.398 . S
C1082 C1086 1.527 . S
C1083 C1082 1.398 . S
C1083 C1084 1.380 . S
C1083 C1097 1.497 . S
C1084 C1083 1.380 . S
C1084 C1085 1.383 . S
C1084 C1087 1.603 . S
C1085 C1080 1.377 . S
C1085 C1084 1.383 . S
C1085 H1148 0.929 . S
C1086 C1082 1.527 . S
C1086 H1149 0.961 . S
C1086 H1150 0.959 . S
C1086 H1151 0.959 . S
C1087 C1084 1.603 . S
C1087 H1152 0.960 . S
C1087 H1153 0.962 . S
C1087 H1154 0.961 . S
C1088 C1055 1.587 . S
C1088 C1089 1.360 . S
C1088 C1101 1.412 . S
C1089 C1088 1.360 . S
C1089 C1090 1.365 . S
C1089 H1155 0.929 . S
C1090 C1065 1.553 . S
C1090 C1089 1.365 . S
C1090 C1091 1.404 . S
C1091 C1090 1.404 . S
C1091 C1092 1.395 . S
C1091 C1102 1.451 . S
C1092 C1091 1.395 . S
C1092 C1093 1.322 . S
C1092 H1156 0.930 . S
C1093 C1092 1.322 . S
C1093 C1094 1.459 . S
C1093 H1157 0.929 . S
C1094 C1093 1.459 . S
C1094 C1095 1.445 . S
C1094 C1103 1.395 . S
C1095 C1073 1.432 . S
C1095 C1094 1.445 . S
C1095 C1096 1.370 . S
C1096 C1095 1.370 . S
C1096 C1097 1.438 . S
C1096 H1158 0.930 . S
C1097 C1083 1.497 . S
C1097 C1096 1.438 . S
C1097 C1098 1.360 . S
C1098 C1097 1.360 . S
C1098 C1099 1.401 . S
C1098 C1103 1.446 . S
C1099 C1098 1.401 . S
C1099 C1100 1.347 . S
C1099 H1159 0.929 . S
C1100 C1099 1.347 . S
C1100 C1101 1.455 . S
C1100 H1160 0.930 . S
C1101 C1088 1.412 . S
C1101 C1100 1.455 . S
C1101 C1102 1.331 . S
C1102 C1091 1.451 . S
C1102 C1101 1.331 . S
C1102 C1103 1.497 . S
C1103 C1094 1.395 . S
C1103 C1098 1.446 . S
C1103 C1102 1.497 . S
C1104 C1105 1.582 . S
C1104 H1161 0.962 . S
C1104 H1162 0.959 . S
C1104 H1163 0.958 . S
C1105 C1104 1.582 . S
C1105 O1108 1.458 . S
C1105 H1134 0.980 . S
O1106 C1051 1.426 . S
O1106 C1052 1.334 . S
O1107 C1079 1.412 . S
O1107 C1080 1.393 . S
O1108 C1070 1.435 . S
O1108 C1105 1.458 . S
O1109 C1061 1.468 . S
O1109 C1062 1.408 . S
H1110 C1051 0.980 . S
H1111 C1050 0.959 . S
H1112 C1050 0.959 . S
H1113 C1050 0.960 . S
H1114 C1053 0.929 . S
H1115 C1057 0.929 . S
H1116 C1058 0.959 . S
H1117 C1058 0.961 . S
H1118 C1058 0.961 . S
H1119 C1059 0.960 . S
H1120 C1059 0.960 . S
H1121 C1059 0.961 . S
H1122 C1061 0.980 . S
H1123 C1060 0.961 . S
H1124 C1060 0.960 . S
H1125 C1060 0.959 . S
H1126 C1063 0.930 . S
H1127 C1067 0.931 . S
H1128 C1068 0.959 . S
H1129 C1068 0.961 . S
H1130 C1068 0.959 . S
H1131 C1069 0.960 . S
H1132 C1069 0.960 . S
H1133 C1069 0.960 . S
H1134 C1105 0.980 . S
H1135 C1071 0.930 . S
H1136 C1075 0.930 . S
H1137 C1076 0.961 . S
H1138 C1076 0.960 . S
H1139 C1076 0.958 . S
H1140 C1077 0.961 . S
H1141 C1077 0.960 . S
H1142 C1077 0.960 . S
H1143 C1079 0.980 . S
H1144 C1078 0.961 . S
H1145 C1078 0.961 . S
H1146 C1078 0.959 . S
H1147 C1081 0.932 . S
H1148 C1085 0.929 . S
H1149 C1086 0.961 . S
H1150 C1086 0.959 . S
H1151 C1086 0.959 . S
H1152 C1087 0.960 . S
H1153 C1087 0.962 . S
H1154 C1087 0.961 . S
H1155 C1089 0.929 . S
H1156 C1092 0.930 . S
H1157 C1093 0.929 . S
H1158 C1096 0.930 . S
H1159 C1099 0.929 . S
H1160 C1100 0.930 . S
H1161 C1104 0.962 . S
H1162 C1104 0.959 . S
H1163 C1104 0.958 . S
C1164 C1165 1.560 . S
C1164 H1225 0.959 . S
C1164 H1226 0.959 . S
C1164 H1227 0.960 . S
C1165 C1164 1.560 . S
C1165 O1220 1.426 . S
C1165 H1224 0.980 . S
C1166 C1167 1.407 . S
C1166 C1171 1.418 . S
C1166 O1220 1.334 . S
C1167 C1166 1.407 . S
C1167 C1168 1.360 . S
C1167 H1228 0.929 . S
C1168 C1167 1.360 . S
C1168 C1169 1.401 . S
C1168 C1172 1.527 . S
C1169 C1168 1.401 . S
C1169 C1170 1.405 . S
C1169 C1202 1.587 . S
C1170 C1169 1.405 . S
C1170 C1171 1.332 . S
C1170 C1173 1.496 . S
C1171 C1166 1.418 . S
C1171 C1170 1.332 . S
C1171 H1229 0.929 . S
C1172 C1168 1.527 . S
C1172 H1230 0.959 . S
C1172 H1231 0.961 . S
C1172 H1232 0.961 . S
C1173 C1170 1.496 . S
C1173 H1233 0.960 . S
C1173 H1234 0.960 . S
C1173 H1235 0.961 . S
C1174 C1175 1.517 . S
C1174 H1237 0.961 . S
C1174 H1238 0.960 . S
C1174 H1239 0.959 . S
C1175 C1174 1.517 . S
C1175 O1223 1.468 . S
C1175 H1236 0.980 . S
C1176 C1177 1.349 . S
C1176 C1181 1.367 . S
C1176 O1223 1.408 . S
C1177 C1176 1.349 . S
C1177 C1178 1.407 . S
C1177 H1240 0.930 . S
C1178 C1177 1.407 . S
C1178 C1179 1.449 . S
C1178 C1182 1.535 . S
C1179 C1178 1.449 . S
C1179 C1180 1.384 . S
C1179 C1204 1.553 . S
C1180 C1179 1.384 . S
C1180 C1181 1.364 . S
C1180 C1183 1.450 . S
C1181 C1176 1.367 . S
C1181 C1180 1.364 . S
C1181 H1241 0.931 . S
C1182 C1178 1.535 . S
C1182 H1242 0.959 . S
C1182 H1243 0.961 . S
C1182 H1244 0.959 . S
C1183 C1180 1.450 . S
C1183 H1245 0.960 . S
C1183 H1246 0.960 . S
C1183 H1247 0.960 . S
C1184 C1185 1.309 . S
C1184 C1189 1.304 . S
C1184 O1222 1.435 . S
C1185 C1184 1.309 . S
C1185 C1186 1.476 . S
C1185 H1249 0.930 . S
C1186 C1185 1.476 . S
C1186 C1187 1.400 . S
C1186 C1190 1.567 . S
C1187 C1186 1.400 . S
C1187 C1188 1.373 . S
C1187 C1209 1.432 . S
C1188 C1187 1.373 . S
C1188 C1189 1.339 . S
C1188 C1191 1.530 . S
C1189 C1184 1.304 . S
C1189 C1188 1.339 . S
C1189 H1250 0.930 . S
C1190 C1186 1.567 . S
C1190 H1251 0.961 . S
C1190 H1252 0.960 . S
C1190 H1253 0.958 . S
C1191 C1188 1.530 . S
C1191 H1254 0.961 . S
C1191 H1255 0.960 . S
C1191 H1256 0.960 . S
C1192 C1193 1.530 . S
C1192 H1258 0.961 . S
C1192 H1259 0.961 . S
C1192 H1260 0.959 . S
C1193 C1192 1.530 . S
C1193 O1221 1.412 . S
C1193 H1257 0.980 . S
C1194 C1195 1.288 . S
C1194 C1199 1.377 . S
C1194 O1221 1.393 . S
C1195 C1194 1.288 . S
C1195 C1196 1.369 . S
C1195 H1261 0.932 . S
C1196 C1195 1.369 . S
C1196 C1197 1.398 . S
C1196 C1200 1.527 . S
C1197 C1196 1.398 . S
C1197 C1198 1.380 . S
C1197 C1211 1.497 . S
C1198 C1197 1.380 . S
C1198 C1199 1.383 . S
C1198 C1201 1.603 . S
C1199 C1194 1.377 . S
C1199 C1198 1.383 . S
C1199 H1262 0.929 . S
C1200 C1196 1.527 . S
C1200 H1263 0.961 . S
C1200 H1264 0.959 . S
C1200 H1265 0.959 . S
C1201 C1198 1.603 . S
C1201 H1266 0.960 . S
C1201 H1267 0.962 . S
C1201 H1268 0.961 . S
C1202 C1169 1.587 . S
C1202 C1203 1.360 . S
C1202 C1215 1.412 . S
C1203 C1202 1.360 . S
C1203 C1204 1.365 . S
C1203 H1269 0.929 . S
C1204 C1179 1.553 . S
C1204 C1203 1.365 . S
C1204 C1205 1.404 . S
C1205 C1204 1.404 . S
C1205 C1206 1.395 . S
C1205 C1216 1.451 . S
C1206 C1205 1.395 . S
C1206 C1207 1.322 . S
C1206 H1270 0.930 . S
C1207 C1206 1.322 . S
C1207 C1208 1.459 . S
C1207 H1271 0.929 . S
C1208 C1207 1.459 . S
C1208 C1209 1.445 . S
C1208 C1217 1.395 . S
C1209 C1187 1.432 . S
C1209 C1208 1.445 . S
C1209 C1210 1.370 . S
C1210 C1209 1.370 . S
C1210 C1211 1.438 . S
C1210 H1272 0.930 . S
C1211 C1197 1.497 . S
C1211 C1210 1.438 . S
C1211 C1212 1.360 . S
C1212 C1211 1.360 . S
C1212 C1213 1.401 . S
C1212 C1217 1.446 . S
C1213 C1212 1.401 . S
C1213 C1214 1.347 . S
C1213 H1273 0.929 . S
C1214 C1213 1.347 . S
C1214 C1215 1.455 . S
C1214 H1274 0.930 . S
C1215 C1202 1.412 . S
C1215 C1214 1.455 . S
C1215 C1216 1.331 . S
C1216 C1205 1.451 . S
C1216 C1215 1.331 . S
C1216 C1217 1.497 . S
C1217 C1208 1.395 . S
C1217 C1212 1.446 . S
C1217 C1216 1.497 . S
C1218 C1219 1.582 . S
C1218 H1275 0.962 . S
C1218 H1276 0.959 . S
C1218 H1277 0.958 . S
C1219 C1218 1.582 . S
C1219 O1222 1.458 . S
C1219 H1248 0.980 . S
O1220 C1165 1.426 . S
O1220 C1166 1.334 . S
O1221 C1193 1.412 . S
O1221 C1194 1.393 . S
O1222 C1184 1.435 . S
O1222 C1219 1.458 . S
O1223 C1175 1.468 . S
O1223 C1176 1.408 . S
H1224 C1165 0.980 . S
H1225 C1164 0.959 . S
H1226 C1164 0.959 . S
H1227 C1164 0.960 . S
H1228 C1167 0.929 . S
H1229 C1171 0.929 . S
H1230 C1172 0.959 . S
H1231 C1172 0.961 . S
H1232 C1172 0.961 . S
H1233 C1173 0.960 . S
H1234 C1173 0.960 . S
H1235 C1173 0.961 . S
H1236 C1175 0.980 . S
H1237 C1174 0.961 . S
H1238 C1174 0.960 . S
H1239 C1174 0.959 . S
H1240 C1177 0.930 . S
H1241 C1181 0.931 . S
H1242 C1182 0.959 . S
H1243 C1182 0.961 . S
H1244 C1182 0.959 . S
H1245 C1183 0.960 . S
H1246 C1183 0.960 . S
H1247 C1183 0.960 . S
H1248 C1219 0.980 . S
H1249 C1185 0.930 . S
H1250 C1189 0.930 . S
H1251 C1190 0.961 . S
H1252 C1190 0.960 . S
H1253 C1190 0.958 . S
H1254 C1191 0.961 . S
H1255 C1191 0.960 . S
H1256 C1191 0.960 . S
H1257 C1193 0.980 . S
H1258 C1192 0.961 . S
H1259 C1192 0.961 . S
H1260 C1192 0.959 . S
H1261 C1195 0.932 . S
H1262 C1199 0.929 . S
H1263 C1200 0.961 . S
H1264 C1200 0.959 . S
H1265 C1200 0.959 . S
H1266 C1201 0.960 . S
H1267 C1201 0.962 . S
H1268 C1201 0.961 . S
H1269 C1203 0.929 . S
H1270 C1206 0.930 . S
H1271 C1207 0.929 . S
H1272 C1210 0.930 . S
H1273 C1213 0.929 . S
H1274 C1214 0.930 . S
H1275 C1218 0.962 . S
H1276 C1218 0.959 . S
H1277 C1218 0.958 . S
C1278 C1279 1.560 . S
C1278 H1339 0.959 . S
C1278 H1340 0.959 . S
C1278 H1341 0.960 . S
C1279 C1278 1.560 . S
C1279 O1334 1.426 . S
C1279 H1338 0.980 . S
C1280 C1281 1.407 1_455 S
C1280 C1285 1.418 . S
C1280 O1334 1.334 . S
C1281 C1280 1.407 1_655 S
C1281 C1282 1.360 . S
C1281 H1342 0.929 . S
C1282 C1281 1.360 . S
C1282 C1283 1.401 1_655 S
C1282 C1286 1.527 . S
C1283 C1282 1.401 1_455 S
C1283 C1284 1.405 . S
C1283 C1316 1.587 1_455 S
C1284 C1283 1.405 . S
C1284 C1285 1.332 . S
C1284 C1287 1.496 . S
C1285 C1280 1.418 . S
C1285 C1284 1.332 . S
C1285 H1343 0.929 . S
C1286 C1282 1.527 . S
C1286 H1344 0.959 . S
C1286 H1345 0.961 . S
C1286 H1346 0.961 . S
C1287 C1284 1.496 . S
C1287 H1347 0.960 . S
C1287 H1348 0.960 . S
C1287 H1349 0.961 . S
C1288 C1289 1.517 . S
C1288 H1351 0.961 . S
C1288 H1352 0.960 . S
C1288 H1353 0.959 . S
C1289 C1288 1.517 . S
C1289 O1337 1.468 . S
C1289 H1350 0.980 1_655 S
C1290 C1291 1.349 . S
C1290 C1295 1.367 . S
C1290 O1337 1.408 . S
C1291 C1290 1.349 . S
C1291 C1292 1.407 1_655 S
C1291 H1354 0.930 1_655 S
C1292 C1291 1.407 1_455 S
C1292 C1293 1.449 1_455 S
C1292 C1296 1.535 . S
C1293 C1292 1.449 1_655 S
C1293 C1294 1.384 . S
C1293 C1318 1.553 . S
C1294 C1293 1.384 . S
C1294 C1295 1.364 . S
C1294 C1297 1.450 . S
C1295 C1290 1.367 . S
C1295 C1294 1.364 . S
C1295 H1355 0.931 . S
C1296 C1292 1.535 . S
C1296 H1356 0.959 . S
C1296 H1357 0.961 . S
C1296 H1358 0.959 . S
C1297 C1294 1.450 . S
C1297 H1359 0.960 . S
C1297 H1360 0.960 . S
C1297 H1361 0.960 . S
C1298 C1299 1.309 . S
C1298 C1303 1.304 . S
C1298 O1336 1.435 . S
C1299 C1298 1.309 . S
C1299 C1300 1.472 . S
C1299 H1363 0.930 1_655 S
C1300 C1299 1.472 . S
C1300 C1301 1.398 . S
C1300 C1304 1.572 1_655 S
C1301 C1300 1.398 . S
C1301 C1302 1.373 . S
C1301 C1323 1.432 . S
C1302 C1301 1.373 . S
C1302 C1303 1.339 . S
C1302 C1305 1.530 . S
C1303 C1298 1.304 . S
C1303 C1302 1.339 . S
C1303 H1364 0.930 . S
C1304 C1300 1.572 1_455 S
C1304 H1365 0.961 . S
C1304 H1366 0.960 . S
C1304 H1367 0.958 . S
C1305 C1302 1.530 . S
C1305 H1368 0.961 . S
C1305 H1369 0.960 . S
C1305 H1370 0.960 . S
C1306 C1307 1.527 . S
C1306 H1372 0.961 . S
C1306 H1373 0.961 . S
C1306 H1374 0.959 . S
C1307 C1306 1.527 . S
C1307 O1335 1.411 . S
C1307 H1371 0.981 1_455 S
C1308 C1309 1.288 . S
C1308 C1313 1.377 1_455 S
C1308 O1335 1.393 . S
C1309 C1308 1.288 . S
C1309 C1310 1.369 . S
C1309 H1375 0.932 . S
C1310 C1309 1.369 . S
C1310 C1311 1.398 1_455 S
C1310 C1314 1.527 . S
C1311 C1310 1.398 1_655 S
C1311 C1312 1.380 . S
C1311 C1325 1.497 . S
C1312 C1311 1.380 . S
C1312 C1313 1.383 . S
C1312 C1315 1.603 . S
C1313 C1308 1.377 1_655 S
C1313 C1312 1.383 . S
C1313 H1376 0.929 . S
C1314 C1310 1.527 . S
C1314 H1377 0.961 . S
C1314 H1378 0.959 . S
C1314 H1379 0.959 . S
C1315 C1312 1.603 . S
C1315 H1380 0.960 . S
C1315 H1381 0.962 . S
C1315 H1382 0.961 . S
C1316 C1283 1.587 1_655 S
C1316 C1317 1.360 . S
C1316 C1329 1.412 . S
C1317 C1316 1.360 . S
C1317 C1318 1.365 . S
C1317 H1383 0.929 . S
C1318 C1293 1.553 . S
C1318 C1317 1.365 . S
C1318 C1319 1.404 . S
C1319 C1318 1.404 . S
C1319 C1320 1.395 . S
C1319 C1330 1.451 . S
C1320 C1319 1.395 . S
C1320 C1321 1.322 . S
C1320 H1384 0.930 . S
C1321 C1320 1.322 . S
C1321 C1322 1.459 . S
C1321 H1385 0.929 . S
C1322 C1321 1.459 . S
C1322 C1323 1.445 . S
C1322 C1331 1.395 . S
C1323 C1301 1.432 . S
C1323 C1322 1.445 . S
C1323 C1324 1.370 . S
C1324 C1323 1.370 . S
C1324 C1325 1.438 . S
C1324 H1386 0.930 . S
C1325 C1311 1.497 . S
C1325 C1324 1.438 . S
C1325 C1326 1.360 . S
C1326 C1325 1.360 . S
C1326 C1327 1.401 . S
C1326 C1331 1.446 . S
C1327 C1326 1.401 . S
C1327 C1328 1.347 . S
C1327 H1387 0.929 . S
C1328 C1327 1.347 . S
C1328 C1329 1.455 . S
C1328 H1388 0.930 . S
C1329 C1316 1.412 . S
C1329 C1328 1.455 . S
C1329 C1330 1.331 . S
C1330 C1319 1.451 . S
C1330 C1329 1.331 . S
C1330 C1331 1.497 . S
C1331 C1322 1.395 . S
C1331 C1326 1.446 . S
C1331 C1330 1.497 . S
C1332 C1333 1.582 . S
C1332 H1389 0.962 . S
C1332 H1390 0.959 . S
C1332 H1391 0.958 . S
C1333 C1332 1.582 . S
C1333 O1336 1.458 . S
C1333 H1362 0.980 . S
O1334 C1279 1.426 . S
O1334 C1280 1.334 . S
O1335 C1307 1.411 . S
O1335 C1308 1.393 . S
O1336 C1298 1.435 . S
O1336 C1333 1.458 . S
O1337 C1289 1.468 . S
O1337 C1290 1.408 . S
H1338 C1279 0.980 . S
H1339 C1278 0.959 . S
H1340 C1278 0.959 . S
H1341 C1278 0.960 . S
H1342 C1281 0.929 . S
H1343 C1285 0.929 . S
H1344 C1286 0.959 . S
H1345 C1286 0.961 . S
H1346 C1286 0.961 . S
H1347 C1287 0.960 . S
H1348 C1287 0.960 . S
H1349 C1287 0.961 . S
H1350 C1289 0.980 1_455 S
H1351 C1288 0.961 . S
H1352 C1288 0.960 . S
H1353 C1288 0.959 . S
H1354 C1291 0.930 1_455 S
H1355 C1295 0.931 . S
H1356 C1296 0.959 . S
H1357 C1296 0.961 . S
H1358 C1296 0.959 . S
H1359 C1297 0.960 . S
H1360 C1297 0.960 . S
H1361 C1297 0.960 . S
H1362 C1333 0.980 . S
H1363 C1299 0.930 1_455 S
H1364 C1303 0.930 . S
H1365 C1304 0.961 . S
H1366 C1304 0.960 . S
H1367 C1304 0.958 . S
H1368 C1305 0.961 . S
H1369 C1305 0.960 . S
H1370 C1305 0.960 . S
H1371 C1307 0.981 1_655 S
H1372 C1306 0.961 . S
H1373 C1306 0.961 . S
H1374 C1306 0.959 . S
H1375 C1309 0.932 . S
H1376 C1313 0.929 . S
H1377 C1314 0.961 . S
H1378 C1314 0.959 . S
H1379 C1314 0.959 . S
H1380 C1315 0.960 . S
H1381 C1315 0.962 . S
H1382 C1315 0.961 . S
H1383 C1317 0.929 . S
H1384 C1320 0.930 . S
H1385 C1321 0.929 . S
H1386 C1324 0.930 . S
H1387 C1327 0.929 . S
H1388 C1328 0.930 . S
H1389 C1332 0.962 . S
H1390 C1332 0.959 . S
H1391 C1332 0.958 . S
C1392 C1393 1.560 . S
C1392 H1453 0.959 . S
C1392 H1454 0.959 . S
C1392 H1455 0.960 . S
C1393 C1392 1.560 . S
C1393 O1448 1.426 . S
C1393 H1452 0.980 . S
C1394 C1395 1.407 . S
C1394 C1399 1.418 . S
C1394 O1448 1.334 . S
C1395 C1394 1.407 . S
C1395 C1396 1.360 . S
C1395 H1456 0.929 . S
C1396 C1395 1.360 . S
C1396 C1397 1.401 . S
C1396 C1400 1.527 . S
C1397 C1396 1.401 . S
C1397 C1398 1.405 . S
C1397 C1430 1.587 . S
C1398 C1397 1.405 . S
C1398 C1399 1.332 . S
C1398 C1401 1.496 . S
C1399 C1394 1.418 . S
C1399 C1398 1.332 . S
C1399 H1457 0.929 . S
C1400 C1396 1.527 . S
C1400 H1458 0.959 . S
C1400 H1459 0.961 . S
C1400 H1460 0.961 . S
C1401 C1398 1.496 . S
C1401 H1461 0.960 . S
C1401 H1462 0.960 . S
C1401 H1463 0.961 . S
C1402 C1403 1.517 . S
C1402 H1465 0.961 . S
C1402 H1466 0.960 . S
C1402 H1467 0.959 . S
C1403 C1402 1.517 . S
C1403 O1451 1.468 . S
C1403 H1464 0.980 . S
C1404 C1405 1.349 . S
C1404 C1409 1.367 . S
C1404 O1451 1.408 . S
C1405 C1404 1.349 . S
C1405 C1406 1.407 . S
C1405 H1468 0.930 . S
C1406 C1405 1.407 . S
C1406 C1407 1.449 . S
C1406 C1410 1.535 . S
C1407 C1406 1.449 . S
C1407 C1408 1.384 . S
C1407 C1432 1.553 . S
C1408 C1407 1.384 . S
C1408 C1409 1.364 . S
C1408 C1411 1.450 . S
C1409 C1404 1.367 . S
C1409 C1408 1.364 . S
C1409 H1469 0.931 . S
C1410 C1406 1.535 . S
C1410 H1470 0.959 . S
C1410 H1471 0.961 . S
C1410 H1472 0.959 . S
C1411 C1408 1.450 . S
C1411 H1473 0.960 . S
C1411 H1474 0.960 . S
C1411 H1475 0.960 . S
C1412 C1413 1.309 . S
C1412 C1417 1.304 . S
C1412 O1450 1.435 . S
C1413 C1412 1.309 . S
C1413 C1414 1.476 . S
C1413 H1477 0.930 . S
C1414 C1413 1.476 . S
C1414 C1415 1.400 . S
C1414 C1418 1.567 . S
C1415 C1414 1.400 . S
C1415 C1416 1.373 . S
C1415 C1437 1.432 . S
C1416 C1415 1.373 . S
C1416 C1417 1.339 . S
C1416 C1419 1.530 . S
C1417 C1412 1.304 . S
C1417 C1416 1.339 . S
C1417 H1478 0.930 . S
C1418 C1414 1.567 . S
C1418 H1479 0.961 . S
C1418 H1480 0.960 . S
C1418 H1481 0.958 . S
C1419 C1416 1.530 . S
C1419 H1482 0.961 . S
C1419 H1483 0.960 . S
C1419 H1484 0.960 . S
C1420 C1421 1.530 . S
C1420 H1486 0.961 . S
C1420 H1487 0.961 . S
C1420 H1488 0.959 . S
C1421 C1420 1.530 . S
C1421 O1449 1.412 . S
C1421 H1485 0.980 . S
C1422 C1423 1.288 . S
C1422 C1427 1.377 . S
C1422 O1449 1.393 . S
C1423 C1422 1.288 . S
C1423 C1424 1.369 . S
C1423 H1489 0.932 . S
C1424 C1423 1.369 . S
C1424 C1425 1.398 . S
C1424 C1428 1.527 . S
C1425 C1424 1.398 . S
C1425 C1426 1.380 . S
C1425 C1439 1.497 . S
C1426 C1425 1.380 . S
C1426 C1427 1.383 . S
C1426 C1429 1.603 . S
C1427 C1422 1.377 . S
C1427 C1426 1.383 . S
C1427 H1490 0.929 . S
C1428 C1424 1.527 . S
C1428 H1491 0.961 . S
C1428 H1492 0.959 . S
C1428 H1493 0.959 . S
C1429 C1426 1.603 . S
C1429 H1494 0.960 . S
C1429 H1495 0.962 . S
C1429 H1496 0.961 . S
C1430 C1397 1.587 . S
C1430 C1431 1.360 . S
C1430 C1443 1.412 . S
C1431 C1430 1.360 . S
C1431 C1432 1.365 . S
C1431 H1497 0.929 . S
C1432 C1407 1.553 . S
C1432 C1431 1.365 . S
C1432 C1433 1.404 . S
C1433 C1432 1.404 . S
C1433 C1434 1.395 . S
C1433 C1444 1.451 . S
C1434 C1433 1.395 . S
C1434 C1435 1.322 . S
C1434 H1498 0.930 . S
C1435 C1434 1.322 . S
C1435 C1436 1.459 . S
C1435 H1499 0.929 . S
C1436 C1435 1.459 . S
C1436 C1437 1.445 . S
C1436 C1445 1.395 . S
C1437 C1415 1.432 . S
C1437 C1436 1.445 . S
C1437 C1438 1.370 . S
C1438 C1437 1.370 . S
C1438 C1439 1.438 . S
C1438 H1500 0.930 . S
C1439 C1425 1.497 . S
C1439 C1438 1.438 . S
C1439 C1440 1.360 . S
C1440 C1439 1.360 . S
C1440 C1441 1.401 . S
C1440 C1445 1.446 . S
C1441 C1440 1.401 . S
C1441 C1442 1.347 . S
C1441 H1501 0.929 . S
C1442 C1441 1.347 . S
C1442 C1443 1.455 . S
C1442 H1502 0.930 . S
C1443 C1430 1.412 . S
C1443 C1442 1.455 . S
C1443 C1444 1.331 . S
C1444 C1433 1.451 . S
C1444 C1443 1.331 . S
C1444 C1445 1.497 . S
C1445 C1436 1.395 . S
C1445 C1440 1.446 . S
C1445 C1444 1.497 . S
C1446 C1447 1.582 . S
C1446 H1503 0.962 . S
C1446 H1504 0.959 . S
C1446 H1505 0.958 . S
C1447 C1446 1.582 . S
C1447 O1450 1.458 . S
C1447 H1476 0.980 . S
O1448 C1393 1.426 . S
O1448 C1394 1.334 . S
O1449 C1421 1.412 . S
O1449 C1422 1.393 . S
O1450 C1412 1.435 . S
O1450 C1447 1.458 . S
O1451 C1403 1.468 . S
O1451 C1404 1.408 . S
H1452 C1393 0.980 . S
H1453 C1392 0.959 . S
H1454 C1392 0.959 . S
H1455 C1392 0.960 . S
H1456 C1395 0.929 . S
H1457 C1399 0.929 . S
H1458 C1400 0.959 . S
H1459 C1400 0.961 . S
H1460 C1400 0.961 . S
H1461 C1401 0.960 . S
H1462 C1401 0.960 . S
H1463 C1401 0.961 . S
H1464 C1403 0.980 . S
H1465 C1402 0.961 . S
H1466 C1402 0.960 . S
H1467 C1402 0.959 . S
H1468 C1405 0.930 . S
H1469 C1409 0.931 . S
H1470 C1410 0.959 . S
H1471 C1410 0.961 . S
H1472 C1410 0.959 . S
H1473 C1411 0.960 . S
H1474 C1411 0.960 . S
H1475 C1411 0.960 . S
H1476 C1447 0.980 . S
H1477 C1413 0.930 . S
H1478 C1417 0.930 . S
H1479 C1418 0.961 . S
H1480 C1418 0.960 . S
H1481 C1418 0.958 . S
H1482 C1419 0.961 . S
H1483 C1419 0.960 . S
H1484 C1419 0.960 . S
H1485 C1421 0.980 . S
H1486 C1420 0.961 . S
H1487 C1420 0.961 . S
H1488 C1420 0.959 . S
H1489 C1423 0.932 . S
H1490 C1427 0.929 . S
H1491 C1428 0.961 . S
H1492 C1428 0.959 . S
H1493 C1428 0.959 . S
H1494 C1429 0.960 . S
H1495 C1429 0.962 . S
H1496 C1429 0.961 . S
H1497 C1431 0.929 . S
H1498 C1434 0.930 . S
H1499 C1435 0.929 . S
H1500 C1438 0.930 . S
H1501 C1441 0.929 . S
H1502 C1442 0.930 . S
H1503 C1446 0.962 . S
H1504 C1446 0.959 . S
H1505 C1446 0.958 . S
C1506 C1507 1.560 . S
C1506 H1567 0.959 . S
C1506 H1568 0.959 . S
C1506 H1569 0.960 . S
C1507 C1506 1.560 . S
C1507 O1562 1.426 . S
C1507 H1566 0.980 . S
C1508 C1509 1.407 1_565 S
C1508 C1513 1.418 . S
C1508 O1562 1.334 . S
C1509 C1508 1.407 1_545 S
C1509 C1510 1.360 . S
C1509 H1570 0.929 . S
C1510 C1509 1.360 . S
C1510 C1511 1.401 1_545 S
C1510 C1514 1.527 . S
C1511 C1510 1.401 1_565 S
C1511 C1512 1.405 . S
C1511 C1544 1.587 1_565 S
C1512 C1511 1.405 . S
C1512 C1513 1.332 . S
C1512 C1515 1.496 . S
C1513 C1508 1.418 . S
C1513 C1512 1.332 . S
C1513 H1571 0.929 . S
C1514 C1510 1.527 . S
C1514 H1572 0.959 . S
C1514 H1573 0.961 . S
C1514 H1574 0.961 . S
C1515 C1512 1.496 . S
C1515 H1575 0.960 . S
C1515 H1576 0.960 . S
C1515 H1577 0.961 . S
C1516 C1517 1.517 . S
C1516 H1579 0.961 1_545 S
C1516 H1580 0.960 . S
C1516 H1581 0.959 . S
C1517 C1516 1.517 . S
C1517 O1565 1.468 . S
C1517 H1578 0.980 1_545 S
C1518 C1519 1.348 1_545 S
C1518 C1523 1.367 . S
C1518 O1565 1.408 . S
C1519 C1518 1.348 1_565 S
C1519 C1520 1.406 . S
C1519 H1582 0.933 . S
C1520 C1519 1.406 . S
C1520 C1521 1.449 1_565 S
C1520 C1524 1.535 . S
C1521 C1520 1.449 1_545 S
C1521 C1522 1.384 . S
C1521 C1546 1.553 . S
C1522 C1521 1.384 . S
C1522 C1523 1.364 . S
C1522 C1525 1.450 . S
C1523 C1518 1.367 . S
C1523 C1522 1.364 . S
C1523 H1583 0.931 . S
C1524 C1520 1.535 . S
C1524 H1584 0.959 . S
C1524 H1585 0.961 . S
C1524 H1586 0.959 . S
C1525 C1522 1.450 . S
C1525 H1587 0.960 . S
C1525 H1588 0.960 . S
C1525 H1589 0.960 . S
C1526 C1527 1.309 . S
C1526 C1531 1.304 . S
C1526 O1564 1.435 . S
C1527 C1526 1.309 . S
C1527 C1528 1.476 1_545 S
C1527 H1591 0.930 1_545 S
C1528 C1527 1.476 1_565 S
C1528 C1529 1.400 1_565 S
C1528 C1532 1.567 . S
C1529 C1528 1.400 1_545 S
C1529 C1530 1.373 . S
C1529 C1551 1.432 . S
C1530 C1529 1.373 . S
C1530 C1531 1.339 . S
C1530 C1533 1.530 . S
C1531 C1526 1.304 . S
C1531 C1530 1.339 . S
C1531 H1592 0.930 . S
C1532 C1528 1.567 . S
C1532 H1593 0.961 . S
C1532 H1594 0.960 . S
C1532 H1595 0.958 . S
C1533 C1530 1.530 . S
C1533 H1596 0.961 . S
C1533 H1597 0.960 . S
C1533 H1598 0.960 . S
C1534 C1535 1.530 1_565 S
C1534 H1600 0.961 . S
C1534 H1601 0.961 . S
C1534 H1602 0.959 . S
C1535 C1534 1.530 1_545 S
C1535 O1563 1.412 1_545 S
C1535 H1599 0.980 . S
C1536 C1537 1.288 . S
C1536 C1541 1.377 1_565 S
C1536 O1563 1.393 . S
C1537 C1536 1.288 . S
C1537 C1538 1.369 . S
C1537 H1603 0.932 . S
C1538 C1537 1.369 . S
C1538 C1539 1.398 1_565 S
C1538 C1542 1.527 . S
C1539 C1538 1.398 1_545 S
C1539 C1540 1.380 . S
C1539 C1553 1.497 . S
C1540 C1539 1.380 . S
C1540 C1541 1.383 . S
C1540 C1543 1.603 . S
C1541 C1536 1.377 1_545 S
C1541 C1540 1.383 . S
C1541 H1604 0.929 . S
C1542 C1538 1.527 . S
C1542 H1605 0.961 . S
C1542 H1606 0.959 . S
C1542 H1607 0.959 . S
C1543 C1540 1.603 . S
C1543 H1608 0.960 . S
C1543 H1609 0.962 . S
C1543 H1610 0.961 . S
C1544 C1511 1.587 1_545 S
C1544 C1545 1.360 . S
C1544 C1557 1.412 . S
C1545 C1544 1.360 . S
C1545 C1546 1.365 . S
C1545 H1611 0.929 . S
C1546 C1521 1.553 . S
C1546 C1545 1.365 . S
C1546 C1547 1.404 . S
C1547 C1546 1.404 . S
C1547 C1548 1.395 . S
C1547 C1558 1.451 . S
C1548 C1547 1.395 . S
C1548 C1549 1.322 . S
C1548 H1612 0.930 . S
C1549 C1548 1.322 . S
C1549 C1550 1.459 . S
C1549 H1613 0.929 . S
C1550 C1549 1.459 . S
C1550 C1551 1.445 . S
C1550 C1559 1.395 . S
C1551 C1529 1.432 . S
C1551 C1550 1.445 . S
C1551 C1552 1.370 . S
C1552 C1551 1.370 . S
C1552 C1553 1.438 . S
C1552 H1614 0.930 . S
C1553 C1539 1.497 . S
C1553 C1552 1.438 . S
C1553 C1554 1.360 . S
C1554 C1553 1.360 . S
C1554 C1555 1.401 . S
C1554 C1559 1.446 . S
C1555 C1554 1.401 . S
C1555 C1556 1.347 . S
C1555 H1615 0.929 . S
C1556 C1555 1.347 . S
C1556 C1557 1.455 . S
C1556 H1616 0.930 . S
C1557 C1544 1.412 . S
C1557 C1556 1.455 . S
C1557 C1558 1.331 . S
C1558 C1547 1.451 . S
C1558 C1557 1.331 . S
C1558 C1559 1.497 . S
C1559 C1550 1.395 . S
C1559 C1554 1.446 . S
C1559 C1558 1.497 . S
C1560 C1561 1.582 . S
C1560 H1617 0.962 . S
C1560 H1618 0.959 . S
C1560 H1619 0.958 . S
C1561 C1560 1.582 . S
C1561 O1564 1.458 . S
C1561 H1590 0.980 . S
O1562 C1507 1.426 . S
O1562 C1508 1.334 . S
O1563 C1535 1.412 1_565 S
O1563 C1536 1.393 . S
O1564 C1526 1.435 . S
O1564 C1561 1.458 . S
O1565 C1517 1.468 . S
O1565 C1518 1.408 . S
H1566 C1507 0.980 . S
H1567 C1506 0.959 . S
H1568 C1506 0.959 . S
H1569 C1506 0.960 . S
H1570 C1509 0.929 . S
H1571 C1513 0.929 . S
H1572 C1514 0.959 . S
H1573 C1514 0.961 . S
H1574 C1514 0.961 . S
H1575 C1515 0.960 . S
H1576 C1515 0.960 . S
H1577 C1515 0.961 . S
H1578 C1517 0.980 1_565 S
H1579 C1516 0.961 1_565 S
H1580 C1516 0.960 . S
H1581 C1516 0.959 . S
H1582 C1519 0.933 . S
H1583 C1523 0.931 . S
H1584 C1524 0.959 . S
H1585 C1524 0.961 . S
H1586 C1524 0.959 . S
H1587 C1525 0.960 . S
H1588 C1525 0.960 . S
H1589 C1525 0.960 . S
H1590 C1561 0.980 . S
H1591 C1527 0.930 1_565 S
H1592 C1531 0.930 . S
H1593 C1532 0.961 . S
H1594 C1532 0.960 . S
H1595 C1532 0.958 . S
H1596 C1533 0.961 . S
H1597 C1533 0.960 . S
H1598 C1533 0.960 . S
H1599 C1535 0.980 . S
H1600 C1534 0.961 . S
H1601 C1534 0.961 . S
H1602 C1534 0.959 . S
H1603 C1537 0.932 . S
H1604 C1541 0.929 . S
H1605 C1542 0.961 . S
H1606 C1542 0.959 . S
H1607 C1542 0.959 . S
H1608 C1543 0.960 . S
H1609 C1543 0.962 . S
H1610 C1543 0.961 . S
H1611 C1545 0.929 . S
H1612 C1548 0.930 . S
H1613 C1549 0.929 . S
H1614 C1552 0.930 . S
H1615 C1555 0.929 . S
H1616 C1556 0.930 . S
H1617 C1560 0.962 . S
H1618 C1560 0.959 . S
H1619 C1560 0.958 . S
C1620 C1621 1.560 . S
C1620 H1681 0.959 . S
C1620 H1682 0.959 . S
C1620 H1683 0.960 . S
C1621 C1620 1.560 . S
C1621 O1676 1.426 . S
C1621 H1680 0.980 1_565 S
C1622 C1623 1.407 1_565 S
C1622 C1627 1.418 . S
C1622 O1676 1.334 . S
C1623 C1622 1.407 1_545 S
C1623 C1624 1.360 . S
C1623 H1684 0.929 . S
C1624 C1623 1.360 . S
C1624 C1625 1.401 . S
C1624 C1628 1.527 . S
C1625 C1624 1.401 . S
C1625 C1626 1.405 1_545 S
C1625 C1658 1.587 . S
C1626 C1625 1.405 1_565 S
C1626 C1627 1.332 . S
C1626 C1629 1.496 . S
C1627 C1622 1.418 . S
C1627 C1626 1.332 . S
C1627 H1685 0.929 . S
C1628 C1624 1.527 . S
C1628 H1686 0.959 . S
C1628 H1687 0.961 . S
C1628 H1688 0.961 . S
C1629 C1626 1.496 . S
C1629 H1689 0.960 . S
C1629 H1690 0.960 . S
C1629 H1691 0.961 . S
C1630 C1631 1.517 . S
C1630 H1693 0.961 . S
C1630 H1694 0.960 . S
C1630 H1695 0.959 . S
C1631 C1630 1.517 . S
C1631 O1679 1.468 . S
C1631 H1692 0.980 . S
C1632 C1633 1.349 . S
C1632 C1637 1.367 . S
C1632 O1679 1.408 . S
C1633 C1632 1.349 . S
C1633 C1634 1.407 . S
C1633 H1696 0.943 . S
C1634 C1633 1.407 . S
C1634 C1635 1.449 . S
C1634 C1638 1.535 1_545 S
C1635 C1634 1.449 . S
C1635 C1636 1.384 . S
C1635 C1660 1.553 . S
C1636 C1635 1.384 . S
C1636 C1637 1.364 . S
C1636 C1639 1.450 . S
C1637 C1632 1.367 . S
C1637 C1636 1.364 . S
C1637 H1697 0.931 . S
C1638 C1634 1.535 1_565 S
C1638 H1698 0.959 . S
C1638 H1699 0.961 . S
C1638 H1700 0.959 . S
C1639 C1636 1.450 . S
C1639 H1701 0.960 . S
C1639 H1702 0.960 . S
C1639 H1703 0.960 . S
C1640 C1641 1.309 1_545 S
C1640 C1645 1.304 . S
C1640 O1678 1.435 . S
C1641 C1640 1.309 1_565 S
C1641 C1642 1.476 . S
C1641 H1705 0.930 . S
C1642 C1641 1.476 . S
C1642 C1643 1.400 1_565 S
C1642 C1646 1.567 . S
C1643 C1642 1.400 1_545 S
C1643 C1644 1.373 . S
C1643 C1665 1.432 . S
C1644 C1643 1.373 . S
C1644 C1645 1.339 . S
C1644 C1647 1.530 . S
C1645 C1640 1.304 . S
C1645 C1644 1.339 . S
C1645 H1706 0.930 . S
C1646 C1642 1.567 . S
C1646 H1707 0.961 . S
C1646 H1708 0.960 . S
C1646 H1709 0.958 . S
C1647 C1644 1.530 . S
C1647 H1710 0.961 . S
C1647 H1711 0.960 . S
C1647 H1712 0.960 . S
C1648 C1649 1.530 . S
C1648 H1714 0.961 . S
C1648 H1715 0.961 . S
C1648 H1716 0.959 . S
C1649 C1648 1.530 . S
C1649 O1677 1.412 . S
C1649 H1713 0.980 . S
C1650 C1651 1.288 . S
C1650 C1655 1.377 1_565 S
C1650 O1677 1.393 . S
C1651 C1650 1.288 . S
C1651 C1652 1.369 . S
C1651 H1717 0.932 . S
C1652 C1651 1.369 . S
C1652 C1653 1.398 . S
C1652 C1656 1.527 . S
C1653 C1652 1.398 . S
C1653 C1654 1.380 1_565 S
C1653 C1667 1.497 1_565 S
C1654 C1653 1.380 1_545 S
C1654 C1655 1.383 . S
C1654 C1657 1.603 . S
C1655 C1650 1.377 1_545 S
C1655 C1654 1.383 . S
C1655 H1718 0.929 . S
C1656 C1652 1.527 . S
C1656 H1719 0.961 . S
C1656 H1720 0.959 . S
C1656 H1721 0.959 . S
C1657 C1654 1.603 . S
C1657 H1722 0.960 . S
C1657 H1723 0.962 . S
C1657 H1724 0.961 . S
C1658 C1625 1.587 . S
C1658 C1659 1.360 . S
C1658 C1671 1.412 . S
C1659 C1658 1.360 . S
C1659 C1660 1.365 . S
C1659 H1725 0.929 . S
C1660 C1635 1.553 . S
C1660 C1659 1.365 . S
C1660 C1661 1.404 . S
C1661 C1660 1.404 . S
C1661 C1662 1.395 . S
C1661 C1672 1.451 . S
C1662 C1661 1.395 . S
C1662 C1663 1.322 . S
C1662 H1726 0.930 . S
C1663 C1662 1.322 . S
C1663 C1664 1.459 . S
C1663 H1727 0.929 . S
C1664 C1663 1.459 . S
C1664 C1665 1.445 . S
C1664 C1673 1.395 . S
C1665 C1643 1.432 . S
C1665 C1664 1.445 . S
C1665 C1666 1.370 . S
C1666 C1665 1.370 . S
C1666 C1667 1.438 . S
C1666 H1728 0.930 . S
C1667 C1653 1.497 1_545 S
C1667 C1666 1.438 . S
C1667 C1668 1.360 . S
C1668 C1667 1.360 . S
C1668 C1669 1.401 . S
C1668 C1673 1.446 . S
C1669 C1668 1.401 . S
C1669 C1670 1.347 . S
C1669 H1729 0.933 . S
C1670 C1669 1.347 . S
C1670 C1671 1.455 . S
C1670 H1730 0.930 . S
C1671 C1658 1.412 . S
C1671 C1670 1.455 . S
C1671 C1672 1.331 . S
C1672 C1661 1.451 . S
C1672 C1671 1.331 . S
C1672 C1673 1.497 . S
C1673 C1664 1.395 . S
C1673 C1668 1.446 . S
C1673 C1672 1.497 . S
C1674 C1675 1.582 . S
C1674 H1731 0.962 . S
C1674 H1732 0.959 . S
C1674 H1733 0.958 . S
C1675 C1674 1.582 . S
C1675 O1678 1.458 . S
C1675 H1704 0.981 1_545 S
O1676 C1621 1.426 . S
O1676 C1622 1.334 . S
O1677 C1649 1.412 . S
O1677 C1650 1.393 . S
O1678 C1640 1.435 . S
O1678 C1675 1.458 . S
O1679 C1631 1.468 . S
O1679 C1632 1.408 . S
H1680 C1621 0.980 1_545 S
H1681 C1620 0.959 . S
H1682 C1620 0.959 . S
H1683 C1620 0.960 . S
H1684 C1623 0.929 . S
H1685 C1627 0.929 . S
H1686 C1628 0.959 . S
H1687 C1628 0.961 . S
H1688 C1628 0.961 . S
H1689 C1629 0.960 . S
H1690 C1629 0.960 . S
H1691 C1629 0.961 . S
H1692 C1631 0.980 . S
H1693 C1630 0.961 . S
H1694 C1630 0.960 . S
H1695 C1630 0.959 . S
H1696 C1633 0.943 . S
H1697 C1637 0.931 . S
H1698 C1638 0.959 . S
H1699 C1638 0.961 . S
H1700 C1638 0.959 . S
H1701 C1639 0.960 . S
H1702 C1639 0.960 . S
H1703 C1639 0.960 . S
H1704 C1675 0.981 1_565 S
H1705 C1641 0.930 . S
H1706 C1645 0.930 . S
H1707 C1646 0.961 . S
H1708 C1646 0.960 . S
H1709 C1646 0.958 . S
H1710 C1647 0.961 . S
H1711 C1647 0.960 . S
H1712 C1647 0.960 . S
H1713 C1649 0.980 . S
H1714 C1648 0.961 . S
H1715 C1648 0.961 . S
H1716 C1648 0.959 . S
H1717 C1651 0.932 . S
H1718 C1655 0.929 . S
H1719 C1656 0.961 . S
H1720 C1656 0.959 . S
H1721 C1656 0.959 . S
H1722 C1657 0.960 . S
H1723 C1657 0.962 . S
H1724 C1657 0.961 . S
H1725 C1659 0.929 . S
H1726 C1662 0.930 . S
H1727 C1663 0.929 . S
H1728 C1666 0.930 . S
H1729 C1669 0.933 . S
H1730 C1670 0.930 . S
H1731 C1674 0.962 . S
H1732 C1674 0.959 . S
H1733 C1674 0.958 . S
C1734 C1735 1.560 . S
C1734 H1795 0.959 . S
C1734 H1796 0.959 . S
C1734 H1797 0.960 . S
C1735 C1734 1.560 . S
C1735 O1790 1.426 . S
C1735 H1794 0.980 1_455 S
C1736 C1737 1.407 1_455 S
C1736 C1741 1.418 . S
C1736 O1790 1.334 . S
C1737 C1736 1.407 1_655 S
C1737 C1738 1.360 . S
C1737 H1798 0.929 . S
C1738 C1737 1.360 . S
C1738 C1739 1.401 . S
C1738 C1742 1.527 . S
C1739 C1738 1.401 . S
C1739 C1740 1.405 1_655 S
C1739 C1772 1.587 . S
C1740 C1739 1.405 1_455 S
C1740 C1741 1.332 . S
C1740 C1743 1.496 . S
C1741 C1736 1.418 . S
C1741 C1740 1.332 . S
C1741 H1799 0.929 . S
C1742 C1738 1.527 . S
C1742 H1800 0.959 . S
C1742 H1801 0.961 . S
C1742 H1802 0.961 . S
C1743 C1740 1.496 . S
C1743 H1803 0.960 . S
C1743 H1804 0.960 . S
C1743 H1805 0.961 . S
C1744 C1745 1.517 . S
C1744 H1807 0.961 . S
C1744 H1808 0.960 . S
C1744 H1809 0.959 . S
C1745 C1744 1.517 . S
C1745 O1793 1.468 . S
C1745 H1806 0.980 . S
C1746 C1747 1.349 . S
C1746 C1751 1.367 . S
C1746 O1793 1.408 . S
C1747 C1746 1.349 . S
C1747 C1748 1.407 . S
C1747 H1810 0.920 1_655 S
C1748 C1747 1.407 . S
C1748 C1749 1.449 . S
C1748 C1752 1.535 1_655 S
C1749 C1748 1.449 . S
C1749 C1750 1.384 . S
C1749 C1774 1.553 . S
C1750 C1749 1.384 . S
C1750 C1751 1.364 . S
C1750 C1753 1.450 . S
C1751 C1746 1.367 . S
C1751 C1750 1.364 . S
C1751 H1811 0.931 . S
C1752 C1748 1.535 1_455 S
C1752 H1812 0.959 . S
C1752 H1813 0.961 . S
C1752 H1814 0.959 . S
C1753 C1750 1.450 . S
C1753 H1815 0.960 . S
C1753 H1816 0.960 . S
C1753 H1817 0.960 . S
C1754 C1755 1.309 1_655 S
C1754 C1759 1.304 . S
C1754 O1792 1.435 . S
C1755 C1754 1.309 1_455 S
C1755 C1756 1.476 . S
C1755 H1819 0.930 . S
C1756 C1755 1.476 . S
C1756 C1757 1.400 1_455 S
C1756 C1760 1.567 . S
C1757 C1756 1.400 1_655 S
C1757 C1758 1.373 . S
C1757 C1779 1.432 . S
C1758 C1757 1.373 . S
C1758 C1759 1.339 . S
C1758 C1761 1.530 . S
C1759 C1754 1.304 . S
C1759 C1758 1.339 . S
C1759 H1820 0.930 . S
C1760 C1756 1.567 . S
C1760 H1821 0.961 . S
C1760 H1822 0.960 . S
C1760 H1823 0.958 . S
C1761 C1758 1.530 . S
C1761 H1824 0.961 . S
C1761 H1825 0.960 . S
C1761 H1826 0.960 . S
C1762 C1763 1.530 . S
C1762 H1828 0.961 . S
C1762 H1829 0.961 . S
C1762 H1830 0.959 . S
C1763 C1762 1.530 . S
C1763 O1791 1.412 . S
C1763 H1827 0.977 . S
C1764 C1765 1.288 . S
C1764 C1769 1.377 1_455 S
C1764 O1791 1.393 . S
C1765 C1764 1.288 . S
C1765 C1766 1.369 . S
C1765 H1831 0.932 . S
C1766 C1765 1.369 . S
C1766 C1767 1.398 . S
C1766 C1770 1.527 . S
C1767 C1766 1.398 . S
C1767 C1768 1.380 1_455 S
C1767 C1781 1.497 1_455 S
C1768 C1767 1.380 1_655 S
C1768 C1769 1.383 . S
C1768 C1771 1.603 . S
C1769 C1764 1.377 1_655 S
C1769 C1768 1.383 . S
C1769 H1832 0.929 . S
C1770 C1766 1.527 . S
C1770 H1833 0.961 . S
C1770 H1834 0.959 . S
C1770 H1835 0.959 . S
C1771 C1768 1.603 . S
C1771 H1836 0.960 . S
C1771 H1837 0.962 . S
C1771 H1838 0.961 . S
C1772 C1739 1.587 . S
C1772 C1773 1.360 . S
C1772 C1785 1.412 . S
C1773 C1772 1.360 . S
C1773 C1774 1.365 . S
C1773 H1839 0.929 . S
C1774 C1749 1.553 . S
C1774 C1773 1.365 . S
C1774 C1775 1.404 . S
C1775 C1774 1.404 . S
C1775 C1776 1.395 . S
C1775 C1786 1.451 . S
C1776 C1775 1.395 . S
C1776 C1777 1.322 . S
C1776 H1840 0.930 . S
C1777 C1776 1.322 . S
C1777 C1778 1.459 . S
C1777 H1841 0.929 . S
C1778 C1777 1.459 . S
C1778 C1779 1.445 . S
C1778 C1787 1.395 . S
C1779 C1757 1.432 . S
C1779 C1778 1.445 . S
C1779 C1780 1.370 . S
C1780 C1779 1.370 . S
C1780 C1781 1.438 . S
C1780 H1842 0.930 . S
C1781 C1767 1.497 1_655 S
C1781 C1780 1.438 . S
C1781 C1782 1.360 . S
C1782 C1781 1.360 . S
C1782 C1783 1.401 . S
C1782 C1787 1.446 . S
C1783 C1782 1.401 . S
C1783 C1784 1.347 . S
C1783 H1843 0.929 . S
C1784 C1783 1.347 . S
C1784 C1785 1.455 . S
C1784 H1844 0.930 . S
C1785 C1772 1.412 . S
C1785 C1784 1.455 . S
C1785 C1786 1.331 . S
C1786 C1775 1.451 . S
C1786 C1785 1.331 . S
C1786 C1787 1.497 . S
C1787 C1778 1.395 . S
C1787 C1782 1.446 . S
C1787 C1786 1.497 . S
C1788 C1789 1.582 1_655 S
C1788 H1845 0.962 1_655 S
C1788 H1846 0.959 . S
C1788 H1847 0.958 . S
C1789 C1788 1.582 1_455 S
C1789 O1792 1.458 1_455 S
C1789 H1818 0.980 . S
O1790 C1735 1.426 . S
O1790 C1736 1.334 . S
O1791 C1763 1.412 . S
O1791 C1764 1.393 . S
O1792 C1754 1.435 . S
O1792 C1789 1.458 1_655 S
O1793 C1745 1.468 . S
O1793 C1746 1.408 . S
H1794 C1735 0.980 1_655 S
H1795 C1734 0.959 . S
H1796 C1734 0.959 . S
H1797 C1734 0.960 . S
H1798 C1737 0.929 . S
H1799 C1741 0.929 . S
H1800 C1742 0.959 . S
H1801 C1742 0.961 . S
H1802 C1742 0.961 . S
H1803 C1743 0.960 . S
H1804 C1743 0.960 . S
H1805 C1743 0.961 . S
H1806 C1745 0.980 . S
H1807 C1744 0.961 . S
H1808 C1744 0.960 . S
H1809 C1744 0.959 . S
H1810 C1747 0.920 1_455 S
H1811 C1751 0.931 . S
H1812 C1752 0.959 . S
H1813 C1752 0.961 . S
H1814 C1752 0.959 . S
H1815 C1753 0.960 . S
H1816 C1753 0.960 . S
H1817 C1753 0.960 . S
H1818 C1789 0.980 . S
H1819 C1755 0.930 . S
H1820 C1759 0.930 . S
H1821 C1760 0.961 . S
H1822 C1760 0.960 . S
H1823 C1760 0.958 . S
H1824 C1761 0.961 . S
H1825 C1761 0.960 . S
H1826 C1761 0.960 . S
H1827 C1763 0.977 . S
H1828 C1762 0.961 . S
H1829 C1762 0.961 . S
H1830 C1762 0.959 . S
H1831 C1765 0.932 . S
H1832 C1769 0.929 . S
H1833 C1770 0.961 . S
H1834 C1770 0.959 . S
H1835 C1770 0.959 . S
H1836 C1771 0.960 . S
H1837 C1771 0.962 . S
H1838 C1771 0.961 . S
H1839 C1773 0.929 . S
H1840 C1776 0.930 . S
H1841 C1777 0.929 . S
H1842 C1780 0.930 . S
H1843 C1783 0.929 . S
H1844 C1784 0.930 . S
H1845 C1788 0.962 1_455 S
H1846 C1788 0.959 . S
H1847 C1788 0.958 . S
C1848 C1849 1.560 . S
C1848 H1909 0.959 . S
C1848 H1910 0.959 . S
C1848 H1911 0.960 . S
C1849 C1848 1.560 . S
C1849 O1904 1.426 . S
C1849 H1908 0.980 . S
C1850 C1851 1.407 . S
C1850 C1855 1.418 . S
C1850 O1904 1.334 . S
C1851 C1850 1.407 . S
C1851 C1852 1.360 . S
C1851 H1912 0.929 . S
C1852 C1851 1.360 . S
C1852 C1853 1.401 . S
C1852 C1856 1.527 . S
C1853 C1852 1.401 . S
C1853 C1854 1.405 . S
C1853 C1886 1.587 . S
C1854 C1853 1.405 . S
C1854 C1855 1.332 . S
C1854 C1857 1.496 . S
C1855 C1850 1.418 . S
C1855 C1854 1.332 . S
C1855 H1913 0.929 . S
C1856 C1852 1.527 . S
C1856 H1914 0.959 . S
C1856 H1915 0.961 . S
C1856 H1916 0.961 . S
C1857 C1854 1.496 . S
C1857 H1917 0.960 . S
C1857 H1918 0.960 . S
C1857 H1919 0.961 . S
C1858 C1859 1.517 . S
C1858 H1921 0.961 . S
C1858 H1922 0.960 . S
C1858 H1923 0.959 . S
C1859 C1858 1.517 . S
C1859 O1907 1.468 . S
C1859 H1920 0.980 . S
C1860 C1861 1.349 . S
C1860 C1865 1.367 . S
C1860 O1907 1.408 . S
C1861 C1860 1.349 . S
C1861 C1862 1.407 . S
C1861 H1924 0.930 . S
C1862 C1861 1.407 . S
C1862 C1863 1.449 . S
C1862 C1866 1.535 . S
C1863 C1862 1.449 . S
C1863 C1864 1.384 . S
C1863 C1888 1.553 . S
C1864 C1863 1.384 . S
C1864 C1865 1.364 . S
C1864 C1867 1.450 . S
C1865 C1860 1.367 . S
C1865 C1864 1.364 . S
C1865 H1925 0.931 . S
C1866 C1862 1.535 . S
C1866 H1926 0.959 . S
C1866 H1927 0.961 . S
C1866 H1928 0.959 . S
C1867 C1864 1.450 . S
C1867 H1929 0.960 . S
C1867 H1930 0.960 . S
C1867 H1931 0.960 . S
C1868 C1869 1.309 . S
C1868 C1873 1.304 . S
C1868 O1906 1.435 . S
C1869 C1868 1.309 . S
C1869 C1870 1.476 . S
C1869 H1933 0.930 . S
C1870 C1869 1.476 . S
C1870 C1871 1.400 . S
C1870 C1874 1.567 . S
C1871 C1870 1.400 . S
C1871 C1872 1.373 . S
C1871 C1893 1.432 . S
C1872 C1871 1.373 . S
C1872 C1873 1.339 . S
C1872 C1875 1.530 . S
C1873 C1868 1.304 . S
C1873 C1872 1.339 . S
C1873 H1934 0.930 . S
C1874 C1870 1.567 . S
C1874 H1935 0.961 . S
C1874 H1936 0.960 . S
C1874 H1937 0.958 . S
C1875 C1872 1.530 . S
C1875 H1938 0.961 . S
C1875 H1939 0.960 . S
C1875 H1940 0.960 . S
C1876 C1877 1.530 . S
C1876 H1942 0.961 . S
C1876 H1943 0.961 . S
C1876 H1944 0.959 . S
C1877 C1876 1.530 . S
C1877 O1905 1.412 . S
C1877 H1941 0.980 . S
C1878 C1879 1.288 . S
C1878 C1883 1.377 . S
C1878 O1905 1.393 . S
C1879 C1878 1.288 . S
C1879 C1880 1.369 . S
C1879 H1945 0.932 . S
C1880 C1879 1.369 . S
C1880 C1881 1.398 . S
C1880 C1884 1.527 . S
C1881 C1880 1.398 . S
C1881 C1882 1.380 . S
C1881 C1895 1.497 . S
C1882 C1881 1.380 . S
C1882 C1883 1.383 . S
C1882 C1885 1.603 . S
C1883 C1878 1.377 . S
C1883 C1882 1.383 . S
C1883 H1946 0.929 . S
C1884 C1880 1.527 . S
C1884 H1947 0.961 . S
C1884 H1948 0.959 . S
C1884 H1949 0.959 . S
C1885 C1882 1.603 . S
C1885 H1950 0.960 . S
C1885 H1951 0.962 . S
C1885 H1952 0.961 . S
C1886 C1853 1.587 . S
C1886 C1887 1.360 . S
C1886 C1899 1.412 . S
C1887 C1886 1.360 . S
C1887 C1888 1.365 . S
C1887 H1953 0.929 . S
C1888 C1863 1.553 . S
C1888 C1887 1.365 . S
C1888 C1889 1.404 . S
C1889 C1888 1.404 . S
C1889 C1890 1.395 . S
C1889 C1900 1.451 . S
C1890 C1889 1.395 . S
C1890 C1891 1.322 . S
C1890 H1954 0.930 . S
C1891 C1890 1.322 . S
C1891 C1892 1.459 . S
C1891 H1955 0.929 . S
C1892 C1891 1.459 . S
C1892 C1893 1.445 . S
C1892 C1901 1.395 . S
C1893 C1871 1.432 . S
C1893 C1892 1.445 . S
C1893 C1894 1.370 . S
C1894 C1893 1.370 . S
C1894 C1895 1.438 . S
C1894 H1956 0.930 . S
C1895 C1881 1.497 . S
C1895 C1894 1.438 . S
C1895 C1896 1.360 . S
C1896 C1895 1.360 . S
C1896 C1897 1.401 . S
C1896 C1901 1.446 . S
C1897 C1896 1.401 . S
C1897 C1898 1.347 . S
C1897 H1957 0.929 . S
C1898 C1897 1.347 . S
C1898 C1899 1.455 . S
C1898 H1958 0.930 . S
C1899 C1886 1.412 . S
C1899 C1898 1.455 . S
C1899 C1900 1.331 . S
C1900 C1889 1.451 . S
C1900 C1899 1.331 . S
C1900 C1901 1.497 . S
C1901 C1892 1.395 . S
C1901 C1896 1.446 . S
C1901 C1900 1.497 . S
C1902 C1903 1.582 . S
C1902 H1959 0.962 . S
C1902 H1960 0.959 . S
C1902 H1961 0.958 . S
C1903 C1902 1.582 . S
C1903 O1906 1.458 . S
C1903 H1932 0.980 . S
O1904 C1849 1.426 . S
O1904 C1850 1.334 . S
O1905 C1877 1.412 . S
O1905 C1878 1.393 . S
O1906 C1868 1.435 . S
O1906 C1903 1.458 . S
O1907 C1859 1.468 . S
O1907 C1860 1.408 . S
H1908 C1849 0.980 . S
H1909 C1848 0.959 . S
H1910 C1848 0.959 . S
H1911 C1848 0.960 . S
H1912 C1851 0.929 . S
H1913 C1855 0.929 . S
H1914 C1856 0.959 . S
H1915 C1856 0.961 . S
H1916 C1856 0.961 . S
H1917 C1857 0.960 . S
H1918 C1857 0.960 . S
H1919 C1857 0.961 . S
H1920 C1859 0.980 . S
H1921 C1858 0.961 . S
H1922 C1858 0.960 . S
H1923 C1858 0.959 . S
H1924 C1861 0.930 . S
H1925 C1865 0.931 . S
H1926 C1866 0.959 . S
H1927 C1866 0.961 . S
H1928 C1866 0.959 . S
H1929 C1867 0.960 . S
H1930 C1867 0.960 . S
H1931 C1867 0.960 . S
H1932 C1903 0.980 . S
H1933 C1869 0.930 . S
H1934 C1873 0.930 . S
H1935 C1874 0.961 . S
H1936 C1874 0.960 . S
H1937 C1874 0.958 . S
H1938 C1875 0.961 . S
H1939 C1875 0.960 . S
H1940 C1875 0.960 . S
H1941 C1877 0.980 . S
H1942 C1876 0.961 . S
H1943 C1876 0.961 . S
H1944 C1876 0.959 . S
H1945 C1879 0.932 . S
H1946 C1883 0.929 . S
H1947 C1884 0.961 . S
H1948 C1884 0.959 . S
H1949 C1884 0.959 . S
H1950 C1885 0.960 . S
H1951 C1885 0.962 . S
H1952 C1885 0.961 . S
H1953 C1887 0.929 . S
H1954 C1890 0.930 . S
H1955 C1891 0.929 . S
H1956 C1894 0.930 . S
H1957 C1897 0.929 . S
H1958 C1898 0.930 . S
H1959 C1902 0.962 . S
H1960 C1902 0.959 . S
H1961 C1902 0.958 . S
C1962 C1963 1.560 . S
C1962 H2023 0.959 . S
C1962 H2024 0.959 . S
C1962 H2025 0.960 . S
C1963 C1962 1.560 . S
C1963 O2018 1.426 . S
C1963 H2022 0.980 . S
C1964 C1965 1.407 . S
C1964 C1969 1.418 . S
C1964 O2018 1.334 . S
C1965 C1964 1.407 . S
C1965 C1966 1.360 . S
C1965 H2026 0.929 . S
C1966 C1965 1.360 . S
C1966 C1967 1.401 . S
C1966 C1970 1.527 . S
C1967 C1966 1.401 . S
C1967 C1968 1.405 . S
C1967 C2000 1.587 . S
C1968 C1967 1.405 . S
C1968 C1969 1.332 . S
C1968 C1971 1.496 . S
C1969 C1964 1.418 . S
C1969 C1968 1.332 . S
C1969 H2027 0.929 . S
C1970 C1966 1.527 . S
C1970 H2028 0.959 . S
C1970 H2029 0.961 . S
C1970 H2030 0.961 . S
C1971 C1968 1.496 . S
C1971 H2031 0.960 . S
C1971 H2032 0.960 . S
C1971 H2033 0.961 . S
C1972 C1973 1.517 . S
C1972 H2035 0.961 . S
C1972 H2036 0.960 . S
C1972 H2037 0.959 . S
C1973 C1972 1.517 . S
C1973 O2021 1.468 . S
C1973 H2034 0.980 . S
C1974 C1975 1.349 . S
C1974 C1979 1.367 . S
C1974 O2021 1.408 . S
C1975 C1974 1.349 . S
C1975 C1976 1.407 . S
C1975 H2038 0.930 . S
C1976 C1975 1.407 . S
C1976 C1977 1.449 . S
C1976 C1980 1.535 . S
C1977 C1976 1.449 . S
C1977 C1978 1.384 . S
C1977 C2002 1.553 . S
C1978 C1977 1.384 . S
C1978 C1979 1.364 . S
C1978 C1981 1.450 . S
C1979 C1974 1.367 . S
C1979 C1978 1.364 . S
C1979 H2039 0.931 . S
C1980 C1976 1.535 . S
C1980 H2040 0.959 . S
C1980 H2041 0.961 . S
C1980 H2042 0.959 . S
C1981 C1978 1.450 . S
C1981 H2043 0.960 . S
C1981 H2044 0.960 . S
C1981 H2045 0.960 . S
C1982 C1983 1.309 . S
C1982 C1987 1.304 . S
C1982 O2020 1.435 . S
C1983 C1982 1.309 . S
C1983 C1984 1.476 . S
C1983 H2047 0.930 . S
C1984 C1983 1.476 . S
C1984 C1985 1.400 . S
C1984 C1988 1.567 . S
C1985 C1984 1.400 . S
C1985 C1986 1.373 . S
C1985 C2007 1.432 . S
C1986 C1985 1.373 . S
C1986 C1987 1.339 . S
C1986 C1989 1.530 . S
C1987 C1982 1.304 . S
C1987 C1986 1.339 . S
C1987 H2048 0.930 . S
C1988 C1984 1.567 . S
C1988 H2049 0.961 . S
C1988 H2050 0.960 . S
C1988 H2051 0.958 . S
C1989 C1986 1.530 . S
C1989 H2052 0.961 . S
C1989 H2053 0.960 . S
C1989 H2054 0.960 . S
C1990 C1991 1.530 . S
C1990 H2056 0.961 . S
C1990 H2057 0.961 . S
C1990 H2058 0.959 . S
C1991 C1990 1.530 . S
C1991 O2019 1.412 . S
C1991 H2055 0.980 . S
C1992 C1993 1.288 . S
C1992 C1997 1.377 . S
C1992 O2019 1.393 . S
C1993 C1992 1.288 . S
C1993 C1994 1.369 . S
C1993 H2059 0.932 . S
C1994 C1993 1.369 . S
C1994 C1995 1.398 . S
C1994 C1998 1.527 . S
C1995 C1994 1.398 . S
C1995 C1996 1.380 . S
C1995 C2009 1.497 . S
C1996 C1995 1.380 . S
C1996 C1997 1.383 . S
C1996 C1999 1.603 . S
C1997 C1992 1.377 . S
C1997 C1996 1.383 . S
C1997 H2060 0.929 . S
C1998 C1994 1.527 . S
C1998 H2061 0.961 . S
C1998 H2062 0.959 . S
C1998 H2063 0.959 . S
C1999 C1996 1.603 . S
C1999 H2064 0.960 . S
C1999 H2065 0.962 . S
C1999 H2066 0.961 . S
C2000 C1967 1.587 . S
C2000 C2001 1.360 . S
C2000 C2013 1.412 . S
C2001 C2000 1.360 . S
C2001 C2002 1.365 . S
C2001 H2067 0.929 . S
C2002 C1977 1.553 . S
C2002 C2001 1.365 . S
C2002 C2003 1.404 . S
C2003 C2002 1.404 . S
C2003 C2004 1.395 . S
C2003 C2014 1.451 . S
C2004 C2003 1.395 . S
C2004 C2005 1.322 . S
C2004 H2068 0.930 . S
C2005 C2004 1.322 . S
C2005 C2006 1.459 . S
C2005 H2069 0.929 . S
C2006 C2005 1.459 . S
C2006 C2007 1.445 . S
C2006 C2015 1.395 . S
C2007 C1985 1.432 . S
C2007 C2006 1.445 . S
C2007 C2008 1.370 . S
C2008 C2007 1.370 . S
C2008 C2009 1.438 . S
C2008 H2070 0.930 . S
C2009 C1995 1.497 . S
C2009 C2008 1.438 . S
C2009 C2010 1.360 . S
C2010 C2009 1.360 . S
C2010 C2011 1.401 . S
C2010 C2015 1.446 . S
C2011 C2010 1.401 . S
C2011 C2012 1.347 . S
C2011 H2071 0.929 . S
C2012 C2011 1.347 . S
C2012 C2013 1.455 . S
C2012 H2072 0.930 . S
C2013 C2000 1.412 . S
C2013 C2012 1.455 . S
C2013 C2014 1.331 . S
C2014 C2003 1.451 . S
C2014 C2013 1.331 . S
C2014 C2015 1.497 . S
C2015 C2006 1.395 . S
C2015 C2010 1.446 . S
C2015 C2014 1.497 . S
C2016 C2017 1.582 . S
C2016 H2073 0.962 . S
C2016 H2074 0.959 . S
C2016 H2075 0.958 . S
C2017 C2016 1.582 . S
C2017 O2020 1.458 . S
C2017 H2046 0.980 . S
O2018 C1963 1.426 . S
O2018 C1964 1.334 . S
O2019 C1991 1.412 . S
O2019 C1992 1.393 . S
O2020 C1982 1.435 . S
O2020 C2017 1.458 . S
O2021 C1973 1.468 . S
O2021 C1974 1.408 . S
H2022 C1963 0.980 . S
H2023 C1962 0.959 . S
H2024 C1962 0.959 . S
H2025 C1962 0.960 . S
H2026 C1965 0.929 . S
H2027 C1969 0.929 . S
H2028 C1970 0.959 . S
H2029 C1970 0.961 . S
H2030 C1970 0.961 . S
H2031 C1971 0.960 . S
H2032 C1971 0.960 . S
H2033 C1971 0.961 . S
H2034 C1973 0.980 . S
H2035 C1972 0.961 . S
H2036 C1972 0.960 . S
H2037 C1972 0.959 . S
H2038 C1975 0.930 . S
H2039 C1979 0.931 . S
H2040 C1980 0.959 . S
H2041 C1980 0.961 . S
H2042 C1980 0.959 . S
H2043 C1981 0.960 . S
H2044 C1981 0.960 . S
H2045 C1981 0.960 . S
H2046 C2017 0.980 . S
H2047 C1983 0.930 . S
H2048 C1987 0.930 . S
H2049 C1988 0.961 . S
H2050 C1988 0.960 . S
H2051 C1988 0.958 . S
H2052 C1989 0.961 . S
H2053 C1989 0.960 . S
H2054 C1989 0.960 . S
H2055 C1991 0.980 . S
H2056 C1990 0.961 . S
H2057 C1990 0.961 . S
H2058 C1990 0.959 . S
H2059 C1993 0.932 . S
H2060 C1997 0.929 . S
H2061 C1998 0.961 . S
H2062 C1998 0.959 . S
H2063 C1998 0.959 . S
H2064 C1999 0.960 . S
H2065 C1999 0.962 . S
H2066 C1999 0.961 . S
H2067 C2001 0.929 . S
H2068 C2004 0.930 . S
H2069 C2005 0.929 . S
H2070 C2008 0.930 . S
H2071 C2011 0.929 . S
H2072 C2012 0.930 . S
H2073 C2016 0.962 . S
H2074 C2016 0.959 . S
H2075 C2016 0.958 . S
C2076 C2077 1.560 . S
C2076 H2137 0.959 . S
C2076 H2138 0.959 . S
C2076 H2139 0.960 . S
C2077 C2076 1.560 . S
C2077 O2132 1.426 . S
C2077 H2136 0.980 . S
C2078 C2079 1.407 . S
C2078 C2083 1.418 . S
C2078 O2132 1.334 . S
C2079 C2078 1.407 . S
C2079 C2080 1.360 . S
C2079 H2140 0.929 . S
C2080 C2079 1.360 . S
C2080 C2081 1.401 . S
C2080 C2084 1.527 . S
C2081 C2080 1.401 . S
C2081 C2082 1.405 . S
C2081 C2114 1.587 . S
C2082 C2081 1.405 . S
C2082 C2083 1.332 . S
C2082 C2085 1.496 . S
C2083 C2078 1.418 . S
C2083 C2082 1.332 . S
C2083 H2141 0.929 . S
C2084 C2080 1.527 . S
C2084 H2142 0.959 . S
C2084 H2143 0.961 . S
C2084 H2144 0.961 . S
C2085 C2082 1.496 . S
C2085 H2145 0.960 . S
C2085 H2146 0.960 . S
C2085 H2147 0.961 . S
C2086 C2087 1.517 . S
C2086 H2149 0.961 . S
C2086 H2150 0.960 . S
C2086 H2151 0.959 . S
C2087 C2086 1.517 . S
C2087 O2135 1.468 . S
C2087 H2148 0.980 . S
C2088 C2089 1.349 . S
C2088 C2093 1.367 . S
C2088 O2135 1.408 . S
C2089 C2088 1.349 . S
C2089 C2090 1.407 . S
C2089 H2152 0.930 . S
C2090 C2089 1.407 . S
C2090 C2091 1.449 . S
C2090 C2094 1.535 . S
C2091 C2090 1.449 . S
C2091 C2092 1.384 . S
C2091 C2116 1.553 . S
C2092 C2091 1.384 . S
C2092 C2093 1.364 . S
C2092 C2095 1.450 . S
C2093 C2088 1.367 . S
C2093 C2092 1.364 . S
C2093 H2153 0.931 . S
C2094 C2090 1.535 . S
C2094 H2154 0.959 . S
C2094 H2155 0.961 . S
C2094 H2156 0.959 . S
C2095 C2092 1.450 . S
C2095 H2157 0.960 . S
C2095 H2158 0.960 . S
C2095 H2159 0.960 . S
C2096 C2097 1.309 . S
C2096 C2101 1.304 . S
C2096 O2134 1.435 . S
C2097 C2096 1.309 . S
C2097 C2098 1.476 . S
C2097 H2161 0.930 . S
C2098 C2097 1.476 . S
C2098 C2099 1.400 . S
C2098 C2102 1.567 . S
C2099 C2098 1.400 . S
C2099 C2100 1.373 . S
C2099 C2121 1.432 . S
C2100 C2099 1.373 . S
C2100 C2101 1.339 . S
C2100 C2103 1.530 . S
C2101 C2096 1.304 . S
C2101 C2100 1.339 . S
C2101 H2162 0.930 . S
C2102 C2098 1.567 . S
C2102 H2163 0.961 . S
C2102 H2164 0.960 . S
C2102 H2165 0.958 . S
C2103 C2100 1.530 . S
C2103 H2166 0.961 . S
C2103 H2167 0.960 . S
C2103 H2168 0.960 . S
C2104 C2105 1.530 . S
C2104 H2170 0.961 . S
C2104 H2171 0.961 . S
C2104 H2172 0.959 . S
C2105 C2104 1.530 . S
C2105 O2133 1.412 . S
C2105 H2169 0.980 . S
C2106 C2107 1.288 . S
C2106 C2111 1.377 . S
C2106 O2133 1.393 . S
C2107 C2106 1.288 . S
C2107 C2108 1.369 . S
C2107 H2173 0.932 . S
C2108 C2107 1.369 . S
C2108 C2109 1.398 . S
C2108 C2112 1.527 . S
C2109 C2108 1.398 . S
C2109 C2110 1.380 . S
C2109 C2123 1.497 . S
C2110 C2109 1.380 . S
C2110 C2111 1.383 . S
C2110 C2113 1.603 . S
C2111 C2106 1.377 . S
C2111 C2110 1.383 . S
C2111 H2174 0.929 . S
C2112 C2108 1.527 . S
C2112 H2175 0.961 . S
C2112 H2176 0.959 . S
C2112 H2177 0.959 . S
C2113 C2110 1.603 . S
C2113 H2178 0.960 . S
C2113 H2179 0.962 . S
C2113 H2180 0.961 . S
C2114 C2081 1.587 . S
C2114 C2115 1.360 . S
C2114 C2127 1.412 . S
C2115 C2114 1.360 . S
C2115 C2116 1.365 . S
C2115 H2181 0.929 . S
C2116 C2091 1.553 . S
C2116 C2115 1.365 . S
C2116 C2117 1.404 . S
C2117 C2116 1.404 . S
C2117 C2118 1.395 . S
C2117 C2128 1.451 . S
C2118 C2117 1.395 . S
C2118 C2119 1.322 . S
C2118 H2182 0.930 . S
C2119 C2118 1.322 . S
C2119 C2120 1.459 . S
C2119 H2183 0.929 . S
C2120 C2119 1.459 . S
C2120 C2121 1.445 . S
C2120 C2129 1.395 . S
C2121 C2099 1.432 . S
C2121 C2120 1.445 . S
C2121 C2122 1.370 . S
C2122 C2121 1.370 . S
C2122 C2123 1.438 . S
C2122 H2184 0.930 . S
C2123 C2109 1.497 . S
C2123 C2122 1.438 . S
C2123 C2124 1.360 . S
C2124 C2123 1.360 . S
C2124 C2125 1.401 . S
C2124 C2129 1.446 . S
C2125 C2124 1.401 . S
C2125 C2126 1.347 . S
C2125 H2185 0.929 . S
C2126 C2125 1.347 . S
C2126 C2127 1.455 . S
C2126 H2186 0.930 . S
C2127 C2114 1.412 . S
C2127 C2126 1.455 . S
C2127 C2128 1.331 . S
C2128 C2117 1.451 . S
C2128 C2127 1.331 . S
C2128 C2129 1.497 . S
C2129 C2120 1.395 . S
C2129 C2124 1.446 . S
C2129 C2128 1.497 . S
C2130 C2131 1.582 . S
C2130 H2187 0.962 . S
C2130 H2188 0.959 . S
C2130 H2189 0.958 . S
C2131 C2130 1.582 . S
C2131 O2134 1.458 . S
C2131 H2160 0.980 . S
O2132 C2077 1.426 . S
O2132 C2078 1.334 . S
O2133 C2105 1.412 . S
O2133 C2106 1.393 . S
O2134 C2096 1.435 . S
O2134 C2131 1.458 . S
O2135 C2087 1.468 . S
O2135 C2088 1.408 . S
H2136 C2077 0.980 . S
H2137 C2076 0.959 . S
H2138 C2076 0.959 . S
H2139 C2076 0.960 . S
H2140 C2079 0.929 . S
H2141 C2083 0.929 . S
H2142 C2084 0.959 . S
H2143 C2084 0.961 . S
H2144 C2084 0.961 . S
H2145 C2085 0.960 . S
H2146 C2085 0.960 . S
H2147 C2085 0.961 . S
H2148 C2087 0.980 . S
H2149 C2086 0.961 . S
H2150 C2086 0.960 . S
H2151 C2086 0.959 . S
H2152 C2089 0.930 . S
H2153 C2093 0.931 . S
H2154 C2094 0.959 . S
H2155 C2094 0.961 . S
H2156 C2094 0.959 . S
H2157 C2095 0.960 . S
H2158 C2095 0.960 . S
H2159 C2095 0.960 . S
H2160 C2131 0.980 . S
H2161 C2097 0.930 . S
H2162 C2101 0.930 . S
H2163 C2102 0.961 . S
H2164 C2102 0.960 . S
H2165 C2102 0.958 . S
H2166 C2103 0.961 . S
H2167 C2103 0.960 . S
H2168 C2103 0.960 . S
H2169 C2105 0.980 . S
H2170 C2104 0.961 . S
H2171 C2104 0.961 . S
H2172 C2104 0.959 . S
H2173 C2107 0.932 . S
H2174 C2111 0.929 . S
H2175 C2112 0.961 . S
H2176 C2112 0.959 . S
H2177 C2112 0.959 . S
H2178 C2113 0.960 . S
H2179 C2113 0.962 . S
H2180 C2113 0.961 . S
H2181 C2115 0.929 . S
H2182 C2118 0.930 . S
H2183 C2119 0.929 . S
H2184 C2122 0.930 . S
H2185 C2125 0.929 . S
H2186 C2126 0.930 . S
H2187 C2130 0.962 . S
H2188 C2130 0.959 . S
H2189 C2130 0.958 . S
C2190 C2191 1.560 . S
C2190 H2251 0.959 . S
C2190 H2252 0.959 . S
C2190 H2253 0.960 . S
C2191 C2190 1.560 . S
C2191 O2246 1.426 . S
C2191 H2250 0.980 . S
C2192 C2193 1.407 . S
C2192 C2197 1.418 . S
C2192 O2246 1.334 . S
C2193 C2192 1.407 . S
C2193 C2194 1.360 . S
C2193 H2254 0.929 . S
C2194 C2193 1.360 . S
C2194 C2195 1.401 . S
C2194 C2198 1.527 . S
C2195 C2194 1.401 . S
C2195 C2196 1.405 . S
C2195 C2228 1.587 . S
C2196 C2195 1.405 . S
C2196 C2197 1.332 . S
C2196 C2199 1.496 . S
C2197 C2192 1.418 . S
C2197 C2196 1.332 . S
C2197 H2255 0.929 . S
C2198 C2194 1.527 . S
C2198 H2256 0.959 . S
C2198 H2257 0.961 . S
C2198 H2258 0.961 . S
C2199 C2196 1.496 . S
C2199 H2259 0.960 . S
C2199 H2260 0.960 . S
C2199 H2261 0.961 . S
C2200 C2201 1.517 . S
C2200 H2263 0.961 . S
C2200 H2264 0.960 . S
C2200 H2265 0.959 . S
C2201 C2200 1.517 . S
C2201 O2249 1.468 . S
C2201 H2262 0.980 . S
C2202 C2203 1.349 . S
C2202 C2207 1.367 . S
C2202 O2249 1.408 . S
C2203 C2202 1.349 . S
C2203 C2204 1.407 . S
C2203 H2266 0.930 . S
C2204 C2203 1.407 . S
C2204 C2205 1.449 . S
C2204 C2208 1.535 . S
C2205 C2204 1.449 . S
C2205 C2206 1.384 . S
C2205 C2230 1.553 . S
C2206 C2205 1.384 . S
C2206 C2207 1.364 . S
C2206 C2209 1.450 . S
C2207 C2202 1.367 . S
C2207 C2206 1.364 . S
C2207 H2267 0.931 . S
C2208 C2204 1.535 . S
C2208 H2268 0.959 . S
C2208 H2269 0.961 . S
C2208 H2270 0.959 . S
C2209 C2206 1.450 . S
C2209 H2271 0.960 . S
C2209 H2272 0.960 . S
C2209 H2273 0.960 . S
C2210 C2211 1.309 . S
C2210 C2215 1.304 . S
C2210 O2248 1.435 . S
C2211 C2210 1.309 . S
C2211 C2212 1.476 . S
C2211 H2275 0.930 . S
C2212 C2211 1.476 . S
C2212 C2213 1.400 . S
C2212 C2216 1.567 . S
C2213 C2212 1.400 . S
C2213 C2214 1.373 . S
C2213 C2235 1.432 . S
C2214 C2213 1.373 . S
C2214 C2215 1.339 . S
C2214 C2217 1.530 . S
C2215 C2210 1.304 . S
C2215 C2214 1.339 . S
C2215 H2276 0.930 . S
C2216 C2212 1.567 . S
C2216 H2277 0.961 . S
C2216 H2278 0.960 . S
C2216 H2279 0.958 . S
C2217 C2214 1.530 . S
C2217 H2280 0.961 . S
C2217 H2281 0.960 . S
C2217 H2282 0.960 . S
C2218 C2219 1.530 . S
C2218 H2284 0.961 . S
C2218 H2285 0.961 . S
C2218 H2286 0.959 . S
C2219 C2218 1.530 . S
C2219 O2247 1.412 . S
C2219 H2283 0.980 . S
C2220 C2221 1.288 . S
C2220 C2225 1.377 . S
C2220 O2247 1.393 . S
C2221 C2220 1.288 . S
C2221 C2222 1.369 . S
C2221 H2287 0.932 . S
C2222 C2221 1.369 . S
C2222 C2223 1.398 . S
C2222 C2226 1.527 . S
C2223 C2222 1.398 . S
C2223 C2224 1.380 . S
C2223 C2237 1.497 . S
C2224 C2223 1.380 . S
C2224 C2225 1.383 . S
C2224 C2227 1.603 . S
C2225 C2220 1.377 . S
C2225 C2224 1.383 . S
C2225 H2288 0.929 . S
C2226 C2222 1.527 . S
C2226 H2289 0.961 . S
C2226 H2290 0.959 . S
C2226 H2291 0.959 . S
C2227 C2224 1.603 . S
C2227 H2292 0.960 . S
C2227 H2293 0.962 . S
C2227 H2294 0.961 . S
C2228 C2195 1.587 . S
C2228 C2229 1.360 . S
C2228 C2241 1.412 . S
C2229 C2228 1.360 . S
C2229 C2230 1.365 . S
C2229 H2295 0.929 . S
C2230 C2205 1.553 . S
C2230 C2229 1.365 . S
C2230 C2231 1.404 . S
C2231 C2230 1.404 . S
C2231 C2232 1.395 . S
C2231 C2242 1.451 . S
C2232 C2231 1.395 . S
C2232 C2233 1.322 . S
C2232 H2296 0.930 . S
C2233 C2232 1.322 . S
C2233 C2234 1.459 . S
C2233 H2297 0.929 . S
C2234 C2233 1.459 . S
C2234 C2235 1.445 . S
C2234 C2243 1.395 . S
C2235 C2213 1.432 . S
C2235 C2234 1.445 . S
C2235 C2236 1.370 . S
C2236 C2235 1.370 . S
C2236 C2237 1.438 . S
C2236 H2298 0.930 . S
C2237 C2223 1.497 . S
C2237 C2236 1.438 . S
C2237 C2238 1.360 . S
C2238 C2237 1.360 . S
C2238 C2239 1.401 . S
C2238 C2243 1.446 . S
C2239 C2238 1.401 . S
C2239 C2240 1.347 . S
C2239 H2299 0.929 . S
C2240 C2239 1.347 . S
C2240 C2241 1.455 . S
C2240 H2300 0.930 . S
C2241 C2228 1.412 . S
C2241 C2240 1.455 . S
C2241 C2242 1.331 . S
C2242 C2231 1.451 . S
C2242 C2241 1.331 . S
C2242 C2243 1.497 . S
C2243 C2234 1.395 . S
C2243 C2238 1.446 . S
C2243 C2242 1.497 . S
C2244 C2245 1.582 . S
C2244 H2301 0.962 . S
C2244 H2302 0.959 . S
C2244 H2303 0.958 . S
C2245 C2244 1.582 . S
C2245 O2248 1.458 . S
C2245 H2274 0.980 . S
O2246 C2191 1.426 . S
O2246 C2192 1.334 . S
O2247 C2219 1.412 . S
O2247 C2220 1.393 . S
O2248 C2210 1.435 . S
O2248 C2245 1.458 . S
O2249 C2201 1.468 . S
O2249 C2202 1.408 . S
H2250 C2191 0.980 . S
H2251 C2190 0.959 . S
H2252 C2190 0.959 . S
H2253 C2190 0.960 . S
H2254 C2193 0.929 . S
H2255 C2197 0.929 . S
H2256 C2198 0.959 . S
H2257 C2198 0.961 . S
H2258 C2198 0.961 . S
H2259 C2199 0.960 . S
H2260 C2199 0.960 . S
H2261 C2199 0.961 . S
H2262 C2201 0.980 . S
H2263 C2200 0.961 . S
H2264 C2200 0.960 . S
H2265 C2200 0.959 . S
H2266 C2203 0.930 . S
H2267 C2207 0.931 . S
H2268 C2208 0.959 . S
H2269 C2208 0.961 . S
H2270 C2208 0.959 . S
H2271 C2209 0.960 . S
H2272 C2209 0.960 . S
H2273 C2209 0.960 . S
H2274 C2245 0.980 . S
H2275 C2211 0.930 . S
H2276 C2215 0.930 . S
H2277 C2216 0.961 . S
H2278 C2216 0.960 . S
H2279 C2216 0.958 . S
H2280 C2217 0.961 . S
H2281 C2217 0.960 . S
H2282 C2217 0.960 . S
H2283 C2219 0.980 . S
H2284 C2218 0.961 . S
H2285 C2218 0.961 . S
H2286 C2218 0.959 . S
H2287 C2221 0.932 . S
H2288 C2225 0.929 . S
H2289 C2226 0.961 . S
H2290 C2226 0.959 . S
H2291 C2226 0.959 . S
H2292 C2227 0.960 . S
H2293 C2227 0.962 . S
H2294 C2227 0.961 . S
H2295 C2229 0.929 . S
H2296 C2232 0.930 . S
H2297 C2233 0.929 . S
H2298 C2236 0.930 . S
H2299 C2239 0.929 . S
H2300 C2240 0.930 . S
H2301 C2244 0.962 . S
H2302 C2244 0.959 . S
H2303 C2244 0.958 . S
C2304 C2305 1.387 . S
C2304 H2308 0.950 . S
C2304 C2313 1.390 . S
C2305 C2304 1.387 . S
C2305 C2307 1.387 . S
H2306 C2313 0.950 . S
C2307 C2305 1.387 . S
C2307 C2309 1.390 . S
C2307 H2311 0.950 . S
H2308 C2304 0.950 . S
C2309 C2307 1.390 . S
C2309 C2310 1.387 . S
C2309 H2312 0.950 . S
C2310 C2309 1.387 . S
C2310 C2313 1.387 . S
H2311 C2307 0.950 . S
H2312 C2309 0.950 . S
C2313 C2304 1.390 . S
C2313 H2306 0.950 . S
C2313 C2310 1.387 . S
C2314 C2315 1.387 . S
C2314 H2318 0.950 . S
C2314 C2323 1.390 . S
C2315 C2314 1.387 . S
C2315 C2317 1.387 . S
H2316 C2323 0.950 . S
C2317 C2315 1.387 . S
C2317 C2319 1.390 . S
C2317 H2321 0.950 . S
H2318 C2314 0.950 . S
C2319 C2317 1.390 . S
C2319 C2320 1.387 . S
C2319 H2322 0.950 . S
C2320 C2319 1.387 . S
C2320 C2323 1.387 . S
H2321 C2317 0.950 . S
H2322 C2319 0.950 . S
C2323 C2314 1.390 . S
C2323 H2316 0.950 . S
C2323 C2320 1.387 . S
C2324 C2325 1.387 . S
C2324 H2328 0.950 . S
C2324 C2333 1.390 . S
C2325 C2324 1.387 . S
C2325 C2327 1.405 . S
H2326 C2333 0.950 . S
C2327 C2325 1.405 . S
C2327 C2329 1.381 1_545 S
C2327 H2331 0.942 1_545 S
H2328 C2324 0.950 . S
C2329 C2327 1.381 1_565 S
C2329 C2330 1.387 1_565 S
C2329 H2332 0.950 . S
C2330 C2329 1.387 1_545 S
C2330 C2333 1.387 . S
H2331 C2327 0.942 1_565 S
H2332 C2329 0.950 . S
C2333 C2324 1.390 . S
C2333 H2326 0.950 . S
C2333 C2330 1.387 . S
C2334 C2335 1.387 . S
C2334 H2338 0.950 . S
C2334 C2343 1.390 . S
C2335 C2334 1.387 . S
C2335 C2337 1.387 1_565 S
H2336 C2343 0.950 . S
C2337 C2335 1.387 1_545 S
C2337 C2339 1.390 . S
C2337 H2341 0.950 . S
H2338 C2334 0.950 . S
C2339 C2337 1.390 . S
C2339 C2340 1.387 1_545 S
C2339 H2342 0.950 . S
C2340 C2339 1.387 1_565 S
C2340 C2343 1.387 . S
H2341 C2337 0.950 . S
H2342 C2339 0.950 . S
C2343 C2334 1.390 . S
C2343 H2336 0.950 . S
C2343 C2340 1.387 . S
C2344 C2345 1.387 . S
C2344 H2348 0.951 . S
C2344 C2353 1.390 . S
C2345 C2344 1.387 . S
C2345 C2347 1.387 . S
H2346 C2353 0.950 1_655 S
C2347 C2345 1.387 . S
C2347 C2349 1.390 . S
C2347 H2351 0.950 . S
H2348 C2344 0.951 . S
C2349 C2347 1.390 . S
C2349 C2350 1.387 . S
C2349 H2352 0.950 . S
C2350 C2349 1.387 . S
C2350 C2353 1.387 . S
H2351 C2347 0.950 . S
H2352 C2349 0.950 . S
C2353 C2344 1.390 . S
C2353 H2346 0.950 1_455 S
C2353 C2350 1.387 . S
C2354 C2355 1.387 . S
C2354 H2358 0.950 . S
C2354 C2363 1.390 . S
C2355 C2354 1.387 . S
C2355 C2357 1.387 . S
H2356 C2363 0.950 . S
C2357 C2355 1.387 . S
C2357 C2359 1.390 . S
C2357 H2361 0.950 . S
H2358 C2354 0.950 . S
C2359 C2357 1.390 . S
C2359 C2360 1.387 . S
C2359 H2362 0.950 . S
C2360 C2359 1.387 . S
C2360 C2363 1.387 . S
H2361 C2357 0.950 . S
H2362 C2359 0.950 . S
C2363 C2354 1.390 . S
C2363 H2356 0.950 . S
C2363 C2360 1.387 . S
C2364 C2365 1.387 . S
C2364 H2368 0.950 . S
C2364 C2373 1.390 . S
C2365 C2364 1.387 . S
C2365 C2367 1.387 1_455 S
H2366 C2373 0.950 . S
C2367 C2365 1.387 1_655 S
C2367 C2369 1.390 . S
C2367 H2371 0.950 . S
H2368 C2364 0.950 . S
C2369 C2367 1.390 . S
C2369 C2370 1.387 1_655 S
C2369 H2372 0.950 . S
C2370 C2369 1.387 1_455 S
C2370 C2373 1.387 . S
H2371 C2367 0.950 . S
H2372 C2369 0.950 . S
C2373 C2364 1.390 . S
C2373 H2366 0.950 . S
C2373 C2370 1.387 . S
C2374 C2375 1.387 . S
C2374 H2378 0.950 . S
C2374 C2383 1.390 . S
C2375 C2374 1.387 . S
C2375 C2377 1.387 . S
H2376 C2383 0.950 . S
C2377 C2375 1.387 . S
C2377 C2379 1.390 . S
C2377 H2381 0.950 . S
H2378 C2374 0.950 . S
C2379 C2377 1.390 . S
C2379 C2380 1.387 . S
C2379 H2382 0.950 . S
C2380 C2379 1.387 . S
C2380 C2383 1.387 . S
H2381 C2377 0.950 . S
H2382 C2379 0.950 . S
C2383 C2374 1.390 . S
C2383 H2376 0.950 . S
C2383 C2380 1.387 . S
C2384 C2385 1.387 1_545 S
C2384 H2388 0.950 . S
C2384 C2393 1.390 . S
C2385 C2384 1.387 1_565 S
C2385 C2387 1.387 . S
H2386 C2393 0.950 . S
C2387 C2385 1.387 . S
C2387 C2389 1.390 . S
C2387 H2391 0.950 . S
H2388 C2384 0.950 . S
C2389 C2387 1.390 . S
C2389 C2390 1.387 . S
C2389 H2392 0.950 . S
C2390 C2389 1.387 . S
C2390 C2393 1.387 1_565 S
H2391 C2387 0.950 . S
H2392 C2389 0.950 . S
C2393 C2384 1.390 . S
C2393 H2386 0.950 . S
C2393 C2390 1.387 1_545 S
C2394 C2395 1.387 . S
C2394 H2398 0.950 . S
C2394 C2403 1.390 . S
C2395 C2394 1.387 . S
C2395 C2397 1.387 1_545 S
H2396 C2403 0.950 . S
C2397 C2395 1.387 1_565 S
C2397 C2399 1.390 . S
C2397 H2401 0.950 . S
H2398 C2394 0.950 . S
C2399 C2397 1.390 . S
C2399 C2400 1.387 1_565 S
C2399 H2402 0.950 . S
C2400 C2399 1.387 1_545 S
C2400 C2403 1.387 . S
H2401 C2397 0.950 . S
H2402 C2399 0.950 . S
C2403 C2394 1.390 . S
C2403 H2396 0.950 . S
C2403 C2400 1.387 . S
C2404 C2405 1.387 . S
C2404 H2408 0.950 1_655 S
C2404 C2413 1.390 1_655 S
C2405 C2404 1.387 . S
C2405 C2407 1.387 . S
H2406 C2413 0.950 . S
C2407 C2405 1.387 . S
C2407 C2409 1.390 . S
C2407 H2411 0.950 . S
H2408 C2404 0.950 1_455 S
C2409 C2407 1.390 . S
C2409 C2410 1.387 . S
C2409 H2412 0.950 . S
C2410 C2409 1.387 . S
C2410 C2413 1.387 1_655 S
H2411 C2407 0.950 . S
H2412 C2409 0.950 . S
C2413 C2404 1.390 1_455 S
C2413 H2406 0.950 . S
C2413 C2410 1.387 1_455 S
C2414 C2415 1.387 . S
C2414 H2418 0.950 . S
C2414 C2423 1.390 . S
C2415 C2414 1.387 . S
C2415 C2417 1.387 . S
H2416 C2423 0.950 . S
C2417 C2415 1.387 . S
C2417 C2419 1.390 . S
C2417 H2421 0.950 . S
H2418 C2414 0.950 . S
C2419 C2417 1.390 . S
C2419 C2420 1.387 . S
C2419 H2422 0.950 . S
C2420 C2419 1.387 . S
C2420 C2423 1.387 . S
H2421 C2417 0.950 . S
H2422 C2419 0.950 . S
C2423 C2414 1.390 . S
C2423 H2416 0.950 . S
C2423 C2420 1.387 . S
C2424 C2425 1.387 . S
C2424 H2428 0.950 . S
C2424 C2433 1.390 . S
C2425 C2424 1.387 . S
C2425 C2427 1.387 . S
H2426 C2433 0.950 . S
C2427 C2425 1.387 . S
C2427 C2429 1.390 . S
C2427 H2431 0.950 . S
H2428 C2424 0.950 . S
C2429 C2427 1.390 . S
C2429 C2430 1.387 . S
C2429 H2432 0.950 . S
C2430 C2429 1.387 . S
C2430 C2433 1.387 . S
H2431 C2427 0.950 . S
H2432 C2429 0.950 . S
C2433 C2424 1.390 . S
C2433 H2426 0.950 . S
C2433 C2430 1.387 . S
C2434 C2435 1.387 . S
C2434 H2438 0.950 . S
C2434 C2443 1.390 . S
C2435 C2434 1.387 . S
C2435 C2437 1.387 . S
H2436 C2443 0.950 . S
C2437 C2435 1.387 . S
C2437 C2439 1.390 . S
C2437 H2441 0.950 . S
H2438 C2434 0.950 . S
C2439 C2437 1.390 . S
C2439 C2440 1.387 . S
C2439 H2442 0.950 . S
C2440 C2439 1.387 . S
C2440 C2443 1.387 . S
H2441 C2437 0.950 . S
H2442 C2439 0.950 . S
C2443 C2434 1.390 . S
C2443 H2436 0.950 . S
C2443 C2440 1.387 . S
C2444 C2445 1.387 . S
C2444 H2448 0.950 . S
C2444 C2453 1.390 . S
C2445 C2444 1.387 . S
C2445 C2447 1.387 . S
H2446 C2453 0.950 . S
C2447 C2445 1.387 . S
C2447 C2449 1.390 . S
C2447 H2451 0.950 . S
H2448 C2444 0.950 . S
C2449 C2447 1.390 . S
C2449 C2450 1.387 . S
C2449 H2452 0.950 . S
C2450 C2449 1.387 . S
C2450 C2453 1.387 . S
H2451 C2447 0.950 . S
H2452 C2449 0.950 . S
C2453 C2444 1.390 . S
C2453 H2446 0.950 . S
C2453 C2450 1.387 . S
C2454 C2455 1.387 . S
C2454 H2458 0.950 . S
C2454 C2463 1.390 . S
C2455 C2454 1.387 . S
C2455 C2457 1.387 . S
H2456 C2463 0.950 . S
C2457 C2455 1.387 . S
C2457 C2459 1.390 . S
C2457 H2461 0.950 . S
H2458 C2454 0.950 . S
C2459 C2457 1.390 . S
C2459 C2460 1.387 . S
C2459 H2462 0.950 . S
C2460 C2459 1.387 . S
C2460 C2463 1.387 . S
H2461 C2457 0.950 . S
H2462 C2459 0.950 . S
C2463 C2454 1.390 . S
C2463 H2456 0.950 . S
C2463 C2460 1.387 . S
C2464 C2465 1.387 . S
C2464 H2468 0.950 . S
C2464 C2473 1.390 . S
C2465 C2464 1.387 . S
C2465 C2467 1.387 . S
H2466 C2473 0.950 . S
C2467 C2465 1.387 . S
C2467 C2469 1.390 . S
C2467 H2471 0.950 . S
H2468 C2464 0.950 . S
C2469 C2467 1.390 . S
C2469 C2470 1.387 . S
C2469 H2472 0.950 . S
C2470 C2469 1.387 . S
C2470 C2473 1.387 . S
H2471 C2467 0.950 . S
H2472 C2469 0.950 . S
C2473 C2464 1.390 . S
C2473 H2466 0.950 . S
C2473 C2470 1.387 . S
C2474 C2475 1.387 . S
C2474 H2478 0.950 . S
C2474 C2483 1.390 . S
C2475 C2474 1.387 . S
C2475 C2477 1.387 . S
H2476 C2483 0.950 . S
C2477 C2475 1.387 . S
C2477 C2479 1.390 . S
C2477 H2481 0.950 . S
H2478 C2474 0.950 . S
C2479 C2477 1.390 . S
C2479 C2480 1.387 . S
C2479 H2482 0.950 . S
C2480 C2479 1.387 . S
C2480 C2483 1.387 . S
H2481 C2477 0.950 . S
H2482 C2479 0.950 . S
C2483 C2474 1.390 . S
C2483 H2476 0.950 . S
C2483 C2480 1.387 . S
C2484 C2485 1.387 . S
C2484 H2488 0.950 . S
C2484 C2493 1.390 . S
C2485 C2484 1.387 . S
C2485 C2487 1.387 . S
H2486 C2493 0.950 . S
C2487 C2485 1.387 . S
C2487 C2489 1.390 . S
C2487 H2491 0.950 . S
H2488 C2484 0.950 . S
C2489 C2487 1.390 . S
C2489 C2490 1.387 . S
C2489 H2492 0.950 . S
C2490 C2489 1.387 . S
C2490 C2493 1.387 . S
H2491 C2487 0.950 . S
H2492 C2489 0.950 . S
C2493 C2484 1.390 . S
C2493 H2486 0.950 . S
C2493 C2490 1.387 . S
C2494 C2495 1.387 . S
C2494 H2498 0.950 . S
C2494 C2503 1.390 . S
C2495 C2494 1.387 . S
C2495 C2497 1.387 . S
H2496 C2503 0.950 . S
C2497 C2495 1.387 . S
C2497 C2499 1.390 . S
C2497 H2501 0.950 . S
H2498 C2494 0.950 . S
C2499 C2497 1.390 . S
C2499 C2500 1.387 . S
C2499 H2502 0.950 . S
C2500 C2499 1.387 . S
C2500 C2503 1.387 . S
H2501 C2497 0.950 . S
H2502 C2499 0.950 . S
C2503 C2494 1.390 . S
C2503 H2496 0.950 . S
C2503 C2500 1.387 . S
C2504 C2505 1.387 . S
C2504 H2508 0.950 . S
C2504 C2513 1.390 . S
C2505 C2504 1.387 . S
C2505 C2507 1.387 . S
H2506 C2513 0.950 . S
C2507 C2505 1.387 . S
C2507 C2509 1.390 . S
C2507 H2511 0.950 . S
H2508 C2504 0.950 . S
C2509 C2507 1.390 . S
C2509 C2510 1.387 . S
C2509 H2512 0.950 . S
C2510 C2509 1.387 . S
C2510 C2513 1.387 . S
H2511 C2507 0.950 . S
H2512 C2509 0.950 . S
C2513 C2504 1.390 . S
C2513 H2506 0.950 . S
C2513 C2510 1.387 . S
C2514 C2515 1.387 . S
C2514 H2518 0.950 . S
C2514 C2523 1.390 . S
C2515 C2514 1.387 . S
C2515 C2517 1.387 . S
H2516 C2523 0.950 . S
C2517 C2515 1.387 . S
C2517 C2519 1.390 . S
C2517 H2521 0.950 . S
H2518 C2514 0.950 . S
C2519 C2517 1.390 . S
C2519 C2520 1.387 . S
C2519 H2522 0.950 . S
C2520 C2519 1.387 . S
C2520 C2523 1.387 . S
H2521 C2517 0.950 . S
H2522 C2519 0.950 . S
C2523 C2514 1.390 . S
C2523 H2516 0.950 . S
C2523 C2520 1.387 . S
C2524 C2525 1.387 . S
C2524 H2528 0.950 . S
C2524 C2533 1.390 . S
C2525 C2524 1.387 . S
C2525 C2527 1.387 . S
H2526 C2533 0.950 . S
C2527 C2525 1.387 . S
C2527 C2529 1.390 . S
C2527 H2531 0.950 . S
H2528 C2524 0.950 . S
C2529 C2527 1.390 . S
C2529 C2530 1.387 . S
C2529 H2532 0.950 . S
C2530 C2529 1.387 . S
C2530 C2533 1.387 . S
H2531 C2527 0.950 . S
H2532 C2529 0.950 . S
C2533 C2524 1.390 . S
C2533 H2526 0.950 . S
C2533 C2530 1.387 . S
C2534 C2535 1.387 . S
C2534 H2538 0.950 . S
C2534 C2543 1.390 . S
C2535 C2534 1.387 . S
C2535 C2537 1.387 . S
H2536 C2543 0.950 . S
C2537 C2535 1.387 . S
C2537 C2539 1.390 . S
C2537 H2541 0.950 . S
H2538 C2534 0.950 . S
C2539 C2537 1.390 . S
C2539 C2540 1.387 . S
C2539 H2542 0.950 . S
C2540 C2539 1.387 . S
C2540 C2543 1.387 . S
H2541 C2537 0.950 . S
H2542 C2539 0.950 . S
C2543 C2534 1.390 . S
C2543 H2536 0.950 . S
C2543 C2540 1.387 . S
C2544 C2545 1.387 . S
C2544 H2548 0.950 . S
C2544 C2553 1.390 . S
C2545 C2544 1.387 . S
C2545 C2547 1.387 . S
H2546 C2553 0.950 . S
C2547 C2545 1.387 . S
C2547 C2549 1.390 . S
C2547 H2551 0.950 . S
H2548 C2544 0.950 . S
C2549 C2547 1.390 . S
C2549 C2550 1.387 . S
C2549 H2552 0.950 . S
C2550 C2549 1.387 . S
C2550 C2553 1.387 . S
H2551 C2547 0.950 . S
H2552 C2549 0.950 . S
C2553 C2544 1.390 . S
C2553 H2546 0.950 . S
C2553 C2550 1.387 . S
C2554 C2555 1.387 . S
C2554 H2558 0.950 . S
C2554 C2563 1.390 . S
C2555 C2554 1.387 . S
C2555 C2557 1.387 . S
H2556 C2563 0.950 . S
C2557 C2555 1.387 . S
C2557 C2559 1.390 . S
C2557 H2561 0.950 . S
H2558 C2554 0.950 . S
C2559 C2557 1.390 . S
C2559 C2560 1.387 . S
C2559 H2562 0.950 . S
C2560 C2559 1.387 . S
C2560 C2563 1.387 . S
H2561 C2557 0.950 . S
H2562 C2559 0.950 . S
C2563 C2554 1.390 . S
C2563 H2556 0.950 . S
C2563 C2560 1.387 . S
C2564 C2565 1.387 . S
C2564 H2568 0.950 . S
C2564 C2573 1.390 . S
C2565 C2564 1.387 . S
C2565 C2567 1.387 . S
H2566 C2573 0.950 . S
C2567 C2565 1.387 . S
C2567 C2569 1.390 . S
C2567 H2571 0.950 . S
H2568 C2564 0.950 . S
C2569 C2567 1.390 . S
C2569 C2570 1.387 . S
C2569 H2572 0.950 . S
C2570 C2569 1.387 . S
C2570 C2573 1.387 . S
H2571 C2567 0.950 . S
H2572 C2569 0.950 . S
C2573 C2564 1.390 . S
C2573 H2566 0.950 . S
C2573 C2570 1.387 . S
C2574 C2575 1.387 . S
C2574 H2578 0.950 . S
C2574 C2583 1.390 . S
C2575 C2574 1.387 . S
C2575 C2577 1.387 . S
H2576 C2583 0.950 . S
C2577 C2575 1.387 . S
C2577 C2579 1.390 . S
C2577 H2581 0.950 . S
H2578 C2574 0.950 . S
C2579 C2577 1.390 . S
C2579 C2580 1.387 . S
C2579 H2582 0.950 . S
C2580 C2579 1.387 . S
C2580 C2583 1.387 . S
H2581 C2577 0.950 . S
H2582 C2579 0.950 . S
C2583 C2574 1.390 . S
C2583 H2576 0.950 . S
C2583 C2580 1.387 . S
C2584 C2585 1.387 . S
C2584 H2588 0.950 . S
C2584 C2593 1.390 . S
C2585 C2584 1.387 . S
C2585 C2587 1.387 . S
H2586 C2593 0.950 . S
C2587 C2585 1.387 . S
C2587 C2589 1.390 . S
C2587 H2591 0.950 . S
H2588 C2584 0.950 . S
C2589 C2587 1.390 . S
C2589 C2590 1.387 . S
C2589 H2592 0.950 . S
C2590 C2589 1.387 . S
C2590 C2593 1.387 . S
H2591 C2587 0.950 . S
H2592 C2589 0.950 . S
C2593 C2584 1.390 . S
C2593 H2586 0.950 . S
C2593 C2590 1.387 . S
C2594 C2595 1.387 . S
C2594 H2598 0.950 . S
C2594 C2603 1.390 . S
C2595 C2594 1.387 . S
C2595 C2597 1.387 . S
H2596 C2603 0.950 . S
C2597 C2595 1.387 . S
C2597 C2599 1.390 . S
C2597 H2601 0.950 . S
H2598 C2594 0.950 . S
C2599 C2597 1.390 . S
C2599 C2600 1.387 . S
C2599 H2602 0.950 . S
C2600 C2599 1.387 . S
C2600 C2603 1.387 . S
H2601 C2597 0.950 . S
H2602 C2599 0.950 . S
C2603 C2594 1.390 . S
C2603 H2596 0.950 . S
C2603 C2600 1.387 . S
C2604 C2605 1.387 . S
C2604 H2608 0.950 . S
C2604 C2613 1.390 . S
C2605 C2604 1.387 . S
C2605 C2607 1.387 . S
H2606 C2613 0.950 . S
C2607 C2605 1.387 . S
C2607 C2609 1.390 . S
C2607 H2611 0.950 . S
H2608 C2604 0.950 . S
C2609 C2607 1.390 . S
C2609 C2610 1.387 . S
C2609 H2612 0.950 . S
C2610 C2609 1.387 . S
C2610 C2613 1.387 . S
H2611 C2607 0.950 . S
H2612 C2609 0.950 . S
C2613 C2604 1.390 . S
C2613 H2606 0.950 . S
C2613 C2610 1.387 . S
C2614 C2615 1.387 . S
C2614 H2618 0.950 . S
C2614 C2623 1.390 . S
C2615 C2614 1.387 . S
C2615 C2617 1.387 . S
H2616 C2623 0.950 . S
C2617 C2615 1.387 . S
C2617 C2619 1.390 . S
C2617 H2621 0.950 . S
H2618 C2614 0.950 . S
C2619 C2617 1.390 . S
C2619 C2620 1.387 . S
C2619 H2622 0.950 . S
C2620 C2619 1.387 . S
C2620 C2623 1.387 . S
H2621 C2617 0.950 . S
H2622 C2619 0.950 . S
C2623 C2614 1.390 . S
C2623 H2616 0.950 . S
C2623 C2620 1.387 . S
C2624 C2625 1.387 . S
C2624 H2628 0.950 . S
C2624 C2633 1.390 . S
C2625 C2624 1.387 . S
C2625 C2627 1.387 . S
H2626 C2633 0.950 . S
C2627 C2625 1.387 . S
C2627 C2629 1.390 . S
C2627 H2631 0.950 . S
H2628 C2624 0.950 . S
C2629 C2627 1.390 . S
C2629 C2630 1.387 . S
C2629 H2632 0.950 . S
C2630 C2629 1.387 . S
C2630 C2633 1.387 . S
H2631 C2627 0.950 . S
H2632 C2629 0.950 . S
C2633 C2624 1.390 . S
C2633 H2626 0.950 . S
C2633 C2630 1.387 . S
C2634 C2635 1.387 . S
C2634 H2638 0.950 . S
C2634 C2643 1.390 . S
C2635 C2634 1.387 . S
C2635 C2637 1.387 . S
H2636 C2643 0.950 . S
C2637 C2635 1.387 . S
C2637 C2639 1.390 . S
C2637 H2641 0.950 . S
H2638 C2634 0.950 . S
C2639 C2637 1.390 . S
C2639 C2640 1.387 . S
C2639 H2642 0.950 . S
C2640 C2639 1.387 . S
C2640 C2643 1.387 . S
H2641 C2637 0.950 . S
H2642 C2639 0.950 . S
C2643 C2634 1.390 . S
C2643 H2636 0.950 . S
C2643 C2640 1.387 . S
C2644 C2645 1.387 . S
C2644 H2648 0.950 . S
C2644 C2653 1.390 . S
C2645 C2644 1.387 . S
C2645 C2647 1.387 . S
H2646 C2653 0.950 . S
C2647 C2645 1.387 . S
C2647 C2649 1.390 . S
C2647 H2651 0.950 . S
H2648 C2644 0.950 . S
C2649 C2647 1.390 . S
C2649 C2650 1.387 . S
C2649 H2652 0.950 . S
C2650 C2649 1.387 . S
C2650 C2653 1.387 . S
H2651 C2647 0.950 . S
H2652 C2649 0.950 . S
C2653 C2644 1.390 . S
C2653 H2646 0.950 . S
C2653 C2650 1.387 . S
C2654 C2655 1.387 . S
C2654 H2658 0.950 . S
C2654 C2663 1.390 . S
C2655 C2654 1.387 . S
C2655 C2657 1.387 . S
H2656 C2663 0.950 . S
C2657 C2655 1.387 . S
C2657 C2659 1.390 . S
C2657 H2661 0.950 . S
H2658 C2654 0.950 . S
C2659 C2657 1.390 . S
C2659 C2660 1.387 . S
C2659 H2662 0.950 . S
C2660 C2659 1.387 . S
C2660 C2663 1.387 . S
H2661 C2657 0.950 . S
H2662 C2659 0.950 . S
C2663 C2654 1.390 . S
C2663 H2656 0.950 . S
C2663 C2660 1.387 . S
C2664 C2665 1.387 . S
C2664 H2668 0.950 . S
C2664 C2673 1.390 . S
C2665 C2664 1.387 . S
C2665 C2667 1.387 . S
H2666 C2673 0.950 . S
C2667 C2665 1.387 . S
C2667 C2669 1.390 . S
C2667 H2671 0.950 . S
H2668 C2664 0.950 . S
C2669 C2667 1.390 . S
C2669 C2670 1.387 . S
C2669 H2672 0.950 . S
C2670 C2669 1.387 . S
C2670 C2673 1.387 . S
H2671 C2667 0.950 . S
H2672 C2669 0.950 . S
C2673 C2664 1.390 . S
C2673 H2666 0.950 . S
C2673 C2670 1.387 . S
C2674 C2675 1.387 . S
C2674 H2678 0.950 . S
C2674 C2683 1.390 . S
C2675 C2674 1.387 . S
C2675 C2677 1.387 . S
H2676 C2683 0.950 . S
C2677 C2675 1.387 . S
C2677 C2679 1.390 . S
C2677 H2681 0.950 . S
H2678 C2674 0.950 . S
C2679 C2677 1.390 . S
C2679 C2680 1.387 . S
C2679 H2682 0.950 . S
C2680 C2679 1.387 . S
C2680 C2683 1.387 . S
H2681 C2677 0.950 . S
H2682 C2679 0.950 . S
C2683 C2674 1.390 . S
C2683 H2676 0.950 . S
C2683 C2680 1.387 . S
C2684 C2685 1.387 . S
C2684 H2688 0.950 . S
C2684 C2693 1.390 . S
C2685 C2684 1.387 . S
C2685 C2687 1.387 . S
H2686 C2693 0.950 . S
C2687 C2685 1.387 . S
C2687 C2689 1.390 . S
C2687 H2691 0.950 . S
H2688 C2684 0.950 . S
C2689 C2687 1.390 . S
C2689 C2690 1.387 . S
C2689 H2692 0.950 . S
C2690 C2689 1.387 . S
C2690 C2693 1.387 . S
H2691 C2687 0.950 . S
H2692 C2689 0.950 . S
C2693 C2684 1.390 . S
C2693 H2686 0.950 . S
C2693 C2690 1.387 . S
C2694 C2695 1.387 . S
C2694 H2698 0.950 . S
C2694 C2703 1.390 . S
C2695 C2694 1.387 . S
C2695 C2697 1.387 . S
H2696 C2703 0.950 . S
C2697 C2695 1.387 . S
C2697 C2699 1.390 . S
C2697 H2701 0.950 . S
H2698 C2694 0.950 . S
C2699 C2697 1.390 . S
C2699 C2700 1.387 . S
C2699 H2702 0.950 . S
C2700 C2699 1.387 . S
C2700 C2703 1.387 . S
H2701 C2697 0.950 . S
H2702 C2699 0.950 . S
C2703 C2694 1.390 . S
C2703 H2696 0.950 . S
C2703 C2700 1.387 . S
C2704 C2705 1.387 . S
C2704 H2708 0.950 . S
C2704 C2713 1.390 . S
C2705 C2704 1.387 . S
C2705 C2707 1.387 . S
H2706 C2713 0.950 . S
C2707 C2705 1.387 . S
C2707 C2709 1.390 . S
C2707 H2711 0.950 1_556 S
H2708 C2704 0.950 . S
C2709 C2707 1.390 . S
C2709 C2710 1.387 . S
C2709 H2712 0.950 . S
C2710 C2709 1.387 . S
C2710 C2713 1.387 . S
H2711 C2707 0.950 1_554 S
H2712 C2709 0.950 . S
C2713 C2704 1.390 . S
C2713 H2706 0.950 . S
C2713 C2710 1.387 . S
C2714 C2715 1.387 . S
C2714 H2718 0.950 1_556 S
C2714 C2723 1.390 . S
C2715 C2714 1.387 . S
C2715 C2717 1.387 . S
H2716 C2723 0.950 . S
C2717 C2715 1.387 . S
C2717 C2719 1.390 . S
C2717 H2721 0.950 . S
H2718 C2714 0.950 1_554 S
C2719 C2717 1.390 . S
C2719 C2720 1.387 . S
C2719 H2722 0.950 . S
C2720 C2719 1.387 . S
C2720 C2723 1.387 . S
H2721 C2717 0.950 . S
H2722 C2719 0.950 . S
C2723 C2714 1.390 . S
C2723 H2716 0.950 . S
C2723 C2720 1.387 . S
C2724 C2725 1.387 . S
C2724 H2728 0.950 1_556 S
C2724 C2733 1.390 . S
C2725 C2724 1.387 . S
C2725 C2727 1.387 . S
H2726 C2733 0.950 . S
C2727 C2725 1.387 . S
C2727 C2729 1.390 . S
C2727 H2731 0.950 . S
H2728 C2724 0.950 1_554 S
C2729 C2727 1.390 . S
C2729 C2730 1.387 . S
C2729 H2732 0.950 . S
C2730 C2729 1.387 . S
C2730 C2733 1.387 . S
H2731 C2727 0.950 . S
H2732 C2729 0.950 . S
C2733 C2724 1.390 . S
C2733 H2726 0.950 . S
C2733 C2730 1.387 . S
C2734 C2735 1.387 . S
C2734 H2738 0.950 . S
C2734 C2743 1.390 . S
C2735 C2734 1.387 . S
C2735 C2737 1.387 . S
H2736 C2743 0.950 . S
C2737 C2735 1.387 . S
C2737 C2739 1.390 . S
C2737 H2741 0.950 . S
H2738 C2734 0.950 . S
C2739 C2737 1.390 . S
C2739 C2740 1.387 . S
C2739 H2742 0.950 . S
C2740 C2739 1.387 . S
C2740 C2743 1.387 . S
H2741 C2737 0.950 . S
H2742 C2739 0.950 . S
C2743 C2734 1.390 . S
C2743 H2736 0.950 . S
C2743 C2740 1.387 . S
C2744 C2745 1.387 . S
C2744 H2748 0.950 . S
C2744 C2753 1.390 . S
C2745 C2744 1.387 . S
C2745 C2747 1.387 . S
H2746 C2753 0.950 . S
C2747 C2745 1.387 . S
C2747 C2749 1.390 . S
C2747 H2751 0.923 1_556 S
H2748 C2744 0.950 . S
C2749 C2747 1.390 . S
C2749 C2750 1.387 . S
C2749 H2752 0.950 . S
C2750 C2749 1.387 . S
C2750 C2753 1.387 . S
H2751 C2747 0.923 1_554 S
H2752 C2749 0.950 . S
C2753 C2744 1.390 . S
C2753 H2746 0.950 . S
C2753 C2750 1.387 . S
C2754 C2755 1.387 . S
C2754 H2758 0.950 . S
C2754 C2763 1.390 . S
C2755 C2754 1.387 . S
C2755 C2757 1.387 . S
H2756 C2763 0.950 . S
C2757 C2755 1.387 . S
C2757 C2759 1.390 . S
C2757 H2761 0.950 . S
H2758 C2754 0.950 . S
C2759 C2757 1.390 . S
C2759 C2760 1.387 . S
C2759 H2762 0.950 . S
C2760 C2759 1.387 . S
C2760 C2763 1.387 . S
H2761 C2757 0.950 . S
H2762 C2759 0.950 . S
C2763 C2754 1.390 . S
C2763 H2756 0.950 . S
C2763 C2760 1.387 . S
C2764 C2765 1.387 . S
C2764 H2768 0.950 . S
C2764 C2773 1.390 . S
C2765 C2764 1.387 . S
C2765 C2767 1.387 . S
H2766 C2773 0.950 . S
C2767 C2765 1.387 . S
C2767 C2769 1.390 . S
C2767 H2771 0.950 . S
H2768 C2764 0.950 . S
C2769 C2767 1.390 . S
C2769 C2770 1.387 . S
C2769 H2772 0.950 . S
C2770 C2769 1.387 . S
C2770 C2773 1.387 . S
H2771 C2767 0.950 . S
H2772 C2769 0.950 . S
C2773 C2764 1.390 . S
C2773 H2766 0.950 . S
C2773 C2770 1.387 . S
C2774 C2775 1.387 . S
C2774 H2778 0.950 . S
C2774 C2783 1.390 . S
C2775 C2774 1.387 . S
C2775 C2777 1.387 . S
H2776 C2783 0.950 . S
C2777 C2775 1.387 . S
C2777 C2779 1.390 . S
C2777 H2781 0.950 . S
H2778 C2774 0.950 . S
C2779 C2777 1.390 . S
C2779 C2780 1.387 . S
C2779 H2782 0.950 . S
C2780 C2779 1.387 . S
C2780 C2783 1.387 . S
H2781 C2777 0.950 . S
H2782 C2779 0.950 . S
C2783 C2774 1.390 . S
C2783 H2776 0.950 . S
C2783 C2780 1.387 . S
C2784 C2785 1.387 . S
C2784 H2788 0.950 . S
C2784 C2793 1.390 . S
C2785 C2784 1.387 . S
C2785 C2787 1.387 . S
H2786 C2793 0.950 . S
C2787 C2785 1.387 . S
C2787 C2789 1.390 . S
C2787 H2791 0.950 . S
H2788 C2784 0.950 . S
C2789 C2787 1.390 . S
C2789 C2790 1.387 . S
C2789 H2792 0.950 . S
C2790 C2789 1.387 . S
C2790 C2793 1.387 . S
H2791 C2787 0.950 . S
H2792 C2789 0.950 . S
C2793 C2784 1.390 . S
C2793 H2786 0.950 . S
C2793 C2790 1.387 . S
C2794 C2795 1.387 . S
C2794 H2798 0.950 . S
C2794 C2803 1.390 . S
C2795 C2794 1.387 . S
C2795 C2797 1.387 . S
H2796 C2803 0.950 . S
C2797 C2795 1.387 . S
C2797 C2799 1.390 . S
C2797 H2801 0.950 . S
H2798 C2794 0.950 . S
C2799 C2797 1.390 . S
C2799 C2800 1.387 . S
C2799 H2802 0.950 . S
C2800 C2799 1.387 . S
C2800 C2803 1.387 . S
H2801 C2797 0.950 . S
H2802 C2799 0.950 . S
C2803 C2794 1.390 . S
C2803 H2796 0.950 . S
C2803 C2800 1.387 . S
C2804 C2805 1.387 . S
C2804 H2808 0.950 . S
C2804 C2813 1.390 . S
C2805 C2804 1.387 . S
C2805 C2807 1.387 . S
H2806 C2813 0.950 . S
C2807 C2805 1.387 . S
C2807 C2809 1.390 . S
C2807 H2811 0.950 . S
H2808 C2804 0.950 . S
C2809 C2807 1.390 . S
C2809 C2810 1.387 . S
C2809 H2812 0.950 . S
C2810 C2809 1.387 . S
C2810 C2813 1.387 . S
H2811 C2807 0.950 . S
H2812 C2809 0.950 . S
C2813 C2804 1.390 . S
C2813 H2806 0.950 . S
C2813 C2810 1.387 . S
C2814 C2815 1.387 . S
C2814 H2818 0.950 . S
C2814 C2823 1.390 . S
C2815 C2814 1.387 . S
C2815 C2817 1.387 . S
H2816 C2823 0.960 . S
C2817 C2815 1.387 . S
C2817 C2819 1.390 . S
C2817 H2821 0.950 . S
H2818 C2814 0.950 . S
C2819 C2817 1.390 . S
C2819 C2820 1.387 . S
C2819 H2822 0.950 . S
C2820 C2819 1.387 . S
C2820 C2823 1.387 . S
H2821 C2817 0.950 . S
H2822 C2819 0.950 . S
C2823 C2814 1.390 . S
C2823 H2816 0.960 . S
C2823 C2820 1.387 . S
C2824 C2825 1.387 . S
C2824 H2828 0.950 . S
C2824 C2833 1.390 . S
C2825 C2824 1.387 . S
C2825 C2827 1.387 . S
H2826 C2833 0.950 . S
C2827 C2825 1.387 . S
C2827 C2829 1.390 . S
C2827 H2831 0.950 . S
H2828 C2824 0.950 . S
C2829 C2827 1.390 . S
C2829 C2830 1.387 . S
C2829 H2832 0.950 . S
C2830 C2829 1.387 . S
C2830 C2833 1.387 . S
H2831 C2827 0.950 . S
H2832 C2829 0.950 . S
C2833 C2824 1.390 . S
C2833 H2826 0.950 . S
C2833 C2830 1.387 . S
C2834 C2835 1.387 . S
C2834 H2838 0.950 . S
C2834 C2843 1.390 . S
C2835 C2834 1.387 . S
C2835 C2837 1.387 1_565 S
H2836 C2843 0.950 . S
C2837 C2835 1.387 1_545 S
C2837 C2839 1.390 . S
C2837 H2841 0.950 . S
H2838 C2834 0.950 . S
C2839 C2837 1.390 . S
C2839 C2840 1.387 1_545 S
C2839 H2842 0.950 . S
C2840 C2839 1.387 1_565 S
C2840 C2843 1.387 . S
H2841 C2837 0.950 . S
H2842 C2839 0.950 . S
C2843 C2834 1.390 . S
C2843 H2836 0.950 . S
C2843 C2840 1.387 . S
C2844 C2845 1.387 . S
C2844 H2848 0.950 . S
C2844 C2853 1.390 . S
C2845 C2844 1.387 . S
C2845 C2847 1.387 1_565 S
H2846 C2853 0.950 . S
C2847 C2845 1.387 1_545 S
C2847 C2849 1.390 . S
C2847 H2851 0.950 . S
H2848 C2844 0.950 . S
C2849 C2847 1.390 . S
C2849 C2850 1.387 1_545 S
C2849 H2852 0.950 . S
C2850 C2849 1.387 1_565 S
C2850 C2853 1.387 . S
H2851 C2847 0.950 . S
H2852 C2849 0.950 . S
C2853 C2844 1.390 . S
C2853 H2846 0.950 . S
C2853 C2850 1.387 . S
C2854 C2855 1.387 1_655 S
C2854 H2858 0.950 . S
C2854 C2863 1.390 . S
C2855 C2854 1.387 1_455 S
C2855 C2857 1.387 . S
H2856 C2863 0.950 . S
C2857 C2855 1.387 . S
C2857 C2859 1.390 . S
C2857 H2861 0.950 . S
H2858 C2854 0.950 . S
C2859 C2857 1.390 . S
C2859 C2860 1.387 . S
C2859 H2862 0.950 . S
C2860 C2859 1.387 . S
C2860 C2863 1.387 1_455 S
H2861 C2857 0.950 . S
H2862 C2859 0.950 . S
C2863 C2854 1.390 . S
C2863 H2856 0.950 . S
C2863 C2860 1.387 1_655 S
C2864 C2865 1.387 . S
C2864 H2868 0.950 . S
C2864 C2873 1.390 . S
C2865 C2864 1.387 . S
C2865 C2867 1.387 . S
H2866 C2873 0.950 . S
C2867 C2865 1.387 . S
C2867 C2869 1.390 . S
C2867 H2871 0.950 . S
H2868 C2864 0.950 . S
C2869 C2867 1.390 . S
C2869 C2870 1.387 . S
C2869 H2872 0.950 . S
C2870 C2869 1.387 . S
C2870 C2873 1.387 . S
H2871 C2867 0.950 . S
H2872 C2869 0.950 . S
C2873 C2864 1.390 . S
C2873 H2866 0.950 . S
C2873 C2870 1.387 . S
C2874 C2875 1.387 . S
C2874 H2878 0.950 . S
C2874 C2883 1.390 . S
C2875 C2874 1.387 . S
C2875 C2877 1.387 . S
H2876 C2883 0.950 . S
C2877 C2875 1.387 . S
C2877 C2879 1.390 . S
C2877 H2881 0.950 . S
H2878 C2874 0.950 . S
C2879 C2877 1.390 . S
C2879 C2880 1.387 . S
C2879 H2882 0.950 . S
C2880 C2879 1.387 . S
C2880 C2883 1.387 . S
H2881 C2877 0.950 . S
H2882 C2879 0.950 . S
C2883 C2874 1.390 . S
C2883 H2876 0.950 . S
C2883 C2880 1.387 . S
C2884 C2885 1.387 . S
C2884 H2888 0.950 . S
C2884 C2893 1.390 . S
C2885 C2884 1.387 . S
C2885 C2887 1.387 . S
H2886 C2893 0.950 . S
C2887 C2885 1.387 . S
C2887 C2889 1.390 . S
C2887 H2891 0.950 . S
H2888 C2884 0.950 . S
C2889 C2887 1.390 . S
C2889 C2890 1.387 . S
C2889 H2892 0.950 . S
C2890 C2889 1.387 . S
C2890 C2893 1.387 . S
H2891 C2887 0.950 . S
H2892 C2889 0.950 . S
C2893 C2884 1.390 . S
C2893 H2886 0.950 . S
C2893 C2890 1.387 . S
C2894 C2895 1.387 . S
C2894 H2898 0.950 . S
C2894 C2903 1.390 . S
C2895 C2894 1.387 . S
C2895 C2897 1.387 . S
H2896 C2903 0.950 . S
C2897 C2895 1.387 . S
C2897 C2899 1.390 . S
C2897 H2901 0.950 . S
H2898 C2894 0.950 . S
C2899 C2897 1.390 . S
C2899 C2900 1.387 . S
C2899 H2902 0.950 . S
C2900 C2899 1.387 . S
C2900 C2903 1.387 . S
H2901 C2897 0.950 . S
H2902 C2899 0.950 . S
C2903 C2894 1.390 . S
C2903 H2896 0.950 . S
C2903 C2900 1.387 . S
C2904 C2905 1.387 . S
C2904 H2908 0.950 . S
C2904 C2913 1.390 . S
C2905 C2904 1.387 . S
C2905 C2907 1.387 . S
H2906 C2913 0.950 . S
C2907 C2905 1.387 . S
C2907 C2909 1.390 . S
C2907 H2911 0.950 . S
H2908 C2904 0.950 . S
C2909 C2907 1.390 . S
C2909 C2910 1.387 . S
C2909 H2912 0.950 1_545 S
C2910 C2909 1.387 . S
C2910 C2913 1.387 . S
H2911 C2907 0.950 . S
H2912 C2909 0.950 1_565 S
C2913 C2904 1.390 . S
C2913 H2906 0.950 . S
C2913 C2910 1.387 . S
C2914 C2915 1.387 1_455 S
C2914 H2918 0.950 . S
C2914 C2923 1.390 . S
C2915 C2914 1.387 1_655 S
C2915 C2917 1.387 . S
H2916 C2923 0.950 . S
C2917 C2915 1.387 . S
C2917 C2919 1.390 . S
C2917 H2921 0.950 . S
H2918 C2914 0.950 . S
C2919 C2917 1.390 . S
C2919 C2920 1.387 . S
C2919 H2922 0.950 . S
C2920 C2919 1.387 . S
C2920 C2923 1.387 1_655 S
H2921 C2917 0.950 . S
H2922 C2919 0.950 . S
C2923 C2914 1.390 . S
C2923 H2916 0.950 . S
C2923 C2920 1.387 1_455 S
C2924 C2925 1.387 . S
C2924 H2928 0.950 . S
C2924 C2933 1.390 . S
C2925 C2924 1.387 . S
C2925 C2927 1.387 . S
H2926 C2933 0.950 . S
C2927 C2925 1.387 . S
C2927 C2929 1.390 . S
C2927 H2931 0.950 . S
H2928 C2924 0.950 . S
C2929 C2927 1.390 . S
C2929 C2930 1.387 . S
C2929 H2932 0.950 . S
C2930 C2929 1.387 . S
C2930 C2933 1.387 . S
H2931 C2927 0.950 . S
H2932 C2929 0.950 . S
C2933 C2924 1.390 . S
C2933 H2926 0.950 . S
C2933 C2930 1.387 . S
C2934 C2935 1.387 . S
C2934 H2938 0.950 . S
C2934 C2943 1.390 . S
C2935 C2934 1.387 . S
C2935 C2937 1.387 . S
H2936 C2943 0.950 . S
C2937 C2935 1.387 . S
C2937 C2939 1.390 . S
C2937 H2941 0.950 . S
H2938 C2934 0.950 . S
C2939 C2937 1.390 . S
C2939 C2940 1.387 . S
C2939 H2942 0.950 . S
C2940 C2939 1.387 . S
C2940 C2943 1.387 . S
H2941 C2937 0.950 . S
H2942 C2939 0.950 . S
C2943 C2934 1.390 . S
C2943 H2936 0.950 . S
C2943 C2940 1.387 . S
C2944 C2945 1.387 . S
C2944 H2948 0.950 . S
C2944 C2953 1.390 . S
C2945 C2944 1.387 . S
C2945 C2947 1.387 . S
H2946 C2953 0.950 . S
C2947 C2945 1.387 . S
C2947 C2949 1.390 . S
C2947 H2951 0.950 . S
H2948 C2944 0.950 . S
C2949 C2947 1.390 . S
C2949 C2950 1.387 . S
C2949 H2952 0.950 . S
C2950 C2949 1.387 . S
C2950 C2953 1.387 . S
H2951 C2947 0.950 . S
H2952 C2949 0.950 . S
C2953 C2944 1.390 . S
C2953 H2946 0.950 . S
C2953 C2950 1.387 . S
C2954 C2955 1.387 . S
C2954 H2958 0.950 . S
C2954 C2963 1.390 . S
C2955 C2954 1.387 . S
C2955 C2957 1.387 . S
H2956 C2963 0.950 . S
C2957 C2955 1.387 . S
C2957 C2959 1.390 . S
C2957 H2961 0.950 . S
H2958 C2954 0.950 . S
C2959 C2957 1.390 . S
C2959 C2960 1.387 . S
C2959 H2962 0.950 . S
C2960 C2959 1.387 . S
C2960 C2963 1.387 . S
H2961 C2957 0.950 . S
H2962 C2959 0.950 . S
C2963 C2954 1.390 . S
C2963 H2956 0.950 . S
C2963 C2960 1.387 . S
C2964 C2965 1.387 . S
C2964 H2968 0.950 . S
C2964 C2973 1.390 . S
C2965 C2964 1.387 . S
C2965 C2967 1.387 . S
H2966 C2973 0.950 . S
C2967 C2965 1.387 . S
C2967 C2969 1.390 . S
C2967 H2971 0.950 . S
H2968 C2964 0.950 . S
C2969 C2967 1.390 . S
C2969 C2970 1.387 . S
C2969 H2972 0.950 . S
C2970 C2969 1.387 . S
C2970 C2973 1.387 . S
H2971 C2967 0.950 . S
H2972 C2969 0.950 . S
C2973 C2964 1.390 . S
C2973 H2966 0.950 . S
C2973 C2970 1.387 . S
C2974 C2975 1.387 . S
C2974 H2978 0.950 . S
C2974 C2983 1.390 . S
C2975 C2974 1.387 . S
C2975 C2977 1.387 . S
H2976 C2983 0.950 . S
C2977 C2975 1.387 . S
C2977 C2979 1.390 . S
C2977 H2981 0.950 . S
H2978 C2974 0.950 . S
C2979 C2977 1.390 . S
C2979 C2980 1.387 . S
C2979 H2982 0.950 . S
C2980 C2979 1.387 . S
C2980 C2983 1.387 . S
H2981 C2977 0.950 . S
H2982 C2979 0.950 . S
C2983 C2974 1.390 . S
C2983 H2976 0.950 . S
C2983 C2980 1.387 . S
C2984 C2985 1.387 . S
C2984 H2988 0.950 . S
C2984 C2993 1.390 . S
C2985 C2984 1.387 . S
C2985 C2987 1.387 . S
H2986 C2993 0.950 . S
C2987 C2985 1.387 . S
C2987 C2989 1.390 . S
C2987 H2991 0.950 . S
H2988 C2984 0.950 . S
C2989 C2987 1.390 . S
C2989 C2990 1.387 . S
C2989 H2992 0.950 . S
C2990 C2989 1.387 . S
C2990 C2993 1.387 . S
H2991 C2987 0.950 . S
H2992 C2989 0.950 . S
C2993 C2984 1.390 . S
C2993 H2986 0.950 . S
C2993 C2990 1.387 . S
C2994 C2995 1.421 . S
C2994 H2998 0.953 1_655 S
C2994 C3003 1.356 1_655 S
C2995 C2994 1.421 . S
C2995 C2997 1.387 . S
H2996 C3003 0.950 . S
C2997 C2995 1.387 . S
C2997 C2999 1.390 . S
C2997 H3001 0.950 . S
H2998 C2994 0.953 1_455 S
C2999 C2997 1.390 . S
C2999 C3000 1.387 . S
C2999 H3002 0.950 . S
C3000 C2999 1.387 . S
C3000 C3003 1.387 1_655 S
H3001 C2997 0.950 . S
H3002 C2999 0.950 . S
C3003 C2994 1.356 1_455 S
C3003 H2996 0.950 . S
C3003 C3000 1.387 1_455 S
C3004 C3005 1.387 . S
C3004 H3008 0.950 . S
C3004 C3013 1.390 . S
C3005 C3004 1.387 . S
C3005 C3007 1.387 . S
H3006 C3013 0.950 . S
C3007 C3005 1.387 . S
C3007 C3009 1.390 . S
C3007 H3011 0.950 . S
H3008 C3004 0.950 . S
C3009 C3007 1.390 . S
C3009 C3010 1.387 . S
C3009 H3012 0.950 . S
C3010 C3009 1.387 . S
C3010 C3013 1.387 . S
H3011 C3007 0.950 . S
H3012 C3009 0.950 . S
C3013 C3004 1.390 . S
C3013 H3006 0.950 . S
C3013 C3010 1.387 . S
C3014 C3015 1.387 1_565 S
C3014 H3018 0.950 . S
C3014 C3023 1.390 . S
C3015 C3014 1.387 1_545 S
C3015 C3017 1.387 . S
H3016 C3023 0.950 . S
C3017 C3015 1.387 . S
C3017 C3019 1.390 . S
C3017 H3021 0.950 . S
H3018 C3014 0.950 . S
C3019 C3017 1.390 . S
C3019 C3020 1.387 . S
C3019 H3022 0.950 . S
C3020 C3019 1.387 . S
C3020 C3023 1.387 1_545 S
H3021 C3017 0.950 . S
H3022 C3019 0.950 . S
C3023 C3014 1.390 . S
C3023 H3016 0.950 . S
C3023 C3020 1.387 1_565 S
C2305 C13 1.320 . S
C2310 C1307 1.113 1_655 S
C2315 C27 1.444 . S
C2320 C1447 0.959 . S
C2330 C1535 1.158 . S
C2325 C36 1.248 . S
C2335 C41 1.405 . S
C2340 C1675 1.081 1_565 S
C2345 C8 1.372 . S
C2350 C1789 1.132 . S
C2355 C22 1.629 . S
C2360 C1877 1.189 . S
C2365 C55 1.364 . S
C2370 C1763 1.071 . S
C2380 C1903 1.224 . S
C2375 C69 1.369 . S
C2390 C1649 1.120 . S
C2385 C78 1.270 . S
C2395 C83 1.448 . S
C2400 C1561 1.014 . S
C2410 C1333 1.087 . S
C2405 C50 1.380 . S
C2415 C64 1.503 . S
C2420 C1421 1.393 . S
C2425 C97 1.678 . S
C2430 C1991 1.268 . S
C2435 C111 1.564 . S
C2440 C2131 1.053 . S
C2450 C2219 1.245 . S
C2445 C120 1.749 . S
C2455 C125 1.660 . S
C2460 C307 1.098 . S
C2465 C92 1.967 . S
C2470 C421 1.219 . S
C2475 C106 1.763 . S
C2480 C509 1.269 . S
C2485 C139 1.475 . S
C2490 C395 1.480 . S
C2495 C153 1.460 . S
C2500 C535 1.363 . S
C2510 C281 1.527 . S
C2505 C162 1.629 . S
C2520 C2245 1.571 . S
C2515 C167 1.661 . S
C2530 C2017 1.631 . S
C2525 C134 1.805 . S
C2540 C2105 1.554 . S
C2535 C148 1.652 . S
C2545 C181 1.589 . S
C2550 C623 1.179 . S
C2555 C195 1.547 . S
C2560 C763 1.022 . S
C2565 C204 1.767 . S
C2570 C851 1.269 . S
C2575 C209 1.756 . S
C2580 C991 1.187 . S
C2590 C1105 1.204 . S
C2585 C176 1.966 . S
C2600 C1193 1.286 . S
C2595 C190 1.798 . S
C2610 C1079 1.577 . S
C2605 C223 1.577 . S
C2620 C1219 1.402 . S
C2615 C237 1.478 . S
C2625 C246 1.599 . S
C2630 C965 1.499 . S
C2640 C877 1.472 . S
C2635 C251 1.555 . S
C2645 C218 1.823 . S
C2650 C649 1.644 . S
C2660 C737 1.532 . S
C2655 C232 1.625 . S
C2670 C263 0.949 . S
C2665 C11 1.781 . S
C2675 C25 1.612 . S
C2680 C377 0.830 . S
C2690 C481 1.205 . S
C2685 C35 1.782 . S
C2700 C595 1.233 . S
C2695 C39 1.692 . S
C2710 C719 1.011 . S
C2705 C7 1.885 . S
C2720 C823 1.186 . S
C2715 C21 1.768 . S
C2725 C53 1.909 . S
C2730 C833 1.643 . S
C2735 C67 1.741 . S
C2740 C605 1.542 . S
C2745 C77 1.926 . S
C2750 C709 1.754 . S
C2755 C81 1.850 . S
C2760 C367 1.844 . S
C2770 C491 1.706 . S
C2765 C49 2.038 . S
C2775 C63 1.916 . S
C2780 C253 1.753 . S
C2790 C947 0.937 . S
C2785 C95 1.695 . S
C2795 C109 1.685 . S
C2800 C1061 0.901 . S
C2805 C119 1.776 . S
C2810 C1165 1.274 . S
C2820 C1279 1.011 . S
C2815 C123 1.208 . S
C2825 C91 1.730 . S
C2830 C1403 0.943 . S
C2835 C105 1.252 . S
C2840 C1507 1.008 . S
C2845 C137 1.395 . S
C2850 C1517 0.923 1_565 S
C2855 C151 1.184 . S
C2860 C1289 0.840 1_455 S
C2870 C1393 1.584 . S
C2865 C161 1.763 . S
C2875 C165 1.798 . S
C2880 C1051 1.795 . S
C2885 C133 1.992 . S
C2890 C1175 1.664 . S
C2900 C937 1.793 . S
C2895 C147 1.975 . S
C2910 C1631 0.867 . S
C2905 C179 1.399 . S
C2915 C193 1.153 . S
C2920 C1745 0.767 . S
C2925 C203 1.624 . S
C2930 C1849 1.125 . S
C2940 C1963 1.228 . S
C2935 C207 1.636 . S
C2950 C2087 1.084 . S
C2945 C175 1.865 . S
C2955 C189 1.829 . S
C2960 C2191 1.278 . S
C2965 C221 1.828 . S
C2970 C2201 1.572 . S
C2975 C235 1.817 . S
C2980 C1973 1.562 . S
C2990 C2077 1.732 . S
C2985 C245 1.897 . S
C3000 C1735 1.073 1_655 S
C2995 C249 1.210 . S
C3010 C1859 1.525 . S
C3005 C217 1.868 . S
C3015 C231 1.324 . S
C3020 C1621 1.106 1_545 S
