# Generated by pormake.
# Topology csq, (4,8)-cn, num edge types: 1
# Building blocks:
#     Node 0, Type 0, BuildingBlock: MUDLON_clean_linker_0, # of connection points: 4
#     Node 1, Type 0, BuildingBlock: MUDLON_clean_linker_0, # of connection points: 4
#     Node 2, Type 0, BuildingBlock: MUDLON_clean_linker_0, # of connection points: 4
#     Node 3, Type 0, BuildingBlock: MUDLON_clean_linker_0, # of connection points: 4
#     Node 4, Type 0, BuildingBlock: MUDLON_clean_linker_0, # of connection points: 4
#     Node 5, Type 0, BuildingBlock: MUDLON_clean_linker_0, # of connection points: 4
#     Node 6, Type 1, BuildingBlock: TAGTUT_clean_sbu_3, # of connection points: 8
#     Node 7, Type 1, BuildingBlock: TAGTUT_clean_sbu_3, # of connection points: 8
#     Node 8, Type 1, BuildingBlock: TAGTUT_clean_sbu_3, # of connection points: 8
#     Edge 9, Type (0, 1), BuildingBlock: OJICUG_clean_linker_0, # of connection points: 2
#     Edge 10, Type (0, 1), BuildingBlock: OJICUG_clean_linker_0, # of connection points: 2
#     Edge 11, Type (0, 1), BuildingBlock: OJICUG_clean_linker_0, # of connection points: 2
#     Edge 12, Type (0, 1), BuildingBlock: OJICUG_clean_linker_0, # of connection points: 2
#     Edge 13, Type (0, 1), BuildingBlock: OJICUG_clean_linker_0, # of connection points: 2
#     Edge 14, Type (0, 1), BuildingBlock: OJICUG_clean_linker_0, # of connection points: 2
#     Edge 15, Type (0, 1), BuildingBlock: OJICUG_clean_linker_0, # of connection points: 2
#     Edge 16, Type (0, 1), BuildingBlock: OJICUG_clean_linker_0, # of connection points: 2
#     Edge 17, Type (0, 1), BuildingBlock: OJICUG_clean_linker_0, # of connection points: 2
#     Edge 18, Type (0, 1), BuildingBlock: OJICUG_clean_linker_0, # of connection points: 2
#     Edge 19, Type (0, 1), BuildingBlock: OJICUG_clean_linker_0, # of connection points: 2
#     Edge 20, Type (0, 1), BuildingBlock: OJICUG_clean_linker_0, # of connection points: 2
#     Edge 21, Type (0, 1), BuildingBlock: OJICUG_clean_linker_0, # of connection points: 2
#     Edge 22, Type (0, 1), BuildingBlock: OJICUG_clean_linker_0, # of connection points: 2
#     Edge 23, Type (0, 1), BuildingBlock: OJICUG_clean_linker_0, # of connection points: 2
#     Edge 24, Type (0, 1), BuildingBlock: OJICUG_clean_linker_0, # of connection points: 2
#     Edge 25, Type (0, 1), BuildingBlock: OJICUG_clean_linker_0, # of connection points: 2
#     Edge 26, Type (0, 1), BuildingBlock: OJICUG_clean_linker_0, # of connection points: 2
#     Edge 27, Type (0, 1), BuildingBlock: OJICUG_clean_linker_0, # of connection points: 2
#     Edge 28, Type (0, 1), BuildingBlock: OJICUG_clean_linker_0, # of connection points: 2
#     Edge 29, Type (0, 1), BuildingBlock: OJICUG_clean_linker_0, # of connection points: 2
#     Edge 30, Type (0, 1), BuildingBlock: OJICUG_clean_linker_0, # of connection points: 2
#     Edge 31, Type (0, 1), BuildingBlock: OJICUG_clean_linker_0, # of connection points: 2
#     Edge 32, Type (0, 1), BuildingBlock: OJICUG_clean_linker_0, # of connection points: 2
# Relax obj value: 0.041
# Max RMSD: 0.118
# Mean RMSD: 0.078
data_MOF--net-csq--node1-TAGTUT_clean_sbu_3--node2-MUDLON_clean_linker_0--edge1-OJICUG_clean_linker_0
_symmetry_space_group_name_H-M    P1
_symmetry_Int_Tables_number       1
_symmetry_cell_setting            triclinic
loop_
_symmetry_equiv_pos_as_xyz
'x, y, z'
_cell_length_a     57.3564
_cell_length_b     56.631657
_cell_length_c     18.741834
_cell_angle_alpha  92.982173
_cell_angle_beta   92.988122
_cell_angle_gamma 120.02398
loop_
_atom_site_label
_atom_site_type_symbol
_atom_site_fract_x
_atom_site_fract_y
_atom_site_fract_z
_atom_type_partial_charge
H0 H 0.3811 0.53508 0.19086 0.0
N1 N 0.33085 0.49697 0.14441 0.0
H2 H 0.4092 0.53237 0.28803 0.0
H3 H 0.31137 0.46373 0.25603 0.0
H4 H 0.33871 0.46229 0.35587 0.0
H5 H 0.33451 0.45042 0.13546 0.0
H6 H 0.36155 0.44084 0.05585 0.0
H7 H 0.3543 0.52391 0.03324 0.0
H8 H 0.38254 0.51489 0.95499 0.0
H9 H 0.30397 0.52346 0.15848 0.0
H10 H 0.29174 0.44201 0.12299 0.0
H11 H 0.2554 0.50405 0.16495 0.0
H12 H 0.24395 0.42258 0.13357 0.0
H13 H 0.13746 0.46994 0.17967 0.0
H14 H 0.11995 0.48877 0.2682 0.0
H15 H 0.08764 0.41367 0.37247 0.0
H16 H 0.10581 0.39532 0.28456 0.0
H17 H 0.08215 0.38061 0.11537 0.0
H18 H 0.05735 0.38319 0.00788 0.0
H19 H 0.12917 0.45681 0.96223 0.0
H20 H 0.15328 0.45498 0.07011 0.0
H21 H 0.17479 0.46342 0.2539 0.0
H22 H 0.22214 0.48093 0.243 0.0
H23 H 0.20265 0.41463 0.08234 0.0
N24 N 0.13164 0.41857 0.17179 0.0
H25 H 0.15478 0.39607 0.09597 0.0
C26 C 0.34422 0.49942 0.21431 0.0
C27 C 0.37162 0.51954 0.22781 0.0
C28 C 0.38768 0.51793 0.28361 0.0
C29 C 0.37639 0.49655 0.32869 0.0
C30 C 0.34832 0.47832 0.32031 0.0
C31 C 0.33244 0.47943 0.26322 0.0
C32 C 0.34163 0.4876 0.08885 0.0
C33 C 0.34366 0.46391 0.09389 0.0
C34 C 0.35956 0.45867 0.04924 0.0
C35 C 0.37426 0.47728 7e-05 0.0
C36 C 0.37153 0.50038 0.99312 0.0
C37 C 0.35516 0.50534 0.03685 0.0
C38 C 0.30177 0.48448 0.14033 0.0
C39 C 0.29083 0.50143 0.15173 0.0
C40 C 0.2631 0.49024 0.15642 0.0
C41 C 0.24567 0.46165 0.1509 0.0
C42 C 0.25658 0.44465 0.1373 0.0
C43 C 0.28422 0.45589 0.13136 0.0
C44 C 0.12304 0.4311 0.22579 0.0
C45 C 0.1267 0.45756 0.22174 0.0
C46 C 0.11658 0.46831 0.27232 0.0
C47 C 0.10246 0.45285 0.32776 0.0
C48 C 0.09891 0.42646 0.33152 0.0
C49 C 0.10916 0.41581 0.28122 0.0
C50 C 0.11942 0.41761 0.10139 0.0
C51 C 0.09265 0.39686 0.08099 0.0
C52 C 0.07862 0.39821 0.01943 0.0
C53 C 0.09135 0.42033 0.97743 0.0
C54 C 0.11887 0.43967 0.99421 0.0
C55 C 0.13268 0.43859 0.05599 0.0
C56 C 0.16051 0.4285 0.17372 0.0
C57 C 0.1802 0.45234 0.21599 0.0
C58 C 0.20769 0.46266 0.20948 0.0
C59 C 0.21638 0.44969 0.16044 0.0
C60 C 0.19686 0.42524 0.12084 0.0
C61 C 0.16938 0.41461 0.12834 0.0
H62 H 0.69827 0.08634 0.15701 0.0
N63 N 0.7057 0.13201 0.10543 0.0
H64 H 0.66751 0.06171 0.24674 0.0
H65 H 0.68673 0.15504 0.20117 0.0
H66 H 0.65549 0.13034 0.29037 0.0
H67 H 0.66032 0.13652 0.08589 0.0
H68 H 0.62197 0.10892 -0.00122 0.0
H69 H 0.70473 0.10211 0.99015 0.0
H70 H 0.66704 0.07581 0.89842 0.0
H71 H 0.7558 0.15289 0.16395 0.0
H72 H 0.70309 0.1756 0.05314 0.0
H73 H 0.79342 0.19958 0.16419 0.0
H74 H 0.74083 0.22162 0.04863 0.0
H75 H 0.90573 0.32665 0.18498 0.0
H76 H 0.92589 0.35387 0.29997 0.0
H77 H 0.85915 0.36888 0.3074 0.0
H78 H 0.8402 0.34315 0.19071 0.0
H79 H 0.89689 0.3775 0.11886 0.0
H80 H 0.90896 0.40779 0.02564 0.0
H81 H 0.85173 0.34118 0.87366 0.0
H82 H 0.83974 0.31004 0.9674 0.0
H83 H 0.862 0.27428 0.08761 0.0
H84 H 0.82274 0.22844 0.0862 0.0
H85 H 0.77163 0.2638 0.1108 0.0
N86 N 0.8636 0.32171 0.10524 0.0
H87 H 0.81087 0.30936 0.10616 0.0
C88 C 0.69451 0.12226 0.17197 0.0
C89 C 0.68984 0.09646 0.1881 0.0
C90 C 0.67218 0.0824 0.239 0.0
C91 C 0.65875 0.09395 0.27431 0.0
C92 C 0.66527 0.12083 0.26284 0.0
C93 C 0.68327 0.13504 0.2125 0.0
C94 C 0.68536 0.12099 0.0453 0.0
C95 C 0.66209 0.12343 0.04513 0.0
C96 C 0.6401 0.10771 0.99463 0.0
C97 C 0.64108 0.08962 0.94227 0.0
C98 C 0.66518 0.0888 0.93942 0.0
C99 C 0.68697 0.10418 0.99087 0.0
C100 C 0.72666 0.16041 0.10803 0.0
C101 C 0.75237 0.16794 0.1395 0.0
C102 C 0.77393 0.1946 0.13868 0.0
C103 C 0.77041 0.21439 0.10503 0.0
C104 C 0.74437 0.20706 0.07535 0.0
C105 C 0.72265 0.18045 0.07743 0.0
C106 C 0.87166 0.333 0.17909 0.0
C107 C 0.89519 0.33528 0.21251 0.0
C108 C 0.90651 0.35063 0.2786 0.0
C109 C 0.89429 0.36385 0.31265 0.0
C110 C 0.86928 0.35931 0.2821 0.0
C111 C 0.85821 0.3443 0.21554 0.0
C112 C 0.86639 0.34095 0.05273 0.0
C113 C 0.88581 0.36909 0.06671 0.0
C114 C 0.89287 0.38681 0.01257 0.0
C115 C 0.88126 0.37713 0.94179 0.0
C116 C 0.86117 0.34939 0.92757 0.0
C117 C 0.85405 0.33152 0.98195 0.0
C118 C 0.83944 0.29513 0.09814 0.0
C119 C 0.84222 0.27198 0.09166 0.0
C120 C 0.81976 0.24584 0.09195 0.0
C121 C 0.79396 0.2423 0.10014 0.0
C122 C 0.7911 0.26562 0.10435 0.0
C123 C 0.8136 0.2918 0.10272 0.0
H124 H 0.57178 0.90494 0.9945 0.0
N125 N 0.54268 0.85815 0.05164 0.0
H126 H 0.55827 0.92165 0.89172 0.0
H127 H 0.49625 0.82857 0.96196 0.0
H128 H 0.48246 0.84502 0.85852 0.0
H129 H 0.49115 0.84395 0.08157 0.0
H130 H 0.47772 0.85514 0.19362 0.0
H131 H 0.57453 0.88752 0.16813 0.0
H132 H 0.5616 0.90025 0.27942 0.0
H133 H 0.58023 0.8492 0.00154 0.0
H134 H 0.50307 0.80835 0.08983 0.0
H135 H 0.5825 0.80733 0.00172 0.0
H136 H 0.50633 0.76769 0.0973 0.0
H137 H 0.58649 0.66678 0.05777 0.0
H138 H 0.5832 0.6379 0.95225 0.0
H139 H 0.52558 0.65525 0.84462 0.0
H140 H 0.52719 0.68182 0.95125 0.0
H141 H 0.51676 0.63544 0.06683 0.0
H142 H 0.501 0.6058 0.16275 0.0
H143 H 0.54603 0.67606 0.31857 0.0
H144 H 0.5644 0.70509 0.22148 0.0
H145 H 0.59611 0.74204 0.08883 0.0
H146 H 0.5916 0.78231 0.07825 0.0
H147 H 0.50457 0.72982 0.04444 0.0
N148 N 0.55694 0.69009 0.08113 0.0
H149 H 0.50956 0.69016 0.062 0.0
C150 C 0.53494 0.8658 0.98633 0.0
C151 C 0.55246 0.89163 0.96416 0.0
C152 C 0.5448 0.90099 0.90496 0.0
C153 C 0.51927 0.88465 0.86679 0.0
C154 C 0.50218 0.85814 0.88708 0.0
C155 C 0.50998 0.84875 0.94627 0.0
C156 C 0.534 0.86508 0.11637 0.0
C157 C 0.50664 0.85614 0.12453 0.0
C158 C 0.49897 0.86258 0.18893 0.0
C159 C 0.5185 0.87858 0.24612 0.0
C160 C 0.54584 0.88735 0.23757 0.0
C161 C 0.5534 0.88051 0.17357 0.0
C162 C 0.54193 0.8323 0.04706 0.0
C163 C 0.56387 0.83123 0.02132 0.0
C164 C 0.56526 0.80734 0.02252 0.0
C165 C 0.54493 0.78409 0.05124 0.0
C166 C 0.52236 0.78492 0.07431 0.0
C167 C 0.52063 0.80855 0.07102 0.0
C168 C 0.55712 0.67647 0.01369 0.0
C169 C 0.57339 0.66454 0.01101 0.0
C170 C 0.57165 0.64824 0.95008 0.0
C171 C 0.55391 0.64395 0.88954 0.0
C172 C 0.53895 0.65744 0.89063 0.0
C173 C 0.5401 0.67305 0.95221 0.0
C174 C 0.54277 0.67264 0.13653 0.0
C175 C 0.52346 0.64461 0.12149 0.0
C176 C 0.51396 0.62753 0.17718 0.0
C177 C 0.52269 0.63813 0.24946 0.0
C178 C 0.53969 0.66667 0.26405 0.0
C179 C 0.55 0.68352 0.2084 0.0
C180 C 0.55328 0.71331 0.07553 0.0
C181 C 0.57613 0.73945 0.07971 0.0
C182 C 0.57343 0.76237 0.07258 0.0
C183 C 0.54769 0.75952 0.05932 0.0
C184 C 0.52472 0.73309 0.05559 0.0
C185 C 0.52747 0.71028 0.06499 0.0
H186 H 0.93793 0.61185 0.03981 0.0
N187 N 0.88465 0.58253 0.01297 0.0
H188 H 0.96597 0.60482 0.12992 0.0
H189 H 0.86605 0.54995 0.12515 0.0
H190 H 0.89387 0.5436 0.21549 0.0
H191 H 0.8761 0.53039 0.99417 0.0
H192 H 0.89712 0.51587 0.90551 0.0
H193 H 0.89868 0.60378 0.88905 0.0
H194 H 0.91808 0.58856 0.7971 0.0
H195 H 0.87522 0.62353 0.02629 0.0
H196 H 0.83585 0.53563 0.01695 0.0
H197 H 0.83222 0.62131 0.04049 0.0
H198 H 0.79297 0.53302 0.03732 0.0
H199 H 0.696 0.61278 0.1201 0.0
H200 H 0.66982 0.60665 0.22367 0.0
H201 H 0.67452 0.53478 0.26531 0.0
H202 H 0.70093 0.54123 0.16198 0.0
H203 H 0.66842 0.52457 0.05414 0.0
H204 H 0.63139 0.50184 0.95907 0.0
H205 H 0.66719 0.57516 0.84748 0.0
H206 H 0.70387 0.59806 0.94368 0.0
H207 H 0.7586 0.6146 0.12549 0.0
H208 H 0.80064 0.61409 0.1196 0.0
H209 H 0.75768 0.537 0.98753 0.0
N210 N 0.70996 0.57824 0.06377 0.0
H211 H 0.71565 0.53648 -0.00084 0.0
C212 C 0.89989 0.58175 0.07563 0.0
C213 C 0.92823 0.59735 0.07905 0.0
C214 C 0.94415 0.59306 0.12959 0.0
C215 C 0.93193 0.57348 0.17864 0.0
C216 C 0.90366 0.5588 0.17786 0.0
C217 C 0.88772 0.56265 0.12637 0.0
C218 C 0.88676 0.5687 0.94923 0.0
C219 C 0.88448 0.54277 0.95005 0.0
C220 C 0.8965 0.53445 0.8992 0.0
C221 C 0.91025 0.55166 0.84614 0.0
C222 C 0.90858 0.57541 0.8392 0.0
C223 C 0.89715 0.58397 0.89086 0.0
C224 C 0.85874 0.57991 0.0216 0.0
C225 C 0.85723 0.60376 0.02847 0.0
C226 C 0.83263 0.60238 0.03747 0.0
C227 C 0.80898 0.57698 0.04138 0.0
C228 C 0.81058 0.55295 0.03394 0.0
C229 C 0.83516 0.55437 0.02303 0.0
C230 C 0.69997 0.5773 0.13301 0.0
C231 C 0.69209 0.59626 0.15311 0.0
C232 C 0.67729 0.59279 0.21229 0.0
C233 C 0.66998 0.57009 0.25182 0.0
C234 C 0.67976 0.55232 0.23516 0.0
C235 C 0.69482 0.55598 0.17635 0.0
C236 C 0.68882 0.56333 0.00639 0.0
C237 C 0.6683 0.53587 0.0096 0.0
C238 C 0.64715 0.5228 0.95515 0.0
C239 C 0.6465 0.53671 0.89606 0.0
C240 C 0.66739 0.56383 0.89212 0.0
C241 C 0.68828 0.57698 0.94691 0.0
C242 C 0.73391 0.57593 0.06234 0.0
C243 C 0.75826 0.5974 0.09625 0.0
C244 C 0.78235 0.5972 0.09193 0.0
C245 C 0.78283 0.57578 0.05172 0.0
C246 C 0.75823 0.55378 0.01949 0.0
C247 C 0.73399 0.55364 0.0255 0.0
H248 H 0.13213 0.64925 0.12124 0.0
N249 N 0.14455 0.7032 0.11473 0.0
H250 H 0.12509 0.62525 0.22693 0.0
H251 H 0.15579 0.72423 0.25253 0.0
H252 H 0.15033 0.7002 0.35977 0.0
H253 H 0.09626 0.68357 0.04373 0.0
H254 H 0.07805 0.65266 0.93351 0.0
H255 H 0.17262 0.68691 0.03075 0.0
H256 H 0.15502 0.65689 0.91958 0.0
H257 H 0.19834 0.71952 0.12672 0.0
H258 H 0.14175 0.74801 0.10011 0.0
H259 H 0.23595 0.76605 0.12105 0.0
H260 H 0.17909 0.7949 0.09916 0.0
H261 H 0.34035 0.8929 0.12581 0.0
H262 H 0.37893 0.9143 0.21691 0.0
H263 H 0.33692 0.94517 0.34146 0.0
H264 H 0.29896 0.92461 0.24873 0.0
H265 H 0.30042 0.94493 0.08896 0.0
H266 H 0.32346 0.97055 0.98863 0.0
H267 H 0.33434 0.90361 0.91284 0.0
H268 H 0.31104 0.87815 0.01233 0.0
H269 H 0.2958 0.85582 0.19425 0.0
H270 H 0.25992 0.80878 0.18826 0.0
H271 H 0.21294 0.8252 0.03187 0.0
N272 N 0.29496 0.89769 0.12444 0.0
H273 H 0.24843 0.87309 0.04109 0.0
C274 C 0.14488 0.68914 0.1774 0.0
C275 C 0.13682 0.66108 0.17243 0.0
C276 C 0.13294 0.64711 0.23399 0.0
C277 C 0.13707 0.66061 0.30267 0.0
C278 C 0.14652 0.6889 0.30801 0.0
C279 C 0.14997 0.70281 0.24634 0.0
C280 C 0.13565 0.68748 0.04565 0.0
C281 C 0.10925 0.67812 0.0161 0.0
C282 C 0.09901 0.66069 0.95275 0.0
C283 C 0.11509 0.65228 0.91766 0.0
C284 C 0.14205 0.66282 0.94554 0.0
C285 C 0.15224 0.68019 0.00899 0.0
C286 C 0.16727 0.7304 0.11281 0.0
C287 C 0.19406 0.73585 0.11932 0.0
C288 C 0.21554 0.76255 0.11702 0.0
C289 C 0.21065 0.78436 0.10934 0.0
C290 C 0.18372 0.77867 0.1034 0.0
C291 C 0.16232 0.75195 0.10465 0.0
C292 C 0.31691 0.9076 0.18019 0.0
C293 C 0.33952 0.90437 0.17258 0.0
C294 C 0.36146 0.91639 0.22504 0.0
C295 C 0.36119 0.93181 0.28585 0.0
C296 C 0.33807 0.93399 0.2944 0.0
C297 C 0.31626 0.92209 0.24196 0.0
C298 C 0.30421 0.90984 0.05833 0.0
C299 C 0.30717 0.93558 0.04943 0.0
C300 C 0.32037 0.95017 0.99238 0.0
C301 C 0.33083 0.93917 0.94307 0.0
C302 C 0.32622 0.91253 0.94933 0.0
C303 C 0.31308 0.898 0.00653 0.0
C304 C 0.27531 0.86856 0.11712 0.0
C305 C 0.27812 0.84968 0.1578 0.0
C306 C 0.25741 0.82236 0.15416 0.0
C307 C 0.23341 0.81303 0.10965 0.0
C308 C 0.23089 0.83167 0.06778 0.0
C309 C 0.25138 0.85907 0.07227 0.0
H310 H 0.49115 0.35354 0.08685 0.0
N311 N 0.45219 0.30098 0.10813 0.0
H312 H 0.49714 0.3756 0.97669 0.0
H313 H 0.42412 0.27915 0.9809 0.0
H314 H 0.43062 0.30106 0.86823 0.0
H315 H 0.41042 0.30327 0.15672 0.0
H316 H 0.41084 0.33145 0.26151 0.0
H317 H 0.49597 0.33534 0.20328 0.0
H318 H 0.49654 0.36328 0.30671 0.0
H319 H 0.50435 0.31603 0.07925 0.0
H320 H 0.43309 0.25361 0.16544 0.0
H321 H 0.52852 0.29239 0.11074 0.0
H322 H 0.45753 0.22994 0.19793 0.0
H323 H 0.58188 0.18613 0.1811 0.0
H324 H 0.57704 0.15536 0.07645 0.0
H325 H 0.49321 0.13256 0.03727 0.0
H326 H 0.49805 0.16291 0.141 0.0
H327 H 0.49188 0.16318 0.26384 0.0
H328 H 0.47751 0.13432 0.36246 0.0
H329 H 0.56118 0.16206 0.43046 0.0
H330 H 0.57532 0.19264 0.3347 0.0
H331 H 0.54828 0.22154 0.10909 0.0
H332 H 0.5268 0.24771 0.07697 0.0
H333 H 0.49812 0.24148 0.28718 0.0
N334 N 0.54406 0.19565 0.22994 0.0
H335 H 0.51988 0.21591 0.32052 0.0
C336 C 0.45678 0.31462 0.04275 0.0
C337 C 0.47769 0.34182 0.03986 0.0
C338 C 0.48141 0.35436 0.976 0.0
C339 C 0.46452 0.34008 0.91304 0.0
C340 C 0.4439 0.31274 0.91568 0.0
C341 C 0.44015 0.30018 0.97991 0.0
C342 C 0.45302 0.31711 0.17171 0.0
C343 C 0.42918 0.31616 0.18982 0.0
C344 C 0.42946 0.33217 0.2497 0.0
C345 C 0.45368 0.34941 0.29285 0.0
C346 C 0.47742 0.34977 0.27571 0.0
C347 C 0.47715 0.33392 0.21582 0.0
C348 C 0.46654 0.28635 0.11914 0.0
C349 C 0.49364 0.29702 0.10375 0.0
C350 C 0.50759 0.28355 0.12211 0.0
C351 C 0.49494 0.25948 0.15714 0.0
C352 C 0.46785 0.24868 0.1717 0.0
C353 C 0.4538 0.26196 0.15258 0.0
C354 C 0.54051 0.17706 0.16871 0.0
C355 C 0.56251 0.17444 0.14978 0.0
C356 C 0.55972 0.1569 0.09027 0.0
C357 C 0.53486 0.14192 0.04826 0.0
C358 C 0.51274 0.14425 0.06789 0.0
C359 C 0.51543 0.16141 0.1277 0.0
C360 C 0.53484 0.18029 0.29198 0.0
C361 C 0.50717 0.16352 0.30087 0.0
C362 C 0.49896 0.14686 0.35743 0.0
C363 C 0.51808 0.14541 0.40446 0.0
C364 C 0.54576 0.16285 0.39663 0.0
C365 C 0.55396 0.18017 0.34128 0.0
C366 C 0.53354 0.21384 0.21487 0.0
C367 C 0.53705 0.2253 0.14835 0.0
C368 C 0.525 0.24057 0.13003 0.0
C369 C 0.50984 0.24554 0.17859 0.0
C370 C 0.50866 0.23677 0.2476 0.0
C371 C 0.52096 0.22175 0.26625 0.0
C372 C 0.0446 0.47968 0.52745 0.0
C373 C 0.02789 0.44885 0.79102 0.0
C374 C 0.95359 0.44871 0.75299 0.0
Mg375 Mg 0.02429 0.51756 0.44583 0.0
Mg376 Mg 0.01878 0.56331 0.54623 0.0
O377 O 0.00711 0.52624 0.52545 0.0
Mg378 Mg 0.01359 0.5075 0.60376 0.0
O379 O 0.01989 0.48706 0.67803 0.0
Mg380 Mg 0.99664 0.44831 0.63454 0.0
Mg381 Mg 0.01199 0.49339 0.77 0.0
C382 C 0.98503 0.53879 0.6782 0.0
O383 O 0.04735 0.54786 0.66699 0.0
O384 O 0.00351 0.5359 0.37353 0.0
O385 O 0.0379 0.5373 0.7807 0.0
O386 O 0.06307 0.5601 0.45723 0.0
O387 O -0.00074 0.56549 0.44975 0.0
O388 O 0.06143 0.58896 0.53913 0.0
O389 O 0.97974 0.46615 0.55035 0.0
O390 O 0.98597 0.47566 0.43619 0.0
C391 C 0.97325 0.45925 0.483 0.0
C392 C 0.9954 0.55306 0.38746 0.0
O393 O 0.98504 0.51616 0.66793 0.0
O394 O 0.01774 0.4372 0.72725 0.0
O395 O -0.00094 0.55968 0.64354 0.0
O396 O 0.96119 0.43783 0.70487 0.0
O397 O 0.02694 0.46975 0.81647 0.0
O398 O 0.96934 0.47314 0.78054 0.0
O399 O 0.04163 0.50071 0.53254 0.0
O400 O 0.03128 0.45918 0.56374 0.0
C401 C 0.07395 0.58359 0.49258 0.0
C402 C 0.05099 0.55432 0.73524 0.0
C403 C 0.50318 0.05275 0.53566 0.0
C404 C 0.56917 0.02475 0.43381 0.0
C405 C 0.50979 0.9431 0.47295 0.0
Mg406 Mg 0.46385 0.02895 0.66176 0.0
Mg407 Mg 0.47489 0.99635 0.78587 0.0
O408 O 0.46927 0.99783 0.68765 0.0
Mg409 Mg 0.49846 0.0033 0.62513 0.0
O410 O 0.52613 0.00976 0.55765 0.0
Mg411 Mg 0.50365 -0.0004 0.46384 0.0
Mg412 Mg 0.54809 0.99418 0.57003 0.0
C413 C 0.49088 0.95358 0.72452 0.0
O414 O 0.53348 0.02433 0.71417 0.0
O415 O 0.42617 0.00972 0.72835 0.0
O416 O 0.56087 0.00821 0.68284 0.0
O417 O 0.48995 0.05764 0.76259 0.0
O418 O 0.43566 0.98758 0.81151 0.0
O419 O 0.50383 0.03628 0.83485 0.0
O420 O 0.46577 0.98255 0.52963 0.0
O421 O 0.44042 0.00075 0.56088 0.0
C422 C 0.44537 0.98587 0.51733 0.0
C423 C 0.42003 0.99496 0.78175 0.0
O424 O 0.49519 0.96304 0.66244 0.0
O425 O 0.54516 0.0198 0.41403 0.0
O426 O 0.48476 0.96437 0.77687 0.0
O427 O 0.50114 0.958 0.44711 0.0
O428 O 0.57473 0.0168 0.49179 0.0
O429 O 0.52676 0.95176 0.52829 0.0
O430 O 0.50111 0.04365 0.59753 0.0
O431 O 0.5057 0.04028 0.48052 0.0
C432 C 0.50383 0.05784 0.81862 0.0
C433 C 0.55421 0.02156 0.72684 0.0
C434 C 0.52632 0.54731 0.71647 0.0
C435 C 0.44485 0.46414 0.81689 0.0
C436 C 0.47476 0.41638 0.71626 0.0
Mg437 Mg 0.55369 0.54997 0.56853 0.0
Mg438 Mg 0.51807 0.5072 0.43002 0.0
O439 O 0.53138 0.51104 0.5257 0.0
Mg440 Mg 0.505 0.49517 0.59902 0.0
O441 O 0.48039 0.48128 0.67642 0.0
Mg442 Mg 0.5064 0.48538 0.75815 0.0
Mg443 Mg 0.44826 0.44726 0.65889 0.0
C444 C 0.48289 0.44583 0.46902 0.0
O445 O 0.47046 0.495 0.53302 0.0
O446 O 0.58292 0.5552 0.48142 0.0
O447 O 0.4337 0.45609 0.55937 0.0
O448 O 0.53334 0.56692 0.49355 0.0
O449 O 0.55718 0.52331 0.39059 0.0
O450 O 0.5036 0.53491 0.4109 0.0
O451 O 0.5376 0.49416 0.67339 0.0
O452 O 0.57285 0.53268 0.64267 0.0
C453 C 0.56301 0.51178 0.67908 0.0
C454 C 0.58014 0.54251 0.41979 0.0
O455 O 0.48899 0.45227 0.53719 0.0
O456 O 0.47083 0.47689 0.82876 0.0
O457 O 0.49 0.46366 0.42291 0.0
O458 O 0.49221 0.43946 0.74909 0.0
O459 O 0.43234 0.45155 0.75606 0.0
O460 O 0.45625 0.41418 0.67086 0.0
O461 O 0.52155 0.53884 0.64987 0.0
O462 O 0.52078 0.53088 0.76541 0.0
C463 C 0.51541 0.5593 0.44062 0.0
C464 C 0.44512 0.47719 0.52339 0.0
C465 C 0.07841 0.4786 0.36015 0.0
C466 C 0.09092 0.46369 0.38095 0.0
H467 H 0.05408 0.49591 0.39099 0.0
C468 C 0.09093 0.45768 0.45271 0.0
H469 H 0.07795 0.48352 0.30523 0.0
C470 C 0.07708 0.46444 0.50094 0.0
C471 C 0.06323 0.47782 0.47919 0.0
H472 H 0.10104 0.44702 0.4713 0.0
H473 H 0.07647 0.45839 0.55505 0.0
C474 C 0.06477 0.48575 0.40912 0.0
C475 C 0.61111 0.07557 0.30459 0.0
C476 C 0.63614 0.0769 0.31696 0.0
H477 H 0.57011 0.05764 0.33071 0.0
C478 C 0.63878 0.06046 0.36651 0.0
H479 H 0.60841 0.08767 0.26564 0.0
C480 C 0.61688 0.04321 0.40355 0.0
C481 C 0.59178 0.0418 0.39119 0.0
H482 H 0.65784 0.06106 0.37683 0.0
H483 H 0.61965 0.03097 0.44193 0.0
C484 C 0.58909 0.05808 0.34107 0.0
C485 C 0.53623 0.62689 0.36732 0.0
C486 C 0.51701 0.61936 0.30796 0.0
H487 H 0.55017 0.61421 0.45696 0.0
C488 C 0.49426 0.59267 0.30146 0.0
H489 H 0.55426 0.6469 0.37477 0.0
C490 C 0.49239 0.57337 0.34823 0.0
C491 C 0.51289 0.58053 0.40363 0.0
H492 H 0.47843 0.58618 0.25836 0.0
H493 H 0.47564 0.55253 0.33875 0.0
C494 C 0.53398 0.60789 0.4149 0.0
C495 C 0.94504 0.56995 0.304 0.0
C496 C 0.94853 0.5683 0.23098 0.0
H497 H 0.95723 0.56647 0.4103 0.0
C498 C 0.96745 0.56123 0.20856 0.0
H499 H 0.93058 0.57539 0.32234 0.0
C500 C 0.98256 0.55567 0.25896 0.0
C501 C 0.9793 0.55775 0.33228 0.0
H502 H 0.97023 0.55967 0.15214 0.0
H503 H 0.99702 0.55021 0.24086 0.0
C504 C 0.96039 0.56494 0.35415 0.0
C505 C 0.39275 0.97296 0.36861 0.0
C506 C 0.38508 0.94648 0.33945 0.0
H507 H 0.41803 0.00614 0.44673 0.0
C508 C 0.39981 0.93418 0.3637 0.0
H509 H 0.38249 0.98341 0.34956 0.0
C510 C 0.42071 0.94755 0.41917 0.0
C511 C 0.42694 0.97323 0.45128 0.0
H512 H 0.39444 0.91382 0.34201 0.0
H513 H 0.43099 0.93724 0.43927 0.0
C514 C 0.41329 0.98608 0.42398 0.0
C515 C 0.44328 0.38541 0.33478 0.0
C516 C 0.45527 0.36961 0.34961 0.0
H517 H 0.44246 0.42204 0.36294 0.0
C518 C 0.47198 0.3762 0.41395 0.0
H519 H 0.43043 0.38102 0.28572 0.0
C520 C 0.47873 0.39974 0.4587 0.0
C521 C 0.46905 0.41705 0.43911 0.0
H522 H 0.48118 0.36412 0.42727 0.0
H523 H 0.49338 0.40566 0.50467 0.0
C524 C 0.45021 0.40896 0.37895 0.0
C525 C 0.48361 0.89397 0.81828 0.0
C526 C 0.50928 0.89691 0.81369 0.0
H527 H 0.45753 0.90968 0.79193 0.0
C528 C 0.52654 0.91498 0.76633 0.0
H529 H 0.46989 0.88046 0.85452 0.0
C530 C 0.51924 0.93161 0.72967 0.0
C531 C 0.49474 0.93054 0.74064 0.0
H532 H 0.54635 0.91746 0.76113 0.0
H533 H 0.53373 0.94692 0.69819 0.0
C534 C 0.47651 0.91075 0.78249 0.0
C535 C 0.5968 0.51177 0.85647 0.0
C536 C 0.62378 0.52375 0.83926 0.0
H537 H 0.55566 0.49798 0.81776 0.0
C538 C 0.62923 0.52635 0.76717 0.0
H539 H 0.59213 0.50955 0.91184 0.0
C540 C 0.60856 0.51973 0.71399 0.0
C541 C 0.58202 0.51031 0.73176 0.0
H542 H 0.64977 0.53501 0.7524 0.0
H543 H 0.61366 0.52371 0.65933 0.0
C544 C 0.57595 0.50504 0.8028 0.0
C545 C 0.08308 0.62807 0.80638 0.0
C546 C 0.10266 0.62987 0.85854 0.0
H547 H 0.05146 0.60241 0.7238 0.0
C548 C 0.10789 0.60814 0.85968 0.0
H549 H 0.07874 0.64456 0.80382 0.0
C550 C 0.09245 0.58433 0.81398 0.0
C551 C 0.07172 0.58184 0.76557 0.0
H552 H 0.12248 0.60858 0.8996 0.0
H553 H 0.09551 0.5671 0.81979 0.0
C554 C 0.06772 0.60418 0.76002 0.0
C555 C 0.53948 0.10373 0.98974 0.0
C556 C 0.53141 0.12332 0.98482 0.0
H557 H 0.53734 0.06764 0.94035 0.0
C558 C 0.51779 0.1235 0.92056 0.0
H559 H 0.55008 0.10319 0.03863 0.0
C560 C 0.51066 0.10336 0.8642 0.0
C561 C 0.51672 0.08236 0.87117 0.0
H562 H 0.51176 0.13869 0.9149 0.0
H563 H 0.49902 0.1034 0.81686 0.0
C564 C 0.53211 0.08335 0.93349 0.0
C565 C 0.38415 0.44815 0.91714 0.0
C566 C 0.39314 0.4731 0.95798 0.0
H567 H 0.39378 0.42572 0.84048 0.0
C568 C 0.4202 0.49409 0.95805 0.0
H569 H 0.3634 0.43166 0.91657 0.0
C570 C 0.43779 0.49049 0.91591 0.0
C571 C 0.42836 0.46605 0.87207 0.0
H572 H 0.42762 0.51338 0.99003 0.0
H573 H 0.45828 0.50731 0.91474 0.0
C574 C 0.40154 0.44475 0.87398 0.0
C575 C 0.90376 0.42357 0.89357 0.0
C576 C 0.89322 0.39509 0.88268 0.0
H577 H 0.93086 0.46311 0.86009 0.0
C578 C 0.89815 0.38454 0.8193 0.0
H579 H 0.89973 0.43238 0.94069 0.0
C580 C 0.91563 0.40215 0.77242 0.0
C581 C 0.92885 0.43073 0.78822 0.0
H582 H 0.89047 0.3628 0.80876 0.0
H583 H 0.92055 0.39326 0.72721 0.0
C584 C 0.92147 0.44122 0.84699 0.0
C585 C 0.92365 0.52111 0.77879 0.0
C586 C 0.92951 0.54737 0.8055 0.0
H587 H 0.937 0.49763 0.71783 0.0
C588 C 0.95485 0.57005 0.79606 0.0
H589 H 0.90442 0.50321 0.78594 0.0
C590 C 0.97327 0.56689 0.75745 0.0
C591 C 0.96701 0.54092 0.7279 0.0
H592 H 0.96054 0.59043 0.81853 0.0
H593 H 0.99233 0.58494 0.74974 0.0
C594 C 0.94234 0.51789 0.74033 0.0
C595 C 0.34988 0.94576 0.82323 0.0
C596 C 0.34993 0.95664 0.89246 0.0
H597 H 0.37244 0.95023 0.73203 0.0
C598 C 0.37106 0.98306 0.91743 0.0
H599 H 0.33378 0.92554 0.80245 0.0
C600 C 0.39297 0.99711 0.87704 0.0
C601 C 0.39388 0.98518 0.81072 0.0
H602 H 0.37189 0.99189 0.97084 0.0
H603 H 0.41016 0.0163 0.90012 0.0
C604 C 0.37177 0.95995 0.78263 0.0
C605 C 0.44445 0.35124 0.80632 0.0
C606 C 0.4674 0.35466 0.8472 0.0
H607 H 0.42889 0.36792 0.72993 0.0
C608 C 0.49312 0.37478 0.83022 0.0
H609 H 0.42432 0.33597 0.81773 0.0
C610 C 0.4957 0.39324 0.78033 0.0
C611 C 0.47264 0.39171 0.74552 0.0
H612 H 0.51127 0.37743 0.85895 0.0
H613 H 0.51569 0.41002 0.77322 0.0
C614 C 0.44706 0.36952 0.75554 0.0
C615 C 0.0562 0.40714 0.87267 0.0
C616 C 0.0752 0.42662 0.92624 0.0
H617 H 0.02622 0.39893 0.78591 0.0
C618 C 0.07819 0.45273 0.9343 0.0
H619 H 0.05348 0.38677 0.86597 0.0
C620 C 0.06273 0.45946 0.89007 0.0
C621 C 0.04373 0.44029 0.83613 0.0
H622 H 0.09224 0.46798 0.97604 0.0
H623 H 0.06588 0.47997 0.89836 0.0
C624 C 0.04071 0.41406 0.8271 0.0
C625 C 0.6115 0.04456 0.87002 0.0
C626 C 0.61691 0.07108 0.89223 0.0
H627 H 0.58712 0.00793 0.80069 0.0
C628 C 0.59918 0.07965 0.86574 0.0
H629 H 0.62406 0.03682 0.89119 0.0
C630 C 0.57741 0.06262 0.81556 0.0
C631 C 0.57327 0.03695 0.79005 0.0
H632 H 0.60268 0.09992 0.88134 0.0
H633 H 0.56484 0.07025 0.79366 0.0
C634 C 0.59009 0.02781 0.81896 0.0
C635 C 0.56877 0.61714 0.81123 0.0
C636 C 0.54854 0.62293 0.82982 0.0
H637 H 0.57742 0.58809 0.75886 0.0
C638 C 0.52204 0.60603 0.79719 0.0
H639 H 0.58949 0.62997 0.83385 0.0
C640 C 0.51551 0.58275 0.75234 0.0
C641 C 0.53521 0.57578 0.73967 0.0
H642 H 0.50572 0.60935 0.81063 0.0
H643 H 0.49455 0.5689 0.73282 0.0
C644 C 0.56205 0.59349 0.76727 0.0
C645 C 0.48706 0.097 0.43079 0.0
C646 C 0.50935 0.12306 0.45342 0.0
H647 H 0.46712 0.0541 0.44229 0.0
C648 C 0.52528 0.12603 0.51696 0.0
H649 H 0.47433 0.09352 0.38216 0.0
C650 C 0.5211 0.10298 0.55131 0.0
C651 C 0.5008 0.07681 0.52285 0.0
H652 H 0.54215 0.14587 0.53723 0.0
H653 H 0.53533 0.10537 0.59538 0.0
C654 C 0.48283 0.0742 0.46532 0.0
C655 C 0.3874 0.46485 0.39173 0.0
C656 C 0.394 0.49177 0.37971 0.0
H657 H 0.39839 0.43916 0.44664 0.0
C658 C 0.41809 0.51378 0.41407 0.0
H659 H 0.36951 0.44731 0.36453 0.0
C660 C 0.4351 0.50896 0.45917 0.0
C661 C 0.42809 0.48208 0.472 0.0
H662 H 0.42376 0.53477 0.40685 0.0
H663 H 0.4534 0.52632 0.48548 0.0
C664 C 0.4041 0.46008 0.43805 0.0
C665 C 0.92776 0.38458 0.42271 0.0
C666 C 0.91 0.38617 0.37078 0.0
H667 H 0.96191 0.40698 0.5014 0.0
C668 C 0.91052 0.41115 0.36703 0.0
H669 H 0.92768 0.36556 0.42735 0.0
C670 C 0.92987 0.43448 0.40911 0.0
C671 C 0.94897 0.43337 0.45634 0.0
H672 H 0.89755 0.4134 0.32724 0.0
H673 H 0.93109 0.45388 0.40112 0.0
C674 C 0.94714 0.40811 0.46551 0.0
C675 C 0.52556 0.89326 0.37872 0.0
C676 C 0.51096 0.88839 0.31155 0.0
H677 H 0.53615 0.91396 0.48436 0.0
C678 C 0.49116 0.89606 0.30561 0.0
H679 H 0.5403 0.88678 0.38609 0.0
C680 C 0.48825 0.91096 0.36259 0.0
C681 C 0.50541 0.91899 0.42642 0.0
H682 H 0.4794 0.89268 0.25515 0.0
H683 H 0.47427 0.91836 0.35394 0.0
C684 C 0.52286 0.90847 0.43562 0.0
C685 C 0.62588 0.53626 0.29255 0.0
C686 C 0.64875 0.56262 0.30168 0.0
H687 H 0.58625 0.50944 0.32227 0.0
C688 C 0.64956 0.58217 0.35266 0.0
H689 H 0.62455 0.52094 0.2528 0.0
C690 C 0.62755 0.57553 0.39293 0.0
C691 C 0.60425 0.54946 0.38147 0.0
H692 H 0.66699 0.60266 0.36035 0.0
H693 H 0.62842 0.59103 0.43116 0.0
C694 C 0.60381 0.52981 0.33167 0.0
C695 C 0.11504 0.65122 0.41876 0.0
C696 C 0.12797 0.64443 0.36637 0.0
H697 H 0.08857 0.63753 0.50244 0.0
C698 C 0.1284 0.61986 0.36992 0.0
H699 H 0.11412 0.66984 0.4183 0.0
C700 C 0.11316 0.60097 0.41774 0.0
C701 C 0.09761 0.60647 0.46399 0.0
H702 H 0.13898 0.61432 0.33242 0.0
H703 H 0.11184 0.58117 0.41442 0.0
C704 C 0.10026 0.63257 0.4675 0.0
loop_
_geom_bond_atom_site_label_1
_geom_bond_atom_site_label_2
_geom_bond_distance
_geom_bond_site_symmetry_2
_ccdc_geom_bond_type
H0 C27 0.929 . S
N1 C26 1.433 . S
N1 C32 1.435 . S
N1 C38 1.423 . S
H2 C28 0.930 . S
H3 C31 0.931 . S
H4 C30 0.929 . S
H5 C33 0.930 . S
H6 C34 0.932 . S
H7 C37 0.929 . S
H8 C36 0.931 1_556 S
H9 C39 0.929 . S
H10 C43 0.932 . S
H11 C40 0.931 . S
H12 C42 0.929 . S
H13 C45 0.929 . S
H14 C46 0.930 . S
H15 C48 0.929 . S
H16 C49 0.931 . S
H17 C51 0.930 . S
H18 C52 0.932 . S
H19 C54 0.931 1_556 S
H20 C55 0.929 . S
H21 C57 0.929 . S
H22 C58 0.931 . S
H23 C60 0.929 . S
N24 C44 1.433 . S
N24 C50 1.435 . S
N24 C56 1.423 . S
H25 C61 0.932 . S
C26 N1 1.433 . S
C26 C27 1.363 . S
C26 C31 1.370 . S
C27 H0 0.929 . S
C27 C26 1.363 . S
C27 C28 1.385 . S
C28 H2 0.930 . S
C28 C27 1.385 . S
C28 C29 1.357 . S
C29 C28 1.357 . S
C29 C30 1.406 . S
C30 H4 0.929 . S
C30 C29 1.406 . S
C30 C31 1.391 . S
C31 H3 0.931 . S
C31 C26 1.370 . S
C31 C30 1.391 . S
C32 N1 1.435 . S
C32 C33 1.358 . S
C32 C37 1.371 . S
C33 H5 0.930 . S
C33 C32 1.358 . S
C33 C34 1.405 . S
C34 H6 0.932 . S
C34 C33 1.405 . S
C34 C35 1.383 . S
C35 C34 1.383 . S
C35 C36 1.393 . S
C36 H8 0.931 1_554 S
C36 C35 1.393 . S
C36 C37 1.382 . S
C37 H7 0.929 . S
C37 C32 1.371 . S
C37 C36 1.382 . S
C38 N1 1.423 . S
C38 C39 1.362 . S
C38 C43 1.388 . S
C39 H9 0.929 . S
C39 C38 1.362 . S
C39 C40 1.376 . S
C40 H11 0.931 . S
C40 C39 1.376 . S
C40 C41 1.396 . S
C41 C40 1.396 . S
C41 C42 1.348 . S
C41 C59 1.472 . S
C42 H12 0.929 . S
C42 C41 1.348 . S
C42 C43 1.443 . S
C43 H10 0.932 . S
C43 C38 1.388 . S
C43 C42 1.443 . S
C44 N24 1.433 . S
C44 C45 1.363 . S
C44 C49 1.370 . S
C45 H13 0.929 . S
C45 C44 1.363 . S
C45 C46 1.385 . S
C46 H14 0.930 . S
C46 C45 1.385 . S
C46 C47 1.357 . S
C47 C46 1.357 . S
C47 C48 1.406 . S
C48 H15 0.929 . S
C48 C47 1.406 . S
C48 C49 1.391 . S
C49 H16 0.931 . S
C49 C44 1.370 . S
C49 C48 1.391 . S
C50 N24 1.435 . S
C50 C51 1.358 . S
C50 C55 1.371 . S
C51 H17 0.930 . S
C51 C50 1.358 . S
C51 C52 1.405 . S
C52 H18 0.932 . S
C52 C51 1.405 . S
C52 C53 1.383 . S
C53 C52 1.383 . S
C53 C54 1.393 . S
C54 H19 0.931 1_554 S
C54 C53 1.393 . S
C54 C55 1.382 . S
C55 H20 0.929 . S
C55 C50 1.371 . S
C55 C54 1.382 . S
C56 N24 1.423 . S
C56 C57 1.362 . S
C56 C61 1.388 . S
C57 H21 0.929 . S
C57 C56 1.362 . S
C57 C58 1.376 . S
C58 H22 0.931 . S
C58 C57 1.376 . S
C58 C59 1.396 . S
C59 C41 1.472 . S
C59 C58 1.396 . S
C59 C60 1.348 . S
C60 H23 0.929 . S
C60 C59 1.348 . S
C60 C61 1.443 . S
C61 H25 0.932 . S
C61 C56 1.388 . S
C61 C60 1.443 . S
H62 C89 0.929 . S
N63 C88 1.433 . S
N63 C94 1.435 . S
N63 C100 1.423 . S
H64 C90 0.930 . S
H65 C93 0.931 . S
H66 C92 0.929 . S
H67 C95 0.930 . S
H68 C96 0.932 . S
H69 C99 0.929 . S
H70 C98 0.931 . S
H71 C101 0.929 . S
H72 C105 0.932 . S
H73 C102 0.931 . S
H74 C104 0.929 1_556 S
H75 C107 0.929 . S
H76 C108 0.930 . S
H77 C110 0.929 . S
H78 C111 0.931 . S
H79 C113 0.930 . S
H80 C114 0.932 1_554 S
H81 C116 0.931 . S
H82 C117 0.929 . S
H83 C119 0.929 . S
H84 C120 0.931 . S
H85 C122 0.925 1_556 S
N86 C106 1.433 . S
N86 C112 1.435 . S
N86 C118 1.423 . S
H87 C123 0.932 . S
C88 N63 1.433 . S
C88 C89 1.363 . S
C88 C93 1.370 . S
C89 H62 0.929 . S
C89 C88 1.363 . S
C89 C90 1.385 . S
C90 H64 0.930 . S
C90 C89 1.385 . S
C90 C91 1.357 . S
C91 C90 1.357 . S
C91 C92 1.406 . S
C92 H66 0.929 . S
C92 C91 1.406 . S
C92 C93 1.391 . S
C93 H65 0.931 . S
C93 C88 1.370 . S
C93 C92 1.391 . S
C94 N63 1.435 . S
C94 C95 1.358 . S
C94 C99 1.371 1_554 S
C95 H67 0.930 . S
C95 C94 1.358 . S
C95 C96 1.405 1_554 S
C96 H68 0.932 . S
C96 C95 1.405 1_556 S
C96 C97 1.383 . S
C97 C96 1.383 . S
C97 C98 1.393 . S
C98 H70 0.931 . S
C98 C97 1.393 . S
C98 C99 1.382 . S
C99 H69 0.929 . S
C99 C94 1.371 1_556 S
C99 C98 1.382 . S
C100 N63 1.423 . S
C100 C101 1.362 . S
C100 C105 1.388 . S
C101 H71 0.929 . S
C101 C100 1.362 . S
C101 C102 1.376 . S
C102 H73 0.931 . S
C102 C101 1.376 . S
C102 C103 1.396 . S
C103 C102 1.396 . S
C103 C104 1.348 . S
C103 C121 1.472 . S
C104 H74 0.929 1_554 S
C104 C103 1.348 . S
C104 C105 1.443 . S
C105 H72 0.932 . S
C105 C100 1.388 . S
C105 C104 1.443 . S
C106 N86 1.433 . S
C106 C107 1.363 . S
C106 C111 1.370 . S
C107 H75 0.929 . S
C107 C106 1.363 . S
C107 C108 1.385 . S
C108 H76 0.930 . S
C108 C107 1.385 . S
C108 C109 1.357 . S
C109 C108 1.357 . S
C109 C110 1.406 . S
C110 H77 0.929 . S
C110 C109 1.406 . S
C110 C111 1.391 . S
C111 H78 0.931 . S
C111 C106 1.370 . S
C111 C110 1.391 . S
C112 N86 1.435 . S
C112 C113 1.358 . S
C112 C117 1.371 1_554 S
C113 H79 0.930 . S
C113 C112 1.358 . S
C113 C114 1.396 1_554 S
C114 H80 0.932 1_556 S
C114 C113 1.396 1_556 S
C114 C115 1.393 . S
C115 C114 1.393 . S
C115 C116 1.393 . S
C116 H81 0.931 . S
C116 C115 1.393 . S
C116 C117 1.382 . S
C117 H82 0.929 . S
C117 C112 1.371 1_556 S
C117 C116 1.382 . S
C118 N86 1.423 . S
C118 C119 1.362 . S
C118 C123 1.388 . S
C119 H83 0.929 . S
C119 C118 1.362 . S
C119 C120 1.376 . S
C120 H84 0.931 . S
C120 C119 1.376 . S
C120 C121 1.396 . S
C121 C103 1.472 . S
C121 C120 1.396 . S
C121 C122 1.348 . S
C122 H85 0.925 1_554 S
C122 C121 1.348 . S
C122 C123 1.443 . S
C123 H87 0.932 . S
C123 C118 1.388 . S
C123 C122 1.443 . S
H124 C151 0.929 . S
N125 C150 1.433 1_554 S
N125 C156 1.435 . S
N125 C162 1.423 . S
H126 C152 0.930 . S
H127 C155 0.931 . S
H128 C154 0.929 . S
H129 C157 0.930 . S
H130 C158 0.932 . S
H131 C161 0.929 . S
H132 C160 0.931 . S
H133 C163 0.929 1_556 S
H134 C167 0.932 . S
H135 C164 0.931 1_556 S
H136 C166 0.929 . S
H137 C169 0.929 . S
H138 C170 0.930 . S
H139 C172 0.929 . S
H140 C173 0.931 . S
H141 C175 0.930 . S
H142 C176 0.932 . S
H143 C178 0.931 . S
H144 C179 0.929 . S
H145 C181 0.929 1_556 S
H146 C182 0.931 1_556 S
H147 C184 0.929 . S
N148 C168 1.433 1_554 S
N148 C174 1.435 . S
N148 C180 1.423 . S
H149 C185 0.932 . S
C150 N125 1.433 1_556 S
C150 C151 1.363 . S
C150 C155 1.370 . S
C151 H124 0.929 . S
C151 C150 1.363 . S
C151 C152 1.385 . S
C152 H126 0.930 . S
C152 C151 1.385 . S
C152 C153 1.357 . S
C153 C152 1.357 . S
C153 C154 1.406 . S
C154 H128 0.929 . S
C154 C153 1.406 . S
C154 C155 1.391 . S
C155 H127 0.931 . S
C155 C150 1.370 . S
C155 C154 1.391 . S
C156 N125 1.435 . S
C156 C157 1.358 . S
C156 C161 1.371 . S
C157 H129 0.930 . S
C157 C156 1.358 . S
C157 C158 1.405 . S
C158 H130 0.932 . S
C158 C157 1.405 . S
C158 C159 1.383 . S
C159 C158 1.383 . S
C159 C160 1.393 . S
C160 H132 0.931 . S
C160 C159 1.393 . S
C160 C161 1.382 . S
C161 H131 0.929 . S
C161 C156 1.371 . S
C161 C160 1.382 . S
C162 N125 1.423 . S
C162 C163 1.362 . S
C162 C167 1.388 . S
C163 H133 0.929 1_554 S
C163 C162 1.362 . S
C163 C164 1.376 . S
C164 H135 0.931 1_554 S
C164 C163 1.376 . S
C164 C165 1.396 . S
C165 C164 1.396 . S
C165 C166 1.348 . S
C165 C183 1.472 . S
C166 H136 0.929 . S
C166 C165 1.348 . S
C166 C167 1.443 . S
C167 H134 0.932 . S
C167 C162 1.388 . S
C167 C166 1.443 . S
C168 N148 1.433 1_556 S
C168 C169 1.363 . S
C168 C173 1.370 . S
C169 H137 0.929 . S
C169 C168 1.363 . S
C169 C170 1.385 . S
C170 H138 0.930 . S
C170 C169 1.385 . S
C170 C171 1.357 . S
C171 C170 1.357 . S
C171 C172 1.406 . S
C172 H139 0.929 . S
C172 C171 1.406 . S
C172 C173 1.391 . S
C173 H140 0.931 . S
C173 C168 1.370 . S
C173 C172 1.391 . S
C174 N148 1.435 . S
C174 C175 1.358 . S
C174 C179 1.371 . S
C175 H141 0.930 . S
C175 C174 1.358 . S
C175 C176 1.405 . S
C176 H142 0.932 . S
C176 C175 1.405 . S
C176 C177 1.383 . S
C177 C176 1.383 . S
C177 C178 1.393 . S
C178 H143 0.931 . S
C178 C177 1.393 . S
C178 C179 1.382 . S
C179 H144 0.929 . S
C179 C174 1.371 . S
C179 C178 1.382 . S
C180 N148 1.423 . S
C180 C181 1.362 . S
C180 C185 1.388 . S
C181 H145 0.929 1_554 S
C181 C180 1.362 . S
C181 C182 1.376 . S
C182 H146 0.931 1_554 S
C182 C181 1.376 . S
C182 C183 1.396 . S
C183 C165 1.472 . S
C183 C182 1.396 . S
C183 C184 1.348 . S
C184 H147 0.929 . S
C184 C183 1.348 . S
C184 C185 1.443 . S
C185 H149 0.932 . S
C185 C180 1.388 . S
C185 C184 1.443 . S
H186 C213 0.929 . S
N187 C212 1.433 . S
N187 C218 1.435 1_554 S
N187 C224 1.423 . S
H188 C214 0.930 . S
H189 C217 0.931 . S
H190 C216 0.929 . S
H191 C219 0.940 . S
H192 C220 0.932 . S
H193 C223 0.929 . S
H194 C222 0.931 . S
H195 C225 0.929 . S
H196 C229 0.932 . S
H197 C226 0.931 . S
H198 C228 0.929 . S
H199 C231 0.929 . S
H200 C232 0.930 . S
H201 C234 0.929 . S
H202 C235 0.931 . S
H203 C237 0.930 . S
H204 C238 0.932 . S
H205 C240 0.931 . S
H206 C241 0.929 . S
H207 C243 0.929 . S
H208 C244 0.931 . S
H209 C246 0.929 . S
N210 C230 1.433 . S
N210 C236 1.435 1_554 S
N210 C242 1.423 . S
H211 C247 0.932 . S
C212 N187 1.433 . S
C212 C213 1.363 . S
C212 C217 1.370 . S
C213 H186 0.929 . S
C213 C212 1.363 . S
C213 C214 1.385 . S
C214 H188 0.930 . S
C214 C213 1.385 . S
C214 C215 1.357 . S
C215 C214 1.357 . S
C215 C216 1.406 . S
C216 H190 0.929 . S
C216 C215 1.406 . S
C216 C217 1.391 . S
C217 H189 0.931 . S
C217 C212 1.370 . S
C217 C216 1.391 . S
C218 N187 1.435 1_556 S
C218 C219 1.358 . S
C218 C223 1.371 . S
C219 H191 0.940 . S
C219 C218 1.358 . S
C219 C220 1.405 . S
C220 H192 0.932 . S
C220 C219 1.405 . S
C220 C221 1.383 . S
C221 C220 1.383 . S
C221 C222 1.393 . S
C222 H194 0.931 . S
C222 C221 1.393 . S
C222 C223 1.382 . S
C223 H193 0.929 . S
C223 C218 1.371 . S
C223 C222 1.382 . S
C224 N187 1.423 . S
C224 C225 1.362 . S
C224 C229 1.388 1_554 S
C225 H195 0.929 . S
C225 C224 1.362 . S
C225 C226 1.376 . S
C226 H197 0.931 . S
C226 C225 1.376 . S
C226 C227 1.396 . S
C227 C226 1.396 . S
C227 C228 1.348 1_554 S
C227 C245 1.472 . S
C228 H198 0.929 . S
C228 C227 1.348 1_556 S
C228 C229 1.443 . S
C229 H196 0.932 . S
C229 C224 1.388 1_556 S
C229 C228 1.443 . S
C230 N210 1.433 . S
C230 C231 1.363 . S
C230 C235 1.370 . S
C231 H199 0.929 . S
C231 C230 1.363 . S
C231 C232 1.385 . S
C232 H200 0.930 . S
C232 C231 1.385 . S
C232 C233 1.357 . S
C233 C232 1.357 . S
C233 C234 1.406 . S
C234 H201 0.929 . S
C234 C233 1.406 . S
C234 C235 1.391 . S
C235 H202 0.931 . S
C235 C230 1.370 . S
C235 C234 1.391 . S
C236 N210 1.435 1_556 S
C236 C237 1.358 . S
C236 C241 1.371 . S
C237 H203 0.930 . S
C237 C236 1.358 . S
C237 C238 1.405 . S
C238 H204 0.932 . S
C238 C237 1.405 . S
C238 C239 1.383 . S
C239 C238 1.383 . S
C239 C240 1.393 . S
C240 H205 0.931 . S
C240 C239 1.393 . S
C240 C241 1.382 . S
C241 H206 0.929 . S
C241 C236 1.371 . S
C241 C240 1.382 . S
C242 N210 1.423 . S
C242 C243 1.362 . S
C242 C247 1.388 1_554 S
C243 H207 0.929 . S
C243 C242 1.362 . S
C243 C244 1.376 . S
C244 H208 0.931 . S
C244 C243 1.376 . S
C244 C245 1.396 . S
C245 C227 1.472 . S
C245 C244 1.396 . S
C245 C246 1.348 1_554 S
C246 H209 0.929 . S
C246 C245 1.348 1_556 S
C246 C247 1.443 . S
C247 H211 0.932 . S
C247 C242 1.388 1_556 S
C247 C246 1.443 . S
H248 C275 0.929 . S
N249 C274 1.433 . S
N249 C280 1.435 . S
N249 C286 1.423 . S
H250 C276 0.930 . S
H251 C279 0.931 . S
H252 C278 0.929 . S
H253 C281 0.930 . S
H254 C282 0.932 . S
H255 C285 0.929 . S
H256 C284 0.931 . S
H257 C287 0.929 . S
H258 C291 0.932 . S
H259 C288 0.931 . S
H260 C290 0.929 . S
H261 C293 0.929 . S
H262 C294 0.930 . S
H263 C296 0.929 . S
H264 C297 0.931 . S
H265 C299 0.930 . S
H266 C300 0.932 . S
H267 C302 0.931 . S
H268 C303 0.929 1_556 S
H269 C305 0.929 . S
H270 C306 0.931 . S
H271 C308 0.929 . S
N272 C292 1.433 . S
N272 C298 1.435 . S
N272 C304 1.423 . S
H273 C309 0.932 . S
C274 N249 1.433 . S
C274 C275 1.363 . S
C274 C279 1.370 . S
C275 H248 0.929 . S
C275 C274 1.363 . S
C275 C276 1.385 . S
C276 H250 0.930 . S
C276 C275 1.385 . S
C276 C277 1.357 . S
C277 C276 1.357 . S
C277 C278 1.406 . S
C278 H252 0.929 . S
C278 C277 1.406 . S
C278 C279 1.391 . S
C279 H251 0.931 . S
C279 C274 1.370 . S
C279 C278 1.391 . S
C280 N249 1.435 . S
C280 C281 1.358 . S
C280 C285 1.371 1_554 S
C281 H253 0.930 . S
C281 C280 1.358 . S
C281 C282 1.405 1_554 S
C282 H254 0.932 . S
C282 C281 1.405 1_556 S
C282 C283 1.383 . S
C283 C282 1.383 . S
C283 C284 1.393 . S
C284 H256 0.931 . S
C284 C283 1.393 . S
C284 C285 1.382 . S
C285 H255 0.929 . S
C285 C280 1.371 1_556 S
C285 C284 1.382 . S
C286 N249 1.423 . S
C286 C287 1.362 . S
C286 C291 1.388 . S
C287 H257 0.929 . S
C287 C286 1.362 . S
C287 C288 1.376 . S
C288 H259 0.931 . S
C288 C287 1.376 . S
C288 C289 1.396 . S
C289 C288 1.396 . S
C289 C290 1.348 . S
C289 C307 1.472 . S
C290 H260 0.929 . S
C290 C289 1.348 . S
C290 C291 1.443 . S
C291 H258 0.932 . S
C291 C286 1.388 . S
C291 C290 1.443 . S
C292 N272 1.433 . S
C292 C293 1.363 . S
C292 C297 1.370 . S
C293 H261 0.929 . S
C293 C292 1.363 . S
C293 C294 1.385 . S
C294 H262 0.930 . S
C294 C293 1.385 . S
C294 C295 1.357 . S
C295 C294 1.357 . S
C295 C296 1.406 . S
C296 H263 0.929 . S
C296 C295 1.406 . S
C296 C297 1.391 . S
C297 H264 0.931 . S
C297 C292 1.370 . S
C297 C296 1.391 . S
C298 N272 1.435 . S
C298 C299 1.358 . S
C298 C303 1.371 . S
C299 H265 0.930 . S
C299 C298 1.358 . S
C299 C300 1.405 . S
C300 H266 0.932 . S
C300 C299 1.405 . S
C300 C301 1.383 1_554 S
C301 C300 1.383 1_556 S
C301 C302 1.393 . S
C302 H267 0.931 . S
C302 C301 1.393 . S
C302 C303 1.382 1_556 S
C303 H268 0.929 1_554 S
C303 C298 1.371 . S
C303 C302 1.382 1_554 S
C304 N272 1.423 . S
C304 C305 1.362 . S
C304 C309 1.388 . S
C305 H269 0.929 . S
C305 C304 1.362 . S
C305 C306 1.376 . S
C306 H270 0.931 . S
C306 C305 1.376 . S
C306 C307 1.396 . S
C307 C289 1.472 . S
C307 C306 1.396 . S
C307 C308 1.348 . S
C308 H271 0.929 . S
C308 C307 1.348 . S
C308 C309 1.443 . S
C309 H273 0.932 . S
C309 C304 1.388 . S
C309 C308 1.443 . S
H310 C337 0.929 . S
N311 C336 1.433 . S
N311 C342 1.435 . S
N311 C348 1.423 . S
H312 C338 0.930 . S
H313 C341 0.931 . S
H314 C340 0.928 1_556 S
H315 C343 0.930 . S
H316 C344 0.932 . S
H317 C347 0.929 . S
H318 C346 0.931 . S
H319 C349 0.929 . S
H320 C353 0.932 . S
H321 C350 0.931 . S
H322 C352 0.929 . S
H323 C355 0.929 . S
H324 C356 0.930 . S
H325 C358 0.929 . S
H326 C359 0.931 . S
H327 C361 0.930 . S
H328 C362 0.932 . S
H329 C364 0.931 . S
H330 C365 0.929 . S
H331 C367 0.929 . S
H332 C368 0.931 . S
H333 C370 0.929 . S
N334 C354 1.433 . S
N334 C360 1.435 . S
N334 C366 1.423 . S
H335 C371 0.932 . S
C336 N311 1.433 . S
C336 C337 1.363 . S
C336 C341 1.370 . S
C337 H310 0.929 . S
C337 C336 1.363 . S
C337 C338 1.385 . S
C338 H312 0.930 . S
C338 C337 1.385 . S
C338 C339 1.357 1_554 S
C339 C338 1.357 1_556 S
C339 C340 1.406 1_556 S
C340 H314 0.928 1_554 S
C340 C339 1.406 1_554 S
C340 C341 1.393 . S
C341 H313 0.931 . S
C341 C336 1.370 . S
C341 C340 1.393 . S
C342 N311 1.435 . S
C342 C343 1.358 . S
C342 C347 1.371 . S
C343 H315 0.930 . S
C343 C342 1.358 . S
C343 C344 1.405 . S
C344 H316 0.932 . S
C344 C343 1.405 . S
C344 C345 1.383 . S
C345 C344 1.383 . S
C345 C346 1.393 . S
C346 H318 0.931 . S
C346 C345 1.393 . S
C346 C347 1.382 . S
C347 H317 0.929 . S
C347 C342 1.371 . S
C347 C346 1.382 . S
C348 N311 1.423 . S
C348 C349 1.362 . S
C348 C353 1.388 . S
C349 H319 0.929 . S
C349 C348 1.362 . S
C349 C350 1.376 . S
C350 H321 0.931 . S
C350 C349 1.376 . S
C350 C351 1.396 . S
C351 C350 1.396 . S
C351 C352 1.348 . S
C351 C369 1.472 . S
C352 H322 0.929 . S
C352 C351 1.348 . S
C352 C353 1.443 . S
C353 H320 0.932 . S
C353 C348 1.388 . S
C353 C352 1.443 . S
C354 N334 1.433 . S
C354 C355 1.363 . S
C354 C359 1.370 . S
C355 H323 0.929 . S
C355 C354 1.363 . S
C355 C356 1.385 . S
C356 H324 0.930 . S
C356 C355 1.385 . S
C356 C357 1.357 1_554 S
C357 C356 1.357 1_556 S
C357 C358 1.406 . S
C358 H325 0.929 . S
C358 C357 1.406 . S
C358 C359 1.391 1_556 S
C359 H326 0.931 . S
C359 C354 1.370 . S
C359 C358 1.391 1_554 S
C360 N334 1.435 . S
C360 C361 1.358 . S
C360 C365 1.371 . S
C361 H327 0.930 . S
C361 C360 1.358 . S
C361 C362 1.405 . S
C362 H328 0.932 . S
C362 C361 1.405 . S
C362 C363 1.383 . S
C363 C362 1.383 . S
C363 C364 1.393 . S
C364 H329 0.931 . S
C364 C363 1.393 . S
C364 C365 1.382 . S
C365 H330 0.929 . S
C365 C360 1.371 . S
C365 C364 1.382 . S
C366 N334 1.423 . S
C366 C367 1.362 . S
C366 C371 1.388 . S
C367 H331 0.929 . S
C367 C366 1.362 . S
C367 C368 1.376 . S
C368 H332 0.931 . S
C368 C367 1.376 . S
C368 C369 1.396 . S
C369 C351 1.472 . S
C369 C368 1.396 . S
C369 C370 1.348 . S
C370 H333 0.929 . S
C370 C369 1.348 . S
C370 C371 1.443 . S
C371 H335 0.932 . S
C371 C366 1.388 . S
C371 C370 1.443 . S
C372 O399 1.312 . S
C372 O400 1.208 . S
C373 O394 1.331 . S
C373 O397 1.244 . S
C374 O396 1.264 . S
C374 O398 1.273 . S
Mg375 O377 1.936 1_455 S
Mg375 O384 2.081 1_455 S
Mg375 O386 2.023 . S
Mg375 O390 2.031 1_455 S
Mg375 O399 2.291 . S
Mg376 O377 1.963 . S
Mg376 O387 1.942 . S
Mg376 O388 1.955 1_655 S
Mg376 O395 1.986 . S
O377 Mg375 1.936 1_655 S
O377 Mg376 1.963 . S
O377 Mg378 1.915 1_655 S
Mg378 O377 1.915 1_455 S
Mg378 O379 1.915 . S
Mg378 O383 2.013 . S
Mg378 O389 2.114 1_455 S
Mg378 O393 2.013 1_455 S
Mg378 O399 2.114 . S
O379 Mg378 1.915 . S
O379 Mg380 1.936 . S
O379 Mg381 1.963 . S
Mg380 O379 1.936 . S
Mg380 O389 2.291 1_455 S
Mg380 O394 2.081 . S
Mg380 O396 2.023 1_455 S
Mg380 O400 2.031 . S
Mg381 O379 1.963 . S
Mg381 O385 1.986 . S
Mg381 O397 1.942 . S
Mg381 O398 1.955 1_455 S
C382 O393 1.191 . S
C382 O395 1.307 . S
O383 Mg378 2.013 . S
O383 C402 1.191 . S
O384 Mg375 2.081 1_655 S
O384 C392 1.331 . S
O385 Mg381 1.986 . S
O385 C402 1.307 . S
O386 Mg375 2.023 . S
O386 C401 1.264 . S
O387 Mg376 1.942 . S
O387 C392 1.244 . S
O388 Mg376 1.955 1_455 S
O388 C401 1.273 . S
O389 Mg378 2.114 1_655 S
O389 Mg380 2.291 1_655 S
O389 C391 1.312 . S
O390 Mg375 2.031 1_655 S
O390 C391 1.208 . S
C391 O389 1.312 . S
C391 O390 1.208 . S
C392 O384 1.331 . S
C392 O387 1.244 . S
O393 Mg378 2.013 1_655 S
O393 C382 1.191 . S
O394 C373 1.331 . S
O394 Mg380 2.081 . S
O395 Mg376 1.986 . S
O395 C382 1.307 . S
O396 C374 1.264 . S
O396 Mg380 2.023 1_655 S
O397 C373 1.244 . S
O397 Mg381 1.942 . S
O398 C374 1.273 . S
O398 Mg381 1.955 1_655 S
O399 C372 1.312 . S
O399 Mg375 2.291 . S
O399 Mg378 2.114 . S
O400 C372 1.208 . S
O400 Mg380 2.031 . S
C401 O386 1.264 . S
C401 O388 1.273 . S
C402 O383 1.191 . S
C402 O385 1.307 . S
C403 O430 1.312 . S
C403 O431 1.208 . S
C404 O425 1.331 . S
C404 O428 1.244 . S
C405 O427 1.264 . S
C405 O429 1.273 . S
Mg406 O408 1.936 1_545 S
Mg406 O415 2.081 1_545 S
Mg406 O417 2.023 . S
Mg406 O421 2.031 1_545 S
Mg406 O430 2.291 . S
Mg407 O408 1.963 . S
Mg407 O418 1.942 . S
Mg407 O419 1.955 1_565 S
Mg407 O426 1.986 . S
O408 Mg406 1.936 1_565 S
O408 Mg407 1.963 . S
O408 Mg409 1.915 1_565 S
Mg409 O408 1.915 1_545 S
Mg409 O410 1.915 . S
Mg409 O414 2.013 . S
Mg409 O420 2.114 1_545 S
Mg409 O424 2.013 1_545 S
Mg409 O430 2.114 . S
O410 Mg409 1.915 . S
O410 Mg411 1.936 . S
O410 Mg412 1.963 . S
Mg411 O410 1.936 . S
Mg411 O420 2.291 1_545 S
Mg411 O425 2.081 . S
Mg411 O427 2.023 1_545 S
Mg411 O431 2.031 . S
Mg412 O410 1.963 . S
Mg412 O416 1.986 . S
Mg412 O428 1.942 . S
Mg412 O429 1.955 1_545 S
C413 O424 1.191 . S
C413 O426 1.307 . S
O414 Mg409 2.013 . S
O414 C433 1.191 . S
O415 Mg406 2.081 1_565 S
O415 C423 1.331 . S
O416 Mg412 1.986 . S
O416 C433 1.307 . S
O417 Mg406 2.023 . S
O417 C432 1.264 . S
O418 Mg407 1.942 . S
O418 C423 1.244 . S
O419 Mg407 1.955 1_545 S
O419 C432 1.273 . S
O420 Mg409 2.114 1_565 S
O420 Mg411 2.291 1_565 S
O420 C422 1.312 . S
O421 Mg406 2.031 1_565 S
O421 C422 1.208 . S
C422 O420 1.312 . S
C422 O421 1.208 . S
C423 O415 1.331 . S
C423 O418 1.244 . S
O424 Mg409 2.013 1_565 S
O424 C413 1.191 . S
O425 C404 1.331 . S
O425 Mg411 2.081 . S
O426 Mg407 1.986 . S
O426 C413 1.307 . S
O427 C405 1.264 . S
O427 Mg411 2.023 1_565 S
O428 C404 1.244 . S
O428 Mg412 1.942 . S
O429 C405 1.273 . S
O429 Mg412 1.955 1_565 S
O430 C403 1.312 . S
O430 Mg406 2.291 . S
O430 Mg409 2.114 . S
O431 C403 1.208 . S
O431 Mg411 2.031 . S
C432 O417 1.264 . S
C432 O419 1.273 . S
C433 O414 1.191 . S
C433 O416 1.307 . S
C434 O461 1.312 . S
C434 O462 1.208 . S
C435 O456 1.331 . S
C435 O459 1.244 . S
C436 O458 1.264 . S
C436 O460 1.273 . S
Mg437 O439 1.936 . S
Mg437 O446 2.081 . S
Mg437 O448 2.023 . S
Mg437 O452 2.031 . S
Mg437 O461 2.291 . S
Mg438 O439 1.963 . S
Mg438 O449 1.942 . S
Mg438 O450 1.955 . S
Mg438 O457 1.986 . S
O439 Mg437 1.936 . S
O439 Mg438 1.963 . S
O439 Mg440 1.915 . S
Mg440 O439 1.915 . S
Mg440 O441 1.915 . S
Mg440 O445 2.013 . S
Mg440 O451 2.114 . S
Mg440 O455 2.013 . S
Mg440 O461 2.114 . S
O441 Mg440 1.915 . S
O441 Mg442 1.936 . S
O441 Mg443 1.963 . S
Mg442 O441 1.936 . S
Mg442 O451 2.291 . S
Mg442 O456 2.081 . S
Mg442 O458 2.023 . S
Mg442 O462 2.031 . S
Mg443 O441 1.963 . S
Mg443 O447 1.986 . S
Mg443 O459 1.942 . S
Mg443 O460 1.955 . S
C444 O455 1.191 . S
C444 O457 1.307 . S
O445 Mg440 2.013 . S
O445 C464 1.191 . S
O446 Mg437 2.081 . S
O446 C454 1.331 . S
O447 Mg443 1.986 . S
O447 C464 1.307 . S
O448 Mg437 2.023 . S
O448 C463 1.264 . S
O449 Mg438 1.942 . S
O449 C454 1.244 . S
O450 Mg438 1.955 . S
O450 C463 1.273 . S
O451 Mg440 2.114 . S
O451 Mg442 2.291 . S
O451 C453 1.312 . S
O452 Mg437 2.031 . S
O452 C453 1.208 . S
C453 O451 1.312 . S
C453 O452 1.208 . S
C454 O446 1.331 . S
C454 O449 1.244 . S
O455 Mg440 2.013 . S
O455 C444 1.191 . S
O456 C435 1.331 . S
O456 Mg442 2.081 . S
O457 Mg438 1.986 . S
O457 C444 1.307 . S
O458 C436 1.264 . S
O458 Mg442 2.023 . S
O459 C435 1.244 . S
O459 Mg443 1.942 . S
O460 C436 1.273 . S
O460 Mg443 1.955 . S
O461 C434 1.312 . S
O461 Mg437 2.291 . S
O461 Mg440 2.114 . S
O462 C434 1.208 . S
O462 Mg442 2.031 . S
C463 O448 1.264 . S
C463 O450 1.273 . S
C464 O445 1.191 . S
C464 O447 1.307 . S
C465 C466 1.387 . S
C465 H469 0.950 . S
C465 C474 1.390 . S
C466 C465 1.387 . S
C466 C468 1.387 . S
H467 C474 0.950 . S
C468 C466 1.387 . S
C468 C470 1.390 . S
C468 H472 0.950 . S
H469 C465 0.950 . S
C470 C468 1.390 . S
C470 C471 1.387 . S
C470 H473 0.950 . S
C471 C470 1.387 . S
C471 C474 1.387 . S
H472 C468 0.950 . S
H473 C470 0.950 . S
C474 C465 1.390 . S
C474 H467 0.950 . S
C474 C471 1.387 . S
C475 C476 1.387 . S
C475 H479 0.950 . S
C475 C484 1.390 . S
C476 C475 1.387 . S
C476 C478 1.387 . S
H477 C484 0.950 . S
C478 C476 1.387 . S
C478 C480 1.390 . S
C478 H482 0.950 . S
H479 C475 0.950 . S
C480 C478 1.390 . S
C480 C481 1.387 . S
C480 H483 0.950 . S
C481 C480 1.387 . S
C481 C484 1.387 . S
H482 C478 0.950 . S
H483 C480 0.950 . S
C484 C475 1.390 . S
C484 H477 0.950 . S
C484 C481 1.387 . S
C485 C486 1.387 . S
C485 H489 0.950 . S
C485 C494 1.390 . S
C486 C485 1.387 . S
C486 C488 1.387 . S
H487 C494 0.950 . S
C488 C486 1.387 . S
C488 C490 1.390 . S
C488 H492 0.950 . S
H489 C485 0.950 . S
C490 C488 1.390 . S
C490 C491 1.387 . S
C490 H493 0.950 . S
C491 C490 1.387 . S
C491 C494 1.387 . S
H492 C488 0.950 . S
H493 C490 0.950 . S
C494 C485 1.390 . S
C494 H487 0.950 . S
C494 C491 1.387 . S
C495 C496 1.387 . S
C495 H499 0.950 . S
C495 C504 1.390 . S
C496 C495 1.387 . S
C496 C498 1.387 . S
H497 C504 0.950 . S
C498 C496 1.387 . S
C498 C500 1.390 . S
C498 H502 0.950 . S
H499 C495 0.950 . S
C500 C498 1.390 . S
C500 C501 1.387 . S
C500 H503 0.950 . S
C501 C500 1.387 . S
C501 C504 1.387 . S
H502 C498 0.950 . S
H503 C500 0.950 . S
C504 C495 1.390 . S
C504 H497 0.950 . S
C504 C501 1.387 . S
C505 C506 1.387 . S
C505 H509 0.950 . S
C505 C514 1.390 . S
C506 C505 1.387 . S
C506 C508 1.387 . S
H507 C514 0.950 . S
C508 C506 1.387 . S
C508 C510 1.390 . S
C508 H512 0.950 . S
H509 C505 0.950 . S
C510 C508 1.390 . S
C510 C511 1.387 . S
C510 H513 0.950 . S
C511 C510 1.387 . S
C511 C514 1.387 . S
H512 C508 0.950 . S
H513 C510 0.950 . S
C514 C505 1.390 . S
C514 H507 0.950 . S
C514 C511 1.387 . S
C515 C516 1.387 . S
C515 H519 0.950 . S
C515 C524 1.390 . S
C516 C515 1.387 . S
C516 C518 1.387 . S
H517 C524 0.950 . S
C518 C516 1.387 . S
C518 C520 1.390 . S
C518 H522 0.950 . S
H519 C515 0.950 . S
C520 C518 1.390 . S
C520 C521 1.387 . S
C520 H523 0.950 . S
C521 C520 1.387 . S
C521 C524 1.387 . S
H522 C518 0.950 . S
H523 C520 0.950 . S
C524 C515 1.390 . S
C524 H517 0.950 . S
C524 C521 1.387 . S
C525 C526 1.387 . S
C525 H529 0.950 . S
C525 C534 1.390 . S
C526 C525 1.387 . S
C526 C528 1.387 . S
H527 C534 0.950 . S
C528 C526 1.387 . S
C528 C530 1.390 . S
C528 H532 0.950 . S
H529 C525 0.950 . S
C530 C528 1.390 . S
C530 C531 1.387 . S
C530 H533 0.950 . S
C531 C530 1.387 . S
C531 C534 1.387 . S
H532 C528 0.950 . S
H533 C530 0.950 . S
C534 C525 1.390 . S
C534 H527 0.950 . S
C534 C531 1.387 . S
C535 C536 1.387 . S
C535 H539 0.950 . S
C535 C544 1.390 . S
C536 C535 1.387 . S
C536 C538 1.387 . S
H537 C544 0.950 . S
C538 C536 1.387 . S
C538 C540 1.390 . S
C538 H542 0.950 . S
H539 C535 0.950 . S
C540 C538 1.390 . S
C540 C541 1.387 . S
C540 H543 0.950 . S
C541 C540 1.387 . S
C541 C544 1.387 . S
H542 C538 0.950 . S
H543 C540 0.950 . S
C544 C535 1.390 . S
C544 H537 0.950 . S
C544 C541 1.387 . S
C545 C546 1.387 . S
C545 H549 0.950 . S
C545 C554 1.390 . S
C546 C545 1.387 . S
C546 C548 1.387 . S
H547 C554 0.950 . S
C548 C546 1.387 . S
C548 C550 1.390 . S
C548 H552 0.950 . S
H549 C545 0.950 . S
C550 C548 1.390 . S
C550 C551 1.387 . S
C550 H553 0.950 . S
C551 C550 1.387 . S
C551 C554 1.387 . S
H552 C548 0.950 . S
H553 C550 0.950 . S
C554 C545 1.390 . S
C554 H547 0.950 . S
C554 C551 1.387 . S
C555 C556 1.387 . S
C555 H559 0.950 . S
C555 C564 1.390 . S
C556 C555 1.387 . S
C556 C558 1.387 . S
H557 C564 0.950 . S
C558 C556 1.387 . S
C558 C560 1.390 . S
C558 H562 0.950 . S
H559 C555 0.950 . S
C560 C558 1.390 . S
C560 C561 1.387 . S
C560 H563 0.950 . S
C561 C560 1.387 . S
C561 C564 1.387 . S
H562 C558 0.950 . S
H563 C560 0.950 . S
C564 C555 1.390 . S
C564 H557 0.950 . S
C564 C561 1.387 . S
C565 C566 1.387 . S
C565 H569 0.950 . S
C565 C574 1.390 . S
C566 C565 1.387 . S
C566 C568 1.387 . S
H567 C574 0.950 . S
C568 C566 1.387 . S
C568 C570 1.390 . S
C568 H572 0.950 1_556 S
H569 C565 0.950 . S
C570 C568 1.390 . S
C570 C571 1.387 . S
C570 H573 0.950 . S
C571 C570 1.387 . S
C571 C574 1.387 . S
H572 C568 0.950 1_554 S
H573 C570 0.950 . S
C574 C565 1.390 . S
C574 H567 0.950 . S
C574 C571 1.387 . S
C575 C576 1.387 . S
C575 H579 0.950 . S
C575 C584 1.390 . S
C576 C575 1.387 . S
C576 C578 1.387 . S
H577 C584 0.950 . S
C578 C576 1.387 . S
C578 C580 1.390 . S
C578 H582 0.950 . S
H579 C575 0.950 . S
C580 C578 1.390 . S
C580 C581 1.387 . S
C580 H583 0.950 . S
C581 C580 1.387 . S
C581 C584 1.387 . S
H582 C578 0.950 . S
H583 C580 0.950 . S
C584 C575 1.390 . S
C584 H577 0.950 . S
C584 C581 1.387 . S
C585 C586 1.387 . S
C585 H589 0.950 . S
C585 C594 1.390 . S
C586 C585 1.387 . S
C586 C588 1.387 . S
H587 C594 0.950 . S
C588 C586 1.387 . S
C588 C590 1.390 . S
C588 H592 0.950 . S
H589 C585 0.950 . S
C590 C588 1.390 . S
C590 C591 1.387 . S
C590 H593 0.950 . S
C591 C590 1.387 . S
C591 C594 1.387 . S
H592 C588 0.950 . S
H593 C590 0.950 . S
C594 C585 1.390 . S
C594 H587 0.950 . S
C594 C591 1.387 . S
C595 C596 1.387 . S
C595 H599 0.950 . S
C595 C604 1.390 . S
C596 C595 1.387 . S
C596 C598 1.387 . S
H597 C604 0.950 . S
C598 C596 1.387 . S
C598 C600 1.390 . S
C598 H602 0.950 . S
H599 C595 0.950 . S
C600 C598 1.390 . S
C600 C601 1.387 . S
C600 H603 0.950 . S
C601 C600 1.387 . S
C601 C604 1.387 . S
H602 C598 0.950 . S
H603 C600 0.950 . S
C604 C595 1.390 . S
C604 H597 0.950 . S
C604 C601 1.387 . S
C605 C606 1.387 . S
C605 H609 0.950 . S
C605 C614 1.390 . S
C606 C605 1.387 . S
C606 C608 1.387 . S
H607 C614 0.950 . S
C608 C606 1.387 . S
C608 C610 1.390 . S
C608 H612 0.950 . S
H609 C605 0.950 . S
C610 C608 1.390 . S
C610 C611 1.387 . S
C610 H613 0.950 . S
C611 C610 1.387 . S
C611 C614 1.387 . S
H612 C608 0.950 . S
H613 C610 0.950 . S
C614 C605 1.390 . S
C614 H607 0.950 . S
C614 C611 1.387 . S
C615 C616 1.387 . S
C615 H619 0.950 . S
C615 C624 1.390 . S
C616 C615 1.387 . S
C616 C618 1.387 . S
H617 C624 0.950 . S
C618 C616 1.387 . S
C618 C620 1.390 . S
C618 H622 0.950 . S
H619 C615 0.950 . S
C620 C618 1.390 . S
C620 C621 1.387 . S
C620 H623 0.950 . S
C621 C620 1.387 . S
C621 C624 1.387 . S
H622 C618 0.950 . S
H623 C620 0.950 . S
C624 C615 1.390 . S
C624 H617 0.950 . S
C624 C621 1.387 . S
C625 C626 1.387 . S
C625 H629 0.950 . S
C625 C634 1.390 . S
C626 C625 1.387 . S
C626 C628 1.387 . S
H627 C634 0.950 . S
C628 C626 1.387 . S
C628 C630 1.390 . S
C628 H632 0.950 . S
H629 C625 0.950 . S
C630 C628 1.390 . S
C630 C631 1.387 . S
C630 H633 0.950 . S
C631 C630 1.387 . S
C631 C634 1.387 . S
H632 C628 0.950 . S
H633 C630 0.950 . S
C634 C625 1.390 . S
C634 H627 0.950 . S
C634 C631 1.387 . S
C635 C636 1.387 . S
C635 H639 0.950 . S
C635 C644 1.390 . S
C636 C635 1.387 . S
C636 C638 1.387 . S
H637 C644 0.950 . S
C638 C636 1.387 . S
C638 C640 1.390 . S
C638 H642 0.950 . S
H639 C635 0.950 . S
C640 C638 1.390 . S
C640 C641 1.387 . S
C640 H643 0.950 . S
C641 C640 1.387 . S
C641 C644 1.387 . S
H642 C638 0.950 . S
H643 C640 0.950 . S
C644 C635 1.390 . S
C644 H637 0.950 . S
C644 C641 1.387 . S
C645 C646 1.387 . S
C645 H649 0.950 . S
C645 C654 1.390 . S
C646 C645 1.387 . S
C646 C648 1.387 . S
H647 C654 0.950 . S
C648 C646 1.387 . S
C648 C650 1.390 . S
C648 H652 0.950 . S
H649 C645 0.950 . S
C650 C648 1.390 . S
C650 C651 1.387 . S
C650 H653 0.950 . S
C651 C650 1.387 . S
C651 C654 1.387 . S
H652 C648 0.950 . S
H653 C650 0.950 . S
C654 C645 1.390 . S
C654 H647 0.950 . S
C654 C651 1.387 . S
C655 C656 1.387 . S
C655 H659 0.950 . S
C655 C664 1.390 . S
C656 C655 1.387 . S
C656 C658 1.387 . S
H657 C664 0.950 . S
C658 C656 1.387 . S
C658 C660 1.390 . S
C658 H662 0.950 . S
H659 C655 0.950 . S
C660 C658 1.390 . S
C660 C661 1.387 . S
C660 H663 0.950 . S
C661 C660 1.387 . S
C661 C664 1.387 . S
H662 C658 0.950 . S
H663 C660 0.950 . S
C664 C655 1.390 . S
C664 H657 0.950 . S
C664 C661 1.387 . S
C665 C666 1.387 . S
C665 H669 0.950 . S
C665 C674 1.390 . S
C666 C665 1.387 . S
C666 C668 1.387 . S
H667 C674 0.950 . S
C668 C666 1.387 . S
C668 C670 1.390 . S
C668 H672 0.950 . S
H669 C665 0.950 . S
C670 C668 1.390 . S
C670 C671 1.387 . S
C670 H673 0.950 . S
C671 C670 1.387 . S
C671 C674 1.387 . S
H672 C668 0.950 . S
H673 C670 0.950 . S
C674 C665 1.390 . S
C674 H667 0.950 . S
C674 C671 1.387 . S
C675 C676 1.387 . S
C675 H679 0.950 . S
C675 C684 1.390 . S
C676 C675 1.387 . S
C676 C678 1.387 . S
H677 C684 0.950 . S
C678 C676 1.387 . S
C678 C680 1.390 . S
C678 H682 0.950 . S
H679 C675 0.950 . S
C680 C678 1.390 . S
C680 C681 1.387 . S
C680 H683 0.950 . S
C681 C680 1.387 . S
C681 C684 1.387 . S
H682 C678 0.950 . S
H683 C680 0.950 . S
C684 C675 1.390 . S
C684 H677 0.950 . S
C684 C681 1.387 . S
C685 C686 1.387 . S
C685 H689 0.950 . S
C685 C694 1.390 . S
C686 C685 1.387 . S
C686 C688 1.387 . S
H687 C694 0.950 . S
C688 C686 1.387 . S
C688 C690 1.390 . S
C688 H692 0.950 . S
H689 C685 0.950 . S
C690 C688 1.390 . S
C690 C691 1.387 . S
C690 H693 0.950 . S
C691 C690 1.387 . S
C691 C694 1.387 . S
H692 C688 0.950 . S
H693 C690 0.950 . S
C694 C685 1.390 . S
C694 H687 0.950 . S
C694 C691 1.387 . S
C695 C696 1.387 . S
C695 H699 0.950 . S
C695 C704 1.390 . S
C696 C695 1.387 . S
C696 C698 1.387 . S
H697 C704 0.950 . S
C698 C696 1.387 . S
C698 C700 1.390 . S
C698 H702 0.950 . S
H699 C695 0.950 . S
C700 C698 1.390 . S
C700 C701 1.387 . S
C700 H703 0.950 . S
C701 C700 1.387 . S
C701 C704 1.387 . S
H702 C698 0.950 . S
H703 C700 0.950 . S
C704 C695 1.390 . S
C704 H697 0.950 . S
C704 C701 1.387 . S
C466 C47 1.921 . S
C471 C372 2.039 . S
C476 C91 1.733 . S
C481 C404 1.825 . S
C491 C463 1.846 . S
C486 C177 1.963 . S
C501 C392 1.664 . S
C496 C215 1.655 . S
C506 C295 1.850 . S
C511 C422 1.879 . S
C521 C444 1.256 . S
C516 C345 1.229 . S
C531 C413 2.079 . S
C526 C153 1.929 . S
C536 C239 1.334 . S
C541 C453 1.235 . S
C551 C402 1.663 . S
C546 C283 1.704 . S
C556 C357 1.663 . S
C561 C432 1.733 . S
C566 C35 1.852 1_556 S
C571 C435 1.780 . S
C581 C374 1.524 . S
C576 C115 1.584 . S
C591 C382 1.586 . S
C586 C221 1.655 . S
C601 C423 1.456 . S
C596 C301 1.498 . S
C611 C436 2.108 . S
C606 C339 2.058 . S
C621 C373 1.461 . S
C616 C53 1.550 1_556 S
C631 C433 1.586 . S
C626 C97 1.689 . S
C636 C171 1.532 . S
C641 C434 1.641 . S
C651 C403 1.590 . S
C646 C363 1.641 . S
C661 C464 1.617 . S
C656 C29 1.460 . S
C671 C391 1.867 . S
C666 C109 1.876 . S
C681 C405 1.529 . S
C676 C159 1.642 . S
C686 C233 2.018 . S
C691 C454 2.015 . S
C696 C277 1.745 . S
C701 C401 1.891 . S
