# Generated by pormake.
# Topology ptr, (4,4)-cn, num edge types: 1
# Building blocks:
#     Node 0, Type 0, BuildingBlock: AZAVOO_clean_sbu_0, # of connection points: 4
#     Node 1, Type 0, BuildingBlock: AZAVOO_clean_sbu_0, # of connection points: 4
#     Node 2, Type 0, BuildingBlock: AZAVOO_clean_sbu_0, # of connection points: 4
#     Node 3, Type 0, BuildingBlock: AZAVOO_clean_sbu_0, # of connection points: 4
#     Node 4, Type 0, BuildingBlock: AZAVOO_clean_sbu_0, # of connection points: 4
#     Node 5, Type 0, BuildingBlock: AZAVOO_clean_sbu_0, # of connection points: 4
#     Node 6, Type 0, BuildingBlock: AZAVOO_clean_sbu_0, # of connection points: 4
#     Node 7, Type 0, BuildingBlock: AZAVOO_clean_sbu_0, # of connection points: 4
#     Node 8, Type 0, BuildingBlock: AZAVOO_clean_sbu_0, # of connection points: 4
#     Node 9, Type 0, BuildingBlock: AZAVOO_clean_sbu_0, # of connection points: 4
#     Node 10, Type 0, BuildingBlock: AZAVOO_clean_sbu_0, # of connection points: 4
#     Node 11, Type 0, BuildingBlock: AZAVOO_clean_sbu_0, # of connection points: 4
#     Node 12, Type 0, BuildingBlock: AZAVOO_clean_sbu_0, # of connection points: 4
#     Node 13, Type 0, BuildingBlock: AZAVOO_clean_sbu_0, # of connection points: 4
#     Node 14, Type 0, BuildingBlock: AZAVOO_clean_sbu_0, # of connection points: 4
#     Node 15, Type 0, BuildingBlock: AZAVOO_clean_sbu_0, # of connection points: 4
#     Node 16, Type 0, BuildingBlock: AZAVOO_clean_sbu_0, # of connection points: 4
#     Node 17, Type 0, BuildingBlock: AZAVOO_clean_sbu_0, # of connection points: 4
#     Node 18, Type 1, BuildingBlock: GIZVER_clean_linker_0, # of connection points: 4
#     Node 19, Type 1, BuildingBlock: GIZVER_clean_linker_0, # of connection points: 4
#     Node 20, Type 1, BuildingBlock: GIZVER_clean_linker_0, # of connection points: 4
#     Node 21, Type 1, BuildingBlock: GIZVER_clean_linker_0, # of connection points: 4
#     Node 22, Type 1, BuildingBlock: GIZVER_clean_linker_0, # of connection points: 4
#     Node 23, Type 1, BuildingBlock: GIZVER_clean_linker_0, # of connection points: 4
#     Node 24, Type 1, BuildingBlock: GIZVER_clean_linker_0, # of connection points: 4
#     Node 25, Type 1, BuildingBlock: GIZVER_clean_linker_0, # of connection points: 4
#     Node 26, Type 1, BuildingBlock: GIZVER_clean_linker_0, # of connection points: 4
#     Node 27, Type 1, BuildingBlock: GIZVER_clean_linker_0, # of connection points: 4
#     Node 28, Type 1, BuildingBlock: GIZVER_clean_linker_0, # of connection points: 4
#     Node 29, Type 1, BuildingBlock: GIZVER_clean_linker_0, # of connection points: 4
#     Node 30, Type 1, BuildingBlock: GIZVER_clean_linker_0, # of connection points: 4
#     Node 31, Type 1, BuildingBlock: GIZVER_clean_linker_0, # of connection points: 4
#     Node 32, Type 1, BuildingBlock: GIZVER_clean_linker_0, # of connection points: 4
#     Node 33, Type 1, BuildingBlock: GIZVER_clean_linker_0, # of connection points: 4
#     Node 34, Type 1, BuildingBlock: GIZVER_clean_linker_0, # of connection points: 4
#     Node 35, Type 1, BuildingBlock: GIZVER_clean_linker_0, # of connection points: 4
#     Edge 36, Type (0, 1), BuildingBlock: OJICUG_clean_linker_0, # of connection points: 2
#     Edge 37, Type (0, 1), BuildingBlock: OJICUG_clean_linker_0, # of connection points: 2
#     Edge 38, Type (0, 1), BuildingBlock: OJICUG_clean_linker_0, # of connection points: 2
#     Edge 39, Type (0, 1), BuildingBlock: OJICUG_clean_linker_0, # of connection points: 2
#     Edge 40, Type (0, 1), BuildingBlock: OJICUG_clean_linker_0, # of connection points: 2
#     Edge 41, Type (0, 1), BuildingBlock: OJICUG_clean_linker_0, # of connection points: 2
#     Edge 42, Type (0, 1), BuildingBlock: OJICUG_clean_linker_0, # of connection points: 2
#     Edge 43, Type (0, 1), BuildingBlock: OJICUG_clean_linker_0, # of connection points: 2
#     Edge 44, Type (0, 1), BuildingBlock: OJICUG_clean_linker_0, # of connection points: 2
#     Edge 45, Type (0, 1), BuildingBlock: OJICUG_clean_linker_0, # of connection points: 2
#     Edge 46, Type (0, 1), BuildingBlock: OJICUG_clean_linker_0, # of connection points: 2
#     Edge 47, Type (0, 1), BuildingBlock: OJICUG_clean_linker_0, # of connection points: 2
#     Edge 48, Type (0, 1), BuildingBlock: OJICUG_clean_linker_0, # of connection points: 2
#     Edge 49, Type (0, 1), BuildingBlock: OJICUG_clean_linker_0, # of connection points: 2
#     Edge 50, Type (0, 1), BuildingBlock: OJICUG_clean_linker_0, # of connection points: 2
#     Edge 51, Type (0, 1), BuildingBlock: OJICUG_clean_linker_0, # of connection points: 2
#     Edge 52, Type (0, 1), BuildingBlock: OJICUG_clean_linker_0, # of connection points: 2
#     Edge 53, Type (0, 1), BuildingBlock: OJICUG_clean_linker_0, # of connection points: 2
#     Edge 54, Type (0, 1), BuildingBlock: OJICUG_clean_linker_0, # of connection points: 2
#     Edge 55, Type (0, 1), BuildingBlock: OJICUG_clean_linker_0, # of connection points: 2
#     Edge 56, Type (0, 1), BuildingBlock: OJICUG_clean_linker_0, # of connection points: 2
#     Edge 57, Type (0, 1), BuildingBlock: OJICUG_clean_linker_0, # of connection points: 2
#     Edge 58, Type (0, 1), BuildingBlock: OJICUG_clean_linker_0, # of connection points: 2
#     Edge 59, Type (0, 1), BuildingBlock: OJICUG_clean_linker_0, # of connection points: 2
#     Edge 60, Type (0, 1), BuildingBlock: OJICUG_clean_linker_0, # of connection points: 2
#     Edge 61, Type (0, 1), BuildingBlock: OJICUG_clean_linker_0, # of connection points: 2
#     Edge 62, Type (0, 1), BuildingBlock: OJICUG_clean_linker_0, # of connection points: 2
#     Edge 63, Type (0, 1), BuildingBlock: OJICUG_clean_linker_0, # of connection points: 2
#     Edge 64, Type (0, 1), BuildingBlock: OJICUG_clean_linker_0, # of connection points: 2
#     Edge 65, Type (0, 1), BuildingBlock: OJICUG_clean_linker_0, # of connection points: 2
#     Edge 66, Type (0, 1), BuildingBlock: OJICUG_clean_linker_0, # of connection points: 2
#     Edge 67, Type (0, 1), BuildingBlock: OJICUG_clean_linker_0, # of connection points: 2
#     Edge 68, Type (0, 1), BuildingBlock: OJICUG_clean_linker_0, # of connection points: 2
#     Edge 69, Type (0, 1), BuildingBlock: OJICUG_clean_linker_0, # of connection points: 2
#     Edge 70, Type (0, 1), BuildingBlock: OJICUG_clean_linker_0, # of connection points: 2
#     Edge 71, Type (0, 1), BuildingBlock: OJICUG_clean_linker_0, # of connection points: 2
#     Edge 72, Type (0, 1), BuildingBlock: OJICUG_clean_linker_0, # of connection points: 2
#     Edge 73, Type (0, 1), BuildingBlock: OJICUG_clean_linker_0, # of connection points: 2
#     Edge 74, Type (0, 1), BuildingBlock: OJICUG_clean_linker_0, # of connection points: 2
#     Edge 75, Type (0, 1), BuildingBlock: OJICUG_clean_linker_0, # of connection points: 2
#     Edge 76, Type (0, 1), BuildingBlock: OJICUG_clean_linker_0, # of connection points: 2
#     Edge 77, Type (0, 1), BuildingBlock: OJICUG_clean_linker_0, # of connection points: 2
#     Edge 78, Type (0, 1), BuildingBlock: OJICUG_clean_linker_0, # of connection points: 2
#     Edge 79, Type (0, 1), BuildingBlock: OJICUG_clean_linker_0, # of connection points: 2
#     Edge 80, Type (0, 1), BuildingBlock: OJICUG_clean_linker_0, # of connection points: 2
#     Edge 81, Type (0, 1), BuildingBlock: OJICUG_clean_linker_0, # of connection points: 2
#     Edge 82, Type (0, 1), BuildingBlock: OJICUG_clean_linker_0, # of connection points: 2
#     Edge 83, Type (0, 1), BuildingBlock: OJICUG_clean_linker_0, # of connection points: 2
#     Edge 84, Type (0, 1), BuildingBlock: OJICUG_clean_linker_0, # of connection points: 2
#     Edge 85, Type (0, 1), BuildingBlock: OJICUG_clean_linker_0, # of connection points: 2
#     Edge 86, Type (0, 1), BuildingBlock: OJICUG_clean_linker_0, # of connection points: 2
#     Edge 87, Type (0, 1), BuildingBlock: OJICUG_clean_linker_0, # of connection points: 2
#     Edge 88, Type (0, 1), BuildingBlock: OJICUG_clean_linker_0, # of connection points: 2
#     Edge 89, Type (0, 1), BuildingBlock: OJICUG_clean_linker_0, # of connection points: 2
#     Edge 90, Type (0, 1), BuildingBlock: OJICUG_clean_linker_0, # of connection points: 2
#     Edge 91, Type (0, 1), BuildingBlock: OJICUG_clean_linker_0, # of connection points: 2
#     Edge 92, Type (0, 1), BuildingBlock: OJICUG_clean_linker_0, # of connection points: 2
#     Edge 93, Type (0, 1), BuildingBlock: OJICUG_clean_linker_0, # of connection points: 2
#     Edge 94, Type (0, 1), BuildingBlock: OJICUG_clean_linker_0, # of connection points: 2
#     Edge 95, Type (0, 1), BuildingBlock: OJICUG_clean_linker_0, # of connection points: 2
#     Edge 96, Type (0, 1), BuildingBlock: OJICUG_clean_linker_0, # of connection points: 2
#     Edge 97, Type (0, 1), BuildingBlock: OJICUG_clean_linker_0, # of connection points: 2
#     Edge 98, Type (0, 1), BuildingBlock: OJICUG_clean_linker_0, # of connection points: 2
#     Edge 99, Type (0, 1), BuildingBlock: OJICUG_clean_linker_0, # of connection points: 2
#     Edge 100, Type (0, 1), BuildingBlock: OJICUG_clean_linker_0, # of connection points: 2
#     Edge 101, Type (0, 1), BuildingBlock: OJICUG_clean_linker_0, # of connection points: 2
#     Edge 102, Type (0, 1), BuildingBlock: OJICUG_clean_linker_0, # of connection points: 2
#     Edge 103, Type (0, 1), BuildingBlock: OJICUG_clean_linker_0, # of connection points: 2
#     Edge 104, Type (0, 1), BuildingBlock: OJICUG_clean_linker_0, # of connection points: 2
#     Edge 105, Type (0, 1), BuildingBlock: OJICUG_clean_linker_0, # of connection points: 2
#     Edge 106, Type (0, 1), BuildingBlock: OJICUG_clean_linker_0, # of connection points: 2
#     Edge 107, Type (0, 1), BuildingBlock: OJICUG_clean_linker_0, # of connection points: 2
# Relax obj value: 0.077
# Max RMSD: 0.241
# Mean RMSD: 0.126
data_MOF--net-ptr--node1-AZAVOO_clean_sbu_0--node2-GIZVER_clean_linker_0--edge1-OJICUG_clean_linker_0
_symmetry_space_group_name_H-M    P1
_symmetry_Int_Tables_number       1
_symmetry_cell_setting            triclinic
loop_
_symmetry_equiv_pos_as_xyz
'x, y, z'
_cell_length_a     59.890916
_cell_length_b     59.017874
_cell_length_c     33.979154
_cell_angle_alpha  91.905258
_cell_angle_beta   91.866086
_cell_angle_gamma 119.96228
loop_
_atom_site_label
_atom_site_type_symbol
_atom_site_fract_x
_atom_site_fract_y
_atom_site_fract_z
_atom_type_partial_charge
Mg0 Mg 0.02931 0.38163 0.96177 0.0
O1 O 0.03394 0.40674 0.01782 0.0
O2 O 0.00672 0.42212 0.01195 0.0
Mg3 Mg 0.98452 0.40676 0.95213 0.0
C4 C 0.02432 0.42028 0.03129 0.0
C5 C 0.06236 0.3538 0.97388 0.0
O6 O 0.05826 0.34977 0.9354 0.0
O7 O 0.99086 0.34799 0.98111 0.0
O8 O 0.96464 0.36422 0.97122 0.0
O9 O 0.05869 0.41709 0.93283 0.0
O10 O 0.01694 0.40337 0.92977 0.0
C11 C 0.96843 0.34562 0.981 0.0
C12 C 0.03992 0.42067 0.92132 0.0
O13 O 0.0527 0.36564 0.99249 0.0
Mg14 Mg 0.6223 0.6319 0.04704 0.0
O15 O 0.60071 0.61048 0.98897 0.0
O16 O 0.56184 0.60703 0.98696 0.0
Mg17 Mg 0.55857 0.62624 0.04464 0.0
C18 C 0.57876 0.60295 0.97153 0.0
C19 C 0.68074 0.65726 0.02178 0.0
O20 O 0.6824 0.67968 0.0324 0.0
O21 O 0.62928 0.67073 0.02422 0.0
O22 O 0.59051 0.66725 0.02841 0.0
O23 O 0.60531 0.59428 0.07681 0.0
O24 O 0.58771 0.61939 0.07458 0.0
C25 C 0.61444 0.68045 0.02132 0.0
C26 C 0.58658 0.59819 0.08562 0.0
O27 O 0.65944 0.63604 0.02383 0.0
Mg28 Mg 0.37308 0.97948 0.96476 0.0
O29 O 0.39318 0.97818 0.02193 0.0
O30 O 0.43571 0.00416 0.01879 0.0
Mg31 Mg 0.4426 0.02092 0.95771 0.0
C32 C 0.41612 0.98843 0.03721 0.0
C33 C 0.31303 0.95007 0.97866 0.0
O34 O 0.30989 0.94826 0.94001 0.0
O35 O 0.38119 0.02027 0.98261 0.0
O36 O 0.42319 0.04528 0.97315 0.0
O37 O 0.37521 0.94579 0.93808 0.0
O38 O 0.4053 0.9874 0.93457 0.0
C39 C 0.40148 0.04272 0.98207 0.0
C40 C 0.3976 0.963 0.92671 0.0
O41 O 0.33565 0.96151 0.99503 0.0
Mg42 Mg 0.98837 0.61403 0.05003 0.0
O43 O 0.99339 0.59585 0.99236 0.0
O44 O 0.02914 0.59287 0.00043 0.0
Mg45 Mg 0.0476 0.61017 0.06186 0.0
C46 C 0.00939 0.58931 0.97965 0.0
C47 C 0.95548 0.64037 0.02967 0.0
O48 O 0.97357 0.65898 0.05341 0.0
O49 O 0.02042 0.65433 0.03378 0.0
O50 O 0.05559 0.6509 0.04485 0.0
O51 O 0.96705 0.57478 0.07671 0.0
O52 O 0.00939 0.60054 0.08056 0.0
C53 C 0.04493 0.6642 0.03516 0.0
C54 C 0.98958 0.57868 0.08813 0.0
O55 O 0.95663 0.61981 0.02136 0.0
Mg56 Mg 0.37821 0.37336 0.98069 0.0
O57 O 0.40238 0.39583 0.0368 0.0
O58 O 0.44353 0.40747 0.0279 0.0
Mg59 Mg 0.44582 0.39528 0.96426 0.0
C60 C 0.42601 0.40657 0.04931 0.0
C61 C 0.32246 0.35868 -0.00195 0.0
O62 O 0.32482 0.36958 0.9642 0.0
O63 O 0.3829 0.33839 0.99444 0.0
O64 O 0.42344 0.35185 0.97888 0.0
O65 O 0.38286 0.40998 0.95636 0.0
O66 O 0.40964 0.39485 0.9479 0.0
C67 C 0.40163 0.33416 0.99001 0.0
C68 C 0.40385 0.41283 0.94213 0.0
O69 O 0.34138 0.3572 0.01307 0.0
Mg70 Mg 0.62669 0.01391 0.04711 0.0
O71 O 0.60176 0.00743 0.99046 0.0
O72 O 0.56345 0.97146 -0.00367 0.0
Mg73 Mg 0.56272 0.95695 0.05814 0.0
C74 C 0.57905 0.99058 0.97667 0.0
C75 C 0.67843 0.06523 0.02662 0.0
O76 O 0.67247 0.07638 0.05531 0.0
O77 O 0.63092 0.97841 0.02994 0.0
O78 O 0.5925 0.94471 0.04265 0.0
O79 O 0.61317 0.03951 0.07567 0.0
O80 O 0.59369 0.99652 0.07839 0.0
C81 C 0.61568 0.95384 0.03245 0.0
C82 C 0.59414 0.01809 0.08735 0.0
O83 O 0.66346 0.04105 0.01687 0.0
Mg84 Mg 0.68745 0.70711 0.29898 0.0
O85 O 0.69202 0.73197 0.35533 0.0
O86 O 0.66178 0.74359 0.35253 0.0
Mg87 Mg 0.63739 0.72568 0.29499 0.0
C88 C 0.68112 0.74393 0.37004 0.0
C89 C 0.72222 0.68088 0.30771 0.0
O90 O 0.71269 0.67197 0.27152 0.0
O91 O 0.65186 0.67159 0.32193 0.0
O92 O 0.62226 0.68392 0.31542 0.0
O93 O 0.71255 0.7434 0.26725 0.0
O94 O 0.67029 0.72522 0.26865 0.0
C95 C 0.62868 0.66698 0.32434 0.0
C96 C 0.69175 0.74397 0.25759 0.0
O97 O 0.71527 0.69518 0.32643 0.0
Mg98 Mg 0.28916 0.96637 0.3777 0.0
O99 O 0.26548 0.94467 0.32106 0.0
O100 O 0.22554 0.93814 0.32482 0.0
Mg101 Mg 0.22375 0.95584 0.38486 0.0
C102 C 0.24253 0.93572 0.3064 0.0
C103 C 0.33959 0.96513 0.36127 0.0
O104 O 0.33161 0.94993 0.39111 0.0
O105 O 0.29215 0.00438 0.35841 0.0
O106 O 0.25266 0.99785 0.36789 0.0
O107 O 0.27595 0.92837 0.4059 0.0
O108 O 0.2557 0.95096 0.40865 0.0
C109 C 0.27597 0.01251 0.35864 0.0
C110 C 0.25656 0.93034 0.4174 0.0
O111 O 0.32636 0.97512 0.34866 0.0
Mg112 Mg 0.03688 0.31723 0.2941 0.0
O113 O 0.05652 0.31476 0.35114 0.0
O114 O 0.09924 0.3376 0.34633 0.0
Mg115 Mg 0.1066 0.35342 0.28466 0.0
C116 C 0.07946 0.32338 0.36558 0.0
C117 C 0.97769 0.29386 0.3069 0.0
O118 O 0.97556 0.29131 0.26819 0.0
O119 O 0.04873 0.35929 0.31057 0.0
O120 O 0.09077 0.3811 0.29982 0.0
O121 O 0.03521 0.28124 0.26829 0.0
O122 O 0.06782 0.32157 0.26364 0.0
C123 C 0.07004 0.38069 0.30912 0.0
C124 C 0.05809 0.29673 0.25661 0.0
O125 O 0.99977 0.30336 0.32468 0.0
Mg126 Mg 0.66858 0.96187 0.37242 0.0
O127 O 0.67257 0.94185 0.31569 0.0
O128 O 0.71087 0.9439 0.3219 0.0
Mg129 Mg 0.73044 0.96325 0.38185 0.0
C130 C 0.68974 0.93724 0.30233 0.0
C131 C 0.63103 0.98291 0.35728 0.0
O132 O 0.64794 0.00098 0.38296 0.0
O133 O 0.69802 0.00235 0.35233 0.0
O134 O 0.735 0.00229 0.36292 0.0
O135 O 0.65014 0.92396 0.40224 0.0
O136 O 0.69216 0.9514 0.40325 0.0
C137 C 0.72265 0.01382 0.35266 0.0
C138 C 0.67332 0.9294 0.4129 0.0
O139 O 0.63454 0.96431 0.34538 0.0
Mg140 Mg 0.04021 0.71308 0.2997 0.0
O141 O 0.06434 0.73438 0.35631 0.0
O142 O 0.10616 0.7497 0.34659 0.0
Mg143 Mg 0.10841 0.7373 0.28305 0.0
C144 C 0.08806 0.74659 0.36855 0.0
C145 C 0.98184 0.67989 0.31663 0.0
O146 O 0.98076 0.66989 0.28101 0.0
O147 O 0.04578 0.67848 0.31254 0.0
O148 O 0.08697 0.69391 0.29858 0.0
O149 O 0.04447 0.74993 0.27631 0.0
O150 O 0.07157 0.7353 0.2671 0.0
C151 C 0.06534 0.67545 0.30904 0.0
C152 C 0.06555 0.75315 0.26195 0.0
O153 O 0.00355 0.69705 0.33263 0.0
Mg154 Mg 0.28759 0.34664 0.38481 0.0
O155 O 0.26214 0.33818 0.32777 0.0
O156 O 0.22377 0.30296 0.33669 0.0
Mg157 Mg 0.22337 0.29104 0.40012 0.0
C158 C 0.23924 0.32093 0.31519 0.0
C159 C 0.34174 0.39514 0.36496 0.0
O160 O 0.33815 0.40656 0.39601 0.0
O161 O 0.29095 0.31021 0.37116 0.0
O162 O 0.25248 0.27762 0.38633 0.0
O163 O 0.27487 0.37367 0.41123 0.0
O164 O 0.25492 0.33091 0.41669 0.0
C165 C 0.27544 0.28593 0.37566 0.0
C166 C 0.25581 0.35282 0.42422 0.0
O167 O 0.32446 0.37196 0.35338 0.0
Mg168 Mg 0.34308 0.03218 0.6342 0.0
O169 O 0.3481 0.05611 0.69186 0.0
O170 O 0.31765 0.06752 0.69032 0.0
Mg171 Mg 0.29327 0.05107 0.6325 0.0
C172 C 0.33706 0.06773 0.70737 0.0
C173 C 0.39295 0.0265 0.65353 0.0
O174 O 0.40504 0.04736 0.63301 0.0
O175 O 0.30726 0.99668 0.65604 0.0
O176 O 0.27735 0.0086 0.65053 0.0
O177 O 0.36871 0.06903 0.60392 0.0
O178 O 0.32655 0.05149 0.60595 0.0
C179 C 0.28399 0.99169 0.65852 0.0
C180 C 0.34813 0.07025 0.59529 0.0
O181 O 0.36909 0.01723 0.65923 0.0
Mg182 Mg 0.95023 0.30744 0.70294 0.0
O183 O 0.92577 0.28991 0.64582 0.0
O184 O 0.89172 0.29575 0.64559 0.0
Mg185 Mg 0.89325 0.31468 0.70664 0.0
C186 C 0.90529 0.28744 0.62901 0.0
C187 C 0.00633 0.31607 0.68868 0.0
O188 O 0.01251 0.32878 0.72338 0.0
O189 O 0.96389 0.34879 0.68439 0.0
O190 O 0.92949 0.35343 0.69256 0.0
O191 O 0.92842 0.2691 0.72951 0.0
O192 O 0.91754 0.29978 0.73303 0.0
C193 C 0.95311 0.3628 0.68448 0.0
C194 C 0.91258 0.27657 0.74107 0.0
O195 O 0.98335 0.30613 0.6739 0.0
Mg196 Mg 0.70569 0.65207 0.63342 0.0
O197 O 0.72489 0.65028 0.69151 0.0
O198 O 0.76754 0.67596 0.68849 0.0
Mg199 Mg 0.77554 0.69348 0.62823 0.0
C200 C 0.74784 0.66035 0.70681 0.0
C201 C 0.64936 0.61094 0.64669 0.0
O202 O 0.6543 0.59942 0.61725 0.0
O203 O 0.71359 0.69275 0.65162 0.0
O204 O 0.75582 0.71743 0.64343 0.0
O205 O 0.70849 0.61871 0.60647 0.0
O206 O 0.73849 0.66035 0.60429 0.0
C207 C 0.73411 0.71507 0.65172 0.0
C208 C 0.73094 0.63609 0.59562 0.0
O209 O 0.66681 0.63343 0.6604 0.0
Mg210 Mg 0.31867 0.28275 0.72058 0.0
O211 O 0.32353 0.26354 0.66366 0.0
O212 O 0.36078 0.26354 0.67207 0.0
Mg213 Mg 0.37884 0.28074 0.73355 0.0
C214 C 0.34052 0.25837 0.65113 0.0
C215 C 0.28515 0.3081 0.70018 0.0
O216 O 0.30287 0.32637 0.72477 0.0
O217 O 0.35024 0.32326 0.70326 0.0
O218 O 0.38578 0.32072 0.71559 0.0
O219 O 0.29807 0.24387 0.74859 0.0
O220 O 0.34031 0.27022 0.75183 0.0
C221 C 0.3748 0.33352 0.70498 0.0
C222 C 0.32081 0.24827 0.75988 0.0
O223 O 0.28655 0.28774 0.69134 0.0
Mg224 Mg 0.71439 0.04156 0.64216 0.0
O225 O 0.73738 0.06591 0.69829 0.0
O226 O 0.77877 0.07759 0.69192 0.0
Mg227 Mg 0.78257 0.06311 0.63079 0.0
C228 C 0.76089 0.07733 0.71169 0.0
C229 C 0.66972 0.04343 0.68168 0.0
O230 O 0.6861 0.06852 0.67907 0.0
O231 O 0.71847 0.00697 0.66097 0.0
O232 O 0.75947 0.02039 0.64822 0.0
O233 O 0.71976 0.07707 0.61339 0.0
O234 O 0.74671 0.06181 0.61013 0.0
C235 C 0.73745 0.00288 0.65896 0.0
C236 C 0.74101 0.07942 0.60112 0.0
O237 O 0.6762 0.02683 0.67071 0.0
Mg238 Mg 0.95258 0.67211 0.70896 0.0
O239 O 0.92701 0.66268 0.65191 0.0
O240 O 0.88926 0.62676 0.66105 0.0
Mg241 Mg 0.88913 0.6156 0.72486 0.0
C242 C 0.90441 0.64475 0.63929 0.0
C243 C 0.00673 0.72069 0.69105 0.0
O244 O 0.00416 0.73016 0.72504 0.0
O245 O 0.95691 0.63633 0.69534 0.0
O246 O 0.91896 0.60316 0.71125 0.0
O247 O 0.93913 0.69847 0.7352 0.0
O248 O 0.92011 0.65579 0.74123 0.0
C249 C 0.94192 0.61198 0.70018 0.0
C250 C 0.92058 0.6775 0.74881 0.0
O251 O 0.98889 0.69833 0.67719 0.0
H252 H 0.12864 0.26737 0.13523 0.0
H253 H 0.13945 0.30847 0.0283 0.0
H254 H 0.0833 0.30305 0.10909 0.0
H255 H 0.15098 0.26043 0.07892 0.0
H256 H 0.15794 0.28012 0.03722 0.0
H257 H 0.17109 0.29446 0.14929 0.0
H258 H 0.25295 0.33766 0.13909 0.0
H259 H 0.20265 0.30522 0.03476 0.0
C260 C 0.12395 0.27878 0.11582 0.0
C261 C 0.10511 0.28484 0.12612 0.0
C262 C 0.13681 0.28757 0.08083 0.0
C263 C 0.12978 0.30178 0.05547 0.0
C264 C 0.11035 0.30741 0.06545 0.0
C265 C 0.09814 0.29868 0.10076 0.0
C266 C 0.15694 0.28052 0.06986 0.0
C267 C 0.18349 0.29892 0.08946 0.0
C268 C 0.18735 0.30289 0.13091 0.0
C269 C 0.21235 0.31714 0.14914 0.0
C270 C 0.23357 0.32728 0.12541 0.0
C271 C 0.23027 0.32296 0.08431 0.0
C272 C 0.20521 0.30918 0.06646 0.0
H273 H 0.70805 0.84262 0.14271 0.0
H274 H 0.67178 0.81622 0.02514 0.0
H275 H 0.66265 0.76061 0.11052 0.0
H276 H 0.7219 0.87266 0.08509 0.0
H277 H 0.70279 0.86222 0.03964 0.0
H278 H 0.69905 0.87527 0.14845 0.0
H279 H 0.65306 0.91108 0.12653 0.0
H280 H 0.67272 0.87723 0.02956 0.0
C281 C 0.69567 0.82707 0.12113 0.0
C282 C 0.68507 0.801 0.13126 0.0
C283 C 0.69025 0.83289 0.08318 0.0
C284 C 0.67539 0.81213 0.0548 0.0
C285 C 0.66584 0.7861 0.06466 0.0
C286 C 0.67028 0.78081 0.10295 0.0
C287 C 0.70175 0.86108 0.07221 0.0
C288 C 0.68672 0.87365 0.08744 0.0
C289 C 0.68792 0.87999 0.12811 0.0
C290 C 0.67548 0.8931 0.14266 0.0
C291 C 0.66184 0.89995 0.116 0.0
C292 C 0.66084 0.89438 0.07544 0.0
C293 C 0.67315 0.8811 0.06106 0.0
H294 H 0.15194 0.83043 0.14374 0.0
H295 H 0.14473 0.78457 0.03784 0.0
H296 H 0.07877 0.76581 0.10471 0.0
H297 H 0.18622 0.81194 0.11164 0.0
H298 H 0.18641 0.81704 0.06069 0.0
H299 H 0.1929 0.84818 0.16231 0.0
H300 H 0.24327 0.9254 0.12593 0.0
H301 H 0.20991 0.8601 0.04029 0.0
C302 C 0.14038 0.81566 0.12094 0.0
C303 C 0.11413 0.7995 0.12695 0.0
C304 C 0.15184 0.81052 0.08895 0.0
C305 C 0.136 0.7897 0.06138 0.0
C306 C 0.1094 0.77371 0.06635 0.0
C307 C 0.09862 0.77943 0.09858 0.0
C308 C 0.18091 0.82203 0.08928 0.0
C309 C 0.19692 0.85125 0.09922 0.0
C310 C 0.20114 0.8613 0.13868 0.0
C311 C 0.21733 0.88811 0.14816 0.0
C312 C 0.23037 0.90472 0.11835 0.0
C313 C 0.22896 0.89467 0.07982 0.0
C314 C 0.21111 0.86815 0.06992 0.0
H315 H 0.36944 0.18569 0.8541 0.0
H316 H 0.40669 0.22447 0.96636 0.0
H317 H 0.34734 0.23583 0.91298 0.0
H318 H 0.41928 0.20176 0.88083 0.0
H319 H 0.4228 0.20072 0.93276 0.0
H320 H 0.38772 0.16179 0.83952 0.0
H321 H 0.36859 0.08848 0.88756 0.0
H322 H 0.40529 0.159 0.96273 0.0
C323 C 0.37051 0.19704 0.88038 0.0
C324 C 0.35517 0.20882 0.88112 0.0
C325 C 0.38868 0.20186 0.91159 0.0
C326 C 0.39153 0.21909 0.94357 0.0
C327 C 0.37654 0.23134 0.94441 0.0
C328 C 0.35769 0.22512 0.9139 0.0
C329 C 0.40832 0.19302 0.9073 0.0
C330 C 0.39619 0.16359 0.90233 0.0
C331 C 0.38634 0.15065 0.86491 0.0
C332 C 0.37603 0.12352 0.85957 0.0
C333 C 0.37593 0.10938 0.89179 0.0
C334 C 0.38667 0.12204 0.92886 0.0
C335 C 0.39653 0.14912 0.93426 0.0
H336 H 0.83888 0.19136 0.86788 0.0
H337 H 0.87078 0.21803 0.98737 0.0
H338 H 0.88805 0.27288 0.89775 0.0
H339 H 0.85404 0.1663 0.93133 0.0
H340 H 0.84174 0.17242 0.97451 0.0
H341 H 0.8257 0.14924 0.8676 0.0
H342 H 0.74525 0.09922 0.88489 0.0
H343 H 0.79585 0.14995 0.981 0.0
C344 C 0.8493 0.20674 0.89042 0.0
C345 C 0.86243 0.23258 0.87864 0.0
C346 C 0.85129 0.20104 0.93001 0.0
C347 C 0.86732 0.22198 0.95755 0.0
C348 C 0.88003 0.24795 0.94604 0.0
C349 C 0.87682 0.25299 0.90698 0.0
C350 C 0.84075 0.17295 0.94182 0.0
C351 C 0.81361 0.15335 0.92535 0.0
C352 C 0.8095 0.14289 0.88615 0.0
C353 C 0.78465 0.1243 0.87077 0.0
C354 C 0.76426 0.11445 0.89603 0.0
C355 C 0.76819 0.1229 0.93598 0.0
C356 C 0.79269 0.1432 0.95019 0.0
H357 H 0.8279 0.64983 0.86892 0.0
H358 H 0.84221 0.62739 0.98236 0.0
H359 H 0.90506 0.67509 0.9113 0.0
H360 H 0.79664 0.60182 0.91259 0.0
H361 H 0.7988 0.6131 0.9623 0.0
H362 H 0.78619 0.62347 0.8574 0.0
H363 H 0.74069 0.6582 0.88855 0.0
H364 H 0.77733 0.63713 0.9797 0.0
C365 C 0.84081 0.65119 0.89281 0.0
C366 C 0.86732 0.66465 0.88677 0.0
C367 C 0.8313 0.63815 0.92774 0.0
C368 C 0.84911 0.63868 0.95649 0.0
C369 C 0.87575 0.65243 0.95094 0.0
C370 C 0.88467 0.66595 0.91662 0.0
C371 C 0.80254 0.61978 0.93173 0.0
C372 C 0.78549 0.63094 0.91993 0.0
C373 C 0.77933 0.63159 0.87985 0.0
C374 C 0.76405 0.64231 0.86838 0.0
C375 C 0.75316 0.65059 0.89729 0.0
C376 C 0.75735 0.6482 0.93734 0.0
C377 C 0.77399 0.63889 0.9487 0.0
H378 H 0.79377 0.60082 0.46779 0.0
H379 H 0.80095 0.63511 0.35518 0.0
H380 H 0.75787 0.64626 0.44538 0.0
H381 H 0.80928 0.58654 0.40846 0.0
H382 H 0.8172 0.60519 0.36552 0.0
H383 H 0.83505 0.61635 0.47651 0.0
H384 H 0.91596 0.65781 0.45948 0.0
H385 H 0.86182 0.63175 0.359 0.0
C386 C 0.79048 0.6131 0.44826 0.0
C387 C 0.7761 0.62429 0.46096 0.0
C388 C 0.80065 0.61789 0.41073 0.0
C389 C 0.79401 0.63209 0.38468 0.0
C390 C 0.77824 0.64219 0.39682 0.0
C391 C 0.7699 0.63853 0.43532 0.0
C392 C 0.81744 0.60674 0.39827 0.0
C393 C 0.84502 0.6228 0.41568 0.0
C394 C 0.8505 0.62514 0.45679 0.0
C395 C 0.87603 0.63855 0.47292 0.0
C396 C 0.89625 0.6489 0.44735 0.0
C397 C 0.89141 0.64655 0.4063 0.0
C398 C 0.86572 0.63369 0.39066 0.0
H399 H 0.36591 0.17186 0.48622 0.0
H400 H 0.32962 0.14795 0.3684 0.0
H401 H 0.31892 0.09041 0.45119 0.0
H402 H 0.37966 0.20326 0.43102 0.0
H403 H 0.36131 0.19369 0.38484 0.0
H404 H 0.35457 0.20293 0.49385 0.0
H405 H 0.30871 0.23901 0.47292 0.0
H406 H 0.3319 0.20946 0.37489 0.0
C407 C 0.3533 0.15674 0.46422 0.0
C408 C 0.34214 0.13043 0.47331 0.0
C409 C 0.34807 0.16338 0.42679 0.0
C410 C 0.33297 0.14322 0.39775 0.0
C411 C 0.32273 0.11692 0.4066 0.0
C412 C 0.32691 0.11081 0.44448 0.0
C413 C 0.35973 0.19182 0.41725 0.0
C414 C 0.34421 0.20377 0.43267 0.0
C415 C 0.34406 0.20843 0.47358 0.0
C416 C 0.33098 0.22078 0.48854 0.0
C417 C 0.31798 0.22847 0.46201 0.0
C418 C 0.31827 0.22448 0.42124 0.0
C419 C 0.33133 0.21209 0.40649 0.0
H420 H 0.82827 0.15995 0.48816 0.0
H421 H 0.81802 0.13829 0.36417 0.0
H422 H 0.75387 0.10381 0.4388 0.0
H423 H 0.86467 0.16418 0.44429 0.0
H424 H 0.86042 0.16541 0.3925 0.0
H425 H 0.86018 0.1985 0.49052 0.0
H426 H 0.90071 0.27498 0.44736 0.0
H427 H 0.87931 0.20736 0.36938 0.0
C428 C 0.81578 0.15066 0.46207 0.0
C429 C 0.78963 0.1335 0.46685 0.0
C430 C 0.82607 0.15377 0.4248 0.0
C431 C 0.80986 0.1379 0.39231 0.0
C432 C 0.78371 0.11953 0.39713 0.0
C433 C 0.77355 0.11873 0.43408 0.0
C434 C 0.855 0.16996 0.42149 0.0
C435 C 0.86548 0.19919 0.42777 0.0
C436 C 0.86683 0.21048 0.46553 0.0
C437 C 0.87871 0.23768 0.47233 0.0
C438 C 0.89028 0.25392 0.44141 0.0
C439 C 0.89169 0.24322 0.40463 0.0
C440 C 0.87801 0.21583 0.39739 0.0
H441 H 0.04028 0.52204 0.1924 0.0
H442 H 0.07892 0.57038 0.29805 0.0
H443 H 0.01516 0.57251 0.2409 0.0
H444 H 0.09493 0.54837 0.22144 0.0
H445 H 0.09473 0.54375 0.27271 0.0
H446 H 0.06904 0.5104 0.17262 0.0
H447 H 0.05082 0.43492 0.21148 0.0
H448 H 0.07778 0.50009 0.29617 0.0
C449 C 0.04139 0.53499 0.21647 0.0
C450 C 0.0247 0.54519 0.21433 0.0
C451 C 0.06076 0.54343 0.24711 0.0
C452 C 0.06304 0.56234 0.2759 0.0
C453 C 0.04639 0.5727 0.27416 0.0
C454 C 0.02671 0.56317 0.24417 0.0
C455 C 0.08224 0.53691 0.24496 0.0
C456 C 0.07292 0.50821 0.23573 0.0
C457 C 0.06678 0.49776 0.1964 0.0
C458 C 0.05828 0.47122 0.1875 0.0
C459 C 0.05696 0.45539 0.21808 0.0
C460 C 0.06433 0.46577 0.25702 0.0
C461 C 0.07195 0.49207 0.26602 0.0
H462 H 0.51273 0.50974 0.20932 0.0
H463 H 0.5348 0.53625 0.3319 0.0
H464 H 0.55831 0.59127 0.24126 0.0
H465 H 0.51973 0.48299 0.27423 0.0
H466 H 0.50818 0.49049 0.31731 0.0
H467 H 0.49178 0.46779 0.21029 0.0
H468 H 0.41039 0.42498 0.22457 0.0
H469 H 0.46223 0.47101 0.3229 0.0
C470 C 0.52103 0.52504 0.23237 0.0
C471 C 0.53446 0.55092 0.22106 0.0
C472 C 0.51979 0.51928 0.27256 0.0
C473 C 0.53371 0.5402 0.30119 0.0
C474 C 0.54733 0.56617 0.2898 0.0
C475 C 0.54679 0.57129 0.25004 0.0
C476 C 0.50756 0.49108 0.28462 0.0
C477 C 0.48011 0.47316 0.26771 0.0
C478 C 0.47564 0.46304 0.2283 0.0
C479 C 0.45046 0.4468 0.21195 0.0
C480 C 0.42981 0.43846 0.23656 0.0
C481 C 0.43383 0.44623 0.27681 0.0
C482 C 0.45895 0.46458 0.29195 0.0
H483 H 0.49806 0.98581 0.20333 0.0
H484 H 0.51369 0.96207 0.31481 0.0
H485 H 0.57578 0.01511 0.24707 0.0
H486 H 0.46978 0.93523 0.24466 0.0
H487 H 0.46997 0.94547 0.29424 0.0
H488 H 0.45769 0.95557 0.18898 0.0
H489 H 0.40236 0.97834 0.21749 0.0
H490 H 0.44416 0.96475 0.31051 0.0
C491 C 0.51113 0.98749 0.22722 0.0
C492 C 0.53768 0.00266 0.2219 0.0
C493 C 0.50196 0.97313 0.2612 0.0
C494 C 0.52016 0.97434 0.28987 0.0
C495 C 0.54677 0.98997 0.28519 0.0
C496 C 0.55528 0.00463 0.25184 0.0
C497 C 0.47364 0.95256 0.26389 0.0
C498 C 0.45445 0.96097 0.2513 0.0
C499 C 0.44861 0.96141 0.21106 0.0
C500 C 0.43083 0.96894 0.19888 0.0
C501 C 0.41691 0.97364 0.22717 0.0
C502 C 0.421 0.97154 0.26751 0.0
C503 C 0.44046 0.966 0.27945 0.0
H504 H 0.47165 0.94415 0.79807 0.0
H505 H 0.47516 0.98456 0.69263 0.0
H506 H 0.41897 0.97196 0.7777 0.0
H507 H 0.49451 0.94118 0.73807 0.0
H508 H 0.50027 0.96296 0.69946 0.0
H509 H 0.51221 0.97232 0.81242 0.0
H510 H 0.59389 0.01962 0.80455 0.0
H511 H 0.54503 0.99014 0.6987 0.0
C512 C 0.46512 0.95468 0.77994 0.0
C513 C 0.44475 0.95777 0.79205 0.0
C514 C 0.47701 0.96518 0.7448 0.0
C515 C 0.46677 0.9772 0.72043 0.0
C516 C 0.44496 0.97863 0.73133 0.0
C517 C 0.43464 0.96942 0.76766 0.0
C518 C 0.49895 0.96137 0.73194 0.0
C519 C 0.52498 0.98024 0.7529 0.0
C520 C 0.52844 0.98241 0.79447 0.0
C521 C 0.55318 0.9968 0.8135 0.0
C522 C 0.57459 0.00953 0.79052 0.0
C523 C 0.57172 0.00725 0.74935 0.0
C524 C 0.54699 0.99261 0.73062 0.0
H525 H 0.05686 0.52337 0.81379 0.0
H526 H 0.01761 0.4969 0.69824 0.0
H527 H 0.02333 0.44277 0.77363 0.0
H528 H 0.06394 0.55541 0.76266 0.0
H529 H 0.04752 0.54435 0.71498 0.0
H530 H 0.03638 0.5494 0.82254 0.0
H531 H 0.97223 0.56144 0.79801 0.0
H532 H 0.01098 0.5494 0.70271 0.0
C533 C 0.04659 0.50799 0.79086 0.0
C534 C 0.04108 0.48246 0.79751 0.0
C535 C 0.03858 0.51352 0.75469 0.0
C536 C 0.02451 0.49304 0.72567 0.0
C537 C 0.0195 0.46761 0.7322 0.0
C538 C 0.02806 0.46264 0.76792 0.0
C539 C 0.04519 0.54119 0.74704 0.0
C540 C 0.02463 0.54671 0.76123 0.0
C541 C 0.02261 0.55009 0.80194 0.0
C542 C 0.004 0.55586 0.81579 0.0
C543 C 0.98694 0.55734 0.78811 0.0
C544 C 0.98985 0.55587 0.74754 0.0
C545 C 0.00854 0.55027 0.73409 0.0
H546 H 0.48896 0.4907 0.82344 0.0
H547 H 0.47607 0.45256 0.70819 0.0
H548 H 0.41304 0.4323 0.78278 0.0
H549 H 0.51974 0.47445 0.78534 0.0
H550 H 0.51866 0.47774 0.73386 0.0
H551 H 0.53014 0.51328 0.83339 0.0
H552 H 0.58531 0.5865 0.79059 0.0
H553 H 0.54084 0.5199 0.70891 0.0
C554 C 0.47612 0.47831 0.79928 0.0
C555 C 0.4499 0.46307 0.80618 0.0
C556 C 0.48593 0.47476 0.76407 0.0
C557 C 0.46859 0.45657 0.7345 0.0
C558 C 0.44206 0.44122 0.74075 0.0
C559 C 0.43289 0.4455 0.77613 0.0
C560 C 0.51454 0.4843 0.76242 0.0
C561 C 0.53204 0.51357 0.76985 0.0
C562 C 0.53829 0.52511 0.80847 0.0
C563 C 0.55647 0.55172 0.81565 0.0
C564 C 0.57008 0.56642 0.78434 0.0
C565 C 0.56514 0.55499 0.74576 0.0
C566 C 0.54514 0.52888 0.73857 0.0
H567 H 0.72068 0.86746 0.5116 0.0
H568 H 0.74534 0.89495 0.63273 0.0
H569 H 0.69149 0.91117 0.57117 0.0
H570 H 0.76493 0.87695 0.54636 0.0
H571 H 0.76579 0.87528 0.59863 0.0
H572 H 0.73317 0.83789 0.50289 0.0
H573 H 0.70708 0.76323 0.55126 0.0
H574 H 0.74489 0.83323 0.62758 0.0
C575 C 0.7188 0.87622 0.53879 0.0
C576 C 0.7031 0.88755 0.53835 0.0
C577 C 0.73344 0.87792 0.57314 0.0
C578 C 0.73277 0.89194 0.60702 0.0
C579 C 0.71762 0.90403 0.60661 0.0
C580 C 0.702 0.90064 0.57268 0.0
C581 C 0.75259 0.86836 0.57165 0.0
C582 C 0.73924 0.8389 0.56623 0.0
C583 C 0.7301 0.82639 0.5284 0.0
C584 C 0.71818 0.79909 0.52296 0.0
C585 C 0.71563 0.78431 0.55556 0.0
C586 C 0.7254 0.79647 0.59322 0.0
C587 C 0.73695 0.82376 0.5986 0.0
H588 H 0.18492 0.83476 0.53465 0.0
H589 H 0.19344 0.85874 0.65839 0.0
H590 H 0.22286 0.91593 0.57075 0.0
H591 H 0.18156 0.80491 0.59523 0.0
H592 H 0.17192 0.81289 0.64029 0.0
H593 H 0.15336 0.79491 0.53214 0.0
H594 H 0.0726 0.76327 0.54737 0.0
H595 H 0.12654 0.79538 0.64778 0.0
C596 C 0.19019 0.84966 0.55798 0.0
C597 C 0.20292 0.87586 0.54821 0.0
C598 C 0.1851 0.84301 0.59755 0.0
C599 C 0.19538 0.86334 0.62765 0.0
C600 C 0.20905 0.88966 0.61781 0.0
C601 C 0.21176 0.8956 0.57818 0.0
C602 C 0.1712 0.81448 0.60779 0.0
C603 C 0.1434 0.79959 0.59117 0.0
C604 C 0.13792 0.79187 0.5507 0.0
C605 C 0.11248 0.77913 0.5343 0.0
C606 C 0.09236 0.77271 0.55946 0.0
C607 C 0.09703 0.77682 0.60047 0.0
C608 C 0.12269 0.79152 0.61618 0.0
H609 H 0.1603 0.32355 0.5399 0.0
H610 H 0.1726 0.29489 0.64901 0.0
H611 H 0.2368 0.34693 0.58379 0.0
H612 H 0.12971 0.27075 0.58045 0.0
H613 H 0.12954 0.28236 0.62891 0.0
H614 H 0.12053 0.29181 0.52169 0.0
H615 H 0.06518 0.31587 0.5438 0.0
H616 H 0.10281 0.30091 0.64102 0.0
C617 C 0.17275 0.3235 0.56338 0.0
C618 C 0.19945 0.33737 0.55854 0.0
C619 C 0.16259 0.30828 0.59632 0.0
C620 C 0.17995 0.30764 0.62472 0.0
C621 C 0.20673 0.32211 0.62076 0.0
C622 C 0.21627 0.33737 0.58818 0.0
C623 C 0.13389 0.28872 0.59827 0.0
C624 C 0.1155 0.29758 0.58327 0.0
C625 C 0.11081 0.29776 0.54244 0.0
C626 C 0.0933 0.30513 0.52811 0.0
C627 C 0.07884 0.31026 0.55475 0.0
C628 C 0.08142 0.3079 0.59532 0.0
C629 C 0.10058 0.30263 0.60968 0.0
C630 C 0.05115 0.43042 0.0945 0.0
C631 C 0.0339 0.43431 0.07057 0.0
H632 H 0.07265 0.43936 0.14989 0.0
C633 C 0.02583 0.45163 0.08467 0.0
H634 H 0.05791 0.41739 0.08456 0.0
C635 C 0.0344 0.46432 0.12216 0.0
C636 C 0.05103 0.45977 0.14641 0.0
H637 H 0.01269 0.45523 0.06692 0.0
H638 H 0.02741 0.47706 0.13264 0.0
C639 C 0.05956 0.44296 0.132 0.0
C640 C 0.56661 0.55867 0.1257 0.0
C641 C 0.56689 0.58114 0.11255 0.0
H642 H 0.55531 0.53091 0.17052 0.0
C643 C 0.55125 0.58957 0.13039 0.0
H644 H 0.57828 0.55155 0.11231 0.0
C645 C 0.53814 0.57776 0.16374 0.0
C646 C 0.54022 0.55714 0.17947 0.0
H647 H 0.55086 0.60669 0.12076 0.0
H648 H 0.5281 0.58608 0.17911 0.0
C649 C 0.55329 0.5467 0.15886 0.0
C650 C 0.44489 0.99133 0.09489 0.0
C651 C 0.41993 0.98222 0.07788 0.0
H652 H 0.46783 0.99413 0.14651 0.0
C653 C 0.39854 0.9675 0.10042 0.0
H654 H 0.46178 0.00262 0.07833 0.0
C655 C 0.40203 0.96263 0.13939 0.0
C656 C 0.42698 0.97226 0.15663 0.0
H657 H 0.37903 0.96005 0.08824 0.0
H658 H 0.3852 0.95145 0.15613 0.0
C659 C 0.44836 0.98632 0.13384 0.0
C660 C 0.43839 0.97219 0.89664 0.0
C661 C 0.41178 0.95553 0.89966 0.0
H662 H 0.47024 0.98497 0.85947 0.0
C663 C 0.39791 0.93496 0.87102 0.0
H664 H 0.44953 0.98798 0.9186 0.0
C665 C 0.40968 0.93349 0.837 0.0
C666 C 0.43555 0.95211 0.832 0.0
H667 H 0.37735 0.92189 0.87269 0.0
H668 H 0.39801 0.91949 0.81307 0.0
C669 C 0.45029 0.97032 0.86305 0.0
C670 C 0.06491 0.45267 0.87137 0.0
C671 C 0.04424 0.44242 0.89642 0.0
H672 H 0.08022 0.47403 0.81968 0.0
C673 C 0.02591 0.4506 0.89338 0.0
H674 H 0.0793 0.44668 0.87298 0.0
C675 C 0.02686 0.46676 0.86358 0.0
C676 C 0.04602 0.47478 0.83617 0.0
H677 H 0.00999 0.44337 0.91254 0.0
H678 H 0.01134 0.47105 0.85983 0.0
C679 C 0.06559 0.46847 0.84109 0.0
C680 C 0.5473 0.57422 0.91643 0.0
C681 C 0.57291 0.58926 0.93204 0.0
H682 H 0.52207 0.55021 0.86743 0.0
C683 C 0.59301 0.59119 0.90948 0.0
H684 H 0.53139 0.57221 0.93318 0.0
C685 C 0.58766 0.57883 0.87182 0.0
C686 C 0.5621 0.56397 0.85617 0.0
H687 H 0.61295 0.6026 0.92064 0.0
H688 H 0.60353 0.58083 0.85493 0.0
C689 C 0.54194 0.56151 0.87896 0.0
C690 C 0.99765 0.58941 0.90889 0.0
C691 C 0.0061 0.57904 0.93848 0.0
H692 H 0.99186 0.59162 0.8475 0.0
C693 C 0.01303 0.56024 0.92801 0.0
H694 H 0.99267 0.6043 0.91615 0.0
C695 C 0.01156 0.55198 0.88842 0.0
C696 C 0.00385 0.56294 0.85841 0.0
H697 H 0.01957 0.55192 0.95046 0.0
H698 H 0.01663 0.53714 0.88146 0.0
C699 C 0.99698 0.58184 0.86937 0.0
C700 C 0.4442 0.44072 0.90885 0.0
C701 C 0.41857 0.43355 0.91519 0.0
H702 H 0.47457 0.4564 0.86934 0.0
C703 C 0.40569 0.44233 0.89011 0.0
H704 H 0.4547 0.43461 0.92814 0.0
C705 C 0.4171 0.45495 0.85613 0.0
C706 C 0.4416 0.45919 0.84723 0.0
H707 H 0.3859 0.43714 0.89452 0.0
H708 H 0.40593 0.45929 0.83515 0.0
C709 C 0.45569 0.45354 0.87526 0.0
C710 C 0.584 0.01661 0.9175 0.0
C711 C 0.57075 0.99291 0.9362 0.0
H712 H 0.58805 0.03679 0.86475 0.0
C713 C 0.54997 0.97123 0.91543 0.0
H714 H 0.59982 0.0338 0.93289 0.0
C715 C 0.54346 0.9728 0.87613 0.0
C716 C 0.55738 0.99622 0.85684 0.0
H717 H 0.53935 0.95267 0.92901 0.0
H718 H 0.52832 0.95528 0.86041 0.0
C719 C 0.57724 0.0183 0.87841 0.0
C720 C 0.5841 0.03857 0.14421 0.0
C721 C 0.57567 0.0183 0.11478 0.0
H722 H 0.57814 0.04965 0.20198 0.0
C723 C 0.55138 0.9958 0.11691 0.0
H724 H 0.60275 0.05617 0.1432 0.0
C725 C 0.53722 0.99218 0.15025 0.0
C726 C 0.54729 0.0109 0.18221 0.0
H727 H 0.54421 0.9801 0.09425 0.0
H728 H 0.51976 0.97352 0.15261 0.0
C729 C 0.57006 0.03483 0.17789 0.0
C730 C 0.97747 0.55038 0.14523 0.0
C731 C 0.99292 0.56056 0.11304 0.0
H732 H 0.97537 0.53668 0.2034 0.0
C733 C 0.01511 0.55841 0.11037 0.0
H734 H 0.96019 0.55176 0.14784 0.0
C735 C 0.02372 0.54969 0.14189 0.0
C736 C 0.01034 0.54324 0.17674 0.0
H737 H 0.027 0.56556 0.08535 0.0
H738 H 0.04235 0.55096 0.14056 0.0
C739 C 0.98619 0.54183 0.17704 0.0
C740 C 0.45545 0.42111 0.11039 0.0
C741 C 0.43319 0.41809 0.09015 0.0
H742 H 0.47807 0.43186 0.16499 0.0
C743 C 0.41747 0.42572 0.10956 0.0
H744 H 0.46789 0.41531 0.09617 0.0
C745 C 0.42361 0.43576 0.14858 0.0
C746 C 0.44533 0.43792 0.16947 0.0
H747 H 0.4004 0.424 0.09455 0.0
H748 H 0.41119 0.44173 0.16245 0.0
C749 C 0.46137 0.43075 0.14977 0.0
C750 C 0.6843 0.7772 0.42129 0.0
C751 C 0.6912 0.75867 0.40868 0.0
H752 H 0.68774 0.80479 0.46726 0.0
C753 C 0.70773 0.75426 0.43346 0.0
H754 H 0.67175 0.7812 0.40277 0.0
C755 C 0.71666 0.76761 0.47037 0.0
C756 C 0.70952 0.78588 0.48309 0.0
H757 H 0.71346 0.74017 0.42465 0.0
H758 H 0.7292 0.76365 0.48902 0.0
C759 C 0.69354 0.79083 0.45804 0.0
C760 C 0.21887 0.91593 0.45938 0.0
C761 C 0.23772 0.91133 0.44351 0.0
H762 H 0.19249 0.90762 0.50506 0.0
C763 C 0.24074 0.89076 0.45736 0.0
H764 H 0.21589 0.93146 0.44924 0.0
C765 C 0.22709 0.87694 0.48926 0.0
C766 C 0.21035 0.88359 0.50769 0.0
H767 H 0.25499 0.88662 0.44554 0.0
H768 H 0.23136 0.86275 0.50164 0.0
C769 C 0.20537 0.90223 0.49127 0.0
C770 C 0.10803 0.32602 0.42351 0.0
C771 C 0.08313 0.31706 0.40625 0.0
H772 H 0.13074 0.3291 0.47567 0.0
C773 C 0.06164 0.30243 0.42861 0.0
H774 H 0.125 0.33719 0.40705 0.0
C775 C 0.06497 0.29774 0.46771 0.0
C776 C 0.08984 0.30753 0.48539 0.0
H777 H 0.04217 0.29498 0.41622 0.0
H778 H 0.04803 0.28675 0.48435 0.0
C779 C 0.11134 0.32124 0.4627 0.0
C780 C 0.05625 0.26708 0.20163 0.0
C781 C 0.07101 0.28699 0.23077 0.0
H782 H 0.056 0.25063 0.14428 0.0
C783 C 0.09799 0.30107 0.22945 0.0
H784 H 0.03539 0.25602 0.20202 0.0
C785 C 0.10977 0.29747 0.19698 0.0
C786 C 0.09461 0.28012 0.16534 0.0
H787 H 0.10977 0.31628 0.25188 0.0
H788 H 0.13033 0.31029 0.19464 0.0
C789 C 0.06798 0.26391 0.16871 0.0
C790 C 0.66905 0.76408 0.22294 0.0
C791 C 0.69208 0.76402 0.23209 0.0
H792 H 0.64915 0.77677 0.18409 0.0
C793 C 0.71435 0.78089 0.21262 0.0
H794 H 0.65156 0.75148 0.23729 0.0
C795 C 0.71289 0.79555 0.18199 0.0
C796 C 0.68923 0.79362 0.17074 0.0
H797 H 0.7324 0.78134 0.21902 0.0
H798 H 0.72966 0.80662 0.16505 0.0
C799 C 0.66766 0.77873 0.1926 0.0
C800 C 0.25522 0.9251 0.24213 0.0
C801 C 0.23566 0.92243 0.26654 0.0
H802 H 0.2646 0.91619 0.18566 0.0
C803 C 0.20971 0.90717 0.25232 0.0
H804 H 0.27539 0.93661 0.25213 0.0
C805 C 0.20354 0.8952 0.21419 0.0
C806 C 0.22324 0.89869 0.18956 0.0
H807 H 0.19418 0.90455 0.27056 0.0
H808 H 0.18349 0.88385 0.20356 0.0
C809 C 0.24908 0.91347 0.20403 0.0
C810 C 0.66117 0.91276 0.24212 0.0
C811 C 0.68544 0.92421 0.26254 0.0
H812 H 0.63874 0.89308 0.18882 0.0
C813 C 0.70587 0.92352 0.24428 0.0
H814 H 0.64494 0.91263 0.25548 0.0
C815 C 0.7024 0.91257 0.20595 0.0
C816 C 0.67835 0.90184 0.18502 0.0
H817 H 0.72484 0.93214 0.25914 0.0
H818 H 0.71887 0.91348 0.19221 0.0
C819 C 0.65764 0.90157 0.20388 0.0
C820 C 0.06699 0.78016 0.20655 0.0
C821 C 0.08023 0.77408 0.23535 0.0
H822 H 0.06782 0.79382 0.14862 0.0
C823 C 0.10666 0.78339 0.23255 0.0
H824 H 0.04656 0.77321 0.20821 0.0
C825 C 0.11885 0.79535 0.19882 0.0
C826 C 0.10464 0.79784 0.16713 0.0
H827 H 0.11736 0.77937 0.25481 0.0
H828 H 0.13854 0.79972 0.19584 0.0
C829 C 0.07912 0.79188 0.17243 0.0
C830 C 0.20914 0.29866 0.25561 0.0
C831 C 0.23064 0.32104 0.27381 0.0
H832 H 0.18666 0.27972 0.20207 0.0
C833 C 0.24439 0.34304 0.25159 0.0
H834 H 0.19808 0.28135 0.27187 0.0
C835 C 0.23746 0.3423 0.21169 0.0
C836 C 0.21688 0.3194 0.19285 0.0
H837 H 0.26079 0.36074 0.26484 0.0
H838 H 0.24868 0.35951 0.19532 0.0
C839 C 0.20242 0.29779 0.21556 0.0
C840 C 0.21279 0.33243 0.45269 0.0
C841 C 0.23781 0.35398 0.45162 0.0
H842 H 0.18053 0.31062 0.48752 0.0
C843 C 0.24726 0.37347 0.48243 0.0
H844 H 0.20493 0.31733 0.42901 0.0
C845 C 0.23331 0.3696 0.51625 0.0
C846 C 0.20962 0.34637 0.51933 0.0
H847 H 0.26654 0.39028 0.48228 0.0
H848 H 0.24206 0.38362 0.54129 0.0
C849 C 0.19871 0.32873 0.48616 0.0
C850 C 0.70204 0.91355 0.4395 0.0
C851 C 0.67809 0.91247 0.43863 0.0
H852 H 0.72853 0.9058 0.47166 0.0
C853 C 0.66035 0.8983 0.46675 0.0
H854 H 0.71588 0.9239 0.41779 0.0
C855 C 0.66761 0.88792 0.49778 0.0
C856 C 0.69252 0.89119 0.50064 0.0
H857 H 0.64171 0.89714 0.46668 0.0
H858 H 0.65443 0.87892 0.52094 0.0
C859 C 0.70915 0.90287 0.47013 0.0
C860 C 0.07766 0.74033 0.43881 0.0
C861 C 0.09446 0.75551 0.41048 0.0
H862 H 0.07078 0.73484 0.49967 0.0
C863 C 0.11753 0.77842 0.42276 0.0
H864 H 0.06 0.72226 0.43014 0.0
C865 C 0.12339 0.78632 0.46287 0.0
C866 C 0.10658 0.77104 0.49145 0.0
H867 H 0.13081 0.79043 0.40133 0.0
H868 H 0.14094 0.8045 0.47136 0.0
C869 C 0.08382 0.74773 0.47877 0.0
C870 C 0.33956 0.09994 0.75991 0.0
C871 C 0.34733 0.08232 0.74607 0.0
H872 H 0.34279 0.127 0.80657 0.0
C873 C 0.36512 0.07896 0.76946 0.0
H874 H 0.32601 0.10314 0.74249 0.0
C875 C 0.37458 0.09254 0.80611 0.0
C876 C 0.36664 0.10995 0.82002 0.0
H877 H 0.37158 0.06563 0.75967 0.0
H878 H 0.38822 0.08949 0.82358 0.0
C879 C 0.34926 0.11375 0.79642 0.0
C880 C 0.87979 0.27198 0.78869 0.0
C881 C 0.89234 0.26086 0.76823 0.0
H882 H 0.8595 0.27107 0.83993 0.0
C883 C 0.88883 0.23657 0.77916 0.0
H884 H 0.88183 0.2905 0.78069 0.0
C885 C 0.87594 0.22541 0.81299 0.0
C886 C 0.86642 0.2384 0.83645 0.0
H887 H 0.89796 0.22731 0.76364 0.0
H888 H 0.87589 0.20813 0.82289 0.0
C889 C 0.86695 0.26083 0.82259 0.0
C890 C 0.77655 0.66111 0.76275 0.0
C891 C 0.75172 0.65423 0.74743 0.0
H892 H 0.7998 0.66248 0.81304 0.0
C893 C 0.73076 0.64207 0.77167 0.0
H894 H 0.79309 0.67035 0.74478 0.0
C895 C 0.73466 0.63767 0.81074 0.0
C896 C 0.75955 0.64509 0.82622 0.0
H897 H 0.71138 0.63646 0.76078 0.0
H898 H 0.71823 0.62862 0.82897 0.0
C899 C 0.78039 0.65645 0.80171 0.0
C900 C 0.73253 0.60568 0.54464 0.0
C901 C 0.74551 0.62895 0.56873 0.0
H902 H 0.73252 0.58587 0.49047 0.0
C903 C 0.77106 0.64753 0.56142 0.0
H904 H 0.71282 0.59101 0.5496 0.0
C905 C 0.7823 0.64437 0.52799 0.0
C906 C 0.76816 0.62261 0.50158 0.0
H907 H 0.78165 0.66547 0.57969 0.0
H908 H 0.80114 0.66002 0.52093 0.0
C909 C 0.74374 0.60264 0.51091 0.0
C910 C 0.37106 0.10798 0.55181 0.0
C911 C 0.3488 0.09107 0.57124 0.0
H912 H 0.3865 0.13452 0.50524 0.0
C913 C 0.32603 0.09187 0.56332 0.0
H914 H 0.38892 0.10788 0.5573 0.0
C915 C 0.32481 0.10728 0.53405 0.0
C916 C 0.34631 0.12222 0.5121 0.0
H917 H 0.30856 0.07929 0.57773 0.0
H918 H 0.30645 0.10589 0.52636 0.0
C919 C 0.36979 0.12342 0.52228 0.0
C920 C 0.88268 0.27974 0.56214 0.0
C921 C 0.89701 0.27393 0.58943 0.0
H922 H 0.86588 0.27295 0.50295 0.0
C923 C 0.90408 0.25533 0.57837 0.0
H924 H 0.87706 0.29408 0.56989 0.0
C925 C 0.89725 0.24298 0.54073 0.0
C926 C 0.88357 0.24926 0.5131 0.0
H927 H 0.91499 0.25033 0.59884 0.0
H928 H 0.90334 0.22904 0.5328 0.0
C929 C 0.87631 0.26774 0.52399 0.0
C930 C 0.35821 0.24669 0.59305 0.0
C931 C 0.33729 0.24681 0.61053 0.0
H932 H 0.37279 0.23883 0.54096 0.0
C933 C 0.31368 0.23647 0.58847 0.0
H934 H 0.37672 0.25454 0.60915 0.0
C935 C 0.31129 0.22692 0.54943 0.0
C936 C 0.33254 0.22781 0.53141 0.0
H937 H 0.2971 0.23597 0.60119 0.0
H938 H 0.29286 0.2192 0.53315 0.0
C939 C 0.35591 0.23743 0.55393 0.0
C940 C 0.74442 0.10985 0.54961 0.0
C941 C 0.75625 0.09928 0.57328 0.0
H942 H 0.74597 0.12929 0.49667 0.0
C943 C 0.7812 0.10452 0.56557 0.0
H944 H 0.72517 0.10613 0.55493 0.0
C945 C 0.79313 0.11796 0.53261 0.0
C946 C 0.7802 0.12618 0.50666 0.0
H947 H 0.79088 0.09687 0.58352 0.0
H948 H 0.81155 0.11996 0.52574 0.0
C949 C 0.75623 0.12303 0.51626 0.0
C950 C 0.87444 0.62127 0.58 0.0
C951 C 0.89595 0.64395 0.59752 0.0
H952 H 0.8516 0.60151 0.52706 0.0
C953 C 0.90987 0.66536 0.57426 0.0
H954 H 0.86332 0.60435 0.59699 0.0
C955 C 0.90284 0.66388 0.53422 0.0
C956 C 0.88193 0.64084 0.51631 0.0
H957 H 0.92637 0.68323 0.58687 0.0
H958 H 0.91401 0.68076 0.51718 0.0
C959 C 0.86759 0.61968 0.53985 0.0
C960 C 0.91279 0.69886 0.80691 0.0
C961 C 0.90309 0.67852 0.77737 0.0
H962 H 0.90874 0.71046 0.86555 0.0
C963 C 0.87866 0.65644 0.78072 0.0
H964 H 0.93164 0.71607 0.80504 0.0
C965 C 0.86548 0.65335 0.81503 0.0
C966 C 0.87671 0.67216 0.84677 0.0
H967 H 0.87063 0.64063 0.75812 0.0
H968 H 0.84777 0.63504 0.81812 0.0
C969 C 0.89978 0.6956 0.8416 0.0
C970 C 0.30925 0.21905 0.81598 0.0
C971 C 0.3247 0.23016 0.78406 0.0
H972 H 0.30677 0.2029 0.87238 0.0
C973 C 0.34687 0.22812 0.78022 0.0
H974 H 0.29201 0.22037 0.8195 0.0
C975 C 0.3552 0.21799 0.81014 0.0
C976 C 0.34157 0.20997 0.8446 0.0
H977 H 0.35877 0.236 0.75539 0.0
H978 H 0.37367 0.21897 0.80794 0.0
C979 C 0.31772 0.20913 0.84623 0.0
C980 C 0.7507 0.09692 0.76992 0.0
C981 C 0.76768 0.09057 0.75156 0.0
H982 H 0.74326 0.11348 0.82117 0.0
C983 C 0.79107 0.09674 0.77183 0.0
H984 H 0.73272 0.09278 0.7549 0.0
C985 C 0.79695 0.10824 0.81019 0.0
C986 C 0.77968 0.11406 0.82891 0.0
H987 H 0.80456 0.09207 0.75848 0.0
H988 H 0.81463 0.11179 0.82554 0.0
C989 C 0.75674 0.10872 0.80798 0.0
C990 C 0.08332 0.32599 0.9776 0.0
C991 C 0.07744 0.34406 0.99568 0.0
H992 H 0.09856 0.30019 0.98556 0.0
C993 C 0.08542 0.35221 0.03544 0.0
H994 H 0.07759 0.31946 0.94689 0.0
C995 C 0.09774 0.34156 0.0572 0.0
C996 C 0.10213 0.32222 0.03994 0.0
H997 H 0.08165 0.36644 0.05011 0.0
H998 H 0.10304 0.34779 0.08809 0.0
C999 C 0.09553 0.31511 -0.00041 0.0
C1000 C 0.65287 0.7246 0.01216 0.0
C1001 C 0.62625 0.70911 0.01722 0.0
H1002 H 0.68656 0.76251 0.02211 0.0
C1003 C 0.6122 0.72175 0.0262 0.0
H1004 H 0.66425 0.71562 0.0047 0.0
C1005 C 0.62507 0.74871 0.0359 0.0
C1006 C 0.65206 0.76342 0.03615 0.0
H1007 H 0.59163 0.71054 0.0299 0.0
H1008 H 0.61426 0.75738 0.04764 0.0
C1009 C 0.66566 0.75157 0.02159 0.0
C1010 C 0.29527 0.93937 0.04471 0.0
C1011 C 0.29076 0.93746 0.00365 0.0
H1012 H 0.27971 0.92705 0.10027 0.0
C1013 C 0.26528 0.92253 0.98741 0.0
H1014 H 0.31462 0.95061 0.05832 0.0
C1015 C 0.24479 0.90915 0.01196 0.0
C1016 C 0.24955 0.9106 0.05304 0.0
H1017 H 0.26123 0.92075 0.95581 0.0
H1018 H 0.22536 0.89745 -0.00117 0.0
C1019 C 0.27505 0.92601 0.06896 0.0
C1020 C 0.41992 0.09114 0.97836 0.0
C1021 C 0.3986 0.06627 0.98385 0.0
H1022 H 0.4326 0.12929 0.95738 0.0
C1023 C 0.37377 0.06333 0.98265 0.0
H1024 H 0.43935 0.09424 0.97974 0.0
C1025 C 0.36999 0.08346 0.96985 0.0
C1026 C 0.39101 0.10691 0.95875 0.0
H1027 H 0.35692 0.04462 0.98739 0.0
H1028 H 0.35045 0.07966 0.96448 0.0
C1029 C 0.41612 0.11137 0.96594 0.0
C1030 C 0.9471 0.29657 0.98361 0.0
C1031 C 0.94536 0.31951 0.98592 0.0
H1032 H 0.92688 0.25503 0.97016 0.0
C1033 C 0.92069 0.31695 0.9859 0.0
H1034 H 0.96573 0.29774 0.98378 0.0
C1035 C 0.89851 0.29248 0.97837 0.0
C1036 C 0.90051 0.27004 0.97112 0.0
H1037 H 0.91853 0.3341 0.98822 0.0
H1038 H 0.88001 0.29147 0.9742 0.0
C1039 C 0.92481 0.27201 0.97622 0.0
C1040 C 0.72226 0.67827 0.98756 0.0
C1041 C 0.70296 0.6565 0.0055 0.0
H1042 H 0.75499 0.6927 0.95171 0.0
C1043 C 0.70418 0.63331 0.00561 0.0
H1044 H 0.72182 0.69639 0.98708 0.0
C1045 C 0.7235 0.63147 0.98629 0.0
C1046 C 0.74166 0.6526 0.96597 0.0
H1047 H 0.6897 0.6163 0.01956 0.0
H1048 H 0.7232 0.61294 0.98501 0.0
C1049 C 0.74128 0.67623 0.96753 0.0
C1050 C 0.93664 0.66829 0.01076 0.0
C1051 C 0.93404 0.64333 0.01282 0.0
H1052 H 0.91998 0.69073 0.98947 0.0
C1053 C 0.9109 0.62127 -0.00194 0.0
H1054 H 0.95423 0.68565 0.02194 0.0
C1055 C 0.89109 0.62417 0.9805 0.0
C1056 C 0.89423 0.64921 0.97678 0.0
H1057 H 0.90824 0.60177 -0.00046 0.0
H1058 H 0.87387 0.60694 0.96799 0.0
C1059 C 0.91704 0.67122 0.99247 0.0
C1060 C 0.41629 0.30134 0.98211 0.0
C1061 C 0.39678 0.30696 0.9914 0.0
H1062 H 0.42514 0.2725 0.96046 0.0
C1063 C 0.37165 0.28597 0.99537 0.0
H1064 H 0.43597 0.31695 0.9795 0.0
C1065 C 0.36552 0.2603 0.98495 0.0
C1066 C 0.38436 0.2552 0.97028 0.0
H1067 H 0.35622 0.2895 0.0032 0.0
H1068 H 0.34555 0.2448 0.98477 0.0
C1069 C 0.41013 0.2757 0.9716 0.0
C1070 C 0.7174 0.10789 0.011 0.0
C1071 C 0.70245 0.0804 0.00575 0.0
H1072 H 0.75013 0.14312 0.99295 0.0
C1073 C 0.71049 0.06723 0.97982 0.0
H1074 H 0.71178 0.11859 0.03101 0.0
C1075 C 0.7324 0.08115 0.95867 0.0
C1076 C 0.74676 0.10867 0.96242 0.0
H1077 H 0.69974 0.04607 0.97553 0.0
H1078 H 0.73791 0.0703 0.93875 0.0
C1079 C 0.73941 0.12194 0.98946 0.0
C1080 C 0.61067 0.90934 0.03873 0.0
C1081 C 0.62626 0.9358 0.03025 0.0
H1082 H 0.60975 0.87491 0.05916 0.0
C1083 C 0.65286 0.94566 0.02668 0.0
H1084 H 0.59008 0.90093 0.0413 0.0
C1085 C 0.66399 0.93043 0.03628 0.0
C1086 C 0.64869 0.90516 0.04941 0.0
H1087 H 0.66545 0.96584 0.01989 0.0
H1088 H 0.68481 0.93937 0.03739 0.0
C1089 C 0.62184 0.89424 0.04855 0.0
C1090 C 0.08884 0.70403 0.03492 0.0
C1091 C 0.06184 0.69278 0.0312 0.0
H1092 H 0.12517 0.7386 0.04862 0.0
C1093 C 0.05142 0.70948 0.02971 0.0
H1094 H 0.09762 0.69184 0.03553 0.0
C1095 C 0.06743 0.73657 0.03656 0.0
C1096 C 0.0941 0.74745 0.04525 0.0
H1097 H 0.03075 0.70155 0.02628 0.0
H1098 H 0.05867 0.74877 0.03826 0.0
C1099 C 0.10478 0.73105 0.04197 0.0
C1100 C 0.27815 0.35245 0.00469 0.0
C1101 C 0.29833 0.3487 0.0189 0.0
H1102 H 0.24072 0.34736 0.01443 0.0
C1103 C 0.29546 0.33558 0.05371 0.0
H1104 H 0.27978 0.36246 0.97786 0.0
C1105 C 0.27314 0.32685 0.07431 0.0
C1106 C 0.25323 0.33119 0.0608 0.0
H1107 H 0.3105 0.33211 0.06524 0.0
H1108 H 0.2715 0.31668 0.10097 0.0
C1109 C 0.25576 0.34374 0.02547 0.0
C1110 C 0.74242 0.65241 0.31166 0.0
C1111 C 0.73986 0.67334 0.32731 0.0
H1112 H 0.75691 0.62617 0.32138 0.0
C1113 C 0.75344 0.68631 0.36301 0.0
H1114 H 0.73236 0.64213 0.28403 0.0
C1115 C 0.76786 0.67752 0.38386 0.0
C1116 C 0.76877 0.65531 0.36984 0.0
H1117 H 0.75231 0.70281 0.37553 0.0
H1118 H 0.7773 0.68735 0.41205 0.0
C1119 C 0.7567 0.64341 0.33281 0.0
C1120 C 0.31183 0.05805 0.3486 0.0
C1121 C 0.28577 0.04098 0.35576 0.0
H1122 H 0.34414 0.09694 0.35803 0.0
C1123 C 0.2707 0.05185 0.36806 0.0
H1124 H 0.32393 0.05044 0.33857 0.0
C1125 C 0.28235 0.07856 0.37897 0.0
C1126 C 0.3091 0.09481 0.37712 0.0
H1127 H 0.25049 0.03939 0.37344 0.0
H1128 H 0.27105 0.08582 0.39325 0.0
C1129 C 0.32339 0.0848 0.3592 0.0
C1130 C 0.95777 0.28995 0.37111 0.0
C1131 C 0.95464 0.28401 0.3303 0.0
H1132 H 0.94052 0.2818 0.42631 0.0
C1133 C 0.92973 0.26721 0.3131 0.0
H1134 H 0.97666 0.30303 0.38524 0.0
C1135 C 0.90863 0.25513 0.33687 0.0
C1136 C 0.91213 0.25982 0.37809 0.0
H1137 H 0.92673 0.26243 0.28162 0.0
H1138 H 0.8898 0.24135 0.3232 0.0
C1139 C 0.93684 0.278 0.39469 0.0
C1140 C 0.09219 0.42948 0.30564 0.0
C1141 C 0.06952 0.40556 0.31051 0.0
H1142 H 0.10815 0.46836 0.28568 0.0
C1143 C 0.04567 0.40489 0.30862 0.0
H1144 H 0.1109 0.4308 0.30743 0.0
C1145 C 0.04419 0.42642 0.29611 0.0
C1146 C 0.06655 0.44904 0.28619 0.0
H1147 H 0.02782 0.38693 0.31269 0.0
H1148 H 0.02537 0.42441 0.29024 0.0
C1149 C 0.09069 0.45111 0.29358 0.0
C1150 C 0.58192 0.63466 0.33162 0.0
C1151 C 0.60759 0.63994 0.33072 0.0
H1152 H 0.54192 0.60606 0.32031 0.0
C1153 C 0.612 0.61866 0.32832 0.0
H1154 H 0.57772 0.65048 0.33408 0.0
C1155 C 0.59127 0.59306 0.32127 0.0
C1156 C 0.5659 0.5884 0.31656 0.0
H1157 H 0.63146 0.62192 0.32787 0.0
H1158 H 0.59533 0.57742 0.31474 0.0
C1159 C 0.56128 0.60913 0.32433 0.0
C1160 C 0.37316 0.9528 0.34762 0.0
C1161 C 0.36265 0.96906 0.34088 0.0
H1162 H 0.39971 0.94071 0.32962 0.0
C1163 C 0.37365 0.98826 0.31316 0.0
H1164 H 0.36518 0.93786 0.36891 0.0
C1165 C 0.39385 0.99029 0.29123 0.0
C1166 C 0.40326 0.97287 0.29604 0.0
H1167 H 0.36629 0.00139 0.30775 0.0
H1168 H 0.40157 0.005 0.26957 0.0
C1169 C 0.39316 0.9546 0.32532 0.0
C1170 C 0.5863 0.96171 0.32563 0.0
C1171 C 0.60822 0.98422 0.34251 0.0
H1172 H 0.54908 0.94586 0.29545 0.0
C1173 C 0.60831 0.00809 0.34457 0.0
H1174 H 0.58558 0.94299 0.32396 0.0
C1175 C 0.5875 0.00972 0.32805 0.0
C1176 C 0.56597 0.98738 0.3101 0.0
H1177 H 0.62491 0.02575 0.35748 0.0
H1178 H 0.58858 0.02861 0.32798 0.0
C1179 C 0.56527 0.96324 0.30985 0.0
C1180 C 0.08252 0.64455 0.30359 0.0
C1181 C 0.06203 0.64889 0.31178 0.0
H1182 H 0.09366 0.61672 0.28578 0.0
C1183 C 0.03758 0.62714 0.31701 0.0
H1184 H 0.10172 0.66081 0.3 0.0
C1185 C 0.03306 0.60171 0.30945 0.0
C1186 C 0.05285 0.59756 0.29634 0.0
H1187 H 0.02144 0.62971 0.32401 0.0
H1188 H 0.01357 0.5854 0.31057 0.0
C1189 C 0.07797 0.61915 0.29588 0.0
C1190 C 0.37196 0.3941 0.31715 0.0
C1191 C 0.36609 0.40854 0.34429 0.0
H1192 H 0.39827 0.39449 0.27606 0.0
C1193 C 0.3837 0.43552 0.35136 0.0
H1194 H 0.35913 0.37323 0.3115 0.0
C1195 C 0.40627 0.44791 0.33049 0.0
C1196 C 0.41157 0.43348 0.30237 0.0
H1197 H 0.3798 0.44714 0.37235 0.0
H1198 H 0.4191 0.46883 0.33543 0.0
C1199 C 0.39444 0.40634 0.29676 0.0
C1200 C 0.31192 0.27652 0.37138 0.0
C1201 C 0.28544 0.26739 0.37486 0.0
H1202 H 0.3432 0.26925 0.38267 0.0
C1203 C 0.26932 0.24121 0.38423 0.0
H1204 H 0.32488 0.29648 0.36394 0.0
C1205 C 0.27988 0.2257 0.39479 0.0
C1206 C 0.30664 0.23592 0.39552 0.0
H1207 H 0.2488 0.23334 0.38674 0.0
H1208 H 0.26741 0.2066 0.40581 0.0
C1209 C 0.32244 0.26088 0.38172 0.0
C1210 C 0.76485 0.05492 0.34704 0.0
C1211 C 0.73783 0.0425 0.34826 0.0
H1212 H 0.80092 0.08985 0.36073 0.0
C1213 C 0.72641 0.05813 0.3535 0.0
H1214 H 0.77428 0.04356 0.34214 0.0
C1215 C 0.74182 0.08495 0.36366 0.0
C1216 C 0.76881 0.09645 0.36892 0.0
H1217 H 0.70564 0.0493 0.35395 0.0
H1218 H 0.73251 0.09599 0.37182 0.0
C1219 C 0.78022 0.08167 0.35724 0.0
C1220 C 0.95847 0.68754 0.37016 0.0
C1221 C 0.95806 0.67202 0.33763 0.0
H1222 H 0.93746 0.69228 0.41617 0.0
C1223 C 0.93488 0.64909 0.32565 0.0
H1224 H 0.97591 0.70559 0.37968 0.0
C1225 C 0.91281 0.64124 0.34698 0.0
C1226 C 0.91351 0.65634 0.38041 0.0
H1227 H 0.93398 0.63681 0.30054 0.0
H1228 H 0.89556 0.62285 0.3382 0.0
C1229 C 0.93642 0.67991 0.39108 0.0
C1230 C 0.39262 0.98855 0.68447 0.0
C1231 C 0.40675 0.01356 0.66985 0.0
H1232 H 0.39366 0.95762 0.71376 0.0
C1233 C 0.43391 0.02595 0.67166 0.0
H1234 H 0.37171 0.9782 0.68292 0.0
C1235 C 0.44662 0.0141 0.68972 0.0
C1236 C 0.43234 0.98964 0.70607 0.0
H1237 H 0.44535 0.04516 0.66035 0.0
H1238 H 0.46751 0.02457 0.69252 0.0
C1239 C 0.40522 0.9767 0.70207 0.0
C1240 C 0.9965 0.40276 0.67978 0.0
C1241 C 0.96968 0.39161 0.68258 0.0
H1242 H 0.03374 0.4366 0.69278 0.0
C1243 C 0.95975 0.40829 0.69115 0.0
H1244 H 0.00485 0.39065 0.67268 0.0
C1245 C 0.97644 0.43478 0.70217 0.0
C1246 C 0.0032 0.44489 0.70464 0.0
H1247 H 0.93919 0.40047 0.69307 0.0
H1248 H 0.96839 0.44652 0.71295 0.0
C1249 C 0.01311 0.42917 0.69093 0.0
C1250 C 0.61652 0.61025 0.69082 0.0
C1251 C 0.62512 0.59666 0.66685 0.0
H1252 H 0.58973 0.6077 0.73292 0.0
C1253 C 0.61152 0.56919 0.66481 0.0
H1254 H 0.62644 0.63147 0.69238 0.0
C1255 C 0.59097 0.55557 0.68879 0.0
C1256 C 0.58325 0.56914 0.71473 0.0
H1257 H 0.61775 0.55821 0.64655 0.0
H1258 H 0.58231 0.53449 0.68866 0.0
C1259 C 0.59557 0.59661 0.71415 0.0
C1260 C 0.75376 0.76367 0.65046 0.0
C1261 C 0.73169 0.73886 0.65283 0.0
H1262 H 0.76881 0.80233 0.63019 0.0
C1263 C 0.70718 0.7364 0.64706 0.0
H1264 H 0.77292 0.76637 0.65549 0.0
C1265 C 0.70491 0.75704 0.63253 0.0
C1266 C 0.72708 0.78045 0.62427 0.0
H1267 H 0.68974 0.71772 0.64929 0.0
H1268 H 0.68592 0.7537 0.6236 0.0
C1269 C 0.75144 0.7844 0.6363 0.0
C1270 C 0.23716 0.95753 0.65953 0.0
C1271 C 0.26328 0.96428 0.66373 0.0
H1272 H 0.1985 0.92729 0.6427 0.0
C1273 C 0.26911 0.94398 0.66539 0.0
H1274 H 0.23182 0.97255 0.65876 0.0
C1275 C 0.24974 0.91789 0.65709 0.0
C1276 C 0.22434 0.91176 0.64689 0.0
H1277 H 0.28893 0.94836 0.66914 0.0
H1278 H 0.25525 0.90305 0.65361 0.0
C1279 C 0.21788 0.93149 0.65094 0.0
C1280 C 0.05194 0.32589 0.67994 0.0
C1281 C 0.02578 0.31327 0.66645 0.0
H1282 H 0.09029 0.33416 0.668 0.0
C1283 C 0.01815 0.29793 0.63085 0.0
H1284 H 0.05841 0.33776 0.70739 0.0
C1285 C 0.03623 0.29578 0.60872 0.0
C1286 C 0.0625 0.30904 0.62134 0.0
H1287 H 0.99816 0.28765 0.61975 0.0
H1288 H 0.02959 0.28379 0.58135 0.0
C1289 C 0.07017 0.32375 0.65757 0.0
C1290 C 0.26646 0.33633 0.68252 0.0
C1291 C 0.26399 0.31137 0.68284 0.0
H1292 H 0.25004 0.35928 0.66256 0.0
C1293 C 0.24132 0.28968 0.66592 0.0
H1294 H 0.28367 0.35342 0.69535 0.0
C1295 C 0.22185 0.293 0.64807 0.0
C1296 C 0.22486 0.31811 0.64625 0.0
H1297 H 0.23878 0.27017 0.66599 0.0
H1298 H 0.20499 0.27611 0.63399 0.0
C1299 C 0.2472 0.33971 0.66399 0.0
C1300 C 0.75315 0.97078 0.65672 0.0
C1301 C 0.73269 0.97577 0.66123 0.0
H1302 H 0.76429 0.94346 0.63636 0.0
C1303 C 0.7073 0.95442 0.6594 0.0
H1304 H 0.77299 0.98666 0.65885 0.0
C1305 C 0.70232 0.92942 0.64696 0.0
C1306 C 0.72263 0.92545 0.63607 0.0
H1307 H 0.69108 0.95742 0.66348 0.0
H1308 H 0.68245 0.9139 0.64168 0.0
C1309 C 0.74816 0.94583 0.6442 0.0
C1310 C 0.03431 0.72319 0.63618 0.0
C1311 C 0.03044 0.73538 0.66928 0.0
H1312 H 0.05855 0.72643 0.58969 0.0
C1313 C 0.04939 0.76132 0.68111 0.0
H1314 H 0.02039 0.70314 0.62654 0.0
C1315 C 0.07146 0.77495 0.65948 0.0
C1316 C 0.07483 0.76283 0.62573 0.0
H1317 H 0.04702 0.77119 0.7067 0.0
H1318 H 0.0855 0.79506 0.66857 0.0
C1319 C 0.05622 0.73664 0.61492 0.0
C1320 C 0.93769 0.5683 0.71127 0.0
C1321 C 0.95264 0.59409 0.6994 0.0
H1322 H 0.93802 0.53537 0.73535 0.0
C1323 C 0.97896 0.60374 0.6935 0.0
H1324 H 0.91728 0.56001 0.71551 0.0
C1325 C 0.99069 0.58928 0.70426 0.0
C1326 C 0.9763 0.56508 0.72118 0.0
H1327 H 0.99099 0.62335 0.68388 0.0
H1328 H 0.01146 0.5983 0.70338 0.0
C1329 C 0.94947 0.554 0.72232 0.0
C1330 C 0.41841 0.37275 0.69973 0.0
C1331 C 0.39154 0.36204 0.70057 0.0
H1332 H 0.4556 0.40639 0.71136 0.0
C1333 C 0.38169 0.37916 0.70419 0.0
H1334 H 0.42666 0.36018 0.69614 0.0
C1335 C 0.39848 0.40605 0.71224 0.0
C1336 C 0.42534 0.41617 0.71708 0.0
H1337 H 0.36109 0.37162 0.70436 0.0
H1338 H 0.39035 0.41849 0.7183 0.0
C1339 C 0.43512 0.39949 0.70799 0.0
C1340 C 0.62392 0.00856 0.689 0.0
C1341 C 0.64387 0.03465 0.69627 0.0
H1342 H 0.58495 0.97964 0.69934 0.0
C1343 C 0.6389 0.05229 0.71767 0.0
H1344 H 0.62712 0.99461 0.67222 0.0
C1345 C 0.61484 0.04368 0.7332 0.0
C1346 C 0.5952 0.01743 0.72691 0.0
H1347 H 0.65386 0.07253 0.72358 0.0
H1348 H 0.61178 0.0573 0.75115 0.0
C1349 C 0.59972 1.00007 0.70399 0.0
loop_
_geom_bond_atom_site_label_1
_geom_bond_atom_site_label_2
_geom_bond_distance
_geom_bond_site_symmetry_2
_ccdc_geom_bond_type
Mg0 O1 2.028 1_556 S
Mg0 O7 1.986 1_455 S
Mg0 O9 2.114 . S
Mg0 O10 2.251 1_455 S
Mg0 O13 2.010 1_556 S
O1 Mg0 2.028 1_554 S
O1 C4 1.250 1_455 S
O2 Mg3 2.028 1_554 S
O2 C4 1.248 . S
Mg3 O2 2.028 1_556 S
Mg3 O8 2.032 . S
Mg3 O10 2.079 . S
C4 O1 1.250 1_655 S
C4 O2 1.248 . S
C5 O6 1.264 1_554 S
C5 O13 1.249 . S
O6 C5 1.264 1_556 S
O7 Mg0 1.986 1_655 S
O7 C11 1.246 . S
O8 Mg3 2.032 . S
O8 C11 1.259 . S
O9 Mg0 2.114 . S
O9 C12 1.252 . S
O10 Mg0 2.251 1_655 S
O10 Mg3 2.079 . S
O10 C12 1.273 1_655 S
C11 O7 1.246 . S
C11 O8 1.259 . S
C12 O9 1.252 . S
C12 O10 1.273 1_455 S
O13 Mg0 2.010 1_554 S
O13 C5 1.249 . S
Mg14 O15 2.028 1_554 S
Mg14 O21 1.986 . S
Mg14 O23 2.114 . S
Mg14 O24 2.251 . S
Mg14 O27 2.010 . S
O15 Mg14 2.028 1_556 S
O15 C18 1.250 . S
O16 Mg17 2.028 1_556 S
O16 C18 1.248 . S
Mg17 O16 2.028 1_554 S
Mg17 O22 2.032 . S
Mg17 O24 2.079 . S
C18 O15 1.250 . S
C18 O16 1.248 . S
C19 O20 1.264 . S
C19 O27 1.249 . S
O20 C19 1.264 . S
O21 Mg14 1.986 . S
O21 C25 1.246 . S
O22 Mg17 2.032 . S
O22 C25 1.259 . S
O23 Mg14 2.114 . S
O23 C26 1.252 . S
O24 Mg14 2.251 . S
O24 Mg17 2.079 . S
O24 C26 1.273 . S
C25 O21 1.246 . S
C25 O22 1.259 . S
C26 O23 1.252 . S
C26 O24 1.273 . S
O27 Mg14 2.010 . S
O27 C19 1.249 . S
Mg28 O29 2.022 1_556 S
Mg28 O35 1.986 1_565 S
Mg28 O37 2.114 . S
Mg28 O38 2.251 1_565 S
Mg28 O41 2.010 1_556 S
O29 Mg28 2.022 1_554 S
O29 C32 1.244 1_565 S
O30 Mg31 2.028 1_554 S
O30 C32 1.248 . S
Mg31 O30 2.028 1_556 S
Mg31 O36 2.032 . S
Mg31 O38 2.079 . S
C32 O29 1.244 1_545 S
C32 O30 1.248 . S
C33 O34 1.264 1_554 S
C33 O41 1.249 . S
O34 C33 1.264 1_556 S
O35 Mg28 1.986 1_545 S
O35 C39 1.246 . S
O36 Mg31 2.032 . S
O36 C39 1.259 . S
O37 Mg28 2.114 . S
O37 C40 1.252 . S
O38 Mg28 2.251 1_545 S
O38 Mg31 2.079 . S
O38 C40 1.273 1_545 S
C39 O35 1.246 . S
C39 O36 1.259 . S
C40 O37 1.252 . S
C40 O38 1.273 1_565 S
O41 Mg28 2.010 1_554 S
O41 C33 1.249 . S
Mg42 O43 2.028 1_554 S
Mg42 O49 1.986 1_655 S
Mg42 O51 2.114 . S
Mg42 O52 2.251 1_655 S
Mg42 O55 2.010 . S
O43 Mg42 2.028 1_556 S
O43 C46 1.250 1_655 S
O44 Mg45 2.028 1_556 S
O44 C46 1.248 . S
Mg45 O44 2.028 1_554 S
Mg45 O50 2.032 . S
Mg45 O52 2.079 . S
C46 O43 1.250 1_455 S
C46 O44 1.248 . S
C47 O48 1.277 . S
C47 O55 1.255 . S
O48 C47 1.277 . S
O49 Mg42 1.986 1_455 S
O49 C53 1.246 . S
O50 Mg45 2.032 . S
O50 C53 1.259 . S
O51 Mg42 2.114 . S
O51 C54 1.252 . S
O52 Mg42 2.251 1_455 S
O52 Mg45 2.079 . S
O52 C54 1.273 1_455 S
C53 O49 1.246 . S
C53 O50 1.259 . S
C54 O51 1.252 . S
C54 O52 1.273 1_655 S
O55 Mg42 2.010 . S
O55 C47 1.255 . S
Mg56 O57 2.028 1_556 S
Mg56 O63 1.986 . S
Mg56 O65 2.114 . S
Mg56 O66 2.251 . S
Mg56 O69 2.010 1_556 S
O57 Mg56 2.028 1_554 S
O57 C60 1.250 . S
O58 Mg59 2.028 1_554 S
O58 C60 1.248 . S
Mg59 O58 2.028 1_556 S
Mg59 O64 2.032 . S
Mg59 O66 2.079 . S
C60 O57 1.250 . S
C60 O58 1.248 . S
C61 O62 1.264 1_554 S
C61 O69 1.249 . S
O62 C61 1.264 1_556 S
O63 Mg56 1.986 . S
O63 C67 1.246 . S
O64 Mg59 2.032 . S
O64 C67 1.259 . S
O65 Mg56 2.114 . S
O65 C68 1.252 . S
O66 Mg56 2.251 . S
O66 Mg59 2.079 . S
O66 C68 1.273 . S
C67 O63 1.246 . S
C67 O64 1.259 . S
C68 O65 1.252 . S
C68 O66 1.273 . S
O69 Mg56 2.010 1_554 S
O69 C61 1.249 . S
Mg70 O71 2.028 1_554 S
Mg70 O77 1.986 1_545 S
Mg70 O79 2.114 . S
Mg70 O80 2.251 1_545 S
Mg70 O83 2.010 . S
O71 Mg70 2.028 1_556 S
O71 C74 1.250 1_545 S
O72 Mg73 2.028 1_556 S
O72 C74 1.248 . S
Mg73 O72 2.028 1_554 S
Mg73 O78 2.032 . S
Mg73 O80 2.079 . S
C74 O71 1.250 1_565 S
C74 O72 1.248 . S
C75 O76 1.264 . S
C75 O83 1.249 . S
O76 C75 1.264 . S
O77 Mg70 1.986 1_565 S
O77 C81 1.246 . S
O78 Mg73 2.032 . S
O78 C81 1.259 . S
O79 Mg70 2.114 . S
O79 C82 1.252 . S
O80 Mg70 2.251 1_565 S
O80 Mg73 2.079 . S
O80 C82 1.273 1_565 S
C81 O77 1.246 . S
C81 O78 1.259 . S
C82 O79 1.252 . S
C82 O80 1.273 1_545 S
O83 Mg70 2.010 . S
O83 C75 1.249 . S
Mg84 O85 2.028 . S
Mg84 O91 1.986 . S
Mg84 O93 2.114 . S
Mg84 O94 2.251 . S
Mg84 O97 2.010 . S
O85 Mg84 2.028 . S
O85 C88 1.250 . S
O86 Mg87 2.028 . S
O86 C88 1.248 . S
Mg87 O86 2.028 . S
Mg87 O92 2.032 . S
Mg87 O94 2.079 . S
C88 O85 1.250 . S
C88 O86 1.248 . S
C89 O90 1.264 . S
C89 O97 1.249 . S
O90 C89 1.264 . S
O91 Mg84 1.986 . S
O91 C95 1.246 . S
O92 Mg87 2.032 . S
O92 C95 1.259 . S
O93 Mg84 2.114 . S
O93 C96 1.252 . S
O94 Mg84 2.251 . S
O94 Mg87 2.079 . S
O94 C96 1.273 . S
C95 O91 1.246 . S
C95 O92 1.259 . S
C96 O93 1.252 . S
C96 O94 1.273 . S
O97 Mg84 2.010 . S
O97 C89 1.249 . S
Mg98 O99 2.028 . S
Mg98 O105 1.986 1_565 S
Mg98 O107 2.114 . S
Mg98 O108 2.251 . S
Mg98 O111 2.010 . S
O99 Mg98 2.028 . S
O99 C102 1.250 . S
O100 Mg101 2.028 . S
O100 C102 1.248 . S
Mg101 O100 2.028 . S
Mg101 O106 2.032 1_565 S
Mg101 O108 2.079 . S
C102 O99 1.250 . S
C102 O100 1.248 . S
C103 O104 1.264 . S
C103 O111 1.249 . S
O104 C103 1.264 . S
O105 Mg98 1.986 1_545 S
O105 C109 1.246 . S
O106 Mg101 2.032 1_545 S
O106 C109 1.259 . S
O107 Mg98 2.114 . S
O107 C110 1.252 . S
O108 Mg98 2.251 . S
O108 Mg101 2.079 . S
O108 C110 1.273 . S
C109 O105 1.246 . S
C109 O106 1.259 . S
C110 O107 1.252 . S
C110 O108 1.273 . S
O111 Mg98 2.010 . S
O111 C103 1.249 . S
Mg112 O113 2.028 . S
Mg112 O119 1.986 . S
Mg112 O121 2.114 . S
Mg112 O122 2.251 . S
Mg112 O125 2.010 1_455 S
O113 Mg112 2.028 . S
O113 C116 1.250 . S
O114 Mg115 2.028 . S
O114 C116 1.248 . S
Mg115 O114 2.028 . S
Mg115 O120 2.032 . S
Mg115 O122 2.079 . S
C116 O113 1.250 . S
C116 O114 1.248 . S
C117 O118 1.264 . S
C117 O125 1.249 . S
O118 C117 1.264 . S
O119 Mg112 1.986 . S
O119 C123 1.246 . S
O120 Mg115 2.032 . S
O120 C123 1.259 . S
O121 Mg112 2.114 . S
O121 C124 1.252 . S
O122 Mg112 2.251 . S
O122 Mg115 2.079 . S
O122 C124 1.273 . S
C123 O119 1.246 . S
C123 O120 1.259 . S
C124 O121 1.252 . S
C124 O122 1.273 . S
O125 Mg112 2.010 1_655 S
O125 C117 1.249 . S
Mg126 O127 2.028 . S
Mg126 O133 1.986 1_565 S
Mg126 O135 2.114 . S
Mg126 O136 2.251 . S
Mg126 O139 2.010 . S
O127 Mg126 2.028 . S
O127 C130 1.250 . S
O128 Mg129 2.028 . S
O128 C130 1.248 . S
Mg129 O128 2.028 . S
Mg129 O134 2.032 1_565 S
Mg129 O136 2.079 . S
C130 O127 1.250 . S
C130 O128 1.248 . S
C131 O132 1.264 . S
C131 O139 1.249 . S
O132 C131 1.264 . S
O133 Mg126 1.986 1_545 S
O133 C137 1.246 . S
O134 Mg129 2.032 1_545 S
O134 C137 1.259 . S
O135 Mg126 2.114 . S
O135 C138 1.252 . S
O136 Mg126 2.251 . S
O136 Mg129 2.079 . S
O136 C138 1.273 . S
C137 O133 1.246 . S
C137 O134 1.259 . S
C138 O135 1.252 . S
C138 O136 1.273 . S
O139 Mg126 2.010 . S
O139 C131 1.249 . S
Mg140 O141 2.028 . S
Mg140 O147 1.986 . S
Mg140 O149 2.114 . S
Mg140 O150 2.251 . S
Mg140 O153 2.010 1_455 S
O141 Mg140 2.028 . S
O141 C144 1.250 . S
O142 Mg143 2.028 . S
O142 C144 1.248 . S
Mg143 O142 2.028 . S
Mg143 O148 2.032 . S
Mg143 O150 2.079 . S
C144 O141 1.250 . S
C144 O142 1.248 . S
C145 O146 1.264 . S
C145 O153 1.249 . S
O146 C145 1.264 . S
O147 Mg140 1.986 . S
O147 C151 1.246 . S
O148 Mg143 2.032 . S
O148 C151 1.259 . S
O149 Mg140 2.114 . S
O149 C152 1.252 . S
O150 Mg140 2.251 . S
O150 Mg143 2.079 . S
O150 C152 1.273 . S
C151 O147 1.246 . S
C151 O148 1.259 . S
C152 O149 1.252 . S
C152 O150 1.273 . S
O153 Mg140 2.010 1_655 S
O153 C145 1.249 . S
Mg154 O155 2.028 . S
Mg154 O161 1.986 . S
Mg154 O163 2.114 . S
Mg154 O164 2.251 . S
Mg154 O167 2.010 . S
O155 Mg154 2.028 . S
O155 C158 1.250 . S
O156 Mg157 2.028 . S
O156 C158 1.248 . S
Mg157 O156 2.028 . S
Mg157 O162 2.032 . S
Mg157 O164 2.079 . S
C158 O155 1.250 . S
C158 O156 1.248 . S
C159 O160 1.264 . S
C159 O167 1.249 . S
O160 C159 1.264 . S
O161 Mg154 1.986 . S
O161 C165 1.246 . S
O162 Mg157 2.032 . S
O162 C165 1.259 . S
O163 Mg154 2.114 . S
O163 C166 1.252 . S
O164 Mg154 2.251 . S
O164 Mg157 2.079 . S
O164 C166 1.273 . S
C165 O161 1.246 . S
C165 O162 1.259 . S
C166 O163 1.252 . S
C166 O164 1.273 . S
O167 Mg154 2.010 . S
O167 C159 1.249 . S
Mg168 O169 2.028 . S
Mg168 O175 1.986 1_545 S
Mg168 O177 2.114 . S
Mg168 O178 2.251 . S
Mg168 O181 2.010 . S
O169 Mg168 2.028 . S
O169 C172 1.250 . S
O170 Mg171 2.028 . S
O170 C172 1.248 . S
Mg171 O170 2.028 . S
Mg171 O176 2.032 1_545 S
Mg171 O178 2.079 . S
C172 O169 1.250 . S
C172 O170 1.248 . S
C173 O174 1.264 . S
C173 O181 1.249 . S
O174 C173 1.264 . S
O175 Mg168 1.986 1_565 S
O175 C179 1.246 . S
O176 Mg171 2.032 1_565 S
O176 C179 1.259 . S
O177 Mg168 2.114 . S
O177 C180 1.252 . S
O178 Mg168 2.251 . S
O178 Mg171 2.079 . S
O178 C180 1.273 . S
C179 O175 1.246 . S
C179 O176 1.259 . S
C180 O177 1.252 . S
C180 O178 1.273 . S
O181 Mg168 2.010 . S
O181 C173 1.249 . S
Mg182 O183 2.028 . S
Mg182 O189 1.986 . S
Mg182 O191 2.114 . S
Mg182 O192 2.251 . S
Mg182 O195 2.010 1_655 S
O183 Mg182 2.028 . S
O183 C186 1.250 . S
O184 Mg185 2.028 . S
O184 C186 1.248 . S
Mg185 O184 2.028 . S
Mg185 O190 2.032 . S
Mg185 O192 2.079 . S
C186 O183 1.250 . S
C186 O184 1.248 . S
C187 O188 1.264 . S
C187 O195 1.249 . S
O188 C187 1.264 . S
O189 Mg182 1.986 . S
O189 C193 1.246 . S
O190 Mg185 2.032 . S
O190 C193 1.259 . S
O191 Mg182 2.114 . S
O191 C194 1.252 . S
O192 Mg182 2.251 . S
O192 Mg185 2.079 . S
O192 C194 1.273 . S
C193 O189 1.246 . S
C193 O190 1.259 . S
C194 O191 1.252 . S
C194 O192 1.273 . S
O195 Mg182 2.010 1_455 S
O195 C187 1.249 . S
Mg196 O197 2.028 . S
Mg196 O203 1.986 . S
Mg196 O205 2.114 . S
Mg196 O206 2.251 . S
Mg196 O209 2.010 . S
O197 Mg196 2.028 . S
O197 C200 1.250 . S
O198 Mg199 2.028 . S
O198 C200 1.248 . S
Mg199 O198 2.028 . S
Mg199 O204 2.032 . S
Mg199 O206 2.079 . S
C200 O197 1.250 . S
C200 O198 1.248 . S
C201 O202 1.264 . S
C201 O209 1.249 . S
O202 C201 1.264 . S
O203 Mg196 1.986 . S
O203 C207 1.246 . S
O204 Mg199 2.032 . S
O204 C207 1.259 . S
O205 Mg196 2.114 . S
O205 C208 1.252 . S
O206 Mg196 2.251 . S
O206 Mg199 2.079 . S
O206 C208 1.273 . S
C207 O203 1.246 . S
C207 O204 1.259 . S
C208 O205 1.252 . S
C208 O206 1.273 . S
O209 Mg196 2.010 . S
O209 C201 1.249 . S
Mg210 O211 2.028 . S
Mg210 O217 1.986 . S
Mg210 O219 2.114 . S
Mg210 O220 2.251 . S
Mg210 O223 2.010 . S
O211 Mg210 2.028 . S
O211 C214 1.250 . S
O212 Mg213 2.028 . S
O212 C214 1.248 . S
Mg213 O212 2.028 . S
Mg213 O218 2.032 . S
Mg213 O220 2.079 . S
C214 O211 1.250 . S
C214 O212 1.248 . S
C215 O216 1.264 . S
C215 O223 1.249 . S
O216 C215 1.264 . S
O217 Mg210 1.986 . S
O217 C221 1.246 . S
O218 Mg213 2.032 . S
O218 C221 1.259 . S
O219 Mg210 2.114 . S
O219 C222 1.252 . S
O220 Mg210 2.251 . S
O220 Mg213 2.079 . S
O220 C222 1.273 . S
C221 O217 1.246 . S
C221 O218 1.259 . S
C222 O219 1.252 . S
C222 O220 1.273 . S
O223 Mg210 2.010 . S
O223 C215 1.249 . S
Mg224 O225 2.028 . S
Mg224 O231 1.986 1_545 S
Mg224 O233 2.114 . S
Mg224 O234 2.251 . S
Mg224 O237 2.010 . S
O225 Mg224 2.028 . S
O225 C228 1.250 . S
O226 Mg227 2.028 . S
O226 C228 1.248 . S
Mg227 O226 2.028 . S
Mg227 O232 2.032 1_545 S
Mg227 O234 2.079 . S
C228 O225 1.250 . S
C228 O226 1.248 . S
C229 O230 1.264 . S
C229 O237 1.249 . S
O230 C229 1.264 . S
O231 Mg224 1.986 1_565 S
O231 C235 1.246 . S
O232 Mg227 2.032 1_565 S
O232 C235 1.259 . S
O233 Mg224 2.114 . S
O233 C236 1.252 . S
O234 Mg224 2.251 . S
O234 Mg227 2.079 . S
O234 C236 1.273 . S
C235 O231 1.246 . S
C235 O232 1.259 . S
C236 O233 1.252 . S
C236 O234 1.273 . S
O237 Mg224 2.010 . S
O237 C229 1.249 . S
Mg238 O239 2.028 . S
Mg238 O245 1.986 . S
Mg238 O247 2.114 . S
Mg238 O248 2.251 . S
Mg238 O251 2.010 1_655 S
O239 Mg238 2.028 . S
O239 C242 1.250 . S
O240 Mg241 2.028 . S
O240 C242 1.248 . S
Mg241 O240 2.028 . S
Mg241 O246 2.032 . S
Mg241 O248 2.079 . S
C242 O239 1.250 . S
C242 O240 1.248 . S
C243 O244 1.264 . S
C243 O251 1.249 . S
O244 C243 1.264 . S
O245 Mg238 1.986 . S
O245 C249 1.246 . S
O246 Mg241 2.032 . S
O246 C249 1.259 . S
O247 Mg238 2.114 . S
O247 C250 1.252 . S
O248 Mg238 2.251 . S
O248 Mg241 2.079 . S
O248 C250 1.273 . S
C249 O245 1.246 . S
C249 O246 1.259 . S
C250 O247 1.252 . S
C250 O248 1.273 . S
O251 Mg238 2.010 1_455 S
O251 C243 1.249 . S
H252 C260 0.930 . S
H253 C263 0.930 . S
H254 C265 0.930 . S
H255 C266 0.970 . S
H256 C266 0.970 . S
H257 C268 0.930 . S
H258 C270 0.930 . S
H259 C272 0.930 . S
C260 H252 0.930 . S
C260 C261 1.382 . S
C260 C262 1.426 . S
C261 C260 1.382 . S
C261 C265 1.389 . S
C262 C260 1.426 . S
C262 C263 1.375 . S
C262 C266 1.532 . S
C263 H253 0.930 . S
C263 C262 1.375 . S
C263 C264 1.416 . S
C264 C263 1.416 . S
C264 C265 1.371 . S
C265 H254 0.930 . S
C265 C261 1.389 . S
C265 C264 1.371 . S
C266 H255 0.970 . S
C266 H256 0.970 . S
C266 C262 1.532 . S
C266 C267 1.499 . S
C267 C266 1.499 . S
C267 C268 1.370 . S
C267 C272 1.415 . S
C268 H257 0.930 . S
C268 C267 1.370 . S
C268 C269 1.407 . S
C269 C268 1.407 . S
C269 C270 1.365 . S
C270 H258 0.930 . S
C270 C269 1.365 . S
C270 C271 1.393 . S
C271 C270 1.393 . S
C271 C272 1.387 . S
C272 H259 0.930 . S
C272 C267 1.415 . S
C272 C271 1.387 . S
H273 C281 0.930 . S
H274 C284 0.930 . S
H275 C286 0.930 . S
H276 C287 0.970 . S
H277 C287 0.970 . S
H278 C289 0.930 . S
H279 C291 0.930 . S
H280 C293 0.930 . S
C281 H273 0.930 . S
C281 C282 1.382 . S
C281 C283 1.426 . S
C282 C281 1.382 . S
C282 C286 1.389 . S
C283 C281 1.426 . S
C283 C284 1.375 . S
C283 C287 1.532 . S
C284 H274 0.930 . S
C284 C283 1.375 . S
C284 C285 1.416 . S
C285 C284 1.416 . S
C285 C286 1.371 . S
C286 H275 0.930 . S
C286 C282 1.389 . S
C286 C285 1.371 . S
C287 H276 0.970 . S
C287 H277 0.970 . S
C287 C283 1.532 . S
C287 C288 1.499 . S
C288 C287 1.499 . S
C288 C289 1.370 . S
C288 C293 1.415 . S
C289 H278 0.930 . S
C289 C288 1.370 . S
C289 C290 1.407 . S
C290 C289 1.407 . S
C290 C291 1.365 . S
C291 H279 0.930 . S
C291 C290 1.365 . S
C291 C292 1.393 . S
C292 C291 1.393 . S
C292 C293 1.387 . S
C293 H280 0.930 . S
C293 C288 1.415 . S
C293 C292 1.387 . S
H294 C302 0.930 . S
H295 C305 0.930 . S
H296 C307 0.930 . S
H297 C308 0.970 . S
H298 C308 0.970 . S
H299 C310 0.930 . S
H300 C312 0.930 . S
H301 C314 0.930 . S
C302 H294 0.930 . S
C302 C303 1.382 . S
C302 C304 1.426 . S
C303 C302 1.382 . S
C303 C307 1.389 . S
C304 C302 1.426 . S
C304 C305 1.375 . S
C304 C308 1.532 . S
C305 H295 0.930 . S
C305 C304 1.375 . S
C305 C306 1.416 . S
C306 C305 1.416 . S
C306 C307 1.371 . S
C307 H296 0.930 . S
C307 C303 1.389 . S
C307 C306 1.371 . S
C308 H297 0.970 . S
C308 H298 0.970 . S
C308 C304 1.532 . S
C308 C309 1.499 . S
C309 C308 1.499 . S
C309 C310 1.370 . S
C309 C314 1.415 . S
C310 H299 0.930 . S
C310 C309 1.370 . S
C310 C311 1.407 . S
C311 C310 1.407 . S
C311 C312 1.365 . S
C312 H300 0.930 . S
C312 C311 1.365 . S
C312 C313 1.393 . S
C313 C312 1.393 . S
C313 C314 1.387 . S
C314 H301 0.930 . S
C314 C309 1.415 . S
C314 C313 1.387 . S
H315 C323 0.930 . S
H316 C326 0.930 . S
H317 C328 0.930 . S
H318 C329 0.970 . S
H319 C329 0.970 . S
H320 C331 0.930 . S
H321 C333 0.930 . S
H322 C335 0.930 . S
C323 H315 0.930 . S
C323 C324 1.382 . S
C323 C325 1.426 . S
C324 C323 1.382 . S
C324 C328 1.389 . S
C325 C323 1.426 . S
C325 C326 1.375 . S
C325 C329 1.532 . S
C326 H316 0.930 . S
C326 C325 1.375 . S
C326 C327 1.416 . S
C327 C326 1.416 . S
C327 C328 1.371 . S
C328 H317 0.930 . S
C328 C324 1.389 . S
C328 C327 1.371 . S
C329 H318 0.970 . S
C329 H319 0.970 . S
C329 C325 1.532 . S
C329 C330 1.499 . S
C330 C329 1.499 . S
C330 C331 1.370 . S
C330 C335 1.415 . S
C331 H320 0.930 . S
C331 C330 1.370 . S
C331 C332 1.407 . S
C332 C331 1.407 . S
C332 C333 1.365 . S
C333 H321 0.930 . S
C333 C332 1.365 . S
C333 C334 1.393 . S
C334 C333 1.393 . S
C334 C335 1.387 . S
C335 H322 0.930 . S
C335 C330 1.415 . S
C335 C334 1.387 . S
H336 C344 0.930 . S
H337 C347 0.930 . S
H338 C349 0.930 . S
H339 C350 0.970 . S
H340 C350 0.970 . S
H341 C352 0.930 . S
H342 C354 0.930 . S
H343 C356 0.930 . S
C344 H336 0.930 . S
C344 C345 1.382 . S
C344 C346 1.426 . S
C345 C344 1.382 . S
C345 C349 1.389 . S
C346 C344 1.426 . S
C346 C347 1.375 . S
C346 C350 1.532 . S
C347 H337 0.930 . S
C347 C346 1.375 . S
C347 C348 1.416 . S
C348 C347 1.416 . S
C348 C349 1.371 . S
C349 H338 0.930 . S
C349 C345 1.389 . S
C349 C348 1.371 . S
C350 H339 0.970 . S
C350 H340 0.970 . S
C350 C346 1.532 . S
C350 C351 1.499 . S
C351 C350 1.499 . S
C351 C352 1.370 . S
C351 C356 1.415 . S
C352 H341 0.930 . S
C352 C351 1.370 . S
C352 C353 1.407 . S
C353 C352 1.407 . S
C353 C354 1.365 . S
C354 H342 0.930 . S
C354 C353 1.365 . S
C354 C355 1.393 . S
C355 C354 1.393 . S
C355 C356 1.387 . S
C356 H343 0.930 . S
C356 C351 1.415 . S
C356 C355 1.387 . S
H357 C365 0.930 . S
H358 C368 0.930 . S
H359 C370 0.930 . S
H360 C371 0.970 . S
H361 C371 0.970 . S
H362 C373 0.930 . S
H363 C375 0.930 . S
H364 C377 0.930 . S
C365 H357 0.930 . S
C365 C366 1.382 . S
C365 C367 1.426 . S
C366 C365 1.382 . S
C366 C370 1.389 . S
C367 C365 1.426 . S
C367 C368 1.375 . S
C367 C371 1.532 . S
C368 H358 0.930 . S
C368 C367 1.375 . S
C368 C369 1.416 . S
C369 C368 1.416 . S
C369 C370 1.371 . S
C370 H359 0.930 . S
C370 C366 1.389 . S
C370 C369 1.371 . S
C371 H360 0.970 . S
C371 H361 0.970 . S
C371 C367 1.532 . S
C371 C372 1.499 . S
C372 C371 1.499 . S
C372 C373 1.370 . S
C372 C377 1.415 . S
C373 H362 0.930 . S
C373 C372 1.370 . S
C373 C374 1.407 . S
C374 C373 1.407 . S
C374 C375 1.365 . S
C375 H363 0.930 . S
C375 C374 1.365 . S
C375 C376 1.393 . S
C376 C375 1.393 . S
C376 C377 1.387 . S
C377 H364 0.930 . S
C377 C372 1.415 . S
C377 C376 1.387 . S
H378 C386 0.930 . S
H379 C389 0.930 . S
H380 C391 0.930 . S
H381 C392 0.970 . S
H382 C392 0.970 . S
H383 C394 0.930 . S
H384 C396 0.930 . S
H385 C398 0.930 . S
C386 H378 0.930 . S
C386 C387 1.382 . S
C386 C388 1.426 . S
C387 C386 1.382 . S
C387 C391 1.389 . S
C388 C386 1.426 . S
C388 C389 1.375 . S
C388 C392 1.532 . S
C389 H379 0.930 . S
C389 C388 1.375 . S
C389 C390 1.416 . S
C390 C389 1.416 . S
C390 C391 1.371 . S
C391 H380 0.930 . S
C391 C387 1.389 . S
C391 C390 1.371 . S
C392 H381 0.970 . S
C392 H382 0.970 . S
C392 C388 1.532 . S
C392 C393 1.499 . S
C393 C392 1.499 . S
C393 C394 1.370 . S
C393 C398 1.415 . S
C394 H383 0.930 . S
C394 C393 1.370 . S
C394 C395 1.407 . S
C395 C394 1.407 . S
C395 C396 1.365 . S
C396 H384 0.930 . S
C396 C395 1.365 . S
C396 C397 1.393 . S
C397 C396 1.393 . S
C397 C398 1.387 . S
C398 H385 0.930 . S
C398 C393 1.415 . S
C398 C397 1.387 . S
H399 C407 0.930 . S
H400 C410 0.930 . S
H401 C412 0.930 . S
H402 C413 0.970 . S
H403 C413 0.970 . S
H404 C415 0.930 . S
H405 C417 0.930 . S
H406 C419 0.930 . S
C407 H399 0.930 . S
C407 C408 1.382 . S
C407 C409 1.426 . S
C408 C407 1.382 . S
C408 C412 1.389 . S
C409 C407 1.426 . S
C409 C410 1.375 . S
C409 C413 1.532 . S
C410 H400 0.930 . S
C410 C409 1.375 . S
C410 C411 1.416 . S
C411 C410 1.416 . S
C411 C412 1.371 . S
C412 H401 0.930 . S
C412 C408 1.389 . S
C412 C411 1.371 . S
C413 H402 0.970 . S
C413 H403 0.970 . S
C413 C409 1.532 . S
C413 C414 1.499 . S
C414 C413 1.499 . S
C414 C415 1.370 . S
C414 C419 1.415 . S
C415 H404 0.930 . S
C415 C414 1.370 . S
C415 C416 1.407 . S
C416 C415 1.407 . S
C416 C417 1.365 . S
C417 H405 0.930 . S
C417 C416 1.365 . S
C417 C418 1.393 . S
C418 C417 1.393 . S
C418 C419 1.387 . S
C419 H406 0.930 . S
C419 C414 1.415 . S
C419 C418 1.387 . S
H420 C428 0.930 . S
H421 C431 0.930 . S
H422 C433 0.930 . S
H423 C434 0.970 . S
H424 C434 0.970 . S
H425 C436 0.930 . S
H426 C438 0.930 . S
H427 C440 0.930 . S
C428 H420 0.930 . S
C428 C429 1.382 . S
C428 C430 1.426 . S
C429 C428 1.382 . S
C429 C433 1.389 . S
C430 C428 1.426 . S
C430 C431 1.375 . S
C430 C434 1.532 . S
C431 H421 0.930 . S
C431 C430 1.375 . S
C431 C432 1.416 . S
C432 C431 1.416 . S
C432 C433 1.371 . S
C433 H422 0.930 . S
C433 C429 1.389 . S
C433 C432 1.371 . S
C434 H423 0.970 . S
C434 H424 0.970 . S
C434 C430 1.532 . S
C434 C435 1.499 . S
C435 C434 1.499 . S
C435 C436 1.370 . S
C435 C440 1.415 . S
C436 H425 0.930 . S
C436 C435 1.370 . S
C436 C437 1.407 . S
C437 C436 1.407 . S
C437 C438 1.365 . S
C438 H426 0.930 . S
C438 C437 1.365 . S
C438 C439 1.393 . S
C439 C438 1.393 . S
C439 C440 1.387 . S
C440 H427 0.930 . S
C440 C435 1.415 . S
C440 C439 1.387 . S
H441 C449 0.930 . S
H442 C452 0.930 . S
H443 C454 0.930 . S
H444 C455 0.970 . S
H445 C455 0.970 . S
H446 C457 0.930 . S
H447 C459 0.930 . S
H448 C461 0.930 . S
C449 H441 0.930 . S
C449 C450 1.382 . S
C449 C451 1.426 . S
C450 C449 1.382 . S
C450 C454 1.389 1_455 S
C451 C449 1.426 . S
C451 C452 1.375 . S
C451 C455 1.532 . S
C452 H442 0.930 . S
C452 C451 1.375 . S
C452 C453 1.416 . S
C453 C452 1.416 . S
C453 C454 1.371 1_455 S
C454 H443 0.930 . S
C454 C450 1.389 1_655 S
C454 C453 1.371 1_655 S
C455 H444 0.970 . S
C455 H445 0.970 . S
C455 C451 1.532 . S
C455 C456 1.499 . S
C456 C455 1.499 . S
C456 C457 1.370 . S
C456 C461 1.415 . S
C457 H446 0.930 . S
C457 C456 1.370 . S
C457 C458 1.409 . S
C458 C457 1.409 . S
C458 C459 1.367 1_455 S
C459 H447 0.930 . S
C459 C458 1.367 1_655 S
C459 C460 1.393 1_655 S
C460 C459 1.393 1_455 S
C460 C461 1.387 . S
C461 H448 0.930 . S
C461 C456 1.415 . S
C461 C460 1.387 . S
H462 C470 0.930 . S
H463 C473 0.930 . S
H464 C475 0.930 . S
H465 C476 0.970 . S
H466 C476 0.970 . S
H467 C478 0.930 . S
H468 C480 0.930 . S
H469 C482 0.930 . S
C470 H462 0.930 . S
C470 C471 1.382 . S
C470 C472 1.426 . S
C471 C470 1.382 . S
C471 C475 1.389 . S
C472 C470 1.426 . S
C472 C473 1.375 . S
C472 C476 1.532 . S
C473 H463 0.930 . S
C473 C472 1.375 . S
C473 C474 1.416 . S
C474 C473 1.416 . S
C474 C475 1.371 . S
C475 H464 0.930 . S
C475 C471 1.389 . S
C475 C474 1.371 . S
C476 H465 0.970 . S
C476 H466 0.970 . S
C476 C472 1.532 . S
C476 C477 1.499 . S
C477 C476 1.499 . S
C477 C478 1.370 . S
C477 C482 1.415 . S
C478 H467 0.930 . S
C478 C477 1.370 . S
C478 C479 1.407 . S
C479 C478 1.407 . S
C479 C480 1.365 . S
C480 H468 0.930 . S
C480 C479 1.365 . S
C480 C481 1.393 . S
C481 C480 1.393 . S
C481 C482 1.387 . S
C482 H469 0.930 . S
C482 C477 1.415 . S
C482 C481 1.387 . S
H483 C491 0.930 . S
H484 C494 0.930 . S
H485 C496 0.930 . S
H486 C497 0.970 . S
H487 C497 0.970 . S
H488 C499 0.930 . S
H489 C501 0.930 . S
H490 C503 0.930 . S
C491 H483 0.930 . S
C491 C492 1.382 . S
C491 C493 1.426 . S
C492 C491 1.382 . S
C492 C496 1.389 1_565 S
C493 C491 1.426 . S
C493 C494 1.375 . S
C493 C497 1.532 . S
C494 H484 0.930 . S
C494 C493 1.375 . S
C494 C495 1.416 . S
C495 C494 1.416 . S
C495 C496 1.371 1_565 S
C496 H485 0.930 . S
C496 C492 1.389 1_545 S
C496 C495 1.371 1_545 S
C497 H486 0.970 . S
C497 H487 0.970 . S
C497 C493 1.532 . S
C497 C498 1.499 . S
C498 C497 1.499 . S
C498 C499 1.370 . S
C498 C503 1.415 . S
C499 H488 0.930 . S
C499 C498 1.370 . S
C499 C500 1.431 . S
C500 C499 1.431 . S
C500 C501 1.356 1_565 S
C501 H489 0.930 . S
C501 C500 1.356 1_545 S
C501 C502 1.393 1_545 S
C502 C501 1.393 1_565 S
C502 C503 1.387 . S
C503 H490 0.930 . S
C503 C498 1.415 . S
C503 C502 1.387 . S
H504 C512 0.930 . S
H505 C515 0.930 . S
H506 C517 0.930 . S
H507 C518 0.970 . S
H508 C518 0.970 . S
H509 C520 0.930 . S
H510 C522 0.930 . S
H511 C524 0.930 . S
C512 H504 0.930 . S
C512 C513 1.382 . S
C512 C514 1.426 . S
C513 C512 1.382 . S
C513 C517 1.389 1_565 S
C514 C512 1.426 . S
C514 C515 1.375 . S
C514 C518 1.532 . S
C515 H505 0.930 . S
C515 C514 1.375 . S
C515 C516 1.416 . S
C516 C515 1.416 . S
C516 C517 1.371 1_565 S
C517 H506 0.930 . S
C517 C513 1.389 1_545 S
C517 C516 1.371 1_545 S
C518 H507 0.970 . S
C518 H508 0.970 . S
C518 C514 1.532 . S
C518 C519 1.499 . S
C519 C518 1.499 . S
C519 C520 1.370 . S
C519 C524 1.415 . S
C520 H509 0.930 . S
C520 C519 1.370 . S
C520 C521 1.407 . S
C521 C520 1.407 . S
C521 C522 1.365 1_565 S
C522 H510 0.930 . S
C522 C521 1.365 1_545 S
C522 C523 1.393 1_545 S
C523 C522 1.393 1_565 S
C523 C524 1.387 . S
C524 H511 0.930 . S
C524 C519 1.415 . S
C524 C523 1.387 . S
H525 C533 0.930 . S
H526 C536 0.930 . S
H527 C538 0.930 . S
H528 C539 0.970 . S
H529 C539 0.970 . S
H530 C541 0.930 . S
H531 C543 0.930 . S
H532 C545 0.930 . S
C533 H525 0.930 . S
C533 C534 1.382 . S
C533 C535 1.426 . S
C534 C533 1.382 . S
C534 C538 1.389 1_455 S
C535 C533 1.426 . S
C535 C536 1.375 . S
C535 C539 1.532 . S
C536 H526 0.930 . S
C536 C535 1.375 . S
C536 C537 1.416 . S
C537 C536 1.416 . S
C537 C538 1.371 1_455 S
C538 H527 0.930 . S
C538 C534 1.389 1_655 S
C538 C537 1.371 1_655 S
C539 H528 0.970 . S
C539 H529 0.970 . S
C539 C535 1.532 . S
C539 C540 1.499 . S
C540 C539 1.499 . S
C540 C541 1.370 . S
C540 C545 1.415 . S
C541 H530 0.930 . S
C541 C540 1.370 . S
C541 C542 1.407 . S
C542 C541 1.407 . S
C542 C543 1.365 1_455 S
C543 H531 0.930 . S
C543 C542 1.365 1_655 S
C543 C544 1.393 1_655 S
C544 C543 1.393 1_455 S
C544 C545 1.387 . S
C545 H532 0.930 . S
C545 C540 1.415 . S
C545 C544 1.387 . S
H546 C554 0.930 . S
H547 C557 0.930 . S
H548 C559 0.930 . S
H549 C560 0.970 . S
H550 C560 0.970 . S
H551 C562 0.930 . S
H552 C564 0.930 . S
H553 C566 0.930 . S
C554 H546 0.930 . S
C554 C555 1.382 . S
C554 C556 1.426 . S
C555 C554 1.382 . S
C555 C559 1.389 . S
C556 C554 1.426 . S
C556 C557 1.375 . S
C556 C560 1.532 . S
C557 H547 0.930 . S
C557 C556 1.375 . S
C557 C558 1.416 . S
C558 C557 1.416 . S
C558 C559 1.371 . S
C559 H548 0.930 . S
C559 C555 1.389 . S
C559 C558 1.371 . S
C560 H549 0.970 . S
C560 H550 0.970 . S
C560 C556 1.532 . S
C560 C561 1.499 . S
C561 C560 1.499 . S
C561 C562 1.370 . S
C561 C566 1.415 . S
C562 H551 0.930 . S
C562 C561 1.370 . S
C562 C563 1.407 . S
C563 C562 1.407 . S
C563 C564 1.365 . S
C564 H552 0.930 . S
C564 C563 1.365 . S
C564 C565 1.393 . S
C565 C564 1.393 . S
C565 C566 1.387 . S
C566 H553 0.930 . S
C566 C561 1.415 . S
C566 C565 1.387 . S
H567 C575 0.930 . S
H568 C578 0.930 . S
H569 C580 0.930 . S
H570 C581 0.970 . S
H571 C581 0.970 . S
H572 C583 0.930 . S
H573 C585 0.930 . S
H574 C587 0.930 . S
C575 H567 0.930 . S
C575 C576 1.382 . S
C575 C577 1.426 . S
C576 C575 1.382 . S
C576 C580 1.389 . S
C577 C575 1.426 . S
C577 C578 1.375 . S
C577 C581 1.532 . S
C578 H568 0.930 . S
C578 C577 1.375 . S
C578 C579 1.416 . S
C579 C578 1.416 . S
C579 C580 1.371 . S
C580 H569 0.930 . S
C580 C576 1.389 . S
C580 C579 1.371 . S
C581 H570 0.970 . S
C581 H571 0.970 . S
C581 C577 1.532 . S
C581 C582 1.499 . S
C582 C581 1.499 . S
C582 C583 1.370 . S
C582 C587 1.415 . S
C583 H572 0.930 . S
C583 C582 1.370 . S
C583 C584 1.407 . S
C584 C583 1.407 . S
C584 C585 1.365 . S
C585 H573 0.930 . S
C585 C584 1.365 . S
C585 C586 1.393 . S
C586 C585 1.393 . S
C586 C587 1.387 . S
C587 H574 0.930 . S
C587 C582 1.415 . S
C587 C586 1.387 . S
H588 C596 0.930 . S
H589 C599 0.930 . S
H590 C601 0.930 . S
H591 C602 0.970 . S
H592 C602 0.970 . S
H593 C604 0.930 . S
H594 C606 0.930 . S
H595 C608 0.930 . S
C596 H588 0.930 . S
C596 C597 1.382 . S
C596 C598 1.426 . S
C597 C596 1.382 . S
C597 C601 1.389 . S
C598 C596 1.426 . S
C598 C599 1.375 . S
C598 C602 1.532 . S
C599 H589 0.930 . S
C599 C598 1.375 . S
C599 C600 1.416 . S
C600 C599 1.416 . S
C600 C601 1.371 . S
C601 H590 0.930 . S
C601 C597 1.389 . S
C601 C600 1.371 . S
C602 H591 0.970 . S
C602 H592 0.970 . S
C602 C598 1.532 . S
C602 C603 1.499 . S
C603 C602 1.499 . S
C603 C604 1.370 . S
C603 C608 1.415 . S
C604 H593 0.930 . S
C604 C603 1.370 . S
C604 C605 1.407 . S
C605 C604 1.407 . S
C605 C606 1.365 . S
C606 H594 0.930 . S
C606 C605 1.365 . S
C606 C607 1.393 . S
C607 C606 1.393 . S
C607 C608 1.387 . S
C608 H595 0.930 . S
C608 C603 1.415 . S
C608 C607 1.387 . S
H609 C617 0.930 . S
H610 C620 0.930 . S
H611 C622 0.930 . S
H612 C623 0.970 . S
H613 C623 0.970 . S
H614 C625 0.930 . S
H615 C627 0.930 . S
H616 C629 0.930 . S
C617 H609 0.930 . S
C617 C618 1.382 . S
C617 C619 1.426 . S
C618 C617 1.382 . S
C618 C622 1.389 . S
C619 C617 1.426 . S
C619 C620 1.375 . S
C619 C623 1.532 . S
C620 H610 0.930 . S
C620 C619 1.375 . S
C620 C621 1.416 . S
C621 C620 1.416 . S
C621 C622 1.371 . S
C622 H611 0.930 . S
C622 C618 1.389 . S
C622 C621 1.371 . S
C623 H612 0.970 . S
C623 H613 0.970 . S
C623 C619 1.532 . S
C623 C624 1.499 . S
C624 C623 1.499 . S
C624 C625 1.370 . S
C624 C629 1.415 . S
C625 H614 0.930 . S
C625 C624 1.370 . S
C625 C626 1.407 . S
C626 C625 1.407 . S
C626 C627 1.365 . S
C627 H615 0.930 . S
C627 C626 1.365 . S
C627 C628 1.393 . S
C628 C627 1.393 . S
C628 C629 1.387 . S
C629 H616 0.930 . S
C629 C624 1.415 . S
C629 C628 1.387 . S
C630 C631 1.387 . S
C630 H634 0.950 . S
C630 C639 1.390 . S
C631 C630 1.387 . S
C631 C633 1.387 1_655 S
H632 C639 0.950 . S
C633 C631 1.387 1_455 S
C633 C635 1.390 . S
C633 H637 0.950 . S
H634 C630 0.950 . S
C635 C633 1.390 . S
C635 C636 1.387 1_455 S
C635 H638 0.950 . S
C636 C635 1.387 1_655 S
C636 C639 1.387 . S
H637 C633 0.950 . S
H638 C635 0.950 . S
C639 C630 1.390 . S
C639 H632 0.950 . S
C639 C636 1.387 . S
C640 C641 1.387 . S
C640 H644 0.950 . S
C640 C649 1.390 . S
C641 C640 1.387 . S
C641 C643 1.387 . S
H642 C649 0.950 . S
C643 C641 1.387 . S
C643 C645 1.390 . S
C643 H647 0.950 . S
H644 C640 0.950 . S
C645 C643 1.390 . S
C645 C646 1.387 . S
C645 H648 0.950 . S
C646 C645 1.387 . S
C646 C649 1.387 . S
H647 C643 0.950 . S
H648 C645 0.950 . S
C649 C640 1.390 . S
C649 H642 0.950 . S
C649 C646 1.387 . S
C650 C651 1.387 . S
C650 H654 0.950 . S
C650 C659 1.390 . S
C651 C650 1.387 . S
C651 C653 1.387 1_545 S
H652 C659 0.950 . S
C653 C651 1.387 1_565 S
C653 C655 1.390 . S
C653 H657 0.950 . S
H654 C650 0.950 . S
C655 C653 1.390 . S
C655 C656 1.387 1_565 S
C655 H658 0.950 . S
C656 C655 1.387 1_545 S
C656 C659 1.387 . S
H657 C653 0.950 . S
H658 C655 0.950 . S
C659 C650 1.390 . S
C659 H652 0.950 . S
C659 C656 1.387 . S
C660 C661 1.387 1_545 S
C660 H664 0.950 . S
C660 C669 1.390 . S
C661 C660 1.387 1_565 S
C661 C663 1.387 . S
H662 C669 0.950 . S
C663 C661 1.387 . S
C663 C665 1.390 . S
C663 H667 0.950 . S
H664 C660 0.950 . S
C665 C663 1.390 . S
C665 C666 1.387 . S
C665 H668 0.950 . S
C666 C665 1.387 . S
C666 C669 1.387 1_565 S
H667 C663 0.950 . S
H668 C665 0.950 . S
C669 C660 1.390 . S
C669 H662 0.950 . S
C669 C666 1.387 1_545 S
C670 C671 1.387 . S
C670 H674 0.950 1_455 S
C670 C679 1.390 1_455 S
C671 C670 1.387 . S
C671 C673 1.387 . S
H672 C679 0.950 . S
C673 C671 1.387 . S
C673 C675 1.390 . S
C673 H677 0.950 . S
H674 C670 0.950 1_655 S
C675 C673 1.390 . S
C675 C676 1.387 . S
C675 H678 0.950 . S
C676 C675 1.387 . S
C676 C679 1.387 1_455 S
H677 C673 0.950 . S
H678 C675 0.950 . S
C679 C670 1.390 1_655 S
C679 H672 0.950 . S
C679 C676 1.387 1_655 S
C680 C681 1.387 . S
C680 H684 0.950 . S
C680 C689 1.390 . S
C681 C680 1.387 . S
C681 C683 1.387 . S
H682 C689 0.950 . S
C683 C681 1.387 . S
C683 C685 1.390 . S
C683 H687 0.950 . S
H684 C680 0.950 . S
C685 C683 1.390 . S
C685 C686 1.387 . S
C685 H688 0.950 . S
C686 C685 1.387 . S
C686 C689 1.387 . S
H687 C683 0.950 . S
H688 C685 0.950 . S
C689 C680 1.390 . S
C689 H682 0.950 . S
C689 C686 1.387 . S
C690 C691 1.387 . S
C690 H694 0.950 . S
C690 C699 1.390 . S
C691 C690 1.387 . S
C691 C693 1.387 . S
H692 C699 0.950 . S
C693 C691 1.387 . S
C693 C695 1.390 1_455 S
C693 H697 0.950 1_455 S
H694 C690 0.950 . S
C695 C693 1.390 1_655 S
C695 C696 1.387 1_655 S
C695 H698 0.950 . S
C696 C695 1.387 1_455 S
C696 C699 1.387 . S
H697 C693 0.950 1_655 S
H698 C695 0.950 . S
C699 C690 1.390 . S
C699 H692 0.950 . S
C699 C696 1.387 . S
C700 C701 1.387 . S
C700 H704 0.950 . S
C700 C709 1.390 . S
C701 C700 1.387 . S
C701 C703 1.387 . S
H702 C709 0.950 . S
C703 C701 1.387 . S
C703 C705 1.390 . S
C703 H707 0.950 . S
H704 C700 0.950 . S
C705 C703 1.390 . S
C705 C706 1.387 . S
C705 H708 0.950 . S
C706 C705 1.387 . S
C706 C709 1.387 . S
H707 C703 0.950 . S
H708 C705 0.950 . S
C709 C700 1.390 . S
C709 H702 0.950 . S
C709 C706 1.387 . S
C710 C711 1.387 1_545 S
C710 H714 0.950 . S
C710 C719 1.390 . S
C711 C710 1.387 1_565 S
C711 C713 1.387 . S
H712 C719 0.950 . S
C713 C711 1.387 . S
C713 C715 1.390 . S
C713 H717 0.950 . S
H714 C710 0.950 . S
C715 C713 1.390 . S
C715 C716 1.387 . S
C715 H718 0.950 . S
C716 C715 1.387 . S
C716 C719 1.387 1_565 S
H717 C713 0.950 . S
H718 C715 0.950 . S
C719 C710 1.390 . S
C719 H712 0.950 . S
C719 C716 1.387 1_545 S
C720 C721 1.387 . S
C720 H724 0.950 . S
C720 C729 1.390 . S
C721 C720 1.387 . S
C721 C723 1.387 1_545 S
H722 C729 0.950 . S
C723 C721 1.387 1_565 S
C723 C725 1.390 . S
C723 H727 0.950 . S
H724 C720 0.950 . S
C725 C723 1.390 . S
C725 C726 1.387 1_565 S
C725 H728 0.950 . S
C726 C725 1.387 1_545 S
C726 C729 1.387 . S
H727 C723 0.950 . S
H728 C725 0.950 . S
C729 C720 1.390 . S
C729 H722 0.950 . S
C729 C726 1.387 . S
C730 C731 1.405 . S
C730 H734 0.944 1_655 S
C730 C739 1.379 1_655 S
C731 C730 1.405 . S
C731 C733 1.387 . S
H732 C739 0.950 . S
C733 C731 1.387 . S
C733 C735 1.390 . S
C733 H737 0.950 . S
H734 C730 0.944 1_455 S
C735 C733 1.390 . S
C735 C736 1.387 . S
C735 H738 0.950 . S
C736 C735 1.387 . S
C736 C739 1.387 1_655 S
H737 C733 0.950 . S
H738 C735 0.950 . S
C739 C730 1.379 1_455 S
C739 H732 0.950 . S
C739 C736 1.387 1_455 S
C740 C741 1.387 . S
C740 H744 0.950 . S
C740 C749 1.390 . S
C741 C740 1.387 . S
C741 C743 1.387 . S
H742 C749 0.950 . S
C743 C741 1.387 . S
C743 C745 1.390 . S
C743 H747 0.950 . S
H744 C740 0.950 . S
C745 C743 1.390 . S
C745 C746 1.387 . S
C745 H748 0.950 . S
C746 C745 1.387 . S
C746 C749 1.387 . S
H747 C743 0.950 . S
H748 C745 0.950 . S
C749 C740 1.390 . S
C749 H742 0.950 . S
C749 C746 1.387 . S
C750 C751 1.387 . S
C750 H754 0.950 . S
C750 C759 1.390 . S
C751 C750 1.387 . S
C751 C753 1.387 . S
H752 C759 0.950 . S
C753 C751 1.387 . S
C753 C755 1.390 . S
C753 H757 0.950 . S
H754 C750 0.950 . S
C755 C753 1.390 . S
C755 C756 1.387 . S
C755 H758 0.950 . S
C756 C755 1.387 . S
C756 C759 1.387 . S
H757 C753 0.950 . S
H758 C755 0.950 . S
C759 C750 1.390 . S
C759 H752 0.950 . S
C759 C756 1.387 . S
C760 C761 1.387 . S
C760 H764 0.950 . S
C760 C769 1.390 . S
C761 C760 1.387 . S
C761 C763 1.387 . S
H762 C769 0.950 . S
C763 C761 1.387 . S
C763 C765 1.390 . S
C763 H767 0.950 . S
H764 C760 0.950 . S
C765 C763 1.390 . S
C765 C766 1.387 . S
C765 H768 0.950 . S
C766 C765 1.387 . S
C766 C769 1.387 . S
H767 C763 0.950 . S
H768 C765 0.950 . S
C769 C760 1.390 . S
C769 H762 0.950 . S
C769 C766 1.387 . S
C770 C771 1.387 . S
C770 H774 0.950 . S
C770 C779 1.390 . S
C771 C770 1.387 . S
C771 C773 1.387 . S
H772 C779 0.950 . S
C773 C771 1.387 . S
C773 C775 1.390 . S
C773 H777 0.950 . S
H774 C770 0.950 . S
C775 C773 1.390 . S
C775 C776 1.387 . S
C775 H778 0.950 . S
C776 C775 1.387 . S
C776 C779 1.387 . S
H777 C773 0.950 . S
H778 C775 0.950 . S
C779 C770 1.390 . S
C779 H772 0.950 . S
C779 C776 1.387 . S
C780 C781 1.387 . S
C780 H784 0.950 . S
C780 C789 1.390 . S
C781 C780 1.387 . S
C781 C783 1.387 . S
H782 C789 0.950 . S
C783 C781 1.387 . S
C783 C785 1.390 . S
C783 H787 0.950 . S
H784 C780 0.950 . S
C785 C783 1.390 . S
C785 C786 1.387 . S
C785 H788 0.950 . S
C786 C785 1.387 . S
C786 C789 1.387 . S
H787 C783 0.950 . S
H788 C785 0.950 . S
C789 C780 1.390 . S
C789 H782 0.950 . S
C789 C786 1.387 . S
C790 C791 1.387 . S
C790 H794 0.950 . S
C790 C799 1.390 . S
C791 C790 1.387 . S
C791 C793 1.387 . S
H792 C799 0.950 . S
C793 C791 1.387 . S
C793 C795 1.390 . S
C793 H797 0.950 . S
H794 C790 0.950 . S
C795 C793 1.390 . S
C795 C796 1.387 . S
C795 H798 0.950 . S
C796 C795 1.387 . S
C796 C799 1.387 . S
H797 C793 0.950 . S
H798 C795 0.950 . S
C799 C790 1.390 . S
C799 H792 0.950 . S
C799 C796 1.387 . S
C800 C801 1.387 . S
C800 H804 0.950 . S
C800 C809 1.390 . S
C801 C800 1.387 . S
C801 C803 1.387 . S
H802 C809 0.950 . S
C803 C801 1.387 . S
C803 C805 1.390 . S
C803 H807 0.950 . S
H804 C800 0.950 . S
C805 C803 1.390 . S
C805 C806 1.387 . S
C805 H808 0.950 . S
C806 C805 1.387 . S
C806 C809 1.387 . S
H807 C803 0.950 . S
H808 C805 0.950 . S
C809 C800 1.390 . S
C809 H802 0.950 . S
C809 C806 1.387 . S
C810 C811 1.387 . S
C810 H814 0.950 . S
C810 C819 1.390 . S
C811 C810 1.387 . S
C811 C813 1.387 . S
H812 C819 0.950 . S
C813 C811 1.387 . S
C813 C815 1.390 . S
C813 H817 0.950 . S
H814 C810 0.950 . S
C815 C813 1.390 . S
C815 C816 1.387 . S
C815 H818 0.950 . S
C816 C815 1.387 . S
C816 C819 1.387 . S
H817 C813 0.950 . S
H818 C815 0.950 . S
C819 C810 1.390 . S
C819 H812 0.950 . S
C819 C816 1.387 . S
C820 C821 1.387 . S
C820 H824 0.950 . S
C820 C829 1.390 . S
C821 C820 1.387 . S
C821 C823 1.387 . S
H822 C829 0.950 . S
C823 C821 1.387 . S
C823 C825 1.390 . S
C823 H827 0.950 . S
H824 C820 0.950 . S
C825 C823 1.390 . S
C825 C826 1.387 . S
C825 H828 0.950 . S
C826 C825 1.387 . S
C826 C829 1.387 . S
H827 C823 0.950 . S
H828 C825 0.950 . S
C829 C820 1.390 . S
C829 H822 0.950 . S
C829 C826 1.387 . S
C830 C831 1.387 . S
C830 H834 0.950 . S
C830 C839 1.390 . S
C831 C830 1.387 . S
C831 C833 1.387 . S
H832 C839 0.950 . S
C833 C831 1.387 . S
C833 C835 1.390 . S
C833 H837 0.950 . S
H834 C830 0.950 . S
C835 C833 1.390 . S
C835 C836 1.387 . S
C835 H838 0.950 . S
C836 C835 1.387 . S
C836 C839 1.387 . S
H837 C833 0.950 . S
H838 C835 0.950 . S
C839 C830 1.390 . S
C839 H832 0.950 . S
C839 C836 1.387 . S
C840 C841 1.387 . S
C840 H844 0.950 . S
C840 C849 1.390 . S
C841 C840 1.387 . S
C841 C843 1.387 . S
H842 C849 0.950 . S
C843 C841 1.387 . S
C843 C845 1.390 . S
C843 H847 0.950 . S
H844 C840 0.950 . S
C845 C843 1.390 . S
C845 C846 1.387 . S
C845 H848 0.950 . S
C846 C845 1.387 . S
C846 C849 1.387 . S
H847 C843 0.950 . S
H848 C845 0.950 . S
C849 C840 1.390 . S
C849 H842 0.950 . S
C849 C846 1.387 . S
C850 C851 1.387 . S
C850 H854 0.950 . S
C850 C859 1.390 . S
C851 C850 1.387 . S
C851 C853 1.387 . S
H852 C859 0.950 . S
C853 C851 1.387 . S
C853 C855 1.390 . S
C853 H857 0.950 . S
H854 C850 0.950 . S
C855 C853 1.390 . S
C855 C856 1.387 . S
C855 H858 0.950 . S
C856 C855 1.387 . S
C856 C859 1.387 . S
H857 C853 0.950 . S
H858 C855 0.950 . S
C859 C850 1.390 . S
C859 H852 0.950 . S
C859 C856 1.387 . S
C860 C861 1.387 . S
C860 H864 0.950 . S
C860 C869 1.390 . S
C861 C860 1.387 . S
C861 C863 1.387 . S
H862 C869 0.950 . S
C863 C861 1.387 . S
C863 C865 1.390 . S
C863 H867 0.950 . S
H864 C860 0.950 . S
C865 C863 1.390 . S
C865 C866 1.387 . S
C865 H868 0.950 . S
C866 C865 1.387 . S
C866 C869 1.387 . S
H867 C863 0.950 . S
H868 C865 0.950 . S
C869 C860 1.390 . S
C869 H862 0.950 . S
C869 C866 1.387 . S
C870 C871 1.387 . S
C870 H874 0.950 . S
C870 C879 1.390 . S
C871 C870 1.387 . S
C871 C873 1.387 . S
H872 C879 0.950 . S
C873 C871 1.387 . S
C873 C875 1.390 . S
C873 H877 0.950 . S
H874 C870 0.950 . S
C875 C873 1.390 . S
C875 C876 1.387 . S
C875 H878 0.950 . S
C876 C875 1.387 . S
C876 C879 1.387 . S
H877 C873 0.950 . S
H878 C875 0.950 . S
C879 C870 1.390 . S
C879 H872 0.950 . S
C879 C876 1.387 . S
C880 C881 1.387 . S
C880 H884 0.950 . S
C880 C889 1.390 . S
C881 C880 1.387 . S
C881 C883 1.387 . S
H882 C889 0.950 . S
C883 C881 1.387 . S
C883 C885 1.390 . S
C883 H887 0.950 . S
H884 C880 0.950 . S
C885 C883 1.390 . S
C885 C886 1.387 . S
C885 H888 0.950 . S
C886 C885 1.387 . S
C886 C889 1.387 . S
H887 C883 0.950 . S
H888 C885 0.950 . S
C889 C880 1.390 . S
C889 H882 0.950 . S
C889 C886 1.387 . S
C890 C891 1.387 . S
C890 H894 0.950 . S
C890 C899 1.390 . S
C891 C890 1.387 . S
C891 C893 1.387 . S
H892 C899 0.950 . S
C893 C891 1.387 . S
C893 C895 1.390 . S
C893 H897 0.950 . S
H894 C890 0.950 . S
C895 C893 1.390 . S
C895 C896 1.387 . S
C895 H898 0.950 . S
C896 C895 1.387 . S
C896 C899 1.387 . S
H897 C893 0.950 . S
H898 C895 0.950 . S
C899 C890 1.390 . S
C899 H892 0.950 . S
C899 C896 1.387 . S
C900 C901 1.387 . S
C900 H904 0.950 . S
C900 C909 1.390 . S
C901 C900 1.387 . S
C901 C903 1.387 . S
H902 C909 0.950 . S
C903 C901 1.387 . S
C903 C905 1.390 . S
C903 H907 0.950 . S
H904 C900 0.950 . S
C905 C903 1.390 . S
C905 C906 1.387 . S
C905 H908 0.950 . S
C906 C905 1.387 . S
C906 C909 1.387 . S
H907 C903 0.950 . S
H908 C905 0.950 . S
C909 C900 1.390 . S
C909 H902 0.950 . S
C909 C906 1.387 . S
C910 C911 1.387 . S
C910 H914 0.950 . S
C910 C919 1.390 . S
C911 C910 1.387 . S
C911 C913 1.387 . S
H912 C919 0.950 . S
C913 C911 1.387 . S
C913 C915 1.390 . S
C913 H917 0.950 . S
H914 C910 0.950 . S
C915 C913 1.390 . S
C915 C916 1.387 . S
C915 H918 0.950 . S
C916 C915 1.387 . S
C916 C919 1.387 . S
H917 C913 0.950 . S
H918 C915 0.950 . S
C919 C910 1.390 . S
C919 H912 0.950 . S
C919 C916 1.387 . S
C920 C921 1.387 . S
C920 H924 0.950 . S
C920 C929 1.390 . S
C921 C920 1.387 . S
C921 C923 1.387 . S
H922 C929 0.950 . S
C923 C921 1.387 . S
C923 C925 1.390 . S
C923 H927 0.950 . S
H924 C920 0.950 . S
C925 C923 1.390 . S
C925 C926 1.387 . S
C925 H928 0.950 . S
C926 C925 1.387 . S
C926 C929 1.387 . S
H927 C923 0.950 . S
H928 C925 0.950 . S
C929 C920 1.390 . S
C929 H922 0.950 . S
C929 C926 1.387 . S
C930 C931 1.387 . S
C930 H934 0.950 . S
C930 C939 1.390 . S
C931 C930 1.387 . S
C931 C933 1.387 . S
H932 C939 0.950 . S
C933 C931 1.387 . S
C933 C935 1.390 . S
C933 H937 0.950 . S
H934 C930 0.950 . S
C935 C933 1.390 . S
C935 C936 1.387 . S
C935 H938 0.950 . S
C936 C935 1.387 . S
C936 C939 1.387 . S
H937 C933 0.950 . S
H938 C935 0.950 . S
C939 C930 1.390 . S
C939 H932 0.950 . S
C939 C936 1.387 . S
C940 C941 1.387 . S
C940 H944 0.950 . S
C940 C949 1.390 . S
C941 C940 1.387 . S
C941 C943 1.387 . S
H942 C949 0.950 . S
C943 C941 1.387 . S
C943 C945 1.390 . S
C943 H947 0.950 . S
H944 C940 0.950 . S
C945 C943 1.390 . S
C945 C946 1.387 . S
C945 H948 0.950 . S
C946 C945 1.387 . S
C946 C949 1.387 . S
H947 C943 0.950 . S
H948 C945 0.950 . S
C949 C940 1.390 . S
C949 H942 0.950 . S
C949 C946 1.387 . S
C950 C951 1.387 . S
C950 H954 0.950 . S
C950 C959 1.390 . S
C951 C950 1.387 . S
C951 C953 1.387 . S
H952 C959 0.950 . S
C953 C951 1.387 . S
C953 C955 1.390 . S
C953 H957 0.950 . S
H954 C950 0.950 . S
C955 C953 1.390 . S
C955 C956 1.387 . S
C955 H958 0.950 . S
C956 C955 1.387 . S
C956 C959 1.387 . S
H957 C953 0.950 . S
H958 C955 0.950 . S
C959 C950 1.390 . S
C959 H952 0.950 . S
C959 C956 1.387 . S
C960 C961 1.387 . S
C960 H964 0.950 . S
C960 C969 1.390 . S
C961 C960 1.387 . S
C961 C963 1.387 . S
H962 C969 0.950 . S
C963 C961 1.387 . S
C963 C965 1.390 . S
C963 H967 0.950 . S
H964 C960 0.950 . S
C965 C963 1.390 . S
C965 C966 1.387 . S
C965 H968 0.950 . S
C966 C965 1.387 . S
C966 C969 1.387 . S
H967 C963 0.950 . S
H968 C965 0.950 . S
C969 C960 1.390 . S
C969 H962 0.950 . S
C969 C966 1.387 . S
C970 C971 1.387 . S
C970 H974 0.950 . S
C970 C979 1.390 . S
C971 C970 1.387 . S
C971 C973 1.387 . S
H972 C979 0.950 . S
C973 C971 1.387 . S
C973 C975 1.390 . S
C973 H977 0.950 . S
H974 C970 0.950 . S
C975 C973 1.390 . S
C975 C976 1.387 . S
C975 H978 0.950 . S
C976 C975 1.387 . S
C976 C979 1.387 . S
H977 C973 0.950 . S
H978 C975 0.950 . S
C979 C970 1.390 . S
C979 H972 0.950 . S
C979 C976 1.387 . S
C980 C981 1.387 . S
C980 H984 0.950 . S
C980 C989 1.390 . S
C981 C980 1.387 . S
C981 C983 1.387 . S
H982 C989 0.950 . S
C983 C981 1.387 . S
C983 C985 1.390 . S
C983 H987 0.950 . S
H984 C980 0.950 . S
C985 C983 1.390 . S
C985 C986 1.387 . S
C985 H988 0.950 . S
C986 C985 1.387 . S
C986 C989 1.387 . S
H987 C983 0.950 . S
H988 C985 0.950 . S
C989 C980 1.390 . S
C989 H982 0.950 . S
C989 C986 1.387 . S
C990 C991 1.387 . S
C990 H994 0.950 . S
C990 C999 1.390 . S
C991 C990 1.387 . S
C991 C993 1.387 . S
H992 C999 0.950 . S
C993 C991 1.387 . S
C993 C995 1.390 . S
C993 H997 0.950 . S
H994 C990 0.950 . S
C995 C993 1.390 . S
C995 C996 1.387 . S
C995 H998 0.950 . S
C996 C995 1.387 . S
C996 C999 1.387 . S
H997 C993 0.950 . S
H998 C995 0.950 . S
C999 C990 1.390 . S
C999 H992 0.950 . S
C999 C996 1.387 . S
C1000 C1001 1.387 . S
C1000 H1004 0.950 . S
C1000 C1009 1.390 . S
C1001 C1000 1.387 . S
C1001 C1003 1.387 . S
H1002 C1009 0.950 . S
C1003 C1001 1.387 . S
C1003 C1005 1.390 . S
C1003 H1007 0.950 . S
H1004 C1000 0.950 . S
C1005 C1003 1.390 . S
C1005 C1006 1.387 . S
C1005 H1008 0.950 . S
C1006 C1005 1.387 . S
C1006 C1009 1.387 . S
H1007 C1003 0.950 . S
H1008 C1005 0.950 . S
C1009 C1000 1.390 . S
C1009 H1002 0.950 . S
C1009 C1006 1.387 . S
C1010 C1011 1.387 . S
C1010 H1014 0.950 . S
C1010 C1019 1.390 . S
C1011 C1010 1.387 . S
C1011 C1013 1.387 . S
H1012 C1019 0.950 . S
C1013 C1011 1.387 . S
C1013 C1015 1.390 . S
C1013 H1017 0.950 1_554 S
H1014 C1010 0.950 . S
C1015 C1013 1.390 . S
C1015 C1016 1.387 . S
C1015 H1018 0.950 . S
C1016 C1015 1.387 . S
C1016 C1019 1.387 . S
H1017 C1013 0.950 1_556 S
H1018 C1015 0.950 . S
C1019 C1010 1.390 . S
C1019 H1012 0.950 . S
C1019 C1016 1.387 . S
C1020 C1021 1.387 . S
C1020 H1024 0.950 . S
C1020 C1029 1.390 . S
C1021 C1020 1.387 . S
C1021 C1023 1.386 1_556 S
H1022 C1029 0.950 . S
C1023 C1021 1.386 1_554 S
C1023 C1025 1.389 1_554 S
C1023 H1027 0.953 . S
H1024 C1020 0.950 . S
C1025 C1023 1.389 1_556 S
C1025 C1026 1.387 . S
C1025 H1028 0.950 . S
C1026 C1025 1.387 . S
C1026 C1029 1.387 . S
H1027 C1023 0.953 . S
H1028 C1025 0.950 . S
C1029 C1020 1.390 . S
C1029 H1022 0.950 . S
C1029 C1026 1.387 . S
C1030 C1031 1.387 . S
C1030 H1034 0.950 . S
C1030 C1039 1.390 . S
C1031 C1030 1.387 . S
C1031 C1033 1.387 1_556 S
H1032 C1039 0.950 . S
C1033 C1031 1.387 1_554 S
C1033 C1035 1.390 1_554 S
C1033 H1037 0.950 . S
H1034 C1030 0.950 . S
C1035 C1033 1.390 1_556 S
C1035 C1036 1.387 . S
C1035 H1038 0.950 1_556 S
C1036 C1035 1.387 . S
C1036 C1039 1.387 . S
H1037 C1033 0.950 . S
H1038 C1035 0.950 1_554 S
C1039 C1030 1.390 . S
C1039 H1032 0.950 . S
C1039 C1036 1.387 . S
C1040 C1041 1.387 . S
C1040 H1044 0.950 1_556 S
C1040 C1049 1.390 . S
C1041 C1040 1.387 . S
C1041 C1043 1.387 . S
H1042 C1049 0.950 . S
C1043 C1041 1.387 . S
C1043 C1045 1.390 . S
C1043 H1047 0.950 . S
H1044 C1040 0.950 1_554 S
C1045 C1043 1.390 . S
C1045 C1046 1.387 . S
C1045 H1048 0.950 . S
C1046 C1045 1.387 . S
C1046 C1049 1.387 . S
H1047 C1043 0.950 . S
H1048 C1045 0.950 . S
C1049 C1040 1.390 . S
C1049 H1042 0.950 . S
C1049 C1046 1.387 . S
C1050 C1051 1.387 . S
C1050 H1054 0.950 1_556 S
C1050 C1059 1.390 . S
C1051 C1050 1.387 . S
C1051 C1053 1.387 . S
H1052 C1059 0.950 . S
C1053 C1051 1.387 . S
C1053 C1055 1.390 . S
C1053 H1057 0.950 . S
H1054 C1050 0.950 1_554 S
C1055 C1053 1.390 . S
C1055 C1056 1.387 . S
C1055 H1058 0.950 . S
C1056 C1055 1.387 . S
C1056 C1059 1.387 . S
H1057 C1053 0.950 . S
H1058 C1055 0.950 . S
C1059 C1050 1.390 . S
C1059 H1052 0.950 . S
C1059 C1056 1.387 . S
C1060 C1061 1.387 . S
C1060 H1064 0.950 . S
C1060 C1069 1.390 . S
C1061 C1060 1.387 . S
C1061 C1063 1.387 . S
H1062 C1069 0.950 . S
C1063 C1061 1.387 . S
C1063 C1065 1.390 . S
C1063 H1067 0.950 1_556 S
H1064 C1060 0.950 . S
C1065 C1063 1.390 . S
C1065 C1066 1.387 . S
C1065 H1068 0.950 . S
C1066 C1065 1.387 . S
C1066 C1069 1.387 . S
H1067 C1063 0.950 1_554 S
H1068 C1065 0.950 . S
C1069 C1060 1.390 . S
C1069 H1062 0.950 . S
C1069 C1066 1.387 . S
C1070 C1071 1.387 . S
C1070 H1074 0.950 1_556 S
C1070 C1079 1.390 . S
C1071 C1070 1.387 . S
C1071 C1073 1.387 . S
H1072 C1079 0.950 . S
C1073 C1071 1.387 . S
C1073 C1075 1.390 . S
C1073 H1077 0.950 . S
H1074 C1070 0.950 1_554 S
C1075 C1073 1.390 . S
C1075 C1076 1.387 . S
C1075 H1078 0.950 . S
C1076 C1075 1.387 . S
C1076 C1079 1.387 . S
H1077 C1073 0.950 . S
H1078 C1075 0.950 . S
C1079 C1070 1.390 . S
C1079 H1072 0.950 . S
C1079 C1076 1.387 . S
C1080 C1081 1.387 . S
C1080 H1084 0.950 1_554 S
C1080 C1089 1.390 . S
C1081 C1080 1.387 . S
C1081 C1083 1.387 . S
H1082 C1089 0.950 . S
C1083 C1081 1.387 . S
C1083 C1085 1.390 . S
C1083 H1087 0.950 . S
H1084 C1080 0.950 1_556 S
C1085 C1083 1.390 . S
C1085 C1086 1.387 . S
C1085 H1088 0.950 . S
C1086 C1085 1.387 . S
C1086 C1089 1.387 . S
H1087 C1083 0.950 . S
H1088 C1085 0.950 . S
C1089 C1080 1.390 . S
C1089 H1082 0.950 . S
C1089 C1086 1.387 . S
C1090 C1091 1.387 . S
C1090 H1094 0.950 . S
C1090 C1099 1.390 . S
C1091 C1090 1.387 . S
C1091 C1093 1.387 . S
H1092 C1099 0.950 . S
C1093 C1091 1.387 . S
C1093 C1095 1.390 . S
C1093 H1097 0.950 . S
H1094 C1090 0.950 . S
C1095 C1093 1.390 . S
C1095 C1096 1.387 . S
C1095 H1098 0.950 . S
C1096 C1095 1.387 . S
C1096 C1099 1.387 . S
H1097 C1093 0.950 . S
H1098 C1095 0.950 . S
C1099 C1090 1.390 . S
C1099 H1092 0.950 . S
C1099 C1096 1.387 . S
C1100 C1101 1.387 . S
C1100 H1104 0.950 . S
C1100 C1109 1.390 . S
C1101 C1100 1.387 . S
C1101 C1103 1.387 . S
H1102 C1109 0.950 . S
C1103 C1101 1.387 . S
C1103 C1105 1.390 . S
C1103 H1107 0.950 . S
H1104 C1100 0.950 . S
C1105 C1103 1.390 . S
C1105 C1106 1.387 . S
C1105 H1108 0.950 . S
C1106 C1105 1.387 . S
C1106 C1109 1.387 . S
H1107 C1103 0.950 . S
H1108 C1105 0.950 . S
C1109 C1100 1.390 . S
C1109 H1102 0.950 . S
C1109 C1106 1.387 . S
C1110 C1111 1.387 . S
C1110 H1114 0.950 . S
C1110 C1119 1.390 . S
C1111 C1110 1.387 . S
C1111 C1113 1.387 . S
H1112 C1119 0.950 . S
C1113 C1111 1.387 . S
C1113 C1115 1.390 . S
C1113 H1117 0.950 . S
H1114 C1110 0.950 . S
C1115 C1113 1.390 . S
C1115 C1116 1.387 . S
C1115 H1118 0.950 . S
C1116 C1115 1.387 . S
C1116 C1119 1.387 . S
H1117 C1113 0.950 . S
H1118 C1115 0.950 . S
C1119 C1110 1.390 . S
C1119 H1112 0.950 . S
C1119 C1116 1.387 . S
C1120 C1121 1.387 . S
C1120 H1124 0.950 . S
C1120 C1129 1.390 . S
C1121 C1120 1.387 . S
C1121 C1123 1.387 . S
H1122 C1129 0.950 . S
C1123 C1121 1.387 . S
C1123 C1125 1.390 . S
C1123 H1127 0.950 . S
H1124 C1120 0.950 . S
C1125 C1123 1.390 . S
C1125 C1126 1.387 . S
C1125 H1128 0.950 . S
C1126 C1125 1.387 . S
C1126 C1129 1.387 . S
H1127 C1123 0.950 . S
H1128 C1125 0.950 . S
C1129 C1120 1.390 . S
C1129 H1122 0.950 . S
C1129 C1126 1.387 . S
C1130 C1131 1.387 . S
C1130 H1134 0.950 . S
C1130 C1139 1.390 . S
C1131 C1130 1.387 . S
C1131 C1133 1.387 . S
H1132 C1139 0.950 . S
C1133 C1131 1.387 . S
C1133 C1135 1.390 . S
C1133 H1137 0.950 . S
H1134 C1130 0.950 . S
C1135 C1133 1.390 . S
C1135 C1136 1.387 . S
C1135 H1138 0.950 . S
C1136 C1135 1.387 . S
C1136 C1139 1.387 . S
H1137 C1133 0.950 . S
H1138 C1135 0.950 . S
C1139 C1130 1.390 . S
C1139 H1132 0.950 . S
C1139 C1136 1.387 . S
C1140 C1141 1.387 . S
C1140 H1144 0.950 . S
C1140 C1149 1.390 . S
C1141 C1140 1.387 . S
C1141 C1143 1.387 . S
H1142 C1149 0.950 . S
C1143 C1141 1.387 . S
C1143 C1145 1.390 . S
C1143 H1147 0.950 . S
H1144 C1140 0.950 . S
C1145 C1143 1.390 . S
C1145 C1146 1.387 . S
C1145 H1148 0.950 . S
C1146 C1145 1.387 . S
C1146 C1149 1.387 . S
H1147 C1143 0.950 . S
H1148 C1145 0.950 . S
C1149 C1140 1.390 . S
C1149 H1142 0.950 . S
C1149 C1146 1.387 . S
C1150 C1151 1.387 . S
C1150 H1154 0.950 . S
C1150 C1159 1.390 . S
C1151 C1150 1.387 . S
C1151 C1153 1.387 . S
H1152 C1159 0.950 . S
C1153 C1151 1.387 . S
C1153 C1155 1.390 . S
C1153 H1157 0.950 . S
H1154 C1150 0.950 . S
C1155 C1153 1.390 . S
C1155 C1156 1.387 . S
C1155 H1158 0.950 . S
C1156 C1155 1.387 . S
C1156 C1159 1.387 . S
H1157 C1153 0.950 . S
H1158 C1155 0.950 . S
C1159 C1150 1.390 . S
C1159 H1152 0.950 . S
C1159 C1156 1.387 . S
C1160 C1161 1.387 . S
C1160 H1164 0.950 . S
C1160 C1169 1.390 . S
C1161 C1160 1.387 . S
C1161 C1163 1.387 1_565 S
H1162 C1169 0.950 . S
C1163 C1161 1.387 1_545 S
C1163 C1165 1.390 . S
C1163 H1167 0.950 . S
H1164 C1160 0.950 . S
C1165 C1163 1.390 . S
C1165 C1166 1.387 1_545 S
C1165 H1168 0.950 . S
C1166 C1165 1.387 1_565 S
C1166 C1169 1.387 . S
H1167 C1163 0.950 . S
H1168 C1165 0.950 . S
C1169 C1160 1.390 . S
C1169 H1162 0.950 . S
C1169 C1166 1.387 . S
C1170 C1171 1.387 . S
C1170 H1174 0.950 . S
C1170 C1179 1.390 . S
C1171 C1170 1.387 . S
C1171 C1173 1.387 1_565 S
H1172 C1179 0.950 . S
C1173 C1171 1.387 1_545 S
C1173 C1175 1.390 . S
C1173 H1177 0.950 . S
H1174 C1170 0.950 . S
C1175 C1173 1.390 . S
C1175 C1176 1.387 1_545 S
C1175 H1178 0.950 . S
C1176 C1175 1.387 1_565 S
C1176 C1179 1.387 . S
H1177 C1173 0.950 . S
H1178 C1175 0.950 . S
C1179 C1170 1.390 . S
C1179 H1172 0.950 . S
C1179 C1176 1.387 . S
C1180 C1181 1.387 . S
C1180 H1184 0.950 . S
C1180 C1189 1.390 . S
C1181 C1180 1.387 . S
C1181 C1183 1.387 . S
H1182 C1189 0.950 . S
C1183 C1181 1.387 . S
C1183 C1185 1.390 . S
C1183 H1187 0.950 . S
H1184 C1180 0.950 . S
C1185 C1183 1.390 . S
C1185 C1186 1.387 . S
C1185 H1188 0.950 . S
C1186 C1185 1.387 . S
C1186 C1189 1.387 . S
H1187 C1183 0.950 . S
H1188 C1185 0.950 . S
C1189 C1180 1.390 . S
C1189 H1182 0.950 . S
C1189 C1186 1.387 . S
C1190 C1191 1.387 . S
C1190 H1194 0.950 . S
C1190 C1199 1.390 . S
C1191 C1190 1.387 . S
C1191 C1193 1.387 . S
H1192 C1199 0.950 . S
C1193 C1191 1.387 . S
C1193 C1195 1.390 . S
C1193 H1197 0.950 . S
H1194 C1190 0.950 . S
C1195 C1193 1.390 . S
C1195 C1196 1.387 . S
C1195 H1198 0.950 . S
C1196 C1195 1.387 . S
C1196 C1199 1.387 . S
H1197 C1193 0.950 . S
H1198 C1195 0.950 . S
C1199 C1190 1.390 . S
C1199 H1192 0.950 . S
C1199 C1196 1.387 . S
C1200 C1201 1.387 . S
C1200 H1204 0.950 . S
C1200 C1209 1.390 . S
C1201 C1200 1.387 . S
C1201 C1203 1.387 . S
H1202 C1209 0.950 . S
C1203 C1201 1.387 . S
C1203 C1205 1.390 . S
C1203 H1207 0.950 . S
H1204 C1200 0.950 . S
C1205 C1203 1.390 . S
C1205 C1206 1.387 . S
C1205 H1208 0.950 . S
C1206 C1205 1.387 . S
C1206 C1209 1.387 . S
H1207 C1203 0.950 . S
H1208 C1205 0.950 . S
C1209 C1200 1.390 . S
C1209 H1202 0.950 . S
C1209 C1206 1.387 . S
C1210 C1211 1.387 . S
C1210 H1214 0.950 . S
C1210 C1219 1.390 . S
C1211 C1210 1.387 . S
C1211 C1213 1.387 . S
H1212 C1219 0.950 . S
C1213 C1211 1.387 . S
C1213 C1215 1.390 . S
C1213 H1217 0.950 . S
H1214 C1210 0.950 . S
C1215 C1213 1.390 . S
C1215 C1216 1.387 . S
C1215 H1218 0.950 . S
C1216 C1215 1.387 . S
C1216 C1219 1.387 . S
H1217 C1213 0.950 . S
H1218 C1215 0.950 . S
C1219 C1210 1.390 . S
C1219 H1212 0.950 . S
C1219 C1216 1.387 . S
C1220 C1221 1.387 . S
C1220 H1224 0.950 . S
C1220 C1229 1.390 . S
C1221 C1220 1.387 . S
C1221 C1223 1.387 . S
H1222 C1229 0.950 . S
C1223 C1221 1.387 . S
C1223 C1225 1.390 . S
C1223 H1227 0.950 . S
H1224 C1220 0.950 . S
C1225 C1223 1.390 . S
C1225 C1226 1.387 . S
C1225 H1228 0.950 . S
C1226 C1225 1.387 . S
C1226 C1229 1.387 . S
H1227 C1223 0.950 . S
H1228 C1225 0.950 . S
C1229 C1220 1.390 . S
C1229 H1222 0.950 . S
C1229 C1226 1.387 . S
C1230 C1231 1.387 1_565 S
C1230 H1234 0.950 . S
C1230 C1239 1.390 . S
C1231 C1230 1.387 1_545 S
C1231 C1233 1.387 . S
H1232 C1239 0.950 . S
C1233 C1231 1.387 . S
C1233 C1235 1.390 . S
C1233 H1237 0.950 . S
H1234 C1230 0.950 . S
C1235 C1233 1.390 . S
C1235 C1236 1.387 . S
C1235 H1238 0.950 . S
C1236 C1235 1.387 . S
C1236 C1239 1.387 1_545 S
H1237 C1233 0.950 . S
H1238 C1235 0.950 . S
C1239 C1230 1.390 . S
C1239 H1232 0.950 . S
C1239 C1236 1.387 1_565 S
C1240 C1241 1.387 . S
C1240 H1244 0.950 . S
C1240 C1249 1.390 . S
C1241 C1240 1.387 . S
C1241 C1243 1.387 . S
H1242 C1249 0.950 . S
C1243 C1241 1.387 . S
C1243 C1245 1.390 . S
C1243 H1247 0.950 . S
H1244 C1240 0.950 . S
C1245 C1243 1.390 . S
C1245 C1246 1.387 . S
C1245 H1248 0.950 . S
C1246 C1245 1.387 . S
C1246 C1249 1.387 . S
H1247 C1243 0.950 . S
H1248 C1245 0.950 . S
C1249 C1240 1.390 . S
C1249 H1242 0.950 . S
C1249 C1246 1.387 . S
C1250 C1251 1.387 . S
C1250 H1254 0.950 . S
C1250 C1259 1.390 . S
C1251 C1250 1.387 . S
C1251 C1253 1.387 . S
H1252 C1259 0.950 . S
C1253 C1251 1.387 . S
C1253 C1255 1.390 . S
C1253 H1257 0.950 . S
H1254 C1250 0.950 . S
C1255 C1253 1.390 . S
C1255 C1256 1.387 . S
C1255 H1258 0.950 . S
C1256 C1255 1.387 . S
C1256 C1259 1.387 . S
H1257 C1253 0.950 . S
H1258 C1255 0.950 . S
C1259 C1250 1.390 . S
C1259 H1252 0.950 . S
C1259 C1256 1.387 . S
C1260 C1261 1.387 . S
C1260 H1264 0.950 . S
C1260 C1269 1.390 . S
C1261 C1260 1.387 . S
C1261 C1263 1.387 . S
H1262 C1269 0.950 . S
C1263 C1261 1.387 . S
C1263 C1265 1.390 . S
C1263 H1267 0.950 . S
H1264 C1260 0.950 . S
C1265 C1263 1.390 . S
C1265 C1266 1.387 . S
C1265 H1268 0.950 . S
C1266 C1265 1.387 . S
C1266 C1269 1.387 . S
H1267 C1263 0.950 . S
H1268 C1265 0.950 . S
C1269 C1260 1.390 . S
C1269 H1262 0.950 . S
C1269 C1266 1.387 . S
C1270 C1271 1.387 . S
C1270 H1274 0.950 . S
C1270 C1279 1.390 . S
C1271 C1270 1.387 . S
C1271 C1273 1.387 . S
H1272 C1279 0.950 . S
C1273 C1271 1.387 . S
C1273 C1275 1.390 . S
C1273 H1277 0.950 . S
H1274 C1270 0.950 . S
C1275 C1273 1.390 . S
C1275 C1276 1.387 . S
C1275 H1278 0.950 . S
C1276 C1275 1.387 . S
C1276 C1279 1.387 . S
H1277 C1273 0.950 . S
H1278 C1275 0.950 . S
C1279 C1270 1.390 . S
C1279 H1272 0.950 . S
C1279 C1276 1.387 . S
C1280 C1281 1.387 . S
C1280 H1284 0.950 . S
C1280 C1289 1.390 . S
C1281 C1280 1.387 . S
C1281 C1283 1.387 . S
H1282 C1289 0.950 . S
C1283 C1281 1.387 . S
C1283 C1285 1.390 . S
C1283 H1287 0.950 . S
H1284 C1280 0.950 . S
C1285 C1283 1.390 . S
C1285 C1286 1.387 . S
C1285 H1288 0.950 . S
C1286 C1285 1.387 . S
C1286 C1289 1.387 . S
H1287 C1283 0.950 . S
H1288 C1285 0.950 . S
C1289 C1280 1.390 . S
C1289 H1282 0.950 . S
C1289 C1286 1.387 . S
C1290 C1291 1.387 . S
C1290 H1294 0.950 . S
C1290 C1299 1.390 . S
C1291 C1290 1.387 . S
C1291 C1293 1.387 . S
H1292 C1299 0.950 . S
C1293 C1291 1.387 . S
C1293 C1295 1.390 . S
C1293 H1297 0.950 . S
H1294 C1290 0.950 . S
C1295 C1293 1.390 . S
C1295 C1296 1.387 . S
C1295 H1298 0.950 . S
C1296 C1295 1.387 . S
C1296 C1299 1.387 . S
H1297 C1293 0.950 . S
H1298 C1295 0.950 . S
C1299 C1290 1.390 . S
C1299 H1292 0.950 . S
C1299 C1296 1.387 . S
C1300 C1301 1.387 . S
C1300 H1304 0.950 . S
C1300 C1309 1.390 . S
C1301 C1300 1.387 . S
C1301 C1303 1.387 . S
H1302 C1309 0.950 . S
C1303 C1301 1.387 . S
C1303 C1305 1.390 . S
C1303 H1307 0.950 . S
H1304 C1300 0.950 . S
C1305 C1303 1.390 . S
C1305 C1306 1.387 . S
C1305 H1308 0.950 . S
C1306 C1305 1.387 . S
C1306 C1309 1.387 . S
H1307 C1303 0.950 . S
H1308 C1305 0.950 . S
C1309 C1300 1.390 . S
C1309 H1302 0.950 . S
C1309 C1306 1.387 . S
C1310 C1311 1.387 . S
C1310 H1314 0.950 . S
C1310 C1319 1.390 . S
C1311 C1310 1.387 . S
C1311 C1313 1.387 . S
H1312 C1319 0.950 . S
C1313 C1311 1.387 . S
C1313 C1315 1.390 . S
C1313 H1317 0.950 . S
H1314 C1310 0.950 . S
C1315 C1313 1.390 . S
C1315 C1316 1.387 . S
C1315 H1318 0.950 . S
C1316 C1315 1.387 . S
C1316 C1319 1.387 . S
H1317 C1313 0.950 . S
H1318 C1315 0.950 . S
C1319 C1310 1.390 . S
C1319 H1312 0.950 . S
C1319 C1316 1.387 . S
C1320 C1321 1.387 . S
C1320 H1324 0.950 . S
C1320 C1329 1.390 . S
C1321 C1320 1.387 . S
C1321 C1323 1.387 1_655 S
H1322 C1329 0.950 . S
C1323 C1321 1.387 1_455 S
C1323 C1325 1.390 . S
C1323 H1327 0.950 . S
H1324 C1320 0.950 . S
C1325 C1323 1.390 . S
C1325 C1326 1.387 1_455 S
C1325 H1328 0.950 . S
C1326 C1325 1.387 1_655 S
C1326 C1329 1.387 . S
H1327 C1323 0.950 . S
H1328 C1325 0.950 . S
C1329 C1320 1.390 . S
C1329 H1322 0.950 . S
C1329 C1326 1.387 . S
C1330 C1331 1.387 . S
C1330 H1334 0.950 . S
C1330 C1339 1.390 . S
C1331 C1330 1.387 . S
C1331 C1333 1.387 . S
H1332 C1339 0.950 . S
C1333 C1331 1.387 . S
C1333 C1335 1.390 . S
C1333 H1337 0.950 . S
H1334 C1330 0.950 . S
C1335 C1333 1.390 . S
C1335 C1336 1.387 . S
C1335 H1338 0.950 . S
C1336 C1335 1.387 . S
C1336 C1339 1.387 . S
H1337 C1333 0.950 . S
H1338 C1335 0.950 . S
C1339 C1330 1.390 . S
C1339 H1332 0.950 . S
C1339 C1336 1.387 . S
C1340 C1341 1.387 1_565 S
C1340 H1344 0.950 . S
C1340 C1349 1.390 . S
C1341 C1340 1.387 1_545 S
C1341 C1343 1.387 . S
H1342 C1349 0.950 . S
C1343 C1341 1.387 . S
C1343 C1345 1.390 . S
C1343 H1347 0.950 . S
H1344 C1340 0.950 . S
C1345 C1343 1.390 . S
C1345 C1346 1.387 . S
C1345 H1348 0.950 . S
C1346 C1345 1.387 . S
C1346 C1349 1.387 1_545 S
H1347 C1343 0.950 . S
H1348 C1345 0.950 . S
C1349 C1340 1.390 . S
C1349 H1342 0.950 . S
C1349 C1346 1.387 1_565 S
C631 C4 1.555 . S
C636 C458 1.548 1_655 S
C641 C26 1.573 . S
C646 C471 1.531 . S
C656 C500 1.484 1_545 S
C651 C32 1.507 . S
C661 C40 1.516 . S
C666 C513 1.469 . S
C671 C12 1.560 . S
C676 C534 1.514 . S
C681 C18 1.523 . S
C686 C563 1.507 . S
C691 C46 1.557 . S
C696 C542 1.538 . S
C706 C555 1.498 . S
C701 C68 1.558 . S
C716 C521 1.498 . S
C711 C74 1.512 . S
C721 C82 1.515 . S
C726 C492 1.493 1_545 S
C736 C450 1.523 1_655 S
C731 C54 1.563 . S
C741 C60 1.517 . S
C746 C479 1.517 . S
C751 C88 1.577 . S
C756 C584 1.555 . S
C761 C110 1.589 . S
C766 C597 1.549 . S
C776 C626 1.509 . S
C771 C116 1.536 . S
C781 C124 1.529 . S
C786 C261 1.487 . S
C791 C96 1.572 . S
C796 C282 1.530 . S
C801 C102 1.533 . S
C806 C311 1.510 . S
C811 C130 1.556 . S
C816 C290 1.559 . S
C821 C152 1.580 . S
C826 C303 1.517 . S
C836 C269 1.536 . S
C831 C158 1.530 . S
C846 C618 1.476 . S
C841 C166 1.530 . S
C856 C576 1.506 . S
C851 C138 1.557 . S
C866 C605 1.538 . S
C861 C144 1.535 . S
C871 C172 1.570 . S
C876 C332 1.547 . S
C881 C194 1.591 . S
C886 C345 1.550 . S
C891 C200 1.538 . S
C896 C374 1.511 . S
C901 C208 1.538 . S
C906 C387 1.496 . S
C916 C408 1.528 . S
C911 C180 1.571 . S
C926 C437 1.516 . S
C921 C186 1.537 . S
C936 C416 1.580 . S
C931 C214 1.575 . S
C946 C429 1.509 . S
C941 C236 1.574 . S
C951 C242 1.522 . S
C956 C395 1.530 . S
C966 C366 1.465 . S
C961 C250 1.515 . S
C971 C222 1.565 . S
C976 C324 1.513 . S
C986 C353 1.528 . S
C981 C228 1.528 . S
C996 C264 1.365 . S
C991 C5 1.222 . S
C1001 C25 1.398 . S
C1006 C285 1.304 . S
C1016 C313 1.324 . S
C1011 C33 1.236 . S
C1026 C334 1.277 . S
C1021 C39 1.369 . S
C1036 C348 1.318 . S
C1031 C11 1.408 . S
C1046 C376 1.293 . S
C1041 C19 1.187 1_556 S
C1051 C47 1.224 1_556 S
C1056 C369 1.299 . S
C1061 C67 1.429 . S
C1066 C327 1.239 . S
C1071 C75 1.250 1_556 S
C1076 C355 1.408 . S
C1081 C81 1.408 . S
C1086 C292 1.347 . S
C1096 C306 1.253 . S
C1091 C53 1.431 . S
C1101 C61 1.201 . S
C1106 C271 1.367 . S
C1116 C390 1.350 . S
C1111 C89 1.200 . S
C1121 C109 1.424 . S
C1126 C411 1.324 . S
C1131 C117 1.213 . S
C1136 C439 1.312 . S
C1146 C460 1.252 . S
C1141 C123 1.335 . S
C1151 C95 1.395 . S
C1156 C474 1.300 . S
C1161 C103 1.173 . S
C1166 C502 1.275 . S
C1171 C131 1.180 . S
C1176 C495 1.243 . S
C1181 C151 1.392 . S
C1186 C453 1.228 . S
C1196 C481 1.371 . S
C1191 C159 1.206 . S
C1201 C165 1.404 . S
C1206 C418 1.330 . S
C1211 C137 1.451 . S
C1216 C432 1.267 . S
C1226 C397 1.384 . S
C1221 C145 1.218 . S
C1236 C516 1.290 1_545 S
C1231 C173 1.184 . S
C1241 C193 1.357 . S
C1246 C537 1.258 1_655 S
C1251 C201 1.194 . S
C1256 C565 1.294 . S
C1266 C586 1.259 . S
C1261 C207 1.369 . S
C1276 C600 1.329 . S
C1271 C179 1.429 . S
C1281 C187 1.207 . S
C1286 C628 1.313 . S
C1291 C215 1.221 . S
C1296 C621 1.282 . S
C1301 C235 1.452 . S
C1306 C579 1.264 . S
C1316 C607 1.386 . S
C1311 C243 1.221 . S
C1326 C544 1.278 1_655 S
C1321 C249 1.339 . S
C1336 C558 1.248 . S
C1331 C221 1.426 . S
C1341 C229 1.176 . S
C1346 C523 1.308 1_545 S
