# Generated by pormake.
# Topology llj, (12,3)-cn, num edge types: 1
# Building blocks:
#     Node 0, Type 0, BuildingBlock: QEWDON_clean_sbu_0, # of connection points: 12
#     Node 1, Type 0, BuildingBlock: QEWDON_clean_sbu_0, # of connection points: 12
#     Node 2, Type 1, BuildingBlock: INOVEN_clean_linker_0, # of connection points: 3
#     Node 3, Type 1, BuildingBlock: INOVEN_clean_linker_0, # of connection points: 3
#     Node 4, Type 1, BuildingBlock: INOVEN_clean_linker_0, # of connection points: 3
#     Node 5, Type 1, BuildingBlock: INOVEN_clean_linker_0, # of connection points: 3
#     Node 6, Type 1, BuildingBlock: INOVEN_clean_linker_0, # of connection points: 3
#     Node 7, Type 1, BuildingBlock: INOVEN_clean_linker_0, # of connection points: 3
#     Node 8, Type 1, BuildingBlock: INOVEN_clean_linker_0, # of connection points: 3
#     Node 9, Type 1, BuildingBlock: INOVEN_clean_linker_0, # of connection points: 3
#     Edge 10, Type (0, 1), BuildingBlock: CIFDUS_clean_linker_0, # of connection points: 2
#     Edge 11, Type (0, 1), BuildingBlock: CIFDUS_clean_linker_0, # of connection points: 2
#     Edge 12, Type (0, 1), BuildingBlock: CIFDUS_clean_linker_0, # of connection points: 2
#     Edge 13, Type (0, 1), BuildingBlock: CIFDUS_clean_linker_0, # of connection points: 2
#     Edge 14, Type (0, 1), BuildingBlock: CIFDUS_clean_linker_0, # of connection points: 2
#     Edge 15, Type (0, 1), BuildingBlock: CIFDUS_clean_linker_0, # of connection points: 2
#     Edge 16, Type (0, 1), BuildingBlock: CIFDUS_clean_linker_0, # of connection points: 2
#     Edge 17, Type (0, 1), BuildingBlock: CIFDUS_clean_linker_0, # of connection points: 2
#     Edge 18, Type (0, 1), BuildingBlock: CIFDUS_clean_linker_0, # of connection points: 2
#     Edge 19, Type (0, 1), BuildingBlock: CIFDUS_clean_linker_0, # of connection points: 2
#     Edge 20, Type (0, 1), BuildingBlock: CIFDUS_clean_linker_0, # of connection points: 2
#     Edge 21, Type (0, 1), BuildingBlock: CIFDUS_clean_linker_0, # of connection points: 2
#     Edge 22, Type (0, 1), BuildingBlock: CIFDUS_clean_linker_0, # of connection points: 2
#     Edge 23, Type (0, 1), BuildingBlock: CIFDUS_clean_linker_0, # of connection points: 2
#     Edge 24, Type (0, 1), BuildingBlock: CIFDUS_clean_linker_0, # of connection points: 2
#     Edge 25, Type (0, 1), BuildingBlock: CIFDUS_clean_linker_0, # of connection points: 2
#     Edge 26, Type (0, 1), BuildingBlock: CIFDUS_clean_linker_0, # of connection points: 2
#     Edge 27, Type (0, 1), BuildingBlock: CIFDUS_clean_linker_0, # of connection points: 2
#     Edge 28, Type (0, 1), BuildingBlock: CIFDUS_clean_linker_0, # of connection points: 2
#     Edge 29, Type (0, 1), BuildingBlock: CIFDUS_clean_linker_0, # of connection points: 2
#     Edge 30, Type (0, 1), BuildingBlock: CIFDUS_clean_linker_0, # of connection points: 2
#     Edge 31, Type (0, 1), BuildingBlock: CIFDUS_clean_linker_0, # of connection points: 2
#     Edge 32, Type (0, 1), BuildingBlock: CIFDUS_clean_linker_0, # of connection points: 2
#     Edge 33, Type (0, 1), BuildingBlock: CIFDUS_clean_linker_0, # of connection points: 2
# Relax obj value: 0.009
# Max RMSD: 0.092
# Mean RMSD: 0.079
data_MOF--net-llj--node1-QEWDON_clean_sbu_0--node2-INOVEN_clean_linker_0--edge1-CIFDUS_clean_linker_0
_symmetry_space_group_name_H-M    P1
_symmetry_Int_Tables_number       1
_symmetry_cell_setting            triclinic
loop_
_symmetry_equiv_pos_as_xyz
'x, y, z'
_cell_length_a     35.010807
_cell_length_b     34.972814
_cell_length_c     21.732804
_cell_angle_alpha  90.944908
_cell_angle_beta   90.679383
_cell_angle_gamma 90.073043
loop_
_atom_site_label
_atom_site_type_symbol
_atom_site_fract_x
_atom_site_fract_y
_atom_site_fract_z
_atom_type_partial_charge
Zn0 Zn 0.9401 0.08788 0.96982 0.0
Zn1 Zn 0.94879 0.09841 0.10494 0.0
O2 O 0.9817 0.10296 0.03145 0.0
H3 H 0.00127 0.12195 0.02504 0.0
C4 C 0.90297 0.99415 0.85189 0.0
O5 O 0.87722 0.99616 0.89533 0.0
Zn6 Zn 0.06487 0.92305 0.07229 0.0
Zn7 Zn 0.06113 0.92299 0.92423 0.0
O8 O 0.03129 0.93495 0.00031 0.0
H9 H 0.00783 0.94941 0.00043 0.0
Zn10 Zn 0.93482 0.94978 0.94625 0.0
O11 O 0.94151 0.9888 0.01499 0.0
Zn12 Zn 0.9329 0.95679 0.08833 0.0
H13 H 0.9579 0.01092 0.01206 0.0
Zn14 Zn 0.07639 0.04583 0.95778 0.0
O15 O 0.05208 0.02654 0.03383 0.0
H16 H 0.02792 0.01323 0.03449 0.0
Zn17 Zn 0.07229 0.0586 0.10295 0.0
C18 C 0.11734 0.98737 0.89068 0.0
O19 O 0.14146 0.99254 0.93686 0.0
O20 O 0.88964 0.11424 0.99189 0.0
O21 O 0.89935 0.12817 0.09107 0.0
O22 O 0.11059 0.89445 0.94234 0.0
O23 O 0.11177 0.89083 0.04448 0.0
O24 O 0.89569 0.90769 0.96619 0.0
O25 O 0.89275 0.91583 0.06767 0.0
C26 C 0.01328 0.10275 0.17975 0.0
O27 O 0.11259 0.09105 0.97116 0.0
O28 O 0.11075 0.09892 0.07298 0.0
O29 O 0.03066 0.90315 0.84889 0.0
C30 C 0.87895 0.13016 0.04198 0.0
O31 O 0.95717 0.09215 0.87963 0.0
C32 C 0.99717 0.90522 0.1404 0.0
O33 O 0.93247 0.97381 0.86057 0.0
C34 C 0.12624 0.88302 0.99186 0.0
O35 O 0.08692 0.00698 0.88878 0.0
C36 C 0.91906 0.02758 0.15677 0.0
O37 O 0.97941 0.11578 0.17991 0.0
O38 O 0.02423 0.08411 0.13263 0.0
C39 C 0.88168 0.89895 0.01799 0.0
O40 O 0.03206 0.89573 0.13429 0.0
O41 O 0.98414 0.93178 0.10669 0.0
C42 C 0.09499 0.98753 0.15831 0.0
O43 O 0.91389 0.99159 0.15744 0.0
O44 O 0.93757 0.04228 0.11326 0.0
C45 C 0.12333 0.1085 0.02027 0.0
O46 O 0.09611 0.02367 0.16661 0.0
O47 O 0.08038 0.97462 0.10825 0.0
C48 C 0.99621 0.89256 0.85428 0.0
O49 O 0.97996 0.89472 0.90834 0.0
C50 C 0.99096 0.08099 0.86898 0.0
O51 O 0.0105 0.0649 0.91346 0.0
Zn52 Zn 0.44464 0.58983 0.43232 0.0
Zn53 Zn 0.4436 0.58549 0.58075 0.0
O54 O 0.47324 0.56999 0.5064 0.0
H55 H 0.4892 0.54755 0.50438 0.0
C56 C 0.45279 0.49863 0.3418 0.0
O57 O 0.48589 0.49898 0.37093 0.0
Zn58 Zn 0.54578 0.42103 0.57774 0.0
Zn59 Zn 0.55087 0.42012 0.43373 0.0
O60 O 0.5136 0.42781 0.50241 0.0
H61 H 0.49196 0.44479 0.4993 0.0
Zn62 Zn 0.42738 0.45385 0.44836 0.0
O63 O 0.42032 0.49222 0.51662 0.0
Zn64 Zn 0.41441 0.45808 0.58872 0.0
H65 H 0.40617 0.5154 0.50895 0.0
Zn66 Zn 0.58154 0.55095 0.42943 0.0
O67 O 0.56288 0.52353 0.50345 0.0
H68 H 0.54294 0.50445 0.50081 0.0
Zn69 Zn 0.5771 0.55606 0.57681 0.0
C70 C 0.60269 0.48472 0.35885 0.0
O71 O 0.60943 0.473 0.41508 0.0
O72 O 0.39723 0.62074 0.45523 0.0
O73 O 0.39838 0.61985 0.55771 0.0
O74 O 0.5958 0.3863 0.45871 0.0
O75 O 0.59164 0.38561 0.56069 0.0
O76 O 0.39316 0.40684 0.46329 0.0
O77 O 0.37976 0.41354 0.56301 0.0
C78 C 0.51449 0.60466 0.64196 0.0
O79 O 0.61925 0.59366 0.45133 0.0
O80 O 0.61736 0.59635 0.55369 0.0
O81 O 0.5284 0.41504 0.34564 0.0
C82 C 0.38327 0.63059 0.50696 0.0
O83 O 0.47569 0.60891 0.35837 0.0
C84 C 0.47739 0.4114 0.64507 0.0
O85 O 0.42501 0.48004 0.36384 0.0
C86 C 0.60801 0.37519 0.5108 0.0
O87 O 0.59033 0.51843 0.35114 0.0
C88 C 0.40415 0.5252 0.6597 0.0
O89 O 0.47889 0.61193 0.64104 0.0
O90 O 0.52725 0.58079 0.60243 0.0
C91 C 0.37573 0.3959 0.51123 0.0
O92 O 0.51147 0.39904 0.64258 0.0
O93 O 0.46685 0.43693 0.60756 0.0
C94 C 0.58733 0.4858 0.64146 0.0
O95 O 0.39401 0.49028 0.66002 0.0
O96 O 0.42424 0.53632 0.61522 0.0
C97 C 0.63049 0.60805 0.50258 0.0
O98 O 0.59768 0.52069 0.64281 0.0
O99 O 0.56412 0.47438 0.59983 0.0
C100 C 0.49323 0.40641 0.34182 0.0
O101 O 0.47426 0.40073 0.39263 0.0
C102 C 0.51177 0.61188 0.36281 0.0
O103 O 0.52885 0.60252 0.41449 0.0
H104 H 0.31539 0.3221 0.89685 0.0
H105 H 0.39222 0.39944 0.9926 0.0
H106 H 0.32332 0.32167 0.09449 0.0
N107 N 0.28695 0.28988 -0.00333 0.0
N108 N 0.27452 0.27777 0.04636 0.0
C109 C 0.32746 0.33355 0.93946 0.0
C110 C 0.35509 0.36277 0.9381 0.0
C111 C 0.31516 0.31922 0.99588 0.0
C112 C 0.33154 0.33366 0.05097 0.0
C113 C 0.35952 0.36241 0.05028 0.0
C114 C 0.37066 0.37718 0.99365 0.0
H115 H 0.6762 0.33821 0.08902 0.0
H116 H 0.59724 0.40214 0.97704 0.0
H117 H 0.66591 0.31402 0.8952 0.0
N118 N 0.69963 0.2918 0.00251 0.0
N119 N 0.70868 0.26937 0.95999 0.0
C120 C 0.6622 0.34366 0.04535 0.0
C121 C 0.63524 0.37327 0.04004 0.0
C122 C 0.67251 0.32142 0.99408 0.0
C123 C 0.65688 0.32977 0.93583 0.0
C124 C 0.62988 0.3591 0.92999 0.0
C125 C 0.61839 0.37979 0.98226 0.0
H126 H 0.64823 0.72504 0.10569 0.0
H127 H 0.55682 0.67442 -0.00211 0.0
H128 H 0.65226 0.72457 0.90742 0.0
N129 N 0.68955 0.74777 0.01175 0.0
N130 N 0.70779 0.75626 0.96491 0.0
C131 C 0.63565 0.71726 0.06143 0.0
C132 C 0.60001 0.69862 0.05842 0.0
C133 C 0.65474 0.72684 0.00729 0.0
C134 C 0.63815 0.71707 0.94966 0.0
C135 C 0.60255 0.6988 0.9464 0.0
C136 C 0.58391 0.68949 0.00072 0.0
H137 H 0.34271 0.67433 0.12998 0.0
H138 H 0.41127 0.60328 0.01155 0.0
H139 H 0.34101 0.69163 0.93451 0.0
N140 N 0.31194 0.71625 0.04436 0.0
N141 N 0.29763 0.73519 0.00181 0.0
C142 C 0.35333 0.6671 0.08459 0.0
C143 C 0.379 0.63663 0.07704 0.0
C144 C 0.33981 0.68742 0.03394 0.0
C145 C 0.35225 0.6771 0.97447 0.0
C146 C 0.37864 0.64719 0.96648 0.0
C147 C 0.39236 0.62753 0.01802 0.0
H148 H 0.86088 0.77168 0.38938 0.0
H149 H 0.95712 0.82688 0.47717 0.0
H150 H 0.86974 0.77635 0.58716 0.0
N151 N 0.82618 0.75118 0.49136 0.0
N152 N 0.81223 0.74146 0.54136 0.0
C153 C 0.87615 0.78039 0.43097 0.0
C154 C 0.91127 0.79946 0.427 0.0
C155 C 0.86106 0.77181 0.48865 0.0
C156 C 0.88106 0.78321 0.54251 0.0
C157 C 0.91583 0.80309 0.53893 0.0
C158 C 0.93073 0.81086 0.48085 0.0
H159 H 0.18491 0.83952 0.42372 0.0
H160 H 0.11311 0.91579 0.52818 0.0
H161 H 0.16857 0.8221 0.61716 0.0
N162 N 0.20523 0.79575 0.51639 0.0
N163 N 0.21574 0.77856 0.56353 0.0
C164 C 0.17113 0.84755 0.4664 0.0
C165 C 0.14769 0.88016 0.46924 0.0
C166 C 0.17874 0.82641 0.51947 0.0
C167 C 0.16228 0.83772 0.5756 0.0
C168 C 0.13864 0.86995 0.57889 0.0
C169 C 0.13095 0.89052 0.52542 0.0
H170 H 0.16709 0.1773 0.65215 0.0
H171 H 0.08598 0.12224 0.52913 0.0
H172 H 0.16917 0.19973 0.45822 0.0
N173 N 0.20278 0.21687 0.56817 0.0
N174 N 0.22014 0.23218 0.52525 0.0
C175 C 0.15607 0.17174 0.60604 0.0
C176 C 0.12473 0.14708 0.59664 0.0
C177 C 0.17244 0.19064 0.5565 0.0
C178 C 0.15722 0.18478 0.49681 0.0
C179 C 0.12612 0.16006 0.48678 0.0
C180 C 0.11032 0.14101 0.53672 0.0
H181 H 0.82704 0.18416 0.42012 0.0
H182 H 0.88197 0.09194 0.51459 0.0
H183 H 0.80972 0.17006 0.61399 0.0
N184 N 0.78869 0.21143 0.51598 0.0
N185 N 0.77228 0.2226 0.56373 0.0
C186 C 0.83293 0.16895 0.46223 0.0
C187 C 0.85804 0.1376 0.46176 0.0
C188 C 0.81528 0.18071 0.51702 0.0
C189 C 0.82288 0.16075 0.57151 0.0
C190 C 0.8468 0.12851 0.57133 0.0
C191 C 0.86441 0.11742 0.51618 0.0
H192 H 0.15661 0.15121 0.11302 0.0
H193 H 0.15266 0.13766 0.91508 0.0
H194 H 0.19879 0.18916 0.90488 0.0
H195 H 0.24111 0.2379 0.95179 0.0
H196 H 0.24582 0.25158 0.14898 0.0
H197 H 0.19862 0.20034 0.1599 0.0
C198 C 0.16577 0.15954 0.06766 0.0
C199 C 0.15111 0.14038 0.01506 0.0
C200 C 0.19254 0.18927 0.0619 0.0
C201 C 0.16342 0.15169 0.95659 0.0
C202 C 0.18987 0.18124 0.95055 0.0
C203 C 0.23171 0.22968 -0.00296 0.0
C204 C 0.24672 0.24832 0.04982 0.0
C205 C 0.20473 0.20017 0.00282 0.0
C206 C 0.2344 0.2374 0.10805 0.0
C207 C 0.20752 0.2082 0.11422 0.0
H208 H 0.83108 0.14091 0.94484 0.0
H209 H 0.84846 0.17373 0.13561 0.0
H210 H 0.79554 0.21913 0.12822 0.0
H211 H 0.74741 0.2526 0.06527 0.0
H212 H 0.73158 0.22053 0.87434 0.0
H213 H 0.78117 0.17151 0.884 0.0
C214 C 0.8232 0.15768 0.98514 0.0
C215 C 0.84406 0.15413 0.04058 0.0
C216 C 0.79329 0.18407 0.98028 0.0
C217 C 0.83308 0.17598 0.09229 0.0
C218 C 0.80291 0.20206 0.08802 0.0
C219 C 0.7547 0.23474 0.02592 0.0
C220 C 0.7362 0.24012 0.96871 0.0
C221 C 0.78334 0.20689 0.03189 0.0
C222 C 0.74573 0.21673 0.9184 0.0
C223 C 0.77397 0.18884 0.92401 0.0
H224 H 0.85035 0.85873 0.92176 0.0
H225 H 0.8433 0.87384 0.11894 0.0
H226 H 0.78946 0.8294 0.12104 0.0
H227 H 0.74221 0.78858 0.06602 0.0
H228 H 0.74907 0.77436 0.8692 0.0
H229 H 0.80533 0.81607 0.86774 0.0
C230 C 0.83725 0.85221 0.96534 0.0
C231 C 0.85077 0.86993 0.02002 0.0
C232 C 0.80616 0.82684 0.96622 0.0
C233 C 0.83343 0.86084 0.07604 0.0
C234 C 0.80257 0.83543 0.07732 0.0
C235 C 0.75624 0.7944 0.02298 0.0
C236 C 0.7417 0.77859 0.96743 0.0
C237 C 0.78837 0.81863 0.02259 0.0
C238 C 0.76005 0.78637 0.91215 0.0
C239 C 0.79204 0.81019 0.91138 0.0
H240 H 0.16553 0.84549 0.08313 0.0
H241 H 0.16483 0.86526 0.8874 0.0
H242 H 0.2189 0.8228 0.87448 0.0
H243 H 0.26483 0.77711 0.91718 0.0
H244 H 0.2655 0.75538 0.1116 0.0
H245 H 0.21342 0.80109 0.12656 0.0
C246 C 0.17741 0.84074 0.03778 0.0
C247 C 0.16093 0.85878 0.98645 0.0
C248 C 0.20851 0.81557 0.03024 0.0
C249 C 0.17679 0.85208 0.92796 0.0
C250 C 0.20776 0.82757 0.9203 0.0
C251 C 0.25361 0.78275 0.96275 0.0
C252 C 0.2688 0.76301 0.01281 0.0
C253 C 0.22355 0.8088 0.97088 0.0
C254 C 0.25423 0.77024 0.07205 0.0
C255 C 0.2244 0.79636 0.08065 0.0
H256 H 0.67283 0.63692 0.59948 0.0
H257 H 0.65651 0.64566 0.40279 0.0
H258 H 0.71046 0.68921 0.39741 0.0
H259 H 0.76481 0.72171 0.44684 0.0
H260 H 0.7824 0.71358 0.64263 0.0
H261 H 0.72535 0.67307 0.65022 0.0
C262 C 0.68084 0.64866 0.55558 0.0
C263 C 0.66085 0.63758 0.50162 0.0
C264 C 0.7123 0.67361 0.55251 0.0
C265 C 0.67159 0.65325 0.44509 0.0
C266 C 0.7025 0.67822 0.44182 0.0
C267 C 0.75605 0.71123 0.49118 0.0
C268 C 0.77779 0.72014 0.5443 0.0
C269 C 0.7235 0.68801 0.49496 0.0
C270 C 0.76594 0.70673 0.60138 0.0
C271 C 0.73347 0.68362 0.60562 0.0
H272 H 0.34333 0.65709 0.60628 0.0
H273 H 0.34741 0.66196 0.40788 0.0
H274 H 0.29469 0.7071 0.40725 0.0
H275 H 0.24926 0.74761 0.46277 0.0
H276 H 0.24429 0.74342 0.66043 0.0
H277 H 0.29538 0.69541 0.66168 0.0
C278 C 0.33259 0.66787 0.5629 0.0
C279 C 0.34964 0.65628 0.50735 0.0
C280 C 0.30213 0.69402 0.56268 0.0
C281 C 0.33507 0.67042 0.4515 0.0
C282 C 0.30487 0.69633 0.45095 0.0
C283 C 0.25921 0.73601 0.50604 0.0
C284 C 0.2434 0.74898 0.56172 0.0
C285 C 0.2885 0.70868 0.50623 0.0
C286 C 0.25634 0.73362 0.6173 0.0
C287 C 0.28549 0.70636 0.61794 0.0
H288 H 0.337 0.36025 0.60274 0.0
H289 H 0.35502 0.35701 0.4063 0.0
H290 H 0.30926 0.30496 0.39461 0.0
H291 H 0.26187 0.26194 0.43911 0.0
H292 H 0.24354 0.26437 0.63466 0.0
H293 H 0.29157 0.31493 0.64789 0.0
C294 C 0.33101 0.34809 0.55741 0.0
C295 C 0.3493 0.36285 0.5055 0.0
C296 C 0.30451 0.31801 0.5508 0.0
C297 C 0.34137 0.34644 0.44715 0.0
C298 C 0.31512 0.31663 0.44028 0.0
C299 C 0.26879 0.2735 0.48451 0.0
C300 C 0.24942 0.25971 0.5355 0.0
C301 C 0.29626 0.30249 0.4916 0.0
C302 C 0.25822 0.27459 0.59455 0.0
C303 C 0.2856 0.30353 0.60209 0.0
H304 H 0.64104 0.34032 0.6103 0.0
H305 H 0.65036 0.35112 0.41323 0.0
H306 H 0.70313 0.30621 0.41209 0.0
H307 H 0.74525 0.26159 0.46568 0.0
H308 H 0.73632 0.24916 0.66175 0.0
H309 H 0.68505 0.29696 0.66475 0.0
C310 C 0.65472 0.33298 0.56718 0.0
C311 C 0.6414 0.34905 0.512 0.0
C312 C 0.68517 0.30671 0.56656 0.0
C313 C 0.65968 0.3392 0.45654 0.0
C314 C 0.68999 0.31342 0.45568 0.0
C315 C 0.73227 0.26955 0.50907 0.0
C316 C 0.74434 0.25202 0.56367 0.0
C317 C 0.70273 0.29668 0.51021 0.0
C318 C 0.72726 0.26253 0.61942 0.0
C319 C 0.69799 0.2897 0.62104 0.0
H320 H 0.03652 0.16893 0.23385 0.0
H321 H 0.04345 0.04648 0.24809 0.0
H322 H 0.0805 0.05316 0.34402 0.0
H323 H 0.10885 0.09405 0.42554 0.0
H324 H 0.10318 0.21668 0.4104 0.0
H325 H 0.06843 0.20996 0.31244 0.0
C326 C 0.04669 0.14387 0.25781 0.0
C327 C 0.03803 0.10732 0.23416 0.0
C328 C 0.06823 0.14801 0.3124 0.0
C329 C 0.05081 0.07484 0.26518 0.0
C330 C 0.07169 0.07867 0.32005 0.0
C331 C 0.10015 0.11922 0.40046 0.0
C332 C 0.10835 0.15577 0.42496 0.0
C333 C 0.08034 0.11511 0.34428 0.0
C334 C 0.09736 0.18826 0.39201 0.0
C335 C 0.07732 0.18443 0.3363 0.0
H336 H 0.95585 0.05641 0.2567 0.0
H337 H 0.84624 0.05235 0.16499 0.0
H338 H 0.81793 0.09022 0.24881 0.0
H339 H 0.82372 0.1203 0.35201 0.0
H340 H 0.93337 0.12299 0.44436 0.0
H341 H 0.96272 0.09077 0.35608 0.0
C342 C 0.92592 0.06438 0.25503 0.0
C343 C 0.90296 0.05193 0.20542 0.0
C344 C 0.91 0.08593 0.30337 0.0
C345 C 0.86418 0.06177 0.20331 0.0
C346 C 0.8481 0.08341 0.25102 0.0
C347 C 0.85416 0.11451 0.35208 0.0
C348 C 0.87639 0.12384 0.40445 0.0
C349 C 0.87061 0.09516 0.30178 0.0
C350 C 0.91573 0.11581 0.40451 0.0
C351 C 0.93247 0.09729 0.35426 0.0
H352 H 0.01719 0.84463 0.20988 0.0
H353 H 0.92344 0.92131 0.1748 0.0
H354 H 0.88621 0.8913 0.25427 0.0
H355 H 0.88271 0.84727 0.34154 0.0
H356 H 0.97836 0.77407 0.38155 0.0
H357 H 0.01234 0.79828 0.2924 0.0
C358 C 0.98847 0.85463 0.21908 0.0
C359 C 0.97317 0.88532 0.18577 0.0
C360 C 0.96757 0.83774 0.26618 0.0
C361 C 0.93593 0.8977 0.19873 0.0
C362 C 0.9146 0.88058 0.2447 0.0
C363 C 0.91058 0.83606 0.32954 0.0
C364 C 0.92807 0.80885 0.36725 0.0
C365 C 0.93041 0.85107 0.27955 0.0
C366 C 0.96446 0.7949 0.35252 0.0
C367 C 0.98391 0.80889 0.30194 0.0
H368 H 0.11675 0.00809 0.27418 0.0
H369 H 0.10359 0.90927 0.15489 0.0
H370 H 0.11913 0.86733 0.2396 0.0
H371 H 0.1338 0.85855 0.34972 0.0
H372 H 0.14992 0.95804 0.46743 0.0
H373 H 0.13591 0.99976 0.38147 0.0
C374 C 0.11728 0.97739 0.26652 0.0
C375 C 0.10765 0.96189 0.20829 0.0
C376 C 0.12676 0.95347 0.31553 0.0
C377 C 0.10943 0.92206 0.19928 0.0
C378 C 0.1187 0.89797 0.24786 0.0
C379 C 0.13471 0.88935 0.35631 0.0
C380 C 0.14219 0.90507 0.41517 0.0
C381 C 0.12691 0.91334 0.30647 0.0
C382 C 0.14325 0.94511 0.42295 0.0
C383 C 0.13549 0.96905 0.37375 0.0
H384 H 0.06984 0.96477 0.79788 0.0
H385 H 0.18391 0.94877 0.8706 0.0
H386 H 0.19914 0.90707 0.78306 0.0
H387 H 0.18171 0.88 0.68184 0.0
H388 H 0.06762 0.89575 0.60949 0.0
H389 H 0.0504 0.93231 0.70194 0.0
C390 C 0.09795 0.9519 0.79491 0.0
C391 C 0.12585 0.96014 0.84026 0.0
C392 C 0.10641 0.9279 0.74476 0.0
C393 C 0.16203 0.94309 0.83598 0.0
C394 C 0.17075 0.91923 0.78601 0.0
C395 C 0.15279 0.89056 0.68705 0.0
C396 C 0.12601 0.88548 0.63894 0.0
C397 C 0.14335 0.91197 0.73969 0.0
C398 C 0.08878 0.89975 0.64581 0.0
C399 C 0.079 0.9207 0.69844 0.0
H400 H 0.06629 0.07505 0.84249 0.0
H401 H 0.95794 0.11045 0.76578 0.0
H402 H 0.98971 0.13165 0.67298 0.0
H403 H 0.04864 0.14429 0.61709 0.0
H404 H 0.15733 0.11142 0.69526 0.0
H405 H 0.12505 0.0854 0.78475 0.0
C406 C 0.04952 0.0868 0.8051 0.0
C407 C 0.00973 0.09073 0.81077 0.0
C408 C 0.06812 0.09991 0.75266 0.0
C409 C 0.98856 0.10678 0.76235 0.0
C410 C 0.00673 0.11911 0.70942 0.0
C411 C 0.06523 0.13088 0.65325 0.0
C412 C 0.10529 0.12969 0.6496 0.0
C413 C 0.04654 0.11638 0.70456 0.0
C414 C 0.12648 0.11294 0.69737 0.0
C415 C 0.10804 0.09795 0.74832 0.0
H416 H 0.84032 0.03324 0.81533 0.0
H417 H 0.95574 0.00614 0.76235 0.0
H418 H 0.94888 0.04617 0.67179 0.0
H419 H 0.91091 0.09063 0.61016 0.0
H420 H 0.79365 0.11316 0.65929 0.0
H421 H 0.80122 0.07451 0.75051 0.0
C422 C 0.864 0.03605 0.78399 0.0
C423 C 0.89849 0.01687 0.79566 0.0
C424 C 0.85986 0.05896 0.73208 0.0
C425 C 0.9288 0.02053 0.7543 0.0
C426 C 0.92495 0.04351 0.70264 0.0
C427 C 0.88675 0.08673 0.64016 0.0
C428 C 0.85185 0.10526 0.62767 0.0
C429 C 0.89072 0.06314 0.69142 0.0
C430 C 0.82121 0.10025 0.66818 0.0
C431 C 0.82531 0.07769 0.72013 0.0
H432 H 0.02643 0.86132 0.75156 0.0
H433 H 0.91898 0.88809 0.8373 0.0
H434 H 0.88443 0.86221 0.74732 0.0
H435 H 0.8851 0.8334 0.64349 0.0
H436 H 0.99291 0.80338 0.5611 0.0
H437 H 0.02706 0.82977 0.65043 0.0
C438 C 0.99545 0.86166 0.7504 0.0
C439 C 0.97523 0.87681 0.80055 0.0
C440 C 0.9759 0.8463 0.69916 0.0
C441 C 0.93512 0.87651 0.79908 0.0
C442 C 0.91539 0.86178 0.74769 0.0
C443 C 0.91602 0.83201 0.64546 0.0
C444 C 0.93635 0.81666 0.59536 0.0
C445 C 0.93552 0.84662 0.69747 0.0
C446 C 0.97651 0.81567 0.59843 0.0
C447 C 0.9961 0.83056 0.64964 0.0
H448 H 0.49258 0.65717 0.72629 0.0
H449 H 0.59131 0.59367 0.66642 0.0
H450 H 0.62875 0.62048 0.75229 0.0
H451 H 0.63155 0.65801 0.85004 0.0
H452 H 0.53113 0.71845 0.91063 0.0
H453 H 0.4961 0.69673 0.8188 0.0
C454 C 0.52238 0.64925 0.73151 0.0
C455 C 0.53896 0.62301 0.69005 0.0
C456 C 0.54335 0.66418 0.78151 0.0
C457 C 0.57769 0.61352 0.69758 0.0
C458 C 0.59912 0.62885 0.74688 0.0
C459 C 0.60225 0.66691 0.84225 0.0
C460 C 0.58378 0.68962 0.88677 0.0
C461 C 0.58201 0.65365 0.78985 0.0
C462 C 0.54571 0.70078 0.87691 0.0
C463 C 0.52572 0.68838 0.82457 0.0
H464 H 0.44949 0.57154 0.72916 0.0
H465 H 0.33263 0.53573 0.70314 0.0
H466 H 0.31349 0.57484 0.79212 0.0
H467 H 0.33108 0.61493 0.88226 0.0
H468 H 0.44891 0.64565 0.91412 0.0
H469 H 0.46683 0.61344 0.81764 0.0
C470 C 0.41973 0.57331 0.7421 0.0
C471 C 0.39228 0.55163 0.70926 0.0
C472 C 0.4093 0.59479 0.79449 0.0
C473 C 0.35405 0.55257 0.72773 0.0
C474 C 0.34317 0.57484 0.77853 0.0
C475 C 0.36049 0.61525 0.86708 0.0
C476 C 0.38863 0.63293 0.90435 0.0
C477 C 0.37065 0.59553 0.81288 0.0
C478 C 0.42684 0.63246 0.88552 0.0
C479 C 0.43704 0.61398 0.83058 0.0
H480 H 0.43628 0.45146 0.72729 0.0
H481 H 0.46231 0.33672 0.66739 0.0
H482 H 0.42263 0.31099 0.74932 0.0
H483 H 0.38437 0.32163 0.84277 0.0
H484 H 0.35997 0.43691 0.90342 0.0
H485 H 0.39366 0.46223 0.81491 0.0
C486 C 0.43178 0.42094 0.73067 0.0
C487 C 0.45096 0.39598 0.69056 0.0
C488 C 0.40932 0.40656 0.77811 0.0
C489 C 0.4473 0.35635 0.69765 0.0
C490 C 0.42466 0.34171 0.74436 0.0
C491 C 0.38572 0.35223 0.83562 0.0
C492 C 0.36978 0.37742 0.87932 0.0
C493 C 0.40598 0.36656 0.78547 0.0
C494 C 0.37219 0.41706 0.87032 0.0
C495 C 0.39154 0.43151 0.81996 0.0
H496 H 0.54589 0.44258 0.71613 0.0
H497 H 0.66151 0.47176 0.67134 0.0
H498 H 0.68558 0.4293 0.7518 0.0
H499 H 0.67292 0.38818 0.84033 0.0
H500 H 0.5568 0.36132 0.88697 0.0
H501 H 0.5333 0.39674 0.7979 0.0
C502 C 0.57629 0.43826 0.72249 0.0
C503 C 0.602 0.45916 0.68737 0.0
C504 C 0.58963 0.41409 0.76874 0.0
C505 C 0.64138 0.4556 0.6981 0.0
C506 C 0.65505 0.43129 0.74375 0.0
C507 C 0.6426 0.38917 0.8296 0.0
C508 C 0.61652 0.37202 0.86926 0.0
C509 C 0.62939 0.41083 0.77995 0.0
C510 C 0.57721 0.37412 0.85635 0.0
C511 C 0.56384 0.39463 0.80598 0.0
H512 H 0.59879 0.50238 0.23767 0.0
H513 H 0.62189 0.4093 0.3602 0.0
H514 H 0.63042 0.36584 0.27285 0.0
H515 H 0.63219 0.35455 0.16165 0.0
H516 H 0.61879 0.45013 0.03954 0.0
H517 H 0.60468 0.49194 0.12652 0.0
C518 C 0.60566 0.47258 0.24528 0.0
C519 C 0.60898 0.45891 0.30552 0.0
C520 C 0.61201 0.44808 0.19473 0.0
C521 C 0.61842 0.42037 0.31447 0.0
C522 C 0.62349 0.39552 0.26444 0.0
C523 C 0.62674 0.38459 0.15381 0.0
C524 C 0.62624 0.39873 0.09357 0.0
C525 C 0.62052 0.40912 0.20434 0.0
C526 C 0.61833 0.43781 0.08488 0.0
C527 C 0.6107 0.46205 0.13479 0.0
H528 H 0.48497 0.65028 0.26397 0.0
H529 H 0.58867 0.60666 0.3454 0.0
H530 H 0.62574 0.63183 0.26066 0.0
H531 H 0.62831 0.66462 0.16121 0.0
H532 H 0.5243 0.70858 0.08094 0.0
H533 H 0.48775 0.68481 0.16717 0.0
C534 C 0.51569 0.64629 0.26321 0.0
C535 C 0.53408 0.62677 0.3111 0.0
C536 C 0.53677 0.66092 0.21442 0.0
C537 C 0.57389 0.62192 0.30947 0.0
C538 C 0.5951 0.63623 0.26089 0.0
C539 C 0.59777 0.66957 0.16326 0.0
C540 C 0.57905 0.68813 0.11464 0.0
C541 C 0.57684 0.65576 0.21303 0.0
C542 C 0.53933 0.69395 0.11749 0.0
C543 C 0.51839 0.68042 0.16678 0.0
H544 H 0.38494 0.52368 0.29905 0.0
H545 H 0.50598 0.53 0.26572 0.0
H546 H 0.49419 0.57366 0.1804 0.0
H547 H 0.44885 0.61072 0.116 0.0
H548 H 0.3283 0.60513 0.15424 0.0
H549 H 0.34059 0.56087 0.23751 0.0
C550 C 0.40879 0.53429 0.27283 0.0
C551 C 0.44621 0.52335 0.28825 0.0
C552 C 0.40187 0.55989 0.22517 0.0
C553 C 0.47684 0.53787 0.25445 0.0
C554 C 0.47012 0.56289 0.20582 0.0
C555 C 0.42541 0.59974 0.14274 0.0
C556 C 0.38775 0.6113 0.12932 0.0
C557 C 0.4327 0.57426 0.19095 0.0
C558 C 0.35757 0.5971 0.16436 0.0
C559 C 0.36452 0.57157 0.21164 0.0
H560 H 0.41724 0.40032 0.32007 0.0
H561 H 0.5258 0.40365 0.22804 0.0
H562 H 0.49361 0.39246 0.12892 0.0
H563 H 0.43515 0.37723 0.06985 0.0
H564 H 0.32652 0.37635 0.1619 0.0
H565 H 0.35844 0.39085 0.25994 0.0
C566 C 0.43389 0.39875 0.27832 0.0
C567 C 0.47385 0.40222 0.28145 0.0
C568 C 0.41525 0.39253 0.22165 0.0
C569 C 0.49497 0.40074 0.22687 0.0
C570 C 0.47661 0.39433 0.17021 0.0
C571 C 0.41832 0.38099 0.11106 0.0
C572 C 0.3785 0.37528 0.10854 0.0
C573 C 0.43681 0.3896 0.16722 0.0
C574 C 0.35727 0.37981 0.1627 0.0
C575 C 0.37546 0.38828 0.21873 0.0
loop_
_geom_bond_atom_site_label_1
_geom_bond_atom_site_label_2
_geom_bond_distance
_geom_bond_site_symmetry_2
_ccdc_geom_bond_type
Zn0 O2 1.933 1_556 S
Zn0 O20 1.985 . S
Zn0 O31 1.955 . S
Zn1 O2 1.911 . S
Zn1 O21 1.970 . S
Zn1 O37 1.945 . S
Zn1 O44 1.981 . S
O2 Zn0 1.933 1_554 S
O2 Zn1 1.911 . S
O2 H3 0.841 1_655 S
H3 O2 0.841 1_455 S
C4 O5 1.246 . S
C4 O33 1.276 1_545 S
O5 C4 1.246 . S
Zn6 O8 1.911 . S
Zn6 O23 1.970 . S
Zn6 O40 1.945 . S
Zn6 O47 1.981 . S
Zn7 O8 1.933 1_556 S
Zn7 O22 1.985 . S
Zn7 O29 1.955 . S
O8 Zn6 1.911 . S
O8 Zn7 1.933 1_554 S
O8 H9 0.841 1_455 S
H9 O8 0.841 1_655 S
Zn10 O11 1.933 1_556 S
Zn10 O24 1.985 . S
Zn10 O33 1.955 . S
O11 Zn10 1.933 1_554 S
O11 Zn12 1.911 . S
O11 H13 0.841 1_565 S
Zn12 O11 1.911 . S
Zn12 O25 1.970 . S
Zn12 O41 1.981 . S
Zn12 O43 1.945 . S
H13 O11 0.841 1_545 S
Zn14 O15 1.933 1_556 S
Zn14 O27 1.985 . S
Zn14 O35 1.955 . S
O15 Zn14 1.933 1_554 S
O15 H16 0.841 1_545 S
O15 Zn17 1.911 . S
H16 O15 0.841 1_565 S
Zn17 O15 1.911 . S
Zn17 O28 1.970 . S
Zn17 O38 1.981 . S
Zn17 O46 1.945 . S
C18 O19 1.246 . S
C18 O35 1.276 1_565 S
O19 C18 1.246 . S
O20 Zn0 1.985 . S
O20 C30 1.245 1_556 S
O21 Zn1 1.970 . S
O21 C30 1.263 . S
O22 Zn7 1.985 . S
O22 C34 1.245 1_556 S
O23 Zn6 1.970 . S
O23 C34 1.263 . S
O24 Zn10 1.985 . S
O24 C39 1.245 1_556 S
O25 Zn12 1.970 . S
O25 C39 1.263 . S
C26 O37 1.262 1_455 S
C26 O38 1.245 . S
O27 Zn14 1.985 . S
O27 C45 1.245 1_556 S
O28 Zn17 1.970 . S
O28 C45 1.263 . S
O29 Zn7 1.955 . S
O29 C48 1.276 1_455 S
C30 O20 1.245 1_554 S
C30 O21 1.263 . S
O31 Zn0 1.955 . S
O31 C50 1.276 1_655 S
C32 O40 1.262 1_655 S
C32 O41 1.245 . S
O33 C4 1.276 1_565 S
O33 Zn10 1.955 . S
C34 O22 1.245 1_554 S
C34 O23 1.263 . S
O35 Zn14 1.955 . S
O35 C18 1.276 1_545 S
C36 O43 1.262 1_545 S
C36 O44 1.245 . S
O37 Zn1 1.945 . S
O37 C26 1.262 1_655 S
O38 Zn17 1.981 . S
O38 C26 1.245 . S
C39 O24 1.245 1_554 S
C39 O25 1.263 . S
O40 Zn6 1.945 . S
O40 C32 1.262 1_455 S
O41 Zn12 1.981 . S
O41 C32 1.245 . S
C42 O46 1.262 1_565 S
C42 O47 1.245 . S
O43 Zn12 1.945 . S
O43 C36 1.262 1_565 S
O44 Zn1 1.981 . S
O44 C36 1.245 . S
C45 O27 1.245 1_554 S
C45 O28 1.263 . S
O46 Zn17 1.945 . S
O46 C42 1.262 1_545 S
O47 Zn6 1.981 . S
O47 C42 1.245 . S
C48 O29 1.276 1_655 S
C48 O49 1.246 . S
O49 C48 1.246 . S
C50 O31 1.276 1_455 S
C50 O51 1.246 . S
O51 C50 1.246 . S
Zn52 O54 1.933 . S
Zn52 O72 1.985 . S
Zn52 O83 1.955 . S
Zn53 O54 1.911 . S
Zn53 O73 1.970 . S
Zn53 O89 1.945 . S
Zn53 O96 1.981 . S
O54 Zn52 1.933 . S
O54 Zn53 1.911 . S
O54 H55 0.841 . S
H55 O54 0.841 . S
C56 O57 1.246 . S
C56 O85 1.276 . S
O57 C56 1.246 . S
Zn58 O60 1.911 . S
Zn58 O75 1.970 . S
Zn58 O92 1.945 . S
Zn58 O99 1.981 . S
Zn59 O60 1.933 . S
Zn59 O74 1.985 . S
Zn59 O81 1.955 . S
O60 Zn58 1.911 . S
O60 Zn59 1.933 . S
O60 H61 0.841 . S
H61 O60 0.841 . S
Zn62 O63 1.933 . S
Zn62 O76 1.985 . S
Zn62 O85 1.955 . S
O63 Zn62 1.933 . S
O63 Zn64 1.911 . S
O63 H65 0.841 . S
Zn64 O63 1.911 . S
Zn64 O77 1.970 . S
Zn64 O93 1.981 . S
Zn64 O95 1.945 . S
H65 O63 0.841 . S
Zn66 O67 1.933 . S
Zn66 O79 1.985 . S
Zn66 O87 1.955 . S
O67 Zn66 1.933 . S
O67 H68 0.841 . S
O67 Zn69 1.911 . S
H68 O67 0.841 . S
Zn69 O67 1.911 . S
Zn69 O80 1.970 . S
Zn69 O90 1.981 . S
Zn69 O98 1.945 . S
C70 O71 1.246 . S
C70 O87 1.276 . S
O71 C70 1.246 . S
O72 Zn52 1.985 . S
O72 C82 1.245 . S
O73 Zn53 1.970 . S
O73 C82 1.263 . S
O74 Zn59 1.985 . S
O74 C86 1.245 . S
O75 Zn58 1.970 . S
O75 C86 1.263 . S
O76 Zn62 1.985 . S
O76 C91 1.245 . S
O77 Zn64 1.970 . S
O77 C91 1.263 . S
C78 O89 1.262 . S
C78 O90 1.245 . S
O79 Zn66 1.985 . S
O79 C97 1.245 . S
O80 Zn69 1.970 . S
O80 C97 1.263 . S
O81 Zn59 1.955 . S
O81 C100 1.276 . S
C82 O72 1.245 . S
C82 O73 1.263 . S
O83 Zn52 1.955 . S
O83 C102 1.276 . S
C84 O92 1.262 . S
C84 O93 1.245 . S
O85 C56 1.276 . S
O85 Zn62 1.955 . S
C86 O74 1.245 . S
C86 O75 1.263 . S
O87 Zn66 1.955 . S
O87 C70 1.276 . S
C88 O95 1.262 . S
C88 O96 1.245 . S
O89 Zn53 1.945 . S
O89 C78 1.262 . S
O90 Zn69 1.981 . S
O90 C78 1.245 . S
C91 O76 1.245 . S
C91 O77 1.263 . S
O92 Zn58 1.945 . S
O92 C84 1.262 . S
O93 Zn64 1.981 . S
O93 C84 1.245 . S
C94 O98 1.262 . S
C94 O99 1.245 . S
O95 Zn64 1.945 . S
O95 C88 1.262 . S
O96 Zn53 1.981 . S
O96 C88 1.245 . S
C97 O79 1.245 . S
C97 O80 1.263 . S
O98 Zn69 1.945 . S
O98 C94 1.262 . S
O99 Zn58 1.981 . S
O99 C94 1.245 . S
C100 O81 1.276 . S
C100 O101 1.246 . S
O101 C100 1.246 . S
C102 O83 1.276 . S
C102 O103 1.246 . S
O103 C102 1.246 . S
H104 C109 0.929 . S
H105 C114 0.931 . S
H106 C112 0.930 . S
N107 N108 1.234 1_556 S
N107 C111 1.455 . S
N108 N107 1.234 1_554 S
C109 H104 0.929 . S
C109 C110 1.373 . S
C109 C111 1.376 . S
C110 C109 1.373 . S
C110 C114 1.397 1_556 S
C111 N107 1.455 . S
C111 C109 1.376 . S
C111 C112 1.363 1_556 S
C112 H106 0.930 . S
C112 C111 1.363 1_554 S
C112 C113 1.371 . S
C113 C112 1.371 . S
C113 C114 1.383 . S
C114 H105 0.931 . S
C114 C110 1.397 1_554 S
C114 C113 1.383 . S
H115 C120 0.929 . S
H116 C125 0.931 . S
H117 C123 0.930 . S
N118 N119 1.234 1_554 S
N118 C122 1.453 . S
N119 N118 1.234 1_556 S
C120 H115 0.929 . S
C120 C121 1.373 . S
C120 C122 1.368 . S
C121 C120 1.373 . S
C121 C125 1.397 . S
C122 N118 1.453 . S
C122 C120 1.368 . S
C122 C123 1.373 1_554 S
C123 H117 0.930 . S
C123 C122 1.373 1_556 S
C123 C124 1.371 . S
C124 C123 1.371 . S
C124 C125 1.383 1_556 S
C125 H116 0.931 . S
C125 C121 1.397 . S
C125 C124 1.383 1_554 S
H126 C131 0.929 . S
H127 C136 0.931 . S
H128 C134 0.930 . S
N129 N130 1.234 . S
N129 C133 1.453 . S
N130 N129 1.234 . S
C131 H126 0.929 . S
C131 C132 1.373 . S
C131 C133 1.368 . S
C132 C131 1.373 . S
C132 C136 1.397 . S
C133 N129 1.453 . S
C133 C131 1.368 . S
C133 C134 1.373 1_554 S
C134 H128 0.930 . S
C134 C133 1.373 1_556 S
C134 C135 1.371 . S
C135 C134 1.371 . S
C135 C136 1.383 1_556 S
C136 H127 0.931 . S
C136 C132 1.397 . S
C136 C135 1.383 1_554 S
H137 C142 0.929 . S
H138 C147 0.931 . S
H139 C145 0.930 . S
N140 N141 1.234 1_554 S
N140 C144 1.453 . S
N141 N140 1.234 1_556 S
C142 H137 0.929 . S
C142 C143 1.373 . S
C142 C144 1.368 . S
C143 C142 1.373 . S
C143 C147 1.397 . S
C144 N140 1.453 . S
C144 C142 1.368 . S
C144 C145 1.373 1_554 S
C145 H139 0.930 . S
C145 C144 1.373 1_556 S
C145 C146 1.371 . S
C146 C145 1.371 . S
C146 C147 1.383 1_556 S
C147 H138 0.931 . S
C147 C143 1.397 . S
C147 C146 1.383 1_554 S
H148 C153 0.929 . S
H149 C158 0.931 . S
H150 C156 0.930 . S
N151 N152 1.234 . S
N151 C155 1.453 . S
N152 N151 1.234 . S
C153 H148 0.929 . S
C153 C154 1.373 . S
C153 C155 1.368 . S
C154 C153 1.373 . S
C154 C158 1.397 . S
C155 N151 1.453 . S
C155 C153 1.368 . S
C155 C156 1.373 . S
C156 H150 0.930 . S
C156 C155 1.373 . S
C156 C157 1.371 . S
C157 C156 1.371 . S
C157 C158 1.383 . S
C158 H149 0.931 . S
C158 C154 1.397 . S
C158 C157 1.383 . S
H159 C164 0.929 . S
H160 C169 0.931 . S
H161 C167 0.930 . S
N162 N163 1.234 . S
N162 C166 1.453 . S
N163 N162 1.234 . S
C164 H159 0.929 . S
C164 C165 1.373 . S
C164 C166 1.368 . S
C165 C164 1.373 . S
C165 C169 1.397 . S
C166 N162 1.453 . S
C166 C164 1.368 . S
C166 C167 1.373 . S
C167 H161 0.930 . S
C167 C166 1.373 . S
C167 C168 1.371 . S
C168 C167 1.371 . S
C168 C169 1.383 . S
C169 H160 0.931 . S
C169 C165 1.397 . S
C169 C168 1.383 . S
H170 C175 0.929 . S
H171 C180 0.931 . S
H172 C178 0.930 . S
N173 N174 1.234 . S
N173 C177 1.453 . S
N174 N173 1.234 . S
C175 H170 0.929 . S
C175 C176 1.373 . S
C175 C177 1.368 . S
C176 C175 1.373 . S
C176 C180 1.397 . S
C177 N173 1.453 . S
C177 C175 1.368 . S
C177 C178 1.373 . S
C178 H172 0.930 . S
C178 C177 1.373 . S
C178 C179 1.371 . S
C179 C178 1.371 . S
C179 C180 1.383 . S
C180 H171 0.931 . S
C180 C176 1.397 . S
C180 C179 1.383 . S
H181 C186 0.929 . S
H182 C191 0.931 . S
H183 C189 0.930 . S
N184 N185 1.234 . S
N184 C188 1.453 . S
N185 N184 1.234 . S
C186 H181 0.929 . S
C186 C187 1.373 . S
C186 C188 1.368 . S
C187 C186 1.373 . S
C187 C191 1.397 . S
C188 N184 1.453 . S
C188 C186 1.368 . S
C188 C189 1.373 . S
C189 H183 0.930 . S
C189 C188 1.373 . S
C189 C190 1.371 . S
C190 C189 1.371 . S
C190 C191 1.383 . S
C191 H182 0.931 . S
C191 C187 1.397 . S
C191 C190 1.383 . S
H192 C198 0.930 . S
H193 C201 0.930 . S
H194 C202 0.930 . S
H195 C203 0.930 . S
H196 C206 0.930 . S
H197 C207 0.930 . S
C198 H192 0.930 . S
C198 C199 1.355 . S
C198 C200 1.415 . S
C199 C198 1.355 . S
C199 C201 1.419 1_554 S
C200 C198 1.415 . S
C200 C205 1.425 1_554 S
C200 C207 1.409 . S
C201 H193 0.930 . S
C201 C199 1.419 1_556 S
C201 C202 1.362 . S
C202 H194 0.930 . S
C202 C201 1.362 . S
C202 C205 1.409 . S
C203 H195 0.930 . S
C203 C204 1.355 1_556 S
C203 C205 1.415 . S
C204 C203 1.355 1_554 S
C204 C206 1.419 . S
C205 C200 1.425 1_556 S
C205 C202 1.409 . S
C205 C203 1.415 . S
C206 H196 0.930 . S
C206 C204 1.419 . S
C206 C207 1.362 . S
C207 H197 0.930 . S
C207 C200 1.409 . S
C207 C206 1.362 . S
H208 C214 0.930 . S
H209 C217 0.930 . S
H210 C218 0.930 . S
H211 C219 0.930 . S
H212 C222 0.930 . S
H213 C223 0.930 . S
C214 H208 0.930 . S
C214 C215 1.355 1_556 S
C214 C216 1.415 . S
C215 C214 1.355 1_554 S
C215 C217 1.419 . S
C216 C214 1.415 . S
C216 C221 1.425 1_556 S
C216 C223 1.409 . S
C217 H209 0.930 . S
C217 C215 1.419 . S
C217 C218 1.362 . S
C218 H210 0.930 . S
C218 C217 1.362 . S
C218 C221 1.409 . S
C219 H211 0.930 . S
C219 C220 1.355 . S
C219 C221 1.415 . S
C220 C219 1.355 . S
C220 C222 1.419 1_554 S
C221 C216 1.425 1_554 S
C221 C218 1.409 . S
C221 C219 1.415 . S
C222 H212 0.930 . S
C222 C220 1.419 1_556 S
C222 C223 1.362 . S
C223 H213 0.930 . S
C223 C216 1.409 . S
C223 C222 1.362 . S
H224 C230 0.930 . S
H225 C233 0.930 . S
H226 C234 0.930 . S
H227 C235 0.930 . S
H228 C238 0.930 . S
H229 C239 0.929 1_556 S
C230 H224 0.930 . S
C230 C231 1.355 . S
C230 C232 1.415 . S
C231 C230 1.355 . S
C231 C233 1.419 . S
C232 C230 1.415 . S
C232 C237 1.425 . S
C232 C239 1.410 . S
C233 H225 0.930 . S
C233 C231 1.419 . S
C233 C234 1.362 . S
C234 H226 0.930 . S
C234 C233 1.362 . S
C234 C237 1.409 . S
C235 H227 0.930 . S
C235 C236 1.355 . S
C235 C237 1.415 . S
C236 C235 1.355 . S
C236 C238 1.419 . S
C237 C232 1.425 . S
C237 C234 1.409 . S
C237 C235 1.415 . S
C238 H228 0.930 . S
C238 C236 1.419 . S
C238 C239 1.363 . S
C239 H229 0.929 1_554 S
C239 C232 1.410 . S
C239 C238 1.363 . S
H240 C246 0.930 . S
H241 C249 0.930 . S
H242 C250 0.930 . S
H243 C251 0.930 . S
H244 C254 0.930 . S
H245 C255 0.930 . S
C246 H240 0.930 . S
C246 C247 1.355 . S
C246 C248 1.415 . S
C247 C246 1.355 . S
C247 C249 1.419 1_554 S
C248 C246 1.415 . S
C248 C253 1.425 1_554 S
C248 C255 1.409 . S
C249 H241 0.930 . S
C249 C247 1.419 1_556 S
C249 C250 1.362 . S
C250 H242 0.930 . S
C250 C249 1.362 . S
C250 C253 1.409 . S
C251 H243 0.930 . S
C251 C252 1.355 1_556 S
C251 C253 1.415 . S
C252 C251 1.355 1_554 S
C252 C254 1.419 . S
C253 C248 1.425 1_556 S
C253 C250 1.409 . S
C253 C251 1.415 . S
C254 H244 0.930 . S
C254 C252 1.419 . S
C254 C255 1.362 . S
C255 H245 0.930 . S
C255 C248 1.409 . S
C255 C254 1.362 . S
H256 C262 0.930 . S
H257 C265 0.930 . S
H258 C266 0.930 . S
H259 C267 0.930 . S
H260 C270 0.930 . S
H261 C271 0.930 . S
C262 H256 0.930 . S
C262 C263 1.355 . S
C262 C264 1.415 . S
C263 C262 1.355 . S
C263 C265 1.419 . S
C264 C262 1.415 . S
C264 C269 1.425 . S
C264 C271 1.409 . S
C265 H257 0.930 . S
C265 C263 1.419 . S
C265 C266 1.362 . S
C266 H258 0.930 . S
C266 C265 1.362 . S
C266 C269 1.409 . S
C267 H259 0.930 . S
C267 C268 1.355 . S
C267 C269 1.415 . S
C268 C267 1.355 . S
C268 C270 1.419 . S
C269 C264 1.425 . S
C269 C266 1.409 . S
C269 C267 1.415 . S
C270 H260 0.930 . S
C270 C268 1.419 . S
C270 C271 1.362 . S
C271 H261 0.930 . S
C271 C264 1.409 . S
C271 C270 1.362 . S
H272 C278 0.930 . S
H273 C281 0.930 . S
H274 C282 0.930 . S
H275 C283 0.930 . S
H276 C286 0.930 . S
H277 C287 0.930 . S
C278 H272 0.930 . S
C278 C279 1.355 . S
C278 C280 1.415 . S
C279 C278 1.355 . S
C279 C281 1.419 . S
C280 C278 1.415 . S
C280 C285 1.425 . S
C280 C287 1.409 . S
C281 H273 0.930 . S
C281 C279 1.419 . S
C281 C282 1.362 . S
C282 H274 0.930 . S
C282 C281 1.362 . S
C282 C285 1.409 . S
C283 H275 0.930 . S
C283 C284 1.355 . S
C283 C285 1.415 . S
C284 C283 1.355 . S
C284 C286 1.419 . S
C285 C280 1.425 . S
C285 C282 1.409 . S
C285 C283 1.415 . S
C286 H276 0.930 . S
C286 C284 1.419 . S
C286 C287 1.362 . S
C287 H277 0.930 . S
C287 C280 1.409 . S
C287 C286 1.362 . S
H288 C294 0.930 . S
H289 C297 0.930 . S
H290 C298 0.930 . S
H291 C299 0.930 . S
H292 C302 0.930 . S
H293 C303 0.930 . S
C294 H288 0.930 . S
C294 C295 1.355 . S
C294 C296 1.415 . S
C295 C294 1.355 . S
C295 C297 1.419 . S
C296 C294 1.415 . S
C296 C301 1.425 . S
C296 C303 1.409 . S
C297 H289 0.930 . S
C297 C295 1.419 . S
C297 C298 1.362 . S
C298 H290 0.930 . S
C298 C297 1.362 . S
C298 C301 1.409 . S
C299 H291 0.930 . S
C299 C300 1.355 . S
C299 C301 1.415 . S
C300 C299 1.355 . S
C300 C302 1.419 . S
C301 C296 1.425 . S
C301 C298 1.409 . S
C301 C299 1.415 . S
C302 H292 0.930 . S
C302 C300 1.419 . S
C302 C303 1.362 . S
C303 H293 0.930 . S
C303 C296 1.409 . S
C303 C302 1.362 . S
H304 C310 0.930 . S
H305 C313 0.930 . S
H306 C314 0.930 . S
H307 C315 0.930 . S
H308 C318 0.930 . S
H309 C319 0.930 . S
C310 H304 0.930 . S
C310 C311 1.355 . S
C310 C312 1.415 . S
C311 C310 1.355 . S
C311 C313 1.419 . S
C312 C310 1.415 . S
C312 C317 1.425 . S
C312 C319 1.409 . S
C313 H305 0.930 . S
C313 C311 1.419 . S
C313 C314 1.362 . S
C314 H306 0.930 . S
C314 C313 1.362 . S
C314 C317 1.409 . S
C315 H307 0.930 . S
C315 C316 1.355 . S
C315 C317 1.415 . S
C316 C315 1.355 . S
C316 C318 1.419 . S
C317 C312 1.425 . S
C317 C314 1.409 . S
C317 C315 1.415 . S
C318 H308 0.930 . S
C318 C316 1.419 . S
C318 C319 1.362 . S
C319 H309 0.930 . S
C319 C312 1.409 . S
C319 C318 1.362 . S
H320 C326 0.930 . S
H321 C329 0.930 . S
H322 C330 0.930 . S
H323 C331 0.930 . S
H324 C334 0.930 . S
H325 C335 0.930 . S
C326 H320 0.930 . S
C326 C327 1.355 . S
C326 C328 1.415 . S
C327 C326 1.355 . S
C327 C329 1.419 . S
C328 C326 1.415 . S
C328 C333 1.425 . S
C328 C335 1.409 . S
C329 H321 0.930 . S
C329 C327 1.419 . S
C329 C330 1.362 . S
C330 H322 0.930 . S
C330 C329 1.362 . S
C330 C333 1.409 . S
C331 H323 0.930 . S
C331 C332 1.355 . S
C331 C333 1.415 . S
C332 C331 1.355 . S
C332 C334 1.419 . S
C333 C328 1.425 . S
C333 C330 1.409 . S
C333 C331 1.415 . S
C334 H324 0.930 . S
C334 C332 1.419 . S
C334 C335 1.362 . S
C335 H325 0.930 . S
C335 C328 1.409 . S
C335 C334 1.362 . S
H336 C342 0.930 . S
H337 C345 0.930 . S
H338 C346 0.930 . S
H339 C347 0.930 . S
H340 C350 0.930 . S
H341 C351 0.930 . S
C342 H336 0.930 . S
C342 C343 1.355 . S
C342 C344 1.415 . S
C343 C342 1.355 . S
C343 C345 1.419 . S
C344 C342 1.415 . S
C344 C349 1.425 . S
C344 C351 1.409 . S
C345 H337 0.930 . S
C345 C343 1.419 . S
C345 C346 1.362 . S
C346 H338 0.930 . S
C346 C345 1.362 . S
C346 C349 1.409 . S
C347 H339 0.930 . S
C347 C348 1.355 . S
C347 C349 1.415 . S
C348 C347 1.355 . S
C348 C350 1.419 . S
C349 C344 1.425 . S
C349 C346 1.409 . S
C349 C347 1.415 . S
C350 H340 0.930 . S
C350 C348 1.419 . S
C350 C351 1.362 . S
C351 H341 0.930 . S
C351 C344 1.409 . S
C351 C350 1.362 . S
H352 C358 0.930 1_455 S
H353 C361 0.930 . S
H354 C362 0.930 . S
H355 C363 0.930 . S
H356 C366 0.930 . S
H357 C367 0.930 1_455 S
C358 H352 0.930 1_655 S
C358 C359 1.355 . S
C358 C360 1.415 . S
C359 C358 1.355 . S
C359 C361 1.419 . S
C360 C358 1.415 . S
C360 C365 1.425 . S
C360 C367 1.409 . S
C361 H353 0.930 . S
C361 C359 1.419 . S
C361 C362 1.362 . S
C362 H354 0.930 . S
C362 C361 1.362 . S
C362 C365 1.409 . S
C363 H355 0.930 . S
C363 C364 1.355 . S
C363 C365 1.415 . S
C364 C363 1.355 . S
C364 C366 1.419 . S
C365 C360 1.425 . S
C365 C362 1.409 . S
C365 C363 1.415 . S
C366 H356 0.930 . S
C366 C364 1.419 . S
C366 C367 1.362 . S
C367 H357 0.930 1_655 S
C367 C360 1.409 . S
C367 C366 1.362 . S
H368 C374 0.930 1_545 S
H369 C377 0.930 . S
H370 C378 0.930 . S
H371 C379 0.930 . S
H372 C382 0.930 . S
H373 C383 0.930 1_545 S
C374 H368 0.930 1_565 S
C374 C375 1.355 . S
C374 C376 1.415 . S
C375 C374 1.355 . S
C375 C377 1.419 . S
C376 C374 1.415 . S
C376 C381 1.425 . S
C376 C383 1.409 . S
C377 H369 0.930 . S
C377 C375 1.419 . S
C377 C378 1.362 . S
C378 H370 0.930 . S
C378 C377 1.362 . S
C378 C381 1.409 . S
C379 H371 0.930 . S
C379 C380 1.355 . S
C379 C381 1.415 . S
C380 C379 1.355 . S
C380 C382 1.419 . S
C381 C376 1.425 . S
C381 C378 1.409 . S
C381 C379 1.415 . S
C382 H372 0.930 . S
C382 C380 1.419 . S
C382 C383 1.362 . S
C383 H373 0.930 1_565 S
C383 C376 1.409 . S
C383 C382 1.362 . S
H384 C390 0.930 . S
H385 C393 0.930 . S
H386 C394 0.930 . S
H387 C395 0.930 . S
H388 C398 0.930 . S
H389 C399 0.930 . S
C390 H384 0.930 . S
C390 C391 1.355 . S
C390 C392 1.415 . S
C391 C390 1.355 . S
C391 C393 1.419 . S
C392 C390 1.415 . S
C392 C397 1.425 . S
C392 C399 1.409 . S
C393 H385 0.930 . S
C393 C391 1.419 . S
C393 C394 1.362 . S
C394 H386 0.930 . S
C394 C393 1.362 . S
C394 C397 1.409 . S
C395 H387 0.930 . S
C395 C396 1.355 . S
C395 C397 1.415 . S
C396 C395 1.355 . S
C396 C398 1.419 . S
C397 C392 1.425 . S
C397 C394 1.409 . S
C397 C395 1.415 . S
C398 H388 0.930 . S
C398 C396 1.419 . S
C398 C399 1.362 . S
C399 H389 0.930 . S
C399 C392 1.409 . S
C399 C398 1.362 . S
H400 C406 0.930 . S
H401 C409 0.930 1_655 S
H402 C410 0.919 1_655 S
H403 C411 0.930 . S
H404 C414 0.930 . S
H405 C415 0.930 . S
C406 H400 0.930 . S
C406 C407 1.355 . S
C406 C408 1.415 . S
C407 C406 1.355 . S
C407 C409 1.419 . S
C408 C406 1.415 . S
C408 C413 1.425 . S
C408 C415 1.409 . S
C409 H401 0.930 1_455 S
C409 C407 1.419 . S
C409 C410 1.362 . S
C410 H402 0.919 1_455 S
C410 C409 1.362 . S
C410 C413 1.409 . S
C411 H403 0.930 . S
C411 C412 1.355 . S
C411 C413 1.415 . S
C412 C411 1.355 . S
C412 C414 1.419 . S
C413 C408 1.425 . S
C413 C410 1.409 . S
C413 C411 1.415 . S
C414 H404 0.930 . S
C414 C412 1.419 . S
C414 C415 1.362 . S
C415 H405 0.930 . S
C415 C408 1.409 . S
C415 C414 1.362 . S
H416 C422 0.930 . S
H417 C425 0.930 . S
H418 C426 0.930 . S
H419 C427 0.930 . S
H420 C430 0.930 . S
H421 C431 0.930 . S
C422 H416 0.930 . S
C422 C423 1.355 . S
C422 C424 1.415 . S
C423 C422 1.355 . S
C423 C425 1.419 . S
C424 C422 1.415 . S
C424 C429 1.425 . S
C424 C431 1.409 . S
C425 H417 0.930 . S
C425 C423 1.419 . S
C425 C426 1.362 . S
C426 H418 0.930 . S
C426 C425 1.362 . S
C426 C429 1.409 . S
C427 H419 0.930 . S
C427 C428 1.355 . S
C427 C429 1.415 . S
C428 C427 1.355 . S
C428 C430 1.419 . S
C429 C424 1.425 . S
C429 C426 1.409 . S
C429 C427 1.415 . S
C430 H420 0.930 . S
C430 C428 1.419 . S
C430 C431 1.362 . S
C431 H421 0.930 . S
C431 C424 1.409 . S
C431 C430 1.362 . S
H432 C438 0.930 . S
H433 C441 0.930 . S
H434 C442 0.930 . S
H435 C443 0.930 . S
H436 C446 0.930 . S
H437 C447 0.930 1_455 S
C438 H432 0.930 . S
C438 C439 1.355 . S
C438 C440 1.415 . S
C439 C438 1.355 . S
C439 C441 1.419 . S
C440 C438 1.415 . S
C440 C445 1.425 . S
C440 C447 1.409 . S
C441 H433 0.930 . S
C441 C439 1.419 . S
C441 C442 1.362 . S
C442 H434 0.930 . S
C442 C441 1.362 . S
C442 C445 1.409 . S
C443 H435 0.930 . S
C443 C444 1.355 . S
C443 C445 1.415 . S
C444 C443 1.355 . S
C444 C446 1.419 . S
C445 C440 1.425 . S
C445 C442 1.409 . S
C445 C443 1.415 . S
C446 H436 0.930 . S
C446 C444 1.419 . S
C446 C447 1.362 . S
C447 H437 0.930 1_655 S
C447 C440 1.409 . S
C447 C446 1.362 . S
H448 C454 0.930 . S
H449 C457 0.930 . S
H450 C458 0.930 . S
H451 C459 0.930 . S
H452 C462 0.930 . S
H453 C463 0.930 . S
C454 H448 0.930 . S
C454 C455 1.355 . S
C454 C456 1.415 . S
C455 C454 1.355 . S
C455 C457 1.419 . S
C456 C454 1.415 . S
C456 C461 1.425 . S
C456 C463 1.409 . S
C457 H449 0.930 . S
C457 C455 1.419 . S
C457 C458 1.362 . S
C458 H450 0.930 . S
C458 C457 1.362 . S
C458 C461 1.409 . S
C459 H451 0.930 . S
C459 C460 1.355 . S
C459 C461 1.415 . S
C460 C459 1.355 . S
C460 C462 1.419 . S
C461 C456 1.425 . S
C461 C458 1.409 . S
C461 C459 1.415 . S
C462 H452 0.930 . S
C462 C460 1.419 . S
C462 C463 1.362 . S
C463 H453 0.930 . S
C463 C456 1.409 . S
C463 C462 1.362 . S
H464 C470 0.930 . S
H465 C473 0.930 . S
H466 C474 0.930 . S
H467 C475 0.930 . S
H468 C478 0.930 . S
H469 C479 0.930 . S
C470 H464 0.930 . S
C470 C471 1.355 . S
C470 C472 1.415 . S
C471 C470 1.355 . S
C471 C473 1.419 . S
C472 C470 1.415 . S
C472 C477 1.425 . S
C472 C479 1.409 . S
C473 H465 0.930 . S
C473 C471 1.419 . S
C473 C474 1.362 . S
C474 H466 0.930 . S
C474 C473 1.362 . S
C474 C477 1.409 . S
C475 H467 0.930 . S
C475 C476 1.355 . S
C475 C477 1.415 . S
C476 C475 1.355 . S
C476 C478 1.419 . S
C477 C472 1.425 . S
C477 C474 1.409 . S
C477 C475 1.415 . S
C478 H468 0.930 . S
C478 C476 1.419 . S
C478 C479 1.362 . S
C479 H469 0.930 . S
C479 C472 1.409 . S
C479 C478 1.362 . S
H480 C486 0.930 . S
H481 C489 0.930 . S
H482 C490 0.930 . S
H483 C491 0.930 . S
H484 C494 0.930 . S
H485 C495 0.930 . S
C486 H480 0.930 . S
C486 C487 1.355 . S
C486 C488 1.415 . S
C487 C486 1.355 . S
C487 C489 1.419 . S
C488 C486 1.415 . S
C488 C493 1.425 . S
C488 C495 1.409 . S
C489 H481 0.930 . S
C489 C487 1.419 . S
C489 C490 1.362 . S
C490 H482 0.930 . S
C490 C489 1.362 . S
C490 C493 1.409 . S
C491 H483 0.930 . S
C491 C492 1.355 . S
C491 C493 1.415 . S
C492 C491 1.355 . S
C492 C494 1.419 . S
C493 C488 1.425 . S
C493 C490 1.409 . S
C493 C491 1.415 . S
C494 H484 0.930 . S
C494 C492 1.419 . S
C494 C495 1.362 . S
C495 H485 0.930 . S
C495 C488 1.409 . S
C495 C494 1.362 . S
H496 C502 0.930 . S
H497 C505 0.930 . S
H498 C506 0.930 . S
H499 C507 0.930 . S
H500 C510 0.930 . S
H501 C511 0.930 . S
C502 H496 0.930 . S
C502 C503 1.355 . S
C502 C504 1.415 . S
C503 C502 1.355 . S
C503 C505 1.419 . S
C504 C502 1.415 . S
C504 C509 1.425 . S
C504 C511 1.409 . S
C505 H497 0.930 . S
C505 C503 1.419 . S
C505 C506 1.362 . S
C506 H498 0.930 . S
C506 C505 1.362 . S
C506 C509 1.409 . S
C507 H499 0.930 . S
C507 C508 1.355 . S
C507 C509 1.415 . S
C508 C507 1.355 . S
C508 C510 1.419 . S
C509 C504 1.425 . S
C509 C506 1.409 . S
C509 C507 1.415 . S
C510 H500 0.930 . S
C510 C508 1.419 . S
C510 C511 1.362 . S
C511 H501 0.930 . S
C511 C504 1.409 . S
C511 C510 1.362 . S
H512 C518 0.930 . S
H513 C521 0.930 . S
H514 C522 0.930 . S
H515 C523 0.930 . S
H516 C526 0.930 . S
H517 C527 0.930 . S
C518 H512 0.930 . S
C518 C519 1.355 . S
C518 C520 1.415 . S
C519 C518 1.355 . S
C519 C521 1.419 . S
C520 C518 1.415 . S
C520 C525 1.425 . S
C520 C527 1.409 . S
C521 H513 0.930 . S
C521 C519 1.419 . S
C521 C522 1.362 . S
C522 H514 0.930 . S
C522 C521 1.362 . S
C522 C525 1.409 . S
C523 H515 0.930 . S
C523 C524 1.355 . S
C523 C525 1.415 . S
C524 C523 1.355 . S
C524 C526 1.419 . S
C525 C520 1.425 . S
C525 C522 1.409 . S
C525 C523 1.415 . S
C526 H516 0.930 . S
C526 C524 1.419 . S
C526 C527 1.362 . S
C527 H517 0.930 . S
C527 C520 1.409 . S
C527 C526 1.362 . S
H528 C534 0.930 . S
H529 C537 0.930 . S
H530 C538 0.930 . S
H531 C539 0.930 . S
H532 C542 0.930 . S
H533 C543 0.930 . S
C534 H528 0.930 . S
C534 C535 1.355 . S
C534 C536 1.415 . S
C535 C534 1.355 . S
C535 C537 1.419 . S
C536 C534 1.415 . S
C536 C541 1.425 . S
C536 C543 1.409 . S
C537 H529 0.930 . S
C537 C535 1.419 . S
C537 C538 1.362 . S
C538 H530 0.930 . S
C538 C537 1.362 . S
C538 C541 1.409 . S
C539 H531 0.930 . S
C539 C540 1.355 . S
C539 C541 1.415 . S
C540 C539 1.355 . S
C540 C542 1.419 . S
C541 C536 1.425 . S
C541 C538 1.409 . S
C541 C539 1.415 . S
C542 H532 0.930 . S
C542 C540 1.419 . S
C542 C543 1.362 . S
C543 H533 0.930 . S
C543 C536 1.409 . S
C543 C542 1.362 . S
H544 C550 0.930 . S
H545 C553 0.930 . S
H546 C554 0.930 . S
H547 C555 0.930 . S
H548 C558 0.930 . S
H549 C559 0.930 . S
C550 H544 0.930 . S
C550 C551 1.355 . S
C550 C552 1.415 . S
C551 C550 1.355 . S
C551 C553 1.419 . S
C552 C550 1.415 . S
C552 C557 1.425 . S
C552 C559 1.409 . S
C553 H545 0.930 . S
C553 C551 1.419 . S
C553 C554 1.362 . S
C554 H546 0.930 . S
C554 C553 1.362 . S
C554 C557 1.409 . S
C555 H547 0.930 . S
C555 C556 1.355 . S
C555 C557 1.415 . S
C556 C555 1.355 . S
C556 C558 1.419 . S
C557 C552 1.425 . S
C557 C554 1.409 . S
C557 C555 1.415 . S
C558 H548 0.930 . S
C558 C556 1.419 . S
C558 C559 1.362 . S
C559 H549 0.930 . S
C559 C552 1.409 . S
C559 C558 1.362 . S
H560 C566 0.930 . S
H561 C569 0.930 . S
H562 C570 0.930 . S
H563 C571 0.930 . S
H564 C574 0.930 . S
H565 C575 0.930 . S
C566 H560 0.930 . S
C566 C567 1.355 . S
C566 C568 1.415 . S
C567 C566 1.355 . S
C567 C569 1.419 . S
C568 C566 1.415 . S
C568 C573 1.425 . S
C568 C575 1.409 . S
C569 H561 0.930 . S
C569 C567 1.419 . S
C569 C570 1.362 . S
C570 H562 0.930 . S
C570 C569 1.362 . S
C570 C573 1.409 . S
C571 H563 0.930 . S
C571 C572 1.355 . S
C571 C573 1.415 . S
C572 C571 1.355 . S
C572 C574 1.419 . S
C573 C568 1.425 . S
C573 C570 1.409 . S
C573 C571 1.415 . S
C574 H564 0.930 . S
C574 C572 1.419 . S
C574 C575 1.362 . S
C575 H565 0.930 . S
C575 C568 1.409 . S
C575 C574 1.362 . S
C199 C45 1.557 . S
C204 N108 1.556 . S
C215 C30 1.532 . S
C220 N119 1.533 1_554 S
C231 C39 1.571 . S
C236 N130 1.564 . S
C252 N141 1.542 1_554 S
C247 C34 1.534 . S
C263 C97 1.573 . S
C268 N152 1.575 . S
C284 N163 1.543 . S
C279 C82 1.532 . S
C300 N174 1.539 . S
C295 C91 1.532 . S
C316 N185 1.578 . S
C311 C86 1.573 . S
C332 C179 1.572 . S
C327 C26 1.554 . S
C348 C187 1.459 . S
C343 C36 1.407 . S
C364 C154 1.553 . S
C359 C32 1.512 . S
C380 C165 1.500 . S
C375 C42 1.468 . S
C391 C18 1.552 . S
C396 C168 1.605 . S
C412 C176 1.565 . S
C407 C50 1.468 . S
C423 C4 1.612 . S
C428 C190 1.652 . S
C439 C48 1.562 . S
C444 C157 1.589 . S
C460 C135 1.506 . S
C455 C78 1.486 . S
C471 C88 1.497 . S
C476 C146 1.545 . S
C492 C110 1.467 . S
C487 C84 1.418 . S
C508 C124 1.544 . S
C503 C94 1.499 . S
C524 C121 1.582 . S
C519 C70 1.522 . S
C540 C132 1.647 . S
C535 C102 1.599 . S
C551 C56 1.540 . S
C556 C143 1.581 . S
C567 C100 1.547 . S
C572 C113 1.606 . S
