# Generated by pormake.
# Topology zzz, (3,6)-cn, num edge types: 1
# Building blocks:
#     Node 0, Type 0, BuildingBlock: BETDIP_clean_linker_0, # of connection points: 3
#     Node 1, Type 0, BuildingBlock: BETDIP_clean_linker_0, # of connection points: 3
#     Node 2, Type 0, BuildingBlock: BETDIP_clean_linker_0, # of connection points: 3
#     Node 3, Type 0, BuildingBlock: BETDIP_clean_linker_0, # of connection points: 3
#     Node 4, Type 0, BuildingBlock: BETDIP_clean_linker_0, # of connection points: 3
#     Node 5, Type 0, BuildingBlock: BETDIP_clean_linker_0, # of connection points: 3
#     Node 6, Type 0, BuildingBlock: BETDIP_clean_linker_0, # of connection points: 3
#     Node 7, Type 0, BuildingBlock: BETDIP_clean_linker_0, # of connection points: 3
#     Node 8, Type 1, BuildingBlock: MIFKUJ_clean_sbu_0, # of connection points: 6
#     Node 9, Type 1, BuildingBlock: MIFKUJ_clean_sbu_0, # of connection points: 6
#     Node 10, Type 1, BuildingBlock: MIFKUJ_clean_sbu_0, # of connection points: 6
#     Node 11, Type 1, BuildingBlock: MIFKUJ_clean_sbu_0, # of connection points: 6
#     Edge 12, Type (0, 1), BuildingBlock: MIFKUJ_clean_linker_0, # of connection points: 2
#     Edge 13, Type (0, 1), BuildingBlock: MIFKUJ_clean_linker_0, # of connection points: 2
#     Edge 14, Type (0, 1), BuildingBlock: MIFKUJ_clean_linker_0, # of connection points: 2
#     Edge 15, Type (0, 1), BuildingBlock: MIFKUJ_clean_linker_0, # of connection points: 2
#     Edge 16, Type (0, 1), BuildingBlock: MIFKUJ_clean_linker_0, # of connection points: 2
#     Edge 17, Type (0, 1), BuildingBlock: MIFKUJ_clean_linker_0, # of connection points: 2
#     Edge 18, Type (0, 1), BuildingBlock: MIFKUJ_clean_linker_0, # of connection points: 2
#     Edge 19, Type (0, 1), BuildingBlock: MIFKUJ_clean_linker_0, # of connection points: 2
#     Edge 20, Type (0, 1), BuildingBlock: MIFKUJ_clean_linker_0, # of connection points: 2
#     Edge 21, Type (0, 1), BuildingBlock: MIFKUJ_clean_linker_0, # of connection points: 2
#     Edge 22, Type (0, 1), BuildingBlock: MIFKUJ_clean_linker_0, # of connection points: 2
#     Edge 23, Type (0, 1), BuildingBlock: MIFKUJ_clean_linker_0, # of connection points: 2
#     Edge 24, Type (0, 1), BuildingBlock: MIFKUJ_clean_linker_0, # of connection points: 2
#     Edge 25, Type (0, 1), BuildingBlock: MIFKUJ_clean_linker_0, # of connection points: 2
#     Edge 26, Type (0, 1), BuildingBlock: MIFKUJ_clean_linker_0, # of connection points: 2
#     Edge 27, Type (0, 1), BuildingBlock: MIFKUJ_clean_linker_0, # of connection points: 2
#     Edge 28, Type (0, 1), BuildingBlock: MIFKUJ_clean_linker_0, # of connection points: 2
#     Edge 29, Type (0, 1), BuildingBlock: MIFKUJ_clean_linker_0, # of connection points: 2
#     Edge 30, Type (0, 1), BuildingBlock: MIFKUJ_clean_linker_0, # of connection points: 2
#     Edge 31, Type (0, 1), BuildingBlock: MIFKUJ_clean_linker_0, # of connection points: 2
#     Edge 32, Type (0, 1), BuildingBlock: MIFKUJ_clean_linker_0, # of connection points: 2
#     Edge 33, Type (0, 1), BuildingBlock: MIFKUJ_clean_linker_0, # of connection points: 2
#     Edge 34, Type (0, 1), BuildingBlock: MIFKUJ_clean_linker_0, # of connection points: 2
#     Edge 35, Type (0, 1), BuildingBlock: MIFKUJ_clean_linker_0, # of connection points: 2
# Relax obj value: 0.113
# Max RMSD: 0.115
# Mean RMSD: 0.085
data_MOF--net-zzz--node1-MIFKUJ_clean_sbu_0--node2-BETDIP_clean_linker_0--edge1-MIFKUJ_clean_linker_0
_symmetry_space_group_name_H-M    P1
_symmetry_Int_Tables_number       1
_symmetry_cell_setting            triclinic
loop_
_symmetry_equiv_pos_as_xyz
'x, y, z'
_cell_length_a     66.399208
_cell_length_b     65.84131
_cell_length_c     20.348344
_cell_angle_alpha  89.885098
_cell_angle_beta   89.97753
_cell_angle_gamma 90.000497
loop_
_atom_site_label
_atom_site_type_symbol
_atom_site_fract_x
_atom_site_fract_y
_atom_site_fract_z
_atom_type_partial_charge
H0 H 0.73836 0.50351 0.20233 0.0
H1 H 0.75486 0.50669 0.99687 0.0
H2 H 0.80052 0.50031 0.14398 0.0
H3 H 0.72807 0.53058 0.00367 0.0
C4 C 0.71739 0.51983 0.02457 0.0
C5 C 0.7497 0.50343 0.16405 0.0
C6 C 0.77021 0.50153 0.18057 0.0
C7 C 0.74399 0.5057 0.09755 0.0
C8 C 0.75896 0.50547 0.04824 0.0
C9 C 0.77932 0.50387 0.06503 0.0
C10 C 0.78473 0.5018 0.13093 0.0
N11 N 0.72332 0.50817 0.08039 0.0
H12 H 0.97613 0.74023 0.22229 0.0
H13 H 0.97081 0.74107 0.01087 0.0
H14 H 0.97692 0.79695 0.1172 0.0
H15 H 0.94321 0.71349 0.06417 0.0
C16 C 0.95756 0.70626 0.07506 0.0
C17 C 0.97517 0.74859 0.17649 0.0
C18 C 0.9765 0.7699 0.17647 0.0
C19 C 0.97256 0.73814 0.11672 0.0
C20 C 0.97198 0.74908 0.05721 0.0
C21 C 0.97347 0.77028 0.05737 0.0
C22 C 0.97542 0.78052 0.11706 0.0
N23 N 0.97153 0.71661 0.11595 0.0
H24 H 0.76151 0.99765 0.20253 0.0
H25 H 0.7543 0.99173 0.99261 0.0
H26 H 0.70237 0.99272 0.1185 0.0
H27 H 0.7847 0.96614 0.03775 0.0
C28 C 0.79169 0.98083 0.04637 0.0
C29 C 0.75189 0.99594 0.15992 0.0
C30 C 0.73084 0.99489 0.16765 0.0
C31 C 0.76046 0.99429 0.09663 0.0
C32 C 0.74782 0.9924 0.04144 0.0
C33 C 0.72686 0.99178 0.04908 0.0
C34 C 0.71861 0.99284 0.11225 0.0
N35 N 0.78171 0.99498 0.08797 0.0
H36 H 0.52953 0.76744 0.22112 0.0
H37 H 0.53709 0.76287 0.0107 0.0
H38 H 0.53752 0.70913 0.12971 0.0
H39 H 0.56058 0.792 0.05173 0.0
C40 C 0.54671 0.79964 0.06587 0.0
C41 C 0.53184 0.75835 0.17745 0.0
C42 C 0.53362 0.73707 0.1826 0.0
C43 C 0.53383 0.76785 0.11543 0.0
C44 C 0.53633 0.75582 0.05882 0.0
C45 C 0.53777 0.73471 0.06414 0.0
C46 C 0.53667 0.72556 0.12589 0.0
N47 N 0.53332 0.7894 0.10951 0.0
H48 H 0.26803 0.49315 0.98202 0.0
H49 H 0.25563 0.49195 0.1903 0.0
H50 H 0.20863 0.4791 0.05239 0.0
H51 H 0.27757 0.52077 0.17633 0.0
C52 C 0.28946 0.51142 0.15547 0.0
C53 C 0.25781 0.49027 0.02249 0.0
C54 C 0.23761 0.48499 0.00988 0.0
C55 C 0.26449 0.49272 0.08783 0.0
C56 C 0.25077 0.48992 0.13993 0.0
C57 C 0.23064 0.48498 0.12751 0.0
C58 C 0.2244 0.48204 0.0626 0.0
N59 N 0.28473 0.49865 0.10114 0.0
H60 H 0.0229 0.26843 0.9712 0.0
H61 H 0.0027 0.27142 0.17264 0.0
H62 H 0.00643 0.21389 0.07487 0.0
H63 H 0.98407 0.30089 0.098 0.0
C64 C 0.99943 0.3066 0.09707 0.0
C65 C 0.01762 0.26095 0.01545 0.0
C66 C 0.0153 0.23971 0.01679 0.0
C67 C 0.01272 0.27252 0.0714 0.0
C68 C 0.00597 0.26268 0.12884 0.0
C69 C 0.00361 0.24158 0.12994 0.0
C70 C 0.00819 0.23027 0.07388 0.0
N71 N 0.01476 0.29399 0.07046 0.0
H72 H 0.24407 0.00507 0.99983 0.0
H73 H 0.25025 0.98467 0.20091 0.0
H74 H 0.30268 0.99966 0.08866 0.0
H75 H 0.22224 0.965 0.16025 0.0
C76 C 0.21378 0.97864 0.14796 0.0
C77 C 0.2534 0.00171 0.04215 0.0
C78 C 0.27453 0.0035 0.0376 0.0
C79 C 0.24441 0.995 0.1013 0.0
C80 C 0.25679 0.98994 0.15517 0.0
C81 C 0.27768 0.99186 0.15062 0.0
C82 C 0.28638 0.9989 0.09246 0.0
N83 N 0.22305 0.99347 0.10674 0.0
H84 H 0.49302 0.2418 0.95911 0.0
H85 H 0.49438 0.24033 0.17115 0.0
H86 H 0.47897 0.2954 0.07104 0.0
H87 H 0.52522 0.22015 0.12835 0.0
C88 C 0.51389 0.20978 0.1093 0.0
C89 C 0.49059 0.24921 0.00595 0.0
C90 C 0.48509 0.26991 0.00799 0.0
C91 C 0.49376 0.23834 0.06492 0.0
C92 C 0.49155 0.24835 0.12551 0.0
C93 C 0.48586 0.26876 0.12758 0.0
C94 C 0.48233 0.27928 0.06903 0.0
N95 N 0.49954 0.21752 0.06368 0.0
Zn96 Zn 0.99567 0.02781 0.56444 0.0
Zn97 Zn 0.00527 0.97859 0.60703 0.0
C98 C 0.99145 0.05728 0.65892 0.0
O99 O 0.9735 0.05527 0.63255 0.0
C100 C 0.00589 0.95683 0.48946 0.0
O101 O 0.02506 0.9575 0.50522 0.0
O102 O 0.98861 0.05057 0.50225 0.0
O103 O 0.01868 0.01378 0.51583 0.0
O104 O 0.03159 0.9928 0.58885 0.0
C105 C 0.00393 0.06185 0.4929 0.0
O106 O 0.02128 0.05629 0.51828 0.0
O107 O 0.00517 0.04477 0.64213 0.0
C108 C 0.99804 0.93929 0.6522 0.0
O109 O 0.98073 0.94413 0.62516 0.0
O110 O 0.01197 0.95254 0.65433 0.0
O111 O 0.98388 0.99161 0.6631 0.0
O112 O 0.96998 0.01326 0.59333 0.0
O113 O 0.99354 0.96753 0.52239 0.0
C114 C 0.03341 0.00328 0.53677 0.0
C115 C 0.96886 0.0021 0.64441 0.0
Zn116 Zn 0.48193 0.99167 0.55667 0.0
Zn117 Zn 0.52059 0.01459 0.62644 0.0
C118 C 0.44951 0.98622 0.64458 0.0
O119 O 0.45356 0.96757 0.62583 0.0
C120 C 0.55181 0.01753 0.53514 0.0
O121 O 0.54732 0.03652 0.54845 0.0
O122 O 0.46489 0.97507 0.49564 0.0
O123 O 0.49183 0.01597 0.50356 0.0
O124 O 0.50365 0.03587 0.58178 0.0
C125 C 0.46196 0.97822 0.43485 0.0
O126 O 0.47234 0.99241 0.40458 0.0
O127 O 0.46097 1.00052 0.62468 0.0
C128 C 0.54151 0.02408 0.74792 0.0
O129 O 0.52752 0.01295 0.77597 0.0
O130 O 0.53975 0.02869 0.68758 0.0
O131 O 0.50756 0.99226 0.68063 0.0
O132 O 0.50138 0.97173 0.59849 0.0
O133 O 0.54088 0.00356 0.56006 0.0
C134 C 0.49707 0.03348 0.52365 0.0
C135 C 0.50572 0.97434 0.65862 0.0
Zn136 Zn 0.51125 0.48321 0.54856 0.0
Zn137 Zn 0.50015 0.52366 0.62165 0.0
C138 C 0.51546 0.45143 0.63763 0.0
O139 O 0.53301 0.45268 0.60802 0.0
C140 C 0.49733 0.55394 0.52734 0.0
O141 O 0.47951 0.55324 0.55536 0.0
O142 O 0.51669 0.46191 0.48019 0.0
O143 O 0.48861 0.49969 0.50802 0.0
O144 O 0.47331 0.51159 0.59567 0.0
C145 C 0.50058 0.45223 0.46732 0.0
O146 O 0.48363 0.45834 0.49413 0.0
O147 O 0.50217 0.46482 0.62427 0.0
C148 C 0.51408 0.55541 0.69148 0.0
O149 O 0.52964 0.54791 0.65983 0.0
O150 O 0.49721 0.54628 0.68748 0.0
O151 O 0.52079 0.50529 0.66523 0.0
O152 O 0.53721 0.49717 0.57569 0.0
O153 O 0.51027 0.54043 0.54314 0.0
C154 C 0.47259 0.50558 0.53637 0.0
C155 C 0.53724 0.50096 0.63685 0.0
Zn156 Zn 0.02871 0.51706 0.55402 0.0
Zn157 Zn 0.98225 0.49427 0.6178 0.0
C158 C 0.06245 0.51732 0.63444 0.0
O159 O 0.05864 0.53658 0.62278 0.0
C160 C 0.94903 0.48329 0.53539 0.0
O161 O 0.95393 0.46523 0.55785 0.0
O162 O 0.04576 0.53082 0.48546 0.0
O163 O 0.01191 0.49631 0.50436 0.0
O164 O 0.00366 0.47516 0.58319 0.0
C165 C 0.04443 0.5266 0.42472 0.0
O166 O 0.02895 0.51607 0.40363 0.0
O167 O 0.05037 0.50406 0.61144 0.0
C168 C 0.96728 0.48621 0.74858 0.0
O169 O 0.98055 0.49992 0.76656 0.0
O170 O 0.96718 0.48011 0.68947 0.0
O171 O 0.98919 0.522 0.65341 0.0
O172 O 0.01498 0.53836 0.60883 0.0
O173 O 0.96013 0.49838 0.55009 0.0
C174 C 0.01022 0.47827 0.52552 0.0
C175 C 1.00027 0.53766 0.64869 0.0
H176 H 0.18642 0.01005 0.13234 0.0
H177 H 0.15506 0.01521 0.19421 0.0
H178 H 0.16673 0.96049 0.30499 0.0
H179 H 0.1975 0.95499 0.24193 0.0
H180 H 0.12924 0.96119 0.27611 0.0
H181 H 0.17504 0.0103 0.36673 0.0
H182 H 0.19865 0.03921 0.36403 0.0
H183 H 0.15212 0.07766 0.28642 0.0
H184 H 0.12829 0.0489 0.28788 0.0
H185 H 0.06486 0.97652 0.55057 0.0
H186 H 0.09465 0.97325 0.48049 0.0
H187 H 0.07417 0.02349 0.36189 0.0
H188 H 0.04431 0.02685 0.43151 0.0
H189 H 0.11482 0.02605 0.39041 0.0
H190 H 0.0696 0.97614 0.29784 0.0
H191 H 0.04651 0.94681 0.29965 0.0
H192 H 0.09266 0.90987 0.38692 0.0
H193 H 0.11614 0.93896 0.38458 0.0
C194 C 0.18219 0.99911 0.16967 0.0
C195 C 0.19439 0.98211 0.18242 0.0
C196 C 0.16433 0.00213 0.20539 0.0
C197 C 0.15857 0.98839 0.25516 0.0
C198 C 0.17072 0.97132 0.26699 0.0
C199 C 0.18836 0.9682 0.23097 0.0
C200 C 0.13994 0.99153 0.29515 0.0
C201 C 0.12629 0.97533 0.3016 0.0
C202 C 0.13567 0.01009 0.32758 0.0
C203 C 0.14996 0.02739 0.32671 0.0
C204 C 0.16989 0.02488 0.34861 0.0
C205 C 0.18331 0.04125 0.34739 0.0
C206 C 0.17691 0.06024 0.32488 0.0
C207 C 0.15706 0.06293 0.30372 0.0
C208 C 0.1436 0.04661 0.30477 0.0
C209 C 0.06672 0.98696 0.50982 0.0
C210 C 0.05212 0.00192 0.49669 0.0
C211 C 0.08371 0.98498 0.4695 0.0
C212 C 0.08656 0.99798 0.41542 0.0
C213 C 0.07228 0.01325 0.40316 0.0
C214 C 0.05519 0.01512 0.44304 0.0
C215 C 0.10442 0.99564 0.37175 0.0
C216 C 0.11786 0.01197 0.36464 0.0
C217 C 0.10863 0.97716 0.33919 0.0
C218 C 0.09453 0.95974 0.34154 0.0
C219 C 0.07477 0.96179 0.31773 0.0
C220 C 0.06165 0.94519 0.3186 0.0
C221 C 0.06808 0.9265 0.34373 0.0
C222 C 0.0877 0.92435 0.36754 0.0
C223 C 0.10095 0.94086 0.36612 0.0
H224 H 0.05787 0.91368 0.34463 0.0
H225 H 0.18731 0.0729 0.32398 0.0
H226 H 0.48654 0.17902 0.08365 0.0
H227 H 0.48266 0.147 0.1446 0.0
H228 H 0.53211 0.16389 0.27082 0.0
H229 H 0.53636 0.19539 0.20902 0.0
H230 H 0.53522 0.12573 0.2446 0.0
H231 H 0.48089 0.16911 0.31555 0.0
H232 H 0.45075 0.19054 0.30111 0.0
H233 H 0.41867 0.13998 0.21899 0.0
H234 H 0.44873 0.1183 0.23217 0.0
H235 H 0.51707 0.0696 0.53573 0.0
H236 H 0.51869 0.09746 0.45623 0.0
H237 H 0.47842 0.06509 0.32751 0.0
H238 H 0.47695 0.0369 0.40642 0.0
H239 H 0.46939 0.10812 0.3451 0.0
H240 H 0.52406 0.06404 0.28734 0.0
H241 H 0.55438 0.0434 0.30845 0.0
H242 H 0.58616 0.09655 0.37274 0.0
H243 H 0.5559 0.11747 0.35324 0.0
C244 C 0.49667 0.17576 0.12402 0.0
C245 C 0.51174 0.1897 0.14177 0.0
C246 C 0.49437 0.15752 0.15913 0.0
C247 C 0.50692 0.15307 0.21311 0.0
C248 C 0.52224 0.16686 0.2295 0.0
C249 C 0.52463 0.1849 0.19421 0.0
C250 C 0.50404 0.13441 0.25386 0.0
C251 C 0.52083 0.12201 0.26682 0.0
C252 C 0.4852 0.12916 0.28202 0.0
C253 C 0.46712 0.14216 0.27409 0.0
C254 C 0.46746 0.16261 0.29393 0.0
C255 C 0.45038 0.17479 0.28606 0.0
C256 C 0.43282 0.16665 0.25895 0.0
C257 C 0.43229 0.14628 0.23983 0.0
C258 C 0.44934 0.13403 0.24751 0.0
C259 C 0.50843 0.06842 0.49076 0.0
C260 C 0.49693 0.05096 0.47738 0.0
C261 C 0.50943 0.08434 0.44527 0.0
C262 C 0.49878 0.08327 0.3858 0.0
C263 C 0.48678 0.06619 0.37307 0.0
C264 C 0.48601 0.05008 0.41814 0.0
C265 C 0.50063 0.09987 0.33659 0.0
C266 C 0.48369 0.1118 0.32214 0.0
C267 C 0.51938 0.10484 0.30771 0.0
C268 C 0.53764 0.09231 0.31929 0.0
C269 C 0.53745 0.07131 0.30656 0.0
C270 C 0.55463 0.05956 0.31814 0.0
C271 C 0.57217 0.06867 0.3419 0.0
C272 C 0.57255 0.08953 0.3543 0.0
C273 C 0.55539 0.10134 0.34296 0.0
H274 H 0.58549 0.05957 0.35052 0.0
H275 H 0.41962 0.1761 0.25291 0.0
H276 H 0.29809 0.52912 0.27095 0.0
H277 H 0.32933 0.52774 0.33364 0.0
H278 H 0.3565 0.4911 0.18194 0.0
H279 H 0.32473 0.49186 0.11985 0.0
H280 H 0.36677 0.47663 0.2971 0.0
H281 H 0.36805 0.54274 0.20209 0.0
H282 H 0.35531 0.57669 0.17224 0.0
H283 H 0.34987 0.59204 0.37646 0.0
H284 H 0.36233 0.55806 0.40759 0.0
H285 H 0.46647 0.49138 0.41228 0.0
H286 H 0.4357 0.49231 0.34746 0.0
H287 H 0.40466 0.52183 0.50707 0.0
H288 H 0.43568 0.52113 0.57279 0.0
H289 H 0.39718 0.53977 0.38562 0.0
H290 H 0.39686 0.47207 0.47729 0.0
H291 H 0.41242 0.43887 0.50142 0.0
H292 H 0.4187 0.42724 0.29488 0.0
H293 H 0.40342 0.46051 0.26949 0.0
C294 C 0.31076 0.52084 0.25078 0.0
C295 C 0.30903 0.51071 0.19039 0.0
C296 C 0.32867 0.52014 0.28655 0.0
C297 C 0.3455 0.50965 0.26213 0.0
C298 C 0.34378 0.49937 0.20177 0.0
C299 C 0.32567 0.49987 0.16616 0.0
C300 C 0.36464 0.50929 0.30049 0.0
C301 C 0.37354 0.49048 0.31558 0.0
C302 C 0.37345 0.5273 0.32564 0.0
C303 C 0.36595 0.54777 0.30716 0.0
C304 C 0.36399 0.55329 0.24065 0.0
C305 C 0.35684 0.57256 0.2235 0.0
C306 C 0.35174 0.5865 0.27242 0.0
C307 C 0.35381 0.58122 0.33862 0.0
C308 C 0.36094 0.56197 0.35604 0.0
C309 C 0.45313 0.49807 0.43398 0.0
C310 C 0.45357 0.50613 0.49805 0.0
C311 C 0.4355 0.49851 0.39674 0.0
C312 C 0.4178 0.50691 0.42261 0.0
C313 C 0.41815 0.51519 0.48624 0.0
C314 C 0.43585 0.51472 0.52382 0.0
C315 C 0.39906 0.50717 0.38264 0.0
C316 C 0.39031 0.52596 0.36715 0.0
C317 C 0.39061 0.48918 0.35632 0.0
C318 C 0.39912 0.46886 0.3715 0.0
C319 C 0.40163 0.46247 0.43701 0.0
C320 C 0.4104 0.44364 0.45091 0.0
C321 C 0.4166 0.43098 0.39972 0.0
C322 C 0.41391 0.43707 0.33449 0.0
C323 C 0.40516 0.4559 0.32031 0.0
H324 H 0.42346 0.41644 0.41058 0.0
H325 H 0.34621 0.60141 0.25904 0.0
H326 H 0.03642 0.32386 0.1254 0.0
H327 H 0.04261 0.35359 0.19559 0.0
H328 H 0.97856 0.36195 0.21829 0.0
H329 H 0.97235 0.3323 0.14927 0.0
H330 H 0.03156 0.39451 0.19358 0.0
H331 H 0.96841 0.37115 0.37615 0.0
H332 H 0.95216 0.33976 0.41608 0.0
H333 H 0.00552 0.30573 0.37055 0.0
H334 H 0.02218 0.33695 0.3313 0.0
H335 H 0.00425 0.47812 0.39293 0.0
H336 H 0.00666 0.44931 0.31811 0.0
H337 H 0.02527 0.41089 0.47933 0.0
H338 H 0.02152 0.43949 0.555 0.0
H339 H 1.00057 0.39125 0.41526 0.0
H340 H 0.05799 0.42964 0.34676 0.0
H341 H 0.07697 0.45962 0.30826 0.0
H342 H 0.04118 0.46169 0.13271 0.0
H343 H 0.02175 0.43198 0.17058 0.0
C344 C 0.0237 0.33223 0.14471 0.0
C345 C 0.00388 0.32573 0.13237 0.0
C346 C 0.02725 0.34921 0.18466 0.0
C347 C 0.01105 0.3598 0.21294 0.0
C348 C 0.99129 0.35384 0.19782 0.0
C349 C 0.98776 0.33694 0.15825 0.0
C350 C 0.01446 0.3763 0.2614 0.0
C351 C 0.02492 0.39386 0.24224 0.0
C352 C 0.00626 0.37516 0.32547 0.0
C353 C 0.99647 0.35638 0.35031 0.0
C354 C 0.97671 0.35699 0.37503 0.0
C355 C 0.96742 0.33923 0.39747 0.0
C356 C 0.97778 0.32076 0.3957 0.0
C357 C 0.99749 0.32003 0.37171 0.0
C358 C 0.00685 0.33776 0.34931 0.0
C359 C 0.00897 0.46354 0.41228 0.0
C360 C 0.01267 0.46101 0.47981 0.0
C361 C 0.01054 0.44707 0.36929 0.0
C362 C 0.01655 0.42786 0.39244 0.0
C363 C 0.02059 0.42548 0.45993 0.0
C364 C 0.01847 0.44182 0.50324 0.0
C365 C 0.0173 0.41 0.34739 0.0
C366 C 0.00753 0.39205 0.3671 0.0
C367 C 0.02663 0.41069 0.28454 0.0
C368 C 0.03833 0.42861 0.26174 0.0
C369 C 0.05407 0.43657 0.30015 0.0
C370 C 0.06492 0.45351 0.27841 0.0
C371 C 0.06028 0.46254 0.21806 0.0
C372 C 0.04476 0.45467 0.17942 0.0
C373 C 0.03384 0.43777 0.20097 0.0
H374 H 0.06871 0.47559 0.20105 0.0
H375 H 0.97055 0.30702 0.413 0.0
H376 H 0.80828 0.01815 0.01687 0.0
H377 H 0.83879 0.02465 0.95119 0.0
H378 H 0.84903 0.96019 0.93538 0.0
H379 H 0.81834 0.95365 0.99889 0.0
H380 H 0.8846 0.98633 0.97019 0.0
H381 H 0.82943 0.97926 0.81325 0.0
H382 H 0.79632 0.98876 0.76779 0.0
H383 H 0.81703 0.04985 0.7375 0.0
H384 H 0.8502 0.04076 0.78378 0.0
H385 H 0.95578 0.97121 0.72251 0.0
H386 H 0.926 0.97026 0.79242 0.0
H387 H 0.91014 0.03083 0.72946 0.0
H388 H 0.93946 0.03131 0.65609 0.0
H389 H 0.87762 0.01098 0.74071 0.0
H390 H 0.93287 0.01947 0.88604 0.0
H391 H 0.96607 0.01257 0.93546 0.0
H392 H 0.94612 0.95325 0.99468 0.0
H393 H 0.91287 0.95969 0.94483 0.0
C394 C 0.81721 0.00542 4e-05 0.0
C395 C 0.81105 0.98538 0.01315 0.0
C396 C 0.83455 0.00913 0.96235 0.0
C397 C 0.84615 0.99288 0.93842 0.0
C398 C 0.84034 0.97293 0.95351 0.0
C399 C 0.82282 0.96922 0.98973 0.0
C400 C 0.86396 0.99642 0.89566 0.0
C401 C 0.88313 0.99162 0.91988 0.0
C402 C 0.86207 0.004 0.83087 0.0
C403 C 0.84219 0.0094 0.80272 0.0
C404 C 0.82686 0.99476 0.79751 0.0
C405 C 0.80809 1.00006 0.77147 0.0
C406 C 0.80455 0.01991 0.74998 0.0
C407 C 0.81979 0.03449 0.7543 0.0
C408 C 0.83857 0.02927 0.7804 0.0
C409 C 0.94592 0.98432 0.72333 0.0
C410 C 0.95011 0.00143 0.68418 0.0
C411 C 0.92893 0.98384 0.76389 0.0
C412 C 0.91602 1.00072 0.76818 0.0
C413 C 0.91988 0.01765 0.7277 0.0
C414 C 0.93668 0.01794 0.68576 0.0
C415 C 0.89851 1.00051 0.81457 0.0
C416 C 0.87932 0.00594 0.79118 0.0
C417 C 0.90046 0.99393 0.8808 0.0
C418 C 0.92041 0.99002 0.91124 0.0
C419 C 0.93559 0.00491 0.90925 0.0
C420 C 0.95442 1.00108 0.93738 0.0
C421 C 0.95822 0.98247 0.96808 0.0
C422 C 0.94317 0.96766 0.97085 0.0
C423 C 0.92431 0.9714 0.94275 0.0
H424 H 0.97281 0.97954 0.98981 0.0
H425 H 0.79001 0.02398 0.72981 0.0
H426 H 0.51208 0.82294 0.07565 0.0
H427 H 0.50402 0.85375 0.01246 0.0
H428 H 0.56183 0.85028 0.91617 0.0
H429 H 0.56999 0.81991 0.97974 0.0
H430 H 0.55413 0.8882 0.94427 0.0
H431 H 0.51794 0.83327 0.84218 0.0
H432 H 0.49409 0.80457 0.83857 0.0
H433 H 0.44593 0.84408 0.89742 0.0
H434 H 0.46957 0.87298 0.9022 0.0
H435 H 0.50624 0.93379 0.62726 0.0
H436 H 0.5121 0.90499 0.70117 0.0
H437 H 0.51687 0.94605 0.8653 0.0
H438 H 0.51135 0.97484 0.79188 0.0
H439 H 0.49281 0.88977 0.80507 0.0
H440 H 0.55143 0.92847 0.97321 0.0
H441 H 0.57693 0.95572 0.96724 0.0
H442 H 0.58351 0.94575 0.75993 0.0
H443 H 0.55823 0.91832 0.76474 0.0
C444 C 0.5231 0.82891 0.04148 0.0
C445 C 0.54167 0.81903 0.03247 0.0
C446 C 0.51846 0.84645 0.00512 0.0
C447 C 0.53224 0.85428 0.95889 0.0
C448 C 0.55095 0.84464 0.95146 0.0
C449 C 0.55558 0.82724 0.98773 0.0
C450 C 0.52718 0.8721 0.91657 0.0
C451 C 0.54063 0.88857 0.91425 0.0
C452 C 0.50978 0.87254 0.87627 0.0
C453 C 0.49555 0.85522 0.87325 0.0
C454 C 0.50229 0.8358 0.85482 0.0
C455 C 0.48881 0.8195 0.85249 0.0
C456 C 0.46852 0.82249 0.86794 0.0
C457 C 0.46166 0.84179 0.88558 0.0
C458 C 0.47509 0.85813 0.88808 0.0
C459 C 0.50852 0.9367 0.67909 0.0
C460 C 0.50855 0.95669 0.70338 0.0
C461 C 0.5118 0.9202 0.72137 0.0
C462 C 0.51519 0.92333 0.78877 0.0
C463 C 0.51467 0.94323 0.81337 0.0
C464 C 0.51148 0.95972 0.77118 0.0
C465 C 0.51971 0.90585 0.83304 0.0
C466 C 0.50618 0.88948 0.8357 0.0
C467 C 0.53728 0.90528 0.87254 0.0
C468 C 0.55279 0.92149 0.8693 0.0
C469 C 0.55838 0.93205 0.92642 0.0
C470 C 0.57277 0.94753 0.92321 0.0
C471 C 0.58176 0.9525 0.8632 0.0
C472 C 0.57646 0.94194 0.80631 0.0
C473 C 0.56209 0.92644 0.80924 0.0
H474 H 0.59287 0.96449 0.86082 0.0
H475 H 0.45811 0.80986 0.8661 0.0
H476 H 0.68469 0.49613 0.06047 0.0
H477 H 0.65328 0.49151 0.99845 0.0
H478 H 0.67561 0.53164 0.84704 0.0
H479 H 0.70649 0.53677 0.90969 0.0
H480 H 0.63854 0.54034 0.86818 0.0
H481 H 0.67476 0.47792 0.83312 0.0
H482 H 0.69234 0.44647 0.86563 0.0
H483 H 0.63879 0.42504 0.96178 0.0
H484 H 0.62097 0.4565 0.93058 0.0
H485 H 0.57558 0.51066 0.59839 0.0
H486 H 0.60574 0.51243 0.66841 0.0
H487 H 0.57116 0.49066 0.83347 0.0
H488 H 0.54092 0.48952 0.76456 0.0
H489 H 0.61275 0.47201 0.80962 0.0
H490 H 0.57677 0.53501 0.84129 0.0
H491 H 0.55966 0.56623 0.80445 0.0
H492 H 0.61395 0.58627 0.70961 0.0
H493 H 0.63126 0.5549 0.74468 0.0
C494 C 0.6828 0.50399 0.01408 0.0
C495 C 0.69802 0.51681 0.98978 0.0
C496 C 0.66491 0.50126 0.97842 0.0
C497 C 0.66209 0.51103 0.91744 0.0
C498 C 0.6773 0.52395 0.89383 0.0
C499 C 0.69499 0.52683 0.92963 0.0
C500 C 0.64341 0.50808 0.87781 0.0
C501 C 0.63309 0.52536 0.85499 0.0
C502 C 0.63592 0.48856 0.86133 0.0
C503 C 0.64661 0.46967 0.88019 0.0
C504 C 0.66679 0.46657 0.86167 0.0
C505 C 0.67678 0.44873 0.87978 0.0
C506 C 0.66671 0.4338 0.91593 0.0
C507 C 0.64659 0.43665 0.9339 0.0
C508 C 0.63653 0.45447 0.916 0.0
C509 C 0.57451 0.50604 0.64938 0.0
C510 C 0.55594 0.50004 0.67616 0.0
C511 C 0.59168 0.5071 0.6893 0.0
C512 C 0.59061 0.50171 0.75607 0.0
C513 C 0.57228 0.49486 0.78209 0.0
C514 C 0.55504 0.49429 0.74273 0.0
C515 C 0.60833 0.50423 0.7996 0.0
C516 C 0.61832 0.48692 0.82316 0.0
C517 C 0.61566 0.52368 0.81635 0.0
C518 C 0.60524 0.54249 0.7949 0.0
C519 C 0.58499 0.54594 0.81186 0.0
C520 C 0.57527 0.5637 0.79145 0.0
C521 C 0.58571 0.57822 0.75466 0.0
C522 C 0.60588 0.57499 0.73807 0.0
C523 C 0.61565 0.55722 0.75815 0.0
H524 H 0.57823 0.59201 0.73918 0.0
H525 H 0.67447 0.41999 0.92988 0.0
H526 H 0.99491 0.68894 0.05775 0.0
H527 H 0.00305 0.65925 0.98989 0.0
H528 H 0.93999 0.65103 0.94682 0.0
H529 H 0.93183 0.68089 0.01348 0.0
H530 H 0.96175 0.61407 0.97757 0.0
H531 H 0.96604 0.67371 0.83814 0.0
H532 H 0.97863 0.70778 0.80884 0.0
H533 H 0.0393 0.68519 0.80721 0.0
H534 H 0.02707 0.65103 0.83754 0.0
H535 H 0.96451 0.54832 0.70505 0.0
H536 H 0.95806 0.57626 0.78085 0.0
H537 H 0.02073 0.59352 0.77107 0.0
H538 H 0.02694 0.56629 0.69203 0.0
H539 H 1.00053 0.62572 0.77245 0.0
H540 H 0.99781 0.56628 0.90767 0.0
H541 H 0.98687 0.53226 0.94402 0.0
H542 H 0.92593 0.55347 0.96055 0.0
H543 H 0.93647 0.58758 0.92365 0.0
C544 C 0.98278 0.68062 0.03459 0.0
C545 C 0.96272 0.68715 0.04084 0.0
C546 C 0.98745 0.66373 0.99568 0.0
C547 C 0.97211 0.65302 0.96317 0.0
C548 C 0.95203 0.65906 0.97161 0.0
C549 C 0.9474 0.67611 0.00955 0.0
C550 C 0.97699 0.63616 0.91759 0.0
C551 C 0.97009 0.61656 0.93241 0.0
C552 C 0.98833 0.6394 0.85969 0.0
C553 C 0.99566 0.65988 0.84083 0.0
C554 C 0.98208 0.67605 0.83209 0.0
C555 C 0.98914 0.69537 0.8152 0.0
C556 C 0.00976 0.69866 0.80637 0.0
C557 C 0.02334 0.68262 0.81419 0.0
C558 C 0.01635 0.66328 0.8312 0.0
C559 C 0.97689 0.55816 0.7188 0.0
C560 C 0.99624 0.55511 0.69258 0.0
C561 C 0.97323 0.57403 0.76276 0.0
C562 C 0.98899 0.58679 0.78334 0.0
C563 C 0.00829 0.58391 0.75634 0.0
C564 C 0.01184 0.56834 0.71107 0.0
C565 C 0.9853 0.60332 0.83201 0.0
C566 C 0.99235 0.62298 0.81777 0.0
C567 C 0.97436 0.60003 0.89106 0.0
C568 C 0.96792 0.57946 0.9125 0.0
C569 C 0.98205 0.56366 0.91862 0.0
C570 C 0.97593 0.54437 0.93945 0.0
C571 C 0.95573 0.54074 0.95475 0.0
C572 C 0.94158 0.55634 0.94888 0.0
C573 C 0.94763 0.57566 0.92808 0.0
H574 H 0.95106 0.52584 0.9713 0.0
H575 H 0.0152 0.71363 0.79329 0.0
H576 H 0.02403 0.24002 0.24507 0.0
H577 H 0.02068 0.21332 0.32857 0.0
H578 H 0.9674 0.19102 0.23147 0.0
H579 H 0.97093 0.21744 0.14735 0.0
H580 H 0.9717 0.18685 0.3881 0.0
H581 H 0.00299 0.17141 0.16943 0.0
H582 H 0.02732 0.18105 0.08283 0.0
H583 H 0.07505 0.18146 0.22495 0.0
H584 H 0.05091 0.17222 0.31246 0.0
H585 H 0.97005 0.08042 0.44374 0.0
H586 H 0.96769 0.11467 0.39696 0.0
H587 H 0.03154 0.12298 0.42614 0.0
H588 H 0.03408 0.0889 0.47127 0.0
H589 H 0.02252 0.13658 0.31341 0.0
H590 H 0.99658 0.14595 0.52695 0.0
H591 H 0.97543 0.13939 0.62426 0.0
H592 H 0.92233 0.15325 0.51247 0.0
H593 H 0.94316 0.15967 0.41411 0.0
C594 C 0.01108 0.23003 0.24356 0.0
C595 C 0.99776 0.23061 0.1901 0.0
C596 C 0.00917 0.21483 0.29115 0.0
C597 C 0.99382 0.20027 0.28584 0.0
C598 C 0.97919 0.20229 0.23664 0.0
C599 C 0.98125 0.21729 0.18859 0.0
C600 C 0.99579 0.18066 0.32031 0.0
C601 C 0.98267 0.17573 0.37187 0.0
C602 C 0.01058 0.16656 0.30024 0.0
C603 C 0.02516 0.17133 0.2473 0.0
C604 C 0.01866 0.17368 0.18206 0.0
C605 C 0.03239 0.17905 0.1329 0.0
C606 C 0.05269 0.1819 0.14838 0.0
C607 C 0.05932 0.17928 0.21303 0.0
C608 C 0.04562 0.17398 0.26241 0.0
C609 C 0.98357 0.08953 0.43973 0.0
C610 C 0.00224 0.08194 0.46108 0.0
C611 C 0.98219 0.10916 0.41363 0.0
C612 C 0.9994 0.12152 0.40908 0.0
C613 C 0.01805 0.11377 0.42936 0.0
C614 C 0.01946 0.09423 0.45514 0.0
C615 C 0.99823 0.14233 0.38144 0.0
C616 C 0.01154 0.14756 0.33059 0.0
C617 C 0.98407 0.15685 0.40401 0.0
C618 C 0.97142 0.15309 0.46294 0.0
C619 C 0.98038 0.14744 0.52294 0.0
C620 C 0.96845 0.14377 0.57833 0.0
C621 C 0.94755 0.14583 0.5745 0.0
C622 C 0.93853 0.15163 0.51531 0.0
C623 C 0.95039 0.15532 0.45973 0.0
H624 H 0.93834 0.14297 0.61745 0.0
H625 H 0.06328 0.18609 0.11025 0.0
H626 H 0.2838 0.95308 0.19018 0.0
H627 H 0.3124 0.94068 0.25554 0.0
H628 H 0.33076 0.00252 0.29168 0.0
H629 H 0.30248 0.01484 0.22544 0.0
H630 H 0.35145 0.94999 0.21306 0.0
H631 H 0.35511 0.00358 0.44046 0.0
H632 H 0.33192 0.01873 0.52129 0.0
H633 H 0.28937 0.97077 0.4876 0.0
H634 H 0.31243 0.95511 0.40741 0.0
H635 H 0.44651 0.98642 0.31293 0.0
H636 H 0.41283 0.97787 0.27376 0.0
H637 H 0.40263 0.94165 0.44749 0.0
H638 H 0.43622 0.95018 0.48727 0.0
H639 H 0.37484 0.97063 0.43445 0.0
H640 H 0.40249 0.91933 0.29759 0.0
H641 H 0.42551 0.90407 0.21644 0.0
H642 H 0.40517 0.94631 0.06979 0.0
H643 H 0.38227 0.96207 0.15028 0.0
C644 C 0.29355 0.96394 0.2143 0.0
C645 C 0.29104 0.98485 0.20359 0.0
C646 C 0.30988 0.95688 0.25112 0.0
C647 C 0.3236 0.9707 0.27843 0.0
C648 C 0.32018 0.99164 0.27168 0.0
C649 C 0.30407 0.99867 0.23405 0.0
C650 C 0.34304 0.96362 0.3052 0.0
C651 C 0.35655 0.9542 0.26181 0.0
C652 C 0.34946 0.96892 0.36904 0.0
C653 C 0.3355 0.97821 0.41754 0.0
C654 C 0.34086 0.99618 0.45052 0.0
C655 C 0.32772 0.00488 0.49622 0.0
C656 C 0.30917 0.99574 0.50948 0.0
C657 C 0.30372 0.97787 0.47714 0.0
C658 C 0.31682 0.96909 0.43146 0.0
C659 C 0.43735 0.97615 0.34191 0.0
C660 C 0.44392 0.96926 0.40368 0.0
C661 C 0.41811 0.9712 0.31932 0.0
C662 C 0.40521 0.95918 0.3579 0.0
C663 C 0.41233 0.95099 0.41712 0.0
C664 C 0.43156 0.9559 0.43969 0.0
C665 C 0.38356 0.95783 0.34123 0.0
C666 C 0.36966 0.96584 0.38635 0.0
C667 C 0.37682 0.9513 0.27885 0.0
C668 C 0.3907 0.94195 0.23023 0.0
C669 C 0.40304 0.92549 0.24821 0.0
C670 C 0.41605 0.91672 0.20227 0.0
C671 C 0.41682 0.92423 0.13803 0.0
C672 C 0.40456 0.94051 0.11957 0.0
C673 C 0.39154 0.94935 0.16534 0.0
H674 H 0.42689 0.91741 0.10252 0.0
H675 H 0.29902 0.0025 0.54487 0.0
H676 H 0.45548 0.29028 0.1836 0.0
H677 H 0.45972 0.31807 0.26229 0.0
H678 H 0.52247 0.30249 0.28385 0.0
H679 H 0.51816 0.27443 0.20621 0.0
H680 H 0.47753 0.32584 0.39327 0.0
H681 H 0.54628 0.34758 0.23742 0.0
H682 H 0.56037 0.34078 0.12727 0.0
H683 H 0.50079 0.33142 0.05106 0.0
H684 H 0.48637 0.33857 0.16033 0.0
H685 H 0.53339 0.42911 0.43393 0.0
H686 H 0.53292 0.39444 0.38989 0.0
H687 H 0.46808 0.39675 0.37804 0.0
H688 H 0.46838 0.43112 0.42199 0.0
H689 H 0.51767 0.37797 0.2745 0.0
H690 H 0.44915 0.35083 0.42832 0.0
H691 H 0.43273 0.35882 0.53384 0.0
H692 H 0.4889 0.38074 0.6105 0.0
H693 H 0.50577 0.37236 0.5062 0.0
C694 C 0.46989 0.29223 0.20771 0.0
C695 C 0.48651 0.28039 0.18916 0.0
C696 C 0.47231 0.30805 0.25252 0.0
C697 C 0.49145 0.31238 0.27792 0.0
C698 C 0.5076 0.2993 0.26452 0.0
C699 C 0.50511 0.28327 0.22051 0.0
C700 C 0.49523 0.33245 0.30733 0.0
C701 C 0.48631 0.33728 0.36764 0.0
C702 C 0.5068 0.3472 0.27354 0.0
C703 C 0.5153 0.3433 0.20729 0.0
C704 C 0.53621 0.34412 0.19709 0.0
C705 C 0.54424 0.34023 0.1348 0.0
C706 C 0.53149 0.33559 0.08228 0.0
C707 C 0.51066 0.33494 0.09184 0.0
C708 C 0.50256 0.33889 0.15395 0.0
C709 C 0.51909 0.42232 0.42094 0.0
C710 C 0.50093 0.43274 0.43192 0.0
C711 C 0.51884 0.40252 0.39611 0.0
C712 C 0.50044 0.39294 0.3823 0.0
C713 C 0.4824 0.40374 0.38991 0.0
C714 C 0.48263 0.42342 0.41469 0.0
C715 C 0.49987 0.37155 0.36062 0.0
C716 C 0.5093 0.36647 0.30126 0.0
C717 C 0.48852 0.35669 0.39501 0.0
C718 C 0.47869 0.36113 0.45904 0.0
C719 C 0.45805 0.35718 0.46787 0.0
C720 C 0.44865 0.36178 0.52751 0.0
C721 C 0.45973 0.37033 0.57877 0.0
C722 C 0.4803 0.37414 0.57076 0.0
C723 C 0.48979 0.36946 0.51136 0.0
H724 H 0.45234 0.37403 0.6246 0.0
H725 H 0.53773 0.33257 0.03413 0.0
H726 H 0.22639 0.5143 0.22088 0.0
H727 H 0.19579 0.52168 0.28319 0.0
H728 H 0.16873 0.46654 0.21104 0.0
H729 H 0.19946 0.45878 0.14981 0.0
H730 H 0.14946 0.50342 0.17307 0.0
H731 H 0.17464 0.46999 0.3652 0.0
H732 H 0.19794 0.46251 0.4563 0.0
H733 H 0.19159 0.52353 0.52727 0.0
H734 H 0.16854 0.53152 0.43579 0.0
H735 H 0.05379 0.50376 0.31777 0.0
H736 H 0.08708 0.49908 0.27081 0.0
H737 H 0.11034 0.5471 0.39318 0.0
H738 H 0.07707 0.55118 0.4432 0.0
H739 H 0.13279 0.51619 0.4066 0.0
H740 H 0.10766 0.55022 0.2178 0.0
H741 H 0.08442 0.55857 0.12722 0.0
H742 H 0.09157 0.49854 0.04855 0.0
H743 H 0.11463 0.48972 0.13914 0.0
C744 C 0.2143 0.50326 0.22074 0.0
C745 C 0.21518 0.48609 0.17983 0.0
C746 C 0.19679 0.50756 0.25613 0.0
C747 C 0.18002 0.49475 0.25095 0.0
C748 C 0.18156 0.47662 0.2153 0.0
C749 C 0.19908 0.47223 0.18039 0.0
C750 C 0.16006 0.50187 0.27284 0.0
C751 C 0.14569 0.50602 0.22419 0.0
C752 C 0.15561 0.506 0.33928 0.0
C753 C 0.17007 0.50145 0.39295 0.0
C754 C 0.17849 0.48194 0.39947 0.0
C755 C 0.1916 0.47758 0.45136 0.0
C756 C 0.19632 0.49256 0.49736 0.0
C757 C 0.18798 0.51196 0.49145 0.0
C758 C 0.1749 0.51642 0.43956 0.0
C759 C 0.0658 0.5138 0.3333 0.0
C760 C 0.06284 0.5278 0.38439 0.0
C761 C 0.08488 0.51112 0.30616 0.0
C762 C 0.10124 0.52279 0.32808 0.0
C763 C 0.09797 0.53785 0.37567 0.0
C764 C 0.07894 0.54028 0.40385 0.0
C765 C 0.12197 0.51758 0.30677 0.0
C766 C 0.13658 0.51383 0.35536 0.0
C767 C 0.1268 0.51409 0.24001 0.0
C768 C 0.11277 0.51927 0.18566 0.0
C769 C 0.10415 0.53874 0.18152 0.0
C770 C 0.09103 0.54357 0.13008 0.0
C771 C 0.08649 0.52908 0.08223 0.0
C772 C 0.09509 0.50974 0.08566 0.0
C773 C 0.1082 0.50483 0.13701 0.0
H774 H 0.07634 0.53286 0.04243 0.0
H775 H 0.20636 0.48912 0.53776 0.0
H776 H 1.0007 0.76551 0.95875 0.0
H777 H 0.00933 0.79099 0.87518 0.0
H778 H 0.95889 0.82763 0.93697 0.0
H779 H 0.95042 0.80233 0.02069 0.0
H780 H 0.99297 0.81072 0.77188 0.0
H781 H 0.97487 0.87631 0.95642 0.0
H782 H 0.97583 0.88304 0.0756 0.0
H783 H 0.01767 0.83403 0.10248 0.0
H784 H 0.01727 0.82722 0.98337 0.0
H785 H 0.97498 0.90599 0.62913 0.0
H786 H 0.97738 0.87281 0.68154 0.0
H787 H 0.03024 0.89243 0.78716 0.0
H788 H 0.02784 0.92591 0.73481 0.0
H789 H 0.00305 0.87909 0.86869 0.0
H790 H 0.03584 0.84875 0.6879 0.0
H791 H 0.04449 0.83872 0.57463 0.0
H792 H 0.98452 0.81608 0.54579 0.0
H793 H 0.97571 0.82537 0.65984 0.0
C794 C 0.99109 0.77867 0.95269 0.0
C795 C 0.97502 0.78215 0.99613 0.0
C796 C 0.99608 0.79324 0.90535 0.0
C797 C 0.98504 0.81139 0.90121 0.0
C798 C 0.96784 0.8139 0.94043 0.0
C799 C 0.96293 0.79944 0.9878 0.0
C800 C 0.9924 0.82849 0.86061 0.0
C801 C 0.99514 0.82569 0.79292 0.0
C802 C 0.99627 0.84776 0.88871 0.0
C803 C 0.99595 0.8512 0.96087 0.0
C804 C 0.98429 0.86697 0.98773 0.0
C805 C 0.98477 0.87084 0.05524 0.0
C806 C 0.99693 0.85908 0.09642 0.0
C807 C 0.00834 0.84318 0.07041 0.0
C808 C 0.00795 0.83929 0.0029 0.0
C809 C 0.98725 0.9032 0.66301 0.0
C810 C 1.00098 0.91868 0.67905 0.0
C811 C 0.9888 0.88409 0.69214 0.0
C812 C 0.00404 0.88009 0.73807 0.0
C813 C 0.01839 0.8952 0.75167 0.0
C814 C 0.01695 0.91433 0.72205 0.0
C815 C 0.00273 0.86159 0.77933 0.0
C816 C 1.00102 0.86412 0.8475 0.0
C817 C 1.00059 0.84199 0.75204 0.0
C818 C 0.0051 0.83787 0.6821 0.0
C819 C 0.02445 0.84181 0.65718 0.0
C820 C 0.02943 0.83608 0.59312 0.0
C821 C 0.01506 0.8268 0.5531 0.0
C822 C 0.99564 0.82325 0.57696 0.0
C823 C 0.99069 0.82858 0.64147 0.0
H824 H 0.01904 0.82225 0.50377 0.0
H825 H 0.99753 0.86232 0.14851 0.0
H826 H 0.69435 0.96743 0.03102 0.0
H827 H 0.66637 0.9737 0.95692 0.0
H828 H 0.69987 0.02208 0.86384 0.0
H829 H 0.72772 0.01637 0.94079 0.0
H830 H 0.66573 0.03598 0.90114 0.0
H831 H 0.68351 0.97847 0.77625 0.0
H832 H 0.69427 0.94342 0.75243 0.0
H833 H 0.64073 0.9203 0.84435 0.0
H834 H 0.62982 0.95517 0.86983 0.0
H835 H 0.5739 0.04599 0.70426 0.0
H836 H 0.60889 0.04208 0.73998 0.0
H837 H 0.58974 0.00151 0.89437 0.0
H838 H 0.55479 0.00528 0.85941 0.0
H839 H 0.61957 0.98568 0.80059 0.0
H840 H 0.60572 0.04453 0.93862 0.0
H841 H 0.5954 0.08005 0.95704 0.0
H842 H 0.64278 0.10077 0.82981 0.0
H843 H 0.65321 0.06532 0.80996 0.0
C844 C 0.69597 0.97903 0.99353 0.0
C845 C 0.71303 0.9916 0.99213 0.0
C846 C 0.68001 0.98251 0.95064 0.0
C847 C 0.68096 0.99837 0.90452 0.0
C848 C 0.69878 0.00978 0.89912 0.0
C849 C 0.71475 0.0064 0.94263 0.0
C850 C 0.6623 0.0048 0.87015 0.0
C851 C 0.65591 0.02504 0.87754 0.0
C852 C 0.64931 0.99058 0.83986 0.0
C853 C 0.65585 0.96949 0.82504 0.0
C854 C 0.67409 0.96591 0.79181 0.0
C855 C 0.68022 0.94606 0.77797 0.0
C856 C 0.6682 0.92964 0.79687 0.0
C857 C 0.65002 0.93303 0.82965 0.0
C858 C 0.64383 0.95285 0.84368 0.0
C859 C 0.57707 0.03664 0.74688 0.0
C860 C 0.56158 0.02581 0.77868 0.0
C861 C 0.59706 0.03439 0.76698 0.0
C862 C 0.6018 0.02126 0.81898 0.0
C863 C 0.58629 0.01151 0.85353 0.0
C864 C 0.56631 0.01385 0.83387 0.0
C865 C 0.62295 0.01641 0.83456 0.0
C866 C 0.6297 0.99655 0.8231 0.0
C867 C 0.63635 0.03101 0.86013 0.0
C868 C 0.63007 0.05228 0.87215 0.0
C869 C 0.6138 0.05665 0.91404 0.0
C870 C 0.60797 0.07677 0.92488 0.0
C871 C 0.61838 0.09265 0.89443 0.0
C872 C 0.6347 0.08845 0.85325 0.0
C873 C 0.64059 0.06835 0.84223 0.0
H874 H 0.61384 0.10822 0.90289 0.0
H875 H 0.67297 0.91428 0.78609 0.0
H876 H 0.56699 0.70732 0.0373 0.0
H877 H 0.56465 0.67916 0.95962 0.0
H878 H 0.50834 0.70307 0.88698 0.0
H879 H 0.51097 0.73159 0.96384 0.0
H880 H 0.53602 0.65214 0.9714 0.0
H881 H 0.49954 0.68191 0.72986 0.0
H882 H 0.50016 0.71225 0.65873 0.0
H883 H 0.55889 0.72771 0.73129 0.0
H884 H 0.55881 0.69726 0.80194 0.0
H885 H 0.48982 0.57205 0.78671 0.0
H886 H 0.49465 0.6049 0.84202 0.0
H887 H 0.54767 0.61595 0.7248 0.0
H888 H 0.54311 0.58343 0.67012 0.0
H889 H 0.52209 0.64946 0.7323 0.0
H890 H 0.55486 0.60067 0.87088 0.0
H891 H 0.55758 0.56974 0.93887 0.0
H892 H 0.51175 0.5924 0.06838 0.0
H893 H 0.50851 0.62332 0.00043 0.0
C894 C 0.55455 0.70693 0.00287 0.0
C895 C 0.53917 0.72151 0.00606 0.0
C896 C 0.55313 0.69081 0.95897 0.0
C897 C 0.53624 0.68894 0.91799 0.0
C898 C 0.52159 0.70433 0.91773 0.0
C899 C 0.52312 0.72063 0.96136 0.0
C900 C 0.53281 0.6697 0.88234 0.0
C901 C 0.53296 0.65161 0.91906 0.0
C902 C 0.52878 0.66899 0.81413 0.0
C903 C 0.52902 0.68744 0.77206 0.0
C904 C 0.5126 0.69177 0.73066 0.0
C905 C 0.51286 0.70898 0.69033 0.0
C906 C 0.52951 0.72196 0.69076 0.0
C907 C 0.54596 0.71771 0.73131 0.0
C908 C 0.54579 0.70048 0.77161 0.0
C909 C 0.50246 0.58154 0.77286 0.0
C910 C 0.51621 0.57512 0.72479 0.0
C911 C 0.50521 0.60021 0.80438 0.0
C912 C 0.52158 0.6127 0.78746 0.0
C913 C 0.53501 0.60647 0.73852 0.0
C914 C 0.5324 0.58784 0.70764 0.0
C915 C 0.52516 0.63211 0.82152 0.0
C916 C 0.52495 0.65014 0.78468 0.0
C917 C 0.52945 0.6328 0.88938 0.0
C918 C 0.53119 0.61413 0.92992 0.0
C919 C 0.54516 0.59892 0.91333 0.0
C920 C 0.54684 0.58143 0.95196 0.0
C921 C 0.53477 0.57906 0.00771 0.0
C922 C 0.52103 0.59422 0.02503 0.0
C923 C 0.51926 0.61172 0.98646 0.0
H924 H 0.53611 0.56552 0.03763 0.0
H925 H 0.52968 0.73528 0.65952 0.0
H926 H 0.81231 0.52792 0.06417 0.0
H927 H 0.84254 0.52362 0.99803 0.0
H928 H 0.81325 0.47617 0.88734 0.0
H929 H 0.78294 0.48009 0.9556 0.0
H930 H 0.84836 0.46354 0.93227 0.0
H931 H 0.82683 0.52176 0.81429 0.0
H932 H 0.81374 0.5564 0.79707 0.0
H933 H 0.86528 0.58125 0.89572 0.0
H934 H 0.87856 0.54676 0.91446 0.0
H935 H 0.93648 0.45976 0.72426 0.0
H936 H 0.90295 0.46071 0.77328 0.0
H937 H 0.92308 0.50595 0.91146 0.0
H938 H 0.95668 0.50519 0.86253 0.0
H939 H 0.89067 0.51835 0.83765 0.0
H940 H 0.91013 0.45928 0.96352 0.0
H941 H 0.92301 0.42445 0.97847 0.0
H942 H 0.87488 0.40117 0.85954 0.0
H943 H 0.86186 0.43591 0.84316 0.0
C944 C 0.81218 0.51689 0.02473 0.0
C945 C 0.79544 0.50422 0.0151 0.0
C946 C 0.82941 0.51452 0.98664 0.0
C947 C 0.83014 0.49963 0.93746 0.0
C948 C 0.81297 0.48776 0.92503 0.0
C949 C 0.79565 0.4901 0.96351 0.0
C950 C 0.84958 0.49518 0.90488 0.0
C951 C 0.85743 0.47543 0.91013 0.0
C952 C 0.86156 0.51078 0.87724 0.0
C953 C 0.85363 0.53162 0.86613 0.0
C954 C 0.83531 0.53459 0.83278 0.0
C955 C 0.82787 0.55421 0.82267 0.0
C956 C 0.83865 0.57101 0.84538 0.0
C957 C 0.85693 0.56822 0.87816 0.0
C958 C 0.86444 0.54864 0.88845 0.0
C959 C 0.93396 0.46949 0.76634 0.0
C960 C 0.94916 0.48263 0.78899 0.0
C961 C 0.91477 0.47 0.79426 0.0
C962 C 0.91055 0.48355 0.84546 0.0
C963 C 0.92609 0.49549 0.87159 0.0
C964 C 0.9453 0.49494 0.84387 0.0
C965 C 0.88956 0.48692 0.86694 0.0
C966 C 0.88145 0.50645 0.85914 0.0
C967 C 0.87733 0.4711 0.89167 0.0
C968 C 0.88515 0.45022 0.90153 0.0
C969 C 0.9024 0.44676 0.94005 0.0
C970 C 0.9097 0.42702 0.9489 0.0
C971 C 0.89981 0.41061 0.91981 0.0
C972 C 0.88255 0.4139 0.88196 0.0
C973 C 0.87519 0.4336 0.87293 0.0
H974 H 0.90548 0.39535 0.92673 0.0
H975 H 0.83287 0.58619 0.83749 0.0
H976 H 0.99213 0.2356 0.90806 0.0
H977 H 0.99165 0.2058 0.83581 0.0
H978 H 0.0456 0.1833 0.92865 0.0
H979 H 0.04593 0.21296 0.00133 0.0
H980 H 0.04096 0.17433 0.78396 0.0
H981 H 0.00632 0.16892 0.9952 0.0
H982 H 0.98227 0.1818 0.07783 0.0
H983 H 0.93438 0.17818 0.93678 0.0
H984 H 0.95827 0.16583 0.85288 0.0
H985 H 0.02732 0.06879 0.71657 0.0
H986 H 0.03461 0.10114 0.7714 0.0
H987 H 0.97325 0.12038 0.73926 0.0
H988 H 0.96576 0.08815 0.68727 0.0
H989 H 0.98314 0.13154 0.85323 0.0
H990 H 0.0143 0.13748 0.64237 0.0
H991 H 0.03652 0.12769 0.55079 0.0
H992 H 0.08808 0.13218 0.67716 0.0
H993 H 0.0661 0.14187 0.76984 0.0
C994 C 0.00442 0.22481 0.91058 0.0
C995 C 0.01922 0.22663 0.95939 0.0
C996 C 0.00406 0.20773 0.86977 0.0
C997 C 0.01851 0.1923 0.8773 0.0
C998 C 0.03441 0.19509 0.92174 0.0
C999 C 0.03466 0.21206 0.96296 0.0
C1000 C 0.01516 0.17204 0.84747 0.0
C1001 C 0.02846 0.16483 0.79935 0.0
C1002 C 0.9986 0.15989 0.86675 0.0
C1003 C 0.98412 0.16669 0.91771 0.0
C1004 C 0.9907 0.17105 0.98179 0.0
C1005 C 0.97711 0.17823 0.02882 0.0
C1006 C 0.95684 0.18082 0.01257 0.0
C1007 C 0.9501 0.17619 0.94928 0.0
C1008 C 0.96366 0.16912 0.90197 0.0
C1009 C 0.01536 0.07984 0.72203 0.0
C1010 C 0.99596 0.07582 0.69755 0.0
C1011 C 0.01958 0.09843 0.75276 0.0
C1012 C 0.00457 0.11343 0.75859 0.0
C1013 C 0.98513 0.10915 0.73552 0.0
C1014 C 0.98086 0.09061 0.70563 0.0
C1015 C 0.00882 0.13364 0.78857 0.0
C1016 C 0.9957 0.14089 0.83735 0.0
C1017 C 0.02526 0.14596 0.76861 0.0
C1018 C 0.03854 0.14017 0.71316 0.0
C1019 C 0.03036 0.13624 0.65074 0.0
C1020 C 0.04291 0.13073 0.59861 0.0
C1021 C 0.06369 0.12922 0.60816 0.0
C1022 C 0.07197 0.13331 0.66987 0.0
C1023 C 0.05948 0.13884 0.72221 0.0
H1024 H 0.07338 0.12494 0.5677 0.0
H1025 H 0.94634 0.18639 0.04905 0.0
H1026 H 0.29796 0.03614 0.00805 0.0
H1027 H 0.32537 0.0365 0.92737 0.0
H1028 H 0.30482 0.97907 0.85117 0.0
H1029 H 0.27725 0.97885 0.93142 0.0
H1030 H 0.34409 0.97851 0.90209 0.0
H1031 H 0.30503 0.01935 0.75226 0.0
H1032 H 0.28443 0.04889 0.72008 0.0
H1033 H 0.3332 0.08897 0.76861 0.0
H1034 H 0.35401 0.05968 0.8019 0.0
H1035 H 0.41881 0.95989 0.66814 0.0
H1036 H 0.38734 0.96605 0.72552 0.0
H1037 H 0.40577 0.02765 0.7652 0.0
H1038 H 0.43735 0.02173 0.70501 0.0
H1039 H 0.36756 0.02764 0.73363 0.0
H1040 H 0.40624 0.9897 0.88709 0.0
H1041 H 0.42753 0.96202 0.93013 0.0
H1042 H 0.38087 0.9188 0.88827 0.0
H1043 H 0.35937 0.94618 0.84427 0.0
C1044 C 0.29868 0.02417 0.97168 0.0
C1045 C 0.28533 0.00761 0.97524 0.0
C1046 C 0.31444 0.02429 0.92591 0.0
C1047 C 0.31724 0.00775 0.88341 0.0
C1048 C 0.30293 0.99201 0.8834 0.0
C1049 C 0.28702 0.992 0.92867 0.0
C1050 C 0.33655 0.00536 0.84695 0.0
C1051 C 0.34905 0.98903 0.86427 0.0
C1052 C 0.3435 0.0197 0.80028 0.0
C1053 C 0.33101 0.03732 0.78015 0.0
C1054 C 0.3113 0.03447 0.75662 0.0
C1055 C 0.2996 0.05117 0.73804 0.0
C1056 C 0.30748 0.0708 0.74246 0.0
C1057 C 0.3271 0.07376 0.76528 0.0
C1058 C 0.33887 0.05711 0.78392 0.0
C1059 C 0.41634 0.97476 0.68935 0.0
C1060 C 0.43077 0.99026 0.68247 0.0
C1061 C 0.39826 0.97824 0.7225 0.0
C1062 C 0.39422 0.9972 0.75109 0.0
C1063 C 0.40852 0.01285 0.7439 0.0
C1064 C 0.42662 0.00943 0.70978 0.0
C1065 C 0.37498 1.00047 0.78779 0.0
C1066 C 0.36258 0.01703 0.77111 0.0
C1067 C 0.36824 0.98659 0.83642 0.0
C1068 C 0.38126 0.96999 0.86178 0.0
C1069 C 0.40059 0.97426 0.88648 0.0
C1070 C 0.41268 0.95863 0.91118 0.0
C1071 C 0.40558 0.93865 0.91178 0.0
C1072 C 0.38636 0.93427 0.88771 0.0
C1073 C 0.37421 0.94985 0.86294 0.0
H1074 H 0.41494 0.92658 0.93108 0.0
H1075 H 0.2984 0.08371 0.72807 0.0
H1076 H 0.45457 0.29423 0.96557 0.0
H1077 H 0.45797 0.32394 0.89402 0.0
H1078 H 0.51919 0.30672 0.85033 0.0
H1079 H 0.51581 0.27701 0.9224 0.0
H1080 H 0.51704 0.34465 0.89887 0.0
H1081 H 0.4826 0.30729 0.73151 0.0
H1082 H 0.45552 0.28699 0.68123 0.0
H1083 H 0.41327 0.33509 0.71691 0.0
H1084 H 0.44002 0.35557 0.76844 0.0
H1085 H 0.54126 0.42105 0.67076 0.0
H1086 H 0.53402 0.38971 0.72915 0.0
H1087 H 0.47249 0.40884 0.75719 0.0
H1088 H 0.47955 0.44035 0.69641 0.0
H1089 H 0.47334 0.37066 0.72029 0.0
H1090 H 0.50748 0.40799 0.88566 0.0
H1091 H 0.53436 0.42886 0.93475 0.0
H1092 H 0.57707 0.38097 0.90201 0.0
H1093 H 0.55052 0.35992 0.85177 0.0
C1094 C 0.46846 0.29634 0.93842 0.0
C1095 C 0.48487 0.28322 0.94902 0.0
C1096 C 0.47043 0.31338 0.89774 0.0
C1097 C 0.48887 0.31766 0.86688 0.0
C1098 C 0.50482 0.30375 0.87366 0.0
C1099 C 0.50281 0.28661 0.9141 0.0
C1100 C 0.49224 0.33772 0.83455 0.0
C1101 C 0.50775 0.35014 0.85873 0.0
C1102 C 0.47951 0.34534 0.78438 0.0
C1103 C 0.46329 0.33286 0.7547 0.0
C1104 C 0.46749 0.31345 0.72945 0.0
C1105 C 0.4522 0.30193 0.70051 0.0
C1106 C 0.43267 0.30971 0.69609 0.0
C1107 C 0.4284 0.32905 0.72051 0.0
C1108 C 0.44362 0.34062 0.7496 0.0
C1109 C 0.52619 0.4188 0.68981 0.0
C1110 C 0.51101 0.43336 0.67909 0.0
C1111 C 0.5221 0.40082 0.72367 0.0
C1112 C 0.5028 0.39695 0.74879 0.0
C1113 C 0.48756 0.4115 0.73869 0.0
C1114 C 0.49163 0.42957 0.70428 0.0
C1115 C 0.49855 0.3773 0.78284 0.0
C1116 C 0.48275 0.36507 0.75974 0.0
C1117 C 0.51099 0.36982 0.83405 0.0
C1118 C 0.52702 0.38245 0.86435 0.0
C1119 C 0.52263 0.40197 0.88842 0.0
C1120 C 0.53781 0.41382 0.91654 0.0
C1121 C 0.55742 0.40627 0.92134 0.0
C1122 C 0.56188 0.38682 0.89819 0.0
C1123 C 0.54676 0.37491 0.86993 0.0
H1124 H 0.56915 0.41547 0.94312 0.0
H1125 H 0.42087 0.30078 0.67356 0.0
H1126 H 0.23086 0.51832 0.93517 0.0
H1127 H 0.20337 0.52168 0.85568 0.0
H1128 H 0.19416 0.4569 0.86076 0.0
H1129 H 0.22151 0.45356 0.94101 0.0
H1130 H 0.18506 0.47674 0.73294 0.0
H1131 H 0.1692 0.48008 0.96479 0.0
H1132 H 0.17319 0.49259 0.0781 0.0
H1133 H 0.16093 0.55343 0.01336 0.0
H1134 H 0.15704 0.5413 0.89934 0.0
H1135 H 0.07902 0.47923 0.6537 0.0
H1136 H 0.11142 0.47121 0.70625 0.0
H1137 H 0.12099 0.53489 0.74456 0.0
H1138 H 0.08885 0.54291 0.6937 0.0
H1139 H 0.13026 0.51328 0.84923 0.0
H1140 H 0.14358 0.50943 0.61728 0.0
H1141 H 0.13813 0.49638 0.50543 0.0
H1142 H 0.15537 0.43661 0.56823 0.0
H1143 H 0.16015 0.44911 0.68138 0.0
C1144 C 0.22376 0.5047 0.9164 0.0
C1145 C 0.22843 0.48566 0.94363 0.0
C1146 C 0.20788 0.50664 0.87159 0.0
C1147 C 0.19654 0.48956 0.85307 0.0
C1148 C 0.20273 0.47026 0.87425 0.0
C1149 C 0.21847 0.46834 0.91965 0.0
C1150 C 0.17649 0.49222 0.82169 0.0
C1151 C 0.17299 0.48457 0.75837 0.0
C1152 C 0.16078 0.50248 0.85492 0.0
C1153 C 0.1631 0.50982 0.92341 0.0
C1154 C 0.16755 0.49616 0.97459 0.0
C1155 C 0.16976 0.50318 0.03897 0.0
C1156 C 0.16745 0.52381 0.05289 0.0
C1157 C 0.16279 0.53746 0.00247 0.0
C1158 C 0.16056 0.53052 0.93797 0.0
C1159 C 0.08799 0.49147 0.67384 0.0
C1160 C 0.08131 0.51172 0.66937 0.0
C1161 C 0.10657 0.48689 0.70342 0.0
C1162 C 0.1188 0.50248 0.7288 0.0
C1163 C 0.1119 0.52259 0.7254 0.0
C1164 C 0.09346 0.52715 0.69606 0.0
C1165 C 0.13875 0.4982 0.75951 0.0
C1166 C 0.14225 0.50547 0.82331 0.0
C1167 C 0.15436 0.4876 0.72648 0.0
C1168 C 0.15192 0.48016 0.65814 0.0
C1169 C 0.14599 0.49345 0.60751 0.0
C1170 C 0.143 0.48614 0.54384 0.0
C1171 C 0.14633 0.46567 0.52971 0.0
C1172 C 0.15271 0.45245 0.57929 0.0
C1173 C 0.15549 0.45962 0.64329 0.0
H1174 H 0.14408 0.46008 0.48028 0.0
H1175 H 0.16922 0.52922 0.10276 0.0
H1176 H 0.94858 0.78123 0.26717 0.0
H1177 H 0.95103 0.81168 0.33619 0.0
H1178 H 0.01351 0.8182 0.2814 0.0
H1179 H 0.01114 0.78758 0.21452 0.0
H1180 H 0.00863 0.83303 0.39823 0.0
H1181 H 0.9747 0.83709 0.1932 0.0
H1182 H 0.94914 0.83059 0.10843 0.0
H1183 H 0.90317 0.8543 0.23542 0.0
H1184 H 0.92857 0.861 0.32116 0.0
H1185 H 0.02729 0.93603 0.39879 0.0
H1186 H 0.01906 0.90301 0.35151 0.0
H1187 H 0.96073 0.90496 0.44452 0.0
H1188 H 0.96869 0.93848 0.49008 0.0
H1189 H 0.96075 0.8855 0.31894 0.0
H1190 H 0.99793 0.88227 0.5243 0.0
H1191 H 0.02635 0.89293 0.5943 0.0
H1192 H 0.06828 0.86916 0.45366 0.0
H1193 H 0.04016 0.85856 0.3823 0.0
C1194 C 0.96307 0.78856 0.27308 0.0
C1195 C 0.97974 0.78204 0.23633 0.0
C1196 C 0.96441 0.80613 0.31161 0.0
C1197 C 0.98231 0.81756 0.31256 0.0
C1198 C 0.99951 0.80974 0.28139 0.0
C1199 C 0.99822 0.79214 0.24352 0.0
C1200 C 0.98265 0.83875 0.33784 0.0
C1201 C 0.99801 0.8444 0.38148 0.0
C1202 C 0.96896 0.85378 0.31504 0.0
C1203 C 0.95357 0.84945 0.26389 0.0
C1204 C 0.95916 0.84092 0.20319 0.0
C1205 C 0.94469 0.83717 0.15492 0.0
C1206 C 0.92451 0.84197 0.16657 0.0
C1207 C 0.9188 0.85057 0.2265 0.0
C1208 C 0.93325 0.85437 0.27494 0.0
C1209 C 0.01247 0.92976 0.4072 0.0
C1210 C 0.99874 0.93979 0.44834 0.0
C1211 C 0.00782 0.91082 0.38064 0.0
C1212 C 0.98949 0.90131 0.39597 0.0
C1213 C 0.97501 0.91199 0.43247 0.0
C1214 C 0.97958 0.93117 0.45834 0.0
C1215 C 0.98653 0.87953 0.37981 0.0
C1216 C 0.97085 0.87389 0.33754 0.0
C1217 C 1.0001 0.86453 0.40289 0.0
C1218 C 0.01694 0.86972 0.4478 0.0
C1219 C 0.01321 0.87935 0.50824 0.0
C1220 C 0.02925 0.88545 0.54805 0.0
C1221 C 0.04908 0.88183 0.5283 0.0
C1222 C 0.05291 0.87197 0.46887 0.0
C1223 C 0.03693 0.86587 0.42879 0.0
H1224 H 0.06146 0.88657 0.55923 0.0
H1225 H 0.91331 0.83906 0.12914 0.0
H1226 H 0.71764 0.02888 0.22883 0.0
H1227 H 0.68982 0.03033 0.30757 0.0
H1228 H 0.69077 0.96499 0.32406 0.0
H1229 H 0.71842 0.96363 0.24429 0.0
H1230 H 0.65453 0.97741 0.29134 0.0
H1231 H 0.70127 0.99644 0.45796 0.0
H1232 H 0.72905 0.01574 0.50836 0.0
H1233 H 0.69499 0.07088 0.4897 0.0
H1234 H 0.6671 0.05196 0.43834 0.0
H1235 H 0.57002 0.98039 0.51434 0.0
H1236 H 0.60317 0.97415 0.46469 0.0
H1237 H 0.60981 0.03827 0.42683 0.0
H1238 H 0.57699 0.0446 0.47611 0.0
H1239 H 0.64346 0.02316 0.48114 0.0
H1240 H 0.59885 0.00502 0.30385 0.0
H1241 H 0.57104 0.98625 0.25146 0.0
H1242 H 0.60138 0.92983 0.28928 0.0
H1243 H 0.62927 0.94827 0.3427 0.0
C1244 C 0.7126 0.01495 0.25203 0.0
C1245 C 0.72048 0.99619 0.23185 0.0
C1246 C 0.69656 0.01574 0.29668 0.0
C1247 C 0.6881 0.99775 0.32201 0.0
C1248 C 0.69699 0.97907 0.30536 0.0
C1249 C 0.713 0.9783 0.26061 0.0
C1250 C 0.6686 0.99834 0.35856 0.0
C1251 C 0.65228 0.98707 0.33384 0.0
C1252 C 0.66538 0.01132 0.41296 0.0
C1253 C 0.68214 0.02278 0.44383 0.0
C1254 C 0.69976 0.0127 0.46412 0.0
C1255 C 0.71552 0.02358 0.49296 0.0
C1256 C 0.71381 0.04453 0.50211 0.0
C1257 C 0.6963 0.05465 0.48256 0.0
C1258 C 0.6805 0.04385 0.45366 0.0
C1259 C 0.57844 0.99311 0.49466 0.0
C1260 C 0.5708 0.01298 0.49925 0.0
C1261 C 0.59742 0.98954 0.46642 0.0
C1262 C 0.60906 0.00577 0.44208 0.0
C1263 C 0.60124 0.02552 0.44563 0.0
C1264 C 0.58235 0.02908 0.47357 0.0
C1265 C 0.62946 0.00244 0.41333 0.0
C1266 C 0.64588 0.01325 0.43935 0.0
C1267 C 0.63278 0.9891 0.36 0.0
C1268 C 0.61602 0.978 0.32798 0.0
C1269 C 0.59951 0.9886 0.30151 0.0
C1270 C 0.58375 0.97802 0.27153 0.0
C1271 C 0.58441 0.95685 0.26723 0.0
C1272 C 0.60087 0.94622 0.29276 0.0
C1273 C 0.61666 0.95673 0.32287 0.0
H1274 H 0.5722 0.94869 0.24397 0.0
H1275 H 0.72603 0.05292 0.52446 0.0
H1276 H 0.5636 0.71805 0.24797 0.0
H1277 H 0.5593 0.68813 0.31813 0.0
H1278 H 0.49517 0.69832 0.32166 0.0
H1279 H 0.49951 0.72829 0.25108 0.0
H1280 H 0.50992 0.68149 0.43982 0.0
H1281 H 0.51254 0.66896 0.20791 0.0
H1282 H 0.52681 0.67071 0.09607 0.0
H1283 H 0.5799 0.63957 0.16219 0.0
H1284 H 0.56603 0.63784 0.27466 0.0
H1285 H 0.47178 0.58255 0.47923 0.0
H1286 H 0.4802 0.61521 0.42997 0.0
H1287 H 0.5433 0.59996 0.43722 0.0
H1288 H 0.53496 0.56698 0.48739 0.0
H1289 H 0.53129 0.61967 0.319 0.0
H1290 H 0.5235 0.62785 0.55131 0.0
H1291 H 0.50572 0.62497 0.65699 0.0
H1292 H 0.45945 0.66501 0.58737 0.0
H1293 H 0.47621 0.66719 0.47953 0.0
C1294 C 0.54873 0.71451 0.26668 0.0
C1295 C 0.53191 0.72561 0.24494 0.0
C1296 C 0.54624 0.69724 0.30592 0.0
C1297 C 0.52688 0.69074 0.32396 0.0
C1298 C 0.51024 0.70303 0.30815 0.0
C1299 C 0.51273 0.72031 0.26853 0.0
C1300 C 0.52381 0.67006 0.35194 0.0
C1301 C 0.51446 0.66795 0.41335 0.0
C1302 C 0.52993 0.65241 0.31748 0.0
C1303 C 0.53836 0.6535 0.24993 0.0
C1304 C 0.52734 0.66265 0.19876 0.0
C1305 C 0.53532 0.66359 0.13521 0.0
C1306 C 0.55427 0.65532 0.12211 0.0
C1307 C 0.56524 0.64602 0.17247 0.0
C1308 C 0.55732 0.64503 0.23611 0.0
C1309 C 0.48748 0.58595 0.46976 0.0
C1310 C 0.50271 0.57215 0.48776 0.0
C1311 C 0.49225 0.60472 0.44174 0.0
C1312 C 0.51238 0.61022 0.43106 0.0
C1313 C 0.52765 0.59607 0.44546 0.0
C1314 C 0.52286 0.5772 0.47388 0.0
C1315 C 0.51731 0.63102 0.40702 0.0
C1316 C 0.52696 0.63317 0.34605 0.0
C1317 C 0.5111 0.64869 0.44147 0.0
C1318 C 0.50107 0.64751 0.50677 0.0
C1319 C 0.5094 0.63584 0.55801 0.0
C1320 C 0.49949 0.63433 0.61843 0.0
C1321 C 0.48157 0.6449 0.62913 0.0
C1322 C 0.47336 0.65684 0.57908 0.0
C1323 C 0.48299 0.65812 0.51809 0.0
H1324 H 0.47404 0.6438 0.67619 0.0
H1325 H 0.56044 0.65608 0.07293 0.0
H1326 H 0.78102 0.4673 0.24516 0.0
H1327 H 0.80812 0.4658 0.32613 0.0
H1328 H 0.80642 0.53104 0.34429 0.0
H1329 H 0.77939 0.53247 0.26252 0.0
H1330 H 0.84233 0.51849 0.30371 0.0
H1331 H 0.79814 0.49949 0.4785 0.0
H1332 H 0.77128 0.47988 0.5332 0.0
H1333 H 0.80575 0.42516 0.51094 0.0
H1334 H 0.83271 0.44438 0.45528 0.0
H1335 H 0.92974 0.51918 0.50758 0.0
H1336 H 0.89583 0.52365 0.46294 0.0
H1337 H 0.88979 0.45871 0.44316 0.0
H1338 H 0.92345 0.45411 0.48927 0.0
H1339 H 0.85658 0.47356 0.49384 0.0
H1340 H 0.89829 0.49081 0.30891 0.0
H1341 H 0.92504 0.50916 0.24922 0.0
H1342 H 0.89498 0.56578 0.28548 0.0
H1343 H 0.86816 0.54778 0.34612 0.0
C1344 C 0.78555 0.48117 0.26964 0.0
C1345 C 0.7779 0.49997 0.24848 0.0
C1346 C 0.80123 0.48035 0.31551 0.0
C1347 C 0.80948 0.49833 0.34111 0.0
C1348 C 0.80035 0.51697 0.32518 0.0
C1349 C 0.78466 0.51777 0.27931 0.0
C1350 C 0.82944 0.4979 0.37466 0.0
C1351 C 0.8453 0.50904 0.34635 0.0
C1352 C 0.83358 0.48499 0.42869 0.0
C1353 C 0.8174 0.47338 0.46227 0.0
C1354 C 0.79993 0.48325 0.4848 0.0
C1355 C 0.7847 0.47221 0.51608 0.0
C1356 C 0.78679 0.45129 0.52544 0.0
C1357 C 0.80415 0.44137 0.50365 0.0
C1358 C 0.81943 0.45233 0.47232 0.0
C1359 C 0.9213 0.50585 0.49301 0.0
C1360 C 0.92938 0.48628 0.50182 0.0
C1361 C 0.90187 0.50843 0.46748 0.0
C1362 C 0.8902 0.49152 0.44927 0.0
C1363 C 0.89839 0.472 0.45711 0.0
C1364 C 0.91773 0.46941 0.48309 0.0
C1365 C 0.86942 0.49408 0.42259 0.0
C1366 C 0.85348 0.48326 0.45189 0.0
C1367 C 0.8652 0.50712 0.36892 0.0
C1368 C 0.88135 0.51797 0.33271 0.0
C1369 C 0.89748 0.50719 0.30464 0.0
C1370 C 0.91263 0.51752 0.27054 0.0
C1371 C 0.91174 0.53863 0.26374 0.0
C1372 C 0.89567 0.54944 0.29089 0.0
C1373 C 0.88048 0.53918 0.3251 0.0
H1374 H 0.92349 0.5466 0.23729 0.0
H1375 H 0.77498 0.44276 0.54966 0.0
loop_
_geom_bond_atom_site_label_1
_geom_bond_atom_site_label_2
_geom_bond_distance
_geom_bond_site_symmetry_2
_ccdc_geom_bond_type
H0 C5 0.930 . S
H1 C8 0.930 . S
H2 C10 0.930 . S
H3 C4 1.016 . S
C4 H3 1.016 . S
C4 N11 1.286 1_556 S
C5 H0 0.930 . S
C5 C6 1.397 . S
C5 C7 1.361 . S
C6 C5 1.397 . S
C6 C10 1.390 . S
C7 C5 1.361 . S
C7 C8 1.393 1_554 S
C7 N11 1.413 . S
C8 H1 0.930 . S
C8 C7 1.393 1_556 S
C8 C9 1.399 . S
C9 C8 1.399 . S
C9 C10 1.381 1_556 S
C10 H2 0.930 . S
C10 C6 1.390 . S
C10 C9 1.381 1_554 S
N11 C4 1.286 1_554 S
N11 C7 1.413 . S
H12 C17 0.930 . S
H13 C20 0.930 . S
H14 C22 0.930 . S
H15 C16 1.016 . S
C16 H15 1.016 . S
C16 N23 1.286 1_556 S
C17 H12 0.930 . S
C17 C18 1.397 . S
C17 C19 1.361 . S
C18 C17 1.397 . S
C18 C22 1.390 . S
C19 C17 1.361 . S
C19 C20 1.393 1_554 S
C19 N23 1.413 . S
C20 H13 0.930 . S
C20 C19 1.393 1_556 S
C20 C21 1.399 . S
C21 C20 1.399 . S
C21 C22 1.381 1_556 S
C22 H14 0.930 . S
C22 C18 1.390 . S
C22 C21 1.381 1_554 S
N23 C16 1.286 1_554 S
N23 C19 1.413 . S
H24 C29 0.930 . S
H25 C32 0.930 . S
H26 C34 0.930 . S
H27 C28 1.029 . S
C28 H27 1.029 . S
C28 N35 1.268 1_566 S
C29 H24 0.930 . S
C29 C30 1.407 . S
C29 C31 1.361 . S
C30 C29 1.407 . S
C30 C34 1.385 1_545 S
C31 C29 1.361 . S
C31 C32 1.393 1_554 S
C31 N35 1.413 . S
C32 H25 0.930 . S
C32 C31 1.393 1_556 S
C32 C33 1.402 . S
C33 C32 1.402 . S
C33 C34 1.379 1_546 S
C34 H26 0.930 . S
C34 C30 1.385 1_565 S
C34 C33 1.379 1_564 S
N35 C28 1.268 1_544 S
N35 C31 1.413 . S
H36 C41 0.930 . S
H37 C44 0.930 . S
H38 C46 0.930 . S
H39 C40 1.016 . S
C40 H39 1.016 . S
C40 N47 1.286 1_556 S
C41 H36 0.930 . S
C41 C42 1.397 . S
C41 C43 1.361 . S
C42 C41 1.397 . S
C42 C46 1.390 . S
C43 C41 1.361 . S
C43 C44 1.393 1_554 S
C43 N47 1.413 . S
C44 H37 0.930 . S
C44 C43 1.393 1_556 S
C44 C45 1.399 . S
C45 C44 1.399 . S
C45 C46 1.381 1_556 S
C46 H38 0.930 . S
C46 C42 1.390 . S
C46 C45 1.381 1_554 S
N47 C40 1.286 1_554 S
N47 C43 1.413 . S
H48 C53 0.930 . S
H49 C56 0.930 . S
H50 C58 0.930 . S
H51 C52 1.016 . S
C52 H51 1.016 . S
C52 N59 1.286 . S
C53 H48 0.930 . S
C53 C54 1.397 . S
C53 C55 1.361 . S
C54 C53 1.397 . S
C54 C58 1.390 . S
C55 C53 1.361 . S
C55 C56 1.393 . S
C55 N59 1.413 . S
C56 H49 0.930 . S
C56 C55 1.393 . S
C56 C57 1.399 . S
C57 C56 1.399 . S
C57 C58 1.381 . S
C58 H50 0.930 . S
C58 C54 1.390 . S
C58 C57 1.381 . S
N59 C52 1.286 . S
N59 C55 1.413 . S
H60 C65 0.930 . S
H61 C68 0.930 . S
H62 C70 0.930 . S
H63 C64 1.016 . S
C64 H63 1.016 . S
C64 N71 1.286 . S
C65 H60 0.930 . S
C65 C66 1.397 . S
C65 C67 1.361 . S
C66 C65 1.397 . S
C66 C70 1.390 . S
C67 C65 1.361 . S
C67 C68 1.393 . S
C67 N71 1.413 . S
C68 H61 0.930 . S
C68 C67 1.393 . S
C68 C69 1.399 . S
C69 C68 1.399 . S
C69 C70 1.381 . S
C70 H62 0.930 . S
C70 C66 1.390 . S
C70 C69 1.381 . S
N71 C64 1.286 . S
N71 C67 1.413 . S
H72 C77 0.930 . S
H73 C80 0.930 . S
H74 C82 0.930 . S
H75 C76 1.025 . S
C76 H75 1.025 . S
C76 N83 1.274 1_565 S
C77 H72 0.930 . S
C77 C78 1.397 . S
C77 C79 1.361 . S
C78 C77 1.397 . S
C78 C82 1.390 1_545 S
C79 C77 1.361 . S
C79 C80 1.393 . S
C79 N83 1.413 . S
C80 H73 0.930 . S
C80 C79 1.393 . S
C80 C81 1.404 . S
C81 C80 1.404 . S
C81 C82 1.378 1_545 S
C82 H74 0.930 . S
C82 C78 1.390 1_565 S
C82 C81 1.378 1_565 S
N83 C76 1.274 1_545 S
N83 C79 1.413 . S
H84 C89 0.930 . S
H85 C92 0.930 . S
H86 C94 0.930 . S
H87 C88 1.016 . S
C88 H87 1.016 . S
C88 N95 1.286 . S
C89 H84 0.930 . S
C89 C90 1.397 . S
C89 C91 1.361 . S
C90 C89 1.397 . S
C90 C94 1.390 . S
C91 C89 1.361 . S
C91 C92 1.393 . S
C91 N95 1.413 . S
C92 H85 0.930 . S
C92 C91 1.393 . S
C92 C93 1.399 . S
C93 C92 1.399 . S
C93 C94 1.381 . S
C94 H86 0.930 . S
C94 C90 1.390 . S
C94 C93 1.381 . S
N95 C88 1.286 . S
N95 C91 1.413 . S
Zn96 O102 1.969 1_455 S
Zn96 O103 1.965 . S
Zn96 O107 2.024 . S
Zn96 O112 1.969 1_455 S
Zn97 O104 1.990 . S
Zn97 O110 1.978 . S
Zn97 O111 1.954 1_455 S
Zn97 O113 2.010 1_455 S
C98 O99 1.229 . S
C98 O107 1.058 . S
O99 C98 1.229 . S
C100 O101 1.229 1_655 S
C100 O113 1.058 . S
O101 C100 1.229 1_455 S
O102 Zn96 1.969 1_655 S
O102 C105 1.267 1_655 S
O103 Zn96 1.965 . S
O103 C114 1.260 1_545 S
O104 Zn97 1.990 . S
O104 C114 1.258 . S
C105 O102 1.267 1_455 S
C105 O106 1.228 . S
O106 C105 1.228 . S
O107 Zn96 2.024 . S
O107 C98 1.058 . S
C108 O109 1.228 . S
C108 O110 1.267 1_655 S
O109 C108 1.228 . S
O110 Zn97 1.978 . S
O110 C108 1.267 1_455 S
O111 Zn97 1.954 1_655 S
O111 C115 1.260 1_565 S
O112 Zn96 1.969 1_655 S
O112 C115 1.258 . S
O113 Zn97 2.010 1_655 S
O113 C100 1.058 . S
C114 O103 1.260 1_565 S
C114 O104 1.258 . S
C115 O111 1.260 1_545 S
C115 O112 1.258 . S
Zn116 O122 1.969 . S
Zn116 O123 1.965 1_565 S
Zn116 O127 2.024 1_565 S
Zn116 O132 1.969 . S
Zn117 O124 1.969 . S
Zn117 O130 1.969 . S
Zn117 O131 1.965 1_545 S
Zn117 O133 2.024 1_545 S
C118 O119 1.229 1_545 S
C118 O127 1.058 . S
O119 C118 1.229 1_565 S
C120 O121 1.229 1_565 S
C120 O133 1.058 . S
O121 C120 1.229 1_545 S
O122 Zn116 1.969 . S
O122 C125 1.267 . S
O123 Zn116 1.965 1_545 S
O123 C134 1.260 . S
O124 Zn117 1.969 . S
O124 C134 1.258 . S
C125 O122 1.267 . S
C125 O126 1.228 1_565 S
O126 C125 1.228 1_545 S
O127 Zn116 2.024 1_545 S
O127 C118 1.058 . S
C128 O129 1.228 1_545 S
C128 O130 1.267 . S
O129 C128 1.228 1_565 S
O130 Zn117 1.969 . S
O130 C128 1.267 . S
O131 Zn117 1.965 1_565 S
O131 C135 1.260 . S
O132 Zn116 1.969 . S
O132 C135 1.258 . S
O133 Zn117 2.024 1_565 S
O133 C120 1.058 . S
C134 O123 1.260 . S
C134 O124 1.258 . S
C135 O131 1.260 . S
C135 O132 1.258 . S
Zn136 O142 1.969 . S
Zn136 O143 1.965 . S
Zn136 O147 2.024 . S
Zn136 O152 1.969 . S
Zn137 O144 1.969 . S
Zn137 O150 1.969 . S
Zn137 O151 1.965 . S
Zn137 O153 2.024 . S
C138 O139 1.229 . S
C138 O147 1.058 . S
O139 C138 1.229 . S
C140 O141 1.229 . S
C140 O153 1.058 . S
O141 C140 1.229 . S
O142 Zn136 1.969 . S
O142 C145 1.267 . S
O143 Zn136 1.965 . S
O143 C154 1.260 . S
O144 Zn137 1.969 . S
O144 C154 1.258 . S
C145 O142 1.267 . S
C145 O146 1.228 . S
O146 C145 1.228 . S
O147 Zn136 2.024 . S
O147 C138 1.058 . S
C148 O149 1.228 . S
C148 O150 1.267 . S
O149 C148 1.228 . S
O150 Zn137 1.969 . S
O150 C148 1.267 . S
O151 Zn137 1.965 . S
O151 C155 1.260 . S
O152 Zn136 1.969 . S
O152 C155 1.258 . S
O153 Zn137 2.024 . S
O153 C140 1.058 . S
C154 O143 1.260 . S
C154 O144 1.258 . S
C155 O151 1.260 . S
C155 O152 1.258 . S
Zn156 O162 1.969 . S
Zn156 O163 1.965 . S
Zn156 O167 2.024 . S
Zn156 O172 1.969 . S
Zn157 O164 1.969 . S
Zn157 O170 1.969 . S
Zn157 O171 1.965 . S
Zn157 O173 2.024 . S
C158 O159 1.229 . S
C158 O167 1.058 . S
O159 C158 1.229 . S
C160 O161 1.229 . S
C160 O173 1.058 . S
O161 C160 1.229 . S
O162 Zn156 1.969 . S
O162 C165 1.267 . S
O163 Zn156 1.965 . S
O163 C174 1.260 . S
O164 Zn157 1.969 . S
O164 C174 1.258 1_655 S
C165 O162 1.267 . S
C165 O166 1.228 . S
O166 C165 1.228 . S
O167 Zn156 2.024 . S
O167 C158 1.058 . S
C168 O169 1.228 . S
C168 O170 1.267 . S
O169 C168 1.228 . S
O170 Zn157 1.969 . S
O170 C168 1.267 . S
O171 Zn157 1.965 . S
O171 C175 1.260 1_655 S
O172 Zn156 1.969 . S
O172 C175 1.258 . S
O173 Zn157 2.024 . S
O173 C160 1.058 . S
C174 O163 1.260 . S
C174 O164 1.258 1_455 S
C175 O171 1.260 1_455 S
C175 O172 1.258 . S
H176 C194 0.951 . S
H177 C196 0.951 . S
H178 C198 0.950 . S
H179 C199 0.950 . S
H180 C201 0.950 . S
H181 C204 0.950 . S
H182 C205 0.950 . S
H183 C207 0.950 . S
H184 C208 0.950 . S
H185 C209 0.951 . S
H186 C211 0.956 . S
H187 C213 0.950 . S
H188 C214 0.950 . S
H189 C216 0.950 . S
H190 C219 0.950 . S
H191 C220 0.950 . S
H192 C222 0.950 . S
H193 C223 0.950 . S
C194 H176 0.951 . S
C194 C195 1.366 1_565 S
C194 C196 1.388 . S
C195 C194 1.366 1_545 S
C195 C199 1.384 . S
C196 H177 0.951 . S
C196 C194 1.388 . S
C196 C197 1.360 1_565 S
C197 C196 1.360 1_545 S
C197 C198 1.419 . S
C197 C200 1.499 . S
C198 H178 0.950 . S
C198 C197 1.419 . S
C198 C199 1.374 . S
C199 H179 0.950 . S
C199 C195 1.384 . S
C199 C198 1.374 . S
C200 C197 1.499 . S
C200 C201 1.343 1_545 S
C200 C202 1.418 . S
C201 H180 0.950 . S
C201 C200 1.343 1_565 S
C201 C217 1.377 . S
C202 C200 1.418 . S
C202 C203 1.524 . S
C202 C216 1.377 . S
C203 C202 1.524 . S
C203 C204 1.397 . S
C203 C208 1.363 . S
C204 H181 0.950 . S
C204 C203 1.397 . S
C204 C205 1.334 . S
C205 H182 0.950 . S
C205 C204 1.334 . S
C205 C206 1.287 . S
C206 C205 1.287 . S
C206 C207 1.524 . S
C206 H225 0.913 . S
C207 H183 0.950 . S
C207 C206 1.524 . S
C207 C208 1.415 . S
C208 H184 0.950 . S
C208 C203 1.363 . S
C208 C207 1.415 . S
C209 H185 0.951 . S
C209 C210 1.366 1_545 S
C209 C211 1.389 . S
C210 C209 1.366 1_565 S
C210 C214 1.385 . S
C211 H186 0.956 . S
C211 C209 1.389 . S
C211 C212 1.361 1_545 S
C212 C211 1.361 1_565 S
C212 C213 1.414 . S
C212 C215 1.499 . S
C213 H187 0.950 . S
C213 C212 1.414 . S
C213 C214 1.374 . S
C214 H188 0.950 . S
C214 C210 1.385 . S
C214 C213 1.374 . S
C215 C212 1.499 . S
C215 C216 1.373 1_565 S
C215 C217 1.389 . S
C216 H189 0.950 . S
C216 C202 1.377 . S
C216 C215 1.373 1_545 S
C217 C201 1.377 . S
C217 C215 1.389 . S
C217 C218 1.524 . S
C218 C217 1.524 . S
C218 C219 1.397 . S
C218 C223 1.363 . S
C219 H190 0.950 . S
C219 C218 1.397 . S
C219 C220 1.334 . S
C220 H191 0.950 . S
C220 C219 1.334 . S
C220 C221 1.287 . S
C221 C220 1.287 . S
C221 C222 1.524 . S
C221 H224 0.999 . S
C222 H192 0.950 . S
C222 C221 1.524 . S
C222 C223 1.415 . S
C223 H193 0.950 . S
C223 C218 1.363 . S
C223 C222 1.415 . S
H224 C221 0.999 . S
H225 C206 0.913 . S
H226 C244 0.951 . S
H227 C246 0.951 . S
H228 C248 0.950 . S
H229 C249 0.950 . S
H230 C251 0.950 . S
H231 C254 0.950 . S
H232 C255 0.950 . S
H233 C257 0.950 . S
H234 C258 0.950 . S
H235 C259 0.951 . S
H236 C261 0.951 . S
H237 C263 0.950 . S
H238 C264 0.950 . S
H239 C266 0.950 . S
H240 C269 0.950 . S
H241 C270 0.950 . S
H242 C272 0.950 . S
H243 C273 0.950 . S
C244 H226 0.951 . S
C244 C245 1.366 . S
C244 C246 1.388 . S
C245 C244 1.366 . S
C245 C249 1.385 . S
C246 H227 0.951 . S
C246 C244 1.388 . S
C246 C247 1.366 . S
C247 C246 1.366 . S
C247 C248 1.414 . S
C247 C250 1.499 . S
C248 H228 0.950 . S
C248 C247 1.414 . S
C248 C249 1.374 . S
C249 H229 0.950 . S
C249 C245 1.385 . S
C249 C248 1.374 . S
C250 C247 1.499 . S
C250 C251 1.373 . S
C250 C252 1.389 . S
C251 H230 0.950 . S
C251 C250 1.373 . S
C251 C267 1.377 . S
C252 C250 1.389 . S
C252 C253 1.524 . S
C252 C266 1.377 . S
C253 C252 1.524 . S
C253 C254 1.397 . S
C253 C258 1.363 . S
C254 H231 0.950 . S
C254 C253 1.397 . S
C254 C255 1.334 . S
C255 H232 0.950 . S
C255 C254 1.334 . S
C255 C256 1.287 . S
C256 C255 1.287 . S
C256 C257 1.524 . S
C256 H275 0.913 . S
C257 H233 0.950 . S
C257 C256 1.524 . S
C257 C258 1.415 . S
C258 H234 0.950 . S
C258 C253 1.363 . S
C258 C257 1.415 . S
C259 H235 0.951 . S
C259 C260 1.366 . S
C259 C261 1.388 . S
C260 C259 1.366 . S
C260 C264 1.385 . S
C261 H236 0.951 . S
C261 C259 1.388 . S
C261 C262 1.366 . S
C262 C261 1.366 . S
C262 C263 1.414 . S
C262 C265 1.499 . S
C263 H237 0.950 . S
C263 C262 1.414 . S
C263 C264 1.374 . S
C264 H238 0.950 . S
C264 C260 1.385 . S
C264 C263 1.374 . S
C265 C262 1.499 . S
C265 C266 1.373 . S
C265 C267 1.389 . S
C266 H239 0.950 . S
C266 C252 1.377 . S
C266 C265 1.373 . S
C267 C251 1.377 . S
C267 C265 1.389 . S
C267 C268 1.524 . S
C268 C267 1.524 . S
C268 C269 1.397 . S
C268 C273 1.363 . S
C269 H240 0.950 . S
C269 C268 1.397 . S
C269 C270 1.334 . S
C270 H241 0.950 . S
C270 C269 1.334 . S
C270 C271 1.287 . S
C271 C270 1.287 . S
C271 C272 1.524 . S
C271 H274 0.999 . S
C272 H242 0.950 . S
C272 C271 1.524 . S
C272 C273 1.415 . S
C273 H243 0.950 . S
C273 C268 1.363 . S
C273 C272 1.415 . S
H274 C271 0.999 . S
H275 C256 0.913 . S
H276 C294 0.951 . S
H277 C296 0.951 . S
H278 C298 0.950 . S
H279 C299 0.950 . S
H280 C301 0.950 . S
H281 C304 0.950 . S
H282 C305 0.950 . S
H283 C307 0.950 . S
H284 C308 0.950 . S
H285 C309 0.951 . S
H286 C311 0.951 . S
H287 C313 0.950 . S
H288 C314 0.950 . S
H289 C316 0.950 . S
H290 C319 0.950 . S
H291 C320 0.950 . S
H292 C322 0.950 . S
H293 C323 0.950 . S
C294 H276 0.951 . S
C294 C295 1.366 . S
C294 C296 1.388 . S
C295 C294 1.366 . S
C295 C299 1.385 . S
C296 H277 0.951 . S
C296 C294 1.388 . S
C296 C297 1.366 . S
C297 C296 1.366 . S
C297 C298 1.414 . S
C297 C300 1.499 . S
C298 H278 0.950 . S
C298 C297 1.414 . S
C298 C299 1.374 . S
C299 H279 0.950 . S
C299 C295 1.385 . S
C299 C298 1.374 . S
C300 C297 1.499 . S
C300 C301 1.373 . S
C300 C302 1.389 . S
C301 H280 0.950 . S
C301 C300 1.373 . S
C301 C317 1.377 . S
C302 C300 1.389 . S
C302 C303 1.524 . S
C302 C316 1.377 . S
C303 C302 1.524 . S
C303 C304 1.397 . S
C303 C308 1.363 . S
C304 H281 0.950 . S
C304 C303 1.397 . S
C304 C305 1.334 . S
C305 H282 0.950 . S
C305 C304 1.334 . S
C305 C306 1.287 . S
C306 C305 1.287 . S
C306 C307 1.524 . S
C306 H325 0.913 . S
C307 H283 0.950 . S
C307 C306 1.524 . S
C307 C308 1.415 . S
C308 H284 0.950 . S
C308 C303 1.363 . S
C308 C307 1.415 . S
C309 H285 0.951 . S
C309 C310 1.366 . S
C309 C311 1.388 . S
C310 C309 1.366 . S
C310 C314 1.385 . S
C311 H286 0.951 . S
C311 C309 1.388 . S
C311 C312 1.366 . S
C312 C311 1.366 . S
C312 C313 1.414 . S
C312 C315 1.499 . S
C313 H287 0.950 . S
C313 C312 1.414 . S
C313 C314 1.374 . S
C314 H288 0.950 . S
C314 C310 1.385 . S
C314 C313 1.374 . S
C315 C312 1.499 . S
C315 C316 1.373 . S
C315 C317 1.389 . S
C316 H289 0.950 . S
C316 C302 1.377 . S
C316 C315 1.373 . S
C317 C301 1.377 . S
C317 C315 1.389 . S
C317 C318 1.524 . S
C318 C317 1.524 . S
C318 C319 1.397 . S
C318 C323 1.363 . S
C319 H290 0.950 . S
C319 C318 1.397 . S
C319 C320 1.334 . S
C320 H291 0.950 . S
C320 C319 1.334 . S
C320 C321 1.287 . S
C321 C320 1.287 . S
C321 C322 1.524 . S
C321 H324 0.999 . S
C322 H292 0.950 . S
C322 C321 1.524 . S
C322 C323 1.415 . S
C323 H293 0.950 . S
C323 C318 1.363 . S
C323 C322 1.415 . S
H324 C321 0.999 . S
H325 C306 0.913 . S
H326 C344 0.951 . S
H327 C346 0.951 . S
H328 C348 0.950 . S
H329 C349 0.950 . S
H330 C351 0.950 . S
H331 C354 0.974 . S
H332 C355 0.950 1_655 S
H333 C357 0.950 . S
H334 C358 0.950 . S
H335 C359 0.951 1_655 S
H336 C361 0.951 . S
H337 C363 0.950 . S
H338 C364 0.950 . S
H339 C366 0.950 . S
H340 C369 0.950 . S
H341 C370 0.950 . S
H342 C372 0.950 . S
H343 C373 0.950 . S
C344 H326 0.951 . S
C344 C345 1.366 . S
C344 C346 1.388 . S
C345 C344 1.366 . S
C345 C349 1.385 . S
C346 H327 0.951 . S
C346 C344 1.388 . S
C346 C347 1.366 . S
C347 C346 1.366 . S
C347 C348 1.414 . S
C347 C350 1.499 . S
C348 H328 0.950 . S
C348 C347 1.414 . S
C348 C349 1.374 . S
C349 H329 0.950 . S
C349 C345 1.385 . S
C349 C348 1.374 . S
C350 C347 1.499 . S
C350 C351 1.373 . S
C350 C352 1.389 . S
C351 H330 0.950 . S
C351 C350 1.373 . S
C351 C367 1.377 . S
C352 C350 1.389 . S
C352 C353 1.524 . S
C352 C366 1.377 . S
C353 C352 1.524 . S
C353 C354 1.397 . S
C353 C358 1.363 . S
C354 H331 0.974 . S
C354 C353 1.397 . S
C354 C355 1.334 . S
C355 H332 0.950 1_455 S
C355 C354 1.334 . S
C355 C356 1.287 . S
C356 C355 1.287 . S
C356 C357 1.524 . S
C356 H375 0.913 . S
C357 H333 0.950 . S
C357 C356 1.524 . S
C357 C358 1.415 . S
C358 H334 0.950 . S
C358 C353 1.363 . S
C358 C357 1.415 . S
C359 H335 0.951 1_455 S
C359 C360 1.366 . S
C359 C361 1.388 . S
C360 C359 1.366 . S
C360 C364 1.385 . S
C361 H336 0.951 . S
C361 C359 1.388 . S
C361 C362 1.366 . S
C362 C361 1.366 . S
C362 C363 1.414 . S
C362 C365 1.499 . S
C363 H337 0.950 . S
C363 C362 1.414 . S
C363 C364 1.374 . S
C364 H338 0.950 . S
C364 C360 1.385 . S
C364 C363 1.374 . S
C365 C362 1.499 . S
C365 C366 1.373 . S
C365 C367 1.389 . S
C366 H339 0.950 . S
C366 C352 1.377 . S
C366 C365 1.373 . S
C367 C351 1.377 . S
C367 C365 1.389 . S
C367 C368 1.524 . S
C368 C367 1.524 . S
C368 C369 1.397 . S
C368 C373 1.363 . S
C369 H340 0.950 . S
C369 C368 1.397 . S
C369 C370 1.334 . S
C370 H341 0.950 . S
C370 C369 1.334 . S
C370 C371 1.287 . S
C371 C370 1.287 . S
C371 C372 1.524 . S
C371 H374 0.999 . S
C372 H342 0.950 . S
C372 C371 1.524 . S
C372 C373 1.415 . S
C373 H343 0.950 . S
C373 C368 1.363 . S
C373 C372 1.415 . S
H374 C371 0.999 . S
H375 C356 0.913 . S
H376 C394 0.951 . S
H377 C396 0.951 . S
H378 C398 0.950 . S
H379 C399 0.950 . S
H380 C401 0.950 . S
H381 C404 0.950 . S
H382 C405 0.950 . S
H383 C407 0.950 . S
H384 C408 0.950 . S
H385 C409 0.951 . S
H386 C411 0.951 . S
H387 C413 0.950 . S
H388 C414 0.950 . S
H389 C416 0.950 . S
H390 C419 0.950 . S
H391 C420 0.950 . S
H392 C422 0.950 . S
H393 C423 0.950 . S
C394 H376 0.951 . S
C394 C395 1.369 . S
C394 C396 1.388 . S
C395 C394 1.369 . S
C395 C399 1.381 1_545 S
C396 H377 0.951 . S
C396 C394 1.388 . S
C396 C397 1.363 1_545 S
C397 C396 1.363 1_565 S
C397 C398 1.417 . S
C397 C400 1.498 . S
C398 H378 0.950 . S
C398 C397 1.417 . S
C398 C399 1.374 . S
C399 H379 0.950 . S
C399 C395 1.381 1_565 S
C399 C398 1.374 . S
C400 C397 1.498 . S
C400 C401 1.378 . S
C400 C402 1.383 1_565 S
C401 H380 0.950 . S
C401 C400 1.378 . S
C401 C417 1.377 . S
C402 C400 1.383 1_545 S
C402 C403 1.524 . S
C402 C416 1.377 . S
C403 C402 1.524 . S
C403 C404 1.397 1_545 S
C403 C408 1.363 . S
C404 H381 0.950 . S
C404 C403 1.397 1_565 S
C404 C405 1.334 . S
C405 H382 0.950 . S
C405 C404 1.334 . S
C405 C406 1.287 1_565 S
C406 C405 1.287 1_545 S
C406 C407 1.524 . S
C406 H425 0.913 . S
C407 H383 0.950 . S
C407 C406 1.524 . S
C407 C408 1.415 . S
C408 H384 0.950 . S
C408 C403 1.363 . S
C408 C407 1.415 . S
C409 H385 0.951 . S
C409 C410 1.366 1_565 S
C409 C411 1.388 . S
C410 C409 1.366 1_545 S
C410 C414 1.385 . S
C411 H386 0.951 . S
C411 C409 1.388 . S
C411 C412 1.366 1_565 S
C412 C411 1.366 1_545 S
C412 C413 1.414 . S
C412 C415 1.499 . S
C413 H387 0.950 . S
C413 C412 1.414 . S
C413 C414 1.374 . S
C414 H388 0.950 . S
C414 C410 1.385 . S
C414 C413 1.374 . S
C415 C412 1.499 . S
C415 C416 1.373 . S
C415 C417 1.389 1_545 S
C416 H389 0.950 . S
C416 C402 1.377 . S
C416 C415 1.373 . S
C417 C401 1.377 . S
C417 C415 1.389 1_565 S
C417 C418 1.524 . S
C418 C417 1.524 . S
C418 C419 1.397 1_565 S
C418 C423 1.363 . S
C419 H390 0.950 . S
C419 C418 1.397 1_545 S
C419 C420 1.334 . S
C420 H391 0.950 . S
C420 C419 1.334 . S
C420 C421 1.287 1_545 S
C421 C420 1.287 1_565 S
C421 C422 1.524 . S
C421 H424 0.999 . S
C422 H392 0.950 . S
C422 C421 1.524 . S
C422 C423 1.415 . S
C423 H393 0.950 . S
C423 C418 1.363 . S
C423 C422 1.415 . S
H424 C421 0.999 . S
H425 C406 0.913 . S
H426 C444 0.951 . S
H427 C446 0.951 . S
H428 C448 0.950 . S
H429 C449 0.950 . S
H430 C451 0.950 . S
H431 C454 0.950 . S
H432 C455 0.950 . S
H433 C457 0.950 . S
H434 C458 0.950 . S
H435 C459 0.951 . S
H436 C461 0.951 . S
H437 C463 0.950 . S
H438 C464 0.950 . S
H439 C466 0.950 . S
H440 C469 0.950 . S
H441 C470 0.950 . S
H442 C472 0.950 . S
H443 C473 0.950 . S
C444 H426 0.951 . S
C444 C445 1.366 . S
C444 C446 1.388 . S
C445 C444 1.366 . S
C445 C449 1.385 . S
C446 H427 0.951 . S
C446 C444 1.388 . S
C446 C447 1.366 . S
C447 C446 1.366 . S
C447 C448 1.414 . S
C447 C450 1.499 . S
C448 H428 0.950 . S
C448 C447 1.414 . S
C448 C449 1.374 . S
C449 H429 0.950 . S
C449 C445 1.385 . S
C449 C448 1.374 . S
C450 C447 1.499 . S
C450 C451 1.373 . S
C450 C452 1.389 . S
C451 H430 0.950 . S
C451 C450 1.373 . S
C451 C467 1.377 . S
C452 C450 1.389 . S
C452 C453 1.524 . S
C452 C466 1.377 . S
C453 C452 1.524 . S
C453 C454 1.397 . S
C453 C458 1.363 . S
C454 H431 0.950 . S
C454 C453 1.397 . S
C454 C455 1.334 . S
C455 H432 0.950 . S
C455 C454 1.334 . S
C455 C456 1.287 . S
C456 C455 1.287 . S
C456 C457 1.524 . S
C456 H475 0.913 . S
C457 H433 0.950 . S
C457 C456 1.524 . S
C457 C458 1.415 . S
C458 H434 0.950 . S
C458 C453 1.363 . S
C458 C457 1.415 . S
C459 H435 0.951 . S
C459 C460 1.366 . S
C459 C461 1.388 . S
C460 C459 1.366 . S
C460 C464 1.385 . S
C461 H436 0.951 . S
C461 C459 1.388 . S
C461 C462 1.366 . S
C462 C461 1.366 . S
C462 C463 1.414 . S
C462 C465 1.499 . S
C463 H437 0.950 . S
C463 C462 1.414 . S
C463 C464 1.374 . S
C464 H438 0.950 . S
C464 C460 1.385 . S
C464 C463 1.374 . S
C465 C462 1.499 . S
C465 C466 1.373 . S
C465 C467 1.389 . S
C466 H439 0.950 . S
C466 C452 1.377 . S
C466 C465 1.373 . S
C467 C451 1.377 . S
C467 C465 1.389 . S
C467 C468 1.524 . S
C468 C467 1.524 . S
C468 C469 1.397 . S
C468 C473 1.363 . S
C469 H440 0.950 . S
C469 C468 1.397 . S
C469 C470 1.334 . S
C470 H441 0.950 . S
C470 C469 1.334 . S
C470 C471 1.287 . S
C471 C470 1.287 . S
C471 C472 1.524 . S
C471 H474 0.999 . S
C472 H442 0.950 . S
C472 C471 1.524 . S
C472 C473 1.415 . S
C473 H443 0.950 . S
C473 C468 1.363 . S
C473 C472 1.415 . S
H474 C471 0.999 . S
H475 C456 0.913 . S
H476 C494 0.951 1_554 S
H477 C496 0.951 . S
H478 C498 0.950 . S
H479 C499 0.950 . S
H480 C501 0.950 . S
H481 C504 0.950 . S
H482 C505 0.950 . S
H483 C507 0.950 . S
H484 C508 0.950 . S
H485 C509 0.951 . S
H486 C511 0.951 . S
H487 C513 0.950 . S
H488 C514 0.950 . S
H489 C516 0.950 . S
H490 C519 0.950 . S
H491 C520 0.950 . S
H492 C522 0.950 . S
H493 C523 0.950 . S
C494 H476 0.951 1_556 S
C494 C495 1.366 . S
C494 C496 1.388 . S
C495 C494 1.366 . S
C495 C499 1.385 . S
C496 H477 0.951 . S
C496 C494 1.388 . S
C496 C497 1.366 . S
C497 C496 1.366 . S
C497 C498 1.414 . S
C497 C500 1.499 . S
C498 H478 0.950 . S
C498 C497 1.414 . S
C498 C499 1.374 . S
C499 H479 0.950 . S
C499 C495 1.385 . S
C499 C498 1.374 . S
C500 C497 1.499 . S
C500 C501 1.373 . S
C500 C502 1.389 . S
C501 H480 0.950 . S
C501 C500 1.373 . S
C501 C517 1.377 . S
C502 C500 1.389 . S
C502 C503 1.524 . S
C502 C516 1.377 . S
C503 C502 1.524 . S
C503 C504 1.397 . S
C503 C508 1.363 . S
C504 H481 0.950 . S
C504 C503 1.397 . S
C504 C505 1.334 . S
C505 H482 0.950 . S
C505 C504 1.334 . S
C505 C506 1.287 . S
C506 C505 1.287 . S
C506 C507 1.524 . S
C506 H525 0.913 . S
C507 H483 0.950 . S
C507 C506 1.524 . S
C507 C508 1.415 . S
C508 H484 0.950 . S
C508 C503 1.363 . S
C508 C507 1.415 . S
C509 H485 0.951 . S
C509 C510 1.366 . S
C509 C511 1.388 . S
C510 C509 1.366 . S
C510 C514 1.385 . S
C511 H486 0.951 . S
C511 C509 1.388 . S
C511 C512 1.366 . S
C512 C511 1.366 . S
C512 C513 1.414 . S
C512 C515 1.499 . S
C513 H487 0.950 . S
C513 C512 1.414 . S
C513 C514 1.374 . S
C514 H488 0.950 . S
C514 C510 1.385 . S
C514 C513 1.374 . S
C515 C512 1.499 . S
C515 C516 1.373 . S
C515 C517 1.389 . S
C516 H489 0.950 . S
C516 C502 1.377 . S
C516 C515 1.373 . S
C517 C501 1.377 . S
C517 C515 1.389 . S
C517 C518 1.524 . S
C518 C517 1.524 . S
C518 C519 1.397 . S
C518 C523 1.363 . S
C519 H490 0.950 . S
C519 C518 1.397 . S
C519 C520 1.334 . S
C520 H491 0.950 . S
C520 C519 1.334 . S
C520 C521 1.287 . S
C521 C520 1.287 . S
C521 C522 1.524 . S
C521 H524 0.999 . S
C522 H492 0.950 . S
C522 C521 1.524 . S
C522 C523 1.415 . S
C523 H493 0.950 . S
C523 C518 1.363 . S
C523 C522 1.415 . S
H524 C521 0.999 . S
H525 C506 0.913 . S
H526 C544 0.951 . S
H527 C546 0.951 . S
H528 C548 0.950 . S
H529 C549 0.950 . S
H530 C551 0.950 . S
H531 C554 0.950 . S
H532 C555 0.950 . S
H533 C557 0.950 . S
H534 C558 0.950 . S
H535 C559 0.951 . S
H536 C561 0.951 . S
H537 C563 0.950 . S
H538 C564 0.950 . S
H539 C566 0.950 1_455 S
H540 C569 0.950 . S
H541 C570 0.950 . S
H542 C572 0.950 . S
H543 C573 0.950 . S
C544 H526 0.951 . S
C544 C545 1.366 . S
C544 C546 1.388 . S
C545 C544 1.366 . S
C545 C549 1.385 . S
C546 H527 0.951 . S
C546 C544 1.388 . S
C546 C547 1.366 . S
C547 C546 1.366 . S
C547 C548 1.414 . S
C547 C550 1.499 . S
C548 H528 0.950 . S
C548 C547 1.414 . S
C548 C549 1.374 . S
C549 H529 0.950 . S
C549 C545 1.385 . S
C549 C548 1.374 . S
C550 C547 1.499 . S
C550 C551 1.373 . S
C550 C552 1.389 . S
C551 H530 0.950 . S
C551 C550 1.373 . S
C551 C567 1.377 . S
C552 C550 1.389 . S
C552 C553 1.502 1_655 S
C552 C566 1.377 . S
C553 C552 1.502 1_455 S
C553 C554 1.374 1_455 S
C553 C558 1.407 . S
C554 H531 0.950 . S
C554 C553 1.374 1_655 S
C554 C555 1.334 . S
C555 H532 0.950 . S
C555 C554 1.334 . S
C555 C556 1.287 1_655 S
C556 C555 1.287 1_455 S
C556 C557 1.524 . S
C556 H575 0.913 . S
C557 H533 0.950 . S
C557 C556 1.524 . S
C557 C558 1.415 . S
C558 H534 0.950 . S
C558 C553 1.407 . S
C558 C557 1.415 . S
C559 H535 0.951 . S
C559 C560 1.366 . S
C559 C561 1.388 . S
C560 C559 1.366 . S
C560 C564 1.385 1_655 S
C561 H536 0.951 . S
C561 C559 1.388 . S
C561 C562 1.366 . S
C562 C561 1.366 . S
C562 C563 1.414 1_655 S
C562 C565 1.499 . S
C563 H537 0.950 . S
C563 C562 1.414 1_455 S
C563 C564 1.374 . S
C564 H538 0.950 . S
C564 C560 1.385 1_455 S
C564 C563 1.374 . S
C565 C562 1.499 . S
C565 C566 1.373 . S
C565 C567 1.389 . S
C566 H539 0.950 1_655 S
C566 C552 1.377 . S
C566 C565 1.373 . S
C567 C551 1.377 . S
C567 C565 1.389 . S
C567 C568 1.524 . S
C568 C567 1.524 . S
C568 C569 1.397 . S
C568 C573 1.363 . S
C569 H540 0.950 . S
C569 C568 1.397 . S
C569 C570 1.334 . S
C570 H541 0.950 . S
C570 C569 1.334 . S
C570 C571 1.287 . S
C571 C570 1.287 . S
C571 C572 1.524 . S
C571 H574 0.999 . S
C572 H542 0.950 . S
C572 C571 1.524 . S
C572 C573 1.415 . S
C573 H543 0.950 . S
C573 C568 1.363 . S
C573 C572 1.415 . S
H574 C571 0.999 . S
H575 C556 0.913 . S
H576 C594 0.951 . S
H577 C596 0.951 . S
H578 C598 0.950 . S
H579 C599 0.950 . S
H580 C601 0.950 . S
H581 C604 0.950 . S
H582 C605 0.950 . S
H583 C607 0.950 . S
H584 C608 0.950 . S
H585 C609 0.951 . S
H586 C611 0.941 1_655 S
H587 C613 0.950 . S
H588 C614 0.950 . S
H589 C616 0.950 . S
H590 C619 0.950 . S
H591 C620 0.950 . S
H592 C622 0.950 . S
H593 C623 0.950 . S
C594 H576 0.951 . S
C594 C595 1.366 . S
C594 C596 1.388 . S
C595 C594 1.366 . S
C595 C599 1.385 . S
C596 H577 0.951 . S
C596 C594 1.388 . S
C596 C597 1.366 . S
C597 C596 1.366 . S
C597 C598 1.414 . S
C597 C600 1.499 . S
C598 H578 0.950 . S
C598 C597 1.414 . S
C598 C599 1.374 . S
C599 H579 0.950 . S
C599 C595 1.385 . S
C599 C598 1.374 . S
C600 C597 1.499 . S
C600 C601 1.373 . S
C600 C602 1.389 . S
C601 H580 0.950 . S
C601 C600 1.373 . S
C601 C617 1.377 . S
C602 C600 1.389 . S
C602 C603 1.524 . S
C602 C616 1.377 . S
C603 C602 1.524 . S
C603 C604 1.397 . S
C603 C608 1.363 . S
C604 H581 0.950 . S
C604 C603 1.397 . S
C604 C605 1.334 . S
C605 H582 0.950 . S
C605 C604 1.334 . S
C605 C606 1.287 . S
C606 C605 1.287 . S
C606 C607 1.524 . S
C606 H625 0.913 . S
C607 H583 0.950 . S
C607 C606 1.524 . S
C607 C608 1.415 . S
C608 H584 0.950 . S
C608 C603 1.363 . S
C608 C607 1.415 . S
C609 H585 0.951 . S
C609 C610 1.366 1_655 S
C609 C611 1.383 1_655 S
C610 C609 1.366 1_455 S
C610 C614 1.385 . S
C611 H586 0.941 1_455 S
C611 C609 1.383 1_455 S
C611 C612 1.380 . S
C612 C611 1.380 . S
C612 C613 1.414 . S
C612 C615 1.499 . S
C613 H587 0.950 . S
C613 C612 1.414 . S
C613 C614 1.374 . S
C614 H588 0.950 . S
C614 C610 1.385 . S
C614 C613 1.374 . S
C615 C612 1.499 . S
C615 C616 1.373 . S
C615 C617 1.389 . S
C616 H589 0.950 . S
C616 C602 1.377 . S
C616 C615 1.373 . S
C617 C601 1.377 . S
C617 C615 1.389 . S
C617 C618 1.524 1_455 S
C618 C617 1.524 1_655 S
C618 C619 1.397 . S
C618 C623 1.363 . S
C619 H590 0.950 . S
C619 C618 1.397 . S
C619 C620 1.334 . S
C620 H591 0.950 . S
C620 C619 1.334 . S
C620 C621 1.287 . S
C621 C620 1.287 . S
C621 C622 1.524 . S
C621 H624 0.999 . S
C622 H592 0.950 . S
C622 C621 1.524 . S
C622 C623 1.415 . S
C623 H593 0.950 . S
C623 C618 1.363 . S
C623 C622 1.415 . S
H624 C621 0.999 . S
H625 C606 0.913 . S
H626 C644 0.951 . S
H627 C646 0.951 . S
H628 C648 0.950 . S
H629 C649 0.950 . S
H630 C651 0.950 . S
H631 C654 0.950 . S
H632 C655 0.950 . S
H633 C657 0.950 . S
H634 C658 0.950 . S
H635 C659 0.951 1_545 S
H636 C661 0.951 1_545 S
H637 C663 0.950 . S
H638 C664 0.950 . S
H639 C666 0.950 . S
H640 C669 0.950 . S
H641 C670 0.950 . S
H642 C672 0.950 . S
H643 C673 0.950 . S
C644 H626 0.951 . S
C644 C645 1.365 1_565 S
C644 C646 1.388 . S
C645 C644 1.365 1_545 S
C645 C649 1.386 . S
C646 H627 0.951 . S
C646 C644 1.388 . S
C646 C647 1.366 . S
C647 C646 1.366 . S
C647 C648 1.414 1_565 S
C647 C650 1.499 . S
C648 H628 0.950 . S
C648 C647 1.414 1_545 S
C648 C649 1.374 . S
C649 H629 0.950 . S
C649 C645 1.386 . S
C649 C648 1.374 . S
C650 C647 1.499 . S
C650 C651 1.373 . S
C650 C652 1.389 1_565 S
C651 H630 0.950 . S
C651 C650 1.373 . S
C651 C667 1.377 . S
C652 C650 1.389 1_545 S
C652 C653 1.524 . S
C652 C666 1.377 . S
C653 C652 1.524 . S
C653 C654 1.397 . S
C653 C658 1.363 . S
C654 H631 0.950 . S
C654 C653 1.397 . S
C654 C655 1.334 . S
C655 H632 0.950 . S
C655 C654 1.334 . S
C655 C656 1.287 . S
C656 C655 1.287 . S
C656 C657 1.524 . S
C656 H675 0.913 . S
C657 H633 0.950 . S
C657 C656 1.524 . S
C657 C658 1.415 . S
C658 H634 0.950 . S
C658 C653 1.363 . S
C658 C657 1.415 . S
C659 H635 0.951 1_565 S
C659 C660 1.366 . S
C659 C661 1.388 . S
C660 C659 1.366 . S
C660 C664 1.385 . S
C661 H636 0.951 1_565 S
C661 C659 1.388 . S
C661 C662 1.366 . S
C662 C661 1.366 . S
C662 C663 1.414 . S
C662 C665 1.499 . S
C663 H637 0.950 . S
C663 C662 1.414 . S
C663 C664 1.374 . S
C664 H638 0.950 . S
C664 C660 1.385 . S
C664 C663 1.374 . S
C665 C662 1.499 . S
C665 C666 1.373 1_565 S
C665 C667 1.389 . S
C666 H639 0.950 . S
C666 C652 1.377 . S
C666 C665 1.373 1_545 S
C667 C651 1.377 . S
C667 C665 1.389 . S
C667 C668 1.524 . S
C668 C667 1.524 . S
C668 C669 1.397 . S
C668 C673 1.363 . S
C669 H640 0.950 . S
C669 C668 1.397 . S
C669 C670 1.334 . S
C670 H641 0.950 . S
C670 C669 1.334 . S
C670 C671 1.287 . S
C671 C670 1.287 . S
C671 C672 1.524 . S
C671 H674 0.999 . S
C672 H642 0.950 . S
C672 C671 1.524 . S
C672 C673 1.415 . S
C673 H643 0.950 . S
C673 C668 1.363 . S
C673 C672 1.415 . S
H674 C671 0.999 . S
H675 C656 0.913 . S
H676 C694 0.951 . S
H677 C696 0.951 . S
H678 C698 0.950 . S
H679 C699 0.950 . S
H680 C701 0.950 . S
H681 C704 0.950 . S
H682 C705 0.950 . S
H683 C707 0.950 . S
H684 C708 0.950 . S
H685 C709 0.951 . S
H686 C711 0.951 . S
H687 C713 0.950 . S
H688 C714 0.950 . S
H689 C716 0.950 . S
H690 C719 0.950 . S
H691 C720 0.950 . S
H692 C722 0.950 . S
H693 C723 0.950 . S
C694 H676 0.951 . S
C694 C695 1.366 . S
C694 C696 1.388 . S
C695 C694 1.366 . S
C695 C699 1.385 . S
C696 H677 0.951 . S
C696 C694 1.388 . S
C696 C697 1.366 . S
C697 C696 1.366 . S
C697 C698 1.414 . S
C697 C700 1.499 . S
C698 H678 0.950 . S
C698 C697 1.414 . S
C698 C699 1.374 . S
C699 H679 0.950 . S
C699 C695 1.385 . S
C699 C698 1.374 . S
C700 C697 1.499 . S
C700 C701 1.373 . S
C700 C702 1.389 . S
C701 H680 0.950 . S
C701 C700 1.373 . S
C701 C717 1.377 . S
C702 C700 1.389 . S
C702 C703 1.524 . S
C702 C716 1.377 . S
C703 C702 1.524 . S
C703 C704 1.397 . S
C703 C708 1.363 . S
C704 H681 0.950 . S
C704 C703 1.397 . S
C704 C705 1.334 . S
C705 H682 0.950 . S
C705 C704 1.334 . S
C705 C706 1.287 . S
C706 C705 1.287 . S
C706 C707 1.524 . S
C706 H725 0.913 . S
C707 H683 0.950 . S
C707 C706 1.524 . S
C707 C708 1.415 . S
C708 H684 0.950 . S
C708 C703 1.363 . S
C708 C707 1.415 . S
C709 H685 0.951 . S
C709 C710 1.366 . S
C709 C711 1.388 . S
C710 C709 1.366 . S
C710 C714 1.385 . S
C711 H686 0.951 . S
C711 C709 1.388 . S
C711 C712 1.366 . S
C712 C711 1.366 . S
C712 C713 1.414 . S
C712 C715 1.499 . S
C713 H687 0.950 . S
C713 C712 1.414 . S
C713 C714 1.374 . S
C714 H688 0.950 . S
C714 C710 1.385 . S
C714 C713 1.374 . S
C715 C712 1.499 . S
C715 C716 1.373 . S
C715 C717 1.389 . S
C716 H689 0.950 . S
C716 C702 1.377 . S
C716 C715 1.373 . S
C717 C701 1.377 . S
C717 C715 1.389 . S
C717 C718 1.524 . S
C718 C717 1.524 . S
C718 C719 1.397 . S
C718 C723 1.363 . S
C719 H690 0.950 . S
C719 C718 1.397 . S
C719 C720 1.334 . S
C720 H691 0.950 . S
C720 C719 1.334 . S
C720 C721 1.287 . S
C721 C720 1.287 . S
C721 C722 1.524 . S
C721 H724 0.999 . S
C722 H692 0.950 . S
C722 C721 1.524 . S
C722 C723 1.415 . S
C723 H693 0.950 . S
C723 C718 1.363 . S
C723 C722 1.415 . S
H724 C721 0.999 . S
H725 C706 0.913 . S
H726 C744 0.951 . S
H727 C746 0.951 . S
H728 C748 0.950 . S
H729 C749 0.950 . S
H730 C751 0.950 . S
H731 C754 0.950 . S
H732 C755 0.950 . S
H733 C757 0.950 . S
H734 C758 0.950 . S
H735 C759 0.951 . S
H736 C761 0.951 . S
H737 C763 0.950 . S
H738 C764 0.950 . S
H739 C766 0.950 . S
H740 C769 0.950 . S
H741 C770 0.950 . S
H742 C772 0.950 . S
H743 C773 0.950 . S
C744 H726 0.951 . S
C744 C745 1.366 . S
C744 C746 1.388 . S
C745 C744 1.366 . S
C745 C749 1.385 . S
C746 H727 0.951 . S
C746 C744 1.388 . S
C746 C747 1.366 . S
C747 C746 1.366 . S
C747 C748 1.414 . S
C747 C750 1.499 . S
C748 H728 0.950 . S
C748 C747 1.414 . S
C748 C749 1.374 . S
C749 H729 0.950 . S
C749 C745 1.385 . S
C749 C748 1.374 . S
C750 C747 1.499 . S
C750 C751 1.373 . S
C750 C752 1.389 . S
C751 H730 0.950 . S
C751 C750 1.373 . S
C751 C767 1.377 . S
C752 C750 1.389 . S
C752 C753 1.524 . S
C752 C766 1.377 . S
C753 C752 1.524 . S
C753 C754 1.397 . S
C753 C758 1.363 . S
C754 H731 0.950 . S
C754 C753 1.397 . S
C754 C755 1.334 . S
C755 H732 0.950 . S
C755 C754 1.334 . S
C755 C756 1.287 . S
C756 C755 1.287 . S
C756 C757 1.524 . S
C756 H775 0.913 . S
C757 H733 0.950 . S
C757 C756 1.524 . S
C757 C758 1.415 . S
C758 H734 0.950 . S
C758 C753 1.363 . S
C758 C757 1.415 . S
C759 H735 0.951 . S
C759 C760 1.366 . S
C759 C761 1.388 . S
C760 C759 1.366 . S
C760 C764 1.385 . S
C761 H736 0.951 . S
C761 C759 1.388 . S
C761 C762 1.366 . S
C762 C761 1.366 . S
C762 C763 1.414 . S
C762 C765 1.499 . S
C763 H737 0.950 . S
C763 C762 1.414 . S
C763 C764 1.374 . S
C764 H738 0.950 . S
C764 C760 1.385 . S
C764 C763 1.374 . S
C765 C762 1.499 . S
C765 C766 1.373 . S
C765 C767 1.389 . S
C766 H739 0.950 . S
C766 C752 1.377 . S
C766 C765 1.373 . S
C767 C751 1.377 . S
C767 C765 1.389 . S
C767 C768 1.524 . S
C768 C767 1.524 . S
C768 C769 1.397 . S
C768 C773 1.363 . S
C769 H740 0.950 . S
C769 C768 1.397 . S
C769 C770 1.334 . S
C770 H741 0.950 . S
C770 C769 1.334 . S
C770 C771 1.287 . S
C771 C770 1.287 . S
C771 C772 1.524 . S
C771 H774 0.999 . S
C772 H742 0.950 . S
C772 C771 1.524 . S
C772 C773 1.415 . S
C773 H743 0.950 . S
C773 C768 1.363 . S
C773 C772 1.415 . S
H774 C771 0.999 . S
H775 C756 0.913 . S
H776 C794 0.951 1_554 S
H777 C796 0.951 . S
H778 C798 0.950 . S
H779 C799 0.950 . S
H780 C801 0.950 . S
H781 C804 0.950 . S
H782 C805 0.950 . S
H783 C807 0.950 . S
H784 C808 0.949 1_556 S
H785 C809 0.951 . S
H786 C811 0.951 . S
H787 C813 0.950 . S
H788 C814 0.950 . S
H789 C816 0.950 . S
H790 C819 0.950 . S
H791 C820 0.950 . S
H792 C822 0.950 . S
H793 C823 0.950 . S
C794 H776 0.951 1_556 S
C794 C795 1.366 . S
C794 C796 1.388 . S
C795 C794 1.366 . S
C795 C799 1.385 . S
C796 H777 0.951 . S
C796 C794 1.388 . S
C796 C797 1.366 . S
C797 C796 1.366 . S
C797 C798 1.414 . S
C797 C800 1.499 . S
C798 H778 0.950 . S
C798 C797 1.414 . S
C798 C799 1.374 . S
C799 H779 0.950 . S
C799 C795 1.385 . S
C799 C798 1.374 . S
C800 C797 1.499 . S
C800 C801 1.373 . S
C800 C802 1.389 . S
C801 H780 0.950 . S
C801 C800 1.373 . S
C801 C817 1.377 . S
C802 C800 1.389 . S
C802 C803 1.524 . S
C802 C816 1.377 . S
C803 C802 1.524 . S
C803 C804 1.397 . S
C803 C808 1.363 1_556 S
C804 H781 0.950 . S
C804 C803 1.397 . S
C804 C805 1.334 1_556 S
C805 H782 0.950 . S
C805 C804 1.334 1_554 S
C805 C806 1.287 . S
C806 C805 1.287 . S
C806 C807 1.524 . S
C806 H825 0.913 . S
C807 H783 0.950 . S
C807 C806 1.524 . S
C807 C808 1.415 . S
C808 H784 0.949 1_554 S
C808 C803 1.363 1_554 S
C808 C807 1.415 . S
C809 H785 0.951 . S
C809 C810 1.352 1_655 S
C809 C811 1.388 . S
C810 C809 1.352 1_455 S
C810 C814 1.393 . S
C811 H786 0.951 . S
C811 C809 1.388 . S
C811 C812 1.366 . S
C812 C811 1.366 . S
C812 C813 1.414 1_655 S
C812 C815 1.499 . S
C813 H787 0.950 . S
C813 C812 1.414 1_455 S
C813 C814 1.374 . S
C814 H788 0.950 . S
C814 C810 1.393 . S
C814 C813 1.374 . S
C815 C812 1.499 . S
C815 C816 1.373 . S
C815 C817 1.389 . S
C816 H789 0.950 . S
C816 C802 1.377 . S
C816 C815 1.373 . S
C817 C801 1.377 . S
C817 C815 1.389 . S
C817 C818 1.524 . S
C818 C817 1.524 . S
C818 C819 1.397 1_655 S
C818 C823 1.363 . S
C819 H790 0.950 . S
C819 C818 1.397 1_455 S
C819 C820 1.334 . S
C820 H791 0.950 . S
C820 C819 1.334 . S
C820 C821 1.287 . S
C821 C820 1.287 . S
C821 C822 1.524 1_455 S
C821 H824 0.999 . S
C822 H792 0.950 . S
C822 C821 1.524 1_655 S
C822 C823 1.415 . S
C823 H793 0.950 . S
C823 C818 1.363 . S
C823 C822 1.415 . S
H824 C821 0.999 . S
H825 C806 0.913 . S
H826 C844 0.951 1_554 S
H827 C846 0.951 . S
H828 C848 0.950 . S
H829 C849 0.950 . S
H830 C851 0.950 . S
H831 C854 0.950 . S
H832 C855 0.950 . S
H833 C857 0.950 1_554 S
H834 C858 0.950 . S
H835 C859 0.951 . S
H836 C861 0.951 . S
H837 C863 0.950 . S
H838 C864 0.950 . S
H839 C866 0.950 . S
H840 C869 0.950 . S
H841 C870 0.950 . S
H842 C872 0.950 . S
H843 C873 0.950 . S
C844 H826 0.951 1_556 S
C844 C845 1.366 1_565 S
C844 C846 1.388 . S
C845 C844 1.366 1_545 S
C845 C849 1.384 . S
C846 H827 0.951 . S
C846 C844 1.388 . S
C846 C847 1.366 1_565 S
C847 C846 1.366 1_545 S
C847 C848 1.414 . S
C847 C850 1.499 . S
C848 H828 0.950 . S
C848 C847 1.414 . S
C848 C849 1.374 . S
C849 H829 0.950 . S
C849 C845 1.384 . S
C849 C848 1.374 . S
C850 C847 1.499 . S
C850 C851 1.373 . S
C850 C852 1.389 1_545 S
C851 H830 0.950 . S
C851 C850 1.373 . S
C851 C867 1.377 . S
C852 C850 1.389 1_565 S
C852 C853 1.524 . S
C852 C866 1.377 . S
C853 C852 1.524 . S
C853 C854 1.397 . S
C853 C858 1.363 . S
C854 H831 0.950 . S
C854 C853 1.397 . S
C854 C855 1.334 . S
C855 H832 0.950 . S
C855 C854 1.334 . S
C855 C856 1.287 . S
C856 C855 1.287 . S
C856 C857 1.524 . S
C856 H875 0.913 . S
C857 H833 0.950 1_556 S
C857 C856 1.524 . S
C857 C858 1.415 . S
C858 H834 0.950 . S
C858 C853 1.363 . S
C858 C857 1.415 . S
C859 H835 0.951 . S
C859 C860 1.366 . S
C859 C861 1.388 . S
C860 C859 1.366 . S
C860 C864 1.385 . S
C861 H836 0.951 . S
C861 C859 1.388 . S
C861 C862 1.366 . S
C862 C861 1.366 . S
C862 C863 1.414 . S
C862 C865 1.499 . S
C863 H837 0.950 . S
C863 C862 1.414 . S
C863 C864 1.374 . S
C864 H838 0.950 . S
C864 C860 1.385 . S
C864 C863 1.374 . S
C865 C862 1.499 . S
C865 C866 1.373 1_545 S
C865 C867 1.389 . S
C866 H839 0.950 . S
C866 C852 1.377 . S
C866 C865 1.373 1_565 S
C867 C851 1.377 . S
C867 C865 1.389 . S
C867 C868 1.524 . S
C868 C867 1.524 . S
C868 C869 1.397 . S
C868 C873 1.363 . S
C869 H840 0.950 . S
C869 C868 1.397 . S
C869 C870 1.334 . S
C870 H841 0.950 . S
C870 C869 1.334 . S
C870 C871 1.287 . S
C871 C870 1.287 . S
C871 C872 1.524 . S
C871 H874 0.999 . S
C872 H842 0.950 . S
C872 C871 1.524 . S
C872 C873 1.415 . S
C873 H843 0.950 . S
C873 C868 1.363 . S
C873 C872 1.415 . S
H874 C871 0.999 . S
H875 C856 0.913 . S
H876 C894 0.951 . S
H877 C896 0.951 . S
H878 C898 0.950 . S
H879 C899 0.950 1_554 S
H880 C901 0.950 . S
H881 C904 0.950 . S
H882 C905 0.950 . S
H883 C907 0.950 . S
H884 C908 0.950 . S
H885 C909 0.951 . S
H886 C911 0.951 . S
H887 C913 0.950 . S
H888 C914 0.950 . S
H889 C916 0.950 . S
H890 C919 0.950 . S
H891 C920 0.950 . S
H892 C922 0.950 . S
H893 C923 0.950 . S
C894 H876 0.951 . S
C894 C895 1.366 . S
C894 C896 1.388 . S
C895 C894 1.366 . S
C895 C899 1.385 . S
C896 H877 0.951 . S
C896 C894 1.388 . S
C896 C897 1.366 . S
C897 C896 1.366 . S
C897 C898 1.414 . S
C897 C900 1.499 . S
C898 H878 0.950 . S
C898 C897 1.414 . S
C898 C899 1.374 . S
C899 H879 0.950 1_556 S
C899 C895 1.385 . S
C899 C898 1.374 . S
C900 C897 1.499 . S
C900 C901 1.373 . S
C900 C902 1.389 . S
C901 H880 0.950 . S
C901 C900 1.373 . S
C901 C917 1.377 . S
C902 C900 1.389 . S
C902 C903 1.524 . S
C902 C916 1.377 . S
C903 C902 1.524 . S
C903 C904 1.397 . S
C903 C908 1.363 . S
C904 H881 0.950 . S
C904 C903 1.397 . S
C904 C905 1.334 . S
C905 H882 0.950 . S
C905 C904 1.334 . S
C905 C906 1.287 . S
C906 C905 1.287 . S
C906 C907 1.524 . S
C906 H925 0.913 . S
C907 H883 0.950 . S
C907 C906 1.524 . S
C907 C908 1.415 . S
C908 H884 0.950 . S
C908 C903 1.363 . S
C908 C907 1.415 . S
C909 H885 0.951 . S
C909 C910 1.366 . S
C909 C911 1.388 . S
C910 C909 1.366 . S
C910 C914 1.385 . S
C911 H886 0.951 . S
C911 C909 1.388 . S
C911 C912 1.366 . S
C912 C911 1.366 . S
C912 C913 1.414 . S
C912 C915 1.499 . S
C913 H887 0.950 . S
C913 C912 1.414 . S
C913 C914 1.374 . S
C914 H888 0.950 . S
C914 C910 1.385 . S
C914 C913 1.374 . S
C915 C912 1.499 . S
C915 C916 1.373 . S
C915 C917 1.389 . S
C916 H889 0.950 . S
C916 C902 1.377 . S
C916 C915 1.373 . S
C917 C901 1.377 . S
C917 C915 1.389 . S
C917 C918 1.524 . S
C918 C917 1.524 . S
C918 C919 1.397 . S
C918 C923 1.363 . S
C919 H890 0.950 . S
C919 C918 1.397 . S
C919 C920 1.334 . S
C920 H891 0.950 . S
C920 C919 1.334 . S
C920 C921 1.287 . S
C921 C920 1.287 . S
C921 C922 1.524 1_556 S
C921 H924 0.999 1_556 S
C922 H892 0.950 . S
C922 C921 1.524 1_554 S
C922 C923 1.415 1_554 S
C923 H893 0.950 . S
C923 C918 1.363 . S
C923 C922 1.415 1_556 S
H924 C921 0.999 1_554 S
H925 C906 0.913 . S
H926 C944 0.951 1_554 S
H927 C946 0.951 . S
H928 C948 0.950 . S
H929 C949 0.950 . S
H930 C951 0.950 . S
H931 C954 0.950 . S
H932 C955 0.950 . S
H933 C957 0.950 . S
H934 C958 0.950 . S
H935 C959 0.951 . S
H936 C961 0.951 . S
H937 C963 0.950 . S
H938 C964 0.950 . S
H939 C966 0.950 . S
H940 C969 0.950 . S
H941 C970 0.950 . S
H942 C972 0.950 . S
H943 C973 0.950 . S
C944 H926 0.951 1_556 S
C944 C945 1.366 . S
C944 C946 1.388 . S
C945 C944 1.366 . S
C945 C949 1.385 . S
C946 H927 0.951 . S
C946 C944 1.388 . S
C946 C947 1.366 . S
C947 C946 1.366 . S
C947 C948 1.414 . S
C947 C950 1.499 . S
C948 H928 0.950 . S
C948 C947 1.414 . S
C948 C949 1.374 . S
C949 H929 0.950 . S
C949 C945 1.385 . S
C949 C948 1.374 . S
C950 C947 1.499 . S
C950 C951 1.373 . S
C950 C952 1.389 . S
C951 H930 0.950 . S
C951 C950 1.373 . S
C951 C967 1.377 . S
C952 C950 1.389 . S
C952 C953 1.524 . S
C952 C966 1.377 . S
C953 C952 1.524 . S
C953 C954 1.397 . S
C953 C958 1.363 . S
C954 H931 0.950 . S
C954 C953 1.397 . S
C954 C955 1.334 . S
C955 H932 0.950 . S
C955 C954 1.334 . S
C955 C956 1.287 . S
C956 C955 1.287 . S
C956 C957 1.524 . S
C956 H975 0.913 . S
C957 H933 0.950 . S
C957 C956 1.524 . S
C957 C958 1.415 . S
C958 H934 0.950 . S
C958 C953 1.363 . S
C958 C957 1.415 . S
C959 H935 0.951 . S
C959 C960 1.366 . S
C959 C961 1.388 . S
C960 C959 1.366 . S
C960 C964 1.385 . S
C961 H936 0.951 . S
C961 C959 1.388 . S
C961 C962 1.366 . S
C962 C961 1.366 . S
C962 C963 1.414 . S
C962 C965 1.499 . S
C963 H937 0.950 . S
C963 C962 1.414 . S
C963 C964 1.374 . S
C964 H938 0.950 . S
C964 C960 1.385 . S
C964 C963 1.374 . S
C965 C962 1.499 . S
C965 C966 1.373 . S
C965 C967 1.389 . S
C966 H939 0.950 . S
C966 C952 1.377 . S
C966 C965 1.373 . S
C967 C951 1.377 . S
C967 C965 1.389 . S
C967 C968 1.524 . S
C968 C967 1.524 . S
C968 C969 1.397 . S
C968 C973 1.363 . S
C969 H940 0.950 . S
C969 C968 1.397 . S
C969 C970 1.334 . S
C970 H941 0.950 . S
C970 C969 1.334 . S
C970 C971 1.287 . S
C971 C970 1.287 . S
C971 C972 1.524 . S
C971 H974 0.999 . S
C972 H942 0.950 . S
C972 C971 1.524 . S
C972 C973 1.415 . S
C973 H943 0.950 . S
C973 C968 1.363 . S
C973 C972 1.415 . S
H974 C971 0.999 . S
H975 C956 0.913 . S
H976 C994 0.951 . S
H977 C996 0.951 . S
H978 C998 0.950 . S
H979 C999 0.950 . S
H980 C1001 0.950 . S
H981 C1004 0.950 1_454 S
H982 C1005 0.950 . S
H983 C1007 0.950 . S
H984 C1008 0.950 . S
H985 C1009 0.951 . S
H986 C1011 0.951 . S
H987 C1013 0.950 . S
H988 C1014 0.950 . S
H989 C1016 0.950 . S
H990 C1019 0.950 . S
H991 C1020 0.950 . S
H992 C1022 0.950 . S
H993 C1023 0.950 . S
C994 H976 0.951 . S
C994 C995 1.366 1_556 S
C994 C996 1.388 . S
C995 C994 1.366 1_554 S
C995 C999 1.385 . S
C996 H977 0.951 . S
C996 C994 1.388 . S
C996 C997 1.366 . S
C997 C996 1.366 . S
C997 C998 1.414 1_556 S
C997 C1000 1.499 . S
C998 H978 0.950 . S
C998 C997 1.414 1_554 S
C998 C999 1.374 . S
C999 H979 0.950 . S
C999 C995 1.385 . S
C999 C998 1.374 . S
C1000 C997 1.499 . S
C1000 C1001 1.373 . S
C1000 C1002 1.389 . S
C1001 H980 0.950 . S
C1001 C1000 1.373 . S
C1001 C1017 1.377 . S
C1002 C1000 1.389 . S
C1002 C1003 1.524 1_455 S
C1002 C1016 1.377 . S
C1003 C1002 1.524 1_655 S
C1003 C1004 1.397 . S
C1003 C1008 1.363 . S
C1004 H981 0.950 1_656 S
C1004 C1003 1.397 . S
C1004 C1005 1.334 1_556 S
C1005 H982 0.950 . S
C1005 C1004 1.334 1_554 S
C1005 C1006 1.287 1_554 S
C1006 C1005 1.287 1_556 S
C1006 C1007 1.524 . S
C1006 H1025 0.916 . S
C1007 H983 0.950 . S
C1007 C1006 1.524 . S
C1007 C1008 1.415 . S
C1008 H984 0.950 . S
C1008 C1003 1.363 . S
C1008 C1007 1.415 . S
C1009 H985 0.951 . S
C1009 C1010 1.366 . S
C1009 C1011 1.388 . S
C1010 C1009 1.366 . S
C1010 C1014 1.385 . S
C1011 H986 0.951 . S
C1011 C1009 1.388 . S
C1011 C1012 1.366 . S
C1012 C1011 1.366 . S
C1012 C1013 1.414 . S
C1012 C1015 1.499 . S
C1013 H987 0.950 . S
C1013 C1012 1.414 . S
C1013 C1014 1.374 . S
C1014 H988 0.950 . S
C1014 C1010 1.385 . S
C1014 C1013 1.374 . S
C1015 C1012 1.499 . S
C1015 C1016 1.373 . S
C1015 C1017 1.389 . S
C1016 H989 0.950 . S
C1016 C1002 1.377 . S
C1016 C1015 1.373 . S
C1017 C1001 1.377 . S
C1017 C1015 1.389 . S
C1017 C1018 1.524 . S
C1018 C1017 1.524 . S
C1018 C1019 1.397 . S
C1018 C1023 1.363 . S
C1019 H990 0.950 . S
C1019 C1018 1.397 . S
C1019 C1020 1.334 . S
C1020 H991 0.950 . S
C1020 C1019 1.334 . S
C1020 C1021 1.287 . S
C1021 C1020 1.287 . S
C1021 C1022 1.524 . S
C1021 H1024 0.999 . S
C1022 H992 0.950 . S
C1022 C1021 1.524 . S
C1022 C1023 1.415 . S
C1023 H993 0.950 . S
C1023 C1018 1.363 . S
C1023 C1022 1.415 . S
H1024 C1021 0.999 . S
H1025 C1006 0.916 . S
H1026 C1044 0.951 . S
H1027 C1046 0.951 . S
H1028 C1048 0.949 . S
H1029 C1049 0.950 . S
H1030 C1051 0.950 . S
H1031 C1054 0.950 . S
H1032 C1055 0.950 1_556 S
H1033 C1057 0.950 . S
H1034 C1058 0.950 . S
H1035 C1059 0.951 . S
H1036 C1061 0.951 . S
H1037 C1063 0.950 . S
H1038 C1064 0.950 . S
H1039 C1066 0.950 . S
H1040 C1069 0.950 . S
H1041 C1070 0.950 . S
H1042 C1072 0.950 . S
H1043 C1073 0.950 . S
C1044 H1026 0.951 . S
C1044 C1045 1.368 . S
C1044 C1046 1.388 . S
C1045 C1044 1.368 . S
C1045 C1049 1.384 1_544 S
C1046 H1027 0.951 . S
C1046 C1044 1.388 . S
C1046 C1047 1.366 1_554 S
C1047 C1046 1.366 1_556 S
C1047 C1048 1.420 . S
C1047 C1050 1.499 . S
C1048 H1028 0.949 . S
C1048 C1047 1.420 . S
C1048 C1049 1.372 1_545 S
C1049 H1029 0.950 . S
C1049 C1045 1.384 1_566 S
C1049 C1048 1.372 1_565 S
C1050 C1047 1.499 . S
C1050 C1051 1.373 1_545 S
C1050 C1052 1.389 . S
C1051 H1030 0.950 . S
C1051 C1050 1.373 1_565 S
C1051 C1067 1.377 . S
C1052 C1050 1.389 . S
C1052 C1053 1.524 . S
C1052 C1066 1.377 . S
C1053 C1052 1.524 . S
C1053 C1054 1.397 . S
C1053 C1058 1.363 1_556 S
C1054 H1031 0.950 . S
C1054 C1053 1.397 . S
C1054 C1055 1.334 1_556 S
C1055 H1032 0.950 1_554 S
C1055 C1054 1.334 1_554 S
C1055 C1056 1.287 . S
C1056 C1055 1.287 . S
C1056 C1057 1.524 . S
C1056 H1075 0.913 . S
C1057 H1033 0.950 . S
C1057 C1056 1.524 . S
C1057 C1058 1.415 . S
C1058 H1034 0.950 . S
C1058 C1053 1.363 1_554 S
C1058 C1057 1.415 . S
C1059 H1035 0.951 . S
C1059 C1060 1.366 . S
C1059 C1061 1.388 . S
C1060 C1059 1.366 . S
C1060 C1064 1.385 . S
C1061 H1036 0.951 . S
C1061 C1059 1.388 . S
C1061 C1062 1.366 . S
C1062 C1061 1.366 . S
C1062 C1063 1.414 . S
C1062 C1065 1.499 . S
C1063 H1037 0.950 . S
C1063 C1062 1.414 . S
C1063 C1064 1.374 . S
C1064 H1038 0.950 . S
C1064 C1060 1.385 . S
C1064 C1063 1.374 . S
C1065 C1062 1.499 . S
C1065 C1066 1.373 . S
C1065 C1067 1.389 1_545 S
C1066 H1039 0.950 . S
C1066 C1052 1.377 . S
C1066 C1065 1.373 . S
C1067 C1051 1.377 . S
C1067 C1065 1.389 1_565 S
C1067 C1068 1.524 . S
C1068 C1067 1.524 . S
C1068 C1069 1.397 . S
C1068 C1073 1.363 . S
C1069 H1040 0.950 . S
C1069 C1068 1.397 . S
C1069 C1070 1.334 . S
C1070 H1041 0.950 . S
C1070 C1069 1.334 . S
C1070 C1071 1.287 . S
C1071 C1070 1.287 . S
C1071 C1072 1.524 . S
C1071 H1074 0.999 . S
C1072 H1042 0.950 . S
C1072 C1071 1.524 . S
C1072 C1073 1.415 . S
C1073 H1043 0.950 . S
C1073 C1068 1.363 . S
C1073 C1072 1.415 . S
H1074 C1071 0.999 . S
H1075 C1056 0.913 . S
H1076 C1094 0.951 . S
H1077 C1096 0.951 . S
H1078 C1098 0.950 . S
H1079 C1099 0.950 . S
H1080 C1101 0.950 . S
H1081 C1104 0.950 . S
H1082 C1105 0.950 . S
H1083 C1107 0.950 . S
H1084 C1108 0.950 . S
H1085 C1109 0.951 . S
H1086 C1111 0.951 . S
H1087 C1113 0.950 . S
H1088 C1114 0.950 . S
H1089 C1116 0.950 . S
H1090 C1119 0.950 . S
H1091 C1120 0.950 . S
H1092 C1122 0.950 . S
H1093 C1123 0.950 . S
C1094 H1076 0.951 . S
C1094 C1095 1.366 . S
C1094 C1096 1.388 . S
C1095 C1094 1.366 . S
C1095 C1099 1.385 1_554 S
C1096 H1077 0.951 . S
C1096 C1094 1.388 . S
C1096 C1097 1.366 1_554 S
C1097 C1096 1.366 1_556 S
C1097 C1098 1.414 . S
C1097 C1100 1.499 . S
C1098 H1078 0.950 . S
C1098 C1097 1.414 . S
C1098 C1099 1.374 . S
C1099 H1079 0.950 . S
C1099 C1095 1.385 1_556 S
C1099 C1098 1.374 . S
C1100 C1097 1.499 . S
C1100 C1101 1.373 . S
C1100 C1102 1.389 . S
C1101 H1080 0.950 . S
C1101 C1100 1.373 . S
C1101 C1117 1.377 . S
C1102 C1100 1.389 . S
C1102 C1103 1.524 . S
C1102 C1116 1.377 . S
C1103 C1102 1.524 . S
C1103 C1104 1.397 . S
C1103 C1108 1.363 1_556 S
C1104 H1081 0.950 . S
C1104 C1103 1.397 . S
C1104 C1105 1.334 1_556 S
C1105 H1082 0.950 . S
C1105 C1104 1.334 1_554 S
C1105 C1106 1.287 . S
C1106 C1105 1.287 . S
C1106 C1107 1.524 . S
C1106 H1125 0.913 . S
C1107 H1083 0.950 . S
C1107 C1106 1.524 . S
C1107 C1108 1.415 . S
C1108 H1084 0.950 . S
C1108 C1103 1.363 1_554 S
C1108 C1107 1.415 . S
C1109 H1085 0.951 . S
C1109 C1110 1.366 . S
C1109 C1111 1.388 . S
C1110 C1109 1.366 . S
C1110 C1114 1.385 . S
C1111 H1086 0.951 . S
C1111 C1109 1.388 . S
C1111 C1112 1.366 . S
C1112 C1111 1.366 . S
C1112 C1113 1.414 . S
C1112 C1115 1.499 . S
C1113 H1087 0.950 . S
C1113 C1112 1.414 . S
C1113 C1114 1.374 . S
C1114 H1088 0.950 . S
C1114 C1110 1.385 . S
C1114 C1113 1.374 . S
C1115 C1112 1.499 . S
C1115 C1116 1.373 . S
C1115 C1117 1.389 . S
C1116 H1089 0.950 . S
C1116 C1102 1.377 . S
C1116 C1115 1.373 . S
C1117 C1101 1.377 . S
C1117 C1115 1.389 . S
C1117 C1118 1.524 . S
C1118 C1117 1.524 . S
C1118 C1119 1.397 . S
C1118 C1123 1.363 . S
C1119 H1090 0.950 . S
C1119 C1118 1.397 . S
C1119 C1120 1.334 . S
C1120 H1091 0.950 . S
C1120 C1119 1.334 . S
C1120 C1121 1.287 . S
C1121 C1120 1.287 . S
C1121 C1122 1.524 . S
C1121 H1124 0.999 . S
C1122 H1092 0.950 . S
C1122 C1121 1.524 . S
C1122 C1123 1.415 . S
C1123 H1093 0.950 . S
C1123 C1118 1.363 . S
C1123 C1122 1.415 . S
H1124 C1121 0.999 . S
H1125 C1106 0.913 . S
H1126 C1144 0.951 . S
H1127 C1146 0.951 . S
H1128 C1148 0.950 . S
H1129 C1149 0.950 . S
H1130 C1151 0.950 . S
H1131 C1154 0.950 . S
H1132 C1155 0.950 . S
H1133 C1157 0.950 . S
H1134 C1158 0.950 1_556 S
H1135 C1159 0.951 . S
H1136 C1161 0.951 . S
H1137 C1163 0.950 . S
H1138 C1164 0.950 . S
H1139 C1166 0.950 . S
H1140 C1169 0.950 . S
H1141 C1170 0.950 . S
H1142 C1172 0.950 . S
H1143 C1173 0.950 . S
C1144 H1126 0.951 . S
C1144 C1145 1.366 . S
C1144 C1146 1.388 1_554 S
C1145 C1144 1.366 . S
C1145 C1149 1.385 . S
C1146 H1127 0.951 . S
C1146 C1144 1.388 1_556 S
C1146 C1147 1.366 . S
C1147 C1146 1.366 . S
C1147 C1148 1.414 . S
C1147 C1150 1.499 . S
C1148 H1128 0.950 . S
C1148 C1147 1.414 . S
C1148 C1149 1.374 1_556 S
C1149 H1129 0.950 . S
C1149 C1145 1.385 . S
C1149 C1148 1.374 1_554 S
C1150 C1147 1.499 . S
C1150 C1151 1.373 . S
C1150 C1152 1.389 . S
C1151 H1130 0.950 . S
C1151 C1150 1.373 . S
C1151 C1167 1.377 . S
C1152 C1150 1.389 . S
C1152 C1153 1.524 1_556 S
C1152 C1166 1.377 . S
C1153 C1152 1.524 1_554 S
C1153 C1154 1.397 . S
C1153 C1158 1.363 . S
C1154 H1131 0.950 . S
C1154 C1153 1.397 . S
C1154 C1155 1.334 . S
C1155 H1132 0.950 . S
C1155 C1154 1.334 . S
C1155 C1156 1.287 . S
C1156 C1155 1.287 . S
C1156 C1157 1.524 . S
C1156 H1175 0.913 . S
C1157 H1133 0.950 . S
C1157 C1156 1.524 . S
C1157 C1158 1.415 . S
C1158 H1134 0.950 1_554 S
C1158 C1153 1.363 . S
C1158 C1157 1.415 . S
C1159 H1135 0.951 . S
C1159 C1160 1.366 . S
C1159 C1161 1.388 . S
C1160 C1159 1.366 . S
C1160 C1164 1.385 . S
C1161 H1136 0.951 . S
C1161 C1159 1.388 . S
C1161 C1162 1.366 . S
C1162 C1161 1.366 . S
C1162 C1163 1.414 . S
C1162 C1165 1.499 . S
C1163 H1137 0.950 . S
C1163 C1162 1.414 . S
C1163 C1164 1.374 . S
C1164 H1138 0.950 . S
C1164 C1160 1.385 . S
C1164 C1163 1.374 . S
C1165 C1162 1.499 . S
C1165 C1166 1.373 . S
C1165 C1167 1.389 . S
C1166 H1139 0.950 . S
C1166 C1152 1.377 . S
C1166 C1165 1.373 . S
C1167 C1151 1.377 . S
C1167 C1165 1.389 . S
C1167 C1168 1.524 . S
C1168 C1167 1.524 . S
C1168 C1169 1.397 . S
C1168 C1173 1.363 . S
C1169 H1140 0.950 . S
C1169 C1168 1.397 . S
C1169 C1170 1.334 . S
C1170 H1141 0.950 . S
C1170 C1169 1.334 . S
C1170 C1171 1.287 . S
C1171 C1170 1.287 . S
C1171 C1172 1.524 . S
C1171 H1174 0.999 . S
C1172 H1142 0.950 . S
C1172 C1171 1.524 . S
C1172 C1173 1.415 . S
C1173 H1143 0.950 . S
C1173 C1168 1.363 . S
C1173 C1172 1.415 . S
H1174 C1171 0.999 . S
H1175 C1156 0.913 . S
H1176 C1194 0.951 . S
H1177 C1196 0.951 . S
H1178 C1198 0.950 . S
H1179 C1199 0.950 . S
H1180 C1201 0.984 . S
H1181 C1204 0.950 . S
H1182 C1205 0.950 . S
H1183 C1207 0.950 . S
H1184 C1208 0.950 . S
H1185 C1209 0.951 1_455 S
H1186 C1211 0.951 . S
H1187 C1213 0.950 . S
H1188 C1214 0.950 . S
H1189 C1216 0.950 . S
H1190 C1219 0.950 . S
H1191 C1220 0.950 . S
H1192 C1222 0.950 . S
H1193 C1223 0.950 . S
C1194 H1176 0.951 . S
C1194 C1195 1.366 . S
C1194 C1196 1.388 . S
C1195 C1194 1.366 . S
C1195 C1199 1.385 . S
C1196 H1177 0.951 . S
C1196 C1194 1.388 . S
C1196 C1197 1.366 . S
C1197 C1196 1.366 . S
C1197 C1198 1.414 . S
C1197 C1200 1.499 . S
C1198 H1178 0.950 . S
C1198 C1197 1.414 . S
C1198 C1199 1.374 . S
C1199 H1179 0.950 . S
C1199 C1195 1.385 . S
C1199 C1198 1.374 . S
C1200 C1197 1.499 . S
C1200 C1201 1.373 . S
C1200 C1202 1.389 . S
C1201 H1180 0.984 . S
C1201 C1200 1.373 . S
C1201 C1217 1.377 . S
C1202 C1200 1.389 . S
C1202 C1203 1.524 . S
C1202 C1216 1.377 . S
C1203 C1202 1.524 . S
C1203 C1204 1.397 . S
C1203 C1208 1.363 . S
C1204 H1181 0.950 . S
C1204 C1203 1.397 . S
C1204 C1205 1.334 . S
C1205 H1182 0.950 . S
C1205 C1204 1.334 . S
C1205 C1206 1.287 . S
C1206 C1205 1.287 . S
C1206 C1207 1.524 . S
C1206 H1225 0.913 . S
C1207 H1183 0.950 . S
C1207 C1206 1.524 . S
C1207 C1208 1.415 . S
C1208 H1184 0.950 . S
C1208 C1203 1.363 . S
C1208 C1207 1.415 . S
C1209 H1185 0.951 1_655 S
C1209 C1210 1.366 . S
C1209 C1211 1.388 . S
C1210 C1209 1.366 . S
C1210 C1214 1.385 . S
C1211 H1186 0.951 . S
C1211 C1209 1.388 . S
C1211 C1212 1.366 . S
C1212 C1211 1.366 . S
C1212 C1213 1.414 . S
C1212 C1215 1.499 . S
C1213 H1187 0.950 . S
C1213 C1212 1.414 . S
C1213 C1214 1.374 . S
C1214 H1188 0.950 . S
C1214 C1210 1.385 . S
C1214 C1213 1.374 . S
C1215 C1212 1.499 . S
C1215 C1216 1.373 . S
C1215 C1217 1.389 . S
C1216 H1189 0.950 . S
C1216 C1202 1.377 . S
C1216 C1215 1.373 . S
C1217 C1201 1.377 . S
C1217 C1215 1.389 . S
C1217 C1218 1.524 1_655 S
C1218 C1217 1.524 1_455 S
C1218 C1219 1.397 . S
C1218 C1223 1.363 . S
C1219 H1190 0.950 . S
C1219 C1218 1.397 . S
C1219 C1220 1.334 . S
C1220 H1191 0.950 . S
C1220 C1219 1.334 . S
C1220 C1221 1.287 . S
C1221 C1220 1.287 . S
C1221 C1222 1.524 . S
C1221 H1224 0.999 . S
C1222 H1192 0.950 . S
C1222 C1221 1.524 . S
C1222 C1223 1.415 . S
C1223 H1193 0.950 . S
C1223 C1218 1.363 . S
C1223 C1222 1.415 . S
H1224 C1221 0.999 . S
H1225 C1206 0.913 . S
H1226 C1244 0.951 . S
H1227 C1246 0.951 . S
H1228 C1248 0.950 . S
H1229 C1249 0.950 . S
H1230 C1251 0.950 . S
H1231 C1254 0.950 . S
H1232 C1255 0.950 . S
H1233 C1257 0.950 . S
H1234 C1258 0.950 . S
H1235 C1259 0.951 . S
H1236 C1261 0.951 . S
H1237 C1263 0.950 . S
H1238 C1264 0.950 . S
H1239 C1266 0.950 . S
H1240 C1269 0.950 . S
H1241 C1270 0.950 . S
H1242 C1272 0.950 . S
H1243 C1273 0.950 . S
C1244 H1226 0.951 . S
C1244 C1245 1.353 1_545 S
C1244 C1246 1.388 . S
C1245 C1244 1.353 1_565 S
C1245 C1249 1.398 . S
C1246 H1227 0.951 . S
C1246 C1244 1.388 . S
C1246 C1247 1.366 1_545 S
C1247 C1246 1.366 1_565 S
C1247 C1248 1.414 . S
C1247 C1250 1.499 . S
C1248 H1228 0.950 . S
C1248 C1247 1.414 . S
C1248 C1249 1.374 . S
C1249 H1229 0.950 . S
C1249 C1245 1.398 . S
C1249 C1248 1.374 . S
C1250 C1247 1.499 . S
C1250 C1251 1.373 . S
C1250 C1252 1.389 1_565 S
C1251 H1230 0.950 . S
C1251 C1250 1.373 . S
C1251 C1267 1.377 . S
C1252 C1250 1.389 1_545 S
C1252 C1253 1.524 . S
C1252 C1266 1.377 . S
C1253 C1252 1.524 . S
C1253 C1254 1.397 . S
C1253 C1258 1.363 . S
C1254 H1231 0.950 . S
C1254 C1253 1.397 . S
C1254 C1255 1.334 . S
C1255 H1232 0.950 . S
C1255 C1254 1.334 . S
C1255 C1256 1.287 . S
C1256 C1255 1.287 . S
C1256 C1257 1.524 . S
C1256 H1275 0.913 . S
C1257 H1233 0.950 . S
C1257 C1256 1.524 . S
C1257 C1258 1.415 . S
C1258 H1234 0.950 . S
C1258 C1253 1.363 . S
C1258 C1257 1.415 . S
C1259 H1235 0.951 . S
C1259 C1260 1.366 . S
C1259 C1261 1.388 . S
C1260 C1259 1.366 . S
C1260 C1264 1.385 1_565 S
C1261 H1236 0.951 . S
C1261 C1259 1.388 . S
C1261 C1262 1.366 . S
C1262 C1261 1.366 . S
C1262 C1263 1.414 1_565 S
C1262 C1265 1.499 . S
C1263 H1237 0.950 . S
C1263 C1262 1.414 1_545 S
C1263 C1264 1.374 . S
C1264 H1238 0.950 . S
C1264 C1260 1.385 1_545 S
C1264 C1263 1.374 . S
C1265 C1262 1.499 . S
C1265 C1266 1.373 1_565 S
C1265 C1267 1.389 . S
C1266 H1239 0.950 . S
C1266 C1252 1.377 . S
C1266 C1265 1.373 1_545 S
C1267 C1251 1.377 . S
C1267 C1265 1.389 . S
C1267 C1268 1.524 . S
C1268 C1267 1.524 . S
C1268 C1269 1.397 . S
C1268 C1273 1.363 . S
C1269 H1240 0.950 . S
C1269 C1268 1.397 . S
C1269 C1270 1.334 . S
C1270 H1241 0.950 . S
C1270 C1269 1.334 . S
C1270 C1271 1.287 . S
C1271 C1270 1.287 . S
C1271 C1272 1.524 . S
C1271 H1274 0.999 . S
C1272 H1242 0.950 . S
C1272 C1271 1.524 . S
C1272 C1273 1.415 . S
C1273 H1243 0.950 . S
C1273 C1268 1.363 . S
C1273 C1272 1.415 . S
H1274 C1271 0.999 . S
H1275 C1256 0.913 . S
H1276 C1294 0.951 . S
H1277 C1296 0.951 . S
H1278 C1298 0.950 . S
H1279 C1299 0.950 . S
H1280 C1301 0.950 . S
H1281 C1304 0.950 . S
H1282 C1305 0.950 . S
H1283 C1307 0.950 . S
H1284 C1308 0.950 . S
H1285 C1309 0.951 . S
H1286 C1311 0.951 . S
H1287 C1313 0.950 . S
H1288 C1314 0.950 . S
H1289 C1316 0.950 . S
H1290 C1319 0.950 . S
H1291 C1320 0.950 . S
H1292 C1322 0.950 . S
H1293 C1323 0.950 . S
C1294 H1276 0.951 . S
C1294 C1295 1.366 . S
C1294 C1296 1.388 . S
C1295 C1294 1.366 . S
C1295 C1299 1.385 . S
C1296 H1277 0.951 . S
C1296 C1294 1.388 . S
C1296 C1297 1.366 . S
C1297 C1296 1.366 . S
C1297 C1298 1.414 . S
C1297 C1300 1.499 . S
C1298 H1278 0.950 . S
C1298 C1297 1.414 . S
C1298 C1299 1.374 . S
C1299 H1279 0.950 . S
C1299 C1295 1.385 . S
C1299 C1298 1.374 . S
C1300 C1297 1.499 . S
C1300 C1301 1.373 . S
C1300 C1302 1.389 . S
C1301 H1280 0.950 . S
C1301 C1300 1.373 . S
C1301 C1317 1.377 . S
C1302 C1300 1.389 . S
C1302 C1303 1.524 . S
C1302 C1316 1.377 . S
C1303 C1302 1.524 . S
C1303 C1304 1.397 . S
C1303 C1308 1.363 . S
C1304 H1281 0.950 . S
C1304 C1303 1.397 . S
C1304 C1305 1.334 . S
C1305 H1282 0.950 . S
C1305 C1304 1.334 . S
C1305 C1306 1.287 . S
C1306 C1305 1.287 . S
C1306 C1307 1.524 . S
C1306 H1325 0.913 . S
C1307 H1283 0.950 . S
C1307 C1306 1.524 . S
C1307 C1308 1.415 . S
C1308 H1284 0.950 . S
C1308 C1303 1.363 . S
C1308 C1307 1.415 . S
C1309 H1285 0.951 . S
C1309 C1310 1.366 . S
C1309 C1311 1.388 . S
C1310 C1309 1.366 . S
C1310 C1314 1.385 . S
C1311 H1286 0.951 . S
C1311 C1309 1.388 . S
C1311 C1312 1.366 . S
C1312 C1311 1.366 . S
C1312 C1313 1.414 . S
C1312 C1315 1.499 . S
C1313 H1287 0.950 . S
C1313 C1312 1.414 . S
C1313 C1314 1.374 . S
C1314 H1288 0.950 . S
C1314 C1310 1.385 . S
C1314 C1313 1.374 . S
C1315 C1312 1.499 . S
C1315 C1316 1.373 . S
C1315 C1317 1.389 . S
C1316 H1289 0.950 . S
C1316 C1302 1.377 . S
C1316 C1315 1.373 . S
C1317 C1301 1.377 . S
C1317 C1315 1.389 . S
C1317 C1318 1.524 . S
C1318 C1317 1.524 . S
C1318 C1319 1.397 . S
C1318 C1323 1.363 . S
C1319 H1290 0.950 . S
C1319 C1318 1.397 . S
C1319 C1320 1.334 . S
C1320 H1291 0.950 . S
C1320 C1319 1.334 . S
C1320 C1321 1.287 . S
C1321 C1320 1.287 . S
C1321 C1322 1.524 . S
C1321 H1324 0.999 . S
C1322 H1292 0.950 . S
C1322 C1321 1.524 . S
C1322 C1323 1.415 . S
C1323 H1293 0.950 . S
C1323 C1318 1.363 . S
C1323 C1322 1.415 . S
H1324 C1321 0.999 . S
H1325 C1306 0.913 . S
H1326 C1344 0.951 . S
H1327 C1346 0.951 . S
H1328 C1348 0.950 . S
H1329 C1349 0.950 . S
H1330 C1351 0.950 . S
H1331 C1354 0.950 . S
H1332 C1355 0.950 . S
H1333 C1357 0.950 . S
H1334 C1358 0.950 . S
H1335 C1359 0.951 . S
H1336 C1361 0.951 . S
H1337 C1363 0.950 . S
H1338 C1364 0.950 . S
H1339 C1366 0.950 . S
H1340 C1369 0.950 . S
H1341 C1370 0.950 . S
H1342 C1372 0.950 . S
H1343 C1373 0.950 . S
C1344 H1326 0.951 . S
C1344 C1345 1.366 . S
C1344 C1346 1.388 . S
C1345 C1344 1.366 . S
C1345 C1349 1.385 . S
C1346 H1327 0.951 . S
C1346 C1344 1.388 . S
C1346 C1347 1.366 . S
C1347 C1346 1.366 . S
C1347 C1348 1.414 . S
C1347 C1350 1.499 . S
C1348 H1328 0.950 . S
C1348 C1347 1.414 . S
C1348 C1349 1.374 . S
C1349 H1329 0.950 . S
C1349 C1345 1.385 . S
C1349 C1348 1.374 . S
C1350 C1347 1.499 . S
C1350 C1351 1.373 . S
C1350 C1352 1.389 . S
C1351 H1330 0.950 . S
C1351 C1350 1.373 . S
C1351 C1367 1.377 . S
C1352 C1350 1.389 . S
C1352 C1353 1.524 . S
C1352 C1366 1.377 . S
C1353 C1352 1.524 . S
C1353 C1354 1.397 . S
C1353 C1358 1.363 . S
C1354 H1331 0.950 . S
C1354 C1353 1.397 . S
C1354 C1355 1.334 . S
C1355 H1332 0.950 . S
C1355 C1354 1.334 . S
C1355 C1356 1.287 . S
C1356 C1355 1.287 . S
C1356 C1357 1.524 . S
C1356 H1375 0.913 . S
C1357 H1333 0.950 . S
C1357 C1356 1.524 . S
C1357 C1358 1.415 . S
C1358 H1334 0.950 . S
C1358 C1353 1.363 . S
C1358 C1357 1.415 . S
C1359 H1335 0.951 . S
C1359 C1360 1.366 . S
C1359 C1361 1.388 . S
C1360 C1359 1.366 . S
C1360 C1364 1.385 . S
C1361 H1336 0.951 . S
C1361 C1359 1.388 . S
C1361 C1362 1.366 . S
C1362 C1361 1.366 . S
C1362 C1363 1.414 . S
C1362 C1365 1.499 . S
C1363 H1337 0.950 . S
C1363 C1362 1.414 . S
C1363 C1364 1.374 . S
C1364 H1338 0.950 . S
C1364 C1360 1.385 . S
C1364 C1363 1.374 . S
C1365 C1362 1.499 . S
C1365 C1366 1.373 . S
C1365 C1367 1.389 . S
C1366 H1339 0.950 . S
C1366 C1352 1.377 . S
C1366 C1365 1.373 . S
C1367 C1351 1.377 . S
C1367 C1365 1.389 . S
C1367 C1368 1.524 . S
C1368 C1367 1.524 . S
C1368 C1369 1.397 . S
C1368 C1373 1.363 . S
C1369 H1340 0.950 . S
C1369 C1368 1.397 . S
C1369 C1370 1.334 . S
C1370 H1341 0.950 . S
C1370 C1369 1.334 . S
C1370 C1371 1.287 . S
C1371 C1370 1.287 . S
C1371 C1372 1.524 . S
C1371 H1374 0.999 . S
C1372 H1342 0.950 . S
C1372 C1371 1.524 . S
C1372 C1373 1.415 . S
C1373 H1343 0.950 . S
C1373 C1368 1.363 . S
C1373 C1372 1.415 . S
H1374 C1371 0.999 . S
H1375 C1356 0.913 . S
C195 C76 1.437 1_545 S
C210 C114 1.449 . S
C260 C134 1.538 . S
C245 C88 1.506 . S
C310 C154 1.446 . S
C295 C52 1.437 . S
C360 C174 1.536 . S
C345 C64 1.511 . S
C410 C115 1.449 . S
C395 C28 1.438 1_545 S
C445 C40 1.521 . S
C460 C135 1.544 . S
C495 C4 1.436 . S
C510 C155 1.445 . S
C545 C16 1.520 . S
C560 C175 1.536 1_655 S
C610 C105 0.685 . S
C595 C69 0.675 . S
C660 C125 0.672 . S
C645 C81 0.664 . S
C710 C145 0.693 . S
C695 C93 0.686 . S
C745 C57 0.670 . S
C760 C165 0.678 . S
C795 C21 0.681 . S
C810 C108 0.682 1_455 S
C860 C128 0.673 . S
C845 C33 0.665 . S
C910 C148 0.692 . S
C895 C45 0.686 . S
C945 C9 0.671 . S
C960 C168 0.678 . S
C995 C66 1.552 . S
C1010 C98 1.495 . S
C1045 C78 1.490 . S
C1060 C118 1.440 . S
C1110 C138 1.491 . S
C1095 C90 1.544 . S
C1160 C158 1.432 . S
C1145 C54 1.481 . S
C1195 C18 1.542 . S
C1210 C100 1.502 . S
C1260 C120 1.439 . S
C1245 C30 1.488 1_565 S
C1310 C140 1.491 . S
C1295 C42 1.534 . S
C1345 C6 1.483 . S
C1360 C160 1.431 . S
