# Generated by pormake.
# Topology pyr, (3,6)-cn, num edge types: 1
# Building blocks:
#     Node 0, Type 0, BuildingBlock: MIDCAF_clean_linker_0, # of connection points: 3
#     Node 1, Type 0, BuildingBlock: MIDCAF_clean_linker_0, # of connection points: 3
#     Node 2, Type 0, BuildingBlock: MIDCAF_clean_linker_0, # of connection points: 3
#     Node 3, Type 0, BuildingBlock: MIDCAF_clean_linker_0, # of connection points: 3
#     Node 4, Type 0, BuildingBlock: MIDCAF_clean_linker_0, # of connection points: 3
#     Node 5, Type 0, BuildingBlock: MIDCAF_clean_linker_0, # of connection points: 3
#     Node 6, Type 0, BuildingBlock: MIDCAF_clean_linker_0, # of connection points: 3
#     Node 7, Type 0, BuildingBlock: MIDCAF_clean_linker_0, # of connection points: 3
#     Node 8, Type 1, BuildingBlock: BETFEN_clean_sbu_0, # of connection points: 6
#     Node 9, Type 1, BuildingBlock: BETFEN_clean_sbu_0, # of connection points: 6
#     Node 10, Type 1, BuildingBlock: BETFEN_clean_sbu_0, # of connection points: 6
#     Node 11, Type 1, BuildingBlock: BETFEN_clean_sbu_0, # of connection points: 6
#     Edge 12, Type (0, 1), BuildingBlock: ZUJKAS_clean_linker_0, # of connection points: 2
#     Edge 13, Type (0, 1), BuildingBlock: ZUJKAS_clean_linker_0, # of connection points: 2
#     Edge 14, Type (0, 1), BuildingBlock: ZUJKAS_clean_linker_0, # of connection points: 2
#     Edge 15, Type (0, 1), BuildingBlock: ZUJKAS_clean_linker_0, # of connection points: 2
#     Edge 16, Type (0, 1), BuildingBlock: ZUJKAS_clean_linker_0, # of connection points: 2
#     Edge 17, Type (0, 1), BuildingBlock: ZUJKAS_clean_linker_0, # of connection points: 2
#     Edge 18, Type (0, 1), BuildingBlock: ZUJKAS_clean_linker_0, # of connection points: 2
#     Edge 19, Type (0, 1), BuildingBlock: ZUJKAS_clean_linker_0, # of connection points: 2
#     Edge 20, Type (0, 1), BuildingBlock: ZUJKAS_clean_linker_0, # of connection points: 2
#     Edge 21, Type (0, 1), BuildingBlock: ZUJKAS_clean_linker_0, # of connection points: 2
#     Edge 22, Type (0, 1), BuildingBlock: ZUJKAS_clean_linker_0, # of connection points: 2
#     Edge 23, Type (0, 1), BuildingBlock: ZUJKAS_clean_linker_0, # of connection points: 2
#     Edge 24, Type (0, 1), BuildingBlock: ZUJKAS_clean_linker_0, # of connection points: 2
#     Edge 25, Type (0, 1), BuildingBlock: ZUJKAS_clean_linker_0, # of connection points: 2
#     Edge 26, Type (0, 1), BuildingBlock: ZUJKAS_clean_linker_0, # of connection points: 2
#     Edge 27, Type (0, 1), BuildingBlock: ZUJKAS_clean_linker_0, # of connection points: 2
#     Edge 28, Type (0, 1), BuildingBlock: ZUJKAS_clean_linker_0, # of connection points: 2
#     Edge 29, Type (0, 1), BuildingBlock: ZUJKAS_clean_linker_0, # of connection points: 2
#     Edge 30, Type (0, 1), BuildingBlock: ZUJKAS_clean_linker_0, # of connection points: 2
#     Edge 31, Type (0, 1), BuildingBlock: ZUJKAS_clean_linker_0, # of connection points: 2
#     Edge 32, Type (0, 1), BuildingBlock: ZUJKAS_clean_linker_0, # of connection points: 2
#     Edge 33, Type (0, 1), BuildingBlock: ZUJKAS_clean_linker_0, # of connection points: 2
#     Edge 34, Type (0, 1), BuildingBlock: ZUJKAS_clean_linker_0, # of connection points: 2
#     Edge 35, Type (0, 1), BuildingBlock: ZUJKAS_clean_linker_0, # of connection points: 2
# Relax obj value: 0.111
# Max RMSD: 0.216
# Mean RMSD: 0.104
data_MOF--net-pyr--node1-BETFEN_clean_sbu_0--node2-MIDCAF_clean_linker_0--edge1-ZUJKAS_clean_linker_0
_symmetry_space_group_name_H-M    P1
_symmetry_Int_Tables_number       1
_symmetry_cell_setting            triclinic
loop_
_symmetry_equiv_pos_as_xyz
'x, y, z'
_cell_length_a     55.708312
_cell_length_b     60.804614
_cell_length_c     57.323701
_cell_angle_alpha  91.590978
_cell_angle_beta   97.360989
_cell_angle_gamma 106.48875
loop_
_atom_site_label
_atom_site_type_symbol
_atom_site_fract_x
_atom_site_fract_y
_atom_site_fract_z
_atom_type_partial_charge
C0 C 0.2827 0.28956 0.33582 0.0
C1 C 0.28539 0.2698 0.34671 0.0
C2 C 0.30279 0.25913 0.33946 0.0
C3 C 0.31601 0.26717 0.32079 0.0
H4 H 0.37073 0.2578 0.28216 0.0
H5 H 0.39352 0.23325 0.2666 0.0
H6 H 0.382 0.25879 0.19773 0.0
H7 H 0.35983 0.28373 0.21329 0.0
H8 H 0.32551 0.31623 0.20372 0.0
H9 H 0.30025 0.33306 0.17547 0.0
H10 H 0.25985 0.34747 0.23067 0.0
H11 H 0.28471 0.33067 0.25881 0.0
H12 H 0.2925 0.31227 0.30851 0.0
H13 H 0.26986 0.29847 0.3413 0.0
H14 H 0.30519 0.24375 0.34729 0.0
H15 H 0.32834 0.25785 0.31498 0.0
N16 N 0.33921 0.28187 0.27922 0.0
N17 N 0.33667 0.29887 0.24309 0.0
N18 N 0.31279 0.30548 0.27187 0.0
C19 C 0.34662 0.28538 0.25759 0.0
C20 C 0.31983 0.30909 0.25016 0.0
C21 C 0.32239 0.29198 0.28655 0.0
C22 C 0.36313 0.27258 0.24893 0.0
C23 C 0.37334 0.25844 0.26376 0.0
C24 C 0.38632 0.24426 0.25483 0.0
C25 C 0.38936 0.24385 0.23087 0.0
C26 C 0.38024 0.25881 0.21632 0.0
C27 C 0.36734 0.27304 0.22525 0.0
C28 C 0.30697 0.3218 0.23353 0.0
C29 C 0.31145 0.32322 0.20991 0.0
C30 C 0.29703 0.33289 0.19371 0.0
C31 C 0.27783 0.3412 0.20081 0.0
C32 C 0.27417 0.34073 0.22459 0.0
C33 C 0.28856 0.33119 0.24076 0.0
C34 C 0.31197 0.28597 0.30884 0.0
C35 C 0.29579 0.29752 0.31707 0.0
C36 C 0.21192 0.8545 0.66965 0.0
C37 C 0.20436 0.85355 0.64522 0.0
C38 C 0.21478 0.84121 0.6302 0.0
C39 C 0.23311 0.83085 0.6394 0.0
H40 H 0.2699 0.77609 0.62872 0.0
H41 H 0.28856 0.75201 0.60594 0.0
H42 H 0.35832 0.77555 0.65405 0.0
H43 H 0.33998 0.7993 0.67667 0.0
H44 H 0.33634 0.81497 0.72843 0.0
H45 H 0.35929 0.83066 0.76708 0.0
H46 H 0.30519 0.86792 0.7757 0.0
H47 H 0.28188 0.85197 0.73721 0.0
H48 H 0.23584 0.84577 0.69773 0.0
H49 H 0.20386 0.86341 0.68176 0.0
H50 H 0.20944 0.84025 0.61128 0.0
H51 H 0.24132 0.82209 0.62731 0.0
N52 N 0.27198 0.81041 0.6601 0.0
N53 N 0.30342 0.81062 0.69165 0.0
N54 N 0.27396 0.83058 0.69619 0.0
C55 C 0.29241 0.80368 0.6691 0.0
C56 C 0.29431 0.82398 0.70535 0.0
C57 C 0.26265 0.82391 0.67365 0.0
C58 C 0.30341 0.78956 0.65455 0.0
C59 C 0.28926 0.77619 0.6343 0.0
C60 C 0.29986 0.76235 0.62134 0.0
C61 C 0.32492 0.76204 0.62817 0.0
C62 C 0.33908 0.77567 0.64818 0.0
C63 C 0.32845 0.78915 0.66126 0.0
C64 C 0.30731 0.83232 0.72955 0.0
C65 C 0.32916 0.82636 0.73858 0.0
C66 C 0.34243 0.83544 0.76072 0.0
C67 C 0.33417 0.85066 0.77438 0.0
C68 C 0.31192 0.85608 0.7657 0.0
C69 C 0.29864 0.84702 0.74353 0.0
C70 C 0.24142 0.83267 0.6638 0.0
C71 C 0.23022 0.84425 0.67881 0.0
C72 C 0.61112 0.26107 0.87713 0.0
C73 C 0.59283 0.243 0.86348 0.0
C74 C 0.58442 0.2466 0.84004 0.0
C75 C 0.59496 0.26752 0.83025 0.0
H76 H 0.58306 0.327 0.78245 0.0
H77 H 0.56949 0.34599 0.74809 0.0
H78 H 0.64753 0.37468 0.73802 0.0
H79 H 0.66092 0.35649 0.77241 0.0
H80 H 0.69642 0.37793 0.82294 0.0
H81 H 0.73658 0.40099 0.84462 0.0
H82 H 0.72579 0.35619 0.90196 0.0
H83 H 0.6859 0.33282 0.88018 0.0
H84 H 0.63591 0.29507 0.87861 0.0
H85 H 0.61755 0.25916 0.8954 0.0
H86 H 0.5703 0.233 0.82907 0.0
H87 H 0.58872 0.26955 0.81197 0.0
N88 N 0.61853 0.31308 0.81219 0.0
N89 N 0.65449 0.34529 0.81533 0.0
N90 N 0.64995 0.31988 0.8453 0.0
C91 C 0.63212 0.3325 0.80309 0.0
C92 C 0.66351 0.33919 0.83646 0.0
C93 C 0.62757 0.30666 0.83342 0.0
C94 C 0.62306 0.34052 0.78034 0.0
C95 C 0.5972 0.3371 0.77262 0.0
C96 C 0.58946 0.34799 0.75294 0.0
C97 C 0.60745 0.36232 0.74055 0.0
C98 C 0.63317 0.36442 0.74752 0.0
C99 C 0.64085 0.35382 0.76719 0.0
C100 C 0.68787 0.35343 0.84974 0.0
C101 C 0.70256 0.37296 0.84017 0.0
C102 C 0.72555 0.38629 0.85266 0.0
C103 C 0.73441 0.38044 0.87501 0.0
C104 C 0.71969 0.36099 0.88463 0.0
C105 C 0.69672 0.34765 0.87216 0.0
C106 C 0.61408 0.28521 0.84375 0.0
C107 C 0.62158 0.2818 0.86744 0.0
C108 C 0.77714 0.63678 0.36692 0.0
C109 C 0.77061 0.61287 0.36894 0.0
C110 C 0.78441 0.60035 0.35794 0.0
C111 C 0.80472 0.61163 0.34611 0.0
H112 H 0.84767 0.60877 0.28643 0.0
H113 H 0.86416 0.59287 0.25458 0.0
H114 H 0.92337 0.65679 0.25579 0.0
H115 H 0.90722 0.67252 0.2879 0.0
H116 H 0.91236 0.71519 0.32794 0.0
H117 H 0.931 0.75446 0.34597 0.0
H118 H 0.86794 0.74584 0.38495 0.0
H119 H 0.8493 0.70735 0.36694 0.0
H120 H 0.80194 0.66646 0.35477 0.0
H121 H 0.76661 0.64705 0.37434 0.0
H122 H 0.78008 0.58193 0.35909 0.0
H123 H 0.8154 0.60163 0.33848 0.0
N124 N 0.84466 0.6393 0.31817 0.0
N125 N 0.87699 0.67425 0.31837 0.0
N126 N 0.84644 0.67074 0.34362 0.0
C127 C 0.8657 0.65205 0.30945 0.0
C128 C 0.86743 0.68371 0.33556 0.0
C129 C 0.83489 0.64869 0.33527 0.0
C130 C 0.876 0.64204 0.29 0.0
C131 C 0.86425 0.61948 0.28001 0.0
C132 C 0.87367 0.61036 0.26151 0.0
C133 C 0.8952 0.62344 0.25235 0.0
C134 C 0.907 0.64595 0.26243 0.0
C135 C 0.89757 0.65508 0.28089 0.0
C136 C 0.87924 0.7079 0.34584 0.0
C137 C 0.90243 0.72174 0.34026 0.0
C138 C 0.9132 0.74424 0.35073 0.0
C139 C 0.90095 0.7535 0.36688 0.0
C140 C 0.87779 0.73961 0.37231 0.0
C141 C 0.86714 0.71728 0.36201 0.0
C142 C 0.81182 0.63569 0.34519 0.0
C143 C 0.79742 0.64797 0.35544 0.0
C144 C 0.64692 0.76909 0.79291 0.0
C145 C 0.64055 0.7663 0.81579 0.0
C146 C 0.64533 0.74801 0.82815 0.0
C147 C 0.65754 0.73361 0.81838 0.0
H148 H 0.6914 0.68415 0.8363 0.0
H149 H 0.71073 0.66249 0.86422 0.0
H150 H 0.76222 0.65665 0.81567 0.0
H151 H 0.74266 0.67775 0.78758 0.0
H152 H 0.74997 0.70952 0.74609 0.0
H153 H 0.77516 0.72751 0.71632 0.0
H154 H 0.72374 0.76791 0.69865 0.0
H155 H 0.69879 0.75036 0.72872 0.0
H156 H 0.66475 0.758 0.76585 0.0
H157 H 0.64362 0.78312 0.78299 0.0
H158 H 0.64026 0.74521 0.84568 0.0
H159 H 0.6617 0.7202 0.82878 0.0
N160 N 0.68893 0.70857 0.80055 0.0
N161 N 0.71628 0.70456 0.77395 0.0
N162 N 0.69213 0.73024 0.76733 0.0
C163 C 0.70606 0.69845 0.79395 0.0
C164 C 0.70932 0.72035 0.76046 0.0
C165 C 0.68175 0.7244 0.78729 0.0
C166 C 0.71562 0.68294 0.80973 0.0
C167 C 0.7066 0.67797 0.8314 0.0
C168 C 0.71775 0.66564 0.84749 0.0
C169 C 0.73813 0.65798 0.84227 0.0
C170 C 0.74636 0.66205 0.82018 0.0
C171 C 0.73522 0.67433 0.80409 0.0
C172 C 0.72252 0.72872 0.7401 0.0
C173 C 0.74379 0.72201 0.73567 0.0
C174 C 0.75821 0.73224 0.71849 0.0
C175 C 0.75165 0.74936 0.70533 0.0
C176 C 0.7296 0.75512 0.70885 0.0
C177 C 0.71522 0.74495 0.72604 0.0
C178 C 0.66535 0.73726 0.79606 0.0
C179 C 0.6592 0.75474 0.78314 0.0
C180 C 0.73238 0.17152 0.27028 0.0
C181 C 0.70939 0.175 0.2604 0.0
C182 C 0.69881 0.189 0.27324 0.0
C183 C 0.71054 0.19882 0.29558 0.0
H184 H 0.71187 0.24864 0.34453 0.0
H185 H 0.69019 0.27178 0.3636 0.0
H186 H 0.72556 0.25992 0.43175 0.0
H187 H 0.74792 0.23681 0.41251 0.0
H188 H 0.7853 0.20182 0.41254 0.0
H189 H 0.81638 0.18439 0.43218 0.0
H190 H 0.83549 0.1677 0.36456 0.0
H191 H 0.80468 0.18501 0.34497 0.0
H192 H 0.76151 0.17787 0.29999 0.0
H193 H 0.74128 0.16114 0.26072 0.0
H194 H 0.68093 0.19178 0.26641 0.0
H195 H 0.70144 0.20907 0.30509 0.0
N196 N 0.73445 0.218 0.34197 0.0
N197 N 0.76208 0.21778 0.37642 0.0
N198 N 0.7632 0.19654 0.34186 0.0
C199 C 0.74325 0.22527 0.36489 0.0
C200 C 0.77228 0.20351 0.36486 0.0
C201 C 0.74422 0.20364 0.33032 0.0
C202 C 0.73149 0.24059 0.37698 0.0
C203 C 0.71517 0.2509 0.36359 0.0
C204 C 0.70258 0.26413 0.37455 0.0
C205 C 0.7058 0.2674 0.39922 0.0
C206 C 0.72273 0.25776 0.41269 0.0
C207 C 0.73548 0.24448 0.40167 0.0
C208 C 0.79239 0.19471 0.37717 0.0
C209 C 0.79634 0.19467 0.4019 0.0
C210 C 0.81401 0.18458 0.41314 0.0
C211 C 0.82834 0.17467 0.39989 0.0
C212 C 0.82493 0.17539 0.37526 0.0
C213 C 0.8071 0.18518 0.36404 0.0
C214 C 0.73308 0.19474 0.3058 0.0
C215 C 0.74406 0.18122 0.29276 0.0
C216 C 0.31373 0.64291 0.19626 0.0
C217 C 0.30423 0.65023 0.17488 0.0
C218 C 0.31857 0.67054 0.16635 0.0
C219 C 0.34173 0.6833 0.17893 0.0
H220 H 0.388 0.75073 0.19406 0.0
H221 H 0.40689 0.78571 0.17586 0.0
H222 H 0.48141 0.78118 0.20239 0.0
H223 H 0.46217 0.74608 0.22151 0.0
H224 H 0.45856 0.70467 0.2672 0.0
H225 H 0.47458 0.68719 0.30172 0.0
H226 H 0.3987 0.64496 0.30572 0.0
H227 H 0.38282 0.66218 0.27177 0.0
H228 H 0.34366 0.64955 0.22528 0.0
H229 H 0.30303 0.62749 0.20347 0.0
H230 H 0.31206 0.67649 0.14975 0.0
H231 H 0.35222 0.69881 0.17171 0.0
N232 N 0.38845 0.7102 0.20619 0.0
N233 N 0.42178 0.7146 0.23722 0.0
N234 N 0.38638 0.68181 0.23304 0.0
C235 C 0.41122 0.72283 0.2178 0.0
C236 C 0.40918 0.69405 0.24503 0.0
C237 C 0.37596 0.68966 0.21353 0.0
C238 C 0.42358 0.74541 0.20899 0.0
C239 C 0.40845 0.75717 0.19616 0.0
C240 C 0.41932 0.77723 0.18555 0.0
C241 C 0.44571 0.78606 0.18711 0.0
C242 C 0.461 0.77488 0.2008 0.0
C243 C 0.45001 0.75476 0.21174 0.0
C244 C 0.41942 0.68479 0.2666 0.0
C245 C 0.44533 0.6918 0.27562 0.0
C246 C 0.45452 0.68171 0.29528 0.0
C247 C 0.43789 0.66475 0.30652 0.0
C248 C 0.41199 0.65818 0.29773 0.0
C249 C 0.40292 0.66796 0.27805 0.0
C250 C 0.35126 0.67604 0.20033 0.0
C251 C 0.33699 0.65565 0.20883 0.0
C252 C 0.14845 0.28659 0.66967 0.0
C253 C 0.12637 0.27242 0.67688 0.0
C254 C 0.11541 0.28159 0.69424 0.0
C255 C 0.12639 0.30428 0.70414 0.0
H256 H 0.13017 0.35223 0.76213 0.0
H257 H 0.11538 0.36855 0.79489 0.0
H258 H 0.16247 0.43603 0.78352 0.0
H259 H 0.17724 0.41976 0.75062 0.0
H260 H 0.22742 0.42027 0.71854 0.0
H261 H 0.26377 0.43985 0.6991 0.0
H262 H 0.23974 0.38617 0.64293 0.0
H263 H 0.2043 0.36669 0.66221 0.0
H264 H 0.17622 0.31927 0.67308 0.0
H265 H 0.15725 0.28041 0.65609 0.0
H266 H 0.09848 0.27116 0.70036 0.0
H267 H 0.11748 0.31075 0.71743 0.0
N268 N 0.15249 0.35211 0.72484 0.0
N269 N 0.18356 0.38745 0.72274 0.0
N270 N 0.17979 0.3561 0.69641 0.0
C271 C 0.16394 0.37447 0.73319 0.0
C272 C 0.19155 0.37828 0.70421 0.0
C273 C 0.1604 0.3428 0.70639 0.0
C274 C 0.155 0.38457 0.7535 0.0
C275 C 0.13745 0.37057 0.76653 0.0
C276 C 0.12903 0.37994 0.78552 0.0
C277 C 0.13766 0.40369 0.79203 0.0
C278 C 0.15514 0.41772 0.77897 0.0
C279 C 0.16376 0.40832 0.76011 0.0
C280 C 0.21294 0.39168 0.69222 0.0
C281 C 0.22989 0.41274 0.702 0.0
C282 C 0.25073 0.424 0.6908 0.0
C283 C 0.25508 0.41444 0.66956 0.0
C284 C 0.2376 0.39381 0.65955 0.0
C285 C 0.21702 0.38264 0.67066 0.0
C286 C 0.14846 0.31841 0.69676 0.0
C287 C 0.15927 0.30912 0.67939 0.0
Pr288 Pr 0.99153 1.00188 0.53644 0.0
Pr289 Pr 0.03432 0.02182 0.51187 0.0
C290 C 0.95383 0.97709 0.55849 0.0
C291 C 0.94381 0.95496 0.56861 0.0
C292 C 0.93225 0.95473 0.58892 0.0
C293 C 0.92102 0.93398 0.59823 0.0
C294 C 0.92112 0.91297 0.5874 0.0
C295 C 0.93322 0.91326 0.56726 0.0
C296 C 0.94456 0.93412 0.55795 0.0
C297 C 0.01666 0.04771 0.553 0.0
C298 C 0.0444 0.98821 0.55167 0.0
C299 C 0.07223 0.04644 0.48994 0.0
C300 C 0.08309 0.06864 0.4802 0.0
C301 C 0.09094 0.06858 0.45796 0.0
C302 C 0.10354 0.0891 0.44902 0.0
C303 C 0.10861 0.11017 0.46219 0.0
C304 C 0.10009 0.11029 0.48425 0.0
C305 C 0.08737 0.08968 0.49319 0.0
C306 C 1.00922 0.976 0.49539 0.0
C307 C 0.98143 0.03567 0.49678 0.0
O308 O 0.95254 0.97713 0.53557 0.0
O309 O 0.9746 0.9912 0.56975 0.0
O310 O 0.02761 0.03276 0.54868 0.0
O311 O 0.99232 0.03909 0.54905 0.0
O312 O 0.05571 1.00697 0.54195 0.0
O313 O 0.01952 0.98061 0.54907 0.0
O314 O 0.07366 0.04591 0.51285 0.0
O315 O 0.05115 0.03289 0.47858 0.0
O316 O 0.99826 0.99099 0.49958 0.0
O317 O 0.03355 0.98461 0.49948 0.0
O318 O 0.97007 0.01707 0.50672 0.0
O319 O 1.00633 0.04308 0.49909 0.0
H320 H 0.93141 0.97064 0.59731 0.0
H321 H 0.9115 0.93439 0.61351 0.0
H322 H 0.93378 0.89737 0.55864 0.0
H323 H 0.95354 0.93396 0.54229 0.0
H324 H 0.08796 0.05252 0.44775 0.0
H325 H 0.11019 0.08833 0.43215 0.0
H326 H 0.10353 0.12628 0.49471 0.0
H327 H 0.08138 0.09016 0.5104 0.0
Pr328 Pr 0.49684 0.01188 0.02862 0.0
Pr329 Pr 0.54322 1.00818 1.0106 0.0
C330 C 0.46066 0.01466 0.05458 0.0
C331 C 0.4566 0.03189 0.07098 0.0
C332 C 0.43319 0.03653 0.0685 0.0
C333 C 0.42946 0.05383 0.0829 0.0
C334 C 0.4491 0.06681 0.10006 0.0
C335 C 0.4724 0.06182 0.10281 0.0
C336 C 0.47614 0.04454 0.08836 0.0
C337 C 0.51205 0.04301 0.99455 0.0
C338 C 0.55329 0.04321 0.05612 0.0
C339 C 0.57935 1.00474 0.98482 0.0
C340 C 0.58259 0.98707 0.9686 0.0
C341 C 0.60655 0.98865 0.96253 0.0
C342 C 0.60997 0.97133 0.94791 0.0
C343 C 0.58943 0.95221 0.9391 0.0
C344 C 0.56535 0.95089 0.94502 0.0
C345 C 0.562 0.96813 0.95976 0.0
C346 C 0.52787 0.97731 0.04482 0.0
C347 C 0.48697 0.97764 0.98249 0.0
O348 O 0.47852 1.00527 0.06171 0.0
O349 O 0.46005 0.0196 0.03251 0.0
O350 O 0.52671 0.03866 1.01128 0.0
O351 O 0.48869 0.03162 0.99536 0.0
O352 O 0.56282 0.03956 0.03704 0.0
O353 O 0.5295 0.0327 0.05821 0.0
O354 O 0.56165 0.01422 0.97751 0.0
O355 O 0.57969 0.99985 1.00687 0.0
O356 O 0.5133 0.98139 0.02784 0.0
O357 O 0.5512 0.98893 0.04426 0.0
O358 O 0.47743 0.98066 1.00175 0.0
O359 O 0.51067 0.98852 0.98055 0.0
H360 H 0.41789 0.02695 0.05521 0.0
H361 H 0.41118 0.05706 0.08058 0.0
H362 H 0.48796 0.07164 0.11573 0.0
H363 H 0.4944 0.04132 0.09056 0.0
H364 H 0.62264 1.00315 0.96928 0.0
H365 H 0.62868 0.9729 0.94347 0.0
H366 H 0.54925 0.93624 0.93875 0.0
H367 H 0.54342 0.96652 0.96453 0.0
Pr368 Pr 0.52384 0.53843 0.5374 0.0
Pr369 Pr 0.51125 0.48605 0.51368 0.0
C370 C 0.52422 0.58111 0.55162 0.0
C371 C 0.50607 0.59412 0.55411 0.0
C372 C 0.51438 0.61566 0.56653 0.0
C373 C 0.49744 0.62835 0.56909 0.0
C374 C 0.47183 0.61971 0.55923 0.0
C375 C 0.46356 0.59797 0.54684 0.0
C376 C 0.48057 0.58527 0.54429 0.0
C377 C 0.54337 0.50769 0.56329 0.0
C378 C 0.46832 0.49907 0.54262 0.0
C379 C 0.51326 0.44252 0.50937 0.0
C380 C 0.52505 0.42801 0.49672 0.0
C381 C 0.54377 0.43766 0.48272 0.0
C382 C 0.55783 0.4243 0.47404 0.0
C383 C 0.55347 0.40117 0.47942 0.0
C384 C 0.53392 0.3914 0.4926 0.0
C385 C 0.51986 0.40474 0.50119 0.0
C386 C 0.49594 0.51484 0.48116 0.0
C387 C 0.56353 0.52689 0.50338 0.0
O388 O 0.52654 0.57528 0.53005 0.0
O389 O 0.52421 0.56485 0.56612 0.0
O390 O 0.52192 0.50327 0.55108 0.0
O391 O 0.55569 0.52939 0.56334 0.0
O392 O 0.47626 0.48249 0.53364 0.0
O393 O 0.48139 0.52115 0.5433 0.0
O394 O 0.52897 0.45837 0.52438 0.0
O395 O 0.49524 0.44941 0.49751 0.0
O396 O 0.50598 0.51977 0.50226 0.0
O397 O 0.49287 0.49313 0.47584 0.0
O398 O 0.55568 0.54307 0.51331 0.0
O399 O 0.55173 0.50463 0.50378 0.0
H400 H 0.53399 0.62266 0.57432 0.0
H401 H 0.50436 0.64481 0.57912 0.0
H402 H 0.44404 0.5909 0.53888 0.0
H403 H 0.47386 0.5686 0.53464 0.0
H404 H 0.54819 0.45572 0.47935 0.0
H405 H 0.57286 0.43236 0.46407 0.0
H406 H 0.52986 0.37355 0.49672 0.0
H407 H 0.50558 0.39708 0.5121 0.0
Pr408 Pr 0.0174 0.53557 1.00846 0.0
Pr409 Pr 0.02164 0.4962 0.03722 0.0
C410 C 1.00307 0.56813 0.98422 0.0
C411 C 0.98046 0.57603 0.97983 0.0
C412 C 0.98265 0.59803 0.97206 0.0
C413 C 0.96108 0.60523 0.96628 0.0
C414 C 0.93693 0.59046 0.96807 0.0
C415 C 0.93493 0.56863 0.97661 0.0
C416 C 0.95655 0.56148 0.98248 0.0
C417 C 0.06585 0.54215 0.03298 0.0
C418 C 0.99675 0.53213 0.06109 0.0
C419 C 0.03514 0.4631 0.06115 0.0
C420 C 0.05567 0.45216 0.06377 0.0
C421 C 0.04962 0.42817 0.0638 0.0
C422 C 0.06872 0.41749 0.06816 0.0
C423 C 0.09426 0.43065 0.07275 0.0
C424 C 0.1003 0.45466 0.07172 0.0
C425 C 0.08118 0.46533 0.0672 0.0
C426 C 0.97321 0.4902 1.01294 0.0
C427 C 0.0419 0.49931 0.98441 0.0
O428 O 1.00095 0.54767 0.97497 0.0
O429 O 0.01543 0.57217 1.0056 0.0
O430 O 0.04551 0.53386 0.04119 0.0
O431 O 0.06164 0.54854 1.01182 0.0
O432 O 1.00992 0.51751 0.06606 0.0
O433 O 0.99356 0.53873 0.03936 0.0
O434 O 0.04067 0.48442 0.06958 0.0
O435 O 0.02002 0.4588 0.04111 0.0
O436 O 0.99354 0.49798 1.00457 0.0
O437 O 0.97736 0.48416 0.03426 0.0
O438 O 0.02929 0.51439 0.97964 0.0
O439 O 0.04474 0.4923 1.00599 0.0
H440 H 1.001 0.6095 0.97009 0.0
H441 H 0.96331 0.62229 0.96017 0.0
H442 H 0.91662 0.55677 0.978 0.0
H443 H 0.95456 0.54442 0.98857 0.0
H444 H 0.03005 0.41771 0.06098 0.0
H445 H 0.06344 0.39894 0.0684 0.0
H446 H 0.11973 0.46534 0.0754 0.0
H447 H 0.08636 0.48389 0.06706 0.0
H448 H 0.29698 0.24911 0.38694 0.0
H449 H 0.26724 0.22627 0.41124 0.0
H450 H 0.20566 0.24307 0.36944 0.0
H451 H 0.23496 0.26546 0.3448 0.0
H452 H 0.20482 0.24313 0.42146 0.0
H453 H 0.21693 0.16395 0.37951 0.0
H454 H 0.24533 0.1854 0.3926 0.0
H455 H 0.22652 0.19158 0.36721 0.0
C456 C 0.27714 0.2481 0.38304 0.0
C457 C 0.26835 0.25897 0.36378 0.0
C458 C 0.26023 0.23516 0.397 0.0
C459 C 0.2343 0.23289 0.39195 0.0
C460 C 0.22564 0.24473 0.37364 0.0
H461 H 0.10572 0.12408 0.41721 0.0
H462 H 0.13563 0.15598 0.40164 0.0
C463 C 0.24248 0.25761 0.35964 0.0
C464 C 0.21583 0.21643 0.4041 0.0
H465 H 0.18908 0.15897 0.40775 0.0
C466 C 0.20144 0.22473 0.41866 0.0
C467 C 0.21131 0.19247 0.40004 0.0
C468 C 0.22565 0.18268 0.38387 0.0
C469 C 0.18259 0.20955 0.42936 0.0
C470 C 0.17817 0.18561 0.4253 0.0
C471 C 0.19261 0.17738 0.4108 0.0
C472 C 0.1583 0.16856 0.43544 0.0
C473 C 0.16713 0.21909 0.44443 0.0
C474 C 0.16095 0.1654 0.45967 0.0
C475 C 0.144 0.14706 0.46861 0.0
C476 C 0.12421 0.13155 0.45341 0.0
C477 C 0.12097 0.13551 0.42931 0.0
C478 C 0.13794 0.15378 0.42041 0.0
H479 H 0.17002 0.23778 0.44266 0.0
H480 H 0.14669 0.2099 0.43965 0.0
H481 H 0.17265 0.21643 0.4632 0.0
H482 H 0.17679 0.17646 0.47147 0.0
H483 H 0.1472 0.14433 0.4872 0.0
H484 H 0.31724 0.85798 0.81596 0.0
H485 H 0.34249 0.87823 0.85258 0.0
H486 H 0.4105 0.8881 0.82075 0.0
H487 H 0.38548 0.86842 0.78401 0.0
H488 H 0.38471 0.86844 0.88156 0.0
H489 H 0.41105 0.95369 0.84366 0.0
H490 H 0.38516 0.92988 0.82987 0.0
H491 H 0.41719 0.93091 0.82699 0.0
C492 C 0.33756 0.86454 0.81675 0.0
C493 C 0.34936 0.86169 0.79706 0.0
C494 C 0.35194 0.87596 0.8377 0.0
C495 C 0.37827 0.88486 0.8392 0.0
C496 C 0.39015 0.88158 0.8198 0.0
H497 H 0.50086 0.96656 0.94073 0.0
H498 H 0.47396 0.94266 0.90703 0.0
C499 C 0.37584 0.87014 0.79891 0.0
C500 C 0.39341 0.89796 0.86088 0.0
H501 H 0.43201 0.95099 0.88166 0.0
C502 C 0.39496 0.88652 0.8817 0.0
C503 C 0.40667 0.92152 0.86089 0.0
C504 C 0.40484 0.93484 0.83923 0.0
C505 C 0.41009 0.89794 0.90246 0.0
C506 C 0.42358 0.92146 0.90238 0.0
C507 C 0.42173 0.93292 0.88162 0.0
C508 C 0.43997 0.93461 0.92354 0.0
C509 C 0.41207 0.88461 0.92407 0.0
C510 C 0.42976 0.93797 0.94403 0.0
C511 C 0.44512 0.95158 0.96342 0.0
C512 C 0.47092 0.96222 0.96255 0.0
C513 C 0.4811 0.95861 0.94205 0.0
C514 C 0.46575 0.94497 0.92274 0.0
H515 H 0.4058 0.86576 0.91961 0.0
H516 H 0.43179 0.88953 0.93332 0.0
H517 H 0.39981 0.88853 0.93642 0.0
H518 H 0.40979 0.93051 0.94484 0.0
H519 H 0.43665 0.9541 0.97889 0.0
H520 H 0.56616 0.34948 0.70561 0.0
H521 H 0.55475 0.37249 0.6738 0.0
H522 H 0.62018 0.42906 0.70004 0.0
H523 H 0.63141 0.4066 0.73196 0.0
H524 H 0.54586 0.41701 0.67792 0.0
H525 H 0.6266 0.41943 0.62951 0.0
H526 H 0.61688 0.3987 0.65095 0.0
H527 H 0.63532 0.42766 0.66047 0.0
C528 C 0.57804 0.36686 0.70468 0.0
C529 C 0.59992 0.37602 0.72121 0.0
C530 C 0.57157 0.37993 0.68642 0.0
C531 C 0.58692 0.40231 0.68428 0.0
C532 C 0.60842 0.41163 0.70098 0.0
H533 H 0.58683 0.5149 0.59459 0.0
H534 H 0.59697 0.48861 0.62344 0.0
C535 C 0.61484 0.39868 0.71922 0.0
C536 C 0.58027 0.41634 0.66506 0.0
H537 H 0.60241 0.44489 0.61807 0.0
C538 C 0.55806 0.42293 0.66468 0.0
C539 C 0.59634 0.42417 0.64792 0.0
C540 C 0.62003 0.417 0.64701 0.0
C541 C 0.55184 0.4377 0.64803 0.0
C542 C 0.568 0.44567 0.63094 0.0
C543 C 0.59008 0.43884 0.63118 0.0
C544 C 0.56236 0.46119 0.61277 0.0
C545 C 0.52845 0.44525 0.64942 0.0
C546 C 0.53987 0.45433 0.59681 0.0
C547 C 0.53401 0.46933 0.58047 0.0
C548 C 0.5507 0.49141 0.5795 0.0
C549 C 0.57362 0.49801 0.59494 0.0
C550 C 0.57941 0.483 0.61141 0.0
H551 H 0.52217 0.44286 0.66705 0.0
H552 H 0.53179 0.46361 0.64564 0.0
H553 H 0.51284 0.43476 0.63615 0.0
H554 H 0.5267 0.43741 0.59713 0.0
H555 H 0.51618 0.46373 0.56884 0.0
H556 H 0.86848 0.59488 0.21356 0.0
H557 H 0.88485 0.57933 0.18125 0.0
H558 H 0.96109 0.61446 0.21298 0.0
H559 H 0.9449 0.63001 0.24543 0.0
H560 H 0.95502 0.61932 0.16577 0.0
H561 H 0.91667 0.52727 0.18147 0.0
H562 H 0.89293 0.54206 0.17742 0.0
H563 H 0.91722 0.55003 0.20259 0.0
C564 C 0.88876 0.59911 0.21393 0.0
C565 C 0.90525 0.61372 0.23241 0.0
C566 C 0.89814 0.59014 0.19532 0.0
C567 C 0.92432 0.59532 0.19467 0.0
C568 C 0.94083 0.61008 0.21294 0.0
H569 H 1.0 0.52286 0.10789 0.0
H570 H 0.98256 0.53843 0.13941 0.0
C571 C 0.93147 0.61908 0.23153 0.0
C572 C 0.93452 0.58574 0.17485 0.0
H573 H 0.93452 0.53552 0.14611 0.0
C574 C 0.95052 0.60098 0.16152 0.0
C575 C 0.92906 0.56178 0.1693 0.0
C576 C 0.91324 0.5443 0.18356 0.0
C577 C 0.96084 0.59304 0.14284 0.0
C578 C 0.95478 0.5691 0.13685 0.0
C579 C 0.93904 0.55386 0.15037 0.0
C580 C 0.96517 0.55949 0.11719 0.0
C581 C 0.9787 0.61044 0.13008 0.0
C582 C 0.96105 0.56573 0.09385 0.0
C583 C 0.97111 0.55682 0.07567 0.0
C584 C 0.98544 0.54128 0.08025 0.0
C585 C 0.98916 0.53478 0.10356 0.0
C586 C 0.97912 0.5437 0.1217 0.0
H587 H 0.98676 0.62709 0.14069 0.0
H588 H 0.9945 0.60402 0.12576 0.0
H589 H 0.96824 0.61369 0.11335 0.0
H590 H 0.9499 0.57742 0.08962 0.0
H591 H 0.96764 0.56217 0.058 0.0
H592 H 0.42144 0.24979 0.19745 0.0
H593 H 0.43436 0.22001 0.17707 0.0
H594 H 0.39503 0.16946 0.22094 0.0
H595 H 0.38124 0.19882 0.24078 0.0
H596 H 0.46111 0.1885 0.19296 0.0
H597 H 0.36194 0.14464 0.1534 0.0
H598 H 0.37151 0.17327 0.16754 0.0
H599 H 0.36673 0.14869 0.185 0.0
C600 C 0.41557 0.23234 0.20278 0.0
C601 C 0.40008 0.22665 0.22058 0.0
C602 C 0.42312 0.2154 0.19124 0.0
C603 C 0.41527 0.19251 0.19726 0.0
C604 C 0.40094 0.18699 0.21581 0.0
H605 H 0.46365 0.07729 0.14751 0.0
H606 H 0.45682 0.10836 0.17149 0.0
C607 C 0.39332 0.20387 0.2273 0.0
C608 C 0.42088 0.17421 0.18331 0.0
H609 H 0.39259 0.12591 0.14696 0.0
C610 C 0.44618 0.17478 0.18289 0.0
C611 C 0.40132 0.15658 0.16994 0.0
C612 C 0.37385 0.15578 0.16874 0.0
C613 C 0.45244 0.15797 0.1696 0.0
C614 C 0.43283 0.14002 0.15672 0.0
C615 C 0.40757 0.1396 0.15701 0.0
C616 C 0.43796 0.12176 0.14226 0.0
C617 C 0.47995 0.15984 0.16906 0.0
C618 C 0.42922 0.11875 0.11799 0.0
C619 C 0.43293 0.10097 0.10432 0.0
C620 C 0.44541 0.08579 0.11467 0.0
C621 C 0.45426 0.08889 0.13899 0.0
C622 C 0.45044 0.10666 0.15269 0.0
H623 H 0.49238 0.17743 0.17489 0.0
H624 H 0.4856 0.14768 0.18115 0.0
H625 H 0.48322 0.15533 0.15106 0.0
H626 H 0.4195 0.1302 0.10962 0.0
H627 H 0.42621 0.09923 0.08558 0.0
H628 H 0.16477 0.83947 0.60902 0.0
H629 H 0.1358 0.86097 0.5933 0.0
H630 H 0.17465 0.91773 0.64385 0.0
H631 H 0.20368 0.89655 0.65951 0.0
H632 H 0.1218 0.9058 0.64079 0.0
H633 H 0.15341 0.91645 0.55256 0.0
H634 H 0.14377 0.88734 0.56101 0.0
H635 H 0.17135 0.90758 0.57711 0.0
C636 C 0.16725 0.8566 0.61665 0.0
C637 C 0.18651 0.86627 0.63555 0.0
C638 C 0.15068 0.86885 0.60767 0.0
C639 C 0.15323 0.89102 0.61729 0.0
C640 C 0.17231 0.90062 0.63622 0.0
H641 H 0.09593 0.99848 0.55958 0.0
H642 H 0.12124 0.97438 0.57636 0.0
C643 C 0.18882 0.88843 0.64521 0.0
C644 C 0.13611 0.90437 0.6078 0.0
H645 H 0.1191 0.93035 0.55893 0.0
C646 C 0.12111 0.91111 0.62287 0.0
C647 C 0.13551 0.91148 0.5845 0.0
C648 C 0.152 0.90555 0.56786 0.0
C649 C 0.10554 0.92483 0.61527 0.0
C650 C 0.10473 0.93172 0.5919 0.0
C651 C 0.11968 0.92493 0.57681 0.0
C652 C 0.08915 0.94661 0.58289 0.0
C653 C 0.09062 0.93236 0.6325 0.0
C654 C 0.06268 0.93904 0.58112 0.0
C655 C 0.04811 0.95283 0.5716 0.0
C656 C 0.05977 0.97438 0.56353 0.0
C657 C 0.08632 0.98201 0.56564 0.0
C658 C 0.10083 0.96823 0.57517 0.0
H659 H 0.09776 0.93013 0.65102 0.0
H660 H 0.09129 0.95067 0.63082 0.0
H661 H 0.07055 0.92183 0.62865 0.0
H662 H 0.05326 0.92225 0.58662 0.0
H663 H 0.02771 0.94636 0.57008 0.0
H664 H 0.75384 0.42739 0.87945 0.0
H665 H 0.79472 0.45015 0.90081 0.0
H666 H 0.81102 0.38791 0.92233 0.0
H667 H 0.7707 0.36504 0.90044 0.0
H668 H 0.8131 0.45215 0.94853 0.0
H669 H 0.87394 0.42155 0.89402 0.0
H670 H 0.84062 0.41706 0.88462 0.0
H671 H 0.85104 0.3985 0.90493 0.0
C672 C 0.76628 0.41854 0.88848 0.0
C673 C 0.75905 0.39438 0.88815 0.0
C674 C 0.78953 0.43158 0.9008 0.0
C675 C 0.80603 0.4207 0.91284 0.0
C676 C 0.79876 0.39663 0.91278 0.0
H677 H 0.92819 0.46654 0.02605 0.0
H678 H 0.8872 0.45283 1.00102 0.0
C679 C 0.77557 0.3836 0.90049 0.0
C680 C 0.83066 0.43442 0.92595 0.0
H681 H 0.89403 0.44094 0.93135 0.0
C682 C 0.83084 0.44991 0.94465 0.0
C683 C 0.8538 0.43178 0.92057 0.0
C684 C 0.85494 0.4165 0.89979 0.0
C685 C 0.85351 0.46208 0.95876 0.0
C686 C 0.87647 0.45834 0.95426 0.0
C687 C 0.87638 0.44361 0.93493 0.0
C688 C 0.90067 0.46861 0.96993 0.0
C689 C 0.85267 0.47879 0.97838 0.0
C690 C 0.9219 0.48191 0.96074 0.0
C691 C 0.94539 0.48956 0.97495 0.0
C692 C 0.94805 0.48389 0.99855 0.0
C693 C 0.92666 0.47116 1.00792 0.0
C694 C 0.90319 0.46347 0.99369 0.0
H695 H 0.83566 0.48495 0.97496 0.0
H696 H 0.85181 0.47004 0.99511 0.0
H697 H 0.86979 0.49388 0.98073 0.0
H698 H 0.92037 0.486 0.94243 0.0
H699 H 0.96158 0.49946 0.96732 0.0
H700 H 0.75878 0.62991 0.40952 0.0
H701 H 0.72368 0.61297 0.43099 0.0
H702 H 0.70049 0.55275 0.38279 0.0
H703 H 0.73523 0.56994 0.36048 0.0
H704 H 0.66887 0.59666 0.40906 0.0
H705 H 0.70501 0.52924 0.4524 0.0
H706 H 0.72587 0.55458 0.44229 0.0
H707 H 0.70649 0.5321 0.42137 0.0
C708 C 0.74616 0.61316 0.40318 0.0
C709 C 0.74987 0.60152 0.38291 0.0
C710 C 0.72614 0.6034 0.41568 0.0
C711 C 0.70944 0.58157 0.4086 0.0
C712 C 0.71327 0.56956 0.38874 0.0
H713 H 0.58076 0.50035 0.47358 0.0
H714 H 0.61536 0.51297 0.4501 0.0
C715 C 0.73325 0.57942 0.37603 0.0
C716 C 0.6876 0.57195 0.42162 0.0
H717 H 0.66541 0.53179 0.46036 0.0
C718 C 0.66806 0.58242 0.42023 0.0
C719 C 0.68642 0.55326 0.43604 0.0
C720 C 0.70705 0.54159 0.43835 0.0
C721 C 0.64743 0.57478 0.43281 0.0
C722 C 0.64661 0.55658 0.44795 0.0
C723 C 0.66598 0.54581 0.44897 0.0
C724 C 0.62601 0.5487 0.46297 0.0
C725 C 0.62645 0.58605 0.4293 0.0
C726 C 0.62069 0.56434 0.47863 0.0
C727 C 0.60075 0.55721 0.49195 0.0
C728 C 0.58581 0.53411 0.49034 0.0
C729 C 0.59177 0.51827 0.47534 0.0
C730 C 0.61161 0.52548 0.46183 0.0
H731 H 0.62571 0.5939 0.41205 0.0
H732 H 0.60774 0.57353 0.43018 0.0
H733 H 0.62991 0.59998 0.44332 0.0
H734 H 0.63193 0.58219 0.48052 0.0
H735 H 0.597 0.5699 0.50346 0.0
H736 H 0.29051 0.3704 0.16571 0.0
H737 H 0.26195 0.38599 0.13924 0.0
H738 H 0.19843 0.34597 0.17034 0.0
H739 H 0.22662 0.33038 0.19664 0.0
H740 H 0.21524 0.36273 0.10622 0.0
H741 H 0.19925 0.41438 0.18089 0.0
H742 H 0.22548 0.40231 0.18255 0.0
H743 H 0.19447 0.38454 0.186 0.0
C744 C 0.27042 0.36477 0.16667 0.0
C745 C 0.26082 0.34952 0.18351 0.0
C746 C 0.25418 0.37368 0.15159 0.0
C747 C 0.22821 0.36738 0.15318 0.0
C748 C 0.2185 0.35134 0.16918 0.0
H749 H 0.09159 0.39626 0.10274 0.0
H750 H 0.12547 0.38076 0.11903 0.0
C751 C 0.23463 0.34254 0.18425 0.0
C752 C 0.21114 0.37826 0.13912 0.0
H753 H 0.17079 0.41028 0.14527 0.0
C754 C 0.20572 0.37339 0.11461 0.0
C755 C 0.19896 0.39225 0.15021 0.0
C756 C 0.20497 0.3989 0.17634 0.0
C757 C 0.18734 0.38127 0.10104 0.0
C758 C 0.17441 0.39443 0.11236 0.0
C759 C 0.18061 0.4 0.1367 0.0
C760 C 0.15346 0.40179 0.09975 0.0
C761 C 0.1811 0.37474 0.07493 0.0
C762 C 0.15792 0.41849 0.08317 0.0
C763 C 0.13845 0.42731 0.07361 0.0
C764 C 0.11428 0.41962 0.08059 0.0
C765 C 0.1098 0.40233 0.09665 0.0
C766 C 0.1292 0.39354 0.10612 0.0
H767 H 0.18989 0.36147 0.06956 0.0
H768 H 0.1603 0.36816 0.0697 0.0
H769 H 0.18815 0.3902 0.06511 0.0
H770 H 0.17663 0.42528 0.07827 0.0
H771 H 0.14245 0.44047 0.06113 0.0
H772 H 0.54389 0.21473 0.85972 0.0
H773 H 0.52861 0.17931 0.87988 0.0
H774 H 0.60506 0.1851 0.91075 0.0
H775 H 0.62042 0.22015 0.89067 0.0
H776 H 0.54243 0.13664 0.87961 0.0
H777 H 0.56644 0.18314 0.96803 0.0
H778 H 0.5644 0.19763 0.9411 0.0
H779 H 0.59209 0.18892 0.95088 0.0
C780 C 0.55744 0.20829 0.87059 0.0
C781 C 0.58333 0.2205 0.87389 0.0
C782 C 0.54868 0.18811 0.88215 0.0
C783 C 0.56566 0.17986 0.89721 0.0
C784 C 0.59157 0.19145 0.89967 0.0
H785 H 0.55961 0.0713 0.99293 0.0
H786 H 0.57194 0.10361 0.96802 0.0
C787 C 0.6003 0.21153 0.88819 0.0
C788 C 0.5565 0.15945 0.91084 0.0
H789 H 0.55539 0.14242 0.96709 0.0
C790 C 0.54505 0.13788 0.89873 0.0
C791 C 0.55998 0.16112 0.93579 0.0
C792 C 0.57118 0.18396 0.94977 0.0
C793 C 0.53769 0.11782 0.91094 0.0
C794 C 0.5415 0.11948 0.93592 0.0
C795 C 0.55263 0.14112 0.94797 0.0
C796 C 0.53408 0.09906 0.95001 0.0
C797 C 0.52661 0.09496 0.897 0.0
C798 C 0.5087 0.08578 0.94823 0.0
C799 C 0.50164 0.06731 0.96242 0.0
C800 C 0.51979 0.06189 0.97882 0.0
C801 C 0.54521 0.07507 0.98047 0.0
C802 C 0.55227 0.09353 0.96625 0.0
H803 H 0.53111 0.09586 0.87866 0.0
H804 H 0.53371 0.08141 0.90556 0.0
H805 H 0.50573 0.08979 0.89612 0.0
H806 H 0.49425 0.08998 0.93621 0.0
H807 H 0.48189 0.0575 0.96081 0.0
H808 H 0.95087 0.77598 0.38382 0.0
H809 H 0.96818 0.81392 0.40509 0.0
H810 H 0.89368 0.823 0.39749 0.0
H811 H 0.8763 0.78532 0.37615 0.0
H812 H 0.96766 0.85779 0.39219 0.0
H813 H 0.91564 0.83471 0.46848 0.0
H814 H 0.91807 0.81339 0.44707 0.0
H815 H 0.89576 0.82947 0.44047 0.0
C816 C 0.93818 0.78612 0.38645 0.0
C817 C 0.91208 0.77733 0.37844 0.0
C818 C 0.9481 0.8078 0.39876 0.0
C819 C 0.93218 0.82118 0.40345 0.0
C820 C 0.90629 0.8128 0.39477 0.0
H821 H 0.95867 0.95608 0.47866 0.0
H822 H 0.93945 0.91884 0.45598 0.0
C823 C 0.89637 0.79119 0.38249 0.0
C824 C 0.94261 0.84394 0.41721 0.0
H825 H 0.93817 0.874 0.46713 0.0
C826 C 0.96126 0.86128 0.40861 0.0
C827 C 0.93421 0.84865 0.43863 0.0
C828 C 0.91499 0.83054 0.44937 0.0
C829 C 0.97149 0.88316 0.42061 0.0
C830 C 0.96327 0.88782 0.44213 0.0
C831 C 0.94447 0.87054 0.45065 0.0
C832 C 0.97461 0.9102 0.45641 0.0
C833 C 0.99071 0.90126 0.40984 0.0
C834 C 1.00062 0.91754 0.46478 0.0
C835 C 1.01157 0.93871 0.47766 0.0
C836 C 0.99679 0.95309 0.48268 0.0
C837 C 0.97059 0.94548 0.47496 0.0
C838 C 0.95961 0.9242 0.462 0.0
H839 H 0.98942 0.89743 0.39057 0.0
H840 H 0.98822 0.91855 0.41281 0.0
H841 H 1.00999 0.90173 0.41813 0.0
H842 H 1.01255 0.90687 0.46132 0.0
H843 H 0.03175 0.94388 0.48357 0.0
H844 H 0.37124 0.77405 0.61356 0.0
H845 H 0.39277 0.7486 0.59719 0.0
H846 H 0.32662 0.69085 0.59792 0.0
H847 H 0.30484 0.7164 0.61403 0.0
H848 H 0.40327 0.71336 0.6206 0.0
H849 H 0.34628 0.6801 0.53347 0.0
H850 H 0.34366 0.70507 0.54959 0.0
H851 H 0.32838 0.67671 0.55773 0.0
C852 C 0.36115 0.75598 0.60986 0.0
C853 C 0.33642 0.74717 0.61515 0.0
C854 C 0.37344 0.74147 0.60048 0.0
C855 C 0.36128 0.71784 0.5962 0.0
C856 C 0.33621 0.70909 0.60062 0.0
H857 H 0.42297 0.60427 0.5687 0.0
H858 H 0.39483 0.62737 0.57632 0.0
C859 C 0.3238 0.72368 0.60987 0.0
C860 C 0.37582 0.70227 0.58939 0.0
H861 H 0.37813 0.66252 0.54701 0.0
C862 C 0.3978 0.70233 0.60445 0.0
C863 C 0.36853 0.68772 0.56842 0.0
C864 C 0.34555 0.68746 0.55124 0.0
C865 C 0.41273 0.68833 0.59913 0.0
C866 C 0.40565 0.67401 0.57806 0.0
C867 C 0.38347 0.67358 0.56313 0.0
C868 C 0.42156 0.65983 0.57121 0.0
C869 C 0.43594 0.68881 0.61616 0.0
C870 C 0.4456 0.67044 0.56528 0.0
C871 C 0.46164 0.65735 0.5608 0.0
C872 C 0.45394 0.63334 0.5622 0.0
C873 C 0.42943 0.62268 0.56732 0.0
C874 C 0.41335 0.63583 0.57174 0.0
H875 H 0.43582 0.69694 0.63373 0.0
H876 H 0.43742 0.67114 0.61844 0.0
H877 H 0.45305 0.69883 0.60903 0.0
H878 H 0.45213 0.68894 0.5645 0.0
H879 H 0.48017 0.66606 0.55641 0.0
H880 H 0.77723 0.73281 0.67431 0.0
H881 H 0.80706 0.75514 0.64969 0.0
H882 H 0.79458 0.81756 0.67592 0.0
H883 H 0.76504 0.79555 0.70053 0.0
H884 H 0.7933 0.81412 0.62697 0.0
H885 H 0.87887 0.79664 0.67453 0.0
H886 H 0.85285 0.77197 0.66341 0.0
H887 H 0.84947 0.79088 0.68656 0.0
C888 C 0.78091 0.7513 0.67484 0.0
C889 C 0.76871 0.76239 0.68934 0.0
C890 C 0.79796 0.76401 0.6608 0.0
C891 C 0.8032 0.78801 0.66119 0.0
C892 C 0.79075 0.79904 0.67533 0.0
H893 H 0.92041 0.90234 0.63339 0.0
H894 H 0.89255 0.86883 0.64853 0.0
C895 C 0.77374 0.7864 0.68928 0.0
C896 C 0.82173 0.80199 0.64711 0.0
H897 H 0.88494 0.82143 0.64366 0.0
C898 C 0.81331 0.81552 0.63035 0.0
C899 C 0.84781 0.80385 0.65177 0.0
C900 C 0.85796 0.79022 0.67015 0.0
C901 C 0.83035 0.83149 0.61869 0.0
C902 C 0.8565 0.83364 0.62361 0.0
C903 C 0.86485 0.81956 0.6398 0.0
C904 C 0.87555 0.85216 0.61411 0.0
C905 C 0.82033 0.8468 0.6022 0.0
C906 C 0.87588 0.8535 0.58975 0.0
C907 C 0.8916 0.87281 0.58101 0.0
C908 C 0.90734 0.89101 0.59654 0.0
C909 C 0.90813 0.88884 0.62096 0.0
C910 C 0.89237 0.86961 0.62965 0.0
H911 H 0.80046 0.84598 0.60392 0.0
H912 H 0.83215 0.86496 0.60562 0.0
H913 H 0.82093 0.84127 0.58373 0.0
H914 H 0.86334 0.84 0.57747 0.0
H915 H 0.89051 0.87396 0.5621 0.0
H916 H 0.68267 0.19185 0.22526 0.0
H917 H 0.6564 0.17084 0.18965 0.0
H918 H 0.6798 0.11082 0.20717 0.0
H919 H 0.70497 0.13121 0.24345 0.0
H920 H 0.6665 0.15008 0.15126 0.0
H921 H 0.60371 0.08562 0.19994 0.0
H922 H 0.62625 0.11131 0.2144 0.0
H923 H 0.63637 0.08673 0.20692 0.0
C924 C 0.68209 0.17412 0.22166 0.0
C925 C 0.69569 0.16315 0.23743 0.0
C926 C 0.66722 0.1622 0.20119 0.0
C927 C 0.6657 0.13912 0.19604 0.0
C928 C 0.68021 0.12846 0.21111 0.0
H929 H 0.60483 0.05933 0.06312 0.0
H930 H 0.63184 0.08378 0.09646 0.0
C931 C 0.69491 0.14028 0.23169 0.0
C932 C 0.64858 0.12609 0.17517 0.0
H933 H 0.59916 0.07802 0.15845 0.0
C934 C 0.65169 0.13437 0.1528 0.0
C935 C 0.62893 0.10587 0.17729 0.0
C936 C 0.6234 0.09697 0.20095 0.0
C937 C 0.63603 0.12269 0.13243 0.0
C938 C 0.61719 0.10187 0.13446 0.0
C939 C 0.61377 0.09386 0.15688 0.0
C940 C 0.60083 0.08795 0.11364 0.0
C941 C 0.63956 0.13301 0.10902 0.0
C942 C 0.57441 0.0817 0.11245 0.0
C943 C 0.55892 0.06739 0.09361 0.0
C944 C 0.56958 0.0591 0.07557 0.0
C945 C 0.59603 0.06561 0.07663 0.0
C946 C 0.61151 0.07972 0.09561 0.0
H947 H 0.64879 0.15186 0.11131 0.0
H948 H 0.65192 0.12515 0.10007 0.0
H949 H 0.6212 0.12979 0.09739 0.0
H950 H 0.56576 0.08779 0.12621 0.0
H951 H 0.53863 0.0628 0.09324 0.0
H952 H 0.47884 0.64779 0.3115 0.0
H953 H 0.49038 0.62419 0.34261 0.0
H954 H 0.4294 0.63178 0.3784 0.0
H955 H 0.41771 0.6552 0.34741 0.0
H956 H 0.50356 0.63107 0.39179 0.0
H957 H 0.4132 0.56208 0.36732 0.0
H958 H 0.42386 0.58548 0.34891 0.0
H959 H 0.40922 0.5897 0.3742 0.0
C960 C 0.46817 0.64474 0.3262 0.0
C961 C 0.44715 0.65312 0.32682 0.0
C962 C 0.47471 0.63118 0.34392 0.0
C963 C 0.46039 0.62577 0.36255 0.0
C964 C 0.44032 0.63521 0.36389 0.0
H965 H 0.49731 0.5596 0.49046 0.0
H966 H 0.48942 0.58707 0.46208 0.0
C967 C 0.4337 0.64864 0.34618 0.0
C968 C 0.46571 0.60955 0.38007 0.0
H969 H 0.43912 0.55798 0.40209 0.0
C970 C 0.4895 0.61507 0.39405 0.0
C971 C 0.44748 0.5885 0.38275 0.0
C972 C 0.42209 0.58092 0.36736 0.0
C973 C 0.49541 0.60029 0.41089 0.0
C974 C 0.47687 0.57959 0.41406 0.0
C975 C 0.45323 0.57395 0.39985 0.0
C976 C 0.48178 0.56312 0.4315 0.0
C977 C 0.52161 0.60674 0.42474 0.0
C978 C 0.47937 0.54033 0.42392 0.0
C979 C 0.48369 0.52462 0.44014 0.0
C980 C 0.49049 0.53137 0.46428 0.0
C981 C 0.49251 0.55405 0.47194 0.0
C982 C 0.48811 0.56978 0.45571 0.0
H983 H 0.53533 0.61975 0.41605 0.0
H984 H 0.52109 0.6142 0.44249 0.0
H985 H 0.52855 0.59141 0.42702 0.0
H986 H 0.47435 0.53474 0.40538 0.0
H987 H 0.48196 0.50724 0.43372 0.0
H988 H 0.12468 0.44412 0.79504 0.0
H989 H 0.10941 0.46022 0.82792 0.0
H990 H 0.11392 0.40213 0.86774 0.0
H991 H 0.12943 0.38602 0.83508 0.0
H992 H 0.06513 0.43951 0.84981 0.0
H993 H 0.15313 0.45828 0.91396 0.0
H994 H 0.15277 0.45329 0.88269 0.0
H995 H 0.14189 0.42953 0.90039 0.0
C996 C 0.1227 0.43484 0.81087 0.0
C997 C 0.12844 0.41372 0.81227 0.0
C998 C 0.1138 0.44404 0.82966 0.0
C999 C 0.11073 0.4326 0.85055 0.0
C1000 C 0.11641 0.41153 0.85203 0.0
H1001 H 0.06333 0.46357 0.98518 0.0
H1002 H 0.07935 0.44736 0.9529 0.0
C1003 C 0.12509 0.4022 0.83317 0.0
C1004 C 0.10105 0.44242 0.8705 0.0
H1005 H 0.11704 0.46363 0.92819 0.0
C1006 C 0.07653 0.44486 0.86692 0.0
C1007 C 0.11574 0.44928 0.89297 0.0
C1008 C 0.14243 0.44768 0.89782 0.0
C1009 C 0.06619 0.45353 0.88514 0.0
C1010 C 0.08101 0.46075 0.90757 0.0
C1011 C 0.10555 0.45823 0.91114 0.0
C1012 C 0.07147 0.47096 0.92748 0.0
C1013 C 0.03913 0.45414 0.88026 0.0
C1014 C 0.06206 0.49003 0.92442 0.0
C1015 C 0.05266 0.49922 0.94283 0.0
C1016 C 0.05275 0.4899 0.96507 0.0
C1017 C 0.06285 0.47123 0.96836 0.0
C1018 C 0.07207 0.46192 0.94983 0.0
H1019 H 0.02819 0.44154 0.86557 0.0
H1020 H 0.02946 0.4504 0.89609 0.0
H1021 H 0.03882 0.47149 0.875 0.0
H1022 H 0.06205 0.49795 0.90774 0.0
H1023 H 0.04534 0.51373 0.9396 0.0
H1024 H 0.65591 0.78591 0.86051 0.0
H1025 H 0.6435 0.81695 0.87889 0.0
H1026 H 0.59245 0.81777 0.81593 0.0
H1027 H 0.60458 0.7864 0.79735 0.0
H1028 H 0.6477 0.86215 0.85471 0.0
H1029 H 0.5521 0.8158 0.8758 0.0
H1030 H 0.5759 0.80126 0.87333 0.0
H1031 H 0.56042 0.80994 0.84737 0.0
C1032 C 0.64163 0.79231 0.85072 0.0
C1033 C 0.63113 0.78364 0.8275 0.0
C1034 C 0.63471 0.81014 0.8612 0.0
C1035 C 0.61704 0.81949 0.84876 0.0
C1036 C 0.60601 0.81059 0.82581 0.0
H1037 H 0.55992 0.92971 0.89874 0.0
H1038 H 0.56616 0.89818 0.87494 0.0
C1039 C 0.61305 0.7928 0.81522 0.0
C1040 C 0.61146 0.83952 0.85946 0.0
H1041 H 0.56773 0.85533 0.88724 0.0
C1042 C 0.63018 0.86076 0.86171 0.0
C1043 C 0.58848 0.83755 0.86828 0.0
C1044 C 0.56797 0.81494 0.86624 0.0
C1045 C 0.62667 0.88015 0.87295 0.0
C1046 C 0.60411 0.87801 0.88273 0.0
C1047 C 0.58506 0.85688 0.87983 0.0
C1048 C 0.60043 0.89723 0.8969 0.0
C1049 C 0.64714 0.90275 0.87413 0.0
C1050 C 0.61743 0.9069 0.91728 0.0
C1051 C 0.61398 0.9249 0.9308 0.0
C1052 C 0.59325 0.93339 0.92439 0.0
C1053 C 0.57601 0.92345 0.90415 0.0
C1054 C 0.57958 0.90551 0.89053 0.0
H1055 H 0.65889 0.90324 0.85977 0.0
H1056 H 0.63901 0.91744 0.8729 0.0
H1057 H 0.65979 0.90498 0.89117 0.0
H1058 H 0.63324 0.90034 0.92289 0.0
H1059 H 0.62726 0.93188 0.94656 0.0
H1060 H 0.8196 0.14365 0.43364 0.0
H1061 H 0.8472 0.12114 0.45002 0.0
H1062 H 0.90396 0.15539 0.40815 0.0
H1063 H 0.87652 0.17802 0.39172 0.0
H1064 H 0.8687 0.0923 0.41804 0.0
H1065 H 0.94025 0.15864 0.47943 0.0
H1066 H 0.9085 0.16035 0.47082 0.0
H1067 H 0.93092 0.16655 0.45034 0.0
C1068 C 0.83814 0.14668 0.42825 0.0
C1069 C 0.84592 0.1626 0.41142 0.0
C1070 C 0.85379 0.13373 0.4375 0.0
C1071 C 0.87759 0.13671 0.43033 0.0
C1072 C 0.8857 0.15298 0.41399 0.0
H1073 H 0.9976 0.07368 0.47192 0.0
H1074 H 0.97245 0.09765 0.45419 0.0
C1075 C 0.86998 0.16579 0.40457 0.0
C1076 C 0.89337 0.12194 0.43897 0.0
H1077 H 0.94688 0.1222 0.47549 0.0
C1078 C 0.88579 0.09877 0.43062 0.0
C1079 C 0.91576 0.13059 0.45511 0.0
C1080 C 0.92444 0.15537 0.46464 0.0
C1081 C 0.90011 0.08394 0.43797 0.0
C1082 C 0.92222 0.0924 0.45463 0.0
C1083 C 0.92993 0.11571 0.46275 0.0
C1084 C 0.93722 0.07725 0.46439 0.0
C1085 C 0.89164 0.05948 0.42743 0.0
C1086 C 0.92581 0.05786 0.47606 0.0
C1087 C 0.94005 0.04402 0.48599 0.0
C1088 C 0.96613 0.04949 0.48479 0.0
C1089 C 0.97755 0.06893 0.47309 0.0
C1090 C 0.96322 0.08269 0.463 0.0
H1091 H 0.87972 0.05787 0.41002 0.0
H1092 H 0.90805 0.05308 0.42519 0.0
H1093 H 0.88011 0.04827 0.43932 0.0
H1094 H 0.90594 0.05365 0.47792 0.0
H1095 H 0.93067 0.02933 0.49508 0.0
H1096 H 0.28462 0.60332 0.1677 0.0
H1097 H 0.24403 0.58161 0.14511 0.0
H1098 H 0.22765 0.64504 0.12849 0.0
H1099 H 0.26758 0.66682 0.15181 0.0
H1100 H 0.18721 0.61317 0.14197 0.0
H1101 H 0.22774 0.57436 0.07346 0.0
H1102 H 0.23783 0.56883 0.10319 0.0
H1103 H 0.24664 0.59773 0.09403 0.0
C1104 C 0.27227 0.61265 0.15943 0.0
C1105 C 0.27946 0.63685 0.16145 0.0
C1106 C 0.24922 0.60021 0.14628 0.0
C1107 C 0.23304 0.61172 0.13476 0.0
C1108 C 0.23995 0.63582 0.13708 0.0
H1109 H 0.11023 0.5686 0.02089 0.0
H1110 H 0.15079 0.5835 0.04646 0.0
C1111 C 0.26289 0.64825 0.15027 0.0
C1112 C 0.20873 0.59883 0.12044 0.0
H1113 H 0.18319 0.56266 0.07123 0.0
C1114 C 0.1863 0.60204 0.12656 0.0
C1115 C 0.20766 0.58452 0.1002 0.0
C1116 C 0.23124 0.58126 0.09214 0.0
C1117 C 0.16282 0.59153 0.11287 0.0
C1118 C 0.1617 0.577 0.09279 0.0
C1119 C 0.1841 0.57362 0.08677 0.0
C1120 C 0.13764 0.56635 0.077 0.0
C1121 C 0.13958 0.59676 0.11957 0.0
C1122 C 0.11701 0.55124 0.0855 0.0
C1123 C 0.09376 0.54286 0.07097 0.0
C1124 C 0.09088 0.54929 0.04766 0.0
C1125 C 0.11188 0.5635 0.03884 0.0
C1126 C 0.13506 0.57198 0.05341 0.0
H1127 H 0.14453 0.6123 0.13191 0.0
H1128 H 0.12729 0.59942 0.10371 0.0
H1129 H 0.12855 0.58203 0.12844 0.0
H1130 H 0.11876 0.54624 0.10348 0.0
H1131 H 0.07794 0.5317 0.07812 0.0
H1132 H 0.27767 0.46063 0.66471 0.0
H1133 H 0.31308 0.47768 0.64305 0.0
H1134 H 0.31913 0.41019 0.62601 0.0
H1135 H 0.28431 0.39312 0.64776 0.0
H1136 H 0.3641 0.47459 0.64827 0.0
H1137 H 0.31129 0.4367 0.56104 0.0
H1138 H 0.29581 0.43817 0.58661 0.0
H1139 H 0.31094 0.41607 0.5829 0.0
C1140 C 0.28669 0.44942 0.65656 0.0
C1141 C 0.27771 0.4254 0.65775 0.0
C1142 C 0.30688 0.45921 0.64406 0.0
C1143 C 0.31846 0.4452 0.63239 0.0
C1144 C 0.31013 0.42135 0.63428 0.0
H1145 H 0.4378 0.45567 0.54736 0.0
H1146 H 0.4016 0.44457 0.56889 0.0
C1147 C 0.2901 0.4116 0.64675 0.0
C1148 C 0.33922 0.45524 0.61821 0.0
H1149 H 0.35579 0.45287 0.56292 0.0
C1150 C 0.36221 0.47007 0.62956 0.0
C1151 C 0.33683 0.44936 0.59376 0.0
C1152 C 0.31232 0.43438 0.58026 0.0
C1153 C 0.38311 0.47836 0.61737 0.0
C1154 C 0.38087 0.47209 0.59298 0.0
C1155 C 0.35766 0.45769 0.58157 0.0
C1156 C 0.40262 0.47935 0.57921 0.0
C1157 C 0.40774 0.49299 0.63099 0.0
C1158 C 0.4151 0.50269 0.57722 0.0
C1159 C 0.43598 0.50916 0.56486 0.0
C1160 C 0.44479 0.49244 0.554 0.0
C1161 C 0.43171 0.46911 0.55543 0.0
C1162 C 0.41092 0.46268 0.56781 0.0
H1163 H 0.4082 0.49144 0.6503 0.0
H1164 H 0.42404 0.48815 0.62544 0.0
H1165 H 0.41009 0.51129 0.62752 0.0
H1166 H 0.40876 0.51595 0.58529 0.0
H1167 H 0.44541 0.5273 0.5641 0.0
H1168 H 0.75738 0.62183 0.8359 0.0
H1169 H 0.78597 0.60868 0.86427 0.0
H1170 H 0.77896 0.65669 0.91797 0.0
H1171 H 0.75119 0.67065 0.8894 0.0
H1172 H 0.82727 0.66118 0.91403 0.0
H1173 H 0.77838 0.5692 0.91978 0.0
H1174 H 0.77986 0.57614 0.8897 0.0
H1175 H 0.76221 0.58898 0.90734 0.0
C1176 C 0.76169 0.62942 0.85381 0.0
C1177 C 0.75212 0.6474 0.86032 0.0
C1178 C 0.77776 0.62165 0.87012 0.0
C1179 C 0.78434 0.63148 0.89335 0.0
C1180 C 0.77395 0.64873 0.90019 0.0
H1181 H 0.89351 0.58328 0.98846 0.0
H1182 H 0.85526 0.59396 0.97384 0.0
C1183 C 0.75795 0.65659 0.88386 0.0
C1184 C 0.80444 0.62578 0.90942 0.0
H1185 H 0.82404 0.58072 0.9301 0.0
C1186 C 0.82634 0.64363 0.91793 0.0
C1187 C 0.80313 0.60295 0.91483 0.0
C1188 C 0.77949 0.58327 0.90763 0.0
C1189 C 0.84755 0.63908 0.93041 0.0
C1190 C 0.84698 0.61606 0.93407 0.0
C1191 C 0.82455 0.59835 0.92694 0.0
C1192 C 0.87008 0.60995 0.9434 0.0
C1193 C 0.87058 0.65895 0.9391 0.0
C1194 C 0.89084 0.61513 0.93093 0.0
C1195 C 0.91255 0.60898 0.93911 0.0
C1196 C 0.91392 0.59742 0.95991 0.0
C1197 C 0.89299 0.59207 0.97232 0.0
C1198 C 0.87119 0.59823 0.96407 0.0
H1199 H 0.86547 0.67515 0.94163 0.0
H1200 H 0.88061 0.65552 0.95601 0.0
H1201 H 0.88381 0.66159 0.92582 0.0
H1202 H 0.8901 0.62363 0.91461 0.0
H1203 H 0.92805 0.61285 0.92881 0.0
H1204 H 0.42819 0.79559 0.14287 0.0
H1205 H 0.44437 0.82968 0.12168 0.0
H1206 H 0.50499 0.85648 0.17889 0.0
H1207 H 0.48844 0.82257 0.2008 0.0
H1208 H 0.45442 0.87947 0.14287 0.0
H1209 H 0.53672 0.85714 0.11355 0.0
H1210 H 0.50935 0.83531 0.12028 0.0
H1211 H 0.53104 0.85334 0.14366 0.0
C1212 C 0.44482 0.80878 0.15118 0.0
C1213 C 0.45679 0.80639 0.17377 0.0
C1214 C 0.45412 0.8282 0.13891 0.0
C1215 C 0.47582 0.84557 0.14872 0.0
C1216 C 0.48825 0.84316 0.17099 0.0
H1217 H 0.55673 0.96748 0.08287 0.0
H1218 H 0.5443 0.93684 0.1096 0.0
C1219 C 0.47883 0.82373 0.18343 0.0
C1220 C 0.4849 0.86632 0.13562 0.0
H1221 H 0.52909 0.89127 0.1008 0.0
C1222 C 0.47084 0.88219 0.13377 0.0
C1223 C 0.50636 0.86981 0.12392 0.0
C1224 C 0.52182 0.85304 0.12525 0.0
C1225 C 0.47762 0.90145 0.12039 0.0
C1226 C 0.49859 0.90456 0.10792 0.0
C1227 C 0.51295 0.88888 0.11022 0.0
C1228 C 0.50575 0.92369 0.09211 0.0
C1229 C 0.46241 0.91843 0.12005 0.0
C1230 C 0.48829 0.9265 0.07326 0.0
C1231 C 0.4953 0.94416 0.0581 0.0
C1232 C 0.52004 0.9591 0.06124 0.0
C1233 C 0.53752 0.95622 0.08001 0.0
C1234 C 0.53045 0.93869 0.09528 0.0
H1235 H 0.45274 0.91773 0.13592 0.0
H1236 H 0.47453 0.93628 0.11913 0.0
H1237 H 0.44762 0.91413 0.10435 0.0
H1238 H 0.46932 0.91482 0.07003 0.0
H1239 H 0.48148 0.94587 0.04369 0.0
H1240 H 0.15084 0.24109 0.66545 0.0
H1241 H 0.13274 0.20323 0.64453 0.0
H1242 H 0.05795 0.2108 0.64294 0.0
H1243 H 0.076 0.24909 0.6633 0.0
H1244 H 0.09847 0.16361 0.65555 0.0
H1245 H 0.05977 0.1955 0.57359 0.0
H1246 H 0.08202 0.21441 0.59638 0.0
H1247 H 0.04912 0.20405 0.59971 0.0
C1248 C 0.13053 0.23483 0.66053 0.0
C1249 C 0.11496 0.24841 0.66587 0.0
C1250 C 0.12018 0.21305 0.64866 0.0
C1251 C 0.09399 0.20423 0.64167 0.0
C1252 C 0.07827 0.21737 0.64765 0.0
H1253 H 0.99419 0.07945 0.56621 0.0
H1254 H 1.01388 0.11687 0.58758 0.0
C1255 C 0.08861 0.23919 0.65959 0.0
C1256 C 0.08328 0.18138 0.62811 0.0
H1257 H 0.04859 0.15509 0.57599 0.0
C1258 C 0.08765 0.16177 0.63811 0.0
C1259 C 0.06924 0.17889 0.60527 0.0
C1260 C 0.06492 0.19933 0.59296 0.0
C1261 C 0.07785 0.13977 0.62625 0.0
C1262 C 0.06364 0.13726 0.60348 0.0
C1263 C 0.05945 0.15691 0.59341 0.0
C1264 C 0.05208 0.11435 0.59016 0.0
C1265 C 0.08215 0.11931 0.63854 0.0
C1266 C 0.06695 0.10041 0.58402 0.0
C1267 C 0.05564 0.07882 0.57176 0.0
C1268 C 0.02926 0.07079 0.5653 0.0
C1269 C 1.01455 0.085 0.57102 0.0
C1270 C 0.0258 0.10648 0.58324 0.0
H1271 H 0.08775 0.12324 0.65786 0.0
H1272 H 0.06488 0.10438 0.63546 0.0
H1273 H 0.09761 0.11431 0.63145 0.0
H1274 H 0.08731 0.10625 0.58861 0.0
H1275 H 0.06752 0.06839 0.56742 0.0
H1276 H 0.72189 0.29946 0.43695 0.0
H1277 H 0.69733 0.32184 0.45416 0.0
H1278 H 0.63209 0.2877 0.40362 0.0
H1279 H 0.65606 0.26482 0.38697 0.0
H1280 H 0.67442 0.35205 0.43224 0.0
H1281 H 0.60294 0.28121 0.46524 0.0
H1282 H 0.63174 0.27766 0.4566 0.0
H1283 H 0.60503 0.27621 0.43468 0.0
C1284 C 0.70219 0.29646 0.4298 0.0
C1285 C 0.69096 0.2804 0.41055 0.0
C1286 C 0.68824 0.30935 0.43954 0.0
C1287 C 0.6628 0.30623 0.43035 0.0
C1288 C 0.65154 0.2901 0.41128 0.0
H1289 H 0.57078 0.39881 0.43699 0.0
H1290 H 0.59852 0.3765 0.42614 0.0
C1291 C 0.6654 0.27724 0.40159 0.0
C1292 C 0.64815 0.32045 0.43986 0.0
H1293 H 0.59304 0.31691 0.46161 0.0
C1294 C 0.65675 0.34442 0.4389 0.0
C1295 C 0.62528 0.31048 0.44881 0.0
C1296 C 0.61582 0.285 0.45164 0.0
C1297 C 0.64265 0.35862 0.44593 0.0
C1298 C 0.61908 0.34852 0.45365 0.0
C1299 C 0.61092 0.32463 0.45536 0.0
C1300 C 0.60259 0.36236 0.46019 0.0
C1301 C 0.65322 0.38431 0.44517 0.0
C1302 C 0.59511 0.36135 0.48268 0.0
C1303 C 0.5791 0.37387 0.48882 0.0
C1304 C 0.57015 0.38763 0.47255 0.0
C1305 C 0.57759 0.38857 0.44998 0.0
C1306 C 0.59352 0.37592 0.4438 0.0
H1307 H 0.67408 0.38954 0.44558 0.0
H1308 H 0.64481 0.38981 0.42855 0.0
H1309 H 0.64864 0.39355 0.46019 0.0
H1310 H 0.60183 0.35097 0.49558 0.0
H1311 H 0.57402 0.37303 0.50646 0.0
loop_
_geom_bond_atom_site_label_1
_geom_bond_atom_site_label_2
_geom_bond_distance
_geom_bond_site_symmetry_2
_ccdc_geom_bond_type
C0 C1 1.384 . S
C0 H13 0.947 . S
C0 C35 1.382 . S
C1 C0 1.384 . S
C1 C2 1.378 . S
C2 C1 1.378 . S
C2 C3 1.378 . S
C2 H14 0.952 . S
C3 C2 1.378 . S
C3 H15 0.950 . S
C3 C34 1.383 . S
H4 C23 0.947 . S
H5 C24 0.946 . S
H6 C26 0.953 . S
H7 C27 0.945 . S
H8 C29 0.952 . S
H9 C30 0.949 . S
H10 C32 0.950 . S
H11 C33 0.948 . S
H12 C35 0.951 . S
H13 C0 0.947 . S
H14 C2 0.952 . S
H15 C3 0.950 . S
N16 C19 1.382 . S
N16 C21 1.363 . S
N17 C19 1.371 . S
N17 C20 1.372 . S
N18 C20 1.361 . S
N18 C21 1.377 . S
C19 N16 1.382 . S
C19 N17 1.371 . S
C19 C22 1.480 . S
C20 N17 1.372 . S
C20 N18 1.361 . S
C20 C28 1.457 . S
C21 N16 1.363 . S
C21 N18 1.377 . S
C21 C34 1.479 . S
C22 C19 1.480 . S
C22 C23 1.383 . S
C22 C27 1.385 . S
C23 H4 0.947 . S
C23 C22 1.383 . S
C23 C24 1.388 . S
C24 H5 0.946 . S
C24 C23 1.388 . S
C24 C25 1.384 . S
C25 C24 1.384 . S
C25 C26 1.377 . S
C26 H6 0.953 . S
C26 C25 1.377 . S
C26 C27 1.369 . S
C27 H7 0.945 . S
C27 C22 1.385 . S
C27 C26 1.369 . S
C28 C20 1.457 . S
C28 C29 1.372 . S
C28 C33 1.364 . S
C29 H8 0.952 . S
C29 C28 1.372 . S
C29 C30 1.389 . S
C30 H9 0.949 . S
C30 C29 1.389 . S
C30 C31 1.387 . S
C31 C30 1.387 . S
C31 C32 1.372 . S
C32 H10 0.950 . S
C32 C31 1.372 . S
C32 C33 1.379 . S
C33 H11 0.948 . S
C33 C28 1.364 . S
C33 C32 1.379 . S
C34 C3 1.383 . S
C34 C21 1.479 . S
C34 C35 1.398 . S
C35 C0 1.382 . S
C35 H12 0.951 . S
C35 C34 1.398 . S
C36 C37 1.384 . S
C36 H49 0.947 . S
C36 C71 1.382 . S
C37 C36 1.384 . S
C37 C38 1.378 . S
C38 C37 1.378 . S
C38 C39 1.378 . S
C38 H50 0.952 . S
C39 C38 1.378 . S
C39 H51 0.950 . S
C39 C70 1.383 . S
H40 C59 0.947 . S
H41 C60 0.946 . S
H42 C62 0.953 . S
H43 C63 0.945 . S
H44 C65 0.952 . S
H45 C66 0.949 . S
H46 C68 0.950 . S
H47 C69 0.948 . S
H48 C71 0.951 . S
H49 C36 0.947 . S
H50 C38 0.952 . S
H51 C39 0.950 . S
N52 C55 1.382 . S
N52 C57 1.363 . S
N53 C55 1.371 . S
N53 C56 1.372 . S
N54 C56 1.361 . S
N54 C57 1.377 . S
C55 N52 1.382 . S
C55 N53 1.371 . S
C55 C58 1.480 . S
C56 N53 1.372 . S
C56 N54 1.361 . S
C56 C64 1.457 . S
C57 N52 1.363 . S
C57 N54 1.377 . S
C57 C70 1.479 . S
C58 C55 1.480 . S
C58 C59 1.383 . S
C58 C63 1.385 . S
C59 H40 0.947 . S
C59 C58 1.383 . S
C59 C60 1.388 . S
C60 H41 0.946 . S
C60 C59 1.388 . S
C60 C61 1.384 . S
C61 C60 1.384 . S
C61 C62 1.377 . S
C62 H42 0.953 . S
C62 C61 1.377 . S
C62 C63 1.369 . S
C63 H43 0.945 . S
C63 C58 1.385 . S
C63 C62 1.369 . S
C64 C56 1.457 . S
C64 C65 1.372 . S
C64 C69 1.364 . S
C65 H44 0.952 . S
C65 C64 1.372 . S
C65 C66 1.389 . S
C66 H45 0.949 . S
C66 C65 1.389 . S
C66 C67 1.387 . S
C67 C66 1.387 . S
C67 C68 1.372 . S
C68 H46 0.950 . S
C68 C67 1.372 . S
C68 C69 1.379 . S
C69 H47 0.948 . S
C69 C64 1.364 . S
C69 C68 1.379 . S
C70 C39 1.383 . S
C70 C57 1.479 . S
C70 C71 1.398 . S
C71 C36 1.382 . S
C71 H48 0.951 . S
C71 C70 1.398 . S
C72 C73 1.384 . S
C72 H85 0.947 . S
C72 C107 1.382 . S
C73 C72 1.384 . S
C73 C74 1.378 . S
C74 C73 1.378 . S
C74 C75 1.378 . S
C74 H86 0.952 . S
C75 C74 1.378 . S
C75 H87 0.950 . S
C75 C106 1.383 . S
H76 C95 0.947 . S
H77 C96 0.946 . S
H78 C98 0.953 . S
H79 C99 0.945 . S
H80 C101 0.952 . S
H81 C102 0.949 . S
H82 C104 0.950 . S
H83 C105 0.948 . S
H84 C107 0.951 . S
H85 C72 0.947 . S
H86 C74 0.952 . S
H87 C75 0.950 . S
N88 C91 1.382 . S
N88 C93 1.363 . S
N89 C91 1.371 . S
N89 C92 1.372 . S
N90 C92 1.361 . S
N90 C93 1.377 . S
C91 N88 1.382 . S
C91 N89 1.371 . S
C91 C94 1.480 . S
C92 N89 1.372 . S
C92 N90 1.361 . S
C92 C100 1.457 . S
C93 N88 1.363 . S
C93 N90 1.377 . S
C93 C106 1.479 . S
C94 C91 1.480 . S
C94 C95 1.383 . S
C94 C99 1.385 . S
C95 H76 0.947 . S
C95 C94 1.383 . S
C95 C96 1.388 . S
C96 H77 0.946 . S
C96 C95 1.388 . S
C96 C97 1.384 . S
C97 C96 1.384 . S
C97 C98 1.377 . S
C98 H78 0.953 . S
C98 C97 1.377 . S
C98 C99 1.369 . S
C99 H79 0.945 . S
C99 C94 1.385 . S
C99 C98 1.369 . S
C100 C92 1.457 . S
C100 C101 1.372 . S
C100 C105 1.364 . S
C101 H80 0.952 . S
C101 C100 1.372 . S
C101 C102 1.389 . S
C102 H81 0.949 . S
C102 C101 1.389 . S
C102 C103 1.387 . S
C103 C102 1.387 . S
C103 C104 1.372 . S
C104 H82 0.950 . S
C104 C103 1.372 . S
C104 C105 1.379 . S
C105 H83 0.948 . S
C105 C100 1.364 . S
C105 C104 1.379 . S
C106 C75 1.383 . S
C106 C93 1.479 . S
C106 C107 1.398 . S
C107 C72 1.382 . S
C107 H84 0.951 . S
C107 C106 1.398 . S
C108 C109 1.384 . S
C108 H121 0.947 . S
C108 C143 1.382 . S
C109 C108 1.384 . S
C109 C110 1.378 . S
C110 C109 1.378 . S
C110 C111 1.378 . S
C110 H122 0.952 . S
C111 C110 1.378 . S
C111 H123 0.950 . S
C111 C142 1.383 . S
H112 C131 0.947 . S
H113 C132 0.946 . S
H114 C134 0.953 . S
H115 C135 0.945 . S
H116 C137 0.952 . S
H117 C138 0.949 . S
H118 C140 0.950 . S
H119 C141 0.948 . S
H120 C143 0.951 . S
H121 C108 0.947 . S
H122 C110 0.952 . S
H123 C111 0.950 . S
N124 C127 1.382 . S
N124 C129 1.363 . S
N125 C127 1.371 . S
N125 C128 1.372 . S
N126 C128 1.361 . S
N126 C129 1.377 . S
C127 N124 1.382 . S
C127 N125 1.371 . S
C127 C130 1.480 . S
C128 N125 1.372 . S
C128 N126 1.361 . S
C128 C136 1.457 . S
C129 N124 1.363 . S
C129 N126 1.377 . S
C129 C142 1.479 . S
C130 C127 1.480 . S
C130 C131 1.383 . S
C130 C135 1.385 . S
C131 H112 0.947 . S
C131 C130 1.383 . S
C131 C132 1.388 . S
C132 H113 0.946 . S
C132 C131 1.388 . S
C132 C133 1.384 . S
C133 C132 1.384 . S
C133 C134 1.377 . S
C134 H114 0.953 . S
C134 C133 1.377 . S
C134 C135 1.369 . S
C135 H115 0.945 . S
C135 C130 1.385 . S
C135 C134 1.369 . S
C136 C128 1.457 . S
C136 C137 1.372 . S
C136 C141 1.364 . S
C137 H116 0.952 . S
C137 C136 1.372 . S
C137 C138 1.389 . S
C138 H117 0.949 . S
C138 C137 1.389 . S
C138 C139 1.387 . S
C139 C138 1.387 . S
C139 C140 1.372 . S
C140 H118 0.950 . S
C140 C139 1.372 . S
C140 C141 1.379 . S
C141 H119 0.948 . S
C141 C136 1.364 . S
C141 C140 1.379 . S
C142 C111 1.383 . S
C142 C129 1.479 . S
C142 C143 1.398 . S
C143 C108 1.382 . S
C143 H120 0.951 . S
C143 C142 1.398 . S
C144 C145 1.384 . S
C144 H157 0.947 . S
C144 C179 1.382 . S
C145 C144 1.384 . S
C145 C146 1.378 . S
C146 C145 1.378 . S
C146 C147 1.378 . S
C146 H158 0.952 . S
C147 C146 1.378 . S
C147 H159 0.950 . S
C147 C178 1.383 . S
H148 C167 0.947 . S
H149 C168 0.946 . S
H150 C170 0.953 . S
H151 C171 0.945 . S
H152 C173 0.952 . S
H153 C174 0.949 . S
H154 C176 0.950 . S
H155 C177 0.948 . S
H156 C179 0.951 . S
H157 C144 0.947 . S
H158 C146 0.952 . S
H159 C147 0.950 . S
N160 C163 1.382 . S
N160 C165 1.363 . S
N161 C163 1.371 . S
N161 C164 1.372 . S
N162 C164 1.361 . S
N162 C165 1.377 . S
C163 N160 1.382 . S
C163 N161 1.371 . S
C163 C166 1.480 . S
C164 N161 1.372 . S
C164 N162 1.361 . S
C164 C172 1.457 . S
C165 N160 1.363 . S
C165 N162 1.377 . S
C165 C178 1.479 . S
C166 C163 1.480 . S
C166 C167 1.383 . S
C166 C171 1.385 . S
C167 H148 0.947 . S
C167 C166 1.383 . S
C167 C168 1.388 . S
C168 H149 0.946 . S
C168 C167 1.388 . S
C168 C169 1.384 . S
C169 C168 1.384 . S
C169 C170 1.377 . S
C170 H150 0.953 . S
C170 C169 1.377 . S
C170 C171 1.369 . S
C171 H151 0.945 . S
C171 C166 1.385 . S
C171 C170 1.369 . S
C172 C164 1.457 . S
C172 C173 1.372 . S
C172 C177 1.364 . S
C173 H152 0.952 . S
C173 C172 1.372 . S
C173 C174 1.389 . S
C174 H153 0.949 . S
C174 C173 1.389 . S
C174 C175 1.387 . S
C175 C174 1.387 . S
C175 C176 1.372 . S
C176 H154 0.950 . S
C176 C175 1.372 . S
C176 C177 1.379 . S
C177 H155 0.948 . S
C177 C172 1.364 . S
C177 C176 1.379 . S
C178 C147 1.383 . S
C178 C165 1.479 . S
C178 C179 1.398 . S
C179 C144 1.382 . S
C179 H156 0.951 . S
C179 C178 1.398 . S
C180 C181 1.384 . S
C180 H193 0.947 . S
C180 C215 1.382 . S
C181 C180 1.384 . S
C181 C182 1.378 . S
C182 C181 1.378 . S
C182 C183 1.378 . S
C182 H194 0.952 . S
C183 C182 1.378 . S
C183 H195 0.950 . S
C183 C214 1.383 . S
H184 C203 0.947 . S
H185 C204 0.946 . S
H186 C206 0.953 . S
H187 C207 0.945 . S
H188 C209 0.952 . S
H189 C210 0.949 . S
H190 C212 0.950 . S
H191 C213 0.948 . S
H192 C215 0.951 . S
H193 C180 0.947 . S
H194 C182 0.952 . S
H195 C183 0.950 . S
N196 C199 1.382 . S
N196 C201 1.363 . S
N197 C199 1.371 . S
N197 C200 1.372 . S
N198 C200 1.361 . S
N198 C201 1.377 . S
C199 N196 1.382 . S
C199 N197 1.371 . S
C199 C202 1.480 . S
C200 N197 1.372 . S
C200 N198 1.361 . S
C200 C208 1.457 . S
C201 N196 1.363 . S
C201 N198 1.377 . S
C201 C214 1.479 . S
C202 C199 1.480 . S
C202 C203 1.383 . S
C202 C207 1.385 . S
C203 H184 0.947 . S
C203 C202 1.383 . S
C203 C204 1.388 . S
C204 H185 0.946 . S
C204 C203 1.388 . S
C204 C205 1.384 . S
C205 C204 1.384 . S
C205 C206 1.377 . S
C206 H186 0.953 . S
C206 C205 1.377 . S
C206 C207 1.369 . S
C207 H187 0.945 . S
C207 C202 1.385 . S
C207 C206 1.369 . S
C208 C200 1.457 . S
C208 C209 1.372 . S
C208 C213 1.364 . S
C209 H188 0.952 . S
C209 C208 1.372 . S
C209 C210 1.389 . S
C210 H189 0.949 . S
C210 C209 1.389 . S
C210 C211 1.387 . S
C211 C210 1.387 . S
C211 C212 1.372 . S
C212 H190 0.950 . S
C212 C211 1.372 . S
C212 C213 1.379 . S
C213 H191 0.948 . S
C213 C208 1.364 . S
C213 C212 1.379 . S
C214 C183 1.383 . S
C214 C201 1.479 . S
C214 C215 1.398 . S
C215 C180 1.382 . S
C215 H192 0.951 . S
C215 C214 1.398 . S
C216 C217 1.384 . S
C216 H229 0.947 . S
C216 C251 1.382 . S
C217 C216 1.384 . S
C217 C218 1.378 . S
C218 C217 1.378 . S
C218 C219 1.378 . S
C218 H230 0.952 . S
C219 C218 1.378 . S
C219 H231 0.950 . S
C219 C250 1.383 . S
H220 C239 0.947 . S
H221 C240 0.946 . S
H222 C242 0.953 . S
H223 C243 0.945 . S
H224 C245 0.952 . S
H225 C246 0.949 . S
H226 C248 0.950 . S
H227 C249 0.948 . S
H228 C251 0.951 . S
H229 C216 0.947 . S
H230 C218 0.952 . S
H231 C219 0.950 . S
N232 C235 1.382 . S
N232 C237 1.363 . S
N233 C235 1.371 . S
N233 C236 1.372 . S
N234 C236 1.361 . S
N234 C237 1.377 . S
C235 N232 1.382 . S
C235 N233 1.371 . S
C235 C238 1.480 . S
C236 N233 1.372 . S
C236 N234 1.361 . S
C236 C244 1.457 . S
C237 N232 1.363 . S
C237 N234 1.377 . S
C237 C250 1.479 . S
C238 C235 1.480 . S
C238 C239 1.383 . S
C238 C243 1.385 . S
C239 H220 0.947 . S
C239 C238 1.383 . S
C239 C240 1.388 . S
C240 H221 0.946 . S
C240 C239 1.388 . S
C240 C241 1.384 . S
C241 C240 1.384 . S
C241 C242 1.377 . S
C242 H222 0.953 . S
C242 C241 1.377 . S
C242 C243 1.369 . S
C243 H223 0.945 . S
C243 C238 1.385 . S
C243 C242 1.369 . S
C244 C236 1.457 . S
C244 C245 1.372 . S
C244 C249 1.364 . S
C245 H224 0.952 . S
C245 C244 1.372 . S
C245 C246 1.389 . S
C246 H225 0.949 . S
C246 C245 1.389 . S
C246 C247 1.387 . S
C247 C246 1.387 . S
C247 C248 1.372 . S
C248 H226 0.950 . S
C248 C247 1.372 . S
C248 C249 1.379 . S
C249 H227 0.948 . S
C249 C244 1.364 . S
C249 C248 1.379 . S
C250 C219 1.383 . S
C250 C237 1.479 . S
C250 C251 1.398 . S
C251 C216 1.382 . S
C251 H228 0.951 . S
C251 C250 1.398 . S
C252 C253 1.384 . S
C252 H265 0.947 . S
C252 C287 1.382 . S
C253 C252 1.384 . S
C253 C254 1.378 . S
C254 C253 1.378 . S
C254 C255 1.378 . S
C254 H266 0.952 . S
C255 C254 1.378 . S
C255 H267 0.950 . S
C255 C286 1.383 . S
H256 C275 0.947 . S
H257 C276 0.946 . S
H258 C278 0.953 . S
H259 C279 0.945 . S
H260 C281 0.952 . S
H261 C282 0.949 . S
H262 C284 0.950 . S
H263 C285 0.948 . S
H264 C287 0.951 . S
H265 C252 0.947 . S
H266 C254 0.952 . S
H267 C255 0.950 . S
N268 C271 1.382 . S
N268 C273 1.363 . S
N269 C271 1.371 . S
N269 C272 1.372 . S
N270 C272 1.361 . S
N270 C273 1.377 . S
C271 N268 1.382 . S
C271 N269 1.371 . S
C271 C274 1.480 . S
C272 N269 1.372 . S
C272 N270 1.361 . S
C272 C280 1.457 . S
C273 N268 1.363 . S
C273 N270 1.377 . S
C273 C286 1.479 . S
C274 C271 1.480 . S
C274 C275 1.383 . S
C274 C279 1.385 . S
C275 H256 0.947 . S
C275 C274 1.383 . S
C275 C276 1.388 . S
C276 H257 0.946 . S
C276 C275 1.388 . S
C276 C277 1.384 . S
C277 C276 1.384 . S
C277 C278 1.377 . S
C278 H258 0.953 . S
C278 C277 1.377 . S
C278 C279 1.369 . S
C279 H259 0.945 . S
C279 C274 1.385 . S
C279 C278 1.369 . S
C280 C272 1.457 . S
C280 C281 1.372 . S
C280 C285 1.364 . S
C281 H260 0.952 . S
C281 C280 1.372 . S
C281 C282 1.389 . S
C282 H261 0.949 . S
C282 C281 1.389 . S
C282 C283 1.387 . S
C283 C282 1.387 . S
C283 C284 1.372 . S
C284 H262 0.950 . S
C284 C283 1.372 . S
C284 C285 1.379 . S
C285 H263 0.948 . S
C285 C280 1.364 . S
C285 C284 1.379 . S
C286 C255 1.383 . S
C286 C273 1.479 . S
C286 C287 1.398 . S
C287 C252 1.382 . S
C287 H264 0.951 . S
C287 C286 1.398 . S
Pr288 C290 2.880 . S
Pr288 O308 2.562 . S
Pr288 O309 2.490 . S
Pr288 O310 2.695 1_665 S
Pr288 O311 2.512 1_665 S
Pr288 O313 2.437 1_655 S
Pr288 O316 2.436 . S
Pr288 O318 2.438 1_565 S
Pr289 C299 2.880 . S
Pr289 O310 2.436 . S
Pr289 O312 2.438 1_545 S
Pr289 O314 2.562 . S
Pr289 O315 2.490 . S
Pr289 O316 2.695 1_445 S
Pr289 O317 2.504 1_445 S
Pr289 O319 2.437 1_455 S
C290 Pr288 2.880 . S
C290 C291 1.491 . S
C290 O308 1.254 . S
C290 O309 1.225 . S
C291 C290 1.491 . S
C291 C292 1.392 . S
C291 C296 1.356 . S
C292 C291 1.392 . S
C292 C293 1.368 . S
C292 H320 0.929 . S
C293 C292 1.368 . S
C293 C294 1.386 . S
C293 H321 0.929 . S
C294 C293 1.386 . S
C294 C295 1.373 . S
C295 C294 1.373 . S
C295 C296 1.409 . S
C295 H322 0.931 . S
C296 C291 1.356 . S
C296 C295 1.409 . S
C296 H323 0.930 . S
C297 O310 1.270 . S
C297 O311 1.248 . S
C298 O312 1.267 . S
C298 O313 1.278 . S
C299 Pr289 2.880 . S
C299 C300 1.491 . S
C299 O314 1.254 . S
C299 O315 1.225 . S
C300 C299 1.491 . S
C300 C301 1.392 . S
C300 C305 1.356 . S
C301 C300 1.392 . S
C301 C302 1.368 . S
C301 H324 0.929 . S
C302 C301 1.368 . S
C302 C303 1.386 . S
C302 H325 0.929 . S
C303 C302 1.386 . S
C303 C304 1.373 . S
C304 C303 1.373 . S
C304 C305 1.409 . S
C304 H326 0.931 . S
C305 C300 1.356 . S
C305 C304 1.409 . S
C305 H327 0.930 . S
C306 O316 1.270 . S
C306 O317 1.268 . S
C307 O318 1.267 . S
C307 O319 1.278 . S
O308 Pr288 2.562 . S
O308 C290 1.254 . S
O309 Pr288 2.490 . S
O309 C290 1.225 . S
O310 Pr288 2.695 1_445 S
O310 Pr289 2.436 . S
O310 C297 1.270 . S
O311 Pr288 2.512 1_445 S
O311 C297 1.248 . S
O312 Pr289 2.438 1_565 S
O312 C298 1.267 . S
O313 Pr288 2.437 1_455 S
O313 C298 1.278 . S
O314 Pr289 2.562 . S
O314 C299 1.254 . S
O315 Pr289 2.490 . S
O315 C299 1.225 . S
O316 Pr288 2.436 . S
O316 Pr289 2.695 1_665 S
O316 C306 1.270 . S
O317 Pr289 2.504 1_665 S
O317 C306 1.268 . S
O318 Pr288 2.438 1_545 S
O318 C307 1.267 . S
O319 Pr289 2.437 1_655 S
O319 C307 1.278 . S
H320 C292 0.929 . S
H321 C293 0.929 . S
H322 C295 0.931 . S
H323 C296 0.930 . S
H324 C301 0.929 . S
H325 C302 0.929 . S
H326 C304 0.931 . S
H327 C305 0.930 . S
Pr328 C330 2.875 1_556 S
Pr328 O348 2.556 1_556 S
Pr328 O349 2.488 1_556 S
Pr328 O350 2.699 . S
Pr328 O351 2.517 . S
Pr328 O353 2.434 1_556 S
Pr328 O356 2.433 1_546 S
Pr328 O358 2.443 1_545 S
Pr329 C339 2.880 1_554 S
Pr329 O350 2.436 1_564 S
Pr329 O352 2.438 1_565 S
Pr329 O354 2.562 1_554 S
Pr329 O355 2.490 1_554 S
Pr329 O356 2.695 . S
Pr329 O357 2.512 . S
Pr329 O359 2.437 1_554 S
C330 Pr328 2.875 1_554 S
C330 C331 1.491 . S
C330 O348 1.254 . S
C330 O349 1.225 . S
C331 C330 1.491 . S
C331 C332 1.392 . S
C331 C336 1.356 . S
C332 C331 1.392 . S
C332 C333 1.368 . S
C332 H360 0.929 . S
C333 C332 1.368 . S
C333 C334 1.386 . S
C333 H361 0.929 . S
C334 C333 1.386 . S
C334 C335 1.373 . S
C335 C334 1.373 . S
C335 C336 1.409 . S
C335 H362 0.931 . S
C336 C331 1.356 . S
C336 C335 1.409 . S
C336 H363 0.930 . S
C337 O350 1.270 . S
C337 O351 1.248 . S
C338 O352 1.267 . S
C338 O353 1.278 . S
C339 Pr329 2.880 1_556 S
C339 C340 1.491 . S
C339 O354 1.254 . S
C339 O355 1.225 . S
C340 C339 1.491 . S
C340 C341 1.392 . S
C340 C345 1.356 . S
C341 C340 1.392 . S
C341 C342 1.368 . S
C341 H364 0.929 . S
C342 C341 1.368 . S
C342 C343 1.386 . S
C342 H365 0.929 . S
C343 C342 1.386 . S
C343 C344 1.373 . S
C344 C343 1.373 . S
C344 C345 1.409 . S
C344 H366 0.931 . S
C345 C340 1.356 . S
C345 C344 1.409 . S
C345 H367 0.930 . S
C346 O356 1.270 . S
C346 O357 1.248 . S
C347 O358 1.267 . S
C347 O359 1.278 . S
O348 Pr328 2.556 1_554 S
O348 C330 1.254 . S
O349 Pr328 2.488 1_554 S
O349 C330 1.225 . S
O350 Pr328 2.699 . S
O350 Pr329 2.436 1_546 S
O350 C337 1.270 . S
O351 Pr328 2.517 . S
O351 C337 1.248 . S
O352 Pr329 2.438 1_545 S
O352 C338 1.267 . S
O353 Pr328 2.434 1_554 S
O353 C338 1.278 . S
O354 Pr329 2.562 1_556 S
O354 C339 1.254 . S
O355 Pr329 2.490 1_556 S
O355 C339 1.225 . S
O356 Pr328 2.433 1_564 S
O356 Pr329 2.695 . S
O356 C346 1.270 . S
O357 Pr329 2.512 . S
O357 C346 1.248 . S
O358 Pr328 2.443 1_565 S
O358 C347 1.267 . S
O359 Pr329 2.437 1_556 S
O359 C347 1.278 . S
H360 C332 0.929 . S
H361 C333 0.929 . S
H362 C335 0.931 . S
H363 C336 0.930 . S
H364 C341 0.929 . S
H365 C342 0.929 . S
H366 C344 0.931 . S
H367 C345 0.930 . S
Pr368 C370 2.880 . S
Pr368 O388 2.562 . S
Pr368 O389 2.490 . S
Pr368 O390 2.695 . S
Pr368 O391 2.512 . S
Pr368 O393 2.437 . S
Pr368 O396 2.436 . S
Pr368 O398 2.438 . S
Pr369 C379 2.880 . S
Pr369 O390 2.436 . S
Pr369 O392 2.438 . S
Pr369 O394 2.562 . S
Pr369 O395 2.490 . S
Pr369 O396 2.695 . S
Pr369 O397 2.512 . S
Pr369 O399 2.437 . S
C370 Pr368 2.880 . S
C370 C371 1.491 . S
C370 O388 1.254 . S
C370 O389 1.225 . S
C371 C370 1.491 . S
C371 C372 1.392 . S
C371 C376 1.356 . S
C372 C371 1.392 . S
C372 C373 1.368 . S
C372 H400 0.929 . S
C373 C372 1.368 . S
C373 C374 1.386 . S
C373 H401 0.929 . S
C374 C373 1.386 . S
C374 C375 1.373 . S
C375 C374 1.373 . S
C375 C376 1.409 . S
C375 H402 0.931 . S
C376 C371 1.356 . S
C376 C375 1.409 . S
C376 H403 0.930 . S
C377 O390 1.270 . S
C377 O391 1.248 . S
C378 O392 1.267 . S
C378 O393 1.278 . S
C379 Pr369 2.880 . S
C379 C380 1.491 . S
C379 O394 1.254 . S
C379 O395 1.225 . S
C380 C379 1.491 . S
C380 C381 1.392 . S
C380 C385 1.356 . S
C381 C380 1.392 . S
C381 C382 1.368 . S
C381 H404 0.929 . S
C382 C381 1.368 . S
C382 C383 1.386 . S
C382 H405 0.929 . S
C383 C382 1.386 . S
C383 C384 1.373 . S
C384 C383 1.373 . S
C384 C385 1.409 . S
C384 H406 0.931 . S
C385 C380 1.356 . S
C385 C384 1.409 . S
C385 H407 0.930 . S
C386 O396 1.270 . S
C386 O397 1.248 . S
C387 O398 1.267 . S
C387 O399 1.278 . S
O388 Pr368 2.562 . S
O388 C370 1.254 . S
O389 Pr368 2.490 . S
O389 C370 1.225 . S
O390 Pr368 2.695 . S
O390 Pr369 2.436 . S
O390 C377 1.270 . S
O391 Pr368 2.512 . S
O391 C377 1.248 . S
O392 Pr369 2.438 . S
O392 C378 1.267 . S
O393 Pr368 2.437 . S
O393 C378 1.278 . S
O394 Pr369 2.562 . S
O394 C379 1.254 . S
O395 Pr369 2.490 . S
O395 C379 1.225 . S
O396 Pr368 2.436 . S
O396 Pr369 2.695 . S
O396 C386 1.270 . S
O397 Pr369 2.512 . S
O397 C386 1.248 . S
O398 Pr368 2.438 . S
O398 C387 1.267 . S
O399 Pr369 2.437 . S
O399 C387 1.278 . S
H400 C372 0.929 . S
H401 C373 0.929 . S
H402 C375 0.931 . S
H403 C376 0.930 . S
H404 C381 0.929 . S
H405 C382 0.929 . S
H406 C384 0.931 . S
H407 C385 0.930 . S
Pr408 C410 2.866 1_455 S
Pr408 O428 2.544 1_455 S
Pr408 O429 2.483 1_455 S
Pr408 O430 2.705 1_556 S
Pr408 O431 2.524 1_556 S
Pr408 O433 2.427 1_456 S
Pr408 O436 2.428 1_455 S
Pr408 O438 2.452 . S
Pr409 C419 2.880 . S
Pr409 O430 2.436 . S
Pr409 O432 2.438 1_455 S
Pr409 O434 2.562 . S
Pr409 O435 2.490 . S
Pr409 O436 2.695 1_454 S
Pr409 O437 2.512 1_454 S
Pr409 O439 2.437 1_554 S
C410 Pr408 2.866 1_655 S
C410 C411 1.491 . S
C410 O428 1.254 . S
C410 O429 1.225 . S
C411 C410 1.491 . S
C411 C412 1.392 . S
C411 C416 1.356 . S
C412 C411 1.392 . S
C412 C413 1.368 . S
C412 H440 0.929 . S
C413 C412 1.368 . S
C413 C414 1.386 . S
C413 H441 0.929 . S
C414 C413 1.386 . S
C414 C415 1.373 . S
C415 C414 1.373 . S
C415 C416 1.409 . S
C415 H442 0.931 . S
C416 C411 1.356 . S
C416 C415 1.409 . S
C416 H443 0.930 . S
C417 O430 1.270 . S
C417 O431 1.248 . S
C418 O432 1.267 . S
C418 O433 1.278 . S
C419 Pr409 2.880 . S
C419 C420 1.491 . S
C419 O434 1.254 . S
C419 O435 1.225 . S
C420 C419 1.491 . S
C420 C421 1.392 . S
C420 C425 1.356 . S
C421 C420 1.392 . S
C421 C422 1.368 . S
C421 H444 0.929 . S
C422 C421 1.368 . S
C422 C423 1.386 . S
C422 H445 0.929 . S
C423 C422 1.386 . S
C423 C424 1.373 . S
C424 C423 1.373 . S
C424 C425 1.409 . S
C424 H446 0.931 . S
C425 C420 1.356 . S
C425 C424 1.409 . S
C425 H447 0.930 . S
C426 O436 1.270 . S
C426 O437 1.248 . S
C427 O438 1.267 . S
C427 O439 1.278 . S
O428 Pr408 2.544 1_655 S
O428 C410 1.254 . S
O429 Pr408 2.483 1_655 S
O429 C410 1.225 . S
O430 Pr408 2.705 1_554 S
O430 Pr409 2.436 . S
O430 C417 1.270 . S
O431 Pr408 2.524 1_554 S
O431 C417 1.248 . S
O432 Pr409 2.438 1_655 S
O432 C418 1.267 . S
O433 Pr408 2.427 1_654 S
O433 C418 1.278 . S
O434 Pr409 2.562 . S
O434 C419 1.254 . S
O435 Pr409 2.490 . S
O435 C419 1.225 . S
O436 Pr408 2.428 1_655 S
O436 Pr409 2.695 1_656 S
O436 C426 1.270 . S
O437 Pr409 2.512 1_656 S
O437 C426 1.248 . S
O438 Pr408 2.452 . S
O438 C427 1.267 . S
O439 Pr409 2.437 1_556 S
O439 C427 1.278 . S
H440 C412 0.929 . S
H441 C413 0.929 . S
H442 C415 0.931 . S
H443 C416 0.930 . S
H444 C421 0.929 . S
H445 C422 0.929 . S
H446 C424 0.931 . S
H447 C425 0.930 . S
H448 C456 0.929 . S
H449 C458 0.930 . S
H450 C460 0.930 . S
H451 C463 0.929 . S
H452 C466 0.930 . S
H453 C468 0.960 . S
H454 C468 0.960 . S
H455 C468 0.960 . S
C456 H448 0.929 . S
C456 C457 1.377 . S
C456 C458 1.384 . S
C457 C456 1.377 . S
C457 C463 1.390 . S
C458 H449 0.930 . S
C458 C456 1.384 . S
C458 C459 1.372 . S
C459 C458 1.372 . S
C459 C460 1.400 . S
C459 C464 1.490 . S
C460 H450 0.930 . S
C460 C459 1.400 . S
C460 C463 1.386 . S
H461 C477 0.930 . S
H462 C478 0.931 . S
C463 H451 0.929 . S
C463 C457 1.390 . S
C463 C460 1.386 . S
C464 C459 1.490 . S
C464 C466 1.395 . S
C464 C467 1.403 . S
H465 C471 0.930 . S
C466 H452 0.930 . S
C466 C464 1.395 . S
C466 C469 1.403 . S
C467 C464 1.403 . S
C467 C468 1.524 . S
C467 C471 1.400 . S
C468 H453 0.960 . S
C468 H454 0.960 . S
C468 H455 0.960 . S
C468 C467 1.524 . S
C469 C466 1.403 . S
C469 C470 1.392 . S
C469 C473 1.495 . S
C470 C469 1.392 . S
C470 C471 1.385 . S
C470 C472 1.478 . S
C471 H465 0.930 . S
C471 C467 1.400 . S
C471 C470 1.385 . S
C472 C470 1.478 . S
C472 C474 1.381 . S
C472 C478 1.383 . S
C473 C469 1.495 . S
C473 H479 0.959 . S
C473 H480 0.961 . S
C473 H481 0.960 . S
C474 C472 1.381 . S
C474 C475 1.394 . S
C474 H482 0.930 . S
C475 C474 1.394 . S
C475 C476 1.383 . S
C475 H483 0.929 . S
C476 C475 1.383 . S
C476 C477 1.377 . S
C477 H461 0.930 . S
C477 C476 1.377 . S
C477 C478 1.379 . S
C478 H462 0.931 . S
C478 C472 1.383 . S
C478 C477 1.379 . S
H479 C473 0.959 . S
H480 C473 0.961 . S
H481 C473 0.960 . S
H482 C474 0.930 . S
H483 C475 0.929 . S
H484 C492 0.929 . S
H485 C494 0.930 . S
H486 C496 0.930 . S
H487 C499 0.929 . S
H488 C502 0.930 . S
H489 C504 0.960 . S
H490 C504 0.960 . S
H491 C504 0.960 . S
C492 H484 0.929 . S
C492 C493 1.377 . S
C492 C494 1.384 . S
C493 C492 1.377 . S
C493 C499 1.390 . S
C494 H485 0.930 . S
C494 C492 1.384 . S
C494 C495 1.372 . S
C495 C494 1.372 . S
C495 C496 1.400 . S
C495 C500 1.490 . S
C496 H486 0.930 . S
C496 C495 1.400 . S
C496 C499 1.386 . S
H497 C513 0.930 . S
H498 C514 0.931 . S
C499 H487 0.929 . S
C499 C493 1.390 . S
C499 C496 1.386 . S
C500 C495 1.490 . S
C500 C502 1.395 . S
C500 C503 1.403 . S
H501 C507 0.930 . S
C502 H488 0.930 . S
C502 C500 1.395 . S
C502 C505 1.403 . S
C503 C500 1.403 . S
C503 C504 1.524 . S
C503 C507 1.400 . S
C504 H489 0.960 . S
C504 H490 0.960 . S
C504 H491 0.960 . S
C504 C503 1.524 . S
C505 C502 1.403 . S
C505 C506 1.392 . S
C505 C509 1.495 . S
C506 C505 1.392 . S
C506 C507 1.385 . S
C506 C508 1.478 . S
C507 H501 0.930 . S
C507 C503 1.400 . S
C507 C506 1.385 . S
C508 C506 1.478 . S
C508 C510 1.381 . S
C508 C514 1.383 . S
C509 C505 1.495 . S
C509 H515 0.959 . S
C509 H516 0.961 . S
C509 H517 0.960 . S
C510 C508 1.381 . S
C510 C511 1.394 . S
C510 H518 0.930 . S
C511 C510 1.394 . S
C511 C512 1.383 . S
C511 H519 0.929 . S
C512 C511 1.383 . S
C512 C513 1.377 . S
C513 H497 0.930 . S
C513 C512 1.377 . S
C513 C514 1.379 . S
C514 H498 0.931 . S
C514 C508 1.383 . S
C514 C513 1.379 . S
H515 C509 0.959 . S
H516 C509 0.961 . S
H517 C509 0.960 . S
H518 C510 0.930 . S
H519 C511 0.929 . S
H520 C528 0.929 . S
H521 C530 0.930 . S
H522 C532 0.930 . S
H523 C535 0.929 . S
H524 C538 0.930 . S
H525 C540 0.960 . S
H526 C540 0.960 . S
H527 C540 0.960 . S
C528 H520 0.929 . S
C528 C529 1.377 . S
C528 C530 1.384 . S
C529 C528 1.377 . S
C529 C535 1.390 . S
C530 H521 0.930 . S
C530 C528 1.384 . S
C530 C531 1.372 . S
C531 C530 1.372 . S
C531 C532 1.400 . S
C531 C536 1.490 . S
C532 H522 0.930 . S
C532 C531 1.400 . S
C532 C535 1.386 . S
H533 C549 0.930 . S
H534 C550 0.931 . S
C535 H523 0.929 . S
C535 C529 1.390 . S
C535 C532 1.386 . S
C536 C531 1.490 . S
C536 C538 1.395 . S
C536 C539 1.403 . S
H537 C543 0.930 . S
C538 H524 0.930 . S
C538 C536 1.395 . S
C538 C541 1.403 . S
C539 C536 1.403 . S
C539 C540 1.524 . S
C539 C543 1.400 . S
C540 H525 0.960 . S
C540 H526 0.960 . S
C540 H527 0.960 . S
C540 C539 1.524 . S
C541 C538 1.403 . S
C541 C542 1.392 . S
C541 C545 1.495 . S
C542 C541 1.392 . S
C542 C543 1.385 . S
C542 C544 1.478 . S
C543 H537 0.930 . S
C543 C539 1.400 . S
C543 C542 1.385 . S
C544 C542 1.478 . S
C544 C546 1.381 . S
C544 C550 1.383 . S
C545 C541 1.495 . S
C545 H551 0.959 . S
C545 H552 0.961 . S
C545 H553 0.960 . S
C546 C544 1.381 . S
C546 C547 1.394 . S
C546 H554 0.930 . S
C547 C546 1.394 . S
C547 C548 1.383 . S
C547 H555 0.929 . S
C548 C547 1.383 . S
C548 C549 1.377 . S
C549 H533 0.930 . S
C549 C548 1.377 . S
C549 C550 1.379 . S
C550 H534 0.931 . S
C550 C544 1.383 . S
C550 C549 1.379 . S
H551 C545 0.959 . S
H552 C545 0.961 . S
H553 C545 0.960 . S
H554 C546 0.930 . S
H555 C547 0.929 . S
H556 C564 0.929 . S
H557 C566 0.930 . S
H558 C568 0.930 . S
H559 C571 0.929 . S
H560 C574 0.930 . S
H561 C576 0.960 . S
H562 C576 0.960 . S
H563 C576 0.960 . S
C564 H556 0.929 . S
C564 C565 1.377 . S
C564 C566 1.384 . S
C565 C564 1.377 . S
C565 C571 1.390 . S
C566 H557 0.930 . S
C566 C564 1.384 . S
C566 C567 1.372 . S
C567 C566 1.372 . S
C567 C568 1.400 . S
C567 C572 1.490 . S
C568 H558 0.930 . S
C568 C567 1.400 . S
C568 C571 1.386 . S
H569 C585 0.930 . S
H570 C586 0.931 . S
C571 H559 0.929 . S
C571 C565 1.390 . S
C571 C568 1.386 . S
C572 C567 1.490 . S
C572 C574 1.395 . S
C572 C575 1.403 . S
H573 C579 0.930 . S
C574 H560 0.930 . S
C574 C572 1.395 . S
C574 C577 1.403 . S
C575 C572 1.403 . S
C575 C576 1.524 . S
C575 C579 1.400 . S
C576 H561 0.960 . S
C576 H562 0.960 . S
C576 H563 0.960 . S
C576 C575 1.524 . S
C577 C574 1.403 . S
C577 C578 1.392 . S
C577 C581 1.495 . S
C578 C577 1.392 . S
C578 C579 1.385 . S
C578 C580 1.478 . S
C579 H573 0.930 . S
C579 C575 1.400 . S
C579 C578 1.385 . S
C580 C578 1.478 . S
C580 C582 1.381 . S
C580 C586 1.383 . S
C581 C577 1.495 . S
C581 H587 0.959 . S
C581 H588 0.961 . S
C581 H589 0.960 . S
C582 C580 1.381 . S
C582 C583 1.394 . S
C582 H590 0.930 . S
C583 C582 1.394 . S
C583 C584 1.383 . S
C583 H591 0.929 . S
C584 C583 1.383 . S
C584 C585 1.377 . S
C585 H569 0.930 . S
C585 C584 1.377 . S
C585 C586 1.379 . S
C586 H570 0.931 . S
C586 C580 1.383 . S
C586 C585 1.379 . S
H587 C581 0.959 . S
H588 C581 0.961 . S
H589 C581 0.960 . S
H590 C582 0.930 . S
H591 C583 0.929 . S
H592 C600 0.929 . S
H593 C602 0.930 . S
H594 C604 0.930 . S
H595 C607 0.929 . S
H596 C610 0.930 . S
H597 C612 0.960 . S
H598 C612 0.960 . S
H599 C612 0.960 . S
C600 H592 0.929 . S
C600 C601 1.377 . S
C600 C602 1.384 . S
C601 C600 1.377 . S
C601 C607 1.390 . S
C602 H593 0.930 . S
C602 C600 1.384 . S
C602 C603 1.372 . S
C603 C602 1.372 . S
C603 C604 1.400 . S
C603 C608 1.490 . S
C604 H594 0.930 . S
C604 C603 1.400 . S
C604 C607 1.386 . S
H605 C621 0.930 . S
H606 C622 0.931 . S
C607 H595 0.929 . S
C607 C601 1.390 . S
C607 C604 1.386 . S
C608 C603 1.490 . S
C608 C610 1.395 . S
C608 C611 1.403 . S
H609 C615 0.930 . S
C610 H596 0.930 . S
C610 C608 1.395 . S
C610 C613 1.403 . S
C611 C608 1.403 . S
C611 C612 1.524 . S
C611 C615 1.400 . S
C612 H597 0.960 . S
C612 H598 0.960 . S
C612 H599 0.960 . S
C612 C611 1.524 . S
C613 C610 1.403 . S
C613 C614 1.392 . S
C613 C617 1.495 . S
C614 C613 1.392 . S
C614 C615 1.385 . S
C614 C616 1.478 . S
C615 H609 0.930 . S
C615 C611 1.400 . S
C615 C614 1.385 . S
C616 C614 1.478 . S
C616 C618 1.381 . S
C616 C622 1.383 . S
C617 C613 1.495 . S
C617 H623 0.959 . S
C617 H624 0.961 . S
C617 H625 0.960 . S
C618 C616 1.381 . S
C618 C619 1.394 . S
C618 H626 0.930 . S
C619 C618 1.394 . S
C619 C620 1.383 . S
C619 H627 0.929 . S
C620 C619 1.383 . S
C620 C621 1.377 . S
C621 H605 0.930 . S
C621 C620 1.377 . S
C621 C622 1.379 . S
C622 H606 0.931 . S
C622 C616 1.383 . S
C622 C621 1.379 . S
H623 C617 0.959 . S
H624 C617 0.961 . S
H625 C617 0.960 . S
H626 C618 0.930 . S
H627 C619 0.929 . S
H628 C636 0.929 . S
H629 C638 0.930 . S
H630 C640 0.930 . S
H631 C643 0.929 . S
H632 C646 0.930 . S
H633 C648 0.960 . S
H634 C648 0.960 . S
H635 C648 0.960 . S
C636 H628 0.929 . S
C636 C637 1.377 . S
C636 C638 1.384 . S
C637 C636 1.377 . S
C637 C643 1.390 . S
C638 H629 0.930 . S
C638 C636 1.384 . S
C638 C639 1.372 . S
C639 C638 1.372 . S
C639 C640 1.400 . S
C639 C644 1.490 . S
C640 H630 0.930 . S
C640 C639 1.400 . S
C640 C643 1.386 . S
H641 C657 0.930 . S
H642 C658 0.931 . S
C643 H631 0.929 . S
C643 C637 1.390 . S
C643 C640 1.386 . S
C644 C639 1.490 . S
C644 C646 1.395 . S
C644 C647 1.403 . S
H645 C651 0.930 . S
C646 H632 0.930 . S
C646 C644 1.395 . S
C646 C649 1.403 . S
C647 C644 1.403 . S
C647 C648 1.524 . S
C647 C651 1.400 . S
C648 H633 0.960 . S
C648 H634 0.960 . S
C648 H635 0.960 . S
C648 C647 1.524 . S
C649 C646 1.403 . S
C649 C650 1.392 . S
C649 C653 1.495 . S
C650 C649 1.392 . S
C650 C651 1.385 . S
C650 C652 1.478 . S
C651 H645 0.930 . S
C651 C647 1.400 . S
C651 C650 1.385 . S
C652 C650 1.478 . S
C652 C654 1.381 . S
C652 C658 1.383 . S
C653 C649 1.495 . S
C653 H659 0.959 . S
C653 H660 0.961 . S
C653 H661 0.960 . S
C654 C652 1.381 . S
C654 C655 1.394 . S
C654 H662 0.930 . S
C655 C654 1.394 . S
C655 C656 1.383 . S
C655 H663 0.929 . S
C656 C655 1.383 . S
C656 C657 1.377 . S
C657 H641 0.930 . S
C657 C656 1.377 . S
C657 C658 1.379 . S
C658 H642 0.931 . S
C658 C652 1.383 . S
C658 C657 1.379 . S
H659 C653 0.959 . S
H660 C653 0.961 . S
H661 C653 0.960 . S
H662 C654 0.930 . S
H663 C655 0.929 . S
H664 C672 0.929 . S
H665 C674 0.930 . S
H666 C676 0.930 . S
H667 C679 0.929 . S
H668 C682 0.930 . S
H669 C684 0.960 . S
H670 C684 0.960 . S
H671 C684 0.960 . S
C672 H664 0.929 . S
C672 C673 1.377 . S
C672 C674 1.384 . S
C673 C672 1.377 . S
C673 C679 1.390 . S
C674 H665 0.930 . S
C674 C672 1.384 . S
C674 C675 1.372 . S
C675 C674 1.372 . S
C675 C676 1.400 . S
C675 C680 1.490 . S
C676 H666 0.930 . S
C676 C675 1.400 . S
C676 C679 1.386 . S
H677 C693 0.930 . S
H678 C694 0.931 . S
C679 H667 0.929 . S
C679 C673 1.390 . S
C679 C676 1.386 . S
C680 C675 1.490 . S
C680 C682 1.395 . S
C680 C683 1.403 . S
H681 C687 0.930 . S
C682 H668 0.930 . S
C682 C680 1.395 . S
C682 C685 1.403 . S
C683 C680 1.403 . S
C683 C684 1.524 . S
C683 C687 1.400 . S
C684 H669 0.960 . S
C684 H670 0.960 . S
C684 H671 0.960 . S
C684 C683 1.524 . S
C685 C682 1.403 . S
C685 C686 1.392 . S
C685 C689 1.495 . S
C686 C685 1.392 . S
C686 C687 1.385 . S
C686 C688 1.478 . S
C687 H681 0.930 . S
C687 C683 1.400 . S
C687 C686 1.385 . S
C688 C686 1.478 . S
C688 C690 1.381 . S
C688 C694 1.383 . S
C689 C685 1.495 . S
C689 H695 0.959 . S
C689 H696 0.961 . S
C689 H697 0.960 . S
C690 C688 1.381 . S
C690 C691 1.394 . S
C690 H698 0.930 . S
C691 C690 1.394 . S
C691 C692 1.383 . S
C691 H699 0.929 . S
C692 C691 1.383 . S
C692 C693 1.377 . S
C693 H677 0.930 . S
C693 C692 1.377 . S
C693 C694 1.379 . S
C694 H678 0.931 . S
C694 C688 1.383 . S
C694 C693 1.379 . S
H695 C689 0.959 . S
H696 C689 0.961 . S
H697 C689 0.960 . S
H698 C690 0.930 . S
H699 C691 0.929 . S
H700 C708 0.929 . S
H701 C710 0.930 . S
H702 C712 0.930 . S
H703 C715 0.929 . S
H704 C718 0.930 . S
H705 C720 0.960 . S
H706 C720 0.960 . S
H707 C720 0.960 . S
C708 H700 0.929 . S
C708 C709 1.377 . S
C708 C710 1.384 . S
C709 C708 1.377 . S
C709 C715 1.390 . S
C710 H701 0.930 . S
C710 C708 1.384 . S
C710 C711 1.372 . S
C711 C710 1.372 . S
C711 C712 1.400 . S
C711 C716 1.490 . S
C712 H702 0.930 . S
C712 C711 1.400 . S
C712 C715 1.386 . S
H713 C729 0.930 . S
H714 C730 0.931 . S
C715 H703 0.929 . S
C715 C709 1.390 . S
C715 C712 1.386 . S
C716 C711 1.490 . S
C716 C718 1.395 . S
C716 C719 1.403 . S
H717 C723 0.930 . S
C718 H704 0.930 . S
C718 C716 1.395 . S
C718 C721 1.403 . S
C719 C716 1.403 . S
C719 C720 1.524 . S
C719 C723 1.400 . S
C720 H705 0.960 . S
C720 H706 0.960 . S
C720 H707 0.960 . S
C720 C719 1.524 . S
C721 C718 1.403 . S
C721 C722 1.392 . S
C721 C725 1.495 . S
C722 C721 1.392 . S
C722 C723 1.385 . S
C722 C724 1.478 . S
C723 H717 0.930 . S
C723 C719 1.400 . S
C723 C722 1.385 . S
C724 C722 1.478 . S
C724 C726 1.381 . S
C724 C730 1.383 . S
C725 C721 1.495 . S
C725 H731 0.959 . S
C725 H732 0.961 . S
C725 H733 0.960 . S
C726 C724 1.381 . S
C726 C727 1.394 . S
C726 H734 0.930 . S
C727 C726 1.394 . S
C727 C728 1.383 . S
C727 H735 0.929 . S
C728 C727 1.383 . S
C728 C729 1.377 . S
C729 H713 0.930 . S
C729 C728 1.377 . S
C729 C730 1.379 . S
C730 H714 0.931 . S
C730 C724 1.383 . S
C730 C729 1.379 . S
H731 C725 0.959 . S
H732 C725 0.961 . S
H733 C725 0.960 . S
H734 C726 0.930 . S
H735 C727 0.929 . S
H736 C744 0.929 . S
H737 C746 0.930 . S
H738 C748 0.930 . S
H739 C751 0.929 . S
H740 C754 0.930 . S
H741 C756 0.960 . S
H742 C756 0.960 . S
H743 C756 0.960 . S
C744 H736 0.929 . S
C744 C745 1.377 . S
C744 C746 1.384 . S
C745 C744 1.377 . S
C745 C751 1.390 . S
C746 H737 0.930 . S
C746 C744 1.384 . S
C746 C747 1.372 . S
C747 C746 1.372 . S
C747 C748 1.400 . S
C747 C752 1.490 . S
C748 H738 0.930 . S
C748 C747 1.400 . S
C748 C751 1.386 . S
H749 C765 0.930 . S
H750 C766 0.931 . S
C751 H739 0.929 . S
C751 C745 1.390 . S
C751 C748 1.386 . S
C752 C747 1.490 . S
C752 C754 1.395 . S
C752 C755 1.403 . S
H753 C759 0.930 . S
C754 H740 0.930 . S
C754 C752 1.395 . S
C754 C757 1.403 . S
C755 C752 1.403 . S
C755 C756 1.524 . S
C755 C759 1.400 . S
C756 H741 0.960 . S
C756 H742 0.960 . S
C756 H743 0.960 . S
C756 C755 1.524 . S
C757 C754 1.403 . S
C757 C758 1.392 . S
C757 C761 1.495 . S
C758 C757 1.392 . S
C758 C759 1.385 . S
C758 C760 1.478 . S
C759 H753 0.930 . S
C759 C755 1.400 . S
C759 C758 1.385 . S
C760 C758 1.478 . S
C760 C762 1.381 . S
C760 C766 1.383 . S
C761 C757 1.495 . S
C761 H767 0.959 . S
C761 H768 0.961 . S
C761 H769 0.960 . S
C762 C760 1.381 . S
C762 C763 1.394 . S
C762 H770 0.930 . S
C763 C762 1.394 . S
C763 C764 1.383 . S
C763 H771 0.929 . S
C764 C763 1.383 . S
C764 C765 1.377 . S
C765 H749 0.930 . S
C765 C764 1.377 . S
C765 C766 1.379 . S
C766 H750 0.931 . S
C766 C760 1.383 . S
C766 C765 1.379 . S
H767 C761 0.959 . S
H768 C761 0.961 . S
H769 C761 0.960 . S
H770 C762 0.930 . S
H771 C763 0.929 . S
H772 C780 0.929 . S
H773 C782 0.930 . S
H774 C784 0.930 . S
H775 C787 0.929 . S
H776 C790 0.930 . S
H777 C792 0.960 . S
H778 C792 0.960 . S
H779 C792 0.960 . S
C780 H772 0.929 . S
C780 C781 1.377 . S
C780 C782 1.384 . S
C781 C780 1.377 . S
C781 C787 1.390 . S
C782 H773 0.930 . S
C782 C780 1.384 . S
C782 C783 1.372 . S
C783 C782 1.372 . S
C783 C784 1.400 . S
C783 C788 1.490 . S
C784 H774 0.930 . S
C784 C783 1.400 . S
C784 C787 1.386 . S
H785 C801 0.930 . S
H786 C802 0.931 . S
C787 H775 0.929 . S
C787 C781 1.390 . S
C787 C784 1.386 . S
C788 C783 1.490 . S
C788 C790 1.395 . S
C788 C791 1.403 . S
H789 C795 0.930 . S
C790 H776 0.930 . S
C790 C788 1.395 . S
C790 C793 1.403 . S
C791 C788 1.403 . S
C791 C792 1.524 . S
C791 C795 1.400 . S
C792 H777 0.960 . S
C792 H778 0.960 . S
C792 H779 0.960 . S
C792 C791 1.524 . S
C793 C790 1.403 . S
C793 C794 1.392 . S
C793 C797 1.495 . S
C794 C793 1.392 . S
C794 C795 1.385 . S
C794 C796 1.478 . S
C795 H789 0.930 . S
C795 C791 1.400 . S
C795 C794 1.385 . S
C796 C794 1.478 . S
C796 C798 1.381 . S
C796 C802 1.383 . S
C797 C793 1.495 . S
C797 H803 0.959 . S
C797 H804 0.961 . S
C797 H805 0.960 . S
C798 C796 1.381 . S
C798 C799 1.394 . S
C798 H806 0.930 . S
C799 C798 1.394 . S
C799 C800 1.383 . S
C799 H807 0.929 . S
C800 C799 1.383 . S
C800 C801 1.377 . S
C801 H785 0.930 . S
C801 C800 1.377 . S
C801 C802 1.379 . S
C802 H786 0.931 . S
C802 C796 1.383 . S
C802 C801 1.379 . S
H803 C797 0.959 . S
H804 C797 0.961 . S
H805 C797 0.960 . S
H806 C798 0.930 . S
H807 C799 0.929 . S
H808 C816 0.929 . S
H809 C818 0.930 . S
H810 C820 0.930 . S
H811 C823 0.929 . S
H812 C826 0.930 . S
H813 C828 0.960 . S
H814 C828 0.960 . S
H815 C828 0.960 . S
C816 H808 0.929 . S
C816 C817 1.377 . S
C816 C818 1.384 . S
C817 C816 1.377 . S
C817 C823 1.390 . S
C818 H809 0.930 . S
C818 C816 1.384 . S
C818 C819 1.372 . S
C819 C818 1.372 . S
C819 C820 1.400 . S
C819 C824 1.490 . S
C820 H810 0.930 . S
C820 C819 1.400 . S
C820 C823 1.386 . S
H821 C837 0.930 . S
H822 C838 0.931 . S
C823 H811 0.929 . S
C823 C817 1.390 . S
C823 C820 1.386 . S
C824 C819 1.490 . S
C824 C826 1.395 . S
C824 C827 1.403 . S
H825 C831 0.930 . S
C826 H812 0.930 . S
C826 C824 1.395 . S
C826 C829 1.403 . S
C827 C824 1.403 . S
C827 C828 1.524 . S
C827 C831 1.400 . S
C828 H813 0.960 . S
C828 H814 0.960 . S
C828 H815 0.960 . S
C828 C827 1.524 . S
C829 C826 1.403 . S
C829 C830 1.392 . S
C829 C833 1.495 . S
C830 C829 1.392 . S
C830 C831 1.385 . S
C830 C832 1.478 . S
C831 H825 0.930 . S
C831 C827 1.400 . S
C831 C830 1.385 . S
C832 C830 1.478 . S
C832 C834 1.381 . S
C832 C838 1.383 . S
C833 C829 1.495 . S
C833 H839 0.959 . S
C833 H840 0.961 . S
C833 H841 0.960 . S
C834 C832 1.381 . S
C834 C835 1.394 . S
C834 H842 0.930 . S
C835 C834 1.394 . S
C835 C836 1.383 . S
C835 H843 0.929 . S
C836 C835 1.383 . S
C836 C837 1.377 . S
C837 H821 0.930 . S
C837 C836 1.377 . S
C837 C838 1.379 . S
C838 H822 0.931 . S
C838 C832 1.383 . S
C838 C837 1.379 . S
H839 C833 0.959 . S
H840 C833 0.961 . S
H841 C833 0.960 . S
H842 C834 0.930 . S
H843 C835 0.929 . S
H844 C852 0.929 . S
H845 C854 0.930 . S
H846 C856 0.930 . S
H847 C859 0.929 . S
H848 C862 0.930 . S
H849 C864 0.960 . S
H850 C864 0.960 . S
H851 C864 0.960 . S
C852 H844 0.929 . S
C852 C853 1.377 . S
C852 C854 1.384 . S
C853 C852 1.377 . S
C853 C859 1.390 . S
C854 H845 0.930 . S
C854 C852 1.384 . S
C854 C855 1.372 . S
C855 C854 1.372 . S
C855 C856 1.400 . S
C855 C860 1.490 . S
C856 H846 0.930 . S
C856 C855 1.400 . S
C856 C859 1.386 . S
H857 C873 0.930 . S
H858 C874 0.931 . S
C859 H847 0.929 . S
C859 C853 1.390 . S
C859 C856 1.386 . S
C860 C855 1.490 . S
C860 C862 1.395 . S
C860 C863 1.403 . S
H861 C867 0.930 . S
C862 H848 0.930 . S
C862 C860 1.395 . S
C862 C865 1.403 . S
C863 C860 1.403 . S
C863 C864 1.524 . S
C863 C867 1.400 . S
C864 H849 0.960 . S
C864 H850 0.960 . S
C864 H851 0.960 . S
C864 C863 1.524 . S
C865 C862 1.403 . S
C865 C866 1.392 . S
C865 C869 1.495 . S
C866 C865 1.392 . S
C866 C867 1.385 . S
C866 C868 1.478 . S
C867 H861 0.930 . S
C867 C863 1.400 . S
C867 C866 1.385 . S
C868 C866 1.478 . S
C868 C870 1.381 . S
C868 C874 1.383 . S
C869 C865 1.495 . S
C869 H875 0.959 . S
C869 H876 0.961 . S
C869 H877 0.960 . S
C870 C868 1.381 . S
C870 C871 1.394 . S
C870 H878 0.930 . S
C871 C870 1.394 . S
C871 C872 1.383 . S
C871 H879 0.929 . S
C872 C871 1.383 . S
C872 C873 1.377 . S
C873 H857 0.930 . S
C873 C872 1.377 . S
C873 C874 1.379 . S
C874 H858 0.931 . S
C874 C868 1.383 . S
C874 C873 1.379 . S
H875 C869 0.959 . S
H876 C869 0.961 . S
H877 C869 0.960 . S
H878 C870 0.930 . S
H879 C871 0.929 . S
H880 C888 0.929 . S
H881 C890 0.930 . S
H882 C892 0.930 . S
H883 C895 0.929 . S
H884 C898 0.930 . S
H885 C900 0.960 . S
H886 C900 0.960 . S
H887 C900 0.960 . S
C888 H880 0.929 . S
C888 C889 1.377 . S
C888 C890 1.384 . S
C889 C888 1.377 . S
C889 C895 1.390 . S
C890 H881 0.930 . S
C890 C888 1.384 . S
C890 C891 1.372 . S
C891 C890 1.372 . S
C891 C892 1.400 . S
C891 C896 1.490 . S
C892 H882 0.930 . S
C892 C891 1.400 . S
C892 C895 1.386 . S
H893 C909 0.930 . S
H894 C910 0.931 . S
C895 H883 0.929 . S
C895 C889 1.390 . S
C895 C892 1.386 . S
C896 C891 1.490 . S
C896 C898 1.395 . S
C896 C899 1.403 . S
H897 C903 0.930 . S
C898 H884 0.930 . S
C898 C896 1.395 . S
C898 C901 1.403 . S
C899 C896 1.403 . S
C899 C900 1.524 . S
C899 C903 1.400 . S
C900 H885 0.960 . S
C900 H886 0.960 . S
C900 H887 0.960 . S
C900 C899 1.524 . S
C901 C898 1.403 . S
C901 C902 1.392 . S
C901 C905 1.495 . S
C902 C901 1.392 . S
C902 C903 1.385 . S
C902 C904 1.478 . S
C903 H897 0.930 . S
C903 C899 1.400 . S
C903 C902 1.385 . S
C904 C902 1.478 . S
C904 C906 1.381 . S
C904 C910 1.383 . S
C905 C901 1.495 . S
C905 H911 0.959 . S
C905 H912 0.961 . S
C905 H913 0.960 . S
C906 C904 1.381 . S
C906 C907 1.394 . S
C906 H914 0.930 . S
C907 C906 1.394 . S
C907 C908 1.383 . S
C907 H915 0.929 . S
C908 C907 1.383 . S
C908 C909 1.377 . S
C909 H893 0.930 . S
C909 C908 1.377 . S
C909 C910 1.379 . S
C910 H894 0.931 . S
C910 C904 1.383 . S
C910 C909 1.379 . S
H911 C905 0.959 . S
H912 C905 0.961 . S
H913 C905 0.960 . S
H914 C906 0.930 . S
H915 C907 0.929 . S
H916 C924 0.929 . S
H917 C926 0.930 . S
H918 C928 0.930 . S
H919 C931 0.929 . S
H920 C934 0.930 . S
H921 C936 0.960 . S
H922 C936 0.960 . S
H923 C936 0.960 . S
C924 H916 0.929 . S
C924 C925 1.377 . S
C924 C926 1.384 . S
C925 C924 1.377 . S
C925 C931 1.390 . S
C926 H917 0.930 . S
C926 C924 1.384 . S
C926 C927 1.372 . S
C927 C926 1.372 . S
C927 C928 1.400 . S
C927 C932 1.490 . S
C928 H918 0.930 . S
C928 C927 1.400 . S
C928 C931 1.386 . S
H929 C945 0.930 . S
H930 C946 0.931 . S
C931 H919 0.929 . S
C931 C925 1.390 . S
C931 C928 1.386 . S
C932 C927 1.490 . S
C932 C934 1.395 . S
C932 C935 1.403 . S
H933 C939 0.930 . S
C934 H920 0.930 . S
C934 C932 1.395 . S
C934 C937 1.403 . S
C935 C932 1.403 . S
C935 C936 1.524 . S
C935 C939 1.400 . S
C936 H921 0.960 . S
C936 H922 0.960 . S
C936 H923 0.960 . S
C936 C935 1.524 . S
C937 C934 1.403 . S
C937 C938 1.392 . S
C937 C941 1.495 . S
C938 C937 1.392 . S
C938 C939 1.385 . S
C938 C940 1.478 . S
C939 H933 0.930 . S
C939 C935 1.400 . S
C939 C938 1.385 . S
C940 C938 1.478 . S
C940 C942 1.381 . S
C940 C946 1.383 . S
C941 C937 1.495 . S
C941 H947 0.959 . S
C941 H948 0.961 . S
C941 H949 0.960 . S
C942 C940 1.381 . S
C942 C943 1.394 . S
C942 H950 0.930 . S
C943 C942 1.394 . S
C943 C944 1.383 . S
C943 H951 0.929 . S
C944 C943 1.383 . S
C944 C945 1.377 . S
C945 H929 0.930 . S
C945 C944 1.377 . S
C945 C946 1.379 . S
C946 H930 0.931 . S
C946 C940 1.383 . S
C946 C945 1.379 . S
H947 C941 0.959 . S
H948 C941 0.961 . S
H949 C941 0.960 . S
H950 C942 0.930 . S
H951 C943 0.929 . S
H952 C960 0.929 . S
H953 C962 0.930 . S
H954 C964 0.930 . S
H955 C967 0.929 . S
H956 C970 0.930 . S
H957 C972 0.960 . S
H958 C972 0.960 . S
H959 C972 0.960 . S
C960 H952 0.929 . S
C960 C961 1.377 . S
C960 C962 1.384 . S
C961 C960 1.377 . S
C961 C967 1.390 . S
C962 H953 0.930 . S
C962 C960 1.384 . S
C962 C963 1.372 . S
C963 C962 1.372 . S
C963 C964 1.400 . S
C963 C968 1.490 . S
C964 H954 0.930 . S
C964 C963 1.400 . S
C964 C967 1.386 . S
H965 C981 0.930 . S
H966 C982 0.931 . S
C967 H955 0.929 . S
C967 C961 1.390 . S
C967 C964 1.386 . S
C968 C963 1.490 . S
C968 C970 1.395 . S
C968 C971 1.403 . S
H969 C975 0.930 . S
C970 H956 0.930 . S
C970 C968 1.395 . S
C970 C973 1.403 . S
C971 C968 1.403 . S
C971 C972 1.524 . S
C971 C975 1.400 . S
C972 H957 0.960 . S
C972 H958 0.960 . S
C972 H959 0.960 . S
C972 C971 1.524 . S
C973 C970 1.403 . S
C973 C974 1.392 . S
C973 C977 1.495 . S
C974 C973 1.392 . S
C974 C975 1.385 . S
C974 C976 1.478 . S
C975 H969 0.930 . S
C975 C971 1.400 . S
C975 C974 1.385 . S
C976 C974 1.478 . S
C976 C978 1.381 . S
C976 C982 1.383 . S
C977 C973 1.495 . S
C977 H983 0.959 . S
C977 H984 0.961 . S
C977 H985 0.960 . S
C978 C976 1.381 . S
C978 C979 1.394 . S
C978 H986 0.930 . S
C979 C978 1.394 . S
C979 C980 1.383 . S
C979 H987 0.929 . S
C980 C979 1.383 . S
C980 C981 1.377 . S
C981 H965 0.930 . S
C981 C980 1.377 . S
C981 C982 1.379 . S
C982 H966 0.931 . S
C982 C976 1.383 . S
C982 C981 1.379 . S
H983 C977 0.959 . S
H984 C977 0.961 . S
H985 C977 0.960 . S
H986 C978 0.930 . S
H987 C979 0.929 . S
H988 C996 0.929 . S
H989 C998 0.930 . S
H990 C1000 0.930 . S
H991 C1003 0.929 . S
H992 C1006 0.930 . S
H993 C1008 0.960 . S
H994 C1008 0.960 . S
H995 C1008 0.960 . S
C996 H988 0.929 . S
C996 C997 1.377 . S
C996 C998 1.384 . S
C997 C996 1.377 . S
C997 C1003 1.390 . S
C998 H989 0.930 . S
C998 C996 1.384 . S
C998 C999 1.372 . S
C999 C998 1.372 . S
C999 C1000 1.400 . S
C999 C1004 1.490 . S
C1000 H990 0.930 . S
C1000 C999 1.400 . S
C1000 C1003 1.386 . S
H1001 C1017 0.930 . S
H1002 C1018 0.931 . S
C1003 H991 0.929 . S
C1003 C997 1.390 . S
C1003 C1000 1.386 . S
C1004 C999 1.490 . S
C1004 C1006 1.395 . S
C1004 C1007 1.403 . S
H1005 C1011 0.930 . S
C1006 H992 0.930 . S
C1006 C1004 1.395 . S
C1006 C1009 1.403 . S
C1007 C1004 1.403 . S
C1007 C1008 1.524 . S
C1007 C1011 1.400 . S
C1008 H993 0.960 . S
C1008 H994 0.960 . S
C1008 H995 0.960 . S
C1008 C1007 1.524 . S
C1009 C1006 1.403 . S
C1009 C1010 1.392 . S
C1009 C1013 1.495 . S
C1010 C1009 1.392 . S
C1010 C1011 1.385 . S
C1010 C1012 1.478 . S
C1011 H1005 0.930 . S
C1011 C1007 1.400 . S
C1011 C1010 1.385 . S
C1012 C1010 1.478 . S
C1012 C1014 1.381 . S
C1012 C1018 1.383 . S
C1013 C1009 1.495 . S
C1013 H1019 0.959 . S
C1013 H1020 0.961 . S
C1013 H1021 0.960 . S
C1014 C1012 1.381 . S
C1014 C1015 1.394 . S
C1014 H1022 0.930 . S
C1015 C1014 1.394 . S
C1015 C1016 1.383 . S
C1015 H1023 0.929 . S
C1016 C1015 1.383 . S
C1016 C1017 1.377 . S
C1017 H1001 0.930 . S
C1017 C1016 1.377 . S
C1017 C1018 1.379 . S
C1018 H1002 0.931 . S
C1018 C1012 1.383 . S
C1018 C1017 1.379 . S
H1019 C1013 0.959 . S
H1020 C1013 0.961 . S
H1021 C1013 0.960 . S
H1022 C1014 0.930 . S
H1023 C1015 0.929 . S
H1024 C1032 0.929 . S
H1025 C1034 0.930 . S
H1026 C1036 0.930 . S
H1027 C1039 0.929 . S
H1028 C1042 0.930 . S
H1029 C1044 0.960 . S
H1030 C1044 0.960 . S
H1031 C1044 0.960 . S
C1032 H1024 0.929 . S
C1032 C1033 1.377 . S
C1032 C1034 1.384 . S
C1033 C1032 1.377 . S
C1033 C1039 1.390 . S
C1034 H1025 0.930 . S
C1034 C1032 1.384 . S
C1034 C1035 1.372 . S
C1035 C1034 1.372 . S
C1035 C1036 1.400 . S
C1035 C1040 1.490 . S
C1036 H1026 0.930 . S
C1036 C1035 1.400 . S
C1036 C1039 1.386 . S
H1037 C1053 0.930 . S
H1038 C1054 0.931 . S
C1039 H1027 0.929 . S
C1039 C1033 1.390 . S
C1039 C1036 1.386 . S
C1040 C1035 1.490 . S
C1040 C1042 1.395 . S
C1040 C1043 1.403 . S
H1041 C1047 0.930 . S
C1042 H1028 0.930 . S
C1042 C1040 1.395 . S
C1042 C1045 1.403 . S
C1043 C1040 1.403 . S
C1043 C1044 1.524 . S
C1043 C1047 1.400 . S
C1044 H1029 0.960 . S
C1044 H1030 0.960 . S
C1044 H1031 0.960 . S
C1044 C1043 1.524 . S
C1045 C1042 1.403 . S
C1045 C1046 1.392 . S
C1045 C1049 1.495 . S
C1046 C1045 1.392 . S
C1046 C1047 1.385 . S
C1046 C1048 1.478 . S
C1047 H1041 0.930 . S
C1047 C1043 1.400 . S
C1047 C1046 1.385 . S
C1048 C1046 1.478 . S
C1048 C1050 1.381 . S
C1048 C1054 1.383 . S
C1049 C1045 1.495 . S
C1049 H1055 0.959 . S
C1049 H1056 0.961 . S
C1049 H1057 0.960 . S
C1050 C1048 1.381 . S
C1050 C1051 1.394 . S
C1050 H1058 0.930 . S
C1051 C1050 1.394 . S
C1051 C1052 1.383 . S
C1051 H1059 0.929 . S
C1052 C1051 1.383 . S
C1052 C1053 1.377 . S
C1053 H1037 0.930 . S
C1053 C1052 1.377 . S
C1053 C1054 1.379 . S
C1054 H1038 0.931 . S
C1054 C1048 1.383 . S
C1054 C1053 1.379 . S
H1055 C1049 0.959 . S
H1056 C1049 0.961 . S
H1057 C1049 0.960 . S
H1058 C1050 0.930 . S
H1059 C1051 0.929 . S
H1060 C1068 0.929 . S
H1061 C1070 0.930 . S
H1062 C1072 0.930 . S
H1063 C1075 0.929 . S
H1064 C1078 0.930 . S
H1065 C1080 0.960 . S
H1066 C1080 0.960 . S
H1067 C1080 0.960 . S
C1068 H1060 0.929 . S
C1068 C1069 1.377 . S
C1068 C1070 1.384 . S
C1069 C1068 1.377 . S
C1069 C1075 1.390 . S
C1070 H1061 0.930 . S
C1070 C1068 1.384 . S
C1070 C1071 1.372 . S
C1071 C1070 1.372 . S
C1071 C1072 1.400 . S
C1071 C1076 1.490 . S
C1072 H1062 0.930 . S
C1072 C1071 1.400 . S
C1072 C1075 1.386 . S
H1073 C1089 0.930 . S
H1074 C1090 0.931 . S
C1075 H1063 0.929 . S
C1075 C1069 1.390 . S
C1075 C1072 1.386 . S
C1076 C1071 1.490 . S
C1076 C1078 1.395 . S
C1076 C1079 1.403 . S
H1077 C1083 0.930 . S
C1078 H1064 0.930 . S
C1078 C1076 1.395 . S
C1078 C1081 1.403 . S
C1079 C1076 1.403 . S
C1079 C1080 1.524 . S
C1079 C1083 1.400 . S
C1080 H1065 0.960 . S
C1080 H1066 0.960 . S
C1080 H1067 0.960 . S
C1080 C1079 1.524 . S
C1081 C1078 1.403 . S
C1081 C1082 1.392 . S
C1081 C1085 1.495 . S
C1082 C1081 1.392 . S
C1082 C1083 1.385 . S
C1082 C1084 1.478 . S
C1083 H1077 0.930 . S
C1083 C1079 1.400 . S
C1083 C1082 1.385 . S
C1084 C1082 1.478 . S
C1084 C1086 1.381 . S
C1084 C1090 1.383 . S
C1085 C1081 1.495 . S
C1085 H1091 0.959 . S
C1085 H1092 0.961 . S
C1085 H1093 0.960 . S
C1086 C1084 1.381 . S
C1086 C1087 1.394 . S
C1086 H1094 0.930 . S
C1087 C1086 1.394 . S
C1087 C1088 1.383 . S
C1087 H1095 0.929 . S
C1088 C1087 1.383 . S
C1088 C1089 1.377 . S
C1089 H1073 0.930 . S
C1089 C1088 1.377 . S
C1089 C1090 1.379 . S
C1090 H1074 0.931 . S
C1090 C1084 1.383 . S
C1090 C1089 1.379 . S
H1091 C1085 0.959 . S
H1092 C1085 0.961 . S
H1093 C1085 0.960 . S
H1094 C1086 0.930 . S
H1095 C1087 0.929 . S
H1096 C1104 0.929 . S
H1097 C1106 0.930 . S
H1098 C1108 0.930 . S
H1099 C1111 0.929 . S
H1100 C1114 0.930 . S
H1101 C1116 0.960 . S
H1102 C1116 0.960 . S
H1103 C1116 0.960 . S
C1104 H1096 0.929 . S
C1104 C1105 1.377 . S
C1104 C1106 1.384 . S
C1105 C1104 1.377 . S
C1105 C1111 1.390 . S
C1106 H1097 0.930 . S
C1106 C1104 1.384 . S
C1106 C1107 1.372 . S
C1107 C1106 1.372 . S
C1107 C1108 1.400 . S
C1107 C1112 1.490 . S
C1108 H1098 0.930 . S
C1108 C1107 1.400 . S
C1108 C1111 1.386 . S
H1109 C1125 0.930 . S
H1110 C1126 0.931 . S
C1111 H1099 0.929 . S
C1111 C1105 1.390 . S
C1111 C1108 1.386 . S
C1112 C1107 1.490 . S
C1112 C1114 1.395 . S
C1112 C1115 1.403 . S
H1113 C1119 0.930 . S
C1114 H1100 0.930 . S
C1114 C1112 1.395 . S
C1114 C1117 1.403 . S
C1115 C1112 1.403 . S
C1115 C1116 1.524 . S
C1115 C1119 1.400 . S
C1116 H1101 0.960 . S
C1116 H1102 0.960 . S
C1116 H1103 0.960 . S
C1116 C1115 1.524 . S
C1117 C1114 1.403 . S
C1117 C1118 1.392 . S
C1117 C1121 1.495 . S
C1118 C1117 1.392 . S
C1118 C1119 1.385 . S
C1118 C1120 1.478 . S
C1119 H1113 0.930 . S
C1119 C1115 1.400 . S
C1119 C1118 1.385 . S
C1120 C1118 1.478 . S
C1120 C1122 1.381 . S
C1120 C1126 1.383 . S
C1121 C1117 1.495 . S
C1121 H1127 0.959 . S
C1121 H1128 0.961 . S
C1121 H1129 0.960 . S
C1122 C1120 1.381 . S
C1122 C1123 1.394 . S
C1122 H1130 0.930 . S
C1123 C1122 1.394 . S
C1123 C1124 1.383 . S
C1123 H1131 0.929 . S
C1124 C1123 1.383 . S
C1124 C1125 1.377 . S
C1125 H1109 0.930 . S
C1125 C1124 1.377 . S
C1125 C1126 1.379 . S
C1126 H1110 0.931 . S
C1126 C1120 1.383 . S
C1126 C1125 1.379 . S
H1127 C1121 0.959 . S
H1128 C1121 0.961 . S
H1129 C1121 0.960 . S
H1130 C1122 0.930 . S
H1131 C1123 0.929 . S
H1132 C1140 0.929 . S
H1133 C1142 0.930 . S
H1134 C1144 0.930 . S
H1135 C1147 0.929 . S
H1136 C1150 0.930 . S
H1137 C1152 0.960 . S
H1138 C1152 0.960 . S
H1139 C1152 0.960 . S
C1140 H1132 0.929 . S
C1140 C1141 1.377 . S
C1140 C1142 1.384 . S
C1141 C1140 1.377 . S
C1141 C1147 1.390 . S
C1142 H1133 0.930 . S
C1142 C1140 1.384 . S
C1142 C1143 1.372 . S
C1143 C1142 1.372 . S
C1143 C1144 1.400 . S
C1143 C1148 1.490 . S
C1144 H1134 0.930 . S
C1144 C1143 1.400 . S
C1144 C1147 1.386 . S
H1145 C1161 0.930 . S
H1146 C1162 0.931 . S
C1147 H1135 0.929 . S
C1147 C1141 1.390 . S
C1147 C1144 1.386 . S
C1148 C1143 1.490 . S
C1148 C1150 1.395 . S
C1148 C1151 1.403 . S
H1149 C1155 0.930 . S
C1150 H1136 0.930 . S
C1150 C1148 1.395 . S
C1150 C1153 1.403 . S
C1151 C1148 1.403 . S
C1151 C1152 1.524 . S
C1151 C1155 1.400 . S
C1152 H1137 0.960 . S
C1152 H1138 0.960 . S
C1152 H1139 0.960 . S
C1152 C1151 1.524 . S
C1153 C1150 1.403 . S
C1153 C1154 1.392 . S
C1153 C1157 1.495 . S
C1154 C1153 1.392 . S
C1154 C1155 1.385 . S
C1154 C1156 1.478 . S
C1155 H1149 0.930 . S
C1155 C1151 1.400 . S
C1155 C1154 1.385 . S
C1156 C1154 1.478 . S
C1156 C1158 1.381 . S
C1156 C1162 1.383 . S
C1157 C1153 1.495 . S
C1157 H1163 0.959 . S
C1157 H1164 0.961 . S
C1157 H1165 0.960 . S
C1158 C1156 1.381 . S
C1158 C1159 1.394 . S
C1158 H1166 0.930 . S
C1159 C1158 1.394 . S
C1159 C1160 1.383 . S
C1159 H1167 0.929 . S
C1160 C1159 1.383 . S
C1160 C1161 1.377 . S
C1161 H1145 0.930 . S
C1161 C1160 1.377 . S
C1161 C1162 1.379 . S
C1162 H1146 0.931 . S
C1162 C1156 1.383 . S
C1162 C1161 1.379 . S
H1163 C1157 0.959 . S
H1164 C1157 0.961 . S
H1165 C1157 0.960 . S
H1166 C1158 0.930 . S
H1167 C1159 0.929 . S
H1168 C1176 0.929 . S
H1169 C1178 0.930 . S
H1170 C1180 0.930 . S
H1171 C1183 0.929 . S
H1172 C1186 0.930 . S
H1173 C1188 0.960 . S
H1174 C1188 0.960 . S
H1175 C1188 0.960 . S
C1176 H1168 0.929 . S
C1176 C1177 1.377 . S
C1176 C1178 1.384 . S
C1177 C1176 1.377 . S
C1177 C1183 1.390 . S
C1178 H1169 0.930 . S
C1178 C1176 1.384 . S
C1178 C1179 1.372 . S
C1179 C1178 1.372 . S
C1179 C1180 1.400 . S
C1179 C1184 1.490 . S
C1180 H1170 0.930 . S
C1180 C1179 1.400 . S
C1180 C1183 1.386 . S
H1181 C1197 0.930 . S
H1182 C1198 0.931 . S
C1183 H1171 0.929 . S
C1183 C1177 1.390 . S
C1183 C1180 1.386 . S
C1184 C1179 1.490 . S
C1184 C1186 1.395 . S
C1184 C1187 1.403 . S
H1185 C1191 0.930 . S
C1186 H1172 0.930 . S
C1186 C1184 1.395 . S
C1186 C1189 1.403 . S
C1187 C1184 1.403 . S
C1187 C1188 1.524 . S
C1187 C1191 1.400 . S
C1188 H1173 0.960 . S
C1188 H1174 0.960 . S
C1188 H1175 0.960 . S
C1188 C1187 1.524 . S
C1189 C1186 1.403 . S
C1189 C1190 1.392 . S
C1189 C1193 1.495 . S
C1190 C1189 1.392 . S
C1190 C1191 1.385 . S
C1190 C1192 1.478 . S
C1191 H1185 0.930 . S
C1191 C1187 1.400 . S
C1191 C1190 1.385 . S
C1192 C1190 1.478 . S
C1192 C1194 1.381 . S
C1192 C1198 1.383 . S
C1193 C1189 1.495 . S
C1193 H1199 0.959 . S
C1193 H1200 0.961 . S
C1193 H1201 0.960 . S
C1194 C1192 1.381 . S
C1194 C1195 1.394 . S
C1194 H1202 0.930 . S
C1195 C1194 1.394 . S
C1195 C1196 1.383 . S
C1195 H1203 0.929 . S
C1196 C1195 1.383 . S
C1196 C1197 1.377 . S
C1197 H1181 0.930 . S
C1197 C1196 1.377 . S
C1197 C1198 1.379 . S
C1198 H1182 0.931 . S
C1198 C1192 1.383 . S
C1198 C1197 1.379 . S
H1199 C1193 0.959 . S
H1200 C1193 0.961 . S
H1201 C1193 0.960 . S
H1202 C1194 0.930 . S
H1203 C1195 0.929 . S
H1204 C1212 0.929 . S
H1205 C1214 0.930 . S
H1206 C1216 0.930 . S
H1207 C1219 0.929 . S
H1208 C1222 0.930 . S
H1209 C1224 0.960 . S
H1210 C1224 0.960 . S
H1211 C1224 0.960 . S
C1212 H1204 0.929 . S
C1212 C1213 1.377 . S
C1212 C1214 1.384 . S
C1213 C1212 1.377 . S
C1213 C1219 1.390 . S
C1214 H1205 0.930 . S
C1214 C1212 1.384 . S
C1214 C1215 1.372 . S
C1215 C1214 1.372 . S
C1215 C1216 1.400 . S
C1215 C1220 1.490 . S
C1216 H1206 0.930 . S
C1216 C1215 1.400 . S
C1216 C1219 1.386 . S
H1217 C1233 0.930 . S
H1218 C1234 0.931 . S
C1219 H1207 0.929 . S
C1219 C1213 1.390 . S
C1219 C1216 1.386 . S
C1220 C1215 1.490 . S
C1220 C1222 1.395 . S
C1220 C1223 1.403 . S
H1221 C1227 0.930 . S
C1222 H1208 0.930 . S
C1222 C1220 1.395 . S
C1222 C1225 1.403 . S
C1223 C1220 1.403 . S
C1223 C1224 1.524 . S
C1223 C1227 1.400 . S
C1224 H1209 0.960 . S
C1224 H1210 0.960 . S
C1224 H1211 0.960 . S
C1224 C1223 1.524 . S
C1225 C1222 1.403 . S
C1225 C1226 1.392 . S
C1225 C1229 1.495 . S
C1226 C1225 1.392 . S
C1226 C1227 1.385 . S
C1226 C1228 1.478 . S
C1227 H1221 0.930 . S
C1227 C1223 1.400 . S
C1227 C1226 1.385 . S
C1228 C1226 1.478 . S
C1228 C1230 1.381 . S
C1228 C1234 1.383 . S
C1229 C1225 1.495 . S
C1229 H1235 0.959 . S
C1229 H1236 0.961 . S
C1229 H1237 0.960 . S
C1230 C1228 1.381 . S
C1230 C1231 1.394 . S
C1230 H1238 0.930 . S
C1231 C1230 1.394 . S
C1231 C1232 1.383 . S
C1231 H1239 0.929 . S
C1232 C1231 1.383 . S
C1232 C1233 1.377 . S
C1233 H1217 0.930 . S
C1233 C1232 1.377 . S
C1233 C1234 1.379 . S
C1234 H1218 0.931 . S
C1234 C1228 1.383 . S
C1234 C1233 1.379 . S
H1235 C1229 0.959 . S
H1236 C1229 0.961 . S
H1237 C1229 0.960 . S
H1238 C1230 0.930 . S
H1239 C1231 0.929 . S
H1240 C1248 0.929 . S
H1241 C1250 0.930 . S
H1242 C1252 0.930 . S
H1243 C1255 0.929 . S
H1244 C1258 0.930 . S
H1245 C1260 0.960 . S
H1246 C1260 0.960 . S
H1247 C1260 0.960 . S
C1248 H1240 0.929 . S
C1248 C1249 1.377 . S
C1248 C1250 1.384 . S
C1249 C1248 1.377 . S
C1249 C1255 1.390 . S
C1250 H1241 0.930 . S
C1250 C1248 1.384 . S
C1250 C1251 1.372 . S
C1251 C1250 1.372 . S
C1251 C1252 1.400 . S
C1251 C1256 1.490 . S
C1252 H1242 0.930 . S
C1252 C1251 1.400 . S
C1252 C1255 1.386 . S
H1253 C1269 0.930 . S
H1254 C1270 0.931 . S
C1255 H1243 0.929 . S
C1255 C1249 1.390 . S
C1255 C1252 1.386 . S
C1256 C1251 1.490 . S
C1256 C1258 1.395 . S
C1256 C1259 1.403 . S
H1257 C1263 0.930 . S
C1258 H1244 0.930 . S
C1258 C1256 1.395 . S
C1258 C1261 1.403 . S
C1259 C1256 1.403 . S
C1259 C1260 1.524 . S
C1259 C1263 1.400 . S
C1260 H1245 0.960 . S
C1260 H1246 0.960 . S
C1260 H1247 0.960 . S
C1260 C1259 1.524 . S
C1261 C1258 1.403 . S
C1261 C1262 1.392 . S
C1261 C1265 1.495 . S
C1262 C1261 1.392 . S
C1262 C1263 1.385 . S
C1262 C1264 1.478 . S
C1263 H1257 0.930 . S
C1263 C1259 1.400 . S
C1263 C1262 1.385 . S
C1264 C1262 1.478 . S
C1264 C1266 1.381 . S
C1264 C1270 1.383 . S
C1265 C1261 1.495 . S
C1265 H1271 0.959 . S
C1265 H1272 0.961 . S
C1265 H1273 0.960 . S
C1266 C1264 1.381 . S
C1266 C1267 1.394 . S
C1266 H1274 0.930 . S
C1267 C1266 1.394 . S
C1267 C1268 1.383 . S
C1267 H1275 0.929 . S
C1268 C1267 1.383 . S
C1268 C1269 1.377 . S
C1269 H1253 0.930 . S
C1269 C1268 1.377 . S
C1269 C1270 1.379 . S
C1270 H1254 0.931 . S
C1270 C1264 1.383 . S
C1270 C1269 1.379 . S
H1271 C1265 0.959 . S
H1272 C1265 0.961 . S
H1273 C1265 0.960 . S
H1274 C1266 0.930 . S
H1275 C1267 0.929 . S
H1276 C1284 0.929 . S
H1277 C1286 0.930 . S
H1278 C1288 0.930 . S
H1279 C1291 0.929 . S
H1280 C1294 0.930 . S
H1281 C1296 0.960 . S
H1282 C1296 0.960 . S
H1283 C1296 0.960 . S
C1284 H1276 0.929 . S
C1284 C1285 1.377 . S
C1284 C1286 1.384 . S
C1285 C1284 1.377 . S
C1285 C1291 1.390 . S
C1286 H1277 0.930 . S
C1286 C1284 1.384 . S
C1286 C1287 1.372 . S
C1287 C1286 1.372 . S
C1287 C1288 1.400 . S
C1287 C1292 1.490 . S
C1288 H1278 0.930 . S
C1288 C1287 1.400 . S
C1288 C1291 1.386 . S
H1289 C1305 0.930 . S
H1290 C1306 0.931 . S
C1291 H1279 0.929 . S
C1291 C1285 1.390 . S
C1291 C1288 1.386 . S
C1292 C1287 1.490 . S
C1292 C1294 1.395 . S
C1292 C1295 1.403 . S
H1293 C1299 0.930 . S
C1294 H1280 0.930 . S
C1294 C1292 1.395 . S
C1294 C1297 1.403 . S
C1295 C1292 1.403 . S
C1295 C1296 1.524 . S
C1295 C1299 1.400 . S
C1296 H1281 0.960 . S
C1296 H1282 0.960 . S
C1296 H1283 0.960 . S
C1296 C1295 1.524 . S
C1297 C1294 1.403 . S
C1297 C1298 1.392 . S
C1297 C1301 1.495 . S
C1298 C1297 1.392 . S
C1298 C1299 1.385 . S
C1298 C1300 1.478 . S
C1299 H1293 0.930 . S
C1299 C1295 1.400 . S
C1299 C1298 1.385 . S
C1300 C1298 1.478 . S
C1300 C1302 1.381 . S
C1300 C1306 1.383 . S
C1301 C1297 1.495 . S
C1301 H1307 0.959 . S
C1301 H1308 0.961 . S
C1301 H1309 0.960 . S
C1302 C1300 1.381 . S
C1302 C1303 1.394 . S
C1302 H1310 0.930 . S
C1303 C1302 1.394 . S
C1303 C1304 1.383 . S
C1303 H1311 0.929 . S
C1304 C1303 1.383 . S
C1304 C1305 1.377 . S
C1305 H1289 0.930 . S
C1305 C1304 1.377 . S
C1305 C1306 1.379 . S
C1306 H1290 0.931 . S
C1306 C1300 1.383 . S
C1306 C1305 1.379 . S
H1307 C1301 0.959 . S
H1308 C1301 0.961 . S
H1309 C1301 0.960 . S
H1310 C1302 0.930 . S
H1311 C1303 0.929 . S
C457 C1 0.935 . S
C476 C303 0.930 . S
C493 C67 1.614 . S
C512 C347 1.556 . S
C548 C377 1.983 . S
C529 C97 2.002 . S
C565 C133 2.802 . S
C584 C418 2.783 . S
C620 C334 0.715 . S
C601 C25 0.700 . S
C656 C298 2.621 . S
C637 C37 2.616 . S
C692 C426 1.095 . S
C673 C103 1.109 . S
C728 C387 2.135 . S
C709 C109 2.178 . S
C745 C31 0.696 . S
C764 C423 0.715 . S
C800 C337 1.943 . S
C781 C73 2.012 . S
C817 C139 2.134 . S
C836 C306 2.077 . S
C853 C61 1.885 . S
C872 C374 1.897 . S
C908 C294 0.896 . S
C889 C175 0.923 . S
C925 C181 1.591 . S
C944 C338 1.531 . S
C961 C247 2.000 . S
C980 C386 2.021 . S
C997 C277 2.797 . S
C1016 C427 2.754 . S
C1033 C145 0.700 . S
C1052 C343 0.676 . S
C1088 C307 2.616 . S
C1069 C211 2.619 . S
C1124 C417 1.080 . S
C1105 C217 1.080 . S
C1160 C378 2.147 . S
C1141 C283 2.179 . S
C1177 C169 0.708 . S
C1196 C414 0.701 . S
C1232 C346 1.991 . S
C1213 C241 2.007 . S
C1268 C297 2.065 . S
C1249 C253 2.131 . S
C1285 C205 1.903 . S
C1304 C383 1.892 . S
