# Generated by pormake.
# Topology apo, (3,6)-cn, num edge types: 1
# Building blocks:
#     Node 0, Type 0, BuildingBlock: QEWDON_clean_linker_0, # of connection points: 3
#     Node 1, Type 0, BuildingBlock: QEWDON_clean_linker_0, # of connection points: 3
#     Node 2, Type 0, BuildingBlock: QEWDON_clean_linker_0, # of connection points: 3
#     Node 3, Type 0, BuildingBlock: QEWDON_clean_linker_0, # of connection points: 3
#     Node 4, Type 0, BuildingBlock: QEWDON_clean_linker_0, # of connection points: 3
#     Node 5, Type 0, BuildingBlock: QEWDON_clean_linker_0, # of connection points: 3
#     Node 6, Type 0, BuildingBlock: QEWDON_clean_linker_0, # of connection points: 3
#     Node 7, Type 0, BuildingBlock: QEWDON_clean_linker_0, # of connection points: 3
#     Node 8, Type 1, BuildingBlock: MIDCAF_clean_sbu_0, # of connection points: 6
#     Node 9, Type 1, BuildingBlock: MIDCAF_clean_sbu_0, # of connection points: 6
#     Node 10, Type 1, BuildingBlock: MIDCAF_clean_sbu_0, # of connection points: 6
#     Node 11, Type 1, BuildingBlock: MIDCAF_clean_sbu_0, # of connection points: 6
#     Edge 12, Type (0, 1), BuildingBlock: TEMPAE_clean_linker_10, # of connection points: 2
#     Edge 13, Type (0, 1), BuildingBlock: TEMPAE_clean_linker_10, # of connection points: 2
#     Edge 14, Type (0, 1), BuildingBlock: TEMPAE_clean_linker_10, # of connection points: 2
#     Edge 15, Type (0, 1), BuildingBlock: TEMPAE_clean_linker_10, # of connection points: 2
#     Edge 16, Type (0, 1), BuildingBlock: TEMPAE_clean_linker_10, # of connection points: 2
#     Edge 17, Type (0, 1), BuildingBlock: TEMPAE_clean_linker_10, # of connection points: 2
#     Edge 18, Type (0, 1), BuildingBlock: TEMPAE_clean_linker_10, # of connection points: 2
#     Edge 19, Type (0, 1), BuildingBlock: TEMPAE_clean_linker_10, # of connection points: 2
#     Edge 20, Type (0, 1), BuildingBlock: TEMPAE_clean_linker_10, # of connection points: 2
#     Edge 21, Type (0, 1), BuildingBlock: TEMPAE_clean_linker_10, # of connection points: 2
#     Edge 22, Type (0, 1), BuildingBlock: TEMPAE_clean_linker_10, # of connection points: 2
#     Edge 23, Type (0, 1), BuildingBlock: TEMPAE_clean_linker_10, # of connection points: 2
#     Edge 24, Type (0, 1), BuildingBlock: TEMPAE_clean_linker_10, # of connection points: 2
#     Edge 25, Type (0, 1), BuildingBlock: TEMPAE_clean_linker_10, # of connection points: 2
#     Edge 26, Type (0, 1), BuildingBlock: TEMPAE_clean_linker_10, # of connection points: 2
#     Edge 27, Type (0, 1), BuildingBlock: TEMPAE_clean_linker_10, # of connection points: 2
#     Edge 28, Type (0, 1), BuildingBlock: TEMPAE_clean_linker_10, # of connection points: 2
#     Edge 29, Type (0, 1), BuildingBlock: TEMPAE_clean_linker_10, # of connection points: 2
#     Edge 30, Type (0, 1), BuildingBlock: TEMPAE_clean_linker_10, # of connection points: 2
#     Edge 31, Type (0, 1), BuildingBlock: TEMPAE_clean_linker_10, # of connection points: 2
#     Edge 32, Type (0, 1), BuildingBlock: TEMPAE_clean_linker_10, # of connection points: 2
#     Edge 33, Type (0, 1), BuildingBlock: TEMPAE_clean_linker_10, # of connection points: 2
#     Edge 34, Type (0, 1), BuildingBlock: TEMPAE_clean_linker_10, # of connection points: 2
#     Edge 35, Type (0, 1), BuildingBlock: TEMPAE_clean_linker_10, # of connection points: 2
# Relax obj value: 0.009
# Max RMSD: 0.110
# Mean RMSD: 0.093
data_MOF--net-apo--node1-MIDCAF_clean_sbu_0--node2-QEWDON_clean_linker_0--edge1-TEMPAE_clean_linker_10
_symmetry_space_group_name_H-M    P1
_symmetry_Int_Tables_number       1
_symmetry_cell_setting            triclinic
loop_
_symmetry_equiv_pos_as_xyz
'x, y, z'
_cell_length_a     39.352089
_cell_length_b     42.928647
_cell_length_c     35.170606
_cell_angle_alpha  89.775195
_cell_angle_beta   90.064754
_cell_angle_gamma 89.996994
loop_
_atom_site_label
_atom_site_type_symbol
_atom_site_fract_x
_atom_site_fract_y
_atom_site_fract_z
_atom_type_partial_charge
H0 H 0.31915 0.36669 0.3401 0.0
C1 C 0.32826 0.3598 0.368 0.0
C2 C 0.36205 0.36605 0.37839 0.0
C3 C 0.30546 0.34703 0.39442 0.0
H4 H 0.39893 0.36388 0.4235 0.0
C5 C 0.37304 0.35845 0.41528 0.0
C6 C 0.35026 0.34652 0.44259 0.0
C7 C 0.3165 0.34048 0.43166 0.0
C8 C 0.26884 0.34648 0.38534 0.0
H9 H 0.29824 0.33253 0.45262 0.0
C10 C 0.25419 0.32216 0.36414 0.0
C11 C 0.21903 0.32236 0.35613 0.0
C12 C 0.24846 0.37123 0.39773 0.0
H13 H 0.25943 0.39021 0.41385 0.0
C14 C 0.21389 0.37187 0.38917 0.0
H15 H 0.26987 0.30285 0.35493 0.0
C16 C 0.19922 0.34764 0.36859 0.0
H17 H 0.17226 0.34863 0.36246 0.0
H18 H 0.19837 0.39114 0.39866 0.0
H19 H 0.18603 0.13026 0.84629 0.0
C20 C 0.17863 0.13805 0.87439 0.0
C21 C 0.14658 0.13006 0.88884 0.0
C22 C 0.20259 0.15341 0.89721 0.0
H23 H 0.11328 0.13337 0.93706 0.0
C24 C 0.13826 0.139 0.92602 0.0
C25 C 0.16235 0.15321 0.94997 0.0
C26 C 0.1945 0.16087 0.93508 0.0
C27 C 0.23781 0.15579 0.88322 0.0
H28 H 0.2138 0.17081 0.95338 0.0
C29 C 0.24925 0.18231 0.86336 0.0
C30 C 0.28155 0.18222 0.8461 0.0
C31 C 0.25901 0.12963 0.8864 0.0
H32 H 0.25038 0.10893 0.90126 0.0
C33 C 0.29109 0.12965 0.86964 0.0
H34 H 0.23287 0.20249 0.86056 0.0
C35 C 0.30225 0.15568 0.84936 0.0
H36 H 0.32731 0.15529 0.83663 0.0
H37 H 0.30725 0.10934 0.8721 0.0
H38 H 0.81451 0.13669 0.67467 0.0
C39 C 0.82593 0.14605 0.64901 0.0
C40 C 0.85925 0.13746 0.63908 0.0
C41 C 0.80646 0.1647 0.62437 0.0
H42 H 0.89789 0.13975 0.59597 0.0
C43 C 0.87304 0.14807 0.60455 0.0
C44 C 0.85365 0.16624 0.57919 0.0
C45 C 0.82061 0.17494 0.58981 0.0
C46 C 0.76963 0.16911 0.63092 0.0
H47 H 0.80516 0.18859 0.57037 0.0
C48 C 0.75703 0.18584 0.66236 0.0
C49 C 0.72174 0.19171 0.6659 0.0
C50 C 0.74686 0.15718 0.60395 0.0
H51 H 0.75604 0.14406 0.57977 0.0
C52 C 0.71217 0.16234 0.60751 0.0
H53 H 0.77476 0.19475 0.68322 0.0
C54 C 0.69973 0.17975 0.63773 0.0
H55 H 0.67275 0.18459 0.63806 0.0
H56 H 0.69487 0.15342 0.58622 0.0
H57 H 0.70188 0.36695 0.17633 0.0
C58 C 0.69204 0.36143 0.14834 0.0
C59 C 0.65848 0.36953 0.1388 0.0
C60 C 0.71377 0.34851 0.12097 0.0
H61 H 0.62075 0.36994 0.09458 0.0
C62 C 0.64655 0.36343 0.10192 0.0
C63 C 0.66826 0.35159 0.07364 0.0
C64 C 0.70185 0.34384 0.08366 0.0
C65 C 0.75045 0.34537 0.12935 0.0
H66 H 0.71936 0.33575 0.06206 0.0
C67 C 0.76307 0.32176 0.15355 0.0
C68 C 0.79838 0.31905 0.16001 0.0
C69 C 0.77308 0.36665 0.11269 0.0
H70 H 0.76376 0.38504 0.09423 0.0
C71 C 0.80781 0.36459 0.11992 0.0
H72 H 0.74571 0.30502 0.16604 0.0
C73 C 0.82043 0.34096 0.14327 0.0
H74 H 0.84759 0.33969 0.14812 0.0
H75 H 0.82507 0.38122 0.10712 0.0
H76 H 0.63507 0.67942 0.69217 0.0
C77 C 0.63795 0.67869 0.66152 0.0
C78 C 0.62503 0.65341 0.64111 0.0
C79 C 0.65416 0.70328 0.64252 0.0
H80 H 0.61584 0.63432 0.58603 0.0
C81 C 0.62785 0.65319 0.60135 0.0
C82 C 0.6439 0.67772 0.58141 0.0
C83 C 0.65741 0.70268 0.60268 0.0
C84 C 0.66397 0.73116 0.66425 0.0
H85 H 0.66977 0.72203 0.5885 0.0
C86 C 0.69666 0.73419 0.68004 0.0
C87 C 0.7049 0.76036 0.70244 0.0
C88 C 0.63952 0.75424 0.67084 0.0
H89 H 0.61416 0.75207 0.65908 0.0
C90 C 0.64749 0.78015 0.69286 0.0
H91 H 0.71537 0.7161 0.67523 0.0
C92 C 0.67988 0.78326 0.70854 0.0
H93 H 0.68553 0.804 0.7248 0.0
H94 H 0.62853 0.79796 0.6977 0.0
H95 H 0.86587 0.82317 0.19308 0.0
C96 C 0.86809 0.82236 0.16237 0.0
C97 C 0.88615 0.84578 0.14321 0.0
C98 C 0.85502 0.79677 0.14224 0.0
H99 H 0.90444 0.86213 0.0891 0.0
C100 C 0.89037 0.84396 0.10375 0.0
C101 C 0.87692 0.81893 0.08302 0.0
C102 C 0.85917 0.79531 0.10245 0.0
C103 C 0.84298 0.76918 0.16362 0.0
H104 H 0.85004 0.77517 0.08699 0.0
C105 C 0.81064 0.76816 0.18086 0.0
C106 C 0.80101 0.74205 0.20298 0.0
C107 C 0.86539 0.74407 0.16841 0.0
H108 H 0.8904 0.74457 0.15555 0.0
C109 C 0.85605 0.71839 0.19037 0.0
H110 H 0.79322 0.78749 0.17716 0.0
C111 C 0.82419 0.71737 0.2076 0.0
H112 H 0.81734 0.69682 0.22386 0.0
H113 H 0.87355 0.69915 0.19397 0.0
H114 H 0.14936 0.81886 0.32003 0.0
C115 C 0.14749 0.81989 0.35076 0.0
C116 C 0.13495 0.84687 0.36815 0.0
C117 C 0.15635 0.7938 0.3728 0.0
H118 H 0.12243 0.8688 0.42111 0.0
C119 C 0.13201 0.84779 0.40791 0.0
C120 C 0.13949 0.82152 0.43051 0.0
C121 C 0.15196 0.79455 0.41255 0.0
C122 C 0.16619 0.76455 0.35369 0.0
H123 H 0.15709 0.77375 0.42914 0.0
C124 C 0.19741 0.76185 0.33439 0.0
C125 C 0.20585 0.734 0.31535 0.0
C126 C 0.14343 0.73942 0.35378 0.0
H127 H 0.11925 0.74118 0.36834 0.0
C128 C 0.15142 0.71205 0.33456 0.0
H129 H 0.21508 0.78121 0.33445 0.0
C130 C 0.18233 0.7093 0.31549 0.0
H131 H 0.18825 0.68743 0.30173 0.0
H132 H 0.13368 0.69278 0.3347 0.0
H133 H 0.36028 0.68129 0.82828 0.0
C134 C 0.36135 0.67939 0.85901 0.0
C135 C 0.37368 0.65205 0.87597 0.0
C136 C 0.3518 0.70478 0.88167 0.0
H137 H 0.38535 0.62857 0.9283 0.0
C138 C 0.37593 0.64998 0.91568 0.0
C139 C 0.36798 0.67561 0.93891 0.0
C140 C 0.35554 0.70295 0.92147 0.0
C141 C 0.34229 0.73461 0.86349 0.0
H142 H 0.35011 0.72333 0.93851 0.0
C143 C 0.30985 0.73916 0.84738 0.0
C144 C 0.30112 0.76819 0.83105 0.0
C145 C 0.36615 0.75885 0.86244 0.0
H146 H 0.39124 0.75566 0.87459 0.0
C147 C 0.35795 0.78727 0.84548 0.0
H148 H 0.29122 0.7206 0.84874 0.0
C149 C 0.32571 0.79199 0.82997 0.0
H150 H 0.31993 0.81437 0.81718 0.0
H151 H 0.37658 0.80581 0.84457 0.0
Zn152 Zn 0.03925 0.10417 0.3232 0.0
Zn153 Zn 0.97529 0.11497 0.1963 0.0
Zn154 Zn 0.00731 0.11261 0.25971 0.0
C155 C 0.03641 0.14674 0.1845 0.0
C156 C 0.98111 0.0527 0.20905 0.0
O157 O 0.97416 0.13266 0.3049 0.0
O158 O 1.00281 0.11922 0.3566 0.0
C159 C 0.07982 0.14412 0.28029 0.0
O160 O 0.04104 0.13847 0.21943 0.0
O161 O 0.00896 0.1399 0.1679 0.0
O162 O 0.97041 0.07073 0.18332 0.0
O163 O 0.99564 0.06414 0.23889 0.0
O164 O 0.07848 0.13125 0.31258 0.0
O165 O 0.05584 0.13952 0.25588 0.0
O166 O 0.01794 0.0617 0.26968 0.0
O167 O 0.04705 0.05927 0.32352 0.0
C168 C 0.03408 0.04584 0.29526 0.0
O169 O 0.95913 0.13966 0.26937 0.0
O170 O 0.93396 0.13634 0.21329 0.0
C171 C 0.9769 0.1313 0.34141 0.0
C172 C 0.93385 0.1459 0.24713 0.0
Zn173 Zn 0.52973 0.39566 0.69442 0.0
Zn174 Zn 0.4714 0.38863 0.8244 0.0
Zn175 Zn 0.5034 0.38945 0.75974 0.0
C176 C 0.47493 0.45044 0.80634 0.0
C177 C 0.43276 0.35221 0.77689 0.0
O178 O 0.55371 0.36489 0.76369 0.0
O179 O 0.57279 0.37476 0.70599 0.0
C180 C 0.52028 0.45531 0.71525 0.0
O181 O 0.49008 0.43809 0.77753 0.0
O182 O 0.46403 0.43341 0.83294 0.0
O183 O 0.43223 0.36256 0.81037 0.0
O184 O 0.45704 0.3598 0.75402 0.0
O185 O 0.53009 0.44093 0.68612 0.0
O186 O 0.50985 0.44003 0.74472 0.0
O187 O 0.47008 0.36463 0.71739 0.0
O188 O 0.49817 0.37117 0.66362 0.0
C189 C 0.47305 0.36011 0.68127 0.0
O190 O 0.53988 0.36821 0.80119 0.0
O191 O 0.50832 0.36843 0.85322 0.0
C192 C 0.57674 0.36167 0.73787 0.0
C193 C 0.5361 0.36232 0.83697 0.0
Zn194 Zn 0.02952 0.88272 0.81425 0.0
Zn195 Zn 0.97762 0.88092 0.68757 0.0
Zn196 Zn 1.00393 0.88135 0.75402 0.0
C197 C 0.98095 0.9431 0.70588 0.0
C198 C 0.93086 0.85166 0.73544 0.0
O199 O 0.05241 0.85385 0.75213 0.0
O200 O 0.05496 0.84296 0.81323 0.0
C201 C 0.0418 0.94022 0.78712 0.0
O202 O 0.9929 0.93069 0.73665 0.0
O203 O 0.97412 0.92616 0.67765 0.0
O204 O 0.93475 0.86022 0.70137 0.0
O205 O 0.95436 0.85679 0.76018 0.0
O206 O 0.05706 0.92103 0.80829 0.0
O207 O 0.0164 0.93093 0.76697 0.0
O208 O 0.96805 0.86055 0.79712 0.0
O209 O 0.98884 0.88474 0.84711 0.0
C210 C 0.9657 0.86842 0.83242 0.0
O211 O 0.04012 0.85695 0.7144 0.0
O212 O 0.01189 0.85666 0.65996 0.0
C213 C 0.06597 0.83861 0.78001 0.0
C214 C 0.038 0.8496 0.6789 0.0
Zn215 Zn 0.53327 0.61851 0.19635 0.0
Zn216 Zn 0.47676 0.61077 0.32405 0.0
Zn217 Zn 0.50604 0.61544 0.26206 0.0
C218 C 0.53248 0.64668 0.34069 0.0
C219 C 0.48821 0.55043 0.3067 0.0
O220 O 0.47022 0.63913 0.22093 0.0
O221 O 0.50008 0.6436 0.16796 0.0
C222 C 0.57854 0.64795 0.24527 0.0
O223 O 0.5387 0.64047 0.30544 0.0
O224 O 0.50512 0.63736 0.3554 0.0
O225 O 0.47894 0.5662 0.33497 0.0
O226 O 0.49886 0.56455 0.27646 0.0
O227 O 0.5756 0.6391 0.2113 0.0
O228 O 0.55467 0.64228 0.26952 0.0
O229 O 0.51949 0.56709 0.24367 0.0
O230 O 0.53743 0.57371 0.18473 0.0
C231 C 0.53137 0.55577 0.21241 0.0
O232 O 0.45433 0.63773 0.25629 0.0
O233 O 0.43144 0.6265 0.31191 0.0
C234 C 0.47304 0.64851 0.18611 0.0
C235 C 0.42875 0.63843 0.27927 0.0
C236 C 0.09556 0.86859 0.31875 0.0
C237 C 0.12175 0.8733 0.34523 0.0
C238 C 0.07847 0.89401 0.30209 0.0
C239 C 0.08817 0.92471 0.31188 0.0
C240 C 0.11622 0.92942 0.33655 0.0
C241 C 0.13245 0.90367 0.35317 0.0
C242 C 0.04881 0.88806 0.27587 0.0
C243 C 0.12782 0.96175 0.34732 0.0
C244 C 0.06078 1.00005 0.26418 0.0
C245 C 0.03923 0.01205 0.29215 0.0
C246 C 0.07493 0.9701 0.26824 0.0
C247 C 0.06682 0.95196 0.30077 0.0
C248 C 0.04195 0.96283 0.32661 0.0
C249 C 0.02889 0.99298 0.3223 0.0
C250 C 0.10115 0.95944 0.23991 0.0
C251 C 0.03165 0.94393 0.36102 0.0
H252 H 0.08714 0.84506 0.31279 0.0
H253 H 0.15282 0.90726 0.37348 0.0
H254 H 0.02493 0.8959 0.28959 0.0
H255 H 0.05173 0.9017 0.24924 0.0
H256 H 0.04624 0.86302 0.26856 0.0
H257 H 0.15212 0.96143 0.36343 0.0
H258 H 0.13119 0.97636 0.32151 0.0
H259 H 0.10817 0.97302 0.36521 0.0
H260 H 0.06895 0.01503 0.24104 0.0
H261 H 0.01215 0.00242 0.34386 0.0
H262 H 0.09918 0.93405 0.23467 0.0
H263 H 0.12689 0.96411 0.25148 0.0
H264 H 0.09862 0.97204 0.2124 0.0
H265 H 0.02694 0.91932 0.35311 0.0
H266 H 0.00842 0.95338 0.37471 0.0
H267 H 0.05258 0.94417 0.3822 0.0
C268 C 0.42072 0.62931 0.83785 0.0
C269 C 0.3879 0.62652 0.85287 0.0
C270 C 0.43778 0.60323 0.82317 0.0
C271 C 0.42144 0.57383 0.82343 0.0
C272 C 0.38725 0.57159 0.83591 0.0
C273 C 0.37103 0.59792 0.85098 0.0
C274 C 0.4742 0.60675 0.8105 0.0
C275 C 0.36861 0.54086 0.83595 0.0
C276 C 0.45619 0.50067 0.77644 0.0
C277 C 0.46806 0.48422 0.80828 0.0
C278 C 0.44276 0.53091 0.78027 0.0
C279 C 0.44124 0.54474 0.81677 0.0
C280 C 0.45574 0.52905 0.84834 0.0
C281 C 0.46869 0.49891 0.84374 0.0
C282 C 0.42816 0.54704 0.74577 0.0
C283 C 0.45571 0.54327 0.88756 0.0
H284 H 0.43383 0.65147 0.83981 0.0
H285 H 0.34571 0.59587 0.86285 0.0
H286 H 0.49129 0.59998 0.83425 0.0
H287 H 0.47996 0.59135 0.7861 0.0
H288 H 0.48007 0.6312 0.80239 0.0
H289 H 0.34101 0.5438 0.84152 0.0
H290 H 0.37187 0.52892 0.80827 0.0
H291 H 0.37939 0.52547 0.85834 0.0
H292 H 0.45529 0.4892 0.74907 0.0
H293 H 0.47812 0.48625 0.86834 0.0
H294 H 0.43539 0.57202 0.74526 0.0
H295 H 0.40001 0.54585 0.74693 0.0
H296 H 0.43679 0.53602 0.71892 0.0
H297 H 0.46585 0.56737 0.88648 0.0
H298 H 0.47111 0.52953 0.90813 0.0
H299 H 0.42927 0.54457 0.89836 0.0
C300 C 0.57924 0.633 0.68416 0.0
C301 C 0.60745 0.62743 0.6608 0.0
C302 C 0.56041 0.60812 0.6996 0.0
C303 C 0.57069 0.57709 0.69226 0.0
C304 C 0.6002 0.57156 0.67017 0.0
C305 C 0.61794 0.59677 0.65439 0.0
C306 C 0.52922 0.61504 0.72302 0.0
C307 C 0.6124 0.5389 0.66198 0.0
C308 C 0.54332 0.50377 0.74414 0.0
C309 C 0.52408 0.48943 0.71564 0.0
C310 C 0.55642 0.53395 0.73866 0.0
C311 C 0.54943 0.55004 0.70425 0.0
C312 C 0.52639 0.53699 0.67777 0.0
C313 C 0.51444 0.50659 0.6835 0.0
C314 C 0.5806 0.54707 0.76777 0.0
C315 C 0.51698 0.55388 0.64153 0.0
H316 H 0.57116 0.65679 0.68909 0.0
H317 H 0.63993 0.59254 0.63658 0.0
H318 H 0.50744 0.6005 0.71373 0.0
H319 H 0.53445 0.60928 0.75321 0.0
H320 H 0.52176 0.63996 0.72126 0.0
H321 H 0.63735 0.53869 0.64724 0.0
H322 H 0.61475 0.52539 0.68881 0.0
H323 H 0.59359 0.52677 0.64375 0.0
H324 H 0.55075 0.49039 0.76901 0.0
H325 H 0.49922 0.49551 0.66167 0.0
H326 H 0.57605 0.57229 0.77203 0.0
H327 H 0.60706 0.54429 0.75742 0.0
H328 H 0.5783 0.53489 0.79558 0.0
H329 H 0.51118 0.5787 0.64738 0.0
H330 H 0.49467 0.54311 0.62734 0.0
H331 H 0.53878 0.55322 0.62156 0.0
C332 C 0.88268 0.89703 0.17592 0.0
C333 C 0.90225 0.87174 0.16397 0.0
C334 C 0.89828 0.92441 0.18906 0.0
C335 C 0.93426 0.92625 0.19057 0.0
C336 C 0.95395 0.89974 0.18126 0.0
C337 C 0.93769 0.87291 0.16753 0.0
C338 C 0.87631 0.95215 0.19847 0.0
C339 C 0.99226 0.90033 0.18309 0.0
C340 C 0.96896 0.00662 0.16861 0.0
C341 C 0.97452 0.01886 0.205 0.0
C342 C 0.95707 0.97615 0.16365 0.0
C343 C 0.95094 0.95713 0.19588 0.0
C344 C 0.95851 0.96862 0.23265 0.0
C345 C 0.96972 0.99958 0.23683 0.0
C346 C 0.94955 0.96487 0.12387 0.0
C347 C 0.95359 0.94861 0.26757 0.0
H348 H 0.85528 0.89604 0.17287 0.0
H349 H 0.95275 0.85322 0.15817 0.0
H350 H 0.88398 0.96229 0.22614 0.0
H351 H 0.8798 0.97044 0.17643 0.0
H352 H 0.84892 0.94599 0.19976 0.0
H353 H 1.00291 0.87647 0.186 0.0
H354 H 1.00234 0.91071 0.15646 0.0
H355 H 1.00138 0.91471 0.20717 0.0
H356 H 0.97274 0.02134 0.14385 0.0
H357 H 0.97299 0.00909 0.26504 0.0
H358 H 0.92201 0.9598 0.12102 0.0
H359 H 0.96348 0.94291 0.11824 0.0
H360 H 0.95672 0.98223 0.10178 0.0
H361 H 0.92618 0.94347 0.27141 0.0
H362 H 0.96326 0.96004 0.29371 0.0
H363 H 0.96687 0.926 0.26404 0.0
C364 C 0.91117 0.11769 0.6729 0.0
C365 C 0.87765 0.11295 0.66064 0.0
C366 C 0.93078 0.0928 0.68708 0.0
C367 C 0.91687 0.06237 0.68762 0.0
C368 C 0.88248 0.05784 0.67688 0.0
C369 C 0.8632 0.08327 0.66395 0.0
C370 C 0.96689 0.09879 0.69955 0.0
C371 C 0.86675 0.02575 0.67626 0.0
C372 C 0.97206 0.99179 0.6687 0.0
C373 C 0.97132 0.97637 0.70388 0.0
C374 C 0.956 0.02068 0.66362 0.0
C375 C 0.93901 0.03472 0.69465 0.0
C376 C 0.94014 0.02024 0.7309 0.0
C377 C 0.95581 0.99094 0.73493 0.0
C378 C 0.9551 0.03499 0.62432 0.0
C379 C 0.92295 0.0347 0.76485 0.0
H380 H 0.92234 0.14069 0.67027 0.0
H381 H 0.83745 0.07952 0.65397 0.0
H382 H 0.9725 0.08624 0.72648 0.0
H383 H 0.98469 0.08994 0.67768 0.0
H384 H 0.97191 0.12402 0.70366 0.0
H385 H 0.83914 0.02647 0.66968 0.0
H386 H 0.87959 0.01135 0.65442 0.0
H387 H 0.87032 0.01393 0.70406 0.0
H388 H 0.98375 0.98044 0.64453 0.0
H389 H 0.95397 0.97857 0.76176 0.0
H390 H 0.96377 0.05954 0.62527 0.0
H391 H 0.92858 0.03505 0.61352 0.0
H392 H 0.97126 0.02211 0.60381 0.0
H393 H 0.9286 0.05999 0.76629 0.0
H394 H 0.93105 0.0235 0.79192 0.0
H395 H 0.89502 0.03211 0.76212 0.0
C396 C 0.65177 0.41781 0.17705 0.0
C397 C 0.63785 0.38976 0.16404 0.0
C398 C 0.63099 0.44128 0.1921 0.0
C399 C 0.59545 0.43639 0.19475 0.0
C400 C 0.5818 0.40686 0.18548 0.0
C401 C 0.60309 0.384 0.16967 0.0
C402 C 0.64672 0.47238 0.20162 0.0
C403 C 0.54433 0.40021 0.18955 0.0
C404 C 0.54996 0.50463 0.24097 0.0
C405 C 0.54123 0.52253 0.20895 0.0
C406 C 0.56487 0.47501 0.23701 0.0
C407 C 0.57264 0.46376 0.20021 0.0
C408 C 0.5622 0.48104 0.16785 0.0
C409 C 0.54631 0.50995 0.17267 0.0
C410 C 0.57406 0.4568 0.2723 0.0
C411 C 0.57001 0.47014 0.12799 0.0
H412 H 0.67854 0.4225 0.17252 0.0
H413 H 0.59229 0.36219 0.15997 0.0
H414 H 0.63831 0.49006 0.1805 0.0
H415 H 0.63818 0.48029 0.23002 0.0
H416 H 0.67493 0.4715 0.20145 0.0
H417 H 0.53904 0.37479 0.18955 0.0
H418 H 0.53421 0.41045 0.21617 0.0
H419 H 0.53036 0.41094 0.16542 0.0
H420 H 0.54674 0.51431 0.26912 0.0
H421 H 0.53943 0.5235 0.14775 0.0
H422 H 0.60084 0.46176 0.28008 0.0
H423 H 0.57163 0.43135 0.26759 0.0
H424 H 0.55771 0.46349 0.29669 0.0
H425 H 0.59795 0.46951 0.12372 0.0
H426 H 0.55872 0.48557 0.10591 0.0
H427 H 0.56028 0.44618 0.12364 0.0
C428 C 0.41797 0.3783 0.34698 0.0
C429 C 0.3839 0.38602 0.35398 0.0
C430 C 0.44032 0.4001 0.33048 0.0
C431 C 0.42857 0.43061 0.32235 0.0
C432 C 0.39361 0.43764 0.32688 0.0
C433 C 0.37169 0.41516 0.34225 0.0
C434 C 0.47692 0.39105 0.32417 0.0
C435 C 0.37985 0.46987 0.31889 0.0
C436 C 0.48063 0.50194 0.34416 0.0
C437 C 0.48255 0.51633 0.30837 0.0
C438 C 0.4656 0.47262 0.34869 0.0
C439 C 0.45299 0.45675 0.31639 0.0
C440 C 0.45886 0.46936 0.27965 0.0
C441 C 0.47294 0.49941 0.27607 0.0
C442 C 0.46008 0.46025 0.38851 0.0
C443 C 0.44792 0.45236 0.24428 0.0
H444 H 0.42742 0.35565 0.3557 0.0
H445 H 0.34544 0.42129 0.34787 0.0
H446 H 0.48762 0.403 0.29882 0.0
H447 H 0.49227 0.39793 0.34924 0.0
H448 H 0.47957 0.36547 0.32051 0.0
H449 H 0.35174 0.47096 0.32153 0.0
H450 H 0.39113 0.48668 0.33923 0.0
H451 H 0.38697 0.47751 0.28984 0.0
H452 H 0.48853 0.51472 0.3692 0.0
H453 H 0.47427 0.51033 0.24828 0.0
H454 H 0.46924 0.43591 0.39088 0.0
H455 H 0.43249 0.4602 0.39507 0.0
H456 H 0.47332 0.47446 0.41031 0.0
H457 H 0.44994 0.42674 0.24806 0.0
H458 H 0.46354 0.45949 0.21942 0.0
H459 H 0.42103 0.45808 0.23789 0.0
C460 C 0.11997 0.11021 0.82821 0.0
C461 C 0.12428 0.108 0.86778 0.0
C462 C 0.1027 0.08681 0.80794 0.0
C463 C 0.08988 0.06053 0.82769 0.0
C464 C 0.0926 0.05908 0.8678 0.0
C465 C 0.10976 0.08272 0.88725 0.0
C466 C 0.09953 0.08953 0.76531 0.0
C467 C 0.07925 0.03152 0.89012 0.0
C468 C 0.03051 0.99745 0.79249 0.0
C469 C 0.05342 0.97289 0.7874 0.0
C470 C 0.04216 0.02747 0.80174 0.0
C471 C 0.07745 0.0326 0.8069 0.0
C472 C 0.10071 0.00838 0.79867 0.0
C473 C 0.08837 0.97884 0.78906 0.0
C474 C 0.01646 0.05273 0.8094 0.0
C475 C 0.13855 0.01272 0.80362 0.0
H476 H 0.13079 0.12984 0.813 0.0
H477 H 0.11338 0.08043 0.91769 0.0
H478 H 0.11692 0.07263 0.75159 0.0
H479 H 0.0733 0.08373 0.75608 0.0
H480 H 0.10601 0.11327 0.75495 0.0
H481 H 0.08125 0.03502 0.92132 0.0
H482 H 0.05223 0.02717 0.88288 0.0
H483 H 0.09383 0.01031 0.88252 0.0
H484 H 1.00357 0.99272 0.7925 0.0
H485 H 0.10612 0.95981 0.78506 0.0
H486 H 0.02653 0.07608 0.80185 0.0
H487 H 0.01012 0.05273 0.84013 0.0
H488 H 0.99265 0.04867 0.7932 0.0
H489 H 0.14705 0.03471 0.79 0.0
H490 H 0.15328 0.9931 0.79136 0.0
H491 H 0.14463 0.01429 0.83438 0.0
C492 C 0.13734 0.13243 0.01011 0.0
C493 C 0.15436 0.15665 0.9912 0.0
C494 C 0.12501 0.1361 0.04712 0.0
C495 C 0.13057 0.16453 0.0665 0.0
C496 C 0.15053 0.18806 0.04899 0.0
C497 C 0.16198 0.18397 0.01132 0.0
C498 C 0.104 0.11018 0.06439 0.0
C499 C 0.15838 0.2182 0.06904 0.0
C500 C 0.05435 0.17756 0.12831 0.0
C501 C 0.06365 0.16096 0.16113 0.0
C502 C 0.07745 0.18231 0.09861 0.0
C503 C 0.11091 0.17053 0.10201 0.0
C504 C 0.12181 0.15799 0.13736 0.0
C505 C 0.09788 0.15301 0.16656 0.0
C506 C 0.06467 0.19638 0.06185 0.0
C507 C 0.15783 0.14699 0.14306 0.0
H508 H 0.13256 0.11073 0.99535 0.0
H509 H 0.1756 0.20264 0.99718 0.0
H510 H 0.11452 0.10331 0.09245 0.0
H511 H 0.07759 0.11841 0.06902 0.0
H512 H 0.10307 0.08919 0.04605 0.0
H513 H 0.18271 0.22828 0.05877 0.0
H514 H 0.13797 0.23532 0.06289 0.0
H515 H 0.15989 0.21494 0.10032 0.0
H516 H 0.02806 0.18446 0.12438 0.0
H517 H 0.1054 0.1405 0.19204 0.0
H518 H 0.06241 0.17784 0.04006 0.0
H519 H 0.08282 0.21401 0.05097 0.0
H520 H 0.03941 0.20759 0.06525 0.0
H521 H 0.16048 0.12303 0.13176 0.0
H522 H 0.16472 0.1465 0.17371 0.0
H523 H 0.17603 0.1622 0.12762 0.0
C524 C 0.35164 0.3183 0.50593 0.0
C525 C 0.36099 0.34391 0.48323 0.0
C526 C 0.36322 0.31549 0.54377 0.0
C527 C 0.38486 0.33867 0.55908 0.0
C528 C 0.39301 0.36521 0.53678 0.0
C529 C 0.38083 0.36755 0.49943 0.0
C530 C 0.35338 0.28712 0.56668 0.0
C531 C 0.41581 0.3907 0.55181 0.0
C532 C 0.41262 0.35418 0.66041 0.0
C533 C 0.4466 0.34465 0.65826 0.0
C534 C 0.39028 0.34901 0.62969 0.0
C535 C 0.40251 0.33423 0.59635 0.0
C536 C 0.43544 0.32098 0.59653 0.0
C537 C 0.45706 0.3264 0.62747 0.0
C538 C 0.35491 0.3624 0.63138 0.0
C539 C 0.44952 0.30452 0.5621 0.0
H540 H 0.33608 0.30002 0.4938 0.0
H541 H 0.3872 0.38797 0.48266 0.0
H542 H 0.37459 0.27011 0.56636 0.0
H543 H 0.3484 0.2933 0.59677 0.0
H544 H 0.33048 0.27556 0.55478 0.0
H545 H 0.41841 0.41043 0.53149 0.0
H546 H 0.40564 0.39981 0.57898 0.0
H547 H 0.4415 0.38113 0.55766 0.0
H548 H 0.40444 0.36832 0.68418 0.0
H549 H 0.4833 0.31875 0.626 0.0
H550 H 0.3365 0.3473 0.61622 0.0
H551 H 0.35473 0.38559 0.61732 0.0
H552 H 0.34635 0.36541 0.66125 0.0
H553 H 0.4306 0.28806 0.55027 0.0
H554 H 0.47317 0.29148 0.56884 0.0
H555 H 0.4554 0.32197 0.53967 0.0
C556 C 0.66542 0.32568 1.00907 0.0
C557 C 0.65646 0.35036 0.03322 0.0
C558 C 0.65253 0.32393 0.9717 0.0
C559 C 0.62962 0.34705 0.95848 0.0
C560 C 0.62181 0.37269 0.98213 0.0
C561 C 0.63565 0.37422 0.01879 0.0
C562 C 0.66238 0.29672 0.94704 0.0
C563 C 0.59748 0.39793 0.96944 0.0
C564 C 0.59688 0.36337 0.85884 0.0
C565 C 0.56407 0.35085 0.86147 0.0
C566 C 0.6204 0.35931 0.88872 0.0
C567 C 0.61039 0.34317 0.92217 0.0
C568 C 0.57845 0.32804 0.92313 0.0
C569 C 0.55583 0.33194 0.89271 0.0
C570 C 0.6548 0.37458 0.88577 0.0
C571 C 0.56655 0.31054 0.958 0.0
H572 H 0.6817 0.30722 0.01968 0.0
H573 H 0.62966 0.39409 0.03647 0.0
H574 H 0.64184 0.27904 0.94765 0.0
H575 H 0.66589 0.30413 0.91703 0.0
H576 H 0.68615 0.28547 0.95723 0.0
H577 H 0.59484 0.41675 0.99083 0.0
H578 H 0.60626 0.40846 0.94234 0.0
H579 H 0.572 0.38772 0.96422 0.0
H580 H 0.60337 0.37804 0.83476 0.0
H581 H 0.53053 0.32204 0.89468 0.0
H582 H 0.6747 0.35984 0.89915 0.0
H583 H 0.65432 0.39716 0.901 0.0
H584 H 0.66185 0.37916 0.85568 0.0
H585 H 0.5864 0.29414 0.96804 0.0
H586 H 0.54284 0.29721 0.9526 0.0
H587 H 0.56164 0.32732 0.98129 0.0
C588 C 0.90057 0.17873 0.53319 0.0
C589 C 0.86621 0.17194 0.53976 0.0
C590 C 0.91421 0.17785 0.49633 0.0
C591 C 0.89297 0.17009 0.46519 0.0
C592 C 0.85767 0.16625 0.47117 0.0
C593 C 0.84473 0.16701 0.50838 0.0
C594 C 0.95195 0.18251 0.49122 0.0
C595 C 0.83401 0.15861 0.43872 0.0
C596 C 0.9372 0.17122 0.36864 0.0
C597 C 0.94913 0.14053 0.36703 0.0
C598 C 0.91679 0.18106 0.39928 0.0
C599 C 0.90875 0.1597 0.42886 0.0
C600 C 0.91892 0.12818 0.42563 0.0
C601 C 0.93896 0.11908 0.39483 0.0
C602 C 0.90591 0.21469 0.40114 0.0
C603 C 0.91075 0.10441 0.45611 0.0
H604 H 0.91719 0.18325 0.55714 0.0
H605 H 0.81814 0.16162 0.51297 0.0
H606 H 0.96411 0.15976 0.48503 0.0
H607 H 0.95703 0.1982 0.46676 0.0
H608 H 0.96409 0.19243 0.51701 0.0
H609 H 0.80702 0.16279 0.44638 0.0
H610 H 0.84033 0.17263 0.41312 0.0
H611 H 0.83691 0.13368 0.43114 0.0
H612 H 0.94561 0.18793 0.34752 0.0
H613 H 0.94828 0.09532 0.39345 0.0
H614 H 0.92367 0.22763 0.41982 0.0
H615 H 0.88003 0.21692 0.41332 0.0
H616 H 0.90629 0.22584 0.37256 0.0
H617 H 0.92403 0.11067 0.48287 0.0
H618 H 0.91859 0.08048 0.44797 0.0
H619 H 0.8831 0.10424 0.46212 0.0
C620 C 0.91712 0.81987 0.02838 0.0
C621 C 0.88365 0.81725 0.04149 0.0
C622 C 0.92422 0.82349 0.98956 0.0
C623 C 0.89713 0.82483 0.96299 0.0
C624 C 0.86335 0.82011 0.9758 0.0
C625 C 0.85699 0.81629 0.01502 0.0
C626 C 0.9607 0.82798 0.97737 0.0
C627 C 0.83375 0.82115 0.94854 0.0
C628 C 0.9243 0.87845 0.88364 0.0
C629 C 0.9382 0.8574 0.85763 0.0
C630 C 0.90724 0.86801 0.91624 0.0
C631 C 0.90447 0.83561 0.92335 0.0
C632 C 0.91513 0.81429 0.895 0.0
C633 C 0.93193 0.82549 0.86228 0.0
C634 C 0.89564 0.89171 0.94506 0.0
C635 C 0.91202 0.77962 0.90093 0.0
H636 H 0.93778 0.82024 0.04881 0.0
H637 H 0.83106 0.81428 0.02513 0.0
H638 H 0.96684 0.81241 0.95325 0.0
H639 H 0.96446 0.85233 0.96752 0.0
H640 H 0.97891 0.82325 1.00086 0.0
H641 H 0.81069 0.81022 0.96099 0.0
H642 H 0.82773 0.84578 0.94164 0.0
H643 H 0.84002 0.80924 0.9215 0.0
H644 H 0.92908 0.90317 0.87994 0.0
H645 H 0.94292 0.80914 0.84235 0.0
H646 H 0.91346 0.8917 0.96955 0.0
H647 H 0.87005 0.88572 0.95606 0.0
H648 H 0.89482 0.91562 0.9329 0.0
H649 H 0.93295 0.77153 0.91971 0.0
H650 H 0.91377 0.76681 0.87361 0.0
H651 H 0.88765 0.77363 0.915 0.0
C652 C 0.64209 0.6499 0.51838 0.0
C653 C 0.6433 0.67806 0.53865 0.0
C654 C 0.63212 0.64914 0.48006 0.0
C655 C 0.62519 0.67738 0.46061 0.0
C656 C 0.63223 0.70597 0.47892 0.0
C657 C 0.64018 0.70609 0.51799 0.0
C658 C 0.62581 0.61794 0.46164 0.0
C659 C 0.62877 0.73659 0.45812 0.0
C660 C 0.59246 0.66099 0.36038 0.0
C661 C 0.55728 0.6619 0.36658 0.0
C662 C 0.61544 0.66919 0.38955 0.0
C663 C 0.60282 0.67672 0.42624 0.0
C664 C 0.56728 0.67949 0.43165 0.0
C665 C 0.54523 0.67304 0.40153 0.0
C666 C 0.65297 0.66817 0.38115 0.0
C667 C 0.55209 0.68665 0.47017 0.0
H668 H 0.64675 0.62809 0.53306 0.0
H669 H 0.64178 0.72824 0.53246 0.0
H670 H 0.59858 0.61581 0.45374 0.0
H671 H 0.64095 0.61601 0.43522 0.0
H672 H 0.63255 0.59813 0.48061 0.0
H673 H 0.64595 0.75443 0.47046 0.0
H674 H 0.63464 0.73398 0.42741 0.0
H675 H 0.60236 0.7453 0.46077 0.0
H676 H 0.60215 0.65222 0.33372 0.0
H677 H 0.51808 0.67452 0.40641 0.0
H678 H 0.66172 0.64361 0.38119 0.0
H679 H 0.66813 0.6815 0.40215 0.0
H680 H 0.65797 0.67771 0.35228 0.0
H681 H 0.56139 0.66967 0.49169 0.0
H682 H 0.52387 0.68582 0.46996 0.0
H683 H 0.55992 0.71018 0.47952 0.0
C684 C 0.40507 0.65889 0.99338 0.0
C685 C 0.37581 0.67449 0.98059 0.0
C686 C 0.41361 0.65761 0.03202 0.0
C687 C 0.39294 0.67299 0.05904 0.0
C688 C 0.36334 0.68885 0.04662 0.0
C689 C 0.35506 0.68935 1.00756 0.0
C690 C 0.4454 0.64025 0.04377 0.0
C691 C 0.34091 0.7059 0.0744 0.0
C692 C 0.41608 0.64273 0.15671 0.0
C693 C 0.44422 0.66159 0.16457 0.0
C694 C 0.39598 0.64827 0.12422 0.0
C695 C 0.40414 0.67348 0.09966 0.0
C696 C 0.42939 0.69509 0.1109 0.0
C697 C 0.44948 0.68861 0.14295 0.0
C698 C 0.36912 0.62478 0.1137 0.0
C699 C 0.43826 0.72287 0.08645 0.0
H700 H 0.42197 0.64812 0.973 0.0
H701 H 0.33232 0.70136 0.99817 0.0
H702 H 0.46422 0.65682 0.05565 0.0
H703 H 0.43938 0.62297 0.06632 0.0
H704 H 0.45741 0.62781 0.01962 0.0
H705 H 0.31666 0.7136 0.06117 0.0
H706 H 0.33509 0.69096 0.09936 0.0
H707 H 0.3545 0.72675 0.08511 0.0
H708 H 0.41215 0.6217 0.17332 0.0
H709 H 0.47129 0.70321 0.14911 0.0
H710 H 0.37984 0.60821 0.09274 0.0
H711 H 0.34683 0.63626 0.10034 0.0
H712 H 0.36048 0.61127 0.13891 0.0
H713 H 0.45413 0.71513 0.06219 0.0
H714 H 0.4528 0.7406 0.10267 0.0
H715 H 0.41503 0.7339 0.07464 0.0
C716 C 0.15258 0.80704 0.49902 0.0
C717 C 0.13149 0.8218 0.47213 0.0
C718 C 0.1446 0.80743 0.53815 0.0
C719 C 0.11496 0.82305 0.55069 0.0
C720 C 0.09374 0.83802 0.52366 0.0
C721 C 0.10202 0.8369 0.48496 0.0
C722 C 0.16761 0.79085 0.56597 0.0
C723 C 0.06185 0.85507 0.53551 0.0
C724 C 0.06094 0.80856 0.6372 0.0
C725 C 0.06657 0.83601 0.65763 0.0
C726 C 0.08004 0.80171 0.60457 0.0
C727 C 0.10471 0.8233 0.59162 0.0
C728 C 0.11325 0.84908 0.61487 0.0
C729 C 0.09403 0.8551 0.64776 0.0
C730 C 0.07063 0.77347 0.58142 0.0
C731 C 0.1395 0.87262 0.60253 0.0
H732 H 0.17545 0.79538 0.48955 0.0
H733 H 0.08492 0.84759 0.46457 0.0
H734 H 0.17511 0.80677 0.58929 0.0
H735 H 0.15376 0.77106 0.57915 0.0
H736 H 0.19093 0.78174 0.55216 0.0
H737 H 0.049 0.86673 0.51118 0.0
H738 H 0.04369 0.83847 0.54866 0.0
H739 H 0.06805 0.87296 0.55712 0.0
H740 H 0.03946 0.79393 0.64464 0.0
H741 H 0.09807 0.8766 0.66323 0.0
H742 H 0.09354 0.76246 0.56899 0.0
H743 H 0.05383 0.7807 0.5576 0.0
H744 H 0.05687 0.75588 0.59881 0.0
H745 H 0.16156 0.8611 0.58893 0.0
H746 H 0.14867 0.88673 0.62689 0.0
H747 H 0.12799 0.88863 0.58128 0.0
C748 C 0.21547 0.28303 0.30311 0.0
C749 C 0.20221 0.2958 0.33665 0.0
C750 C 0.19884 0.25827 0.28456 0.0
C751 C 0.16864 0.24575 0.30035 0.0
C752 C 0.15522 0.25871 0.33415 0.0
C753 C 0.17209 0.28351 0.35174 0.0
C754 C 0.21367 0.24533 0.24838 0.0
C755 C 0.12334 0.24592 0.35238 0.0
C756 C 0.10108 0.19519 0.2551 0.0
C757 C 0.10743 0.16689 0.27375 0.0
C758 C 0.12317 0.2207 0.25991 0.0
C759 C 0.15199 0.21761 0.28394 0.0
C760 C 0.16053 0.18794 0.29876 0.0
C761 C 0.13816 0.16296 0.29343 0.0
C762 C 0.11361 0.25169 0.24267 0.0
C763 C 0.19107 0.1833 0.32421 0.0
H764 H 0.23859 0.29266 0.29116 0.0
H765 H 0.16196 0.29302 0.3779 0.0
H766 H 0.22243 0.22109 0.25326 0.0
H767 H 0.19396 0.24451 0.22582 0.0
H768 H 0.2355 0.25937 0.23796 0.0
H769 H 0.11576 0.25921 0.37805 0.0
H770 H 0.10199 0.24652 0.33177 0.0
H771 H 0.12736 0.22124 0.36074 0.0
H772 H 0.07743 0.19832 0.23971 0.0
H773 H 0.1434 0.14091 0.3074 0.0
H774 H 0.13648 0.26464 0.23316 0.0
H775 H 0.10058 0.26603 0.26443 0.0
H776 H 0.0961 0.24883 0.21813 0.0
H777 H 0.19746 0.15826 0.32781 0.0
H778 H 0.18556 0.19315 0.35269 0.0
H779 H 0.2136 0.19564 0.31273 0.0
C780 C 0.30574 0.20746 0.78799 0.0
C781 C 0.29487 0.20989 0.82582 0.0
C782 C 0.32419 0.23164 0.7706 0.0
C783 C 0.33292 0.2583 0.79206 0.0
C784 C 0.32009 0.2616 0.82953 0.0
C785 C 0.30087 0.23744 0.84581 0.0
C786 C 0.33612 0.22777 0.73013 0.0
C787 C 0.32899 0.28949 0.8536 0.0
C788 C 0.41866 0.29682 0.78089 0.0
C789 C 0.40947 0.32654 0.76821 0.0
C790 C 0.39411 0.27363 0.78641 0.0
C791 C 0.35958 0.28021 0.77816 0.0
C792 C 0.35078 0.30925 0.7615 0.0
C793 C 0.37582 0.33246 0.7575 0.0
C794 C 0.40477 0.24323 0.80466 0.0
C795 C 0.31461 0.31674 0.7506 0.0
H796 H 0.30085 0.18614 0.77248 0.0
H797 H 0.29256 0.23916 0.87512 0.0
H798 H 0.33366 0.24999 0.71412 0.0
H799 H 0.36336 0.22113 0.73003 0.0
H800 H 0.32157 0.20938 0.71507 0.0
H801 H 0.31514 0.28954 0.88111 0.0
H802 H 0.3567 0.28948 0.85958 0.0
H803 H 0.32302 0.31137 0.83812 0.0
H804 H 0.44468 0.29261 0.7898 0.0
H805 H 0.36872 0.35567 0.74819 0.0
H806 H 0.39499 0.22322 0.78812 0.0
H807 H 0.39376 0.24159 0.83365 0.0
H808 H 0.43283 0.24104 0.80699 0.0
H809 H 0.30155 0.29597 0.73888 0.0
H810 H 0.31351 0.33588 0.72927 0.0
H811 H 0.30045 0.32431 0.7762 0.0
C812 C 0.67348 0.20868 0.70791 0.0
C813 C 0.70741 0.21243 0.69621 0.0
C814 C 0.65592 0.2328 0.72615 0.0
C815 C 0.67336 0.26058 0.73553 0.0
C816 C 0.70908 0.26184 0.7307 0.0
C817 C 0.72557 0.23826 0.70997 0.0
C818 C 0.61805 0.22957 0.73192 0.0
C819 C 0.72963 0.28917 0.74462 0.0
C820 C 0.62649 0.33455 0.70974 0.0
C821 C 0.60577 0.33954 0.74166 0.0
C822 C 0.64907 0.30948 0.70799 0.0
C823 C 0.65346 0.28997 0.74022 0.0
C824 C 0.63525 0.29676 0.77406 0.0
C825 C 0.61069 0.32071 0.77386 0.0
C826 C 0.66631 0.30284 0.67039 0.0
C827 C 0.6404 0.27851 0.81033 0.0
H828 H 0.65972 0.18778 0.70022 0.0
H829 H 0.75207 0.24136 0.70262 0.0
H830 H 0.61215 0.23053 0.76269 0.0
H831 H 0.6044 0.24905 0.71774 0.0
H832 H 0.608 0.20728 0.72056 0.0
H833 H 0.75462 0.28109 0.75557 0.0
H834 H 0.73477 0.30535 0.72066 0.0
H835 H 0.71631 0.30209 0.76748 0.0
H836 H 0.62342 0.34899 0.68463 0.0
H837 H 0.59467 0.32379 0.79843 0.0
H838 H 0.66346 0.27794 0.66259 0.0
H839 H 0.69381 0.30797 0.67263 0.0
H840 H 0.65584 0.31719 0.64678 0.0
H841 H 0.61714 0.26483 0.81668 0.0
H842 H 0.64405 0.29486 0.83442 0.0
H843 H 0.66256 0.26257 0.80911 0.0
C844 C 0.80129 0.28473 0.21848 0.0
C845 C 0.81308 0.29261 0.18203 0.0
C846 C 0.8169 0.26072 0.23976 0.0
C847 C 0.84465 0.24414 0.22398 0.0
C848 C 0.85614 0.25182 0.18692 0.0
C849 C 0.8403 0.27589 0.16658 0.0
C850 C 0.80417 0.2535 0.27927 0.0
C851 C 0.88524 0.23454 0.1685 0.0
C852 C 0.91498 0.1978 0.27011 0.0
C853 C 0.90657 0.16789 0.25749 0.0
C854 C 0.89259 0.22294 0.26412 0.0
C855 C 0.86145 0.21786 0.24471 0.0
C856 C 0.85101 0.18697 0.23703 0.0
C857 C 0.87376 0.16234 0.2435 0.0
C858 C 0.90431 0.25535 0.27398 0.0
C859 C 0.81791 0.1802 0.21696 0.0
H860 H 0.78042 0.2978 0.23063 0.0
H861 H 0.8492 0.28162 0.13823 0.0
H862 H 0.79938 0.22818 0.28259 0.0
H863 H 0.8239 0.25995 0.30037 0.0
H864 H 0.78046 0.26638 0.28603 0.0
H865 H 0.89101 0.24343 0.13951 0.0
H866 H 0.90849 0.23671 0.18617 0.0
H867 H 0.87907 0.20938 0.16643 0.0
H868 H 0.94047 0.20229 0.28047 0.0
H869 H 0.86718 0.13915 0.23381 0.0
H870 H 0.88275 0.26994 0.28362 0.0
H871 H 0.91536 0.26651 0.2483 0.0
H872 H 0.92409 0.2549 0.29656 0.0
H873 H 0.79718 0.19519 0.22786 0.0
H874 H 0.81034 0.15541 0.22026 0.0
H875 H 0.82086 0.18523 0.18616 0.0
C876 C 0.76827 0.75974 0.69475 0.0
C877 C 0.73983 0.76514 0.71777 0.0
C878 C 0.80075 0.7697 0.70596 0.0
C879 C 0.80487 0.78559 0.74093 0.0
C880 C 0.77687 0.78843 0.76584 0.0
C881 C 0.74467 0.77817 0.75397 0.0
C882 C 0.83006 0.76575 0.67874 0.0
C883 C 0.78023 0.80469 0.80363 0.0
C884 C 0.89623 0.80848 0.76412 0.0
C885 C 0.89808 0.83736 0.7456 0.0
C886 C 0.86537 0.79179 0.76514 0.0
C887 C 0.83611 0.80451 0.74726 0.0
C888 C 0.83754 0.83485 0.73142 0.0
C889 C 0.86851 0.85076 0.73066 0.0
C890 C 0.86483 0.75976 0.78286 0.0
C891 C 0.80693 0.84973 0.71273 0.0
H892 H 0.76487 0.74966 0.6668 0.0
H893 H 0.72296 0.78166 0.77241 0.0
H894 H 0.83626 0.7886 0.66559 0.0
H895 H 0.85304 0.75751 0.69405 0.0
H896 H 0.82403 0.74902 0.65567 0.0
H897 H 0.75849 0.79938 0.82272 0.0
H898 H 0.80419 0.79796 0.81812 0.0
H899 H 0.781 0.83025 0.79886 0.0
H900 H 0.91923 0.79805 0.77541 0.0
H901 H 0.87 0.87325 0.71658 0.0
H902 H 0.86701 0.74203 0.76012 0.0
H903 H 0.84062 0.75549 0.79813 0.0
H904 H 0.88633 0.75643 0.80298 0.0
H905 H 0.80018 0.83665 0.68663 0.0
H906 H 0.81161 0.87441 0.7047 0.0
H907 H 0.78469 0.84883 0.73204 0.0
C908 C 0.73765 0.74219 0.19606 0.0
C909 C 0.76631 0.7388 0.21937 0.0
C910 C 0.70553 0.73189 0.2083 0.0
C911 C 0.70197 0.71809 0.24481 0.0
C912 C 0.73014 0.71767 0.26985 0.0
C913 C 0.76203 0.72783 0.25675 0.0
C914 C 0.67613 0.73307 0.18074 0.0
C915 C 0.72717 0.70424 0.30942 0.0
C916 C 0.61117 0.694 0.26984 0.0
C917 C 0.61064 0.66363 0.25542 0.0
C918 C 0.64141 0.7117 0.26917 0.0
C919 C 0.67135 0.69868 0.25327 0.0
C920 C 0.67124 0.66715 0.24155 0.0
C921 C 0.64095 0.65012 0.2428 0.0
C922 C 0.64052 0.74489 0.28293 0.0
C923 C 0.70249 0.65199 0.22486 0.0
H924 H 0.74079 0.75065 0.16719 0.0
H925 H 0.78405 0.7257 0.27513 0.0
H926 H 0.67045 0.70917 0.17061 0.0
H927 H 0.65299 0.74202 0.19499 0.0
H928 H 0.68171 0.74802 0.15565 0.0
H929 H 0.75006 0.70911 0.32692 0.0
H930 H 0.70454 0.71391 0.32398 0.0
H931 H 0.72372 0.67862 0.30776 0.0
H932 H 0.58764 0.70455 0.2793 0.0
H933 H 0.64047 0.6266 0.23164 0.0
H934 H 0.63635 0.76067 0.25831 0.0
H935 H 0.66488 0.75156 0.29655 0.0
H936 H 0.6195 0.74857 0.3035 0.0
H937 H 0.7091 0.66356 0.19757 0.0
H938 H 0.69871 0.62675 0.2194 0.0
H939 H 0.72449 0.65473 0.24429 0.0
C940 C 0.24311 0.71384 0.2629 0.0
C941 C 0.23994 0.7292 0.29792 0.0
C942 C 0.27482 0.70306 0.25011 0.0
C943 C 0.30395 0.70735 0.27314 0.0
C944 C 0.30138 0.72555 0.30658 0.0
C945 C 0.26941 0.7363 0.31854 0.0
C946 C 0.27656 0.6847 0.21367 0.0
C947 C 0.33184 0.73104 0.33179 0.0
C948 C 0.36638 0.64137 0.28619 0.0
C949 C 0.39596 0.6533 0.26943 0.0
C950 C 0.33587 0.65804 0.2855 0.0
C951 C 0.33465 0.6875 0.26733 0.0
C952 C 0.36366 0.69852 0.24741 0.0
C953 C 0.39419 0.68128 0.24884 0.0
C954 C 0.30558 0.64495 0.30662 0.0
C955 C 0.36328 0.72934 0.22673 0.0
H956 H 0.22049 0.70888 0.24637 0.0
H957 H 0.26723 0.7482 0.34556 0.0
H958 H 0.29995 0.6905 0.19752 0.0
H959 H 0.27741 0.65945 0.22047 0.0
H960 H 0.25409 0.68911 0.19527 0.0
H961 H 0.32682 0.7491 0.35362 0.0
H962 H 0.33867 0.709 0.34654 0.0
H963 H 0.35408 0.73833 0.31458 0.0
H964 H 0.36754 0.61949 0.30167 0.0
H965 H 0.41702 0.69065 0.23595 0.0
H966 H 0.2829 0.64461 0.28789 0.0
H967 H 0.29957 0.66001 0.33129 0.0
H968 H 0.31016 0.6209 0.31725 0.0
H969 H 0.3382 0.73387 0.21338 0.0
H970 H 0.38324 0.73027 0.20443 0.0
H971 H 0.36832 0.74829 0.24734 0.0
C972 C 0.24988 0.80244 0.82727 0.0
C973 C 0.2661 0.77465 0.81696 0.0
C974 C 0.21688 0.80933 0.81479 0.0
C975 C 0.19944 0.78799 0.79113 0.0
C976 C 0.21585 0.7601 0.77995 0.0
C977 C 0.24892 0.75361 0.79327 0.0
C978 C 0.2003 0.83917 0.82794 0.0
C979 C 0.19831 0.737 0.75435 0.0
C980 C 0.10477 0.79726 0.80388 0.0
C981 C 0.0969 0.81924 0.77558 0.0
C982 C 0.1375 0.78467 0.80718 0.0
C983 C 0.16309 0.7941 0.78136 0.0
C984 C 0.15435 0.81371 0.75026 0.0
C985 C 0.12129 0.82621 0.74782 0.0
C986 C 0.14541 0.76378 0.84071 0.0
C987 C 0.18057 0.82378 0.72149 0.0
H988 H 0.26282 0.81862 0.84593 0.0
H989 H 0.26148 0.73224 0.7849 0.0
H990 H 0.19163 0.85303 0.80308 0.0
H991 H 0.17756 0.83365 0.84534 0.0
H992 H 0.21774 0.85377 0.84518 0.0
H993 H 0.21552 0.71785 0.7455 0.0
H994 H 0.17617 0.7267 0.7693 0.0
H995 H 0.18847 0.74893 0.72855 0.0
H996 H 0.08587 0.79146 0.82518 0.0
H997 H 0.11549 0.84329 0.72602 0.0
H998 H 0.16056 0.77697 0.86187 0.0
H999 H 0.16081 0.74347 0.83176 0.0
H1000 H 0.12199 0.75514 0.85487 0.0
H1001 H 0.19641 0.8426 0.73381 0.0
H1002 H 0.16854 0.83281 0.69504 0.0
H1003 H 0.1977 0.80419 0.71411 0.0
loop_
_geom_bond_atom_site_label_1
_geom_bond_atom_site_label_2
_geom_bond_distance
_geom_bond_site_symmetry_2
_ccdc_geom_bond_type
H0 C1 0.949 . S
C1 H0 0.949 . S
C1 C2 1.395 . S
C1 C3 1.391 . S
C2 C1 1.395 . S
C2 C5 1.390 . S
C3 C1 1.391 . S
C3 C7 1.387 . S
C3 C8 1.491 . S
H4 C5 0.950 . S
C5 C2 1.390 . S
C5 H4 0.950 . S
C5 C6 1.378 . S
C6 C5 1.378 . S
C6 C7 1.409 . S
C7 C3 1.387 . S
C7 C6 1.409 . S
C7 H9 0.951 . S
C8 C3 1.491 . S
C8 C10 1.382 . S
C8 C12 1.404 . S
H9 C7 0.951 . S
C10 C8 1.382 . S
C10 C11 1.390 . S
C10 H15 0.949 . S
C11 C10 1.390 . S
C11 C16 1.399 . S
C12 C8 1.404 . S
C12 H13 0.950 . S
C12 C14 1.375 . S
H13 C12 0.950 . S
C14 C12 1.375 . S
C14 C16 1.382 . S
C14 H18 0.950 . S
H15 C10 0.949 . S
C16 C11 1.399 . S
C16 C14 1.382 . S
C16 H17 0.952 . S
H17 C16 0.952 . S
H18 C14 0.950 . S
H19 C20 0.949 . S
C20 H19 0.949 . S
C20 C21 1.395 . S
C20 C22 1.391 . S
C21 C20 1.395 . S
C21 C24 1.390 . S
C22 C20 1.391 . S
C22 C26 1.387 . S
C22 C27 1.491 . S
H23 C24 0.950 . S
C24 C21 1.390 . S
C24 H23 0.950 . S
C24 C25 1.378 . S
C25 C24 1.378 . S
C25 C26 1.409 . S
C26 C22 1.387 . S
C26 C25 1.409 . S
C26 H28 0.951 . S
C27 C22 1.491 . S
C27 C29 1.382 . S
C27 C31 1.404 . S
H28 C26 0.951 . S
C29 C27 1.382 . S
C29 C30 1.390 . S
C29 H34 0.949 . S
C30 C29 1.390 . S
C30 C35 1.399 . S
C31 C27 1.404 . S
C31 H32 0.950 . S
C31 C33 1.375 . S
H32 C31 0.950 . S
C33 C31 1.375 . S
C33 C35 1.382 . S
C33 H37 0.950 . S
H34 C29 0.949 . S
C35 C30 1.399 . S
C35 C33 1.382 . S
C35 H36 0.952 . S
H36 C35 0.952 . S
H37 C33 0.950 . S
H38 C39 0.949 . S
C39 H38 0.949 . S
C39 C40 1.395 . S
C39 C41 1.391 . S
C40 C39 1.395 . S
C40 C43 1.390 . S
C41 C39 1.391 . S
C41 C45 1.387 . S
C41 C46 1.491 . S
H42 C43 0.950 . S
C43 C40 1.390 . S
C43 H42 0.950 . S
C43 C44 1.378 . S
C44 C43 1.378 . S
C44 C45 1.409 . S
C45 C41 1.387 . S
C45 C44 1.409 . S
C45 H47 0.951 . S
C46 C41 1.491 . S
C46 C48 1.382 . S
C46 C50 1.404 . S
H47 C45 0.951 . S
C48 C46 1.382 . S
C48 C49 1.390 . S
C48 H53 0.949 . S
C49 C48 1.390 . S
C49 C54 1.399 . S
C50 C46 1.404 . S
C50 H51 0.950 . S
C50 C52 1.375 . S
H51 C50 0.950 . S
C52 C50 1.375 . S
C52 C54 1.382 . S
C52 H56 0.950 . S
H53 C48 0.949 . S
C54 C49 1.399 . S
C54 C52 1.382 . S
C54 H55 0.952 . S
H55 C54 0.952 . S
H56 C52 0.950 . S
H57 C58 0.949 . S
C58 H57 0.949 . S
C58 C59 1.395 . S
C58 C60 1.391 . S
C59 C58 1.395 . S
C59 C62 1.390 . S
C60 C58 1.391 . S
C60 C64 1.387 . S
C60 C65 1.491 . S
H61 C62 0.950 . S
C62 C59 1.390 . S
C62 H61 0.950 . S
C62 C63 1.378 . S
C63 C62 1.378 . S
C63 C64 1.409 . S
C64 C60 1.387 . S
C64 C63 1.409 . S
C64 H66 0.951 . S
C65 C60 1.491 . S
C65 C67 1.382 . S
C65 C69 1.404 . S
H66 C64 0.951 . S
C67 C65 1.382 . S
C67 C68 1.390 . S
C67 H72 0.949 . S
C68 C67 1.390 . S
C68 C73 1.399 . S
C69 C65 1.404 . S
C69 H70 0.950 . S
C69 C71 1.375 . S
H70 C69 0.950 . S
C71 C69 1.375 . S
C71 C73 1.382 . S
C71 H75 0.950 . S
H72 C67 0.949 . S
C73 C68 1.399 . S
C73 C71 1.382 . S
C73 H74 0.952 . S
H74 C73 0.952 . S
H75 C71 0.950 . S
H76 C77 0.949 . S
C77 H76 0.949 . S
C77 C78 1.395 . S
C77 C79 1.391 . S
C78 C77 1.395 . S
C78 C81 1.390 . S
C79 C77 1.391 . S
C79 C83 1.387 . S
C79 C84 1.491 . S
H80 C81 0.950 . S
C81 C78 1.390 . S
C81 H80 0.950 . S
C81 C82 1.378 . S
C82 C81 1.378 . S
C82 C83 1.409 . S
C83 C79 1.387 . S
C83 C82 1.409 . S
C83 H85 0.951 . S
C84 C79 1.491 . S
C84 C86 1.382 . S
C84 C88 1.404 . S
H85 C83 0.951 . S
C86 C84 1.382 . S
C86 C87 1.390 . S
C86 H91 0.949 . S
C87 C86 1.390 . S
C87 C92 1.399 . S
C88 C84 1.404 . S
C88 H89 0.950 . S
C88 C90 1.375 . S
H89 C88 0.950 . S
C90 C88 1.375 . S
C90 C92 1.382 . S
C90 H94 0.950 . S
H91 C86 0.949 . S
C92 C87 1.399 . S
C92 C90 1.382 . S
C92 H93 0.952 . S
H93 C92 0.952 . S
H94 C90 0.950 . S
H95 C96 0.949 . S
C96 H95 0.949 . S
C96 C97 1.395 . S
C96 C98 1.391 . S
C97 C96 1.395 . S
C97 C100 1.390 . S
C98 C96 1.391 . S
C98 C102 1.387 . S
C98 C103 1.491 . S
H99 C100 0.950 . S
C100 C97 1.390 . S
C100 H99 0.950 . S
C100 C101 1.378 . S
C101 C100 1.378 . S
C101 C102 1.409 . S
C102 C98 1.387 . S
C102 C101 1.409 . S
C102 H104 0.951 . S
C103 C98 1.491 . S
C103 C105 1.382 . S
C103 C107 1.404 . S
H104 C102 0.951 . S
C105 C103 1.382 . S
C105 C106 1.390 . S
C105 H110 0.949 . S
C106 C105 1.390 . S
C106 C111 1.399 . S
C107 C103 1.404 . S
C107 H108 0.950 . S
C107 C109 1.375 . S
H108 C107 0.950 . S
C109 C107 1.375 . S
C109 C111 1.382 . S
C109 H113 0.950 . S
H110 C105 0.949 . S
C111 C106 1.399 . S
C111 C109 1.382 . S
C111 H112 0.952 . S
H112 C111 0.952 . S
H113 C109 0.950 . S
H114 C115 0.949 . S
C115 H114 0.949 . S
C115 C116 1.395 . S
C115 C117 1.391 . S
C116 C115 1.395 . S
C116 C119 1.390 . S
C117 C115 1.391 . S
C117 C121 1.387 . S
C117 C122 1.491 . S
H118 C119 0.950 . S
C119 C116 1.390 . S
C119 H118 0.950 . S
C119 C120 1.378 . S
C120 C119 1.378 . S
C120 C121 1.409 . S
C121 C117 1.387 . S
C121 C120 1.409 . S
C121 H123 0.951 . S
C122 C117 1.491 . S
C122 C124 1.382 . S
C122 C126 1.404 . S
H123 C121 0.951 . S
C124 C122 1.382 . S
C124 C125 1.390 . S
C124 H129 0.949 . S
C125 C124 1.390 . S
C125 C130 1.399 . S
C126 C122 1.404 . S
C126 H127 0.950 . S
C126 C128 1.375 . S
H127 C126 0.950 . S
C128 C126 1.375 . S
C128 C130 1.382 . S
C128 H132 0.950 . S
H129 C124 0.949 . S
C130 C125 1.399 . S
C130 C128 1.382 . S
C130 H131 0.952 . S
H131 C130 0.952 . S
H132 C128 0.950 . S
H133 C134 0.949 . S
C134 H133 0.949 . S
C134 C135 1.395 . S
C134 C136 1.391 . S
C135 C134 1.395 . S
C135 C138 1.390 . S
C136 C134 1.391 . S
C136 C140 1.387 . S
C136 C141 1.491 . S
H137 C138 0.950 . S
C138 C135 1.390 . S
C138 H137 0.950 . S
C138 C139 1.378 . S
C139 C138 1.378 . S
C139 C140 1.409 . S
C140 C136 1.387 . S
C140 C139 1.409 . S
C140 H142 0.951 . S
C141 C136 1.491 . S
C141 C143 1.382 . S
C141 C145 1.404 . S
H142 C140 0.951 . S
C143 C141 1.382 . S
C143 C144 1.390 . S
C143 H148 0.949 . S
C144 C143 1.390 . S
C144 C149 1.399 . S
C145 C141 1.404 . S
C145 H146 0.950 . S
C145 C147 1.375 . S
H146 C145 0.950 . S
C147 C145 1.375 . S
C147 C149 1.382 . S
C147 H151 0.950 . S
H148 C143 0.949 . S
C149 C144 1.399 . S
C149 C147 1.382 . S
C149 H150 0.952 . S
H150 C149 0.952 . S
H151 C147 0.950 . S
Zn152 O158 1.920 1_455 S
Zn152 O164 1.898 . S
Zn152 O167 1.905 . S
Zn153 O161 1.905 1_655 S
Zn153 O162 1.898 . S
Zn153 O170 1.920 . S
Zn154 O157 2.080 1_455 S
Zn154 O160 2.114 . S
Zn154 O163 2.120 1_455 S
Zn154 O165 2.120 . S
Zn154 O166 2.114 . S
Zn154 O169 2.080 1_455 S
C155 O160 1.166 . S
C155 O161 1.182 . S
C156 O162 1.167 . S
C156 O163 1.299 . S
O157 Zn154 2.080 1_655 S
O157 C171 1.305 . S
O158 Zn152 1.920 1_655 S
O158 C171 1.234 . S
C159 O164 1.167 . S
C159 O165 1.299 . S
O160 Zn154 2.114 . S
O160 C155 1.166 . S
O161 Zn153 1.905 1_455 S
O161 C155 1.182 . S
O162 Zn153 1.898 . S
O162 C156 1.167 . S
O163 Zn154 2.120 1_655 S
O163 C156 1.299 . S
O164 Zn152 1.898 . S
O164 C159 1.167 . S
O165 Zn154 2.120 . S
O165 C159 1.299 . S
O166 Zn154 2.114 . S
O166 C168 1.166 . S
O167 Zn152 1.905 . S
O167 C168 1.182 . S
C168 O166 1.166 . S
C168 O167 1.182 . S
O169 Zn154 2.080 1_655 S
O169 C172 1.305 . S
O170 Zn153 1.920 . S
O170 C172 1.234 . S
C171 O157 1.305 . S
C171 O158 1.234 . S
C172 O169 1.305 . S
C172 O170 1.234 . S
Zn173 O179 1.920 . S
Zn173 O185 1.898 . S
Zn173 O188 1.905 . S
Zn174 O182 1.905 . S
Zn174 O183 1.898 . S
Zn174 O191 1.920 . S
Zn175 O178 2.080 . S
Zn175 O181 2.114 . S
Zn175 O184 2.120 . S
Zn175 O186 2.120 . S
Zn175 O187 2.114 . S
Zn175 O190 2.080 . S
C176 O181 1.166 . S
C176 O182 1.182 . S
C177 O183 1.167 . S
C177 O184 1.299 . S
O178 Zn175 2.080 . S
O178 C192 1.305 . S
O179 Zn173 1.920 . S
O179 C192 1.234 . S
C180 O185 1.167 . S
C180 O186 1.299 . S
O181 Zn175 2.114 . S
O181 C176 1.166 . S
O182 Zn174 1.905 . S
O182 C176 1.182 . S
O183 Zn174 1.898 . S
O183 C177 1.167 . S
O184 Zn175 2.120 . S
O184 C177 1.299 . S
O185 Zn173 1.898 . S
O185 C180 1.167 . S
O186 Zn175 2.120 . S
O186 C180 1.299 . S
O187 Zn175 2.114 . S
O187 C189 1.166 . S
O188 Zn173 1.905 . S
O188 C189 1.182 . S
C189 O187 1.166 . S
C189 O188 1.182 . S
O190 Zn175 2.080 . S
O190 C193 1.305 . S
O191 Zn174 1.920 . S
O191 C193 1.234 . S
C192 O178 1.305 . S
C192 O179 1.234 . S
C193 O190 1.305 . S
C193 O191 1.234 . S
Zn194 O200 1.920 . S
Zn194 O206 1.898 . S
Zn194 O209 1.905 1_455 S
Zn195 O203 1.905 . S
Zn195 O204 1.898 . S
Zn195 O212 1.920 1_655 S
Zn196 O199 2.100 . S
Zn196 O202 2.092 1_455 S
Zn196 O205 2.101 1_455 S
Zn196 O207 2.142 . S
Zn196 O208 2.098 1_455 S
Zn196 O211 2.097 . S
C197 O202 1.166 . S
C197 O203 1.182 . S
C198 O204 1.167 . S
C198 O205 1.299 . S
O199 Zn196 2.100 . S
O199 C213 1.305 . S
O200 Zn194 1.920 . S
O200 C213 1.234 . S
C201 O206 1.167 . S
C201 O207 1.299 . S
O202 Zn196 2.092 1_655 S
O202 C197 1.166 . S
O203 Zn195 1.905 . S
O203 C197 1.182 . S
O204 Zn195 1.898 . S
O204 C198 1.167 . S
O205 Zn196 2.101 1_655 S
O205 C198 1.299 . S
O206 Zn194 1.898 . S
O206 C201 1.167 . S
O207 Zn196 2.142 . S
O207 C201 1.299 . S
O208 Zn196 2.098 1_655 S
O208 C210 1.166 . S
O209 Zn194 1.905 1_655 S
O209 C210 1.182 . S
C210 O208 1.166 . S
C210 O209 1.182 . S
O211 Zn196 2.097 . S
O211 C214 1.305 . S
O212 Zn195 1.920 1_455 S
O212 C214 1.234 . S
C213 O199 1.305 . S
C213 O200 1.234 . S
C214 O211 1.305 . S
C214 O212 1.234 . S
Zn215 O221 1.920 . S
Zn215 O227 1.898 . S
Zn215 O230 1.905 . S
Zn216 O224 1.905 . S
Zn216 O225 1.898 . S
Zn216 O233 1.920 . S
Zn217 O220 2.080 . S
Zn217 O223 2.114 . S
Zn217 O226 2.120 . S
Zn217 O228 2.120 . S
Zn217 O229 2.114 . S
Zn217 O232 2.080 . S
C218 O223 1.166 . S
C218 O224 1.182 . S
C219 O225 1.167 . S
C219 O226 1.299 . S
O220 Zn217 2.080 . S
O220 C234 1.305 . S
O221 Zn215 1.920 . S
O221 C234 1.234 . S
C222 O227 1.167 . S
C222 O228 1.299 . S
O223 Zn217 2.114 . S
O223 C218 1.166 . S
O224 Zn216 1.905 . S
O224 C218 1.182 . S
O225 Zn216 1.898 . S
O225 C219 1.167 . S
O226 Zn217 2.120 . S
O226 C219 1.299 . S
O227 Zn215 1.898 . S
O227 C222 1.167 . S
O228 Zn217 2.120 . S
O228 C222 1.299 . S
O229 Zn217 2.114 . S
O229 C231 1.166 . S
O230 Zn215 1.905 . S
O230 C231 1.182 . S
C231 O229 1.166 . S
C231 O230 1.182 . S
O232 Zn217 2.080 . S
O232 C235 1.305 . S
O233 Zn216 1.920 . S
O233 C235 1.234 . S
C234 O220 1.305 . S
C234 O221 1.234 . S
C235 O232 1.305 . S
C235 O233 1.234 . S
C236 C237 1.391 . S
C236 C238 1.394 . S
C236 H252 0.931 . S
C237 C236 1.391 . S
C237 C241 1.376 . S
C238 C236 1.394 . S
C238 C239 1.369 . S
C238 C242 1.531 . S
C239 C238 1.369 . S
C239 C240 1.410 . S
C239 C247 1.503 . S
C240 C239 1.410 . S
C240 C241 1.392 . S
C240 C243 1.511 . S
C241 C237 1.376 . S
C241 C240 1.392 . S
C241 H253 0.929 . S
C242 C238 1.531 . S
C242 H254 0.960 . S
C242 H255 0.962 . S
C242 H256 0.960 . S
C243 C240 1.511 . S
C243 H257 0.961 . S
C243 H258 0.961 . S
C243 H259 0.961 . S
C244 C245 1.370 1_565 S
C244 C246 1.363 . S
C244 H260 0.931 . S
C245 C244 1.370 1_545 S
C245 C249 1.408 . S
C246 C244 1.363 . S
C246 C247 1.370 . S
C246 C250 1.524 . S
C247 C239 1.503 . S
C247 C246 1.370 . S
C247 C248 1.403 . S
C248 C247 1.403 . S
C248 C249 1.404 1_565 S
C248 C251 1.539 . S
C249 C245 1.408 . S
C249 C248 1.404 1_545 S
C249 H261 0.930 . S
C250 C246 1.524 . S
C250 H262 0.956 . S
C250 H263 0.961 . S
C250 H264 0.961 . S
C251 C248 1.539 . S
C251 H265 0.958 . S
C251 H266 0.961 1_565 S
C251 H267 0.960 . S
H252 C236 0.931 . S
H253 C241 0.929 . S
H254 C242 0.960 . S
H255 C242 0.962 . S
H256 C242 0.960 . S
H257 C243 0.961 . S
H258 C243 0.961 . S
H259 C243 0.961 . S
H260 C244 0.931 . S
H261 C249 0.930 . S
H262 C250 0.956 . S
H263 C250 0.961 . S
H264 C250 0.961 . S
H265 C251 0.958 . S
H266 C251 0.961 1_545 S
H267 C251 0.960 . S
C268 C269 1.391 . S
C268 C270 1.394 . S
C268 H284 0.931 . S
C269 C268 1.391 . S
C269 C273 1.376 . S
C270 C268 1.394 . S
C270 C271 1.369 . S
C270 C274 1.531 . S
C271 C270 1.369 . S
C271 C272 1.410 . S
C271 C279 1.503 . S
C272 C271 1.410 . S
C272 C273 1.392 . S
C272 C275 1.511 . S
C273 C269 1.376 . S
C273 C272 1.392 . S
C273 H285 0.929 . S
C274 C270 1.531 . S
C274 H286 0.960 . S
C274 H287 0.962 . S
C274 H288 0.960 . S
C275 C272 1.511 . S
C275 H289 0.961 . S
C275 H290 0.961 . S
C275 H291 0.961 . S
C276 C277 1.370 . S
C276 C278 1.363 . S
C276 H292 0.931 . S
C277 C276 1.370 . S
C277 C281 1.408 . S
C278 C276 1.363 . S
C278 C279 1.370 . S
C278 C282 1.524 . S
C279 C271 1.503 . S
C279 C278 1.370 . S
C279 C280 1.403 . S
C280 C279 1.403 . S
C280 C281 1.404 . S
C280 C283 1.539 . S
C281 C277 1.408 . S
C281 C280 1.404 . S
C281 H293 0.930 . S
C282 C278 1.524 . S
C282 H294 0.956 . S
C282 H295 0.961 . S
C282 H296 0.961 . S
C283 C280 1.539 . S
C283 H297 0.958 . S
C283 H298 0.961 . S
C283 H299 0.960 . S
H284 C268 0.931 . S
H285 C273 0.929 . S
H286 C274 0.960 . S
H287 C274 0.962 . S
H288 C274 0.960 . S
H289 C275 0.961 . S
H290 C275 0.961 . S
H291 C275 0.961 . S
H292 C276 0.931 . S
H293 C281 0.930 . S
H294 C282 0.956 . S
H295 C282 0.961 . S
H296 C282 0.961 . S
H297 C283 0.958 . S
H298 C283 0.961 . S
H299 C283 0.960 . S
C300 C301 1.391 . S
C300 C302 1.394 . S
C300 H316 0.931 . S
C301 C300 1.391 . S
C301 C305 1.376 . S
C302 C300 1.394 . S
C302 C303 1.369 . S
C302 C306 1.531 . S
C303 C302 1.369 . S
C303 C304 1.410 . S
C303 C311 1.503 . S
C304 C303 1.410 . S
C304 C305 1.392 . S
C304 C307 1.511 . S
C305 C301 1.376 . S
C305 C304 1.392 . S
C305 H317 0.929 . S
C306 C302 1.531 . S
C306 H318 0.960 . S
C306 H319 0.962 . S
C306 H320 0.960 . S
C307 C304 1.511 . S
C307 H321 0.961 . S
C307 H322 0.961 . S
C307 H323 0.961 . S
C308 C309 1.370 . S
C308 C310 1.363 . S
C308 H324 0.931 . S
C309 C308 1.370 . S
C309 C313 1.408 . S
C310 C308 1.363 . S
C310 C311 1.370 . S
C310 C314 1.524 . S
C311 C303 1.503 . S
C311 C310 1.370 . S
C311 C312 1.403 . S
C312 C311 1.403 . S
C312 C313 1.404 . S
C312 C315 1.539 . S
C313 C309 1.408 . S
C313 C312 1.404 . S
C313 H325 0.930 . S
C314 C310 1.524 . S
C314 H326 0.956 . S
C314 H327 0.961 . S
C314 H328 0.961 . S
C315 C312 1.539 . S
C315 H329 0.958 . S
C315 H330 0.961 . S
C315 H331 0.960 . S
H316 C300 0.931 . S
H317 C305 0.929 . S
H318 C306 0.960 . S
H319 C306 0.962 . S
H320 C306 0.960 . S
H321 C307 0.961 . S
H322 C307 0.961 . S
H323 C307 0.961 . S
H324 C308 0.931 . S
H325 C313 0.930 . S
H326 C314 0.956 . S
H327 C314 0.961 . S
H328 C314 0.961 . S
H329 C315 0.958 . S
H330 C315 0.961 . S
H331 C315 0.960 . S
C332 C333 1.391 . S
C332 C334 1.394 . S
C332 H348 0.931 . S
C333 C332 1.391 . S
C333 C337 1.376 . S
C334 C332 1.394 . S
C334 C335 1.369 . S
C334 C338 1.531 . S
C335 C334 1.369 . S
C335 C336 1.410 . S
C335 C343 1.503 . S
C336 C335 1.410 . S
C336 C337 1.392 . S
C336 C339 1.511 . S
C337 C333 1.376 . S
C337 C336 1.392 . S
C337 H349 0.929 . S
C338 C334 1.531 . S
C338 H350 0.960 . S
C338 H351 0.962 . S
C338 H352 0.960 . S
C339 C336 1.511 . S
C339 H353 0.961 . S
C339 H354 0.961 . S
C339 H355 0.961 . S
C340 C341 1.370 . S
C340 C342 1.363 1_545 S
C340 H356 0.931 . S
C341 C340 1.370 . S
C341 C345 1.408 1_545 S
C342 C340 1.363 1_565 S
C342 C343 1.370 . S
C342 C346 1.524 . S
C343 C335 1.503 . S
C343 C342 1.370 . S
C343 C344 1.403 . S
C344 C343 1.403 . S
C344 C345 1.404 . S
C344 C347 1.539 . S
C345 C341 1.408 1_565 S
C345 C344 1.404 . S
C345 H357 0.930 . S
C346 C342 1.524 . S
C346 H358 0.956 . S
C346 H359 0.961 . S
C346 H360 0.961 1_565 S
C347 C344 1.539 . S
C347 H361 0.958 . S
C347 H362 0.961 . S
C347 H363 0.960 . S
H348 C332 0.931 . S
H349 C337 0.929 . S
H350 C338 0.960 . S
H351 C338 0.962 . S
H352 C338 0.960 . S
H353 C339 0.961 . S
H354 C339 0.961 . S
H355 C339 0.961 . S
H356 C340 0.931 . S
H357 C345 0.930 . S
H358 C346 0.956 . S
H359 C346 0.961 . S
H360 C346 0.961 1_545 S
H361 C347 0.958 . S
H362 C347 0.961 . S
H363 C347 0.960 . S
C364 C365 1.391 . S
C364 C366 1.394 . S
C364 H380 0.931 . S
C365 C364 1.391 . S
C365 C369 1.376 . S
C366 C364 1.394 . S
C366 C367 1.369 . S
C366 C370 1.531 . S
C367 C366 1.369 . S
C367 C368 1.410 . S
C367 C375 1.503 . S
C368 C367 1.410 . S
C368 C369 1.392 . S
C368 C371 1.511 . S
C369 C365 1.376 . S
C369 C368 1.392 . S
C369 H381 0.929 . S
C370 C366 1.531 . S
C370 H382 0.960 . S
C370 H383 0.962 . S
C370 H384 0.960 . S
C371 C368 1.511 . S
C371 H385 0.961 . S
C371 H386 0.961 . S
C371 H387 0.961 . S
C372 C373 1.370 1_545 S
C372 C374 1.363 . S
C372 H388 0.931 1_545 S
C373 C372 1.370 1_565 S
C373 C377 1.408 . S
C374 C372 1.363 . S
C374 C375 1.370 . S
C374 C378 1.524 . S
C375 C367 1.503 . S
C375 C374 1.370 . S
C375 C376 1.403 . S
C376 C375 1.403 . S
C376 C377 1.404 1_545 S
C376 C379 1.539 . S
C377 C373 1.408 . S
C377 C376 1.404 1_565 S
C377 H389 0.930 . S
C378 C374 1.524 . S
C378 H390 0.956 . S
C378 H391 0.961 . S
C378 H392 0.961 . S
C379 C376 1.539 . S
C379 H393 0.958 . S
C379 H394 0.961 . S
C379 H395 0.960 . S
H380 C364 0.931 . S
H381 C369 0.929 . S
H382 C370 0.960 . S
H383 C370 0.962 . S
H384 C370 0.960 . S
H385 C371 0.961 . S
H386 C371 0.961 . S
H387 C371 0.961 . S
H388 C372 0.931 1_565 S
H389 C377 0.930 . S
H390 C378 0.956 . S
H391 C378 0.961 . S
H392 C378 0.961 . S
H393 C379 0.958 . S
H394 C379 0.961 . S
H395 C379 0.960 . S
C396 C397 1.391 . S
C396 C398 1.394 . S
C396 H412 0.931 . S
C397 C396 1.391 . S
C397 C401 1.376 . S
C398 C396 1.394 . S
C398 C399 1.369 . S
C398 C402 1.531 . S
C399 C398 1.369 . S
C399 C400 1.410 . S
C399 C407 1.503 . S
C400 C399 1.410 . S
C400 C401 1.392 . S
C400 C403 1.511 . S
C401 C397 1.376 . S
C401 C400 1.392 . S
C401 H413 0.929 . S
C402 C398 1.531 . S
C402 H414 0.960 . S
C402 H415 0.962 . S
C402 H416 0.960 . S
C403 C400 1.511 . S
C403 H417 0.961 . S
C403 H418 0.961 . S
C403 H419 0.961 . S
C404 C405 1.370 . S
C404 C406 1.363 . S
C404 H420 0.931 . S
C405 C404 1.370 . S
C405 C409 1.408 . S
C406 C404 1.363 . S
C406 C407 1.370 . S
C406 C410 1.524 . S
C407 C399 1.503 . S
C407 C406 1.370 . S
C407 C408 1.403 . S
C408 C407 1.403 . S
C408 C409 1.404 . S
C408 C411 1.539 . S
C409 C405 1.408 . S
C409 C408 1.404 . S
C409 H421 0.930 . S
C410 C406 1.524 . S
C410 H422 0.956 . S
C410 H423 0.961 . S
C410 H424 0.961 . S
C411 C408 1.539 . S
C411 H425 0.958 . S
C411 H426 0.961 . S
C411 H427 0.960 . S
H412 C396 0.931 . S
H413 C401 0.929 . S
H414 C402 0.960 . S
H415 C402 0.962 . S
H416 C402 0.960 . S
H417 C403 0.961 . S
H418 C403 0.961 . S
H419 C403 0.961 . S
H420 C404 0.931 . S
H421 C409 0.930 . S
H422 C410 0.956 . S
H423 C410 0.961 . S
H424 C410 0.961 . S
H425 C411 0.958 . S
H426 C411 0.961 . S
H427 C411 0.960 . S
C428 C429 1.391 . S
C428 C430 1.394 . S
C428 H444 0.931 . S
C429 C428 1.391 . S
C429 C433 1.376 . S
C430 C428 1.394 . S
C430 C431 1.369 . S
C430 C434 1.531 . S
C431 C430 1.369 . S
C431 C432 1.410 . S
C431 C439 1.503 . S
C432 C431 1.410 . S
C432 C433 1.392 . S
C432 C435 1.511 . S
C433 C429 1.376 . S
C433 C432 1.392 . S
C433 H445 0.929 . S
C434 C430 1.531 . S
C434 H446 0.960 . S
C434 H447 0.962 . S
C434 H448 0.960 . S
C435 C432 1.511 . S
C435 H449 0.961 . S
C435 H450 0.961 . S
C435 H451 0.961 . S
C436 C437 1.370 . S
C436 C438 1.363 . S
C436 H452 0.931 . S
C437 C436 1.370 . S
C437 C441 1.408 . S
C438 C436 1.363 . S
C438 C439 1.370 . S
C438 C442 1.524 . S
C439 C431 1.503 . S
C439 C438 1.370 . S
C439 C440 1.403 . S
C440 C439 1.403 . S
C440 C441 1.404 . S
C440 C443 1.539 . S
C441 C437 1.408 . S
C441 C440 1.404 . S
C441 H453 0.930 . S
C442 C438 1.524 . S
C442 H454 0.956 . S
C442 H455 0.961 . S
C442 H456 0.961 . S
C443 C440 1.539 . S
C443 H457 0.958 . S
C443 H458 0.961 . S
C443 H459 0.960 . S
H444 C428 0.931 . S
H445 C433 0.929 . S
H446 C434 0.960 . S
H447 C434 0.962 . S
H448 C434 0.960 . S
H449 C435 0.961 . S
H450 C435 0.961 . S
H451 C435 0.961 . S
H452 C436 0.931 . S
H453 C441 0.930 . S
H454 C442 0.956 . S
H455 C442 0.961 . S
H456 C442 0.961 . S
H457 C443 0.958 . S
H458 C443 0.961 . S
H459 C443 0.960 . S
C460 C461 1.391 . S
C460 C462 1.394 . S
C460 H476 0.931 . S
C461 C460 1.391 . S
C461 C465 1.376 . S
C462 C460 1.394 . S
C462 C463 1.369 . S
C462 C466 1.531 . S
C463 C462 1.369 . S
C463 C464 1.410 . S
C463 C471 1.503 . S
C464 C463 1.410 . S
C464 C465 1.392 . S
C464 C467 1.511 . S
C465 C461 1.376 . S
C465 C464 1.392 . S
C465 H477 0.929 . S
C466 C462 1.531 . S
C466 H478 0.960 . S
C466 H479 0.962 . S
C466 H480 0.960 . S
C467 C464 1.511 . S
C467 H481 0.961 . S
C467 H482 0.961 . S
C467 H483 0.961 . S
C468 C469 1.370 1_545 S
C468 C470 1.363 . S
C468 H484 0.931 . S
C469 C468 1.370 1_565 S
C469 C473 1.408 . S
C470 C468 1.363 . S
C470 C471 1.370 . S
C470 C474 1.524 . S
C471 C463 1.503 . S
C471 C470 1.370 . S
C471 C472 1.403 . S
C472 C471 1.403 . S
C472 C473 1.404 1_545 S
C472 C475 1.539 . S
C473 C469 1.408 . S
C473 C472 1.404 1_565 S
C473 H485 0.930 . S
C474 C470 1.524 . S
C474 H486 0.956 . S
C474 H487 0.961 . S
C474 H488 0.961 . S
C475 C472 1.539 . S
C475 H489 0.959 1_545 S
C475 H490 0.963 1_545 S
C475 H491 0.957 . S
H476 C460 0.931 . S
H477 C465 0.929 . S
H478 C466 0.960 . S
H479 C466 0.962 . S
H480 C466 0.960 . S
H481 C467 0.961 . S
H482 C467 0.961 . S
H483 C467 0.961 . S
H484 C468 0.931 . S
H485 C473 0.930 . S
H486 C474 0.956 . S
H487 C474 0.961 . S
H488 C474 0.961 . S
H489 C475 0.959 1_565 S
H490 C475 0.963 1_565 S
H491 C475 0.957 . S
C492 C493 1.391 . S
C492 C494 1.394 1_556 S
C492 H508 0.931 . S
C493 C492 1.391 . S
C493 C497 1.376 1_556 S
C494 C492 1.394 1_554 S
C494 C495 1.369 . S
C494 C498 1.531 . S
C495 C494 1.369 . S
C495 C496 1.410 . S
C495 C503 1.503 . S
C496 C495 1.410 . S
C496 C497 1.392 . S
C496 C499 1.511 . S
C497 C493 1.376 1_554 S
C497 C496 1.392 . S
C497 H509 0.929 . S
C498 C494 1.531 . S
C498 H510 0.960 . S
C498 H511 0.962 . S
C498 H512 0.960 1_554 S
C499 C496 1.511 . S
C499 H513 0.961 . S
C499 H514 0.961 . S
C499 H515 0.961 . S
C500 C501 1.370 . S
C500 C502 1.363 . S
C500 H516 0.931 . S
C501 C500 1.370 . S
C501 C505 1.408 . S
C502 C500 1.363 . S
C502 C503 1.370 . S
C502 C506 1.524 . S
C503 C495 1.503 . S
C503 C502 1.370 . S
C503 C504 1.403 . S
C504 C503 1.403 . S
C504 C505 1.404 . S
C504 C507 1.539 . S
C505 C501 1.408 . S
C505 C504 1.404 . S
C505 H517 0.930 . S
C506 C502 1.524 . S
C506 H518 0.956 . S
C506 H519 0.961 . S
C506 H520 0.961 . S
C507 C504 1.539 . S
C507 H521 0.958 . S
C507 H522 0.961 . S
C507 H523 0.960 . S
H508 C492 0.931 . S
H509 C497 0.929 . S
H510 C498 0.960 . S
H511 C498 0.962 . S
H512 C498 0.960 1_556 S
H513 C499 0.961 . S
H514 C499 0.961 . S
H515 C499 0.961 . S
H516 C500 0.931 . S
H517 C505 0.930 . S
H518 C506 0.956 . S
H519 C506 0.961 . S
H520 C506 0.961 . S
H521 C507 0.958 . S
H522 C507 0.961 . S
H523 C507 0.960 . S
C524 C525 1.391 . S
C524 C526 1.394 . S
C524 H540 0.931 . S
C525 C524 1.391 . S
C525 C529 1.376 . S
C526 C524 1.394 . S
C526 C527 1.369 . S
C526 C530 1.531 . S
C527 C526 1.369 . S
C527 C528 1.410 . S
C527 C535 1.503 . S
C528 C527 1.410 . S
C528 C529 1.392 . S
C528 C531 1.511 . S
C529 C525 1.376 . S
C529 C528 1.392 . S
C529 H541 0.929 . S
C530 C526 1.531 . S
C530 H542 0.960 . S
C530 H543 0.962 . S
C530 H544 0.960 . S
C531 C528 1.511 . S
C531 H545 0.961 . S
C531 H546 0.961 . S
C531 H547 0.961 . S
C532 C533 1.370 . S
C532 C534 1.363 . S
C532 H548 0.931 . S
C533 C532 1.370 . S
C533 C537 1.408 . S
C534 C532 1.363 . S
C534 C535 1.370 . S
C534 C538 1.524 . S
C535 C527 1.503 . S
C535 C534 1.370 . S
C535 C536 1.403 . S
C536 C535 1.403 . S
C536 C537 1.404 . S
C536 C539 1.539 . S
C537 C533 1.408 . S
C537 C536 1.404 . S
C537 H549 0.930 . S
C538 C534 1.524 . S
C538 H550 0.956 . S
C538 H551 0.961 . S
C538 H552 0.961 . S
C539 C536 1.539 . S
C539 H553 0.958 . S
C539 H554 0.961 . S
C539 H555 0.960 . S
H540 C524 0.931 . S
H541 C529 0.929 . S
H542 C530 0.960 . S
H543 C530 0.962 . S
H544 C530 0.960 . S
H545 C531 0.961 . S
H546 C531 0.961 . S
H547 C531 0.961 . S
H548 C532 0.931 . S
H549 C537 0.930 . S
H550 C538 0.956 . S
H551 C538 0.961 . S
H552 C538 0.961 . S
H553 C539 0.958 . S
H554 C539 0.961 . S
H555 C539 0.960 . S
C556 C557 1.391 . S
C556 C558 1.394 1_554 S
C556 H572 0.931 . S
C557 C556 1.391 . S
C557 C561 1.376 . S
C558 C556 1.394 1_556 S
C558 C559 1.369 . S
C558 C562 1.531 . S
C559 C558 1.369 . S
C559 C560 1.410 . S
C559 C567 1.503 . S
C560 C559 1.410 . S
C560 C561 1.392 1_556 S
C560 C563 1.511 . S
C561 C557 1.376 . S
C561 C560 1.392 1_554 S
C561 H573 0.929 . S
C562 C558 1.531 . S
C562 H574 0.960 . S
C562 H575 0.962 . S
C562 H576 0.960 . S
C563 C560 1.511 . S
C563 H577 0.961 . S
C563 H578 0.961 . S
C563 H579 0.961 . S
C564 C565 1.370 . S
C564 C566 1.363 . S
C564 H580 0.931 . S
C565 C564 1.370 . S
C565 C569 1.408 . S
C566 C564 1.363 . S
C566 C567 1.370 . S
C566 C570 1.524 . S
C567 C559 1.503 . S
C567 C566 1.370 . S
C567 C568 1.403 . S
C568 C567 1.403 . S
C568 C569 1.404 . S
C568 C571 1.539 . S
C569 C565 1.408 . S
C569 C568 1.404 . S
C569 H581 0.930 . S
C570 C566 1.524 . S
C570 H582 0.956 . S
C570 H583 0.961 . S
C570 H584 0.961 . S
C571 C568 1.539 . S
C571 H585 0.958 . S
C571 H586 0.961 . S
C571 H587 0.960 . S
H572 C556 0.931 . S
H573 C561 0.929 . S
H574 C562 0.960 . S
H575 C562 0.962 . S
H576 C562 0.960 . S
H577 C563 0.961 . S
H578 C563 0.961 . S
H579 C563 0.961 . S
H580 C564 0.931 . S
H581 C569 0.930 . S
H582 C570 0.956 . S
H583 C570 0.961 . S
H584 C570 0.961 . S
H585 C571 0.958 . S
H586 C571 0.961 . S
H587 C571 0.960 . S
C588 C589 1.391 . S
C588 C590 1.394 . S
C588 H604 0.931 . S
C589 C588 1.391 . S
C589 C593 1.376 . S
C590 C588 1.394 . S
C590 C591 1.369 . S
C590 C594 1.531 . S
C591 C590 1.369 . S
C591 C592 1.410 . S
C591 C599 1.503 . S
C592 C591 1.410 . S
C592 C593 1.392 . S
C592 C595 1.511 . S
C593 C589 1.376 . S
C593 C592 1.392 . S
C593 H605 0.929 . S
C594 C590 1.531 . S
C594 H606 0.960 . S
C594 H607 0.962 . S
C594 H608 0.960 . S
C595 C592 1.511 . S
C595 H609 0.961 . S
C595 H610 0.961 . S
C595 H611 0.961 . S
C596 C597 1.370 . S
C596 C598 1.363 . S
C596 H612 0.931 . S
C597 C596 1.370 . S
C597 C601 1.408 . S
C598 C596 1.363 . S
C598 C599 1.370 . S
C598 C602 1.524 . S
C599 C591 1.503 . S
C599 C598 1.370 . S
C599 C600 1.403 . S
C600 C599 1.403 . S
C600 C601 1.404 . S
C600 C603 1.539 . S
C601 C597 1.408 . S
C601 C600 1.404 . S
C601 H613 0.930 . S
C602 C598 1.524 . S
C602 H614 0.956 . S
C602 H615 0.961 . S
C602 H616 0.961 . S
C603 C600 1.539 . S
C603 H617 0.958 . S
C603 H618 0.961 . S
C603 H619 0.960 . S
H604 C588 0.931 . S
H605 C593 0.929 . S
H606 C594 0.960 . S
H607 C594 0.962 . S
H608 C594 0.960 . S
H609 C595 0.961 . S
H610 C595 0.961 . S
H611 C595 0.961 . S
H612 C596 0.931 . S
H613 C601 0.930 . S
H614 C602 0.956 . S
H615 C602 0.961 . S
H616 C602 0.961 . S
H617 C603 0.958 . S
H618 C603 0.961 . S
H619 C603 0.960 . S
C620 C621 1.391 . S
C620 C622 1.394 1_554 S
C620 H636 0.931 . S
C621 C620 1.391 . S
C621 C625 1.376 1_554 S
C622 C620 1.394 1_556 S
C622 C623 1.369 . S
C622 C626 1.531 . S
C623 C622 1.369 . S
C623 C624 1.410 . S
C623 C631 1.503 . S
C624 C623 1.410 . S
C624 C625 1.392 . S
C624 C627 1.511 . S
C625 C621 1.376 1_556 S
C625 C624 1.392 . S
C625 H637 0.926 1_556 S
C626 C622 1.531 . S
C626 H638 0.960 . S
C626 H639 0.962 . S
C626 H640 0.960 . S
C627 C624 1.511 . S
C627 H641 0.961 . S
C627 H642 0.961 . S
C627 H643 0.961 . S
C628 C629 1.370 . S
C628 C630 1.363 . S
C628 H644 0.931 . S
C629 C628 1.370 . S
C629 C633 1.408 . S
C630 C628 1.363 . S
C630 C631 1.370 . S
C630 C634 1.524 . S
C631 C623 1.503 . S
C631 C630 1.370 . S
C631 C632 1.403 . S
C632 C631 1.403 . S
C632 C633 1.404 . S
C632 C635 1.539 . S
C633 C629 1.408 . S
C633 C632 1.404 . S
C633 H645 0.930 . S
C634 C630 1.524 . S
C634 H646 0.956 . S
C634 H647 0.961 . S
C634 H648 0.961 . S
C635 C632 1.539 . S
C635 H649 0.958 . S
C635 H650 0.961 . S
C635 H651 0.960 . S
H636 C620 0.931 . S
H637 C625 0.926 1_554 S
H638 C626 0.960 . S
H639 C626 0.962 . S
H640 C626 0.960 . S
H641 C627 0.961 . S
H642 C627 0.961 . S
H643 C627 0.961 . S
H644 C628 0.931 . S
H645 C633 0.930 . S
H646 C634 0.956 . S
H647 C634 0.961 . S
H648 C634 0.961 . S
H649 C635 0.958 . S
H650 C635 0.961 . S
H651 C635 0.960 . S
C652 C653 1.391 . S
C652 C654 1.394 . S
C652 H668 0.931 . S
C653 C652 1.391 . S
C653 C657 1.376 . S
C654 C652 1.394 . S
C654 C655 1.369 . S
C654 C658 1.531 . S
C655 C654 1.369 . S
C655 C656 1.410 . S
C655 C663 1.503 . S
C656 C655 1.410 . S
C656 C657 1.392 . S
C656 C659 1.511 . S
C657 C653 1.376 . S
C657 C656 1.392 . S
C657 H669 0.929 . S
C658 C654 1.531 . S
C658 H670 0.960 . S
C658 H671 0.962 . S
C658 H672 0.960 . S
C659 C656 1.511 . S
C659 H673 0.961 . S
C659 H674 0.961 . S
C659 H675 0.961 . S
C660 C661 1.370 . S
C660 C662 1.363 . S
C660 H676 0.931 . S
C661 C660 1.370 . S
C661 C665 1.408 . S
C662 C660 1.363 . S
C662 C663 1.370 . S
C662 C666 1.524 . S
C663 C655 1.503 . S
C663 C662 1.370 . S
C663 C664 1.403 . S
C664 C663 1.403 . S
C664 C665 1.404 . S
C664 C667 1.539 . S
C665 C661 1.408 . S
C665 C664 1.404 . S
C665 H677 0.930 . S
C666 C662 1.524 . S
C666 H678 0.956 . S
C666 H679 0.961 . S
C666 H680 0.961 . S
C667 C664 1.539 . S
C667 H681 0.958 . S
C667 H682 0.961 . S
C667 H683 0.960 . S
H668 C652 0.931 . S
H669 C657 0.929 . S
H670 C658 0.960 . S
H671 C658 0.962 . S
H672 C658 0.960 . S
H673 C659 0.961 . S
H674 C659 0.961 . S
H675 C659 0.961 . S
H676 C660 0.931 . S
H677 C665 0.930 . S
H678 C666 0.956 . S
H679 C666 0.961 . S
H680 C666 0.961 . S
H681 C667 0.958 . S
H682 C667 0.961 . S
H683 C667 0.960 . S
C684 C685 1.391 . S
C684 C686 1.394 1_556 S
C684 H700 0.931 . S
C685 C684 1.391 . S
C685 C689 1.376 1_556 S
C686 C684 1.394 1_554 S
C686 C687 1.369 . S
C686 C690 1.531 . S
C687 C686 1.369 . S
C687 C688 1.410 . S
C687 C695 1.503 . S
C688 C687 1.410 . S
C688 C689 1.392 . S
C688 C691 1.511 . S
C689 C685 1.376 1_554 S
C689 C688 1.392 . S
C689 H701 0.929 . S
C690 C686 1.531 . S
C690 H702 0.960 . S
C690 H703 0.962 . S
C690 H704 0.960 . S
C691 C688 1.511 . S
C691 H705 0.961 . S
C691 H706 0.961 . S
C691 H707 0.961 . S
C692 C693 1.370 . S
C692 C694 1.363 . S
C692 H708 0.931 . S
C693 C692 1.370 . S
C693 C697 1.408 . S
C694 C692 1.363 . S
C694 C695 1.370 . S
C694 C698 1.524 . S
C695 C687 1.503 . S
C695 C694 1.370 . S
C695 C696 1.403 . S
C696 C695 1.403 . S
C696 C697 1.404 . S
C696 C699 1.539 . S
C697 C693 1.408 . S
C697 C696 1.404 . S
C697 H709 0.930 . S
C698 C694 1.524 . S
C698 H710 0.956 . S
C698 H711 0.961 . S
C698 H712 0.961 . S
C699 C696 1.539 . S
C699 H713 0.958 . S
C699 H714 0.961 . S
C699 H715 0.960 . S
H700 C684 0.931 . S
H701 C689 0.929 . S
H702 C690 0.960 . S
H703 C690 0.962 . S
H704 C690 0.960 . S
H705 C691 0.961 . S
H706 C691 0.961 . S
H707 C691 0.961 . S
H708 C692 0.931 . S
H709 C697 0.930 . S
H710 C698 0.956 . S
H711 C698 0.961 . S
H712 C698 0.961 . S
H713 C699 0.958 . S
H714 C699 0.961 . S
H715 C699 0.960 . S
C716 C717 1.391 . S
C716 C718 1.394 . S
C716 H732 0.931 . S
C717 C716 1.391 . S
C717 C721 1.376 . S
C718 C716 1.394 . S
C718 C719 1.369 . S
C718 C722 1.531 . S
C719 C718 1.369 . S
C719 C720 1.410 . S
C719 C727 1.503 . S
C720 C719 1.410 . S
C720 C721 1.392 . S
C720 C723 1.511 . S
C721 C717 1.376 . S
C721 C720 1.392 . S
C721 H733 0.929 . S
C722 C718 1.531 . S
C722 H734 0.960 . S
C722 H735 0.962 . S
C722 H736 0.960 . S
C723 C720 1.511 . S
C723 H737 0.961 . S
C723 H738 0.961 . S
C723 H739 0.961 . S
C724 C725 1.370 . S
C724 C726 1.363 . S
C724 H740 0.931 . S
C725 C724 1.370 . S
C725 C729 1.408 . S
C726 C724 1.363 . S
C726 C727 1.370 . S
C726 C730 1.524 . S
C727 C719 1.503 . S
C727 C726 1.370 . S
C727 C728 1.403 . S
C728 C727 1.403 . S
C728 C729 1.404 . S
C728 C731 1.539 . S
C729 C725 1.408 . S
C729 C728 1.404 . S
C729 H741 0.930 . S
C730 C726 1.524 . S
C730 H742 0.956 . S
C730 H743 0.961 . S
C730 H744 0.961 . S
C731 C728 1.539 . S
C731 H745 0.958 . S
C731 H746 0.961 . S
C731 H747 0.960 . S
H732 C716 0.931 . S
H733 C721 0.929 . S
H734 C722 0.960 . S
H735 C722 0.962 . S
H736 C722 0.960 . S
H737 C723 0.961 . S
H738 C723 0.961 . S
H739 C723 0.961 . S
H740 C724 0.931 . S
H741 C729 0.930 . S
H742 C730 0.956 . S
H743 C730 0.961 . S
H744 C730 0.961 . S
H745 C731 0.958 . S
H746 C731 0.961 . S
H747 C731 0.960 . S
C748 C749 1.391 . S
C748 C750 1.394 . S
C748 H764 0.931 . S
C749 C748 1.391 . S
C749 C753 1.376 . S
C750 C748 1.394 . S
C750 C751 1.369 . S
C750 C754 1.531 . S
C751 C750 1.369 . S
C751 C752 1.410 . S
C751 C759 1.503 . S
C752 C751 1.410 . S
C752 C753 1.392 . S
C752 C755 1.511 . S
C753 C749 1.376 . S
C753 C752 1.392 . S
C753 H765 0.929 . S
C754 C750 1.531 . S
C754 H766 0.960 . S
C754 H767 0.962 . S
C754 H768 0.960 . S
C755 C752 1.511 . S
C755 H769 0.961 . S
C755 H770 0.961 . S
C755 H771 0.961 . S
C756 C757 1.370 . S
C756 C758 1.363 . S
C756 H772 0.931 . S
C757 C756 1.370 . S
C757 C761 1.408 . S
C758 C756 1.363 . S
C758 C759 1.370 . S
C758 C762 1.524 . S
C759 C751 1.503 . S
C759 C758 1.370 . S
C759 C760 1.403 . S
C760 C759 1.403 . S
C760 C761 1.404 . S
C760 C763 1.539 . S
C761 C757 1.408 . S
C761 C760 1.404 . S
C761 H773 0.930 . S
C762 C758 1.524 . S
C762 H774 0.956 . S
C762 H775 0.961 . S
C762 H776 0.961 . S
C763 C760 1.539 . S
C763 H777 0.958 . S
C763 H778 0.961 . S
C763 H779 0.960 . S
H764 C748 0.931 . S
H765 C753 0.929 . S
H766 C754 0.960 . S
H767 C754 0.962 . S
H768 C754 0.960 . S
H769 C755 0.961 . S
H770 C755 0.961 . S
H771 C755 0.961 . S
H772 C756 0.931 . S
H773 C761 0.930 . S
H774 C762 0.956 . S
H775 C762 0.961 . S
H776 C762 0.961 . S
H777 C763 0.958 . S
H778 C763 0.961 . S
H779 C763 0.960 . S
C780 C781 1.391 . S
C780 C782 1.394 . S
C780 H796 0.931 . S
C781 C780 1.391 . S
C781 C785 1.376 . S
C782 C780 1.394 . S
C782 C783 1.369 . S
C782 C786 1.531 . S
C783 C782 1.369 . S
C783 C784 1.410 . S
C783 C791 1.503 . S
C784 C783 1.410 . S
C784 C785 1.392 . S
C784 C787 1.511 . S
C785 C781 1.376 . S
C785 C784 1.392 . S
C785 H797 0.929 . S
C786 C782 1.531 . S
C786 H798 0.960 . S
C786 H799 0.962 . S
C786 H800 0.960 . S
C787 C784 1.511 . S
C787 H801 0.961 . S
C787 H802 0.961 . S
C787 H803 0.961 . S
C788 C789 1.370 . S
C788 C790 1.363 . S
C788 H804 0.931 . S
C789 C788 1.370 . S
C789 C793 1.408 . S
C790 C788 1.363 . S
C790 C791 1.370 . S
C790 C794 1.524 . S
C791 C783 1.503 . S
C791 C790 1.370 . S
C791 C792 1.403 . S
C792 C791 1.403 . S
C792 C793 1.404 . S
C792 C795 1.539 . S
C793 C789 1.408 . S
C793 C792 1.404 . S
C793 H805 0.930 . S
C794 C790 1.524 . S
C794 H806 0.956 . S
C794 H807 0.961 . S
C794 H808 0.961 . S
C795 C792 1.539 . S
C795 H809 0.958 . S
C795 H810 0.961 . S
C795 H811 0.960 . S
H796 C780 0.931 . S
H797 C785 0.929 . S
H798 C786 0.960 . S
H799 C786 0.962 . S
H800 C786 0.960 . S
H801 C787 0.961 . S
H802 C787 0.961 . S
H803 C787 0.961 . S
H804 C788 0.931 . S
H805 C793 0.930 . S
H806 C794 0.956 . S
H807 C794 0.961 . S
H808 C794 0.961 . S
H809 C795 0.958 . S
H810 C795 0.961 . S
H811 C795 0.960 . S
C812 C813 1.391 . S
C812 C814 1.394 . S
C812 H828 0.931 . S
C813 C812 1.391 . S
C813 C817 1.376 . S
C814 C812 1.394 . S
C814 C815 1.369 . S
C814 C818 1.531 . S
C815 C814 1.369 . S
C815 C816 1.410 . S
C815 C823 1.503 . S
C816 C815 1.410 . S
C816 C817 1.392 . S
C816 C819 1.511 . S
C817 C813 1.376 . S
C817 C816 1.392 . S
C817 H829 0.929 . S
C818 C814 1.531 . S
C818 H830 0.960 . S
C818 H831 0.962 . S
C818 H832 0.960 . S
C819 C816 1.511 . S
C819 H833 0.961 . S
C819 H834 0.961 . S
C819 H835 0.961 . S
C820 C821 1.370 . S
C820 C822 1.363 . S
C820 H836 0.931 . S
C821 C820 1.370 . S
C821 C825 1.408 . S
C822 C820 1.363 . S
C822 C823 1.370 . S
C822 C826 1.524 . S
C823 C815 1.503 . S
C823 C822 1.370 . S
C823 C824 1.403 . S
C824 C823 1.403 . S
C824 C825 1.404 . S
C824 C827 1.539 . S
C825 C821 1.408 . S
C825 C824 1.404 . S
C825 H837 0.930 . S
C826 C822 1.524 . S
C826 H838 0.956 . S
C826 H839 0.961 . S
C826 H840 0.961 . S
C827 C824 1.539 . S
C827 H841 0.958 . S
C827 H842 0.961 . S
C827 H843 0.960 . S
H828 C812 0.931 . S
H829 C817 0.929 . S
H830 C818 0.960 . S
H831 C818 0.962 . S
H832 C818 0.960 . S
H833 C819 0.961 . S
H834 C819 0.961 . S
H835 C819 0.961 . S
H836 C820 0.931 . S
H837 C825 0.930 . S
H838 C826 0.956 . S
H839 C826 0.961 . S
H840 C826 0.961 . S
H841 C827 0.958 . S
H842 C827 0.961 . S
H843 C827 0.960 . S
C844 C845 1.391 . S
C844 C846 1.394 . S
C844 H860 0.931 . S
C845 C844 1.391 . S
C845 C849 1.376 . S
C846 C844 1.394 . S
C846 C847 1.369 . S
C846 C850 1.531 . S
C847 C846 1.369 . S
C847 C848 1.410 . S
C847 C855 1.503 . S
C848 C847 1.410 . S
C848 C849 1.392 . S
C848 C851 1.511 . S
C849 C845 1.376 . S
C849 C848 1.392 . S
C849 H861 0.929 . S
C850 C846 1.531 . S
C850 H862 0.960 . S
C850 H863 0.962 . S
C850 H864 0.960 . S
C851 C848 1.511 . S
C851 H865 0.961 . S
C851 H866 0.961 . S
C851 H867 0.961 . S
C852 C853 1.370 . S
C852 C854 1.363 . S
C852 H868 0.931 . S
C853 C852 1.370 . S
C853 C857 1.408 . S
C854 C852 1.363 . S
C854 C855 1.370 . S
C854 C858 1.524 . S
C855 C847 1.503 . S
C855 C854 1.370 . S
C855 C856 1.403 . S
C856 C855 1.403 . S
C856 C857 1.404 . S
C856 C859 1.539 . S
C857 C853 1.408 . S
C857 C856 1.404 . S
C857 H869 0.930 . S
C858 C854 1.524 . S
C858 H870 0.956 . S
C858 H871 0.961 . S
C858 H872 0.961 . S
C859 C856 1.539 . S
C859 H873 0.958 . S
C859 H874 0.961 . S
C859 H875 0.960 . S
H860 C844 0.931 . S
H861 C849 0.929 . S
H862 C850 0.960 . S
H863 C850 0.962 . S
H864 C850 0.960 . S
H865 C851 0.961 . S
H866 C851 0.961 . S
H867 C851 0.961 . S
H868 C852 0.931 . S
H869 C857 0.930 . S
H870 C858 0.956 . S
H871 C858 0.961 . S
H872 C858 0.961 . S
H873 C859 0.958 . S
H874 C859 0.961 . S
H875 C859 0.960 . S
C876 C877 1.391 . S
C876 C878 1.394 . S
C876 H892 0.931 . S
C877 C876 1.391 . S
C877 C881 1.376 . S
C878 C876 1.394 . S
C878 C879 1.369 . S
C878 C882 1.531 . S
C879 C878 1.369 . S
C879 C880 1.410 . S
C879 C887 1.503 . S
C880 C879 1.410 . S
C880 C881 1.392 . S
C880 C883 1.511 . S
C881 C877 1.376 . S
C881 C880 1.392 . S
C881 H893 0.929 . S
C882 C878 1.531 . S
C882 H894 0.960 . S
C882 H895 0.962 . S
C882 H896 0.960 . S
C883 C880 1.511 . S
C883 H897 0.961 . S
C883 H898 0.961 . S
C883 H899 0.961 . S
C884 C885 1.370 . S
C884 C886 1.363 . S
C884 H900 0.931 . S
C885 C884 1.370 . S
C885 C889 1.408 . S
C886 C884 1.363 . S
C886 C887 1.370 . S
C886 C890 1.524 . S
C887 C879 1.503 . S
C887 C886 1.370 . S
C887 C888 1.403 . S
C888 C887 1.403 . S
C888 C889 1.404 . S
C888 C891 1.539 . S
C889 C885 1.408 . S
C889 C888 1.404 . S
C889 H901 0.930 . S
C890 C886 1.524 . S
C890 H902 0.956 . S
C890 H903 0.961 . S
C890 H904 0.961 . S
C891 C888 1.539 . S
C891 H905 0.958 . S
C891 H906 0.961 . S
C891 H907 0.960 . S
H892 C876 0.931 . S
H893 C881 0.929 . S
H894 C882 0.960 . S
H895 C882 0.962 . S
H896 C882 0.960 . S
H897 C883 0.961 . S
H898 C883 0.961 . S
H899 C883 0.961 . S
H900 C884 0.931 . S
H901 C889 0.930 . S
H902 C890 0.956 . S
H903 C890 0.961 . S
H904 C890 0.961 . S
H905 C891 0.958 . S
H906 C891 0.961 . S
H907 C891 0.960 . S
C908 C909 1.391 . S
C908 C910 1.394 . S
C908 H924 0.931 . S
C909 C908 1.391 . S
C909 C913 1.376 . S
C910 C908 1.394 . S
C910 C911 1.369 . S
C910 C914 1.531 . S
C911 C910 1.369 . S
C911 C912 1.410 . S
C911 C919 1.503 . S
C912 C911 1.410 . S
C912 C913 1.392 . S
C912 C915 1.511 . S
C913 C909 1.376 . S
C913 C912 1.392 . S
C913 H925 0.929 . S
C914 C910 1.531 . S
C914 H926 0.960 . S
C914 H927 0.962 . S
C914 H928 0.960 . S
C915 C912 1.511 . S
C915 H929 0.961 . S
C915 H930 0.961 . S
C915 H931 0.961 . S
C916 C917 1.370 . S
C916 C918 1.363 . S
C916 H932 0.931 . S
C917 C916 1.370 . S
C917 C921 1.408 . S
C918 C916 1.363 . S
C918 C919 1.370 . S
C918 C922 1.524 . S
C919 C911 1.503 . S
C919 C918 1.370 . S
C919 C920 1.403 . S
C920 C919 1.403 . S
C920 C921 1.404 . S
C920 C923 1.539 . S
C921 C917 1.408 . S
C921 C920 1.404 . S
C921 H933 0.930 . S
C922 C918 1.524 . S
C922 H934 0.956 . S
C922 H935 0.961 . S
C922 H936 0.961 . S
C923 C920 1.539 . S
C923 H937 0.958 . S
C923 H938 0.961 . S
C923 H939 0.960 . S
H924 C908 0.931 . S
H925 C913 0.929 . S
H926 C914 0.960 . S
H927 C914 0.962 . S
H928 C914 0.960 . S
H929 C915 0.961 . S
H930 C915 0.961 . S
H931 C915 0.961 . S
H932 C916 0.931 . S
H933 C921 0.930 . S
H934 C922 0.956 . S
H935 C922 0.961 . S
H936 C922 0.961 . S
H937 C923 0.958 . S
H938 C923 0.961 . S
H939 C923 0.960 . S
C940 C941 1.391 . S
C940 C942 1.394 . S
C940 H956 0.931 . S
C941 C940 1.391 . S
C941 C945 1.376 . S
C942 C940 1.394 . S
C942 C943 1.369 . S
C942 C946 1.531 . S
C943 C942 1.369 . S
C943 C944 1.410 . S
C943 C951 1.503 . S
C944 C943 1.410 . S
C944 C945 1.392 . S
C944 C947 1.511 . S
C945 C941 1.376 . S
C945 C944 1.392 . S
C945 H957 0.929 . S
C946 C942 1.531 . S
C946 H958 0.960 . S
C946 H959 0.962 . S
C946 H960 0.960 . S
C947 C944 1.511 . S
C947 H961 0.961 . S
C947 H962 0.961 . S
C947 H963 0.961 . S
C948 C949 1.370 . S
C948 C950 1.363 . S
C948 H964 0.931 . S
C949 C948 1.370 . S
C949 C953 1.408 . S
C950 C948 1.363 . S
C950 C951 1.370 . S
C950 C954 1.524 . S
C951 C943 1.503 . S
C951 C950 1.370 . S
C951 C952 1.403 . S
C952 C951 1.403 . S
C952 C953 1.404 . S
C952 C955 1.539 . S
C953 C949 1.408 . S
C953 C952 1.404 . S
C953 H965 0.930 . S
C954 C950 1.524 . S
C954 H966 0.956 . S
C954 H967 0.961 . S
C954 H968 0.961 . S
C955 C952 1.539 . S
C955 H969 0.958 . S
C955 H970 0.961 . S
C955 H971 0.960 . S
H956 C940 0.931 . S
H957 C945 0.929 . S
H958 C946 0.960 . S
H959 C946 0.962 . S
H960 C946 0.960 . S
H961 C947 0.961 . S
H962 C947 0.961 . S
H963 C947 0.961 . S
H964 C948 0.931 . S
H965 C953 0.930 . S
H966 C954 0.956 . S
H967 C954 0.961 . S
H968 C954 0.961 . S
H969 C955 0.958 . S
H970 C955 0.961 . S
H971 C955 0.960 . S
C972 C973 1.391 . S
C972 C974 1.394 . S
C972 H988 0.931 . S
C973 C972 1.391 . S
C973 C977 1.376 . S
C974 C972 1.394 . S
C974 C975 1.369 . S
C974 C978 1.531 . S
C975 C974 1.369 . S
C975 C976 1.410 . S
C975 C983 1.503 . S
C976 C975 1.410 . S
C976 C977 1.392 . S
C976 C979 1.511 . S
C977 C973 1.376 . S
C977 C976 1.392 . S
C977 H989 0.929 . S
C978 C974 1.531 . S
C978 H990 0.960 . S
C978 H991 0.962 . S
C978 H992 0.960 . S
C979 C976 1.511 . S
C979 H993 0.961 . S
C979 H994 0.961 . S
C979 H995 0.961 . S
C980 C981 1.370 . S
C980 C982 1.363 . S
C980 H996 0.931 . S
C981 C980 1.370 . S
C981 C985 1.408 . S
C982 C980 1.363 . S
C982 C983 1.370 . S
C982 C986 1.524 . S
C983 C975 1.503 . S
C983 C982 1.370 . S
C983 C984 1.403 . S
C984 C983 1.403 . S
C984 C985 1.404 . S
C984 C987 1.539 . S
C985 C981 1.408 . S
C985 C984 1.404 . S
C985 H997 0.930 . S
C986 C982 1.524 . S
C986 H998 0.956 . S
C986 H999 0.961 . S
C986 H1000 0.961 . S
C987 C984 1.539 . S
C987 H1001 0.958 . S
C987 H1002 0.961 . S
C987 H1003 0.960 . S
H988 C972 0.931 . S
H989 C977 0.929 . S
H990 C978 0.960 . S
H991 C978 0.962 . S
H992 C978 0.960 . S
H993 C979 0.961 . S
H994 C979 0.961 . S
H995 C979 0.961 . S
H996 C980 0.931 . S
H997 C985 0.930 . S
H998 C986 0.956 . S
H999 C986 0.961 . S
H1000 C986 0.961 . S
H1001 C987 0.958 . S
H1002 C987 0.961 . S
H1003 C987 0.960 . S
C237 C116 1.412 . S
C245 C168 1.369 . S
C277 C176 1.369 . S
C269 C135 1.418 . S
C309 C180 1.359 . S
C301 C78 1.410 . S
C333 C97 1.442 . S
C341 C156 1.392 . S
C373 C197 1.389 . S
C365 C40 1.465 . S
C405 C231 1.375 . S
C397 C59 1.405 . S
C429 C2 1.460 . S
C437 C219 1.375 . S
C461 C21 1.425 . S
C469 C201 1.359 . S
C501 C155 1.425 . S
C493 C25 1.530 . S
C533 C189 1.398 . S
C525 C6 1.548 . S
C565 C193 1.389 . S
C557 C63 1.534 . S
C597 C171 1.414 . S
C589 C44 1.527 . S
C629 C210 1.428 . S
C621 C101 1.552 . S
C653 C82 1.535 . S
C661 C218 1.394 . S
C693 C234 1.419 . S
C685 C139 1.549 . S
C717 C120 1.530 . S
C725 C214 1.393 . S
C757 C159 1.366 . S
C749 C11 1.388 . S
C789 C177 1.399 . S
C781 C30 1.437 . S
C813 C49 1.390 . S
C821 C192 1.402 . S
C853 C172 1.378 . S
C845 C68 1.409 . S
C885 C198 1.369 . S
C877 C87 1.383 . S
C909 C106 1.384 . S
C917 C222 1.373 . S
C941 C125 1.443 . S
C949 C235 1.406 . S
C973 C144 1.421 . S
C981 C213 1.402 . S
