# Generated by pormake.
# Topology ftw, (4,12)-cn, num edge types: 1
# Building blocks:
#     Node 0, Type 0, BuildingBlock: AZAVOO_clean_linker_0, # of connection points: 4
#     Node 1, Type 0, BuildingBlock: AZAVOO_clean_linker_0, # of connection points: 4
#     Node 2, Type 0, BuildingBlock: AZAVOO_clean_linker_0, # of connection points: 4
#     Node 3, Type 1, BuildingBlock: QEWDON_clean_sbu_0, # of connection points: 12
#     Edge 4, Type (0, 1), BuildingBlock: OJICUG_clean_linker_0, # of connection points: 2
#     Edge 5, Type (0, 1), BuildingBlock: OJICUG_clean_linker_0, # of connection points: 2
#     Edge 6, Type (0, 1), BuildingBlock: OJICUG_clean_linker_0, # of connection points: 2
#     Edge 7, Type (0, 1), BuildingBlock: OJICUG_clean_linker_0, # of connection points: 2
#     Edge 8, Type (0, 1), BuildingBlock: OJICUG_clean_linker_0, # of connection points: 2
#     Edge 9, Type (0, 1), BuildingBlock: OJICUG_clean_linker_0, # of connection points: 2
#     Edge 10, Type (0, 1), BuildingBlock: OJICUG_clean_linker_0, # of connection points: 2
#     Edge 11, Type (0, 1), BuildingBlock: OJICUG_clean_linker_0, # of connection points: 2
#     Edge 12, Type (0, 1), BuildingBlock: OJICUG_clean_linker_0, # of connection points: 2
#     Edge 13, Type (0, 1), BuildingBlock: OJICUG_clean_linker_0, # of connection points: 2
#     Edge 14, Type (0, 1), BuildingBlock: OJICUG_clean_linker_0, # of connection points: 2
#     Edge 15, Type (0, 1), BuildingBlock: OJICUG_clean_linker_0, # of connection points: 2
# Relax obj value: 0.086
# Max RMSD: 0.222
# Mean RMSD: 0.193
data_MOF--net-ftw--node1-QEWDON_clean_sbu_0--node2-AZAVOO_clean_linker_0--edge1-OJICUG_clean_linker_0
_symmetry_space_group_name_H-M    P1
_symmetry_Int_Tables_number       1
_symmetry_cell_setting            triclinic
loop_
_symmetry_equiv_pos_as_xyz
'x, y, z'
_cell_length_a     22.297764
_cell_length_b     22.024822
_cell_length_c     22.624513
_cell_angle_alpha  91.309146
_cell_angle_beta   88.337251
_cell_angle_gamma 91.916773
loop_
_atom_site_label
_atom_site_type_symbol
_atom_site_fract_x
_atom_site_fract_y
_atom_site_fract_z
_atom_type_partial_charge
H0 H 0.01928 0.11052 0.44057 0.0
H1 H 0.91982 0.65147 0.87349 0.0
H2 H 0.09403 0.42161 0.40302 0.0
H3 H 0.08533 0.34594 0.32379 0.0
H4 H 0.91849 0.42294 0.27394 0.0
H5 H 0.92518 0.49478 0.35736 0.0
H6 H 0.07105 0.36048 0.52124 0.0
H7 H 0.06466 0.25188 0.49593 0.0
H8 H 0.89476 0.27678 0.41371 0.0
H9 H 0.90114 0.38504 0.44037 0.0
H10 H 0.06536 0.44198 0.63976 0.0
H11 H 0.04998 0.36875 0.71892 0.0
H12 H 0.87285 0.32305 0.65493 0.0
H13 H 0.88772 0.39848 0.57792 0.0
H14 H 0.08445 0.5783 0.63275 0.0
H15 H 0.07795 0.62223 0.73296 0.0
H16 H 0.88703 0.58031 0.73968 0.0
H17 H 0.89406 0.53739 0.63903 0.0
H18 H 0.106 0.63942 0.51261 0.0
H19 H 0.12969 0.73129 0.57109 0.0
H20 H 0.9423 0.74462 0.62201 0.0
H21 H 0.919 0.65272 0.56308 0.0
H22 H 0.09978 0.56925 0.38258 0.0
H23 H 0.11013 0.64311 0.3034 0.0
H24 H 0.93311 0.70708 0.34817 0.0
H25 H 0.92281 0.63226 0.42687 0.0
O26 O 0.02035 0.15339 0.45105 0.0
O27 O 0.93379 0.16887 0.40823 0.0
O28 O 0.02199 0.65471 0.82811 0.0
O29 O 0.9238 0.63357 0.83415 0.0
C30 C 0.00248 0.48819 0.44813 0.0
C31 C 0.99225 0.44718 0.49521 0.0
C32 C 0.98756 0.46912 0.55414 0.0
C33 C -0.00694 0.53207 0.56626 0.0
C34 C 0.00132 0.57343 0.51925 0.0
C35 C 0.00494 0.55166 0.4599 0.0
C36 C 0.00943 0.46258 0.38701 0.0
C37 C 0.05657 0.42336 0.37373 0.0
C38 C 0.05141 0.37987 0.32809 0.0
C39 C -0.00015 0.37632 0.29355 0.0
C40 C 0.95744 0.42223 0.30134 0.0
C41 C 0.96178 0.4645 0.34822 0.0
C42 C 0.98661 0.38061 0.48258 0.0
C43 C 0.03218 0.34223 0.49837 0.0
C44 C 0.02854 0.28029 0.48358 0.0
C45 C 0.97929 0.25567 0.4526 0.0
C46 C 0.93333 0.29425 0.43752 0.0
C47 C 0.93686 0.35609 0.45266 0.0
C48 C 0.97757 0.42576 0.60324 0.0
C49 C 0.02299 0.41663 0.64341 0.0
C50 C 0.01434 0.37422 0.68819 0.0
C51 C 0.96019 0.33972 0.69335 0.0
C52 C 0.91474 0.34933 0.65298 0.0
C53 C 0.92327 0.39211 0.6086 0.0
C54 C 0.98968 0.55499 0.62858 0.0
C55 C 0.04131 0.57857 0.656 0.0
C56 C 0.03746 0.60357 0.71325 0.0
C57 C 0.9819 0.60493 0.7443 0.0
C58 C 0.93047 0.58011 0.71701 0.0
C59 C 0.93436 0.55535 0.65964 0.0
C60 C 0.01092 0.63901 0.5342 0.0
C61 C 0.06966 0.66386 0.53394 0.0
C62 C 0.08314 0.71625 0.56771 0.0
C63 C 0.038 0.74431 0.60221 0.0
C64 C 0.97813 0.72329 0.59668 0.0
C65 C 0.96464 0.67123 0.56254 0.0
C66 C 0.01063 0.59535 0.41064 0.0
C67 C 0.06307 0.59887 0.37503 0.0
C68 C 0.06899 0.64139 0.33005 0.0
C69 C 0.02252 0.6813 0.31964 0.0
C70 C 0.9695 0.67679 0.35468 0.0
C71 C 0.96375 0.63438 0.39991 0.0
C72 C 0.97619 0.19009 0.43589 0.0
C73 C 0.97737 0.63254 0.8047 0.0
H74 H 0.60292 0.8677 0.13403 0.0
H75 H 0.11326 0.09592 0.56 0.0
H76 H 0.61743 0.89841 0.45096 0.0
H77 H 0.70555 0.89052 0.38534 0.0
H78 H 0.73179 0.08583 0.3931 0.0
H79 H 0.64263 0.09313 0.45851 0.0
H80 H 0.50112 0.89229 0.374 0.0
H81 H 0.53668 0.86482 0.27396 0.0
H82 H 0.61014 0.0475 0.25253 0.0
H83 H 0.57333 0.07461 0.35244 0.0
H84 H 0.36686 0.92461 0.41741 0.0
H85 H 0.29214 0.93323 0.34021 0.0
H86 H 0.37282 0.10685 0.29211 0.0
H87 H 0.44643 0.09817 0.36914 0.0
H88 H 0.36335 0.93794 0.56573 0.0
H89 H 0.25673 0.94757 0.59184 0.0
H90 H 0.25886 0.12173 0.50715 0.0
H91 H 0.36563 0.11191 0.48211 0.0
H92 H 0.47623 0.94726 0.64788 0.0
H93 H 0.42264 0.965 0.74228 0.0
H94 H 0.37755 0.14349 0.68434 0.0
H95 H 0.43508 0.12687 0.59333 0.0
H96 H 0.59782 0.91363 0.57427 0.0
H97 H 0.66922 0.90783 0.6538 0.0
H98 H 0.65638 0.10086 0.6876 0.0
H99 H 0.58489 0.10628 0.60725 0.0
O100 O 0.58815 0.88004 0.17297 0.0
O101 O 0.62983 0.9728 0.16608 0.0
O102 O 0.15689 0.00159 0.594 0.0
O103 O 0.15548 0.09109 0.55058 0.0
C104 C 0.5596 0.00227 0.47764 0.0
C105 C 0.51654 -0.0001 0.43276 0.0
C106 C 0.45552 0.00825 0.44713 0.0
C107 C 0.43704 0.01809 0.50666 0.0
C108 C 0.48002 0.02118 0.55185 0.0
C109 C 0.5415 0.01237 0.53745 0.0
C110 C 0.62367 0.99628 0.45956 0.0
C111 C 0.64392 0.93921 0.44092 0.0
C112 C 0.69418 0.93493 0.40294 0.0
C113 C 0.72514 0.98772 0.38307 0.0
C114 C 0.70829 0.04445 0.4068 0.0
C115 C 0.65804 0.04864 0.44504 0.0
C116 C 0.53506 0.98523 0.37052 0.0
C117 C 0.52442 0.92642 0.34739 0.0
C118 C 0.54497 0.91083 0.29033 0.0
C119 C 0.57662 0.95384 0.25538 0.0
C120 C 0.58619 0.0132 0.27838 0.0
C121 C 0.56526 0.02881 0.33539 0.0
C122 C 0.41175 0.01098 0.39901 0.0
C123 C 0.36839 0.96425 0.38988 0.0
C124 C 0.32614 0.96903 0.34565 0.0
C125 C 0.3265 0.02087 0.31045 0.0
C126 C 0.37101 0.06672 0.319 0.0
C127 C 0.4132 0.06177 0.36277 0.0
C128 C 0.37212 0.0241 0.52186 0.0
C129 C 0.34069 0.97816 0.55296 0.0
C130 C 0.27981 0.98375 0.56775 0.0
C131 C 0.24922 0.0354 0.55145 0.0
C132 C 0.28098 0.08134 0.52027 0.0
C133 C 0.34191 0.07577 0.50571 0.0
C134 C 0.45933 0.03566 0.61356 0.0
C135 C 0.4566 0.99096 0.6568 0.0
C136 C 0.42489 0.00092 0.71038 0.0
C137 C 0.39436 0.05537 0.72121 0.0
C138 C 0.40073 0.10128 0.67886 0.0
C139 C 0.43347 0.09178 0.62619 0.0
C140 C 0.58618 0.01035 0.58486 0.0
C141 C 0.61063 0.95474 0.59861 0.0
C142 C 0.65106 0.95146 0.6444 0.0
C143 C 0.66823 0.00384 0.67734 0.0
C144 C 0.64432 0.05979 0.66287 0.0
C145 C 0.60337 0.06294 0.6172 0.0
C146 C 0.59982 0.93643 0.19543 0.0
C147 C 0.18446 0.04145 0.56676 0.0
H148 H 0.18163 0.1715 0.04666 0.0
H149 H 0.82945 0.30534 0.11872 0.0
H150 H 0.3517 0.48712 0.95855 0.0
H151 H 0.24494 0.4699 0.95318 0.0
H152 H 0.22558 0.50991 0.141 0.0
H153 H 0.33444 0.52274 0.14596 0.0
H154 H 0.35301 0.36633 0.98243 0.0
H155 H 0.27171 0.28954 0.99158 0.0
H156 H 0.28252 0.3018 0.182 0.0
H157 H 0.36415 0.37863 0.17216 0.0
H158 H 0.44588 0.30049 0.99994 0.0
H159 H 0.48089 0.19758 1.00356 0.0
H160 H 0.56592 0.24316 0.16929 0.0
H161 H 0.52313 0.34275 0.16894 0.0
H162 H 0.57592 0.35839 0.98169 0.0
H163 H 0.67154 0.30731 0.9838 0.0
H164 H 0.70951 0.3977 0.15091 0.0
H165 H 0.61314 0.44761 0.14878 0.0
H166 H 0.59208 0.49862 0.95674 0.0
H167 H 0.69054 0.54947 0.944 0.0
H168 H 0.67161 0.62895 0.12005 0.0
H169 H 0.57546 0.57431 0.13348 0.0
H170 H 0.43187 0.57093 0.95053 0.0
H171 H 0.39961 0.67383 0.93698 0.0
H172 H 0.4508 0.72141 0.11583 0.0
H173 H 0.47667 0.61625 0.13038 0.0
O174 O 0.21055 0.20516 0.0444 0.0
O175 O 0.20208 0.2272 0.14073 0.0
O176 O 0.77003 0.28046 0.03038 0.0
O177 O 0.79198 0.32596 0.11619 0.0
C178 C 0.41203 0.48181 0.05971 0.0
C179 C 0.41807 0.4193 0.07054 0.0
C180 C 0.47546 0.39531 0.07426 0.0
C181 C 0.52711 0.43341 0.06587 0.0
C182 C 0.52116 0.49602 0.05592 0.0
C183 C 0.46351 0.52053 0.05303 0.0
C184 C 0.35083 0.50422 0.05286 0.0
C185 C 0.32417 0.49543 0.99798 0.0
C186 C 0.26227 0.48541 0.99523 0.0
C187 C 0.22622 0.48458 0.04753 0.0
C188 C 0.25217 0.5065 0.10034 0.0
C189 C 0.31445 0.51502 0.10325 0.0
C190 C 0.36435 0.37796 0.07665 0.0
C191 C 0.33711 0.35307 0.02611 0.0
C192 C 0.29104 0.30889 0.03143 0.0
C193 C 0.2713 0.28902 0.08748 0.0
C194 C 0.297 0.31596 0.13818 0.0
C195 C 0.34347 0.35985 0.13274 0.0
C196 C 0.48256 0.32946 0.08388 0.0
C197 C 0.46878 0.287 0.03882 0.0
C198 C 0.49024 0.22834 0.04038 0.0
C199 C 0.529 0.21237 0.08517 0.0
C200 C 0.53666 0.25299 0.13368 0.0
C201 C 0.51274 0.31068 0.13338 0.0
C202 C 0.58763 0.40671 0.06507 0.0
C203 C 0.60513 0.36736 0.01854 0.0
C204 C 0.65974 0.3382 0.01989 0.0
C205 C 0.69814 0.34828 0.06765 0.0
C206 C 0.68099 0.38885 0.11354 0.0
C207 C 0.62616 0.41773 0.11228 0.0
C208 C 0.57605 0.53421 0.04543 0.0
C209 C 0.60913 0.52768 0.99216 0.0
C210 C 0.66546 0.55658 0.98513 0.0
C211 C 0.68937 0.59324 0.03106 0.0
C212 C 0.6554 0.60016 0.08412 0.0
C213 C 0.59958 0.57036 0.09141 0.0
C214 C 0.45615 0.5859 0.04154 0.0
C215 C 0.43656 0.60384 0.98654 0.0
C216 C 0.41885 0.66332 0.97873 0.0
C217 C 0.42166 0.70671 0.02552 0.0
C218 C 0.44617 0.68936 0.07915 0.0
C219 C 0.46212 0.62932 0.08738 0.0
C220 C 0.22567 0.23885 0.0927 0.0
C221 C 0.75551 0.31616 0.07002 0.0
Zn222 Zn 0.10173 0.15964 0.9486 0.0
Zn223 Zn 0.06109 0.14644 0.08529 0.0
O224 O 0.06792 0.09934 0.00885 0.0
H225 H 0.04907 0.0601 1.00028 0.0
C226 C 0.92344 0.1589 0.87466 0.0
O227 O 0.96876 0.12936 0.89439 0.0
Zn228 Zn 0.93636 0.87367 0.08834 0.0
Zn229 Zn 0.89724 0.89291 0.95111 0.0
O230 O 0.92276 0.93679 0.027 0.0
H231 H 0.94566 0.97475 0.02661 0.0
Zn232 Zn 0.85195 0.08616 0.96316 0.0
O233 O 0.91029 0.08301 0.03 0.0
Zn234 Zn 0.86293 0.0687 0.10537 0.0
H235 H 0.88633 0.08509 0.9953 0.0
Zn236 Zn 0.14788 0.91848 0.92482 0.0
O237 O 0.09176 0.92901 0.99658 0.0
H238 H 0.04925 0.93578 0.99538 0.0
Zn239 Zn 0.14347 0.94091 0.06701 0.0
C240 C 0.12135 0.89565 0.79707 0.0
O241 O 0.1564 0.94394 0.7886 0.0
O242 O 0.09467 0.24927 0.97572 0.0
O243 O 0.07492 0.23705 0.07167 0.0
O244 O 0.87703 0.80347 0.96722 0.0
O245 O 0.90228 0.79114 0.06056 0.0
O246 O 0.76449 0.08506 0.99479 0.0
O247 O 0.77397 0.077 0.09197 0.0
C248 C 0.14666 0.06511 0.1379 0.0
O249 O 0.23155 0.89195 0.94964 0.0
O250 O 0.22936 0.91829 0.04536 0.0
O251 O 0.8354 0.92894 0.89422 0.0
C252 C 0.08575 0.27135 0.02765 0.0
O253 O 0.18048 0.1401 0.90061 0.0
C254 C 0.8742 0.94843 0.17347 0.0
O255 O 0.87099 0.14796 0.89615 0.0
C256 C 0.87995 0.77046 0.01245 0.0
O257 O 0.11121 0.87722 0.84943 0.0
C258 C 0.94262 0.15531 0.15839 0.0
O259 O 0.12291 0.11695 0.14071 0.0
O260 O 0.13079 0.02786 0.09683 0.0
C261 C 0.74152 0.08262 0.04698 0.0
O262 O 0.89486 0.89572 0.16613 0.0
O263 O 0.88096 0.98471 0.13075 0.0
C264 C 0.06409 0.85997 0.13644 0.0
O265 O 0.88957 0.1329 0.16403 0.0
O266 O 0.97774 0.13075 0.12009 0.0
C267 C 0.25658 0.89621 0.99965 0.0
O268 O 0.11742 0.88126 0.13001 0.0
O269 O 0.02525 0.87785 0.10119 0.0
C270 C 0.84221 0.97349 0.85953 0.0
O271 O 0.89308 0.00534 0.85886 0.0
C272 C 0.20397 0.08825 0.89739 0.0
O273 O 0.17764 0.04252 0.92528 0.0
C274 C 0.03238 0.28705 0.2286 0.0
C275 C 0.98639 0.32114 0.25587 0.0
H276 H 0.05526 0.20671 0.17883 0.0
C277 C 0.92675 0.299 0.25128 0.0
H278 H 0.07893 0.30203 0.23137 0.0
C279 C 0.91336 0.24544 0.21975 0.0
C280 C 0.95911 0.21159 0.1923 0.0
H281 H 0.88999 0.32202 0.27337 0.0
H282 H 0.8667 0.23052 0.21712 0.0
C283 C 0.01887 0.23261 0.19765 0.0
C284 C 0.76837 0.02357 0.28543 0.0
C285 C 0.76972 0.98348 0.333 0.0
H286 H 0.80052 0.04439 0.19781 0.0
C287 C 0.80968 0.93553 0.32933 0.0
H288 H 0.73746 0.06051 0.2864 0.0
C289 C 0.84505 0.92592 0.27826 0.0
C290 C 0.84166 0.96417 0.22956 0.0
H291 H 0.81246 0.90434 0.36541 0.0
H292 H 0.87407 0.88739 0.27647 0.0
C293 C 0.8042 0.01413 0.23433 0.0
C294 C 0.98483 0.74173 0.23505 0.0
C295 C 0.03075 0.72886 0.27396 0.0
H296 H 0.95903 0.79278 0.16069 0.0
C297 C 0.08562 0.76167 0.26886 0.0
H298 H 0.94201 0.71711 0.23775 0.0
C299 C 0.09511 0.80494 0.22523 0.0
C300 C 0.05009 0.81684 0.18506 0.0
H301 H 0.1215 0.75397 0.29881 0.0
H302 H 0.13844 0.82865 0.22272 0.0
C303 C -0.00549 0.78515 0.19087 0.0
C304 C 0.26197 0.98366 0.22619 0.0
C305 C 0.27888 0.0296 0.26723 0.0
H306 H 0.20725 0.95862 0.1526 0.0
C307 C 0.25053 0.08543 0.26652 0.0
H308 H 0.28316 0.9401 0.22581 0.0
C309 C 0.20727 0.09582 0.22512 0.0
C310 C 0.19121 0.05083 0.18274 0.0
H311 H 0.26174 0.12131 0.29827 0.0
H312 H 0.18674 0.1397 0.2263 0.0
C313 C 0.21868 0.99433 0.18408 0.0
C314 C 0.0305 0.78001 0.70772 0.0
C315 C 0.05453 0.78833 0.6502 0.0
H316 H 0.0329 0.80697 0.79905 0.0
C317 C 0.09843 0.83465 0.6408 0.0
H318 H -0.00268 0.7441 0.71663 0.0
C319 C 0.11884 0.87092 0.68823 0.0
C320 C 0.09634 0.86096 0.74607 0.0
H321 H 0.11774 0.84209 0.59697 0.0
H322 H 0.15361 0.90542 0.67983 0.0
C323 C 0.05133 0.8157 0.75511 0.0
C324 C 0.31848 0.01235 0.79575 0.0
C325 C 0.35175 0.06267 0.77315 0.0
H326 H 0.24738 0.98078 0.85417 0.0
C327 C 0.33978 0.12076 0.79722 0.0
H328 H 0.32555 0.96684 0.77852 0.0
C329 C 0.29288 0.12882 0.83872 0.0
C330 C 0.2578 0.07887 0.85868 0.0
H331 H 0.36559 0.16055 0.78301 0.0
H332 H 0.28348 0.17445 0.85443 0.0
C333 C 0.27277 0.02033 0.83869 0.0
C334 C -0.00146 0.2574 0.75658 0.0
C335 C 0.95115 0.29367 0.74033 0.0
H336 H 0.02709 0.18655 0.8116 0.0
C337 C 0.89476 0.28519 0.76899 0.0
H338 H 0.04235 0.26199 0.73491 0.0
C339 C 0.88583 0.24133 0.8123 0.0
C340 C 0.93316 0.20511 0.82846 0.0
H341 H 0.85749 0.31292 0.75847 0.0
H342 H 0.84178 0.23616 0.83341 0.0
C343 C 0.9897 0.21378 0.80029 0.0
C344 C 0.75885 0.04154 0.73359 0.0
C345 C 0.71059 -0.00063 0.72674 0.0
H346 H 0.83842 0.06658 0.78079 0.0
C347 C 0.70407 0.95121 0.76638 0.0
H348 H 0.7652 0.07906 0.70369 0.0
C349 C 0.74568 0.94417 0.81054 0.0
C350 C 0.79529 0.98487 0.81607 0.0
H351 H 0.66685 0.91854 0.76299 0.0
H352 H 0.73961 0.90581 0.83947 0.0
C353 C 0.80092 0.03422 0.77763 0.0
C354 C 0.15783 0.40863 0.09902 0.0
C355 C 0.17023 0.44518 0.04945 0.0
H356 H 0.11984 0.32526 0.13106 0.0
C357 C 0.13849 0.4317 0.99752 0.0
H358 H 0.18043 0.41671 0.14025 0.0
C359 C 0.10517 0.37706 0.99173 0.0
C360 C 0.1009 0.33638 0.03866 0.0
H361 H 0.14409 0.46018 0.95926 0.0
H362 H 0.08691 0.36454 0.94913 0.0
C363 C 0.12299 0.35518 0.09375 0.0
C364 C 0.38571 0.79345 0.96549 0.0
C365 C 0.39192 0.76633 0.02075 0.0
H366 H 0.33814 0.85665 0.91519 0.0
C367 C 0.36237 0.79249 0.07051 0.0
H368 H 0.40937 0.77647 0.9264 0.0
C369 C 0.32338 0.84008 0.0643 0.0
C370 C 0.31164 0.86183 1.00801 0.0
H371 H 0.36518 0.77337 0.11392 0.0
H372 H 0.29828 0.85573 0.10312 0.0
C373 C 0.34546 0.84015 0.95906 0.0
C374 C 0.59905 0.13507 0.12271 0.0
C375 C 0.57122 0.16177 0.07507 0.0
H376 H 0.67591 0.08947 0.1515 0.0
C377 C 0.59308 0.14868 0.01727 0.0
H378 H 0.58234 0.14184 0.1677 0.0
C379 C 0.64528 0.11652 1.00793 0.0
C380 C 0.6778 0.09785 0.05609 0.0
H381 H 0.57377 0.16803 0.97895 0.0
H382 H 0.66294 0.11152 0.96303 0.0
C383 C 0.65244 0.10426 0.1134 0.0
C384 C 0.7629 0.65339 0.96799 0.0
C385 C 0.74759 0.62731 0.02271 0.0
H386 H 0.81881 0.71735 0.92108 0.0
C387 C 0.78549 0.63913 0.07063 0.0
H388 H 0.73512 0.64536 0.92996 0.0
C389 C 0.83332 0.68154 0.0658 0.0
C390 C 0.84434 0.71254 0.01278 0.0
H391 H 0.77635 0.61803 0.11285 0.0
H392 H 0.85867 0.69317 0.10483 0.0
C393 C 0.81108 0.69507 0.96295 0.0
loop_
_geom_bond_atom_site_label_1
_geom_bond_atom_site_label_2
_geom_bond_distance
_geom_bond_site_symmetry_2
_ccdc_geom_bond_type
H0 O26 0.856 . S
H1 O29 0.854 . S
H2 C37 0.930 . S
H3 C38 0.930 . S
H4 C40 0.930 . S
H5 C41 0.930 . S
H6 C43 0.931 . S
H7 C44 0.930 . S
H8 C46 0.930 . S
H9 C47 0.929 . S
H10 C49 0.930 . S
H11 C50 0.931 . S
H12 C52 0.930 . S
H13 C53 0.929 . S
H14 C55 0.931 . S
H15 C56 0.930 . S
H16 C58 0.930 . S
H17 C59 0.932 . S
H18 C61 0.930 . S
H19 C62 0.929 . S
H20 C64 0.931 . S
H21 C65 0.930 . S
H22 C67 0.929 . S
H23 C68 0.931 . S
H24 C70 0.930 . S
H25 C71 0.929 . S
O26 H0 0.856 . S
O26 C72 1.300 1_455 S
O27 C72 1.209 . S
O28 C73 1.199 1_455 S
O29 H1 0.854 . S
O29 C73 1.297 . S
C30 C31 1.404 1_455 S
C30 C35 1.397 . S
C30 C36 1.492 . S
C31 C30 1.404 1_655 S
C31 C32 1.396 . S
C31 C42 1.492 . S
C32 C31 1.396 . S
C32 C33 1.397 . S
C32 C48 1.509 . S
C33 C32 1.397 . S
C33 C34 1.412 1_655 S
C33 C54 1.485 . S
C34 C33 1.412 1_455 S
C34 C35 1.388 . S
C34 C60 1.490 . S
C35 C30 1.397 . S
C35 C34 1.388 . S
C35 C66 1.520 . S
C36 C30 1.492 . S
C36 C37 1.363 . S
C36 C41 1.390 1_455 S
C37 H2 0.930 . S
C37 C36 1.363 . S
C37 C38 1.372 . S
C38 H3 0.930 . S
C38 C37 1.372 . S
C38 C39 1.383 . S
C39 C38 1.383 . S
C39 C40 1.395 1_455 S
C40 H4 0.930 . S
C40 C39 1.395 1_655 S
C40 C41 1.362 . S
C41 H5 0.930 . S
C41 C36 1.390 1_655 S
C41 C40 1.362 . S
C42 C31 1.492 . S
C42 C43 1.377 1_655 S
C42 C47 1.397 . S
C43 H6 0.931 . S
C43 C42 1.377 1_455 S
C43 C44 1.376 . S
C44 H7 0.930 . S
C44 C43 1.376 . S
C44 C45 1.376 1_455 S
C45 C44 1.376 1_655 S
C45 C46 1.378 . S
C45 C72 1.486 . S
C46 H8 0.930 . S
C46 C45 1.378 . S
C46 C47 1.376 . S
C47 H9 0.929 . S
C47 C42 1.397 . S
C47 C46 1.376 . S
C48 C32 1.509 . S
C48 C49 1.391 1_655 S
C48 C53 1.386 . S
C49 H10 0.930 . S
C49 C48 1.391 1_455 S
C49 C50 1.375 . S
C50 H11 0.931 . S
C50 C49 1.375 . S
C50 C51 1.375 1_455 S
C51 C50 1.375 1_655 S
C51 C52 1.361 . S
C52 H12 0.930 . S
C52 C51 1.361 . S
C52 C53 1.399 . S
C53 H13 0.929 . S
C53 C48 1.386 . S
C53 C52 1.399 . S
C54 C33 1.485 . S
C54 C55 1.394 1_655 S
C54 C59 1.360 . S
C55 H14 0.931 . S
C55 C54 1.394 1_455 S
C55 C56 1.372 . S
C56 H15 0.930 . S
C56 C55 1.372 . S
C56 C57 1.397 1_455 S
C57 C56 1.397 1_655 S
C57 C58 1.390 . S
C57 C73 1.476 . S
C58 H16 0.930 . S
C58 C57 1.390 . S
C58 C59 1.366 . S
C59 H17 0.932 . S
C59 C54 1.360 . S
C59 C58 1.366 . S
C60 C34 1.490 . S
C60 C61 1.380 . S
C60 C65 1.386 1_455 S
C61 H18 0.930 . S
C61 C60 1.380 . S
C61 C62 1.381 . S
C62 H19 0.929 . S
C62 C61 1.381 . S
C62 C63 1.371 . S
C63 C62 1.371 . S
C63 C64 1.380 1_455 S
C64 H20 0.931 . S
C64 C63 1.380 1_655 S
C64 C65 1.387 . S
C65 H21 0.930 . S
C65 C60 1.386 1_655 S
C65 C64 1.387 . S
C66 C35 1.520 . S
C66 C67 1.385 . S
C66 C71 1.351 1_455 S
C67 H22 0.929 . S
C67 C66 1.385 . S
C67 C68 1.386 . S
C68 H23 0.931 . S
C68 C67 1.386 . S
C68 C69 1.363 1_455 S
C69 C68 1.363 1_655 S
C69 C70 1.385 . S
C70 H24 0.930 . S
C70 C69 1.385 . S
C70 C71 1.396 . S
C71 H25 0.929 . S
C71 C66 1.351 1_655 S
C71 C70 1.396 . S
C72 O26 1.300 1_655 S
C72 O27 1.209 . S
C72 C45 1.486 . S
C73 O28 1.199 1_655 S
C73 O29 1.297 . S
C73 C57 1.476 . S
H74 O100 0.856 1_545 S
H75 O103 0.854 . S
H76 C111 0.930 . S
H77 C112 0.930 . S
H78 C114 0.930 . S
H79 C115 0.930 . S
H80 C117 0.931 . S
H81 C118 0.930 . S
H82 C120 0.930 . S
H83 C121 0.929 . S
H84 C123 0.930 . S
H85 C124 0.931 . S
H86 C126 0.930 . S
H87 C127 0.929 . S
H88 C129 0.931 . S
H89 C130 0.930 . S
H90 C132 0.930 . S
H91 C133 0.932 . S
H92 C135 0.930 . S
H93 C136 0.929 . S
H94 C138 0.931 . S
H95 C139 0.930 . S
H96 C141 0.929 . S
H97 C142 0.931 . S
H98 C144 0.930 . S
H99 C145 0.929 . S
O100 H74 0.856 1_565 S
O100 C146 1.300 1_565 S
O101 C146 1.209 . S
O102 C147 1.199 1_565 S
O103 H75 0.854 . S
O103 C147 1.297 . S
C104 C105 1.404 . S
C104 C109 1.397 . S
C104 C110 1.492 . S
C105 C104 1.404 . S
C105 C106 1.396 . S
C105 C116 1.492 . S
C106 C105 1.396 . S
C106 C107 1.397 . S
C106 C122 1.509 . S
C107 C106 1.397 . S
C107 C108 1.412 . S
C107 C128 1.485 . S
C108 C107 1.412 . S
C108 C109 1.388 . S
C108 C134 1.490 . S
C109 C104 1.397 . S
C109 C108 1.388 . S
C109 C140 1.519 . S
C110 C104 1.492 . S
C110 C111 1.363 1_545 S
C110 C115 1.390 . S
C111 H76 0.930 . S
C111 C110 1.363 1_565 S
C111 C112 1.372 . S
C112 H77 0.930 . S
C112 C111 1.372 . S
C112 C113 1.383 . S
C113 C112 1.383 . S
C113 C114 1.395 1_565 S
C114 H78 0.930 . S
C114 C113 1.395 1_545 S
C114 C115 1.362 . S
C115 H79 0.930 . S
C115 C110 1.390 . S
C115 C114 1.362 . S
C116 C105 1.492 . S
C116 C117 1.377 1_545 S
C116 C121 1.397 . S
C117 H80 0.931 . S
C117 C116 1.377 1_565 S
C117 C118 1.376 . S
C118 H81 0.930 . S
C118 C117 1.376 . S
C118 C119 1.376 1_565 S
C119 C118 1.376 1_545 S
C119 C120 1.378 . S
C119 C146 1.486 . S
C120 H82 0.930 . S
C120 C119 1.378 . S
C120 C121 1.376 . S
C121 H83 0.929 . S
C121 C116 1.397 . S
C121 C120 1.376 . S
C122 C106 1.509 . S
C122 C123 1.391 1_545 S
C122 C127 1.386 . S
C123 H84 0.930 . S
C123 C122 1.391 1_565 S
C123 C124 1.375 . S
C124 H85 0.931 . S
C124 C123 1.375 . S
C124 C125 1.375 1_565 S
C125 C124 1.375 1_545 S
C125 C126 1.361 . S
C126 H86 0.930 . S
C126 C125 1.361 . S
C126 C127 1.399 . S
C127 H87 0.929 . S
C127 C122 1.386 . S
C127 C126 1.399 . S
C128 C107 1.485 . S
C128 C129 1.394 1_545 S
C128 C133 1.360 . S
C129 H88 0.931 . S
C129 C128 1.394 1_565 S
C129 C130 1.372 . S
C130 H89 0.930 . S
C130 C129 1.372 . S
C130 C131 1.397 1_565 S
C131 C130 1.397 1_545 S
C131 C132 1.390 . S
C131 C147 1.476 . S
C132 H90 0.930 . S
C132 C131 1.390 . S
C132 C133 1.366 . S
C133 H91 0.932 . S
C133 C128 1.360 . S
C133 C132 1.366 . S
C134 C108 1.490 . S
C134 C135 1.380 1_545 S
C134 C139 1.386 . S
C135 H92 0.930 . S
C135 C134 1.380 1_565 S
C135 C136 1.381 . S
C136 H93 0.929 . S
C136 C135 1.381 . S
C136 C137 1.371 . S
C137 C136 1.371 . S
C137 C138 1.380 1_565 S
C138 H94 0.931 . S
C138 C137 1.380 1_545 S
C138 C139 1.387 . S
C139 H95 0.930 . S
C139 C134 1.386 . S
C139 C138 1.387 . S
C140 C109 1.519 . S
C140 C141 1.377 1_545 S
C140 C145 1.361 . S
C141 H96 0.929 . S
C141 C140 1.377 1_565 S
C141 C142 1.386 . S
C142 H97 0.931 . S
C142 C141 1.386 . S
C142 C143 1.363 1_565 S
C143 C142 1.363 1_545 S
C143 C144 1.385 . S
C144 H98 0.930 . S
C144 C143 1.385 . S
C144 C145 1.396 . S
C145 H99 0.929 . S
C145 C140 1.361 . S
C145 C144 1.396 . S
C146 O100 1.300 1_545 S
C146 O101 1.209 . S
C146 C119 1.486 . S
C147 O102 1.199 1_545 S
C147 O103 1.297 . S
C147 C131 1.476 . S
H148 O174 0.856 1_554 S
H149 O177 0.854 . S
H150 C185 0.930 . S
H151 C186 0.930 . S
H152 C188 0.930 . S
H153 C189 0.930 . S
H154 C191 0.931 . S
H155 C192 0.930 . S
H156 C194 0.930 . S
H157 C195 0.929 . S
H158 C197 0.930 . S
H159 C198 0.931 . S
H160 C200 0.930 . S
H161 C201 0.929 . S
H162 C203 0.931 . S
H163 C204 0.930 . S
H164 C206 0.930 . S
H165 C207 0.932 . S
H166 C209 0.930 . S
H167 C210 0.929 . S
H168 C212 0.931 . S
H169 C213 0.930 . S
H170 C215 0.929 . S
H171 C216 0.931 . S
H172 C218 0.930 . S
H173 C219 0.929 . S
O174 H148 0.856 1_556 S
O174 C220 1.300 1_556 S
O175 C220 1.209 . S
O176 C221 1.199 1_556 S
O177 H149 0.854 . S
O177 C221 1.297 . S
C178 C179 1.404 . S
C178 C183 1.397 . S
C178 C184 1.492 . S
C179 C178 1.404 . S
C179 C180 1.396 . S
C179 C190 1.492 . S
C180 C179 1.396 . S
C180 C181 1.397 . S
C180 C196 1.509 . S
C181 C180 1.397 . S
C181 C182 1.412 . S
C181 C202 1.485 . S
C182 C181 1.412 . S
C182 C183 1.388 . S
C182 C208 1.490 . S
C183 C178 1.397 . S
C183 C182 1.388 . S
C183 C214 1.519 . S
C184 C178 1.492 . S
C184 C185 1.363 1_554 S
C184 C189 1.390 . S
C185 H150 0.930 . S
C185 C184 1.363 1_556 S
C185 C186 1.372 . S
C186 H151 0.930 . S
C186 C185 1.372 . S
C186 C187 1.383 . S
C187 C186 1.383 . S
C187 C188 1.395 1_556 S
C188 H152 0.930 . S
C188 C187 1.395 1_554 S
C188 C189 1.362 . S
C189 H153 0.930 . S
C189 C184 1.390 . S
C189 C188 1.362 . S
C190 C179 1.492 . S
C190 C191 1.377 1_554 S
C190 C195 1.397 . S
C191 H154 0.931 . S
C191 C190 1.377 1_556 S
C191 C192 1.376 . S
C192 H155 0.930 . S
C192 C191 1.376 . S
C192 C193 1.376 1_556 S
C193 C192 1.376 1_554 S
C193 C194 1.378 . S
C193 C220 1.486 . S
C194 H156 0.930 . S
C194 C193 1.378 . S
C194 C195 1.376 . S
C195 H157 0.929 . S
C195 C190 1.397 . S
C195 C194 1.376 . S
C196 C180 1.509 . S
C196 C197 1.391 1_554 S
C196 C201 1.386 . S
C197 H158 0.930 . S
C197 C196 1.391 1_556 S
C197 C198 1.375 . S
C198 H159 0.931 . S
C198 C197 1.375 . S
C198 C199 1.375 1_556 S
C199 C198 1.375 1_554 S
C199 C200 1.361 . S
C200 H160 0.930 . S
C200 C199 1.361 . S
C200 C201 1.399 . S
C201 H161 0.929 . S
C201 C196 1.386 . S
C201 C200 1.399 . S
C202 C181 1.485 . S
C202 C203 1.394 1_554 S
C202 C207 1.360 . S
C203 H162 0.931 . S
C203 C202 1.394 1_556 S
C203 C204 1.372 . S
C204 H163 0.930 . S
C204 C203 1.372 . S
C204 C205 1.397 1_556 S
C205 C204 1.397 1_554 S
C205 C206 1.390 . S
C205 C221 1.476 . S
C206 H164 0.930 . S
C206 C205 1.390 . S
C206 C207 1.366 . S
C207 H165 0.932 . S
C207 C202 1.360 . S
C207 C206 1.366 . S
C208 C182 1.490 . S
C208 C209 1.380 1_554 S
C208 C213 1.386 . S
C209 H166 0.930 . S
C209 C208 1.380 1_556 S
C209 C210 1.381 . S
C210 H167 0.929 . S
C210 C209 1.381 . S
C210 C211 1.371 . S
C211 C210 1.371 . S
C211 C212 1.380 1_556 S
C212 H168 0.931 . S
C212 C211 1.380 1_554 S
C212 C213 1.387 . S
C213 H169 0.930 . S
C213 C208 1.386 . S
C213 C212 1.387 . S
C214 C183 1.519 . S
C214 C215 1.377 1_554 S
C214 C219 1.361 . S
C215 H170 0.929 . S
C215 C214 1.377 1_556 S
C215 C216 1.386 . S
C216 H171 0.931 . S
C216 C215 1.386 . S
C216 C217 1.363 1_556 S
C217 C216 1.363 1_554 S
C217 C218 1.385 . S
C218 H172 0.930 . S
C218 C217 1.385 . S
C218 C219 1.396 . S
C219 H173 0.929 . S
C219 C214 1.361 . S
C219 C218 1.396 . S
C220 O174 1.300 1_554 S
C220 O175 1.209 . S
C220 C193 1.486 . S
C221 O176 1.199 1_554 S
C221 O177 1.297 . S
C221 C205 1.476 . S
Zn222 O224 1.933 1_556 S
Zn222 O242 1.985 . S
Zn222 O253 1.955 . S
Zn223 O224 1.911 . S
Zn223 O243 1.970 . S
Zn223 O259 1.945 . S
Zn223 O266 1.981 . S
O224 Zn222 1.933 1_554 S
O224 Zn223 1.911 . S
O224 H225 0.841 . S
H225 O224 0.841 . S
C226 O227 1.246 . S
C226 O255 1.276 1_455 S
O227 C226 1.246 . S
Zn228 O230 1.911 . S
Zn228 O245 1.970 . S
Zn228 O262 1.945 . S
Zn228 O269 1.981 . S
Zn229 O230 1.933 1_556 S
Zn229 O244 1.985 . S
Zn229 O251 1.955 . S
O230 Zn228 1.911 . S
O230 Zn229 1.933 1_554 S
O230 H231 0.841 . S
H231 O230 0.841 . S
Zn232 O233 1.933 1_556 S
Zn232 O246 1.985 . S
Zn232 O255 1.955 . S
O233 Zn232 1.933 1_554 S
O233 Zn234 1.911 . S
O233 H235 0.841 . S
Zn234 O233 1.911 . S
Zn234 O247 1.970 . S
Zn234 O263 1.981 . S
Zn234 O265 1.945 . S
H235 O233 0.841 . S
Zn236 O237 1.933 1_556 S
Zn236 O249 1.985 . S
Zn236 O257 1.955 . S
O237 Zn236 1.933 1_554 S
O237 H238 0.841 . S
O237 Zn239 1.911 . S
H238 O237 0.841 . S
Zn239 O237 1.911 . S
Zn239 O250 1.970 . S
Zn239 O260 1.981 . S
Zn239 O268 1.945 . S
C240 O241 1.246 . S
C240 O257 1.276 1_655 S
O241 C240 1.246 . S
O242 Zn222 1.985 . S
O242 C252 1.245 1_556 S
O243 Zn223 1.970 . S
O243 C252 1.263 . S
O244 Zn229 1.985 . S
O244 C256 1.245 1_556 S
O245 Zn228 1.970 . S
O245 C256 1.263 . S
O246 Zn232 1.985 . S
O246 C261 1.245 1_556 S
O247 Zn234 1.970 . S
O247 C261 1.263 . S
C248 O259 1.262 . S
C248 O260 1.245 1_545 S
O249 Zn236 1.985 . S
O249 C267 1.245 1_556 S
O250 Zn239 1.970 . S
O250 C267 1.263 . S
O251 Zn229 1.955 . S
O251 C270 1.276 1_565 S
C252 O242 1.245 1_554 S
C252 O243 1.263 . S
O253 Zn222 1.955 . S
O253 C272 1.276 . S
C254 O262 1.262 1_545 S
C254 O263 1.245 . S
O255 C226 1.276 1_655 S
O255 Zn232 1.955 . S
C256 O244 1.245 1_554 S
C256 O245 1.263 . S
O257 Zn236 1.955 . S
O257 C240 1.276 1_455 S
C258 O265 1.262 1_455 S
C258 O266 1.245 . S
O259 Zn223 1.945 . S
O259 C248 1.262 . S
O260 Zn239 1.981 . S
O260 C248 1.245 1_565 S
C261 O246 1.245 1_554 S
C261 O247 1.263 . S
O262 Zn228 1.945 . S
O262 C254 1.262 1_565 S
O263 Zn234 1.981 . S
O263 C254 1.245 . S
C264 O268 1.262 1_655 S
C264 O269 1.245 . S
O265 Zn234 1.945 . S
O265 C258 1.262 1_655 S
O266 Zn223 1.981 . S
O266 C258 1.245 . S
C267 O249 1.245 1_554 S
C267 O250 1.263 . S
O268 Zn239 1.945 . S
O268 C264 1.262 1_455 S
O269 Zn228 1.981 . S
O269 C264 1.245 . S
C270 O251 1.276 1_545 S
C270 O271 1.246 . S
O271 C270 1.246 . S
C272 O253 1.276 . S
C272 O273 1.246 1_545 S
O273 C272 1.246 1_565 S
C274 C275 1.387 . S
C274 H278 0.950 . S
C274 C283 1.390 . S
C275 C274 1.387 . S
C275 C277 1.387 1_455 S
H276 C283 0.950 . S
C277 C275 1.387 1_655 S
C277 C279 1.390 . S
C277 H281 0.950 . S
H278 C274 0.950 . S
C279 C277 1.390 . S
C279 C280 1.387 1_655 S
C279 H282 0.950 . S
C280 C279 1.387 1_455 S
C280 C283 1.387 . S
H281 C277 0.950 . S
H282 C279 0.950 . S
C283 C274 1.390 . S
C283 H276 0.950 . S
C283 C280 1.387 . S
C284 C285 1.387 1_545 S
C284 H288 0.950 . S
C284 C293 1.390 . S
C285 C284 1.387 1_565 S
C285 C287 1.387 . S
H286 C293 0.950 . S
C287 C285 1.387 . S
C287 C289 1.390 . S
C287 H291 0.950 . S
H288 C284 0.950 . S
C289 C287 1.390 . S
C289 C290 1.387 1_565 S
C289 H292 0.950 . S
C290 C289 1.387 1_545 S
C290 C293 1.387 . S
H291 C287 0.950 . S
H292 C289 0.950 . S
C293 C284 1.390 . S
C293 H286 0.950 . S
C293 C290 1.387 . S
C294 C295 1.387 . S
C294 H298 0.950 . S
C294 C303 1.390 . S
C295 C294 1.387 . S
C295 C297 1.385 1_655 S
H296 C303 0.950 . S
C297 C295 1.385 1_455 S
C297 C299 1.389 1_455 S
C297 H301 0.953 . S
H298 C294 0.950 . S
C299 C297 1.389 1_655 S
C299 C300 1.391 . S
C299 H302 0.947 1_655 S
C300 C299 1.391 . S
C300 C303 1.387 . S
H301 C297 0.953 . S
H302 C299 0.947 1_455 S
C303 C294 1.390 . S
C303 H296 0.950 . S
C303 C300 1.387 . S
C304 C305 1.387 1_565 S
C304 H308 0.950 . S
C304 C313 1.390 . S
C305 C304 1.387 1_545 S
C305 C307 1.387 . S
H306 C313 0.950 . S
C307 C305 1.387 . S
C307 C309 1.390 . S
C307 H311 0.950 . S
H308 C304 0.950 . S
C309 C307 1.390 . S
C309 C310 1.387 . S
C309 H312 0.950 . S
C310 C309 1.387 . S
C310 C313 1.387 1_545 S
H311 C307 0.950 . S
H312 C309 0.950 . S
C313 C304 1.390 . S
C313 H306 0.950 . S
C313 C310 1.387 1_565 S
C314 C315 1.387 . S
C314 H318 0.950 1_455 S
C314 C323 1.390 1_455 S
C315 C314 1.387 . S
C315 C317 1.387 . S
H316 C323 0.950 . S
C317 C315 1.387 . S
C317 C319 1.390 . S
C317 H321 0.950 . S
H318 C314 0.950 1_655 S
C319 C317 1.390 . S
C319 C320 1.387 1_455 S
C319 H322 0.950 . S
C320 C319 1.387 1_655 S
C320 C323 1.387 . S
H321 C317 0.950 . S
H322 C319 0.950 . S
C323 C314 1.390 1_655 S
C323 H316 0.950 . S
C323 C320 1.387 . S
C324 C325 1.387 . S
C324 H328 0.950 . S
C324 C333 1.390 . S
C325 C324 1.387 . S
C325 C327 1.387 1_565 S
H326 C333 0.950 . S
C327 C325 1.387 1_545 S
C327 C329 1.390 . S
C327 H331 0.950 . S
H328 C324 0.950 . S
C329 C327 1.390 . S
C329 C330 1.387 1_545 S
C329 H332 0.950 . S
C330 C329 1.387 1_565 S
C330 C333 1.387 . S
H331 C327 0.950 . S
H332 C329 0.950 . S
C333 C324 1.390 . S
C333 H326 0.950 . S
C333 C330 1.387 . S
C334 C335 1.387 1_455 S
C334 H338 0.950 . S
C334 C343 1.390 . S
C335 C334 1.387 1_655 S
C335 C337 1.387 . S
H336 C343 0.950 . S
C337 C335 1.387 . S
C337 C339 1.390 . S
C337 H341 0.950 . S
H338 C334 0.950 . S
C339 C337 1.390 . S
C339 C340 1.387 1_655 S
C339 H342 0.950 . S
C340 C339 1.387 1_455 S
C340 C343 1.387 . S
H341 C337 0.950 . S
H342 C339 0.950 . S
C343 C334 1.390 . S
C343 H336 0.950 . S
C343 C340 1.387 . S
C344 C345 1.387 . S
C344 H348 0.950 . S
C344 C353 1.390 . S
C345 C344 1.387 . S
C345 C347 1.387 1_545 S
H346 C353 0.950 . S
C347 C345 1.387 1_565 S
C347 C349 1.390 . S
C347 H351 0.950 . S
H348 C344 0.950 . S
C349 C347 1.390 . S
C349 C350 1.387 1_565 S
C349 H352 0.950 . S
C350 C349 1.387 1_545 S
C350 C353 1.387 . S
H351 C347 0.950 . S
H352 C349 0.950 . S
C353 C344 1.390 . S
C353 H346 0.950 . S
C353 C350 1.387 . S
C354 C355 1.387 1_554 S
C354 H358 0.950 . S
C354 C363 1.390 . S
C355 C354 1.387 1_556 S
C355 C357 1.387 . S
H356 C363 0.950 . S
C357 C355 1.387 . S
C357 C359 1.390 . S
C357 H361 0.950 . S
H358 C354 0.950 . S
C359 C357 1.390 . S
C359 C360 1.387 1_556 S
C359 H362 0.950 . S
C360 C359 1.387 1_554 S
C360 C363 1.387 . S
H361 C357 0.950 . S
H362 C359 0.950 . S
C363 C354 1.390 . S
C363 H356 0.950 . S
C363 C360 1.387 . S
C364 C365 1.387 1_556 S
C364 H368 0.950 . S
C364 C373 1.390 . S
C365 C364 1.387 1_554 S
C365 C367 1.387 . S
H366 C373 0.950 . S
C367 C365 1.387 . S
C367 C369 1.390 . S
C367 H371 0.950 . S
H368 C364 0.950 . S
C369 C367 1.390 . S
C369 C370 1.387 . S
C369 H372 0.950 . S
C370 C369 1.387 . S
C370 C373 1.387 1_554 S
H371 C367 0.950 . S
H372 C369 0.950 . S
C373 C364 1.390 . S
C373 H366 0.950 . S
C373 C370 1.387 1_556 S
C374 C375 1.387 . S
C374 H378 0.950 . S
C374 C383 1.390 . S
C375 C374 1.387 . S
C375 C377 1.387 1_554 S
H376 C383 0.950 . S
C377 C375 1.387 1_556 S
C377 C379 1.390 . S
C377 H381 0.950 . S
H378 C374 0.950 . S
C379 C377 1.390 . S
C379 C380 1.387 1_556 S
C379 H382 0.950 . S
C380 C379 1.387 1_554 S
C380 C383 1.387 . S
H381 C377 0.950 . S
H382 C379 0.950 . S
C383 C374 1.390 . S
C383 H376 0.950 . S
C383 C380 1.387 . S
C384 C385 1.387 . S
C384 H388 0.950 . S
C384 C393 1.390 . S
C385 C384 1.387 . S
C385 C387 1.387 1_556 S
H386 C393 0.950 . S
C387 C385 1.387 1_554 S
C387 C389 1.390 . S
C387 H391 0.950 . S
H388 C384 0.950 . S
C389 C387 1.390 . S
C389 C390 1.387 . S
C389 H392 0.950 . S
C390 C389 1.387 . S
C390 C393 1.387 1_554 S
H391 C387 0.950 . S
H392 C389 0.950 . S
C393 C384 1.390 . S
C393 H386 0.950 . S
C393 C390 1.387 1_556 S
C280 C258 1.798 . S
C275 C39 1.792 . S
C290 C254 2.000 . S
C285 C113 1.868 . S
C300 C264 2.069 . S
C295 C69 2.175 . S
C310 C248 1.027 . S
C305 C125 1.090 . S
C315 C63 1.915 . S
C320 C240 2.003 . S
C330 C272 1.866 1_565 S
C325 C137 1.898 . S
C335 C51 1.218 . S
C340 C226 1.109 . S
C345 C143 2.282 . S
C350 C270 2.172 . S
C355 C187 1.169 . S
C360 C252 1.308 . S
C365 C217 1.603 . S
C370 C267 1.561 . S
C380 C261 0.574 . S
C375 C199 0.532 . S
C390 C256 1.416 . S
C385 C211 1.366 . S
