# Generated by pormake.
# Topology wbl, (4,4)-cn, num edge types: 1
# Building blocks:
#     Node 0, Type 0, BuildingBlock: NAWXER_clean_linker_0, # of connection points: 4
#     Node 1, Type 0, BuildingBlock: NAWXER_clean_linker_0, # of connection points: 4
#     Node 2, Type 0, BuildingBlock: NAWXER_clean_linker_0, # of connection points: 4
#     Node 3, Type 0, BuildingBlock: NAWXER_clean_linker_0, # of connection points: 4
#     Node 4, Type 0, BuildingBlock: NAWXER_clean_linker_0, # of connection points: 4
#     Node 5, Type 0, BuildingBlock: NAWXER_clean_linker_0, # of connection points: 4
#     Node 6, Type 0, BuildingBlock: NAWXER_clean_linker_0, # of connection points: 4
#     Node 7, Type 0, BuildingBlock: NAWXER_clean_linker_0, # of connection points: 4
#     Node 8, Type 1, BuildingBlock: NAHDIM_clean_sbu_0, # of connection points: 4
#     Node 9, Type 1, BuildingBlock: NAHDIM_clean_sbu_0, # of connection points: 4
#     Node 10, Type 1, BuildingBlock: NAHDIM_clean_sbu_0, # of connection points: 4
#     Node 11, Type 1, BuildingBlock: NAHDIM_clean_sbu_0, # of connection points: 4
#     Node 12, Type 1, BuildingBlock: NAHDIM_clean_sbu_0, # of connection points: 4
#     Node 13, Type 1, BuildingBlock: NAHDIM_clean_sbu_0, # of connection points: 4
#     Node 14, Type 1, BuildingBlock: NAHDIM_clean_sbu_0, # of connection points: 4
#     Node 15, Type 1, BuildingBlock: NAHDIM_clean_sbu_0, # of connection points: 4
#     Edge 16, Type (0, 1), BuildingBlock: AJUNOK_clean_linker_0, # of connection points: 2
#     Edge 17, Type (0, 1), BuildingBlock: AJUNOK_clean_linker_0, # of connection points: 2
#     Edge 18, Type (0, 1), BuildingBlock: AJUNOK_clean_linker_0, # of connection points: 2
#     Edge 19, Type (0, 1), BuildingBlock: AJUNOK_clean_linker_0, # of connection points: 2
#     Edge 20, Type (0, 1), BuildingBlock: AJUNOK_clean_linker_0, # of connection points: 2
#     Edge 21, Type (0, 1), BuildingBlock: AJUNOK_clean_linker_0, # of connection points: 2
#     Edge 22, Type (0, 1), BuildingBlock: AJUNOK_clean_linker_0, # of connection points: 2
#     Edge 23, Type (0, 1), BuildingBlock: AJUNOK_clean_linker_0, # of connection points: 2
#     Edge 24, Type (0, 1), BuildingBlock: AJUNOK_clean_linker_0, # of connection points: 2
#     Edge 25, Type (0, 1), BuildingBlock: AJUNOK_clean_linker_0, # of connection points: 2
#     Edge 26, Type (0, 1), BuildingBlock: AJUNOK_clean_linker_0, # of connection points: 2
#     Edge 27, Type (0, 1), BuildingBlock: AJUNOK_clean_linker_0, # of connection points: 2
#     Edge 28, Type (0, 1), BuildingBlock: AJUNOK_clean_linker_0, # of connection points: 2
#     Edge 29, Type (0, 1), BuildingBlock: AJUNOK_clean_linker_0, # of connection points: 2
#     Edge 30, Type (0, 1), BuildingBlock: AJUNOK_clean_linker_0, # of connection points: 2
#     Edge 31, Type (0, 1), BuildingBlock: AJUNOK_clean_linker_0, # of connection points: 2
#     Edge 32, Type (0, 1), BuildingBlock: AJUNOK_clean_linker_0, # of connection points: 2
#     Edge 33, Type (0, 1), BuildingBlock: AJUNOK_clean_linker_0, # of connection points: 2
#     Edge 34, Type (0, 1), BuildingBlock: AJUNOK_clean_linker_0, # of connection points: 2
#     Edge 35, Type (0, 1), BuildingBlock: AJUNOK_clean_linker_0, # of connection points: 2
#     Edge 36, Type (0, 1), BuildingBlock: AJUNOK_clean_linker_0, # of connection points: 2
#     Edge 37, Type (0, 1), BuildingBlock: AJUNOK_clean_linker_0, # of connection points: 2
#     Edge 38, Type (0, 1), BuildingBlock: AJUNOK_clean_linker_0, # of connection points: 2
#     Edge 39, Type (0, 1), BuildingBlock: AJUNOK_clean_linker_0, # of connection points: 2
#     Edge 40, Type (0, 1), BuildingBlock: AJUNOK_clean_linker_0, # of connection points: 2
#     Edge 41, Type (0, 1), BuildingBlock: AJUNOK_clean_linker_0, # of connection points: 2
#     Edge 42, Type (0, 1), BuildingBlock: AJUNOK_clean_linker_0, # of connection points: 2
#     Edge 43, Type (0, 1), BuildingBlock: AJUNOK_clean_linker_0, # of connection points: 2
#     Edge 44, Type (0, 1), BuildingBlock: AJUNOK_clean_linker_0, # of connection points: 2
#     Edge 45, Type (0, 1), BuildingBlock: AJUNOK_clean_linker_0, # of connection points: 2
#     Edge 46, Type (0, 1), BuildingBlock: AJUNOK_clean_linker_0, # of connection points: 2
#     Edge 47, Type (0, 1), BuildingBlock: AJUNOK_clean_linker_0, # of connection points: 2
# Relax obj value: 0.155
# Max RMSD: 0.154
# Mean RMSD: 0.138
data_MOF--net-wbl--node1-NAHDIM_clean_sbu_0--node2-NAWXER_clean_linker_0--edge1-AJUNOK_clean_linker_0
_symmetry_space_group_name_H-M    P1
_symmetry_Int_Tables_number       1
_symmetry_cell_setting            triclinic
loop_
_symmetry_equiv_pos_as_xyz
'x, y, z'
_cell_length_a     36.204439
_cell_length_b     34.98571
_cell_length_c     59.719624
_cell_angle_alpha  89.944905
_cell_angle_beta   89.993633
_cell_angle_gamma 89.996484
loop_
_atom_site_label
_atom_site_type_symbol
_atom_site_fract_x
_atom_site_fract_y
_atom_site_fract_z
_atom_type_partial_charge
C0 C 0.07813 0.89174 0.38006 0.0
C1 C 0.10296 0.90905 0.39498 0.0
C2 C 0.05562 0.91416 0.3663 0.0
C3 C 0.05737 0.95425 0.36741 0.0
C4 C 0.10497 0.94911 0.39591 0.0
C5 C 0.0821 0.97153 0.38238 0.0
C6 C 0.03164 0.9781 0.3542 0.0
C7 C 0.11289 0.93341 0.3043 0.0
C8 C 0.09823 0.90509 0.29027 0.0
C9 C 0.08965 0.95535 0.31773 0.0
C10 C 0.05132 0.94949 0.31722 0.0
C11 C 0.05994 0.89902 0.28975 0.0
C12 C 0.03653 0.92149 0.30297 0.0
C13 C 0.02683 0.97373 0.33092 0.0
C14 C 0.91632 0.09974 0.31008 0.0
C15 C 0.8937 0.07968 0.29499 0.0
C16 C 0.94492 0.08099 0.32136 0.0
C17 C 0.95059 0.04155 0.31837 0.0
C18 C 0.90101 0.04081 0.29099 0.0
C19 C 0.9291 0.02197 0.30257 0.0
C20 C 0.97864 0.02019 0.33146 0.0
C21 C 0.89998 0.06903 0.38263 0.0
C22 C 0.91653 0.09612 0.39682 0.0
C23 C 0.92169 0.04596 0.36879 0.0
C24 C 0.9603 0.04971 0.36885 0.0
C25 C 0.95521 0.09947 0.39701 0.0
C26 C 0.97689 0.07633 0.38322 0.0
C27 C 0.9837 0.02476 0.35482 0.0
H28 H 0.07599 0.86089 0.37919 0.0
H29 H 0.03615 0.9002 0.35523 0.0
H30 H 0.12355 0.96304 0.40755 0.0
H31 H 0.08357 0.00238 0.38367 0.0
H32 H 0.14241 0.93844 0.30489 0.0
H33 H 0.10155 0.97726 0.32832 0.0
H34 H 0.04823 0.87733 0.27894 0.0
H35 H 0.00698 0.91681 0.30225 0.0
H36 H 0.91122 0.12957 0.31375 0.0
H37 H 0.96206 0.09723 0.33276 0.0
H38 H 0.88443 0.0247 0.27921 0.0
H39 H 0.93332 0.99172 0.29962 0.0
H40 H 0.87032 0.06503 0.38261 0.0
H41 H 0.90837 0.02484 0.35829 0.0
H42 H 0.96868 0.12001 0.40784 0.0
H43 H 0.00667 0.07937 0.38367 0.0
N44 N 0.0101 0.00365 0.36524 0.0
N45 N 0.0004 0.99471 0.32043 0.0
C46 C 0.88623 0.45284 0.6292 0.0
C47 C 0.8989 0.43122 0.64747 0.0
C48 C 0.91139 0.46846 0.61393 0.0
C49 C 0.94953 0.4627 0.6168 0.0
C50 C 0.93698 0.42528 0.65018 0.0
C51 C 0.96208 0.44119 0.63511 0.0
C52 C 0.97673 0.48074 0.60167 0.0
C53 C 0.92048 0.38975 0.56252 0.0
C54 C 0.90149 0.40216 0.54337 0.0
C55 C 0.94454 0.41426 0.5737 0.0
C56 C 0.94946 0.45204 0.56628 0.0
C57 C 0.90728 0.43944 0.5354 0.0
C58 C 0.93106 0.46426 0.54682 0.0
C59 C 0.9753 0.47796 0.57809 0.0
C60 C 0.11588 0.55946 0.55094 0.0
C61 C 0.10185 0.58719 0.53616 0.0
C62 C 0.09184 0.53597 0.56304 0.0
C63 C 0.05345 0.53996 0.56055 0.0
C64 C 0.06353 0.5891 0.53254 0.0
C65 C 0.03955 0.56553 0.54456 0.0
C66 C 0.02753 0.51939 0.57535 0.0
C67 C 0.08904 0.60367 0.61956 0.0
C68 C 0.10474 0.58773 0.639 0.0
C69 C 0.06508 0.58218 0.60618 0.0
C70 C 0.05722 0.54391 0.61159 0.0
C71 C 0.09653 0.54956 0.64443 0.0
C72 C 0.0733 0.52789 0.63082 0.0
C73 C 0.02953 0.52124 0.59898 0.0
H74 H 0.85694 0.45764 0.62676 0.0
H75 H 0.90115 0.48554 0.60013 0.0
H76 H 0.94737 0.4089 0.66424 0.0
H77 H 0.99137 0.43666 0.63772 0.0
H78 H 0.91734 0.36072 0.56856 0.0
H79 H 0.95971 0.40337 0.58796 0.0
H80 H 0.89328 0.44936 0.52046 0.0
H81 H 0.93497 0.49303 0.54053 0.0
H82 H 0.14535 0.55674 0.55362 0.0
H83 H 0.10313 0.51566 0.57491 0.0
H84 H 0.05195 0.6102 0.52127 0.0
H85 H 0.01003 0.56873 0.54225 0.0
H86 H 0.09457 0.63308 0.61498 0.0
H87 H 0.05193 0.59594 0.59203 0.0
H88 H 0.10688 0.53673 0.65969 0.0
H89 H 0.06714 0.49872 0.63565 0.0
N90 N 0.00399 0.50183 0.61112 0.0
N91 N 0.00045 0.49787 0.5658 0.0
C92 C 0.5709 0.39203 0.87388 0.0
C93 C 0.59111 0.4077 0.89173 0.0
C94 C 0.5509 0.41579 0.85947 0.0
C95 C 0.55129 0.45566 0.86246 0.0
C96 C 0.59119 0.44748 0.89481 0.0
C97 C 0.57143 0.47121 0.88034 0.0
C98 C 0.52903 0.48128 0.84804 0.0
C99 C 0.61391 0.42718 0.8051 0.0
C100 C 0.59989 0.40351 0.78818 0.0
C101 C 0.59071 0.45227 0.81647 0.0
C102 C 0.5528 0.45344 0.81154 0.0
C103 C 0.56241 0.40595 0.78237 0.0
C104 C 0.53895 0.43076 0.79404 0.0
C105 C 0.52788 0.47871 0.82442 0.0
C106 C 0.433 0.61488 0.79981 0.0
C107 C 0.40886 0.59769 0.7844 0.0
C108 C 0.45777 0.59261 0.81214 0.0
C109 C 0.45839 0.5527 0.80952 0.0
C110 C 0.41054 0.55792 0.78121 0.0
C111 C 0.43528 0.53569 0.79354 0.0
C112 C 0.48268 0.52835 0.82341 0.0
C113 C 0.40117 0.57845 0.87349 0.0
C114 C 0.41799 0.60028 0.8904 0.0
C115 C 0.42275 0.55712 0.85862 0.0
C116 C 0.46144 0.55768 0.86032 0.0
C117 C 0.45671 0.60196 0.89145 0.0
C118 C 0.4782 0.58056 0.87668 0.0
C119 C 0.48458 0.53148 0.84695 0.0
H120 H 0.56977 0.36137 0.87146 0.0
H121 H 0.53459 0.40295 0.84627 0.0
H122 H 0.60655 0.46022 0.90847 0.0
H123 H 0.57187 0.50181 0.88312 0.0
H124 H 0.64298 0.42644 0.80941 0.0
H125 H 0.60242 0.47062 0.82922 0.0
H126 H 0.55125 0.38824 0.76913 0.0
H127 H 0.50991 0.43171 0.7897 0.0
H128 H 0.43237 0.64549 0.8025 0.0
H129 H 0.4761 0.60651 0.82393 0.0
H130 H 0.39174 0.54377 0.76981 0.0
H131 H 0.43544 0.50498 0.79117 0.0
H132 H 0.37136 0.5766 0.87239 0.0
H133 H 0.40919 0.53903 0.84642 0.0
H134 H 0.47036 0.61918 0.90404 0.0
H135 H 0.50801 0.58132 0.87831 0.0
N136 N 0.50765 0.50785 0.85829 0.0
N137 N 0.50438 0.50201 0.81302 0.0
C138 C 0.41902 0.8742 0.06585 0.0
C139 C 0.39448 0.88874 0.04981 0.0
C140 C 0.44674 0.8973 0.07468 0.0
C141 C 0.44983 0.9357 0.06805 0.0
C142 C 0.39885 0.92634 0.04207 0.0
C143 C 0.42637 0.94977 0.0512 0.0
C144 C 0.47669 0.96126 0.07923 0.0
C145 C 0.39312 0.9329 0.13299 0.0
C146 C 0.40737 0.90923 0.14989 0.0
C147 C 0.41673 0.94944 0.1172 0.0
C148 C 0.45496 0.94276 0.11824 0.0
C149 C 0.44553 0.9022 0.15074 0.0
C150 C 0.46919 0.91915 0.13515 0.0
C151 C 0.48039 0.96252 0.10273 0.0
C152 C 0.57108 0.09837 0.12279 0.0
C153 C 0.59442 0.08335 0.13943 0.0
C154 C 0.55075 0.07396 0.10895 0.0
C155 C 0.55365 0.03416 0.11149 0.0
C156 C 0.59773 0.04352 0.14161 0.0
C157 C 0.57742 0.01919 0.12782 0.0
C158 C 0.52892 0.00804 0.09919 0.0
C159 C 0.6027 0.06787 0.05131 0.0
C160 C 0.58436 0.08697 0.0338 0.0
C161 C 0.58442 0.04008 0.06398 0.0
C162 C 0.54679 0.03231 0.06027 0.0
C163 C 0.54783 0.07628 0.02872 0.0
C164 C 0.52921 0.04952 0.0419 0.0
C165 C 0.52501 0.00744 0.07558 0.0
H166 H 0.4166 0.84493 0.07163 0.0
H167 H 0.46537 0.88528 0.087 0.0
H168 H 0.38039 0.93781 0.02947 0.0
H169 H 0.42859 0.97915 0.04562 0.0
H170 H 0.36378 0.93886 0.13215 0.0
H171 H 0.40528 0.96817 0.10453 0.0
H172 H 0.45714 0.88449 0.16386 0.0
H173 H 0.49864 0.91403 0.13636 0.0
H174 H 0.56784 0.12899 0.1209 0.0
H175 H 0.53188 0.08613 0.09681 0.0
H176 H 0.61474 0.03116 0.15467 0.0
H177 H 0.57952 0.98857 0.1303 0.0
H178 H 0.63061 0.07547 0.056 0.0
H179 H 0.59949 0.02575 0.07719 0.0
H180 H 0.5331 0.08966 0.01502 0.0
H181 H 0.5005 0.04345 0.03822 0.0
N182 N 0.49887 0.98403 0.06653 0.0
N183 N 0.50657 0.98547 0.11174 0.0
C184 C 0.08168 0.59133 0.88367 0.0
C185 C 0.09743 0.57625 0.86405 0.0
C186 C 0.06046 0.56824 0.8978 0.0
C187 C 0.05551 0.52922 0.89301 0.0
C188 C 0.09174 0.53743 0.85904 0.0
C189 C 0.07128 0.51417 0.87343 0.0
C190 C 0.03107 0.50467 0.90689 0.0
C191 C 0.1203 0.54623 0.95117 0.0
C192 C 0.10852 0.57195 0.96772 0.0
C193 C 0.09477 0.52382 0.93966 0.0
C194 C 0.05683 0.52733 0.94413 0.0
C195 C 0.07077 0.57413 0.97302 0.0
C196 C 0.04509 0.55184 0.96133 0.0
C197 C 0.0296 0.50594 0.93057 0.0
C198 C 0.91282 0.38495 0.94995 0.0
C199 C 0.89033 0.40559 0.96483 0.0
C200 C 0.9429 0.40258 0.93951 0.0
C201 C 0.95036 0.4415 0.94323 0.0
C202 C 0.89947 0.44377 0.96969 0.0
C203 C 0.9292 0.46152 0.95901 0.0
C204 C 0.97902 0.46212 0.93023 0.0
C205 C 0.89707 0.42104 0.8773 0.0
C206 C 0.9128 0.39273 0.86362 0.0
C207 C 0.91928 0.44226 0.89188 0.0
C208 C 0.9575 0.43562 0.89274 0.0
C209 C 0.95095 0.38594 0.8647 0.0
C210 C 0.97317 0.40748 0.879 0.0
C211 C 0.98185 0.45949 0.90669 0.0
H212 H 0.08528 0.62118 0.88794 0.0
H213 H 0.04728 0.58125 0.91217 0.0
H214 H 0.10216 0.52515 0.84365 0.0
H215 H 0.06723 0.48444 0.86902 0.0
H216 H 0.14934 0.54362 0.94705 0.0
H217 H 0.10462 0.50424 0.92695 0.0
H218 H 0.06107 0.59384 0.9857 0.0
H219 H 0.01598 0.55467 0.96519 0.0
H220 H 0.90635 0.35567 0.94562 0.0
H221 H 0.95964 0.38603 0.92805 0.0
H222 H 0.88295 0.46027 0.98132 0.0
H223 H 0.93474 0.49138 0.96243 0.0
H224 H 0.8677 0.42685 0.87657 0.0
H225 H 0.90683 0.46431 0.90212 0.0
H226 H 0.96371 0.36468 0.85403 0.0
H227 H 0.00268 0.40231 0.87929 0.0
N228 N 0.00755 0.48095 0.896 0.0
N229 N 0.00312 0.48521 0.94131 0.0
C230 C 0.40453 0.58559 0.12941 0.0
C231 C 0.42214 0.60866 0.11337 0.0
C232 C 0.42532 0.56273 0.14391 0.0
C233 C 0.46409 0.56269 0.14269 0.0
C234 C 0.46092 0.60877 0.1123 0.0
C235 C 0.48166 0.58589 0.12676 0.0
C236 C 0.48636 0.53598 0.15636 0.0
C237 C 0.43648 0.61985 0.20367 0.0
C238 C 0.40568 0.60375 0.21439 0.0
C239 C 0.46205 0.5965 0.19282 0.0
C240 C 0.45735 0.55672 0.19276 0.0
C241 C 0.40129 0.56393 0.2147 0.0
C242 C 0.42734 0.54046 0.2042 0.0
C243 C 0.48256 0.53229 0.17974 0.0
C244 C 0.60456 0.417 0.20013 0.0
C245 C 0.58661 0.39667 0.21728 0.0
C246 C 0.58617 0.44614 0.18862 0.0
C247 C 0.54901 0.45457 0.19346 0.0
C248 C 0.55079 0.40788 0.2236 0.0
C249 C 0.53207 0.4362 0.21167 0.0
C250 C 0.52745 0.4823 0.17988 0.0
C251 C 0.56317 0.39351 0.12911 0.0
C252 C 0.5845 0.40778 0.1113 0.0
C253 C 0.54635 0.41851 0.14423 0.0
C254 C 0.55127 0.45819 0.1421 0.0
C255 C 0.59005 0.4474 0.1095 0.0
C256 C 0.57341 0.47236 0.12469 0.0
C257 C 0.53029 0.48522 0.15627 0.0
H258 H 0.37467 0.58473 0.13045 0.0
H259 H 0.41102 0.54414 0.15554 0.0
H260 H 0.4752 0.62552 0.09973 0.0
H261 H 0.51149 0.58583 0.12527 0.0
H262 H 0.44011 0.65058 0.20313 0.0
H263 H 0.48514 0.60947 0.18412 0.0
H264 H 0.37758 0.5511 0.22284 0.0
H265 H 0.42331 0.50978 0.20425 0.0
H266 H 0.63237 0.40955 0.19507 0.0
H267 H 0.6008 0.46135 0.17555 0.0
H268 H 0.5368 0.39408 0.23745 0.0
H269 H 0.50387 0.44291 0.2163 0.0
H270 H 0.55883 0.36305 0.13105 0.0
H271 H 0.52866 0.40688 0.15718 0.0
H272 H 0.60613 0.45919 0.09584 0.0
H273 H 0.57721 0.50287 0.12256 0.0
N274 N 0.51005 0.5123 0.14556 0.0
N275 N 0.50323 0.50574 0.19066 0.0
C276 C 0.42249 0.89977 0.3777 0.0
C277 C 0.40632 0.91468 0.35817 0.0
C278 C 0.44019 0.92397 0.39288 0.0
C279 C 0.44165 0.96356 0.38892 0.0
C280 C 0.40666 0.95436 0.35463 0.0
C281 C 0.42441 0.97854 0.36978 0.0
C282 C 0.46515 0.98863 0.40289 0.0
C283 C 0.37318 0.95319 0.44734 0.0
C284 C 0.38328 0.92788 0.46453 0.0
C285 C 0.40012 0.97243 0.43506 0.0
C286 C 0.43773 0.96667 0.43968 0.0
C287 C 0.42088 0.92251 0.46944 0.0
C288 C 0.44793 0.94206 0.45721 0.0
C289 C 0.46608 0.98711 0.4265 0.0
C290 C 0.58546 0.10449 0.44704 0.0
C291 C 0.60797 0.08242 0.46119 0.0
C292 C 0.55475 0.08812 0.4366 0.0
C293 C 0.54646 0.04926 0.43988 0.0
C294 C 0.59776 0.04449 0.46589 0.0
C295 C 0.5673 0.02805 0.4553 0.0
C296 C 0.51749 0.02981 0.42665 0.0
C297 C 0.60207 0.06922 0.37488 0.0
C298 C 0.58703 0.09438 0.35895 0.0
C299 C 0.57897 0.04979 0.38983 0.0
C300 C 0.54061 0.05575 0.38923 0.0
C301 C 0.54878 0.10103 0.35884 0.0
C302 C 0.52577 0.08163 0.37371 0.0
C303 C 0.51522 0.03274 0.40308 0.0
H304 H 0.42221 0.8693 0.38093 0.0
H305 H 0.45409 0.9115 0.40719 0.0
H306 H 0.39448 0.96652 0.33966 0.0
H307 H 0.42551 0.0089 0.36625 0.0
H308 H 0.34437 0.95781 0.44325 0.0
H309 H 0.39153 0.99198 0.42197 0.0
H310 H 0.42925 0.90349 0.48283 0.0
H311 H 0.4768 0.93757 0.46119 0.0
H312 H 0.59247 0.13392 0.44333 0.0
H313 H 0.53826 0.10548 0.4254 0.0
H314 H 0.614 0.02719 0.47728 0.0
H315 H 0.561 -0.00175 0.45843 0.0
H316 H 0.63148 0.06357 0.37522 0.0
H317 H 0.5909 0.02933 0.40137 0.0
H318 H 0.5366 0.12084 0.347 0.0
H319 H 0.49623 0.08649 0.37294 0.0
N320 N 0.48933 0.01189 0.39217 0.0
N321 N 0.49265 0.0072 0.43751 0.0
C322 C 0.08751 0.90274 0.63311 0.0
C323 C 0.07074 0.88555 0.61445 0.0
C324 C 0.06658 0.92471 0.64798 0.0
C325 C 0.02842 0.92938 0.6446 0.0
C326 C 0.03244 0.88936 0.61146 0.0
C327 C 0.01153 0.91125 0.62632 0.0
C328 C 0.00674 0.95648 0.65836 0.0
C329 C 0.03825 0.86232 0.70438 0.0
C330 C 0.06556 0.87252 0.71996 0.0
C331 C 0.01965 0.89034 0.69222 0.0
C332 C 0.02814 0.9291 0.69533 0.0
C333 C 0.07381 0.91133 0.72329 0.0
C334 C 0.05485 0.9395 0.71123 0.0
C335 C 0.00897 0.95847 0.68193 0.0
C336 C 0.89659 0.08271 0.70187 0.0
C337 C 0.91748 0.10595 0.71626 0.0
C338 C 0.9128 0.05121 0.6914 0.0
C339 C 0.95035 0.04289 0.69485 0.0
C340 C 0.95412 0.09559 0.72115 0.0
C341 C 0.97043 0.06435 0.71049 0.0
C342 C 0.96932 0.01293 0.6817 0.0
C343 C 0.93254 0.10145 0.63058 0.0
C344 C 0.90839 0.08676 0.61428 0.0
C345 C 0.9509 0.07683 0.64532 0.0
C346 C 0.94513 0.03718 0.64408 0.0
C347 C 0.90274 0.0471 0.61312 0.0
C348 C 0.92098 0.02258 0.62785 0.0
C349 C 0.9664 0.01026 0.65814 0.0
H350 H 0.11693 0.89987 0.63594 0.0
H351 H 0.08053 0.93919 0.66158 0.0
H352 H 0.01886 0.87657 0.59715 0.0
H353 H 0.98223 0.91473 0.62325 0.0
H354 H 0.03176 0.83255 0.70131 0.0
H355 H -0.00127 0.88172 0.68028 0.0
H356 H 0.09484 0.91976 0.7352 0.0
H357 H 0.0616 0.96932 0.71392 0.0
H358 H 0.86819 0.08982 0.69796 0.0
H359 H 0.89633 0.03417 0.68004 0.0
H360 H 0.9705 0.11234 0.73272 0.0
H361 H -0.0008 0.05793 0.71378 0.0
H362 H 0.93761 0.1319 0.63169 0.0
H363 H 0.9702 0.08869 0.6573 0.0
H364 H 0.88512 0.03488 0.60034 0.0
H365 H 0.91662 0.99204 0.62636 0.0
N366 N 0.98524 0.98217 0.64746 0.0
N367 N 0.99055 0.98691 0.69273 0.0
C368 C 0.22798 0.65908 0.00749 0.0
O369 O 0.23956 0.65134 0.02784 0.0
O370 O 0.31777 0.67115 0.03141 0.0
Zn371 Zn 0.30063 0.69388 0.00209 0.0
O372 O 0.33365 0.67238 0.97831 0.0
C373 C 0.29739 0.76838 0.02099 0.0
O374 O 0.27695 0.7499 0.0356 0.0
O375 O 0.24863 0.67839 0.9945 0.0
C376 C 0.32634 0.67491 0.95756 0.0
O377 O 0.29655 0.69345 0.95124 0.0
C378 C 0.34692 0.68496 0.04012 0.0
O379 O 0.36405 0.71296 0.02977 0.0
O380 O 0.30802 0.75072 0.00357 0.0
C381 C 0.21777 0.82767 0.24606 0.0
O382 O 0.23551 0.84478 0.2297 0.0
O383 O 0.31093 0.81807 0.22661 0.0
Zn384 Zn 0.29 0.7968 0.25529 0.0
O385 O 0.31223 0.82553 0.28103 0.0
C386 C 0.3019 0.7205 0.24028 0.0
O387 O 0.28019 0.73206 0.22399 0.0
O388 O 0.23486 0.80325 0.25794 0.0
C389 C 0.3456 0.82047 0.28686 0.0
O390 O 0.36589 0.79592 0.27567 0.0
C391 C 0.31989 0.85297 0.2244 0.0
O392 O 0.31284 0.87694 0.24078 0.0
O393 O 0.30715 0.74247 0.25687 0.0
C394 C 0.25739 0.85105 0.50413 0.0
O395 O 0.22886 0.87244 0.50943 0.0
O396 O 0.17783 0.82288 0.53316 0.0
Zn397 Zn 0.20018 0.7974 0.50615 0.0
O398 O 0.17143 0.8152 0.47902 0.0
C399 C 0.1767 0.71882 0.49888 0.0
O400 O 0.1629 0.73245 0.48016 0.0
O401 O 0.25275 0.81513 0.50265 0.0
C402 C 0.1877 0.82393 0.46083 0.0
O403 O 0.22344 0.81831 0.4591 0.0
C404 C 0.14965 0.80845 0.54264 0.0
O405 O 0.13566 0.77664 0.53461 0.0
O406 O 0.19589 0.74071 0.51122 0.0
C407 C 0.27879 0.66741 0.74588 0.0
O408 O 0.26514 0.65266 0.72745 0.0
O409 O 0.18838 0.6597 0.72534 0.0
Zn410 Zn 0.20249 0.68716 0.75393 0.0
O411 O 0.1807 0.65763 0.77978 0.0
C412 C 0.14577 0.74154 0.75316 0.0
O413 O 0.12741 0.70929 0.75495 0.0
O414 O 0.25749 0.68612 0.75877 0.0
C415 C 0.16839 0.67295 0.79757 0.0
O416 O 0.16859 0.71031 0.79963 0.0
C417 C 0.17736 0.67722 0.7079 0.0
O418 O 0.17584 0.71471 0.7079 0.0
O419 O 0.18088 0.74031 0.75289 0.0
C420 C 0.74626 0.14662 0.49373 0.0
O421 O 0.77565 0.12508 0.49644 0.0
O422 O 0.81608 0.17034 0.53327 0.0
Zn423 Zn 0.80087 0.19809 0.50533 0.0
O424 O 0.83493 0.18039 0.48072 0.0
C425 C 0.82707 0.27633 0.50027 0.0
O426 O 0.84173 0.26343 0.48163 0.0
O427 O 0.74908 0.1823 0.49738 0.0
C428 C 0.82513 0.17988 0.46028 0.0
O429 O 0.79254 0.1935 0.45482 0.0
C430 C 0.84752 0.17775 0.54164 0.0
O431 O 0.86858 0.20326 0.53174 0.0
O432 O 0.80669 0.25421 0.51178 0.0
C433 C 0.71933 0.32309 0.74563 0.0
O434 O 0.7283 0.33231 0.725 0.0
O435 O 0.81119 0.33136 0.72234 0.0
Zn436 Zn 0.79769 0.30477 0.75103 0.0
O437 O 0.82482 0.33041 0.77622 0.0
C438 C 0.85046 0.24947 0.74402 0.0
O439 O 0.86908 0.2817 0.74374 0.0
O440 O 0.74382 0.30887 0.75838 0.0
C441 C 0.83103 0.31277 0.79444 0.0
O442 O 0.81981 0.27725 0.79657 0.0
C443 C 0.81137 0.36738 0.71969 0.0
O444 O 0.79956 0.38934 0.73602 0.0
O445 O 0.81597 0.2508 0.74797 0.0
C446 C 0.74989 0.34221 0.99471 0.0
O447 O 0.72179 0.36575 0.99676 0.0
O448 O 0.67437 0.31953 0.03147 0.0
Zn449 Zn 0.69045 0.29446 0.00264 0.0
O450 O 0.66147 0.31921 0.97775 0.0
C451 C 0.64821 0.2261 0.99711 0.0
O452 O 0.62691 0.25012 0.9862 0.0
O453 O 0.74413 0.30659 0.99716 0.0
C454 C 0.66991 0.31529 0.95723 0.0
O455 O 0.69793 0.29328 0.95186 0.0
C456 C 0.64059 0.31705 0.03711 0.0
O457 O 0.61793 0.29797 0.02412 0.0
O458 O 0.67896 0.23783 0.00479 0.0
C459 C 0.76045 0.14756 0.25754 0.0
O460 O 0.7325 0.12458 0.25355 0.0
O461 O 0.68874 0.16968 0.21906 0.0
Zn462 Zn 0.7023 0.1949 0.24825 0.0
O463 O 0.67171 0.16924 0.27205 0.0
C464 C 0.65803 0.26153 0.25407 0.0
O465 O 0.63941 0.23738 0.26654 0.0
O466 O 0.7555 0.18339 0.25548 0.0
C467 C 0.68014 0.16936 0.2927 0.0
O468 O 0.71001 0.18757 0.29919 0.0
C469 C 0.65553 0.17278 0.21241 0.0
O470 O 0.63226 0.19278 0.22453 0.0
O471 O 0.68875 0.2511 0.2457 0.0
C472 C 0.14417 0.90062 0.25949 0.0
C473 C 0.12351 0.88237 0.27625 0.0
C474 C 0.17284 0.88149 0.24847 0.0
C475 C 0.18236 0.84368 0.2542 0.0
H476 H 0.13907 0.93039 0.25552 0.0
H477 H 0.18906 0.89738 0.23639 0.0
S478 S 0.13374 0.78235 0.29552 0.0
N479 N 0.11191 0.82375 0.2968 0.0
N480 N 0.16634 0.78766 0.2764 0.0
C481 C 0.16035 0.82446 0.27007 0.0
C482 C 0.13079 0.84387 0.28105 0.0
C483 C 0.12269 0.62626 0.50331 0.0
C484 C 0.1263 0.61658 0.52606 0.0
C485 C 0.14103 0.65802 0.49429 0.0
C486 C 0.16362 0.68146 0.50771 0.0
H487 H 0.1045 0.60989 0.49256 0.0
H488 H 0.13618 0.66512 0.47688 0.0
S489 S 0.18387 0.66686 0.56816 0.0
N490 N 0.15534 0.63183 0.56164 0.0
N491 N 0.1904 0.69101 0.54474 0.0
C492 C 0.1691 0.67074 0.53024 0.0
C493 C 0.15028 0.63846 0.53941 0.0
C494 C 0.35667 0.64426 0.786 0.0
C495 C 0.37967 0.62045 0.77316 0.0
C496 C 0.32535 0.66145 0.77662 0.0
C497 C 0.31573 0.65537 0.75404 0.0
H498 H 0.36175 0.648 0.80374 0.0
H499 H 0.30757 0.67794 0.78753 0.0
S500 S 0.37072 0.60081 0.71241 0.0
N501 N 0.39364 0.59571 0.73613 0.0
N502 N 0.33458 0.6277 0.71841 0.0
C503 C 0.34006 0.63386 0.74063 0.0
C504 C 0.37201 0.6164 0.75022 0.0
C505 C 0.36488 0.85115 0.01921 0.0
C506 C 0.36452 0.86401 0.04144 0.0
C507 C 0.341 0.82194 0.01222 0.0
C508 C 0.31588 0.80474 0.02724 0.0
H509 H 0.38519 0.86213 0.00753 0.0
H510 H 0.34367 0.81145 0.99524 0.0
S511 S 0.30077 0.83332 0.08647 0.0
N512 N 0.33474 0.86106 0.07776 0.0
N513 N 0.28936 0.80658 0.06477 0.0
C514 C 0.31338 0.8198 0.04907 0.0
C515 C 0.33792 0.84927 0.05616 0.0
C516 C 0.15969 0.61934 0.96545 0.0
C517 C 0.13591 0.59711 0.97871 0.0
C518 C 0.18818 0.64075 0.97507 0.0
C519 C 0.19435 0.64044 0.99836 0.0
H520 H 0.15664 0.61961 0.94739 0.0
H521 H 0.2063 0.65654 0.96398 0.0
S522 S 0.13791 0.5886 0.04055 0.0
N523 N 0.11882 0.57745 0.0163 0.0
N524 N 0.17256 0.61759 0.03458 0.0
C525 C 0.16975 0.61943 0.01192 0.0
C526 C 0.14048 0.59782 0.00205 0.0
C527 C 0.3424 0.63159 0.21374 0.0
C528 C 0.37723 0.62908 0.22396 0.0
C529 C 0.31718 0.66003 0.22004 0.0
C530 C 0.32581 0.68657 0.23696 0.0
H531 H 0.33541 0.61274 0.19999 0.0
H532 H 0.29134 0.66211 0.21097 0.0
S533 S 0.41239 0.68883 0.27041 0.0
N534 N 0.41833 0.65312 0.25271 0.0
N535 N 0.37086 0.70611 0.26509 0.0
C536 C 0.35979 0.68257 0.24829 0.0
C537 C 0.38558 0.65398 0.2416 0.0
C538 C 0.32475 0.92818 0.48646 0.0
C539 C 0.35412 0.90742 0.4771 0.0
C540 C 0.29453 0.90956 0.49616 0.0
C541 C 0.29227 0.86937 0.49668 0.0
H542 H 0.32475 0.95914 0.48583 0.0
H543 H 0.2722 0.92699 0.50259 0.0
S544 S 0.36336 0.80197 0.47542 0.0
N545 N 0.38025 0.84475 0.46978 0.0
N546 N 0.32339 0.80942 0.488 0.0
C547 C 0.32231 0.84825 0.48818 0.0
C548 C 0.35324 0.86735 0.4784 0.0
C549 C 0.12487 0.84011 0.72989 0.0
C550 C 0.08624 0.84219 0.73183 0.0
C551 C 0.14435 0.80828 0.73795 0.0
C552 C 0.12579 0.7775 0.74819 0.0
H553 H 0.1399 0.86229 0.72108 0.0
H554 H 0.17388 0.80701 0.73512 0.0
S555 S 0.02537 0.77254 0.76055 0.0
N556 N 0.03064 0.81335 0.74702 0.0
N557 N 0.06703 0.75353 0.76223 0.0
C558 C 0.08742 0.7806 0.75155 0.0
C559 C 0.06769 0.81294 0.74333 0.0
C560 C 0.63226 0.38172 0.75356 0.0
C561 C 0.62515 0.37708 0.77651 0.0
C562 C 0.66132 0.36194 0.7432 0.0
C563 C 0.68412 0.33685 0.75549 0.0
H564 H 0.61673 0.40242 0.74388 0.0
H565 H 0.66716 0.36808 0.72578 0.0
S566 S 0.67191 0.31013 0.8153 0.0
N567 N 0.63959 0.34243 0.81059 0.0
N568 N 0.69387 0.30473 0.79128 0.0
C569 C 0.67503 0.32969 0.77807 0.0
C570 C 0.64566 0.35002 0.78856 0.0
C571 C 0.5797 0.15322 0.01827 0.0
C572 C 0.60148 0.1206 0.02243 0.0
C573 C 0.59499 0.18652 0.00926 0.0
C574 C 0.63289 0.18904 0.00445 0.0
H575 H 0.55071 0.15366 0.02271 0.0
H576 H 0.57713 0.21106 0.00694 0.0
S577 S 0.70167 0.11122 0.01009 0.0
N578 N 0.66263 0.09208 0.01901 0.0
N579 N 0.69167 0.15576 0.00317 0.0
C580 C 0.65502 0.15666 0.00802 0.0
C581 C 0.63927 0.12223 0.01675 0.0
C582 C 0.82695 0.07826 0.28473 0.0
C583 C 0.86075 0.09804 0.28472 0.0
C584 C 0.79505 0.09451 0.27566 0.0
C585 C 0.79538 0.13148 0.26637 0.0
H586 H 0.82489 0.05008 0.29217 0.0
H587 H 0.76974 0.07805 0.27634 0.0
S588 S 0.87709 0.19485 0.26124 0.0
N589 N 0.89306 0.15609 0.27375 0.0
N590 N 0.83258 0.18719 0.25717 0.0
C591 C 0.82895 0.1517 0.26615 0.0
C592 C 0.86172 0.13489 0.27523 0.0
C593 C 0.885 0.36544 0.50895 0.0
C594 C 0.87733 0.37503 0.5313 0.0
C595 C 0.86683 0.33486 0.49851 0.0
C596 C 0.84026 0.31291 0.51004 0.0
H597 H 0.90664 0.38025 0.4999 0.0
H598 H 0.87504 0.32731 0.48164 0.0
S599 S 0.80635 0.33109 0.56783 0.0
N600 N 0.83873 0.3636 0.56382 0.0
N601 N 0.80417 0.30637 0.54433 0.0
C602 C 0.83041 0.32432 0.53189 0.0
C603 C 0.84912 0.35527 0.5425 0.0
C604 C 0.64433 0.13439 0.48003 0.0
C605 C 0.64322 0.09813 0.46988 0.0
C606 C 0.67773 0.1499 0.48777 0.0
C607 C 0.71117 0.12968 0.48566 0.0
H608 H 0.61918 0.15079 0.4821 0.0
H609 H 0.67726 0.17785 0.49556 0.0
S610 S 0.72338 0.03496 0.45856 0.0
N611 N 0.67865 0.0435 0.45687 0.0
N612 N 0.74118 0.07216 0.47165 0.0
C613 C 0.7104 0.09354 0.47531 0.0
C614 C 0.6765 0.0779 0.46737 0.0
C615 C 0.86619 0.14335 0.73414 0.0
C616 C 0.90183 0.14234 0.72477 0.0
C617 C 0.85004 0.17799 0.74077 0.0
C618 C 0.86892 0.21292 0.73825 0.0
H619 H 0.85057 0.11717 0.7362 0.0
H620 H 0.82239 0.17737 0.7477 0.0
S621 S 0.96262 0.2257 0.71389 0.0
N622 N 0.95516 0.17923 0.71277 0.0
N623 N 0.92534 0.24414 0.72553 0.0
C624 C 0.90482 0.21217 0.72913 0.0
C625 C 0.92113 0.17695 0.72232 0.0
C626 C 0.82278 0.41024 0.97271 0.0
C627 C 0.85555 0.38874 0.9737 0.0
C628 C 0.78909 0.39496 0.97984 0.0
C629 C 0.78657 0.35738 0.98812 0.0
H630 H 0.82292 0.43893 0.96587 0.0
H631 H 0.76468 0.4127 0.97839 0.0
S632 S 0.8647 0.28985 0.99555 0.0
N633 N 0.88384 0.32856 0.98476 0.0
N634 N 0.82017 0.29942 0.99776 0.0
C635 C 0.81919 0.33561 0.98951 0.0
C636 C 0.85371 0.35136 0.98237 0.0
C637 C 0.64214 0.36293 0.23337 0.0
C638 C 0.60435 0.36258 0.22764 0.0
C639 C 0.65953 0.33026 0.24214 0.0
C640 C 0.63955 0.29643 0.24586 0.0
H641 H 0.65843 0.38858 0.23102 0.0
H642 H 0.6887 0.33153 0.24611 0.0
S643 S 0.5411 0.27925 0.23181 0.0
N644 N 0.54847 0.32419 0.22473 0.0
N645 N 0.58063 0.26375 0.24213 0.0
C646 C 0.60187 0.29565 0.24021 0.0
C647 C 0.58439 0.32848 0.23089 0.0
C648 C 0.10797 0.86046 0.42549 0.0
C649 C 0.12543 0.88547 0.41041 0.0
C650 C 0.1284 0.8401 0.44149 0.0
C651 C 0.16709 0.84352 0.44271 0.0
H652 H 0.07817 0.85751 0.42536 0.0
H653 H 0.11371 0.82182 0.45313 0.0
S654 S 0.22592 0.90395 0.40599 0.0
N655 N 0.18343 0.91169 0.39702 0.0
N656 N 0.22211 0.87309 0.42681 0.0
C657 C 0.18495 0.86759 0.42718 0.0
C658 C 0.16403 0.88871 0.41113 0.0
C659 C 0.11431 0.64867 0.66025 0.0
C660 C 0.12668 0.61169 0.65472 0.0
C661 C 0.13188 0.67028 0.67686 0.0
C662 C 0.1621 0.65551 0.68884 0.0
H663 H 0.08994 0.6605 0.65234 0.0
H664 H 0.12064 0.69809 0.68102 0.0
S665 S 0.2086 0.56272 0.6788 0.0
N666 N 0.17396 0.56327 0.66081 0.0
N667 N 0.20589 0.60335 0.69275 0.0
C668 C 0.17576 0.61935 0.68293 0.0
C669 C 0.15832 0.59758 0.6657 0.0
C670 C 0.36556 0.64309 0.90149 0.0
C671 C 0.39528 0.61952 0.9077 0.0
C672 C 0.34364 0.66115 0.9177 0.0
C673 C 0.35051 0.65615 0.94075 0.0
H674 H 0.35938 0.64783 0.88395 0.0
H675 H 0.32111 0.67911 0.91208 0.0
S676 S 0.42395 0.59515 0.96562 0.0
N677 N 0.42956 0.59066 0.93833 0.0
N678 N 0.38882 0.62471 0.96883 0.0
C679 C 0.3801 0.63232 0.94713 0.0
C680 C 0.40234 0.61399 0.93061 0.0
C681 C 0.36259 0.91899 0.1811 0.0
C682 C 0.38289 0.89382 0.16754 0.0
C683 C 0.34175 0.90542 0.19922 0.0
C684 C 0.34001 0.86612 0.2042 0.0
H685 H 0.36376 0.94952 0.17811 0.0
H686 H 0.32721 0.92597 0.20952 0.0
S687 S 0.3866 0.78835 0.17262 0.0
N688 N 0.399 0.82791 0.15952 0.0
N689 N 0.35944 0.80205 0.19334 0.0
C690 C 0.35928 0.84054 0.19021 0.0
C691 C 0.38088 0.85448 0.17195 0.0
C692 C 0.10355 0.63793 0.84288 0.0
C693 C 0.11766 0.60146 0.84812 0.0
C694 C 0.12072 0.66134 0.82692 0.0
C695 C 0.15221 0.64886 0.81531 0.0
H696 H 0.07844 0.64815 0.85072 0.0
H697 H 0.10854 0.68888 0.82313 0.0
S698 S 0.20272 0.55802 0.82444 0.0
N699 N 0.16739 0.55582 0.84189 0.0
N700 N 0.19853 0.59917 0.81112 0.0
C701 C 0.1672 0.613 0.82069 0.0
C702 C 0.15021 0.58946 0.83728 0.0
C703 C 0.37263 0.61146 0.08419 0.0
C704 C 0.40026 0.63022 0.09658 0.0
C705 C 0.35443 0.62987 0.06648 0.0
C706 C 0.36332 0.66766 0.06046 0.0
H707 H 0.36605 0.58182 0.08762 0.0
H708 H 0.33429 0.61382 0.05692 0.0
S709 S 0.42961 0.73114 0.08989 0.0
N710 N 0.4327 0.68992 0.10326 0.0
N711 N 0.39878 0.72453 0.06989 0.0
C712 C 0.38953 0.68737 0.07348 0.0
C713 C 0.40795 0.66864 0.09154 0.0
C714 C 0.35525 0.89574 0.33229 0.0
C715 C 0.39076 0.88897 0.34087 0.0
C716 C 0.34075 0.87307 0.31508 0.0
C717 C 0.36137 0.84296 0.30563 0.0
H718 H 0.33856 0.91884 0.33889 0.0
H719 H 0.3133 0.87964 0.30897 0.0
S720 S 0.45618 0.81386 0.32223 0.0
N721 N 0.44643 0.85035 0.33871 0.0
N722 N 0.41927 0.80751 0.30644 0.0
C723 C 0.39691 0.83574 0.31423 0.0
C724 C 0.41156 0.85876 0.33184 0.0
C725 C 0.08207 0.82908 0.58974 0.0
C726 C 0.09309 0.8653 0.59737 0.0
C727 C 0.10104 0.81065 0.57238 0.0
C728 C 0.13169 0.82783 0.56188 0.0
H729 H 0.05836 0.81499 0.59712 0.0
H730 H 0.09117 0.78292 0.567 0.0
S731 S 0.17152 0.92277 0.57577 0.0
N732 N 0.13646 0.91784 0.59321 0.0
N733 N 0.17244 0.88322 0.56074 0.0
C734 C 0.1434 0.86385 0.56967 0.0
C735 C 0.12404 0.88257 0.58737 0.0
C736 C 0.60444 0.38707 0.93087 0.0
C737 C 0.61084 0.38275 0.90782 0.0
C738 C 0.62321 0.36465 0.94659 0.0
C739 C 0.64942 0.33716 0.93991 0.0
H740 H 0.58465 0.40795 0.93683 0.0
H741 H 0.61735 0.36935 0.96416 0.0
S742 S 0.67612 0.31493 0.88126 0.0
N743 N 0.64491 0.34911 0.87888 0.0
N744 N 0.68044 0.30677 0.90838 0.0
C745 C 0.65586 0.33236 0.9168 0.0
C746 C 0.63648 0.35514 0.90077 0.0
C747 C 0.59059 0.13581 0.16758 0.0
C748 C 0.61217 0.10884 0.15607 0.0
C749 C 0.60527 0.15705 0.18532 0.0
C750 C 0.64217 0.15225 0.19225 0.0
H751 H 0.56167 0.13948 0.16344 0.0
H752 H 0.58713 0.17672 0.19399 0.0
S753 S 0.71124 0.08789 0.1659 0.0
N754 N 0.67294 0.08046 0.15155 0.0
N755 N 0.70074 0.12024 0.18499 0.0
C756 C 0.66454 0.12651 0.1802 0.0
C757 C 0.64948 0.1048 0.16213 0.0
C758 C 0.90327 0.12176 0.43504 0.0
C759 C 0.8937 0.11948 0.41227 0.0
C760 C 0.88138 0.14208 0.45026 0.0
C761 C 0.84896 0.16098 0.44334 0.0
H762 H 0.92744 0.10692 0.44129 0.0
H763 H 0.88968 0.14225 0.46768 0.0
S764 S 0.81351 0.1663 0.38502 0.0
N765 N 0.85108 0.13974 0.38317 0.0
N766 N 0.80954 0.17768 0.41174 0.0
C767 C 0.8396 0.15975 0.42045 0.0
C768 C 0.862 0.13903 0.40494 0.0
C769 C 0.87419 0.376 0.66918 0.0
C770 C 0.87291 0.41518 0.66413 0.0
C771 C 0.85284 0.36062 0.68652 0.0
C772 C 0.82979 0.38396 0.69973 0.0
H773 H 0.89243 0.35722 0.65992 0.0
H774 H 0.85562 0.33039 0.69008 0.0
S775 S 0.81522 0.48824 0.69231 0.0
N776 N 0.84562 0.47681 0.67281 0.0
N777 N 0.80553 0.44807 0.70563 0.0
C778 C 0.82733 0.42305 0.69431 0.0
C779 C 0.84885 0.43861 0.67644 0.0
C780 C 0.64273 0.13274 0.34823 0.0
C781 C 0.61086 0.11261 0.34184 0.0
C782 C 0.66501 0.15094 0.33224 0.0
C783 C 0.65633 0.14947 0.30925 0.0
H784 H 0.65016 0.13495 0.36576 0.0
H785 H 0.68909 0.16643 0.338 0.0
S786 S 0.57704 0.09769 0.28388 0.0
N787 N 0.57271 0.09032 0.31105 0.0
N788 N 0.61418 0.12458 0.28096 0.0
C789 C 0.6248 0.1287 0.30266 0.0
C790 C 0.60218 0.11027 0.31896 0.0
C791 C 0.91331 0.13826 0.5854 0.0
C792 C 0.89124 0.11226 0.59737 0.0
C793 C 0.89866 0.15993 0.56779 0.0
C794 C 0.86136 0.15641 0.56141 0.0
H795 H 0.94247 0.14093 0.58916 0.0
H796 H 0.91707 0.17884 0.55875 0.0
S797 S 0.79102 0.09533 0.58922 0.0
N798 N 0.82962 0.08648 0.603 0.0
N799 N 0.80199 0.12686 0.56974 0.0
C800 C 0.83864 0.13154 0.57385 0.0
C801 C 0.8536 0.10954 0.59184 0.0
C802 C 0.87092 0.39188 0.8305 0.0
C803 C 0.89001 0.37171 0.84722 0.0
C804 C 0.85179 0.37253 0.81356 0.0
C805 C 0.85061 0.3323 0.81295 0.0
H806 H 0.87164 0.42284 0.83016 0.0
H807 H 0.83791 0.38927 0.80082 0.0
S808 S 0.89493 0.26652 0.85371 0.0
N809 N 0.90592 0.30969 0.86268 0.0
N810 N 0.86951 0.27306 0.83107 0.0
C811 C 0.86885 0.31185 0.82999 0.0
C812 C 0.88873 0.33163 0.84705 0.0
C813 C 0.636 0.38513 0.0866 0.0
C814 C 0.59909 0.38193 0.09371 0.0
C815 C 0.64948 0.36324 0.06873 0.0
C816 C 0.62648 0.33751 0.05714 0.0
H817 H 0.65449 0.40507 0.09477 0.0
H818 H 0.67795 0.36724 0.06366 0.0
S819 S 0.52767 0.31802 0.06961 0.0
N820 N 0.53983 0.35079 0.08804 0.0
N821 N 0.5651 0.30925 0.0547 0.0
C822 C 0.58969 0.3334 0.06447 0.0
C823 C 0.57603 0.35567 0.08269 0.0
loop_
_geom_bond_atom_site_label_1
_geom_bond_atom_site_label_2
_geom_bond_distance
_geom_bond_site_symmetry_2
_ccdc_geom_bond_type
C0 C1 1.384 . S
C0 C2 1.384 . S
C0 H28 0.931 . S
C1 C0 1.384 . S
C1 C4 1.382 . S
C2 C0 1.384 . S
C2 C3 1.381 . S
C2 H29 0.930 . S
C3 C2 1.381 . S
C3 C5 1.381 . S
C3 C6 1.487 . S
C4 C1 1.382 . S
C4 C5 1.387 . S
C4 H30 0.930 . S
C5 C3 1.381 . S
C5 C4 1.387 . S
C5 H31 0.931 1_565 S
C6 C3 1.487 . S
C6 C13 1.399 . S
C6 N44 1.343 1_565 S
C7 C8 1.384 . S
C7 C9 1.384 . S
C7 H32 0.931 . S
C8 C7 1.384 . S
C8 C11 1.382 . S
C9 C7 1.384 . S
C9 C10 1.381 . S
C9 H33 0.930 . S
C10 C9 1.381 . S
C10 C12 1.381 . S
C10 C13 1.487 . S
C11 C8 1.382 . S
C11 C12 1.387 . S
C11 H34 0.930 . S
C12 C10 1.381 . S
C12 C11 1.387 . S
C12 H35 0.931 . S
C13 C6 1.399 . S
C13 C10 1.487 . S
C13 N45 1.343 1_455 S
C14 C15 1.384 . S
C14 C16 1.384 . S
C14 H36 0.931 . S
C15 C14 1.384 . S
C15 C18 1.382 . S
C16 C14 1.384 . S
C16 C17 1.381 . S
C16 H37 0.930 . S
C17 C16 1.381 . S
C17 C19 1.381 . S
C17 C20 1.487 . S
C18 C15 1.382 . S
C18 C19 1.387 . S
C18 H38 0.930 . S
C19 C17 1.381 . S
C19 C18 1.387 . S
C19 H39 0.931 1_545 S
C20 C17 1.487 . S
C20 C27 1.399 . S
C20 N45 1.343 1_545 S
C21 C22 1.384 . S
C21 C23 1.384 . S
C21 H40 0.931 . S
C22 C21 1.384 . S
C22 C25 1.382 . S
C23 C21 1.384 . S
C23 C24 1.381 . S
C23 H41 0.930 . S
C24 C23 1.381 . S
C24 C26 1.381 . S
C24 C27 1.487 . S
C25 C22 1.382 . S
C25 C26 1.387 . S
C25 H42 0.930 . S
C26 C24 1.381 . S
C26 C25 1.387 . S
C26 H43 0.931 . S
C27 C20 1.399 . S
C27 C24 1.487 . S
C27 N44 1.343 1_655 S
H28 C0 0.931 . S
H29 C2 0.930 . S
H30 C4 0.930 . S
H31 C5 0.931 1_545 S
H32 C7 0.931 . S
H33 C9 0.930 . S
H34 C11 0.930 . S
H35 C12 0.931 . S
H36 C14 0.931 . S
H37 C16 0.930 . S
H38 C18 0.930 . S
H39 C19 0.931 1_565 S
H40 C21 0.931 . S
H41 C23 0.930 . S
H42 C25 0.930 . S
H43 C26 0.931 . S
N44 C6 1.343 1_545 S
N44 C27 1.343 1_455 S
N45 C13 1.343 1_655 S
N45 C20 1.343 1_565 S
C46 C47 1.384 . S
C46 C48 1.384 . S
C46 H74 0.931 . S
C47 C46 1.384 . S
C47 C50 1.382 . S
C48 C46 1.384 . S
C48 C49 1.381 . S
C48 H75 0.930 . S
C49 C48 1.381 . S
C49 C51 1.381 . S
C49 C52 1.487 . S
C50 C47 1.382 . S
C50 C51 1.387 . S
C50 H76 0.930 . S
C51 C49 1.381 . S
C51 C50 1.387 . S
C51 H77 0.931 1_655 S
C52 C49 1.487 . S
C52 C59 1.399 . S
C52 N90 1.343 1_655 S
C53 C54 1.384 . S
C53 C55 1.384 . S
C53 H78 0.931 . S
C54 C53 1.384 . S
C54 C57 1.382 . S
C55 C53 1.384 . S
C55 C56 1.381 . S
C55 H79 0.930 . S
C56 C55 1.381 . S
C56 C58 1.381 . S
C56 C59 1.487 . S
C57 C54 1.382 . S
C57 C58 1.387 . S
C57 H80 0.930 . S
C58 C56 1.381 . S
C58 C57 1.387 . S
C58 H81 0.931 . S
C59 C52 1.399 . S
C59 C56 1.487 . S
C59 N91 1.343 . S
C60 C61 1.384 . S
C60 C62 1.384 . S
C60 H82 0.931 . S
C61 C60 1.384 . S
C61 C64 1.382 . S
C62 C60 1.384 . S
C62 C63 1.381 . S
C62 H83 0.930 . S
C63 C62 1.381 . S
C63 C65 1.381 . S
C63 C66 1.487 . S
C64 C61 1.382 . S
C64 C65 1.387 . S
C64 H84 0.930 . S
C65 C63 1.381 . S
C65 C64 1.387 . S
C65 H85 0.931 1_455 S
C66 C63 1.487 . S
C66 C73 1.399 . S
C66 N91 1.343 1_455 S
C67 C68 1.384 . S
C67 C69 1.384 . S
C67 H86 0.931 . S
C68 C67 1.384 . S
C68 C71 1.382 . S
C69 C67 1.384 . S
C69 C70 1.381 . S
C69 H87 0.930 . S
C70 C69 1.381 . S
C70 C72 1.381 . S
C70 C73 1.487 . S
C71 C68 1.382 . S
C71 C72 1.387 . S
C71 H88 0.930 . S
C72 C70 1.381 . S
C72 C71 1.387 . S
C72 H89 0.931 . S
C73 C66 1.399 . S
C73 C70 1.487 . S
C73 N90 1.343 . S
H74 C46 0.931 . S
H75 C48 0.930 . S
H76 C50 0.930 . S
H77 C51 0.931 1_455 S
H78 C53 0.931 . S
H79 C55 0.930 . S
H80 C57 0.930 . S
H81 C58 0.931 . S
H82 C60 0.931 . S
H83 C62 0.930 . S
H84 C64 0.930 . S
H85 C65 0.931 1_655 S
H86 C67 0.931 . S
H87 C69 0.930 . S
H88 C71 0.930 . S
H89 C72 0.931 . S
N90 C52 1.343 1_455 S
N90 C73 1.343 . S
N91 C59 1.343 . S
N91 C66 1.343 1_655 S
C92 C93 1.384 . S
C92 C94 1.384 . S
C92 H120 0.931 . S
C93 C92 1.384 . S
C93 C96 1.382 . S
C94 C92 1.384 . S
C94 C95 1.381 . S
C94 H121 0.930 . S
C95 C94 1.381 . S
C95 C97 1.381 . S
C95 C98 1.487 . S
C96 C93 1.382 . S
C96 C97 1.387 . S
C96 H122 0.930 . S
C97 C95 1.381 . S
C97 C96 1.387 . S
C97 H123 0.931 . S
C98 C95 1.487 . S
C98 C105 1.399 . S
C98 N136 1.343 . S
C99 C100 1.384 . S
C99 C101 1.384 . S
C99 H124 0.931 . S
C100 C99 1.384 . S
C100 C103 1.382 . S
C101 C99 1.384 . S
C101 C102 1.381 . S
C101 H125 0.930 . S
C102 C101 1.381 . S
C102 C104 1.381 . S
C102 C105 1.487 . S
C103 C100 1.382 . S
C103 C104 1.387 . S
C103 H126 0.930 . S
C104 C102 1.381 . S
C104 C103 1.387 . S
C104 H127 0.931 . S
C105 C98 1.399 . S
C105 C102 1.487 . S
C105 N137 1.343 . S
C106 C107 1.384 . S
C106 C108 1.384 . S
C106 H128 0.931 . S
C107 C106 1.384 . S
C107 C110 1.382 . S
C108 C106 1.384 . S
C108 C109 1.381 . S
C108 H129 0.930 . S
C109 C108 1.381 . S
C109 C111 1.381 . S
C109 C112 1.487 . S
C110 C107 1.382 . S
C110 C111 1.387 . S
C110 H130 0.930 . S
C111 C109 1.381 . S
C111 C110 1.387 . S
C111 H131 0.931 . S
C112 C109 1.487 . S
C112 C119 1.399 . S
C112 N137 1.343 . S
C113 C114 1.384 . S
C113 C115 1.384 . S
C113 H132 0.931 . S
C114 C113 1.384 . S
C114 C117 1.382 . S
C115 C113 1.384 . S
C115 C116 1.381 . S
C115 H133 0.930 . S
C116 C115 1.381 . S
C116 C118 1.381 . S
C116 C119 1.487 . S
C117 C114 1.382 . S
C117 C118 1.387 . S
C117 H134 0.930 . S
C118 C116 1.381 . S
C118 C117 1.387 . S
C118 H135 0.931 . S
C119 C112 1.399 . S
C119 C116 1.487 . S
C119 N136 1.343 . S
H120 C92 0.931 . S
H121 C94 0.930 . S
H122 C96 0.930 . S
H123 C97 0.931 . S
H124 C99 0.931 . S
H125 C101 0.930 . S
H126 C103 0.930 . S
H127 C104 0.931 . S
H128 C106 0.931 . S
H129 C108 0.930 . S
H130 C110 0.930 . S
H131 C111 0.931 . S
H132 C113 0.931 . S
H133 C115 0.930 . S
H134 C117 0.930 . S
H135 C118 0.931 . S
N136 C98 1.343 . S
N136 C119 1.343 . S
N137 C105 1.343 . S
N137 C112 1.343 . S
C138 C139 1.384 . S
C138 C140 1.384 . S
C138 H166 0.931 . S
C139 C138 1.384 . S
C139 C142 1.382 . S
C140 C138 1.384 . S
C140 C141 1.381 . S
C140 H167 0.930 . S
C141 C140 1.381 . S
C141 C143 1.381 . S
C141 C144 1.487 . S
C142 C139 1.382 . S
C142 C143 1.387 . S
C142 H168 0.930 . S
C143 C141 1.381 . S
C143 C142 1.387 . S
C143 H169 0.931 . S
C144 C141 1.487 . S
C144 C151 1.399 . S
C144 N182 1.343 1_565 S
C145 C146 1.384 . S
C145 C147 1.384 . S
C145 H170 0.931 . S
C146 C145 1.384 . S
C146 C149 1.382 . S
C147 C145 1.384 . S
C147 C148 1.381 . S
C147 H171 0.930 . S
C148 C147 1.381 . S
C148 C150 1.381 . S
C148 C151 1.487 . S
C149 C146 1.382 . S
C149 C150 1.387 . S
C149 H172 0.930 . S
C150 C148 1.381 . S
C150 C149 1.387 . S
C150 H173 0.931 . S
C151 C144 1.399 . S
C151 C148 1.487 . S
C151 N183 1.343 . S
C152 C153 1.384 . S
C152 C154 1.384 . S
C152 H174 0.931 . S
C153 C152 1.384 . S
C153 C156 1.382 . S
C154 C152 1.384 . S
C154 C155 1.381 . S
C154 H175 0.930 . S
C155 C154 1.381 . S
C155 C157 1.381 . S
C155 C158 1.487 . S
C156 C153 1.382 . S
C156 C157 1.387 . S
C156 H176 0.930 . S
C157 C155 1.381 . S
C157 C156 1.387 . S
C157 H177 0.931 . S
C158 C155 1.487 . S
C158 C165 1.399 . S
C158 N183 1.343 1_545 S
C159 C160 1.384 . S
C159 C161 1.384 . S
C159 H178 0.931 . S
C160 C159 1.384 . S
C160 C163 1.382 . S
C161 C159 1.384 . S
C161 C162 1.381 . S
C161 H179 0.930 . S
C162 C161 1.381 . S
C162 C164 1.381 . S
C162 C165 1.487 . S
C163 C160 1.382 . S
C163 C164 1.387 . S
C163 H180 0.930 . S
C164 C162 1.381 . S
C164 C163 1.387 . S
C164 H181 0.931 . S
C165 C158 1.399 . S
C165 C162 1.487 . S
C165 N182 1.343 . S
H166 C138 0.931 . S
H167 C140 0.930 . S
H168 C142 0.930 . S
H169 C143 0.931 . S
H170 C145 0.931 . S
H171 C147 0.930 . S
H172 C149 0.930 . S
H173 C150 0.931 . S
H174 C152 0.931 . S
H175 C154 0.930 . S
H176 C156 0.930 . S
H177 C157 0.931 . S
H178 C159 0.931 . S
H179 C161 0.930 . S
H180 C163 0.930 . S
H181 C164 0.931 . S
N182 C144 1.343 1_545 S
N182 C165 1.343 . S
N183 C151 1.343 . S
N183 C158 1.343 1_565 S
C184 C185 1.384 . S
C184 C186 1.384 . S
C184 H212 0.931 . S
C185 C184 1.384 . S
C185 C188 1.382 . S
C186 C184 1.384 . S
C186 C187 1.381 . S
C186 H213 0.930 . S
C187 C186 1.381 . S
C187 C189 1.381 . S
C187 C190 1.487 . S
C188 C185 1.382 . S
C188 C189 1.387 . S
C188 H214 0.930 . S
C189 C187 1.381 . S
C189 C188 1.387 . S
C189 H215 0.931 . S
C190 C187 1.487 . S
C190 C197 1.399 . S
C190 N228 1.343 . S
C191 C192 1.384 . S
C191 C193 1.384 . S
C191 H216 0.931 . S
C192 C191 1.384 . S
C192 C195 1.382 . S
C193 C191 1.384 . S
C193 C194 1.381 . S
C193 H217 0.930 . S
C194 C193 1.381 . S
C194 C196 1.381 . S
C194 C197 1.487 . S
C195 C192 1.382 . S
C195 C196 1.387 . S
C195 H218 0.930 . S
C196 C194 1.381 . S
C196 C195 1.387 . S
C196 H219 0.931 . S
C197 C190 1.399 . S
C197 C194 1.487 . S
C197 N229 1.343 1_455 S
C198 C199 1.384 . S
C198 C200 1.384 . S
C198 H220 0.931 . S
C199 C198 1.384 . S
C199 C202 1.382 . S
C200 C198 1.384 . S
C200 C201 1.381 . S
C200 H221 0.930 . S
C201 C200 1.381 . S
C201 C203 1.381 . S
C201 C204 1.487 . S
C202 C199 1.382 . S
C202 C203 1.387 . S
C202 H222 0.930 . S
C203 C201 1.381 . S
C203 C202 1.387 . S
C203 H223 0.931 . S
C204 C201 1.487 . S
C204 C211 1.399 . S
C204 N229 1.343 . S
C205 C206 1.384 . S
C205 C207 1.384 . S
C205 H224 0.931 . S
C206 C205 1.384 . S
C206 C209 1.382 . S
C207 C205 1.384 . S
C207 C208 1.381 . S
C207 H225 0.930 . S
C208 C207 1.381 . S
C208 C210 1.381 . S
C208 C211 1.487 . S
C209 C206 1.382 . S
C209 C210 1.387 . S
C209 H226 0.930 . S
C210 C208 1.381 . S
C210 C209 1.387 . S
C210 H227 0.931 . S
C211 C204 1.399 . S
C211 C208 1.487 . S
C211 N228 1.343 1_655 S
H212 C184 0.931 . S
H213 C186 0.930 . S
H214 C188 0.930 . S
H215 C189 0.931 . S
H216 C191 0.931 . S
H217 C193 0.930 . S
H218 C195 0.930 . S
H219 C196 0.931 . S
H220 C198 0.931 . S
H221 C200 0.930 . S
H222 C202 0.930 . S
H223 C203 0.931 . S
H224 C205 0.931 . S
H225 C207 0.930 . S
H226 C209 0.930 . S
H227 C210 0.931 . S
N228 C190 1.343 . S
N228 C211 1.343 1_455 S
N229 C197 1.343 1_655 S
N229 C204 1.343 . S
C230 C231 1.384 . S
C230 C232 1.384 . S
C230 H258 0.931 . S
C231 C230 1.384 . S
C231 C234 1.382 . S
C232 C230 1.384 . S
C232 C233 1.381 . S
C232 H259 0.930 . S
C233 C232 1.381 . S
C233 C235 1.381 . S
C233 C236 1.487 . S
C234 C231 1.382 . S
C234 C235 1.387 . S
C234 H260 0.930 . S
C235 C233 1.381 . S
C235 C234 1.387 . S
C235 H261 0.931 . S
C236 C233 1.487 . S
C236 C243 1.399 . S
C236 N274 1.343 . S
C237 C238 1.384 . S
C237 C239 1.384 . S
C237 H262 0.931 . S
C238 C237 1.384 . S
C238 C241 1.382 . S
C239 C237 1.384 . S
C239 C240 1.381 . S
C239 H263 0.930 . S
C240 C239 1.381 . S
C240 C242 1.381 . S
C240 C243 1.487 . S
C241 C238 1.382 . S
C241 C242 1.387 . S
C241 H264 0.930 . S
C242 C240 1.381 . S
C242 C241 1.387 . S
C242 H265 0.931 . S
C243 C236 1.399 . S
C243 C240 1.487 . S
C243 N275 1.343 . S
C244 C245 1.384 . S
C244 C246 1.384 . S
C244 H266 0.931 . S
C245 C244 1.384 . S
C245 C248 1.382 . S
C246 C244 1.384 . S
C246 C247 1.381 . S
C246 H267 0.930 . S
C247 C246 1.381 . S
C247 C249 1.381 . S
C247 C250 1.487 . S
C248 C245 1.382 . S
C248 C249 1.387 . S
C248 H268 0.930 . S
C249 C247 1.381 . S
C249 C248 1.387 . S
C249 H269 0.931 . S
C250 C247 1.487 . S
C250 C257 1.399 . S
C250 N275 1.343 . S
C251 C252 1.384 . S
C251 C253 1.384 . S
C251 H270 0.931 . S
C252 C251 1.384 . S
C252 C255 1.382 . S
C253 C251 1.384 . S
C253 C254 1.381 . S
C253 H271 0.930 . S
C254 C253 1.381 . S
C254 C256 1.381 . S
C254 C257 1.487 . S
C255 C252 1.382 . S
C255 C256 1.387 . S
C255 H272 0.930 . S
C256 C254 1.381 . S
C256 C255 1.387 . S
C256 H273 0.931 . S
C257 C250 1.399 . S
C257 C254 1.487 . S
C257 N274 1.343 . S
H258 C230 0.931 . S
H259 C232 0.930 . S
H260 C234 0.930 . S
H261 C235 0.931 . S
H262 C237 0.931 . S
H263 C239 0.930 . S
H264 C241 0.930 . S
H265 C242 0.931 . S
H266 C244 0.931 . S
H267 C246 0.930 . S
H268 C248 0.930 . S
H269 C249 0.931 . S
H270 C251 0.931 . S
H271 C253 0.930 . S
H272 C255 0.930 . S
H273 C256 0.931 . S
N274 C236 1.343 . S
N274 C257 1.343 . S
N275 C243 1.343 . S
N275 C250 1.343 . S
C276 C277 1.384 . S
C276 C278 1.384 . S
C276 H304 0.931 . S
C277 C276 1.384 . S
C277 C280 1.382 . S
C278 C276 1.384 . S
C278 C279 1.381 . S
C278 H305 0.930 . S
C279 C278 1.381 . S
C279 C281 1.381 . S
C279 C282 1.487 . S
C280 C277 1.382 . S
C280 C281 1.387 . S
C280 H306 0.930 . S
C281 C279 1.381 . S
C281 C280 1.387 . S
C281 H307 0.931 1_565 S
C282 C279 1.487 . S
C282 C289 1.399 . S
C282 N320 1.343 1_565 S
C283 C284 1.384 . S
C283 C285 1.384 . S
C283 H308 0.931 . S
C284 C283 1.384 . S
C284 C287 1.382 . S
C285 C283 1.384 . S
C285 C286 1.381 . S
C285 H309 0.930 . S
C286 C285 1.381 . S
C286 C288 1.381 . S
C286 C289 1.487 . S
C287 C284 1.382 . S
C287 C288 1.387 . S
C287 H310 0.930 . S
C288 C286 1.381 . S
C288 C287 1.387 . S
C288 H311 0.931 . S
C289 C282 1.399 . S
C289 C286 1.487 . S
C289 N321 1.343 . S
C290 C291 1.384 . S
C290 C292 1.384 . S
C290 H312 0.931 . S
C291 C290 1.384 . S
C291 C294 1.382 . S
C292 C290 1.384 . S
C292 C293 1.381 . S
C292 H313 0.930 . S
C293 C292 1.381 . S
C293 C295 1.381 . S
C293 C296 1.487 . S
C294 C291 1.382 . S
C294 C295 1.387 . S
C294 H314 0.930 . S
C295 C293 1.381 . S
C295 C294 1.387 . S
C295 H315 0.931 1_545 S
C296 C293 1.487 . S
C296 C303 1.399 . S
C296 N321 1.343 1_545 S
C297 C298 1.384 . S
C297 C299 1.384 . S
C297 H316 0.931 . S
C298 C297 1.384 . S
C298 C301 1.382 . S
C299 C297 1.384 . S
C299 C300 1.381 . S
C299 H317 0.930 . S
C300 C299 1.381 . S
C300 C302 1.381 . S
C300 C303 1.487 . S
C301 C298 1.382 . S
C301 C302 1.387 . S
C301 H318 0.930 . S
C302 C300 1.381 . S
C302 C301 1.387 . S
C302 H319 0.931 . S
C303 C296 1.399 . S
C303 C300 1.487 . S
C303 N320 1.343 . S
H304 C276 0.931 . S
H305 C278 0.930 . S
H306 C280 0.930 . S
H307 C281 0.931 1_545 S
H308 C283 0.931 . S
H309 C285 0.930 . S
H310 C287 0.930 . S
H311 C288 0.931 . S
H312 C290 0.931 . S
H313 C292 0.930 . S
H314 C294 0.930 . S
H315 C295 0.931 1_565 S
H316 C297 0.931 . S
H317 C299 0.930 . S
H318 C301 0.930 . S
H319 C302 0.931 . S
N320 C282 1.343 1_545 S
N320 C303 1.343 . S
N321 C289 1.343 . S
N321 C296 1.343 1_565 S
C322 C323 1.384 . S
C322 C324 1.384 . S
C322 H350 0.931 . S
C323 C322 1.384 . S
C323 C326 1.382 . S
C324 C322 1.384 . S
C324 C325 1.381 . S
C324 H351 0.930 . S
C325 C324 1.381 . S
C325 C327 1.381 . S
C325 C328 1.487 . S
C326 C323 1.382 . S
C326 C327 1.387 . S
C326 H352 0.930 . S
C327 C325 1.381 . S
C327 C326 1.387 . S
C327 H353 0.931 1_455 S
C328 C325 1.487 . S
C328 C335 1.399 . S
C328 N366 1.343 1_455 S
C329 C330 1.384 . S
C329 C331 1.384 . S
C329 H354 0.931 . S
C330 C329 1.384 . S
C330 C333 1.382 . S
C331 C329 1.384 . S
C331 C332 1.381 . S
C331 H355 0.930 . S
C332 C331 1.381 . S
C332 C334 1.381 . S
C332 C335 1.487 . S
C333 C330 1.382 . S
C333 C334 1.387 . S
C333 H356 0.930 . S
C334 C332 1.381 . S
C334 C333 1.387 . S
C334 H357 0.931 . S
C335 C328 1.399 . S
C335 C332 1.487 . S
C335 N367 1.343 1_565 S
C336 C337 1.384 . S
C336 C338 1.384 . S
C336 H358 0.931 . S
C337 C336 1.384 . S
C337 C340 1.382 . S
C338 C336 1.384 . S
C338 C339 1.381 . S
C338 H359 0.930 . S
C339 C338 1.381 . S
C339 C341 1.381 . S
C339 C342 1.487 . S
C340 C337 1.382 . S
C340 C341 1.387 . S
C340 H360 0.930 . S
C341 C339 1.381 . S
C341 C340 1.387 . S
C341 H361 0.931 1_655 S
C342 C339 1.487 . S
C342 C349 1.399 . S
C342 N367 1.343 1_655 S
C343 C344 1.384 . S
C343 C345 1.384 . S
C343 H362 0.931 . S
C344 C343 1.384 . S
C344 C347 1.382 . S
C345 C343 1.384 . S
C345 C346 1.381 . S
C345 H363 0.930 . S
C346 C345 1.381 . S
C346 C348 1.381 . S
C346 C349 1.487 . S
C347 C344 1.382 . S
C347 C348 1.387 . S
C347 H364 0.930 . S
C348 C346 1.381 . S
C348 C347 1.387 . S
C348 H365 0.931 . S
C349 C342 1.399 . S
C349 C346 1.487 . S
C349 N366 1.343 1_545 S
H350 C322 0.931 . S
H351 C324 0.930 . S
H352 C326 0.930 . S
H353 C327 0.931 1_655 S
H354 C329 0.931 . S
H355 C331 0.930 . S
H356 C333 0.930 . S
H357 C334 0.931 . S
H358 C336 0.931 . S
H359 C338 0.930 . S
H360 C340 0.930 . S
H361 C341 0.931 1_455 S
H362 C343 0.931 . S
H363 C345 0.930 . S
H364 C347 0.930 . S
H365 C348 0.931 . S
N366 C328 1.343 1_655 S
N366 C349 1.343 1_565 S
N367 C335 1.343 1_545 S
N367 C342 1.343 1_455 S
C368 O369 1.160 1_556 S
C368 O375 1.185 . S
O369 C368 1.160 1_554 S
O370 Zn371 1.899 . S
O370 C378 1.284 . S
Zn371 O370 1.899 . S
Zn371 O372 2.032 1_554 S
Zn371 O375 2.086 1_554 S
Zn371 O380 1.977 . S
O372 Zn371 2.032 1_556 S
O372 C376 1.278 . S
C373 O374 1.203 . S
C373 O380 1.267 . S
O374 C373 1.203 . S
O375 C368 1.185 . S
O375 Zn371 2.086 1_556 S
C376 O372 1.278 . S
C376 O377 1.211 . S
O377 C376 1.211 . S
C378 O370 1.284 . S
C378 O379 1.273 . S
O379 C378 1.273 . S
O380 Zn371 1.977 . S
O380 C373 1.267 . S
C381 O382 1.160 . S
C381 O388 1.185 . S
O382 C381 1.160 . S
O383 Zn384 1.899 . S
O383 C391 1.284 . S
Zn384 O383 1.899 . S
Zn384 O385 2.032 . S
Zn384 O388 2.086 . S
Zn384 O393 1.977 . S
O385 Zn384 2.032 . S
O385 C389 1.278 . S
C386 O387 1.203 . S
C386 O393 1.267 . S
O387 C386 1.203 . S
O388 C381 1.185 . S
O388 Zn384 2.086 . S
C389 O385 1.278 . S
C389 O390 1.211 . S
O390 C389 1.211 . S
C391 O383 1.284 . S
C391 O392 1.273 . S
O392 C391 1.273 . S
O393 Zn384 1.977 . S
O393 C386 1.267 . S
C394 O395 1.160 . S
C394 O401 1.185 . S
O395 C394 1.160 . S
O396 Zn397 1.899 . S
O396 C404 1.284 . S
Zn397 O396 1.899 . S
Zn397 O398 2.032 . S
Zn397 O401 2.086 . S
Zn397 O406 1.977 . S
O398 Zn397 2.032 . S
O398 C402 1.278 . S
C399 O400 1.203 . S
C399 O406 1.267 . S
O400 C399 1.203 . S
O401 C394 1.185 . S
O401 Zn397 2.086 . S
C402 O398 1.278 . S
C402 O403 1.211 . S
O403 C402 1.211 . S
C404 O396 1.284 . S
C404 O405 1.273 . S
O405 C404 1.273 . S
O406 Zn397 1.977 . S
O406 C399 1.267 . S
C407 O408 1.160 . S
C407 O414 1.185 . S
O408 C407 1.160 . S
O409 Zn410 1.899 . S
O409 C417 1.284 . S
Zn410 O409 1.899 . S
Zn410 O411 2.032 . S
Zn410 O414 2.086 . S
Zn410 O419 1.977 . S
O411 Zn410 2.032 . S
O411 C415 1.278 . S
C412 O413 1.203 . S
C412 O419 1.267 . S
O413 C412 1.203 . S
O414 C407 1.185 . S
O414 Zn410 2.086 . S
C415 O411 1.278 . S
C415 O416 1.211 . S
O416 C415 1.211 . S
C417 O409 1.284 . S
C417 O418 1.273 . S
O418 C417 1.273 . S
O419 Zn410 1.977 . S
O419 C412 1.267 . S
C420 O421 1.160 . S
C420 O427 1.185 . S
O421 C420 1.160 . S
O422 Zn423 1.899 . S
O422 C430 1.284 . S
Zn423 O422 1.899 . S
Zn423 O424 2.032 . S
Zn423 O427 2.086 . S
Zn423 O432 1.977 . S
O424 Zn423 2.032 . S
O424 C428 1.278 . S
C425 O426 1.203 . S
C425 O432 1.267 . S
O426 C425 1.203 . S
O427 C420 1.185 . S
O427 Zn423 2.086 . S
C428 O424 1.278 . S
C428 O429 1.211 . S
O429 C428 1.211 . S
C430 O422 1.284 . S
C430 O431 1.273 . S
O431 C430 1.273 . S
O432 Zn423 1.977 . S
O432 C425 1.267 . S
C433 O434 1.160 . S
C433 O440 1.185 . S
O434 C433 1.160 . S
O435 Zn436 1.899 . S
O435 C443 1.284 . S
Zn436 O435 1.899 . S
Zn436 O437 2.032 . S
Zn436 O440 2.086 . S
Zn436 O445 1.977 . S
O437 Zn436 2.032 . S
O437 C441 1.278 . S
C438 O439 1.203 . S
C438 O445 1.267 . S
O439 C438 1.203 . S
O440 C433 1.185 . S
O440 Zn436 2.086 . S
C441 O437 1.278 . S
C441 O442 1.211 . S
O442 C441 1.211 . S
C443 O435 1.284 . S
C443 O444 1.273 . S
O444 C443 1.273 . S
O445 Zn436 1.977 . S
O445 C438 1.267 . S
C446 O447 1.160 1_556 S
C446 O453 1.185 . S
O447 C446 1.160 1_554 S
O448 Zn449 1.899 . S
O448 C456 1.284 . S
Zn449 O448 1.899 . S
Zn449 O450 2.032 1_554 S
Zn449 O453 2.086 1_554 S
Zn449 O458 1.977 . S
O450 Zn449 2.032 1_556 S
O450 C454 1.278 . S
C451 O452 1.203 . S
C451 O458 1.267 . S
O452 C451 1.203 . S
O453 C446 1.185 . S
O453 Zn449 2.086 1_556 S
C454 O450 1.278 . S
C454 O455 1.211 . S
O455 C454 1.211 . S
C456 O448 1.284 . S
C456 O457 1.273 . S
O457 C456 1.273 . S
O458 Zn449 1.977 . S
O458 C451 1.267 . S
C459 O460 1.160 . S
C459 O466 1.185 . S
O460 C459 1.160 . S
O461 Zn462 1.899 . S
O461 C469 1.284 . S
Zn462 O461 1.899 . S
Zn462 O463 2.032 . S
Zn462 O466 2.086 . S
Zn462 O471 1.977 . S
O463 Zn462 2.032 . S
O463 C467 1.278 . S
C464 O465 1.203 . S
C464 O471 1.267 . S
O465 C464 1.203 . S
O466 C459 1.185 . S
O466 Zn462 2.086 . S
C467 O463 1.278 . S
C467 O468 1.211 . S
O468 C467 1.211 . S
C469 O461 1.284 . S
C469 O470 1.273 . S
O470 C469 1.273 . S
O471 Zn462 1.977 . S
O471 C464 1.267 . S
C472 C473 1.369 . S
C472 C474 1.419 . S
C472 H476 0.930 . S
C473 C472 1.369 . S
C473 C482 1.429 . S
C474 C472 1.419 . S
C474 C475 1.363 . S
C474 H477 0.929 . S
C475 C474 1.363 . S
C475 C481 1.428 . S
H476 C472 0.930 . S
H477 C474 0.929 . S
S478 N479 1.613 . S
S478 N480 1.610 . S
N479 S478 1.613 . S
N479 C482 1.350 . S
N480 S478 1.610 . S
N480 C481 1.351 . S
C481 C475 1.428 . S
C481 N480 1.351 . S
C481 C482 1.434 . S
C482 C473 1.429 . S
C482 N479 1.350 . S
C482 C481 1.434 . S
C483 C484 1.369 . S
C483 C485 1.419 . S
C483 H487 0.930 . S
C484 C483 1.369 . S
C484 C493 1.429 . S
C485 C483 1.419 . S
C485 C486 1.363 . S
C485 H488 0.929 . S
C486 C485 1.363 . S
C486 C492 1.428 . S
H487 C483 0.930 . S
H488 C485 0.929 . S
S489 N490 1.613 . S
S489 N491 1.610 . S
N490 S489 1.613 . S
N490 C493 1.350 . S
N491 S489 1.610 . S
N491 C492 1.351 . S
C492 C486 1.428 . S
C492 N491 1.351 . S
C492 C493 1.434 . S
C493 C484 1.429 . S
C493 N490 1.350 . S
C493 C492 1.434 . S
C494 C495 1.369 . S
C494 C496 1.419 . S
C494 H498 0.930 . S
C495 C494 1.369 . S
C495 C504 1.429 . S
C496 C494 1.419 . S
C496 C497 1.363 . S
C496 H499 0.929 . S
C497 C496 1.363 . S
C497 C503 1.428 . S
H498 C494 0.930 . S
H499 C496 0.929 . S
S500 N501 1.613 . S
S500 N502 1.610 . S
N501 S500 1.613 . S
N501 C504 1.350 . S
N502 S500 1.610 . S
N502 C503 1.351 . S
C503 C497 1.428 . S
C503 N502 1.351 . S
C503 C504 1.434 . S
C504 C495 1.429 . S
C504 N501 1.350 . S
C504 C503 1.434 . S
C505 C506 1.369 . S
C505 C507 1.419 . S
C505 H509 0.925 1_554 S
C506 C505 1.369 . S
C506 C515 1.429 . S
C507 C505 1.419 . S
C507 C508 1.363 . S
C507 H510 0.929 1_554 S
C508 C507 1.363 . S
C508 C514 1.428 . S
H509 C505 0.925 1_556 S
H510 C507 0.929 1_556 S
S511 N512 1.613 . S
S511 N513 1.610 . S
N512 S511 1.613 . S
N512 C515 1.350 . S
N513 S511 1.610 . S
N513 C514 1.351 . S
C514 C508 1.428 . S
C514 N513 1.351 . S
C514 C515 1.434 . S
C515 C506 1.429 . S
C515 N512 1.350 . S
C515 C514 1.434 . S
C516 C517 1.369 . S
C516 C518 1.419 . S
C516 H520 0.930 . S
C517 C516 1.369 . S
C517 C526 1.429 1_556 S
C518 C516 1.419 . S
C518 C519 1.363 . S
C518 H521 0.929 . S
C519 C518 1.363 . S
C519 C525 1.428 1_556 S
H520 C516 0.930 . S
H521 C518 0.929 . S
S522 N523 1.613 . S
S522 N524 1.610 . S
N523 S522 1.613 . S
N523 C526 1.350 . S
N524 S522 1.610 . S
N524 C525 1.351 . S
C525 C519 1.428 1_554 S
C525 N524 1.351 . S
C525 C526 1.434 . S
C526 C517 1.429 1_554 S
C526 N523 1.350 . S
C526 C525 1.434 . S
C527 C528 1.369 . S
C527 C529 1.419 . S
C527 H531 0.930 . S
C528 C527 1.369 . S
C528 C537 1.429 . S
C529 C527 1.419 . S
C529 C530 1.363 . S
C529 H532 0.929 . S
C530 C529 1.363 . S
C530 C536 1.428 . S
H531 C527 0.930 . S
H532 C529 0.929 . S
S533 N534 1.613 . S
S533 N535 1.610 . S
N534 S533 1.613 . S
N534 C537 1.350 . S
N535 S533 1.610 . S
N535 C536 1.351 . S
C536 C530 1.428 . S
C536 N535 1.351 . S
C536 C537 1.434 . S
C537 C528 1.429 . S
C537 N534 1.350 . S
C537 C536 1.434 . S
C538 C539 1.369 . S
C538 C540 1.419 . S
C538 H542 0.930 . S
C539 C538 1.369 . S
C539 C548 1.429 . S
C540 C538 1.419 . S
C540 C541 1.363 . S
C540 H543 0.929 . S
C541 C540 1.363 . S
C541 C547 1.428 . S
H542 C538 0.930 . S
H543 C540 0.929 . S
S544 N545 1.613 . S
S544 N546 1.610 . S
N545 S544 1.613 . S
N545 C548 1.350 . S
N546 S544 1.610 . S
N546 C547 1.351 . S
C547 C541 1.428 . S
C547 N546 1.351 . S
C547 C548 1.434 . S
C548 C539 1.429 . S
C548 N545 1.350 . S
C548 C547 1.434 . S
C549 C550 1.369 . S
C549 C551 1.419 . S
C549 H553 0.930 . S
C550 C549 1.369 . S
C550 C559 1.429 . S
C551 C549 1.419 . S
C551 C552 1.363 . S
C551 H554 0.929 . S
C552 C551 1.363 . S
C552 C558 1.428 . S
H553 C549 0.930 . S
H554 C551 0.929 . S
S555 N556 1.613 . S
S555 N557 1.610 . S
N556 S555 1.613 . S
N556 C559 1.350 . S
N557 S555 1.610 . S
N557 C558 1.351 . S
C558 C552 1.428 . S
C558 N557 1.351 . S
C558 C559 1.434 . S
C559 C550 1.429 . S
C559 N556 1.350 . S
C559 C558 1.434 . S
C560 C561 1.369 . S
C560 C562 1.419 . S
C560 H564 0.930 . S
C561 C560 1.369 . S
C561 C570 1.429 . S
C562 C560 1.419 . S
C562 C563 1.363 . S
C562 H565 0.929 . S
C563 C562 1.363 . S
C563 C569 1.428 . S
H564 C560 0.930 . S
H565 C562 0.929 . S
S566 N567 1.613 . S
S566 N568 1.610 . S
N567 S566 1.613 . S
N567 C570 1.350 . S
N568 S566 1.610 . S
N568 C569 1.351 . S
C569 C563 1.428 . S
C569 N568 1.351 . S
C569 C570 1.434 . S
C570 C561 1.429 . S
C570 N567 1.350 . S
C570 C569 1.434 . S
C571 C572 1.369 . S
C571 C573 1.419 . S
C571 H575 0.930 . S
C572 C571 1.369 . S
C572 C581 1.429 . S
C573 C571 1.419 . S
C573 C574 1.363 . S
C573 H576 0.929 . S
C574 C573 1.363 . S
C574 C580 1.428 . S
H575 C571 0.930 . S
H576 C573 0.929 . S
S577 N578 1.613 . S
S577 N579 1.610 . S
N578 S577 1.613 . S
N578 C581 1.350 1_556 S
N579 S577 1.610 . S
N579 C580 1.351 1_556 S
C580 C574 1.428 . S
C580 N579 1.351 1_554 S
C580 C581 1.434 . S
C581 C572 1.429 . S
C581 N578 1.350 1_554 S
C581 C580 1.434 . S
C582 C583 1.369 . S
C582 C584 1.419 . S
C582 H586 0.930 . S
C583 C582 1.369 . S
C583 C592 1.429 . S
C584 C582 1.419 . S
C584 C585 1.363 . S
C584 H587 0.929 . S
C585 C584 1.363 . S
C585 C591 1.428 . S
H586 C582 0.930 . S
H587 C584 0.929 . S
S588 N589 1.613 . S
S588 N590 1.610 . S
N589 S588 1.613 . S
N589 C592 1.350 . S
N590 S588 1.610 . S
N590 C591 1.351 . S
C591 C585 1.428 . S
C591 N590 1.351 . S
C591 C592 1.434 . S
C592 C583 1.429 . S
C592 N589 1.350 . S
C592 C591 1.434 . S
C593 C594 1.369 . S
C593 C595 1.419 . S
C593 H597 0.930 . S
C594 C593 1.369 . S
C594 C603 1.429 . S
C595 C593 1.419 . S
C595 C596 1.363 . S
C595 H598 0.929 . S
C596 C595 1.363 . S
C596 C602 1.428 . S
H597 C593 0.930 . S
H598 C595 0.929 . S
S599 N600 1.613 . S
S599 N601 1.610 . S
N600 S599 1.613 . S
N600 C603 1.350 . S
N601 S599 1.610 . S
N601 C602 1.351 . S
C602 C596 1.428 . S
C602 N601 1.351 . S
C602 C603 1.434 . S
C603 C594 1.429 . S
C603 N600 1.350 . S
C603 C602 1.434 . S
C604 C605 1.369 . S
C604 C606 1.419 . S
C604 H608 0.930 . S
C605 C604 1.369 . S
C605 C614 1.429 . S
C606 C604 1.419 . S
C606 C607 1.363 . S
C606 H609 0.929 . S
C607 C606 1.363 . S
C607 C613 1.428 . S
H608 C604 0.930 . S
H609 C606 0.929 . S
S610 N611 1.613 . S
S610 N612 1.610 . S
N611 S610 1.613 . S
N611 C614 1.350 . S
N612 S610 1.610 . S
N612 C613 1.351 . S
C613 C607 1.428 . S
C613 N612 1.351 . S
C613 C614 1.434 . S
C614 C605 1.429 . S
C614 N611 1.350 . S
C614 C613 1.434 . S
C615 C616 1.369 . S
C615 C617 1.419 . S
C615 H619 0.930 . S
C616 C615 1.369 . S
C616 C625 1.429 . S
C617 C615 1.419 . S
C617 C618 1.363 . S
C617 H620 0.929 . S
C618 C617 1.363 . S
C618 C624 1.428 . S
H619 C615 0.930 . S
H620 C617 0.929 . S
S621 N622 1.613 . S
S621 N623 1.610 . S
N622 S621 1.613 . S
N622 C625 1.350 . S
N623 S621 1.610 . S
N623 C624 1.351 . S
C624 C618 1.428 . S
C624 N623 1.351 . S
C624 C625 1.434 . S
C625 C616 1.429 . S
C625 N622 1.350 . S
C625 C624 1.434 . S
C626 C627 1.369 . S
C626 C628 1.419 . S
C626 H630 0.930 . S
C627 C626 1.369 . S
C627 C636 1.429 . S
C628 C626 1.419 . S
C628 C629 1.363 . S
C628 H631 0.929 . S
C629 C628 1.363 . S
C629 C635 1.428 . S
H630 C626 0.930 . S
H631 C628 0.929 . S
S632 N633 1.613 . S
S632 N634 1.610 . S
N633 S632 1.613 . S
N633 C636 1.350 1_554 S
N634 S632 1.610 . S
N634 C635 1.351 1_554 S
C635 C629 1.428 . S
C635 N634 1.351 1_556 S
C635 C636 1.434 . S
C636 C627 1.429 . S
C636 N633 1.350 1_556 S
C636 C635 1.434 . S
C637 C638 1.369 . S
C637 C639 1.419 . S
C637 H641 0.930 . S
C638 C637 1.369 . S
C638 C647 1.429 . S
C639 C637 1.419 . S
C639 C640 1.363 . S
C639 H642 0.929 . S
C640 C639 1.363 . S
C640 C646 1.428 . S
H641 C637 0.930 . S
H642 C639 0.929 . S
S643 N644 1.613 . S
S643 N645 1.610 . S
N644 S643 1.613 . S
N644 C647 1.350 . S
N645 S643 1.610 . S
N645 C646 1.351 . S
C646 C640 1.428 . S
C646 N645 1.351 . S
C646 C647 1.434 . S
C647 C638 1.429 . S
C647 N644 1.350 . S
C647 C646 1.434 . S
C648 C649 1.369 . S
C648 C650 1.419 . S
C648 H652 0.930 . S
C649 C648 1.369 . S
C649 C658 1.429 . S
C650 C648 1.419 . S
C650 C651 1.363 . S
C650 H653 0.929 . S
C651 C650 1.363 . S
C651 C657 1.428 . S
H652 C648 0.930 . S
H653 C650 0.929 . S
S654 N655 1.613 . S
S654 N656 1.610 . S
N655 S654 1.613 . S
N655 C658 1.350 . S
N656 S654 1.610 . S
N656 C657 1.351 . S
C657 C651 1.428 . S
C657 N656 1.351 . S
C657 C658 1.434 . S
C658 C649 1.429 . S
C658 N655 1.350 . S
C658 C657 1.434 . S
C659 C660 1.369 . S
C659 C661 1.419 . S
C659 H663 0.930 . S
C660 C659 1.369 . S
C660 C669 1.429 . S
C661 C659 1.419 . S
C661 C662 1.363 . S
C661 H664 0.929 . S
C662 C661 1.363 . S
C662 C668 1.428 . S
H663 C659 0.930 . S
H664 C661 0.929 . S
S665 N666 1.613 . S
S665 N667 1.610 . S
N666 S665 1.613 . S
N666 C669 1.350 . S
N667 S665 1.610 . S
N667 C668 1.351 . S
C668 C662 1.428 . S
C668 N667 1.351 . S
C668 C669 1.434 . S
C669 C660 1.429 . S
C669 N666 1.350 . S
C669 C668 1.434 . S
C670 C671 1.369 . S
C670 C672 1.419 . S
C670 H674 0.930 . S
C671 C670 1.369 . S
C671 C680 1.429 . S
C672 C670 1.419 . S
C672 C673 1.363 . S
C672 H675 0.929 . S
C673 C672 1.363 . S
C673 C679 1.428 . S
H674 C670 0.930 . S
H675 C672 0.929 . S
S676 N677 1.613 . S
S676 N678 1.610 . S
N677 S676 1.613 . S
N677 C680 1.350 . S
N678 S676 1.610 . S
N678 C679 1.351 . S
C679 C673 1.428 . S
C679 N678 1.351 . S
C679 C680 1.434 . S
C680 C671 1.429 . S
C680 N677 1.350 . S
C680 C679 1.434 . S
C681 C682 1.369 . S
C681 C683 1.419 . S
C681 H685 0.930 . S
C682 C681 1.369 . S
C682 C691 1.429 . S
C683 C681 1.419 . S
C683 C684 1.363 . S
C683 H686 0.929 . S
C684 C683 1.363 . S
C684 C690 1.428 . S
H685 C681 0.930 . S
H686 C683 0.929 . S
S687 N688 1.613 . S
S687 N689 1.610 . S
N688 S687 1.613 . S
N688 C691 1.350 . S
N689 S687 1.610 . S
N689 C690 1.351 . S
C690 C684 1.428 . S
C690 N689 1.351 . S
C690 C691 1.434 . S
C691 C682 1.429 . S
C691 N688 1.350 . S
C691 C690 1.434 . S
C692 C693 1.369 . S
C692 C694 1.419 . S
C692 H696 0.930 . S
C693 C692 1.369 . S
C693 C702 1.429 . S
C694 C692 1.419 . S
C694 C695 1.363 . S
C694 H697 0.929 . S
C695 C694 1.363 . S
C695 C701 1.428 . S
H696 C692 0.930 . S
H697 C694 0.929 . S
S698 N699 1.613 . S
S698 N700 1.610 . S
N699 S698 1.613 . S
N699 C702 1.350 . S
N700 S698 1.610 . S
N700 C701 1.351 . S
C701 C695 1.428 . S
C701 N700 1.351 . S
C701 C702 1.434 . S
C702 C693 1.429 . S
C702 N699 1.350 . S
C702 C701 1.434 . S
C703 C704 1.369 . S
C703 C705 1.419 . S
C703 H707 0.930 . S
C704 C703 1.369 . S
C704 C713 1.429 . S
C705 C703 1.419 . S
C705 C706 1.363 . S
C705 H708 0.929 . S
C706 C705 1.363 . S
C706 C712 1.428 . S
H707 C703 0.930 . S
H708 C705 0.929 . S
S709 N710 1.613 . S
S709 N711 1.610 . S
N710 S709 1.613 . S
N710 C713 1.350 . S
N711 S709 1.610 . S
N711 C712 1.351 . S
C712 C706 1.428 . S
C712 N711 1.351 . S
C712 C713 1.434 . S
C713 C704 1.429 . S
C713 N710 1.350 . S
C713 C712 1.434 . S
C714 C715 1.369 . S
C714 C716 1.419 . S
C714 H718 0.930 . S
C715 C714 1.369 . S
C715 C724 1.429 . S
C716 C714 1.419 . S
C716 C717 1.363 . S
C716 H719 0.929 . S
C717 C716 1.363 . S
C717 C723 1.428 . S
H718 C714 0.930 . S
H719 C716 0.929 . S
S720 N721 1.613 . S
S720 N722 1.610 . S
N721 S720 1.613 . S
N721 C724 1.350 . S
N722 S720 1.610 . S
N722 C723 1.351 . S
C723 C717 1.428 . S
C723 N722 1.351 . S
C723 C724 1.434 . S
C724 C715 1.429 . S
C724 N721 1.350 . S
C724 C723 1.434 . S
C725 C726 1.369 . S
C725 C727 1.419 . S
C725 H729 0.930 . S
C726 C725 1.369 . S
C726 C735 1.429 . S
C727 C725 1.419 . S
C727 C728 1.363 . S
C727 H730 0.929 . S
C728 C727 1.363 . S
C728 C734 1.428 . S
H729 C725 0.930 . S
H730 C727 0.929 . S
S731 N732 1.613 . S
S731 N733 1.610 . S
N732 S731 1.613 . S
N732 C735 1.350 . S
N733 S731 1.610 . S
N733 C734 1.351 . S
C734 C728 1.428 . S
C734 N733 1.351 . S
C734 C735 1.434 . S
C735 C726 1.429 . S
C735 N732 1.350 . S
C735 C734 1.434 . S
C736 C737 1.369 . S
C736 C738 1.419 . S
C736 H740 0.930 . S
C737 C736 1.369 . S
C737 C746 1.429 . S
C738 C736 1.419 . S
C738 C739 1.363 . S
C738 H741 0.929 . S
C739 C738 1.363 . S
C739 C745 1.428 . S
H740 C736 0.930 . S
H741 C738 0.929 . S
S742 N743 1.613 . S
S742 N744 1.610 . S
N743 S742 1.613 . S
N743 C746 1.350 . S
N744 S742 1.610 . S
N744 C745 1.351 . S
C745 C739 1.428 . S
C745 N744 1.351 . S
C745 C746 1.434 . S
C746 C737 1.429 . S
C746 N743 1.350 . S
C746 C745 1.434 . S
C747 C748 1.369 . S
C747 C749 1.419 . S
C747 H751 0.930 . S
C748 C747 1.369 . S
C748 C757 1.429 . S
C749 C747 1.419 . S
C749 C750 1.363 . S
C749 H752 0.929 . S
C750 C749 1.363 . S
C750 C756 1.428 . S
H751 C747 0.930 . S
H752 C749 0.929 . S
S753 N754 1.613 . S
S753 N755 1.610 . S
N754 S753 1.613 . S
N754 C757 1.350 . S
N755 S753 1.610 . S
N755 C756 1.351 . S
C756 C750 1.428 . S
C756 N755 1.351 . S
C756 C757 1.434 . S
C757 C748 1.429 . S
C757 N754 1.350 . S
C757 C756 1.434 . S
C758 C759 1.369 . S
C758 C760 1.419 . S
C758 H762 0.930 . S
C759 C758 1.369 . S
C759 C768 1.429 . S
C760 C758 1.419 . S
C760 C761 1.363 . S
C760 H763 0.929 . S
C761 C760 1.363 . S
C761 C767 1.428 . S
H762 C758 0.930 . S
H763 C760 0.929 . S
S764 N765 1.613 . S
S764 N766 1.610 . S
N765 S764 1.613 . S
N765 C768 1.350 . S
N766 S764 1.610 . S
N766 C767 1.351 . S
C767 C761 1.428 . S
C767 N766 1.351 . S
C767 C768 1.434 . S
C768 C759 1.429 . S
C768 N765 1.350 . S
C768 C767 1.434 . S
C769 C770 1.369 . S
C769 C771 1.419 . S
C769 H773 0.930 . S
C770 C769 1.369 . S
C770 C779 1.429 . S
C771 C769 1.419 . S
C771 C772 1.363 . S
C771 H774 0.929 . S
C772 C771 1.363 . S
C772 C778 1.428 . S
H773 C769 0.930 . S
H774 C771 0.929 . S
S775 N776 1.613 . S
S775 N777 1.610 . S
N776 S775 1.613 . S
N776 C779 1.350 . S
N777 S775 1.610 . S
N777 C778 1.351 . S
C778 C772 1.428 . S
C778 N777 1.351 . S
C778 C779 1.434 . S
C779 C770 1.429 . S
C779 N776 1.350 . S
C779 C778 1.434 . S
C780 C781 1.369 . S
C780 C782 1.419 . S
C780 H784 0.930 . S
C781 C780 1.369 . S
C781 C790 1.429 . S
C782 C780 1.419 . S
C782 C783 1.363 . S
C782 H785 0.929 . S
C783 C782 1.363 . S
C783 C789 1.428 . S
H784 C780 0.930 . S
H785 C782 0.929 . S
S786 N787 1.613 . S
S786 N788 1.610 . S
N787 S786 1.613 . S
N787 C790 1.350 . S
N788 S786 1.610 . S
N788 C789 1.351 . S
C789 C783 1.428 . S
C789 N788 1.351 . S
C789 C790 1.434 . S
C790 C781 1.429 . S
C790 N787 1.350 . S
C790 C789 1.434 . S
C791 C792 1.369 . S
C791 C793 1.419 . S
C791 H795 0.930 . S
C792 C791 1.369 . S
C792 C801 1.429 . S
C793 C791 1.419 . S
C793 C794 1.363 . S
C793 H796 0.929 . S
C794 C793 1.363 . S
C794 C800 1.428 . S
H795 C791 0.930 . S
H796 C793 0.929 . S
S797 N798 1.613 . S
S797 N799 1.610 . S
N798 S797 1.613 . S
N798 C801 1.350 . S
N799 S797 1.610 . S
N799 C800 1.351 . S
C800 C794 1.428 . S
C800 N799 1.351 . S
C800 C801 1.434 . S
C801 C792 1.429 . S
C801 N798 1.350 . S
C801 C800 1.434 . S
C802 C803 1.369 . S
C802 C804 1.419 . S
C802 H806 0.930 . S
C803 C802 1.369 . S
C803 C812 1.429 . S
C804 C802 1.419 . S
C804 C805 1.363 . S
C804 H807 0.929 . S
C805 C804 1.363 . S
C805 C811 1.428 . S
H806 C802 0.930 . S
H807 C804 0.929 . S
S808 N809 1.613 . S
S808 N810 1.610 . S
N809 S808 1.613 . S
N809 C812 1.350 . S
N810 S808 1.610 . S
N810 C811 1.351 . S
C811 C805 1.428 . S
C811 N810 1.351 . S
C811 C812 1.434 . S
C812 C803 1.429 . S
C812 N809 1.350 . S
C812 C811 1.434 . S
C813 C814 1.369 . S
C813 C815 1.419 . S
C813 H817 0.930 . S
C814 C813 1.369 . S
C814 C823 1.429 . S
C815 C813 1.419 . S
C815 C816 1.363 . S
C815 H818 0.929 . S
C816 C815 1.363 . S
C816 C822 1.428 . S
H817 C813 0.930 . S
H818 C815 0.929 . S
S819 N820 1.613 . S
S819 N821 1.610 . S
N820 S819 1.613 . S
N820 C823 1.350 . S
N821 S819 1.610 . S
N821 C822 1.351 . S
C822 C816 1.428 . S
C822 N821 1.351 . S
C822 C823 1.434 . S
C823 C814 1.429 . S
C823 N820 1.350 . S
C823 C822 1.434 . S
C475 C381 1.402 . S
C473 C8 1.437 . S
C486 C399 1.414 . S
C484 C61 1.437 . S
C497 C407 1.393 . S
C495 C107 1.447 . S
C506 C139 1.439 . S
C508 C373 1.419 . S
C517 C192 1.445 . S
C519 C368 1.394 . S
C528 C238 1.445 . S
C530 C386 1.408 . S
C541 C394 1.402 . S
C539 C284 1.441 . S
C552 C412 1.411 . S
C550 C330 1.449 . S
C561 C100 1.439 . S
C563 C433 1.402 . S
C574 C451 1.418 . S
C572 C160 1.444 . S
C583 C15 1.442 . S
C585 C459 1.404 . S
C596 C425 1.418 . S
C594 C54 1.447 . S
C605 C291 1.443 . S
C607 C420 1.391 . S
C616 C337 1.441 . S
C618 C438 1.407 . S
C629 C446 1.400 . S
C627 C199 1.446 . S
C638 C245 1.448 . S
C640 C464 1.411 . S
C651 C402 1.569 . S
C649 C1 1.545 . S
C662 C417 1.524 . S
C660 C68 1.527 . S
C671 C114 1.531 . S
C673 C376 1.569 . S
C682 C146 1.547 . S
C684 C391 1.523 . S
C693 C185 1.546 . S
C695 C415 1.568 . S
C706 C378 1.519 . S
C704 C231 1.546 . S
C717 C389 1.569 . S
C715 C277 1.541 . S
C728 C404 1.525 . S
C726 C323 1.541 . S
C739 C454 1.569 . S
C737 C93 1.543 . S
C750 C469 1.525 . S
C748 C153 1.530 . S
C759 C22 1.528 . S
C761 C428 1.568 . S
C772 C443 1.522 . S
C770 C47 1.543 . S
C783 C467 1.569 . S
C781 C298 1.529 . S
C792 C344 1.529 . S
C794 C430 1.525 . S
C805 C441 1.569 . S
C803 C206 1.531 . S
C816 C456 1.520 . S
C814 C252 1.536 . S
