# Generated by pormake.
# Topology eea, (3,6)-cn, num edge types: 1
# Building blocks:
#     Node 0, Type 0, BuildingBlock: CUQRIR_clean_linker_1, # of connection points: 3
#     Node 1, Type 0, BuildingBlock: CUQRIR_clean_linker_1, # of connection points: 3
#     Node 2, Type 0, BuildingBlock: CUQRIR_clean_linker_1, # of connection points: 3
#     Node 3, Type 0, BuildingBlock: CUQRIR_clean_linker_1, # of connection points: 3
#     Node 4, Type 0, BuildingBlock: CUQRIR_clean_linker_1, # of connection points: 3
#     Node 5, Type 0, BuildingBlock: CUQRIR_clean_linker_1, # of connection points: 3
#     Node 6, Type 0, BuildingBlock: CUQRIR_clean_linker_1, # of connection points: 3
#     Node 7, Type 0, BuildingBlock: CUQRIR_clean_linker_1, # of connection points: 3
#     Node 8, Type 0, BuildingBlock: CUQRIR_clean_linker_1, # of connection points: 3
#     Node 9, Type 0, BuildingBlock: CUQRIR_clean_linker_1, # of connection points: 3
#     Node 10, Type 0, BuildingBlock: CUQRIR_clean_linker_1, # of connection points: 3
#     Node 11, Type 0, BuildingBlock: CUQRIR_clean_linker_1, # of connection points: 3
#     Node 12, Type 0, BuildingBlock: CUQRIR_clean_linker_1, # of connection points: 3
#     Node 13, Type 0, BuildingBlock: CUQRIR_clean_linker_1, # of connection points: 3
#     Node 14, Type 0, BuildingBlock: CUQRIR_clean_linker_1, # of connection points: 3
#     Node 15, Type 0, BuildingBlock: CUQRIR_clean_linker_1, # of connection points: 3
#     Node 16, Type 0, BuildingBlock: CUQRIR_clean_linker_1, # of connection points: 3
#     Node 17, Type 0, BuildingBlock: CUQRIR_clean_linker_1, # of connection points: 3
#     Node 18, Type 1, BuildingBlock: KUMBOL_clean_sbu_0, # of connection points: 6
#     Node 19, Type 1, BuildingBlock: KUMBOL_clean_sbu_0, # of connection points: 6
#     Node 20, Type 1, BuildingBlock: KUMBOL_clean_sbu_0, # of connection points: 6
#     Node 21, Type 1, BuildingBlock: KUMBOL_clean_sbu_0, # of connection points: 6
#     Node 22, Type 1, BuildingBlock: KUMBOL_clean_sbu_0, # of connection points: 6
#     Node 23, Type 1, BuildingBlock: KUMBOL_clean_sbu_0, # of connection points: 6
#     Node 24, Type 1, BuildingBlock: KUMBOL_clean_sbu_0, # of connection points: 6
#     Node 25, Type 1, BuildingBlock: KUMBOL_clean_sbu_0, # of connection points: 6
#     Node 26, Type 1, BuildingBlock: KUMBOL_clean_sbu_0, # of connection points: 6
#     Edge 27, Type (0, 1), BuildingBlock: MIFKUJ_clean_linker_0, # of connection points: 2
#     Edge 28, Type (0, 1), BuildingBlock: MIFKUJ_clean_linker_0, # of connection points: 2
#     Edge 29, Type (0, 1), BuildingBlock: MIFKUJ_clean_linker_0, # of connection points: 2
#     Edge 30, Type (0, 1), BuildingBlock: MIFKUJ_clean_linker_0, # of connection points: 2
#     Edge 31, Type (0, 1), BuildingBlock: MIFKUJ_clean_linker_0, # of connection points: 2
#     Edge 32, Type (0, 1), BuildingBlock: MIFKUJ_clean_linker_0, # of connection points: 2
#     Edge 33, Type (0, 1), BuildingBlock: MIFKUJ_clean_linker_0, # of connection points: 2
#     Edge 34, Type (0, 1), BuildingBlock: MIFKUJ_clean_linker_0, # of connection points: 2
#     Edge 35, Type (0, 1), BuildingBlock: MIFKUJ_clean_linker_0, # of connection points: 2
#     Edge 36, Type (0, 1), BuildingBlock: MIFKUJ_clean_linker_0, # of connection points: 2
#     Edge 37, Type (0, 1), BuildingBlock: MIFKUJ_clean_linker_0, # of connection points: 2
#     Edge 38, Type (0, 1), BuildingBlock: MIFKUJ_clean_linker_0, # of connection points: 2
#     Edge 39, Type (0, 1), BuildingBlock: MIFKUJ_clean_linker_0, # of connection points: 2
#     Edge 40, Type (0, 1), BuildingBlock: MIFKUJ_clean_linker_0, # of connection points: 2
#     Edge 41, Type (0, 1), BuildingBlock: MIFKUJ_clean_linker_0, # of connection points: 2
#     Edge 42, Type (0, 1), BuildingBlock: MIFKUJ_clean_linker_0, # of connection points: 2
#     Edge 43, Type (0, 1), BuildingBlock: MIFKUJ_clean_linker_0, # of connection points: 2
#     Edge 44, Type (0, 1), BuildingBlock: MIFKUJ_clean_linker_0, # of connection points: 2
#     Edge 45, Type (0, 1), BuildingBlock: MIFKUJ_clean_linker_0, # of connection points: 2
#     Edge 46, Type (0, 1), BuildingBlock: MIFKUJ_clean_linker_0, # of connection points: 2
#     Edge 47, Type (0, 1), BuildingBlock: MIFKUJ_clean_linker_0, # of connection points: 2
#     Edge 48, Type (0, 1), BuildingBlock: MIFKUJ_clean_linker_0, # of connection points: 2
#     Edge 49, Type (0, 1), BuildingBlock: MIFKUJ_clean_linker_0, # of connection points: 2
#     Edge 50, Type (0, 1), BuildingBlock: MIFKUJ_clean_linker_0, # of connection points: 2
#     Edge 51, Type (0, 1), BuildingBlock: MIFKUJ_clean_linker_0, # of connection points: 2
#     Edge 52, Type (0, 1), BuildingBlock: MIFKUJ_clean_linker_0, # of connection points: 2
#     Edge 53, Type (0, 1), BuildingBlock: MIFKUJ_clean_linker_0, # of connection points: 2
#     Edge 54, Type (0, 1), BuildingBlock: MIFKUJ_clean_linker_0, # of connection points: 2
#     Edge 55, Type (0, 1), BuildingBlock: MIFKUJ_clean_linker_0, # of connection points: 2
#     Edge 56, Type (0, 1), BuildingBlock: MIFKUJ_clean_linker_0, # of connection points: 2
#     Edge 57, Type (0, 1), BuildingBlock: MIFKUJ_clean_linker_0, # of connection points: 2
#     Edge 58, Type (0, 1), BuildingBlock: MIFKUJ_clean_linker_0, # of connection points: 2
#     Edge 59, Type (0, 1), BuildingBlock: MIFKUJ_clean_linker_0, # of connection points: 2
#     Edge 60, Type (0, 1), BuildingBlock: MIFKUJ_clean_linker_0, # of connection points: 2
#     Edge 61, Type (0, 1), BuildingBlock: MIFKUJ_clean_linker_0, # of connection points: 2
#     Edge 62, Type (0, 1), BuildingBlock: MIFKUJ_clean_linker_0, # of connection points: 2
#     Edge 63, Type (0, 1), BuildingBlock: MIFKUJ_clean_linker_0, # of connection points: 2
#     Edge 64, Type (0, 1), BuildingBlock: MIFKUJ_clean_linker_0, # of connection points: 2
#     Edge 65, Type (0, 1), BuildingBlock: MIFKUJ_clean_linker_0, # of connection points: 2
#     Edge 66, Type (0, 1), BuildingBlock: MIFKUJ_clean_linker_0, # of connection points: 2
#     Edge 67, Type (0, 1), BuildingBlock: MIFKUJ_clean_linker_0, # of connection points: 2
#     Edge 68, Type (0, 1), BuildingBlock: MIFKUJ_clean_linker_0, # of connection points: 2
#     Edge 69, Type (0, 1), BuildingBlock: MIFKUJ_clean_linker_0, # of connection points: 2
#     Edge 70, Type (0, 1), BuildingBlock: MIFKUJ_clean_linker_0, # of connection points: 2
#     Edge 71, Type (0, 1), BuildingBlock: MIFKUJ_clean_linker_0, # of connection points: 2
#     Edge 72, Type (0, 1), BuildingBlock: MIFKUJ_clean_linker_0, # of connection points: 2
#     Edge 73, Type (0, 1), BuildingBlock: MIFKUJ_clean_linker_0, # of connection points: 2
#     Edge 74, Type (0, 1), BuildingBlock: MIFKUJ_clean_linker_0, # of connection points: 2
#     Edge 75, Type (0, 1), BuildingBlock: MIFKUJ_clean_linker_0, # of connection points: 2
#     Edge 76, Type (0, 1), BuildingBlock: MIFKUJ_clean_linker_0, # of connection points: 2
#     Edge 77, Type (0, 1), BuildingBlock: MIFKUJ_clean_linker_0, # of connection points: 2
#     Edge 78, Type (0, 1), BuildingBlock: MIFKUJ_clean_linker_0, # of connection points: 2
#     Edge 79, Type (0, 1), BuildingBlock: MIFKUJ_clean_linker_0, # of connection points: 2
#     Edge 80, Type (0, 1), BuildingBlock: MIFKUJ_clean_linker_0, # of connection points: 2
# Relax obj value: 0.039
# Max RMSD: 0.194
# Mean RMSD: 0.139
data_MOF--net-eea--node1-KUMBOL_clean_sbu_0--node2-CUQRIR_clean_linker_1--edge1-MIFKUJ_clean_linker_0
_symmetry_space_group_name_H-M    P1
_symmetry_Int_Tables_number       1
_symmetry_cell_setting            triclinic
loop_
_symmetry_equiv_pos_as_xyz
'x, y, z'
_cell_length_a     63.835247
_cell_length_b     68.266992
_cell_length_c     79.783407
_cell_angle_alpha  83.121042
_cell_angle_beta   90.184508
_cell_angle_gamma 118.46476
loop_
_atom_site_label
_atom_site_type_symbol
_atom_site_fract_x
_atom_site_fract_y
_atom_site_fract_z
_atom_type_partial_charge
C0 C 0.21261 0.10022 0.41248 0.0
N1 N 0.21835 0.11673 0.42238 0.0
N2 N 0.21522 0.08295 0.42067 0.0
C3 C 0.207 0.10205 0.3942 0.0
C4 C 0.22288 0.08968 0.43589 0.0
N5 N 0.22499 0.1102 0.43686 0.0
C6 C 0.22671 0.07562 0.45034 0.0
H7 H 0.18738 0.09452 0.39341 0.0
H8 H 0.21342 0.0929 0.38689 0.0
H9 H 0.21535 0.1199 0.38837 0.0
H10 H 0.24577 0.07977 0.44992 0.0
H11 H 0.21553 0.05742 0.44956 0.0
H12 H 0.22236 0.07933 0.46263 0.0
C13 C 0.91174 0.11409 0.41277 0.0
N14 N 0.92114 0.12996 0.4234 0.0
N15 N 0.88986 0.09724 0.41893 0.0
C16 C 0.92313 0.11595 0.39577 0.0
C17 C 0.88644 0.10353 0.43375 0.0
N18 N 0.90517 0.12348 0.43637 0.0
C19 C 0.86565 0.08926 0.4464 0.0
H20 H 0.93458 0.13381 0.39041 0.0
H21 H 0.90939 0.10746 0.38678 0.0
H22 H 0.93453 0.10773 0.39729 0.0
H23 H 0.85822 0.07114 0.44524 0.0
H24 H 0.85143 0.09403 0.44408 0.0
H25 H 0.87112 0.09198 0.4595 0.0
C26 C 0.93234 0.85893 0.41998 0.0
N27 N 0.94151 0.84943 0.43154 0.0
N28 N 0.91037 0.85477 0.42547 0.0
C29 C 0.94341 0.86955 0.40242 0.0
C30 C 0.90653 0.84237 0.44082 0.0
N31 N 0.9254 0.83906 0.44448 0.0
C32 C 0.88285 0.83046 0.45086 0.0
H33 H 0.93475 0.87894 0.39606 0.0
H34 H 0.94143 0.85619 0.39487 0.0
H35 H 0.96277 0.88116 0.40288 0.0
H36 H 0.87028 0.81601 0.44455 0.0
H37 H 0.87515 0.84193 0.45124 0.0
H38 H 0.88456 0.82415 0.46399 0.0
C39 C 0.07717 0.15421 0.61732 0.0
N40 N 0.09646 0.16093 0.60663 0.0
N41 N 0.05945 0.15586 0.60904 0.0
C42 C 0.07642 0.14825 0.63618 0.0
C43 C 0.06859 0.16358 0.59285 0.0
N44 N 0.09105 0.16649 0.59134 0.0
C45 C 0.0568 0.171 0.57903 0.0
H46 H 0.05859 0.13429 0.6409 0.0
H47 H 0.07964 0.16305 0.64241 0.0
H48 H 0.09012 0.14317 0.63976 0.0
H49 H 0.06699 0.18957 0.57584 0.0
H50 H 0.03802 0.16593 0.58286 0.0
H51 H 0.05704 0.16354 0.56749 0.0
C52 C 0.80106 0.90881 0.63074 0.0
N53 N 0.79678 0.89395 0.61959 0.0
N54 N 0.79915 0.92681 0.62342 0.0
C55 C 0.80896 0.90669 0.64835 0.0
C56 C 0.79365 0.92245 0.60741 0.0
N57 N 0.79255 0.90266 0.60496 0.0
C58 C 0.78702 0.93646 0.59472 0.0
H59 H 0.79297 0.89712 0.65725 0.0
H60 H 0.81993 0.92348 0.6524 0.0
H61 H 0.81945 0.89755 0.64907 0.0
H62 H 0.80308 0.94856 0.58651 0.0
H63 H 0.78026 0.9461 0.60111 0.0
H64 H 0.77313 0.92574 0.58661 0.0
C65 C 0.10922 0.91869 0.62972 0.0
N66 N 0.09861 0.90154 0.6202 0.0
N67 N 0.12962 0.9358 0.62165 0.0
C68 C 0.09856 0.91977 0.64615 0.0
C69 C 0.13096 0.92848 0.60682 0.0
N70 N 0.11207 0.90791 0.6058 0.0
C71 C 0.15194 0.94042 0.59401 0.0
H72 H 0.07879 0.90981 0.64678 0.0
H73 H 0.10375 0.93743 0.64768 0.0
H74 H 0.10532 0.91281 0.6568 0.0
H75 H 0.16854 0.95098 0.60009 0.0
H76 H 0.14845 0.95143 0.58433 0.0
H77 H 0.15466 0.92821 0.58755 0.0
C78 C 0.8781 0.43183 0.74893 0.0
N79 N 0.88405 0.44772 0.75945 0.0
N80 N 0.88206 0.41483 0.75594 0.0
C81 C 0.87079 0.43403 0.73114 0.0
C82 C 0.89069 0.42105 0.77108 0.0
N83 N 0.89216 0.44107 0.77313 0.0
C84 C 0.896 0.40678 0.78447 0.0
H85 H 0.85104 0.4261 0.7313 0.0
H86 H 0.8768 0.42544 0.7229 0.0
H87 H 0.87836 0.45197 0.72569 0.0
H88 H 0.91509 0.41124 0.7829 0.0
H89 H 0.88489 0.38865 0.7834 0.0
H90 H 0.89267 0.40983 0.7973 0.0
C91 C 0.57128 0.44747 0.7462 0.0
N92 N 0.5819 0.46286 0.7571 0.0
N93 N 0.55058 0.42975 0.75336 0.0
C94 C 0.58217 0.4488 0.72912 0.0
C95 C 0.54907 0.43497 0.76904 0.0
N96 N 0.56818 0.45479 0.77144 0.0
C97 C 0.52779 0.42178 0.78148 0.0
H98 H 0.57626 0.45792 0.71947 0.0
H99 H 0.57641 0.43175 0.72571 0.0
H100 H 0.60196 0.45807 0.7289 0.0
H101 H 0.53092 0.40967 0.79025 0.0
H102 H 0.51128 0.41231 0.77492 0.0
H103 H 0.5251 0.43306 0.7891 0.0
C104 C 0.59551 0.18603 0.74724 0.0
N105 N 0.6052 0.17672 0.75844 0.0
N106 N 0.57581 0.1851 0.75433 0.0
C107 C 0.60485 0.19536 0.72917 0.0
C108 C 0.57391 0.17488 0.77033 0.0
N109 N 0.59196 0.16994 0.77288 0.0
C110 C 0.55277 0.16699 0.78268 0.0
H111 H 0.59904 0.20774 0.72408 0.0
H112 H 0.59789 0.18141 0.72134 0.0
H113 H 0.62464 0.20347 0.7282 0.0
H114 H 0.53682 0.16573 0.77628 0.0
H115 H 0.55746 0.1792 0.79188 0.0
H116 H 0.54822 0.15036 0.78984 0.0
C117 C 0.74883 0.49423 0.95888 0.0
N118 N 0.76901 0.50385 0.94862 0.0
N119 N 0.73253 0.49987 0.9524 0.0
C120 C 0.74453 0.47832 0.97487 0.0
C121 C 0.74331 0.51294 0.93758 0.0
N122 N 0.76533 0.51511 0.9352 0.0
C123 C 0.73373 0.52608 0.92663 0.0
H124 H 0.72527 0.46593 0.97703 0.0
H125 H 0.75009 0.48781 0.98585 0.0
H126 H 0.75505 0.46933 0.97413 0.0
H127 H 0.72408 0.53194 0.93449 0.0
H128 H 0.72098 0.51499 0.91811 0.0
H129 H 0.7482 0.54092 0.9188 0.0
C130 C 0.45903 0.23969 0.96284 0.0
N131 N 0.45313 0.22366 0.95246 0.0
N132 N 0.45249 0.25523 0.95656 0.0
C133 C 0.46915 0.23906 0.97983 0.0
C134 C 0.44235 0.24801 0.94202 0.0
N135 N 0.44251 0.22879 0.93962 0.0
C136 C 0.43376 0.26055 0.92952 0.0
H137 H 0.46346 0.24731 0.98861 0.0
H138 H 0.48893 0.24818 0.97821 0.0
H139 H 0.4634 0.22149 0.98553 0.0
H140 H 0.43619 0.25775 0.91641 0.0
H141 H 0.44345 0.27886 0.9303 0.0
H142 H 0.41443 0.25425 0.93236 0.0
C143 C 0.78124 0.2475 0.96543 0.0
N144 N 0.77084 0.23093 0.95539 0.0
N145 N 0.80243 0.26438 0.95814 0.0
C146 C 0.77188 0.2462 0.98304 0.0
C147 C 0.80448 0.25741 0.9433 0.0
N148 N 0.78557 0.23714 0.9417 0.0
C149 C 0.82421 0.27098 0.92977 0.0
H150 H 0.75999 0.25392 0.98239 0.0
H151 H 0.78672 0.25551 0.99107 0.0
H152 H 0.76146 0.22848 0.98903 0.0
H153 H 0.83826 0.26584 0.93132 0.0
H154 H 0.83227 0.28924 0.93056 0.0
H155 H 0.81733 0.26778 0.91705 0.0
C156 C 0.54245 0.76539 0.07896 0.0
N157 N 0.5491 0.78149 0.08932 0.0
N158 N 0.54602 0.7482 0.08597 0.0
C159 C 0.53115 0.76589 0.06245 0.0
C160 C 0.55526 0.75455 0.10095 0.0
N161 N 0.55676 0.7746 0.10318 0.0
C162 C 0.56564 0.74251 0.11231 0.0
H163 H 0.5215 0.77578 0.06249 0.0
H164 H 0.51854 0.74861 0.05992 0.0
H165 H 0.54536 0.77399 0.05207 0.0
H166 H 0.57194 0.73333 0.10494 0.0
H167 H 0.55169 0.73012 0.12194 0.0
H168 H 0.58085 0.75452 0.11889 0.0
C169 C 0.23917 0.77824 0.08011 0.0
N170 N 0.24972 0.79458 0.09032 0.0
N171 N 0.21769 0.76164 0.08714 0.0
C172 C 0.2486 0.77959 0.0625 0.0
C173 C 0.21554 0.76855 0.10198 0.0
N174 N 0.23471 0.78856 0.10384 0.0
C175 C 0.19543 0.75505 0.11527 0.0
H176 H 0.23378 0.77069 0.05434 0.0
H177 H 0.26012 0.77149 0.06312 0.0
H178 H 0.25939 0.79734 0.05666 0.0
H179 H 0.18747 0.73679 0.11452 0.0
H180 H 0.18138 0.76012 0.11328 0.0
H181 H 0.20177 0.75826 0.12814 0.0
C182 C 0.26656 0.53438 0.09172 0.0
N183 N 0.27937 0.52721 0.10171 0.0
N184 N 0.24691 0.53143 0.10042 0.0
C185 C 0.27128 0.54118 0.07289 0.0
C186 C 0.2486 0.52262 0.11618 0.0
N187 N 0.26826 0.51992 0.117 0.0
C188 C 0.22888 0.51299 0.12989 0.0
H189 H 0.26683 0.5548 0.06881 0.0
H190 H 0.2597 0.52654 0.06639 0.0
H191 H 0.29022 0.54703 0.069 0.0
H192 H 0.21834 0.49461 0.12968 0.0
H193 H 0.2169 0.52055 0.12788 0.0
H194 H 0.23637 0.51584 0.14247 0.0
C195 C 0.4174 0.83126 0.29133 0.0
N196 N 0.437 0.84022 0.28052 0.0
N197 N 0.39944 0.83349 0.28388 0.0
C198 C 0.41706 0.82352 0.30987 0.0
C199 C 0.40887 0.84419 0.26821 0.0
N200 N 0.43165 0.84831 0.26614 0.0
C201 C 0.3966 0.85271 0.25554 0.0
H202 H 0.41767 0.80744 0.31132 0.0
H203 H 0.40082 0.82083 0.31699 0.0
H204 H 0.43311 0.83604 0.31546 0.0
H205 H 0.40219 0.87055 0.25672 0.0
H206 H 0.3769 0.84279 0.25778 0.0
H207 H 0.40184 0.85188 0.2425 0.0
C208 C 0.13126 0.57552 0.2962 0.0
N209 N 0.12618 0.56066 0.28493 0.0
N210 N 0.12884 0.59345 0.28939 0.0
C211 C 0.14067 0.57361 0.31331 0.0
C212 C 0.12227 0.58907 0.27353 0.0
N213 N 0.12102 0.56935 0.2707 0.0
C214 C 0.11478 0.60296 0.26142 0.0
H215 H 0.12542 0.56431 0.32286 0.0
H216 H 0.15227 0.59048 0.31703 0.0
H217 H 0.15099 0.56434 0.31334 0.0
H218 H 0.13039 0.61525 0.2529 0.0
H219 H 0.1082 0.61235 0.2683 0.0
H220 H 0.10051 0.59218 0.25357 0.0
C221 C 0.44826 0.58681 0.29702 0.0
N222 N 0.43846 0.56937 0.28769 0.0
N223 N 0.46998 0.60292 0.29006 0.0
C224 C 0.43777 0.5873 0.31372 0.0
C225 C 0.47314 0.59467 0.27624 0.0
N226 N 0.4542 0.57431 0.27483 0.0
C227 C 0.49417 0.60716 0.26355 0.0
H228 H 0.42559 0.59458 0.3114 0.0
H229 H 0.45196 0.59791 0.32169 0.0
H230 H 0.42742 0.57008 0.32067 0.0
H231 H 0.5077 0.6017 0.26672 0.0
H232 H 0.50252 0.62558 0.2637 0.0
H233 H 0.48863 0.60338 0.25062 0.0
Gd234 Gd 0.52077 0.02085 0.03957 0.0
Gd235 Gd 0.50328 0.99743 0.99967 0.0
C236 C 0.43426 0.93421 0.9926 0.0
C237 C 0.44878 0.9085 0.98675 0.0
C238 C 0.47665 0.94649 0.9919 0.0
C239 C 0.4579 0.95079 0.99439 0.0
C240 C 0.47236 0.92541 0.9878 0.0
C241 C 0.42975 0.91292 0.9891 0.0
C242 C 0.41594 0.93978 0.99385 0.0
C243 C 0.42146 0.96149 0.99663 0.0
N244 N 0.46288 0.97158 0.99764 0.0
C245 C 0.44515 0.9773 0.99837 0.0
H246 H 0.4491 0.994 1.00045 0.0
C247 C 0.51838 0.96062 0.98872 0.0
N248 N 0.4992 0.9633 0.99278 0.0
C249 C 0.51504 0.94001 0.98465 0.0
C250 C 0.49194 0.92221 0.98441 0.0
H251 H 0.53631 0.97425 0.98891 0.0
H252 H 0.41168 0.89991 0.98783 0.0
H253 H 0.57387 0.02161 0.03877 0.0
H254 H 0.39763 0.92765 0.99222 0.0
H255 H 0.40757 0.96618 0.99732 0.0
H256 H 0.4451 0.89215 0.98371 0.0
H257 H 0.49103 0.04683 0.05095 0.0
H258 H 0.62879 0.08906 0.04054 0.0
H259 H 0.61648 0.04915 0.03867 0.0
H260 H 0.58509 0.12838 0.04881 0.0
H261 H 0.53031 0.93798 0.98155 0.0
H262 H 0.48941 0.90628 0.98118 0.0
H263 H 0.6169 0.11862 0.04408 0.0
H264 H 0.49956 0.085 0.05576 0.0
N265 N 0.56191 0.04564 0.04036 0.0
C266 C 0.60999 0.077 0.04067 0.0
C267 C 0.60311 0.05449 0.03964 0.0
C268 C 0.5925 0.08356 0.0423 0.0
C269 C 0.56829 0.06721 0.04229 0.0
C270 C 0.57886 0.03889 0.03972 0.0
N271 N 0.52747 0.05623 0.04562 0.0
C272 C 0.55048 0.07271 0.04495 0.0
C273 C 0.51406 0.08179 0.0527 0.0
C274 C 0.53762 0.09919 0.05131 0.0
C275 C 0.50929 0.0602 0.05005 0.0
C276 C 0.55623 0.0947 0.04765 0.0
H277 H 0.54128 0.11589 0.05342 0.0
O278 O 0.50467 0.01395 0.06501 0.0
O279 O 0.49251 0.99407 0.02675 0.0
O280 O 0.48983 0.02236 1.00315 0.0
O281 O 0.51595 0.04603 0.02112 0.0
O282 O 0.48083 0.00745 0.04383 0.0
O283 O 0.53199 1.00471 0.05995 0.0
O284 O 0.52357 0.00923 0.97548 0.0
O285 O 0.53092 0.02461 0.01251 0.0
O286 O 0.5325 0.99447 0.03622 0.0
O287 O 0.50606 0.9713 0.01814 0.0
O288 O 0.5434 0.0111 0.99615 0.0
O289 O 0.49017 0.01007 0.97819 0.0
C290 C 0.47389 0.99252 0.03365 0.0
C291 C 0.58029 0.11131 0.04695 0.0
C292 C 0.59841 0.10576 0.04427 0.0
C293 C 0.51819 1.00579 0.0714 0.0
C294 C 0.52923 0.01355 0.08712 0.0
C295 C 0.54608 0.03609 0.08765 0.0
C296 C 0.52314 0.99791 0.10175 0.0
C297 C 0.53376 1.0046 0.11699 0.0
C298 C 0.55675 0.0429 0.1027 0.0
C299 C 0.55066 0.0273 0.11731 0.0
C300 C 0.50021 0.04177 0.00937 0.0
C301 C 0.5498 0.02648 0.00589 0.0
C302 C 0.50778 0.01345 0.96791 0.0
C303 C 0.50181 1.00599 0.95123 0.0
C304 C 0.48279 0.98483 0.94933 0.0
C305 C 0.51577 0.02045 0.93696 0.0
C306 C 0.51065 0.01416 0.92066 0.0
C307 C 0.47769 0.97831 0.93323 0.0
C308 C 0.49142 0.99285 0.91897 0.0
C309 C 0.52133 0.97493 0.03014 0.0
H310 H 0.55101 0.04835 0.07647 0.0
H311 H 0.50986 0.98056 0.10128 0.0
H312 H 0.5698 0.06031 0.10305 0.0
H313 H 0.55932 0.03295 0.1288 0.0
H314 H 0.4719 0.97343 0.96022 0.0
H315 H 0.53074 0.03659 0.93863 0.0
H316 H 0.46291 0.962 0.93179 0.0
H317 H 0.48669 0.98756 0.90662 0.0
Gd318 Gd 0.99692 0.5081 0.04005 0.0
Gd319 Gd 0.02673 0.52261 0.99706 0.0
C320 C 0.09591 0.52066 0.98639 0.0
C321 C 0.1239 0.56013 0.97764 0.0
C322 C 0.08231 0.54836 0.98511 0.0
C323 C 0.07758 0.52627 0.98849 0.0
C324 C 0.10539 0.56551 0.9793 0.0
C325 C 0.11917 0.53775 0.98121 0.0
C326 C 0.09025 0.49801 0.98935 0.0
C327 C 0.06668 0.4816 0.99385 0.0
N328 N 0.05493 0.51021 0.99354 0.0
C329 C 0.0491 0.488 0.99569 0.0
H330 H 0.03102 0.47511 0.99928 0.0
C331 C 0.06716 0.57406 0.9817 0.0
N332 N 0.06403 0.55295 0.98683 0.0
C333 C 0.08976 0.59167 0.97596 0.0
C334 C 0.10904 0.58743 0.97494 0.0
H335 H 0.0523 0.57741 0.9825 0.0
H336 H 0.13353 0.53378 0.97965 0.0
H337 H 0.99182 0.55522 0.03675 0.0
H338 H 0.10383 0.493 0.98794 0.0
H339 H 0.06204 0.46401 0.99596 0.0
H340 H 0.14181 0.57309 0.97333 0.0
H341 H 0.97188 0.45365 0.05541 0.0
H342 H 0.91863 0.53668 0.04722 0.0
H343 H 0.9604 0.56595 0.03938 0.0
H344 H 0.88135 0.45676 0.06243 0.0
H345 H 0.09228 0.60847 0.9723 0.0
H346 H 0.12652 0.60109 0.97043 0.0
H347 H 0.88915 0.49586 0.0554 0.0
H348 H 0.9319 0.42233 0.0654 0.0
N349 N 0.96815 0.52007 0.04251 0.0
C350 C 0.93236 0.53185 0.04594 0.0
C351 C 0.95592 0.5484 0.04158 0.0
C352 C 0.92692 0.50927 0.04907 0.0
C353 C 0.94549 0.50388 0.04739 0.0
C354 C 0.97373 0.54221 0.04012 0.0
N355 N 0.95971 0.47771 0.05038 0.0
C356 C 0.94112 0.48197 0.0514 0.0
C357 C 0.93423 0.43901 0.06146 0.0
C358 C 0.91469 0.44295 0.06193 0.0
C359 C 0.95682 0.45676 0.05586 0.0
C360 C 0.91804 0.46471 0.05711 0.0
H361 H 0.89722 0.42921 0.06635 0.0
O362 O 0.00428 0.49672 0.06495 0.0
O363 O 0.0269 0.51151 0.02414 0.0
O364 O 0.9998 0.48492 1.00292 0.0
O365 O 0.97306 0.48097 0.02468 0.0
O366 O 0.01379 0.48527 0.04338 0.0
O367 O 0.01044 0.53091 0.05888 0.0
O368 O 0.01502 0.53368 0.97403 0.0
O369 O 0.99614 0.51851 0.01281 0.0
O370 O 0.0234 0.54563 0.03401 0.0
O371 O 0.05074 0.54965 0.01269 0.0
O372 O 0.0113 0.54637 0.99479 0.0
O373 O 0.01682 0.50263 0.9762 0.0
C374 C 0.02997 0.49568 0.03118 0.0
C375 C 0.89926 0.46981 0.05819 0.0
C376 C 0.90369 0.49207 0.05419 0.0
C377 C 0.01032 0.51577 0.07057 0.0
C378 C 0.99991 0.51456 0.08734 0.0
C379 C 0.97617 0.51011 0.08934 0.0
C380 C 0.01408 0.51876 0.10139 0.0
C381 C 0.00467 0.51883 0.11731 0.0
C382 C 0.96672 0.51006 0.1051 0.0
C383 C 0.98087 0.51449 0.119 0.0
C384 C 0.97888 0.47354 0.01181 0.0
C385 C 0.99387 0.53499 0.00605 0.0
C386 C 0.01247 0.51688 0.96647 0.0
C387 C 0.02197 0.52262 0.94877 0.0
C388 C 0.04652 0.53604 0.94462 0.0
C389 C 0.00609 0.51576 0.93579 0.0
C390 C 0.01463 0.52284 0.91873 0.0
C391 C 0.05507 0.54293 0.9277 0.0
C392 C 0.03922 0.53656 0.9148 0.0
C393 C 0.04466 0.55687 0.02562 0.0
H394 H 0.96502 0.5069 0.07872 0.0
H395 H 0.03251 0.52246 0.09989 0.0
H396 H 0.94839 0.50666 0.10654 0.0
H397 H 0.97314 0.51429 0.13112 0.0
H398 H 0.059 0.54144 0.95442 0.0
H399 H 0.98707 0.50548 0.93893 0.0
H400 H 0.07402 0.55342 0.92457 0.0
H401 H 0.04616 0.54218 0.90174 0.0
Gd402 Gd 0.48894 0.50454 1.00337 0.0
Gd403 Gd 0.50082 0.49047 0.0477 0.0
C404 C 0.57173 0.49316 0.06066 0.0
C405 C 0.55957 0.45383 0.07008 0.0
C406 C 0.53004 0.4652 0.06123 0.0
C407 C 0.54775 0.48735 0.0579 0.0
C408 C 0.53565 0.44824 0.06771 0.0
C409 C 0.57758 0.47624 0.06653 0.0
C410 C 0.58907 0.51583 0.05757 0.0
C411 C 0.58223 0.53207 0.05223 0.0
N412 N 0.5415 0.50325 0.05211 0.0
C413 C 0.5582 0.52548 0.04973 0.0
H414 H 0.55324 0.53822 0.04553 0.0
C415 C 0.48874 0.43928 0.06386 0.0
N416 N 0.50715 0.46039 0.05881 0.0
C417 C 0.4934 0.42185 0.07025 0.0
C418 C 0.51698 0.42629 0.07199 0.0
H419 H 0.47049 0.43585 0.06249 0.0
H420 H 0.59593 0.48036 0.06861 0.0
H421 H 0.43435 0.45919 0.00677 0.0
H422 H 0.6077 0.52098 0.05947 0.0
H423 H 0.59546 0.54967 0.05 0.0
H424 H 0.56428 0.44101 0.07492 0.0
H425 H 0.52215 0.55712 0.98475 0.0
H426 H 0.38323 0.48058 0.99219 0.0
H427 H 0.39281 0.45026 1.00231 0.0
H428 H 0.43174 0.55897 0.97235 0.0
H429 H 0.47881 0.40503 0.07384 0.0
H430 H 0.52055 0.41277 0.077 0.0
H431 H 0.39791 0.5213 0.98123 0.0
H432 H 0.5168 0.58877 0.97112 0.0
N433 N 0.4485 0.49447 0.99972 0.0
C434 C 0.40158 0.48467 0.9942 0.0
C435 C 0.40693 0.46751 0.99984 0.0
C436 C 0.42011 0.50675 0.99051 0.0
C437 C 0.44369 0.51112 0.99333 0.0
C438 C 0.43062 0.4727 1.0024 0.0
N439 N 0.48499 0.53524 0.9902 0.0
C440 C 0.4626 0.53221 0.98832 0.0
C441 C 0.50139 0.57297 0.97595 0.0
C442 C 0.47843 0.57039 0.9745 0.0
C443 C 0.50435 0.55501 0.98366 0.0
C444 C 0.45865 0.54969 0.98044 0.0
H445 H 0.47616 0.58426 0.96842 0.0
O446 O 0.51034 0.51334 0.97966 0.0
O447 O 0.51401 0.50038 0.02079 0.0
O448 O 0.51186 0.52784 0.04143 0.0
O449 O 0.49387 0.53356 0.0169 0.0
O450 O 0.5289 0.52684 1.00171 0.0
O451 O 0.47911 0.48079 0.98519 0.0
O452 O 0.47775 0.47862 0.07074 0.0
O453 O 0.4763 0.49537 0.03041 0.0
O454 O 0.4746 0.46691 0.01107 0.0
O455 O 0.49747 0.46311 0.03283 0.0
O456 O 0.46084 0.46816 0.04859 0.0
O457 O 0.50959 0.51101 0.0682 0.0
C458 C 0.53362 0.51604 0.01418 0.0
C459 C 0.43517 0.54572 0.97826 0.0
C460 C 0.41591 0.5243 0.98336 0.0
C461 C 0.4963 0.49451 0.97404 0.0
C462 C 0.48952 0.49606 0.9564 0.0
C463 C 0.47011 0.4998 0.95278 0.0
C464 C 0.50185 0.49296 0.94315 0.0
C465 C 0.49434 0.49305 0.92647 0.0
C466 C 0.46278 0.50011 0.93631 0.0
C467 C 0.47466 0.49662 0.92328 0.0
C468 C 0.50516 0.54015 0.03083 0.0
C469 C 0.45632 0.48015 0.03687 0.0
C470 C 0.49132 0.4961 0.07811 0.0
C471 C 0.49598 0.49145 0.09591 0.0
C472 C 0.507 0.47815 0.10007 0.0
C473 C 0.48908 0.49997 0.1089 0.0
C474 C 0.49327 0.49523 0.12596 0.0
C475 C 0.51092 0.47318 0.11685 0.0
C476 C 0.50408 0.48153 0.12969 0.0
C477 C 0.48374 0.45551 0.02011 0.0
H478 H 0.46043 0.50222 0.96272 0.0
H479 H 0.51681 0.48996 0.94587 0.0
H480 H 0.44772 0.50293 0.93364 0.0
H481 H 0.46858 0.49693 0.9106 0.0
H482 H 0.51243 0.47146 0.0904 0.0
H483 H 0.4808 0.51046 0.10568 0.0
H484 H 0.51925 0.46272 0.11994 0.0
H485 H 0.50708 0.47704 0.14261 0.0
Gd486 Gd 0.1898 0.35521 0.37266 0.0
Gd487 Gd 0.17413 0.33285 0.3322 0.0
C488 C 0.10599 0.2686 0.32616 0.0
C489 C 0.12124 0.24322 0.32092 0.0
C490 C 0.14856 0.28168 0.3253 0.0
C491 C 0.12949 0.28566 0.32757 0.0
C492 C 0.1447 0.26058 0.32159 0.0
C493 C 0.10192 0.24723 0.32319 0.0
C494 C 0.08734 0.27373 0.32726 0.0
C495 C 0.09234 0.29553 0.32935 0.0
N496 N 0.13398 0.30654 0.33027 0.0
C497 C 0.11596 0.3119 0.33064 0.0
H498 H 0.11969 0.32872 0.33224 0.0
C499 C 0.19041 0.29667 0.32157 0.0
N500 N 0.171 0.29889 0.32585 0.0
C501 C 0.18748 0.27607 0.31782 0.0
C502 C 0.16454 0.25782 0.31809 0.0
H503 H 0.20819 0.31069 0.32136 0.0
H504 H 0.08394 0.23385 0.32223 0.0
H505 H 0.24358 0.35708 0.37059 0.0
H506 H 0.06916 0.26114 0.32603 0.0
H507 H 0.07808 0.29977 0.3299 0.0
H508 H 0.11789 0.22682 0.31822 0.0
H509 H 0.15987 0.37875 0.38779 0.0
H510 H 0.29768 0.42426 0.37417 0.0
H511 H 0.28597 0.38492 0.3706 0.0
H512 H 0.25293 0.46112 0.38678 0.0
H513 H 0.20291 0.27438 0.31458 0.0
H514 H 0.16233 0.24189 0.31511 0.0
H515 H 0.28517 0.45272 0.37996 0.0
H516 H 0.16773 0.41569 0.39523 0.0
N517 N 0.23097 0.38034 0.37369 0.0
C518 C 0.27894 0.41205 0.37422 0.0
C519 C 0.2724 0.38986 0.37224 0.0
C520 C 0.26119 0.41802 0.37681 0.0
C521 C 0.23707 0.4015 0.37664 0.0
C522 C 0.24821 0.37407 0.37227 0.0
N523 N 0.19624 0.38953 0.38089 0.0
C524 C 0.21907 0.40627 0.38033 0.0
C525 C 0.18235 0.41332 0.39096 0.0
C526 C 0.20568 0.43112 0.38955 0.0
C527 C 0.17796 0.39242 0.38678 0.0
C528 C 0.22447 0.42763 0.38445 0.0
H529 H 0.20906 0.44728 0.39284 0.0
O530 O 0.171 0.34426 0.39742 0.0
O531 O 0.16223 0.32877 0.35912 0.0
O532 O 0.16139 0.35853 0.33448 0.0
O533 O 0.18203 0.37983 0.35585 0.0
O534 O 0.14991 0.34195 0.37602 0.0
O535 O 0.20151 0.3393 0.39298 0.0
O536 O 0.19581 0.34639 0.30865 0.0
O537 O 0.20062 0.36038 0.34544 0.0
O538 O 0.20268 0.32981 0.36886 0.0
O539 O 0.17684 0.30669 0.35061 0.0
O540 O 0.21428 0.34717 0.3295 0.0
O541 O 0.15964 0.34152 0.3095 0.0
C542 C 0.14338 0.32724 0.36567 0.0
C543 C 0.2484 0.44451 0.38386 0.0
C544 C 0.26675 0.43972 0.37999 0.0
C545 C 0.18538 0.3373 0.404 0.0
C546 C 0.19342 0.34332 0.42075 0.0
C547 C 0.20556 0.3658 0.42374 0.0
C548 C 0.18836 0.32605 0.43407 0.0
C549 C 0.19486 0.33104 0.45049 0.0
C550 C 0.21222 0.37089 0.44003 0.0
C551 C 0.20675 0.35362 0.45339 0.0
C552 C 0.16876 0.37642 0.34256 0.0
C553 C 0.21987 0.36272 0.33903 0.0
C554 C 0.17884 0.34723 0.30004 0.0
C555 C 0.17585 0.3387 0.28368 0.0
C556 C 0.16262 0.3157 0.28242 0.0
C557 C 0.18825 0.35388 0.26928 0.0
C558 C 0.18834 0.3463 0.25362 0.0
C559 C 0.16229 0.30796 0.26695 0.0
C560 C 0.17521 0.32306 0.25267 0.0
C561 C 0.1919 0.31036 0.36271 0.0
H562 H 0.20971 0.37933 0.41357 0.0
H563 H 0.17878 0.30867 0.43174 0.0
H564 H 0.22149 0.38826 0.44233 0.0
H565 H 0.21192 0.35788 0.46595 0.0
H566 H 0.15283 0.30375 0.29336 0.0
H567 H 0.19791 0.37166 0.27043 0.0
H568 H 0.15226 0.29014 0.26607 0.0
H569 H 0.17512 0.31644 0.24099 0.0
Gd570 Gd 0.6667 0.84428 0.373 0.0
Gd571 Gd 0.69137 0.86262 0.32853 0.0
C572 C 0.75977 0.86517 0.30906 0.0
C573 C 0.78605 0.90535 0.30189 0.0
C574 C 0.74565 0.89139 0.31374 0.0
C575 C 0.74178 0.86953 0.31487 0.0
C576 C 0.76773 0.90955 0.30704 0.0
C577 C 0.782 0.88319 0.30275 0.0
C578 C 0.75457 0.84279 0.30919 0.0
C579 C 0.73199 0.82545 0.3151 0.0
N580 N 0.71999 0.85249 0.3208 0.0
C581 C 0.71473 0.83062 0.32072 0.0
H582 H 0.69725 0.81706 0.32504 0.0
C583 C 0.72927 0.91579 0.31534 0.0
N584 N 0.72726 0.89478 0.31818 0.0
C585 C 0.75096 0.93437 0.30907 0.0
C586 C 0.77038 0.93128 0.30508 0.0
H587 H 0.71427 0.91825 0.31832 0.0
H588 H 0.79599 0.88018 0.29813 0.0
H589 H 0.65943 0.88961 0.37467 0.0
H590 H 0.76758 0.83873 0.3043 0.0
H591 H 0.72777 0.8081 0.31511 0.0
H592 H 0.80315 0.91906 0.29672 0.0
H593 H 0.64535 0.78977 0.38714 0.0
H594 H 0.58628 0.86714 0.38925 0.0
H595 H 0.62702 0.89816 0.38068 0.0
H596 H 0.55316 0.78728 0.4012 0.0
H597 H 0.75259 0.95101 0.30716 0.0
H598 H 0.78707 0.94568 0.30003 0.0
H599 H 0.55865 0.82579 0.39633 0.0
H600 H 0.60708 0.75697 0.39846 0.0
N601 N 0.63709 0.85412 0.37901 0.0
C602 C 0.60039 0.86336 0.38635 0.0
C603 C 0.62339 0.88087 0.38165 0.0
C604 C 0.59603 0.8411 0.38794 0.0
C605 C 0.61505 0.837 0.38427 0.0
C606 C 0.64173 0.87592 0.37826 0.0
N607 N 0.63112 0.81243 0.38431 0.0
C608 C 0.61195 0.81541 0.38701 0.0
C609 C 0.60817 0.7733 0.39522 0.0
C610 C 0.58797 0.77591 0.39734 0.0
C611 C 0.62981 0.7919 0.38885 0.0
C612 C 0.58978 0.79723 0.39348 0.0
H613 H 0.57125 0.7615 0.40233 0.0
O614 O 0.67824 0.83224 0.39584 0.0
O615 O 0.69528 0.8498 0.35443 0.0
O616 O 0.66543 0.82469 0.33328 0.0
O617 O 0.64144 0.81769 0.35773 0.0
O618 O 0.68377 0.82194 0.37219 0.0
O619 O 0.68083 0.86522 0.393 0.0
O620 O 0.67914 0.87551 0.30661 0.0
O621 O 0.66233 0.85637 0.34689 0.0
O622 O 0.69217 0.88227 0.36769 0.0
O623 O 0.71749 0.88745 0.34464 0.0
O624 O 0.67463 0.88506 0.32988 0.0
O625 O 0.67831 0.84333 0.30744 0.0
C626 C 0.69871 0.83344 0.35946 0.0
C627 C 0.57042 0.80105 0.39638 0.0
C628 C 0.57354 0.82297 0.39362 0.0
C629 C 0.68325 0.84999 0.40305 0.0
C630 C 0.67379 0.846 0.42068 0.0
C631 C 0.6494 0.83831 0.4242 0.0
C632 C 0.68924 0.85073 0.43405 0.0
C633 C 0.68034 0.84829 0.45076 0.0
C634 C 0.64049 0.83557 0.44073 0.0
C635 C 0.65585 0.84066 0.45393 0.0
C636 C 0.6458 0.81191 0.34337 0.0
C637 C 0.65873 0.87266 0.34192 0.0
C638 C 0.67491 0.8587 0.2984 0.0
C639 C 0.68397 0.86451 0.28054 0.0
C640 C 0.70824 0.87918 0.27617 0.0
C641 C 0.66824 0.85577 0.26767 0.0
C642 C 0.67672 0.86208 0.25052 0.0
C643 C 0.71677 0.88521 0.25927 0.0
C644 C 0.70116 0.87682 0.24652 0.0
C645 C 0.71268 0.89407 0.3584 0.0
H646 H 0.63729 0.83467 0.41416 0.0
H647 H 0.70816 0.85686 0.43142 0.0
H648 H 0.62165 0.82969 0.44331 0.0
H649 H 0.64857 0.83857 0.46667 0.0
H650 H 0.72059 0.88613 0.28577 0.0
H651 H 0.64942 0.84454 0.27097 0.0
H652 H 0.73555 0.89653 0.25604 0.0
H653 H 0.70826 0.88173 0.23349 0.0
Gd654 Gd 0.16487 0.84307 0.33658 0.0
Gd655 Gd 0.16993 0.82566 0.3818 0.0
C656 C 0.23371 0.8193 0.40194 0.0
C657 C 0.21588 0.77928 0.41184 0.0
C658 C 0.19184 0.79489 0.39846 0.0
C659 C 0.21156 0.81606 0.39608 0.0
C660 C 0.19372 0.77626 0.40645 0.0
C661 C 0.23573 0.8008 0.40981 0.0
C662 C 0.25287 0.84118 0.40041 0.0
C663 C 0.24946 0.8592 0.39369 0.0
N664 N 0.20863 0.83372 0.38928 0.0
C665 C 0.22699 0.85519 0.38847 0.0
H666 H 0.22458 0.86934 0.38357 0.0
C667 C 0.15 0.77272 0.39773 0.0
N668 N 0.17044 0.79281 0.394 0.0
C669 C 0.15105 0.75364 0.4052 0.0
C670 C 0.17304 0.75538 0.40949 0.0
H671 H 0.13292 0.77133 0.39458 0.0
H672 H 0.25235 0.80307 0.41489 0.0
H673 H 0.11054 0.79868 0.33502 0.0
H674 H 0.27015 0.84441 0.40479 0.0
H675 H 0.26404 0.87623 0.39272 0.0
H676 H 0.21767 0.76523 0.41815 0.0
H677 H 0.20025 0.89719 0.32176 0.0
H678 H 0.06113 0.82316 0.32282 0.0
H679 H 0.06945 0.79138 0.33015 0.0
H680 H 0.11156 0.9029 0.31045 0.0
H681 H 0.13489 0.73767 0.4078 0.0
H682 H 0.17376 0.74065 0.41555 0.0
H683 H 0.07699 0.8649 0.31573 0.0
H684 H 0.19632 0.9308 0.31107 0.0
N685 N 0.12538 0.83429 0.33088 0.0
C686 C 0.07923 0.82648 0.32494 0.0
C687 C 0.08387 0.80849 0.32903 0.0
C688 C 0.09815 0.8485 0.3231 0.0
C689 C 0.12134 0.85188 0.32607 0.0
C690 C 0.10723 0.81272 0.33175 0.0
N691 N 0.16279 0.87554 0.3254 0.0
C692 C 0.14069 0.87322 0.3232 0.0
C693 C 0.18052 0.91472 0.31452 0.0
C694 C 0.15784 0.91286 0.31306 0.0
C695 C 0.18271 0.8957 0.3205 0.0
C696 C 0.13755 0.89185 0.31715 0.0
H697 H 0.15619 0.9276 0.30838 0.0
O698 O 0.1897 0.85344 0.3146 0.0
O699 O 0.1865 0.83615 0.35571 0.0
O700 O 0.18582 0.86381 0.37559 0.0
O701 O 0.16851 0.8706 0.35123 0.0
O702 O 0.20493 0.86349 0.33766 0.0
O703 O 0.15562 0.82341 0.31553 0.0
O704 O 0.14519 0.81533 0.40388 0.0
O705 O 0.14839 0.83254 0.36268 0.0
O706 O 0.15029 0.80506 0.34264 0.0
O707 O 0.16775 0.79863 0.36705 0.0
O708 O 0.13 0.80506 0.3804 0.0
O709 O 0.17775 0.84707 0.40158 0.0
C710 C 0.2071 0.85146 0.3506 0.0
C711 C 0.11439 0.88876 0.31491 0.0
C712 C 0.09471 0.86712 0.3179 0.0
C713 C 0.17521 0.83726 0.3064 0.0
C714 C 0.17252 0.84393 0.2885 0.0
C715 C 0.16108 0.8569 0.28469 0.0
C716 C 0.18158 0.83766 0.27513 0.0
C717 C 0.17915 0.84441 0.25804 0.0
C718 C 0.15898 0.86393 0.26796 0.0
C719 C 0.16801 0.85789 0.25477 0.0
C720 C 0.17967 0.87672 0.36523 0.0
C721 C 0.1277 0.81741 0.36778 0.0
C722 C 0.1588 0.83285 0.4112 0.0
C723 C 0.16261 0.82843 0.42925 0.0
C724 C 0.17778 0.8194 0.43374 0.0
C725 C 0.15126 0.83328 0.4421 0.0
C726 C 0.15487 0.82876 0.45936 0.0
C727 C 0.18168 0.81517 0.45064 0.0
C728 C 0.17041 0.81981 0.46333 0.0
C729 C 0.15681 0.79239 0.35296 0.0
H730 H 0.15382 0.86171 0.29465 0.0
H731 H 0.19015 0.82737 0.27805 0.0
H732 H 0.15036 0.87419 0.26518 0.0
H733 H 0.1664 0.86403 0.24193 0.0
H734 H 0.18678 0.81576 0.42417 0.0
H735 H 0.13951 0.84028 0.43868 0.0
H736 H 0.1936 0.80835 0.45392 0.0
H737 H 0.17423 0.81669 0.47631 0.0
Gd738 Gd 0.85703 0.68624 0.71032 0.0
Gd739 Gd 0.83653 0.66321 0.67037 0.0
C740 C 0.76357 0.60232 0.66726 0.0
C741 C 0.77437 0.57422 0.66089 0.0
C742 C 0.80525 0.61208 0.66388 0.0
C743 C 0.788 0.61807 0.66727 0.0
C744 C 0.79866 0.59021 0.66034 0.0
C745 C 0.75685 0.58025 0.66437 0.0
C746 C 0.74664 0.60932 0.66986 0.0
C747 C 0.75427 0.63172 0.67187 0.0
N748 N 0.79511 0.63952 0.67004 0.0
C749 C 0.77871 0.64674 0.67171 0.0
H750 H 0.78427 0.66393 0.67342 0.0
C751 C 0.84615 0.62352 0.65847 0.0
N752 N 0.82852 0.62791 0.66348 0.0
C753 C 0.84052 0.60205 0.6549 0.0
C754 C 0.81668 0.58524 0.65602 0.0
H755 H 0.8646 0.63647 0.65771 0.0
H756 H 0.73818 0.56785 0.66449 0.0
H757 H 0.91031 0.68805 0.70551 0.0
H758 H 0.7277 0.59771 0.67004 0.0
H759 H 0.74133 0.6374 0.67364 0.0
H760 H 0.76894 0.55726 0.65835 0.0
H761 H 0.8279 0.71057 0.72564 0.0
H762 H 0.96525 0.75494 0.70905 0.0
H763 H 0.95293 0.71576 0.70462 0.0
H764 H 0.92179 0.79219 0.72371 0.0
H765 H 0.85456 0.59847 0.65132 0.0
H766 H 0.81236 0.56863 0.65323 0.0
H767 H 0.95344 0.78345 0.71601 0.0
H768 H 0.83662 0.74774 0.73307 0.0
N769 N 0.89828 0.71132 0.70997 0.0
C770 C 0.94644 0.74282 0.70948 0.0
C771 C 0.93956 0.72072 0.707 0.0
C772 C 0.92896 0.74885 0.71291 0.0
C773 C 0.90473 0.73245 0.71321 0.0
C774 C 0.91529 0.70502 0.70753 0.0
N775 N 0.86403 0.72085 0.71829 0.0
C776 C 0.88701 0.73742 0.71742 0.0
C777 C 0.85096 0.7451 0.72861 0.0
C778 C 0.87443 0.76267 0.72699 0.0
C779 C 0.84609 0.72408 0.72443 0.0
C780 C 0.89287 0.75886 0.7216 0.0
H781 H 0.87819 0.77891 0.73031 0.0
O782 O 0.84073 0.67577 0.73587 0.0
O783 O 0.8279 0.65992 0.69777 0.0
O784 O 0.8263 0.69031 0.67376 0.0
O785 O 0.85044 0.71183 0.69387 0.0
O786 O 0.81735 0.67287 0.71588 0.0
O787 O 0.87114 0.67137 0.72963 0.0
O788 O 0.85485 0.67245 0.64554 0.0
O789 O 0.86522 0.69006 0.68278 0.0
O790 O 0.86862 0.66037 0.70526 0.0
O791 O 0.84051 0.63711 0.6881 0.0
O792 O 0.87633 0.67644 0.66553 0.0
O793 O 0.82386 0.67713 0.64943 0.0
C794 C 0.80974 0.65826 0.70544 0.0
C795 C 0.91692 0.77555 0.7207 0.0
C796 C 0.93494 0.77056 0.71634 0.0
C797 C 0.85619 0.66962 0.74153 0.0
C798 C 0.86632 0.67702 0.75756 0.0
C799 C 0.879 0.69988 0.75938 0.0
C800 C 0.86284 0.66078 0.77135 0.0
C801 C 0.87125 0.66716 0.78721 0.0
C802 C 0.88779 0.70644 0.77494 0.0
C803 C 0.88383 0.69025 0.78881 0.0
C804 C 0.83597 0.70869 0.68134 0.0
C805 C 0.88356 0.69198 0.67522 0.0
C806 C 0.84003 0.67862 0.63861 0.0
C807 C 0.83222 0.67163 0.62205 0.0
C808 C 0.8118 0.65128 0.62041 0.0
C809 C 0.84563 0.68595 0.60757 0.0
C810 C 0.83861 0.68042 0.59132 0.0
C811 C 0.80476 0.64548 0.60434 0.0
C812 C 0.81797 0.65995 0.58987 0.0
C813 C 0.85671 0.64077 0.69941 0.0
H814 H 0.88193 0.71262 0.74886 0.0
H815 H 0.85346 0.64317 0.76964 0.0
H816 H 0.89741 0.72412 0.77633 0.0
H817 H 0.89015 0.69588 0.80085 0.0
H818 H 0.8013 0.64001 0.63149 0.0
H819 H 0.86167 0.70142 0.60906 0.0
H820 H 0.7889 0.62982 0.60308 0.0
H821 H 0.81175 0.65526 0.57759 0.0
Gd822 Gd 0.32634 0.17613 0.70609 0.0
Gd823 Gd 0.3537 0.19575 0.66203 0.0
C824 C 0.42095 0.19071 0.65035 0.0
C825 C 0.45041 0.22993 0.64246 0.0
C826 C 0.40923 0.21964 0.64999 0.0
C827 C 0.4034 0.19725 0.6528 0.0
C828 C 0.43262 0.23621 0.64427 0.0
C829 C 0.4446 0.20722 0.64556 0.0
C830 C 0.41411 0.16778 0.65247 0.0
C831 C 0.39016 0.15203 0.65638 0.0
N832 N 0.38039 0.18179 0.65743 0.0
C833 C 0.3734 0.15934 0.65862 0.0
H834 H 0.35506 0.14687 0.66181 0.0
C835 C 0.3956 0.24645 0.64658 0.0
N836 N 0.39164 0.22509 0.65186 0.0
C837 C 0.41851 0.26351 0.64088 0.0
C838 C 0.43722 0.25845 0.64 0.0
H839 H 0.38111 0.25036 0.64728 0.0
H840 H 0.45838 0.20254 0.6438 0.0
H841 H 0.31984 0.22207 0.70598 0.0
H842 H 0.42705 0.16207 0.65077 0.0
H843 H 0.38459 0.13423 0.65776 0.0
H844 H 0.46856 0.24244 0.63829 0.0
H845 H 0.30394 0.12222 0.72197 0.0
H846 H 0.24617 0.20117 0.71734 0.0
H847 H 0.2877 0.23149 0.71056 0.0
H848 H 0.21157 0.12128 0.73097 0.0
H849 H 0.42171 0.28054 0.63718 0.0
H850 H 0.45494 0.27167 0.63552 0.0
H851 H 0.21774 0.1599 0.72458 0.0
H852 H 0.26492 0.08998 0.73289 0.0
N853 N 0.29672 0.18671 0.70973 0.0
C854 C 0.2602 0.19691 0.71528 0.0
C855 C 0.28363 0.21407 0.71153 0.0
C856 C 0.25535 0.17448 0.71712 0.0
C857 C 0.27429 0.16987 0.71435 0.0
C858 C 0.30181 0.20864 0.70891 0.0
N859 N 0.28989 0.14474 0.71639 0.0
C860 C 0.27075 0.14815 0.71782 0.0
C861 C 0.26627 0.10621 0.72859 0.0
C862 C 0.24608 0.10912 0.72927 0.0
C863 C 0.28828 0.12444 0.72242 0.0
C864 C 0.24827 0.13042 0.72426 0.0
H865 H 0.2291 0.09505 0.73423 0.0
O866 O 0.33896 0.16435 0.7284 0.0
O867 O 0.35654 0.18375 0.68845 0.0
O868 O 0.32563 0.15833 0.66529 0.0
O869 O 0.30315 0.14811 0.69115 0.0
O870 O 0.345 0.15517 0.7057 0.0
O871 O 0.33438 0.19378 0.72818 0.0
O872 O 0.34438 0.21081 0.6397 0.0
O873 O 0.3237 0.1885 0.67963 0.0
O874 O 0.35304 0.2138 0.70272 0.0
O875 O 0.37645 0.22361 0.67734 0.0
O876 O 0.33637 0.21766 0.66337 0.0
O877 O 0.34107 0.17771 0.64028 0.0
C878 C 0.36096 0.16811 0.69381 0.0
C879 C 0.22905 0.13472 0.72621 0.0
C880 C 0.23255 0.15671 0.72254 0.0
C881 C 0.33969 0.17962 0.73709 0.0
C882 C 0.32933 0.17166 0.75464 0.0
C883 C 0.30453 0.15955 0.758 0.0
C884 C 0.34441 0.1757 0.76819 0.0
C885 C 0.33482 0.16715 0.785 0.0
C886 C 0.29488 0.15116 0.77458 0.0
C887 C 0.30985 0.1548 0.78799 0.0
C888 C 0.30729 0.14396 0.67604 0.0
C889 C 0.31919 0.20415 0.67433 0.0
C890 C 0.33937 0.19407 0.63127 0.0
C891 C 0.34908 0.19988 0.61359 0.0
C892 C 0.37364 0.21349 0.60963 0.0
C893 C 0.33362 0.19178 0.60049 0.0
C894 C 0.34266 0.19728 0.58348 0.0
C895 C 0.38267 0.21927 0.59285 0.0
C896 C 0.36736 0.21133 0.57986 0.0
C897 C 0.37183 0.22792 0.69228 0.0
H898 H 0.29262 0.15659 0.74786 0.0
H899 H 0.36355 0.18524 0.76565 0.0
H900 H 0.2757 0.14181 0.77706 0.0
H901 H 0.30184 0.14833 0.80075 0.0
H902 H 0.38585 0.21971 0.61946 0.0
H903 H 0.31469 0.1809 0.60359 0.0
H904 H 0.40163 0.22995 0.5899 0.0
H905 H 0.3749 0.2163 0.56694 0.0
Gd906 Gd 0.83412 0.17768 0.66862 0.0
Gd907 Gd 0.84214 0.16082 0.71337 0.0
C908 C 0.9068 0.15225 0.72778 0.0
C909 C 0.88867 0.11213 0.73734 0.0
C910 C 0.86398 0.12903 0.72782 0.0
C911 C 0.88404 0.14983 0.72446 0.0
C912 C 0.86597 0.11003 0.73473 0.0
C913 C 0.90907 0.13321 0.73386 0.0
C914 C 0.92649 0.17382 0.72538 0.0
C915 C 0.92313 0.19236 0.72023 0.0
N916 N 0.88119 0.16789 0.71875 0.0
C917 C 0.90015 0.1891 0.71722 0.0
H918 H 0.89773 0.20353 0.71326 0.0
C919 C 0.82183 0.10817 0.73055 0.0
N920 N 0.84234 0.12767 0.72527 0.0
C921 C 0.82288 0.08885 0.73744 0.0
C922 C 0.84504 0.08968 0.7393 0.0
H923 H 0.80464 0.10738 0.72913 0.0
H924 H 0.92644 0.13471 0.73632 0.0
H925 H 0.78016 0.13234 0.66774 0.0
H926 H 0.94419 0.17632 0.72792 0.0
H927 H 0.93821 0.20916 0.71862 0.0
H928 H 0.89061 0.09768 0.74246 0.0
H929 H 0.86812 0.23224 0.65457 0.0
H930 H 0.72941 0.15507 0.65543 0.0
H931 H 0.73878 0.12401 0.66303 0.0
H932 H 0.77795 0.23507 0.64309 0.0
H933 H 0.8066 0.07332 0.74128 0.0
H934 H 0.84581 0.07471 0.74467 0.0
H935 H 0.74416 0.1966 0.6482 0.0
H936 H 0.86297 0.26526 0.64422 0.0
N937 N 0.79426 0.16787 0.66322 0.0
C938 C 0.74767 0.15885 0.65746 0.0
C939 C 0.7529 0.14128 0.66171 0.0
C940 C 0.76618 0.18108 0.65544 0.0
C941 C 0.78961 0.18507 0.65832 0.0
C942 C 0.77646 0.1461 0.66434 0.0
N943 N 0.83084 0.20965 0.65786 0.0
C944 C 0.80851 0.20668 0.65559 0.0
C945 C 0.84749 0.24889 0.64745 0.0
C946 C 0.82454 0.24632 0.64589 0.0
C947 C 0.85036 0.2302 0.65324 0.0
C948 C 0.80469 0.22495 0.64971 0.0
H949 H 0.82236 0.26081 0.64135 0.0
O950 O 0.85835 0.18896 0.6462 0.0
O951 O 0.85706 0.17115 0.68676 0.0
O952 O 0.85758 0.19894 0.70683 0.0
O953 O 0.83732 0.20456 0.68388 0.0
O954 O 0.87414 0.19879 0.66873 0.0
O955 O 0.82514 0.1579 0.64765 0.0
O956 O 0.81797 0.15359 0.73517 0.0
O957 O 0.8192 0.1671 0.69513 0.0
O958 O 0.82003 0.13974 0.67449 0.0
O959 O 0.83712 0.13256 0.69893 0.0
O960 O 0.8021 0.13997 0.71355 0.0
O961 O 0.854 0.18089 0.7342 0.0
C962 C 0.87735 0.1866 0.68103 0.0
C963 C 0.7813 0.22121 0.64743 0.0
C964 C 0.76207 0.19931 0.65032 0.0
C965 C 0.84422 0.17233 0.63824 0.0
C966 C 0.84068 0.17843 0.62044 0.0
C967 C 0.82783 0.19012 0.61681 0.0
C968 C 0.85037 0.17292 0.60696 0.0
C969 C 0.84711 0.17908 0.58994 0.0
C970 C 0.82485 0.19655 0.60013 0.0
C971 C 0.83444 0.1912 0.58682 0.0
C972 C 0.84966 0.21116 0.69737 0.0
C973 C 0.79892 0.15166 0.70087 0.0
C974 C 0.83389 0.16903 0.74325 0.0
C975 C 0.83536 0.16202 0.7613 0.0
C976 C 0.84172 0.14517 0.76581 0.0
C977 C 0.82972 0.1716 0.77416 0.0
C978 C 0.82999 0.164 0.79143 0.0
C979 C 0.84195 0.13754 0.78276 0.0
C980 C 0.83599 0.1467 0.79546 0.0
C981 C 0.82585 0.12659 0.6849 0.0
H982 H 0.82016 0.19439 0.62688 0.0
H983 H 0.86007 0.16364 0.60974 0.0
H984 H 0.8151 0.20579 0.59748 0.0
H985 H 0.83209 0.19682 0.57402 0.0
H986 H 0.84634 0.13774 0.75627 0.0
H987 H 0.82539 0.18503 0.77075 0.0
H988 H 0.84662 0.12432 0.78608 0.0
H989 H 0.83586 0.14001 0.80849 0.0
H990 H 0.29165 0.79693 0.08131 0.0
H991 H 0.32928 0.8307 0.07185 0.0
H992 H 0.29803 0.87196 0.08272 0.0
H993 H 0.25982 0.8379 0.09125 0.0
H994 H 0.32129 0.88864 0.05407 0.0
H995 H 0.34274 0.86585 0.1071 0.0
H996 H 0.34723 0.84018 0.12952 0.0
H997 H 0.39352 0.83141 0.09584 0.0
H998 H 0.38904 0.85677 0.07311 0.0
H999 H 0.43232 0.99081 0.04313 0.0
H1000 H 0.39415 0.95776 0.05255 0.0
H1001 H 0.42277 0.91475 0.04088 0.0
H1002 H 0.46145 0.94799 0.03217 0.0
H1003 H 0.40071 0.89965 0.07062 0.0
H1004 H 0.36999 0.91551 0.01653 0.0
H1005 H 0.36305 0.93976 0.9941 0.0
H1006 H 0.33437 0.96224 0.03153 0.0
H1007 H 0.34076 0.93778 0.05404 0.0
C1008 C 0.29288 0.81323 0.08174 0.0
C1009 C 0.27273 0.81473 0.08698 0.0
C1010 C 0.31454 0.83262 0.07649 0.0
C1011 C 0.3169 0.85417 0.07669 0.0
C1012 C 0.29689 0.85567 0.08241 0.0
C1013 C 0.27507 0.83618 0.0875 0.0
C1014 C 0.33972 0.87494 0.07005 0.0
C1015 C 0.33859 0.89112 0.05797 0.0
C1016 C 0.36259 0.8783 0.0747 0.0
C1017 C 0.36538 0.86307 0.08835 0.0
C1018 C 0.35374 0.85832 0.10443 0.0
C1019 C 0.3563 0.84384 0.1172 0.0
C1020 C 0.37061 0.83413 0.1141 0.0
C1021 C 0.38242 0.83892 0.09822 0.0
C1022 C 0.3799 0.85337 0.08539 0.0
C1023 C 0.43034 0.9743 0.04224 0.0
C1024 C 0.44987 0.97214 0.03655 0.0
C1025 C 0.40833 0.95531 0.04753 0.0
C1026 C 0.40509 0.93347 0.04723 0.0
C1027 C 0.42453 0.93128 0.04121 0.0
C1028 C 0.44667 0.95035 0.03603 0.0
C1029 C 0.38223 0.91312 0.05448 0.0
C1030 C 0.38338 0.89709 0.06675 0.0
C1031 C 0.35934 0.90997 0.05019 0.0
C1032 C 0.35629 0.92525 0.03688 0.0
C1033 C 0.36249 0.92587 0.01991 0.0
C1034 C 0.35847 0.93947 0.00721 0.0
C1035 C 0.3485 0.9527 0.0114 0.0
C1036 C 0.34222 0.9521 0.0283 0.0
C1037 C 0.3459 0.93827 0.04101 0.0
H1038 H 0.34551 0.9633 1.00156 0.0
H1039 H 0.37257 0.82293 0.12401 0.0
H1040 H 0.20832 0.49153 0.09912 0.0
H1041 H 0.17198 0.48439 0.08472 0.0
H1042 H 0.20099 0.5557 0.06905 0.0
H1043 H 0.23705 0.56279 0.08426 0.0
H1044 H 0.15545 0.53745 0.079 0.0
H1045 H 0.20102 0.5203 0.04189 0.0
H1046 H 0.22429 0.50227 0.03379 0.0
H1047 H 0.16285 0.43719 0.04582 0.0
H1048 H 0.1393 0.45481 0.05427 0.0
H1049 H 0.07394 0.53203 0.02284 0.0
H1050 H 0.11235 0.53536 0.02933 0.0
H1051 H 0.0781 0.46596 0.05196 0.0
H1052 H 0.0392 0.46192 0.04382 0.0
H1053 H 0.12669 0.48306 0.0372 0.0
H1054 H 0.08283 0.50252 0.07646 0.0
H1055 H 0.05902 0.52179 0.07916 0.0
H1056 H 0.11939 0.58493 0.05967 0.0
H1057 H 0.14335 0.56593 0.05656 0.0
C1058 C 0.20661 0.50564 0.09288 0.0
C1059 C 0.22511 0.5277 0.09289 0.0
C1060 C 0.18608 0.50156 0.08446 0.0
C1061 C 0.18398 0.51948 0.07555 0.0
C1062 C 0.20232 0.54163 0.0758 0.0
C1063 C 0.22281 0.54571 0.08442 0.0
C1064 C 0.16253 0.51501 0.06609 0.0
C1065 C 0.14939 0.52573 0.06976 0.0
C1066 C 0.15441 0.49953 0.05411 0.0
C1067 C 0.16845 0.48887 0.04886 0.0
C1068 C 0.19251 0.50213 0.04293 0.0
C1069 C 0.20575 0.49199 0.03826 0.0
C1070 C 0.19507 0.4686 0.03932 0.0
C1071 C 0.1711 0.45531 0.04502 0.0
C1072 C 0.15779 0.46536 0.04974 0.0
C1073 C 0.07447 0.51711 0.02832 0.0
C1074 C 0.05348 0.49661 0.0325 0.0
C1075 C 0.09657 0.51909 0.03216 0.0
C1076 C 0.09799 0.50103 0.04138 0.0
C1077 C 0.07733 0.48008 0.04477 0.0
C1078 C 0.05516 0.47787 0.04029 0.0
C1079 C 0.11985 0.50543 0.05023 0.0
C1080 C 0.1329 0.49468 0.0465 0.0
C1081 C 0.12811 0.52103 0.06206 0.0
C1082 C 0.11485 0.53282 0.06627 0.0
C1083 C 0.09108 0.52057 0.07298 0.0
C1084 C 0.0775 0.53143 0.0745 0.0
C1085 C 0.08761 0.5546 0.06958 0.0
C1086 C 0.1115 0.567 0.06349 0.0
C1087 C 0.12513 0.55621 0.06188 0.0
H1088 H 0.07688 0.56287 0.07039 0.0
H1089 H 0.20535 0.46078 0.0357 0.0
H1090 H 0.55819 0.74341 0.05474 0.0
H1091 H 0.54988 0.70808 0.04428 0.0
H1092 H 0.51419 0.671 0.09244 0.0
H1093 H 0.52162 0.70613 0.10261 0.0
H1094 H 0.54885 0.66012 0.08045 0.0
H1095 H 0.48152 0.66838 0.06082 0.0
H1096 H 0.46224 0.68836 0.0454 0.0
H1097 H 0.49802 0.69157 0.99886 0.0
H1098 H 0.51782 0.6719 0.01406 0.0
H1099 H 0.50042 0.54906 0.06246 0.0
H1100 H 0.50549 0.58416 0.07094 0.0
H1101 H 0.52409 0.6155 0.01902 0.0
H1102 H 0.51766 0.57989 0.01044 0.0
H1103 H 0.49911 0.63037 0.03229 0.0
H1104 H 0.56701 0.62338 0.0505 0.0
H1105 H 0.58806 0.60449 0.06495 0.0
H1106 H 0.55463 0.60089 0.11267 0.0
H1107 H 0.53313 0.6195 0.09847 0.0
C1108 C 0.54822 0.72766 0.06294 0.0
C1109 C 0.54057 0.72749 0.07949 0.0
C1110 C 0.54359 0.70753 0.05701 0.0
C1111 C 0.53141 0.68689 0.06759 0.0
C1112 C 0.5237 0.68671 0.08409 0.0
C1113 C 0.52803 0.70677 0.08991 0.0
C1114 C 0.52718 0.66549 0.06168 0.0
C1115 C 0.53777 0.65347 0.07003 0.0
C1116 C 0.51334 0.65717 0.04776 0.0
C1117 C 0.50136 0.6689 0.03861 0.0
C1118 C 0.48546 0.67353 0.04733 0.0
C1119 C 0.4744 0.68476 0.03862 0.0
C1120 C 0.47896 0.69129 0.02117 0.0
C1121 C 0.49454 0.68654 0.01238 0.0
C1122 C 0.50567 0.67534 0.02103 0.0
C1123 C 0.50567 0.56346 0.05285 0.0
C1124 C 0.50888 0.56177 0.03577 0.0
C1125 C 0.50865 0.5836 0.05772 0.0
C1126 C 0.51586 0.60284 0.04572 0.0
C1127 C 0.51866 0.60103 0.02858 0.0
C1128 C 0.51502 0.58065 0.02365 0.0
C1129 C 0.52072 0.6248 0.0511 0.0
C1130 C 0.51029 0.63698 0.04266 0.0
C1131 C 0.5351 0.63351 0.06477 0.0
C1132 C 0.54832 0.62268 0.0734 0.0
C1133 C 0.56407 0.61847 0.06406 0.0
C1134 C 0.57608 0.60781 0.07221 0.0
C1135 C 0.57265 0.60145 0.08971 0.0
C1136 C 0.55726 0.60581 0.09911 0.0
C1137 C 0.54518 0.61644 0.09103 0.0
H1138 H 0.58194 0.59318 0.09599 0.0
H1139 H 0.47037 0.69999 0.01445 0.0
H1140 H 0.79353 0.29468 0.9715 0.0
H1141 H 0.82268 0.32961 0.98162 0.0
H1142 H 0.87942 0.31566 0.96872 0.0
H1143 H 0.85006 0.2801 0.9598 0.0
H1144 H 0.88965 0.33221 0.99582 0.0
H1145 H 0.86615 0.35711 0.9438 0.0
H1146 H 0.83886 0.36094 0.92331 0.0
H1147 H 0.81388 0.3883 0.95933 0.0
H1148 H 0.84106 0.38469 0.97999 0.0
H1149 H 0.9856 0.44582 0.9926 0.0
H1150 H 0.95523 0.40998 0.98439 0.0
H1151 H 0.90049 0.41593 0.01122 0.0
H1152 H 0.93066 0.45147 0.01972 0.0
H1153 H 0.88935 0.4041 0.97755 0.0
H1154 H 0.91626 0.38069 0.02875 0.0
H1155 H 0.94666 0.37927 0.04723 0.0
H1156 H 0.96791 0.35035 0.01021 0.0
H1157 H 0.93787 0.35193 0.99137 0.0
C1158 C 0.81219 0.29898 0.97107 0.0
C1159 C 0.81948 0.28469 0.96471 0.0
C1160 C 0.82898 0.31917 0.97661 0.0
C1161 C 0.85358 0.32584 0.97562 0.0
C1162 C 0.86072 0.31123 0.96959 0.0
C1163 C 0.84391 0.29092 0.96432 0.0
C1164 C 0.87188 0.34776 0.98098 0.0
C1165 C 0.88964 0.3479 0.99158 0.0
C1166 C 0.87201 0.36849 0.97582 0.0
C1167 C 0.85543 0.37039 0.9635 0.0
C1168 C 0.85472 0.36381 0.94738 0.0
C1169 C 0.83934 0.36603 0.93571 0.0
C1170 C 0.82465 0.37487 0.94001 0.0
C1171 C 0.82532 0.38154 0.95598 0.0
C1172 C 0.84074 0.37944 0.96766 0.0
C1173 C 0.96712 0.43948 0.99681 0.0
C1174 C 0.96068 0.45155 0.00692 0.0
C1175 C 0.94976 0.41895 0.99211 0.0
C1176 C 0.92552 0.41017 0.9972 0.0
C1177 C 0.91903 0.4223 0.00713 0.0
C1178 C 0.93639 0.44261 0.01206 0.0
C1179 C 0.90694 0.38836 0.99218 0.0
C1180 C 0.8892 0.38831 0.98171 0.0
C1181 C 0.90708 0.36782 0.99719 0.0
C1182 C 0.92497 0.36664 0.00858 0.0
C1183 C 0.92755 0.3742 0.02448 0.0
C1184 C 0.94469 0.37334 0.03504 0.0
C1185 C 0.95925 0.36478 0.02988 0.0
C1186 C 0.95664 0.357 0.01418 0.0
C1187 C 0.93955 0.35786 1.00356 0.0
H1188 H 0.97252 0.36413 0.03807 0.0
H1189 H 0.81275 0.37656 0.93096 0.0
H1190 H 0.68868 0.48635 0.94081 0.0
H1191 H 0.65536 0.48807 0.9545 0.0
H1192 H 0.69655 0.50969 0.99808 0.0
H1193 H 0.73037 0.50995 0.98375 0.0
H1194 H 0.62771 0.46864 0.98093 0.0
H1195 H 0.68368 0.5448 0.01637 0.0
H1196 H 0.72348 0.5784 0.01352 0.0
H1197 H 0.726 0.57825 0.95976 0.0
H1198 H 0.6861 0.54487 0.96226 0.0
H1199 H 0.54039 0.47971 0.0247 0.0
H1200 H 0.57577 0.47614 0.01982 0.0
H1201 H 0.61019 0.543 0.99179 0.0
H1202 H 0.57627 0.54789 0.99944 0.0
H1203 H 0.64226 0.53845 1.00333 0.0
H1204 H 0.57434 0.48527 0.97471 0.0
H1205 H 0.53518 0.45235 0.97198 0.0
H1206 H 0.55564 0.40983 1.0039 0.0
H1207 H 0.59475 0.44248 0.00696 0.0
C1208 C 0.69045 0.49144 0.95331 0.0
C1209 C 0.71194 0.49794 0.96127 0.0
C1210 C 0.67146 0.4923 0.96117 0.0
C1211 C 0.6736 0.49939 0.97722 0.0
C1212 C 0.69465 0.50466 0.98556 0.0
C1213 C 0.7138 0.50436 0.97752 0.0
C1214 C 0.65409 0.50189 0.98496 0.0
C1215 C 0.63083 0.48393 0.98578 0.0
C1216 C 0.65818 0.52189 0.99122 0.0
C1217 C 0.68203 0.54219 0.98955 0.0
C1218 C 0.6927 0.552 1.00394 0.0
C1219 C 0.71527 0.57099 1.00239 0.0
C1220 C 0.72729 0.5804 0.98648 0.0
C1221 C 0.71671 0.5709 0.97208 0.0
C1222 C 0.69413 0.55194 0.97356 0.0
C1223 C 0.55592 0.49406 0.01833 0.0
C1224 C 0.55576 0.51434 0.01298 0.0
C1225 C 0.57601 0.49176 0.015 0.0
C1226 C 0.59553 0.50893 1.00481 0.0
C1227 C 0.59552 0.52938 0.9997 0.0
C1228 C 0.57602 0.53216 1.00398 0.0
C1229 C 0.61539 0.50546 0.99869 0.0
C1230 C 0.63892 0.52314 0.99841 0.0
C1231 C 0.61141 0.48554 0.99222 0.0
C1232 C 0.58735 0.46631 0.99114 0.0
C1233 C 0.57036 0.46894 0.98127 0.0
C1234 C 0.54821 0.45032 0.97964 0.0
C1235 C 0.54305 0.42902 0.98769 0.0
C1236 C 0.55975 0.42633 0.99763 0.0
C1237 C 0.58186 0.44486 0.99933 0.0
H1238 H 0.52618 0.4145 0.98622 0.0
H1239 H 0.74478 0.59508 0.98531 0.0
H1240 H 0.49487 0.22393 0.95787 0.0
H1241 H 0.50112 0.19132 0.96539 0.0
H1242 H 0.42631 0.14702 0.96035 0.0
H1243 H 0.42005 0.17989 0.9533 0.0
H1244 H 0.44023 0.1333 0.98877 0.0
H1245 H 0.46866 0.15258 0.93132 0.0
H1246 H 0.49159 0.17717 0.90542 0.0
H1247 H 0.55724 0.19232 0.92894 0.0
H1248 H 0.53472 0.16816 0.95512 0.0
H1249 H 0.46046 0.03706 0.99317 0.0
H1250 H 0.45113 0.0668 0.98173 0.0
H1251 H 0.51744 0.1167 0.99832 0.0
H1252 H 0.52666 0.08707 0.01018 0.0
H1253 H 0.50532 0.12508 0.96222 0.0
H1254 H 0.47412 0.10659 0.02068 0.0
H1255 H 0.44954 0.08017 0.0454 0.0
H1256 H 0.38647 0.06102 0.01764 0.0
H1257 H 0.41078 0.08707 0.99263 0.0
C1258 C 0.47985 0.2072 0.95827 0.0
C1259 C 0.45701 0.20436 0.95504 0.0
C1260 C 0.48341 0.18856 0.96246 0.0
C1261 C 0.46422 0.16661 0.96335 0.0
C1262 C 0.44141 0.16374 0.95976 0.0
C1263 C 0.43786 0.18247 0.95557 0.0
C1264 C 0.46799 0.14685 0.96874 0.0
C1265 C 0.4542 0.13134 0.98274 0.0
C1266 C 0.48632 0.14422 0.96102 0.0
C1267 C 0.49998 0.15868 0.94526 0.0
C1268 C 0.48799 0.16129 0.93103 0.0
C1269 C 0.50091 0.17513 0.91629 0.0
C1270 C 0.52585 0.18631 0.91554 0.0
C1271 C 0.53792 0.18365 0.92954 0.0
C1272 C 0.52508 0.16987 0.94434 0.0
C1273 C 0.47305 0.05435 0.99442 0.0
C1274 C 0.49428 0.05967 1.00264 0.0
C1275 C 0.46769 0.07132 0.98786 0.0
C1276 C 0.48363 0.09396 0.98912 0.0
C1277 C 0.50494 0.09935 0.99715 0.0
C1278 C 0.5101 0.08237 1.00402 0.0
C1279 C 0.47789 0.11199 0.98234 0.0
C1280 C 0.49127 0.12707 0.96809 0.0
C1281 C 0.45894 0.114 0.98962 0.0
C1282 C 0.4443 0.09859 1.00472 0.0
C1283 C 0.45504 0.0966 0.01979 0.0
C1284 C 0.44115 0.08171 0.03387 0.0
C1285 C 0.41646 0.06887 0.03308 0.0
C1286 C 0.4056 0.07095 0.01822 0.0
C1287 C 0.41942 0.08578 1.0041 0.0
H1288 H 0.40573 0.05736 0.04399 0.0
H1289 H 0.53582 0.19701 0.90411 0.0
H1290 H 0.7282 0.22727 0.96425 0.0
H1291 H 0.69067 0.19266 0.97282 0.0
H1292 H 0.72462 0.15327 0.96308 0.0
H1293 H 0.76232 0.18803 0.95478 0.0
H1294 H 0.67929 0.13545 0.9517 0.0
H1295 H 0.71603 0.16137 1.00289 0.0
H1296 H 0.73431 0.18878 0.02305 0.0
H1297 H 0.66946 0.19252 0.02847 0.0
H1298 H 0.65092 0.16546 0.00808 0.0
H1299 H 0.59288 0.03106 0.99645 0.0
H1300 H 0.63021 0.0658 0.98777 0.0
H1301 H 0.59583 0.10487 0.99731 0.0
H1302 H 0.5584 0.07014 0.0057 0.0
H1303 H 0.6412 0.12283 0.00894 0.0
H1304 H 0.60454 0.09846 0.95782 0.0
H1305 H 0.58541 0.07174 0.9373 0.0
H1306 H 0.64889 0.06575 0.93144 0.0
H1307 H 0.66827 0.09218 0.95215 0.0
C1308 C 0.72761 0.21121 0.96394 0.0
C1309 C 0.74824 0.21038 0.95893 0.0
C1310 C 0.70615 0.19141 0.96885 0.0
C1311 C 0.70476 0.17021 0.96887 0.0
C1312 C 0.72515 0.16934 0.96323 0.0
C1313 C 0.74668 0.18921 0.95839 0.0
C1314 C 0.68222 0.14906 0.97511 0.0
C1315 C 0.67119 0.1326 0.96431 0.0
C1316 C 0.67111 0.14543 0.99142 0.0
C1317 C 0.68218 0.16157 1.00379 0.0
C1318 C 0.70573 0.16819 0.00826 0.0
C1319 C 0.71614 0.18365 0.01974 0.0
C1320 C 0.70308 0.19244 0.027 0.0
C1321 C 0.67957 0.18574 0.02281 0.0
C1322 C 0.6691 0.17034 0.01129 0.0
C1323 C 0.59336 0.04707 0.99683 0.0
C1324 C 0.57278 0.04779 1.00212 0.0
C1325 C 0.61469 0.06694 0.99181 0.0
C1326 C 0.61593 0.08808 0.99177 0.0
C1327 C 0.59545 0.08885 0.99726 0.0
C1328 C 0.57403 0.06894 1.00217 0.0
C1329 C 0.63836 0.10926 0.98554 0.0
C1330 C 0.64935 0.12571 0.99634 0.0
C1331 C 0.64932 0.11297 0.96919 0.0
C1332 C 0.63778 0.09713 0.95668 0.0
C1333 C 0.61435 0.0913 0.95227 0.0
C1334 C 0.60347 0.07623 0.94058 0.0
C1335 C 0.61591 0.06701 0.9331 0.0
C1336 C 0.63927 0.07288 0.93727 0.0
C1337 C 0.65022 0.08792 0.94897 0.0
H1338 H 0.60746 0.05535 0.92405 0.0
H1339 H 0.71117 0.20439 0.03589 0.0
H1340 H 0.80143 0.49826 0.93071 0.0
H1341 H 0.84144 0.50593 0.93916 0.0
H1342 H 0.82721 0.52312 0.98668 0.0
H1343 H 0.78886 0.51792 0.97743 0.0
H1344 H 0.86865 0.55061 0.97726 0.0
H1345 H 0.82443 0.46951 0.98075 0.0
H1346 H 0.80036 0.43368 0.96947 0.0
H1347 H 0.85701 0.45083 0.93235 0.0
H1348 H 0.88141 0.48685 0.94335 0.0
H1349 H 0.94925 0.49868 0.01315 0.0
H1350 H 0.9116 0.49544 1.00409 0.0
H1351 H 0.94855 0.56395 0.97924 0.0
H1352 H 0.98599 0.56792 0.99002 0.0
H1353 H 0.89723 0.49492 0.97528 0.0
H1354 H 0.91331 0.58623 0.97155 0.0
H1355 H 0.93341 0.61914 0.98689 0.0
H1356 H 0.92602 0.57571 0.03265 0.0
H1357 H 0.90582 0.54252 0.01756 0.0
C1358 C 0.80709 0.50378 0.94289 0.0
C1359 C 0.79196 0.507 0.95363 0.0
C1360 C 0.82979 0.50797 0.94779 0.0
C1361 C 0.83726 0.51473 0.96372 0.0
C1362 C 0.82199 0.51792 0.97435 0.0
C1363 C 0.79982 0.51447 0.96923 0.0
C1364 C 0.86087 0.51868 0.96961 0.0
C1365 C 0.87485 0.53838 0.97683 0.0
C1366 C 0.86902 0.50275 0.96919 0.0
C1367 C 0.8546 0.48097 0.96274 0.0
C1368 C 0.83171 0.46567 0.97014 0.0
C1369 C 0.81804 0.44533 0.96381 0.0
C1370 C 0.82715 0.44004 0.95016 0.0
C1371 C 0.85002 0.45499 0.94291 0.0
C1372 C 0.86378 0.47535 0.94919 0.0
C1373 C 0.94927 0.51339 0.00649 0.0
C1374 C 0.97054 0.53377 1.00279 0.0
C1375 C 0.92771 0.51139 1.00097 0.0
C1376 C 0.92706 0.52946 0.99099 0.0
C1377 C 0.94832 0.54991 0.9873 0.0
C1378 C 0.96977 0.55214 0.99339 0.0
C1379 C 0.90442 0.52634 0.98367 0.0
C1380 C 0.89092 0.50706 0.97584 0.0
C1381 C 0.89612 0.54213 0.98426 0.0
C1382 C 0.90834 0.56196 0.99339 0.0
C1383 C 0.91599 0.58372 0.98488 0.0
C1384 C 0.92743 0.60241 0.99352 0.0
C1385 C 0.93112 0.59951 0.01071 0.0
C1386 C 0.92333 0.57792 0.01931 0.0
C1387 C 0.91195 0.55918 0.01071 0.0
H1388 H 0.93994 0.61399 0.01738 0.0
H1389 H 0.81648 0.42437 0.94519 0.0
H1390 H 0.49272 0.28745 0.96788 0.0
H1391 H 0.49742 0.321 0.97948 0.0
H1392 H 0.42331 0.30106 0.9723 0.0
H1393 H 0.41841 0.26711 0.96135 0.0
H1394 H 0.45597 0.34753 0.96016 0.0
H1395 H 0.43742 0.2931 0.01008 0.0
H1396 H 0.44339 0.26538 0.02936 0.0
H1397 H 0.51431 0.31615 0.03719 0.0
H1398 H 0.50888 0.34411 0.01773 0.0
H1399 H 0.44617 0.42733 1.00325 0.0
H1400 H 0.43962 0.39241 0.99356 0.0
H1401 H 0.50442 0.39966 0.0156 0.0
H1402 H 0.5103 0.43397 0.02606 0.0
H1403 H 0.4766 0.35931 0.01942 0.0
H1404 H 0.49683 0.41419 0.96984 0.0
H1405 H 0.49312 0.44249 0.94973 0.0
H1406 H 0.42272 0.39297 0.93956 0.0
H1407 H 0.42597 0.36443 0.95985 0.0
C1408 C 0.47742 0.29013 0.96901 0.0
C1409 C 0.45521 0.27473 0.96372 0.0
C1410 C 0.48013 0.30933 0.97551 0.0
C1411 C 0.46071 0.31355 0.97671 0.0
C1412 C 0.43856 0.29822 0.97137 0.0
C1413 C 0.43578 0.27889 0.9651 0.0
C1414 C 0.46341 0.33382 0.98369 0.0
C1415 C 0.46026 0.3501 0.97316 0.0
C1416 C 0.46964 0.33739 1.0005 0.0
C1417 C 0.47283 0.32063 0.01231 0.0
C1418 C 0.45436 0.29831 0.0158 0.0
C1419 C 0.45763 0.28256 0.02678 0.0
C1420 C 0.47924 0.28898 0.03446 0.0
C1421 C 0.49759 0.31119 0.03121 0.0
C1422 C 0.49443 0.32699 0.02022 0.0
C1423 C 0.45897 0.42141 0.00608 0.0
C1424 C 0.47888 0.43353 0.01527 0.0
C1425 C 0.45536 0.40151 1.00036 0.0
C1426 C 0.47204 0.39371 1.00314 0.0
C1427 C 0.49141 0.40537 0.01297 0.0
C1428 C 0.49478 0.42503 0.019 0.0
C1429 C 0.46938 0.37347 0.99588 0.0
C1430 C 0.47248 0.35706 0.00636 0.0
C1431 C 0.46355 0.37004 0.97887 0.0
C1432 C 0.46161 0.38719 0.96654 0.0
C1433 C 0.48053 0.40935 0.96343 0.0
C1434 C 0.47851 0.42545 0.95197 0.0
C1435 C 0.45766 0.41956 0.9434 0.0
C1436 C 0.43885 0.39753 0.94623 0.0
C1437 C 0.4408 0.38138 0.95771 0.0
H1438 H 0.45612 0.43205 0.93454 0.0
H1439 H 0.48174 0.27676 0.04296 0.0
H1440 H 0.2265 0.73119 0.07403 0.0
H1441 H 0.19743 0.69679 0.06308 0.0
H1442 H 0.14102 0.71174 0.0745 0.0
H1443 H 0.1702 0.7465 0.08482 0.0
H1444 H 0.12935 0.66666 0.08568 0.0
H1445 H 0.16058 0.71992 0.03492 0.0
H1446 H 0.19246 0.74819 0.01435 0.0
H1447 H 0.21433 0.69965 1.00531 0.0
H1448 H 0.1828 0.67117 0.02604 0.0
H1449 H 0.03659 0.5835 0.04495 0.0
H1450 H 0.06572 0.61804 0.05504 0.0
H1451 H 0.12275 0.61306 0.03036 0.0
H1452 H 0.09342 0.5791 0.01942 0.0
H1453 H 0.13472 0.6534 0.02646 0.0
H1454 H 0.1107 0.60313 0.0801 0.0
H1455 H 0.08136 0.57412 0.10189 0.0
H1456 H 0.04883 0.61575 0.10673 0.0
H1457 H 0.07793 0.64485 0.08489 0.0
C1458 C 0.20796 0.72726 0.07397 0.0
C1459 C 0.20066 0.74155 0.08033 0.0
C1460 C 0.19131 0.70755 0.0678 0.0
C1461 C 0.16694 0.70158 0.06795 0.0
C1462 C 0.15964 0.71583 0.07433 0.0
C1463 C 0.17632 0.73567 0.08028 0.0
C1464 C 0.14904 0.68049 0.06154 0.0
C1465 C 0.13039 0.66386 0.07267 0.0
C1466 C 0.15064 0.67642 0.04472 0.0
C1467 C 0.16949 0.69348 0.03216 0.0
C1468 C 0.17232 0.71532 0.02865 0.0
C1469 C 0.1903 0.73138 0.01694 0.0
C1470 C 0.20546 0.72574 0.00856 0.0
C1471 C 0.20261 0.70401 0.01183 0.0
C1472 C 0.18467 0.6879 0.02355 0.0
C1473 C 0.05534 0.58975 0.04163 0.0
C1474 C 0.06256 0.57841 0.03134 0.0
C1475 C 0.07215 0.60946 0.04767 0.0
C1476 C 0.0968 0.61812 0.04405 0.0
C1477 C 0.10398 0.60694 0.03351 0.0
C1478 C 0.08713 0.58742 0.02721 0.0
C1479 C 0.11494 0.63919 0.05063 0.0
C1480 C 0.13366 0.65597 0.03951 0.0
C1481 C 0.11367 0.64324 0.06758 0.0
C1482 C 0.0961 0.62584 0.08063 0.0
C1483 C 0.09704 0.60586 0.08565 0.0
C1484 C 0.08057 0.5895 0.09806 0.0
C1485 C 0.06312 0.59301 0.10558 0.0
C1486 C 0.06227 0.61299 0.10083 0.0
C1487 C 0.07879 0.62945 0.08848 0.0
H1488 H 0.05034 0.5803 0.11516 0.0
H1489 H 0.21937 0.73819 0.99949 0.0
H1490 H 0.27495 0.49868 0.07993 0.0
H1491 H 0.3065 0.49175 0.06929 0.0
H1492 H 0.35651 0.53864 0.10023 0.0
H1493 H 0.32463 0.54549 0.11088 0.0
H1494 H 0.37398 0.54438 0.06604 0.0
H1495 H 0.3373 0.48708 0.11314 0.0
H1496 H 0.30314 0.45648 0.13079 0.0
H1497 H 0.28394 0.41669 0.08992 0.0
H1498 H 0.31773 0.44726 0.07188 0.0
H1499 H 0.46406 0.51573 0.05198 0.0
H1500 H 0.43487 0.52391 0.0641 0.0
H1501 H 0.37818 0.46596 0.04552 0.0
H1502 H 0.40779 0.45615 0.03535 0.0
H1503 H 0.36498 0.46747 0.07443 0.0
H1504 H 0.40273 0.52727 0.02681 0.0
H1505 H 0.43826 0.55838 0.01066 0.0
H1506 H 0.45689 0.59416 0.0537 0.0
H1507 H 0.42162 0.56322 0.07024 0.0
C1508 C 0.29274 0.50749 0.08434 0.0
C1509 C 0.29773 0.52274 0.09599 0.0
C1510 C 0.31064 0.50352 0.07835 0.0
C1511 C 0.33376 0.51473 0.08398 0.0
C1512 C 0.33876 0.52995 0.09571 0.0
C1513 C 0.32071 0.53376 0.10182 0.0
C1514 C 0.35249 0.51018 0.07767 0.0
C1515 C 0.37224 0.52765 0.06797 0.0
C1516 C 0.3499 0.48828 0.08013 0.0
C1517 C 0.32995 0.46956 0.0911 0.0
C1518 C 0.32571 0.47187 0.10786 0.0
C1519 C 0.30641 0.45453 0.11795 0.0
C1520 C 0.29135 0.43468 0.11147 0.0
C1521 C 0.29561 0.43209 0.09491 0.0
C1522 C 0.31485 0.44942 0.08475 0.0
C1523 C 0.44544 0.50518 0.04997 0.0
C1524 C 0.43821 0.48622 0.04162 0.0
C1525 C 0.42867 0.50985 0.05695 0.0
C1526 C 0.40426 0.49628 0.05501 0.0
C1527 C 0.39694 0.47704 0.04685 0.0
C1528 C 0.41381 0.47169 0.04068 0.0
C1529 C 0.38641 0.50155 0.06226 0.0
C1530 C 0.36678 0.48421 0.07228 0.0
C1531 C 0.38921 0.52366 0.06013 0.0
C1532 C 0.40953 0.54287 0.04979 0.0
C1533 C 0.41434 0.5418 0.03282 0.0
C1534 C 0.43447 0.55937 0.02361 0.0
C1535 C 0.4498 0.57819 0.03113 0.0
C1536 C 0.44496 0.57958 0.04788 0.0
C1537 C 0.42487 0.56206 0.05717 0.0
H1538 H 0.46542 0.59169 0.02398 0.0
H1539 H 0.27639 0.42128 0.11928 0.0
H1540 H 0.5751 0.81433 0.06432 0.0
H1541 H 0.57337 0.84923 0.05591 0.0
H1542 H 0.52032 0.83064 0.09669 0.0
H1543 H 0.5229 0.79602 0.10536 0.0
H1544 H 0.53997 0.85527 0.04394 0.0
H1545 H 0.52083 0.87826 0.10812 0.0
H1546 H 0.53027 0.8746 0.13795 0.0
H1547 H 0.59291 0.87139 0.12273 0.0
H1548 H 0.58415 0.87554 0.0928 0.0
H1549 H 0.4947 0.93044 0.02676 0.0
H1550 H 0.50127 0.89931 0.03832 0.0
H1551 H 0.56469 0.94523 0.06074 0.0
H1552 H 0.55763 0.97655 0.04969 0.0
H1553 H 0.54311 0.90891 0.08194 0.0
H1554 H 0.56738 0.92236 0.02329 0.0
H1555 H 0.56431 0.92817 0.99246 0.0
H1556 H 0.50208 0.86329 0.99545 0.0
H1557 H 0.50481 0.85708 0.02632 0.0
C1558 C 0.56336 0.81798 0.07156 0.0
C1559 C 0.54918 0.80271 0.08545 0.0
C1560 C 0.56226 0.83782 0.06674 0.0
C1561 C 0.54674 0.84276 0.07563 0.0
C1562 C 0.53274 0.82753 0.08975 0.0
C1563 C 0.53411 0.80775 0.09469 0.0
C1564 C 0.54446 0.86321 0.06949 0.0
C1565 C 0.54069 0.86695 0.05231 0.0
C1566 C 0.54587 0.87887 0.08023 0.0
C1567 C 0.55164 0.87694 0.0982 0.0
C1568 C 0.53669 0.87691 0.11112 0.0
C1569 C 0.54193 0.87475 0.12806 0.0
C1570 C 0.56212 0.87267 0.13224 0.0
C1571 C 0.57722 0.87292 0.11948 0.0
C1572 C 0.57212 0.87517 0.10253 0.0
C1573 C 0.51013 0.93403 0.03409 0.0
C1574 C 0.52579 0.95612 0.03712 0.0
C1575 C 0.51392 0.91613 0.04068 0.0
C1576 C 0.53378 0.91983 0.05016 0.0
C1577 C 0.54927 0.94184 0.05344 0.0
C1578 C 0.54528 0.95978 0.04704 0.0
C1579 C 0.53835 0.90072 0.05645 0.0
C1580 C 0.54246 0.8972 0.07362 0.0
C1581 C 0.53809 0.88561 0.04562 0.0
C1582 C 0.53621 0.88933 0.02711 0.0
C1583 C 0.55298 0.90938 0.01738 0.0
C1584 C 0.55135 0.9127 0.9999 0.0
C1585 C 0.53302 0.8961 0.992 0.0
C1586 C 0.51629 0.87611 1.00158 0.0
C1587 C 0.51792 0.87265 0.01906 0.0
H1588 H 0.53174 0.89874 0.97847 0.0
H1589 H 0.5661 0.87091 0.14536 0.0
H1590 H 0.96543 0.13452 0.42273 0.0
H1591 H 1.00309 0.16908 0.41368 0.0
H1592 H 0.96453 0.20664 0.40711 0.0
H1593 H 0.92699 0.17204 0.41656 0.0
H1594 H 0.99371 0.21331 0.3787 0.0
H1595 H 1.00008 0.21528 0.43781 0.0
H1596 H 1.00148 0.20238 0.46778 0.0
H1597 H 0.06327 0.196 0.45573 0.0
H1598 H 0.06193 0.20838 0.42559 0.0
H1599 H 0.10187 0.32571 0.37473 0.0
H1600 H 0.06356 0.29273 0.38419 0.0
H1601 H 0.09192 0.24935 0.37327 0.0
H1602 H 0.13098 0.28251 0.36472 0.0
H1603 H 0.06723 0.24642 0.4101 0.0
H1604 H 0.02319 0.21726 0.35018 0.0
H1605 H 0.01713 0.22989 0.32115 0.0
H1606 H 0.02776 0.29207 0.33636 0.0
H1607 H 0.03278 0.27935 0.36558 0.0
C1608 C 0.96522 0.15032 0.41974 0.0
C1609 C 0.94346 0.15076 0.42048 0.0
C1610 C 0.98668 0.17003 0.41454 0.0
C1611 C 0.98677 0.19058 0.40969 0.0
C1612 C 0.96501 0.19107 0.41079 0.0
C1613 C 0.9436 0.17139 0.41629 0.0
C1614 C 0.0092 0.21108 0.40237 0.0
C1615 C 0.00973 0.22059 0.38566 0.0
C1616 C 0.03026 0.22062 0.41131 0.0
C1617 C 0.03067 0.21245 0.42936 0.0
C1618 C 0.01374 0.21078 0.44148 0.0
C1619 C 0.01457 0.20363 0.45852 0.0
C1620 C 0.03239 0.19828 0.46364 0.0
C1621 C 0.0494 0.20005 0.45173 0.0
C1622 C 0.04861 0.20712 0.43466 0.0
C1623 C 0.09983 0.30916 0.37396 0.0
C1624 C 0.11938 0.30684 0.3685 0.0
C1625 C 0.07777 0.29027 0.37924 0.0
C1626 C 0.07442 0.26846 0.37889 0.0
C1627 C 0.09382 0.26599 0.37326 0.0
C1628 C 0.11613 0.28497 0.36824 0.0
C1629 C 0.05172 0.24851 0.38643 0.0
C1630 C 0.05122 0.23901 0.40317 0.0
C1631 C 0.03055 0.23915 0.37762 0.0
C1632 C 0.02936 0.24774 0.35992 0.0
C1633 C 0.02448 0.23373 0.34727 0.0
C1634 C 0.02089 0.24076 0.33083 0.0
C1635 C 0.02231 0.26188 0.32687 0.0
C1636 C 0.02698 0.27584 0.33939 0.0
C1637 C 0.03028 0.26875 0.3559 0.0
H1638 H 0.01966 0.26736 0.31412 0.0
H1639 H 0.03309 0.19287 0.47685 0.0
H1640 H 0.88546 0.8767 0.42924 0.0
H1641 H 0.85051 0.87274 0.41373 0.0
H1642 H 0.8588 0.82815 0.38355 0.0
H1643 H 0.89353 0.83219 0.39905 0.0
H1644 H 0.84723 0.85608 0.36448 0.0
H1645 H 0.82148 0.80875 0.41762 0.0
H1646 H 0.81777 0.7992 0.44861 0.0
H1647 H 0.78297 0.83897 0.45311 0.0
H1648 H 0.78755 0.84972 0.42222 0.0
H1649 H 0.70679 0.79799 0.36647 0.0
H1650 H 0.7452 0.79948 0.3723 0.0
H1651 H 0.78134 0.87109 0.35668 0.0
H1652 H 0.74316 0.86984 0.35159 0.0
H1653 H 0.77011 0.82631 0.39756 0.0
H1654 H 0.83687 0.88403 0.34182 0.0
H1655 H 0.84255 0.88776 0.31078 0.0
H1656 H 0.79343 0.81744 0.31183 0.0
H1657 H 0.78708 0.81344 0.3428 0.0
C1658 C 0.87988 0.86641 0.41909 0.0
C1659 C 0.892 0.85486 0.41514 0.0
C1660 C 0.86001 0.86407 0.41032 0.0
C1661 C 0.85199 0.84998 0.39761 0.0
C1662 C 0.86475 0.83916 0.39325 0.0
C1663 C 0.88455 0.8415 0.40202 0.0
C1664 C 0.82962 0.84547 0.38942 0.0
C1665 C 0.83039 0.84972 0.37173 0.0
C1666 C 0.80753 0.83645 0.39888 0.0
C1667 C 0.8052 0.83033 0.41756 0.0
C1668 C 0.81343 0.81581 0.42522 0.0
C1669 C 0.81121 0.81021 0.4428 0.0
C1670 C 0.80034 0.81865 0.45285 0.0
C1671 C 0.79167 0.8327 0.44535 0.0
C1672 C 0.79416 0.83861 0.4278 0.0
C1673 C 0.72303 0.81392 0.36377 0.0
C1674 C 0.72195 0.83377 0.35845 0.0
C1675 C 0.74492 0.81473 0.36705 0.0
C1676 C 0.76606 0.83537 0.36486 0.0
C1677 C 0.76525 0.85494 0.35822 0.0
C1678 C 0.74333 0.8542 0.35526 0.0
C1679 C 0.78786 0.83732 0.37267 0.0
C1680 C 0.787 0.83275 0.39035 0.0
C1681 C 0.80972 0.84557 0.36323 0.0
C1682 C 0.81134 0.84851 0.34455 0.0
C1683 C 0.82706 0.86945 0.33537 0.0
C1684 C 0.83045 0.8716 0.31781 0.0
C1685 C 0.81842 0.85283 0.30934 0.0
C1686 C 0.80274 0.83195 0.3184 0.0
C1687 C 0.799 0.8298 0.33592 0.0
H1688 H 0.82116 0.85449 0.29576 0.0
H1689 H 0.79851 0.81419 0.46646 0.0
H1690 H 0.24525 0.06526 0.42273 0.0
H1691 H 0.23886 0.03017 0.41341 0.0
H1692 H 0.17205 0.02053 0.39361 0.0
H1693 H 0.17742 0.05456 0.40458 0.0
H1694 H 0.1653 0.98251 0.40608 0.0
H1695 H 0.22724 0.03992 0.36809 0.0
H1696 H 0.26553 0.07392 0.3591 0.0
H1697 H 0.30358 0.04204 0.38357 0.0
H1698 H 0.26549 0.00794 0.3929 0.0
H1699 H 0.15903 0.90234 0.3535 0.0
H1700 H 0.16553 0.93784 0.36219 0.0
H1701 H 0.21766 0.93677 0.39624 0.0
H1702 H 0.21121 0.90108 0.38768 0.0
H1703 H 0.23123 0.97979 0.3755 0.0
H1704 H 0.165 0.92064 0.41193 0.0
H1705 H 0.12544 0.88683 0.4164 0.0
H1706 H 0.09368 0.9235 0.38973 0.0
H1707 H 0.13313 0.95734 0.38472 0.0
C1708 C 0.22902 0.05544 0.41664 0.0
C1709 C 0.21181 0.06264 0.41443 0.0
C1710 C 0.22554 0.03554 0.41101 0.0
C1711 C 0.2052 0.02277 0.40238 0.0
C1712 C 0.18796 0.03 0.40014 0.0
C1713 C 0.19115 0.04962 0.40622 0.0
C1714 C 0.20184 1.00183 0.39589 0.0
C1715 C 0.17969 0.98212 0.3992 0.0
C1716 C 0.22052 1.00098 0.38693 0.0
C1717 C 0.24349 0.02145 0.38133 0.0
C1718 C 0.24376 0.04022 0.37165 0.0
C1719 C 0.26544 0.0595 0.36648 0.0
C1720 C 0.28697 0.06016 0.3708 0.0
C1721 C 0.28688 0.04151 0.38025 0.0
C1722 C 0.26526 0.0222 0.38547 0.0
C1723 C 0.1721 0.90974 0.3627 0.0
C1724 C 0.18466 0.89887 0.36986 0.0
C1725 C 0.17568 0.92998 0.36771 0.0
C1726 C 0.19197 0.93985 0.37992 0.0
C1727 C 0.205 0.9294 0.3868 0.0
C1728 C 0.20123 0.90898 0.38193 0.0
C1729 C 0.19496 0.96079 0.38584 0.0
C1730 C 0.21697 0.9804 0.38239 0.0
C1731 C 0.17597 0.96167 0.3942 0.0
C1732 C 0.15209 0.9415 0.39781 0.0
C1733 C 0.14961 0.92146 0.40692 0.0
C1734 C 0.12719 0.90226 0.40953 0.0
C1735 C 0.10705 0.90297 0.40328 0.0
C1736 C 0.10928 0.92292 0.3945 0.0
C1737 C 0.13167 0.94212 0.39178 0.0
H1738 H 0.08972 0.88808 0.40527 0.0
H1739 H 0.30374 0.0751 0.36678 0.0
H1740 H 0.5151 0.61521 0.29848 0.0
H1741 H 0.54407 0.65107 0.30759 0.0
H1742 H 0.49154 0.67382 0.30393 0.0
H1743 H 0.46248 0.6377 0.29495 0.0
H1744 H 0.5379 0.70713 0.28938 0.0
H1745 H 0.50192 0.6578 0.34133 0.0
H1746 H 0.48891 0.62298 0.3612 0.0
H1747 H 0.56142 0.63547 0.36319 0.0
H1748 H 0.57482 0.67021 0.3431 0.0
H1749 H 0.60154 0.78245 0.35881 0.0
H1750 H 0.57129 0.74724 0.35012 0.0
H1751 H 0.61724 0.75695 0.30694 0.0
H1752 H 0.64794 0.79207 0.31576 0.0
H1753 H 0.57221 0.708 0.34538 0.0
H1754 H 0.5822 0.73823 0.27412 0.0
H1755 H 0.59676 0.77435 0.25546 0.0
H1756 H 0.57439 0.80097 0.29362 0.0
H1757 H 0.55954 0.765 0.31242 0.0
C1758 C 0.5098 0.62788 0.29969 0.0
C1759 C 0.48658 0.62371 0.29612 0.0
C1760 C 0.52632 0.64837 0.30487 0.0
C1761 C 0.52007 0.66526 0.30645 0.0
C1762 C 0.49686 0.66115 0.30275 0.0
C1763 C 0.48022 0.64049 0.29778 0.0
C1764 C 0.5376 0.68687 0.31238 0.0
C1765 C 0.54536 0.70729 0.30162 0.0
C1766 C 0.54732 0.68728 0.32841 0.0
C1767 C 0.53934 0.6665 0.34059 0.0
C1768 C 0.51507 0.65303 0.3459 0.0
C1769 C 0.50763 0.63332 0.35722 0.0
C1770 C 0.52432 0.62699 0.36343 0.0
C1771 C 0.5485 0.64039 0.35835 0.0
C1772 C 0.55603 0.6601 0.34701 0.0
C1773 C 0.6055 0.77701 0.34762 0.0
C1774 C 0.62748 0.79013 0.33816 0.0
C1775 C 0.58804 0.75683 0.34261 0.0
C1776 C 0.59185 0.74938 0.32783 0.0
C1777 C 0.61375 0.76237 0.31834 0.0
C1778 C 0.63135 0.78248 0.32344 0.0
C1779 C 0.5728 0.72817 0.3223 0.0
C1780 C 0.56476 0.70784 0.33312 0.0
C1781 C 0.56272 0.72789 0.30641 0.0
C1782 C 0.56999 0.74899 0.29472 0.0
C1783 C 0.58021 0.75173 0.27846 0.0
C1784 C 0.58861 0.7722 0.2679 0.0
C1785 C 0.58674 0.79 0.27344 0.0
C1786 C 0.57603 0.78724 0.28941 0.0
C1787 C 0.56763 0.76682 0.30002 0.0
H1788 H 0.5935 0.80591 0.26532 0.0
H1789 H 0.51852 0.61172 0.37219 0.0
H1790 H 0.35738 0.7978 0.29555 0.0
H1791 H 0.32401 0.79889 0.3102 0.0
H1792 H 0.36567 0.87116 0.30654 0.0
H1793 H 0.39849 0.86989 0.29176 0.0
H1794 H 0.32132 0.81442 0.3397 0.0
H1795 H 0.33028 0.89463 0.29882 0.0
H1796 H 0.34334 0.91377 0.26958 0.0
H1797 H 0.32559 0.85082 0.25225 0.0
H1798 H 0.31201 0.83124 0.28131 0.0
H1799 H 0.25281 0.88465 0.34617 0.0
H1800 H 0.28789 0.88048 0.34004 0.0
H1801 H 0.24469 0.80829 0.3496 0.0
H1802 H 0.21001 0.81248 0.35616 0.0
H1803 H 0.28869 0.86285 0.31325 0.0
H1804 H 0.27531 0.78232 0.35364 0.0
H1805 H 0.2675 0.76345 0.38308 0.0
H1806 H 0.29691 0.82747 0.40133 0.0
H1807 H 0.30416 0.84665 0.37201 0.0
C1808 C 0.35909 0.81378 0.29789 0.0
C1809 C 0.38 0.8338 0.29247 0.0
C1810 C 0.34025 0.81443 0.30625 0.0
C1811 C 0.3423 0.83515 0.30919 0.0
C1812 C 0.36355 0.85507 0.30409 0.0
C1813 C 0.38221 0.85439 0.29571 0.0
C1814 C 0.32232 0.83623 0.31753 0.0
C1815 C 0.31386 0.82473 0.33386 0.0
C1816 C 0.31302 0.85001 0.30995 0.0
C1817 C 0.32032 0.86151 0.29229 0.0
C1818 C 0.32899 0.88484 0.28875 0.0
C1819 C 0.33652 0.89577 0.27221 0.0
C1820 C 0.33537 0.88353 0.25908 0.0
C1821 C 0.32654 0.8603 0.26244 0.0
C1822 C 0.31893 0.84928 0.27895 0.0
C1823 C 0.2511 0.86795 0.34759 0.0
C1824 C 0.22873 0.84892 0.3516 0.0
C1825 C 0.27109 0.86556 0.34407 0.0
C1826 C 0.26894 0.84406 0.34424 0.0
C1827 C 0.24698 0.82505 0.34963 0.0
C1828 C 0.22703 0.82747 0.35333 0.0
C1829 C 0.28805 0.84159 0.3358 0.0
C1830 C 0.29613 0.85261 0.31922 0.0
C1831 C 0.29689 0.82729 0.34312 0.0
C1832 C 0.2901 0.81585 0.3607 0.0
C1833 C 0.27978 0.79232 0.36397 0.0
C1834 C 0.27544 0.78158 0.38061 0.0
C1835 C 0.28175 0.79427 0.39405 0.0
C1836 C 0.29194 0.81768 0.39089 0.0
C1837 C 0.29591 0.82847 0.37428 0.0
H1838 H 0.27869 0.78595 0.40693 0.0
H1839 H 0.34129 0.89204 0.2463 0.0
H1840 H 0.10384 0.52766 0.31091 0.0
H1841 H 0.1096 0.49478 0.31869 0.0
H1842 H 0.1545 0.51248 0.27317 0.0
H1843 H 0.1495 0.54604 0.26571 0.0
H1844 H 0.11731 0.46188 0.28462 0.0
H1845 H 0.18369 0.52802 0.30275 0.0
H1846 H 0.19999 0.56207 0.31691 0.0
H1847 H 0.1628 0.52212 0.36366 0.0
H1848 H 0.1459 0.48786 0.34968 0.0
H1849 H 0.16997 0.39255 0.30955 0.0
H1850 H 0.16172 0.42285 0.29801 0.0
H1851 H 0.14439 0.42963 0.34854 0.0
H1852 H 0.15384 0.40011 0.36003 0.0
H1853 H 0.16789 0.46857 0.33327 0.0
H1854 H 0.10109 0.40322 0.31759 0.0
H1855 H 0.08028 0.36803 0.30495 0.0
H1856 H 0.11249 0.40385 0.25599 0.0
H1857 H 0.13376 0.43922 0.26838 0.0
C1858 C 0.1148 0.52441 0.30253 0.0
C1859 C 0.12653 0.53951 0.28786 0.0
C1860 C 0.11796 0.5056 0.30692 0.0
C1861 C 0.1326 0.50129 0.29657 0.0
C1862 C 0.14308 0.5155 0.2813 0.0
C1863 C 0.14018 0.53459 0.27703 0.0
C1864 C 0.13857 0.48319 0.30259 0.0
C1865 C 0.12867 0.46338 0.29507 0.0
C1866 C 0.15267 0.48492 0.31661 0.0
C1867 C 0.16337 0.50541 0.32513 0.0
C1868 C 0.17885 0.52652 0.31602 0.0
C1869 C 0.18822 0.54585 0.32401 0.0
C1870 C 0.18239 0.54427 0.34117 0.0
C1871 C 0.16727 0.52333 0.35037 0.0
C1872 C 0.15781 0.50394 0.34242 0.0
C1873 C 0.16429 0.40049 0.31816 0.0
C1874 C 0.16264 0.39406 0.3357 0.0
C1875 C 0.15943 0.41775 0.31155 0.0
C1876 C 0.15198 0.42845 0.32231 0.0
C1877 C 0.15018 0.42183 0.33988 0.0
C1878 C 0.15562 0.40494 0.3465 0.0
C1879 C 0.1466 0.44684 0.31537 0.0
C1880 C 0.1566 0.46685 0.32275 0.0
C1881 C 0.1321 0.44502 0.30146 0.0
C1882 C 0.1192 0.42382 0.29394 0.0
C1883 C 0.10386 0.40356 0.30414 0.0
C1884 C 0.09196 0.38359 0.29702 0.0
C1885 C 0.09511 0.38369 0.27968 0.0
C1886 C 0.1101 0.40379 0.26942 0.0
C1887 C 0.12206 0.42381 0.27648 0.0
H1888 H 0.08589 0.36821 0.2742 0.0
H1889 H 0.18963 0.55927 0.34733 0.0
H1890 H 0.39518 0.56529 0.29557 0.0
H1891 H 0.35804 0.53051 0.30474 0.0
H1892 H 0.39342 0.49166 0.29733 0.0
H1893 H 0.43086 0.52654 0.28881 0.0
H1894 H 0.3475 0.4744 0.28433 0.0
H1895 H 0.38431 0.49942 0.33587 0.0
H1896 H 0.40229 0.52666 0.35617 0.0
H1897 H 0.337 0.52957 0.36181 0.0
H1898 H 0.31875 0.50266 0.34127 0.0
H1899 H 0.26289 0.36874 0.32786 0.0
H1900 H 0.29936 0.40407 0.31885 0.0
H1901 H 0.26425 0.44136 0.33153 0.0
H1902 H 0.22751 0.40592 0.34024 0.0
H1903 H 0.30965 0.46001 0.3419 0.0
H1904 H 0.27285 0.43806 0.29093 0.0
H1905 H 0.25403 0.4148 0.26842 0.0
H1906 H 0.31699 0.4087 0.26007 0.0
H1907 H 0.3362 0.4319 0.2827 0.0
C1908 C 0.39505 0.54933 0.296 0.0
C1909 C 0.41602 0.5487 0.29158 0.0
C1910 C 0.3738 0.52945 0.30121 0.0
C1911 C 0.3729 0.50838 0.30194 0.0
C1912 C 0.39361 0.50766 0.29692 0.0
C1913 C 0.41497 0.5276 0.29192 0.0
C1914 C 0.35046 0.48718 0.30806 0.0
C1915 C 0.33946 0.47108 0.29701 0.0
C1916 C 0.33936 0.48317 0.32441 0.0
C1917 C 0.35025 0.49922 0.33686 0.0
C1918 C 0.37385 0.50603 0.3413 0.0
C1919 C 0.38409 0.52139 0.35288 0.0
C1920 C 0.37082 0.52989 0.36024 0.0
C1921 C 0.34727 0.523 0.35607 0.0
C1922 C 0.33697 0.50769 0.34446 0.0
C1923 C 0.26298 0.38447 0.32882 0.0
C1924 C 0.24239 0.38447 0.33505 0.0
C1925 C 0.28383 0.4047 0.32359 0.0
C1926 C 0.28465 0.42552 0.32434 0.0
C1927 C 0.26419 0.42558 0.33081 0.0
C1928 C 0.24319 0.40529 0.33589 0.0
C1929 C 0.30678 0.44707 0.31819 0.0
C1930 C 0.31773 0.46324 0.32923 0.0
C1931 C 0.31764 0.45136 0.30172 0.0
C1932 C 0.30583 0.43646 0.28869 0.0
C1933 C 0.28256 0.43147 0.28448 0.0
C1934 C 0.27185 0.41836 0.27163 0.0
C1935 C 0.28424 0.41013 0.26284 0.0
C1936 C 0.30738 0.41502 0.26692 0.0
C1937 C 0.3182 0.42817 0.27975 0.0
H1938 H 0.27599 0.40009 0.25282 0.0
H1939 H 0.37877 0.54178 0.3692 0.0
H1940 H 0.47652 0.88044 0.2805 0.0
H1941 H 0.51498 0.8871 0.29116 0.0
H1942 H 0.48704 0.81548 0.30432 0.0
H1943 H 0.4494 0.80895 0.29213 0.0
H1944 H 0.52597 0.8799 0.32103 0.0
H1945 H 0.52951 0.80046 0.30547 0.0
H1946 H 0.51463 0.77489 0.28375 0.0
H1947 H 0.51725 0.8283 0.24787 0.0
H1948 H 0.53256 0.8543 0.26926 0.0
H1949 H 0.61544 0.83443 0.34778 0.0
H1950 H 0.57685 0.83029 0.34002 0.0
H1951 H 0.60927 0.90175 0.3239 0.0
H1952 H 0.6479 0.90608 0.33249 0.0
H1953 H 0.56888 0.83856 0.30825 0.0
H1954 H 0.56822 0.91883 0.32097 0.0
H1955 H 0.58099 0.94578 0.34173 0.0
H1956 H 0.57399 0.89393 0.38099 0.0
H1957 H 0.56151 0.86661 0.3604 0.0
C1958 C 0.47905 0.86616 0.2849 0.0
C1959 C 0.46037 0.84416 0.28504 0.0
C1960 C 0.50084 0.86996 0.29135 0.0
C1961 C 0.5041 0.85181 0.29838 0.0
C1962 C 0.48529 0.82978 0.29857 0.0
C1963 C 0.46376 0.82602 0.29172 0.0
C1964 C 0.52678 0.8559 0.30612 0.0
C1965 C 0.53553 0.87108 0.31805 0.0
C1966 C 0.53916 0.84424 0.30241 0.0
C1967 C 0.53181 0.82922 0.28906 0.0
C1968 C 0.5271 0.8068 0.29291 0.0
C1969 C 0.5185 0.79221 0.28067 0.0
C1970 C 0.51462 0.79989 0.26454 0.0
C1971 C 0.51997 0.82232 0.26044 0.0
C1972 C 0.52865 0.83699 0.2726 0.0
C1973 C 0.61426 0.8494 0.34328 0.0
C1974 C 0.6347 0.87063 0.34091 0.0
C1975 C 0.59215 0.84698 0.33868 0.0
C1976 C 0.59012 0.86569 0.33135 0.0
C1977 C 0.61027 0.8871 0.32979 0.0
C1978 C 0.63236 0.88955 0.33462 0.0
C1979 C 0.56785 0.8623 0.32336 0.0
C1980 C 0.55928 0.84734 0.31126 0.0
C1981 C 0.55597 0.87454 0.32665 0.0
C1982 C 0.56411 0.89076 0.33912 0.0
C1983 C 0.56951 0.91318 0.33402 0.0
C1984 C 0.57677 0.92851 0.34574 0.0
C1985 C 0.57847 0.92155 0.36264 0.0
C1986 C 0.57295 0.89926 0.36784 0.0
C1987 C 0.56589 0.88388 0.35614 0.0
H1988 H 0.58396 0.93341 0.37172 0.0
H1989 H 0.50764 0.7885 0.25515 0.0
H1990 H 0.1564 0.63718 0.27712 0.0
H1991 H 0.16068 0.66989 0.28969 0.0
H1992 H 0.11312 0.62569 0.33202 0.0
H1993 H 0.10836 0.59297 0.31911 0.0
H1994 H 0.10202 0.65782 0.3217 0.0
H1995 H 0.1736 0.65541 0.33568 0.0
H1996 H 0.21072 0.6538 0.33028 0.0
H1997 H 0.23931 0.71671 0.29763 0.0
H1998 H 0.20221 0.71854 0.30264 0.0
H1999 H 0.17315 0.7642 0.36765 0.0
H2000 H 0.1675 0.72903 0.35888 0.0
H2001 H 0.12625 0.73617 0.31799 0.0
H2002 H 0.13134 0.77112 0.32689 0.0
H2003 H 0.18147 0.72082 0.33048 0.0
H2004 H 0.08412 0.68447 0.31002 0.0
H2005 H 0.04694 0.68487 0.31776 0.0
H2006 H 0.06972 0.69688 0.36795 0.0
H2007 H 0.10685 0.69623 0.3606 0.0
C2008 C 0.14688 0.63455 0.28909 0.0
C2009 C 0.1321 0.61265 0.2972 0.0
C2010 C 0.14944 0.6532 0.29633 0.0
C2011 C 0.13741 0.65032 0.31191 0.0
C2012 C 0.12262 0.62838 0.32002 0.0
C2013 C 0.12004 0.60972 0.31275 0.0
C2014 C 0.14001 0.67018 0.31958 0.0
C2015 C 0.1194 0.67157 0.32363 0.0
C2016 C 0.16265 0.688 0.32242 0.0
C2017 C 0.18503 0.68701 0.31943 0.0
C2018 C 0.18773 0.66882 0.32725 0.0
C2019 C 0.20878 0.66788 0.32427 0.0
C2020 C 0.22735 0.68512 0.31359 0.0
C2021 C 0.22491 0.70336 0.30589 0.0
C2022 C 0.20388 0.70436 0.3088 0.0
C2023 C 0.16256 0.75817 0.35694 0.0
C2024 C 0.15251 0.77047 0.34809 0.0
C2025 C 0.15951 0.7381 0.35185 0.0
C2026 C 0.14629 0.7298 0.33785 0.0
C2027 C 0.13622 0.74202 0.32899 0.0
C2028 C 0.13924 0.76209 0.33408 0.0
C2029 C 0.14351 0.70866 0.33225 0.0
C2030 C 0.16409 0.70705 0.32857 0.0
C2031 C 0.12083 0.69046 0.33005 0.0
C2032 C 0.09836 0.69051 0.33469 0.0
C2033 C 0.08114 0.68709 0.32273 0.0
C2034 C 0.06008 0.68738 0.32705 0.0
C2035 C 0.05601 0.69097 0.34332 0.0
C2036 C 0.07294 0.69419 0.35534 0.0
C2037 C 0.094 0.69388 0.35109 0.0
H2038 H 0.03971 0.69121 0.34663 0.0
H2039 H 0.24363 0.68436 0.3113 0.0
H2040 H 0.84285 0.08306 0.41514 0.0
H2041 H 0.81388 0.04868 0.40433 0.0
H2042 H 0.87016 0.03334 0.39354 0.0
H2043 H 0.89906 0.06726 0.40522 0.0
H2044 H 0.83515 0.02811 0.36636 0.0
H2045 H 0.8386 1.00539 0.42561 0.0
H2046 H 0.83721 0.00847 0.45602 0.0
H2047 H 0.7657 0.99866 0.45356 0.0
H2048 H 0.76683 0.99593 0.42304 0.0
H2049 H 0.76072 0.91626 0.34973 0.0
H2050 H 0.79145 0.95049 0.35936 0.0
H2051 H 0.73763 0.95544 0.38839 0.0
H2052 H 0.70696 0.92041 0.3795 0.0
H2053 H 0.77279 0.96642 0.40628 0.0
H2054 H 0.76797 0.9911 0.34838 0.0
H2055 H 0.76752 0.98991 0.3176 0.0
H2056 H 0.83844 0.9979 0.31673 0.0
H2057 H 0.8393 0.99912 0.34754 0.0
C2058 C 0.84902 0.07227 0.41061 0.0
C2059 C 0.87323 0.07779 0.41124 0.0
C2060 C 0.83247 0.05269 0.40431 0.0
C2061 C 0.83976 0.03832 0.39816 0.0
C2062 C 0.86409 0.04418 0.39817 0.0
C2063 C 0.88061 0.0636 0.40479 0.0
C2064 C 0.82175 0.01684 0.39234 0.0
C2065 C 0.82171 0.01447 0.3751 0.0
C2066 C 0.8037 0.99931 0.40362 0.0
C2067 C 0.8029 1.00069 0.422 0.0
C2068 C 0.82266 1.0041 0.43151 0.0
C2069 C 0.82191 1.00575 0.44878 0.0
C2070 C 0.8014 1.00382 0.45671 0.0
C2071 C 0.78159 1.00018 0.44739 0.0
C2072 C 0.78227 0.99858 0.43012 0.0
C2073 C 0.75537 0.92467 0.35811 0.0
C2074 C 0.73126 0.91556 0.36375 0.0
C2075 C 0.77303 0.94445 0.36355 0.0
C2076 C 0.76707 0.95612 0.3744 0.0
C2077 C 0.74293 0.94697 0.38004 0.0
C2078 C 0.72531 0.92691 0.37488 0.0
C2079 C 0.78591 0.9775 0.38014 0.0
C2080 C 0.78616 0.97995 0.39743 0.0
C2081 C 0.80385 0.99531 0.36882 0.0
C2082 C 0.80361 0.99501 0.35027 0.0
C2083 C 0.78344 0.99254 0.34162 0.0
C2084 C 0.78312 0.99188 0.32418 0.0
C2085 C 0.8029 0.99373 0.31523 0.0
C2086 C 0.82312 0.99644 0.32369 0.0
C2087 C 0.82357 0.99719 0.34113 0.0
H2088 H 0.80257 0.99311 0.30173 0.0
H2089 H 0.80085 1.00509 0.47007 0.0
H2090 H 0.98795 0.88002 0.43013 0.0
H2091 H 0.02136 0.87589 0.41888 0.0
H2092 H 0.97253 0.80689 0.41324 0.0
H2093 H 0.93933 0.81147 0.42363 0.0
H2094 H 0.01898 0.8158 0.42688 0.0
H2095 H 0.98324 0.84163 0.38119 0.0
H2096 H 0.97074 0.86825 0.36717 0.0
H2097 H 0.04296 0.92184 0.36499 0.0
H2098 H 0.05581 0.89553 0.37918 0.0
H2099 H 0.08111 0.78631 0.37329 0.0
H2100 H 0.04872 0.79279 0.38271 0.0
H2101 H 0.09634 0.86437 0.3753 0.0
H2102 H 0.12824 0.85797 0.36538 0.0
H2103 H 0.05255 0.85649 0.36941 0.0
H2104 H 0.08989 0.83297 0.41318 0.0
H2105 H 0.1045 0.80848 0.42805 0.0
H2106 H 0.03282 0.75396 0.43595 0.0
H2107 H 0.01777 0.77789 0.42068 0.0
C2108 C 0.98468 0.86388 0.42689 0.0
C2109 C 0.96137 0.84583 0.42816 0.0
C2110 C 0.00359 0.86155 0.42044 0.0
C2111 C 0.9993 0.84106 0.41531 0.0
C2112 C 0.97618 0.82272 0.41735 0.0
C2113 C 0.95729 0.82521 0.42349 0.0
C2114 C 0.01832 0.83909 0.40647 0.0
C2115 C 0.02622 0.82452 0.41427 0.0
C2116 C 0.02816 0.85104 0.39024 0.0
C2117 C 0.02043 0.8667 0.38146 0.0
C2118 C 0.99641 0.85913 0.37786 0.0
C2119 C 0.98927 0.87415 0.36985 0.0
C2120 C 0.00602 0.89675 0.36527 0.0
C2121 C 0.02998 0.90435 0.36859 0.0
C2122 C 0.03721 0.88939 0.37661 0.0
C2123 C 0.08433 0.80342 0.3731 0.0
C2124 C 0.10717 0.82161 0.36863 0.0
C2125 C 0.06594 0.80712 0.37861 0.0
C2126 C 0.07037 0.82903 0.38019 0.0
C2127 C 0.09257 0.84731 0.37429 0.0
C2128 C 0.11084 0.84362 0.36855 0.0
C2129 C 0.05289 0.83271 0.38964 0.0
C2130 C 0.04539 0.84774 0.38202 0.0
C2131 C 0.04375 0.82151 0.40621 0.0
C2132 C 0.05272 0.80717 0.41563 0.0
C2133 C 0.07725 0.81571 0.41798 0.0
C2134 C 0.08562 0.80194 0.42648 0.0
C2135 C 0.06962 0.77971 0.43295 0.0
C2136 C 0.0452 0.77119 0.43092 0.0
C2137 C 0.03673 0.78483 0.42232 0.0
H2138 H 0.07616 0.7691 0.43954 0.0
H2139 H 1.00045 0.90835 0.35908 0.0
H2140 H 0.25323 0.15939 0.42419 0.0
H2141 H 0.25114 0.19424 0.41564 0.0
H2142 H 0.17872 0.15515 0.40192 0.0
H2143 H 0.18056 0.12044 0.41102 0.0
H2144 H 0.2094 0.19016 0.37638 0.0
H2145 H 0.18817 0.17829 0.43641 0.0
H2146 H 0.19594 0.17275 0.46643 0.0
H2147 H 0.25909 0.23718 0.46004 0.0
H2148 H 0.25199 0.24291 0.42986 0.0
H2149 H 0.16555 0.26591 0.35942 0.0
H2150 H 0.17262 0.23504 0.37072 0.0
H2151 H 0.23622 0.28133 0.39278 0.0
H2152 H 0.22866 0.31243 0.38194 0.0
H2153 H 0.21475 0.24491 0.4141 0.0
H2154 H 0.23905 0.25793 0.35576 0.0
H2155 H 0.23691 0.26398 0.32485 0.0
H2156 H 0.174 0.19968 0.32716 0.0
H2157 H 0.17579 0.19322 0.35811 0.0
C2158 C 0.23676 0.15831 0.41967 0.0
C2159 C 0.21704 0.13728 0.41823 0.0
C2160 C 0.23561 0.17818 0.41471 0.0
C2161 C 0.21477 0.17728 0.40812 0.0
C2162 C 0.195 0.15624 0.40689 0.0
C2163 C 0.19607 0.13646 0.41203 0.0
C2164 C 0.21362 0.19813 0.40186 0.0
C2165 C 0.21031 0.20202 0.38465 0.0
C2166 C 0.21586 0.21407 0.41254 0.0
C2167 C 0.21969 0.21093 0.43081 0.0
C2168 C 0.20382 0.19122 0.44136 0.0
C2169 C 0.20809 0.18804 0.45842 0.0
C2170 C 0.22803 0.20457 0.46513 0.0
C2171 C 0.24367 0.22437 0.45482 0.0
C2172 C 0.23953 0.22759 0.43774 0.0
C2173 C 0.18115 0.26964 0.36658 0.0
C2174 C 0.1967 0.29176 0.36958 0.0
C2175 C 0.18524 0.2519 0.37302 0.0
C2176 C 0.2053 0.25579 0.38232 0.0
C2177 C 0.22069 0.27783 0.38559 0.0
C2178 C 0.2164 0.29563 0.37933 0.0
C2179 C 0.2099 0.23673 0.38858 0.0
C2180 C 0.21394 0.23316 0.40577 0.0
C2181 C 0.2089 0.22124 0.37782 0.0
C2182 C 0.20748 0.22516 0.35925 0.0
C2183 C 0.22469 0.24513 0.34969 0.0
C2184 C 0.2236 0.24859 0.33215 0.0
C2185 C 0.20535 0.23221 0.32405 0.0
C2186 C 0.18815 0.21233 0.33346 0.0
C2187 C 0.18925 0.20873 0.35099 0.0
H2188 H 0.20449 0.23496 0.31047 0.0
H2189 H 0.23134 0.20207 0.47833 0.0
H2190 H 0.59221 0.49628 0.73155 0.0
H2191 H 0.63121 0.52916 0.72312 0.0
H2192 H 0.66116 0.50941 0.76623 0.0
H2193 H 0.62184 0.47652 0.7747 0.0
H2194 H 0.68017 0.55386 0.7614 0.0
H2195 H 0.6681 0.4982 0.7262 0.0
H2196 H 0.64681 0.47071 0.70659 0.0
H2197 H 0.65086 0.52361 0.66945 0.0
H2198 H 0.67178 0.55138 0.68898 0.0
H2199 H 0.79791 0.61397 0.70377 0.0
H2200 H 0.75948 0.58036 0.71247 0.0
H2201 H 0.7301 0.62239 0.72504 0.0
H2202 H 0.7683 0.65595 0.71607 0.0
H2203 H 0.71312 0.56467 0.70271 0.0
H2204 H 0.69526 0.59752 0.76195 0.0
H2205 H 0.71835 0.62314 0.78235 0.0
H2206 H 0.77777 0.61208 0.77269 0.0
H2207 H 0.75492 0.58614 0.75246 0.0
C2208 C 0.60711 0.49915 0.7393 0.0
C2209 C 0.60407 0.48381 0.75371 0.0
C2210 C 0.62945 0.51787 0.73444 0.0
C2211 C 0.64947 0.52165 0.74378 0.0
C2212 C 0.64615 0.50691 0.75871 0.0
C2213 C 0.62367 0.48816 0.76361 0.0
C2214 C 0.67381 0.54054 0.73765 0.0
C2215 C 0.68727 0.55617 0.74856 0.0
C2216 C 0.68363 0.54348 0.72099 0.0
C2217 C 0.6713 0.52685 0.70913 0.0
C2218 C 0.6643 0.50396 0.7139 0.0
C2219 C 0.6523 0.48832 0.7028 0.0
C2220 C 0.64744 0.4954 0.6868 0.0
C2221 C 0.65461 0.51815 0.68186 0.0
C2222 C 0.66654 0.53385 0.69294 0.0
C2223 C 0.78311 0.61607 0.70799 0.0
C2224 C 0.78604 0.6377 0.70887 0.0
C2225 C 0.76113 0.5968 0.71307 0.0
C2226 C 0.74182 0.59872 0.71957 0.0
C2227 C 0.74469 0.62035 0.72023 0.0
C2228 C 0.76653 0.63955 0.71503 0.0
C2229 C 0.71897 0.57827 0.72629 0.0
C2230 C 0.70589 0.56234 0.71553 0.0
C2231 C 0.70972 0.57479 0.74317 0.0
C2232 C 0.72344 0.59006 0.75556 0.0
C2233 C 0.71321 0.60048 0.76425 0.0
C2234 C 0.72626 0.61507 0.77577 0.0
C2235 C 0.74953 0.61929 0.77878 0.0
C2236 C 0.75977 0.60886 0.77031 0.0
C2237 C 0.74678 0.59423 0.7588 0.0
H2238 H 0.75961 0.63061 0.78769 0.0
H2239 H 0.63815 0.48327 0.67822 0.0
H2240 H 0.55281 0.16334 0.72871 0.0
H2241 H 0.51945 0.16513 0.71478 0.0
H2242 H 0.52353 0.21359 0.74661 0.0
H2243 H 0.5571 0.21164 0.76058 0.0
H2244 H 0.47914 0.18022 0.74668 0.0
H2245 H 0.54022 0.22945 0.70472 0.0
H2246 H 0.57493 0.24189 0.68475 0.0
H2247 H 0.53378 0.1872 0.65677 0.0
H2248 H 0.4989 0.17419 0.67674 0.0
H2249 H 0.40294 0.20749 0.68795 0.0
H2250 H 0.44279 0.21335 0.69386 0.0
H2251 H 0.41404 0.14227 0.70983 0.0
H2252 H 0.37398 0.13611 0.7031 0.0
H2253 H 0.47257 0.19197 0.68464 0.0
H2254 H 0.43366 0.14288 0.75058 0.0
H2255 H 0.39984 0.1337 0.77062 0.0
H2256 H 0.39976 0.19493 0.75049 0.0
H2257 H 0.43362 0.2045 0.7306 0.0
C2258 C 0.54685 0.17472 0.7324 0.0
C2259 C 0.55745 0.18757 0.74548 0.0
C2260 C 0.52787 0.17575 0.72448 0.0
C2261 C 0.51924 0.18972 0.72952 0.0
C2262 C 0.53006 0.20281 0.74249 0.0
C2263 C 0.54911 0.20176 0.75042 0.0
C2264 C 0.49773 0.18914 0.72214 0.0
C2265 C 0.47783 0.18293 0.73312 0.0
C2266 C 0.49608 0.19289 0.70444 0.0
C2267 C 0.51698 0.20073 0.69233 0.0
C2268 C 0.53861 0.21996 0.69439 0.0
C2269 C 0.55831 0.22713 0.68306 0.0
C2270 C 0.55658 0.21532 0.66952 0.0
C2271 C 0.5351 0.19633 0.66727 0.0
C2272 C 0.51535 0.18906 0.67858 0.0
C2273 C 0.40514 0.19298 0.69206 0.0
C2274 C 0.3854 0.17127 0.69476 0.0
C2275 C 0.42796 0.19639 0.69545 0.0
C2276 C 0.43122 0.17824 0.70224 0.0
C2277 C 0.41175 0.15643 0.70447 0.0
C2278 C 0.38896 0.15295 0.7007 0.0
C2279 C 0.45416 0.1825 0.7092 0.0
C2280 C 0.47414 0.18936 0.69817 0.0
C2281 C 0.45615 0.17983 0.72686 0.0
C2282 C 0.43594 0.17424 0.73898 0.0
C2283 C 0.4264 0.15436 0.75049 0.0
C2284 C 0.40721 0.14909 0.76183 0.0
C2285 C 0.39754 0.16364 0.76181 0.0
C2286 C 0.40708 0.18354 0.75048 0.0
C2287 C 0.42626 0.18889 0.73915 0.0
H2288 H 0.38272 0.15953 0.77062 0.0
H2289 H 0.57186 0.2209 0.66076 0.0
H2290 H 0.91408 0.39971 0.75449 0.0
H2291 H 0.90829 0.36531 0.74422 0.0
H2292 H 0.83797 0.35183 0.7296 0.0
H2293 H 0.84316 0.38545 0.74127 0.0
H2294 H 0.83487 0.31458 0.74216 0.0
H2295 H 0.88913 0.37246 0.70032 0.0
H2296 H 0.92505 0.40749 0.68882 0.0
H2297 H 0.96963 0.3801 0.70867 0.0
H2298 H 0.93398 0.345 0.7205 0.0
H2299 H 0.82594 0.23471 0.68794 0.0
H2300 H 0.83164 0.26968 0.69721 0.0
H2301 H 0.88888 0.27228 0.72732 0.0
H2302 H 0.88305 0.23695 0.71832 0.0
H2303 H 0.89783 0.31464 0.70582 0.0
H2304 H 0.84016 0.25568 0.74744 0.0
H2305 H 0.80265 0.22064 0.75604 0.0
H2306 H 0.76245 0.25089 0.73263 0.0
H2307 H 0.79977 0.28601 0.72365 0.0
C2308 C 0.8973 0.38926 0.74926 0.0
C2309 C 0.87903 0.39521 0.74877 0.0
C2310 C 0.8941 0.36973 0.74312 0.0
C2311 C 0.87283 0.356 0.73577 0.0
C2312 C 0.85459 0.36206 0.73514 0.0
C2313 C 0.85763 0.38141 0.74163 0.0
C2314 C 0.86954 0.33517 0.72911 0.0
C2315 C 0.84855 0.31478 0.73402 0.0
C2316 C 0.88737 0.3351 0.71855 0.0
C2317 C 0.90887 0.35617 0.71143 0.0
C2318 C 0.9066 0.37396 0.70234 0.0
C2319 C 0.92691 0.39382 0.69575 0.0
C2320 C 0.94961 0.39604 0.69805 0.0
C2321 C 0.95204 0.37837 0.70691 0.0
C2322 C 0.93178 0.35848 0.71355 0.0
C2323 C 0.83988 0.24275 0.69644 0.0
C2324 C 0.85408 0.23301 0.70237 0.0
C2325 C 0.84303 0.26271 0.70177 0.0
C2326 C 0.86061 0.27352 0.71299 0.0
C2327 C 0.87521 0.26418 0.71864 0.0
C2328 C 0.87181 0.24398 0.71353 0.0
C2329 C 0.86344 0.29436 0.71904 0.0
C2330 C 0.88426 0.31466 0.71396 0.0
C2331 C 0.84525 0.29442 0.72908 0.0
C2332 C 0.82279 0.27342 0.73474 0.0
C2333 C 0.82334 0.25481 0.74401 0.0
C2334 C 0.80211 0.23494 0.74897 0.0
C2335 C 0.78018 0.23354 0.74486 0.0
C2336 C 0.77945 0.252 0.7358 0.0
C2337 C 0.80063 0.2719 0.73078 0.0
H2338 H 0.76375 0.21817 0.74874 0.0
H2339 H 0.96531 0.41143 0.69293 0.0
H2340 H 0.14968 0.94176 0.65196 0.0
H2341 H 0.17892 0.97735 0.66126 0.0
H2342 H 0.17732 0.01322 0.61339 0.0
H2343 H 0.14758 0.97771 0.60432 0.0
H2344 H 0.22344 0.02663 0.6226 0.0
H2345 H 0.15022 0.0161 0.64823 0.0
H2346 H 0.11236 0.99546 0.66572 0.0
H2347 H 0.15055 0.99193 0.70938 0.0
H2348 H 0.18863 0.01226 0.69208 0.0
H2349 H 0.29154 0.13713 0.64422 0.0
H2350 H 0.26044 0.10261 0.635 0.0
H2351 H 0.25166 0.06758 0.68537 0.0
H2352 H 0.28203 0.10234 0.6947 0.0
H2353 H 0.21026 0.05364 0.67451 0.0
H2354 H 0.28303 0.06245 0.64954 0.0
H2355 H 0.32137 0.08238 0.63255 0.0
H2356 H 0.285 0.08814 0.58839 0.0
H2357 H 0.24646 0.06848 0.60517 0.0
C2358 C 0.15529 0.95728 0.64355 0.0
C2359 C 0.14628 0.9569 0.62741 0.0
C2360 C 0.1721 0.97764 0.64883 0.0
C2361 C 0.18039 0.99812 0.63806 0.0
C2362 C 0.17137 0.99773 0.62193 0.0
C2363 C 0.1544 0.97742 0.61674 0.0
C2364 C 0.19866 0.01987 0.64349 0.0
C2365 C 0.22042 0.03269 0.63383 0.0
C2366 C 0.19512 0.02763 0.65838 0.0
C2367 C 0.17226 0.01549 0.66881 0.0
C2368 C 0.15053 0.01075 0.66153 0.0
C2369 C 0.12903 0.99914 0.67141 0.0
C2370 C 0.12904 0.99233 0.68864 0.0
C2371 C 0.15056 0.99718 0.69603 0.0
C2372 C 0.17211 0.00876 0.68619 0.0
C2373 C 0.28308 0.12203 0.65331 0.0
C2374 C 0.28933 0.12255 0.67024 0.0
C2375 C 0.26529 0.10218 0.648 0.0
C2376 C 0.25379 0.08208 0.65934 0.0
C2377 C 0.26007 0.08268 0.67628 0.0
C2378 C 0.27749 0.10264 0.68165 0.0
C2379 C 0.23525 0.06053 0.65366 0.0
C2380 C 0.21338 0.04769 0.66326 0.0
C2381 C 0.2388 0.05263 0.63881 0.0
C2382 C 0.2619 0.06418 0.62864 0.0
C2383 C 0.28323 0.06807 0.63622 0.0
C2384 C 0.30499 0.07931 0.62663 0.0
C2385 C 0.30563 0.08656 0.60941 0.0
C2386 C 0.28449 0.08253 0.60173 0.0
C2387 C 0.26267 0.07132 0.61127 0.0
H2388 H 0.3225 0.09528 0.60201 0.0
H2389 H 0.11238 0.98335 0.69627 0.0
H2390 H 0.02006 0.12256 0.62645 0.0
H2391 H 0.99 0.12685 0.64248 0.0
H2392 H 0.02674 0.19822 0.62527 0.0
H2393 H 0.05712 0.19387 0.60984 0.0
H2394 H 0.01494 0.19051 0.65825 0.0
H2395 H 0.97273 0.16366 0.60803 0.0
H2396 H 0.95732 0.1375 0.5867 0.0
H2397 H 0.91828 0.08242 0.62595 0.0
H2398 H 0.93398 0.10825 0.64746 0.0
H2399 H 0.92244 0.21863 0.67086 0.0
H2400 H 0.95558 0.2126 0.66272 0.0
H2401 H 0.91346 0.1418 0.68073 0.0
H2402 H 0.87998 0.14758 0.68788 0.0
H2403 H 0.9286 0.14783 0.64927 0.0
H2404 H 0.96723 0.17815 0.69948 0.0
H2405 H 0.98345 0.20625 0.71943 0.0
H2406 H 0.02961 0.25635 0.67945 0.0
H2407 H 0.01381 0.22867 0.65928 0.0
C2408 C 0.02141 0.13903 0.62606 0.0
C2409 C 0.04051 0.15786 0.61688 0.0
C2410 C 0.00434 0.14151 0.63514 0.0
C2411 C 0.00607 0.16285 0.63495 0.0
C2412 C 0.02509 0.18163 0.6256 0.0
C2413 C 0.04221 0.17914 0.61666 0.0
C2414 C 0.98818 0.16572 0.6446 0.0
C2415 C 0.99602 0.18122 0.65631 0.0
C2416 C 0.96355 0.15334 0.64224 0.0
C2417 C 0.95433 0.13784 0.62932 0.0
C2418 C 0.9609 0.14595 0.61208 0.0
C2419 C 0.95217 0.13119 0.59996 0.0
C2420 C 0.93681 0.1083 0.60496 0.0
C2421 C 0.93013 0.10014 0.62208 0.0
C2422 C 0.93888 0.11484 0.63423 0.0
C2423 C 0.92054 0.20189 0.67348 0.0
C2424 C 0.8987 0.18363 0.68013 0.0
C2425 C 0.93954 0.19847 0.66894 0.0
C2426 C 0.93708 0.17674 0.67119 0.0
C2427 C 0.91577 0.15871 0.67888 0.0
C2428 C 0.89666 0.16207 0.68312 0.0
C2429 C 0.95512 0.17231 0.66329 0.0
C2430 C 0.94736 0.15666 0.65169 0.0
C2431 C 0.97981 0.18471 0.6657 0.0
C2432 C 0.98921 0.20136 0.67785 0.0
C2433 C 0.98072 0.1952 0.69493 0.0
C2434 C 0.98985 0.21102 0.70627 0.0
C2435 C 0.0074 0.23304 0.70069 0.0
C2436 C 0.01599 0.23929 0.68376 0.0
C2437 C 0.00702 0.22352 0.67238 0.0
H2438 H 0.01441 0.24525 0.7095 0.0
H2439 H 0.93012 0.09687 0.59559 0.0
H2440 H 0.77253 0.86028 0.64477 0.0
H2441 H 0.77861 0.82775 0.65346 0.0
H2442 H 0.82859 0.8476 0.61051 0.0
H2443 H 0.82286 0.88057 0.60204 0.0
H2444 H 0.79623 0.79897 0.61844 0.0
H2445 H 0.85132 0.86233 0.64515 0.0
H2446 H 0.86173 0.89383 0.66154 0.0
H2447 H 0.81692 0.84769 0.70387 0.0
H2448 H 0.80592 0.81593 0.68762 0.0
H2449 H 0.84704 0.73031 0.64938 0.0
H2450 H 0.84083 0.7617 0.63737 0.0
H2451 H 0.80827 0.75986 0.68533 0.0
H2452 H 0.81605 0.7294 0.69757 0.0
H2453 H 0.83284 0.80038 0.67356 0.0
H2454 H 0.77597 0.73718 0.64772 0.0
H2455 H 0.76336 0.70492 0.63179 0.0
H2456 H 0.80825 0.74896 0.58871 0.0
H2457 H 0.82133 0.78145 0.60445 0.0
C2458 C 0.78462 0.85752 0.63713 0.0
C2459 C 0.79748 0.87301 0.6229 0.0
C2460 C 0.78804 0.83896 0.64205 0.0
C2461 C 0.80429 0.83541 0.63276 0.0
C2462 C 0.816 0.85004 0.61787 0.0
C2463 C 0.81269 0.86879 0.61301 0.0
C2464 C 0.8103 0.81749 0.63942 0.0
C2465 C 0.8045 0.79935 0.63038 0.0
C2466 C 0.8206 0.81777 0.65518 0.0
C2467 C 0.82764 0.83678 0.66511 0.0
C2468 C 0.84357 0.85892 0.65792 0.0
C2469 C 0.84959 0.87681 0.66719 0.0
C2470 C 0.83996 0.87277 0.68372 0.0
C2471 C 0.82435 0.8508 0.69105 0.0
C2472 C 0.81823 0.83284 0.68182 0.0
C2473 C 0.83855 0.73668 0.6573 0.0
C2474 C 0.83182 0.72743 0.67433 0.0
C2475 C 0.83484 0.75453 0.65041 0.0
C2476 C 0.82344 0.76294 0.66024 0.0
C2477 C 0.817 0.75375 0.67739 0.0
C2478 C 0.82137 0.73631 0.68441 0.0
C2479 C 0.81843 0.78137 0.65276 0.0
C2480 C 0.82452 0.79978 0.66162 0.0
C2481 C 0.80806 0.78113 0.63694 0.0
C2482 C 0.79975 0.76171 0.62731 0.0
C2483 C 0.78319 0.73996 0.63486 0.0
C2484 C 0.77597 0.72164 0.62587 0.0
C2485 C 0.78504 0.72488 0.60926 0.0
C2486 C 0.80125 0.74647 0.60158 0.0
C2487 C 0.80855 0.76485 0.61052 0.0
H2488 H 0.77947 0.71067 0.60233 0.0
H2489 H 0.84461 0.88665 0.69087 0.0
H2490 H 0.08845 0.874 0.64977 0.0
H2491 H 0.05179 0.83914 0.65879 0.0
H2492 H 0.02408 0.84438 0.61001 0.0
H2493 H 0.06012 0.88051 0.60158 0.0
H2494 H 0.98921 0.82921 0.63137 0.0
H2495 H 0.04741 0.80644 0.62321 0.0
H2496 H 0.0857 0.80607 0.62604 0.0
H2497 H 0.0701 0.78615 0.67959 0.0
H2498 H 0.03186 0.78674 0.67713 0.0
H2499 H 0.92451 0.69762 0.66015 0.0
H2500 H 0.96035 0.73273 0.64983 0.0
H2501 H 0.92991 0.77014 0.67009 0.0
H2502 H 0.89316 0.73518 0.67865 0.0
H2503 H 0.99382 0.76338 0.66101 0.0
H2504 H 0.95169 0.82244 0.65091 0.0
H2505 H 0.91289 0.82003 0.64398 0.0
H2506 H 0.89569 0.76267 0.61857 0.0
H2507 H 0.93451 0.76493 0.62514 0.0
C2508 C 0.07441 0.86788 0.64106 0.0
C2509 C 0.07723 0.88012 0.62498 0.0
C2510 C 0.0535 0.84767 0.64612 0.0
C2511 C 0.03505 0.83859 0.63504 0.0
C2512 C 0.0379 0.85079 0.61888 0.0
C2513 C 0.05868 0.87135 0.61395 0.0
C2514 C 0.0129 0.81654 0.6404 0.0
C2515 C 0.9903 0.81482 0.63779 0.0
C2516 C 0.01393 0.79733 0.64844 0.0
C2517 C 0.03685 0.79682 0.65 0.0
C2518 C 0.05221 0.80212 0.63561 0.0
C2519 C 0.0739 0.80186 0.63715 0.0
C2520 C 0.08035 0.79613 0.65299 0.0
C2521 C 0.06509 0.7906 0.66733 0.0
C2522 C 0.0434 0.79088 0.66587 0.0
C2523 C 0.92548 0.71337 0.66235 0.0
C2524 C 0.90611 0.71349 0.67057 0.0
C2525 C 0.9461 0.73354 0.65651 0.0
C2526 C 0.94808 0.75447 0.65887 0.0
C2527 C 0.92889 0.7545 0.66754 0.0
C2528 C 0.90794 0.73435 0.67284 0.0
C2529 C 0.97006 0.77603 0.65213 0.0
C2530 C 0.99268 0.7777 0.65452 0.0
C2531 C 0.96899 0.7948 0.64317 0.0
C2532 C 0.94594 0.79377 0.63864 0.0
C2533 C 0.9397 0.80942 0.64374 0.0
C2534 C 0.91769 0.80805 0.6399 0.0
C2535 C 0.90182 0.79118 0.63087 0.0
C2536 C 0.90798 0.7757 0.62559 0.0
C2537 C 0.92998 0.77702 0.62936 0.0
H2538 H 0.88479 0.79015 0.62794 0.0
H2539 H 0.09714 0.79593 0.65416 0.0
H2540 H 0.12231 0.18964 0.62798 0.0
H2541 H 0.16107 0.19626 0.63809 0.0
H2542 H 0.16261 0.1505 0.60575 0.0
H2543 H 0.12323 0.14352 0.59595 0.0
H2544 H 0.17463 0.14288 0.63828 0.0
H2545 H 0.19497 0.20472 0.59546 0.0
H2546 H 0.19095 0.23652 0.58089 0.0
H2547 H 0.21577 0.27194 0.62386 0.0
H2548 H 0.21858 0.23979 0.63917 0.0
H2549 H 0.29272 0.17072 0.65654 0.0
H2550 H 0.25636 0.16365 0.643 0.0
H2551 H 0.25529 0.21801 0.66502 0.0
H2552 H 0.29394 0.22693 0.67675 0.0
H2553 H 0.24322 0.21984 0.63544 0.0
H2554 H 0.21695 0.15507 0.67948 0.0
H2555 H 0.2197 0.12245 0.69403 0.0
H2556 H 0.20729 0.09306 0.648 0.0
H2557 H 0.20456 0.12551 0.63305 0.0
C2558 C 0.131 0.18101 0.62313 0.0
C2559 C 0.11995 0.16587 0.61146 0.0
C2560 C 0.15309 0.18485 0.62879 0.0
C2561 C 0.16468 0.17389 0.62262 0.0
C2562 C 0.15385 0.15903 0.61068 0.0
C2563 C 0.1316 0.15516 0.60503 0.0
C2564 C 0.18798 0.17791 0.62896 0.0
C2565 C 0.18978 0.15965 0.6375 0.0
C2566 C 0.20753 0.19987 0.62804 0.0
C2567 C 0.20682 0.21968 0.61856 0.0
C2568 C 0.19939 0.21918 0.6019 0.0
C2569 C 0.1973 0.23728 0.59349 0.0
C2570 C 0.20327 0.2563 0.60138 0.0
C2571 C 0.21119 0.2572 0.61775 0.0
C2572 C 0.21292 0.23898 0.62634 0.0
C2573 C 0.28431 0.18063 0.65904 0.0
C2574 C 0.29518 0.19829 0.66882 0.0
C2575 C 0.26344 0.17661 0.65121 0.0
C2576 C 0.25222 0.18949 0.65364 0.0
C2577 C 0.26324 0.20743 0.66326 0.0
C2578 C 0.28498 0.21221 0.67035 0.0
C2579 C 0.22969 0.18491 0.64543 0.0
C2580 C 0.22809 0.20306 0.63635 0.0
C2581 C 0.21028 0.16283 0.64587 0.0
C2582 C 0.21063 0.14277 0.65513 0.0
C2583 C 0.21474 0.14163 0.67246 0.0
C2584 C 0.21636 0.12321 0.68077 0.0
C2585 C 0.21374 0.10577 0.67196 0.0
C2586 C 0.20929 0.10659 0.65481 0.0
C2587 C 0.20764 0.12495 0.64642 0.0
H2588 H 0.21513 0.09162 0.67845 0.0
H2589 H 0.20171 0.27032 0.59481 0.0
H2590 H 0.77592 0.92683 0.65164 0.0
H2591 H 0.77951 0.95989 0.66346 0.0
H2592 H 0.83235 1.00341 0.6235 0.0
H2593 H 0.82887 0.97032 0.61187 0.0
H2594 H 0.84515 0.01885 0.65379 0.0
H2595 H 0.77587 0.99355 0.62119 0.0
H2596 H 0.73666 0.96595 0.61266 0.0
H2597 H 0.70571 0.95725 0.66251 0.0
H2598 H 0.74486 0.98456 0.67142 0.0
H2599 H 0.80266 0.10737 0.65738 0.0
H2600 H 0.79656 0.07217 0.64836 0.0
H2601 H 0.82893 0.05929 0.69289 0.0
H2602 H 0.83639 0.09499 0.70145 0.0
H2603 H 0.77342 0.02858 0.66 0.0
H2604 H 0.86155 0.03504 0.68363 0.0
H2605 H 0.89997 0.06468 0.69171 0.0
H2606 H 0.89347 0.11387 0.6564 0.0
H2607 H 0.8556 0.08451 0.64772 0.0
C2608 C 0.78845 0.9435 0.64556 0.0
C2609 C 0.80209 0.94615 0.63086 0.0
C2610 C 0.7904 0.96234 0.65222 0.0
C2611 C 0.80606 0.98417 0.64429 0.0
C2612 C 0.82015 0.98678 0.62984 0.0
C2613 C 0.8181 0.96794 0.62315 0.0
C2614 C 0.80733 1.00429 0.65073 0.0
C2615 C 0.82944 0.0209 0.6552 0.0
C2616 C 0.78694 0.00723 0.65237 0.0
C2617 C 0.76335 0.99093 0.64702 0.0
C2618 C 0.76074 0.98562 0.63037 0.0
C2619 C 0.73853 0.97005 0.62546 0.0
C2620 C 0.71872 0.95981 0.63705 0.0
C2621 C 0.72108 0.96517 0.65356 0.0
C2622 C 0.74328 0.98071 0.65854 0.0
C2623 C 0.80842 0.09704 0.66533 0.0
C2624 C 0.82007 0.10417 0.68019 0.0
C2625 C 0.80474 0.07678 0.66018 0.0
C2626 C 0.81254 0.06313 0.6698 0.0
C2627 C 0.82308 0.06965 0.68508 0.0
C2628 C 0.82713 0.09007 0.69007 0.0
C2629 C 0.81115 0.04297 0.66328 0.0
C2630 C 0.78908 0.02641 0.65873 0.0
C2631 C 0.83165 0.04025 0.66128 0.0
C2632 C 0.85562 0.05761 0.66517 0.0
C2633 C 0.86854 0.05214 0.67742 0.0
C2634 C 0.89022 0.06892 0.68212 0.0
C2635 C 0.89912 0.0912 0.67466 0.0
C2636 C 0.88661 0.09667 0.66222 0.0
C2637 C 0.86511 0.07995 0.65733 0.0
H2638 H 0.91578 0.1042 0.67843 0.0
H2639 H 0.70153 0.94776 0.63323 0.0
H2640 H 0.53169 0.38654 0.76812 0.0
H2641 H 0.5015 0.35294 0.75734 0.0
H2642 H 0.5027 0.39357 0.71115 0.0
H2643 H 0.53161 0.42747 0.72263 0.0
H2644 H 0.45958 0.3649 0.71865 0.0
H2645 H 0.5293 0.35658 0.71524 0.0
H2646 H 0.56512 0.35482 0.72503 0.0
H2647 H 0.52163 0.29819 0.76198 0.0
H2648 H 0.48557 0.2998 0.75257 0.0
H2649 H 0.39897 0.26932 0.67358 0.0
H2650 H 0.42968 0.30373 0.68333 0.0
H2651 H 0.41586 0.26936 0.73428 0.0
H2652 H 0.38503 0.23489 0.72457 0.0
H2653 H 0.46569 0.29473 0.72319 0.0
H2654 H 0.39573 0.30462 0.7252 0.0
H2655 H 0.36102 0.30649 0.71312 0.0
H2656 H 0.4074 0.36088 0.67557 0.0
H2657 H 0.44238 0.3591 0.68728 0.0
C2658 C 0.52537 0.38831 0.75572 0.0
C2659 C 0.53403 0.40971 0.74627 0.0
C2660 C 0.5083 0.36899 0.74941 0.0
C2661 C 0.4999 0.37038 0.7332 0.0
C2662 C 0.50877 0.39181 0.72365 0.0
C2663 C 0.52555 0.41122 0.73013 0.0
C2664 C 0.48146 0.34963 0.72648 0.0
C2665 C 0.46124 0.34974 0.71944 0.0
C2666 C 0.48311 0.32948 0.72758 0.0
C2667 C 0.50475 0.32846 0.7333 0.0
C2668 C 0.52739 0.34386 0.72554 0.0
C2669 C 0.54774 0.34287 0.73101 0.0
C2670 C 0.54566 0.32644 0.74415 0.0
C2671 C 0.52322 0.31092 0.75182 0.0
C2672 C 0.50282 0.31186 0.74641 0.0
C2673 C 0.40251 0.26903 0.68682 0.0
C2674 C 0.38956 0.24928 0.69824 0.0
C2675 C 0.42 0.28879 0.69242 0.0
C2676 C 0.42515 0.28921 0.70956 0.0
C2677 C 0.41226 0.2695 0.721 0.0
C2678 C 0.3945 0.24984 0.71544 0.0
C2679 C 0.44404 0.31014 0.71554 0.0
C2680 C 0.46425 0.31001 0.72241 0.0
C2681 C 0.44263 0.33036 0.71396 0.0
C2682 C 0.42164 0.33158 0.70701 0.0
C2683 C 0.39851 0.31686 0.71428 0.0
C2684 C 0.37879 0.31792 0.70752 0.0
C2685 C 0.382 0.33375 0.69356 0.0
C2686 C 0.40494 0.3486 0.68637 0.0
C2687 C 0.42472 0.34758 0.69307 0.0
H2688 H 0.36671 0.33455 0.68834 0.0
H2689 H 0.56143 0.3257 0.74836 0.0
H2690 H 0.64933 0.19493 0.7698 0.0
H2691 H 0.68317 0.19126 0.75881 0.0
H2692 H 0.63602 0.14341 0.72718 0.0
H2693 H 0.60266 0.14763 0.7379 0.0
H2694 H 0.6942 0.15811 0.75732 0.0
H2695 H 0.66322 0.15425 0.68852 0.0
H2696 H 0.63964 0.16733 0.67051 0.0
H2697 H 0.65657 0.22099 0.70009 0.0
H2698 H 0.68055 0.20846 0.7181 0.0
H2699 H 0.75398 0.11875 0.70965 0.0
H2700 H 0.71991 0.12363 0.71764 0.0
H2701 H 0.7611 0.19495 0.70158 0.0
H2702 H 0.79539 0.19034 0.69437 0.0
H2703 H 0.70912 0.17312 0.69481 0.0
H2704 H 0.76446 0.18461 0.73751 0.0
H2705 H 0.79086 0.17559 0.7554 0.0
H2706 H 0.73052 0.11482 0.7786 0.0
H2707 H 0.70368 0.12328 0.76041 0.0
C2708 C 0.64637 0.18338 0.76075 0.0
C2709 C 0.6238 0.17168 0.75447 0.0
C2710 C 0.66554 0.1813 0.75447 0.0
C2711 C 0.66214 0.16745 0.74191 0.0
C2712 C 0.63911 0.15456 0.73658 0.0
C2713 C 0.62012 0.15684 0.74272 0.0
C2714 C 0.68271 0.16727 0.73364 0.0
C2715 C 0.69742 0.16138 0.74367 0.0
C2716 C 0.68733 0.17221 0.71584 0.0
C2717 C 0.67351 0.18027 0.70475 0.0
C2718 C 0.66204 0.16893 0.69111 0.0
C2719 C 0.64857 0.17623 0.68092 0.0
C2720 C 0.64654 0.19493 0.68419 0.0
C2721 C 0.65809 0.20646 0.6976 0.0
C2722 C 0.6716 0.19925 0.70782 0.0
C2723 C 0.7555 0.13536 0.70737 0.0
C2724 C 0.77726 0.15412 0.70123 0.0
C2725 C 0.73609 0.13811 0.71191 0.0
C2726 C 0.73818 0.15965 0.71024 0.0
C2727 C 0.7592 0.17819 0.70283 0.0
C2728 C 0.77878 0.1755 0.69863 0.0
C2729 C 0.71982 0.16312 0.71847 0.0
C2730 C 0.70571 0.16978 0.70844 0.0
C2731 C 0.71619 0.15956 0.7363 0.0
C2732 C 0.7321 0.15444 0.74743 0.0
C2733 C 0.75682 0.1692 0.74629 0.0
C2734 C 0.77188 0.1642 0.75652 0.0
C2735 C 0.76243 0.14459 0.76813 0.0
C2736 C 0.73784 0.12998 0.76956 0.0
C2737 C 0.72268 0.13487 0.75927 0.0
H2738 H 0.77415 0.14074 0.77605 0.0
H2739 H 0.63606 0.20051 0.67631 0.0
H2740 H 0.84489 0.45084 0.75083 0.0
H2741 H 0.84218 0.48527 0.7425 0.0
H2742 H 0.91592 0.52517 0.75309 0.0
H2743 H 0.91878 0.49057 0.76101 0.0
H2744 H 0.88327 0.5416 0.76368 0.0
H2745 H 0.9065 0.51941 0.7149 0.0
H2746 H 0.90267 0.49219 0.6958 0.0
H2747 H 0.83275 0.48207 0.68425 0.0
H2748 H 0.83598 0.50892 0.70356 0.0
H2749 H 0.89426 0.64262 0.71737 0.0
H2750 H 0.90088 0.61127 0.72882 0.0
H2751 H 0.8354 0.56486 0.70873 0.0
H2752 H 0.82921 0.59613 0.69672 0.0
H2753 H 0.86691 0.55299 0.70344 0.0
H2754 H 0.841 0.57147 0.75349 0.0
H2755 H 0.84293 0.59776 0.77294 0.0
H2756 H 0.91553 0.61448 0.78195 0.0
H2757 H 0.91396 0.58816 0.76266 0.0
C2758 C 0.86045 0.46697 0.75144 0.0
C2759 C 0.88208 0.46808 0.75638 0.0
C2760 C 0.85888 0.48661 0.74678 0.0
C2761 C 0.87889 0.50781 0.74705 0.0
C2762 C 0.90024 0.509 0.75283 0.0
C2763 C 0.90186 0.48926 0.75737 0.0
C2764 C 0.87785 0.52848 0.73988 0.0
C2765 C 0.88002 0.54428 0.75047 0.0
C2766 C 0.87317 0.5318 0.72271 0.0
C2767 C 0.8714 0.51603 0.71079 0.0
C2768 C 0.89024 0.51126 0.70838 0.0
C2769 C 0.88818 0.49591 0.69751 0.0
C2770 C 0.86746 0.48537 0.68884 0.0
C2771 C 0.84878 0.49023 0.69099 0.0
C2772 C 0.85072 0.50552 0.70189 0.0
C2773 C 0.8813 0.62574 0.71536 0.0
C2774 C 0.86122 0.62194 0.7061 0.0
C2775 C 0.885 0.60776 0.72204 0.0
C2776 C 0.86842 0.58551 0.71996 0.0
C2777 C 0.84849 0.58178 0.71057 0.0
C2778 C 0.84497 0.59974 0.70368 0.0
C2779 C 0.87188 0.5661 0.72727 0.0
C2780 C 0.87021 0.55046 0.71666 0.0
C2781 C 0.87675 0.56286 0.74445 0.0
C2782 C 0.87742 0.57799 0.75655 0.0
C2783 C 0.85736 0.58076 0.75963 0.0
C2784 C 0.85839 0.59565 0.77063 0.0
C2785 C 0.87938 0.60786 0.7786 0.0
C2786 C 0.89932 0.60507 0.77571 0.0
C2787 C 0.89832 0.59006 0.76485 0.0
H2788 H 0.88018 0.61939 0.78709 0.0
H2789 H 0.86589 0.47347 0.68044 0.0
H2790 H 0.45107 0.89299 0.26185 0.0
H2791 H 0.47278 0.91858 0.23627 0.0
H2792 H 0.46897 0.86277 0.21353 0.0
H2793 H 0.44794 0.8373 0.23965 0.0
H2794 H 0.51113 0.90165 0.20389 0.0
H2795 H 0.42783 0.87886 0.20486 0.0
H2796 H 0.38911 0.87179 0.21724 0.0
H2797 H 0.41837 0.94187 0.222 0.0
H2798 H 0.45732 0.94936 0.20969 0.0
H2799 H 0.52606 0.96118 0.12007 0.0
H2800 H 0.51179 0.93324 0.14542 0.0
H2801 H 0.51175 0.98265 0.17442 0.0
H2802 H 0.52524 0.01042 0.14907 0.0
H2803 H 0.47037 0.94385 0.17944 0.0
H2804 H 0.5546 0.96565 0.17793 0.0
H2805 H 0.59236 0.9712 0.16494 0.0
H2806 H 0.55996 0.9009 0.16013 0.0
H2807 H 0.52185 0.89499 0.1728 0.0
C2808 C 0.45565 0.88646 0.25155 0.0
C2809 C 0.44823 0.86344 0.25257 0.0
C2810 C 0.4678 0.90094 0.23694 0.0
C2811 C 0.47202 0.89247 0.22288 0.0
C2812 C 0.46583 0.86961 0.22423 0.0
C2813 C 0.45392 0.85513 0.23906 0.0
C2814 C 0.48091 0.90725 0.20647 0.0
C2815 C 0.50209 0.91066 0.19839 0.0
C2816 C 0.46906 0.91899 0.19932 0.0
C2817 C 0.44554 0.91464 0.20646 0.0
C2818 C 0.42604 0.89275 0.2086 0.0
C2819 C 0.40404 0.88867 0.21559 0.0
C2820 C 0.40131 0.90635 0.22047 0.0
C2821 C 0.42052 0.92818 0.21824 0.0
C2822 C 0.44254 0.93237 0.21121 0.0
C2823 C 0.52298 0.96608 0.13185 0.0
C2824 C 0.52671 0.98802 0.13255 0.0
C2825 C 0.51506 0.95015 0.14636 0.0
C2826 C 0.51087 0.95591 0.16183 0.0
C2827 C 0.51493 0.97787 0.16261 0.0
C2828 C 0.52282 0.99378 0.14814 0.0
C2829 C 0.50106 0.93886 0.17709 0.0
C2830 C 0.47946 0.93484 0.18489 0.0
C2831 C 0.51238 0.92638 0.18376 0.0
C2832 C 0.53529 0.92993 0.17615 0.0
C2833 C 0.55545 0.95141 0.17395 0.0
C2834 C 0.57693 0.95461 0.16666 0.0
C2835 C 0.57852 0.93642 0.16164 0.0
C2836 C 0.55866 0.91498 0.16395 0.0
C2837 C 0.53713 0.9117 0.1712 0.0
H2838 H 0.59517 0.93893 0.15601 0.0
H2839 H 0.38429 0.90313 0.22594 0.0
H2840 H 0.14161 0.58822 0.23955 0.0
H2841 H 0.12423 0.57615 0.21284 0.0
H2842 H 0.06743 0.51558 0.2403 0.0
H2843 H 0.08438 0.5284 0.26712 0.0
H2844 H 0.11173 0.54449 0.19403 0.0
H2845 H 0.01499 0.50446 0.2234 0.0
H2846 H 0.99355 0.50683 0.24813 0.0
H2847 H 0.04892 0.5744 0.25027 0.0
H2848 H 0.07045 0.57255 0.22542 0.0
H2849 H 0.03166 0.49936 0.12904 0.0
H2850 H 0.05366 0.50513 0.15484 0.0
H2851 H 0.03353 0.55496 0.16462 0.0
H2852 H 0.01084 0.54855 0.13925 0.0
H2853 H 0.02794 0.53008 0.19228 0.0
H2854 H 0.09119 0.56807 0.14941 0.0
H2855 H 0.11435 0.57214 0.12334 0.0
H2856 H 0.12989 0.52048 0.14579 0.0
H2857 H 0.10647 0.51584 0.17192 0.0
C2858 C 0.12567 0.57213 0.23978 0.0
C2859 C 0.11407 0.55938 0.25529 0.0
C2860 C 0.11579 0.56517 0.22453 0.0
C2861 C 0.09416 0.54519 0.22451 0.0
C2862 C 0.08384 0.53131 0.23998 0.0
C2863 C 0.09361 0.53846 0.25529 0.0
C2864 C 0.08124 0.54043 0.20862 0.0
C2865 C 0.09334 0.54112 0.19368 0.0
C2866 C 0.05749 0.53683 0.20793 0.0
C2867 C 0.04445 0.53824 0.22269 0.0
C2868 C 0.02252 0.51984 0.22912 0.0
C2869 C 0.01036 0.5211 0.24315 0.0
C2870 C 0.01991 0.54072 0.2508 0.0
C2871 C 0.04157 0.55918 0.24437 0.0
C2872 C 0.05376 0.55804 0.23032 0.0
C2873 C 0.03214 0.51166 0.13666 0.0
C2874 C 0.01949 0.52345 0.13221 0.0
C2875 C 0.04474 0.51499 0.15139 0.0
C2876 C 0.04543 0.53059 0.16172 0.0
C2877 C 0.03316 0.54269 0.15701 0.0
C2878 C 0.02024 0.53907 0.14248 0.0
C2879 C 0.05834 0.53401 0.17763 0.0
C2880 C 0.04623 0.53312 0.19261 0.0
C2881 C 0.08239 0.53842 0.17815 0.0
C2882 C 0.09686 0.54144 0.16257 0.0
C2883 C 0.09942 0.55748 0.14876 0.0
C2884 C 0.11259 0.55989 0.13397 0.0
C2885 C 0.12352 0.54653 0.13289 0.0
C2886 C 0.12137 0.53079 0.14663 0.0
C2887 C 0.10816 0.52827 0.16144 0.0
H2888 H 0.13369 0.5484 0.12142 0.0
H2889 H 0.01049 0.54164 0.26168 0.0
H2890 H 0.48284 0.55751 0.26733 0.0
H2891 H 0.48463 0.54276 0.24115 0.0
H2892 H 0.4224 0.5475 0.2252 0.0
H2893 H 0.42074 0.56238 0.2516 0.0
H2894 H 0.42398 0.50862 0.21609 0.0
H2895 H 0.47358 0.58867 0.20976 0.0
H2896 H 0.50412 0.6246 0.21809 0.0
H2897 H 0.55635 0.602 0.21722 0.0
H2898 H 0.52608 0.56587 0.20897 0.0
H2899 H 0.45286 0.49965 0.13079 0.0
H2900 H 0.44168 0.51242 0.15508 0.0
H2901 H 0.50728 0.52331 0.17756 0.0
H2902 H 0.51894 0.51169 0.15319 0.0
H2903 H 0.50006 0.55637 0.18164 0.0
H2904 H 0.45006 0.4755 0.18936 0.0
H2905 H 0.41927 0.43901 0.18204 0.0
H2906 H 0.36746 0.46226 0.18104 0.0
H2907 H 0.39806 0.49906 0.18805 0.0
C2908 C 0.46924 0.55486 0.25839 0.0
C2909 C 0.45173 0.56111 0.26137 0.0
C2910 C 0.47032 0.54656 0.24341 0.0
C2911 C 0.45392 0.5444 0.23104 0.0
C2912 C 0.4353 0.5491 0.23452 0.0
C2913 C 0.43426 0.55748 0.24959 0.0
C2914 C 0.45767 0.53901 0.21408 0.0
C2915 C 0.44042 0.51921 0.20838 0.0
C2916 C 0.4792 0.55272 0.20407 0.0
C2917 C 0.49752 0.57452 0.20885 0.0
C2918 C 0.49155 0.59132 0.21142 0.0
C2919 C 0.50883 0.61174 0.21609 0.0
C2920 C 0.53214 0.61556 0.21823 0.0
C2921 C 0.53828 0.59901 0.21558 0.0
C2922 C 0.52109 0.57859 0.21085 0.0
C2923 C 0.46503 0.50507 0.14081 0.0
C2924 C 0.48671 0.50435 0.14005 0.0
C2925 C 0.45848 0.51211 0.15482 0.0
C2926 C 0.4734 0.51849 0.16841 0.0
C2927 C 0.4953 0.51838 0.16738 0.0
C2928 C 0.50189 0.51151 0.15343 0.0
C2929 C 0.46672 0.52547 0.18376 0.0
C2930 C 0.48345 0.54577 0.18917 0.0
C2931 C 0.44472 0.51214 0.19346 0.0
C2932 C 0.42644 0.49014 0.18899 0.0
C2933 C 0.43217 0.47293 0.18738 0.0
C2934 C 0.41474 0.45217 0.18332 0.0
C2935 C 0.39145 0.44836 0.181 0.0
C2936 C 0.38553 0.46527 0.18277 0.0
C2937 C 0.40291 0.48608 0.18677 0.0
H2938 H 0.37797 0.43226 0.1779 0.0
H2939 H 0.54546 0.63135 0.2219 0.0
H2940 H 0.87074 0.45478 0.79474 0.0
H2941 H 0.8877 0.47287 0.8201 0.0
H2942 H 0.95329 0.47224 0.80824 0.0
H2943 H 0.93652 0.45479 0.78296 0.0
H2944 H 0.90288 0.45793 0.84788 0.0
H2945 H 1.00034 0.51707 0.8192 0.0
H2946 H 0.02028 0.53971 0.79192 0.0
H2947 H 0.95691 0.54355 0.77886 0.0
H2948 H 0.93675 0.52133 0.80618 0.0
H2949 H 0.98577 0.48058 0.91125 0.0
H2950 H 0.96109 0.46993 0.88695 0.0
H2951 H 0.98077 0.53964 0.87136 0.0
H2952 H 0.00662 0.55028 0.89509 0.0
H2953 H 0.98349 0.52422 0.84553 0.0
H2954 H 0.92201 0.49664 0.88909 0.0
H2955 H 0.89998 0.47592 0.9163 0.0
H2956 H 0.88706 0.41362 0.9 0.0
H2957 H 0.90937 0.434 0.87279 0.0
C2958 C 0.88889 0.45894 0.79752 0.0
C2959 C 0.90245 0.45352 0.78704 0.0
C2960 C 0.89849 0.46905 0.81201 0.0
C2961 C 0.92184 0.47404 0.81604 0.0
C2962 C 0.93539 0.46888 0.80532 0.0
C2963 C 0.92583 0.45885 0.79094 0.0
C2964 C 0.93215 0.48399 0.83164 0.0
C2965 C 0.92041 0.47254 0.84742 0.0
C2966 C 0.9547 0.50346 0.83103 0.0
C2967 C 0.96698 0.51739 0.81473 0.0
C2968 C 0.99072 0.52289 0.81058 0.0
C2969 C 1.00205 0.53564 0.79509 0.0
C2970 C 0.98986 0.54303 0.78365 0.0
C2971 C 0.96633 0.53778 0.78771 0.0
C2972 C 0.95494 0.52511 0.8032 0.0
C2973 C 0.98457 0.49352 0.90268 0.0
C2974 C 0.99801 0.5162 0.90496 0.0
C2975 C 0.97031 0.48745 0.88886 0.0
C2976 C 0.96863 0.50391 0.87734 0.0
C2977 C 0.9817 0.52658 0.87996 0.0
C2978 C 0.99641 0.53267 0.89354 0.0
C2979 C 0.95467 0.49769 0.86197 0.0
C2980 C 0.96578 0.50984 0.84615 0.0
C2981 C 0.93121 0.47928 0.86262 0.0
C2982 C 0.91752 0.4669 0.87892 0.0
C2983 C 0.91459 0.47854 0.89134 0.0
C2984 C 0.90204 0.46684 0.90677 0.0
C2985 C 0.89217 0.44347 0.90989 0.0
C2986 C 0.89474 0.43173 0.89756 0.0
C2987 C 0.90732 0.44335 0.88212 0.0
H2988 H 0.8825 0.43443 0.92185 0.0
H2989 H 0.99865 0.55284 0.77166 0.0
H2990 H 0.57347 0.43752 0.80213 0.0
H2991 H 0.56735 0.44816 0.82919 0.0
H2992 H 0.56433 0.50557 0.80261 0.0
H2993 H 0.56967 0.49425 0.77546 0.0
H2994 H 0.58466 0.4801 0.84823 0.0
H2995 H 0.52054 0.51164 0.82106 0.0
H2996 H 0.4953 0.50738 0.7968 0.0
H2997 H 0.48866 0.44236 0.79347 0.0
H2998 H 0.51359 0.44612 0.81783 0.0
H2999 H 0.54184 0.5159 0.91575 0.0
H3000 H 0.56029 0.51292 0.88987 0.0
H3001 H 0.49247 0.45862 0.87925 0.0
H3002 H 0.474 0.46222 0.90466 0.0
H3003 H 0.50978 0.48495 0.85204 0.0
H3004 H 0.54237 0.45198 0.89343 0.0
H3005 H 0.56412 0.45018 0.91866 0.0
H3006 H 0.62789 0.50758 0.89555 0.0
H3007 H 0.60641 0.50993 0.87026 0.0
C3008 C 0.57227 0.45281 0.80217 0.0
C3009 C 0.57196 0.46504 0.78678 0.0
C3010 C 0.56872 0.45889 0.81763 0.0
C3011 C 0.56479 0.47741 0.81806 0.0
C3012 C 0.56681 0.49094 0.80268 0.0
C3013 C 0.57019 0.4847 0.78716 0.0
C3014 C 0.55601 0.48082 0.83431 0.0
C3015 C 0.56841 0.48139 0.84902 0.0
C3016 C 0.53442 0.48186 0.83562 0.0
C3017 C 0.51916 0.47931 0.82112 0.0
C3018 C 0.51363 0.49642 0.81517 0.0
C3019 C 0.49939 0.49409 0.8014 0.0
C3020 C 0.49047 0.47466 0.79356 0.0
C3021 C 0.49566 0.45745 0.79951 0.0
C3022 C 0.50985 0.45967 0.81329 0.0
C3023 C 0.53103 0.50312 0.90799 0.0
C3024 C 0.50648 0.48932 0.9122 0.0
C3025 C 0.54157 0.50139 0.89317 0.0
C3026 C 0.52787 0.4855 0.88245 0.0
C3027 C 0.5035 0.47119 0.88709 0.0
C3028 C 0.49294 0.47316 0.90169 0.0
C3029 C 0.53837 0.4842 0.86607 0.0
C3030 C 0.52624 0.484 0.85128 0.0
C3031 C 0.55973 0.48271 0.86487 0.0
C3032 C 0.57271 0.48129 0.88003 0.0
C3033 C 0.56098 0.46433 0.89378 0.0
C3034 C 0.57327 0.46319 0.90808 0.0
C3035 C 0.59735 0.47879 0.90873 0.0
C3036 C 0.60922 0.49553 0.89504 0.0
C3037 C 0.597 0.49677 0.88072 0.0
H3038 H 0.60683 0.47788 0.91982 0.0
H3039 H 0.47948 0.4729 0.78289 0.0
H3040 H 0.59713 0.17807 0.80512 0.0
H3041 H 0.59144 0.15078 0.83002 0.0
H3042 H 0.58302 0.10178 0.79735 0.0
H3043 H 0.5881 0.12899 0.77257 0.0
H3044 H 0.54661 0.0853 0.81965 0.0
H3045 H 0.63043 0.12272 0.82221 0.0
H3046 H 0.67108 0.1544 0.82235 0.0
H3047 H 0.65184 0.17057 0.86825 0.0
H3048 H 0.61086 0.1393 0.8682 0.0
H3049 H 0.52494 1.0045 0.89171 0.0
H3050 H 0.546 0.03047 0.86615 0.0
H3051 H 0.5503 0.0857 0.88984 0.0
H3052 H 0.52869 0.05991 0.9152 0.0
H3053 H 0.59283 0.09636 0.87102 0.0
H3054 H 0.50733 0.06238 0.86478 0.0
H3055 H 0.46691 0.03032 0.86438 0.0
H3056 H 0.49107 0.00727 0.82465 0.0
H3057 H 0.53174 0.03905 0.825 0.0
C3058 C 0.59472 0.16165 0.80338 0.0
C3059 C 0.59329 0.15557 0.78708 0.0
C3060 C 0.59157 0.14611 0.81753 0.0
C3061 C 0.58696 0.12425 0.81556 0.0
C3062 C 0.58668 0.11857 0.79917 0.0
C3063 C 0.58981 0.13413 0.78504 0.0
C3064 C 0.57947 0.10668 0.8305 0.0
C3065 C 0.55705 0.08751 0.83071 0.0
C3066 C 0.59285 0.10971 0.84507 0.0
C3067 C 0.61745 0.12871 0.84512 0.0
C3068 C 0.63476 0.13315 0.83225 0.0
C3069 C 0.6579 0.15103 0.83233 0.0
C3070 C 0.66405 0.16449 0.84531 0.0
C3071 C 0.64705 0.16012 0.85821 0.0
C3072 C 0.62385 0.14232 0.85816 0.0
C3073 C 0.53029 0.02215 0.89148 0.0
C3074 C 0.5249 0.03003 0.9055 0.0
C3075 C 0.54252 0.03699 0.87692 0.0
C3076 C 0.54963 0.05997 0.87612 0.0
C3077 C 0.54512 0.06804 0.89027 0.0
C3078 C 0.53277 0.05323 0.90478 0.0
C3079 C 0.55998 0.07537 0.86011 0.0
C3080 C 0.58278 0.09409 0.85977 0.0
C3081 C 0.54708 0.07193 0.84534 0.0
C3082 C 0.52261 0.05292 0.84506 0.0
C3083 C 0.50406 0.05037 0.85606 0.0
C3084 C 0.4811 0.03227 0.85583 0.0
C3085 C 0.47644 0.01672 0.84453 0.0
C3086 C 0.49472 0.01929 0.83342 0.0
C3087 C 0.51772 0.03735 0.83362 0.0
H3088 H 0.45865 1.00272 0.84437 0.0
H3089 H 0.682 0.17827 0.84537 0.0
H3090 H 0.08906 0.1536 0.56064 0.0
H3091 H 0.11237 0.17752 0.53477 0.0
H3092 H 0.15339 0.23124 0.56406 0.0
H3093 H 0.12981 0.20734 0.5898 0.0
H3094 H 0.11042 0.21512 0.5235 0.0
H3095 H 0.21042 0.26633 0.54082 0.0
H3096 H 0.2397 0.25981 0.55736 0.0
H3097 H 0.19881 0.18891 0.55526 0.0
H3098 H 0.16974 0.19501 0.53816 0.0
H3099 H 0.17152 0.32527 0.48065 0.0
H3100 H 0.15783 0.29326 0.50314 0.0
H3101 H 0.18955 0.26316 0.47467 0.0
H3102 H 0.20298 0.29504 0.45194 0.0
H3103 H 0.19779 0.26247 0.5112 0.0
H3104 H 0.13582 0.24067 0.47269 0.0
H3105 H 0.10647 0.24435 0.45424 0.0
H3106 H 0.0714 0.25181 0.49694 0.0
H3107 H 0.10074 0.24847 0.51563 0.0
C3108 C 0.10347 0.17034 0.56149 0.0
C3109 C 0.10773 0.17876 0.57703 0.0
C3110 C 0.11675 0.18395 0.5468 0.0
C3111 C 0.13463 0.20615 0.5475 0.0
C3112 C 0.13993 0.21407 0.56325 0.0
C3113 C 0.12652 0.20046 0.57793 0.0
C3114 C 0.1452 0.22195 0.53167 0.0
C3115 C 0.12954 0.22533 0.5208 0.0
C3116 C 0.17017 0.23502 0.52798 0.0
C3117 C 0.18761 0.23113 0.53836 0.0
C3118 C 0.2077 0.24934 0.54377 0.0
C3119 C 0.22434 0.24573 0.5532 0.0
C3120 C 0.22104 0.22395 0.55744 0.0
C3121 C 0.20124 0.20576 0.55208 0.0
C3122 C 0.18468 0.2093 0.54249 0.0
C3123 C 0.17581 0.31196 0.47929 0.0
C3124 C 0.18827 0.31257 0.4646 0.0
C3125 C 0.16792 0.29368 0.49208 0.0
C3126 C 0.17264 0.27589 0.49048 0.0
C3127 C 0.18578 0.27678 0.47609 0.0
C3128 C 0.19332 0.29489 0.46314 0.0
C3129 C 0.16295 0.25604 0.50365 0.0
C3130 C 0.17871 0.25202 0.51397 0.0
C3131 C 0.13808 0.24207 0.50676 0.0
C3132 C 0.12066 0.24456 0.49553 0.0
C3133 C 0.12203 0.24337 0.47812 0.0
C3134 C 0.10535 0.24533 0.46763 0.0
C3135 C 0.08714 0.24839 0.47441 0.0
C3136 C 0.08555 0.24948 0.4917 0.0
C3137 C 0.10219 0.24754 0.50225 0.0
H3138 H 0.0742 0.24984 0.46627 0.0
H3139 H 0.23387 0.22118 0.56483 0.0
H3140 H 0.81404 0.9213 0.57398 0.0
H3141 H 0.79785 0.90858 0.54713 0.0
H3142 H 0.74092 0.84789 0.57436 0.0
H3143 H 0.7566 0.86139 0.60127 0.0
H3144 H 0.78703 0.87675 0.52889 0.0
H3145 H 0.68906 0.83503 0.55587 0.0
H3146 H 0.66597 0.83696 0.57979 0.0
H3147 H 0.71949 0.90518 0.58223 0.0
H3148 H 0.74267 0.90376 0.55818 0.0
H3149 H 0.70987 0.83117 0.46167 0.0
H3150 H 0.73202 0.83765 0.48748 0.0
H3151 H 0.709 0.88547 0.49747 0.0
H3152 H 0.68613 0.87818 0.47223 0.0
H3153 H 0.70294 0.86063 0.52465 0.0
H3154 H 0.76848 0.8999 0.48338 0.0
H3155 H 0.79474 0.90566 0.4586 0.0
H3156 H 0.81045 0.85472 0.48243 0.0
H3157 H 0.78395 0.8484 0.50725 0.0
C3158 C 0.79831 0.90507 0.57414 0.0
C3159 C 0.7863 0.89247 0.5896 0.0
C3160 C 0.78911 0.89773 0.55882 0.0
C3161 C 0.7678 0.8775 0.55864 0.0
C3162 C 0.75709 0.86381 0.57413 0.0
C3163 C 0.76615 0.87135 0.5895 0.0
C3164 C 0.75561 0.8722 0.5425 0.0
C3165 C 0.76856 0.873 0.52798 0.0
C3166 C 0.73174 0.86802 0.5411 0.0
C3167 C 0.71771 0.86916 0.55537 0.0
C3168 C 0.69583 0.85045 0.56148 0.0
C3169 C 0.68274 0.85146 0.57506 0.0
C3170 C 0.6913 0.87115 0.58256 0.0
C3171 C 0.71291 0.88992 0.57644 0.0
C3172 C 0.72603 0.88902 0.56284 0.0
C3173 C 0.70987 0.84326 0.46932 0.0
C3174 C 0.69628 0.85415 0.46503 0.0
C3175 C 0.72256 0.84701 0.48406 0.0
C3176 C 0.72229 0.8621 0.49454 0.0
C3177 C 0.70937 0.87356 0.48979 0.0
C3178 C 0.69639 0.86951 0.47531 0.0
C3179 C 0.73436 0.86532 0.51086 0.0
C3180 C 0.72131 0.86406 0.5255 0.0
C3181 C 0.75844 0.87005 0.51214 0.0
C3182 C 0.774 0.87349 0.49709 0.0
C3183 C 0.77733 0.88975 0.48326 0.0
C3184 C 0.79231 0.89316 0.46923 0.0
C3185 C 0.80425 0.88056 0.46894 0.0
C3186 C 0.8012 0.86449 0.48268 0.0
C3187 C 0.78618 0.86096 0.49672 0.0
H3188 H 0.81585 0.88323 0.45807 0.0
H3189 H 0.68115 0.87188 0.59309 0.0
H3190 H 0.10752 0.86632 0.60587 0.0
H3191 H 0.10741 0.84844 0.58082 0.0
H3192 H 0.10854 0.90447 0.5486 0.0
H3193 H 0.10782 0.92176 0.57364 0.0
H3194 H 0.08294 0.86727 0.53493 0.0
H3195 H 0.16011 0.90203 0.55778 0.0
H3196 H 0.18887 0.90886 0.57996 0.0
H3197 H 0.17335 0.83985 0.58492 0.0
H3198 H 0.14419 0.83252 0.56294 0.0
H3199 H 0.14674 0.86492 0.46057 0.0
H3200 H 0.13229 0.87453 0.48517 0.0
H3201 H 0.12273 0.81338 0.51469 0.0
H3202 H 0.1363 0.80331 0.4902 0.0
H3203 H 0.15061 0.85135 0.52984 0.0
H3204 H 0.07526 0.81816 0.50447 0.0
H3205 H 0.04755 0.81297 0.48174 0.0
H3206 H 0.0613 0.88114 0.48044 0.0
H3207 H 0.08939 0.88686 0.503 0.0
C3208 C 0.10708 0.87441 0.59344 0.0
C3209 C 0.10787 0.89545 0.5916 0.0
C3210 C 0.10723 0.86434 0.57911 0.0
C3211 C 0.1085 0.87531 0.56271 0.0
C3212 C 0.10768 0.89565 0.56102 0.0
C3213 C 0.10737 0.90558 0.57531 0.0
C3214 C 0.11277 0.8668 0.54733 0.0
C3215 C 0.09783 0.86393 0.53378 0.0
C3216 C 0.13209 0.86226 0.54576 0.0
C3217 C 0.14979 0.86667 0.55885 0.0
C3218 C 0.16272 0.88828 0.56368 0.0
C3219 C 0.1791 0.89224 0.57621 0.0
C3220 C 0.18289 0.87479 0.58387 0.0
C3221 C 0.17036 0.85334 0.57899 0.0
C3222 C 0.1539 0.84927 0.5665 0.0
C3223 C 0.14103 0.85325 0.47217 0.0
C3224 C 0.14313 0.8335 0.47341 0.0
C3225 C 0.13283 0.85881 0.48626 0.0
C3226 C 0.12659 0.84476 0.50186 0.0
C3227 C 0.12765 0.82461 0.50288 0.0
C3228 C 0.13558 0.81895 0.48883 0.0
C3229 C 0.12074 0.85171 0.51747 0.0
C3230 C 0.13556 0.85446 0.53103 0.0
C3231 C 0.10151 0.85639 0.51891 0.0
C3232 C 0.08467 0.85302 0.5053 0.0
C3233 C 0.07259 0.83213 0.49922 0.0
C3234 C 0.05677 0.82907 0.48638 0.0
C3235 C 0.05276 0.84675 0.47959 0.0
C3236 C 0.06448 0.86748 0.48568 0.0
C3237 C 0.08034 0.87063 0.4985 0.0
H3238 H 0.04048 0.84433 0.46968 0.0
H3239 H 0.19559 0.87789 0.59357 0.0
H3240 H 0.58783 0.81894 0.10464 0.0
H3241 H 0.60368 0.83629 0.13011 0.0
H3242 H 0.56155 0.77201 0.16071 0.0
H3243 H 0.54316 0.75579 0.13557 0.0
H3244 H 0.56479 0.79828 0.1789 0.0
H3245 H 0.62627 0.79756 0.14523 0.0
H3246 H 0.65248 0.80565 0.11982 0.0
H3247 H 0.68108 0.87655 0.12093 0.0
H3248 H 0.65482 0.86885 0.14624 0.0
H3249 H 0.6431 0.81864 0.24762 0.0
H3250 H 0.61974 0.8048 0.22312 0.0
H3251 H 0.65014 0.87283 0.1977 0.0
H3252 H 0.67392 0.88656 0.22188 0.0
H3253 H 0.65261 0.84606 0.17729 0.0
H3254 H 0.58909 0.83962 0.2165 0.0
H3255 H 0.56587 0.82442 0.24401 0.0
H3256 H 0.54416 0.75713 0.23415 0.0
H3257 H 0.56737 0.77188 0.2067 0.0
C3258 C 0.58135 0.80877 0.11685 0.0
C3259 C 0.56456 0.78583 0.11806 0.0
C3260 C 0.59086 0.81856 0.13146 0.0
C3261 C 0.58476 0.80535 0.14748 0.0
C3262 C 0.56697 0.78274 0.14866 0.0
C3263 C 0.55668 0.7733 0.1342 0.0
C3264 C 0.59739 0.81449 0.16291 0.0
C3265 C 0.58403 0.80859 0.17844 0.0
C3266 C 0.62257 0.82793 0.16268 0.0
C3267 C 0.63841 0.83263 0.1475 0.0
C3268 C 0.63806 0.81487 0.13999 0.0
C3269 C 0.65293 0.81938 0.12561 0.0
C3270 C 0.66839 0.8416 0.11873 0.0
C3271 C 0.66906 0.85935 0.12625 0.0
C3272 C 0.65421 0.85492 0.14061 0.0
C3273 C 0.6445 0.83063 0.23688 0.0
C3274 C 0.66045 0.85367 0.23662 0.0
C3275 C 0.63111 0.82272 0.22288 0.0
C3276 C 0.63299 0.83778 0.20853 0.0
C3277 C 0.64839 0.86085 0.20854 0.0
C3278 C 0.66198 0.86869 0.22238 0.0
C3279 C 0.62 0.82969 0.19309 0.0
C3280 C 0.63334 0.83587 0.17759 0.0
C3281 C 0.59501 0.81552 0.19353 0.0
C3282 C 0.58002 0.80686 0.20959 0.0
C3283 C 0.57928 0.82159 0.22018 0.0
C3284 C 0.56612 0.81304 0.23576 0.0
C3285 C 0.55355 0.78982 0.24078 0.0
C3286 C 0.55385 0.77509 0.2302 0.0
C3287 C 0.56696 0.78353 0.21464 0.0
H3288 H 0.5438 0.78317 0.25297 0.0
H3289 H 0.67988 0.84506 0.10761 0.0
H3290 H 0.26611 0.79641 0.12837 0.0
H3291 H 0.26361 0.8094 0.15548 0.0
H3292 H 0.20502 0.81977 0.13829 0.0
H3293 H 0.20794 0.80717 0.11135 0.0
H3294 H 0.23138 0.85146 0.15652 0.0
H3295 H 0.19665 0.77079 0.16276 0.0
H3296 H 0.19672 0.73492 0.16149 0.0
H3297 H 0.25142 0.7523 0.19706 0.0
H3298 H 0.25192 0.78848 0.19833 0.0
H3299 H 0.15789 0.83265 0.22831 0.0
H3300 H 0.17407 0.82649 0.20308 0.0
H3301 H 0.23617 0.83385 0.22905 0.0
H3302 H 0.22044 0.84095 0.25443 0.0
H3303 H 0.21496 0.7964 0.20793 0.0
H3304 H 0.24471 0.87609 0.2037 0.0
H3305 H 0.24136 0.91042 0.20487 0.0
H3306 H 0.19252 0.89307 0.16522 0.0
H3307 H 0.19529 0.85843 0.164 0.0
C3308 C 0.25332 0.80221 0.13029 0.0
C3309 C 0.23733 0.80101 0.11783 0.0
C3310 C 0.25164 0.80935 0.14582 0.0
C3311 C 0.23381 0.81522 0.14914 0.0
C3312 C 0.21891 0.81535 0.13617 0.0
C3313 C 0.22061 0.80825 0.12074 0.0
C3314 C 0.22931 0.81975 0.16632 0.0
C3315 C 0.22781 0.83938 0.16772 0.0
C3316 C 0.22493 0.80423 0.18113 0.0
C3317 C 0.22454 0.78245 0.18048 0.0
C3318 C 0.20882 0.76704 0.17021 0.0
C3319 C 0.20874 0.74664 0.1695 0.0
C3320 C 0.22412 0.74136 0.17915 0.0
C3321 C 0.23956 0.75644 0.18956 0.0
C3322 C 0.23975 0.77689 0.19028 0.0
C3323 C 0.17509 0.83315 0.22875 0.0
C3324 C 0.18803 0.8378 0.24343 0.0
C3325 C 0.18425 0.82946 0.21427 0.0
C3326 C 0.20649 0.83002 0.21404 0.0
C3327 C 0.21899 0.83342 0.2289 0.0
C3328 C 0.2099 0.83739 0.24344 0.0
C3329 C 0.21673 0.82789 0.19797 0.0
C3330 C 0.21911 0.80869 0.19678 0.0
C3331 C 0.2216 0.84363 0.18328 0.0
C3332 C 0.22009 0.86458 0.18384 0.0
C3333 C 0.23312 0.8795 0.19531 0.0
C3334 C 0.23134 0.89903 0.19597 0.0
C3335 C 0.2167 0.9039 0.18515 0.0
C3336 C 0.20385 0.88927 0.17361 0.0
C3337 C 0.20554 0.8697 0.17291 0.0
H3338 H 0.21535 0.91903 0.18568 0.0
H3339 H 0.22403 0.72556 0.1786 0.0
H3340 H 0.25705 0.47774 0.11306 0.0
H3341 H 0.25095 0.44753 0.1357 0.0
H3342 H 0.27632 0.49532 0.17151 0.0
H3343 H 0.28244 0.5256 0.14869 0.0
H3344 H 0.28891 0.45534 0.17526 0.0
H3345 H 0.22215 0.4732 0.17563 0.0
H3346 H 0.19207 0.48137 0.16166 0.0
H3347 H 0.16737 0.42207 0.13726 0.0
H3348 H 0.19706 0.41338 0.15138 0.0
H3349 H 0.23054 0.38572 0.25235 0.0
H3350 H 0.24989 0.41477 0.22838 0.0
H3351 H 0.19839 0.37209 0.19588 0.0
H3352 H 0.17729 0.34413 0.22023 0.0
H3353 H 0.20169 0.40986 0.18941 0.0
H3354 H 0.26244 0.38725 0.19595 0.0
H3355 H 0.29124 0.37884 0.21157 0.0
H3356 H 0.32872 0.44675 0.22281 0.0
H3357 H 0.3 0.45552 0.20742 0.0
C3358 C 0.26226 0.48185 0.12563 0.0
C3359 C 0.2704 0.50384 0.12925 0.0
C3360 C 0.25868 0.46466 0.13854 0.0
C3361 C 0.26321 0.46927 0.15522 0.0
C3362 C 0.27299 0.49154 0.15866 0.0
C3363 C 0.27647 0.50875 0.14571 0.0
C3364 C 0.25404 0.4505 0.16924 0.0
C3365 C 0.26988 0.44536 0.17851 0.0
C3366 C 0.22927 0.43738 0.17319 0.0
C3367 C 0.21184 0.44276 0.16442 0.0
C3368 C 0.21032 0.46197 0.16724 0.0
C3369 C 0.19325 0.46659 0.15941 0.0
C3370 C 0.17785 0.45227 0.14855 0.0
C3371 C 0.17934 0.43317 0.14565 0.0
C3372 C 0.19617 0.42831 0.15364 0.0
C3373 C 0.22307 0.38262 0.24018 0.0
C3374 C 0.20197 0.36269 0.23844 0.0
C3375 C 0.23458 0.39909 0.22631 0.0
C3376 C 0.22588 0.39565 0.21015 0.0
C3377 C 0.20552 0.37525 0.20819 0.0
C3378 C 0.19357 0.35908 0.22217 0.0
C3379 C 0.23642 0.41401 0.19562 0.0
C3380 C 0.22076 0.41934 0.1862 0.0
C3381 C 0.2614 0.42713 0.19162 0.0
C3382 C 0.27896 0.422 0.20061 0.0
C3383 C 0.27677 0.40037 0.20181 0.0
C3384 C 0.29309 0.39554 0.21061 0.0
C3385 C 0.31178 0.41224 0.21819 0.0
C3386 C 0.31425 0.43383 0.21693 0.0
C3387 C 0.29797 0.43875 0.20814 0.0
H3388 H 0.32437 0.40845 0.22503 0.0
H3389 H 0.16478 0.45599 0.14238 0.0
H3390 H 0.80904 0.55118 0.93569 0.0
H3391 H 0.83506 0.57559 0.91092 0.0
H3392 H 0.78378 0.53337 0.87807 0.0
H3393 H 0.75856 0.50849 0.90288 0.0
H3394 H 0.8268 0.5484 0.86439 0.0
H3395 H 0.78395 0.58065 0.88934 0.0
H3396 H 0.77106 0.59436 0.91236 0.0
H3397 H 0.84374 0.64396 0.917 0.0
H3398 H 0.8571 0.63028 0.89417 0.0
H3399 H 0.8309 0.62624 0.79472 0.0
H3400 H 0.82115 0.59894 0.81997 0.0
H3401 H 0.88857 0.64164 0.8396 0.0
H3402 H 0.89933 0.66864 0.81385 0.0
H3403 H 0.84424 0.62788 0.86082 0.0
H3404 H 0.88554 0.59531 0.8334 0.0
H3405 H 0.89562 0.58067 0.80962 0.0
H3406 H 0.82172 0.53243 0.80765 0.0
H3407 H 0.81129 0.54646 0.83171 0.0
C3408 C 0.80382 0.54688 0.92316 0.0
C3409 C 0.78198 0.52807 0.92102 0.0
C3410 C 0.8185 0.56085 0.90904 0.0
C3411 C 0.81118 0.55651 0.89262 0.0
C3412 C 0.78985 0.53707 0.89058 0.0
C3413 C 0.7754 0.52296 0.90468 0.0
C3414 C 0.82438 0.57311 0.87759 0.0
C3415 C 0.83062 0.56577 0.86365 0.0
C3416 C 0.82956 0.59587 0.8766 0.0
C3417 C 0.82155 0.60427 0.8902 0.0
C3418 C 0.7972 0.59439 0.89535 0.0
C3419 C 0.7898 0.60215 0.90835 0.0
C3420 C 0.80658 0.61998 0.91617 0.0
C3421 C 0.83078 0.63012 0.91096 0.0
C3422 C 0.83827 0.62237 0.89799 0.0
C3423 C 0.84407 0.62967 0.8041 0.0
C3424 C 0.86593 0.64983 0.80218 0.0
C3425 C 0.83837 0.61402 0.81858 0.0
C3426 C 0.85418 0.61831 0.83157 0.0
C3427 C 0.87617 0.63809 0.82966 0.0
C3428 C 0.88213 0.6536 0.815 0.0
C3429 C 0.84649 0.60309 0.84773 0.0
C3430 C 0.84101 0.61066 0.8618 0.0
C3431 C 0.84155 0.5805 0.8487 0.0
C3432 C 0.84765 0.57198 0.83427 0.0
C3433 C 0.87145 0.58161 0.82786 0.0
C3434 C 0.87723 0.57335 0.81439 0.0
C3435 C 0.8593 0.55571 0.80706 0.0
C3436 C 0.83558 0.5461 0.81333 0.0
C3437 C 0.82975 0.55408 0.82697 0.0
H3438 H 0.8638 0.5495 0.79652 0.0
H3439 H 0.80083 0.62598 0.92624 0.0
H3440 H 0.3966 0.20762 0.93259 0.0
H3441 H 0.38083 0.19371 0.90591 0.0
H3442 H 0.45167 0.21021 0.88761 0.0
H3443 H 0.46719 0.22368 0.91465 0.0
H3444 H 0.3918 0.21884 0.87638 0.0
H3445 H 0.44627 0.17746 0.85592 0.0
H3446 H 0.46689 0.15739 0.86917 0.0
H3447 H 0.41834 0.13363 0.9131 0.0
H3448 H 0.39717 0.1532 0.89999 0.0
H3449 H 0.37401 0.20657 0.79034 0.0
H3450 H 0.39638 0.21457 0.81591 0.0
H3451 H 0.35319 0.1456 0.83822 0.0
H3452 H 0.33103 0.1374 0.81262 0.0
H3453 H 0.40072 0.16301 0.84688 0.0
H3454 H 0.33735 0.18286 0.84661 0.0
H3455 H 0.31534 0.20219 0.83465 0.0
H3456 H 0.37805 0.26616 0.83474 0.0
H3457 H 0.40053 0.24716 0.84649 0.0
C3458 C 0.40855 0.20759 0.923 0.0
C3459 C 0.43295 0.21649 0.92556 0.0
C3460 C 0.39965 0.19987 0.90774 0.0
C3461 C 0.41504 0.20101 0.89466 0.0
C3462 C 0.43937 0.20894 0.89753 0.0
C3463 C 0.44824 0.21654 0.91294 0.0
C3464 C 0.40574 0.19552 0.87773 0.0
C3465 C 0.39386 0.20666 0.86995 0.0
C3466 C 0.40834 0.17962 0.86928 0.0
C3467 C 0.42028 0.16699 0.87701 0.0
C3468 C 0.43988 0.16781 0.86835 0.0
C3469 C 0.45168 0.15654 0.87584 0.0
C3470 C 0.44395 0.14428 0.89197 0.0
C3471 C 0.42432 0.14316 0.90061 0.0
C3472 C 0.41243 0.15434 0.89315 0.0
C3473 C 0.36963 0.19299 0.80052 0.0
C3474 C 0.35049 0.17143 0.79953 0.0
C3475 C 0.38238 0.19759 0.81516 0.0
C3476 C 0.37629 0.18073 0.82908 0.0
C3477 C 0.35821 0.15888 0.82769 0.0
C3478 C 0.34538 0.15429 0.8131 0.0
C3479 C 0.38684 0.18635 0.84565 0.0
C3480 C 0.39892 0.1753 0.85331 0.0
C3481 C 0.3842 0.20214 0.85418 0.0
C3482 C 0.37067 0.21359 0.84725 0.0
C3483 C 0.34648 0.20104 0.84396 0.0
C3484 C 0.33392 0.21193 0.83724 0.0
C3485 C 0.34531 0.23539 0.83389 0.0
C3486 C 0.36927 0.24799 0.83731 0.0
C3487 C 0.38192 0.23718 0.844 0.0
H3488 H 0.33555 0.24379 0.82869 0.0
H3489 H 0.45317 0.13565 0.89779 0.0
H3490 H 0.81087 0.21664 0.93549 0.0
H3491 H 0.81428 0.2036 0.90882 0.0
H3492 H 0.75958 0.21835 0.88913 0.0
H3493 H 0.75602 0.23107 0.91616 0.0
H3494 H 0.75691 0.18006 0.87776 0.0
H3495 H 0.81657 0.25655 0.87899 0.0
H3496 H 0.849 0.28814 0.89101 0.0
H3497 H 0.89178 0.25497 0.89236 0.0
H3498 H 0.85958 0.22314 0.88036 0.0
H3499 H 0.79488 0.17662 0.79354 0.0
H3500 H 0.78369 0.1895 0.81775 0.0
H3501 H 0.83988 0.18524 0.8454 0.0
H3502 H 0.85174 0.17348 0.8212 0.0
H3503 H 0.83908 0.22133 0.85078 0.0
H3504 H 0.77809 0.14371 0.85081 0.0
H3505 H 0.74555 0.11236 0.83865 0.0
H3506 H 0.70483 0.14764 0.83492 0.0
H3507 H 0.7373 0.17937 0.84681 0.0
C3508 C 0.79906 0.21633 0.92563 0.0
C3509 C 0.78304 0.22457 0.92783 0.0
C3510 C 0.80115 0.20914 0.91034 0.0
C3511 C 0.78754 0.21041 0.89678 0.0
C3512 C 0.77033 0.21726 0.89935 0.0
C3513 C 0.76817 0.22438 0.91478 0.0
C3514 C 0.7928 0.20625 0.87971 0.0
C3515 C 0.77478 0.18929 0.87172 0.0
C3516 C 0.81613 0.21822 0.87178 0.0
C3517 C 0.83561 0.23741 0.87888 0.0
C3518 C 0.83286 0.25595 0.88192 0.0
C3519 C 0.85121 0.27391 0.88869 0.0
C3520 C 0.87239 0.27352 0.89251 0.0
C3521 C 0.87534 0.25523 0.88943 0.0
C3522 C 0.85708 0.23726 0.88258 0.0
C3523 C 0.80505 0.17874 0.80469 0.0
C3524 C 0.82403 0.17366 0.80544 0.0
C3525 C 0.79845 0.18587 0.81863 0.0
C3526 C 0.8106 0.18795 0.83364 0.0
C3527 C 0.83004 0.18365 0.83411 0.0
C3528 C 0.83669 0.1767 0.82023 0.0
C3529 C 0.80342 0.19452 0.84901 0.0
C3530 C 0.82112 0.21213 0.85669 0.0
C3531 C 0.7798 0.18314 0.85657 0.0
C3532 C 0.76025 0.16403 0.84949 0.0
C3533 C 0.76228 0.14486 0.84726 0.0
C3534 C 0.74384 0.12702 0.84043 0.0
C3535 C 0.72317 0.12805 0.83595 0.0
C3536 C 0.72087 0.1469 0.83834 0.0
C3537 C 0.73929 0.16481 0.84512 0.0
H3538 H 0.70891 0.11422 0.83066 0.0
H3539 H 0.88654 0.28741 0.89781 0.0
H3540 H 0.26945 0.12563 0.44667 0.0
H3541 H 0.28482 0.14199 0.47262 0.0
H3542 H 0.21766 0.13975 0.48422 0.0
H3543 H 0.20244 0.12354 0.45786 0.0
H3544 H 0.25741 0.17806 0.49374 0.0
H3545 H 0.22562 0.09853 0.50266 0.0
H3546 H 0.21946 0.06189 0.49596 0.0
H3547 H 0.29422 0.0835 0.49979 0.0
H3548 H 0.3009 0.12039 0.50633 0.0
H3549 H 0.29747 0.19215 0.57907 0.0
H3550 H 0.27229 0.17787 0.55537 0.0
H3551 H 0.32716 0.16818 0.53238 0.0
H3552 H 0.35178 0.18147 0.55611 0.0
H3553 H 0.28518 0.13281 0.53129 0.0
H3554 H 0.31662 0.21395 0.52058 0.0
H3555 H 0.32179 0.25059 0.52645 0.0
H3556 H 0.24609 0.22571 0.52578 0.0
H3557 H 0.24038 0.18869 0.52045 0.0
C3558 C 0.25823 0.12908 0.45465 0.0
C3559 C 0.23481 0.12323 0.45053 0.0
C3560 C 0.26691 0.13832 0.46945 0.0
C3561 C 0.25219 0.14158 0.48057 0.0
C3562 C 0.22924 0.13719 0.47589 0.0
C3563 C 0.22057 0.128 0.46091 0.0
C3564 C 0.26043 0.14779 0.49753 0.0
C3565 C 0.2631 0.16802 0.50215 0.0
C3566 C 0.26776 0.13462 0.5085 0.0
C3567 C 0.26377 0.11228 0.50491 0.0
C3568 C 0.24077 0.09551 0.50201 0.0
C3569 C 0.23718 0.07469 0.49825 0.0
C3570 C 0.25644 0.07039 0.49742 0.0
C3571 C 0.27932 0.08686 0.50043 0.0
C3572 C 0.28301 0.10772 0.5042 0.0
C3573 C 0.30403 0.18676 0.56903 0.0
C3574 C 0.32677 0.18816 0.56945 0.0
C3575 C 0.28972 0.17882 0.5554 0.0
C3576 C 0.29792 0.17219 0.54195 0.0
C3577 C 0.32043 0.17327 0.54254 0.0
C3578 C 0.33462 0.18108 0.55609 0.0
C3579 C 0.28333 0.16371 0.52725 0.0
C3580 C 0.27923 0.14281 0.52308 0.0
C3581 C 0.27456 0.17624 0.51685 0.0
C3582 C 0.27804 0.1984 0.52042 0.0
C3583 C 0.30104 0.21616 0.52196 0.0
C3584 C 0.30406 0.23701 0.52518 0.0
C3585 C 0.28426 0.24042 0.52664 0.0
C3586 C 0.26139 0.22299 0.52484 0.0
C3587 C 0.25825 0.20206 0.52175 0.0
H3588 H 0.28664 0.25659 0.52908 0.0
H3589 H 0.25363 0.05428 0.49446 0.0
H3590 H 0.87444 0.13744 0.44494 0.0
H3591 H 0.8714 0.15055 0.47153 0.0
H3592 H 0.93594 0.14955 0.48654 0.0
H3593 H 0.93837 0.13557 0.45985 0.0
H3594 H 0.9035 0.13024 0.512 0.0
H3595 H 0.93384 0.19983 0.4769 0.0
H3596 H 0.93772 0.22653 0.45186 0.0
H3597 H 0.86668 0.21504 0.46299 0.0
H3598 H 0.8622 0.18798 0.48795 0.0
H3599 H 0.89023 0.17912 0.5857 0.0
H3600 H 0.90654 0.17273 0.56026 0.0
H3601 H 0.84206 0.15991 0.53538 0.0
H3602 H 0.82547 0.16553 0.56067 0.0
H3603 H 0.88311 0.19121 0.51587 0.0
H3604 H 0.85332 0.11811 0.55008 0.0
H3605 H 0.85184 0.09257 0.57523 0.0
H3606 H 0.92618 0.11337 0.56585 0.0
H3607 H 0.92824 0.13945 0.54092 0.0
C3608 C 0.88822 0.1405 0.45379 0.0
C3609 C 0.90666 0.13561 0.45038 0.0
C3610 C 0.88656 0.14805 0.469 0.0
C3611 C 0.90354 0.15129 0.48114 0.0
C3612 C 0.9226 0.14723 0.47744 0.0
C3613 C 0.92419 0.13953 0.46214 0.0
C3614 C 0.90022 0.15755 0.49794 0.0
C3615 C 0.89958 0.14392 0.51285 0.0
C3616 C 0.89502 0.17534 0.49921 0.0
C3617 C 0.89765 0.19176 0.48428 0.0
C3618 C 0.91898 0.20288 0.47396 0.0
C3619 C 0.92129 0.21809 0.45978 0.0
C3620 C 0.90245 0.22246 0.45583 0.0
C3621 C 0.88127 0.21164 0.46607 0.0
C3622 C 0.87884 0.19639 0.48025 0.0
C3623 C 0.87936 0.17456 0.57492 0.0
C3624 C 0.85661 0.17319 0.57525 0.0
C3625 C 0.88878 0.17104 0.56033 0.0
C3626 C 0.87564 0.16606 0.54579 0.0
C3627 C 0.85271 0.16403 0.54631 0.0
C3628 C 0.84327 0.16735 0.56083 0.0
C3629 C 0.88557 0.16344 0.52976 0.0
C3630 C 0.88746 0.17781 0.51501 0.0
C3631 C 0.89232 0.14662 0.52871 0.0
C3632 C 0.89102 0.13098 0.54377 0.0
C3633 C 0.86943 0.11745 0.55351 0.0
C3634 C 0.86848 0.10286 0.56773 0.0
C3635 C 0.88894 0.10145 0.57222 0.0
C3636 C 0.91038 0.11458 0.56246 0.0
C3637 C 0.91145 0.12928 0.54829 0.0
H3638 H 0.88816 0.09011 0.58321 0.0
H3639 H 0.90427 0.23424 0.44484 0.0
H3640 H 0.94074 0.8473 0.47545 0.0
H3641 H 0.93245 0.81897 0.50016 0.0
H3642 H 0.9011 0.76652 0.46816 0.0
H3643 H 0.90767 0.79485 0.44399 0.0
H3644 H 0.87213 0.75651 0.49242 0.0
H3645 H 0.95535 0.78022 0.48978 0.0
H3646 H 0.99856 0.80658 0.48797 0.0
H3647 H 0.99154 0.82773 0.53523 0.0
H3648 H 0.94821 0.80175 0.53721 0.0
H3649 H 0.84814 0.67026 0.56089 0.0
H3650 H 0.86911 0.69639 0.53538 0.0
H3651 H 0.8824 0.75242 0.5617 0.0
H3652 H 0.86064 0.72656 0.587 0.0
H3653 H 0.92296 0.75819 0.53996 0.0
H3654 H 0.83829 0.7366 0.53938 0.0
H3655 H 0.79552 0.70874 0.54082 0.0
H3656 H 0.80742 0.68173 0.49812 0.0
H3657 H 0.85035 0.70925 0.49659 0.0
C3658 C 0.93277 0.82972 0.47378 0.0
C3659 C 0.92546 0.82311 0.4579 0.0
C3660 C 0.9281 0.81353 0.48782 0.0
C3661 C 0.9164 0.7905 0.48606 0.0
C3662 C 0.91023 0.78411 0.46989 0.0
C3663 C 0.91433 0.80026 0.45602 0.0
C3664 C 0.90775 0.77307 0.5012 0.0
C3665 C 0.88354 0.75667 0.50257 0.0
C3666 C 0.92234 0.7734 0.51473 0.0
C3667 C 0.94844 0.78912 0.51358 0.0
C3668 C 0.96297 0.79062 0.49973 0.0
C3669 C 0.98751 0.80548 0.49868 0.0
C3670 C 0.99779 0.81885 0.51146 0.0
C3671 C 0.98355 0.81737 0.52533 0.0
C3672 C 0.959 0.80255 0.52643 0.0
C3673 C 0.8554 0.68812 0.56126 0.0
C3674 C 0.85252 0.69623 0.57603 0.0
C3675 C 0.86763 0.70302 0.54674 0.0
C3676 C 0.87736 0.72629 0.54673 0.0
C3677 C 0.87527 0.73451 0.56155 0.0
C3678 C 0.8628 0.71965 0.57601 0.0
C3679 C 0.88768 0.74195 0.53088 0.0
C3680 C 0.91197 0.758 0.52952 0.0
C3681 C 0.87337 0.74115 0.51718 0.0
C3682 C 0.84754 0.72479 0.51799 0.0
C3683 C 0.83181 0.7246 0.53039 0.0
C3684 C 0.80754 0.70889 0.53121 0.0
C3685 C 0.79877 0.69343 0.5196 0.0
C3686 C 0.81424 0.69369 0.50712 0.0
C3687 C 0.83854 0.70934 0.50627 0.0
H3688 H 0.77998 0.68128 0.52025 0.0
H3689 H 0.01679 0.83033 0.51065 0.0
loop_
_geom_bond_atom_site_label_1
_geom_bond_atom_site_label_2
_geom_bond_distance
_geom_bond_site_symmetry_2
_ccdc_geom_bond_type
C0 N1 1.317 . S
C0 N2 1.348 . S
C0 C3 1.485 . S
N1 C0 1.317 . S
N1 N5 1.370 . S
N2 C0 1.348 . S
N2 C4 1.346 . S
C3 C0 1.485 . S
C3 H7 0.960 . S
C3 H8 0.961 . S
C3 H9 0.960 . S
C4 N2 1.346 . S
C4 N5 1.307 . S
C4 C6 1.486 . S
N5 N1 1.370 . S
N5 C4 1.307 . S
C6 C4 1.486 . S
C6 H10 0.960 . S
C6 H11 0.960 . S
C6 H12 0.959 . S
H7 C3 0.960 . S
H8 C3 0.961 . S
H9 C3 0.960 . S
H10 C6 0.960 . S
H11 C6 0.960 . S
H12 C6 0.959 . S
C13 N14 1.317 . S
C13 N15 1.348 . S
C13 C16 1.485 . S
N14 C13 1.317 . S
N14 N18 1.370 . S
N15 C13 1.348 . S
N15 C17 1.346 . S
C16 C13 1.485 . S
C16 H20 0.960 . S
C16 H21 0.961 . S
C16 H22 0.960 . S
C17 N15 1.346 . S
C17 N18 1.307 . S
C17 C19 1.486 . S
N18 N14 1.370 . S
N18 C17 1.307 . S
C19 C17 1.486 . S
C19 H23 0.960 . S
C19 H24 0.960 . S
C19 H25 0.959 . S
H20 C16 0.960 . S
H21 C16 0.961 . S
H22 C16 0.960 . S
H23 C19 0.960 . S
H24 C19 0.960 . S
H25 C19 0.959 . S
C26 N27 1.317 . S
C26 N28 1.348 . S
C26 C29 1.485 . S
N27 C26 1.317 . S
N27 N31 1.370 . S
N28 C26 1.348 . S
N28 C30 1.346 . S
C29 C26 1.485 . S
C29 H33 0.960 . S
C29 H34 0.961 . S
C29 H35 0.960 . S
C30 N28 1.346 . S
C30 N31 1.307 . S
C30 C32 1.486 . S
N31 N27 1.370 . S
N31 C30 1.307 . S
C32 C30 1.486 . S
C32 H36 0.960 . S
C32 H37 0.960 . S
C32 H38 0.959 . S
H33 C29 0.960 . S
H34 C29 0.961 . S
H35 C29 0.960 . S
H36 C32 0.960 . S
H37 C32 0.960 . S
H38 C32 0.959 . S
C39 N40 1.317 . S
C39 N41 1.348 . S
C39 C42 1.485 . S
N40 C39 1.317 . S
N40 N44 1.370 . S
N41 C39 1.348 . S
N41 C43 1.346 . S
C42 C39 1.485 . S
C42 H46 0.960 . S
C42 H47 0.961 . S
C42 H48 0.960 . S
C43 N41 1.346 . S
C43 N44 1.307 . S
C43 C45 1.486 . S
N44 N40 1.370 . S
N44 C43 1.307 . S
C45 C43 1.486 . S
C45 H49 0.960 . S
C45 H50 0.960 . S
C45 H51 0.959 . S
H46 C42 0.960 . S
H47 C42 0.961 . S
H48 C42 0.960 . S
H49 C45 0.960 . S
H50 C45 0.960 . S
H51 C45 0.959 . S
C52 N53 1.317 . S
C52 N54 1.348 . S
C52 C55 1.485 . S
N53 C52 1.317 . S
N53 N57 1.370 . S
N54 C52 1.348 . S
N54 C56 1.346 . S
C55 C52 1.485 . S
C55 H59 0.960 . S
C55 H60 0.961 . S
C55 H61 0.960 . S
C56 N54 1.346 . S
C56 N57 1.307 . S
C56 C58 1.486 . S
N57 N53 1.370 . S
N57 C56 1.307 . S
C58 C56 1.486 . S
C58 H62 0.960 . S
C58 H63 0.960 . S
C58 H64 0.959 . S
H59 C55 0.960 . S
H60 C55 0.961 . S
H61 C55 0.960 . S
H62 C58 0.960 . S
H63 C58 0.960 . S
H64 C58 0.959 . S
C65 N66 1.317 . S
C65 N67 1.348 . S
C65 C68 1.485 . S
N66 C65 1.317 . S
N66 N70 1.370 . S
N67 C65 1.348 . S
N67 C69 1.346 . S
C68 C65 1.485 . S
C68 H72 0.960 . S
C68 H73 0.961 . S
C68 H74 0.960 . S
C69 N67 1.346 . S
C69 N70 1.307 . S
C69 C71 1.486 . S
N70 N66 1.370 . S
N70 C69 1.307 . S
C71 C69 1.486 . S
C71 H75 0.960 . S
C71 H76 0.960 . S
C71 H77 0.959 . S
H72 C68 0.960 . S
H73 C68 0.961 . S
H74 C68 0.960 . S
H75 C71 0.960 . S
H76 C71 0.960 . S
H77 C71 0.959 . S
C78 N79 1.317 . S
C78 N80 1.348 . S
C78 C81 1.485 . S
N79 C78 1.317 . S
N79 N83 1.370 . S
N80 C78 1.348 . S
N80 C82 1.346 . S
C81 C78 1.485 . S
C81 H85 0.960 . S
C81 H86 0.961 . S
C81 H87 0.960 . S
C82 N80 1.346 . S
C82 N83 1.307 . S
C82 C84 1.486 . S
N83 N79 1.370 . S
N83 C82 1.307 . S
C84 C82 1.486 . S
C84 H88 0.960 . S
C84 H89 0.960 . S
C84 H90 0.959 . S
H85 C81 0.960 . S
H86 C81 0.961 . S
H87 C81 0.960 . S
H88 C84 0.960 . S
H89 C84 0.960 . S
H90 C84 0.959 . S
C91 N92 1.317 . S
C91 N93 1.348 . S
C91 C94 1.485 . S
N92 C91 1.317 . S
N92 N96 1.370 . S
N93 C91 1.348 . S
N93 C95 1.346 . S
C94 C91 1.485 . S
C94 H98 0.960 . S
C94 H99 0.961 . S
C94 H100 0.960 . S
C95 N93 1.346 . S
C95 N96 1.307 . S
C95 C97 1.486 . S
N96 N92 1.370 . S
N96 C95 1.307 . S
C97 C95 1.486 . S
C97 H101 0.960 . S
C97 H102 0.960 . S
C97 H103 0.959 . S
H98 C94 0.960 . S
H99 C94 0.961 . S
H100 C94 0.960 . S
H101 C97 0.960 . S
H102 C97 0.960 . S
H103 C97 0.959 . S
C104 N105 1.317 . S
C104 N106 1.348 . S
C104 C107 1.485 . S
N105 C104 1.317 . S
N105 N109 1.370 . S
N106 C104 1.348 . S
N106 C108 1.346 . S
C107 C104 1.485 . S
C107 H111 0.960 . S
C107 H112 0.961 . S
C107 H113 0.960 . S
C108 N106 1.346 . S
C108 N109 1.307 . S
C108 C110 1.486 . S
N109 N105 1.370 . S
N109 C108 1.307 . S
C110 C108 1.486 . S
C110 H114 0.960 . S
C110 H115 0.960 . S
C110 H116 0.959 . S
H111 C107 0.960 . S
H112 C107 0.961 . S
H113 C107 0.960 . S
H114 C110 0.960 . S
H115 C110 0.960 . S
H116 C110 0.959 . S
C117 N118 1.317 . S
C117 N119 1.348 . S
C117 C120 1.485 . S
N118 C117 1.317 . S
N118 N122 1.370 . S
N119 C117 1.348 . S
N119 C121 1.346 . S
C120 C117 1.485 . S
C120 H124 0.960 . S
C120 H125 0.961 . S
C120 H126 0.960 . S
C121 N119 1.346 . S
C121 N122 1.307 . S
C121 C123 1.486 . S
N122 N118 1.370 . S
N122 C121 1.307 . S
C123 C121 1.486 . S
C123 H127 0.960 . S
C123 H128 0.960 . S
C123 H129 0.959 . S
H124 C120 0.960 . S
H125 C120 0.961 . S
H126 C120 0.960 . S
H127 C123 0.960 . S
H128 C123 0.960 . S
H129 C123 0.959 . S
C130 N131 1.317 . S
C130 N132 1.348 . S
C130 C133 1.485 . S
N131 C130 1.317 . S
N131 N135 1.370 . S
N132 C130 1.348 . S
N132 C134 1.346 . S
C133 C130 1.485 . S
C133 H137 0.960 . S
C133 H138 0.961 . S
C133 H139 0.960 . S
C134 N132 1.346 . S
C134 N135 1.307 . S
C134 C136 1.486 . S
N135 N131 1.370 . S
N135 C134 1.307 . S
C136 C134 1.486 . S
C136 H140 0.960 . S
C136 H141 0.960 . S
C136 H142 0.959 . S
H137 C133 0.960 . S
H138 C133 0.961 . S
H139 C133 0.960 . S
H140 C136 0.960 . S
H141 C136 0.960 . S
H142 C136 0.959 . S
C143 N144 1.317 . S
C143 N145 1.348 . S
C143 C146 1.485 . S
N144 C143 1.317 . S
N144 N148 1.370 . S
N145 C143 1.348 . S
N145 C147 1.346 . S
C146 C143 1.485 . S
C146 H150 0.960 . S
C146 H151 0.961 . S
C146 H152 0.960 . S
C147 N145 1.346 . S
C147 N148 1.307 . S
C147 C149 1.486 . S
N148 N144 1.370 . S
N148 C147 1.307 . S
C149 C147 1.486 . S
C149 H153 0.960 . S
C149 H154 0.960 . S
C149 H155 0.959 . S
H150 C146 0.960 . S
H151 C146 0.961 . S
H152 C146 0.960 . S
H153 C149 0.960 . S
H154 C149 0.960 . S
H155 C149 0.959 . S
C156 N157 1.317 . S
C156 N158 1.348 . S
C156 C159 1.485 . S
N157 C156 1.317 . S
N157 N161 1.370 . S
N158 C156 1.348 . S
N158 C160 1.346 . S
C159 C156 1.485 . S
C159 H163 0.960 . S
C159 H164 0.961 . S
C159 H165 0.960 . S
C160 N158 1.346 . S
C160 N161 1.307 . S
C160 C162 1.486 . S
N161 N157 1.370 . S
N161 C160 1.307 . S
C162 C160 1.486 . S
C162 H166 0.960 . S
C162 H167 0.960 . S
C162 H168 0.959 . S
H163 C159 0.960 . S
H164 C159 0.961 . S
H165 C159 0.960 . S
H166 C162 0.960 . S
H167 C162 0.960 . S
H168 C162 0.959 . S
C169 N170 1.317 . S
C169 N171 1.348 . S
C169 C172 1.485 . S
N170 C169 1.317 . S
N170 N174 1.370 . S
N171 C169 1.348 . S
N171 C173 1.346 . S
C172 C169 1.485 . S
C172 H176 0.960 . S
C172 H177 0.961 . S
C172 H178 0.960 . S
C173 N171 1.346 . S
C173 N174 1.307 . S
C173 C175 1.486 . S
N174 N170 1.370 . S
N174 C173 1.307 . S
C175 C173 1.486 . S
C175 H179 0.960 . S
C175 H180 0.960 . S
C175 H181 0.959 . S
H176 C172 0.960 . S
H177 C172 0.961 . S
H178 C172 0.960 . S
H179 C175 0.960 . S
H180 C175 0.960 . S
H181 C175 0.959 . S
C182 N183 1.317 . S
C182 N184 1.348 . S
C182 C185 1.485 . S
N183 C182 1.317 . S
N183 N187 1.370 . S
N184 C182 1.348 . S
N184 C186 1.346 . S
C185 C182 1.485 . S
C185 H189 0.960 . S
C185 H190 0.961 . S
C185 H191 0.960 . S
C186 N184 1.346 . S
C186 N187 1.307 . S
C186 C188 1.486 . S
N187 N183 1.370 . S
N187 C186 1.307 . S
C188 C186 1.486 . S
C188 H192 0.960 . S
C188 H193 0.960 . S
C188 H194 0.959 . S
H189 C185 0.960 . S
H190 C185 0.961 . S
H191 C185 0.960 . S
H192 C188 0.960 . S
H193 C188 0.960 . S
H194 C188 0.959 . S
C195 N196 1.317 . S
C195 N197 1.348 . S
C195 C198 1.485 . S
N196 C195 1.317 . S
N196 N200 1.370 . S
N197 C195 1.348 . S
N197 C199 1.346 . S
C198 C195 1.485 . S
C198 H202 0.960 . S
C198 H203 0.961 . S
C198 H204 0.960 . S
C199 N197 1.346 . S
C199 N200 1.307 . S
C199 C201 1.486 . S
N200 N196 1.370 . S
N200 C199 1.307 . S
C201 C199 1.486 . S
C201 H205 0.960 . S
C201 H206 0.960 . S
C201 H207 0.959 . S
H202 C198 0.960 . S
H203 C198 0.961 . S
H204 C198 0.960 . S
H205 C201 0.960 . S
H206 C201 0.960 . S
H207 C201 0.959 . S
C208 N209 1.317 . S
C208 N210 1.348 . S
C208 C211 1.485 . S
N209 C208 1.317 . S
N209 N213 1.370 . S
N210 C208 1.348 . S
N210 C212 1.346 . S
C211 C208 1.485 . S
C211 H215 0.960 . S
C211 H216 0.961 . S
C211 H217 0.960 . S
C212 N210 1.346 . S
C212 N213 1.307 . S
C212 C214 1.486 . S
N213 N209 1.370 . S
N213 C212 1.307 . S
C214 C212 1.486 . S
C214 H218 0.960 . S
C214 H219 0.960 . S
C214 H220 0.959 . S
H215 C211 0.960 . S
H216 C211 0.961 . S
H217 C211 0.960 . S
H218 C214 0.960 . S
H219 C214 0.960 . S
H220 C214 0.959 . S
C221 N222 1.317 . S
C221 N223 1.348 . S
C221 C224 1.485 . S
N222 C221 1.317 . S
N222 N226 1.370 . S
N223 C221 1.348 . S
N223 C225 1.346 . S
C224 C221 1.485 . S
C224 H228 0.960 . S
C224 H229 0.961 . S
C224 H230 0.960 . S
C225 N223 1.346 . S
C225 N226 1.307 . S
C225 C227 1.486 . S
N226 N222 1.370 . S
N226 C225 1.307 . S
C227 C225 1.486 . S
C227 H231 0.960 . S
C227 H232 0.960 . S
C227 H233 0.959 . S
H228 C224 0.960 . S
H229 C224 0.961 . S
H230 C224 0.960 . S
H231 C227 0.960 . S
H232 C227 0.960 . S
H233 C227 0.959 . S
Gd234 N265 2.661 . S
Gd234 N271 2.601 . S
Gd234 O278 2.545 . S
Gd234 O279 2.606 1_545 S
Gd234 O281 2.429 . S
Gd234 O282 2.545 1_545 S
Gd234 O283 2.412 1_545 S
Gd234 O285 2.362 . S
Gd234 O286 2.324 1_545 S
Gd234 C293 2.828 1_545 S
Gd235 N244 2.661 . S
Gd235 N248 2.601 . S
Gd235 O279 2.362 1_556 S
Gd235 O280 2.324 1_565 S
Gd235 O284 2.545 . S
Gd235 O285 2.606 1_566 S
Gd235 O287 2.429 1_556 S
Gd235 O288 2.545 1_565 S
Gd235 O289 2.412 1_565 S
Gd235 C302 2.828 1_565 S
C236 C239 1.417 . S
C236 C241 1.431 . S
C236 C242 1.412 . S
C237 C240 1.437 . S
C237 C241 1.317 . S
C237 H256 0.929 . S
C238 C239 1.426 . S
C238 C240 1.413 . S
C238 N248 1.359 . S
C239 C236 1.417 . S
C239 C238 1.426 . S
C239 N244 1.350 . S
C240 C237 1.437 . S
C240 C238 1.413 . S
C240 C250 1.391 . S
C241 C236 1.431 . S
C241 C237 1.317 . S
C241 H252 0.930 . S
C242 C236 1.412 . S
C242 C243 1.355 . S
C242 H254 0.930 . S
C243 C242 1.355 . S
C243 C245 1.402 . S
C243 H255 0.930 . S
N244 Gd235 2.661 . S
N244 C239 1.350 . S
N244 C245 1.307 . S
C245 C243 1.402 . S
C245 N244 1.307 . S
C245 H246 0.930 1_565 S
H246 C245 0.930 1_545 S
C247 N248 1.334 . S
C247 C249 1.394 . S
C247 H251 0.930 . S
N248 Gd235 2.601 . S
N248 C238 1.359 . S
N248 C247 1.334 . S
C249 C247 1.394 . S
C249 C250 1.359 . S
C249 H261 0.930 . S
C250 C240 1.391 . S
C250 C249 1.359 . S
C250 H262 0.929 . S
H251 C247 0.930 . S
H252 C241 0.930 . S
H253 C270 0.930 . S
H254 C242 0.930 . S
H255 C243 0.930 . S
H256 C237 0.929 . S
H257 C275 0.930 . S
H258 C266 0.930 . S
H259 C267 0.930 . S
H260 C291 0.929 . S
H261 C249 0.930 . S
H262 C250 0.929 . S
H263 C292 0.930 . S
H264 C273 0.930 . S
N265 Gd234 2.661 . S
N265 C269 1.350 . S
N265 C270 1.307 . S
C266 H258 0.930 . S
C266 C267 1.355 . S
C266 C268 1.412 . S
C267 H259 0.930 . S
C267 C266 1.355 . S
C267 C270 1.402 . S
C268 C266 1.412 . S
C268 C269 1.417 . S
C268 C292 1.431 . S
C269 N265 1.350 . S
C269 C268 1.417 . S
C269 C272 1.426 . S
C270 H253 0.930 . S
C270 N265 1.307 . S
C270 C267 1.402 . S
N271 Gd234 2.601 . S
N271 C272 1.359 . S
N271 C275 1.334 . S
C272 C269 1.426 . S
C272 N271 1.359 . S
C272 C276 1.413 . S
C273 H264 0.930 . S
C273 C274 1.359 . S
C273 C275 1.394 . S
C274 C273 1.359 . S
C274 C276 1.391 . S
C274 H277 0.929 . S
C275 H257 0.930 . S
C275 N271 1.334 . S
C275 C273 1.394 . S
C276 C272 1.413 . S
C276 C274 1.391 . S
C276 C291 1.437 . S
H277 C274 0.929 . S
O278 Gd234 2.545 . S
O278 C293 1.258 1_545 S
O279 Gd234 2.606 1_565 S
O279 Gd235 2.362 1_554 S
O279 C290 1.284 . S
O280 Gd235 2.324 1_545 S
O280 C300 1.254 1_556 S
O281 Gd234 2.429 . S
O281 C300 1.268 . S
O282 Gd234 2.545 1_565 S
O282 C290 1.250 . S
O283 Gd234 2.412 1_565 S
O283 C293 1.252 . S
O284 Gd235 2.545 . S
O284 C302 1.258 1_565 S
O285 Gd234 2.362 . S
O285 Gd235 2.606 1_544 S
O285 C301 1.284 . S
O286 Gd234 2.324 1_565 S
O286 C309 1.254 . S
O287 Gd235 2.429 1_554 S
O287 C309 1.268 . S
O288 Gd235 2.545 1_545 S
O288 C301 1.250 1_556 S
O289 Gd235 2.412 1_545 S
O289 C302 1.252 . S
C290 O279 1.284 . S
C290 O282 1.250 . S
C291 H260 0.929 . S
C291 C276 1.437 . S
C291 C292 1.317 . S
C292 H263 0.930 . S
C292 C268 1.431 . S
C292 C291 1.317 . S
C293 Gd234 2.828 1_565 S
C293 O278 1.258 1_565 S
C293 O283 1.252 . S
C293 C294 1.497 . S
C294 C293 1.497 . S
C294 C295 1.395 . S
C294 C296 1.380 . S
C295 C294 1.395 . S
C295 C298 1.398 . S
C295 H310 0.930 1_565 S
C296 C294 1.380 . S
C296 C297 1.391 . S
C296 H311 0.930 . S
C297 C296 1.391 . S
C297 C299 1.387 . S
C298 C295 1.398 . S
C298 C299 1.380 . S
C298 H312 0.930 . S
C299 C297 1.387 . S
C299 C298 1.380 . S
C299 H313 0.930 . S
C300 O280 1.254 1_554 S
C300 O281 1.268 . S
C301 O285 1.284 . S
C301 O288 1.250 1_554 S
C302 Gd235 2.828 1_545 S
C302 O284 1.258 1_545 S
C302 O289 1.252 . S
C302 C303 1.497 . S
C303 C302 1.497 . S
C303 C304 1.395 . S
C303 C305 1.380 . S
C304 C303 1.395 . S
C304 C307 1.398 . S
C304 H314 0.930 1_545 S
C305 C303 1.380 . S
C305 C306 1.391 . S
C305 H315 0.930 . S
C306 C305 1.391 . S
C306 C308 1.387 . S
C307 C304 1.398 . S
C307 C308 1.380 . S
C307 H316 0.930 . S
C308 C306 1.387 . S
C308 C307 1.380 . S
C308 H317 0.930 . S
C309 O286 1.254 . S
C309 O287 1.268 . S
H310 C295 0.930 1_545 S
H311 C296 0.930 . S
H312 C298 0.930 . S
H313 C299 0.930 . S
H314 C304 0.930 1_565 S
H315 C305 0.930 . S
H316 C307 0.930 . S
H317 C308 0.930 . S
Gd318 N349 2.661 . S
Gd318 N355 2.601 . S
Gd318 O362 2.545 . S
Gd318 O363 2.606 1_655 S
Gd318 O365 2.429 . S
Gd318 O366 2.545 1_655 S
Gd318 O367 2.412 1_655 S
Gd318 O369 2.362 . S
Gd318 O370 2.324 1_655 S
Gd318 C377 2.828 . S
Gd319 N328 2.661 . S
Gd319 N332 2.601 . S
Gd319 O363 2.362 1_556 S
Gd319 O364 2.324 1_455 S
Gd319 O368 2.545 . S
Gd319 O369 2.606 1_456 S
Gd319 O371 2.429 . S
Gd319 O372 2.545 1_455 S
Gd319 O373 2.412 . S
Gd319 C386 2.828 . S
C320 C323 1.417 . S
C320 C325 1.431 . S
C320 C326 1.412 . S
C321 C324 1.437 . S
C321 C325 1.317 . S
C321 H340 0.929 . S
C322 C323 1.426 . S
C322 C324 1.413 . S
C322 N332 1.359 . S
C323 C320 1.417 . S
C323 C322 1.426 . S
C323 N328 1.350 . S
C324 C321 1.437 . S
C324 C322 1.413 . S
C324 C334 1.391 . S
C325 C320 1.431 . S
C325 C321 1.317 . S
C325 H336 0.930 . S
C326 C320 1.412 . S
C326 C327 1.355 . S
C326 H338 0.930 . S
C327 C326 1.355 . S
C327 C329 1.402 . S
C327 H339 0.930 . S
N328 Gd319 2.661 . S
N328 C323 1.350 . S
N328 C329 1.307 . S
C329 C327 1.402 . S
C329 N328 1.307 . S
C329 H330 0.930 . S
H330 C329 0.930 . S
C331 N332 1.334 . S
C331 C333 1.394 . S
C331 H335 0.930 . S
N332 Gd319 2.601 . S
N332 C322 1.359 . S
N332 C331 1.334 . S
C333 C331 1.394 . S
C333 C334 1.359 . S
C333 H345 0.930 . S
C334 C324 1.391 . S
C334 C333 1.359 . S
C334 H346 0.929 . S
H335 C331 0.930 . S
H336 C325 0.930 . S
H337 C354 0.930 . S
H338 C326 0.930 . S
H339 C327 0.930 . S
H340 C321 0.929 . S
H341 C359 0.930 . S
H342 C350 0.930 . S
H343 C351 0.930 . S
H344 C375 0.929 . S
H345 C333 0.930 . S
H346 C334 0.929 . S
H347 C376 0.930 . S
H348 C357 0.930 . S
N349 Gd318 2.661 . S
N349 C353 1.350 . S
N349 C354 1.307 . S
C350 H342 0.930 . S
C350 C351 1.355 . S
C350 C352 1.412 . S
C351 H343 0.930 . S
C351 C350 1.355 . S
C351 C354 1.402 . S
C352 C350 1.412 . S
C352 C353 1.417 . S
C352 C376 1.431 . S
C353 N349 1.350 . S
C353 C352 1.417 . S
C353 C356 1.426 . S
C354 H337 0.930 . S
C354 N349 1.307 . S
C354 C351 1.402 . S
N355 Gd318 2.601 . S
N355 C356 1.359 . S
N355 C359 1.334 . S
C356 C353 1.426 . S
C356 N355 1.359 . S
C356 C360 1.413 . S
C357 H348 0.930 . S
C357 C358 1.359 . S
C357 C359 1.394 . S
C358 C357 1.359 . S
C358 C360 1.391 . S
C358 H361 0.929 . S
C359 H341 0.930 . S
C359 N355 1.334 . S
C359 C357 1.394 . S
C360 C356 1.413 . S
C360 C358 1.391 . S
C360 C375 1.437 . S
H361 C358 0.929 . S
O362 Gd318 2.545 . S
O362 C377 1.258 . S
O363 Gd318 2.606 1_455 S
O363 Gd319 2.362 1_554 S
O363 C374 1.284 . S
O364 Gd319 2.324 1_655 S
O364 C384 1.225 1_556 S
O365 Gd318 2.429 . S
O365 C384 1.316 . S
O366 Gd318 2.545 1_455 S
O366 C374 1.250 . S
O367 Gd318 2.412 1_455 S
O367 C377 1.252 1_455 S
O368 Gd319 2.545 . S
O368 C386 1.258 . S
O369 Gd318 2.362 . S
O369 Gd319 2.606 1_654 S
O369 C385 1.284 1_554 S
O370 Gd318 2.324 1_455 S
O370 C393 1.254 . S
O371 Gd319 2.429 . S
O371 C393 1.268 1_556 S
O372 Gd319 2.545 1_655 S
O372 C385 1.250 . S
O373 Gd319 2.412 . S
O373 C386 1.252 . S
C374 O363 1.284 . S
C374 O366 1.250 . S
C375 H344 0.929 . S
C375 C360 1.437 . S
C375 C376 1.317 . S
C376 H347 0.930 . S
C376 C352 1.431 . S
C376 C375 1.317 . S
C377 Gd318 2.828 . S
C377 O362 1.258 . S
C377 O367 1.252 1_655 S
C377 C378 1.497 1_655 S
C378 C377 1.497 1_455 S
C378 C379 1.395 1_455 S
C378 C380 1.380 . S
C379 C378 1.395 1_655 S
C379 C382 1.398 . S
C379 H394 0.930 . S
C380 C378 1.380 . S
C380 C381 1.391 . S
C380 H395 0.930 . S
C381 C380 1.391 . S
C381 C383 1.387 . S
C382 C379 1.398 . S
C382 C383 1.380 1_655 S
C382 H396 0.930 . S
C383 C381 1.387 . S
C383 C382 1.380 1_455 S
C383 H397 0.930 . S
C384 O364 1.225 1_554 S
C384 O365 1.316 . S
C385 O369 1.284 1_556 S
C385 O372 1.250 . S
C386 Gd319 2.828 . S
C386 O368 1.258 . S
C386 O373 1.252 . S
C386 C387 1.497 . S
C387 C386 1.497 . S
C387 C388 1.395 . S
C387 C389 1.380 1_455 S
C388 C387 1.395 . S
C388 C391 1.398 . S
C388 H398 0.930 . S
C389 C387 1.380 1_655 S
C389 C390 1.391 . S
C389 H399 0.930 . S
C390 C389 1.391 . S
C390 C392 1.387 1_655 S
C391 C388 1.398 . S
C391 C392 1.380 . S
C391 H400 0.930 . S
C392 C390 1.387 1_455 S
C392 C391 1.380 . S
C392 H401 0.930 . S
C393 O370 1.254 . S
C393 O371 1.268 1_554 S
H394 C379 0.930 . S
H395 C380 0.930 . S
H396 C382 0.930 . S
H397 C383 0.930 . S
H398 C388 0.930 . S
H399 C389 0.930 . S
H400 C391 0.930 . S
H401 C392 0.930 . S
Gd402 N433 2.652 1_554 S
Gd402 N439 2.601 1_554 S
Gd402 O446 2.545 1_554 S
Gd402 O447 2.606 . S
Gd402 O449 2.429 . S
Gd402 O450 2.545 1_554 S
Gd402 O451 2.412 1_554 S
Gd402 O453 2.362 . S
Gd402 O454 2.324 . S
Gd402 C461 2.828 1_554 S
Gd403 N412 2.661 . S
Gd403 N416 2.601 . S
Gd403 O447 2.362 . S
Gd403 O448 2.324 . S
Gd403 O452 2.545 . S
Gd403 O453 2.606 . S
Gd403 O455 2.429 . S
Gd403 O456 2.545 . S
Gd403 O457 2.412 . S
Gd403 C470 2.828 . S
C404 C407 1.417 . S
C404 C409 1.431 . S
C404 C410 1.412 . S
C405 C408 1.437 . S
C405 C409 1.317 . S
C405 H424 0.929 . S
C406 C407 1.426 . S
C406 C408 1.413 . S
C406 N416 1.359 . S
C407 C404 1.417 . S
C407 C406 1.426 . S
C407 N412 1.350 . S
C408 C405 1.437 . S
C408 C406 1.413 . S
C408 C418 1.391 . S
C409 C404 1.431 . S
C409 C405 1.317 . S
C409 H420 0.930 . S
C410 C404 1.412 . S
C410 C411 1.355 . S
C410 H422 0.930 . S
C411 C410 1.355 . S
C411 C413 1.402 . S
C411 H423 0.930 . S
N412 Gd403 2.661 . S
N412 C407 1.350 . S
N412 C413 1.307 . S
C413 C411 1.402 . S
C413 N412 1.307 . S
C413 H414 0.930 . S
H414 C413 0.930 . S
C415 N416 1.334 . S
C415 C417 1.394 . S
C415 H419 0.930 . S
N416 Gd403 2.601 . S
N416 C406 1.359 . S
N416 C415 1.334 . S
C417 C415 1.394 . S
C417 C418 1.359 . S
C417 H429 0.930 . S
C418 C408 1.391 . S
C418 C417 1.359 . S
C418 H430 0.929 . S
H419 C415 0.930 . S
H420 C409 0.930 . S
H421 C438 0.930 . S
H422 C410 0.930 . S
H423 C411 0.930 . S
H424 C405 0.929 . S
H425 C443 0.930 . S
H426 C434 0.930 . S
H427 C435 0.930 . S
H428 C459 0.929 . S
H429 C417 0.930 . S
H430 C418 0.929 . S
H431 C460 0.930 . S
H432 C441 0.930 . S
N433 Gd402 2.652 1_556 S
N433 C437 1.371 . S
N433 C438 1.298 1_556 S
C434 H426 0.930 . S
C434 C435 1.355 1_556 S
C434 C436 1.412 . S
C435 H427 0.930 . S
C435 C434 1.355 1_554 S
C435 C438 1.402 . S
C436 C434 1.412 . S
C436 C437 1.417 . S
C436 C460 1.431 . S
C437 N433 1.371 . S
C437 C436 1.417 . S
C437 C440 1.426 . S
C438 H421 0.930 . S
C438 N433 1.298 1_554 S
C438 C435 1.402 . S
N439 Gd402 2.601 1_556 S
N439 C440 1.359 . S
N439 C443 1.334 . S
C440 C437 1.426 . S
C440 N439 1.359 . S
C440 C444 1.413 . S
C441 H432 0.930 . S
C441 C442 1.359 . S
C441 C443 1.394 . S
C442 C441 1.359 . S
C442 C444 1.391 . S
C442 H445 0.929 . S
C443 H425 0.930 . S
C443 N439 1.334 . S
C443 C441 1.394 . S
C444 C440 1.413 . S
C444 C442 1.391 . S
C444 C459 1.437 . S
H445 C442 0.929 . S
O446 Gd402 2.545 1_556 S
O446 C461 1.258 . S
O447 Gd402 2.606 . S
O447 Gd403 2.362 . S
O447 C458 1.284 . S
O448 Gd403 2.324 . S
O448 C468 1.254 . S
O449 Gd402 2.429 . S
O449 C468 1.268 . S
O450 Gd402 2.545 1_556 S
O450 C458 1.250 1_556 S
O451 Gd402 2.412 1_556 S
O451 C461 1.252 . S
O452 Gd403 2.545 . S
O452 C470 1.258 . S
O453 Gd402 2.362 . S
O453 Gd403 2.606 . S
O453 C469 1.284 . S
O454 Gd402 2.324 . S
O454 C477 1.254 . S
O455 Gd403 2.429 . S
O455 C477 1.268 . S
O456 Gd403 2.545 . S
O456 C469 1.250 . S
O457 Gd403 2.412 . S
O457 C470 1.252 . S
C458 O447 1.284 . S
C458 O450 1.250 1_554 S
C459 H428 0.929 . S
C459 C444 1.437 . S
C459 C460 1.317 . S
C460 H431 0.930 . S
C460 C436 1.431 . S
C460 C459 1.317 . S
C461 Gd402 2.828 1_556 S
C461 O446 1.258 . S
C461 O451 1.252 . S
C461 C462 1.497 . S
C462 C461 1.497 . S
C462 C463 1.395 . S
C462 C464 1.380 . S
C463 C462 1.395 . S
C463 C466 1.398 . S
C463 H478 0.930 . S
C464 C462 1.380 . S
C464 C465 1.391 . S
C464 H479 0.930 . S
C465 C464 1.391 . S
C465 C467 1.387 . S
C466 C463 1.398 . S
C466 C467 1.380 . S
C466 H480 0.930 . S
C467 C465 1.387 . S
C467 C466 1.380 . S
C467 H481 0.930 . S
C468 O448 1.254 . S
C468 O449 1.268 . S
C469 O453 1.284 . S
C469 O456 1.250 . S
C470 Gd403 2.828 . S
C470 O452 1.258 . S
C470 O457 1.252 . S
C470 C471 1.497 . S
C471 C470 1.497 . S
C471 C472 1.395 . S
C471 C473 1.380 . S
C472 C471 1.395 . S
C472 C475 1.398 . S
C472 H482 0.930 . S
C473 C471 1.380 . S
C473 C474 1.391 . S
C473 H483 0.930 . S
C474 C473 1.391 . S
C474 C476 1.387 . S
C475 C472 1.398 . S
C475 C476 1.380 . S
C475 H484 0.930 . S
C476 C474 1.387 . S
C476 C475 1.380 . S
C476 H485 0.930 . S
C477 O454 1.254 . S
C477 O455 1.268 . S
H478 C463 0.930 . S
H479 C464 0.930 . S
H480 C466 0.930 . S
H481 C467 0.930 . S
H482 C472 0.930 . S
H483 C473 0.930 . S
H484 C475 0.930 . S
H485 C476 0.930 . S
Gd486 N517 2.661 . S
Gd486 N523 2.601 . S
Gd486 O530 2.545 . S
Gd486 O531 2.606 . S
Gd486 O533 2.429 . S
Gd486 O534 2.545 . S
Gd486 O535 2.412 . S
Gd486 O537 2.362 . S
Gd486 O538 2.324 . S
Gd486 C545 2.828 . S
Gd487 N496 2.661 . S
Gd487 N500 2.601 . S
Gd487 O531 2.362 . S
Gd487 O532 2.324 . S
Gd487 O536 2.545 . S
Gd487 O537 2.606 . S
Gd487 O539 2.429 . S
Gd487 O540 2.545 . S
Gd487 O541 2.412 . S
Gd487 C554 2.828 . S
C488 C491 1.417 . S
C488 C493 1.431 . S
C488 C494 1.412 . S
C489 C492 1.437 . S
C489 C493 1.317 . S
C489 H508 0.929 . S
C490 C491 1.426 . S
C490 C492 1.413 . S
C490 N500 1.359 . S
C491 C488 1.417 . S
C491 C490 1.426 . S
C491 N496 1.350 . S
C492 C489 1.437 . S
C492 C490 1.413 . S
C492 C502 1.391 . S
C493 C488 1.431 . S
C493 C489 1.317 . S
C493 H504 0.930 . S
C494 C488 1.412 . S
C494 C495 1.355 . S
C494 H506 0.930 . S
C495 C494 1.355 . S
C495 C497 1.402 . S
C495 H507 0.930 . S
N496 Gd487 2.661 . S
N496 C491 1.350 . S
N496 C497 1.307 . S
C497 C495 1.402 . S
C497 N496 1.307 . S
C497 H498 0.930 . S
H498 C497 0.930 . S
C499 N500 1.334 . S
C499 C501 1.394 . S
C499 H503 0.930 . S
N500 Gd487 2.601 . S
N500 C490 1.359 . S
N500 C499 1.334 . S
C501 C499 1.394 . S
C501 C502 1.359 . S
C501 H513 0.930 . S
C502 C492 1.391 . S
C502 C501 1.359 . S
C502 H514 0.929 . S
H503 C499 0.930 . S
H504 C493 0.930 . S
H505 C522 0.930 . S
H506 C494 0.930 . S
H507 C495 0.930 . S
H508 C489 0.929 . S
H509 C527 0.930 . S
H510 C518 0.930 . S
H511 C519 0.930 . S
H512 C543 0.929 . S
H513 C501 0.930 . S
H514 C502 0.929 . S
H515 C544 0.930 . S
H516 C525 0.930 . S
N517 Gd486 2.661 . S
N517 C521 1.350 . S
N517 C522 1.307 . S
C518 H510 0.930 . S
C518 C519 1.355 . S
C518 C520 1.412 . S
C519 H511 0.930 . S
C519 C518 1.355 . S
C519 C522 1.402 . S
C520 C518 1.412 . S
C520 C521 1.417 . S
C520 C544 1.431 . S
C521 N517 1.350 . S
C521 C520 1.417 . S
C521 C524 1.426 . S
C522 H505 0.930 . S
C522 N517 1.307 . S
C522 C519 1.402 . S
N523 Gd486 2.601 . S
N523 C524 1.359 . S
N523 C527 1.334 . S
C524 C521 1.426 . S
C524 N523 1.359 . S
C524 C528 1.413 . S
C525 H516 0.930 . S
C525 C526 1.359 . S
C525 C527 1.394 . S
C526 C525 1.359 . S
C526 C528 1.391 . S
C526 H529 0.929 . S
C527 H509 0.930 . S
C527 N523 1.334 . S
C527 C525 1.394 . S
C528 C524 1.413 . S
C528 C526 1.391 . S
C528 C543 1.437 . S
H529 C526 0.929 . S
O530 Gd486 2.545 . S
O530 C545 1.258 . S
O531 Gd486 2.606 . S
O531 Gd487 2.362 . S
O531 C542 1.284 . S
O532 Gd487 2.324 . S
O532 C552 1.254 . S
O533 Gd486 2.429 . S
O533 C552 1.268 . S
O534 Gd486 2.545 . S
O534 C542 1.250 . S
O535 Gd486 2.412 . S
O535 C545 1.252 . S
O536 Gd487 2.545 . S
O536 C554 1.258 . S
O537 Gd486 2.362 . S
O537 Gd487 2.606 . S
O537 C553 1.284 . S
O538 Gd486 2.324 . S
O538 C561 1.254 . S
O539 Gd487 2.429 . S
O539 C561 1.268 . S
O540 Gd487 2.545 . S
O540 C553 1.250 . S
O541 Gd487 2.412 . S
O541 C554 1.252 . S
C542 O531 1.284 . S
C542 O534 1.250 . S
C543 H512 0.929 . S
C543 C528 1.437 . S
C543 C544 1.317 . S
C544 H515 0.930 . S
C544 C520 1.431 . S
C544 C543 1.317 . S
C545 Gd486 2.828 . S
C545 O530 1.258 . S
C545 O535 1.252 . S
C545 C546 1.497 . S
C546 C545 1.497 . S
C546 C547 1.395 . S
C546 C548 1.380 . S
C547 C546 1.395 . S
C547 C550 1.398 . S
C547 H562 0.930 . S
C548 C546 1.380 . S
C548 C549 1.391 . S
C548 H563 0.930 . S
C549 C548 1.391 . S
C549 C551 1.387 . S
C550 C547 1.398 . S
C550 C551 1.380 . S
C550 H564 0.930 . S
C551 C549 1.387 . S
C551 C550 1.380 . S
C551 H565 0.930 . S
C552 O532 1.254 . S
C552 O533 1.268 . S
C553 O537 1.284 . S
C553 O540 1.250 . S
C554 Gd487 2.828 . S
C554 O536 1.258 . S
C554 O541 1.252 . S
C554 C555 1.497 . S
C555 C554 1.497 . S
C555 C556 1.395 . S
C555 C557 1.380 . S
C556 C555 1.395 . S
C556 C559 1.398 . S
C556 H566 0.930 . S
C557 C555 1.380 . S
C557 C558 1.391 . S
C557 H567 0.930 . S
C558 C557 1.391 . S
C558 C560 1.387 . S
C559 C556 1.398 . S
C559 C560 1.380 . S
C559 H568 0.930 . S
C560 C558 1.387 . S
C560 C559 1.380 . S
C560 H569 0.930 . S
C561 O538 1.254 . S
C561 O539 1.268 . S
H562 C547 0.930 . S
H563 C548 0.930 . S
H564 C550 0.930 . S
H565 C551 0.930 . S
H566 C556 0.930 . S
H567 C557 0.930 . S
H568 C559 0.930 . S
H569 C560 0.930 . S
Gd570 N601 2.661 . S
Gd570 N607 2.601 . S
Gd570 O614 2.545 . S
Gd570 O615 2.606 . S
Gd570 O617 2.429 . S
Gd570 O618 2.545 . S
Gd570 O619 2.412 . S
Gd570 O621 2.362 . S
Gd570 O622 2.324 . S
Gd570 C629 2.828 . S
Gd571 N580 2.661 . S
Gd571 N584 2.601 . S
Gd571 O615 2.362 . S
Gd571 O616 2.324 . S
Gd571 O620 2.545 . S
Gd571 O621 2.606 . S
Gd571 O623 2.429 . S
Gd571 O624 2.545 . S
Gd571 O625 2.412 . S
Gd571 C638 2.828 . S
C572 C575 1.417 . S
C572 C577 1.431 . S
C572 C578 1.412 . S
C573 C576 1.437 . S
C573 C577 1.317 . S
C573 H592 0.929 . S
C574 C575 1.426 . S
C574 C576 1.413 . S
C574 N584 1.359 . S
C575 C572 1.417 . S
C575 C574 1.426 . S
C575 N580 1.350 . S
C576 C573 1.437 . S
C576 C574 1.413 . S
C576 C586 1.391 . S
C577 C572 1.431 . S
C577 C573 1.317 . S
C577 H588 0.930 . S
C578 C572 1.412 . S
C578 C579 1.355 . S
C578 H590 0.930 . S
C579 C578 1.355 . S
C579 C581 1.402 . S
C579 H591 0.930 . S
N580 Gd571 2.661 . S
N580 C575 1.350 . S
N580 C581 1.307 . S
C581 C579 1.402 . S
C581 N580 1.307 . S
C581 H582 0.930 . S
H582 C581 0.930 . S
C583 N584 1.334 . S
C583 C585 1.394 . S
C583 H587 0.930 . S
N584 Gd571 2.601 . S
N584 C574 1.359 . S
N584 C583 1.334 . S
C585 C583 1.394 . S
C585 C586 1.359 . S
C585 H597 0.930 . S
C586 C576 1.391 . S
C586 C585 1.359 . S
C586 H598 0.929 . S
H587 C583 0.930 . S
H588 C577 0.930 . S
H589 C606 0.930 . S
H590 C578 0.930 . S
H591 C579 0.930 . S
H592 C573 0.929 . S
H593 C611 0.930 . S
H594 C602 0.930 . S
H595 C603 0.930 . S
H596 C627 0.929 . S
H597 C585 0.930 . S
H598 C586 0.929 . S
H599 C628 0.930 . S
H600 C609 0.930 . S
N601 Gd570 2.661 . S
N601 C605 1.350 . S
N601 C606 1.307 . S
C602 H594 0.930 . S
C602 C603 1.355 . S
C602 C604 1.412 . S
C603 H595 0.930 . S
C603 C602 1.355 . S
C603 C606 1.402 . S
C604 C602 1.412 . S
C604 C605 1.417 . S
C604 C628 1.431 . S
C605 N601 1.350 . S
C605 C604 1.417 . S
C605 C608 1.426 . S
C606 H589 0.930 . S
C606 N601 1.307 . S
C606 C603 1.402 . S
N607 Gd570 2.601 . S
N607 C608 1.359 . S
N607 C611 1.334 . S
C608 C605 1.426 . S
C608 N607 1.359 . S
C608 C612 1.413 . S
C609 H600 0.930 . S
C609 C610 1.359 . S
C609 C611 1.394 . S
C610 C609 1.359 . S
C610 C612 1.391 . S
C610 H613 0.929 . S
C611 H593 0.930 . S
C611 N607 1.334 . S
C611 C609 1.394 . S
C612 C608 1.413 . S
C612 C610 1.391 . S
C612 C627 1.437 . S
H613 C610 0.929 . S
O614 Gd570 2.545 . S
O614 C629 1.258 . S
O615 Gd570 2.606 . S
O615 Gd571 2.362 . S
O615 C626 1.284 . S
O616 Gd571 2.324 . S
O616 C636 1.254 . S
O617 Gd570 2.429 . S
O617 C636 1.268 . S
O618 Gd570 2.545 . S
O618 C626 1.250 . S
O619 Gd570 2.412 . S
O619 C629 1.252 . S
O620 Gd571 2.545 . S
O620 C638 1.258 . S
O621 Gd570 2.362 . S
O621 Gd571 2.606 . S
O621 C637 1.284 . S
O622 Gd570 2.324 . S
O622 C645 1.254 . S
O623 Gd571 2.429 . S
O623 C645 1.268 . S
O624 Gd571 2.545 . S
O624 C637 1.250 . S
O625 Gd571 2.412 . S
O625 C638 1.252 . S
C626 O615 1.284 . S
C626 O618 1.250 . S
C627 H596 0.929 . S
C627 C612 1.437 . S
C627 C628 1.317 . S
C628 H599 0.930 . S
C628 C604 1.431 . S
C628 C627 1.317 . S
C629 Gd570 2.828 . S
C629 O614 1.258 . S
C629 O619 1.252 . S
C629 C630 1.497 . S
C630 C629 1.497 . S
C630 C631 1.395 . S
C630 C632 1.380 . S
C631 C630 1.395 . S
C631 C634 1.398 . S
C631 H646 0.930 . S
C632 C630 1.380 . S
C632 C633 1.391 . S
C632 H647 0.930 . S
C633 C632 1.391 . S
C633 C635 1.387 . S
C634 C631 1.398 . S
C634 C635 1.380 . S
C634 H648 0.930 . S
C635 C633 1.387 . S
C635 C634 1.380 . S
C635 H649 0.930 . S
C636 O616 1.254 . S
C636 O617 1.268 . S
C637 O621 1.284 . S
C637 O624 1.250 . S
C638 Gd571 2.828 . S
C638 O620 1.258 . S
C638 O625 1.252 . S
C638 C639 1.497 . S
C639 C638 1.497 . S
C639 C640 1.395 . S
C639 C641 1.380 . S
C640 C639 1.395 . S
C640 C643 1.398 . S
C640 H650 0.930 . S
C641 C639 1.380 . S
C641 C642 1.391 . S
C641 H651 0.930 . S
C642 C641 1.391 . S
C642 C644 1.387 . S
C643 C640 1.398 . S
C643 C644 1.380 . S
C643 H652 0.930 . S
C644 C642 1.387 . S
C644 C643 1.380 . S
C644 H653 0.930 . S
C645 O622 1.254 . S
C645 O623 1.268 . S
H646 C631 0.930 . S
H647 C632 0.930 . S
H648 C634 0.930 . S
H649 C635 0.930 . S
H650 C640 0.930 . S
H651 C641 0.930 . S
H652 C643 0.930 . S
H653 C644 0.930 . S
Gd654 N685 2.661 . S
Gd654 N691 2.601 . S
Gd654 O698 2.545 . S
Gd654 O699 2.606 . S
Gd654 O701 2.429 . S
Gd654 O702 2.545 . S
Gd654 O703 2.412 . S
Gd654 O705 2.362 . S
Gd654 O706 2.324 . S
Gd654 C713 2.828 . S
Gd655 N664 2.661 . S
Gd655 N668 2.601 . S
Gd655 O699 2.362 . S
Gd655 O700 2.324 . S
Gd655 O704 2.545 . S
Gd655 O705 2.606 . S
Gd655 O707 2.429 . S
Gd655 O708 2.545 . S
Gd655 O709 2.412 . S
Gd655 C722 2.828 . S
C656 C659 1.417 . S
C656 C661 1.431 . S
C656 C662 1.412 . S
C657 C660 1.437 . S
C657 C661 1.317 . S
C657 H676 0.929 . S
C658 C659 1.426 . S
C658 C660 1.413 . S
C658 N668 1.359 . S
C659 C656 1.417 . S
C659 C658 1.426 . S
C659 N664 1.350 . S
C660 C657 1.437 . S
C660 C658 1.413 . S
C660 C670 1.391 . S
C661 C656 1.431 . S
C661 C657 1.317 . S
C661 H672 0.930 . S
C662 C656 1.412 . S
C662 C663 1.355 . S
C662 H674 0.930 . S
C663 C662 1.355 . S
C663 C665 1.402 . S
C663 H675 0.930 . S
N664 Gd655 2.661 . S
N664 C659 1.350 . S
N664 C665 1.307 . S
C665 C663 1.402 . S
C665 N664 1.307 . S
C665 H666 0.930 . S
H666 C665 0.930 . S
C667 N668 1.334 . S
C667 C669 1.394 . S
C667 H671 0.930 . S
N668 Gd655 2.601 . S
N668 C658 1.359 . S
N668 C667 1.334 . S
C669 C667 1.394 . S
C669 C670 1.359 . S
C669 H681 0.930 . S
C670 C660 1.391 . S
C670 C669 1.359 . S
C670 H682 0.929 . S
H671 C667 0.930 . S
H672 C661 0.930 . S
H673 C690 0.930 . S
H674 C662 0.930 . S
H675 C663 0.930 . S
H676 C657 0.929 . S
H677 C695 0.930 . S
H678 C686 0.930 . S
H679 C687 0.930 . S
H680 C711 0.929 . S
H681 C669 0.930 . S
H682 C670 0.929 . S
H683 C712 0.930 . S
H684 C693 0.930 . S
N685 Gd654 2.661 . S
N685 C689 1.350 . S
N685 C690 1.307 . S
C686 H678 0.930 . S
C686 C687 1.355 . S
C686 C688 1.412 . S
C687 H679 0.930 . S
C687 C686 1.355 . S
C687 C690 1.402 . S
C688 C686 1.412 . S
C688 C689 1.417 . S
C688 C712 1.431 . S
C689 N685 1.350 . S
C689 C688 1.417 . S
C689 C692 1.426 . S
C690 H673 0.930 . S
C690 N685 1.307 . S
C690 C687 1.402 . S
N691 Gd654 2.601 . S
N691 C692 1.359 . S
N691 C695 1.334 . S
C692 C689 1.426 . S
C692 N691 1.359 . S
C692 C696 1.413 . S
C693 H684 0.930 . S
C693 C694 1.359 . S
C693 C695 1.394 . S
C694 C693 1.359 . S
C694 C696 1.391 . S
C694 H697 0.929 . S
C695 H677 0.930 . S
C695 N691 1.334 . S
C695 C693 1.394 . S
C696 C692 1.413 . S
C696 C694 1.391 . S
C696 C711 1.437 . S
H697 C694 0.929 . S
O698 Gd654 2.545 . S
O698 C713 1.258 . S
O699 Gd654 2.606 . S
O699 Gd655 2.362 . S
O699 C710 1.284 . S
O700 Gd655 2.324 . S
O700 C720 1.254 . S
O701 Gd654 2.429 . S
O701 C720 1.268 . S
O702 Gd654 2.545 . S
O702 C710 1.250 . S
O703 Gd654 2.412 . S
O703 C713 1.252 . S
O704 Gd655 2.545 . S
O704 C722 1.258 . S
O705 Gd654 2.362 . S
O705 Gd655 2.606 . S
O705 C721 1.284 . S
O706 Gd654 2.324 . S
O706 C729 1.254 . S
O707 Gd655 2.429 . S
O707 C729 1.268 . S
O708 Gd655 2.545 . S
O708 C721 1.250 . S
O709 Gd655 2.412 . S
O709 C722 1.252 . S
C710 O699 1.284 . S
C710 O702 1.250 . S
C711 H680 0.929 . S
C711 C696 1.437 . S
C711 C712 1.317 . S
C712 H683 0.930 . S
C712 C688 1.431 . S
C712 C711 1.317 . S
C713 Gd654 2.828 . S
C713 O698 1.258 . S
C713 O703 1.252 . S
C713 C714 1.497 . S
C714 C713 1.497 . S
C714 C715 1.395 . S
C714 C716 1.380 . S
C715 C714 1.395 . S
C715 C718 1.398 . S
C715 H730 0.930 . S
C716 C714 1.380 . S
C716 C717 1.391 . S
C716 H731 0.930 . S
C717 C716 1.391 . S
C717 C719 1.387 . S
C718 C715 1.398 . S
C718 C719 1.380 . S
C718 H732 0.930 . S
C719 C717 1.387 . S
C719 C718 1.380 . S
C719 H733 0.930 . S
C720 O700 1.254 . S
C720 O701 1.268 . S
C721 O705 1.284 . S
C721 O708 1.250 . S
C722 Gd655 2.828 . S
C722 O704 1.258 . S
C722 O709 1.252 . S
C722 C723 1.497 . S
C723 C722 1.497 . S
C723 C724 1.395 . S
C723 C725 1.380 . S
C724 C723 1.395 . S
C724 C727 1.398 . S
C724 H734 0.930 . S
C725 C723 1.380 . S
C725 C726 1.391 . S
C725 H735 0.930 . S
C726 C725 1.391 . S
C726 C728 1.387 . S
C727 C724 1.398 . S
C727 C728 1.380 . S
C727 H736 0.930 . S
C728 C726 1.387 . S
C728 C727 1.380 . S
C728 H737 0.930 . S
C729 O706 1.254 . S
C729 O707 1.268 . S
H730 C715 0.930 . S
H731 C716 0.930 . S
H732 C718 0.930 . S
H733 C719 0.930 . S
H734 C724 0.930 . S
H735 C725 0.930 . S
H736 C727 0.930 . S
H737 C728 0.930 . S
Gd738 N769 2.661 . S
Gd738 N775 2.601 . S
Gd738 O782 2.545 . S
Gd738 O783 2.606 . S
Gd738 O785 2.429 . S
Gd738 O786 2.545 . S
Gd738 O787 2.412 . S
Gd738 O789 2.362 . S
Gd738 O790 2.324 . S
Gd738 C797 2.828 . S
Gd739 N748 2.661 . S
Gd739 N752 2.601 . S
Gd739 O783 2.362 . S
Gd739 O784 2.324 . S
Gd739 O788 2.545 . S
Gd739 O789 2.606 . S
Gd739 O791 2.429 . S
Gd739 O792 2.545 . S
Gd739 O793 2.412 . S
Gd739 C806 2.828 . S
C740 C743 1.417 . S
C740 C745 1.431 . S
C740 C746 1.412 . S
C741 C744 1.437 . S
C741 C745 1.317 . S
C741 H760 0.929 . S
C742 C743 1.426 . S
C742 C744 1.413 . S
C742 N752 1.359 . S
C743 C740 1.417 . S
C743 C742 1.426 . S
C743 N748 1.350 . S
C744 C741 1.437 . S
C744 C742 1.413 . S
C744 C754 1.391 . S
C745 C740 1.431 . S
C745 C741 1.317 . S
C745 H756 0.930 . S
C746 C740 1.412 . S
C746 C747 1.355 . S
C746 H758 0.930 . S
C747 C746 1.355 . S
C747 C749 1.402 . S
C747 H759 0.930 . S
N748 Gd739 2.661 . S
N748 C743 1.350 . S
N748 C749 1.307 . S
C749 C747 1.402 . S
C749 N748 1.307 . S
C749 H750 0.930 . S
H750 C749 0.930 . S
C751 N752 1.334 . S
C751 C753 1.394 . S
C751 H755 0.930 . S
N752 Gd739 2.601 . S
N752 C742 1.359 . S
N752 C751 1.334 . S
C753 C751 1.394 . S
C753 C754 1.359 . S
C753 H765 0.930 . S
C754 C744 1.391 . S
C754 C753 1.359 . S
C754 H766 0.929 . S
H755 C751 0.930 . S
H756 C745 0.930 . S
H757 C774 0.930 . S
H758 C746 0.930 . S
H759 C747 0.930 . S
H760 C741 0.929 . S
H761 C779 0.930 . S
H762 C770 0.930 . S
H763 C771 0.930 . S
H764 C795 0.929 . S
H765 C753 0.930 . S
H766 C754 0.929 . S
H767 C796 0.930 . S
H768 C777 0.930 . S
N769 Gd738 2.661 . S
N769 C773 1.350 . S
N769 C774 1.307 . S
C770 H762 0.930 . S
C770 C771 1.355 . S
C770 C772 1.412 . S
C771 H763 0.930 . S
C771 C770 1.355 . S
C771 C774 1.402 . S
C772 C770 1.412 . S
C772 C773 1.417 . S
C772 C796 1.431 . S
C773 N769 1.350 . S
C773 C772 1.417 . S
C773 C776 1.426 . S
C774 H757 0.930 . S
C774 N769 1.307 . S
C774 C771 1.402 . S
N775 Gd738 2.601 . S
N775 C776 1.359 . S
N775 C779 1.334 . S
C776 C773 1.426 . S
C776 N775 1.359 . S
C776 C780 1.413 . S
C777 H768 0.930 . S
C777 C778 1.359 . S
C777 C779 1.394 . S
C778 C777 1.359 . S
C778 C780 1.391 . S
C778 H781 0.929 . S
C779 H761 0.930 . S
C779 N775 1.334 . S
C779 C777 1.394 . S
C780 C776 1.413 . S
C780 C778 1.391 . S
C780 C795 1.437 . S
H781 C778 0.929 . S
O782 Gd738 2.545 . S
O782 C797 1.258 . S
O783 Gd738 2.606 . S
O783 Gd739 2.362 . S
O783 C794 1.284 . S
O784 Gd739 2.324 . S
O784 C804 1.254 . S
O785 Gd738 2.429 . S
O785 C804 1.268 . S
O786 Gd738 2.545 . S
O786 C794 1.250 . S
O787 Gd738 2.412 . S
O787 C797 1.252 . S
O788 Gd739 2.545 . S
O788 C806 1.258 . S
O789 Gd738 2.362 . S
O789 Gd739 2.606 . S
O789 C805 1.284 . S
O790 Gd738 2.324 . S
O790 C813 1.254 . S
O791 Gd739 2.429 . S
O791 C813 1.268 . S
O792 Gd739 2.545 . S
O792 C805 1.250 . S
O793 Gd739 2.412 . S
O793 C806 1.252 . S
C794 O783 1.284 . S
C794 O786 1.250 . S
C795 H764 0.929 . S
C795 C780 1.437 . S
C795 C796 1.317 . S
C796 H767 0.930 . S
C796 C772 1.431 . S
C796 C795 1.317 . S
C797 Gd738 2.828 . S
C797 O782 1.258 . S
C797 O787 1.252 . S
C797 C798 1.497 . S
C798 C797 1.497 . S
C798 C799 1.395 . S
C798 C800 1.380 . S
C799 C798 1.395 . S
C799 C802 1.398 . S
C799 H814 0.930 . S
C800 C798 1.380 . S
C800 C801 1.391 . S
C800 H815 0.930 . S
C801 C800 1.391 . S
C801 C803 1.387 . S
C802 C799 1.398 . S
C802 C803 1.380 . S
C802 H816 0.930 . S
C803 C801 1.387 . S
C803 C802 1.380 . S
C803 H817 0.930 . S
C804 O784 1.254 . S
C804 O785 1.268 . S
C805 O789 1.284 . S
C805 O792 1.250 . S
C806 Gd739 2.828 . S
C806 O788 1.258 . S
C806 O793 1.252 . S
C806 C807 1.497 . S
C807 C806 1.497 . S
C807 C808 1.395 . S
C807 C809 1.380 . S
C808 C807 1.395 . S
C808 C811 1.398 . S
C808 H818 0.930 . S
C809 C807 1.380 . S
C809 C810 1.391 . S
C809 H819 0.930 . S
C810 C809 1.391 . S
C810 C812 1.387 . S
C811 C808 1.398 . S
C811 C812 1.380 . S
C811 H820 0.930 . S
C812 C810 1.387 . S
C812 C811 1.380 . S
C812 H821 0.930 . S
C813 O790 1.254 . S
C813 O791 1.268 . S
H814 C799 0.930 . S
H815 C800 0.930 . S
H816 C802 0.930 . S
H817 C803 0.930 . S
H818 C808 0.930 . S
H819 C809 0.930 . S
H820 C811 0.930 . S
H821 C812 0.930 . S
Gd822 N853 2.661 . S
Gd822 N859 2.601 . S
Gd822 O866 2.545 . S
Gd822 O867 2.606 . S
Gd822 O869 2.429 . S
Gd822 O870 2.545 . S
Gd822 O871 2.412 . S
Gd822 O873 2.362 . S
Gd822 O874 2.324 . S
Gd822 C881 2.828 . S
Gd823 N832 2.661 . S
Gd823 N836 2.601 . S
Gd823 O867 2.362 . S
Gd823 O868 2.324 . S
Gd823 O872 2.545 . S
Gd823 O873 2.606 . S
Gd823 O875 2.429 . S
Gd823 O876 2.545 . S
Gd823 O877 2.412 . S
Gd823 C890 2.828 . S
C824 C827 1.417 . S
C824 C829 1.431 . S
C824 C830 1.412 . S
C825 C828 1.437 . S
C825 C829 1.317 . S
C825 H844 0.929 . S
C826 C827 1.426 . S
C826 C828 1.413 . S
C826 N836 1.359 . S
C827 C824 1.417 . S
C827 C826 1.426 . S
C827 N832 1.350 . S
C828 C825 1.437 . S
C828 C826 1.413 . S
C828 C838 1.391 . S
C829 C824 1.431 . S
C829 C825 1.317 . S
C829 H840 0.930 . S
C830 C824 1.412 . S
C830 C831 1.355 . S
C830 H842 0.930 . S
C831 C830 1.355 . S
C831 C833 1.402 . S
C831 H843 0.930 . S
N832 Gd823 2.661 . S
N832 C827 1.350 . S
N832 C833 1.307 . S
C833 C831 1.402 . S
C833 N832 1.307 . S
C833 H834 0.930 . S
H834 C833 0.930 . S
C835 N836 1.334 . S
C835 C837 1.394 . S
C835 H839 0.930 . S
N836 Gd823 2.601 . S
N836 C826 1.359 . S
N836 C835 1.334 . S
C837 C835 1.394 . S
C837 C838 1.359 . S
C837 H849 0.930 . S
C838 C828 1.391 . S
C838 C837 1.359 . S
C838 H850 0.929 . S
H839 C835 0.930 . S
H840 C829 0.930 . S
H841 C858 0.930 . S
H842 C830 0.930 . S
H843 C831 0.930 . S
H844 C825 0.929 . S
H845 C863 0.930 . S
H846 C854 0.930 . S
H847 C855 0.930 . S
H848 C879 0.929 . S
H849 C837 0.930 . S
H850 C838 0.929 . S
H851 C880 0.930 . S
H852 C861 0.930 . S
N853 Gd822 2.661 . S
N853 C857 1.350 . S
N853 C858 1.307 . S
C854 H846 0.930 . S
C854 C855 1.355 . S
C854 C856 1.412 . S
C855 H847 0.930 . S
C855 C854 1.355 . S
C855 C858 1.402 . S
C856 C854 1.412 . S
C856 C857 1.417 . S
C856 C880 1.431 . S
C857 N853 1.350 . S
C857 C856 1.417 . S
C857 C860 1.426 . S
C858 H841 0.930 . S
C858 N853 1.307 . S
C858 C855 1.402 . S
N859 Gd822 2.601 . S
N859 C860 1.359 . S
N859 C863 1.334 . S
C860 C857 1.426 . S
C860 N859 1.359 . S
C860 C864 1.413 . S
C861 H852 0.930 . S
C861 C862 1.359 . S
C861 C863 1.394 . S
C862 C861 1.359 . S
C862 C864 1.391 . S
C862 H865 0.929 . S
C863 H845 0.930 . S
C863 N859 1.334 . S
C863 C861 1.394 . S
C864 C860 1.413 . S
C864 C862 1.391 . S
C864 C879 1.437 . S
H865 C862 0.929 . S
O866 Gd822 2.545 . S
O866 C881 1.258 . S
O867 Gd822 2.606 . S
O867 Gd823 2.362 . S
O867 C878 1.284 . S
O868 Gd823 2.324 . S
O868 C888 1.254 . S
O869 Gd822 2.429 . S
O869 C888 1.268 . S
O870 Gd822 2.545 . S
O870 C878 1.250 . S
O871 Gd822 2.412 . S
O871 C881 1.252 . S
O872 Gd823 2.545 . S
O872 C890 1.258 . S
O873 Gd822 2.362 . S
O873 Gd823 2.606 . S
O873 C889 1.284 . S
O874 Gd822 2.324 . S
O874 C897 1.254 . S
O875 Gd823 2.429 . S
O875 C897 1.268 . S
O876 Gd823 2.545 . S
O876 C889 1.250 . S
O877 Gd823 2.412 . S
O877 C890 1.252 . S
C878 O867 1.284 . S
C878 O870 1.250 . S
C879 H848 0.929 . S
C879 C864 1.437 . S
C879 C880 1.317 . S
C880 H851 0.930 . S
C880 C856 1.431 . S
C880 C879 1.317 . S
C881 Gd822 2.828 . S
C881 O866 1.258 . S
C881 O871 1.252 . S
C881 C882 1.497 . S
C882 C881 1.497 . S
C882 C883 1.395 . S
C882 C884 1.380 . S
C883 C882 1.395 . S
C883 C886 1.398 . S
C883 H898 0.930 . S
C884 C882 1.380 . S
C884 C885 1.391 . S
C884 H899 0.930 . S
C885 C884 1.391 . S
C885 C887 1.387 . S
C886 C883 1.398 . S
C886 C887 1.380 . S
C886 H900 0.930 . S
C887 C885 1.387 . S
C887 C886 1.380 . S
C887 H901 0.930 . S
C888 O868 1.254 . S
C888 O869 1.268 . S
C889 O873 1.284 . S
C889 O876 1.250 . S
C890 Gd823 2.828 . S
C890 O872 1.258 . S
C890 O877 1.252 . S
C890 C891 1.497 . S
C891 C890 1.497 . S
C891 C892 1.395 . S
C891 C893 1.380 . S
C892 C891 1.395 . S
C892 C895 1.398 . S
C892 H902 0.930 . S
C893 C891 1.380 . S
C893 C894 1.391 . S
C893 H903 0.930 . S
C894 C893 1.391 . S
C894 C896 1.387 . S
C895 C892 1.398 . S
C895 C896 1.380 . S
C895 H904 0.930 . S
C896 C894 1.387 . S
C896 C895 1.380 . S
C896 H905 0.930 . S
C897 O874 1.254 . S
C897 O875 1.268 . S
H898 C883 0.930 . S
H899 C884 0.930 . S
H900 C886 0.930 . S
H901 C887 0.930 . S
H902 C892 0.930 . S
H903 C893 0.930 . S
H904 C895 0.930 . S
H905 C896 0.930 . S
Gd906 N937 2.661 . S
Gd906 N943 2.601 . S
Gd906 O950 2.545 . S
Gd906 O951 2.606 . S
Gd906 O953 2.429 . S
Gd906 O954 2.545 . S
Gd906 O955 2.412 . S
Gd906 O957 2.362 . S
Gd906 O958 2.324 . S
Gd906 C965 2.828 . S
Gd907 N916 2.661 . S
Gd907 N920 2.601 . S
Gd907 O951 2.362 . S
Gd907 O952 2.324 . S
Gd907 O956 2.545 . S
Gd907 O957 2.606 . S
Gd907 O959 2.429 . S
Gd907 O960 2.545 . S
Gd907 O961 2.412 . S
Gd907 C974 2.828 . S
C908 C911 1.417 . S
C908 C913 1.431 . S
C908 C914 1.412 . S
C909 C912 1.437 . S
C909 C913 1.317 . S
C909 H928 0.929 . S
C910 C911 1.426 . S
C910 C912 1.413 . S
C910 N920 1.359 . S
C911 C908 1.417 . S
C911 C910 1.426 . S
C911 N916 1.350 . S
C912 C909 1.437 . S
C912 C910 1.413 . S
C912 C922 1.391 . S
C913 C908 1.431 . S
C913 C909 1.317 . S
C913 H924 0.930 . S
C914 C908 1.412 . S
C914 C915 1.355 . S
C914 H926 0.930 . S
C915 C914 1.355 . S
C915 C917 1.402 . S
C915 H927 0.930 . S
N916 Gd907 2.661 . S
N916 C911 1.350 . S
N916 C917 1.307 . S
C917 C915 1.402 . S
C917 N916 1.307 . S
C917 H918 0.930 . S
H918 C917 0.930 . S
C919 N920 1.334 . S
C919 C921 1.394 . S
C919 H923 0.930 . S
N920 Gd907 2.601 . S
N920 C910 1.359 . S
N920 C919 1.334 . S
C921 C919 1.394 . S
C921 C922 1.359 . S
C921 H933 0.930 . S
C922 C912 1.391 . S
C922 C921 1.359 . S
C922 H934 0.929 . S
H923 C919 0.930 . S
H924 C913 0.930 . S
H925 C942 0.930 . S
H926 C914 0.930 . S
H927 C915 0.930 . S
H928 C909 0.929 . S
H929 C947 0.930 . S
H930 C938 0.930 . S
H931 C939 0.930 . S
H932 C963 0.929 . S
H933 C921 0.930 . S
H934 C922 0.929 . S
H935 C964 0.930 . S
H936 C945 0.930 . S
N937 Gd906 2.661 . S
N937 C941 1.350 . S
N937 C942 1.307 . S
C938 H930 0.930 . S
C938 C939 1.355 . S
C938 C940 1.412 . S
C939 H931 0.930 . S
C939 C938 1.355 . S
C939 C942 1.402 . S
C940 C938 1.412 . S
C940 C941 1.417 . S
C940 C964 1.431 . S
C941 N937 1.350 . S
C941 C940 1.417 . S
C941 C944 1.426 . S
C942 H925 0.930 . S
C942 N937 1.307 . S
C942 C939 1.402 . S
N943 Gd906 2.601 . S
N943 C944 1.359 . S
N943 C947 1.334 . S
C944 C941 1.426 . S
C944 N943 1.359 . S
C944 C948 1.413 . S
C945 H936 0.930 . S
C945 C946 1.359 . S
C945 C947 1.394 . S
C946 C945 1.359 . S
C946 C948 1.391 . S
C946 H949 0.929 . S
C947 H929 0.930 . S
C947 N943 1.334 . S
C947 C945 1.394 . S
C948 C944 1.413 . S
C948 C946 1.391 . S
C948 C963 1.437 . S
H949 C946 0.929 . S
O950 Gd906 2.545 . S
O950 C965 1.258 . S
O951 Gd906 2.606 . S
O951 Gd907 2.362 . S
O951 C962 1.284 . S
O952 Gd907 2.324 . S
O952 C972 1.254 . S
O953 Gd906 2.429 . S
O953 C972 1.268 . S
O954 Gd906 2.545 . S
O954 C962 1.250 . S
O955 Gd906 2.412 . S
O955 C965 1.252 . S
O956 Gd907 2.545 . S
O956 C974 1.258 . S
O957 Gd906 2.362 . S
O957 Gd907 2.606 . S
O957 C973 1.284 . S
O958 Gd906 2.324 . S
O958 C981 1.254 . S
O959 Gd907 2.429 . S
O959 C981 1.268 . S
O960 Gd907 2.545 . S
O960 C973 1.250 . S
O961 Gd907 2.412 . S
O961 C974 1.252 . S
C962 O951 1.284 . S
C962 O954 1.250 . S
C963 H932 0.929 . S
C963 C948 1.437 . S
C963 C964 1.317 . S
C964 H935 0.930 . S
C964 C940 1.431 . S
C964 C963 1.317 . S
C965 Gd906 2.828 . S
C965 O950 1.258 . S
C965 O955 1.252 . S
C965 C966 1.497 . S
C966 C965 1.497 . S
C966 C967 1.395 . S
C966 C968 1.380 . S
C967 C966 1.395 . S
C967 C970 1.398 . S
C967 H982 0.930 . S
C968 C966 1.380 . S
C968 C969 1.391 . S
C968 H983 0.930 . S
C969 C968 1.391 . S
C969 C971 1.387 . S
C970 C967 1.398 . S
C970 C971 1.380 . S
C970 H984 0.930 . S
C971 C969 1.387 . S
C971 C970 1.380 . S
C971 H985 0.930 . S
C972 O952 1.254 . S
C972 O953 1.268 . S
C973 O957 1.284 . S
C973 O960 1.250 . S
C974 Gd907 2.828 . S
C974 O956 1.258 . S
C974 O961 1.252 . S
C974 C975 1.497 . S
C975 C974 1.497 . S
C975 C976 1.395 . S
C975 C977 1.380 . S
C976 C975 1.395 . S
C976 C979 1.398 . S
C976 H986 0.930 . S
C977 C975 1.380 . S
C977 C978 1.391 . S
C977 H987 0.930 . S
C978 C977 1.391 . S
C978 C980 1.387 . S
C979 C976 1.398 . S
C979 C980 1.380 . S
C979 H988 0.930 . S
C980 C978 1.387 . S
C980 C979 1.380 . S
C980 H989 0.930 . S
C981 O958 1.254 . S
C981 O959 1.268 . S
H982 C967 0.930 . S
H983 C968 0.930 . S
H984 C970 0.930 . S
H985 C971 0.930 . S
H986 C976 0.930 . S
H987 C977 0.930 . S
H988 C979 0.930 . S
H989 C980 0.930 . S
H990 C1008 0.951 . S
H991 C1010 0.951 . S
H992 C1012 0.950 . S
H993 C1013 0.950 . S
H994 C1015 0.950 . S
H995 C1018 0.950 . S
H996 C1019 0.950 . S
H997 C1021 0.950 . S
H998 C1022 0.950 . S
H999 C1023 0.951 . S
H1000 C1025 0.951 . S
H1001 C1027 0.950 . S
H1002 C1028 0.950 . S
H1003 C1030 0.950 . S
H1004 C1033 0.950 . S
H1005 C1034 0.950 . S
H1006 C1036 0.950 . S
H1007 C1037 0.950 . S
C1008 H990 0.951 . S
C1008 C1009 1.366 . S
C1008 C1010 1.388 . S
C1009 C1008 1.366 . S
C1009 C1013 1.385 . S
C1010 H991 0.951 . S
C1010 C1008 1.388 . S
C1010 C1011 1.366 . S
C1011 C1010 1.366 . S
C1011 C1012 1.414 . S
C1011 C1014 1.499 . S
C1012 H992 0.950 . S
C1012 C1011 1.414 . S
C1012 C1013 1.374 . S
C1013 H993 0.950 . S
C1013 C1009 1.385 . S
C1013 C1012 1.374 . S
C1014 C1011 1.499 . S
C1014 C1015 1.373 . S
C1014 C1016 1.389 . S
C1015 H994 0.950 . S
C1015 C1014 1.373 . S
C1015 C1031 1.377 . S
C1016 C1014 1.389 . S
C1016 C1017 1.524 . S
C1016 C1030 1.377 . S
C1017 C1016 1.524 . S
C1017 C1018 1.397 . S
C1017 C1022 1.363 . S
C1018 H995 0.950 . S
C1018 C1017 1.397 . S
C1018 C1019 1.334 . S
C1019 H996 0.950 . S
C1019 C1018 1.334 . S
C1019 C1020 1.287 . S
C1020 C1019 1.287 . S
C1020 C1021 1.524 . S
C1020 H1039 0.913 . S
C1021 H997 0.950 . S
C1021 C1020 1.524 . S
C1021 C1022 1.415 . S
C1022 H998 0.950 . S
C1022 C1017 1.363 . S
C1022 C1021 1.415 . S
C1023 H999 0.951 . S
C1023 C1024 1.366 . S
C1023 C1025 1.388 . S
C1024 C1023 1.366 . S
C1024 C1028 1.385 . S
C1025 H1000 0.951 . S
C1025 C1023 1.388 . S
C1025 C1026 1.366 . S
C1026 C1025 1.366 . S
C1026 C1027 1.414 . S
C1026 C1029 1.499 . S
C1027 H1001 0.950 . S
C1027 C1026 1.414 . S
C1027 C1028 1.374 . S
C1028 H1002 0.950 . S
C1028 C1024 1.385 . S
C1028 C1027 1.374 . S
C1029 C1026 1.499 . S
C1029 C1030 1.373 . S
C1029 C1031 1.389 . S
C1030 H1003 0.950 . S
C1030 C1016 1.377 . S
C1030 C1029 1.373 . S
C1031 C1015 1.377 . S
C1031 C1029 1.389 . S
C1031 C1032 1.524 . S
C1032 C1031 1.524 . S
C1032 C1033 1.397 . S
C1032 C1037 1.363 . S
C1033 H1004 0.950 . S
C1033 C1032 1.397 . S
C1033 C1034 1.334 1_554 S
C1034 H1005 0.950 . S
C1034 C1033 1.334 1_556 S
C1034 C1035 1.287 . S
C1035 C1034 1.287 . S
C1035 C1036 1.524 1_556 S
C1035 H1038 0.999 . S
C1036 H1006 0.950 . S
C1036 C1035 1.524 1_554 S
C1036 C1037 1.415 . S
C1037 H1007 0.950 . S
C1037 C1032 1.363 . S
C1037 C1036 1.415 . S
H1038 C1035 0.999 . S
H1039 C1020 0.913 . S
H1040 C1058 0.951 . S
H1041 C1060 0.951 . S
H1042 C1062 0.950 . S
H1043 C1063 0.950 . S
H1044 C1065 0.950 . S
H1045 C1068 0.950 . S
H1046 C1069 0.950 . S
H1047 C1071 0.950 . S
H1048 C1072 0.950 . S
H1049 C1073 1.011 . S
H1050 C1075 0.951 . S
H1051 C1077 0.950 . S
H1052 C1078 0.950 . S
H1053 C1080 0.950 . S
H1054 C1083 0.950 . S
H1055 C1084 0.950 . S
H1056 C1086 0.950 . S
H1057 C1087 0.950 . S
C1058 H1040 0.951 . S
C1058 C1059 1.366 . S
C1058 C1060 1.388 . S
C1059 C1058 1.366 . S
C1059 C1063 1.385 . S
C1060 H1041 0.951 . S
C1060 C1058 1.388 . S
C1060 C1061 1.366 . S
C1061 C1060 1.366 . S
C1061 C1062 1.414 . S
C1061 C1064 1.499 . S
C1062 H1042 0.950 . S
C1062 C1061 1.414 . S
C1062 C1063 1.374 . S
C1063 H1043 0.950 . S
C1063 C1059 1.385 . S
C1063 C1062 1.374 . S
C1064 C1061 1.499 . S
C1064 C1065 1.373 . S
C1064 C1066 1.389 . S
C1065 H1044 0.950 . S
C1065 C1064 1.373 . S
C1065 C1081 1.377 . S
C1066 C1064 1.389 . S
C1066 C1067 1.524 . S
C1066 C1080 1.377 . S
C1067 C1066 1.524 . S
C1067 C1068 1.397 . S
C1067 C1072 1.363 . S
C1068 H1045 0.950 . S
C1068 C1067 1.397 . S
C1068 C1069 1.334 . S
C1069 H1046 0.950 . S
C1069 C1068 1.334 . S
C1069 C1070 1.287 . S
C1070 C1069 1.287 . S
C1070 C1071 1.524 . S
C1070 H1089 0.913 . S
C1071 H1047 0.950 . S
C1071 C1070 1.524 . S
C1071 C1072 1.415 . S
C1072 H1048 0.950 . S
C1072 C1067 1.363 . S
C1072 C1071 1.415 . S
C1073 H1049 1.011 . S
C1073 C1074 1.366 . S
C1073 C1075 1.388 . S
C1074 C1073 1.366 . S
C1074 C1078 1.385 . S
C1075 H1050 0.951 . S
C1075 C1073 1.388 . S
C1075 C1076 1.366 . S
C1076 C1075 1.366 . S
C1076 C1077 1.414 . S
C1076 C1079 1.499 . S
C1077 H1051 0.950 . S
C1077 C1076 1.414 . S
C1077 C1078 1.374 . S
C1078 H1052 0.950 . S
C1078 C1074 1.385 . S
C1078 C1077 1.374 . S
C1079 C1076 1.499 . S
C1079 C1080 1.373 . S
C1079 C1081 1.389 . S
C1080 H1053 0.950 . S
C1080 C1066 1.377 . S
C1080 C1079 1.373 . S
C1081 C1065 1.377 . S
C1081 C1079 1.389 . S
C1081 C1082 1.524 . S
C1082 C1081 1.524 . S
C1082 C1083 1.397 . S
C1082 C1087 1.363 . S
C1083 H1054 0.950 . S
C1083 C1082 1.397 . S
C1083 C1084 1.334 . S
C1084 H1055 0.950 . S
C1084 C1083 1.334 . S
C1084 C1085 1.287 . S
C1085 C1084 1.287 . S
C1085 C1086 1.524 . S
C1085 H1088 0.999 . S
C1086 H1056 0.950 . S
C1086 C1085 1.524 . S
C1086 C1087 1.415 . S
C1087 H1057 0.950 . S
C1087 C1082 1.363 . S
C1087 C1086 1.415 . S
H1088 C1085 0.999 . S
H1089 C1070 0.913 . S
H1090 C1108 0.951 . S
H1091 C1110 0.951 . S
H1092 C1112 0.950 . S
H1093 C1113 0.950 . S
H1094 C1115 0.950 . S
H1095 C1118 0.950 . S
H1096 C1119 0.950 . S
H1097 C1121 0.950 . S
H1098 C1122 0.950 . S
H1099 C1123 0.951 . S
H1100 C1125 0.951 . S
H1101 C1127 0.950 . S
H1102 C1128 0.950 . S
H1103 C1130 0.950 . S
H1104 C1133 0.950 . S
H1105 C1134 0.950 . S
H1106 C1136 0.950 . S
H1107 C1137 0.950 . S
C1108 H1090 0.951 . S
C1108 C1109 1.366 . S
C1108 C1110 1.388 . S
C1109 C1108 1.366 . S
C1109 C1113 1.385 . S
C1110 H1091 0.951 . S
C1110 C1108 1.388 . S
C1110 C1111 1.366 . S
C1111 C1110 1.366 . S
C1111 C1112 1.414 . S
C1111 C1114 1.499 . S
C1112 H1092 0.950 . S
C1112 C1111 1.414 . S
C1112 C1113 1.374 . S
C1113 H1093 0.950 . S
C1113 C1109 1.385 . S
C1113 C1112 1.374 . S
C1114 C1111 1.499 . S
C1114 C1115 1.373 . S
C1114 C1116 1.389 . S
C1115 H1094 0.950 . S
C1115 C1114 1.373 . S
C1115 C1131 1.377 . S
C1116 C1114 1.389 . S
C1116 C1117 1.524 . S
C1116 C1130 1.377 . S
C1117 C1116 1.524 . S
C1117 C1118 1.397 . S
C1117 C1122 1.363 . S
C1118 H1095 0.950 . S
C1118 C1117 1.397 . S
C1118 C1119 1.334 . S
C1119 H1096 0.950 . S
C1119 C1118 1.334 . S
C1119 C1120 1.287 1_554 S
C1120 C1119 1.287 1_556 S
C1120 C1121 1.524 . S
C1120 H1139 0.913 . S
C1121 H1097 0.950 . S
C1121 C1120 1.524 . S
C1121 C1122 1.415 1_556 S
C1122 H1098 0.950 . S
C1122 C1117 1.363 . S
C1122 C1121 1.415 1_554 S
C1123 H1099 0.951 . S
C1123 C1124 1.366 . S
C1123 C1125 1.388 . S
C1124 C1123 1.366 . S
C1124 C1128 1.385 . S
C1125 H1100 0.951 . S
C1125 C1123 1.388 . S
C1125 C1126 1.366 . S
C1126 C1125 1.366 . S
C1126 C1127 1.414 . S
C1126 C1129 1.499 . S
C1127 H1101 0.950 . S
C1127 C1126 1.414 . S
C1127 C1128 1.374 . S
C1128 H1102 0.950 . S
C1128 C1124 1.385 . S
C1128 C1127 1.374 . S
C1129 C1126 1.499 . S
C1129 C1130 1.373 . S
C1129 C1131 1.389 . S
C1130 H1103 0.950 . S
C1130 C1116 1.377 . S
C1130 C1129 1.373 . S
C1131 C1115 1.377 . S
C1131 C1129 1.389 . S
C1131 C1132 1.524 . S
C1132 C1131 1.524 . S
C1132 C1133 1.397 . S
C1132 C1137 1.363 . S
C1133 H1104 0.950 . S
C1133 C1132 1.397 . S
C1133 C1134 1.334 . S
C1134 H1105 0.950 . S
C1134 C1133 1.334 . S
C1134 C1135 1.287 . S
C1135 C1134 1.287 . S
C1135 C1136 1.524 . S
C1135 H1138 0.999 . S
C1136 H1106 0.950 . S
C1136 C1135 1.524 . S
C1136 C1137 1.415 . S
C1137 H1107 0.950 . S
C1137 C1132 1.363 . S
C1137 C1136 1.415 . S
H1138 C1135 0.999 . S
H1139 C1120 0.913 . S
H1140 C1158 0.951 . S
H1141 C1160 0.951 . S
H1142 C1162 0.950 . S
H1143 C1163 0.950 . S
H1144 C1165 0.950 . S
H1145 C1168 0.950 . S
H1146 C1169 0.950 . S
H1147 C1171 0.950 . S
H1148 C1172 0.950 . S
H1149 C1173 0.951 . S
H1150 C1175 0.951 . S
H1151 C1177 0.950 . S
H1152 C1178 0.950 1_554 S
H1153 C1180 0.950 . S
H1154 C1183 0.950 . S
H1155 C1184 0.950 . S
H1156 C1186 0.950 . S
H1157 C1187 0.950 1_556 S
C1158 H1140 0.951 . S
C1158 C1159 1.366 . S
C1158 C1160 1.388 . S
C1159 C1158 1.366 . S
C1159 C1163 1.385 . S
C1160 H1141 0.951 . S
C1160 C1158 1.388 . S
C1160 C1161 1.366 . S
C1161 C1160 1.366 . S
C1161 C1162 1.414 . S
C1161 C1164 1.499 . S
C1162 H1142 0.950 . S
C1162 C1161 1.414 . S
C1162 C1163 1.374 . S
C1163 H1143 0.950 . S
C1163 C1159 1.385 . S
C1163 C1162 1.374 . S
C1164 C1161 1.499 . S
C1164 C1165 1.373 . S
C1164 C1166 1.389 . S
C1165 H1144 0.950 . S
C1165 C1164 1.373 . S
C1165 C1181 1.377 . S
C1166 C1164 1.389 . S
C1166 C1167 1.524 . S
C1166 C1180 1.377 . S
C1167 C1166 1.524 . S
C1167 C1168 1.397 . S
C1167 C1172 1.363 . S
C1168 H1145 0.950 . S
C1168 C1167 1.397 . S
C1168 C1169 1.334 . S
C1169 H1146 0.950 . S
C1169 C1168 1.334 . S
C1169 C1170 1.287 . S
C1170 C1169 1.287 . S
C1170 C1171 1.524 . S
C1170 H1189 0.913 . S
C1171 H1147 0.950 . S
C1171 C1170 1.524 . S
C1171 C1172 1.415 . S
C1172 H1148 0.950 . S
C1172 C1167 1.363 . S
C1172 C1171 1.415 . S
C1173 H1149 0.951 . S
C1173 C1174 1.366 . S
C1173 C1175 1.388 . S
C1174 C1173 1.366 . S
C1174 C1178 1.385 . S
C1175 H1150 0.951 . S
C1175 C1173 1.388 . S
C1175 C1176 1.366 . S
C1176 C1175 1.366 . S
C1176 C1177 1.414 . S
C1176 C1179 1.499 . S
C1177 H1151 0.950 . S
C1177 C1176 1.414 . S
C1177 C1178 1.374 . S
C1178 H1152 0.950 1_556 S
C1178 C1174 1.385 . S
C1178 C1177 1.374 . S
C1179 C1176 1.499 . S
C1179 C1180 1.373 . S
C1179 C1181 1.389 . S
C1180 H1153 0.950 . S
C1180 C1166 1.377 . S
C1180 C1179 1.373 . S
C1181 C1165 1.377 . S
C1181 C1179 1.389 . S
C1181 C1182 1.524 1_556 S
C1182 C1181 1.524 1_554 S
C1182 C1183 1.397 . S
C1182 C1187 1.363 . S
C1183 H1154 0.950 . S
C1183 C1182 1.397 . S
C1183 C1184 1.334 . S
C1184 H1155 0.950 . S
C1184 C1183 1.334 . S
C1184 C1185 1.287 . S
C1185 C1184 1.287 . S
C1185 C1186 1.524 . S
C1185 H1188 0.999 . S
C1186 H1156 0.950 . S
C1186 C1185 1.524 . S
C1186 C1187 1.415 . S
C1187 H1157 0.950 1_554 S
C1187 C1182 1.363 . S
C1187 C1186 1.415 . S
H1188 C1185 0.999 . S
H1189 C1170 0.913 . S
H1190 C1208 0.951 . S
H1191 C1210 0.951 . S
H1192 C1212 0.950 . S
H1193 C1213 0.950 . S
H1194 C1215 0.950 . S
H1195 C1218 0.950 . S
H1196 C1219 0.950 . S
H1197 C1221 0.950 . S
H1198 C1222 0.950 . S
H1199 C1223 0.951 . S
H1200 C1225 0.951 . S
H1201 C1227 0.950 . S
H1202 C1228 0.950 . S
H1203 C1230 0.950 . S
H1204 C1233 0.950 1_556 S
H1205 C1234 0.950 . S
H1206 C1236 0.950 . S
H1207 C1237 0.950 . S
C1208 H1190 0.951 . S
C1208 C1209 1.366 . S
C1208 C1210 1.388 . S
C1209 C1208 1.366 . S
C1209 C1213 1.385 . S
C1210 H1191 0.951 . S
C1210 C1208 1.388 . S
C1210 C1211 1.366 . S
C1211 C1210 1.366 . S
C1211 C1212 1.414 . S
C1211 C1214 1.499 . S
C1212 H1192 0.950 . S
C1212 C1211 1.414 . S
C1212 C1213 1.374 . S
C1213 H1193 0.950 . S
C1213 C1209 1.385 . S
C1213 C1212 1.374 . S
C1214 C1211 1.499 . S
C1214 C1215 1.373 . S
C1214 C1216 1.389 . S
C1215 H1194 0.950 . S
C1215 C1214 1.373 . S
C1215 C1231 1.377 . S
C1216 C1214 1.389 . S
C1216 C1217 1.524 . S
C1216 C1230 1.377 . S
C1217 C1216 1.524 . S
C1217 C1218 1.397 . S
C1217 C1222 1.363 . S
C1218 H1195 0.950 . S
C1218 C1217 1.397 . S
C1218 C1219 1.334 . S
C1219 H1196 0.950 . S
C1219 C1218 1.334 . S
C1219 C1220 1.287 . S
C1220 C1219 1.287 . S
C1220 C1221 1.524 . S
C1220 H1239 0.913 . S
C1221 H1197 0.950 . S
C1221 C1220 1.524 . S
C1221 C1222 1.415 . S
C1222 H1198 0.950 . S
C1222 C1217 1.363 . S
C1222 C1221 1.415 . S
C1223 H1199 0.951 . S
C1223 C1224 1.366 . S
C1223 C1225 1.388 . S
C1224 C1223 1.366 . S
C1224 C1228 1.385 1_554 S
C1225 H1200 0.951 . S
C1225 C1223 1.388 . S
C1225 C1226 1.366 1_554 S
C1226 C1225 1.366 1_556 S
C1226 C1227 1.414 . S
C1226 C1229 1.499 . S
C1227 H1201 0.950 . S
C1227 C1226 1.414 . S
C1227 C1228 1.374 . S
C1228 H1202 0.950 . S
C1228 C1224 1.385 1_556 S
C1228 C1227 1.374 . S
C1229 C1226 1.499 . S
C1229 C1230 1.373 . S
C1229 C1231 1.389 . S
C1230 H1203 0.950 . S
C1230 C1216 1.377 . S
C1230 C1229 1.373 . S
C1231 C1215 1.377 . S
C1231 C1229 1.389 . S
C1231 C1232 1.524 1_556 S
C1232 C1231 1.524 1_554 S
C1232 C1233 1.397 . S
C1232 C1237 1.363 . S
C1233 H1204 0.950 1_554 S
C1233 C1232 1.397 . S
C1233 C1234 1.334 . S
C1234 H1205 0.950 . S
C1234 C1233 1.334 . S
C1234 C1235 1.287 . S
C1235 C1234 1.287 . S
C1235 C1236 1.524 . S
C1235 H1238 0.999 . S
C1236 H1206 0.950 . S
C1236 C1235 1.524 . S
C1236 C1237 1.415 . S
C1237 H1207 0.950 . S
C1237 C1232 1.363 . S
C1237 C1236 1.415 . S
H1238 C1235 0.999 . S
H1239 C1220 0.913 . S
H1240 C1258 0.951 . S
H1241 C1260 0.951 . S
H1242 C1262 0.950 . S
H1243 C1263 0.950 . S
H1244 C1265 0.974 . S
H1245 C1268 0.950 . S
H1246 C1269 0.950 . S
H1247 C1271 0.950 . S
H1248 C1272 0.950 . S
H1249 C1273 0.951 . S
H1250 C1275 0.951 . S
H1251 C1277 0.950 . S
H1252 C1278 0.950 . S
H1253 C1280 0.950 . S
H1254 C1283 0.950 . S
H1255 C1284 0.950 . S
H1256 C1286 0.950 . S
H1257 C1287 0.950 . S
C1258 H1240 0.951 . S
C1258 C1259 1.366 . S
C1258 C1260 1.388 . S
C1259 C1258 1.366 . S
C1259 C1263 1.385 . S
C1260 H1241 0.951 . S
C1260 C1258 1.388 . S
C1260 C1261 1.366 . S
C1261 C1260 1.366 . S
C1261 C1262 1.414 . S
C1261 C1264 1.499 . S
C1262 H1242 0.950 . S
C1262 C1261 1.414 . S
C1262 C1263 1.374 . S
C1263 H1243 0.950 . S
C1263 C1259 1.385 . S
C1263 C1262 1.374 . S
C1264 C1261 1.499 . S
C1264 C1265 1.373 . S
C1264 C1266 1.389 . S
C1265 H1244 0.974 . S
C1265 C1264 1.373 . S
C1265 C1281 1.377 . S
C1266 C1264 1.389 . S
C1266 C1267 1.524 . S
C1266 C1280 1.377 . S
C1267 C1266 1.524 . S
C1267 C1268 1.397 . S
C1267 C1272 1.363 . S
C1268 H1245 0.950 . S
C1268 C1267 1.397 . S
C1268 C1269 1.334 . S
C1269 H1246 0.950 . S
C1269 C1268 1.334 . S
C1269 C1270 1.287 . S
C1270 C1269 1.287 . S
C1270 C1271 1.524 . S
C1270 H1289 0.913 . S
C1271 H1247 0.950 . S
C1271 C1270 1.524 . S
C1271 C1272 1.415 . S
C1272 H1248 0.950 . S
C1272 C1267 1.363 . S
C1272 C1271 1.415 . S
C1273 H1249 0.951 . S
C1273 C1274 1.366 . S
C1273 C1275 1.388 1_554 S
C1274 C1273 1.366 . S
C1274 C1278 1.385 1_554 S
C1275 H1250 0.951 . S
C1275 C1273 1.388 1_556 S
C1275 C1276 1.366 . S
C1276 C1275 1.366 . S
C1276 C1277 1.414 . S
C1276 C1279 1.499 . S
C1277 H1251 0.950 . S
C1277 C1276 1.414 . S
C1277 C1278 1.374 . S
C1278 H1252 0.950 . S
C1278 C1274 1.385 1_556 S
C1278 C1277 1.374 . S
C1279 C1276 1.499 . S
C1279 C1280 1.373 . S
C1279 C1281 1.389 . S
C1280 H1253 0.950 . S
C1280 C1266 1.377 . S
C1280 C1279 1.373 . S
C1281 C1265 1.377 . S
C1281 C1279 1.389 . S
C1281 C1282 1.524 1_556 S
C1282 C1281 1.524 1_554 S
C1282 C1283 1.397 . S
C1282 C1287 1.363 . S
C1283 H1254 0.950 . S
C1283 C1282 1.397 . S
C1283 C1284 1.334 . S
C1284 H1255 0.950 . S
C1284 C1283 1.334 . S
C1284 C1285 1.287 . S
C1285 C1284 1.287 . S
C1285 C1286 1.524 . S
C1285 H1288 0.999 . S
C1286 H1256 0.950 . S
C1286 C1285 1.524 . S
C1286 C1287 1.415 . S
C1287 H1257 0.950 . S
C1287 C1282 1.363 . S
C1287 C1286 1.415 . S
H1288 C1285 0.999 . S
H1289 C1270 0.913 . S
H1290 C1308 0.951 . S
H1291 C1310 0.951 . S
H1292 C1312 0.950 . S
H1293 C1313 0.950 . S
H1294 C1315 0.950 . S
H1295 C1318 0.950 . S
H1296 C1319 0.950 . S
H1297 C1321 0.950 . S
H1298 C1322 0.950 . S
H1299 C1323 0.951 . S
H1300 C1325 0.951 . S
H1301 C1327 0.950 . S
H1302 C1328 0.950 . S
H1303 C1330 0.950 . S
H1304 C1333 0.950 . S
H1305 C1334 0.950 . S
H1306 C1336 0.950 . S
H1307 C1337 0.950 . S
C1308 H1290 0.951 . S
C1308 C1309 1.366 . S
C1308 C1310 1.388 . S
C1309 C1308 1.366 . S
C1309 C1313 1.385 . S
C1310 H1291 0.951 . S
C1310 C1308 1.388 . S
C1310 C1311 1.366 . S
C1311 C1310 1.366 . S
C1311 C1312 1.414 . S
C1311 C1314 1.499 . S
C1312 H1292 0.950 . S
C1312 C1311 1.414 . S
C1312 C1313 1.374 . S
C1313 H1293 0.950 . S
C1313 C1309 1.385 . S
C1313 C1312 1.374 . S
C1314 C1311 1.499 . S
C1314 C1315 1.373 . S
C1314 C1316 1.389 . S
C1315 H1294 0.950 . S
C1315 C1314 1.373 . S
C1315 C1331 1.377 . S
C1316 C1314 1.389 . S
C1316 C1317 1.524 . S
C1316 C1330 1.377 . S
C1317 C1316 1.524 . S
C1317 C1318 1.397 1_556 S
C1317 C1322 1.363 . S
C1318 H1295 0.950 . S
C1318 C1317 1.397 1_554 S
C1318 C1319 1.334 . S
C1319 H1296 0.950 . S
C1319 C1318 1.334 . S
C1319 C1320 1.292 . S
C1320 C1319 1.292 . S
C1320 C1321 1.510 1_554 S
C1320 H1339 0.920 . S
C1321 H1297 0.950 . S
C1321 C1320 1.510 1_556 S
C1321 C1322 1.415 . S
C1322 H1298 0.950 . S
C1322 C1317 1.363 . S
C1322 C1321 1.415 . S
C1323 H1299 0.951 . S
C1323 C1324 1.366 . S
C1323 C1325 1.388 . S
C1324 C1323 1.366 . S
C1324 C1328 1.385 1_554 S
C1325 H1300 0.951 . S
C1325 C1323 1.388 . S
C1325 C1326 1.366 1_554 S
C1326 C1325 1.366 1_556 S
C1326 C1327 1.414 . S
C1326 C1329 1.499 . S
C1327 H1301 0.950 . S
C1327 C1326 1.414 . S
C1327 C1328 1.374 . S
C1328 H1302 0.950 . S
C1328 C1324 1.385 1_556 S
C1328 C1327 1.374 . S
C1329 C1326 1.499 . S
C1329 C1330 1.373 . S
C1329 C1331 1.389 . S
C1330 H1303 0.950 . S
C1330 C1316 1.377 . S
C1330 C1329 1.373 . S
C1331 C1315 1.377 . S
C1331 C1329 1.389 . S
C1331 C1332 1.524 . S
C1332 C1331 1.524 . S
C1332 C1333 1.397 . S
C1332 C1337 1.363 . S
C1333 H1304 0.950 . S
C1333 C1332 1.397 . S
C1333 C1334 1.334 . S
C1334 H1305 0.950 . S
C1334 C1333 1.334 . S
C1334 C1335 1.287 . S
C1335 C1334 1.287 . S
C1335 C1336 1.524 . S
C1335 H1338 0.999 . S
C1336 H1306 0.950 . S
C1336 C1335 1.524 . S
C1336 C1337 1.415 . S
C1337 H1307 0.950 . S
C1337 C1332 1.363 . S
C1337 C1336 1.415 . S
H1338 C1335 0.999 . S
H1339 C1320 0.920 . S
H1340 C1358 0.951 . S
H1341 C1360 0.951 . S
H1342 C1362 0.950 . S
H1343 C1363 0.950 . S
H1344 C1365 0.950 . S
H1345 C1368 0.950 . S
H1346 C1369 0.950 . S
H1347 C1371 0.950 . S
H1348 C1372 0.950 . S
H1349 C1373 0.951 . S
H1350 C1375 0.951 1_554 S
H1351 C1377 0.950 . S
H1352 C1378 0.950 . S
H1353 C1380 0.950 . S
H1354 C1383 0.950 . S
H1355 C1384 0.950 . S
H1356 C1386 0.950 . S
H1357 C1387 0.950 . S
C1358 H1340 0.951 . S
C1358 C1359 1.366 . S
C1358 C1360 1.388 . S
C1359 C1358 1.366 . S
C1359 C1363 1.385 . S
C1360 H1341 0.951 . S
C1360 C1358 1.388 . S
C1360 C1361 1.366 . S
C1361 C1360 1.366 . S
C1361 C1362 1.414 . S
C1361 C1364 1.499 . S
C1362 H1342 0.950 . S
C1362 C1361 1.414 . S
C1362 C1363 1.374 . S
C1363 H1343 0.950 . S
C1363 C1359 1.385 . S
C1363 C1362 1.374 . S
C1364 C1361 1.499 . S
C1364 C1365 1.373 . S
C1364 C1366 1.389 . S
C1365 H1344 0.950 . S
C1365 C1364 1.373 . S
C1365 C1381 1.377 . S
C1366 C1364 1.389 . S
C1366 C1367 1.524 . S
C1366 C1380 1.377 . S
C1367 C1366 1.524 . S
C1367 C1368 1.397 . S
C1367 C1372 1.363 . S
C1368 H1345 0.950 . S
C1368 C1367 1.397 . S
C1368 C1369 1.334 . S
C1369 H1346 0.950 . S
C1369 C1368 1.334 . S
C1369 C1370 1.287 . S
C1370 C1369 1.287 . S
C1370 C1371 1.524 . S
C1370 H1389 0.913 . S
C1371 H1347 0.950 . S
C1371 C1370 1.524 . S
C1371 C1372 1.415 . S
C1372 H1348 0.950 . S
C1372 C1367 1.363 . S
C1372 C1371 1.415 . S
C1373 H1349 0.951 . S
C1373 C1374 1.366 1_554 S
C1373 C1375 1.388 1_554 S
C1374 C1373 1.366 1_556 S
C1374 C1378 1.385 . S
C1375 H1350 0.951 1_556 S
C1375 C1373 1.388 1_556 S
C1375 C1376 1.366 . S
C1376 C1375 1.366 . S
C1376 C1377 1.414 . S
C1376 C1379 1.499 . S
C1377 H1351 0.950 . S
C1377 C1376 1.414 . S
C1377 C1378 1.374 . S
C1378 H1352 0.950 . S
C1378 C1374 1.385 . S
C1378 C1377 1.374 . S
C1379 C1376 1.499 . S
C1379 C1380 1.373 . S
C1379 C1381 1.389 . S
C1380 H1353 0.950 . S
C1380 C1366 1.377 . S
C1380 C1379 1.373 . S
C1381 C1365 1.377 . S
C1381 C1379 1.389 . S
C1381 C1382 1.524 . S
C1382 C1381 1.524 . S
C1382 C1383 1.397 . S
C1382 C1387 1.363 1_556 S
C1383 H1354 0.950 . S
C1383 C1382 1.397 . S
C1383 C1384 1.334 . S
C1384 H1355 0.950 . S
C1384 C1383 1.334 . S
C1384 C1385 1.287 1_556 S
C1385 C1384 1.287 1_554 S
C1385 C1386 1.524 . S
C1385 H1388 0.999 . S
C1386 H1356 0.950 . S
C1386 C1385 1.524 . S
C1386 C1387 1.415 . S
C1387 H1357 0.950 . S
C1387 C1382 1.363 1_554 S
C1387 C1386 1.415 . S
H1388 C1385 0.999 . S
H1389 C1370 0.913 . S
H1390 C1408 0.951 . S
H1391 C1410 0.951 . S
H1392 C1412 0.950 . S
H1393 C1413 0.950 . S
H1394 C1415 0.950 . S
H1395 C1418 0.950 . S
H1396 C1419 0.950 . S
H1397 C1421 0.950 . S
H1398 C1422 0.950 . S
H1399 C1423 0.951 . S
H1400 C1425 0.945 1_556 S
H1401 C1427 0.950 . S
H1402 C1428 0.950 . S
H1403 C1430 0.950 . S
H1404 C1433 0.950 . S
H1405 C1434 0.950 . S
H1406 C1436 0.950 . S
H1407 C1437 0.950 . S
C1408 H1390 0.951 . S
C1408 C1409 1.366 . S
C1408 C1410 1.388 . S
C1409 C1408 1.366 . S
C1409 C1413 1.385 . S
C1410 H1391 0.951 . S
C1410 C1408 1.388 . S
C1410 C1411 1.366 . S
C1411 C1410 1.366 . S
C1411 C1412 1.414 . S
C1411 C1414 1.499 . S
C1412 H1392 0.950 . S
C1412 C1411 1.414 . S
C1412 C1413 1.374 . S
C1413 H1393 0.950 . S
C1413 C1409 1.385 . S
C1413 C1412 1.374 . S
C1414 C1411 1.499 . S
C1414 C1415 1.373 . S
C1414 C1416 1.389 1_556 S
C1415 H1394 0.950 . S
C1415 C1414 1.373 . S
C1415 C1431 1.377 . S
C1416 C1414 1.389 1_554 S
C1416 C1417 1.524 . S
C1416 C1430 1.377 . S
C1417 C1416 1.524 . S
C1417 C1418 1.397 . S
C1417 C1422 1.363 . S
C1418 H1395 0.950 . S
C1418 C1417 1.397 . S
C1418 C1419 1.334 . S
C1419 H1396 0.950 . S
C1419 C1418 1.334 . S
C1419 C1420 1.287 . S
C1420 C1419 1.287 . S
C1420 C1421 1.524 . S
C1420 H1439 0.913 . S
C1421 H1397 0.950 . S
C1421 C1420 1.524 . S
C1421 C1422 1.415 . S
C1422 H1398 0.950 . S
C1422 C1417 1.363 . S
C1422 C1421 1.415 . S
C1423 H1399 0.951 . S
C1423 C1424 1.366 . S
C1423 C1425 1.388 . S
C1424 C1423 1.366 . S
C1424 C1428 1.385 . S
C1425 H1400 0.945 1_554 S
C1425 C1423 1.388 . S
C1425 C1426 1.366 . S
C1426 C1425 1.366 . S
C1426 C1427 1.414 . S
C1426 C1429 1.499 1_554 S
C1427 H1401 0.950 . S
C1427 C1426 1.414 . S
C1427 C1428 1.374 . S
C1428 H1402 0.950 . S
C1428 C1424 1.385 . S
C1428 C1427 1.374 . S
C1429 C1426 1.499 1_556 S
C1429 C1430 1.373 1_556 S
C1429 C1431 1.389 . S
C1430 H1403 0.950 . S
C1430 C1416 1.377 . S
C1430 C1429 1.373 1_554 S
C1431 C1415 1.377 . S
C1431 C1429 1.389 . S
C1431 C1432 1.524 . S
C1432 C1431 1.524 . S
C1432 C1433 1.397 . S
C1432 C1437 1.363 . S
C1433 H1404 0.950 . S
C1433 C1432 1.397 . S
C1433 C1434 1.334 . S
C1434 H1405 0.950 . S
C1434 C1433 1.334 . S
C1434 C1435 1.287 . S
C1435 C1434 1.287 . S
C1435 C1436 1.524 . S
C1435 H1438 0.999 . S
C1436 H1406 0.950 . S
C1436 C1435 1.524 . S
C1436 C1437 1.415 . S
C1437 H1407 0.950 . S
C1437 C1432 1.363 . S
C1437 C1436 1.415 . S
H1438 C1435 0.999 . S
H1439 C1420 0.913 . S
H1440 C1458 0.951 . S
H1441 C1460 0.951 . S
H1442 C1462 0.950 . S
H1443 C1463 0.950 . S
H1444 C1465 0.950 . S
H1445 C1468 0.950 . S
H1446 C1469 0.950 . S
H1447 C1471 0.950 . S
H1448 C1472 0.950 . S
H1449 C1473 0.951 . S
H1450 C1475 0.951 . S
H1451 C1477 0.950 . S
H1452 C1478 0.950 . S
H1453 C1480 0.950 . S
H1454 C1483 0.950 . S
H1455 C1484 0.950 . S
H1456 C1486 0.950 . S
H1457 C1487 0.950 . S
C1458 H1440 0.951 . S
C1458 C1459 1.366 . S
C1458 C1460 1.388 . S
C1459 C1458 1.366 . S
C1459 C1463 1.385 . S
C1460 H1441 0.951 . S
C1460 C1458 1.388 . S
C1460 C1461 1.366 . S
C1461 C1460 1.366 . S
C1461 C1462 1.414 . S
C1461 C1464 1.499 . S
C1462 H1442 0.950 . S
C1462 C1461 1.414 . S
C1462 C1463 1.374 . S
C1463 H1443 0.950 . S
C1463 C1459 1.385 . S
C1463 C1462 1.374 . S
C1464 C1461 1.499 . S
C1464 C1465 1.373 . S
C1464 C1466 1.389 . S
C1465 H1444 0.950 . S
C1465 C1464 1.373 . S
C1465 C1481 1.377 . S
C1466 C1464 1.389 . S
C1466 C1467 1.524 . S
C1466 C1480 1.377 . S
C1467 C1466 1.524 . S
C1467 C1468 1.397 . S
C1467 C1472 1.363 . S
C1468 H1445 0.950 . S
C1468 C1467 1.397 . S
C1468 C1469 1.334 . S
C1469 H1446 0.950 . S
C1469 C1468 1.334 . S
C1469 C1470 1.287 . S
C1470 C1469 1.287 . S
C1470 C1471 1.524 . S
C1470 H1489 0.913 . S
C1471 H1447 0.950 . S
C1471 C1470 1.524 . S
C1471 C1472 1.415 . S
C1472 H1448 0.950 . S
C1472 C1467 1.363 . S
C1472 C1471 1.415 . S
C1473 H1449 0.951 . S
C1473 C1474 1.366 . S
C1473 C1475 1.388 . S
C1474 C1473 1.366 . S
C1474 C1478 1.385 . S
C1475 H1450 0.951 . S
C1475 C1473 1.388 . S
C1475 C1476 1.366 . S
C1476 C1475 1.366 . S
C1476 C1477 1.414 . S
C1476 C1479 1.499 . S
C1477 H1451 0.950 . S
C1477 C1476 1.414 . S
C1477 C1478 1.374 . S
C1478 H1452 0.950 . S
C1478 C1474 1.385 . S
C1478 C1477 1.374 . S
C1479 C1476 1.499 . S
C1479 C1480 1.373 . S
C1479 C1481 1.389 . S
C1480 H1453 0.950 . S
C1480 C1466 1.377 . S
C1480 C1479 1.373 . S
C1481 C1465 1.377 . S
C1481 C1479 1.389 . S
C1481 C1482 1.524 . S
C1482 C1481 1.524 . S
C1482 C1483 1.397 . S
C1482 C1487 1.363 . S
C1483 H1454 0.950 . S
C1483 C1482 1.397 . S
C1483 C1484 1.334 . S
C1484 H1455 0.950 . S
C1484 C1483 1.334 . S
C1484 C1485 1.287 . S
C1485 C1484 1.287 . S
C1485 C1486 1.524 . S
C1485 H1488 0.999 . S
C1486 H1456 0.950 . S
C1486 C1485 1.524 . S
C1486 C1487 1.415 . S
C1487 H1457 0.950 . S
C1487 C1482 1.363 . S
C1487 C1486 1.415 . S
H1488 C1485 0.999 . S
H1489 C1470 0.913 . S
H1490 C1508 0.951 . S
H1491 C1510 0.951 . S
H1492 C1512 0.950 . S
H1493 C1513 0.950 . S
H1494 C1515 0.950 . S
H1495 C1518 0.950 . S
H1496 C1519 0.950 . S
H1497 C1521 0.950 . S
H1498 C1522 0.950 . S
H1499 C1523 0.951 . S
H1500 C1525 0.951 . S
H1501 C1527 0.950 . S
H1502 C1528 0.950 . S
H1503 C1530 0.950 . S
H1504 C1533 0.950 . S
H1505 C1534 0.950 . S
H1506 C1536 0.950 . S
H1507 C1537 0.950 . S
C1508 H1490 0.951 . S
C1508 C1509 1.366 . S
C1508 C1510 1.388 . S
C1509 C1508 1.366 . S
C1509 C1513 1.385 . S
C1510 H1491 0.951 . S
C1510 C1508 1.388 . S
C1510 C1511 1.366 . S
C1511 C1510 1.366 . S
C1511 C1512 1.414 . S
C1511 C1514 1.499 . S
C1512 H1492 0.950 . S
C1512 C1511 1.414 . S
C1512 C1513 1.374 . S
C1513 H1493 0.950 . S
C1513 C1509 1.385 . S
C1513 C1512 1.374 . S
C1514 C1511 1.499 . S
C1514 C1515 1.373 . S
C1514 C1516 1.389 . S
C1515 H1494 0.950 . S
C1515 C1514 1.373 . S
C1515 C1531 1.377 . S
C1516 C1514 1.389 . S
C1516 C1517 1.524 . S
C1516 C1530 1.377 . S
C1517 C1516 1.524 . S
C1517 C1518 1.397 . S
C1517 C1522 1.363 . S
C1518 H1495 0.950 . S
C1518 C1517 1.397 . S
C1518 C1519 1.334 . S
C1519 H1496 0.950 . S
C1519 C1518 1.334 . S
C1519 C1520 1.287 . S
C1520 C1519 1.287 . S
C1520 C1521 1.524 . S
C1520 H1539 0.913 . S
C1521 H1497 0.950 . S
C1521 C1520 1.524 . S
C1521 C1522 1.415 . S
C1522 H1498 0.950 . S
C1522 C1517 1.363 . S
C1522 C1521 1.415 . S
C1523 H1499 0.951 . S
C1523 C1524 1.366 . S
C1523 C1525 1.388 . S
C1524 C1523 1.366 . S
C1524 C1528 1.385 . S
C1525 H1500 0.951 . S
C1525 C1523 1.388 . S
C1525 C1526 1.366 . S
C1526 C1525 1.366 . S
C1526 C1527 1.414 . S
C1526 C1529 1.499 . S
C1527 H1501 0.950 . S
C1527 C1526 1.414 . S
C1527 C1528 1.374 . S
C1528 H1502 0.950 . S
C1528 C1524 1.385 . S
C1528 C1527 1.374 . S
C1529 C1526 1.499 . S
C1529 C1530 1.373 . S
C1529 C1531 1.389 . S
C1530 H1503 0.950 . S
C1530 C1516 1.377 . S
C1530 C1529 1.373 . S
C1531 C1515 1.377 . S
C1531 C1529 1.389 . S
C1531 C1532 1.524 . S
C1532 C1531 1.524 . S
C1532 C1533 1.397 . S
C1532 C1537 1.363 . S
C1533 H1504 0.950 . S
C1533 C1532 1.397 . S
C1533 C1534 1.334 . S
C1534 H1505 0.950 . S
C1534 C1533 1.334 . S
C1534 C1535 1.287 . S
C1535 C1534 1.287 . S
C1535 C1536 1.524 . S
C1535 H1538 0.999 . S
C1536 H1506 0.950 . S
C1536 C1535 1.524 . S
C1536 C1537 1.415 . S
C1537 H1507 0.950 . S
C1537 C1532 1.363 . S
C1537 C1536 1.415 . S
H1538 C1535 0.999 . S
H1539 C1520 0.913 . S
H1540 C1558 0.951 . S
H1541 C1560 0.951 . S
H1542 C1562 0.950 . S
H1543 C1563 0.950 . S
H1544 C1565 0.950 . S
H1545 C1568 0.950 . S
H1546 C1569 0.950 . S
H1547 C1571 0.950 . S
H1548 C1572 0.950 . S
H1549 C1573 0.951 . S
H1550 C1575 0.951 . S
H1551 C1577 0.950 . S
H1552 C1578 0.950 . S
H1553 C1580 0.950 . S
H1554 C1583 0.950 . S
H1555 C1584 0.950 . S
H1556 C1586 0.950 . S
H1557 C1587 0.950 . S
C1558 H1540 0.951 . S
C1558 C1559 1.366 . S
C1558 C1560 1.388 . S
C1559 C1558 1.366 . S
C1559 C1563 1.385 . S
C1560 H1541 0.951 . S
C1560 C1558 1.388 . S
C1560 C1561 1.366 . S
C1561 C1560 1.366 . S
C1561 C1562 1.414 . S
C1561 C1564 1.499 . S
C1562 H1542 0.950 . S
C1562 C1561 1.414 . S
C1562 C1563 1.374 . S
C1563 H1543 0.950 . S
C1563 C1559 1.385 . S
C1563 C1562 1.374 . S
C1564 C1561 1.499 . S
C1564 C1565 1.373 . S
C1564 C1566 1.389 . S
C1565 H1544 0.950 . S
C1565 C1564 1.373 . S
C1565 C1581 1.377 . S
C1566 C1564 1.389 . S
C1566 C1567 1.524 . S
C1566 C1580 1.377 . S
C1567 C1566 1.524 . S
C1567 C1568 1.397 . S
C1567 C1572 1.363 . S
C1568 H1545 0.950 . S
C1568 C1567 1.397 . S
C1568 C1569 1.334 . S
C1569 H1546 0.950 . S
C1569 C1568 1.334 . S
C1569 C1570 1.287 . S
C1570 C1569 1.287 . S
C1570 C1571 1.524 . S
C1570 H1589 0.913 . S
C1571 H1547 0.950 . S
C1571 C1570 1.524 . S
C1571 C1572 1.415 . S
C1572 H1548 0.950 . S
C1572 C1567 1.363 . S
C1572 C1571 1.415 . S
C1573 H1549 0.951 . S
C1573 C1574 1.366 . S
C1573 C1575 1.388 . S
C1574 C1573 1.366 . S
C1574 C1578 1.385 . S
C1575 H1550 0.951 . S
C1575 C1573 1.388 . S
C1575 C1576 1.366 . S
C1576 C1575 1.366 . S
C1576 C1577 1.414 . S
C1576 C1579 1.499 . S
C1577 H1551 0.950 . S
C1577 C1576 1.414 . S
C1577 C1578 1.374 . S
C1578 H1552 0.950 . S
C1578 C1574 1.385 . S
C1578 C1577 1.374 . S
C1579 C1576 1.499 . S
C1579 C1580 1.373 . S
C1579 C1581 1.389 . S
C1580 H1553 0.950 . S
C1580 C1566 1.377 . S
C1580 C1579 1.373 . S
C1581 C1565 1.377 . S
C1581 C1579 1.389 . S
C1581 C1582 1.524 . S
C1582 C1581 1.524 . S
C1582 C1583 1.397 . S
C1582 C1587 1.363 . S
C1583 H1554 0.950 . S
C1583 C1582 1.397 . S
C1583 C1584 1.334 1_554 S
C1584 H1555 0.950 . S
C1584 C1583 1.334 1_556 S
C1584 C1585 1.287 . S
C1585 C1584 1.287 . S
C1585 C1586 1.524 1_556 S
C1585 H1588 0.999 . S
C1586 H1556 0.950 . S
C1586 C1585 1.524 1_554 S
C1586 C1587 1.415 . S
C1587 H1557 0.950 . S
C1587 C1582 1.363 . S
C1587 C1586 1.415 . S
H1588 C1585 0.999 . S
H1589 C1570 0.913 . S
H1590 C1608 0.951 . S
H1591 C1610 0.951 . S
H1592 C1612 0.950 . S
H1593 C1613 0.950 . S
H1594 C1615 0.950 1_655 S
H1595 C1618 0.950 . S
H1596 C1619 0.950 . S
H1597 C1621 0.950 . S
H1598 C1622 0.950 . S
H1599 C1623 0.951 . S
H1600 C1625 0.951 . S
H1601 C1627 0.950 . S
H1602 C1628 0.950 . S
H1603 C1630 0.950 . S
H1604 C1633 0.950 . S
H1605 C1634 0.950 . S
H1606 C1636 0.950 . S
H1607 C1637 0.950 . S
C1608 H1590 0.951 . S
C1608 C1609 1.366 . S
C1608 C1610 1.388 . S
C1609 C1608 1.366 . S
C1609 C1613 1.385 . S
C1610 H1591 0.951 . S
C1610 C1608 1.388 . S
C1610 C1611 1.366 . S
C1611 C1610 1.366 . S
C1611 C1612 1.414 . S
C1611 C1614 1.499 . S
C1612 H1592 0.950 . S
C1612 C1611 1.414 . S
C1612 C1613 1.374 . S
C1613 H1593 0.950 . S
C1613 C1609 1.385 . S
C1613 C1612 1.374 . S
C1614 C1611 1.499 . S
C1614 C1615 1.373 1_655 S
C1614 C1616 1.389 1_655 S
C1615 H1594 0.950 1_455 S
C1615 C1614 1.373 1_455 S
C1615 C1631 1.377 . S
C1616 C1614 1.389 1_455 S
C1616 C1617 1.524 . S
C1616 C1630 1.377 . S
C1617 C1616 1.524 . S
C1617 C1618 1.397 1_455 S
C1617 C1622 1.363 . S
C1618 H1595 0.950 . S
C1618 C1617 1.397 1_655 S
C1618 C1619 1.334 . S
C1619 H1596 0.950 . S
C1619 C1618 1.334 . S
C1619 C1620 1.287 . S
C1620 C1619 1.287 . S
C1620 C1621 1.524 1_655 S
C1620 H1639 0.913 . S
C1621 H1597 0.950 . S
C1621 C1620 1.524 1_455 S
C1621 C1622 1.415 . S
C1622 H1598 0.950 . S
C1622 C1617 1.363 . S
C1622 C1621 1.415 . S
C1623 H1599 0.951 . S
C1623 C1624 1.366 . S
C1623 C1625 1.388 . S
C1624 C1623 1.366 . S
C1624 C1628 1.385 . S
C1625 H1600 0.951 . S
C1625 C1623 1.388 . S
C1625 C1626 1.366 . S
C1626 C1625 1.366 . S
C1626 C1627 1.414 . S
C1626 C1629 1.499 . S
C1627 H1601 0.950 . S
C1627 C1626 1.414 . S
C1627 C1628 1.374 . S
C1628 H1602 0.950 . S
C1628 C1624 1.385 . S
C1628 C1627 1.374 . S
C1629 C1626 1.499 . S
C1629 C1630 1.373 . S
C1629 C1631 1.389 . S
C1630 H1603 0.950 . S
C1630 C1616 1.377 . S
C1630 C1629 1.373 . S
C1631 C1615 1.377 . S
C1631 C1629 1.389 . S
C1631 C1632 1.524 . S
C1632 C1631 1.524 . S
C1632 C1633 1.397 . S
C1632 C1637 1.363 . S
C1633 H1604 0.950 . S
C1633 C1632 1.397 . S
C1633 C1634 1.334 . S
C1634 H1605 0.950 . S
C1634 C1633 1.334 . S
C1634 C1635 1.287 . S
C1635 C1634 1.287 . S
C1635 C1636 1.524 . S
C1635 H1638 0.999 . S
C1636 H1606 0.950 . S
C1636 C1635 1.524 . S
C1636 C1637 1.415 . S
C1637 H1607 0.950 . S
C1637 C1632 1.363 . S
C1637 C1636 1.415 . S
H1638 C1635 0.999 . S
H1639 C1620 0.913 . S
H1640 C1658 0.951 . S
H1641 C1660 0.951 . S
H1642 C1662 0.950 . S
H1643 C1663 0.950 . S
H1644 C1665 0.950 . S
H1645 C1668 0.950 . S
H1646 C1669 0.950 . S
H1647 C1671 0.950 . S
H1648 C1672 0.950 . S
H1649 C1673 0.951 . S
H1650 C1675 0.951 . S
H1651 C1677 0.950 . S
H1652 C1678 0.950 . S
H1653 C1680 0.950 . S
H1654 C1683 0.950 . S
H1655 C1684 0.950 . S
H1656 C1686 0.950 . S
H1657 C1687 0.950 . S
C1658 H1640 0.951 . S
C1658 C1659 1.366 . S
C1658 C1660 1.388 . S
C1659 C1658 1.366 . S
C1659 C1663 1.385 . S
C1660 H1641 0.951 . S
C1660 C1658 1.388 . S
C1660 C1661 1.366 . S
C1661 C1660 1.366 . S
C1661 C1662 1.414 . S
C1661 C1664 1.499 . S
C1662 H1642 0.950 . S
C1662 C1661 1.414 . S
C1662 C1663 1.374 . S
C1663 H1643 0.950 . S
C1663 C1659 1.385 . S
C1663 C1662 1.374 . S
C1664 C1661 1.499 . S
C1664 C1665 1.373 . S
C1664 C1666 1.389 . S
C1665 H1644 0.950 . S
C1665 C1664 1.373 . S
C1665 C1681 1.377 . S
C1666 C1664 1.389 . S
C1666 C1667 1.524 . S
C1666 C1680 1.377 . S
C1667 C1666 1.524 . S
C1667 C1668 1.397 . S
C1667 C1672 1.363 . S
C1668 H1645 0.950 . S
C1668 C1667 1.397 . S
C1668 C1669 1.334 . S
C1669 H1646 0.950 . S
C1669 C1668 1.334 . S
C1669 C1670 1.287 . S
C1670 C1669 1.287 . S
C1670 C1671 1.524 . S
C1670 H1689 0.913 . S
C1671 H1647 0.950 . S
C1671 C1670 1.524 . S
C1671 C1672 1.415 . S
C1672 H1648 0.950 . S
C1672 C1667 1.363 . S
C1672 C1671 1.415 . S
C1673 H1649 0.951 . S
C1673 C1674 1.366 . S
C1673 C1675 1.388 . S
C1674 C1673 1.366 . S
C1674 C1678 1.385 . S
C1675 H1650 0.951 . S
C1675 C1673 1.388 . S
C1675 C1676 1.366 . S
C1676 C1675 1.366 . S
C1676 C1677 1.414 . S
C1676 C1679 1.499 . S
C1677 H1651 0.950 . S
C1677 C1676 1.414 . S
C1677 C1678 1.374 . S
C1678 H1652 0.950 . S
C1678 C1674 1.385 . S
C1678 C1677 1.374 . S
C1679 C1676 1.499 . S
C1679 C1680 1.373 . S
C1679 C1681 1.389 . S
C1680 H1653 0.950 . S
C1680 C1666 1.377 . S
C1680 C1679 1.373 . S
C1681 C1665 1.377 . S
C1681 C1679 1.389 . S
C1681 C1682 1.524 . S
C1682 C1681 1.524 . S
C1682 C1683 1.397 . S
C1682 C1687 1.363 . S
C1683 H1654 0.950 . S
C1683 C1682 1.397 . S
C1683 C1684 1.334 . S
C1684 H1655 0.950 . S
C1684 C1683 1.334 . S
C1684 C1685 1.287 . S
C1685 C1684 1.287 . S
C1685 C1686 1.524 . S
C1685 H1688 0.999 . S
C1686 H1656 0.950 . S
C1686 C1685 1.524 . S
C1686 C1687 1.415 . S
C1687 H1657 0.950 . S
C1687 C1682 1.363 . S
C1687 C1686 1.415 . S
H1688 C1685 0.999 . S
H1689 C1670 0.913 . S
H1690 C1708 0.951 . S
H1691 C1710 0.951 . S
H1692 C1712 0.950 . S
H1693 C1713 0.950 . S
H1694 C1715 0.950 . S
H1695 C1718 0.950 . S
H1696 C1719 0.950 . S
H1697 C1721 0.950 . S
H1698 C1722 0.950 . S
H1699 C1723 0.951 . S
H1700 C1725 0.951 . S
H1701 C1727 0.950 . S
H1702 C1728 0.950 . S
H1703 C1730 0.950 . S
H1704 C1733 0.950 . S
H1705 C1734 0.950 . S
H1706 C1736 0.950 . S
H1707 C1737 0.950 . S
C1708 H1690 0.951 . S
C1708 C1709 1.366 . S
C1708 C1710 1.388 . S
C1709 C1708 1.366 . S
C1709 C1713 1.385 . S
C1710 H1691 0.951 . S
C1710 C1708 1.388 . S
C1710 C1711 1.366 . S
C1711 C1710 1.366 . S
C1711 C1712 1.414 . S
C1711 C1714 1.499 1_545 S
C1712 H1692 0.950 . S
C1712 C1711 1.414 . S
C1712 C1713 1.374 . S
C1713 H1693 0.950 . S
C1713 C1709 1.385 . S
C1713 C1712 1.374 . S
C1714 C1711 1.499 1_565 S
C1714 C1715 1.373 . S
C1714 C1716 1.389 . S
C1715 H1694 0.950 . S
C1715 C1714 1.373 . S
C1715 C1731 1.377 . S
C1716 C1714 1.389 . S
C1716 C1717 1.524 1_565 S
C1716 C1730 1.377 . S
C1717 C1716 1.524 1_545 S
C1717 C1718 1.397 . S
C1717 C1722 1.363 1_545 S
C1718 H1695 0.950 . S
C1718 C1717 1.397 . S
C1718 C1719 1.334 . S
C1719 H1696 0.950 . S
C1719 C1718 1.334 . S
C1719 C1720 1.287 . S
C1720 C1719 1.287 . S
C1720 C1721 1.524 . S
C1720 H1739 0.913 . S
C1721 H1697 0.950 . S
C1721 C1720 1.524 . S
C1721 C1722 1.415 1_545 S
C1722 H1698 0.950 . S
C1722 C1717 1.363 1_565 S
C1722 C1721 1.415 1_565 S
C1723 H1699 0.951 . S
C1723 C1724 1.366 . S
C1723 C1725 1.388 . S
C1724 C1723 1.366 . S
C1724 C1728 1.385 . S
C1725 H1700 0.951 . S
C1725 C1723 1.388 . S
C1725 C1726 1.366 . S
C1726 C1725 1.366 . S
C1726 C1727 1.414 . S
C1726 C1729 1.499 . S
C1727 H1701 0.950 . S
C1727 C1726 1.414 . S
C1727 C1728 1.374 . S
C1728 H1702 0.950 . S
C1728 C1724 1.385 . S
C1728 C1727 1.374 . S
C1729 C1726 1.499 . S
C1729 C1730 1.373 . S
C1729 C1731 1.389 . S
C1730 H1703 0.950 . S
C1730 C1716 1.377 . S
C1730 C1729 1.373 . S
C1731 C1715 1.377 . S
C1731 C1729 1.389 . S
C1731 C1732 1.524 . S
C1732 C1731 1.524 . S
C1732 C1733 1.397 . S
C1732 C1737 1.363 . S
C1733 H1704 0.950 . S
C1733 C1732 1.397 . S
C1733 C1734 1.334 . S
C1734 H1705 0.950 . S
C1734 C1733 1.334 . S
C1734 C1735 1.287 . S
C1735 C1734 1.287 . S
C1735 C1736 1.524 . S
C1735 H1738 0.999 . S
C1736 H1706 0.950 . S
C1736 C1735 1.524 . S
C1736 C1737 1.415 . S
C1737 H1707 0.950 . S
C1737 C1732 1.363 . S
C1737 C1736 1.415 . S
H1738 C1735 0.999 . S
H1739 C1720 0.913 . S
H1740 C1758 0.951 . S
H1741 C1760 0.951 . S
H1742 C1762 0.950 . S
H1743 C1763 0.950 . S
H1744 C1765 0.950 . S
H1745 C1768 0.950 . S
H1746 C1769 0.950 . S
H1747 C1771 0.950 . S
H1748 C1772 0.950 . S
H1749 C1773 0.951 . S
H1750 C1775 0.951 . S
H1751 C1777 0.950 . S
H1752 C1778 0.950 . S
H1753 C1780 0.950 . S
H1754 C1783 0.950 . S
H1755 C1784 0.950 . S
H1756 C1786 0.950 . S
H1757 C1787 0.950 . S
C1758 H1740 0.951 . S
C1758 C1759 1.366 . S
C1758 C1760 1.388 . S
C1759 C1758 1.366 . S
C1759 C1763 1.385 . S
C1760 H1741 0.951 . S
C1760 C1758 1.388 . S
C1760 C1761 1.366 . S
C1761 C1760 1.366 . S
C1761 C1762 1.414 . S
C1761 C1764 1.499 . S
C1762 H1742 0.950 . S
C1762 C1761 1.414 . S
C1762 C1763 1.374 . S
C1763 H1743 0.950 . S
C1763 C1759 1.385 . S
C1763 C1762 1.374 . S
C1764 C1761 1.499 . S
C1764 C1765 1.373 . S
C1764 C1766 1.389 . S
C1765 H1744 0.950 . S
C1765 C1764 1.373 . S
C1765 C1781 1.377 . S
C1766 C1764 1.389 . S
C1766 C1767 1.524 . S
C1766 C1780 1.377 . S
C1767 C1766 1.524 . S
C1767 C1768 1.397 . S
C1767 C1772 1.363 . S
C1768 H1745 0.950 . S
C1768 C1767 1.397 . S
C1768 C1769 1.334 . S
C1769 H1746 0.950 . S
C1769 C1768 1.334 . S
C1769 C1770 1.287 . S
C1770 C1769 1.287 . S
C1770 C1771 1.524 . S
C1770 H1789 0.913 . S
C1771 H1747 0.950 . S
C1771 C1770 1.524 . S
C1771 C1772 1.415 . S
C1772 H1748 0.950 . S
C1772 C1767 1.363 . S
C1772 C1771 1.415 . S
C1773 H1749 0.951 . S
C1773 C1774 1.366 . S
C1773 C1775 1.388 . S
C1774 C1773 1.366 . S
C1774 C1778 1.385 . S
C1775 H1750 0.951 . S
C1775 C1773 1.388 . S
C1775 C1776 1.366 . S
C1776 C1775 1.366 . S
C1776 C1777 1.414 . S
C1776 C1779 1.499 . S
C1777 H1751 0.950 . S
C1777 C1776 1.414 . S
C1777 C1778 1.374 . S
C1778 H1752 0.950 . S
C1778 C1774 1.385 . S
C1778 C1777 1.374 . S
C1779 C1776 1.499 . S
C1779 C1780 1.373 . S
C1779 C1781 1.389 . S
C1780 H1753 0.950 . S
C1780 C1766 1.377 . S
C1780 C1779 1.373 . S
C1781 C1765 1.377 . S
C1781 C1779 1.389 . S
C1781 C1782 1.524 . S
C1782 C1781 1.524 . S
C1782 C1783 1.397 . S
C1782 C1787 1.363 . S
C1783 H1754 0.950 . S
C1783 C1782 1.397 . S
C1783 C1784 1.334 . S
C1784 H1755 0.950 . S
C1784 C1783 1.334 . S
C1784 C1785 1.287 . S
C1785 C1784 1.287 . S
C1785 C1786 1.524 . S
C1785 H1788 0.999 . S
C1786 H1756 0.950 . S
C1786 C1785 1.524 . S
C1786 C1787 1.415 . S
C1787 H1757 0.950 . S
C1787 C1782 1.363 . S
C1787 C1786 1.415 . S
H1788 C1785 0.999 . S
H1789 C1770 0.913 . S
H1790 C1808 0.951 . S
H1791 C1810 0.951 . S
H1792 C1812 0.950 . S
H1793 C1813 0.950 . S
H1794 C1815 0.950 . S
H1795 C1818 0.950 . S
H1796 C1819 0.950 . S
H1797 C1821 0.950 . S
H1798 C1822 0.950 . S
H1799 C1823 0.951 . S
H1800 C1825 0.951 . S
H1801 C1827 0.950 . S
H1802 C1828 0.950 . S
H1803 C1830 0.950 . S
H1804 C1833 0.950 . S
H1805 C1834 0.950 . S
H1806 C1836 0.950 . S
H1807 C1837 0.950 . S
C1808 H1790 0.951 . S
C1808 C1809 1.366 . S
C1808 C1810 1.388 . S
C1809 C1808 1.366 . S
C1809 C1813 1.385 . S
C1810 H1791 0.951 . S
C1810 C1808 1.388 . S
C1810 C1811 1.366 . S
C1811 C1810 1.366 . S
C1811 C1812 1.414 . S
C1811 C1814 1.499 . S
C1812 H1792 0.950 . S
C1812 C1811 1.414 . S
C1812 C1813 1.374 . S
C1813 H1793 0.950 . S
C1813 C1809 1.385 . S
C1813 C1812 1.374 . S
C1814 C1811 1.499 . S
C1814 C1815 1.373 . S
C1814 C1816 1.389 . S
C1815 H1794 0.950 . S
C1815 C1814 1.373 . S
C1815 C1831 1.377 . S
C1816 C1814 1.389 . S
C1816 C1817 1.524 . S
C1816 C1830 1.377 . S
C1817 C1816 1.524 . S
C1817 C1818 1.397 . S
C1817 C1822 1.363 . S
C1818 H1795 0.950 . S
C1818 C1817 1.397 . S
C1818 C1819 1.334 . S
C1819 H1796 0.950 . S
C1819 C1818 1.334 . S
C1819 C1820 1.287 . S
C1820 C1819 1.287 . S
C1820 C1821 1.524 . S
C1820 H1839 0.913 . S
C1821 H1797 0.950 . S
C1821 C1820 1.524 . S
C1821 C1822 1.415 . S
C1822 H1798 0.950 . S
C1822 C1817 1.363 . S
C1822 C1821 1.415 . S
C1823 H1799 0.951 . S
C1823 C1824 1.366 . S
C1823 C1825 1.388 . S
C1824 C1823 1.366 . S
C1824 C1828 1.385 . S
C1825 H1800 0.951 . S
C1825 C1823 1.388 . S
C1825 C1826 1.366 . S
C1826 C1825 1.366 . S
C1826 C1827 1.414 . S
C1826 C1829 1.499 . S
C1827 H1801 0.950 . S
C1827 C1826 1.414 . S
C1827 C1828 1.374 . S
C1828 H1802 0.950 . S
C1828 C1824 1.385 . S
C1828 C1827 1.374 . S
C1829 C1826 1.499 . S
C1829 C1830 1.373 . S
C1829 C1831 1.389 . S
C1830 H1803 0.950 . S
C1830 C1816 1.377 . S
C1830 C1829 1.373 . S
C1831 C1815 1.377 . S
C1831 C1829 1.389 . S
C1831 C1832 1.524 . S
C1832 C1831 1.524 . S
C1832 C1833 1.397 . S
C1832 C1837 1.363 . S
C1833 H1804 0.950 . S
C1833 C1832 1.397 . S
C1833 C1834 1.334 . S
C1834 H1805 0.950 . S
C1834 C1833 1.334 . S
C1834 C1835 1.287 . S
C1835 C1834 1.287 . S
C1835 C1836 1.524 . S
C1835 H1838 0.999 . S
C1836 H1806 0.950 . S
C1836 C1835 1.524 . S
C1836 C1837 1.415 . S
C1837 H1807 0.950 . S
C1837 C1832 1.363 . S
C1837 C1836 1.415 . S
H1838 C1835 0.999 . S
H1839 C1820 0.913 . S
H1840 C1858 0.951 . S
H1841 C1860 0.951 . S
H1842 C1862 0.950 . S
H1843 C1863 0.950 . S
H1844 C1865 0.950 . S
H1845 C1868 0.950 . S
H1846 C1869 0.950 . S
H1847 C1871 0.950 . S
H1848 C1872 0.950 . S
H1849 C1873 0.951 . S
H1850 C1875 0.951 . S
H1851 C1877 0.950 . S
H1852 C1878 0.950 . S
H1853 C1880 0.950 . S
H1854 C1883 0.950 . S
H1855 C1884 0.950 . S
H1856 C1886 0.950 . S
H1857 C1887 0.950 . S
C1858 H1840 0.951 . S
C1858 C1859 1.366 . S
C1858 C1860 1.388 . S
C1859 C1858 1.366 . S
C1859 C1863 1.385 . S
C1860 H1841 0.951 . S
C1860 C1858 1.388 . S
C1860 C1861 1.366 . S
C1861 C1860 1.366 . S
C1861 C1862 1.414 . S
C1861 C1864 1.499 . S
C1862 H1842 0.950 . S
C1862 C1861 1.414 . S
C1862 C1863 1.374 . S
C1863 H1843 0.950 . S
C1863 C1859 1.385 . S
C1863 C1862 1.374 . S
C1864 C1861 1.499 . S
C1864 C1865 1.373 . S
C1864 C1866 1.389 . S
C1865 H1844 0.950 . S
C1865 C1864 1.373 . S
C1865 C1881 1.377 . S
C1866 C1864 1.389 . S
C1866 C1867 1.524 . S
C1866 C1880 1.377 . S
C1867 C1866 1.524 . S
C1867 C1868 1.397 . S
C1867 C1872 1.363 . S
C1868 H1845 0.950 . S
C1868 C1867 1.397 . S
C1868 C1869 1.334 . S
C1869 H1846 0.950 . S
C1869 C1868 1.334 . S
C1869 C1870 1.287 . S
C1870 C1869 1.287 . S
C1870 C1871 1.524 . S
C1870 H1889 0.913 . S
C1871 H1847 0.950 . S
C1871 C1870 1.524 . S
C1871 C1872 1.415 . S
C1872 H1848 0.950 . S
C1872 C1867 1.363 . S
C1872 C1871 1.415 . S
C1873 H1849 0.951 . S
C1873 C1874 1.366 . S
C1873 C1875 1.388 . S
C1874 C1873 1.366 . S
C1874 C1878 1.385 . S
C1875 H1850 0.951 . S
C1875 C1873 1.388 . S
C1875 C1876 1.366 . S
C1876 C1875 1.366 . S
C1876 C1877 1.414 . S
C1876 C1879 1.499 . S
C1877 H1851 0.950 . S
C1877 C1876 1.414 . S
C1877 C1878 1.374 . S
C1878 H1852 0.950 . S
C1878 C1874 1.385 . S
C1878 C1877 1.374 . S
C1879 C1876 1.499 . S
C1879 C1880 1.373 . S
C1879 C1881 1.389 . S
C1880 H1853 0.950 . S
C1880 C1866 1.377 . S
C1880 C1879 1.373 . S
C1881 C1865 1.377 . S
C1881 C1879 1.389 . S
C1881 C1882 1.524 . S
C1882 C1881 1.524 . S
C1882 C1883 1.397 . S
C1882 C1887 1.363 . S
C1883 H1854 0.950 . S
C1883 C1882 1.397 . S
C1883 C1884 1.334 . S
C1884 H1855 0.950 . S
C1884 C1883 1.334 . S
C1884 C1885 1.287 . S
C1885 C1884 1.287 . S
C1885 C1886 1.524 . S
C1885 H1888 0.999 . S
C1886 H1856 0.950 . S
C1886 C1885 1.524 . S
C1886 C1887 1.415 . S
C1887 H1857 0.950 . S
C1887 C1882 1.363 . S
C1887 C1886 1.415 . S
H1888 C1885 0.999 . S
H1889 C1870 0.913 . S
H1890 C1908 0.951 . S
H1891 C1910 0.951 . S
H1892 C1912 0.950 . S
H1893 C1913 0.950 . S
H1894 C1915 0.950 . S
H1895 C1918 0.950 . S
H1896 C1919 0.950 . S
H1897 C1921 0.950 . S
H1898 C1922 0.950 . S
H1899 C1923 0.951 . S
H1900 C1925 0.951 . S
H1901 C1927 0.950 . S
H1902 C1928 0.950 . S
H1903 C1930 0.950 . S
H1904 C1933 0.950 . S
H1905 C1934 0.950 . S
H1906 C1936 0.950 . S
H1907 C1937 0.950 . S
C1908 H1890 0.951 . S
C1908 C1909 1.366 . S
C1908 C1910 1.388 . S
C1909 C1908 1.366 . S
C1909 C1913 1.385 . S
C1910 H1891 0.951 . S
C1910 C1908 1.388 . S
C1910 C1911 1.366 . S
C1911 C1910 1.366 . S
C1911 C1912 1.414 . S
C1911 C1914 1.499 . S
C1912 H1892 0.950 . S
C1912 C1911 1.414 . S
C1912 C1913 1.374 . S
C1913 H1893 0.950 . S
C1913 C1909 1.385 . S
C1913 C1912 1.374 . S
C1914 C1911 1.499 . S
C1914 C1915 1.373 . S
C1914 C1916 1.389 . S
C1915 H1894 0.950 . S
C1915 C1914 1.373 . S
C1915 C1931 1.377 . S
C1916 C1914 1.389 . S
C1916 C1917 1.524 . S
C1916 C1930 1.377 . S
C1917 C1916 1.524 . S
C1917 C1918 1.397 . S
C1917 C1922 1.363 . S
C1918 H1895 0.950 . S
C1918 C1917 1.397 . S
C1918 C1919 1.334 . S
C1919 H1896 0.950 . S
C1919 C1918 1.334 . S
C1919 C1920 1.287 . S
C1920 C1919 1.287 . S
C1920 C1921 1.524 . S
C1920 H1939 0.913 . S
C1921 H1897 0.950 . S
C1921 C1920 1.524 . S
C1921 C1922 1.415 . S
C1922 H1898 0.950 . S
C1922 C1917 1.363 . S
C1922 C1921 1.415 . S
C1923 H1899 0.951 . S
C1923 C1924 1.366 . S
C1923 C1925 1.388 . S
C1924 C1923 1.366 . S
C1924 C1928 1.385 . S
C1925 H1900 0.951 . S
C1925 C1923 1.388 . S
C1925 C1926 1.366 . S
C1926 C1925 1.366 . S
C1926 C1927 1.414 . S
C1926 C1929 1.499 . S
C1927 H1901 0.950 . S
C1927 C1926 1.414 . S
C1927 C1928 1.374 . S
C1928 H1902 0.950 . S
C1928 C1924 1.385 . S
C1928 C1927 1.374 . S
C1929 C1926 1.499 . S
C1929 C1930 1.373 . S
C1929 C1931 1.389 . S
C1930 H1903 0.950 . S
C1930 C1916 1.377 . S
C1930 C1929 1.373 . S
C1931 C1915 1.377 . S
C1931 C1929 1.389 . S
C1931 C1932 1.524 . S
C1932 C1931 1.524 . S
C1932 C1933 1.397 . S
C1932 C1937 1.363 . S
C1933 H1904 0.950 . S
C1933 C1932 1.397 . S
C1933 C1934 1.334 . S
C1934 H1905 0.950 . S
C1934 C1933 1.334 . S
C1934 C1935 1.287 . S
C1935 C1934 1.287 . S
C1935 C1936 1.524 . S
C1935 H1938 0.999 . S
C1936 H1906 0.950 . S
C1936 C1935 1.524 . S
C1936 C1937 1.415 . S
C1937 H1907 0.950 . S
C1937 C1932 1.363 . S
C1937 C1936 1.415 . S
H1938 C1935 0.999 . S
H1939 C1920 0.913 . S
H1940 C1958 0.951 . S
H1941 C1960 0.951 . S
H1942 C1962 0.950 . S
H1943 C1963 0.950 . S
H1944 C1965 0.950 . S
H1945 C1968 0.950 . S
H1946 C1969 0.950 . S
H1947 C1971 0.950 . S
H1948 C1972 0.950 . S
H1949 C1973 0.951 . S
H1950 C1975 0.951 . S
H1951 C1977 0.950 . S
H1952 C1978 0.950 . S
H1953 C1980 0.950 . S
H1954 C1983 0.950 . S
H1955 C1984 0.950 . S
H1956 C1986 0.950 . S
H1957 C1987 0.950 . S
C1958 H1940 0.951 . S
C1958 C1959 1.366 . S
C1958 C1960 1.388 . S
C1959 C1958 1.366 . S
C1959 C1963 1.385 . S
C1960 H1941 0.951 . S
C1960 C1958 1.388 . S
C1960 C1961 1.366 . S
C1961 C1960 1.366 . S
C1961 C1962 1.414 . S
C1961 C1964 1.499 . S
C1962 H1942 0.950 . S
C1962 C1961 1.414 . S
C1962 C1963 1.374 . S
C1963 H1943 0.950 . S
C1963 C1959 1.385 . S
C1963 C1962 1.374 . S
C1964 C1961 1.499 . S
C1964 C1965 1.373 . S
C1964 C1966 1.389 . S
C1965 H1944 0.950 . S
C1965 C1964 1.373 . S
C1965 C1981 1.377 . S
C1966 C1964 1.389 . S
C1966 C1967 1.524 . S
C1966 C1980 1.377 . S
C1967 C1966 1.524 . S
C1967 C1968 1.397 . S
C1967 C1972 1.363 . S
C1968 H1945 0.950 . S
C1968 C1967 1.397 . S
C1968 C1969 1.334 . S
C1969 H1946 0.950 . S
C1969 C1968 1.334 . S
C1969 C1970 1.287 . S
C1970 C1969 1.287 . S
C1970 C1971 1.524 . S
C1970 H1989 0.913 . S
C1971 H1947 0.950 . S
C1971 C1970 1.524 . S
C1971 C1972 1.415 . S
C1972 H1948 0.950 . S
C1972 C1967 1.363 . S
C1972 C1971 1.415 . S
C1973 H1949 0.951 . S
C1973 C1974 1.366 . S
C1973 C1975 1.388 . S
C1974 C1973 1.366 . S
C1974 C1978 1.385 . S
C1975 H1950 0.951 . S
C1975 C1973 1.388 . S
C1975 C1976 1.366 . S
C1976 C1975 1.366 . S
C1976 C1977 1.414 . S
C1976 C1979 1.499 . S
C1977 H1951 0.950 . S
C1977 C1976 1.414 . S
C1977 C1978 1.374 . S
C1978 H1952 0.950 . S
C1978 C1974 1.385 . S
C1978 C1977 1.374 . S
C1979 C1976 1.499 . S
C1979 C1980 1.373 . S
C1979 C1981 1.389 . S
C1980 H1953 0.950 . S
C1980 C1966 1.377 . S
C1980 C1979 1.373 . S
C1981 C1965 1.377 . S
C1981 C1979 1.389 . S
C1981 C1982 1.524 . S
C1982 C1981 1.524 . S
C1982 C1983 1.397 . S
C1982 C1987 1.363 . S
C1983 H1954 0.950 . S
C1983 C1982 1.397 . S
C1983 C1984 1.334 . S
C1984 H1955 0.950 . S
C1984 C1983 1.334 . S
C1984 C1985 1.287 . S
C1985 C1984 1.287 . S
C1985 C1986 1.524 . S
C1985 H1988 0.999 . S
C1986 H1956 0.950 . S
C1986 C1985 1.524 . S
C1986 C1987 1.415 . S
C1987 H1957 0.950 . S
C1987 C1982 1.363 . S
C1987 C1986 1.415 . S
H1988 C1985 0.999 . S
H1989 C1970 0.913 . S
H1990 C2008 0.951 . S
H1991 C2010 0.951 . S
H1992 C2012 0.950 . S
H1993 C2013 0.950 . S
H1994 C2015 0.950 . S
H1995 C2018 0.950 . S
H1996 C2019 0.950 . S
H1997 C2021 0.950 . S
H1998 C2022 0.950 . S
H1999 C2023 0.951 . S
H2000 C2025 0.951 . S
H2001 C2027 0.950 . S
H2002 C2028 0.950 . S
H2003 C2030 0.950 . S
H2004 C2033 0.950 . S
H2005 C2034 0.950 . S
H2006 C2036 0.950 . S
H2007 C2037 0.950 . S
C2008 H1990 0.951 . S
C2008 C2009 1.366 . S
C2008 C2010 1.388 . S
C2009 C2008 1.366 . S
C2009 C2013 1.385 . S
C2010 H1991 0.951 . S
C2010 C2008 1.388 . S
C2010 C2011 1.366 . S
C2011 C2010 1.366 . S
C2011 C2012 1.414 . S
C2011 C2014 1.499 . S
C2012 H1992 0.950 . S
C2012 C2011 1.414 . S
C2012 C2013 1.374 . S
C2013 H1993 0.950 . S
C2013 C2009 1.385 . S
C2013 C2012 1.374 . S
C2014 C2011 1.499 . S
C2014 C2015 1.373 . S
C2014 C2016 1.389 . S
C2015 H1994 0.950 . S
C2015 C2014 1.373 . S
C2015 C2031 1.377 . S
C2016 C2014 1.389 . S
C2016 C2017 1.524 . S
C2016 C2030 1.377 . S
C2017 C2016 1.524 . S
C2017 C2018 1.397 . S
C2017 C2022 1.363 . S
C2018 H1995 0.950 . S
C2018 C2017 1.397 . S
C2018 C2019 1.334 . S
C2019 H1996 0.950 . S
C2019 C2018 1.334 . S
C2019 C2020 1.287 . S
C2020 C2019 1.287 . S
C2020 C2021 1.524 . S
C2020 H2039 0.913 . S
C2021 H1997 0.950 . S
C2021 C2020 1.524 . S
C2021 C2022 1.415 . S
C2022 H1998 0.950 . S
C2022 C2017 1.363 . S
C2022 C2021 1.415 . S
C2023 H1999 0.951 . S
C2023 C2024 1.366 . S
C2023 C2025 1.388 . S
C2024 C2023 1.366 . S
C2024 C2028 1.385 . S
C2025 H2000 0.951 . S
C2025 C2023 1.388 . S
C2025 C2026 1.366 . S
C2026 C2025 1.366 . S
C2026 C2027 1.414 . S
C2026 C2029 1.499 . S
C2027 H2001 0.950 . S
C2027 C2026 1.414 . S
C2027 C2028 1.374 . S
C2028 H2002 0.950 . S
C2028 C2024 1.385 . S
C2028 C2027 1.374 . S
C2029 C2026 1.499 . S
C2029 C2030 1.373 . S
C2029 C2031 1.389 . S
C2030 H2003 0.950 . S
C2030 C2016 1.377 . S
C2030 C2029 1.373 . S
C2031 C2015 1.377 . S
C2031 C2029 1.389 . S
C2031 C2032 1.524 . S
C2032 C2031 1.524 . S
C2032 C2033 1.397 . S
C2032 C2037 1.363 . S
C2033 H2004 0.950 . S
C2033 C2032 1.397 . S
C2033 C2034 1.334 . S
C2034 H2005 0.950 . S
C2034 C2033 1.334 . S
C2034 C2035 1.287 . S
C2035 C2034 1.287 . S
C2035 C2036 1.524 . S
C2035 H2038 0.999 . S
C2036 H2006 0.950 . S
C2036 C2035 1.524 . S
C2036 C2037 1.415 . S
C2037 H2007 0.950 . S
C2037 C2032 1.363 . S
C2037 C2036 1.415 . S
H2038 C2035 0.999 . S
H2039 C2020 0.913 . S
H2040 C2058 0.951 . S
H2041 C2060 0.951 . S
H2042 C2062 0.950 . S
H2043 C2063 0.950 . S
H2044 C2065 0.950 . S
H2045 C2068 0.950 1_545 S
H2046 C2069 0.950 . S
H2047 C2071 0.950 . S
H2048 C2072 0.950 . S
H2049 C2073 0.951 . S
H2050 C2075 0.951 . S
H2051 C2077 0.950 . S
H2052 C2078 0.950 . S
H2053 C2080 0.950 . S
H2054 C2083 0.950 . S
H2055 C2084 0.950 . S
H2056 C2086 0.950 . S
H2057 C2087 0.947 . S
C2058 H2040 0.951 . S
C2058 C2059 1.366 . S
C2058 C2060 1.388 . S
C2059 C2058 1.366 . S
C2059 C2063 1.385 . S
C2060 H2041 0.951 . S
C2060 C2058 1.388 . S
C2060 C2061 1.366 . S
C2061 C2060 1.366 . S
C2061 C2062 1.414 . S
C2061 C2064 1.499 . S
C2062 H2042 0.950 . S
C2062 C2061 1.414 . S
C2062 C2063 1.374 . S
C2063 H2043 0.950 . S
C2063 C2059 1.385 . S
C2063 C2062 1.374 . S
C2064 C2061 1.499 . S
C2064 C2065 1.373 . S
C2064 C2066 1.389 1_545 S
C2065 H2044 0.950 . S
C2065 C2064 1.373 . S
C2065 C2081 1.377 1_545 S
C2066 C2064 1.389 1_565 S
C2066 C2067 1.524 . S
C2066 C2080 1.377 . S
C2067 C2066 1.524 . S
C2067 C2068 1.397 . S
C2067 C2072 1.363 . S
C2068 H2045 0.950 1_565 S
C2068 C2067 1.397 . S
C2068 C2069 1.334 . S
C2069 H2046 0.950 . S
C2069 C2068 1.334 . S
C2069 C2070 1.287 . S
C2070 C2069 1.287 . S
C2070 C2071 1.524 . S
C2070 H2089 0.913 . S
C2071 H2047 0.950 . S
C2071 C2070 1.524 . S
C2071 C2072 1.415 . S
C2072 H2048 0.950 . S
C2072 C2067 1.363 . S
C2072 C2071 1.415 . S
C2073 H2049 0.951 . S
C2073 C2074 1.366 . S
C2073 C2075 1.388 . S
C2074 C2073 1.366 . S
C2074 C2078 1.385 . S
C2075 H2050 0.951 . S
C2075 C2073 1.388 . S
C2075 C2076 1.366 . S
C2076 C2075 1.366 . S
C2076 C2077 1.414 . S
C2076 C2079 1.499 . S
C2077 H2051 0.950 . S
C2077 C2076 1.414 . S
C2077 C2078 1.374 . S
C2078 H2052 0.950 . S
C2078 C2074 1.385 . S
C2078 C2077 1.374 . S
C2079 C2076 1.499 . S
C2079 C2080 1.373 . S
C2079 C2081 1.389 . S
C2080 H2053 0.950 . S
C2080 C2066 1.377 . S
C2080 C2079 1.373 . S
C2081 C2065 1.377 1_565 S
C2081 C2079 1.389 . S
C2081 C2082 1.524 . S
C2082 C2081 1.524 . S
C2082 C2083 1.397 . S
C2082 C2087 1.368 1_565 S
C2083 H2054 0.950 . S
C2083 C2082 1.397 . S
C2083 C2084 1.334 . S
C2084 H2055 0.950 . S
C2084 C2083 1.334 . S
C2084 C2085 1.287 . S
C2085 C2084 1.287 . S
C2085 C2086 1.524 1_565 S
C2085 H2088 0.999 . S
C2086 H2056 0.950 . S
C2086 C2085 1.524 1_545 S
C2086 C2087 1.415 . S
C2087 H2057 0.947 . S
C2087 C2082 1.368 1_545 S
C2087 C2086 1.415 . S
H2088 C2085 0.999 . S
H2089 C2070 0.913 . S
H2090 C2108 0.951 . S
H2091 C2110 0.951 . S
H2092 C2112 0.950 . S
H2093 C2113 0.950 . S
H2094 C2115 0.950 1_655 S
H2095 C2118 0.950 . S
H2096 C2119 0.950 . S
H2097 C2121 0.950 . S
H2098 C2122 0.950 . S
H2099 C2123 0.951 . S
H2100 C2125 0.951 . S
H2101 C2127 0.950 . S
H2102 C2128 0.950 . S
H2103 C2130 0.950 . S
H2104 C2133 0.950 . S
H2105 C2134 0.950 . S
H2106 C2136 0.950 . S
H2107 C2137 0.950 1_655 S
C2108 H2090 0.951 . S
C2108 C2109 1.366 . S
C2108 C2110 1.388 . S
C2109 C2108 1.366 . S
C2109 C2113 1.385 . S
C2110 H2091 0.951 . S
C2110 C2108 1.388 . S
C2110 C2111 1.366 . S
C2111 C2110 1.366 . S
C2111 C2112 1.414 . S
C2111 C2114 1.499 1_655 S
C2112 H2092 0.950 . S
C2112 C2111 1.414 . S
C2112 C2113 1.374 . S
C2113 H2093 0.950 . S
C2113 C2109 1.385 . S
C2113 C2112 1.374 . S
C2114 C2111 1.499 1_455 S
C2114 C2115 1.373 . S
C2114 C2116 1.389 . S
C2115 H2094 0.950 1_455 S
C2115 C2114 1.373 . S
C2115 C2131 1.377 . S
C2116 C2114 1.389 . S
C2116 C2117 1.524 . S
C2116 C2130 1.377 . S
C2117 C2116 1.524 . S
C2117 C2118 1.397 . S
C2117 C2122 1.363 . S
C2118 H2095 0.950 . S
C2118 C2117 1.397 . S
C2118 C2119 1.334 . S
C2119 H2096 0.950 . S
C2119 C2118 1.334 . S
C2119 C2120 1.287 . S
C2120 C2119 1.287 . S
C2120 C2121 1.524 . S
C2120 H2139 0.913 . S
C2121 H2097 0.950 . S
C2121 C2120 1.524 . S
C2121 C2122 1.415 . S
C2122 H2098 0.950 . S
C2122 C2117 1.363 . S
C2122 C2121 1.415 . S
C2123 H2099 0.951 . S
C2123 C2124 1.366 . S
C2123 C2125 1.388 . S
C2124 C2123 1.366 . S
C2124 C2128 1.385 . S
C2125 H2100 0.951 . S
C2125 C2123 1.388 . S
C2125 C2126 1.366 . S
C2126 C2125 1.366 . S
C2126 C2127 1.414 . S
C2126 C2129 1.499 . S
C2127 H2101 0.950 . S
C2127 C2126 1.414 . S
C2127 C2128 1.374 . S
C2128 H2102 0.950 . S
C2128 C2124 1.385 . S
C2128 C2127 1.374 . S
C2129 C2126 1.499 . S
C2129 C2130 1.373 . S
C2129 C2131 1.389 . S
C2130 H2103 0.950 . S
C2130 C2116 1.377 . S
C2130 C2129 1.373 . S
C2131 C2115 1.377 . S
C2131 C2129 1.389 . S
C2131 C2132 1.524 . S
C2132 C2131 1.524 . S
C2132 C2133 1.397 . S
C2132 C2137 1.363 . S
C2133 H2104 0.950 . S
C2133 C2132 1.397 . S
C2133 C2134 1.334 . S
C2134 H2105 0.950 . S
C2134 C2133 1.334 . S
C2134 C2135 1.287 . S
C2135 C2134 1.287 . S
C2135 C2136 1.524 1_455 S
C2135 H2138 0.991 . S
C2136 H2106 0.950 . S
C2136 C2135 1.524 1_655 S
C2136 C2137 1.415 1_655 S
C2137 H2107 0.950 1_455 S
C2137 C2132 1.363 . S
C2137 C2136 1.415 1_455 S
H2138 C2135 0.991 . S
H2139 C2120 0.913 . S
H2140 C2158 0.951 . S
H2141 C2160 0.951 . S
H2142 C2162 0.950 . S
H2143 C2163 0.950 . S
H2144 C2165 0.950 . S
H2145 C2168 0.950 . S
H2146 C2169 0.950 . S
H2147 C2171 0.950 . S
H2148 C2172 0.950 . S
H2149 C2173 0.951 . S
H2150 C2175 0.951 . S
H2151 C2177 0.950 . S
H2152 C2178 0.950 . S
H2153 C2180 0.950 . S
H2154 C2183 0.950 . S
H2155 C2184 0.950 . S
H2156 C2186 0.950 . S
H2157 C2187 0.950 . S
C2158 H2140 0.951 . S
C2158 C2159 1.366 . S
C2158 C2160 1.388 . S
C2159 C2158 1.366 . S
C2159 C2163 1.385 . S
C2160 H2141 0.951 . S
C2160 C2158 1.388 . S
C2160 C2161 1.366 . S
C2161 C2160 1.366 . S
C2161 C2162 1.414 . S
C2161 C2164 1.499 . S
C2162 H2142 0.950 . S
C2162 C2161 1.414 . S
C2162 C2163 1.374 . S
C2163 H2143 0.950 . S
C2163 C2159 1.385 . S
C2163 C2162 1.374 . S
C2164 C2161 1.499 . S
C2164 C2165 1.373 . S
C2164 C2166 1.389 . S
C2165 H2144 0.950 . S
C2165 C2164 1.373 . S
C2165 C2181 1.377 . S
C2166 C2164 1.389 . S
C2166 C2167 1.524 . S
C2166 C2180 1.377 . S
C2167 C2166 1.524 . S
C2167 C2168 1.397 . S
C2167 C2172 1.363 . S
C2168 H2145 0.950 . S
C2168 C2167 1.397 . S
C2168 C2169 1.334 . S
C2169 H2146 0.950 . S
C2169 C2168 1.334 . S
C2169 C2170 1.287 . S
C2170 C2169 1.287 . S
C2170 C2171 1.524 . S
C2170 H2189 0.913 . S
C2171 H2147 0.950 . S
C2171 C2170 1.524 . S
C2171 C2172 1.415 . S
C2172 H2148 0.950 . S
C2172 C2167 1.363 . S
C2172 C2171 1.415 . S
C2173 H2149 0.951 . S
C2173 C2174 1.366 . S
C2173 C2175 1.388 . S
C2174 C2173 1.366 . S
C2174 C2178 1.385 . S
C2175 H2150 0.951 . S
C2175 C2173 1.388 . S
C2175 C2176 1.366 . S
C2176 C2175 1.366 . S
C2176 C2177 1.414 . S
C2176 C2179 1.499 . S
C2177 H2151 0.950 . S
C2177 C2176 1.414 . S
C2177 C2178 1.374 . S
C2178 H2152 0.950 . S
C2178 C2174 1.385 . S
C2178 C2177 1.374 . S
C2179 C2176 1.499 . S
C2179 C2180 1.373 . S
C2179 C2181 1.389 . S
C2180 H2153 0.950 . S
C2180 C2166 1.377 . S
C2180 C2179 1.373 . S
C2181 C2165 1.377 . S
C2181 C2179 1.389 . S
C2181 C2182 1.524 . S
C2182 C2181 1.524 . S
C2182 C2183 1.397 . S
C2182 C2187 1.363 . S
C2183 H2154 0.950 . S
C2183 C2182 1.397 . S
C2183 C2184 1.334 . S
C2184 H2155 0.950 . S
C2184 C2183 1.334 . S
C2184 C2185 1.287 . S
C2185 C2184 1.287 . S
C2185 C2186 1.524 . S
C2185 H2188 0.999 . S
C2186 H2156 0.950 . S
C2186 C2185 1.524 . S
C2186 C2187 1.415 . S
C2187 H2157 0.950 . S
C2187 C2182 1.363 . S
C2187 C2186 1.415 . S
H2188 C2185 0.999 . S
H2189 C2170 0.913 . S
H2190 C2208 0.951 . S
H2191 C2210 0.951 . S
H2192 C2212 0.950 . S
H2193 C2213 0.950 . S
H2194 C2215 0.950 . S
H2195 C2218 0.950 . S
H2196 C2219 0.950 . S
H2197 C2221 0.950 . S
H2198 C2222 0.950 . S
H2199 C2223 0.951 . S
H2200 C2225 0.951 . S
H2201 C2227 0.950 . S
H2202 C2228 0.950 . S
H2203 C2230 0.950 . S
H2204 C2233 0.950 . S
H2205 C2234 0.950 . S
H2206 C2236 0.950 . S
H2207 C2237 0.950 . S
C2208 H2190 0.951 . S
C2208 C2209 1.366 . S
C2208 C2210 1.388 . S
C2209 C2208 1.366 . S
C2209 C2213 1.385 . S
C2210 H2191 0.951 . S
C2210 C2208 1.388 . S
C2210 C2211 1.366 . S
C2211 C2210 1.366 . S
C2211 C2212 1.414 . S
C2211 C2214 1.499 . S
C2212 H2192 0.950 . S
C2212 C2211 1.414 . S
C2212 C2213 1.374 . S
C2213 H2193 0.950 . S
C2213 C2209 1.385 . S
C2213 C2212 1.374 . S
C2214 C2211 1.499 . S
C2214 C2215 1.373 . S
C2214 C2216 1.389 . S
C2215 H2194 0.950 . S
C2215 C2214 1.373 . S
C2215 C2231 1.377 . S
C2216 C2214 1.389 . S
C2216 C2217 1.524 . S
C2216 C2230 1.377 . S
C2217 C2216 1.524 . S
C2217 C2218 1.397 . S
C2217 C2222 1.363 . S
C2218 H2195 0.950 . S
C2218 C2217 1.397 . S
C2218 C2219 1.334 . S
C2219 H2196 0.950 . S
C2219 C2218 1.334 . S
C2219 C2220 1.287 . S
C2220 C2219 1.287 . S
C2220 C2221 1.524 . S
C2220 H2239 0.913 . S
C2221 H2197 0.950 . S
C2221 C2220 1.524 . S
C2221 C2222 1.415 . S
C2222 H2198 0.950 . S
C2222 C2217 1.363 . S
C2222 C2221 1.415 . S
C2223 H2199 0.951 . S
C2223 C2224 1.366 . S
C2223 C2225 1.388 . S
C2224 C2223 1.366 . S
C2224 C2228 1.385 . S
C2225 H2200 0.951 . S
C2225 C2223 1.388 . S
C2225 C2226 1.366 . S
C2226 C2225 1.366 . S
C2226 C2227 1.414 . S
C2226 C2229 1.499 . S
C2227 H2201 0.950 . S
C2227 C2226 1.414 . S
C2227 C2228 1.374 . S
C2228 H2202 0.950 . S
C2228 C2224 1.385 . S
C2228 C2227 1.374 . S
C2229 C2226 1.499 . S
C2229 C2230 1.373 . S
C2229 C2231 1.389 . S
C2230 H2203 0.950 . S
C2230 C2216 1.377 . S
C2230 C2229 1.373 . S
C2231 C2215 1.377 . S
C2231 C2229 1.389 . S
C2231 C2232 1.524 . S
C2232 C2231 1.524 . S
C2232 C2233 1.397 . S
C2232 C2237 1.363 . S
C2233 H2204 0.950 . S
C2233 C2232 1.397 . S
C2233 C2234 1.334 . S
C2234 H2205 0.950 . S
C2234 C2233 1.334 . S
C2234 C2235 1.287 . S
C2235 C2234 1.287 . S
C2235 C2236 1.524 . S
C2235 H2238 0.999 . S
C2236 H2206 0.950 . S
C2236 C2235 1.524 . S
C2236 C2237 1.415 . S
C2237 H2207 0.950 . S
C2237 C2232 1.363 . S
C2237 C2236 1.415 . S
H2238 C2235 0.999 . S
H2239 C2220 0.913 . S
H2240 C2258 0.951 . S
H2241 C2260 0.951 . S
H2242 C2262 0.950 . S
H2243 C2263 0.950 . S
H2244 C2265 0.950 . S
H2245 C2268 0.950 . S
H2246 C2269 0.950 . S
H2247 C2271 0.950 . S
H2248 C2272 0.950 . S
H2249 C2273 0.951 . S
H2250 C2275 0.951 . S
H2251 C2277 0.950 . S
H2252 C2278 0.950 . S
H2253 C2280 0.950 . S
H2254 C2283 0.950 . S
H2255 C2284 0.950 . S
H2256 C2286 0.950 . S
H2257 C2287 0.950 . S
C2258 H2240 0.951 . S
C2258 C2259 1.366 . S
C2258 C2260 1.388 . S
C2259 C2258 1.366 . S
C2259 C2263 1.385 . S
C2260 H2241 0.951 . S
C2260 C2258 1.388 . S
C2260 C2261 1.366 . S
C2261 C2260 1.366 . S
C2261 C2262 1.414 . S
C2261 C2264 1.499 . S
C2262 H2242 0.950 . S
C2262 C2261 1.414 . S
C2262 C2263 1.374 . S
C2263 H2243 0.950 . S
C2263 C2259 1.385 . S
C2263 C2262 1.374 . S
C2264 C2261 1.499 . S
C2264 C2265 1.373 . S
C2264 C2266 1.389 . S
C2265 H2244 0.950 . S
C2265 C2264 1.373 . S
C2265 C2281 1.377 . S
C2266 C2264 1.389 . S
C2266 C2267 1.524 . S
C2266 C2280 1.377 . S
C2267 C2266 1.524 . S
C2267 C2268 1.397 . S
C2267 C2272 1.363 . S
C2268 H2245 0.950 . S
C2268 C2267 1.397 . S
C2268 C2269 1.334 . S
C2269 H2246 0.950 . S
C2269 C2268 1.334 . S
C2269 C2270 1.287 . S
C2270 C2269 1.287 . S
C2270 C2271 1.524 . S
C2270 H2289 0.913 . S
C2271 H2247 0.950 . S
C2271 C2270 1.524 . S
C2271 C2272 1.415 . S
C2272 H2248 0.950 . S
C2272 C2267 1.363 . S
C2272 C2271 1.415 . S
C2273 H2249 0.951 . S
C2273 C2274 1.366 . S
C2273 C2275 1.388 . S
C2274 C2273 1.366 . S
C2274 C2278 1.385 . S
C2275 H2250 0.951 . S
C2275 C2273 1.388 . S
C2275 C2276 1.366 . S
C2276 C2275 1.366 . S
C2276 C2277 1.414 . S
C2276 C2279 1.499 . S
C2277 H2251 0.950 . S
C2277 C2276 1.414 . S
C2277 C2278 1.374 . S
C2278 H2252 0.950 . S
C2278 C2274 1.385 . S
C2278 C2277 1.374 . S
C2279 C2276 1.499 . S
C2279 C2280 1.373 . S
C2279 C2281 1.389 . S
C2280 H2253 0.950 . S
C2280 C2266 1.377 . S
C2280 C2279 1.373 . S
C2281 C2265 1.377 . S
C2281 C2279 1.389 . S
C2281 C2282 1.524 . S
C2282 C2281 1.524 . S
C2282 C2283 1.397 . S
C2282 C2287 1.363 . S
C2283 H2254 0.950 . S
C2283 C2282 1.397 . S
C2283 C2284 1.334 . S
C2284 H2255 0.950 . S
C2284 C2283 1.334 . S
C2284 C2285 1.287 . S
C2285 C2284 1.287 . S
C2285 C2286 1.524 . S
C2285 H2288 0.999 . S
C2286 H2256 0.950 . S
C2286 C2285 1.524 . S
C2286 C2287 1.415 . S
C2287 H2257 0.950 . S
C2287 C2282 1.363 . S
C2287 C2286 1.415 . S
H2288 C2285 0.999 . S
H2289 C2270 0.913 . S
H2290 C2308 0.951 . S
H2291 C2310 0.951 . S
H2292 C2312 0.950 . S
H2293 C2313 0.950 . S
H2294 C2315 0.950 . S
H2295 C2318 0.950 . S
H2296 C2319 0.950 . S
H2297 C2321 0.950 . S
H2298 C2322 0.950 . S
H2299 C2323 0.951 . S
H2300 C2325 0.951 . S
H2301 C2327 0.950 . S
H2302 C2328 0.950 . S
H2303 C2330 0.950 . S
H2304 C2333 0.950 . S
H2305 C2334 0.950 . S
H2306 C2336 0.950 . S
H2307 C2337 0.950 . S
C2308 H2290 0.951 . S
C2308 C2309 1.366 . S
C2308 C2310 1.388 . S
C2309 C2308 1.366 . S
C2309 C2313 1.385 . S
C2310 H2291 0.951 . S
C2310 C2308 1.388 . S
C2310 C2311 1.366 . S
C2311 C2310 1.366 . S
C2311 C2312 1.414 . S
C2311 C2314 1.499 . S
C2312 H2292 0.950 . S
C2312 C2311 1.414 . S
C2312 C2313 1.374 . S
C2313 H2293 0.950 . S
C2313 C2309 1.385 . S
C2313 C2312 1.374 . S
C2314 C2311 1.499 . S
C2314 C2315 1.373 . S
C2314 C2316 1.389 . S
C2315 H2294 0.950 . S
C2315 C2314 1.373 . S
C2315 C2331 1.377 . S
C2316 C2314 1.389 . S
C2316 C2317 1.524 . S
C2316 C2330 1.377 . S
C2317 C2316 1.524 . S
C2317 C2318 1.397 . S
C2317 C2322 1.363 . S
C2318 H2295 0.950 . S
C2318 C2317 1.397 . S
C2318 C2319 1.334 . S
C2319 H2296 0.950 . S
C2319 C2318 1.334 . S
C2319 C2320 1.287 . S
C2320 C2319 1.287 . S
C2320 C2321 1.524 . S
C2320 H2339 0.913 . S
C2321 H2297 0.950 . S
C2321 C2320 1.524 . S
C2321 C2322 1.415 . S
C2322 H2298 0.950 . S
C2322 C2317 1.363 . S
C2322 C2321 1.415 . S
C2323 H2299 0.951 . S
C2323 C2324 1.366 . S
C2323 C2325 1.388 . S
C2324 C2323 1.366 . S
C2324 C2328 1.385 . S
C2325 H2300 0.951 . S
C2325 C2323 1.388 . S
C2325 C2326 1.366 . S
C2326 C2325 1.366 . S
C2326 C2327 1.414 . S
C2326 C2329 1.499 . S
C2327 H2301 0.950 . S
C2327 C2326 1.414 . S
C2327 C2328 1.374 . S
C2328 H2302 0.950 . S
C2328 C2324 1.385 . S
C2328 C2327 1.374 . S
C2329 C2326 1.499 . S
C2329 C2330 1.373 . S
C2329 C2331 1.389 . S
C2330 H2303 0.950 . S
C2330 C2316 1.377 . S
C2330 C2329 1.373 . S
C2331 C2315 1.377 . S
C2331 C2329 1.389 . S
C2331 C2332 1.524 . S
C2332 C2331 1.524 . S
C2332 C2333 1.397 . S
C2332 C2337 1.363 . S
C2333 H2304 0.950 . S
C2333 C2332 1.397 . S
C2333 C2334 1.334 . S
C2334 H2305 0.950 . S
C2334 C2333 1.334 . S
C2334 C2335 1.287 . S
C2335 C2334 1.287 . S
C2335 C2336 1.524 . S
C2335 H2338 0.999 . S
C2336 H2306 0.950 . S
C2336 C2335 1.524 . S
C2336 C2337 1.415 . S
C2337 H2307 0.950 . S
C2337 C2332 1.363 . S
C2337 C2336 1.415 . S
H2338 C2335 0.999 . S
H2339 C2320 0.913 . S
H2340 C2358 0.951 . S
H2341 C2360 0.951 . S
H2342 C2362 0.950 . S
H2343 C2363 0.950 . S
H2344 C2365 0.950 . S
H2345 C2368 0.950 . S
H2346 C2369 0.950 . S
H2347 C2371 0.950 . S
H2348 C2372 0.950 . S
H2349 C2373 0.951 . S
H2350 C2375 0.951 . S
H2351 C2377 0.950 . S
H2352 C2378 0.950 . S
H2353 C2380 0.950 . S
H2354 C2383 0.950 . S
H2355 C2384 0.950 . S
H2356 C2386 0.950 . S
H2357 C2387 0.950 . S
C2358 H2340 0.951 . S
C2358 C2359 1.366 . S
C2358 C2360 1.388 . S
C2359 C2358 1.366 . S
C2359 C2363 1.385 . S
C2360 H2341 0.951 . S
C2360 C2358 1.388 . S
C2360 C2361 1.366 . S
C2361 C2360 1.366 . S
C2361 C2362 1.414 . S
C2361 C2364 1.499 1_565 S
C2362 H2342 0.950 . S
C2362 C2361 1.414 . S
C2362 C2363 1.374 . S
C2363 H2343 0.950 . S
C2363 C2359 1.385 . S
C2363 C2362 1.374 . S
C2364 C2361 1.499 1_545 S
C2364 C2365 1.373 . S
C2364 C2366 1.389 . S
C2365 H2344 0.950 . S
C2365 C2364 1.373 . S
C2365 C2381 1.377 . S
C2366 C2364 1.389 . S
C2366 C2367 1.524 . S
C2366 C2380 1.377 . S
C2367 C2366 1.524 . S
C2367 C2368 1.397 . S
C2367 C2372 1.363 . S
C2368 H2345 0.950 . S
C2368 C2367 1.397 . S
C2368 C2369 1.334 1_545 S
C2369 H2346 0.950 . S
C2369 C2368 1.334 1_565 S
C2369 C2370 1.287 . S
C2370 C2369 1.287 . S
C2370 C2371 1.524 . S
C2370 H2389 0.913 . S
C2371 H2347 0.950 . S
C2371 C2370 1.524 . S
C2371 C2372 1.415 1_565 S
C2372 H2348 0.950 . S
C2372 C2367 1.363 . S
C2372 C2371 1.415 1_545 S
C2373 H2349 0.951 . S
C2373 C2374 1.366 . S
C2373 C2375 1.388 . S
C2374 C2373 1.366 . S
C2374 C2378 1.385 . S
C2375 H2350 0.951 . S
C2375 C2373 1.388 . S
C2375 C2376 1.366 . S
C2376 C2375 1.366 . S
C2376 C2377 1.414 . S
C2376 C2379 1.499 . S
C2377 H2351 0.950 . S
C2377 C2376 1.414 . S
C2377 C2378 1.374 . S
C2378 H2352 0.950 . S
C2378 C2374 1.385 . S
C2378 C2377 1.374 . S
C2379 C2376 1.499 . S
C2379 C2380 1.373 . S
C2379 C2381 1.389 . S
C2380 H2353 0.950 . S
C2380 C2366 1.377 . S
C2380 C2379 1.373 . S
C2381 C2365 1.377 . S
C2381 C2379 1.389 . S
C2381 C2382 1.524 . S
C2382 C2381 1.524 . S
C2382 C2383 1.397 . S
C2382 C2387 1.363 . S
C2383 H2354 0.950 . S
C2383 C2382 1.397 . S
C2383 C2384 1.334 . S
C2384 H2355 0.950 . S
C2384 C2383 1.334 . S
C2384 C2385 1.287 . S
C2385 C2384 1.287 . S
C2385 C2386 1.524 . S
C2385 H2388 0.999 . S
C2386 H2356 0.950 . S
C2386 C2385 1.524 . S
C2386 C2387 1.415 . S
C2387 H2357 0.950 . S
C2387 C2382 1.363 . S
C2387 C2386 1.415 . S
H2388 C2385 0.999 . S
H2389 C2370 0.913 . S
H2390 C2408 0.951 . S
H2391 C2410 0.951 1_655 S
H2392 C2412 0.950 . S
H2393 C2413 0.950 . S
H2394 C2415 0.950 . S
H2395 C2418 0.950 . S
H2396 C2419 0.950 . S
H2397 C2421 0.950 . S
H2398 C2422 0.950 . S
H2399 C2423 0.951 . S
H2400 C2425 0.951 . S
H2401 C2427 0.950 . S
H2402 C2428 0.950 . S
H2403 C2430 0.950 . S
H2404 C2433 0.950 . S
H2405 C2434 0.950 . S
H2406 C2436 0.950 . S
H2407 C2437 0.950 . S
C2408 H2390 0.951 . S
C2408 C2409 1.366 . S
C2408 C2410 1.388 . S
C2409 C2408 1.366 . S
C2409 C2413 1.385 . S
C2410 H2391 0.951 1_455 S
C2410 C2408 1.388 . S
C2410 C2411 1.366 1_455 S
C2411 C2410 1.366 1_655 S
C2411 C2412 1.414 1_655 S
C2411 C2414 1.499 . S
C2412 H2392 0.950 . S
C2412 C2411 1.414 1_455 S
C2412 C2413 1.374 . S
C2413 H2393 0.950 . S
C2413 C2409 1.385 . S
C2413 C2412 1.374 . S
C2414 C2411 1.499 . S
C2414 C2415 1.373 . S
C2414 C2416 1.389 . S
C2415 H2394 0.950 . S
C2415 C2414 1.373 . S
C2415 C2431 1.377 . S
C2416 C2414 1.389 . S
C2416 C2417 1.524 . S
C2416 C2430 1.377 . S
C2417 C2416 1.524 . S
C2417 C2418 1.397 . S
C2417 C2422 1.363 . S
C2418 H2395 0.950 . S
C2418 C2417 1.397 . S
C2418 C2419 1.334 . S
C2419 H2396 0.950 . S
C2419 C2418 1.334 . S
C2419 C2420 1.287 . S
C2420 C2419 1.287 . S
C2420 C2421 1.524 . S
C2420 H2439 0.913 . S
C2421 H2397 0.950 . S
C2421 C2420 1.524 . S
C2421 C2422 1.415 . S
C2422 H2398 0.950 . S
C2422 C2417 1.363 . S
C2422 C2421 1.415 . S
C2423 H2399 0.951 . S
C2423 C2424 1.366 . S
C2423 C2425 1.388 . S
C2424 C2423 1.366 . S
C2424 C2428 1.385 . S
C2425 H2400 0.951 . S
C2425 C2423 1.388 . S
C2425 C2426 1.366 . S
C2426 C2425 1.366 . S
C2426 C2427 1.414 . S
C2426 C2429 1.499 . S
C2427 H2401 0.950 . S
C2427 C2426 1.414 . S
C2427 C2428 1.374 . S
C2428 H2402 0.950 . S
C2428 C2424 1.385 . S
C2428 C2427 1.374 . S
C2429 C2426 1.499 . S
C2429 C2430 1.373 . S
C2429 C2431 1.389 . S
C2430 H2403 0.950 . S
C2430 C2416 1.377 . S
C2430 C2429 1.373 . S
C2431 C2415 1.377 . S
C2431 C2429 1.389 . S
C2431 C2432 1.524 . S
C2432 C2431 1.524 . S
C2432 C2433 1.397 . S
C2432 C2437 1.363 . S
C2433 H2404 0.950 . S
C2433 C2432 1.397 . S
C2433 C2434 1.334 . S
C2434 H2405 0.950 . S
C2434 C2433 1.334 . S
C2434 C2435 1.287 . S
C2435 C2434 1.287 . S
C2435 C2436 1.524 . S
C2435 H2438 0.999 . S
C2436 H2406 0.950 . S
C2436 C2435 1.524 . S
C2436 C2437 1.415 . S
C2437 H2407 0.950 . S
C2437 C2432 1.363 . S
C2437 C2436 1.415 . S
H2438 C2435 0.999 . S
H2439 C2420 0.913 . S
H2440 C2458 0.951 . S
H2441 C2460 0.951 . S
H2442 C2462 0.950 . S
H2443 C2463 0.950 . S
H2444 C2465 0.950 . S
H2445 C2468 0.950 . S
H2446 C2469 0.950 . S
H2447 C2471 0.950 . S
H2448 C2472 0.950 . S
H2449 C2473 0.951 . S
H2450 C2475 0.951 . S
H2451 C2477 0.950 . S
H2452 C2478 0.950 . S
H2453 C2480 0.950 . S
H2454 C2483 0.950 . S
H2455 C2484 0.950 . S
H2456 C2486 0.950 . S
H2457 C2487 0.950 . S
C2458 H2440 0.951 . S
C2458 C2459 1.366 . S
C2458 C2460 1.388 . S
C2459 C2458 1.366 . S
C2459 C2463 1.385 . S
C2460 H2441 0.951 . S
C2460 C2458 1.388 . S
C2460 C2461 1.366 . S
C2461 C2460 1.366 . S
C2461 C2462 1.414 . S
C2461 C2464 1.499 . S
C2462 H2442 0.950 . S
C2462 C2461 1.414 . S
C2462 C2463 1.374 . S
C2463 H2443 0.950 . S
C2463 C2459 1.385 . S
C2463 C2462 1.374 . S
C2464 C2461 1.499 . S
C2464 C2465 1.373 . S
C2464 C2466 1.389 . S
C2465 H2444 0.950 . S
C2465 C2464 1.373 . S
C2465 C2481 1.377 . S
C2466 C2464 1.389 . S
C2466 C2467 1.524 . S
C2466 C2480 1.377 . S
C2467 C2466 1.524 . S
C2467 C2468 1.397 . S
C2467 C2472 1.363 . S
C2468 H2445 0.950 . S
C2468 C2467 1.397 . S
C2468 C2469 1.334 . S
C2469 H2446 0.950 . S
C2469 C2468 1.334 . S
C2469 C2470 1.287 . S
C2470 C2469 1.287 . S
C2470 C2471 1.524 . S
C2470 H2489 0.913 . S
C2471 H2447 0.950 . S
C2471 C2470 1.524 . S
C2471 C2472 1.415 . S
C2472 H2448 0.950 . S
C2472 C2467 1.363 . S
C2472 C2471 1.415 . S
C2473 H2449 0.951 . S
C2473 C2474 1.366 . S
C2473 C2475 1.388 . S
C2474 C2473 1.366 . S
C2474 C2478 1.385 . S
C2475 H2450 0.951 . S
C2475 C2473 1.388 . S
C2475 C2476 1.366 . S
C2476 C2475 1.366 . S
C2476 C2477 1.414 . S
C2476 C2479 1.499 . S
C2477 H2451 0.950 . S
C2477 C2476 1.414 . S
C2477 C2478 1.374 . S
C2478 H2452 0.950 . S
C2478 C2474 1.385 . S
C2478 C2477 1.374 . S
C2479 C2476 1.499 . S
C2479 C2480 1.373 . S
C2479 C2481 1.389 . S
C2480 H2453 0.950 . S
C2480 C2466 1.377 . S
C2480 C2479 1.373 . S
C2481 C2465 1.377 . S
C2481 C2479 1.389 . S
C2481 C2482 1.524 . S
C2482 C2481 1.524 . S
C2482 C2483 1.397 . S
C2482 C2487 1.363 . S
C2483 H2454 0.950 . S
C2483 C2482 1.397 . S
C2483 C2484 1.334 . S
C2484 H2455 0.950 . S
C2484 C2483 1.334 . S
C2484 C2485 1.287 . S
C2485 C2484 1.287 . S
C2485 C2486 1.524 . S
C2485 H2488 0.999 . S
C2486 H2456 0.950 . S
C2486 C2485 1.524 . S
C2486 C2487 1.415 . S
C2487 H2457 0.950 . S
C2487 C2482 1.363 . S
C2487 C2486 1.415 . S
H2488 C2485 0.999 . S
H2489 C2470 0.913 . S
H2490 C2508 0.951 . S
H2491 C2510 0.951 . S
H2492 C2512 0.950 . S
H2493 C2513 0.950 . S
H2494 C2515 0.950 . S
H2495 C2518 0.950 . S
H2496 C2519 0.950 . S
H2497 C2521 0.950 . S
H2498 C2522 0.950 . S
H2499 C2523 0.951 . S
H2500 C2525 0.951 . S
H2501 C2527 0.950 . S
H2502 C2528 0.950 . S
H2503 C2530 0.950 . S
H2504 C2533 0.950 . S
H2505 C2534 0.950 . S
H2506 C2536 0.950 . S
H2507 C2537 0.950 . S
C2508 H2490 0.951 . S
C2508 C2509 1.366 . S
C2508 C2510 1.388 . S
C2509 C2508 1.366 . S
C2509 C2513 1.385 . S
C2510 H2491 0.951 . S
C2510 C2508 1.388 . S
C2510 C2511 1.366 . S
C2511 C2510 1.366 . S
C2511 C2512 1.414 . S
C2511 C2514 1.499 . S
C2512 H2492 0.950 . S
C2512 C2511 1.414 . S
C2512 C2513 1.374 . S
C2513 H2493 0.950 . S
C2513 C2509 1.385 . S
C2513 C2512 1.374 . S
C2514 C2511 1.499 . S
C2514 C2515 1.373 . S
C2514 C2516 1.389 . S
C2515 H2494 0.950 . S
C2515 C2514 1.373 . S
C2515 C2531 1.377 1_455 S
C2516 C2514 1.389 . S
C2516 C2517 1.524 . S
C2516 C2530 1.377 . S
C2517 C2516 1.524 . S
C2517 C2518 1.397 . S
C2517 C2522 1.363 . S
C2518 H2495 0.950 . S
C2518 C2517 1.397 . S
C2518 C2519 1.334 . S
C2519 H2496 0.950 . S
C2519 C2518 1.334 . S
C2519 C2520 1.287 . S
C2520 C2519 1.287 . S
C2520 C2521 1.524 . S
C2520 H2539 0.913 . S
C2521 H2497 0.950 . S
C2521 C2520 1.524 . S
C2521 C2522 1.415 . S
C2522 H2498 0.950 . S
C2522 C2517 1.363 . S
C2522 C2521 1.415 . S
C2523 H2499 0.951 . S
C2523 C2524 1.366 . S
C2523 C2525 1.388 . S
C2524 C2523 1.366 . S
C2524 C2528 1.385 . S
C2525 H2500 0.951 . S
C2525 C2523 1.388 . S
C2525 C2526 1.366 . S
C2526 C2525 1.366 . S
C2526 C2527 1.414 . S
C2526 C2529 1.499 . S
C2527 H2501 0.950 . S
C2527 C2526 1.414 . S
C2527 C2528 1.374 . S
C2528 H2502 0.950 . S
C2528 C2524 1.385 . S
C2528 C2527 1.374 . S
C2529 C2526 1.499 . S
C2529 C2530 1.373 1_655 S
C2529 C2531 1.389 . S
C2530 H2503 0.950 . S
C2530 C2516 1.377 . S
C2530 C2529 1.373 1_455 S
C2531 C2515 1.377 1_655 S
C2531 C2529 1.389 . S
C2531 C2532 1.524 . S
C2532 C2531 1.524 . S
C2532 C2533 1.397 . S
C2532 C2537 1.363 . S
C2533 H2504 0.950 . S
C2533 C2532 1.397 . S
C2533 C2534 1.334 . S
C2534 H2505 0.950 . S
C2534 C2533 1.334 . S
C2534 C2535 1.287 . S
C2535 C2534 1.287 . S
C2535 C2536 1.524 . S
C2535 H2538 0.999 . S
C2536 H2506 0.950 . S
C2536 C2535 1.524 . S
C2536 C2537 1.415 . S
C2537 H2507 0.950 . S
C2537 C2532 1.363 . S
C2537 C2536 1.415 . S
H2538 C2535 0.999 . S
H2539 C2520 0.913 . S
H2540 C2558 0.951 . S
H2541 C2560 0.951 . S
H2542 C2562 0.950 . S
H2543 C2563 0.950 . S
H2544 C2565 0.950 . S
H2545 C2568 0.950 . S
H2546 C2569 0.950 . S
H2547 C2571 0.950 . S
H2548 C2572 0.950 . S
H2549 C2573 0.951 . S
H2550 C2575 0.951 . S
H2551 C2577 0.950 . S
H2552 C2578 0.950 . S
H2553 C2580 0.950 . S
H2554 C2583 0.950 . S
H2555 C2584 0.950 . S
H2556 C2586 0.950 . S
H2557 C2587 0.950 . S
C2558 H2540 0.951 . S
C2558 C2559 1.366 . S
C2558 C2560 1.388 . S
C2559 C2558 1.366 . S
C2559 C2563 1.385 . S
C2560 H2541 0.951 . S
C2560 C2558 1.388 . S
C2560 C2561 1.366 . S
C2561 C2560 1.366 . S
C2561 C2562 1.414 . S
C2561 C2564 1.499 . S
C2562 H2542 0.950 . S
C2562 C2561 1.414 . S
C2562 C2563 1.374 . S
C2563 H2543 0.950 . S
C2563 C2559 1.385 . S
C2563 C2562 1.374 . S
C2564 C2561 1.499 . S
C2564 C2565 1.373 . S
C2564 C2566 1.389 . S
C2565 H2544 0.950 . S
C2565 C2564 1.373 . S
C2565 C2581 1.377 . S
C2566 C2564 1.389 . S
C2566 C2567 1.524 . S
C2566 C2580 1.377 . S
C2567 C2566 1.524 . S
C2567 C2568 1.397 . S
C2567 C2572 1.363 . S
C2568 H2545 0.950 . S
C2568 C2567 1.397 . S
C2568 C2569 1.334 . S
C2569 H2546 0.950 . S
C2569 C2568 1.334 . S
C2569 C2570 1.287 . S
C2570 C2569 1.287 . S
C2570 C2571 1.524 . S
C2570 H2589 0.913 . S
C2571 H2547 0.950 . S
C2571 C2570 1.524 . S
C2571 C2572 1.415 . S
C2572 H2548 0.950 . S
C2572 C2567 1.363 . S
C2572 C2571 1.415 . S
C2573 H2549 0.951 . S
C2573 C2574 1.366 . S
C2573 C2575 1.388 . S
C2574 C2573 1.366 . S
C2574 C2578 1.385 . S
C2575 H2550 0.951 . S
C2575 C2573 1.388 . S
C2575 C2576 1.366 . S
C2576 C2575 1.366 . S
C2576 C2577 1.414 . S
C2576 C2579 1.499 . S
C2577 H2551 0.950 . S
C2577 C2576 1.414 . S
C2577 C2578 1.374 . S
C2578 H2552 0.950 . S
C2578 C2574 1.385 . S
C2578 C2577 1.374 . S
C2579 C2576 1.499 . S
C2579 C2580 1.373 . S
C2579 C2581 1.389 . S
C2580 H2553 0.950 . S
C2580 C2566 1.377 . S
C2580 C2579 1.373 . S
C2581 C2565 1.377 . S
C2581 C2579 1.389 . S
C2581 C2582 1.524 . S
C2582 C2581 1.524 . S
C2582 C2583 1.397 . S
C2582 C2587 1.363 . S
C2583 H2554 0.950 . S
C2583 C2582 1.397 . S
C2583 C2584 1.334 . S
C2584 H2555 0.950 . S
C2584 C2583 1.334 . S
C2584 C2585 1.287 . S
C2585 C2584 1.287 . S
C2585 C2586 1.524 . S
C2585 H2588 0.999 . S
C2586 H2556 0.950 . S
C2586 C2585 1.524 . S
C2586 C2587 1.415 . S
C2587 H2557 0.950 . S
C2587 C2582 1.363 . S
C2587 C2586 1.415 . S
H2588 C2585 0.999 . S
H2589 C2570 0.913 . S
H2590 C2608 0.951 . S
H2591 C2610 0.951 . S
H2592 C2612 0.950 . S
H2593 C2613 0.950 . S
H2594 C2615 0.950 . S
H2595 C2618 0.950 . S
H2596 C2619 0.950 . S
H2597 C2621 0.950 . S
H2598 C2622 0.950 . S
H2599 C2623 0.951 . S
H2600 C2625 0.951 . S
H2601 C2627 0.950 . S
H2602 C2628 0.950 . S
H2603 C2630 0.950 . S
H2604 C2633 0.950 . S
H2605 C2634 0.950 . S
H2606 C2636 0.950 . S
H2607 C2637 0.950 . S
C2608 H2590 0.951 . S
C2608 C2609 1.366 . S
C2608 C2610 1.388 . S
C2609 C2608 1.366 . S
C2609 C2613 1.385 . S
C2610 H2591 0.951 . S
C2610 C2608 1.388 . S
C2610 C2611 1.366 . S
C2611 C2610 1.366 . S
C2611 C2612 1.414 . S
C2611 C2614 1.499 . S
C2612 H2592 0.950 . S
C2612 C2611 1.414 . S
C2612 C2613 1.374 . S
C2613 H2593 0.950 . S
C2613 C2609 1.385 . S
C2613 C2612 1.374 . S
C2614 C2611 1.499 . S
C2614 C2615 1.373 1_565 S
C2614 C2616 1.389 . S
C2615 H2594 0.950 . S
C2615 C2614 1.373 1_545 S
C2615 C2631 1.377 . S
C2616 C2614 1.389 . S
C2616 C2617 1.524 . S
C2616 C2630 1.377 1_565 S
C2617 C2616 1.524 . S
C2617 C2618 1.397 . S
C2617 C2622 1.363 . S
C2618 H2595 0.950 . S
C2618 C2617 1.397 . S
C2618 C2619 1.334 . S
C2619 H2596 0.950 . S
C2619 C2618 1.334 . S
C2619 C2620 1.287 . S
C2620 C2619 1.287 . S
C2620 C2621 1.524 . S
C2620 H2639 0.913 . S
C2621 H2597 0.950 . S
C2621 C2620 1.524 . S
C2621 C2622 1.415 . S
C2622 H2598 0.950 . S
C2622 C2617 1.363 . S
C2622 C2621 1.415 . S
C2623 H2599 0.951 . S
C2623 C2624 1.366 . S
C2623 C2625 1.388 . S
C2624 C2623 1.366 . S
C2624 C2628 1.385 . S
C2625 H2600 0.951 . S
C2625 C2623 1.388 . S
C2625 C2626 1.366 . S
C2626 C2625 1.366 . S
C2626 C2627 1.414 . S
C2626 C2629 1.499 . S
C2627 H2601 0.950 . S
C2627 C2626 1.414 . S
C2627 C2628 1.374 . S
C2628 H2602 0.950 . S
C2628 C2624 1.385 . S
C2628 C2627 1.374 . S
C2629 C2626 1.499 . S
C2629 C2630 1.373 . S
C2629 C2631 1.389 . S
C2630 H2603 0.950 . S
C2630 C2616 1.377 1_545 S
C2630 C2629 1.373 . S
C2631 C2615 1.377 . S
C2631 C2629 1.389 . S
C2631 C2632 1.524 . S
C2632 C2631 1.524 . S
C2632 C2633 1.397 . S
C2632 C2637 1.363 . S
C2633 H2604 0.950 . S
C2633 C2632 1.397 . S
C2633 C2634 1.334 . S
C2634 H2605 0.950 . S
C2634 C2633 1.334 . S
C2634 C2635 1.287 . S
C2635 C2634 1.287 . S
C2635 C2636 1.524 . S
C2635 H2638 0.999 . S
C2636 H2606 0.950 . S
C2636 C2635 1.524 . S
C2636 C2637 1.415 . S
C2637 H2607 0.950 . S
C2637 C2632 1.363 . S
C2637 C2636 1.415 . S
H2638 C2635 0.999 . S
H2639 C2620 0.913 . S
H2640 C2658 0.951 . S
H2641 C2660 0.951 . S
H2642 C2662 0.950 . S
H2643 C2663 0.950 . S
H2644 C2665 0.950 . S
H2645 C2668 0.950 . S
H2646 C2669 0.950 . S
H2647 C2671 0.950 . S
H2648 C2672 0.950 . S
H2649 C2673 0.951 . S
H2650 C2675 0.951 . S
H2651 C2677 0.950 . S
H2652 C2678 0.950 . S
H2653 C2680 0.950 . S
H2654 C2683 0.950 . S
H2655 C2684 0.950 . S
H2656 C2686 0.950 . S
H2657 C2687 0.950 . S
C2658 H2640 0.951 . S
C2658 C2659 1.366 . S
C2658 C2660 1.388 . S
C2659 C2658 1.366 . S
C2659 C2663 1.385 . S
C2660 H2641 0.951 . S
C2660 C2658 1.388 . S
C2660 C2661 1.366 . S
C2661 C2660 1.366 . S
C2661 C2662 1.414 . S
C2661 C2664 1.499 . S
C2662 H2642 0.950 . S
C2662 C2661 1.414 . S
C2662 C2663 1.374 . S
C2663 H2643 0.950 . S
C2663 C2659 1.385 . S
C2663 C2662 1.374 . S
C2664 C2661 1.499 . S
C2664 C2665 1.373 . S
C2664 C2666 1.389 . S
C2665 H2644 0.950 . S
C2665 C2664 1.373 . S
C2665 C2681 1.377 . S
C2666 C2664 1.389 . S
C2666 C2667 1.524 . S
C2666 C2680 1.377 . S
C2667 C2666 1.524 . S
C2667 C2668 1.397 . S
C2667 C2672 1.363 . S
C2668 H2645 0.950 . S
C2668 C2667 1.397 . S
C2668 C2669 1.334 . S
C2669 H2646 0.950 . S
C2669 C2668 1.334 . S
C2669 C2670 1.287 . S
C2670 C2669 1.287 . S
C2670 C2671 1.524 . S
C2670 H2689 0.913 . S
C2671 H2647 0.950 . S
C2671 C2670 1.524 . S
C2671 C2672 1.415 . S
C2672 H2648 0.950 . S
C2672 C2667 1.363 . S
C2672 C2671 1.415 . S
C2673 H2649 0.951 . S
C2673 C2674 1.366 . S
C2673 C2675 1.388 . S
C2674 C2673 1.366 . S
C2674 C2678 1.385 . S
C2675 H2650 0.951 . S
C2675 C2673 1.388 . S
C2675 C2676 1.366 . S
C2676 C2675 1.366 . S
C2676 C2677 1.414 . S
C2676 C2679 1.499 . S
C2677 H2651 0.950 . S
C2677 C2676 1.414 . S
C2677 C2678 1.374 . S
C2678 H2652 0.950 . S
C2678 C2674 1.385 . S
C2678 C2677 1.374 . S
C2679 C2676 1.499 . S
C2679 C2680 1.373 . S
C2679 C2681 1.389 . S
C2680 H2653 0.950 . S
C2680 C2666 1.377 . S
C2680 C2679 1.373 . S
C2681 C2665 1.377 . S
C2681 C2679 1.389 . S
C2681 C2682 1.524 . S
C2682 C2681 1.524 . S
C2682 C2683 1.397 . S
C2682 C2687 1.363 . S
C2683 H2654 0.950 . S
C2683 C2682 1.397 . S
C2683 C2684 1.334 . S
C2684 H2655 0.950 . S
C2684 C2683 1.334 . S
C2684 C2685 1.287 . S
C2685 C2684 1.287 . S
C2685 C2686 1.524 . S
C2685 H2688 0.999 . S
C2686 H2656 0.950 . S
C2686 C2685 1.524 . S
C2686 C2687 1.415 . S
C2687 H2657 0.950 . S
C2687 C2682 1.363 . S
C2687 C2686 1.415 . S
H2688 C2685 0.999 . S
H2689 C2670 0.913 . S
H2690 C2708 0.951 . S
H2691 C2710 0.951 . S
H2692 C2712 0.950 . S
H2693 C2713 0.950 . S
H2694 C2715 0.950 . S
H2695 C2718 0.950 . S
H2696 C2719 0.950 . S
H2697 C2721 0.950 . S
H2698 C2722 0.950 . S
H2699 C2723 0.951 . S
H2700 C2725 0.951 . S
H2701 C2727 0.950 . S
H2702 C2728 0.950 . S
H2703 C2730 0.950 . S
H2704 C2733 0.950 . S
H2705 C2734 0.950 . S
H2706 C2736 0.950 . S
H2707 C2737 0.950 . S
C2708 H2690 0.951 . S
C2708 C2709 1.366 . S
C2708 C2710 1.388 . S
C2709 C2708 1.366 . S
C2709 C2713 1.385 . S
C2710 H2691 0.951 . S
C2710 C2708 1.388 . S
C2710 C2711 1.366 . S
C2711 C2710 1.366 . S
C2711 C2712 1.414 . S
C2711 C2714 1.499 . S
C2712 H2692 0.950 . S
C2712 C2711 1.414 . S
C2712 C2713 1.374 . S
C2713 H2693 0.950 . S
C2713 C2709 1.385 . S
C2713 C2712 1.374 . S
C2714 C2711 1.499 . S
C2714 C2715 1.373 . S
C2714 C2716 1.389 . S
C2715 H2694 0.950 . S
C2715 C2714 1.373 . S
C2715 C2731 1.377 . S
C2716 C2714 1.389 . S
C2716 C2717 1.524 . S
C2716 C2730 1.377 . S
C2717 C2716 1.524 . S
C2717 C2718 1.397 . S
C2717 C2722 1.363 . S
C2718 H2695 0.950 . S
C2718 C2717 1.397 . S
C2718 C2719 1.334 . S
C2719 H2696 0.950 . S
C2719 C2718 1.334 . S
C2719 C2720 1.287 . S
C2720 C2719 1.287 . S
C2720 C2721 1.524 . S
C2720 H2739 0.913 . S
C2721 H2697 0.950 . S
C2721 C2720 1.524 . S
C2721 C2722 1.415 . S
C2722 H2698 0.950 . S
C2722 C2717 1.363 . S
C2722 C2721 1.415 . S
C2723 H2699 0.951 . S
C2723 C2724 1.366 . S
C2723 C2725 1.388 . S
C2724 C2723 1.366 . S
C2724 C2728 1.385 . S
C2725 H2700 0.951 . S
C2725 C2723 1.388 . S
C2725 C2726 1.366 . S
C2726 C2725 1.366 . S
C2726 C2727 1.414 . S
C2726 C2729 1.499 . S
C2727 H2701 0.950 . S
C2727 C2726 1.414 . S
C2727 C2728 1.374 . S
C2728 H2702 0.950 . S
C2728 C2724 1.385 . S
C2728 C2727 1.374 . S
C2729 C2726 1.499 . S
C2729 C2730 1.373 . S
C2729 C2731 1.389 . S
C2730 H2703 0.950 . S
C2730 C2716 1.377 . S
C2730 C2729 1.373 . S
C2731 C2715 1.377 . S
C2731 C2729 1.389 . S
C2731 C2732 1.524 . S
C2732 C2731 1.524 . S
C2732 C2733 1.397 . S
C2732 C2737 1.363 . S
C2733 H2704 0.950 . S
C2733 C2732 1.397 . S
C2733 C2734 1.334 . S
C2734 H2705 0.950 . S
C2734 C2733 1.334 . S
C2734 C2735 1.287 . S
C2735 C2734 1.287 . S
C2735 C2736 1.524 . S
C2735 H2738 0.999 . S
C2736 H2706 0.950 . S
C2736 C2735 1.524 . S
C2736 C2737 1.415 . S
C2737 H2707 0.950 . S
C2737 C2732 1.363 . S
C2737 C2736 1.415 . S
H2738 C2735 0.999 . S
H2739 C2720 0.913 . S
H2740 C2758 0.951 . S
H2741 C2760 0.951 . S
H2742 C2762 0.950 . S
H2743 C2763 0.950 . S
H2744 C2765 0.950 . S
H2745 C2768 0.950 . S
H2746 C2769 0.950 . S
H2747 C2771 0.950 . S
H2748 C2772 0.950 . S
H2749 C2773 0.951 . S
H2750 C2775 0.951 . S
H2751 C2777 0.950 . S
H2752 C2778 0.950 . S
H2753 C2780 0.950 . S
H2754 C2783 0.950 . S
H2755 C2784 0.950 . S
H2756 C2786 0.950 . S
H2757 C2787 0.950 . S
C2758 H2740 0.951 . S
C2758 C2759 1.366 . S
C2758 C2760 1.388 . S
C2759 C2758 1.366 . S
C2759 C2763 1.385 . S
C2760 H2741 0.951 . S
C2760 C2758 1.388 . S
C2760 C2761 1.366 . S
C2761 C2760 1.366 . S
C2761 C2762 1.414 . S
C2761 C2764 1.499 . S
C2762 H2742 0.950 . S
C2762 C2761 1.414 . S
C2762 C2763 1.374 . S
C2763 H2743 0.950 . S
C2763 C2759 1.385 . S
C2763 C2762 1.374 . S
C2764 C2761 1.499 . S
C2764 C2765 1.373 . S
C2764 C2766 1.389 . S
C2765 H2744 0.950 . S
C2765 C2764 1.373 . S
C2765 C2781 1.377 . S
C2766 C2764 1.389 . S
C2766 C2767 1.524 . S
C2766 C2780 1.377 . S
C2767 C2766 1.524 . S
C2767 C2768 1.397 . S
C2767 C2772 1.363 . S
C2768 H2745 0.950 . S
C2768 C2767 1.397 . S
C2768 C2769 1.334 . S
C2769 H2746 0.950 . S
C2769 C2768 1.334 . S
C2769 C2770 1.287 . S
C2770 C2769 1.287 . S
C2770 C2771 1.524 . S
C2770 H2789 0.913 . S
C2771 H2747 0.950 . S
C2771 C2770 1.524 . S
C2771 C2772 1.415 . S
C2772 H2748 0.950 . S
C2772 C2767 1.363 . S
C2772 C2771 1.415 . S
C2773 H2749 0.951 . S
C2773 C2774 1.366 . S
C2773 C2775 1.388 . S
C2774 C2773 1.366 . S
C2774 C2778 1.385 . S
C2775 H2750 0.951 . S
C2775 C2773 1.388 . S
C2775 C2776 1.366 . S
C2776 C2775 1.366 . S
C2776 C2777 1.414 . S
C2776 C2779 1.499 . S
C2777 H2751 0.950 . S
C2777 C2776 1.414 . S
C2777 C2778 1.374 . S
C2778 H2752 0.950 . S
C2778 C2774 1.385 . S
C2778 C2777 1.374 . S
C2779 C2776 1.499 . S
C2779 C2780 1.373 . S
C2779 C2781 1.389 . S
C2780 H2753 0.950 . S
C2780 C2766 1.377 . S
C2780 C2779 1.373 . S
C2781 C2765 1.377 . S
C2781 C2779 1.389 . S
C2781 C2782 1.524 . S
C2782 C2781 1.524 . S
C2782 C2783 1.397 . S
C2782 C2787 1.363 . S
C2783 H2754 0.950 . S
C2783 C2782 1.397 . S
C2783 C2784 1.334 . S
C2784 H2755 0.950 . S
C2784 C2783 1.334 . S
C2784 C2785 1.287 . S
C2785 C2784 1.287 . S
C2785 C2786 1.524 . S
C2785 H2788 0.999 . S
C2786 H2756 0.950 . S
C2786 C2785 1.524 . S
C2786 C2787 1.415 . S
C2787 H2757 0.950 . S
C2787 C2782 1.363 . S
C2787 C2786 1.415 . S
H2788 C2785 0.999 . S
H2789 C2770 0.913 . S
H2790 C2808 0.951 . S
H2791 C2810 0.951 . S
H2792 C2812 0.950 . S
H2793 C2813 0.950 . S
H2794 C2815 0.950 . S
H2795 C2818 0.950 . S
H2796 C2819 0.950 . S
H2797 C2821 0.950 . S
H2798 C2822 0.950 . S
H2799 C2823 0.951 . S
H2800 C2825 0.951 . S
H2801 C2827 0.950 . S
H2802 C2828 0.950 . S
H2803 C2830 0.950 . S
H2804 C2833 0.950 . S
H2805 C2834 0.950 . S
H2806 C2836 0.950 . S
H2807 C2837 0.950 . S
C2808 H2790 0.951 . S
C2808 C2809 1.366 . S
C2808 C2810 1.388 . S
C2809 C2808 1.366 . S
C2809 C2813 1.385 . S
C2810 H2791 0.951 . S
C2810 C2808 1.388 . S
C2810 C2811 1.366 . S
C2811 C2810 1.366 . S
C2811 C2812 1.414 . S
C2811 C2814 1.499 . S
C2812 H2792 0.950 . S
C2812 C2811 1.414 . S
C2812 C2813 1.374 . S
C2813 H2793 0.950 . S
C2813 C2809 1.385 . S
C2813 C2812 1.374 . S
C2814 C2811 1.499 . S
C2814 C2815 1.373 . S
C2814 C2816 1.389 . S
C2815 H2794 0.950 . S
C2815 C2814 1.373 . S
C2815 C2831 1.377 . S
C2816 C2814 1.389 . S
C2816 C2817 1.524 . S
C2816 C2830 1.377 . S
C2817 C2816 1.524 . S
C2817 C2818 1.397 . S
C2817 C2822 1.363 . S
C2818 H2795 0.950 . S
C2818 C2817 1.397 . S
C2818 C2819 1.334 . S
C2819 H2796 0.950 . S
C2819 C2818 1.334 . S
C2819 C2820 1.287 . S
C2820 C2819 1.287 . S
C2820 C2821 1.524 . S
C2820 H2839 0.913 . S
C2821 H2797 0.950 . S
C2821 C2820 1.524 . S
C2821 C2822 1.415 . S
C2822 H2798 0.950 . S
C2822 C2817 1.363 . S
C2822 C2821 1.415 . S
C2823 H2799 0.951 . S
C2823 C2824 1.366 . S
C2823 C2825 1.388 . S
C2824 C2823 1.366 . S
C2824 C2828 1.385 . S
C2825 H2800 0.951 . S
C2825 C2823 1.388 . S
C2825 C2826 1.366 . S
C2826 C2825 1.366 . S
C2826 C2827 1.414 . S
C2826 C2829 1.499 . S
C2827 H2801 0.950 . S
C2827 C2826 1.414 . S
C2827 C2828 1.374 . S
C2828 H2802 0.950 . S
C2828 C2824 1.385 . S
C2828 C2827 1.374 . S
C2829 C2826 1.499 . S
C2829 C2830 1.373 . S
C2829 C2831 1.389 . S
C2830 H2803 0.950 . S
C2830 C2816 1.377 . S
C2830 C2829 1.373 . S
C2831 C2815 1.377 . S
C2831 C2829 1.389 . S
C2831 C2832 1.524 . S
C2832 C2831 1.524 . S
C2832 C2833 1.397 . S
C2832 C2837 1.363 . S
C2833 H2804 0.950 . S
C2833 C2832 1.397 . S
C2833 C2834 1.334 . S
C2834 H2805 0.950 . S
C2834 C2833 1.334 . S
C2834 C2835 1.287 . S
C2835 C2834 1.287 . S
C2835 C2836 1.524 . S
C2835 H2838 0.999 . S
C2836 H2806 0.950 . S
C2836 C2835 1.524 . S
C2836 C2837 1.415 . S
C2837 H2807 0.950 . S
C2837 C2832 1.363 . S
C2837 C2836 1.415 . S
H2838 C2835 0.999 . S
H2839 C2820 0.913 . S
H2840 C2858 0.951 . S
H2841 C2860 0.951 . S
H2842 C2862 0.950 . S
H2843 C2863 0.950 . S
H2844 C2865 0.950 . S
H2845 C2868 0.950 . S
H2846 C2869 0.950 1_655 S
H2847 C2871 0.950 . S
H2848 C2872 0.950 . S
H2849 C2873 0.951 . S
H2850 C2875 0.951 . S
H2851 C2877 0.950 . S
H2852 C2878 0.950 . S
H2853 C2880 0.950 . S
H2854 C2883 0.950 . S
H2855 C2884 0.950 . S
H2856 C2886 0.950 . S
H2857 C2887 0.950 . S
C2858 H2840 0.951 . S
C2858 C2859 1.366 . S
C2858 C2860 1.388 . S
C2859 C2858 1.366 . S
C2859 C2863 1.385 . S
C2860 H2841 0.951 . S
C2860 C2858 1.388 . S
C2860 C2861 1.366 . S
C2861 C2860 1.366 . S
C2861 C2862 1.414 . S
C2861 C2864 1.499 . S
C2862 H2842 0.950 . S
C2862 C2861 1.414 . S
C2862 C2863 1.374 . S
C2863 H2843 0.950 . S
C2863 C2859 1.385 . S
C2863 C2862 1.374 . S
C2864 C2861 1.499 . S
C2864 C2865 1.373 . S
C2864 C2866 1.389 . S
C2865 H2844 0.950 . S
C2865 C2864 1.373 . S
C2865 C2881 1.377 . S
C2866 C2864 1.389 . S
C2866 C2867 1.524 . S
C2866 C2880 1.377 . S
C2867 C2866 1.524 . S
C2867 C2868 1.397 . S
C2867 C2872 1.363 . S
C2868 H2845 0.950 . S
C2868 C2867 1.397 . S
C2868 C2869 1.334 . S
C2869 H2846 0.950 1_455 S
C2869 C2868 1.334 . S
C2869 C2870 1.319 . S
C2870 C2869 1.319 . S
C2870 C2871 1.536 . S
C2870 H2889 0.869 1_455 S
C2871 H2847 0.950 . S
C2871 C2870 1.536 . S
C2871 C2872 1.415 . S
C2872 H2848 0.950 . S
C2872 C2867 1.363 . S
C2872 C2871 1.415 . S
C2873 H2849 0.951 . S
C2873 C2874 1.366 . S
C2873 C2875 1.388 . S
C2874 C2873 1.366 . S
C2874 C2878 1.385 . S
C2875 H2850 0.951 . S
C2875 C2873 1.388 . S
C2875 C2876 1.366 . S
C2876 C2875 1.366 . S
C2876 C2877 1.414 . S
C2876 C2879 1.499 . S
C2877 H2851 0.950 . S
C2877 C2876 1.414 . S
C2877 C2878 1.374 . S
C2878 H2852 0.950 . S
C2878 C2874 1.385 . S
C2878 C2877 1.374 . S
C2879 C2876 1.499 . S
C2879 C2880 1.373 . S
C2879 C2881 1.389 . S
C2880 H2853 0.950 . S
C2880 C2866 1.377 . S
C2880 C2879 1.373 . S
C2881 C2865 1.377 . S
C2881 C2879 1.389 . S
C2881 C2882 1.524 . S
C2882 C2881 1.524 . S
C2882 C2883 1.397 . S
C2882 C2887 1.363 . S
C2883 H2854 0.950 . S
C2883 C2882 1.397 . S
C2883 C2884 1.334 . S
C2884 H2855 0.950 . S
C2884 C2883 1.334 . S
C2884 C2885 1.287 . S
C2885 C2884 1.287 . S
C2885 C2886 1.524 . S
C2885 H2888 0.999 . S
C2886 H2856 0.950 . S
C2886 C2885 1.524 . S
C2886 C2887 1.415 . S
C2887 H2857 0.950 . S
C2887 C2882 1.363 . S
C2887 C2886 1.415 . S
H2888 C2885 0.999 . S
H2889 C2870 0.869 1_655 S
H2890 C2908 0.951 . S
H2891 C2910 0.951 . S
H2892 C2912 0.950 . S
H2893 C2913 0.950 . S
H2894 C2915 0.950 . S
H2895 C2918 0.950 . S
H2896 C2919 0.950 . S
H2897 C2921 0.950 . S
H2898 C2922 0.950 . S
H2899 C2923 0.951 . S
H2900 C2925 0.951 . S
H2901 C2927 0.950 . S
H2902 C2928 0.950 . S
H2903 C2930 0.950 . S
H2904 C2933 0.950 . S
H2905 C2934 0.950 . S
H2906 C2936 0.950 . S
H2907 C2937 0.950 . S
C2908 H2890 0.951 . S
C2908 C2909 1.366 . S
C2908 C2910 1.388 . S
C2909 C2908 1.366 . S
C2909 C2913 1.385 . S
C2910 H2891 0.951 . S
C2910 C2908 1.388 . S
C2910 C2911 1.366 . S
C2911 C2910 1.366 . S
C2911 C2912 1.414 . S
C2911 C2914 1.499 . S
C2912 H2892 0.950 . S
C2912 C2911 1.414 . S
C2912 C2913 1.374 . S
C2913 H2893 0.950 . S
C2913 C2909 1.385 . S
C2913 C2912 1.374 . S
C2914 C2911 1.499 . S
C2914 C2915 1.373 . S
C2914 C2916 1.389 . S
C2915 H2894 0.950 . S
C2915 C2914 1.373 . S
C2915 C2931 1.377 . S
C2916 C2914 1.389 . S
C2916 C2917 1.524 . S
C2916 C2930 1.377 . S
C2917 C2916 1.524 . S
C2917 C2918 1.397 . S
C2917 C2922 1.363 . S
C2918 H2895 0.950 . S
C2918 C2917 1.397 . S
C2918 C2919 1.334 . S
C2919 H2896 0.950 . S
C2919 C2918 1.334 . S
C2919 C2920 1.287 . S
C2920 C2919 1.287 . S
C2920 C2921 1.524 . S
C2920 H2939 0.913 . S
C2921 H2897 0.950 . S
C2921 C2920 1.524 . S
C2921 C2922 1.415 . S
C2922 H2898 0.950 . S
C2922 C2917 1.363 . S
C2922 C2921 1.415 . S
C2923 H2899 0.951 . S
C2923 C2924 1.366 . S
C2923 C2925 1.388 . S
C2924 C2923 1.366 . S
C2924 C2928 1.385 . S
C2925 H2900 0.951 . S
C2925 C2923 1.388 . S
C2925 C2926 1.366 . S
C2926 C2925 1.366 . S
C2926 C2927 1.414 . S
C2926 C2929 1.499 . S
C2927 H2901 0.950 . S
C2927 C2926 1.414 . S
C2927 C2928 1.374 . S
C2928 H2902 0.950 . S
C2928 C2924 1.385 . S
C2928 C2927 1.374 . S
C2929 C2926 1.499 . S
C2929 C2930 1.373 . S
C2929 C2931 1.389 . S
C2930 H2903 0.950 . S
C2930 C2916 1.377 . S
C2930 C2929 1.373 . S
C2931 C2915 1.377 . S
C2931 C2929 1.389 . S
C2931 C2932 1.524 . S
C2932 C2931 1.524 . S
C2932 C2933 1.397 . S
C2932 C2937 1.363 . S
C2933 H2904 0.950 . S
C2933 C2932 1.397 . S
C2933 C2934 1.334 . S
C2934 H2905 0.950 . S
C2934 C2933 1.334 . S
C2934 C2935 1.287 . S
C2935 C2934 1.287 . S
C2935 C2936 1.524 . S
C2935 H2938 0.999 . S
C2936 H2906 0.950 . S
C2936 C2935 1.524 . S
C2936 C2937 1.415 . S
C2937 H2907 0.950 . S
C2937 C2932 1.363 . S
C2937 C2936 1.415 . S
H2938 C2935 0.999 . S
H2939 C2920 0.913 . S
H2940 C2958 0.951 . S
H2941 C2960 0.951 . S
H2942 C2962 0.950 . S
H2943 C2963 0.950 . S
H2944 C2965 0.950 . S
H2945 C2968 0.950 . S
H2946 C2969 0.950 . S
H2947 C2971 0.950 . S
H2948 C2972 0.950 . S
H2949 C2973 0.951 . S
H2950 C2975 0.951 . S
H2951 C2977 0.950 . S
H2952 C2978 0.950 . S
H2953 C2980 0.950 . S
H2954 C2983 0.950 . S
H2955 C2984 0.950 . S
H2956 C2986 0.950 . S
H2957 C2987 0.950 . S
C2958 H2940 0.951 . S
C2958 C2959 1.366 . S
C2958 C2960 1.388 . S
C2959 C2958 1.366 . S
C2959 C2963 1.385 . S
C2960 H2941 0.951 . S
C2960 C2958 1.388 . S
C2960 C2961 1.366 . S
C2961 C2960 1.366 . S
C2961 C2962 1.414 . S
C2961 C2964 1.499 . S
C2962 H2942 0.950 . S
C2962 C2961 1.414 . S
C2962 C2963 1.374 . S
C2963 H2943 0.950 . S
C2963 C2959 1.385 . S
C2963 C2962 1.374 . S
C2964 C2961 1.499 . S
C2964 C2965 1.373 . S
C2964 C2966 1.389 . S
C2965 H2944 0.950 . S
C2965 C2964 1.373 . S
C2965 C2981 1.377 . S
C2966 C2964 1.389 . S
C2966 C2967 1.524 . S
C2966 C2980 1.377 . S
C2967 C2966 1.524 . S
C2967 C2968 1.397 . S
C2967 C2972 1.363 . S
C2968 H2945 0.950 . S
C2968 C2967 1.397 . S
C2968 C2969 1.334 1_655 S
C2969 H2946 0.950 . S
C2969 C2968 1.334 1_455 S
C2969 C2970 1.287 . S
C2970 C2969 1.287 . S
C2970 C2971 1.524 1_455 S
C2970 H2989 0.913 . S
C2971 H2947 0.950 . S
C2971 C2970 1.524 1_655 S
C2971 C2972 1.415 . S
C2972 H2948 0.950 . S
C2972 C2967 1.363 . S
C2972 C2971 1.415 . S
C2973 H2949 0.951 . S
C2973 C2974 1.366 . S
C2973 C2975 1.388 . S
C2974 C2973 1.366 . S
C2974 C2978 1.385 . S
C2975 H2950 0.951 . S
C2975 C2973 1.388 . S
C2975 C2976 1.366 . S
C2976 C2975 1.366 . S
C2976 C2977 1.414 . S
C2976 C2979 1.499 . S
C2977 H2951 0.950 . S
C2977 C2976 1.414 . S
C2977 C2978 1.374 . S
C2978 H2952 0.950 . S
C2978 C2974 1.385 . S
C2978 C2977 1.374 . S
C2979 C2976 1.499 . S
C2979 C2980 1.373 . S
C2979 C2981 1.389 . S
C2980 H2953 0.950 . S
C2980 C2966 1.377 . S
C2980 C2979 1.373 . S
C2981 C2965 1.377 . S
C2981 C2979 1.389 . S
C2981 C2982 1.524 . S
C2982 C2981 1.524 . S
C2982 C2983 1.397 . S
C2982 C2987 1.363 . S
C2983 H2954 0.950 . S
C2983 C2982 1.397 . S
C2983 C2984 1.334 . S
C2984 H2955 0.950 . S
C2984 C2983 1.334 . S
C2984 C2985 1.287 . S
C2985 C2984 1.287 . S
C2985 C2986 1.524 . S
C2985 H2988 0.999 . S
C2986 H2956 0.950 . S
C2986 C2985 1.524 . S
C2986 C2987 1.415 . S
C2987 H2957 0.950 . S
C2987 C2982 1.363 . S
C2987 C2986 1.415 . S
H2988 C2985 0.999 . S
H2989 C2970 0.913 . S
H2990 C3008 0.951 . S
H2991 C3010 0.951 . S
H2992 C3012 0.950 . S
H2993 C3013 0.950 . S
H2994 C3015 0.950 . S
H2995 C3018 0.950 . S
H2996 C3019 0.950 . S
H2997 C3021 0.950 . S
H2998 C3022 0.950 . S
H2999 C3023 0.951 . S
H3000 C3025 0.951 . S
H3001 C3027 0.950 . S
H3002 C3028 0.950 . S
H3003 C3030 0.950 . S
H3004 C3033 0.950 . S
H3005 C3034 0.950 . S
H3006 C3036 0.950 . S
H3007 C3037 0.950 . S
C3008 H2990 0.951 . S
C3008 C3009 1.366 . S
C3008 C3010 1.388 . S
C3009 C3008 1.366 . S
C3009 C3013 1.385 . S
C3010 H2991 0.951 . S
C3010 C3008 1.388 . S
C3010 C3011 1.366 . S
C3011 C3010 1.366 . S
C3011 C3012 1.414 . S
C3011 C3014 1.499 . S
C3012 H2992 0.950 . S
C3012 C3011 1.414 . S
C3012 C3013 1.374 . S
C3013 H2993 0.950 . S
C3013 C3009 1.385 . S
C3013 C3012 1.374 . S
C3014 C3011 1.499 . S
C3014 C3015 1.373 . S
C3014 C3016 1.389 . S
C3015 H2994 0.950 . S
C3015 C3014 1.373 . S
C3015 C3031 1.377 . S
C3016 C3014 1.389 . S
C3016 C3017 1.524 . S
C3016 C3030 1.377 . S
C3017 C3016 1.524 . S
C3017 C3018 1.397 . S
C3017 C3022 1.363 . S
C3018 H2995 0.950 . S
C3018 C3017 1.397 . S
C3018 C3019 1.334 . S
C3019 H2996 0.950 . S
C3019 C3018 1.334 . S
C3019 C3020 1.287 . S
C3020 C3019 1.287 . S
C3020 C3021 1.524 . S
C3020 H3039 0.913 . S
C3021 H2997 0.950 . S
C3021 C3020 1.524 . S
C3021 C3022 1.415 . S
C3022 H2998 0.950 . S
C3022 C3017 1.363 . S
C3022 C3021 1.415 . S
C3023 H2999 0.951 . S
C3023 C3024 1.366 . S
C3023 C3025 1.388 . S
C3024 C3023 1.366 . S
C3024 C3028 1.385 . S
C3025 H3000 0.951 . S
C3025 C3023 1.388 . S
C3025 C3026 1.366 . S
C3026 C3025 1.366 . S
C3026 C3027 1.414 . S
C3026 C3029 1.499 . S
C3027 H3001 0.950 . S
C3027 C3026 1.414 . S
C3027 C3028 1.374 . S
C3028 H3002 0.950 . S
C3028 C3024 1.385 . S
C3028 C3027 1.374 . S
C3029 C3026 1.499 . S
C3029 C3030 1.373 . S
C3029 C3031 1.389 . S
C3030 H3003 0.950 . S
C3030 C3016 1.377 . S
C3030 C3029 1.373 . S
C3031 C3015 1.377 . S
C3031 C3029 1.389 . S
C3031 C3032 1.524 . S
C3032 C3031 1.524 . S
C3032 C3033 1.397 . S
C3032 C3037 1.363 . S
C3033 H3004 0.950 . S
C3033 C3032 1.397 . S
C3033 C3034 1.334 . S
C3034 H3005 0.950 . S
C3034 C3033 1.334 . S
C3034 C3035 1.287 . S
C3035 C3034 1.287 . S
C3035 C3036 1.524 . S
C3035 H3038 0.999 . S
C3036 H3006 0.950 . S
C3036 C3035 1.524 . S
C3036 C3037 1.415 . S
C3037 H3007 0.950 . S
C3037 C3032 1.363 . S
C3037 C3036 1.415 . S
H3038 C3035 0.999 . S
H3039 C3020 0.913 . S
H3040 C3058 0.951 . S
H3041 C3060 0.951 . S
H3042 C3062 0.950 . S
H3043 C3063 0.950 . S
H3044 C3065 0.950 . S
H3045 C3068 0.950 . S
H3046 C3069 0.950 . S
H3047 C3071 0.950 . S
H3048 C3072 0.950 . S
H3049 C3073 0.951 . S
H3050 C3075 0.951 . S
H3051 C3077 0.950 . S
H3052 C3078 0.950 . S
H3053 C3080 0.950 . S
H3054 C3083 0.950 . S
H3055 C3084 0.950 . S
H3056 C3086 0.950 . S
H3057 C3087 0.950 . S
C3058 H3040 0.951 . S
C3058 C3059 1.366 . S
C3058 C3060 1.388 . S
C3059 C3058 1.366 . S
C3059 C3063 1.385 . S
C3060 H3041 0.951 . S
C3060 C3058 1.388 . S
C3060 C3061 1.366 . S
C3061 C3060 1.366 . S
C3061 C3062 1.414 . S
C3061 C3064 1.499 . S
C3062 H3042 0.950 . S
C3062 C3061 1.414 . S
C3062 C3063 1.374 . S
C3063 H3043 0.950 . S
C3063 C3059 1.385 . S
C3063 C3062 1.374 . S
C3064 C3061 1.499 . S
C3064 C3065 1.373 . S
C3064 C3066 1.389 . S
C3065 H3044 0.950 . S
C3065 C3064 1.373 . S
C3065 C3081 1.377 . S
C3066 C3064 1.389 . S
C3066 C3067 1.524 . S
C3066 C3080 1.377 . S
C3067 C3066 1.524 . S
C3067 C3068 1.397 . S
C3067 C3072 1.363 . S
C3068 H3045 0.950 . S
C3068 C3067 1.397 . S
C3068 C3069 1.334 . S
C3069 H3046 0.950 . S
C3069 C3068 1.334 . S
C3069 C3070 1.287 . S
C3070 C3069 1.287 . S
C3070 C3071 1.524 . S
C3070 H3089 0.913 . S
C3071 H3047 0.950 . S
C3071 C3070 1.524 . S
C3071 C3072 1.415 . S
C3072 H3048 0.950 . S
C3072 C3067 1.363 . S
C3072 C3071 1.415 . S
C3073 H3049 0.951 . S
C3073 C3074 1.366 . S
C3073 C3075 1.388 . S
C3074 C3073 1.366 . S
C3074 C3078 1.385 . S
C3075 H3050 0.951 . S
C3075 C3073 1.388 . S
C3075 C3076 1.366 . S
C3076 C3075 1.366 . S
C3076 C3077 1.414 . S
C3076 C3079 1.499 . S
C3077 H3051 0.950 . S
C3077 C3076 1.414 . S
C3077 C3078 1.374 . S
C3078 H3052 0.950 . S
C3078 C3074 1.385 . S
C3078 C3077 1.374 . S
C3079 C3076 1.499 . S
C3079 C3080 1.373 . S
C3079 C3081 1.389 . S
C3080 H3053 0.950 . S
C3080 C3066 1.377 . S
C3080 C3079 1.373 . S
C3081 C3065 1.377 . S
C3081 C3079 1.389 . S
C3081 C3082 1.524 . S
C3082 C3081 1.524 . S
C3082 C3083 1.397 . S
C3082 C3087 1.363 . S
C3083 H3054 0.950 . S
C3083 C3082 1.397 . S
C3083 C3084 1.334 . S
C3084 H3055 0.950 . S
C3084 C3083 1.334 . S
C3084 C3085 1.287 . S
C3085 C3084 1.287 . S
C3085 C3086 1.524 . S
C3085 H3088 0.999 . S
C3086 H3056 0.950 . S
C3086 C3085 1.524 . S
C3086 C3087 1.415 . S
C3087 H3057 0.950 . S
C3087 C3082 1.363 . S
C3087 C3086 1.415 . S
H3088 C3085 0.999 . S
H3089 C3070 0.913 . S
H3090 C3108 0.951 . S
H3091 C3110 0.951 . S
H3092 C3112 0.950 . S
H3093 C3113 0.950 . S
H3094 C3115 0.950 . S
H3095 C3118 0.950 . S
H3096 C3119 0.950 . S
H3097 C3121 0.950 . S
H3098 C3122 0.950 . S
H3099 C3123 0.951 . S
H3100 C3125 0.951 . S
H3101 C3127 0.950 . S
H3102 C3128 0.950 . S
H3103 C3130 0.950 . S
H3104 C3133 0.950 . S
H3105 C3134 0.950 . S
H3106 C3136 0.950 . S
H3107 C3137 0.950 . S
C3108 H3090 0.951 . S
C3108 C3109 1.366 . S
C3108 C3110 1.388 . S
C3109 C3108 1.366 . S
C3109 C3113 1.385 . S
C3110 H3091 0.951 . S
C3110 C3108 1.388 . S
C3110 C3111 1.366 . S
C3111 C3110 1.366 . S
C3111 C3112 1.414 . S
C3111 C3114 1.499 . S
C3112 H3092 0.950 . S
C3112 C3111 1.414 . S
C3112 C3113 1.374 . S
C3113 H3093 0.950 . S
C3113 C3109 1.385 . S
C3113 C3112 1.374 . S
C3114 C3111 1.499 . S
C3114 C3115 1.373 . S
C3114 C3116 1.389 . S
C3115 H3094 0.950 . S
C3115 C3114 1.373 . S
C3115 C3131 1.377 . S
C3116 C3114 1.389 . S
C3116 C3117 1.524 . S
C3116 C3130 1.377 . S
C3117 C3116 1.524 . S
C3117 C3118 1.397 . S
C3117 C3122 1.363 . S
C3118 H3095 0.950 . S
C3118 C3117 1.397 . S
C3118 C3119 1.334 . S
C3119 H3096 0.950 . S
C3119 C3118 1.334 . S
C3119 C3120 1.287 . S
C3120 C3119 1.287 . S
C3120 C3121 1.524 . S
C3120 H3139 0.913 . S
C3121 H3097 0.950 . S
C3121 C3120 1.524 . S
C3121 C3122 1.415 . S
C3122 H3098 0.950 . S
C3122 C3117 1.363 . S
C3122 C3121 1.415 . S
C3123 H3099 0.951 . S
C3123 C3124 1.366 . S
C3123 C3125 1.388 . S
C3124 C3123 1.366 . S
C3124 C3128 1.385 . S
C3125 H3100 0.951 . S
C3125 C3123 1.388 . S
C3125 C3126 1.366 . S
C3126 C3125 1.366 . S
C3126 C3127 1.414 . S
C3126 C3129 1.499 . S
C3127 H3101 0.950 . S
C3127 C3126 1.414 . S
C3127 C3128 1.374 . S
C3128 H3102 0.950 . S
C3128 C3124 1.385 . S
C3128 C3127 1.374 . S
C3129 C3126 1.499 . S
C3129 C3130 1.373 . S
C3129 C3131 1.389 . S
C3130 H3103 0.950 . S
C3130 C3116 1.377 . S
C3130 C3129 1.373 . S
C3131 C3115 1.377 . S
C3131 C3129 1.389 . S
C3131 C3132 1.524 . S
C3132 C3131 1.524 . S
C3132 C3133 1.397 . S
C3132 C3137 1.363 . S
C3133 H3104 0.950 . S
C3133 C3132 1.397 . S
C3133 C3134 1.334 . S
C3134 H3105 0.950 . S
C3134 C3133 1.334 . S
C3134 C3135 1.287 . S
C3135 C3134 1.287 . S
C3135 C3136 1.524 . S
C3135 H3138 0.999 . S
C3136 H3106 0.950 . S
C3136 C3135 1.524 . S
C3136 C3137 1.415 . S
C3137 H3107 0.950 . S
C3137 C3132 1.363 . S
C3137 C3136 1.415 . S
H3138 C3135 0.999 . S
H3139 C3120 0.913 . S
H3140 C3158 0.951 . S
H3141 C3160 0.951 . S
H3142 C3162 0.950 . S
H3143 C3163 0.950 . S
H3144 C3165 0.950 . S
H3145 C3168 0.950 . S
H3146 C3169 0.950 . S
H3147 C3171 0.950 . S
H3148 C3172 0.950 . S
H3149 C3173 0.951 . S
H3150 C3175 0.951 . S
H3151 C3177 0.950 . S
H3152 C3178 0.950 . S
H3153 C3180 0.950 . S
H3154 C3183 0.950 . S
H3155 C3184 0.950 . S
H3156 C3186 0.950 . S
H3157 C3187 0.950 . S
C3158 H3140 0.951 . S
C3158 C3159 1.366 . S
C3158 C3160 1.388 . S
C3159 C3158 1.366 . S
C3159 C3163 1.385 . S
C3160 H3141 0.951 . S
C3160 C3158 1.388 . S
C3160 C3161 1.366 . S
C3161 C3160 1.366 . S
C3161 C3162 1.414 . S
C3161 C3164 1.499 . S
C3162 H3142 0.950 . S
C3162 C3161 1.414 . S
C3162 C3163 1.374 . S
C3163 H3143 0.950 . S
C3163 C3159 1.385 . S
C3163 C3162 1.374 . S
C3164 C3161 1.499 . S
C3164 C3165 1.373 . S
C3164 C3166 1.389 . S
C3165 H3144 0.950 . S
C3165 C3164 1.373 . S
C3165 C3181 1.377 . S
C3166 C3164 1.389 . S
C3166 C3167 1.524 . S
C3166 C3180 1.377 . S
C3167 C3166 1.524 . S
C3167 C3168 1.397 . S
C3167 C3172 1.363 . S
C3168 H3145 0.950 . S
C3168 C3167 1.397 . S
C3168 C3169 1.334 . S
C3169 H3146 0.950 . S
C3169 C3168 1.334 . S
C3169 C3170 1.287 . S
C3170 C3169 1.287 . S
C3170 C3171 1.524 . S
C3170 H3189 0.913 . S
C3171 H3147 0.950 . S
C3171 C3170 1.524 . S
C3171 C3172 1.415 . S
C3172 H3148 0.950 . S
C3172 C3167 1.363 . S
C3172 C3171 1.415 . S
C3173 H3149 0.951 . S
C3173 C3174 1.366 . S
C3173 C3175 1.388 . S
C3174 C3173 1.366 . S
C3174 C3178 1.385 . S
C3175 H3150 0.951 . S
C3175 C3173 1.388 . S
C3175 C3176 1.366 . S
C3176 C3175 1.366 . S
C3176 C3177 1.414 . S
C3176 C3179 1.499 . S
C3177 H3151 0.950 . S
C3177 C3176 1.414 . S
C3177 C3178 1.374 . S
C3178 H3152 0.950 . S
C3178 C3174 1.385 . S
C3178 C3177 1.374 . S
C3179 C3176 1.499 . S
C3179 C3180 1.373 . S
C3179 C3181 1.389 . S
C3180 H3153 0.950 . S
C3180 C3166 1.377 . S
C3180 C3179 1.373 . S
C3181 C3165 1.377 . S
C3181 C3179 1.389 . S
C3181 C3182 1.524 . S
C3182 C3181 1.524 . S
C3182 C3183 1.397 . S
C3182 C3187 1.363 . S
C3183 H3154 0.950 . S
C3183 C3182 1.397 . S
C3183 C3184 1.334 . S
C3184 H3155 0.950 . S
C3184 C3183 1.334 . S
C3184 C3185 1.287 . S
C3185 C3184 1.287 . S
C3185 C3186 1.524 . S
C3185 H3188 0.999 . S
C3186 H3156 0.950 . S
C3186 C3185 1.524 . S
C3186 C3187 1.415 . S
C3187 H3157 0.950 . S
C3187 C3182 1.363 . S
C3187 C3186 1.415 . S
H3188 C3185 0.999 . S
H3189 C3170 0.913 . S
H3190 C3208 0.951 . S
H3191 C3210 0.951 . S
H3192 C3212 0.950 . S
H3193 C3213 0.950 . S
H3194 C3215 0.950 . S
H3195 C3218 0.950 . S
H3196 C3219 0.950 . S
H3197 C3221 0.950 . S
H3198 C3222 0.950 . S
H3199 C3223 0.951 . S
H3200 C3225 0.951 . S
H3201 C3227 0.950 . S
H3202 C3228 0.950 . S
H3203 C3230 0.950 . S
H3204 C3233 0.950 . S
H3205 C3234 0.950 . S
H3206 C3236 0.950 . S
H3207 C3237 0.950 . S
C3208 H3190 0.951 . S
C3208 C3209 1.366 . S
C3208 C3210 1.388 . S
C3209 C3208 1.366 . S
C3209 C3213 1.385 . S
C3210 H3191 0.951 . S
C3210 C3208 1.388 . S
C3210 C3211 1.366 . S
C3211 C3210 1.366 . S
C3211 C3212 1.414 . S
C3211 C3214 1.499 . S
C3212 H3192 0.950 . S
C3212 C3211 1.414 . S
C3212 C3213 1.374 . S
C3213 H3193 0.950 . S
C3213 C3209 1.385 . S
C3213 C3212 1.374 . S
C3214 C3211 1.499 . S
C3214 C3215 1.373 . S
C3214 C3216 1.389 . S
C3215 H3194 0.950 . S
C3215 C3214 1.373 . S
C3215 C3231 1.377 . S
C3216 C3214 1.389 . S
C3216 C3217 1.524 . S
C3216 C3230 1.377 . S
C3217 C3216 1.524 . S
C3217 C3218 1.397 . S
C3217 C3222 1.363 . S
C3218 H3195 0.950 . S
C3218 C3217 1.397 . S
C3218 C3219 1.334 . S
C3219 H3196 0.950 . S
C3219 C3218 1.334 . S
C3219 C3220 1.287 . S
C3220 C3219 1.287 . S
C3220 C3221 1.524 . S
C3220 H3239 0.913 . S
C3221 H3197 0.950 . S
C3221 C3220 1.524 . S
C3221 C3222 1.415 . S
C3222 H3198 0.950 . S
C3222 C3217 1.363 . S
C3222 C3221 1.415 . S
C3223 H3199 0.951 . S
C3223 C3224 1.366 . S
C3223 C3225 1.388 . S
C3224 C3223 1.366 . S
C3224 C3228 1.385 . S
C3225 H3200 0.951 . S
C3225 C3223 1.388 . S
C3225 C3226 1.366 . S
C3226 C3225 1.366 . S
C3226 C3227 1.414 . S
C3226 C3229 1.499 . S
C3227 H3201 0.950 . S
C3227 C3226 1.414 . S
C3227 C3228 1.374 . S
C3228 H3202 0.950 . S
C3228 C3224 1.385 . S
C3228 C3227 1.374 . S
C3229 C3226 1.499 . S
C3229 C3230 1.373 . S
C3229 C3231 1.389 . S
C3230 H3203 0.950 . S
C3230 C3216 1.377 . S
C3230 C3229 1.373 . S
C3231 C3215 1.377 . S
C3231 C3229 1.389 . S
C3231 C3232 1.524 . S
C3232 C3231 1.524 . S
C3232 C3233 1.397 . S
C3232 C3237 1.363 . S
C3233 H3204 0.950 . S
C3233 C3232 1.397 . S
C3233 C3234 1.334 . S
C3234 H3205 0.950 . S
C3234 C3233 1.334 . S
C3234 C3235 1.287 . S
C3235 C3234 1.287 . S
C3235 C3236 1.524 . S
C3235 H3238 0.999 . S
C3236 H3206 0.950 . S
C3236 C3235 1.524 . S
C3236 C3237 1.415 . S
C3237 H3207 0.950 . S
C3237 C3232 1.363 . S
C3237 C3236 1.415 . S
H3238 C3235 0.999 . S
H3239 C3220 0.913 . S
H3240 C3258 0.951 . S
H3241 C3260 0.951 . S
H3242 C3262 0.950 . S
H3243 C3263 0.950 . S
H3244 C3265 0.950 . S
H3245 C3268 0.950 . S
H3246 C3269 0.950 . S
H3247 C3271 0.950 . S
H3248 C3272 0.950 . S
H3249 C3273 0.951 . S
H3250 C3275 0.951 . S
H3251 C3277 0.950 . S
H3252 C3278 0.950 . S
H3253 C3280 0.950 . S
H3254 C3283 0.950 . S
H3255 C3284 0.950 . S
H3256 C3286 0.950 . S
H3257 C3287 0.950 . S
C3258 H3240 0.951 . S
C3258 C3259 1.366 . S
C3258 C3260 1.388 . S
C3259 C3258 1.366 . S
C3259 C3263 1.385 . S
C3260 H3241 0.951 . S
C3260 C3258 1.388 . S
C3260 C3261 1.366 . S
C3261 C3260 1.366 . S
C3261 C3262 1.414 . S
C3261 C3264 1.499 . S
C3262 H3242 0.950 . S
C3262 C3261 1.414 . S
C3262 C3263 1.374 . S
C3263 H3243 0.950 . S
C3263 C3259 1.385 . S
C3263 C3262 1.374 . S
C3264 C3261 1.499 . S
C3264 C3265 1.373 . S
C3264 C3266 1.389 . S
C3265 H3244 0.950 . S
C3265 C3264 1.373 . S
C3265 C3281 1.377 . S
C3266 C3264 1.389 . S
C3266 C3267 1.524 . S
C3266 C3280 1.377 . S
C3267 C3266 1.524 . S
C3267 C3268 1.397 . S
C3267 C3272 1.363 . S
C3268 H3245 0.950 . S
C3268 C3267 1.397 . S
C3268 C3269 1.334 . S
C3269 H3246 0.950 . S
C3269 C3268 1.334 . S
C3269 C3270 1.287 . S
C3270 C3269 1.287 . S
C3270 C3271 1.524 . S
C3270 H3289 0.913 . S
C3271 H3247 0.950 . S
C3271 C3270 1.524 . S
C3271 C3272 1.415 . S
C3272 H3248 0.950 . S
C3272 C3267 1.363 . S
C3272 C3271 1.415 . S
C3273 H3249 0.951 . S
C3273 C3274 1.366 . S
C3273 C3275 1.388 . S
C3274 C3273 1.366 . S
C3274 C3278 1.385 . S
C3275 H3250 0.951 . S
C3275 C3273 1.388 . S
C3275 C3276 1.366 . S
C3276 C3275 1.366 . S
C3276 C3277 1.414 . S
C3276 C3279 1.499 . S
C3277 H3251 0.950 . S
C3277 C3276 1.414 . S
C3277 C3278 1.374 . S
C3278 H3252 0.950 . S
C3278 C3274 1.385 . S
C3278 C3277 1.374 . S
C3279 C3276 1.499 . S
C3279 C3280 1.373 . S
C3279 C3281 1.389 . S
C3280 H3253 0.950 . S
C3280 C3266 1.377 . S
C3280 C3279 1.373 . S
C3281 C3265 1.377 . S
C3281 C3279 1.389 . S
C3281 C3282 1.524 . S
C3282 C3281 1.524 . S
C3282 C3283 1.397 . S
C3282 C3287 1.363 . S
C3283 H3254 0.950 . S
C3283 C3282 1.397 . S
C3283 C3284 1.334 . S
C3284 H3255 0.950 . S
C3284 C3283 1.334 . S
C3284 C3285 1.287 . S
C3285 C3284 1.287 . S
C3285 C3286 1.524 . S
C3285 H3288 0.999 . S
C3286 H3256 0.950 . S
C3286 C3285 1.524 . S
C3286 C3287 1.415 . S
C3287 H3257 0.950 . S
C3287 C3282 1.363 . S
C3287 C3286 1.415 . S
H3288 C3285 0.999 . S
H3289 C3270 0.913 . S
H3290 C3308 0.951 . S
H3291 C3310 0.951 . S
H3292 C3312 0.950 . S
H3293 C3313 0.950 . S
H3294 C3315 0.950 . S
H3295 C3318 0.950 . S
H3296 C3319 0.950 . S
H3297 C3321 0.950 . S
H3298 C3322 0.950 . S
H3299 C3323 0.951 . S
H3300 C3325 0.951 . S
H3301 C3327 0.950 . S
H3302 C3328 0.950 . S
H3303 C3330 0.950 . S
H3304 C3333 0.950 . S
H3305 C3334 0.950 . S
H3306 C3336 0.950 . S
H3307 C3337 0.950 . S
C3308 H3290 0.951 . S
C3308 C3309 1.366 . S
C3308 C3310 1.388 . S
C3309 C3308 1.366 . S
C3309 C3313 1.385 . S
C3310 H3291 0.951 . S
C3310 C3308 1.388 . S
C3310 C3311 1.366 . S
C3311 C3310 1.366 . S
C3311 C3312 1.414 . S
C3311 C3314 1.499 . S
C3312 H3292 0.950 . S
C3312 C3311 1.414 . S
C3312 C3313 1.374 . S
C3313 H3293 0.950 . S
C3313 C3309 1.385 . S
C3313 C3312 1.374 . S
C3314 C3311 1.499 . S
C3314 C3315 1.373 . S
C3314 C3316 1.389 . S
C3315 H3294 0.950 . S
C3315 C3314 1.373 . S
C3315 C3331 1.377 . S
C3316 C3314 1.389 . S
C3316 C3317 1.524 . S
C3316 C3330 1.377 . S
C3317 C3316 1.524 . S
C3317 C3318 1.397 . S
C3317 C3322 1.363 . S
C3318 H3295 0.950 . S
C3318 C3317 1.397 . S
C3318 C3319 1.334 . S
C3319 H3296 0.950 . S
C3319 C3318 1.334 . S
C3319 C3320 1.287 . S
C3320 C3319 1.287 . S
C3320 C3321 1.524 . S
C3320 H3339 0.913 . S
C3321 H3297 0.950 . S
C3321 C3320 1.524 . S
C3321 C3322 1.415 . S
C3322 H3298 0.950 . S
C3322 C3317 1.363 . S
C3322 C3321 1.415 . S
C3323 H3299 0.951 . S
C3323 C3324 1.366 . S
C3323 C3325 1.388 . S
C3324 C3323 1.366 . S
C3324 C3328 1.385 . S
C3325 H3300 0.951 . S
C3325 C3323 1.388 . S
C3325 C3326 1.366 . S
C3326 C3325 1.366 . S
C3326 C3327 1.414 . S
C3326 C3329 1.499 . S
C3327 H3301 0.950 . S
C3327 C3326 1.414 . S
C3327 C3328 1.374 . S
C3328 H3302 0.950 . S
C3328 C3324 1.385 . S
C3328 C3327 1.374 . S
C3329 C3326 1.499 . S
C3329 C3330 1.373 . S
C3329 C3331 1.389 . S
C3330 H3303 0.950 . S
C3330 C3316 1.377 . S
C3330 C3329 1.373 . S
C3331 C3315 1.377 . S
C3331 C3329 1.389 . S
C3331 C3332 1.524 . S
C3332 C3331 1.524 . S
C3332 C3333 1.397 . S
C3332 C3337 1.363 . S
C3333 H3304 0.950 . S
C3333 C3332 1.397 . S
C3333 C3334 1.334 . S
C3334 H3305 0.950 . S
C3334 C3333 1.334 . S
C3334 C3335 1.287 . S
C3335 C3334 1.287 . S
C3335 C3336 1.524 . S
C3335 H3338 0.999 . S
C3336 H3306 0.950 . S
C3336 C3335 1.524 . S
C3336 C3337 1.415 . S
C3337 H3307 0.950 . S
C3337 C3332 1.363 . S
C3337 C3336 1.415 . S
H3338 C3335 0.999 . S
H3339 C3320 0.913 . S
H3340 C3358 0.951 . S
H3341 C3360 0.951 . S
H3342 C3362 0.950 . S
H3343 C3363 0.950 . S
H3344 C3365 0.950 . S
H3345 C3368 0.950 . S
H3346 C3369 0.950 . S
H3347 C3371 0.950 . S
H3348 C3372 0.950 . S
H3349 C3373 0.951 . S
H3350 C3375 0.951 . S
H3351 C3377 0.950 . S
H3352 C3378 0.950 . S
H3353 C3380 0.950 . S
H3354 C3383 0.950 . S
H3355 C3384 0.950 . S
H3356 C3386 0.950 . S
H3357 C3387 0.950 . S
C3358 H3340 0.951 . S
C3358 C3359 1.366 . S
C3358 C3360 1.388 . S
C3359 C3358 1.366 . S
C3359 C3363 1.385 . S
C3360 H3341 0.951 . S
C3360 C3358 1.388 . S
C3360 C3361 1.366 . S
C3361 C3360 1.366 . S
C3361 C3362 1.414 . S
C3361 C3364 1.499 . S
C3362 H3342 0.950 . S
C3362 C3361 1.414 . S
C3362 C3363 1.374 . S
C3363 H3343 0.950 . S
C3363 C3359 1.385 . S
C3363 C3362 1.374 . S
C3364 C3361 1.499 . S
C3364 C3365 1.373 . S
C3364 C3366 1.389 . S
C3365 H3344 0.950 . S
C3365 C3364 1.373 . S
C3365 C3381 1.377 . S
C3366 C3364 1.389 . S
C3366 C3367 1.524 . S
C3366 C3380 1.377 . S
C3367 C3366 1.524 . S
C3367 C3368 1.397 . S
C3367 C3372 1.363 . S
C3368 H3345 0.950 . S
C3368 C3367 1.397 . S
C3368 C3369 1.334 . S
C3369 H3346 0.950 . S
C3369 C3368 1.334 . S
C3369 C3370 1.287 . S
C3370 C3369 1.287 . S
C3370 C3371 1.524 . S
C3370 H3389 0.913 . S
C3371 H3347 0.950 . S
C3371 C3370 1.524 . S
C3371 C3372 1.415 . S
C3372 H3348 0.950 . S
C3372 C3367 1.363 . S
C3372 C3371 1.415 . S
C3373 H3349 0.951 . S
C3373 C3374 1.366 . S
C3373 C3375 1.388 . S
C3374 C3373 1.366 . S
C3374 C3378 1.385 . S
C3375 H3350 0.951 . S
C3375 C3373 1.388 . S
C3375 C3376 1.366 . S
C3376 C3375 1.366 . S
C3376 C3377 1.414 . S
C3376 C3379 1.499 . S
C3377 H3351 0.950 . S
C3377 C3376 1.414 . S
C3377 C3378 1.374 . S
C3378 H3352 0.950 . S
C3378 C3374 1.385 . S
C3378 C3377 1.374 . S
C3379 C3376 1.499 . S
C3379 C3380 1.373 . S
C3379 C3381 1.389 . S
C3380 H3353 0.950 . S
C3380 C3366 1.377 . S
C3380 C3379 1.373 . S
C3381 C3365 1.377 . S
C3381 C3379 1.389 . S
C3381 C3382 1.524 . S
C3382 C3381 1.524 . S
C3382 C3383 1.397 . S
C3382 C3387 1.363 . S
C3383 H3354 0.950 . S
C3383 C3382 1.397 . S
C3383 C3384 1.334 . S
C3384 H3355 0.950 . S
C3384 C3383 1.334 . S
C3384 C3385 1.287 . S
C3385 C3384 1.287 . S
C3385 C3386 1.524 . S
C3385 H3388 0.999 . S
C3386 H3356 0.950 . S
C3386 C3385 1.524 . S
C3386 C3387 1.415 . S
C3387 H3357 0.950 . S
C3387 C3382 1.363 . S
C3387 C3386 1.415 . S
H3388 C3385 0.999 . S
H3389 C3370 0.913 . S
H3390 C3408 0.951 . S
H3391 C3410 0.951 . S
H3392 C3412 0.950 . S
H3393 C3413 0.950 . S
H3394 C3415 0.950 . S
H3395 C3418 0.950 . S
H3396 C3419 0.950 . S
H3397 C3421 0.950 . S
H3398 C3422 0.950 . S
H3399 C3423 0.951 . S
H3400 C3425 0.951 . S
H3401 C3427 0.950 . S
H3402 C3428 0.950 . S
H3403 C3430 0.950 . S
H3404 C3433 0.950 . S
H3405 C3434 0.950 . S
H3406 C3436 0.950 . S
H3407 C3437 0.950 . S
C3408 H3390 0.951 . S
C3408 C3409 1.366 . S
C3408 C3410 1.388 . S
C3409 C3408 1.366 . S
C3409 C3413 1.385 . S
C3410 H3391 0.951 . S
C3410 C3408 1.388 . S
C3410 C3411 1.366 . S
C3411 C3410 1.366 . S
C3411 C3412 1.414 . S
C3411 C3414 1.499 . S
C3412 H3392 0.950 . S
C3412 C3411 1.414 . S
C3412 C3413 1.374 . S
C3413 H3393 0.950 . S
C3413 C3409 1.385 . S
C3413 C3412 1.374 . S
C3414 C3411 1.499 . S
C3414 C3415 1.373 . S
C3414 C3416 1.389 . S
C3415 H3394 0.950 . S
C3415 C3414 1.373 . S
C3415 C3431 1.377 . S
C3416 C3414 1.389 . S
C3416 C3417 1.524 . S
C3416 C3430 1.377 . S
C3417 C3416 1.524 . S
C3417 C3418 1.397 . S
C3417 C3422 1.363 . S
C3418 H3395 0.950 . S
C3418 C3417 1.397 . S
C3418 C3419 1.334 . S
C3419 H3396 0.950 . S
C3419 C3418 1.334 . S
C3419 C3420 1.287 . S
C3420 C3419 1.287 . S
C3420 C3421 1.524 . S
C3420 H3439 0.913 . S
C3421 H3397 0.950 . S
C3421 C3420 1.524 . S
C3421 C3422 1.415 . S
C3422 H3398 0.950 . S
C3422 C3417 1.363 . S
C3422 C3421 1.415 . S
C3423 H3399 0.951 . S
C3423 C3424 1.366 . S
C3423 C3425 1.388 . S
C3424 C3423 1.366 . S
C3424 C3428 1.385 . S
C3425 H3400 0.951 . S
C3425 C3423 1.388 . S
C3425 C3426 1.366 . S
C3426 C3425 1.366 . S
C3426 C3427 1.414 . S
C3426 C3429 1.499 . S
C3427 H3401 0.950 . S
C3427 C3426 1.414 . S
C3427 C3428 1.374 . S
C3428 H3402 0.950 . S
C3428 C3424 1.385 . S
C3428 C3427 1.374 . S
C3429 C3426 1.499 . S
C3429 C3430 1.373 . S
C3429 C3431 1.389 . S
C3430 H3403 0.950 . S
C3430 C3416 1.377 . S
C3430 C3429 1.373 . S
C3431 C3415 1.377 . S
C3431 C3429 1.389 . S
C3431 C3432 1.524 . S
C3432 C3431 1.524 . S
C3432 C3433 1.397 . S
C3432 C3437 1.363 . S
C3433 H3404 0.950 . S
C3433 C3432 1.397 . S
C3433 C3434 1.334 . S
C3434 H3405 0.950 . S
C3434 C3433 1.334 . S
C3434 C3435 1.287 . S
C3435 C3434 1.287 . S
C3435 C3436 1.524 . S
C3435 H3438 0.999 . S
C3436 H3406 0.950 . S
C3436 C3435 1.524 . S
C3436 C3437 1.415 . S
C3437 H3407 0.950 . S
C3437 C3432 1.363 . S
C3437 C3436 1.415 . S
H3438 C3435 0.999 . S
H3439 C3420 0.913 . S
H3440 C3458 0.951 . S
H3441 C3460 0.951 . S
H3442 C3462 0.950 . S
H3443 C3463 0.950 . S
H3444 C3465 0.950 . S
H3445 C3468 0.950 . S
H3446 C3469 0.950 . S
H3447 C3471 0.950 . S
H3448 C3472 0.950 . S
H3449 C3473 0.951 . S
H3450 C3475 0.951 . S
H3451 C3477 0.950 . S
H3452 C3478 0.950 . S
H3453 C3480 0.950 . S
H3454 C3483 0.950 . S
H3455 C3484 0.950 . S
H3456 C3486 0.950 . S
H3457 C3487 0.950 . S
C3458 H3440 0.951 . S
C3458 C3459 1.366 . S
C3458 C3460 1.388 . S
C3459 C3458 1.366 . S
C3459 C3463 1.385 . S
C3460 H3441 0.951 . S
C3460 C3458 1.388 . S
C3460 C3461 1.366 . S
C3461 C3460 1.366 . S
C3461 C3462 1.414 . S
C3461 C3464 1.499 . S
C3462 H3442 0.950 . S
C3462 C3461 1.414 . S
C3462 C3463 1.374 . S
C3463 H3443 0.950 . S
C3463 C3459 1.385 . S
C3463 C3462 1.374 . S
C3464 C3461 1.499 . S
C3464 C3465 1.373 . S
C3464 C3466 1.389 . S
C3465 H3444 0.950 . S
C3465 C3464 1.373 . S
C3465 C3481 1.377 . S
C3466 C3464 1.389 . S
C3466 C3467 1.524 . S
C3466 C3480 1.377 . S
C3467 C3466 1.524 . S
C3467 C3468 1.397 . S
C3467 C3472 1.363 . S
C3468 H3445 0.950 . S
C3468 C3467 1.397 . S
C3468 C3469 1.334 . S
C3469 H3446 0.950 . S
C3469 C3468 1.334 . S
C3469 C3470 1.287 . S
C3470 C3469 1.287 . S
C3470 C3471 1.524 . S
C3470 H3489 0.913 . S
C3471 H3447 0.950 . S
C3471 C3470 1.524 . S
C3471 C3472 1.415 . S
C3472 H3448 0.950 . S
C3472 C3467 1.363 . S
C3472 C3471 1.415 . S
C3473 H3449 0.951 . S
C3473 C3474 1.366 . S
C3473 C3475 1.388 . S
C3474 C3473 1.366 . S
C3474 C3478 1.385 . S
C3475 H3450 0.951 . S
C3475 C3473 1.388 . S
C3475 C3476 1.366 . S
C3476 C3475 1.366 . S
C3476 C3477 1.414 . S
C3476 C3479 1.499 . S
C3477 H3451 0.950 . S
C3477 C3476 1.414 . S
C3477 C3478 1.374 . S
C3478 H3452 0.950 . S
C3478 C3474 1.385 . S
C3478 C3477 1.374 . S
C3479 C3476 1.499 . S
C3479 C3480 1.373 . S
C3479 C3481 1.389 . S
C3480 H3453 0.950 . S
C3480 C3466 1.377 . S
C3480 C3479 1.373 . S
C3481 C3465 1.377 . S
C3481 C3479 1.389 . S
C3481 C3482 1.524 . S
C3482 C3481 1.524 . S
C3482 C3483 1.397 . S
C3482 C3487 1.363 . S
C3483 H3454 0.950 . S
C3483 C3482 1.397 . S
C3483 C3484 1.334 . S
C3484 H3455 0.950 . S
C3484 C3483 1.334 . S
C3484 C3485 1.287 . S
C3485 C3484 1.287 . S
C3485 C3486 1.524 . S
C3485 H3488 0.999 . S
C3486 H3456 0.950 . S
C3486 C3485 1.524 . S
C3486 C3487 1.415 . S
C3487 H3457 0.950 . S
C3487 C3482 1.363 . S
C3487 C3486 1.415 . S
H3488 C3485 0.999 . S
H3489 C3470 0.913 . S
H3490 C3508 0.951 . S
H3491 C3510 0.951 . S
H3492 C3512 0.950 . S
H3493 C3513 0.950 . S
H3494 C3515 0.950 . S
H3495 C3518 0.950 . S
H3496 C3519 0.950 . S
H3497 C3521 0.950 . S
H3498 C3522 0.950 . S
H3499 C3523 0.951 . S
H3500 C3525 0.951 . S
H3501 C3527 0.950 . S
H3502 C3528 0.950 . S
H3503 C3530 0.950 . S
H3504 C3533 0.950 . S
H3505 C3534 0.950 . S
H3506 C3536 0.950 . S
H3507 C3537 0.950 . S
C3508 H3490 0.951 . S
C3508 C3509 1.366 . S
C3508 C3510 1.388 . S
C3509 C3508 1.366 . S
C3509 C3513 1.385 . S
C3510 H3491 0.951 . S
C3510 C3508 1.388 . S
C3510 C3511 1.366 . S
C3511 C3510 1.366 . S
C3511 C3512 1.414 . S
C3511 C3514 1.499 . S
C3512 H3492 0.950 . S
C3512 C3511 1.414 . S
C3512 C3513 1.374 . S
C3513 H3493 0.950 . S
C3513 C3509 1.385 . S
C3513 C3512 1.374 . S
C3514 C3511 1.499 . S
C3514 C3515 1.373 . S
C3514 C3516 1.389 . S
C3515 H3494 0.950 . S
C3515 C3514 1.373 . S
C3515 C3531 1.377 . S
C3516 C3514 1.389 . S
C3516 C3517 1.524 . S
C3516 C3530 1.377 . S
C3517 C3516 1.524 . S
C3517 C3518 1.397 . S
C3517 C3522 1.363 . S
C3518 H3495 0.950 . S
C3518 C3517 1.397 . S
C3518 C3519 1.334 . S
C3519 H3496 0.950 . S
C3519 C3518 1.334 . S
C3519 C3520 1.287 . S
C3520 C3519 1.287 . S
C3520 C3521 1.524 . S
C3520 H3539 0.913 . S
C3521 H3497 0.950 . S
C3521 C3520 1.524 . S
C3521 C3522 1.415 . S
C3522 H3498 0.950 . S
C3522 C3517 1.363 . S
C3522 C3521 1.415 . S
C3523 H3499 0.951 . S
C3523 C3524 1.366 . S
C3523 C3525 1.388 . S
C3524 C3523 1.366 . S
C3524 C3528 1.385 . S
C3525 H3500 0.951 . S
C3525 C3523 1.388 . S
C3525 C3526 1.366 . S
C3526 C3525 1.366 . S
C3526 C3527 1.414 . S
C3526 C3529 1.499 . S
C3527 H3501 0.950 . S
C3527 C3526 1.414 . S
C3527 C3528 1.374 . S
C3528 H3502 0.950 . S
C3528 C3524 1.385 . S
C3528 C3527 1.374 . S
C3529 C3526 1.499 . S
C3529 C3530 1.373 . S
C3529 C3531 1.389 . S
C3530 H3503 0.950 . S
C3530 C3516 1.377 . S
C3530 C3529 1.373 . S
C3531 C3515 1.377 . S
C3531 C3529 1.389 . S
C3531 C3532 1.524 . S
C3532 C3531 1.524 . S
C3532 C3533 1.397 . S
C3532 C3537 1.363 . S
C3533 H3504 0.950 . S
C3533 C3532 1.397 . S
C3533 C3534 1.334 . S
C3534 H3505 0.950 . S
C3534 C3533 1.334 . S
C3534 C3535 1.287 . S
C3535 C3534 1.287 . S
C3535 C3536 1.524 . S
C3535 H3538 0.999 . S
C3536 H3506 0.950 . S
C3536 C3535 1.524 . S
C3536 C3537 1.415 . S
C3537 H3507 0.950 . S
C3537 C3532 1.363 . S
C3537 C3536 1.415 . S
H3538 C3535 0.999 . S
H3539 C3520 0.913 . S
H3540 C3558 0.951 . S
H3541 C3560 0.951 . S
H3542 C3562 0.950 . S
H3543 C3563 0.950 . S
H3544 C3565 0.950 . S
H3545 C3568 0.950 . S
H3546 C3569 0.950 . S
H3547 C3571 0.950 . S
H3548 C3572 0.950 . S
H3549 C3573 0.951 . S
H3550 C3575 0.951 . S
H3551 C3577 0.950 . S
H3552 C3578 0.950 . S
H3553 C3580 0.950 . S
H3554 C3583 0.950 . S
H3555 C3584 0.950 . S
H3556 C3586 0.950 . S
H3557 C3587 0.950 . S
C3558 H3540 0.951 . S
C3558 C3559 1.366 . S
C3558 C3560 1.388 . S
C3559 C3558 1.366 . S
C3559 C3563 1.385 . S
C3560 H3541 0.951 . S
C3560 C3558 1.388 . S
C3560 C3561 1.366 . S
C3561 C3560 1.366 . S
C3561 C3562 1.414 . S
C3561 C3564 1.499 . S
C3562 H3542 0.950 . S
C3562 C3561 1.414 . S
C3562 C3563 1.374 . S
C3563 H3543 0.950 . S
C3563 C3559 1.385 . S
C3563 C3562 1.374 . S
C3564 C3561 1.499 . S
C3564 C3565 1.373 . S
C3564 C3566 1.389 . S
C3565 H3544 0.950 . S
C3565 C3564 1.373 . S
C3565 C3581 1.377 . S
C3566 C3564 1.389 . S
C3566 C3567 1.524 . S
C3566 C3580 1.377 . S
C3567 C3566 1.524 . S
C3567 C3568 1.397 . S
C3567 C3572 1.363 . S
C3568 H3545 0.950 . S
C3568 C3567 1.397 . S
C3568 C3569 1.334 . S
C3569 H3546 0.950 . S
C3569 C3568 1.334 . S
C3569 C3570 1.287 . S
C3570 C3569 1.287 . S
C3570 C3571 1.524 . S
C3570 H3589 0.913 . S
C3571 H3547 0.950 . S
C3571 C3570 1.524 . S
C3571 C3572 1.415 . S
C3572 H3548 0.950 . S
C3572 C3567 1.363 . S
C3572 C3571 1.415 . S
C3573 H3549 0.951 . S
C3573 C3574 1.366 . S
C3573 C3575 1.388 . S
C3574 C3573 1.366 . S
C3574 C3578 1.385 . S
C3575 H3550 0.951 . S
C3575 C3573 1.388 . S
C3575 C3576 1.366 . S
C3576 C3575 1.366 . S
C3576 C3577 1.414 . S
C3576 C3579 1.499 . S
C3577 H3551 0.950 . S
C3577 C3576 1.414 . S
C3577 C3578 1.374 . S
C3578 H3552 0.950 . S
C3578 C3574 1.385 . S
C3578 C3577 1.374 . S
C3579 C3576 1.499 . S
C3579 C3580 1.373 . S
C3579 C3581 1.389 . S
C3580 H3553 0.950 . S
C3580 C3566 1.377 . S
C3580 C3579 1.373 . S
C3581 C3565 1.377 . S
C3581 C3579 1.389 . S
C3581 C3582 1.524 . S
C3582 C3581 1.524 . S
C3582 C3583 1.397 . S
C3582 C3587 1.363 . S
C3583 H3554 0.950 . S
C3583 C3582 1.397 . S
C3583 C3584 1.334 . S
C3584 H3555 0.950 . S
C3584 C3583 1.334 . S
C3584 C3585 1.287 . S
C3585 C3584 1.287 . S
C3585 C3586 1.524 . S
C3585 H3588 0.999 . S
C3586 H3556 0.950 . S
C3586 C3585 1.524 . S
C3586 C3587 1.415 . S
C3587 H3557 0.950 . S
C3587 C3582 1.363 . S
C3587 C3586 1.415 . S
H3588 C3585 0.999 . S
H3589 C3570 0.913 . S
H3590 C3608 0.951 . S
H3591 C3610 0.951 . S
H3592 C3612 0.950 . S
H3593 C3613 0.950 . S
H3594 C3615 0.950 . S
H3595 C3618 0.950 . S
H3596 C3619 0.950 . S
H3597 C3621 0.950 . S
H3598 C3622 0.950 . S
H3599 C3623 0.951 . S
H3600 C3625 0.951 . S
H3601 C3627 0.950 . S
H3602 C3628 0.950 . S
H3603 C3630 0.950 . S
H3604 C3633 0.950 . S
H3605 C3634 0.950 . S
H3606 C3636 0.950 . S
H3607 C3637 0.950 . S
C3608 H3590 0.951 . S
C3608 C3609 1.366 . S
C3608 C3610 1.388 . S
C3609 C3608 1.366 . S
C3609 C3613 1.385 . S
C3610 H3591 0.951 . S
C3610 C3608 1.388 . S
C3610 C3611 1.366 . S
C3611 C3610 1.366 . S
C3611 C3612 1.414 . S
C3611 C3614 1.499 . S
C3612 H3592 0.950 . S
C3612 C3611 1.414 . S
C3612 C3613 1.374 . S
C3613 H3593 0.950 . S
C3613 C3609 1.385 . S
C3613 C3612 1.374 . S
C3614 C3611 1.499 . S
C3614 C3615 1.373 . S
C3614 C3616 1.389 . S
C3615 H3594 0.950 . S
C3615 C3614 1.373 . S
C3615 C3631 1.377 . S
C3616 C3614 1.389 . S
C3616 C3617 1.524 . S
C3616 C3630 1.377 . S
C3617 C3616 1.524 . S
C3617 C3618 1.397 . S
C3617 C3622 1.363 . S
C3618 H3595 0.950 . S
C3618 C3617 1.397 . S
C3618 C3619 1.334 . S
C3619 H3596 0.950 . S
C3619 C3618 1.334 . S
C3619 C3620 1.287 . S
C3620 C3619 1.287 . S
C3620 C3621 1.524 . S
C3620 H3639 0.913 . S
C3621 H3597 0.950 . S
C3621 C3620 1.524 . S
C3621 C3622 1.415 . S
C3622 H3598 0.950 . S
C3622 C3617 1.363 . S
C3622 C3621 1.415 . S
C3623 H3599 0.951 . S
C3623 C3624 1.366 . S
C3623 C3625 1.388 . S
C3624 C3623 1.366 . S
C3624 C3628 1.385 . S
C3625 H3600 0.951 . S
C3625 C3623 1.388 . S
C3625 C3626 1.366 . S
C3626 C3625 1.366 . S
C3626 C3627 1.414 . S
C3626 C3629 1.499 . S
C3627 H3601 0.950 . S
C3627 C3626 1.414 . S
C3627 C3628 1.374 . S
C3628 H3602 0.950 . S
C3628 C3624 1.385 . S
C3628 C3627 1.374 . S
C3629 C3626 1.499 . S
C3629 C3630 1.373 . S
C3629 C3631 1.389 . S
C3630 H3603 0.950 . S
C3630 C3616 1.377 . S
C3630 C3629 1.373 . S
C3631 C3615 1.377 . S
C3631 C3629 1.389 . S
C3631 C3632 1.524 . S
C3632 C3631 1.524 . S
C3632 C3633 1.397 . S
C3632 C3637 1.363 . S
C3633 H3604 0.950 . S
C3633 C3632 1.397 . S
C3633 C3634 1.334 . S
C3634 H3605 0.950 . S
C3634 C3633 1.334 . S
C3634 C3635 1.287 . S
C3635 C3634 1.287 . S
C3635 C3636 1.524 . S
C3635 H3638 0.999 . S
C3636 H3606 0.950 . S
C3636 C3635 1.524 . S
C3636 C3637 1.415 . S
C3637 H3607 0.950 . S
C3637 C3632 1.363 . S
C3637 C3636 1.415 . S
H3638 C3635 0.999 . S
H3639 C3620 0.913 . S
H3640 C3658 0.951 . S
H3641 C3660 0.951 . S
H3642 C3662 0.950 . S
H3643 C3663 0.950 . S
H3644 C3665 0.950 . S
H3645 C3668 0.950 . S
H3646 C3669 0.950 . S
H3647 C3671 0.950 . S
H3648 C3672 0.950 . S
H3649 C3673 0.951 . S
H3650 C3675 0.951 . S
H3651 C3677 0.950 . S
H3652 C3678 0.950 . S
H3653 C3680 0.950 . S
H3654 C3683 0.950 . S
H3655 C3684 0.950 . S
H3656 C3686 0.950 . S
H3657 C3687 0.950 . S
C3658 H3640 0.951 . S
C3658 C3659 1.366 . S
C3658 C3660 1.388 . S
C3659 C3658 1.366 . S
C3659 C3663 1.385 . S
C3660 H3641 0.951 . S
C3660 C3658 1.388 . S
C3660 C3661 1.366 . S
C3661 C3660 1.366 . S
C3661 C3662 1.414 . S
C3661 C3664 1.499 . S
C3662 H3642 0.950 . S
C3662 C3661 1.414 . S
C3662 C3663 1.374 . S
C3663 H3643 0.950 . S
C3663 C3659 1.385 . S
C3663 C3662 1.374 . S
C3664 C3661 1.499 . S
C3664 C3665 1.373 . S
C3664 C3666 1.389 . S
C3665 H3644 0.950 . S
C3665 C3664 1.373 . S
C3665 C3681 1.377 . S
C3666 C3664 1.389 . S
C3666 C3667 1.524 . S
C3666 C3680 1.377 . S
C3667 C3666 1.524 . S
C3667 C3668 1.397 . S
C3667 C3672 1.363 . S
C3668 H3645 0.950 . S
C3668 C3667 1.397 . S
C3668 C3669 1.334 . S
C3669 H3646 0.950 . S
C3669 C3668 1.334 . S
C3669 C3670 1.287 . S
C3670 C3669 1.287 . S
C3670 C3671 1.524 . S
C3670 H3689 0.913 . S
C3671 H3647 0.950 . S
C3671 C3670 1.524 . S
C3671 C3672 1.415 . S
C3672 H3648 0.950 . S
C3672 C3667 1.363 . S
C3672 C3671 1.415 . S
C3673 H3649 0.951 . S
C3673 C3674 1.366 . S
C3673 C3675 1.388 . S
C3674 C3673 1.366 . S
C3674 C3678 1.385 . S
C3675 H3650 0.951 . S
C3675 C3673 1.388 . S
C3675 C3676 1.366 . S
C3676 C3675 1.366 . S
C3676 C3677 1.414 . S
C3676 C3679 1.499 . S
C3677 H3651 0.950 . S
C3677 C3676 1.414 . S
C3677 C3678 1.374 . S
C3678 H3652 0.950 . S
C3678 C3674 1.385 . S
C3678 C3677 1.374 . S
C3679 C3676 1.499 . S
C3679 C3680 1.373 . S
C3679 C3681 1.389 . S
C3680 H3653 0.950 . S
C3680 C3666 1.377 . S
C3680 C3679 1.373 . S
C3681 C3665 1.377 . S
C3681 C3679 1.389 . S
C3681 C3682 1.524 . S
C3682 C3681 1.524 . S
C3682 C3683 1.397 . S
C3682 C3687 1.363 . S
C3683 H3654 0.950 . S
C3683 C3682 1.397 . S
C3683 C3684 1.334 . S
C3684 H3655 0.950 . S
C3684 C3683 1.334 . S
C3684 C3685 1.287 . S
C3685 C3684 1.287 . S
C3685 C3686 1.524 . S
C3685 H3688 0.999 . S
C3686 H3656 0.950 . S
C3686 C3685 1.524 . S
C3686 C3687 1.415 . S
C3687 H3657 0.950 . S
C3687 C3682 1.363 . S
C3687 C3686 1.415 . S
H3688 C3685 0.999 . S
H3689 C3670 0.913 . S
C1009 N170 2.072 . S
C1024 C290 1.992 . S
C1059 N184 0.817 . S
C1074 C374 0.807 . S
C1109 N158 1.560 . S
C1124 C468 1.534 . S
C1159 N145 1.530 . S
C1174 C384 1.486 1_556 S
C1224 C458 0.756 . S
C1209 N119 0.759 . S
C1259 N131 2.022 . S
C1274 C300 1.983 . S
C1324 C301 1.593 . S
C1309 N144 1.664 . S
C1374 C385 1.288 . S
C1359 N118 1.313 . S
C1409 N132 1.410 . S
C1424 C477 1.402 . S
C1459 N171 1.391 . S
C1474 C393 1.382 . S
C1509 N183 1.257 . S
C1524 C469 1.231 . S
C1574 C309 1.579 . S
C1559 N157 1.613 . S
C1624 C542 1.993 . S
C1609 N14 2.072 . S
C1659 N28 0.817 . S
C1674 C626 0.806 . S
C1709 N2 1.560 . S
C1724 C720 1.533 . S
C1759 N223 1.530 . S
C1774 C636 1.504 . S
C1809 N197 0.758 . S
C1824 C710 0.755 . S
C1859 N209 2.022 . S
C1874 C552 1.983 . S
C1909 N222 1.663 . S
C1924 C553 1.592 . S
C1959 N196 1.313 . S
C1974 C637 1.288 . S
C2024 C729 1.403 . S
C2009 N210 1.411 . S
C2059 N15 1.391 . S
C2074 C645 1.382 . S
C2124 C721 1.231 . S
C2109 N27 1.257 . S
C2159 N1 1.613 . S
C2174 C561 1.579 . S
C2224 C794 1.994 . S
C2209 N92 2.072 . S
C2259 N106 0.817 . S
C2274 C878 0.808 . S
C2324 C972 1.533 . S
C2309 N80 1.560 . S
C2374 C888 1.505 . S
C2359 N67 1.530 . S
C2424 C962 0.757 . S
C2409 N41 0.758 . S
C2459 N53 2.022 . S
C2474 C804 1.983 . S
C2509 N66 1.664 . S
C2524 C805 1.593 . S
C2559 N40 1.314 . S
C2574 C889 1.288 . S
C2624 C981 1.403 . S
C2609 N54 1.411 . S
C2659 N93 1.391 . S
C2674 C897 1.382 . S
C2709 N105 1.257 . S
C2724 C973 1.232 . S
C2759 N79 1.614 . S
C2774 C813 1.580 . S
C2809 N200 1.162 . S
C2824 C297 1.064 . S
C2874 C381 1.686 . S
C2859 N213 1.869 . S
C2909 N226 1.483 . S
C2924 C474 1.364 . S
C2959 N83 1.519 . S
C2974 C390 1.391 . S
C3009 N96 1.839 . S
C3024 C465 1.663 . S
C3074 C306 1.095 . S
C3059 N109 1.180 . S
C3109 N44 1.161 . S
C3124 C549 1.062 . S
C3159 N57 1.868 . S
C3174 C633 1.686 . S
C3209 N70 1.483 . S
C3224 C726 1.362 . S
C3259 N161 1.519 . S
C3274 C642 1.391 . S
C3324 C717 1.665 . S
C3309 N174 1.840 . S
C3359 N187 1.181 . S
C3374 C558 1.094 . S
C3409 N122 1.162 . S
C3424 C801 1.061 . S
C3459 N135 1.868 . S
C3474 C885 1.687 . S
C3524 C978 1.363 . S
C3509 N148 1.483 . S
C3559 N5 1.520 . S
C3574 C894 1.393 . S
C3609 N18 1.840 . S
C3624 C969 1.664 . S
C3659 N31 1.180 . S
C3674 C810 1.095 . S
