# Generated by pormake.
# Topology ptr, (4,4)-cn, num edge types: 1
# Building blocks:
#     Node 0, Type 0, BuildingBlock: NAHDIM_clean_sbu_0, # of connection points: 4
#     Node 1, Type 0, BuildingBlock: NAHDIM_clean_sbu_0, # of connection points: 4
#     Node 2, Type 0, BuildingBlock: NAHDIM_clean_sbu_0, # of connection points: 4
#     Node 3, Type 0, BuildingBlock: NAHDIM_clean_sbu_0, # of connection points: 4
#     Node 4, Type 0, BuildingBlock: NAHDIM_clean_sbu_0, # of connection points: 4
#     Node 5, Type 0, BuildingBlock: NAHDIM_clean_sbu_0, # of connection points: 4
#     Node 6, Type 0, BuildingBlock: NAHDIM_clean_sbu_0, # of connection points: 4
#     Node 7, Type 0, BuildingBlock: NAHDIM_clean_sbu_0, # of connection points: 4
#     Node 8, Type 0, BuildingBlock: NAHDIM_clean_sbu_0, # of connection points: 4
#     Node 9, Type 0, BuildingBlock: NAHDIM_clean_sbu_0, # of connection points: 4
#     Node 10, Type 0, BuildingBlock: NAHDIM_clean_sbu_0, # of connection points: 4
#     Node 11, Type 0, BuildingBlock: NAHDIM_clean_sbu_0, # of connection points: 4
#     Node 12, Type 0, BuildingBlock: NAHDIM_clean_sbu_0, # of connection points: 4
#     Node 13, Type 0, BuildingBlock: NAHDIM_clean_sbu_0, # of connection points: 4
#     Node 14, Type 0, BuildingBlock: NAHDIM_clean_sbu_0, # of connection points: 4
#     Node 15, Type 0, BuildingBlock: NAHDIM_clean_sbu_0, # of connection points: 4
#     Node 16, Type 0, BuildingBlock: NAHDIM_clean_sbu_0, # of connection points: 4
#     Node 17, Type 0, BuildingBlock: NAHDIM_clean_sbu_0, # of connection points: 4
#     Node 18, Type 1, BuildingBlock: KUFVIS_clean_linker_0, # of connection points: 4
#     Node 19, Type 1, BuildingBlock: KUFVIS_clean_linker_0, # of connection points: 4
#     Node 20, Type 1, BuildingBlock: KUFVIS_clean_linker_0, # of connection points: 4
#     Node 21, Type 1, BuildingBlock: KUFVIS_clean_linker_0, # of connection points: 4
#     Node 22, Type 1, BuildingBlock: KUFVIS_clean_linker_0, # of connection points: 4
#     Node 23, Type 1, BuildingBlock: KUFVIS_clean_linker_0, # of connection points: 4
#     Node 24, Type 1, BuildingBlock: KUFVIS_clean_linker_0, # of connection points: 4
#     Node 25, Type 1, BuildingBlock: KUFVIS_clean_linker_0, # of connection points: 4
#     Node 26, Type 1, BuildingBlock: KUFVIS_clean_linker_0, # of connection points: 4
#     Node 27, Type 1, BuildingBlock: KUFVIS_clean_linker_0, # of connection points: 4
#     Node 28, Type 1, BuildingBlock: KUFVIS_clean_linker_0, # of connection points: 4
#     Node 29, Type 1, BuildingBlock: KUFVIS_clean_linker_0, # of connection points: 4
#     Node 30, Type 1, BuildingBlock: KUFVIS_clean_linker_0, # of connection points: 4
#     Node 31, Type 1, BuildingBlock: KUFVIS_clean_linker_0, # of connection points: 4
#     Node 32, Type 1, BuildingBlock: KUFVIS_clean_linker_0, # of connection points: 4
#     Node 33, Type 1, BuildingBlock: KUFVIS_clean_linker_0, # of connection points: 4
#     Node 34, Type 1, BuildingBlock: KUFVIS_clean_linker_0, # of connection points: 4
#     Node 35, Type 1, BuildingBlock: KUFVIS_clean_linker_0, # of connection points: 4
#     Edge 36, Type (0, 1), BuildingBlock: KIFKEQ_clean_linker_1, # of connection points: 2
#     Edge 37, Type (0, 1), BuildingBlock: KIFKEQ_clean_linker_1, # of connection points: 2
#     Edge 38, Type (0, 1), BuildingBlock: KIFKEQ_clean_linker_1, # of connection points: 2
#     Edge 39, Type (0, 1), BuildingBlock: KIFKEQ_clean_linker_1, # of connection points: 2
#     Edge 40, Type (0, 1), BuildingBlock: KIFKEQ_clean_linker_1, # of connection points: 2
#     Edge 41, Type (0, 1), BuildingBlock: KIFKEQ_clean_linker_1, # of connection points: 2
#     Edge 42, Type (0, 1), BuildingBlock: KIFKEQ_clean_linker_1, # of connection points: 2
#     Edge 43, Type (0, 1), BuildingBlock: KIFKEQ_clean_linker_1, # of connection points: 2
#     Edge 44, Type (0, 1), BuildingBlock: KIFKEQ_clean_linker_1, # of connection points: 2
#     Edge 45, Type (0, 1), BuildingBlock: KIFKEQ_clean_linker_1, # of connection points: 2
#     Edge 46, Type (0, 1), BuildingBlock: KIFKEQ_clean_linker_1, # of connection points: 2
#     Edge 47, Type (0, 1), BuildingBlock: KIFKEQ_clean_linker_1, # of connection points: 2
#     Edge 48, Type (0, 1), BuildingBlock: KIFKEQ_clean_linker_1, # of connection points: 2
#     Edge 49, Type (0, 1), BuildingBlock: KIFKEQ_clean_linker_1, # of connection points: 2
#     Edge 50, Type (0, 1), BuildingBlock: KIFKEQ_clean_linker_1, # of connection points: 2
#     Edge 51, Type (0, 1), BuildingBlock: KIFKEQ_clean_linker_1, # of connection points: 2
#     Edge 52, Type (0, 1), BuildingBlock: KIFKEQ_clean_linker_1, # of connection points: 2
#     Edge 53, Type (0, 1), BuildingBlock: KIFKEQ_clean_linker_1, # of connection points: 2
#     Edge 54, Type (0, 1), BuildingBlock: KIFKEQ_clean_linker_1, # of connection points: 2
#     Edge 55, Type (0, 1), BuildingBlock: KIFKEQ_clean_linker_1, # of connection points: 2
#     Edge 56, Type (0, 1), BuildingBlock: KIFKEQ_clean_linker_1, # of connection points: 2
#     Edge 57, Type (0, 1), BuildingBlock: KIFKEQ_clean_linker_1, # of connection points: 2
#     Edge 58, Type (0, 1), BuildingBlock: KIFKEQ_clean_linker_1, # of connection points: 2
#     Edge 59, Type (0, 1), BuildingBlock: KIFKEQ_clean_linker_1, # of connection points: 2
#     Edge 60, Type (0, 1), BuildingBlock: KIFKEQ_clean_linker_1, # of connection points: 2
#     Edge 61, Type (0, 1), BuildingBlock: KIFKEQ_clean_linker_1, # of connection points: 2
#     Edge 62, Type (0, 1), BuildingBlock: KIFKEQ_clean_linker_1, # of connection points: 2
#     Edge 63, Type (0, 1), BuildingBlock: KIFKEQ_clean_linker_1, # of connection points: 2
#     Edge 64, Type (0, 1), BuildingBlock: KIFKEQ_clean_linker_1, # of connection points: 2
#     Edge 65, Type (0, 1), BuildingBlock: KIFKEQ_clean_linker_1, # of connection points: 2
#     Edge 66, Type (0, 1), BuildingBlock: KIFKEQ_clean_linker_1, # of connection points: 2
#     Edge 67, Type (0, 1), BuildingBlock: KIFKEQ_clean_linker_1, # of connection points: 2
#     Edge 68, Type (0, 1), BuildingBlock: KIFKEQ_clean_linker_1, # of connection points: 2
#     Edge 69, Type (0, 1), BuildingBlock: KIFKEQ_clean_linker_1, # of connection points: 2
#     Edge 70, Type (0, 1), BuildingBlock: KIFKEQ_clean_linker_1, # of connection points: 2
#     Edge 71, Type (0, 1), BuildingBlock: KIFKEQ_clean_linker_1, # of connection points: 2
#     Edge 72, Type (0, 1), BuildingBlock: KIFKEQ_clean_linker_1, # of connection points: 2
#     Edge 73, Type (0, 1), BuildingBlock: KIFKEQ_clean_linker_1, # of connection points: 2
#     Edge 74, Type (0, 1), BuildingBlock: KIFKEQ_clean_linker_1, # of connection points: 2
#     Edge 75, Type (0, 1), BuildingBlock: KIFKEQ_clean_linker_1, # of connection points: 2
#     Edge 76, Type (0, 1), BuildingBlock: KIFKEQ_clean_linker_1, # of connection points: 2
#     Edge 77, Type (0, 1), BuildingBlock: KIFKEQ_clean_linker_1, # of connection points: 2
#     Edge 78, Type (0, 1), BuildingBlock: KIFKEQ_clean_linker_1, # of connection points: 2
#     Edge 79, Type (0, 1), BuildingBlock: KIFKEQ_clean_linker_1, # of connection points: 2
#     Edge 80, Type (0, 1), BuildingBlock: KIFKEQ_clean_linker_1, # of connection points: 2
#     Edge 81, Type (0, 1), BuildingBlock: KIFKEQ_clean_linker_1, # of connection points: 2
#     Edge 82, Type (0, 1), BuildingBlock: KIFKEQ_clean_linker_1, # of connection points: 2
#     Edge 83, Type (0, 1), BuildingBlock: KIFKEQ_clean_linker_1, # of connection points: 2
#     Edge 84, Type (0, 1), BuildingBlock: KIFKEQ_clean_linker_1, # of connection points: 2
#     Edge 85, Type (0, 1), BuildingBlock: KIFKEQ_clean_linker_1, # of connection points: 2
#     Edge 86, Type (0, 1), BuildingBlock: KIFKEQ_clean_linker_1, # of connection points: 2
#     Edge 87, Type (0, 1), BuildingBlock: KIFKEQ_clean_linker_1, # of connection points: 2
#     Edge 88, Type (0, 1), BuildingBlock: KIFKEQ_clean_linker_1, # of connection points: 2
#     Edge 89, Type (0, 1), BuildingBlock: KIFKEQ_clean_linker_1, # of connection points: 2
#     Edge 90, Type (0, 1), BuildingBlock: KIFKEQ_clean_linker_1, # of connection points: 2
#     Edge 91, Type (0, 1), BuildingBlock: KIFKEQ_clean_linker_1, # of connection points: 2
#     Edge 92, Type (0, 1), BuildingBlock: KIFKEQ_clean_linker_1, # of connection points: 2
#     Edge 93, Type (0, 1), BuildingBlock: KIFKEQ_clean_linker_1, # of connection points: 2
#     Edge 94, Type (0, 1), BuildingBlock: KIFKEQ_clean_linker_1, # of connection points: 2
#     Edge 95, Type (0, 1), BuildingBlock: KIFKEQ_clean_linker_1, # of connection points: 2
#     Edge 96, Type (0, 1), BuildingBlock: KIFKEQ_clean_linker_1, # of connection points: 2
#     Edge 97, Type (0, 1), BuildingBlock: KIFKEQ_clean_linker_1, # of connection points: 2
#     Edge 98, Type (0, 1), BuildingBlock: KIFKEQ_clean_linker_1, # of connection points: 2
#     Edge 99, Type (0, 1), BuildingBlock: KIFKEQ_clean_linker_1, # of connection points: 2
#     Edge 100, Type (0, 1), BuildingBlock: KIFKEQ_clean_linker_1, # of connection points: 2
#     Edge 101, Type (0, 1), BuildingBlock: KIFKEQ_clean_linker_1, # of connection points: 2
#     Edge 102, Type (0, 1), BuildingBlock: KIFKEQ_clean_linker_1, # of connection points: 2
#     Edge 103, Type (0, 1), BuildingBlock: KIFKEQ_clean_linker_1, # of connection points: 2
#     Edge 104, Type (0, 1), BuildingBlock: KIFKEQ_clean_linker_1, # of connection points: 2
#     Edge 105, Type (0, 1), BuildingBlock: KIFKEQ_clean_linker_1, # of connection points: 2
#     Edge 106, Type (0, 1), BuildingBlock: KIFKEQ_clean_linker_1, # of connection points: 2
#     Edge 107, Type (0, 1), BuildingBlock: KIFKEQ_clean_linker_1, # of connection points: 2
# Relax obj value: 0.075
# Max RMSD: 0.212
# Mean RMSD: 0.121
data_MOF--net-ptr--node1-NAHDIM_clean_sbu_0--node2-KUFVIS_clean_linker_0--edge1-KIFKEQ_clean_linker_1
_symmetry_space_group_name_H-M    P1
_symmetry_Int_Tables_number       1
_symmetry_cell_setting            triclinic
loop_
_symmetry_equiv_pos_as_xyz
'x, y, z'
_cell_length_a     80.850752
_cell_length_b     79.420987
_cell_length_c     48.856257
_cell_angle_alpha  91.610375
_cell_angle_beta   89.259676
_cell_angle_gamma 121.79433
loop_
_atom_site_label
_atom_site_type_symbol
_atom_site_fract_x
_atom_site_fract_y
_atom_site_fract_z
_atom_type_partial_charge
C0 C 0.04539 0.35697 -0.00468 0.0
O1 O 0.03123 0.34293 0.98025 0.0
O2 O 0.99637 0.34548 -0.00656 0.0
Zn3 Zn 0.02018 0.3731 -0.0013 0.0
O4 O 0.01706 0.38691 0.03203 0.0
C5 C 1.0108 0.38775 0.95138 0.0
O6 O 0.99304 0.37323 0.95685 0.0
O7 O 0.04382 0.37114 0.00486 0.0
C8 C 1.00981 0.39773 0.03069 0.0
O9 O 1.00343 0.39957 0.00708 0.0
C10 C 0.9797 0.3398 0.00357 0.0
O11 O 0.97719 0.35241 0.01819 0.0
O12 O 0.02483 0.39007 0.96589 0.0
C13 C 0.69968 0.66303 0.00922 0.0
O14 O 0.70063 0.67899 0.01945 0.0
O15 O 0.65962 0.67142 0.01896 0.0
Zn16 Zn 0.65713 0.64497 0.01137 0.0
O17 O 0.63944 0.63099 0.9789 0.0
C18 C 0.62803 0.6246 0.05167 0.0
O19 O 0.62084 0.63393 0.03955 0.0
O20 O 0.68312 0.64754 0.00437 0.0
C21 C 0.62628 0.63411 0.97141 0.0
O22 O 0.62446 0.64777 0.98432 0.0
C23 C 0.66556 0.68516 0.00173 0.0
O24 O 0.67125 0.68279 0.97739 0.0
O25 O 0.64428 0.62739 0.04362 0.0
C26 C 0.38861 0.06206 -0.00047 0.0
O27 O 0.40519 0.06414 0.99169 0.0
O28 O 0.35422 0.99651 0.01362 0.0
Zn29 Zn 0.37965 0.02263 0.00966 0.0
O30 O 0.39358 0.02205 0.97553 0.0
C31 C 0.39134 0.01574 0.06195 0.0
O32 O 0.37253 1.00382 0.06553 0.0
O33 O 0.3753 0.04546 0.00859 0.0
C34 C 0.40344 0.01382 0.97677 0.0
O35 O 0.40282 1.00478 -0.00078 0.0
C36 C 0.33905 0.99075 -0.00071 0.0
O37 O 0.33947 1.00219 0.98005 0.0
O38 O 0.39743 0.0262 0.04072 0.0
C39 C 0.98843 0.6713 -0.0039 0.0
O40 O 1.0056 0.68701 0.99117 0.0
O41 O 0.03529 0.6812 0.00789 0.0
Zn42 Zn 1.01141 0.65353 0.00436 0.0
O43 O 1.01202 0.6387 0.9703 0.0
C44 C 0.02423 0.64075 0.05045 0.0
O45 O 0.0413 0.65636 0.04473 0.0
O46 O 0.98731 0.6553 0.00251 0.0
C47 C 0.01933 0.62792 0.97121 0.0
O48 O 0.02792 0.62786 -0.00621 0.0
C49 C 0.05076 0.68836 -0.00628 0.0
O50 O 0.05235 0.67719 0.97485 0.0
O51 O 1.00941 0.63723 0.03676 0.0
C52 C 0.32866 0.36523 0.98536 0.0
O53 O 0.32849 0.35293 0.96664 0.0
O54 O 0.36123 0.34694 0.98991 0.0
Zn55 Zn 0.36848 0.37545 -0.00568 0.0
O56 O 0.38527 0.38852 0.02762 0.0
C57 C 0.39987 0.39219 0.95618 0.0
O58 O 0.40543 0.38257 0.9712 0.0
O59 O 0.34416 0.37637 -0.001 0.0
C60 C 0.39647 0.40728 0.02867 0.0
O61 O 0.39672 0.41767 0.00805 0.0
C62 C 0.3677 0.3388 0.00488 0.0
O63 O 0.37998 0.34923 0.02472 0.0
O64 O 0.3838 0.39086 0.96157 0.0
C65 C 0.66194 0.97275 0.98799 0.0
O66 O 0.67376 0.98571 0.97013 0.0
O67 O 0.67609 0.02301 0.98677 0.0
Zn68 Zn 0.64858 1.00014 -0.0063 0.0
O69 O 0.63661 1.00566 0.02667 0.0
C70 C 0.6134 0.98904 0.96418 0.0
O71 O 0.6059 0.984 0.98878 0.0
O72 O 0.64956 0.97556 0.00022 0.0
C73 C 0.63625 0.02143 0.02972 0.0
O74 O 0.64515 0.03551 0.01179 0.0
C75 C 0.68777 0.03534 0.00476 0.0
O76 O 0.68194 0.03414 0.03023 0.0
O77 O 0.63149 0.99587 0.96087 0.0
C78 C 0.70445 0.68616 0.34231 0.0
O79 O 0.68712 0.66993 0.34312 0.0
O80 O 0.65781 0.68027 0.32648 0.0
Zn81 Zn 0.68295 0.70631 0.33432 0.0
O82 O 0.67989 0.71918 0.36884 0.0
C83 C 0.67517 0.72313 0.28802 0.0
O84 O 0.65727 0.70836 0.29205 0.0
O85 O 0.70586 0.70268 0.33874 0.0
C86 C 0.67027 0.7277 0.36823 0.0
O87 O 0.66194 0.7275 0.34525 0.0
C88 C 0.64713 0.66817 0.34475 0.0
O89 O 0.65271 0.6721 0.37048 0.0
O90 O 0.68875 0.72498 0.30313 0.0
C91 C 0.36951 1.00178 0.32821 0.0
O92 O 0.36836 0.0173 0.32323 0.0
O93 O 0.3327 0.01111 0.34752 0.0
Zn94 Zn 0.3282 0.98377 0.33943 0.0
O95 O 0.3118 0.9708 0.30542 0.0
C96 C 0.29989 0.96628 0.38288 0.0
O97 O 0.29654 0.9802 0.37661 0.0
O98 O 0.35423 0.98579 0.3353 0.0
C99 C 0.29582 0.96992 0.30157 0.0
O100 O 0.29036 0.97885 0.31919 0.0
C101 C 0.33182 0.02232 0.33022 0.0
O102 O 0.32737 0.01619 0.30461 0.0
O103 O 0.31335 0.96543 0.37045 0.0
C104 C 0.05735 0.39456 0.32985 0.0
O105 O 0.0734 0.39562 0.32163 0.0
O106 O 0.01865 0.32983 0.34407 0.0
Zn107 Zn 0.04587 0.3542 0.34161 0.0
O108 O 0.06013 0.35273 0.30788 0.0
C109 C 0.05852 0.34163 0.38792 0.0
O110 O 0.04373 0.32412 0.38057 0.0
O111 O 0.04365 0.3784 0.33949 0.0
C112 C 0.07314 0.34838 0.30989 0.0
O113 O 0.07663 0.34385 0.33387 0.0
C114 C 1.01353 0.31268 0.33446 0.0
O115 O 0.02639 0.31009 0.32152 0.0
O116 O 0.06171 0.35677 0.37504 0.0
C117 C 0.65173 0.99854 0.33585 0.0
O118 O 0.66696 0.01515 0.34502 0.0
O119 O 0.70106 0.01213 0.34057 0.0
Zn120 Zn 0.67831 0.98395 0.33456 0.0
O121 O 0.68121 0.97067 0.3007 0.0
C122 C 0.69052 0.96974 0.37936 0.0
O123 O 0.70783 0.98495 0.37358 0.0
O124 O 0.65329 0.98366 0.33062 0.0
C125 C 0.69481 0.9672 0.29779 0.0
O126 O 0.70851 0.97382 0.3165 0.0
C127 C 0.71487 0.02225 0.32394 0.0
O128 O 0.71526 0.01434 0.30016 0.0
O129 O 0.67581 0.96695 0.36612 0.0
C130 C 0.99138 0.69153 0.31953 0.0
O131 O 0.98968 0.67487 0.3109 0.0
O132 O 0.02557 0.67652 0.32399 0.0
Zn133 Zn 0.03251 0.70509 0.3244 0.0
O134 O 0.04843 0.71956 0.35781 0.0
C135 C 0.06601 0.72392 0.28898 0.0
O136 O 0.07317 0.71762 0.30722 0.0
O137 O 1.00813 0.70623 0.32585 0.0
C138 C 0.05843 0.73841 0.35827 0.0
O139 O 0.05788 0.74791 0.33705 0.0
C140 C 0.03697 0.67137 0.33281 0.0
O141 O 0.05409 0.68494 0.34263 0.0
O142 O 0.04853 0.71966 0.29143 0.0
C143 C 0.32555 0.30487 0.33312 0.0
O144 O 0.34118 0.31905 0.32116 0.0
O145 O 0.34184 0.35548 0.32835 0.0
Zn146 Zn 0.31346 0.3336 0.33259 0.0
O147 O 0.3018 0.3401 0.36525 0.0
C148 C 0.30057 0.34415 0.28381 0.0
O149 O 0.31569 0.36192 0.28918 0.0
O150 O 0.31189 0.30771 0.33961 0.0
C151 C 0.29098 0.34718 0.36262 0.0
O152 O 0.2874 0.35075 0.33803 0.0
C153 C 0.34843 0.37369 0.33397 0.0
O154 O 0.33642 0.37916 0.34241 0.0
O155 O 0.29734 0.32989 0.29882 0.0
C156 C 0.37072 0.01939 0.68548 0.0
O157 O 0.35374 1.00345 0.69051 0.0
O158 O 0.32322 1.00791 0.67057 0.0
Zn159 Zn 0.34683 0.03585 0.6733 0.0
O160 O 0.34362 0.05017 0.70599 0.0
C161 C 0.33622 0.0472 0.62265 0.0
O162 O 0.31942 0.03055 0.62533 0.0
O163 O 0.37134 0.03494 0.67797 0.0
C164 C 0.33703 0.06145 0.7028 0.0
O165 O 0.33217 0.06353 0.67816 0.0
C166 C 0.30589 1.00373 0.67464 0.0
O167 O 0.30269 0.01803 0.68038 0.0
O168 O 0.34983 0.05166 0.63961 0.0
C169 C 0.0238 0.30833 0.66879 0.0
O170 O 1.00957 0.28984 0.66481 0.0
O171 O 0.99081 0.33883 0.68462 0.0
Zn172 Zn 0.99166 0.31409 0.67759 0.0
O173 O 0.97649 0.29959 0.64329 0.0
C174 C 0.96129 0.29061 0.7147 0.0
O175 O 0.95316 0.2984 0.70099 0.0
O176 O 0.01966 0.32141 0.67447 0.0
C177 C 0.96334 0.30201 0.63372 0.0
O178 O 0.96015 0.3151 0.64551 0.0
C179 C 0.99862 0.35337 0.66856 0.0
O180 O 1.00776 0.35249 0.64666 0.0
O181 O 0.97859 0.29548 0.70879 0.0
C182 C 0.70859 0.72303 0.68119 0.0
O183 O 0.70249 0.71645 0.70594 0.0
O184 O 0.68657 0.66598 0.67779 0.0
Zn185 Zn 0.7143 0.6894 0.67411 0.0
O186 O 0.72789 0.68482 0.64246 0.0
C187 C 0.72807 0.6812 0.72376 0.0
O188 O 0.71326 0.66311 0.7192 0.0
O189 O 0.71391 0.71385 0.66521 0.0
C190 C 0.74001 0.67938 0.64538 0.0
O191 O 0.74315 0.67524 0.66987 0.0
C192 C 0.68167 0.64799 0.6741 0.0
O193 O 0.69503 0.64387 0.66784 0.0
O194 O 0.73066 0.6949 0.70812 0.0
C195 C 0.30627 0.30694 0.65539 0.0
O196 O 0.30604 0.29137 0.64506 0.0
O197 O 0.36912 0.34764 0.67565 0.0
Zn198 Zn 0.34603 0.31956 0.67026 0.0
O199 O 0.34871 0.30558 0.63691 0.0
C200 C 0.35845 0.30508 0.71431 0.0
O201 O 0.37581 0.3195 0.70701 0.0
O202 O 0.32164 0.32065 0.66719 0.0
C203 C 0.36372 0.30458 0.63256 0.0
O204 O 0.3788 0.3143 0.64898 0.0
C205 C 0.38147 0.35829 0.65758 0.0
O206 O 0.38001 0.35103 0.63262 0.0
O207 O 0.34354 0.30286 0.7023 0.0
C208 C 0.66222 0.03327 0.65515 0.0
O209 O 0.66173 0.02189 0.63472 0.0
O210 O 0.69378 0.01294 0.65751 0.0
Zn211 Zn 0.70157 0.04155 0.66331 0.0
O212 O 0.71877 0.05391 0.69645 0.0
C213 C 0.7325 0.05832 0.62454 0.0
O214 O 0.73768 0.04788 0.63843 0.0
O215 O 0.67765 0.04305 0.66942 0.0
C216 C 0.73007 0.07265 0.69777 0.0
O217 O 0.7301 0.08328 0.67762 0.0
C218 C 0.69958 1.00407 0.67226 0.0
O219 O 0.71141 0.01373 0.69287 0.0
O220 O 0.71675 0.05745 0.63077 0.0
C221 C 0.9976 0.64402 0.66764 0.0
O222 O 1.01297 0.66177 0.67221 0.0
O223 O 1.00647 0.69039 0.64773 0.0
Zn224 Zn 0.97983 0.66672 0.65691 0.0
O225 O 0.96892 0.67104 0.69207 0.0
C226 C 0.96231 0.66019 0.6019 0.0
O227 O 0.97841 0.66186 0.59258 0.0
O228 O 0.98172 0.64241 0.66058 0.0
C229 C 0.95882 0.67902 0.69107 0.0
O230 O 0.95722 0.6858 0.66766 0.0
C231 C 0.01714 0.70489 0.66401 0.0
O232 O 1.01059 0.7055 0.68853 0.0
O233 O 0.96027 0.6616 0.62752 0.0
H234 H 0.23347 0.33713 0.11101 0.0
H235 H 0.19645 0.35256 0.07189 0.0
H236 H 0.18713 0.33511 0.15683 0.0
H237 H 0.1735 0.35229 0.15988 0.0
H238 H 0.1262 0.3513 0.12014 0.0
H239 H 0.16508 0.34157 0.07206 0.0
C240 C 0.22081 0.3385 0.11189 0.0
C241 C 0.21113 0.33599 0.13672 0.0
C242 C 0.21529 0.3441 0.08853 0.0
C243 C 0.19981 0.34731 0.08992 0.0
C244 C 0.18901 0.3439 0.1144 0.0
C245 C 0.19495 0.33813 0.13772 0.0
C246 C 0.17182 0.34647 0.11578 0.0
C247 C 0.16556 0.35023 0.14119 0.0
C248 C 0.14904 0.35174 0.14289 0.0
C249 C 0.13903 0.35023 0.11899 0.0
C250 C 0.14506 0.34697 0.09357 0.0
C251 C 0.16124 0.34487 0.0919 0.0
H252 H 0.68919 0.90563 0.11115 0.0
H253 H 0.68357 0.85597 0.06607 0.0
H254 H 0.68449 0.85782 0.15512 0.0
H255 H 0.69437 0.83816 0.1533 0.0
H256 H 0.68378 0.78527 0.11261 0.0
H257 H 0.67478 0.82541 0.06848 0.0
C258 C 0.6881 0.89141 0.11094 0.0
C259 C 0.68794 0.88298 0.13563 0.0
C260 C 0.6858 0.8813 0.08608 0.0
C261 C 0.68449 0.86292 0.08576 0.0
C262 C 0.68475 0.85411 0.11058 0.0
C263 C 0.68556 0.86418 0.13548 0.0
C264 C 0.6845 0.83488 0.11083 0.0
C265 C 0.68962 0.82899 0.13491 0.0
C266 C 0.68905 0.81106 0.13578 0.0
C267 C 0.68437 0.79924 0.11209 0.0
C268 C 0.67965 0.80468 0.0879 0.0
C269 C 0.67931 0.82217 0.08728 0.0
H270 H 0.24004 0.91194 0.1172 0.0
H271 H 0.20392 0.85882 0.07041 0.0
H272 H 0.191 0.86384 0.1559 0.0
H273 H 0.17267 0.83292 0.15523 0.0
H274 H 0.12983 0.78411 0.10678 0.0
H275 H 0.17419 0.83512 0.06627 0.0
C276 C 0.22714 0.89714 0.11592 0.0
C277 C 0.21621 0.88859 0.13939 0.0
C278 C 0.22242 0.8865 0.09109 0.0
C279 C 0.2065 0.86688 0.08963 0.0
C280 C 0.19436 0.85805 0.11273 0.0
C281 C 0.19961 0.86942 0.13759 0.0
C282 C 0.17649 0.83728 0.11103 0.0
C283 C 0.16707 0.82676 0.13512 0.0
C284 C 0.14979 0.80803 0.13371 0.0
C285 C 0.14272 0.79891 0.10813 0.0
C286 C 0.15178 0.80855 0.0841 0.0
C287 C 0.16825 0.82781 0.08538 0.0
H288 H 0.3448 0.1216 0.88933 0.0
H289 H 0.3588 0.17503 0.93275 0.0
H290 H 0.33487 0.16306 0.85053 0.0
H291 H 0.35098 0.19517 0.84793 0.0
H292 H 0.34677 0.23985 0.89245 0.0
H293 H 0.34565 0.19351 0.93654 0.0
C294 C 0.34492 0.13533 0.89011 0.0
C295 C 0.33956 0.1413 0.86697 0.0
C296 C 0.35131 0.14716 0.91398 0.0
C297 C 0.35298 0.16571 0.91452 0.0
C298 C 0.34711 0.17194 0.89165 0.0
C299 C 0.34014 0.15927 0.86811 0.0
C300 C 0.34793 0.19133 0.89214 0.0
C301 C 0.34928 0.20092 0.86739 0.0
C302 C 0.34812 0.21794 0.86736 0.0
C303 C 0.34696 0.22628 0.89226 0.0
C304 C 0.3466 0.21779 0.91704 0.0
C305 C 0.34678 0.20022 0.9171 0.0
H306 H 0.78714 0.11318 0.89025 0.0
H307 H 0.8338 0.15822 0.93976 0.0
H308 H 0.83243 0.16505 0.85218 0.0
H309 H 0.86397 0.17928 0.85581 0.0
H310 H 0.90545 0.23341 0.89703 0.0
H311 H 0.8535 0.19173 0.93905 0.0
C312 C 0.80084 0.1273 0.89189 0.0
C313 C 0.80932 0.13808 0.86837 0.0
C314 C 0.80929 0.13475 0.91764 0.0
C315 C 0.82708 0.15302 0.9198 0.0
C316 C 0.83622 0.16405 0.89607 0.0
C317 C 0.82655 0.15664 0.8706 0.0
C318 C 0.85583 0.18296 0.89719 0.0
C319 C 0.86806 0.18883 0.87388 0.0
C320 C 0.88573 0.20713 0.87337 0.0
C321 C 0.89194 0.21909 0.89711 0.0
C322 C 0.88062 0.21332 0.92084 0.0
C323 C 0.86243 0.19548 0.92086 0.0
H324 H 0.7956 0.68589 0.88918 0.0
H325 H 0.83104 0.66795 0.92715 0.0
H326 H 0.84534 0.69335 0.84635 0.0
H327 H 0.85725 0.67474 0.84003 0.0
H328 H 0.89973 0.66695 0.87867 0.0
H329 H 0.86263 0.67834 0.92862 0.0
C330 C 0.80854 0.685 0.88873 0.0
C331 C 0.81998 0.69028 0.86519 0.0
C332 C 0.81268 0.67726 0.91109 0.0
C333 C 0.82872 0.6749 0.91013 0.0
C334 C 0.8409 0.68054 0.88672 0.0
C335 C 0.83639 0.68856 0.86452 0.0
C336 C 0.85748 0.67704 0.88468 0.0
C337 C 0.86409 0.67451 0.85875 0.0
C338 C 0.87945 0.67117 0.85652 0.0
C339 C 0.88773 0.66936 0.88028 0.0
C340 C 0.88145 0.67156 0.90617 0.0
C341 C 0.86673 0.67592 0.90841 0.0
H342 H 0.89962 0.67124 0.43875 0.0
H343 H 0.86314 0.68962 0.40529 0.0
H344 H 0.84995 0.66165 0.48426 0.0
H345 H 0.83935 0.6817 0.49307 0.0
H346 H 0.79526 0.68897 0.45862 0.0
H347 H 0.83073 0.67744 0.40507 0.0
C348 C 0.88665 0.67205 0.44035 0.0
C349 C 0.87531 0.6656 0.46398 0.0
C350 C 0.88215 0.68043 0.41918 0.0
C351 C 0.86589 0.68233 0.42143 0.0
C352 C 0.85399 0.6758 0.44505 0.0
C353 C 0.85883 0.66717 0.46609 0.0
C354 C 0.83735 0.67902 0.44854 0.0
C355 C 0.83173 0.68174 0.47506 0.0
C356 C 0.8165 0.68514 0.47874 0.0
C357 C 0.8072 0.68654 0.45583 0.0
C358 C 0.81248 0.68412 0.42935 0.0
C359 C 0.82722 0.67989 0.42567 0.0
H360 H 0.34436 0.23201 0.45811 0.0
H361 H 0.33219 0.17954 0.41304 0.0
H362 H 0.35847 0.19269 0.49385 0.0
H363 H 0.34224 0.16 0.49602 0.0
H364 H 0.35049 0.1183 0.4504 0.0
H365 H 0.34855 0.1636 0.40764 0.0
C366 C 0.34473 0.21855 0.45663 0.0
C367 C 0.35188 0.21341 0.47858 0.0
C368 C 0.33769 0.20647 0.43301 0.0
C369 C 0.33805 0.18895 0.43121 0.0
C370 C 0.3453 0.18341 0.45325 0.0
C371 C 0.35231 0.19602 0.47683 0.0
C372 C 0.34571 0.16469 0.45203 0.0
C373 C 0.34465 0.15493 0.47645 0.0
C374 C 0.347 0.13865 0.47596 0.0
C375 C 0.3493 0.1313 0.45089 0.0
C376 C 0.34937 0.13992 0.42633 0.0
C377 C 0.34774 0.15669 0.4268 0.0
H378 H 0.9137 0.23708 0.44897 0.0
H379 H 0.8721 0.18518 0.40365 0.0
H380 H 0.86001 0.19572 0.48718 0.0
H381 H 0.84134 0.16407 0.48854 0.0
H382 H 0.79235 0.11956 0.44267 0.0
H383 H 0.84033 0.16628 0.39985 0.0
C384 C 0.89956 0.22341 0.44796 0.0
C385 C 0.88757 0.21726 0.47097 0.0
C386 C 0.8938 0.21205 0.4237 0.0
C387 C 0.87583 0.19398 0.42241 0.0
C388 C 0.86318 0.18741 0.44534 0.0
C389 C 0.86934 0.19956 0.46945 0.0
C390 C 0.8437 0.16817 0.44436 0.0
C391 C 0.83432 0.15846 0.46888 0.0
C392 C 0.81552 0.14144 0.46846 0.0
C393 C 0.80654 0.13318 0.44328 0.0
C394 C 0.81564 0.14188 0.41873 0.0
C395 C 0.83402 0.15945 0.41915 0.0
H396 H 0.02578 0.4618 0.22091 0.0
H397 H 0.02951 0.51085 0.26539 0.0
H398 H 1.01216 0.49967 0.17975 0.0
H399 H 0.02355 0.53093 0.17867 0.0
H400 H 1.01115 0.57055 0.22118 0.0
H401 H 0.01439 0.52711 0.26672 0.0
C402 C 0.0244 0.47468 0.2213 0.0
C403 C 0.01956 0.48026 0.19735 0.0
C404 C 0.02741 0.48532 0.24585 0.0
C405 C 0.02621 0.50236 0.2464 0.0
C406 C 0.02075 0.50811 0.22254 0.0
C407 C 0.01696 0.49638 0.19827 0.0
C408 C 0.0188 0.526 0.22263 0.0
C409 C 0.01998 0.53545 0.19779 0.0
C410 C 0.01636 0.55085 0.19718 0.0
C411 C 1.01293 0.55794 0.22163 0.0
C412 C 1.01269 0.54977 0.2467 0.0
C413 C 0.01537 0.53366 0.24721 0.0
H414 H 0.45109 0.44741 0.2209 0.0
H415 H 0.49682 0.49128 0.27298 0.0
H416 H 0.4977 0.4996 0.18548 0.0
H417 H 0.5291 0.51305 0.19078 0.0
H418 H 0.56974 0.56689 0.23329 0.0
H419 H 0.51667 0.52511 0.27309 0.0
C420 C 0.46487 0.46135 0.22341 0.0
C421 C 0.47403 0.47249 0.2004 0.0
C422 C 0.4727 0.46824 0.24964 0.0
C423 C 0.49054 0.48642 0.25272 0.0
C424 C 0.50033 0.49781 0.2295 0.0
C425 C 0.49129 0.49091 0.20356 0.0
C426 C 0.52003 0.51653 0.23161 0.0
C427 C 0.53282 0.52248 0.20894 0.0
C428 C 0.55052 0.54074 0.20909 0.0
C429 C 0.55622 0.55257 0.23294 0.0
C430 C 0.54431 0.54675 0.2561 0.0
C431 C 0.52609 0.52891 0.25543 0.0
H432 H 0.45468 0.99884 0.21815 0.0
H433 H 0.50566 0.0103 0.26073 0.0
H434 H 0.50317 1.00679 0.17174 0.0
H435 H 0.53439 0.02421 0.17394 0.0
H436 H 0.5778 0.01627 0.20913 0.0
H437 H 0.52641 1.00026 0.25519 0.0
C438 C 0.46921 1.00128 0.21759 0.0
C439 C 0.47823 1.00311 0.19245 0.0
C440 C 0.47892 1.00355 0.2421 0.0
C441 C 0.49816 1.00782 0.24149 0.0
C442 C 0.50741 1.00886 0.21612 0.0
C443 C 0.49705 1.00646 0.19165 0.0
C444 C 0.52751 0.01203 0.21493 0.0
C445 C 0.5391 0.01944 0.19108 0.0
C446 C 0.55705 0.02073 0.1888 0.0
C447 C 0.56402 0.0155 0.21092 0.0
C448 C 0.55313 1.00842 0.23489 0.0
C449 C 0.53493 1.00664 0.23692 0.0
H450 H 0.56502 1.00238 0.77999 0.0
H451 H 0.53164 0.02344 0.74369 0.0
H452 H 0.51769 0.99915 0.82497 0.0
H453 H 0.50892 0.0206 0.83175 0.0
H454 H 0.46649 0.02955 0.79548 0.0
H455 H 0.49996 0.01414 0.74374 0.0
C456 C 0.55275 1.00437 0.78119 0.0
C457 C 0.54208 1.00028 0.80547 0.0
C458 C 0.54864 0.01215 0.75878 0.0
C459 C 0.53388 0.01643 0.76073 0.0
C460 C 0.52241 0.01194 0.78466 0.0
C461 C 0.5265 1.00341 0.80667 0.0
C462 C 0.50683 0.01684 0.78729 0.0
C463 C 0.50163 0.02073 0.81343 0.0
C464 C 0.48698 0.02503 0.81641 0.0
C465 C 0.47807 0.02654 0.79315 0.0
C466 C 0.48291 0.02296 0.76698 0.0
C467 C 0.49695 0.01766 0.76403 0.0
H468 H 0.99618 0.55745 0.7875 0.0
H469 H 1.00765 0.51914 0.73888 0.0
H470 H 1.0048 0.51572 0.8276 0.0
H471 H 0.02154 0.50241 0.82368 0.0
H472 H 0.01964 0.45435 0.77947 0.0
H473 H 1.00107 0.4887 0.73942 0.0
C474 C 0.99864 0.54527 0.78629 0.0
C475 C 1.00094 0.53764 0.8103 0.0
C476 C 1.00059 0.53828 0.76064 0.0
C477 C 1.00524 0.52354 0.75894 0.0
C478 C 1.00677 0.51479 0.78297 0.0
C479 C 1.00432 0.52205 0.80859 0.0
C480 C 1.01097 0.49835 0.78157 0.0
C481 C 0.0181 0.49378 0.80484 0.0
C482 C 0.02078 0.47769 0.80442 0.0
C483 C 0.01788 0.46699 0.77996 0.0
C484 C 1.01126 0.47131 0.75652 0.0
C485 C 1.00729 0.48653 0.75743 0.0
H486 H 0.57341 0.57812 0.78802 0.0
H487 H 0.53759 0.52638 0.73801 0.0
H488 H 0.52172 0.53028 0.82219 0.0
H489 H 0.50661 0.49872 0.82092 0.0
H490 H 0.46127 0.45251 0.77187 0.0
H491 H 0.5062 0.50423 0.73272 0.0
C492 C 0.56022 0.56365 0.78548 0.0
C493 C 0.54812 0.55495 0.80796 0.0
C494 C 0.55619 0.55367 0.76008 0.0
C495 C 0.53996 0.53421 0.75742 0.0
C496 C 0.52704 0.52514 0.77972 0.0
C497 C 0.53134 0.53608 0.80481 0.0
C498 C 0.50918 0.50455 0.77717 0.0
C499 C 0.50025 0.49329 0.80087 0.0
C500 C 0.48256 0.475 0.7992 0.0
C501 C 0.47459 0.46697 0.77347 0.0
C502 C 0.4833 0.47728 0.74966 0.0
C503 C 0.50034 0.49616 0.75139 0.0
H504 H 0.68655 0.79241 0.55707 0.0
H505 H 0.69392 0.84375 0.5994 0.0
H506 H 0.66919 0.82819 0.51766 0.0
H507 H 0.68353 0.86037 0.51382 0.0
H508 H 0.67545 0.90325 0.55641 0.0
H509 H 0.67813 0.85968 0.60237 0.0
C510 C 0.68482 0.80506 0.55738 0.0
C511 C 0.67758 0.80915 0.53432 0.0
C512 C 0.69017 0.81721 0.5809 0.0
C513 C 0.68894 0.83419 0.58131 0.0
C514 C 0.68174 0.83881 0.55828 0.0
C515 C 0.67569 0.82576 0.53512 0.0
C516 C 0.68049 0.85705 0.55808 0.0
C517 C 0.68115 0.86593 0.53299 0.0
C518 C 0.67866 0.88211 0.53225 0.0
C519 C 0.67657 0.89022 0.55679 0.0
C520 C 0.67688 0.88248 0.58193 0.0
C521 C 0.67858 0.86579 0.58267 0.0
H522 H 0.11543 0.78466 0.5483 0.0
H523 H 0.16329 0.82795 0.59751 0.0
H524 H 0.16171 0.83558 0.51002 0.0
H525 H 0.19273 0.85032 0.51192 0.0
H526 H 0.23849 0.89955 0.55619 0.0
H527 H 0.18569 0.85991 0.59817 0.0
C528 C 0.12939 0.79851 0.54992 0.0
C529 C 0.13815 0.80914 0.52641 0.0
C530 C 0.13809 0.80562 0.57556 0.0
C531 C 0.15642 0.82331 0.5776 0.0
C532 C 0.1658 0.83432 0.55387 0.0
C533 C 0.1558 0.82732 0.52852 0.0
C534 C 0.18609 0.85247 0.55493 0.0
C535 C 0.19779 0.85868 0.53102 0.0
C536 C 0.21649 0.87575 0.53129 0.0
C537 C 0.22416 0.88612 0.55597 0.0
C538 C 0.21333 0.88014 0.58017 0.0
C539 C 0.19412 0.86372 0.57951 0.0
H540 H 0.12617 0.34773 0.55973 0.0
H541 H 0.16991 0.3438 0.60221 0.0
H542 H 0.16859 0.34313 0.51325 0.0
H543 H 0.19943 0.35654 0.51561 0.0
H544 H 0.23936 0.3439 0.55173 0.0
H545 H 0.18884 0.33198 0.59684 0.0
C546 C 0.13922 0.34703 0.55922 0.0
C547 C 0.14724 0.34662 0.534 0.0
C548 C 0.147 0.34543 0.58366 0.0
C549 C 0.16375 0.34424 0.58294 0.0
C550 C 0.17249 0.34409 0.55759 0.0
C551 C 0.16334 0.34442 0.53316 0.0
C552 C 0.19113 0.344 0.5563 0.0
C553 C 0.20305 0.35068 0.53264 0.0
C554 C 0.22018 0.3503 0.5306 0.0
C555 C 0.22621 0.34439 0.55307 0.0
C556 C 0.21523 0.33837 0.57707 0.0
C557 C 0.19745 0.33757 0.57847 0.0
H558 H 0.02067 0.39645 0.08293 0.0
H559 H 0.99842 0.42463 0.03372 0.0
H560 H 0.02208 0.41645 0.12253 0.0
H561 H 1.00027 0.445 0.07329 0.0
H562 H 0.99009 0.46477 0.15924 0.0
H563 H 0.98651 0.4442 0.11866 0.0
H564 H 0.04191 0.45091 0.13673 0.0
H565 H 0.04527 0.47108 0.17711 0.0
C566 C 0.01606 0.40689 0.08056 0.0
C567 C 1.00956 0.40904 0.05513 0.0
C568 C 0.01698 0.41846 0.10322 0.0
C569 C 1.01151 0.4325 0.10098 0.0
C570 C 1.00448 0.43425 0.07573 0.0
C571 C 1.00351 0.42263 0.05304 0.0
C572 C 1.00153 0.46196 0.15426 0.0
C573 C 0.01784 0.4693 0.17143 0.0
C574 C 0.9995 0.45019 0.1311 0.0
C575 C 1.01379 0.44565 0.12473 0.0
C576 C 0.03039 0.45366 0.14145 0.0
C577 C 0.03237 0.4653 0.1645 0.0
H578 H 0.59271 0.61505 0.07218 0.0
H579 H 0.63812 0.60226 0.08078 0.0
H580 H 0.57421 0.59202 0.10814 0.0
H581 H 0.61932 0.57883 0.11665 0.0
H582 H 0.59023 0.56094 0.20335 0.0
H583 H 0.60909 0.57957 0.16383 0.0
H584 H 0.55594 0.55688 0.11766 0.0
H585 H 0.53707 0.53892 0.15747 0.0
C586 C 0.59872 0.60725 0.08165 0.0
C587 C 0.61693 0.61055 0.07365 0.0
C588 C 0.588 0.59387 0.10211 0.0
C589 C 0.5952 0.58344 0.11511 0.0
C590 C 0.61342 0.58671 0.10712 0.0
C591 C 0.62416 0.60011 0.08655 0.0
C592 C 0.5826 0.55977 0.18465 0.0
C593 C 0.56214 0.54866 0.18367 0.0
C594 C 0.59342 0.57032 0.16193 0.0
C595 C 0.584 0.56996 0.13774 0.0
C596 C 0.56361 0.55777 0.13619 0.0
C597 C 0.5528 0.54725 0.1589 0.0
H598 H 0.43016 0.03102 0.05333 0.0
H599 H 0.38398 0.99784 0.11125 0.0
H600 H 0.45234 0.02651 0.08099 0.0
H601 H 0.40627 0.99391 0.13937 0.0
H602 H 0.44302 0.97359 0.17352 0.0
H603 H 0.42278 0.97643 0.13961 0.0
H604 H 0.46972 0.03619 0.12345 0.0
H605 H 0.49011 0.03287 0.15666 0.0
C606 C 0.42481 0.02301 0.07219 0.0
C607 C 0.40529 0.01476 0.0801 0.0
C608 C 0.43754 0.02042 0.08804 0.0
C609 C 0.43105 0.00962 0.11224 0.0
C610 C 0.41165 1.00185 0.12048 0.0
C611 C 0.3989 1.0043 0.10453 0.0
C612 C 0.44913 0.98706 0.16201 0.0
C613 C 0.46806 1.003 0.16752 0.0
C614 C 0.43749 0.98884 0.14293 0.0
C615 C 0.44444 1.00673 0.12928 0.0
C616 C 0.46389 0.02219 0.13349 0.0
C617 C 0.47563 0.0203 0.1524 0.0
H618 H 0.43099 1.00385 0.97706 0.0
H619 H 0.40621 0.0286 0.92591 0.0
H620 H 0.45409 1.00867 0.94107 0.0
H621 H 0.42885 0.03278 0.88954 0.0
H622 H 0.48111 0.0538 0.83672 0.0
H623 H 0.4624 0.05208 0.87731 0.0
H624 H 0.45559 0.996 0.8969 0.0
H625 H 0.47481 0.99815 0.85677 0.0
C626 C 0.43034 0.01015 0.95802 0.0
C627 C 0.41675 0.01583 0.95431 0.0
C628 C 0.44358 0.01288 0.93736 0.0
C629 C 0.44344 0.02123 0.91245 0.0
C630 C 0.42968 0.02671 0.90868 0.0
C631 C 0.41654 0.02412 0.92942 0.0
C632 C 0.47595 0.04136 0.85012 0.0
C633 C 0.47932 0.02608 0.84366 0.0
C634 C 0.46507 0.04023 0.87317 0.0
C635 C 0.45715 0.0237 0.89008 0.0
C636 C 0.46155 1.009 0.88446 0.0
C637 C 0.4726 0.01024 0.86151 0.0
H638 H 0.04564 0.41875 0.93329 0.0
H639 H 0.98343 0.39047 0.92322 0.0
H640 H 0.05078 0.444 0.90086 0.0
H641 H 0.9886 0.41557 0.89091 0.0
H642 H 1.00151 0.47146 0.85275 0.0
H643 H 1.00091 0.45165 0.89049 0.0
H644 H 0.04566 0.44569 0.85079 0.0
H645 H 0.04649 0.46582 0.81325 0.0
C646 C 0.03308 0.41788 0.92412 0.0
C647 C 1.01412 0.40257 0.93081 0.0
C648 C 0.03603 0.43234 0.90558 0.0
C649 C 0.0201 0.4319 0.8936 0.0
C650 C 1.00118 0.41654 0.90022 0.0
C651 C 0.99822 0.40202 0.91852 0.0
C652 C 1.01168 0.46649 0.85253 0.0
C653 C 0.02395 0.47007 0.82997 0.0
C654 C 1.01114 0.45492 0.87395 0.0
C655 C 0.02297 0.44681 0.87333 0.0
C656 C 0.03636 0.45171 0.85185 0.0
C657 C 0.03681 0.46319 0.83033 0.0
H658 H 0.62371 0.60231 0.9441 0.0
H659 H 0.59779 0.63801 0.94849 0.0
H660 H 0.6013 0.58214 0.90742 0.0
H661 H 0.5752 0.61761 0.91185 0.0
H662 H 0.56085 0.59364 0.82061 0.0
H663 H 0.57765 0.61211 0.86232 0.0
H664 H 0.56642 0.55796 0.89821 0.0
H665 H 0.54994 0.53956 0.85618 0.0
C666 C 0.61318 0.60582 0.93732 0.0
C667 C 0.61262 0.62185 0.94913 0.0
C668 C 0.6002 0.59411 0.91648 0.0
C669 C 0.58639 0.5982 0.90687 0.0
C670 C 0.58574 0.61416 0.91876 0.0
C671 C 0.59867 0.62582 0.93974 0.0
C672 C 0.56166 0.58565 0.83764 0.0
C673 C 0.55426 0.56522 0.8351 0.0
C674 C 0.57119 0.5962 0.86157 0.0
C675 C 0.5736 0.58652 0.8834 0.0
C676 C 0.56506 0.56585 0.88154 0.0
C677 C 0.55541 0.55528 0.85764 0.0
H678 H 1.00489 0.62589 0.92003 0.0
H679 H 0.02756 0.59872 0.97046 0.0
H680 H 0.99942 0.60237 0.88288 0.0
H681 H 0.02148 0.5748 0.93375 0.0
H682 H 0.0285 0.55062 0.85019 0.0
H683 H 0.0328 0.57199 0.88972 0.0
H684 H 0.979 0.56825 0.86971 0.0
H685 H 0.97508 0.54731 0.82974 0.0
C686 C 1.00866 0.61487 0.92321 0.0
C687 C 0.0167 0.61423 0.94816 0.0
C688 C 1.00535 0.60124 0.90201 0.0
C689 C 1.00986 0.58655 0.90536 0.0
C690 C 0.01803 0.58602 0.93031 0.0
C691 C 0.02147 0.59974 0.9514 0.0
C692 C 0.01739 0.55402 0.85464 0.0
C693 C 1.0015 0.54738 0.83689 0.0
C694 C 0.01986 0.56631 0.87726 0.0
C695 C 1.00638 0.5721 0.88272 0.0
C696 C 0.98992 0.56452 0.86573 0.0
C697 C 0.98755 0.55238 0.84301 0.0
H698 H 0.4325 0.39466 0.93484 0.0
H699 H 0.39632 0.41946 0.92838 0.0
H700 H 0.45338 0.41601 0.89851 0.0
H701 H 0.41751 0.44126 0.89283 0.0
H702 H 0.44379 0.4581 0.80791 0.0
H703 H 0.42464 0.43878 0.84637 0.0
H704 H 0.47695 0.44971 0.88627 0.0
H705 H 0.49615 0.46838 0.84669 0.0
C706 C 0.42908 0.40477 0.92578 0.0
C707 C 0.41263 0.40522 0.93428 0.0
C708 C 0.44115 0.41714 0.90512 0.0
C709 C 0.43712 0.43034 0.89264 0.0
C710 C 0.42087 0.43103 0.9016 0.0
C711 C 0.40872 0.41855 0.92205 0.0
C712 C 0.45124 0.45628 0.82478 0.0
C713 C 0.47147 0.46454 0.82405 0.0
C714 C 0.44026 0.44542 0.84707 0.0
C715 C 0.44921 0.44266 0.8695 0.0
C716 C 0.46955 0.45134 0.86917 0.0
C717 C 0.48059 0.46221 0.84666 0.0
H718 H 0.62243 0.99357 0.90956 0.0
H719 H 0.57657 0.98219 0.9666 0.0
H720 H 0.60268 0.99343 0.87202 0.0
H721 H 0.5569 0.98211 0.92905 0.0
H722 H 0.54382 0.01296 0.85872 0.0
H723 H 0.55928 1.00785 0.89745 0.0
H724 H 0.57137 0.97028 0.84659 0.0
H725 H 0.55545 0.97491 0.80796 0.0
C726 C 0.6081 0.9909 0.91407 0.0
C727 C 0.60111 0.98793 0.94108 0.0
C728 C 0.59674 0.99071 0.89255 0.0
C729 C 0.57823 0.98775 0.8976 0.0
C730 C 0.57115 0.98455 0.92455 0.0
C731 C 0.58241 0.98452 0.94603 0.0
C732 C 0.54926 1.00315 0.85593 0.0
C733 C 0.54853 0.99452 0.83008 0.0
C734 C 0.55822 1.0003 0.87813 0.0
C735 C 0.56678 0.98888 0.87494 0.0
C736 C 0.56523 0.97946 0.84951 0.0
C737 C 0.5561 0.98213 0.8274 0.0
H738 H 0.63852 0.05507 0.05014 0.0
H739 H 0.60746 0.99162 0.05937 0.0
H740 H 0.6186 0.05753 0.08646 0.0
H741 H 0.58749 0.9941 0.09518 0.0
H742 H 0.54292 1.00261 0.13926 0.0
H743 H 0.56188 1.00442 0.09874 0.0
H744 H 0.61437 0.0501 0.13899 0.0
H745 H 0.59541 0.04814 0.17962 0.0
C746 C 0.62743 0.04168 0.05986 0.0
C747 C 0.62461 0.02316 0.05199 0.0
C748 C 0.61606 0.0431 0.08059 0.0
C749 C 0.6014 0.02599 0.09339 0.0
C750 C 0.59851 1.0075 0.08537 0.0
C751 C 0.61008 1.00611 0.06506 0.0
C752 C 0.55841 0.01345 0.13909 0.0
C753 C 0.56773 0.02523 0.1625 0.0
C754 C 0.56927 0.01434 0.11606 0.0
C755 C 0.5896 0.02725 0.1159 0.0
C756 C 0.59872 0.04007 0.13856 0.0
C757 C 0.5879 0.03895 0.16176 0.0
H758 H 0.05275 0.64389 0.08367 0.0
H759 H 0.99224 0.60456 0.06182 0.0
H760 H 0.05029 0.61971 0.11574 0.0
H761 H 0.98993 0.5802 0.09336 0.0
H762 H 0.98799 0.55629 0.17931 0.0
H763 H 0.98972 0.57677 0.142 0.0
H764 H 0.04614 0.58708 0.11937 0.0
H765 H 0.04452 0.56682 0.15753 0.0
C766 C 0.03894 0.63006 0.08563 0.0
C767 C 0.02264 0.62625 0.07037 0.0
C768 C 0.03759 0.61609 0.1038 0.0
C769 C 0.01993 0.59797 0.10707 0.0
C770 C 1.0037 0.5941 0.09157 0.0
C771 C 1.00502 0.60808 0.07349 0.0
C772 C 1.00063 0.56269 0.16607 0.0
C773 C 0.01618 0.56011 0.17136 0.0
C774 C 1.00159 0.57435 0.14459 0.0
C775 C 0.01814 0.58373 0.12781 0.0
C776 C 0.03331 0.5803 0.13221 0.0
C777 C 0.03231 0.56852 0.15378 0.0
H778 H 0.42589 0.44606 0.03412 0.0
H779 H 0.39536 0.39124 0.07783 0.0
H780 H 0.44656 0.46264 0.074 0.0
H781 H 0.41546 0.40791 0.11797 0.0
H782 H 0.46463 0.43701 0.17784 0.0
H783 H 0.44743 0.42186 0.135 0.0
H784 H 0.44581 0.47431 0.11934 0.0
H785 H 0.46376 0.48968 0.16191 0.0
C786 C 0.42353 0.43757 0.0523 0.0
C787 C 0.40901 0.41733 0.05283 0.0
C788 C 0.43531 0.44711 0.07521 0.0
C789 C 0.43274 0.43663 0.09921 0.0
C790 C 0.41815 0.41638 0.09967 0.0
C791 C 0.4065 0.40682 0.07671 0.0
C792 C 0.46074 0.44533 0.16502 0.0
C793 C 0.46536 0.46442 0.17311 0.0
C794 C 0.45077 0.43663 0.1406 0.0
C795 C 0.44494 0.44672 0.12389 0.0
C796 C 0.4502 0.46616 0.13158 0.0
C797 C 0.46043 0.47497 0.15593 0.0
H798 H 0.68105 0.72698 0.42086 0.0
H799 H 0.65717 0.75313 0.37069 0.0
H800 H 0.68037 0.74598 0.46058 0.0
H801 H 0.65654 0.77211 0.41043 0.0
H802 H 0.68559 0.8207 0.481 0.0
H803 H 0.68184 0.80014 0.4406 0.0
H804 H 0.65585 0.74827 0.4905 0.0
H805 H 0.65915 0.76867 0.53077 0.0
C806 C 0.67558 0.7367 0.41833 0.0
C807 C 0.6692 0.73857 0.39262 0.0
C808 C 0.67508 0.74749 0.4411 0.0
C809 C 0.66839 0.76052 0.43857 0.0
C810 C 0.66189 0.76229 0.41292 0.0
C811 C 0.66218 0.75133 0.39023 0.0
C812 C 0.67865 0.80485 0.48326 0.0
C813 C 0.67288 0.79638 0.50919 0.0
C814 C 0.67657 0.79309 0.46013 0.0
C815 C 0.66879 0.77265 0.4625 0.0
C816 C 0.66224 0.76405 0.48817 0.0
C817 C 0.66415 0.77575 0.51121 0.0
H818 H 0.30336 0.93614 0.40203 0.0
H819 H 0.26792 0.96199 0.40907 0.0
H820 H 0.28223 0.91092 0.43466 0.0
H821 H 0.24702 0.93698 0.44175 0.0
H822 H 0.20341 0.88139 0.48329 0.0
H823 H 0.2231 0.90117 0.44489 0.0
H824 H 0.2747 0.90965 0.48391 0.0
H825 H 0.25494 0.88953 0.52193 0.0
C826 C 0.2911 0.93647 0.41054 0.0
C827 C 0.28738 0.95114 0.40302 0.0
C828 C 0.279 0.92202 0.42923 0.0
C829 C 0.26286 0.92186 0.44064 0.0
C830 C 0.25912 0.93647 0.43296 0.0
C831 C 0.27124 0.95094 0.41443 0.0
C832 C 0.21887 0.88699 0.48324 0.0
C833 C 0.22767 0.88405 0.50568 0.0
C834 C 0.23018 0.89852 0.46144 0.0
C835 C 0.2505 0.90725 0.46159 0.0
C836 C 0.25909 0.90313 0.48313 0.0
C837 C 0.2478 0.89168 0.50497 0.0
H838 H 0.09234 0.37508 0.40489 0.0
H839 H 0.05704 0.31191 0.41676 0.0
H840 H 0.11645 0.37743 0.43687 0.0
H841 H 0.08098 0.31434 0.44898 0.0
H842 H 0.13442 0.32159 0.48901 0.0
H843 H 0.11442 0.32124 0.45142 0.0
H844 H 0.11876 0.37414 0.4859 0.0
H845 H 0.13894 0.37463 0.52289 0.0
C846 C 0.08966 0.36172 0.41443 0.0
C847 C 0.07271 0.34332 0.40837 0.0
C848 C 0.10349 0.36307 0.43273 0.0
C849 C 0.10069 0.34605 0.44533 0.0
C850 C 0.08375 0.32767 0.43924 0.0
C851 C 0.06991 0.32633 0.421 0.0
C852 C 0.13146 0.33337 0.48806 0.0
C853 C 0.13809 0.34807 0.50884 0.0
C854 C 0.11985 0.33307 0.46679 0.0
C855 C 0.11483 0.34754 0.46587 0.0
C856 C 0.12244 0.36285 0.48588 0.0
C857 C 0.13391 0.36309 0.50713 0.0
H858 H 0.1043 0.34382 0.30923 0.0
H859 H 0.06897 0.35528 0.25652 0.0
H860 H 0.12463 0.34646 0.27046 0.0
H861 H 0.08898 0.35731 0.21748 0.0
H862 H 0.13816 0.37795 0.15732 0.0
H863 H 0.12079 0.37797 0.19851 0.0
H864 H 0.12406 0.32927 0.22919 0.0
H865 H 0.14186 0.32966 0.18822 0.0
C866 C 0.10076 0.34675 0.2893 0.0
C867 C 0.08499 0.34934 0.28596 0.0
C868 C 0.11241 0.3482 0.26703 0.0
C869 C 0.10852 0.35216 0.24083 0.0
C870 C 0.09264 0.35461 0.23747 0.0
C871 C 0.08104 0.35327 0.2598 0.0
C872 C 0.13537 0.36745 0.1731 0.0
C873 C 0.14128 0.35377 0.1696 0.0
C874 C 0.12528 0.36733 0.19657 0.0
C875 C 0.12074 0.35342 0.217 0.0
C876 C 0.12743 0.3403 0.214 0.0
C877 C 0.13766 0.34053 0.19057 0.0
H878 H 0.71058 0.75282 0.26931 0.0
H879 H 0.64869 0.72758 0.26043 0.0
H880 H 0.71676 0.77767 0.23547 0.0
H881 H 0.6549 0.75232 0.22687 0.0
H882 H 0.6711 0.80817 0.18448 0.0
H883 H 0.66966 0.78916 0.22395 0.0
H884 H 0.71048 0.77691 0.18461 0.0
H885 H 0.71201 0.79603 0.14527 0.0
C886 C 0.69832 0.7526 0.26021 0.0
C887 C 0.67914 0.73817 0.26747 0.0
C888 C 0.70186 0.76681 0.24086 0.0
C889 C 0.68632 0.76704 0.22872 0.0
C890 C 0.66719 0.75273 0.23621 0.0
C891 C 0.66364 0.73842 0.25525 0.0
C892 C 0.6802 0.80191 0.18466 0.0
C893 C 0.69157 0.80346 0.16179 0.0
C894 C 0.67922 0.79086 0.20709 0.0
C895 C 0.68975 0.78133 0.20717 0.0
C896 C 0.70224 0.78412 0.18516 0.0
C897 C 0.70306 0.795 0.16263 0.0
H898 H 0.29803 0.94267 0.26893 0.0
H899 H 0.26423 0.96991 0.28223 0.0
H900 H 0.27599 0.92203 0.232 0.0
H901 H 0.24225 0.94928 0.24509 0.0
H902 H 0.22713 0.92677 0.15245 0.0
H903 H 0.24505 0.94616 0.19322 0.0
H904 H 0.2404 0.8941 0.22671 0.0
H905 H 0.22247 0.87472 0.18593 0.0
C906 C 0.28595 0.94431 0.26392 0.0
C907 C 0.2829 0.95796 0.27848 0.0
C908 C 0.27322 0.93235 0.24296 0.0
C909 C 0.25732 0.93395 0.23586 0.0
C910 C 0.25439 0.94776 0.25014 0.0
C911 C 0.26697 0.95954 0.27139 0.0
C912 C 0.22959 0.91942 0.16883 0.0
C913 C 0.22346 0.89928 0.16608 0.0
C914 C 0.23981 0.93048 0.19213 0.0
C915 C 0.2443 0.92166 0.21295 0.0
C916 C 0.23732 0.9013 0.2108 0.0
C917 C 0.22688 0.89017 0.18765 0.0
H918 H 0.66444 0.94364 0.26335 0.0
H919 H 0.72417 0.96222 0.27993 0.0
H920 H 0.66338 0.92207 0.22593 0.0
H921 H 0.72308 0.9407 0.24224 0.0
H922 H 0.71716 0.92022 0.14949 0.0
H923 H 0.71934 0.94011 0.18999 0.0
H924 H 0.66548 0.89083 0.22013 0.0
H925 H 0.66341 0.87085 0.17955 0.0
C926 C 0.67736 0.94318 0.25895 0.0
C927 C 0.69442 0.95468 0.27453 0.0
C928 C 0.67668 0.93069 0.2377 0.0
C929 C 0.69311 0.92966 0.23135 0.0
C930 C 0.71023 0.94127 0.24673 0.0
C931 C 0.71083 0.95356 0.26827 0.0
C932 C 0.70594 0.91361 0.16498 0.0
C933 C 0.69011 0.89407 0.16151 0.0
C934 C 0.70722 0.92493 0.18815 0.0
C935 C 0.69253 0.91701 0.20807 0.0
C936 C 0.67691 0.8973 0.20492 0.0
C937 C 0.67579 0.88585 0.18191 0.0
H938 H 0.05991 0.7481 0.25772 0.0
H939 H 0.10087 0.7299 0.27137 0.0
H940 H 0.08117 0.77065 0.22285 0.0
H941 H 0.1218 0.7518 0.23555 0.0
H942 H 0.16299 0.804 0.18343 0.0
H943 H 0.14331 0.78524 0.22257 0.0
H944 H 0.09105 0.7697 0.17805 0.0
H945 H 0.11062 0.78928 0.1401 0.0
C946 C 0.07336 0.74874 0.25302 0.0
C947 C 0.07864 0.7371 0.26713 0.0
C948 C 0.08557 0.76166 0.23297 0.0
C949 C 0.10321 0.76303 0.22619 0.0
C950 C 0.1085 0.75142 0.24047 0.0
C951 C 0.09641 0.73869 0.26082 0.0
C952 C 0.14732 0.79686 0.18232 0.0
C953 C 0.13837 0.79794 0.15854 0.0
C954 C 0.13601 0.78589 0.20458 0.0
C955 C 0.11553 0.77579 0.20347 0.0
C956 C 0.10673 0.77741 0.17992 0.0
C957 C 0.11798 0.78845 0.15791 0.0
H958 H 0.26892 0.30925 0.26489 0.0
H959 H 0.29935 0.37269 0.25572 0.0
H960 H 0.24432 0.30498 0.23202 0.0
H961 H 0.27484 0.36838 0.22304 0.0
H962 H 0.21939 0.3568 0.18508 0.0
H963 H 0.23948 0.35728 0.22246 0.0
H964 H 0.24272 0.31015 0.18172 0.0
H965 H 0.22249 0.30956 0.14449 0.0
C966 C 0.27041 0.32227 0.25582 0.0
C967 C 0.28614 0.34131 0.26289 0.0
C968 C 0.25631 0.31981 0.23703 0.0
C969 C 0.25754 0.33636 0.22519 0.0
C970 C 0.2733 0.35536 0.23219 0.0
C971 C 0.28747 0.35781 0.25071 0.0
C972 C 0.22392 0.34615 0.18454 0.0
C973 C 0.21946 0.3332 0.16185 0.0
C974 C 0.23562 0.34659 0.20574 0.0
C975 C 0.24292 0.33396 0.20479 0.0
C976 C 0.23731 0.32004 0.18305 0.0
C977 C 0.22577 0.31973 0.16172 0.0
H978 H 0.26401 0.35801 0.36324 0.0
H979 H 0.29719 0.34415 0.41671 0.0
H980 H 0.24779 0.36224 0.40291 0.0
H981 H 0.28085 0.34826 0.45631 0.0
H982 H 0.25972 0.37204 0.52369 0.0
H983 H 0.27783 0.37381 0.4824 0.0
H984 H 0.22387 0.34 0.43739 0.0
H985 H 0.20574 0.33804 0.47874 0.0
C986 C 0.26794 0.35597 0.38346 0.0
C987 C 0.28185 0.35065 0.38681 0.0
C988 C 0.25857 0.35833 0.40615 0.0
C989 C 0.26304 0.3556 0.43271 0.0
C990 C 0.27727 0.35072 0.43611 0.0
C991 C 0.28653 0.34822 0.41341 0.0
C992 C 0.25174 0.36516 0.5049 0.0
C993 C 0.23128 0.35468 0.50456 0.0
C994 C 0.26211 0.36614 0.4813 0.0
C995 C 0.25226 0.3568 0.45677 0.0
C996 C 0.23188 0.34743 0.45596 0.0
C997 C 0.22149 0.34637 0.47963 0.0
H998 H 0.65714 0.93569 0.39405 0.0
H999 H 0.71885 0.97109 0.41107 0.0
H1000 H 0.6535 0.91186 0.42764 0.0
H1001 H 0.71511 0.94744 0.44508 0.0
H1002 H 0.70516 0.89398 0.49048 0.0
H1003 H 0.70752 0.91349 0.45098 0.0
H1004 H 0.65503 0.9111 0.47697 0.0
H1005 H 0.65249 0.8913 0.51575 0.0
C1006 C 0.66993 0.93843 0.40501 0.0
C1007 C 0.68827 0.95538 0.40001 0.0
C1008 C 0.66783 0.92477 0.42429 0.0
C1009 C 0.68401 0.92774 0.43904 0.0
C1010 C 0.70239 0.94456 0.43378 0.0
C1011 C 0.7045 0.95822 0.41448 0.0
C1012 C 0.69393 0.89727 0.48729 0.0
C1013 C 0.67872 0.89127 0.5062 0.0
C1014 C 0.69538 0.90861 0.46491 0.0
C1015 C 0.68156 0.91401 0.46098 0.0
C1016 C 0.66584 0.9071 0.47922 0.0
C1017 C 0.66444 0.89587 0.50155 0.0
H1018 H 0.08625 0.77788 0.36227 0.0
H1019 H 0.05857 0.72401 0.40821 0.0
H1020 H 0.10719 0.79598 0.40139 0.0
H1021 H 0.0789 0.74215 0.44755 0.0
H1022 H 0.1295 0.7738 0.50465 0.0
H1023 H 0.11146 0.75747 0.46278 0.0
H1024 H 0.10706 0.80827 0.44672 0.0
H1025 H 0.12592 0.82487 0.48833 0.0
C1026 C 0.08454 0.76993 0.3808 0.0
C1027 C 0.07081 0.7495 0.38214 0.0
C1028 C 0.09648 0.78033 0.40326 0.0
C1029 C 0.09484 0.77053 0.42759 0.0
C1030 C 0.0809 0.75012 0.42896 0.0
C1031 C 0.06911 0.73971 0.40645 0.0
C1032 C 0.12482 0.7815 0.49193 0.0
C1033 C 0.12893 0.80047 0.49962 0.0
C1034 C 0.11436 0.77212 0.46809 0.0
C1035 C 0.10748 0.78139 0.4516 0.0
C1036 C 0.11222 0.80074 0.45885 0.0
C1037 C 0.12297 0.81025 0.48263 0.0
H1038 H 0.32827 0.09024 0.70157 0.0
H1039 H 0.3414 0.05747 0.75724 0.0
H1040 H 0.32582 0.10896 0.7402 0.0
H1041 H 0.339 0.07627 0.79582 0.0
H1042 H 0.31681 0.10094 0.86075 0.0
H1043 H 0.31422 0.08095 0.8203 0.0
H1044 H 0.34902 0.13424 0.77455 0.0
H1045 H 0.35188 0.15428 0.81511 0.0
C1046 C 0.33055 0.08696 0.72205 0.0
C1047 C 0.33509 0.0724 0.72635 0.0
C1048 C 0.32921 0.09774 0.74413 0.0
C1049 C 0.33216 0.09404 0.771 0.0
C1050 C 0.3364 0.07927 0.77534 0.0
C1051 C 0.33792 0.0686 0.75325 0.0
C1052 C 0.32376 0.10838 0.84198 0.0
C1053 C 0.33477 0.1292 0.84122 0.0
C1054 C 0.3223 0.09694 0.81887 0.0
C1055 C 0.33166 0.10605 0.79442 0.0
C1056 C 0.34159 0.12681 0.7931 0.0
C1057 C 0.34315 0.13828 0.8163 0.0
H1058 H 0.92519 0.27928 0.73392 0.0
H1059 H 0.97234 0.26931 0.74438 0.0
H1060 H 0.90708 0.25621 0.76998 0.0
H1061 H 0.9539 0.24568 0.78016 0.0
H1062 H 0.87151 0.20446 0.82193 0.0
H1063 H 0.88976 0.22192 0.78148 0.0
H1064 H 0.94356 0.24587 0.82652 0.0
H1065 H 0.92535 0.22756 0.86651 0.0
C1066 C 0.93164 0.27202 0.74376 0.0
C1067 C 0.95026 0.27623 0.73636 0.0
C1068 C 0.92115 0.25861 0.7643 0.0
C1069 C 0.92896 0.24895 0.77789 0.0
C1070 C 0.94752 0.25298 0.77028 0.0
C1071 C 0.95808 0.26649 0.74974 0.0
C1072 C 0.88726 0.21295 0.82297 0.0
C1073 C 0.89696 0.21481 0.84758 0.0
C1074 C 0.89772 0.22321 0.79988 0.0
C1075 C 0.91811 0.23564 0.8009 0.0
C1076 C 0.92788 0.23644 0.82495 0.0
C1077 C 0.91742 0.22609 0.84799 0.0
H1078 H 0.73152 0.65373 0.75095 0.0
H1079 H 0.7591 0.71694 0.74173 0.0
H1080 H 0.75753 0.65936 0.78161 0.0
H1081 H 0.78519 0.72254 0.77278 0.0
H1082 H 0.8083 0.71669 0.86014 0.0
H1083 H 0.78785 0.71667 0.82363 0.0
H1084 H 0.79384 0.67273 0.77827 0.0
H1085 H 0.81419 0.67271 0.8148 0.0
C1086 C 0.74307 0.66884 0.75557 0.0
C1087 C 0.74321 0.68489 0.74393 0.0
C1088 C 0.7581 0.67205 0.77289 0.0
C1089 C 0.77353 0.69137 0.77923 0.0
C1090 C 0.77351 0.70749 0.76811 0.0
C1091 C 0.75856 0.70427 0.75043 0.0
C1092 C 0.80573 0.70752 0.84194 0.0
C1093 C 0.81271 0.69462 0.84032 0.0
C1094 C 0.79404 0.7075 0.82108 0.0
C1095 C 0.789 0.69443 0.7984 0.0
C1096 C 0.79729 0.68274 0.79576 0.0
C1097 C 0.80913 0.6829 0.81648 0.0
H1098 H 0.76893 0.67116 0.64509 0.0
H1099 H 0.73779 0.68806 0.59241 0.0
H1100 H 0.78987 0.67385 0.60683 0.0
H1101 H 0.75843 0.69039 0.55424 0.0
H1102 H 0.80965 0.71325 0.49865 0.0
H1103 H 0.79219 0.71199 0.54036 0.0
H1104 H 0.78899 0.65802 0.5623 0.0
H1105 H 0.80675 0.65949 0.52058 0.0
C1106 C 0.76643 0.67528 0.62531 0.0
C1107 C 0.75175 0.6795 0.62182 0.0
C1108 C 0.77842 0.67679 0.60341 0.0
C1109 C 0.77598 0.68259 0.57762 0.0
C1110 C 0.76099 0.68633 0.57402 0.0
C1111 C 0.74902 0.68482 0.59585 0.0
C1112 C 0.80547 0.7013 0.51264 0.0
C1113 C 0.80936 0.68637 0.50634 0.0
C1114 C 0.79536 0.70049 0.53639 0.0
C1115 C 0.78885 0.68467 0.55432 0.0
C1116 C 0.79383 0.6704 0.5489 0.0
C1117 C 0.80404 0.67126 0.5251 0.0
H1118 H 0.36886 0.08309 0.61163 0.0
H1119 H 0.30868 0.04432 0.58766 0.0
H1120 H 0.37213 0.10754 0.5793 0.0
H1121 H 0.31205 0.0687 0.55522 0.0
H1122 H 0.31934 0.12342 0.51615 0.0
H1123 H 0.31719 0.10248 0.55372 0.0
H1124 H 0.37229 0.11024 0.5292 0.0
H1125 H 0.37445 0.13121 0.4921 0.0
C1126 C 0.35635 0.07973 0.59939 0.0
C1127 C 0.33853 0.06169 0.60214 0.0
C1128 C 0.35823 0.09376 0.58089 0.0
C1129 C 0.34231 0.09011 0.56484 0.0
C1130 C 0.32449 0.0721 0.56762 0.0
C1131 C 0.32264 0.05802 0.586 0.0
C1132 C 0.33115 0.12097 0.51929 0.0
C1133 C 0.34701 0.12882 0.50127 0.0
C1134 C 0.32984 0.10884 0.54054 0.0
C1135 C 0.34449 0.10456 0.54424 0.0
C1136 C 0.36083 0.11333 0.52703 0.0
C1137 C 0.36204 0.12527 0.50573 0.0
H1138 H 0.96174 0.26953 0.61018 0.0
H1139 H 0.93676 0.30588 0.60508 0.0
H1140 H 0.94085 0.24844 0.57262 0.0
H1141 H 0.91583 0.28471 0.56754 0.0
H1142 H 0.90363 0.25707 0.47838 0.0
H1143 H 0.92061 0.27728 0.51899 0.0
H1144 H 0.9054 0.22437 0.56238 0.0
H1145 H 0.88852 0.20415 0.52156 0.0
C1146 C 0.95181 0.27303 0.60105 0.0
C1147 C 0.95097 0.28943 0.61056 0.0
C1148 C 0.93971 0.26083 0.57972 0.0
C1149 C 0.92662 0.26486 0.56726 0.0
C1150 C 0.92582 0.28129 0.57669 0.0
C1151 C 0.9378 0.29339 0.5982 0.0
C1152 C 0.90367 0.24977 0.49676 0.0
C1153 C 0.89486 0.22908 0.49685 0.0
C1154 C 0.91331 0.26132 0.52002 0.0
C1155 C 0.91449 0.25241 0.54375 0.0
C1156 C 0.90492 0.23164 0.54423 0.0
C1157 C 0.89509 0.22006 0.52103 0.0
H1158 H 0.39487 0.30449 0.61024 0.0
H1159 H 0.3322 0.27445 0.60565 0.0
H1160 H 0.39434 0.28164 0.57498 0.0
H1161 H 0.33173 0.25155 0.57085 0.0
H1162 H 0.33639 0.20233 0.52933 0.0
H1163 H 0.34068 0.22433 0.56844 0.0
H1164 H 0.3839 0.27465 0.52323 0.0
H1165 H 0.37937 0.25266 0.48406 0.0
C1166 C 0.38101 0.29302 0.60174 0.0
C1167 C 0.36358 0.2913 0.61062 0.0
C1168 C 0.38072 0.27997 0.58163 0.0
C1169 C 0.36298 0.26474 0.57048 0.0
C1170 C 0.34558 0.26299 0.57943 0.0
C1171 C 0.34588 0.27623 0.59913 0.0
C1172 C 0.34718 0.21801 0.52814 0.0
C1173 C 0.35759 0.22587 0.50385 0.0
C1174 C 0.3495 0.23059 0.55032 0.0
C1175 C 0.3625 0.25117 0.54868 0.0
C1176 C 0.37385 0.25884 0.52503 0.0
C1177 C 0.37128 0.24631 0.5027 0.0
H1178 H 0.73048 0.08769 0.6001 0.0
H1179 H 0.76395 0.05962 0.60087 0.0
H1180 H 0.75202 0.11021 0.56538 0.0
H1181 H 0.7851 0.08164 0.56532 0.0
H1182 H 0.82889 0.13327 0.51473 0.0
H1183 H 0.80979 0.11495 0.55452 0.0
H1184 H 0.75849 0.1093 0.51843 0.0
H1185 H 0.77768 0.12834 0.47978 0.0
C1186 C 0.74235 0.08621 0.59267 0.0
C1187 C 0.74541 0.07176 0.60308 0.0
C1188 C 0.75471 0.09911 0.57271 0.0
C1189 C 0.7703 0.09773 0.5624 0.0
C1190 C 0.77345 0.08337 0.57305 0.0
C1191 C 0.7612 0.07059 0.59324 0.0
C1192 C 0.81363 0.12844 0.51567 0.0
C1193 C 0.80475 0.13207 0.494 0.0
C1194 C 0.80262 0.11773 0.53827 0.0
C1195 C 0.78253 0.11047 0.53963 0.0
C1196 C 0.77392 0.11478 0.51834 0.0
C1197 C 0.78489 0.12552 0.49595 0.0
H1198 H 0.92756 0.6566 0.61485 0.0
H1199 H 0.96223 0.65795 0.54591 0.0
H1200 H 0.90295 0.65387 0.58355 0.0
H1201 H 0.93786 0.65565 0.51468 0.0
H1202 H 0.88647 0.63862 0.46275 0.0
H1203 H 0.90511 0.63418 0.49763 0.0
H1204 H 0.89961 0.67487 0.5519 0.0
H1205 H 0.88069 0.67899 0.51709 0.0
C1206 C 0.92992 0.65624 0.593 0.0
C1207 C 0.94693 0.65757 0.58287 0.0
C1208 C 0.91582 0.65475 0.57509 0.0
C1209 C 0.91838 0.65452 0.5466 0.0
C1210 C 0.93522 0.65545 0.5365 0.0
C1211 C 0.94932 0.65693 0.55441 0.0
C1212 C 0.88887 0.64622 0.48241 0.0
C1213 C 0.88226 0.65924 0.48717 0.0
C1214 C 0.89969 0.64383 0.50229 0.0
C1215 C 0.90421 0.65448 0.52736 0.0
C1216 C 0.89634 0.66637 0.53288 0.0
C1217 C 0.88543 0.66869 0.51298 0.0
H1218 H 0.93155 0.68944 0.69305 0.0
H1219 H 0.95969 0.66772 0.74318 0.0
H1220 H 0.9106 0.68644 0.73125 0.0
H1221 H 0.93916 0.66531 0.78168 0.0
H1222 H 0.8875 0.6437 0.8372 0.0
H1223 H 0.90616 0.64566 0.79651 0.0
H1224 H 0.91024 0.70021 0.77528 0.0
H1225 H 0.89111 0.69786 0.81572 0.0
C1226 C 0.93345 0.68426 0.71234 0.0
C1227 C 0.94727 0.67876 0.71503 0.0
C1228 C 0.92144 0.68258 0.73429 0.0
C1229 C 0.92303 0.67545 0.75952 0.0
C1230 C 0.93721 0.67042 0.76237 0.0
C1231 C 0.94913 0.67199 0.74038 0.0
C1232 C 0.89217 0.65594 0.82357 0.0
C1233 C 0.88793 0.67066 0.82962 0.0
C1234 C 0.90302 0.65719 0.80041 0.0
C1235 C 0.91004 0.67329 0.78284 0.0
C1236 C 0.905 0.68754 0.78824 0.0
C1237 C 0.89399 0.68619 0.81136 0.0
H1238 H 0.32493 0.27227 0.73178 0.0
H1239 H 0.38727 0.30556 0.74371 0.0
H1240 H 0.32157 0.24868 0.7656 0.0
H1241 H 0.38385 0.28219 0.77793 0.0
H1242 H 0.37323 0.22851 0.82386 0.0
H1243 H 0.37511 0.24795 0.7845 0.0
H1244 H 0.32495 0.24861 0.8146 0.0
H1245 H 0.32285 0.22889 0.8532 0.0
C1246 C 0.33792 0.27461 0.74169 0.0
C1247 C 0.35636 0.29089 0.73517 0.0
C1248 C 0.33599 0.26108 0.76109 0.0
C1249 C 0.35244 0.26353 0.77447 0.0
C1250 C 0.3709 0.27969 0.76772 0.0
C1251 C 0.37284 0.29322 0.74829 0.0
C1252 C 0.36241 0.23249 0.82164 0.0
C1253 C 0.34799 0.22735 0.84163 0.0
C1254 C 0.36359 0.24379 0.79932 0.0
C1255 C 0.35028 0.24998 0.79654 0.0
C1256 C 0.33535 0.24399 0.81594 0.0
C1257 C 0.33422 0.23281 0.83818 0.0
H1258 H 0.76004 0.11115 0.70301 0.0
H1259 H 0.72892 0.0564 0.74678 0.0
H1260 H 0.7809 0.12751 0.74274 0.0
H1261 H 0.74922 0.07289 0.78686 0.0
H1262 H 0.79871 0.10195 0.84673 0.0
H1263 H 0.78101 0.08654 0.80428 0.0
H1264 H 0.78038 0.13943 0.78775 0.0
H1265 H 0.7988 0.15503 0.82986 0.0
C1266 C 0.75759 0.10263 0.72118 0.0
C1267 C 0.74284 0.08248 0.72178 0.0
C1268 C 0.76949 0.11204 0.74402 0.0
C1269 C 0.76677 0.10155 0.76806 0.0
C1270 C 0.752 0.08136 0.76856 0.0
C1271 C 0.74025 0.07191 0.74563 0.0
C1272 C 0.79489 0.11028 0.83383 0.0
C1273 C 0.79998 0.1296 0.84152 0.0
C1274 C 0.78464 0.10144 0.80962 0.0
C1275 C 0.77901 0.11162 0.79272 0.0
C1276 C 0.78463 0.13121 0.8001 0.0
C1277 C 0.79513 0.14015 0.82421 0.0
H1278 H 0.05084 0.32611 0.98511 0.0
H1279 H 0.07837 0.38472 0.02253 0.0
H1280 H 0.07742 0.32276 0.00128 0.0
H1281 H 0.10475 0.38129 0.03878 0.0
H1282 H 0.15504 0.37562 0.05657 0.0
H1283 H 0.13262 0.37801 0.02593 0.0
H1284 H 0.0869 0.319 0.0476 0.0
H1285 H 0.1094 0.31675 0.07795 0.0
C1286 C 0.06266 0.33837 -0.00352 0.0
C1287 C 0.06238 0.35561 0.00277 0.0
C1288 C 0.07787 0.33642 0.00577 0.0
C1289 C 0.0932 0.35174 0.02132 0.0
C1290 C 0.09332 0.36931 0.02654 0.0
C1291 C 0.07808 0.3712 0.01743 0.0
C1292 C 0.14043 0.3629 0.05376 0.0
C1293 C 0.13391 0.34593 0.06924 0.0
C1294 C 0.12753 0.36434 0.03656 0.0
C1295 C 0.10792 0.34878 0.03459 0.0
C1296 C 0.10192 0.33117 0.04843 0.0
C1297 C 0.11478 0.32982 0.06575 0.0
H1298 H 0.68163 0.71961 0.97317 0.0
H1299 H 0.64953 0.69206 0.04678 0.0
H1300 H 0.68246 0.75002 0.98639 0.0
H1301 H 0.65047 0.72228 0.05993 0.0
H1302 H 0.64424 0.77297 0.07463 0.0
H1303 H 0.63855 0.74394 0.04771 0.0
H1304 H 0.69896 0.77576 0.02342 0.0
H1305 H 0.70441 0.80476 0.05009 0.0
C1306 C 0.67465 0.71998 -0.00795 0.0
C1307 C 0.66563 0.70345 0.00902 0.0
C1308 C 0.67513 0.7374 -0.00041 0.0
C1309 C 0.66639 0.73853 0.02408 0.0
C1310 C 0.65701 0.72181 0.04067 0.0
C1311 C 0.65668 0.70453 0.03328 0.0
C1312 C 0.65599 0.77402 0.06234 0.0
C1313 C 0.67468 0.79108 0.06404 0.0
C1314 C 0.65285 0.75734 0.0473 0.0
C1315 C 0.6684 0.75743 0.03387 0.0
C1316 C 0.68666 0.77522 0.0334 0.0
C1317 C 0.68978 0.79189 0.0485 0.0
H1318 H 0.30263 0.97616 0.97788 0.0
H1319 H 0.33407 0.96284 0.03544 0.0
H1320 H 0.27211 0.94696 -0.00775 0.0
H1321 H 0.30368 0.93393 0.04991 0.0
H1322 H 0.24817 0.87852 0.06697 0.0
H1323 H 0.27557 0.90092 0.03774 0.0
H1324 H 0.25347 0.93993 0.035 0.0
H1325 H 0.22624 0.9175 0.06391 0.0
C1326 C 0.30308 0.96689 -0.00667 0.0
C1327 C 0.32077 0.97197 0.00574 0.0
C1328 C 0.28558 0.95018 0.00157 0.0
C1329 C 0.28544 0.93813 0.02226 0.0
C1330 C 0.30326 0.94271 0.03367 0.0
C1331 C 0.3207 0.95943 0.02555 0.0
C1332 C 0.24885 0.89149 0.05911 0.0
C1333 C 0.23515 0.89632 0.06743 0.0
C1334 C 0.2646 0.90442 0.04269 0.0
C1335 C 0.26683 0.92233 0.03431 0.0
C1336 C 0.25215 0.92622 0.04084 0.0
C1337 C 0.23653 0.91339 0.05737 0.0
H1338 H 0.35826 0.06494 0.01912 0.0
H1339 H 0.41042 0.09562 0.97029 0.0
H1340 H 0.35026 0.08953 0.00774 0.0
H1341 H 0.40207 0.11964 0.95794 0.0
H1342 H 0.38672 0.16357 0.93929 0.0
H1343 H 0.39714 0.14608 0.96823 0.0
H1344 H 0.33819 0.09535 0.96803 0.0
H1345 H 0.32797 0.1131 0.94023 0.0
C1346 C 0.36809 0.07701 0.00611 0.0
C1347 C 0.38483 0.07815 -0.00471 0.0
C1348 C 0.36348 0.09111 -0.00049 0.0
C1349 C 0.37536 0.10652 0.98162 0.0
C1350 C 0.39266 0.1082 0.97204 0.0
C1351 C 0.39738 0.09426 0.97892 0.0
C1352 C 0.37595 0.14901 0.9465 0.0
C1353 C 0.35659 0.1396 0.93754 0.0
C1354 C 0.38192 0.13885 0.96272 0.0
C1355 C 0.3686 0.1191 0.9701 0.0
C1356 C 0.34889 0.11052 0.96306 0.0
C1357 C 0.34298 0.12067 0.94702 0.0
H1358 H 0.94115 0.32418 0.01566 0.0
H1359 H 0.98078 0.30905 0.9792 0.0
H1360 H 0.91375 0.2909 0.00422 0.0
H1361 H 0.95352 0.27603 0.96767 0.0
H1362 H 0.90515 0.21495 0.95928 0.0
H1363 H 0.92774 0.24447 0.98653 0.0
H1364 H 0.89796 0.27323 0.9605 0.0
H1365 H 0.87531 0.24354 0.93365 0.0
C1366 C 0.94404 0.31372 0.00544 0.0
C1367 C 0.96315 0.31932 -0.00184 0.0
C1368 C 0.92834 0.29468 -0.00111 0.0
C1369 C 0.93145 0.28078 0.98519 0.0
C1370 C 0.95062 0.28623 0.97868 0.0
C1371 C 0.96626 0.30527 0.98503 0.0
C1372 C 0.90288 0.22723 0.96063 0.0
C1373 C 0.88842 0.22698 0.94477 0.0
C1374 C 0.91597 0.24424 0.97583 0.0
C1375 C 0.91487 0.26132 0.97524 0.0
C1376 C 0.89916 0.2603 0.96152 0.0
C1377 C 0.88608 0.24328 0.94629 0.0
H1378 H 0.73646 0.69534 0.00389 0.0
H1379 H 0.70362 0.63141 -0.00203 0.0
H1380 H 0.76521 0.69602 0.9869 0.0
H1381 H 0.7326 0.63198 0.98211 0.0
H1382 H 0.77644 0.64496 0.91119 0.0
H1383 H 0.74993 0.63983 0.94086 0.0
H1384 H 0.79068 0.68988 0.99183 0.0
H1385 H 0.81716 0.69529 0.96108 0.0
C1386 C 0.73549 0.6814 -0.0005 0.0
C1387 C 0.71768 0.66334 0.00186 0.0
C1388 C 0.75207 0.68176 0.98998 0.0
C1389 C 0.7513 0.66404 0.9829 0.0
C1390 C 0.73369 0.64594 0.9868 0.0
C1391 C 0.71706 0.6456 -0.00404 0.0
C1392 C 0.77978 0.65432 0.92939 0.0
C1393 C 0.79876 0.67041 0.93405 0.0
C1394 C 0.76457 0.65145 0.94646 0.0
C1395 C 0.76803 0.66462 0.96863 0.0
C1396 C 0.78741 0.67969 0.97464 0.0
C1397 C 0.80264 0.68261 0.95738 0.0
H1398 H 0.98591 0.70187 0.9771 0.0
H1399 H 0.9505 0.64187 0.00513 0.0
H1400 H 0.9568 0.70138 0.96402 0.0
H1401 H 0.92119 0.64158 -0.00722 0.0
H1402 H 0.88282 0.63966 0.92013 0.0
H1403 H 0.90678 0.63969 0.94966 0.0
H1404 H 0.92718 0.70011 0.97538 0.0
H1405 H 0.90327 0.70005 0.94495 0.0
C1406 C 0.97188 0.68869 0.981 0.0
C1407 C 0.97057 0.67178 0.99172 0.0
C1408 C 0.95511 0.68848 0.97376 0.0
C1409 C 0.93657 0.67139 0.97717 0.0
C1410 C 0.93523 0.65489 0.98946 0.0
C1411 C 0.95204 0.65506 -0.00341 0.0
C1412 C 0.89197 0.65268 0.93289 0.0
C1413 C 0.89132 0.66987 0.93026 0.0
C1414 C 0.90572 0.65273 0.94989 0.0
C1415 C 0.91918 0.67002 0.96463 0.0
C1416 C 0.91727 0.68666 0.96392 0.0
C1417 C 0.90344 0.68658 0.94683 0.0
H1418 H 0.34123 0.31276 0.96737 0.0
H1419 H 0.38148 0.31779 0.02914 0.0
H1420 H 0.33388 0.27971 0.95492 0.0
H1421 H 0.37383 0.28436 0.01689 0.0
H1422 H 0.37767 0.24227 0.94895 0.0
H1423 H 0.38085 0.26962 0.97732 0.0
H1424 H 0.31919 0.24573 0.96855 0.0
H1425 H 0.31632 0.21875 0.93951 0.0
C1426 C 0.34832 0.3067 0.97858 0.0
C1427 C 0.36209 0.31802 -0.00094 0.0
C1428 C 0.34394 0.28761 0.97165 0.0
C1429 C 0.3532 0.27929 0.985 0.0
C1430 C 0.36652 0.29036 0.00612 0.0
C1431 C 0.37088 0.3095 0.01314 0.0
C1432 C 0.36468 0.24239 0.9543 0.0
C1433 C 0.34675 0.22844 0.94231 0.0
C1434 C 0.36648 0.25811 0.97042 0.0
C1435 C 0.35033 0.26011 0.9747 0.0
C1436 C 0.33198 0.24484 0.96515 0.0
C1437 C 0.33023 0.22921 0.94892 0.0
H1438 H 0.7144 0.06868 0.03401 0.0
H1439 H 0.70685 0.03633 0.95791 0.0
H1440 H 0.74757 0.09389 0.02029 0.0
H1441 H 0.73975 0.06127 0.94443 0.0
H1442 H 0.80204 0.09865 0.93105 0.0
H1443 H 0.77431 0.07445 0.95789 0.0
H1444 H 0.76245 0.11966 0.98273 0.0
H1445 H 0.79041 0.14391 0.95598 0.0
C1446 C 0.71984 0.06688 0.01448 0.0
C1447 C 0.70796 0.05054 -0.003 0.0
C1448 C 0.73881 0.08131 0.00666 0.0
C1449 C 0.74635 0.07945 0.98145 0.0
C1450 C 0.73452 0.06295 0.96422 0.0
C1451 C 0.71556 0.04874 0.97183 0.0
C1452 C 0.79406 0.10359 0.94336 0.0
C1453 C 0.79834 0.1231 0.9416 0.0
C1454 C 0.77804 0.0897 0.95839 0.0
C1455 C 0.76596 0.09506 0.97188 0.0
C1456 C 0.7715 0.1151 0.97257 0.0
C1457 C 0.78759 0.12903 0.95745 0.0
H1458 H 0.6388 0.94207 0.02175 0.0
H1459 H 0.69026 0.96571 0.97132 0.0
H1460 H 0.6445 0.91675 0.03778 0.0
H1461 H 0.69588 0.94027 0.9873 0.0
H1462 H 0.71278 0.91567 0.06267 0.0
H1463 H 0.7061 0.93538 0.0325 0.0
H1464 H 0.64624 0.88711 0.02524 0.0
H1465 H 0.6531 0.86743 0.05558 0.0
C1466 C 0.65117 0.94169 0.01376 0.0
C1467 C 0.66418 0.95606 -0.00453 0.0
C1468 C 0.65435 0.92705 0.02277 0.0
C1469 C 0.67067 0.9265 0.01383 0.0
C1470 C 0.68325 0.94039 -0.00529 0.0
C1471 C 0.68 0.95494 0.98553 0.0
C1472 C 0.69844 0.90901 0.0536 0.0
C1473 C 0.68348 0.89003 0.06118 0.0
C1474 C 0.69456 0.92029 0.0364 0.0
C1475 C 0.67556 0.9129 0.02676 0.0
C1476 C 0.66096 0.89328 0.03262 0.0
C1477 C 0.66492 0.88191 0.04962 0.0
H1478 H 0.08803 0.70698 0.97354 0.0
H1479 H 0.0503 0.7164 0.0266 0.0
H1480 H 0.1153 0.74016 0.98592 0.0
H1481 H 0.07739 0.7492 0.03909 0.0
H1482 H 0.12436 0.80959 0.05426 0.0
H1483 H 0.10077 0.78265 0.02407 0.0
H1484 H 0.13423 0.75468 0.02838 0.0
H1485 H 0.15784 0.78182 0.05806 0.0
C1486 C 0.08549 0.71618 0.98758 0.0
C1487 C 0.06703 0.70896 -0.00069 0.0
C1488 C 0.10112 0.73517 -0.00533 0.0
C1489 C 0.09854 0.74738 0.0134 0.0
C1490 C 0.07987 0.74038 0.02422 0.0
C1491 C 0.06434 0.72143 0.0173 0.0
C1492 C 0.12715 0.79821 0.04744 0.0
C1493 C 0.14293 0.79779 0.05812 0.0
C1494 C 0.11352 0.78263 0.03055 0.0
C1495 C 0.1154 0.7663 0.0243 0.0
C1496 C 0.13236 0.76704 0.03264 0.0
C1497 C 0.14598 0.78263 0.04952 0.0
H1498 H 0.32439 0.3894 0.02178 0.0
H1499 H 0.2918 0.33955 0.96584 0.0
H1500 H 0.29419 0.38543 0.0389 0.0
H1501 H 0.26149 0.33574 0.98281 0.0
H1502 H 0.21926 0.3171 0.05917 0.0
H1503 H 0.24524 0.32398 0.02701 0.0
H1504 H 0.26461 0.38616 0.03053 0.0
H1505 H 0.23849 0.37908 0.06308 0.0
C1506 C 0.3108 0.37782 0.01275 0.0
C1507 C 0.31051 0.3646 -0.00725 0.0
C1508 C 0.29345 0.37566 0.02239 0.0
C1509 C 0.2754 0.3602 0.01231 0.0
C1510 C 0.27516 0.34768 0.99117 0.0
C1511 C 0.29254 0.34989 0.98143 0.0
C1512 C 0.22864 0.3321 0.0522 0.0
C1513 C 0.22695 0.34757 0.06346 0.0
C1514 C 0.24352 0.33608 0.03376 0.0
C1515 C 0.25715 0.35566 0.02643 0.0
C1516 C 0.25446 0.37095 0.03604 0.0
C1517 C 0.23943 0.36691 0.05439 0.0
H1518 H 0.70636 0.65505 0.36081 0.0
H1519 H 0.74255 0.71558 0.33525 0.0
H1520 H 0.7352 0.65496 0.37406 0.0
H1521 H 0.77152 0.71529 0.34752 0.0
H1522 H 0.81087 0.71612 0.41694 0.0
H1523 H 0.78626 0.71643 0.38941 0.0
H1524 H 0.76451 0.65587 0.36286 0.0
H1525 H 0.78907 0.65557 0.39144 0.0
C1526 C 0.7205 0.66823 0.35751 0.0
C1527 C 0.72211 0.68542 0.34739 0.0
C1528 C 0.73712 0.66813 0.36487 0.0
C1529 C 0.75579 0.68517 0.36207 0.0
C1530 C 0.7574 0.70201 0.35048 0.0
C1531 C 0.74077 0.70217 0.34338 0.0
C1532 C 0.80123 0.70311 0.40445 0.0
C1533 C 0.8018 0.68582 0.40628 0.0
C1534 C 0.78708 0.70325 0.38859 0.0
C1535 C 0.77313 0.68607 0.37412 0.0
C1536 C 0.77478 0.66925 0.37414 0.0
C1537 C 0.78901 0.66913 0.39013 0.0
H1538 H 0.35056 0.04311 0.37662 0.0
H1539 H 0.32319 0.04672 0.30351 0.0
H1540 H 0.35739 0.07559 0.39184 0.0
H1541 H 0.32995 0.07943 0.31904 0.0
H1542 H 0.32043 0.11838 0.3894 0.0
H1543 H 0.31794 0.09169 0.35984 0.0
H1544 H 0.37766 0.11146 0.37836 0.0
H1545 H 0.38 0.13795 0.40793 0.0
C1546 C 0.34607 0.05088 0.36373 0.0
C1547 C 0.33628 0.0423 0.33891 0.0
C1548 C 0.35017 0.0696 0.37231 0.0
C1549 C 0.3444 0.08016 0.35646 0.0
C1550 C 0.33463 0.07165 0.33159 0.0
C1551 C 0.33078 0.05296 0.32274 0.0
C1552 C 0.33329 0.11761 0.3859 0.0
C1553 C 0.35041 0.13016 0.40078 0.0
C1554 C 0.33184 0.10226 0.36918 0.0
C1555 C 0.34749 0.09927 0.36731 0.0
C1556 C 0.36528 0.11324 0.37978 0.0
C1557 C 0.36672 0.12855 0.39639 0.0
H1558 H 0.99986 0.27315 0.32636 0.0
H1559 H 0.98248 0.3134 0.35566 0.0
H1560 H 0.9683 0.24501 0.34006 0.0
H1561 H 0.95114 0.28541 0.3694 0.0
H1562 H 0.89263 0.23348 0.38251 0.0
H1563 H 0.92018 0.25597 0.3537 0.0
H1564 H 0.95344 0.23256 0.38565 0.0
H1565 H 0.92582 0.21011 0.41417 0.0
C1566 C 0.98923 0.276 0.33536 0.0
C1567 C 0.99376 0.29554 0.34013 0.0
C1568 C 0.97118 0.25988 0.34326 0.0
C1569 C 0.95719 0.26295 0.35578 0.0
C1570 C 0.96145 0.28247 0.35943 0.0
C1571 C 0.97952 0.29856 0.35178 0.0
C1572 C 0.90554 0.23257 0.38231 0.0
C1573 C 0.90712 0.21996 0.40016 0.0
C1574 C 0.92139 0.2456 0.36616 0.0
C1575 C 0.93909 0.24624 0.36767 0.0
C1576 C 0.94 0.23235 0.3838 0.0
C1577 C 0.92418 0.21941 0.40005 0.0
H1578 H 0.02833 0.39949 0.35004 0.0
H1579 H 0.08016 0.42772 0.30025 0.0
H1580 H 0.02217 0.42553 0.33937 0.0
H1581 H 0.07364 0.4532 0.28862 0.0
H1582 H 0.0624 0.49995 0.27123 0.0
H1583 H 0.07111 0.48089 0.29979 0.0
H1584 H 1.01072 0.43315 0.30065 0.0
H1585 H 1.00225 0.45256 0.27321 0.0
C1586 C 0.03848 0.41132 0.33694 0.0
C1587 C 0.05461 0.41138 0.32572 0.0
C1588 C 0.03492 0.42625 0.33074 0.0
C1589 C 0.04728 0.44147 0.31289 0.0
C1590 C 0.06392 0.44197 0.30276 0.0
C1591 C 0.06758 0.42719 0.30922 0.0
C1592 C 0.05097 0.4858 0.27879 0.0
C1593 C 0.03167 0.47773 0.27032 0.0
C1594 C 0.05594 0.47469 0.29471 0.0
C1595 C 0.0417 0.45523 0.30211 0.0
C1596 C 0.02212 0.44806 0.29566 0.0
C1597 C 0.01719 0.4592 0.27995 0.0
H1598 H 0.62769 0.65955 0.29627 0.0
H1599 H 0.62486 0.63515 0.37536 0.0
H1600 H 0.59822 0.62888 0.2822 0.0
H1601 H 0.59519 0.60423 0.36109 0.0
H1602 H 0.56605 0.5476 0.29842 0.0
H1603 H 0.58844 0.57726 0.32561 0.0
H1604 H 0.56253 0.60783 0.29203 0.0
H1605 H 0.54026 0.57813 0.26483 0.0
C1606 C 0.6207 0.64768 0.31074 0.0
C1607 C 0.62869 0.64975 0.33688 0.0
C1608 C 0.60366 0.63016 0.30278 0.0
C1609 C 0.59427 0.61419 0.32064 0.0
C1610 C 0.60209 0.61631 0.34693 0.0
C1611 C 0.61906 0.634 0.35507 0.0
C1612 C 0.56449 0.56033 0.29809 0.0
C1613 C 0.55135 0.5606 0.2799 0.0
C1614 C 0.57739 0.57737 0.31347 0.0
C1615 C 0.57746 0.59497 0.31056 0.0
C1616 C 0.56297 0.59455 0.2944 0.0
C1617 C 0.55003 0.5775 0.27916 0.0
H1618 H 0.37832 0.97395 0.34104 0.0
H1619 H 0.40305 0.03177 0.30622 0.0
H1620 H 0.40826 0.97456 0.33077 0.0
H1621 H 0.43253 0.0321 0.29505 0.0
H1622 H 0.48591 0.03344 0.27802 0.0
H1623 H 0.46141 0.03352 0.3079 0.0
H1624 H 0.42245 0.97092 0.29035 0.0
H1625 H 0.44717 0.97094 0.26159 0.0
C1626 C 0.39018 0.98683 0.33133 0.0
C1627 C 0.38818 1.00269 0.32413 0.0
C1628 C 0.40735 0.98718 0.3254 0.0
C1629 C 0.42288 1.00333 0.31192 0.0
C1630 C 0.42112 0.01954 0.30586 0.0
C1631 C 0.40405 0.01926 0.31198 0.0
C1632 C 0.47249 0.01956 0.28185 0.0
C1633 C 0.46838 1.00218 0.26766 0.0
C1634 C 0.45829 0.01963 0.29852 0.0
C1635 C 0.43969 1.00234 0.301 0.0
C1636 C 0.43653 0.98452 0.28914 0.0
C1637 C 0.45074 0.98446 0.27267 0.0
H1638 H 0.61645 0.96586 0.32201 0.0
H1639 H 0.64582 0.02937 0.33378 0.0
H1640 H 0.58789 0.96504 0.30474 0.0
H1641 H 0.61755 0.02866 0.31569 0.0
H1642 H 0.56333 0.02386 0.28694 0.0
H1643 H 0.58381 0.01907 0.3185 0.0
H1644 H 0.58211 0.97514 0.26228 0.0
H1645 H 0.56151 0.97972 0.23151 0.0
C1646 C 0.61675 0.97963 0.32116 0.0
C1647 C 0.63354 0.99773 0.32885 0.0
C1648 C 0.60038 0.97917 0.31121 0.0
C1649 C 0.60047 0.9968 0.30847 0.0
C1650 C 0.61684 0.01475 0.31775 0.0
C1651 C 0.63316 0.01519 0.32792 0.0
C1652 C 0.56683 0.01271 0.282 0.0
C1653 C 0.56097 1.00218 0.2569 0.0
C1654 C 0.57871 0.01011 0.29983 0.0
C1655 C 0.58483 0.99689 0.2928 0.0
C1656 C 0.57759 0.98529 0.2686 0.0
C1657 C 0.56582 0.98793 0.25086 0.0
H1658 H 0.06132 0.6577 0.32548 0.0
H1659 H 1.00061 0.63805 0.33368 0.0
H1660 H 0.05261 0.62406 0.31428 0.0
H1661 H 0.9917 0.60394 0.32465 0.0
H1662 H 0.98477 0.55801 0.25838 0.0
H1663 H 0.98908 0.58515 0.28736 0.0
H1664 H 0.0412 0.59134 0.32161 0.0
H1665 H 0.0374 0.56484 0.29062 0.0
C1666 C 0.04609 0.64602 0.32563 0.0
C1667 C 0.03163 0.65052 0.3299 0.0
C1668 C 0.04102 0.62657 0.31949 0.0
C1669 C 0.02134 0.61101 0.31815 0.0
C1670 C 1.00697 0.61546 0.32459 0.0
C1671 C 1.01205 0.63502 0.32993 0.0
C1672 C 0.99679 0.56476 0.2728 0.0
C1673 C 1.01099 0.55967 0.27181 0.0
C1674 C 0.99931 0.58042 0.28962 0.0
C1675 C 0.01593 0.59112 0.30638 0.0
C1676 C 0.02864 0.58405 0.30821 0.0
C1677 C 0.02627 0.56854 0.29089 0.0
H1678 H 0.37901 0.36813 0.33321 0.0
H1679 H 0.36491 0.41313 0.32503 0.0
H1680 H 0.41295 0.39228 0.32288 0.0
H1681 H 0.39846 0.43701 0.31296 0.0
H1682 H 0.45928 0.47975 0.29348 0.0
H1683 H 0.43156 0.45761 0.32217 0.0
H1684 H 0.43079 0.40722 0.2845 0.0
H1685 H 0.45892 0.42939 0.25746 0.0
C1686 C 0.3832 0.38321 0.32916 0.0
C1687 C 0.36927 0.38868 0.32959 0.0
C1688 C 0.40267 0.3971 0.32312 0.0
C1689 C 0.40861 0.41668 0.31666 0.0
C1690 C 0.3947 0.42226 0.31821 0.0
C1691 C 0.37532 0.40847 0.32485 0.0
C1692 C 0.45369 0.46399 0.29243 0.0
C1693 C 0.46107 0.45623 0.27311 0.0
C1694 C 0.43754 0.45122 0.30844 0.0
C1695 C 0.42842 0.43047 0.30519 0.0
C1696 C 0.43725 0.423 0.28787 0.0
C1697 C 0.45344 0.43573 0.2722 0.0
H1698 H 0.35518 0.29787 0.33404 0.0
H1699 H 0.29362 0.2701 0.34965 0.0
H1700 H 0.35447 0.26925 0.35184 0.0
H1701 H 0.29265 0.24096 0.36635 0.0
H1702 H 0.30833 0.21332 0.43645 0.0
H1703 H 0.30291 0.23381 0.40655 0.0
H1704 H 0.34511 0.23553 0.34951 0.0
H1705 H 0.351 0.21546 0.38047 0.0
C1706 C 0.34138 0.28545 0.34074 0.0
C1707 C 0.32452 0.28641 0.34085 0.0
C1708 C 0.34092 0.26887 0.35073 0.0
C1709 C 0.32352 0.25272 0.3608 0.0
C1710 C 0.30641 0.25325 0.35933 0.0
C1711 C 0.30693 0.26995 0.34968 0.0
C1712 C 0.31596 0.21755 0.41707 0.0
C1713 C 0.33016 0.21296 0.41081 0.0
C1714 C 0.31284 0.2293 0.39979 0.0
C1715 C 0.32382 0.23671 0.37571 0.0
C1716 C 0.33671 0.23048 0.36818 0.0
C1717 C 0.33989 0.21872 0.38564 0.0
H1718 H 0.75031 0.04558 0.29922 0.0
H1719 H 0.71484 0.04518 0.36642 0.0
H1720 H 0.77666 0.07869 0.31409 0.0
H1721 H 0.74098 0.07797 0.38115 0.0
H1722 H 0.78384 0.13985 0.39773 0.0
H1723 H 0.75974 0.11306 0.36796 0.0
H1724 H 0.7989 0.09206 0.35511 0.0
H1725 H 0.82307 0.11913 0.3846 0.0
C1726 C 0.74805 0.05262 0.31696 0.0
C1727 C 0.73052 0.04271 0.33174 0.0
C1728 C 0.76315 0.07155 0.32546 0.0
C1729 C 0.76086 0.08103 0.34864 0.0
C1730 C 0.74311 0.07127 0.3629 0.0
C1731 C 0.72817 0.05235 0.35463 0.0
C1732 C 0.78762 0.13009 0.38735 0.0
C1733 C 0.80529 0.13155 0.39319 0.0
C1734 C 0.77375 0.11459 0.37066 0.0
C1735 C 0.77726 0.10019 0.3597 0.0
C1736 C 0.79578 0.10293 0.36318 0.0
C1737 C 0.80969 0.1185 0.3799 0.0
H1738 H 0.9895 0.72448 0.33022 0.0
H1739 H 0.95358 0.66076 0.32141 0.0
H1740 H 0.96128 0.72559 0.34564 0.0
H1741 H 0.92563 0.66173 0.33788 0.0
H1742 H 0.87599 0.66452 0.36745 0.0
H1743 H 0.90151 0.67008 0.3347 0.0
H1744 H 0.9444 0.71724 0.38753 0.0
H1745 H 0.91887 0.71197 0.41929 0.0
C1746 C 0.97553 0.71072 0.33131 0.0
C1747 C 0.97384 0.6925 0.32503 0.0
C1748 C 0.95935 0.71135 0.34022 0.0
C1749 C 0.94117 0.69374 0.34343 0.0
C1750 C 0.93928 0.67564 0.33541 0.0
C1751 C 0.9554 0.67504 0.32618 0.0
C1752 C 0.89078 0.67666 0.37121 0.0
C1753 C 0.89557 0.68788 0.3957 0.0
C1754 C 0.90545 0.67967 0.35274 0.0
C1755 C 0.92512 0.69385 0.35867 0.0
C1756 C 0.92949 0.7063 0.382 0.0
C1757 C 0.91486 0.70333 0.4003 0.0
H1758 H 0.3744 0.99016 0.70704 0.0
H1759 H 0.40823 0.04874 0.67381 0.0
H1760 H 0.40414 0.99129 0.71831 0.0
H1761 H 0.43813 0.04964 0.68429 0.0
H1762 H 0.48132 0.05447 0.75141 0.0
H1763 H 0.4555 0.05334 0.72498 0.0
H1764 H 0.43272 0.99162 0.70435 0.0
H1765 H 0.4585 0.99281 0.73179 0.0
C1766 C 0.38819 1.00317 0.7017 0.0
C1767 C 0.3889 0.01948 0.68988 0.0
C1768 C 0.40532 1.00374 0.7079 0.0
C1769 C 0.42364 0.02058 0.7023 0.0
C1770 C 0.42431 0.03653 0.68928 0.0
C1771 C 0.40716 0.03601 0.68323 0.0
C1772 C 0.47121 0.04089 0.74034 0.0
C1773 C 0.47184 0.02372 0.74364 0.0
C1774 C 0.45635 0.04019 0.72515 0.0
C1775 C 0.44173 0.02228 0.71287 0.0
C1776 C 0.44349 1.00556 0.71402 0.0
C1777 C 0.45842 1.00628 0.72932 0.0
H1778 H 0.01726 0.38878 0.64228 0.0
H1779 H 0.97813 0.35851 0.70931 0.0
H1780 H 0.01782 0.41904 0.65525 0.0
H1781 H 0.97887 0.38867 0.72236 0.0
H1782 H 0.97604 0.44156 0.73806 0.0
H1783 H 0.9704 0.41302 0.70982 0.0
H1784 H 0.03219 0.44222 0.69475 0.0
H1785 H 0.0376 0.47062 0.72271 0.0
C1786 C 1.00862 0.38851 0.65959 0.0
C1787 C 0.99783 0.37129 0.67496 0.0
C1788 C 1.00896 0.40584 0.667 0.0
C1789 C 0.99837 0.40627 0.68979 0.0
C1790 C 0.98695 0.38879 0.70442 0.0
C1791 C 0.9867 0.37153 0.69713 0.0
C1792 C 0.98822 0.44219 0.72754 0.0
C1793 C 1.00721 0.45825 0.73223 0.0
C1794 C 0.98507 0.42578 0.71173 0.0
C1795 C 1.00089 0.42522 0.70042 0.0
C1796 C 0.01967 0.44219 0.70297 0.0
C1797 C 0.02281 0.45852 0.71888 0.0
H1798 H 0.66894 0.6111 0.69282 0.0
H1799 H 0.64861 0.64845 0.66621 0.0
H1800 H 0.63602 0.58603 0.70615 0.0
H1801 H 0.61537 0.62286 0.67748 0.0
H1802 H 0.56848 0.59046 0.7427 0.0
H1803 H 0.5972 0.61144 0.7161 0.0
H1804 H 0.60374 0.56152 0.69843 0.0
H1805 H 0.57534 0.54078 0.72703 0.0
C1806 C 0.65729 0.61371 0.6892 0.0
C1807 C 0.66135 0.63184 0.67895 0.0
C1808 C 0.6383 0.59922 0.69659 0.0
C1809 C 0.62282 0.60235 0.69331 0.0
C1810 C 0.62686 0.62004 0.68121 0.0
C1811 C 0.64592 0.63473 0.67456 0.0
C1812 C 0.57583 0.58387 0.73263 0.0
C1813 C 0.56988 0.5641 0.7373 0.0
C1814 C 0.59233 0.5959 0.71709 0.0
C1815 C 0.60322 0.58841 0.70529 0.0
C1816 C 0.59611 0.56803 0.70779 0.0
C1817 C 0.57963 0.55599 0.72377 0.0
H1818 H 0.72279 0.74163 0.63282 0.0
H1819 H 0.69485 0.74435 0.70737 0.0
H1820 H 0.72133 0.76901 0.61503 0.0
H1821 H 0.69366 0.7722 0.68957 0.0
H1822 H 0.66837 0.79605 0.62383 0.0
H1823 H 0.67546 0.77626 0.65333 0.0
H1824 H 0.73344 0.804 0.6195 0.0
H1825 H 0.72597 0.8233 0.58955 0.0
C1826 C 0.71654 0.74823 0.64559 0.0
C1827 C 0.7088 0.74066 0.67144 0.0
C1828 C 0.71589 0.76413 0.63549 0.0
C1829 C 0.70749 0.77293 0.65094 0.0
C1830 C 0.70015 0.7657 0.67712 0.0
C1831 C 0.70087 0.74977 0.68731 0.0
C1832 C 0.68289 0.79849 0.62369 0.0
C1833 C 0.69671 0.81124 0.60473 0.0
C1834 C 0.68695 0.78712 0.64048 0.0
C1835 C 0.70491 0.78828 0.63842 0.0
C1836 C 0.71934 0.80248 0.62121 0.0
C1837 C 0.71522 0.81375 0.60436 0.0
H1838 H 0.30486 0.96953 0.68377 0.0
H1839 H 0.26986 0.99179 0.65513 0.0
H1840 H 0.27894 0.93584 0.67167 0.0
H1841 H 0.24452 0.95845 0.64097 0.0
H1842 H 0.19997 0.89837 0.61443 0.0
H1843 H 0.2198 0.92583 0.64664 0.0
H1844 H 0.26814 0.91776 0.63189 0.0
H1845 H 0.24799 0.88989 0.60158 0.0
C1846 C 0.29155 0.96715 0.6749 0.0
C1847 C 0.28943 0.98323 0.67003 0.0
C1848 C 0.2767 0.94785 0.66779 0.0
C1849 C 0.25964 0.94425 0.65473 0.0
C1850 C 0.25721 0.96038 0.65124 0.0
C1851 C 0.27185 0.97961 0.65911 0.0
C1852 C 0.21457 0.90202 0.61916 0.0
C1853 C 0.22258 0.89225 0.60532 0.0
C1854 C 0.22609 0.91798 0.63723 0.0
C1855 C 0.24586 0.92454 0.64145 0.0
C1856 C 0.25307 0.91332 0.62955 0.0
C1857 C 0.24153 0.89731 0.61192 0.0
H1858 H 0.05685 0.34366 0.68262 0.0
H1859 H 0.03723 0.28585 0.64653 0.0
H1860 H 0.09048 0.35386 0.67275 0.0
H1861 H 0.07059 0.2962 0.63559 0.0
H1862 H 0.13041 0.31444 0.61831 0.0
H1863 H 0.10257 0.30573 0.64801 0.0
H1864 H 0.10951 0.36253 0.63307 0.0
H1865 H 0.1376 0.3713 0.60462 0.0
C1866 C 0.05972 0.33309 0.67269 0.0
C1867 C 0.04433 0.31402 0.66503 0.0
C1868 C 0.07902 0.33895 0.66698 0.0
C1869 C 0.08338 0.32596 0.65315 0.0
C1870 C 0.06797 0.30658 0.64665 0.0
C1871 C 0.04872 0.30067 0.65265 0.0
C1872 C 0.12653 0.32538 0.62263 0.0
C1873 C 0.13601 0.34346 0.60908 0.0
C1874 C 0.11035 0.32029 0.6392 0.0
C1875 C 0.10334 0.33316 0.64233 0.0
C1876 C 0.11435 0.35218 0.6313 0.0
C1877 C 0.13054 0.35728 0.61495 0.0
H1878 H 0.29968 0.33438 0.67969 0.0
H1879 H 0.27467 0.28473 0.62219 0.0
H1880 H 0.27362 0.34015 0.66975 0.0
H1881 H 0.24912 0.29094 0.6114 0.0
H1882 H 0.20185 0.30148 0.59664 0.0
H1883 H 0.22095 0.29182 0.62317 0.0
H1884 H 0.26663 0.35353 0.63246 0.0
H1885 H 0.24725 0.36289 0.60693 0.0
C1886 C 0.28856 0.32462 0.66503 0.0
C1887 C 0.28941 0.30926 0.65146 0.0
C1888 C 0.27361 0.32796 0.65927 0.0
C1889 C 0.25929 0.31616 0.63954 0.0
C1890 C 0.25967 0.30019 0.62698 0.0
C1891 C 0.27449 0.29673 0.63297 0.0
C1892 C 0.21557 0.31292 0.60554 0.0
C1893 C 0.22309 0.3329 0.59999 0.0
C1894 C 0.22669 0.30743 0.62032 0.0
C1895 C 0.24555 0.32185 0.62959 0.0
C1896 C 0.25217 0.34196 0.62598 0.0
C1897 C 0.24106 0.34739 0.61134 0.0
H1898 H 0.71154 0.9815 0.69657 0.0
H1899 H 0.67431 0.97966 0.63239 0.0
H1900 H 0.70332 0.94806 0.68307 0.0
H1901 H 0.66642 0.94662 0.61869 0.0
H1902 H 0.64689 0.88516 0.60185 0.0
H1903 H 0.65007 0.9123 0.63081 0.0
H1904 H 0.71076 0.93329 0.64412 0.0
H1905 H 0.70723 0.90573 0.61582 0.0
C1906 C 0.70149 0.97392 0.67974 0.0
C1907 C 0.69369 0.98332 0.66543 0.0
C1908 C 0.69681 0.95478 0.67199 0.0
C1909 C 0.68414 0.94458 0.64988 0.0
C1910 C 0.67592 0.95382 0.63616 0.0
C1911 C 0.68062 0.97291 0.64384 0.0
C1912 C 0.66061 0.89504 0.61215 0.0
C1913 C 0.67679 0.89338 0.60684 0.0
C1914 C 0.66255 0.91076 0.62836 0.0
C1915 C 0.6808 0.92527 0.6392 0.0
C1916 C 0.69648 0.92238 0.63617 0.0
C1917 C 0.69447 0.90653 0.6201 0.0
H1918 H 0.03694 0.70495 0.61833 0.0
H1919 H 0.04256 0.74002 0.69085 0.0
H1920 H 0.06947 0.73034 0.6042 0.0
H1921 H 0.07539 0.76556 0.67662 0.0
H1922 H 0.11815 0.81434 0.61245 0.0
H1923 H 0.09019 0.78995 0.63898 0.0
H1924 H 0.10391 0.74563 0.61689 0.0
H1925 H 0.13158 0.77 0.5901 0.0
C1926 C 0.04514 0.71805 0.63135 0.0
C1927 C 0.03708 0.72045 0.65568 0.0
C1928 C 0.06393 0.73254 0.62339 0.0
C1929 C 0.07515 0.7499 0.63945 0.0
C1930 C 0.06712 0.75235 0.66382 0.0
C1931 C 0.04832 0.73771 0.67195 0.0
C1932 C 0.1157 0.79964 0.61447 0.0
C1933 C 0.12703 0.79403 0.59949 0.0
C1934 C 0.0996 0.78561 0.62946 0.0
C1935 C 0.09458 0.76574 0.62952 0.0
C1936 C 0.10717 0.76072 0.61678 0.0
C1937 C 0.1232 0.77472 0.60183 0.0
H1938 H 0.02805 0.64261 0.68829 0.0
H1939 H 0.96905 0.60501 0.65886 0.0
H1940 H 0.02823 0.61362 0.7023 0.0
H1941 H 0.96942 0.57581 0.67216 0.0
H1942 H 0.96879 0.53864 0.74547 0.0
H1943 H 0.96813 0.56218 0.71552 0.0
H1944 H 0.02755 0.58356 0.69159 0.0
H1945 H 0.02818 0.56009 0.72245 0.0
C1946 C 0.01523 0.62812 0.6843 0.0
C1947 C 0.99842 0.62617 0.67288 0.0
C1948 C 0.0154 0.61141 0.69209 0.0
C1949 C 0.9988 0.59231 0.68852 0.0
C1950 C 0.98236 0.59031 0.67561 0.0
C1951 C 0.98216 0.60705 0.66794 0.0
C1952 C 0.98144 0.54789 0.73301 0.0
C1953 C 0.99854 0.54765 0.73625 0.0
C1954 C 0.9811 0.56141 0.71577 0.0
C1955 C 0.9979 0.57505 0.70141 0.0
C1956 C 0.01447 0.57351 0.70275 0.0
C1957 C 0.01478 0.55991 0.72007 0.0
H1958 H 0.41581 0.38165 0.63035 0.0
H1959 H 0.38311 0.38111 0.70131 0.0
H1960 H 0.44266 0.41485 0.64413 0.0
H1961 H 0.40965 0.41411 0.71475 0.0
H1962 H 0.4523 0.4765 0.72823 0.0
H1963 H 0.42773 0.44966 0.69895 0.0
H1964 H 0.46604 0.42768 0.68584 0.0
H1965 H 0.49057 0.45461 0.71517 0.0
C1966 C 0.41426 0.3887 0.64867 0.0
C1967 C 0.39738 0.37873 0.66483 0.0
C1968 C 0.42961 0.40767 0.65652 0.0
C1969 C 0.42816 0.41716 0.68032 0.0
C1970 C 0.41106 0.40735 0.69601 0.0
C1971 C 0.39593 0.38834 0.68846 0.0
C1972 C 0.45584 0.46658 0.7178 0.0
C1973 C 0.47333 0.46766 0.72363 0.0
C1974 C 0.4417 0.45106 0.70139 0.0
C1975 C 0.44485 0.43639 0.69057 0.0
C1976 C 0.46324 0.43881 0.69383 0.0
C1977 C 0.47737 0.45431 0.7104 0.0
H1978 H 0.62543 0.01037 0.63383 0.0
H1979 H 0.65877 0.05591 0.69524 0.0
H1980 H 0.59558 1.0073 0.65149 0.0
H1981 H 0.62901 0.05264 0.71303 0.0
H1982 H 0.57425 0.0484 0.73802 0.0
H1983 H 0.60083 0.05602 0.70603 0.0
H1984 H 0.57804 0.99339 0.69424 0.0
H1985 H 0.55163 0.98598 0.72587 0.0
C1986 C 0.62645 0.01993 0.65082 0.0
C1987 C 0.64446 0.03318 0.66337 0.0
C1988 C 0.60933 0.01814 0.66095 0.0
C1989 C 0.60989 0.02964 0.68376 0.0
C1990 C 0.62805 0.04371 0.69524 0.0
C1991 C 0.64513 0.04545 0.68519 0.0
C1992 C 0.57459 0.03634 0.72767 0.0
C1993 C 0.56098 0.01663 0.73423 0.0
C1994 C 0.58988 0.04066 0.70964 0.0
C1995 C 0.59168 0.02532 0.69783 0.0
C1996 C 0.57703 1.00557 0.70272 0.0
C1997 C 0.5619 1.00129 0.72085 0.0
loop_
_geom_bond_atom_site_label_1
_geom_bond_atom_site_label_2
_geom_bond_distance
_geom_bond_site_symmetry_2
_ccdc_geom_bond_type
C0 O1 1.160 . S
C0 O7 1.185 . S
O1 C0 1.160 . S
O2 Zn3 1.899 1_656 S
O2 C10 1.289 . S
Zn3 O2 1.899 1_454 S
Zn3 O4 2.032 . S
Zn3 O7 2.086 . S
Zn3 O12 1.977 1_554 S
O4 Zn3 2.032 . S
O4 C8 1.278 1_455 S
C5 O6 1.203 1_455 S
C5 O12 1.267 . S
O6 C5 1.203 1_655 S
O7 C0 1.185 . S
O7 Zn3 2.086 . S
C8 O4 1.278 1_655 S
C8 O9 1.211 . S
O9 C8 1.211 . S
C10 O2 1.289 . S
C10 O11 1.265 1_556 S
O11 C10 1.265 1_554 S
O12 Zn3 1.977 1_556 S
O12 C5 1.267 . S
C13 O14 1.160 . S
C13 O20 1.185 1_556 S
O14 C13 1.160 . S
O15 Zn16 1.899 . S
O15 C23 1.284 . S
Zn16 O15 1.899 . S
Zn16 O17 2.032 1_554 S
Zn16 O20 2.086 . S
Zn16 O25 1.977 . S
O17 Zn16 2.032 1_556 S
O17 C21 1.278 . S
C18 O19 1.203 . S
C18 O25 1.267 . S
O19 C18 1.203 . S
O20 C13 1.185 1_554 S
O20 Zn16 2.086 . S
C21 O17 1.278 . S
C21 O22 1.211 . S
O22 C21 1.211 . S
C23 O15 1.284 . S
C23 O24 1.273 . S
O24 C23 1.273 . S
O25 Zn16 1.977 . S
O25 C18 1.267 . S
C26 O27 1.160 . S
C26 O33 1.185 1_556 S
O27 C26 1.160 . S
O28 Zn29 1.899 1_565 S
O28 C36 1.284 . S
Zn29 O28 1.899 1_545 S
Zn29 O30 2.032 1_554 S
Zn29 O33 2.086 . S
Zn29 O38 1.977 . S
O30 Zn29 2.032 1_556 S
O30 C34 1.239 1_545 S
C31 O32 1.203 1_545 S
C31 O38 1.267 . S
O32 C31 1.203 1_565 S
O33 C26 1.185 1_554 S
O33 Zn29 2.086 . S
C34 O30 1.239 1_565 S
C34 O35 1.242 . S
O35 C34 1.242 . S
C36 O28 1.284 . S
C36 O37 1.273 . S
O37 C36 1.273 . S
O38 Zn29 1.977 . S
O38 C31 1.267 . S
C39 O40 1.160 . S
C39 O46 1.185 1_556 S
O40 C39 1.160 . S
O41 Zn42 1.899 1_455 S
O41 C49 1.284 . S
Zn42 O41 1.899 1_655 S
Zn42 O43 2.032 1_554 S
Zn42 O46 2.086 . S
Zn42 O51 1.977 . S
O43 Zn42 2.032 1_556 S
O43 C47 1.278 1_655 S
C44 O45 1.203 1_655 S
C44 O51 1.267 . S
O45 C44 1.203 1_455 S
O46 C39 1.185 1_554 S
O46 Zn42 2.086 . S
C47 O43 1.278 1_455 S
C47 O48 1.211 . S
O48 C47 1.211 . S
C49 O41 1.284 . S
C49 O50 1.273 . S
O50 C49 1.273 . S
O51 Zn42 1.977 . S
O51 C44 1.267 . S
C52 O53 1.160 . S
C52 O59 1.185 . S
O53 C52 1.160 . S
O54 Zn55 1.899 1_556 S
O54 C62 1.284 . S
Zn55 O54 1.899 1_554 S
Zn55 O56 2.032 . S
Zn55 O59 2.086 . S
Zn55 O64 1.977 1_554 S
O56 Zn55 2.032 . S
O56 C60 1.278 . S
C57 O58 1.203 . S
C57 O64 1.267 . S
O58 C57 1.203 . S
O59 C52 1.185 . S
O59 Zn55 2.086 . S
C60 O56 1.278 . S
C60 O61 1.211 . S
O61 C60 1.211 . S
C62 O54 1.284 . S
C62 O63 1.273 1_556 S
O63 C62 1.273 1_554 S
O64 Zn55 1.977 1_556 S
O64 C57 1.267 . S
C65 O66 1.160 . S
C65 O72 1.185 . S
O66 C65 1.160 . S
O67 Zn68 1.899 1_546 S
O67 C75 1.284 . S
Zn68 O67 1.899 1_564 S
Zn68 O69 2.032 . S
Zn68 O72 2.086 . S
Zn68 O77 1.977 1_554 S
O69 Zn68 2.032 . S
O69 C73 1.278 1_565 S
C70 O71 1.203 1_565 S
C70 O77 1.267 . S
O71 C70 1.203 1_545 S
O72 C65 1.185 . S
O72 Zn68 2.086 . S
C73 O69 1.278 1_545 S
C73 O74 1.211 . S
O74 C73 1.211 . S
C75 O67 1.284 . S
C75 O76 1.273 1_556 S
O76 C75 1.273 1_554 S
O77 Zn68 1.977 1_556 S
O77 C70 1.267 . S
C78 O79 1.160 . S
C78 O85 1.185 . S
O79 C78 1.160 . S
O80 Zn81 1.899 . S
O80 C88 1.284 . S
Zn81 O80 1.899 . S
Zn81 O82 2.032 . S
Zn81 O85 2.086 . S
Zn81 O90 1.977 . S
O82 Zn81 2.032 . S
O82 C86 1.278 . S
C83 O84 1.203 . S
C83 O90 1.267 . S
O84 C83 1.203 . S
O85 C78 1.185 . S
O85 Zn81 2.086 . S
C86 O82 1.278 . S
C86 O87 1.211 . S
O87 C86 1.211 . S
C88 O80 1.284 . S
C88 O89 1.273 . S
O89 C88 1.273 . S
O90 Zn81 1.977 . S
O90 C83 1.267 . S
C91 O92 1.160 1_565 S
C91 O98 1.185 . S
O92 C91 1.160 1_545 S
O93 Zn94 1.899 1_545 S
O93 C101 1.284 . S
Zn94 O93 1.899 1_565 S
Zn94 O95 2.032 . S
Zn94 O98 2.086 . S
Zn94 O103 1.977 . S
O95 Zn94 2.032 . S
O95 C99 1.278 . S
C96 O97 1.203 . S
C96 O103 1.267 . S
O97 C96 1.203 . S
O98 C91 1.185 . S
O98 Zn94 2.086 . S
C99 O95 1.278 . S
C99 O100 1.211 . S
O100 C99 1.211 . S
C101 O93 1.284 . S
C101 O102 1.273 . S
O102 C101 1.273 . S
O103 Zn94 1.977 . S
O103 C96 1.267 . S
C104 O105 1.160 . S
C104 O111 1.185 . S
O105 C104 1.160 . S
O106 Zn107 1.883 1_655 S
O106 C114 1.282 . S
Zn107 O106 1.883 1_455 S
Zn107 O108 2.032 . S
Zn107 O111 2.086 . S
Zn107 O116 1.977 . S
O108 Zn107 2.032 . S
O108 C112 1.278 . S
C109 O110 1.203 . S
C109 O116 1.267 . S
O110 C109 1.203 . S
O111 C104 1.185 . S
O111 Zn107 2.086 . S
C112 O108 1.278 . S
C112 O113 1.211 . S
O113 C112 1.211 . S
C114 O106 1.282 . S
C114 O115 1.270 1_655 S
O115 C114 1.270 1_455 S
O116 Zn107 1.977 . S
O116 C109 1.267 . S
C117 O118 1.160 1_565 S
C117 O124 1.185 . S
O118 C117 1.160 1_545 S
O119 Zn120 1.899 1_545 S
O119 C127 1.284 . S
Zn120 O119 1.899 1_565 S
Zn120 O121 2.032 . S
Zn120 O124 2.086 . S
Zn120 O129 1.977 . S
O121 Zn120 2.032 . S
O121 C125 1.278 . S
C122 O123 1.203 . S
C122 O129 1.267 . S
O123 C122 1.203 . S
O124 C117 1.185 . S
O124 Zn120 2.086 . S
C125 O121 1.278 . S
C125 O126 1.211 . S
O126 C125 1.211 . S
C127 O119 1.284 . S
C127 O128 1.273 . S
O128 C127 1.273 . S
O129 Zn120 1.977 . S
O129 C122 1.267 . S
C130 O131 1.160 . S
C130 O137 1.185 . S
O131 C130 1.160 . S
O132 Zn133 1.899 . S
O132 C140 1.284 . S
Zn133 O132 1.899 . S
Zn133 O134 2.032 . S
Zn133 O137 2.086 1_455 S
Zn133 O142 1.977 . S
O134 Zn133 2.032 . S
O134 C138 1.278 . S
C135 O136 1.203 . S
C135 O142 1.267 . S
O136 C135 1.203 . S
O137 C130 1.185 . S
O137 Zn133 2.086 1_655 S
C138 O134 1.278 . S
C138 O139 1.211 . S
O139 C138 1.211 . S
C140 O132 1.284 . S
C140 O141 1.273 . S
O141 C140 1.273 . S
O142 Zn133 1.977 . S
O142 C135 1.267 . S
C143 O144 1.160 . S
C143 O150 1.185 . S
O144 C143 1.160 . S
O145 Zn146 1.899 . S
O145 C153 1.284 . S
Zn146 O145 1.899 . S
Zn146 O147 2.032 . S
Zn146 O150 2.086 . S
Zn146 O155 1.977 . S
O147 Zn146 2.032 . S
O147 C151 1.278 . S
C148 O149 1.203 . S
C148 O155 1.267 . S
O149 C148 1.203 . S
O150 C143 1.185 . S
O150 Zn146 2.086 . S
C151 O147 1.278 . S
C151 O152 1.211 . S
O152 C151 1.211 . S
C153 O145 1.284 . S
C153 O154 1.273 . S
O154 C153 1.273 . S
O155 Zn146 1.977 . S
O155 C148 1.267 . S
C156 O157 1.147 1_545 S
C156 O163 1.185 . S
O157 C156 1.147 1_565 S
O158 Zn159 1.899 1_565 S
O158 C166 1.284 . S
Zn159 O158 1.899 1_545 S
Zn159 O160 2.032 . S
Zn159 O163 2.086 . S
Zn159 O168 1.977 . S
O160 Zn159 2.032 . S
O160 C164 1.278 . S
C161 O162 1.203 . S
C161 O168 1.267 . S
O162 C161 1.203 . S
O163 C156 1.185 . S
O163 Zn159 2.086 . S
C164 O160 1.278 . S
C164 O165 1.211 . S
O165 C164 1.211 . S
C166 O158 1.284 . S
C166 O167 1.273 . S
O167 C166 1.273 . S
O168 Zn159 1.977 . S
O168 C161 1.267 . S
C169 O170 1.160 . S
C169 O176 1.185 . S
O170 C169 1.160 . S
O171 Zn172 1.899 . S
O171 C179 1.284 . S
Zn172 O171 1.899 . S
Zn172 O173 2.032 . S
Zn172 O176 2.086 1_655 S
Zn172 O181 1.977 . S
O173 Zn172 2.032 . S
O173 C177 1.278 . S
C174 O175 1.203 . S
C174 O181 1.267 . S
O175 C174 1.203 . S
O176 C169 1.185 . S
O176 Zn172 2.086 1_455 S
C177 O173 1.278 . S
C177 O178 1.211 . S
O178 C177 1.211 . S
C179 O171 1.284 . S
C179 O180 1.273 . S
O180 C179 1.273 . S
O181 Zn172 1.977 . S
O181 C174 1.267 . S
C182 O183 1.160 . S
C182 O189 1.185 . S
O183 C182 1.160 . S
O184 Zn185 1.899 . S
O184 C192 1.284 . S
Zn185 O184 1.899 . S
Zn185 O186 2.032 . S
Zn185 O189 2.086 . S
Zn185 O194 1.977 . S
O186 Zn185 2.032 . S
O186 C190 1.278 . S
C187 O188 1.203 . S
C187 O194 1.267 . S
O188 C187 1.203 . S
O189 C182 1.185 . S
O189 Zn185 2.086 . S
C190 O186 1.278 . S
C190 O191 1.211 . S
O191 C190 1.211 . S
C192 O184 1.284 . S
C192 O193 1.273 . S
O193 C192 1.273 . S
O194 Zn185 1.977 . S
O194 C187 1.267 . S
C195 O196 1.160 . S
C195 O202 1.185 . S
O196 C195 1.160 . S
O197 Zn198 1.899 . S
O197 C205 1.284 . S
Zn198 O197 1.899 . S
Zn198 O199 2.032 . S
Zn198 O202 2.086 . S
Zn198 O207 1.977 . S
O199 Zn198 2.032 . S
O199 C203 1.278 . S
C200 O201 1.203 . S
C200 O207 1.267 . S
O201 C200 1.203 . S
O202 C195 1.185 . S
O202 Zn198 2.086 . S
C203 O199 1.278 . S
C203 O204 1.211 . S
O204 C203 1.211 . S
C205 O197 1.284 . S
C205 O206 1.273 . S
O206 C205 1.273 . S
O207 Zn198 1.977 . S
O207 C200 1.267 . S
C208 O209 1.146 1_545 S
C208 O215 1.185 . S
O209 C208 1.146 1_565 S
O210 Zn211 1.899 1_565 S
O210 C218 1.284 . S
Zn211 O210 1.899 1_545 S
Zn211 O212 2.032 . S
Zn211 O215 2.086 . S
Zn211 O220 1.977 . S
O212 Zn211 2.032 . S
O212 C216 1.278 . S
C213 O214 1.203 . S
C213 O220 1.267 . S
O214 C213 1.203 . S
O215 C208 1.185 . S
O215 Zn211 2.086 . S
C216 O212 1.278 . S
C216 O217 1.211 . S
O217 C216 1.211 . S
C218 O210 1.284 . S
C218 O219 1.276 . S
O219 C218 1.276 . S
O220 Zn211 1.977 . S
O220 C213 1.267 . S
C221 O222 1.160 . S
C221 O228 1.185 . S
O222 C221 1.160 . S
O223 Zn224 1.882 1_455 S
O223 C231 1.282 . S
Zn224 O223 1.882 1_655 S
Zn224 O225 2.032 . S
Zn224 O228 2.086 . S
Zn224 O233 1.977 . S
O225 Zn224 2.032 . S
O225 C229 1.278 . S
C226 O227 1.203 . S
C226 O233 1.267 . S
O227 C226 1.203 . S
O228 C221 1.185 . S
O228 Zn224 2.086 . S
C229 O225 1.278 . S
C229 O230 1.211 . S
O230 C229 1.211 . S
C231 O223 1.282 . S
C231 O232 1.267 1_455 S
O232 C231 1.267 1_655 S
O233 Zn224 1.977 . S
O233 C226 1.267 . S
H234 C240 0.930 . S
H235 C243 0.931 . S
H236 C245 0.931 . S
H237 C247 0.930 . S
H238 C249 0.930 . S
H239 C251 0.931 . S
C240 H234 0.930 . S
C240 C241 1.380 . S
C240 C242 1.394 . S
C241 C240 1.380 . S
C241 C245 1.382 . S
C242 C240 1.394 . S
C242 C243 1.400 . S
C243 H235 0.931 . S
C243 C242 1.400 . S
C243 C244 1.375 . S
C244 C243 1.375 . S
C244 C245 1.415 . S
C244 C246 1.501 . S
C245 H236 0.931 . S
C245 C241 1.382 . S
C245 C244 1.415 . S
C246 C244 1.501 . S
C246 C247 1.384 . S
C246 C251 1.408 . S
C247 H237 0.930 . S
C247 C246 1.384 . S
C247 C248 1.389 . S
C248 C247 1.389 . S
C248 C249 1.405 . S
C249 H238 0.930 . S
C249 C248 1.405 . S
C249 C250 1.364 . S
C250 C249 1.364 . S
C250 C251 1.400 . S
C251 H239 0.931 . S
C251 C246 1.408 . S
C251 C250 1.400 . S
H252 C258 0.930 . S
H253 C261 0.931 . S
H254 C263 0.931 . S
H255 C265 0.930 . S
H256 C267 0.930 . S
H257 C269 0.931 . S
C258 H252 0.930 . S
C258 C259 1.380 . S
C258 C260 1.394 . S
C259 C258 1.380 . S
C259 C263 1.382 . S
C260 C258 1.394 . S
C260 C261 1.400 . S
C261 H253 0.931 . S
C261 C260 1.400 . S
C261 C262 1.375 . S
C262 C261 1.375 . S
C262 C263 1.415 . S
C262 C264 1.501 . S
C263 H254 0.931 . S
C263 C259 1.382 . S
C263 C262 1.415 . S
C264 C262 1.501 . S
C264 C265 1.384 . S
C264 C269 1.408 . S
C265 H255 0.930 . S
C265 C264 1.384 . S
C265 C266 1.389 . S
C266 C265 1.389 . S
C266 C267 1.405 . S
C267 H256 0.930 . S
C267 C266 1.405 . S
C267 C268 1.364 . S
C268 C267 1.364 . S
C268 C269 1.400 . S
C269 H257 0.931 . S
C269 C264 1.408 . S
C269 C268 1.400 . S
H270 C276 0.930 . S
H271 C279 0.931 . S
H272 C281 0.931 . S
H273 C283 0.930 . S
H274 C285 0.930 . S
H275 C287 0.931 . S
C276 H270 0.930 . S
C276 C277 1.380 . S
C276 C278 1.394 . S
C277 C276 1.380 . S
C277 C281 1.382 . S
C278 C276 1.394 . S
C278 C279 1.400 . S
C279 H271 0.931 . S
C279 C278 1.400 . S
C279 C280 1.375 . S
C280 C279 1.375 . S
C280 C281 1.415 . S
C280 C282 1.501 . S
C281 H272 0.931 . S
C281 C277 1.382 . S
C281 C280 1.415 . S
C282 C280 1.501 . S
C282 C283 1.384 . S
C282 C287 1.408 . S
C283 H273 0.930 . S
C283 C282 1.384 . S
C283 C284 1.389 . S
C284 C283 1.389 . S
C284 C285 1.405 . S
C285 H274 0.930 . S
C285 C284 1.405 . S
C285 C286 1.364 . S
C286 C285 1.364 . S
C286 C287 1.400 . S
C287 H275 0.931 . S
C287 C282 1.408 . S
C287 C286 1.400 . S
H288 C294 0.930 . S
H289 C297 0.931 . S
H290 C299 0.931 . S
H291 C301 0.930 . S
H292 C303 0.930 . S
H293 C305 0.931 . S
C294 H288 0.930 . S
C294 C295 1.380 . S
C294 C296 1.394 . S
C295 C294 1.380 . S
C295 C299 1.382 . S
C296 C294 1.394 . S
C296 C297 1.400 . S
C297 H289 0.931 . S
C297 C296 1.400 . S
C297 C298 1.375 . S
C298 C297 1.375 . S
C298 C299 1.415 . S
C298 C300 1.501 . S
C299 H290 0.931 . S
C299 C295 1.382 . S
C299 C298 1.415 . S
C300 C298 1.501 . S
C300 C301 1.384 . S
C300 C305 1.408 . S
C301 H291 0.930 . S
C301 C300 1.384 . S
C301 C302 1.389 . S
C302 C301 1.389 . S
C302 C303 1.405 . S
C303 H292 0.930 . S
C303 C302 1.405 . S
C303 C304 1.364 . S
C304 C303 1.364 . S
C304 C305 1.400 . S
C305 H293 0.931 . S
C305 C300 1.408 . S
C305 C304 1.400 . S
H306 C312 0.930 . S
H307 C315 0.931 . S
H308 C317 0.931 . S
H309 C319 0.930 . S
H310 C321 0.930 . S
H311 C323 0.931 . S
C312 H306 0.930 . S
C312 C313 1.380 . S
C312 C314 1.394 . S
C313 C312 1.380 . S
C313 C317 1.382 . S
C314 C312 1.394 . S
C314 C315 1.400 . S
C315 H307 0.931 . S
C315 C314 1.400 . S
C315 C316 1.375 . S
C316 C315 1.375 . S
C316 C317 1.415 . S
C316 C318 1.501 . S
C317 H308 0.931 . S
C317 C313 1.382 . S
C317 C316 1.415 . S
C318 C316 1.501 . S
C318 C319 1.384 . S
C318 C323 1.408 . S
C319 H309 0.930 . S
C319 C318 1.384 . S
C319 C320 1.389 . S
C320 C319 1.389 . S
C320 C321 1.405 . S
C321 H310 0.930 . S
C321 C320 1.405 . S
C321 C322 1.364 . S
C322 C321 1.364 . S
C322 C323 1.400 . S
C323 H311 0.931 . S
C323 C318 1.408 . S
C323 C322 1.400 . S
H324 C330 0.930 . S
H325 C333 0.931 . S
H326 C335 0.931 . S
H327 C337 0.930 . S
H328 C339 0.930 . S
H329 C341 0.931 . S
C330 H324 0.930 . S
C330 C331 1.380 . S
C330 C332 1.394 . S
C331 C330 1.380 . S
C331 C335 1.382 . S
C332 C330 1.394 . S
C332 C333 1.400 . S
C333 H325 0.931 . S
C333 C332 1.400 . S
C333 C334 1.375 . S
C334 C333 1.375 . S
C334 C335 1.415 . S
C334 C336 1.501 . S
C335 H326 0.931 . S
C335 C331 1.382 . S
C335 C334 1.415 . S
C336 C334 1.501 . S
C336 C337 1.384 . S
C336 C341 1.408 . S
C337 H327 0.930 . S
C337 C336 1.384 . S
C337 C338 1.389 . S
C338 C337 1.389 . S
C338 C339 1.405 . S
C339 H328 0.930 . S
C339 C338 1.405 . S
C339 C340 1.364 . S
C340 C339 1.364 . S
C340 C341 1.400 . S
C341 H329 0.931 . S
C341 C336 1.408 . S
C341 C340 1.400 . S
H342 C348 0.930 . S
H343 C351 0.931 . S
H344 C353 0.931 . S
H345 C355 0.930 . S
H346 C357 0.930 . S
H347 C359 0.931 . S
C348 H342 0.930 . S
C348 C349 1.380 . S
C348 C350 1.394 . S
C349 C348 1.380 . S
C349 C353 1.382 . S
C350 C348 1.394 . S
C350 C351 1.400 . S
C351 H343 0.931 . S
C351 C350 1.400 . S
C351 C352 1.375 . S
C352 C351 1.375 . S
C352 C353 1.415 . S
C352 C354 1.501 . S
C353 H344 0.931 . S
C353 C349 1.382 . S
C353 C352 1.415 . S
C354 C352 1.501 . S
C354 C355 1.384 . S
C354 C359 1.408 . S
C355 H345 0.930 . S
C355 C354 1.384 . S
C355 C356 1.389 . S
C356 C355 1.389 . S
C356 C357 1.405 . S
C357 H346 0.930 . S
C357 C356 1.405 . S
C357 C358 1.364 . S
C358 C357 1.364 . S
C358 C359 1.400 . S
C359 H347 0.931 . S
C359 C354 1.408 . S
C359 C358 1.400 . S
H360 C366 0.930 . S
H361 C369 0.931 . S
H362 C371 0.931 . S
H363 C373 0.930 . S
H364 C375 0.930 . S
H365 C377 0.931 . S
C366 H360 0.930 . S
C366 C367 1.380 . S
C366 C368 1.394 . S
C367 C366 1.380 . S
C367 C371 1.382 . S
C368 C366 1.394 . S
C368 C369 1.400 . S
C369 H361 0.931 . S
C369 C368 1.400 . S
C369 C370 1.375 . S
C370 C369 1.375 . S
C370 C371 1.415 . S
C370 C372 1.501 . S
C371 H362 0.931 . S
C371 C367 1.382 . S
C371 C370 1.415 . S
C372 C370 1.501 . S
C372 C373 1.384 . S
C372 C377 1.408 . S
C373 H363 0.930 . S
C373 C372 1.384 . S
C373 C374 1.389 . S
C374 C373 1.389 . S
C374 C375 1.405 . S
C375 H364 0.930 . S
C375 C374 1.405 . S
C375 C376 1.364 . S
C376 C375 1.364 . S
C376 C377 1.400 . S
C377 H365 0.931 . S
C377 C372 1.408 . S
C377 C376 1.400 . S
H378 C384 0.930 . S
H379 C387 0.931 . S
H380 C389 0.931 . S
H381 C391 0.930 . S
H382 C393 0.930 . S
H383 C395 0.931 . S
C384 H378 0.930 . S
C384 C385 1.380 . S
C384 C386 1.394 . S
C385 C384 1.380 . S
C385 C389 1.382 . S
C386 C384 1.394 . S
C386 C387 1.400 . S
C387 H379 0.931 . S
C387 C386 1.400 . S
C387 C388 1.375 . S
C388 C387 1.375 . S
C388 C389 1.415 . S
C388 C390 1.501 . S
C389 H380 0.931 . S
C389 C385 1.382 . S
C389 C388 1.415 . S
C390 C388 1.501 . S
C390 C391 1.384 . S
C390 C395 1.408 . S
C391 H381 0.930 . S
C391 C390 1.384 . S
C391 C392 1.389 . S
C392 C391 1.389 . S
C392 C393 1.405 . S
C393 H382 0.930 . S
C393 C392 1.405 . S
C393 C394 1.364 . S
C394 C393 1.364 . S
C394 C395 1.400 . S
C395 H383 0.931 . S
C395 C390 1.408 . S
C395 C394 1.400 . S
H396 C402 0.956 1_655 S
H397 C405 0.931 . S
H398 C407 0.931 . S
H399 C409 0.930 . S
H400 C411 0.906 . S
H401 C413 0.938 1_655 S
C402 H396 0.956 1_455 S
C402 C403 1.376 1_455 S
C402 C404 1.393 . S
C403 C402 1.376 1_655 S
C403 C407 1.382 . S
C404 C402 1.393 . S
C404 C405 1.400 . S
C405 H397 0.931 . S
C405 C404 1.400 . S
C405 C406 1.375 . S
C406 C405 1.375 . S
C406 C407 1.415 1_455 S
C406 C408 1.501 . S
C407 H398 0.931 . S
C407 C403 1.382 . S
C407 C406 1.415 1_655 S
C408 C406 1.501 . S
C408 C409 1.384 . S
C408 C413 1.416 . S
C409 H399 0.930 . S
C409 C408 1.384 . S
C409 C410 1.426 . S
C410 C409 1.426 . S
C410 C411 1.401 . S
C411 H400 0.906 . S
C411 C410 1.401 . S
C411 C412 1.379 . S
C412 C411 1.379 . S
C412 C413 1.383 . S
C413 H401 0.938 1_455 S
C413 C408 1.416 . S
C413 C412 1.383 . S
H414 C420 0.930 . S
H415 C423 0.931 . S
H416 C425 0.931 . S
H417 C427 0.930 . S
H418 C429 0.930 . S
H419 C431 0.931 . S
C420 H414 0.930 . S
C420 C421 1.380 . S
C420 C422 1.394 . S
C421 C420 1.380 . S
C421 C425 1.382 . S
C422 C420 1.394 . S
C422 C423 1.400 . S
C423 H415 0.931 . S
C423 C422 1.400 . S
C423 C424 1.375 . S
C424 C423 1.375 . S
C424 C425 1.415 . S
C424 C426 1.501 . S
C425 H416 0.931 . S
C425 C421 1.382 . S
C425 C424 1.415 . S
C426 C424 1.501 . S
C426 C427 1.384 . S
C426 C431 1.408 . S
C427 H417 0.930 . S
C427 C426 1.384 . S
C427 C428 1.389 . S
C428 C427 1.389 . S
C428 C429 1.405 . S
C429 H418 0.930 . S
C429 C428 1.405 . S
C429 C430 1.364 . S
C430 C429 1.364 . S
C430 C431 1.400 . S
C431 H419 0.931 . S
C431 C426 1.408 . S
C431 C430 1.400 . S
H432 C438 0.968 . S
H433 C441 0.931 . S
H434 C443 0.931 . S
H435 C445 0.930 . S
H436 C447 0.930 . S
H437 C449 0.938 . S
C438 H432 0.968 . S
C438 C439 1.374 . S
C438 C440 1.366 1_545 S
C439 C438 1.374 . S
C439 C443 1.382 . S
C440 C438 1.366 1_565 S
C440 C441 1.400 . S
C441 H433 0.931 . S
C441 C440 1.400 . S
C441 C442 1.375 . S
C442 C441 1.375 . S
C442 C443 1.415 1_565 S
C442 C444 1.501 . S
C443 H434 0.931 . S
C443 C439 1.382 . S
C443 C442 1.415 1_545 S
C444 C442 1.501 . S
C444 C445 1.384 . S
C444 C449 1.408 . S
C445 H435 0.930 . S
C445 C444 1.384 . S
C445 C446 1.389 . S
C446 C445 1.389 . S
C446 C447 1.405 . S
C447 H436 0.930 . S
C447 C446 1.405 . S
C447 C448 1.364 . S
C448 C447 1.364 . S
C448 C449 1.400 . S
C449 H437 0.938 . S
C449 C444 1.408 . S
C449 C448 1.400 . S
H450 C456 0.927 . S
H451 C459 0.931 . S
H452 C461 0.924 . S
H453 C463 0.930 . S
H454 C465 0.908 . S
H455 C467 0.931 . S
C456 H450 0.927 . S
C456 C457 1.382 . S
C456 C458 1.395 1_545 S
C457 C456 1.382 . S
C457 C461 1.396 1_545 S
C458 C456 1.395 1_565 S
C458 C459 1.400 . S
C459 H451 0.931 . S
C459 C458 1.400 . S
C459 C460 1.375 . S
C460 C459 1.375 . S
C460 C461 1.407 . S
C460 C462 1.501 . S
C461 H452 0.924 . S
C461 C457 1.396 1_565 S
C461 C460 1.407 . S
C462 C460 1.501 . S
C462 C463 1.384 . S
C462 C467 1.408 1_565 S
C463 H453 0.930 . S
C463 C462 1.384 . S
C463 C464 1.389 . S
C464 C463 1.389 . S
C464 C465 1.424 . S
C465 H454 0.908 . S
C465 C464 1.424 . S
C465 C466 1.369 1_565 S
C466 C465 1.369 1_545 S
C466 C467 1.400 . S
C467 H455 0.931 . S
C467 C462 1.408 1_545 S
C467 C466 1.400 . S
H468 C474 0.930 . S
H469 C477 0.931 . S
H470 C479 0.934 . S
H471 C481 0.930 . S
H472 C483 0.930 . S
H473 C485 0.931 . S
C474 H468 0.930 . S
C474 C475 1.397 . S
C474 C476 1.395 1_655 S
C475 C474 1.397 . S
C475 C479 1.349 1_655 S
C476 C474 1.395 1_455 S
C476 C477 1.399 . S
C477 H469 0.931 . S
C477 C476 1.399 . S
C477 C478 1.375 . S
C478 C477 1.375 . S
C478 C479 1.416 . S
C478 C480 1.501 . S
C479 H470 0.934 . S
C479 C475 1.349 1_455 S
C479 C478 1.416 . S
C480 C478 1.501 . S
C480 C481 1.384 . S
C480 C485 1.408 1_455 S
C481 H471 0.930 . S
C481 C480 1.384 . S
C481 C482 1.389 . S
C482 C481 1.389 . S
C482 C483 1.405 . S
C483 H472 0.930 . S
C483 C482 1.405 . S
C483 C484 1.364 1_455 S
C484 C483 1.364 1_655 S
C484 C485 1.400 . S
C485 H473 0.931 . S
C485 C480 1.408 1_655 S
C485 C484 1.400 . S
H486 C492 0.930 . S
H487 C495 0.931 . S
H488 C497 0.931 . S
H489 C499 0.930 . S
H490 C501 0.930 . S
H491 C503 0.931 . S
C492 H486 0.930 . S
C492 C493 1.380 . S
C492 C494 1.394 . S
C493 C492 1.380 . S
C493 C497 1.382 . S
C494 C492 1.394 . S
C494 C495 1.400 . S
C495 H487 0.931 . S
C495 C494 1.400 . S
C495 C496 1.375 . S
C496 C495 1.375 . S
C496 C497 1.415 . S
C496 C498 1.501 . S
C497 H488 0.931 . S
C497 C493 1.382 . S
C497 C496 1.415 . S
C498 C496 1.501 . S
C498 C499 1.384 . S
C498 C503 1.408 . S
C499 H489 0.930 . S
C499 C498 1.384 . S
C499 C500 1.389 . S
C500 C499 1.389 . S
C500 C501 1.405 . S
C501 H490 0.930 . S
C501 C500 1.405 . S
C501 C502 1.364 . S
C502 C501 1.364 . S
C502 C503 1.400 . S
C503 H491 0.931 . S
C503 C498 1.408 . S
C503 C502 1.400 . S
H504 C510 0.930 . S
H505 C513 0.931 . S
H506 C515 0.931 . S
H507 C517 0.930 . S
H508 C519 0.930 . S
H509 C521 0.931 . S
C510 H504 0.930 . S
C510 C511 1.380 . S
C510 C512 1.394 . S
C511 C510 1.380 . S
C511 C515 1.382 . S
C512 C510 1.394 . S
C512 C513 1.400 . S
C513 H505 0.931 . S
C513 C512 1.400 . S
C513 C514 1.375 . S
C514 C513 1.375 . S
C514 C515 1.415 . S
C514 C516 1.501 . S
C515 H506 0.931 . S
C515 C511 1.382 . S
C515 C514 1.415 . S
C516 C514 1.501 . S
C516 C517 1.384 . S
C516 C521 1.408 . S
C517 H507 0.930 . S
C517 C516 1.384 . S
C517 C518 1.389 . S
C518 C517 1.389 . S
C518 C519 1.405 . S
C519 H508 0.930 . S
C519 C518 1.405 . S
C519 C520 1.364 . S
C520 C519 1.364 . S
C520 C521 1.400 . S
C521 H509 0.931 . S
C521 C516 1.408 . S
C521 C520 1.400 . S
H522 C528 0.930 . S
H523 C531 0.931 . S
H524 C533 0.931 . S
H525 C535 0.930 . S
H526 C537 0.930 . S
H527 C539 0.931 . S
C528 H522 0.930 . S
C528 C529 1.380 . S
C528 C530 1.394 . S
C529 C528 1.380 . S
C529 C533 1.382 . S
C530 C528 1.394 . S
C530 C531 1.400 . S
C531 H523 0.931 . S
C531 C530 1.400 . S
C531 C532 1.375 . S
C532 C531 1.375 . S
C532 C533 1.415 . S
C532 C534 1.501 . S
C533 H524 0.931 . S
C533 C529 1.382 . S
C533 C532 1.415 . S
C534 C532 1.501 . S
C534 C535 1.384 . S
C534 C539 1.408 . S
C535 H525 0.930 . S
C535 C534 1.384 . S
C535 C536 1.389 . S
C536 C535 1.389 . S
C536 C537 1.405 . S
C537 H526 0.930 . S
C537 C536 1.405 . S
C537 C538 1.364 . S
C538 C537 1.364 . S
C538 C539 1.400 . S
C539 H527 0.931 . S
C539 C534 1.408 . S
C539 C538 1.400 . S
H540 C546 0.930 . S
H541 C549 0.931 . S
H542 C551 0.931 . S
H543 C553 0.930 . S
H544 C555 0.930 . S
H545 C557 0.931 . S
C546 H540 0.930 . S
C546 C547 1.380 . S
C546 C548 1.394 . S
C547 C546 1.380 . S
C547 C551 1.382 . S
C548 C546 1.394 . S
C548 C549 1.400 . S
C549 H541 0.931 . S
C549 C548 1.400 . S
C549 C550 1.375 . S
C550 C549 1.375 . S
C550 C551 1.415 . S
C550 C552 1.501 . S
C551 H542 0.931 . S
C551 C547 1.382 . S
C551 C550 1.415 . S
C552 C550 1.501 . S
C552 C553 1.384 . S
C552 C557 1.408 . S
C553 H543 0.930 . S
C553 C552 1.384 . S
C553 C554 1.389 . S
C554 C553 1.389 . S
C554 C555 1.405 . S
C555 H544 0.930 . S
C555 C554 1.405 . S
C555 C556 1.364 . S
C556 C555 1.364 . S
C556 C557 1.400 . S
C557 H545 0.931 . S
C557 C552 1.408 . S
C557 C556 1.400 . S
H558 C566 0.950 . S
H559 C571 0.950 . S
H560 C568 0.950 . S
H561 C570 0.950 . S
H562 C572 0.950 . S
H563 C574 0.950 . S
H564 C576 0.950 . S
H565 C577 0.950 . S
C566 H558 0.950 . S
C566 C567 1.386 1_455 S
C566 C568 1.391 . S
C567 C566 1.386 1_655 S
C567 C571 1.393 . S
C568 H560 0.950 . S
C568 C566 1.391 . S
C568 C569 1.400 1_455 S
C569 C568 1.400 1_655 S
C569 C570 1.398 . S
C569 C575 1.491 . S
C570 H561 0.950 . S
C570 C569 1.398 . S
C570 C571 1.391 . S
C571 H559 0.950 . S
C571 C567 1.393 . S
C571 C570 1.391 . S
C572 H562 0.950 . S
C572 C573 1.386 . S
C572 C574 1.391 . S
C573 C572 1.386 . S
C573 C577 1.393 1_655 S
C574 H563 0.950 . S
C574 C572 1.391 . S
C574 C575 1.400 . S
C575 C569 1.491 . S
C575 C574 1.400 . S
C575 C576 1.398 1_655 S
C576 H564 0.950 . S
C576 C575 1.398 1_455 S
C576 C577 1.391 . S
C577 H565 0.950 . S
C577 C573 1.393 1_455 S
C577 C576 1.391 . S
H578 C586 0.950 . S
H579 C591 0.950 . S
H580 C588 0.950 . S
H581 C590 0.950 . S
H582 C592 0.950 . S
H583 C594 0.950 . S
H584 C596 0.950 . S
H585 C597 0.950 . S
C586 H578 0.950 . S
C586 C587 1.386 . S
C586 C588 1.391 . S
C587 C586 1.386 . S
C587 C591 1.393 . S
C588 H580 0.950 . S
C588 C586 1.391 . S
C588 C589 1.400 . S
C589 C588 1.400 . S
C589 C590 1.398 . S
C589 C595 1.491 . S
C590 H581 0.950 . S
C590 C589 1.398 . S
C590 C591 1.391 . S
C591 H579 0.950 . S
C591 C587 1.393 . S
C591 C590 1.391 . S
C592 H582 0.950 . S
C592 C593 1.386 . S
C592 C594 1.391 . S
C593 C592 1.386 . S
C593 C597 1.393 . S
C594 H583 0.950 . S
C594 C592 1.391 . S
C594 C595 1.400 . S
C595 C589 1.491 . S
C595 C594 1.400 . S
C595 C596 1.398 . S
C596 H584 0.950 . S
C596 C595 1.398 . S
C596 C597 1.391 . S
C597 H585 0.950 . S
C597 C593 1.393 . S
C597 C596 1.391 . S
H598 C606 0.950 . S
H599 C611 0.950 1_565 S
H600 C608 0.950 . S
H601 C610 0.950 1_565 S
H602 C612 0.950 . S
H603 C614 0.950 . S
H604 C616 0.950 . S
H605 C617 0.950 . S
C606 H598 0.950 . S
C606 C607 1.386 . S
C606 C608 1.391 . S
C607 C606 1.386 . S
C607 C611 1.393 . S
C608 H600 0.950 . S
C608 C606 1.391 . S
C608 C609 1.400 . S
C609 C608 1.400 . S
C609 C610 1.398 . S
C609 C615 1.491 . S
C610 H601 0.950 1_545 S
C610 C609 1.398 . S
C610 C611 1.391 . S
C611 H599 0.950 1_545 S
C611 C607 1.393 . S
C611 C610 1.391 . S
C612 H602 0.950 . S
C612 C613 1.386 1_565 S
C612 C614 1.391 . S
C613 C612 1.386 1_545 S
C613 C617 1.393 . S
C614 H603 0.950 . S
C614 C612 1.391 . S
C614 C615 1.400 1_565 S
C615 C609 1.491 . S
C615 C614 1.400 1_545 S
C615 C616 1.398 . S
C616 H604 0.950 . S
C616 C615 1.398 . S
C616 C617 1.391 . S
C617 H605 0.950 . S
C617 C613 1.393 . S
C617 C616 1.391 . S
H618 C626 0.950 . S
H619 C631 0.950 . S
H620 C628 0.950 . S
H621 C630 0.950 . S
H622 C632 0.950 . S
H623 C634 0.950 . S
H624 C636 0.950 . S
H625 C637 0.950 . S
C626 H618 0.950 . S
C626 C627 1.386 . S
C626 C628 1.391 . S
C627 C626 1.386 . S
C627 C631 1.393 1_565 S
C628 H620 0.950 . S
C628 C626 1.391 . S
C628 C629 1.400 . S
C629 C628 1.400 . S
C629 C630 1.398 1_565 S
C629 C635 1.491 . S
C630 H621 0.950 . S
C630 C629 1.398 1_545 S
C630 C631 1.391 . S
C631 H619 0.950 . S
C631 C627 1.393 1_545 S
C631 C630 1.391 . S
C632 H622 0.950 . S
C632 C633 1.386 1_545 S
C632 C634 1.391 . S
C633 C632 1.386 1_565 S
C633 C637 1.393 . S
C634 H623 0.950 . S
C634 C632 1.391 . S
C634 C635 1.400 1_545 S
C635 C629 1.491 . S
C635 C634 1.400 1_565 S
C635 C636 1.398 . S
C636 H624 0.950 . S
C636 C635 1.398 . S
C636 C637 1.391 . S
C637 H625 0.950 . S
C637 C633 1.393 . S
C637 C636 1.391 . S
H638 C646 0.950 . S
H639 C651 0.950 . S
H640 C648 0.950 . S
H641 C650 0.950 . S
H642 C652 0.950 . S
H643 C654 0.950 . S
H644 C656 0.950 . S
H645 C657 0.950 . S
C646 H638 0.950 . S
C646 C647 1.386 . S
C646 C648 1.391 . S
C647 C646 1.386 . S
C647 C651 1.393 1_455 S
C648 H640 0.950 . S
C648 C646 1.391 . S
C648 C649 1.400 . S
C649 C648 1.400 . S
C649 C650 1.398 1_455 S
C649 C655 1.491 . S
C650 H641 0.950 . S
C650 C649 1.398 1_655 S
C650 C651 1.391 . S
C651 H639 0.950 . S
C651 C647 1.393 1_655 S
C651 C650 1.391 . S
C652 H642 0.950 . S
C652 C653 1.386 1_655 S
C652 C654 1.391 . S
C653 C652 1.386 1_455 S
C653 C657 1.393 . S
C654 H643 0.950 . S
C654 C652 1.391 . S
C654 C655 1.400 1_655 S
C655 C649 1.491 . S
C655 C654 1.400 1_455 S
C655 C656 1.398 . S
C656 H644 0.950 . S
C656 C655 1.398 . S
C656 C657 1.391 . S
C657 H645 0.950 . S
C657 C653 1.393 . S
C657 C656 1.391 . S
H658 C666 0.950 . S
H659 C671 0.950 . S
H660 C668 0.950 . S
H661 C670 0.950 . S
H662 C672 0.950 . S
H663 C674 0.950 . S
H664 C676 0.950 . S
H665 C677 0.950 . S
C666 H658 0.950 . S
C666 C667 1.386 . S
C666 C668 1.391 . S
C667 C666 1.386 . S
C667 C671 1.393 . S
C668 H660 0.950 . S
C668 C666 1.391 . S
C668 C669 1.400 . S
C669 C668 1.400 . S
C669 C670 1.398 . S
C669 C675 1.491 . S
C670 H661 0.950 . S
C670 C669 1.398 . S
C670 C671 1.391 . S
C671 H659 0.950 . S
C671 C667 1.393 . S
C671 C670 1.391 . S
C672 H662 0.950 . S
C672 C673 1.386 . S
C672 C674 1.391 . S
C673 C672 1.386 . S
C673 C677 1.393 . S
C674 H663 0.950 . S
C674 C672 1.391 . S
C674 C675 1.400 . S
C675 C669 1.491 . S
C675 C674 1.400 . S
C675 C676 1.398 . S
C676 H664 0.950 . S
C676 C675 1.398 . S
C676 C677 1.391 . S
C677 H665 0.950 . S
C677 C673 1.393 . S
C677 C676 1.391 . S
H678 C686 0.950 . S
H679 C691 0.950 . S
H680 C688 0.950 . S
H681 C690 0.950 . S
H682 C692 0.950 . S
H683 C694 0.950 . S
H684 C696 0.950 . S
H685 C697 0.950 . S
C686 H678 0.950 . S
C686 C687 1.386 1_655 S
C686 C688 1.391 . S
C687 C686 1.386 1_455 S
C687 C691 1.393 . S
C688 H680 0.950 . S
C688 C686 1.391 . S
C688 C689 1.400 1_655 S
C689 C688 1.400 1_455 S
C689 C690 1.398 . S
C689 C695 1.491 . S
C690 H681 0.950 . S
C690 C689 1.398 . S
C690 C691 1.391 . S
C691 H679 0.950 . S
C691 C687 1.393 . S
C691 C690 1.391 . S
C692 H682 0.950 . S
C692 C693 1.382 1_455 S
C692 C694 1.391 . S
C693 C692 1.382 1_655 S
C693 C697 1.398 . S
C694 H683 0.950 . S
C694 C692 1.391 . S
C694 C695 1.400 . S
C695 C689 1.491 . S
C695 C694 1.400 . S
C695 C696 1.398 1_455 S
C696 H684 0.950 . S
C696 C695 1.398 1_655 S
C696 C697 1.391 . S
C697 H685 0.950 . S
C697 C693 1.398 . S
C697 C696 1.391 . S
H698 C706 0.950 . S
H699 C711 0.950 . S
H700 C708 0.950 . S
H701 C710 0.950 . S
H702 C712 0.950 . S
H703 C714 0.950 . S
H704 C716 0.950 . S
H705 C717 0.950 . S
C706 H698 0.950 . S
C706 C707 1.386 . S
C706 C708 1.391 . S
C707 C706 1.386 . S
C707 C711 1.393 . S
C708 H700 0.950 . S
C708 C706 1.391 . S
C708 C709 1.400 . S
C709 C708 1.400 . S
C709 C710 1.398 . S
C709 C715 1.491 . S
C710 H701 0.950 . S
C710 C709 1.398 . S
C710 C711 1.391 . S
C711 H699 0.950 . S
C711 C707 1.393 . S
C711 C710 1.391 . S
C712 H702 0.950 . S
C712 C713 1.386 . S
C712 C714 1.391 . S
C713 C712 1.386 . S
C713 C717 1.393 . S
C714 H703 0.950 . S
C714 C712 1.391 . S
C714 C715 1.400 . S
C715 C709 1.491 . S
C715 C714 1.400 . S
C715 C716 1.398 . S
C716 H704 0.950 . S
C716 C715 1.398 . S
C716 C717 1.391 . S
C717 H705 0.950 . S
C717 C713 1.393 . S
C717 C716 1.391 . S
H718 C726 0.950 . S
H719 C731 0.957 . S
H720 C728 0.950 . S
H721 C730 0.950 . S
H722 C732 0.950 . S
H723 C734 0.950 . S
H724 C736 0.950 . S
H725 C737 0.950 . S
C726 H718 0.950 . S
C726 C727 1.386 . S
C726 C728 1.391 . S
C727 C726 1.386 . S
C727 C731 1.374 1_565 S
C728 H720 0.950 . S
C728 C726 1.391 . S
C728 C729 1.400 . S
C729 C728 1.400 . S
C729 C730 1.398 1_565 S
C729 C735 1.491 . S
C730 H721 0.950 . S
C730 C729 1.398 1_545 S
C730 C731 1.403 . S
C731 H719 0.957 . S
C731 C727 1.374 1_545 S
C731 C730 1.403 . S
C732 H722 0.950 . S
C732 C733 1.387 . S
C732 C734 1.391 . S
C733 C732 1.387 . S
C733 C737 1.388 1_545 S
C734 H723 0.950 . S
C734 C732 1.391 . S
C734 C735 1.400 1_545 S
C735 C729 1.491 . S
C735 C734 1.400 1_565 S
C735 C736 1.398 . S
C736 H724 0.950 . S
C736 C735 1.398 . S
C736 C737 1.391 . S
C737 H725 0.950 . S
C737 C733 1.388 1_565 S
C737 C736 1.391 . S
H738 C746 0.950 . S
H739 C751 0.950 . S
H740 C748 0.950 . S
H741 C750 0.950 . S
H742 C752 0.950 . S
H743 C754 0.950 . S
H744 C756 0.950 . S
H745 C757 0.950 . S
C746 H738 0.950 . S
C746 C747 1.386 . S
C746 C748 1.391 . S
C747 C746 1.386 . S
C747 C751 1.393 1_545 S
C748 H740 0.950 . S
C748 C746 1.391 . S
C748 C749 1.400 . S
C749 C748 1.400 . S
C749 C750 1.398 1_545 S
C749 C755 1.491 . S
C750 H741 0.950 . S
C750 C749 1.398 1_565 S
C750 C751 1.391 . S
C751 H739 0.950 . S
C751 C747 1.393 1_565 S
C751 C750 1.391 . S
C752 H742 0.950 . S
C752 C753 1.390 1_565 S
C752 C754 1.391 . S
C753 C752 1.390 1_545 S
C753 C757 1.391 . S
C754 H743 0.950 . S
C754 C752 1.391 . S
C754 C755 1.400 1_565 S
C755 C749 1.491 . S
C755 C754 1.400 1_545 S
C755 C756 1.398 . S
C756 H744 0.950 . S
C756 C755 1.398 . S
C756 C757 1.391 . S
C757 H745 0.950 . S
C757 C753 1.391 . S
C757 C756 1.391 . S
H758 C766 0.950 . S
H759 C771 0.950 . S
H760 C768 0.950 . S
H761 C770 0.950 . S
H762 C772 0.950 . S
H763 C774 0.950 . S
H764 C776 0.950 . S
H765 C777 0.950 . S
C766 H758 0.950 . S
C766 C767 1.386 1_455 S
C766 C768 1.391 . S
C767 C766 1.386 1_655 S
C767 C771 1.393 . S
C768 H760 0.950 . S
C768 C766 1.391 . S
C768 C769 1.400 1_455 S
C769 C768 1.400 1_655 S
C769 C770 1.398 . S
C769 C775 1.491 . S
C770 H761 0.950 . S
C770 C769 1.398 . S
C770 C771 1.391 . S
C771 H759 0.950 . S
C771 C767 1.393 . S
C771 C770 1.391 . S
C772 H762 0.950 . S
C772 C773 1.386 . S
C772 C774 1.391 . S
C773 C772 1.386 . S
C773 C777 1.393 1_655 S
C774 H763 0.950 . S
C774 C772 1.391 . S
C774 C775 1.400 . S
C775 C769 1.491 . S
C775 C774 1.400 . S
C775 C776 1.398 1_655 S
C776 H764 0.950 . S
C776 C775 1.398 1_455 S
C776 C777 1.391 . S
C777 H765 0.950 . S
C777 C773 1.393 1_455 S
C777 C776 1.391 . S
H778 C786 0.950 . S
H779 C791 0.950 . S
H780 C788 0.950 . S
H781 C790 0.950 . S
H782 C792 0.950 . S
H783 C794 0.950 . S
H784 C796 0.950 . S
H785 C797 0.950 . S
C786 H778 0.950 . S
C786 C787 1.386 . S
C786 C788 1.391 . S
C787 C786 1.386 . S
C787 C791 1.393 . S
C788 H780 0.950 . S
C788 C786 1.391 . S
C788 C789 1.400 . S
C789 C788 1.400 . S
C789 C790 1.398 . S
C789 C795 1.491 . S
C790 H781 0.950 . S
C790 C789 1.398 . S
C790 C791 1.391 . S
C791 H779 0.950 . S
C791 C787 1.393 . S
C791 C790 1.391 . S
C792 H782 0.950 . S
C792 C793 1.386 . S
C792 C794 1.391 . S
C793 C792 1.386 . S
C793 C797 1.393 . S
C794 H783 0.950 . S
C794 C792 1.391 . S
C794 C795 1.400 . S
C795 C789 1.491 . S
C795 C794 1.400 . S
C795 C796 1.398 . S
C796 H784 0.950 . S
C796 C795 1.398 . S
C796 C797 1.391 . S
C797 H785 0.950 . S
C797 C793 1.393 . S
C797 C796 1.391 . S
H798 C806 0.950 . S
H799 C811 0.950 . S
H800 C808 0.950 . S
H801 C810 0.950 . S
H802 C812 0.950 . S
H803 C814 0.950 . S
H804 C816 0.950 . S
H805 C817 0.950 . S
C806 H798 0.950 . S
C806 C807 1.386 . S
C806 C808 1.391 . S
C807 C806 1.386 . S
C807 C811 1.393 . S
C808 H800 0.950 . S
C808 C806 1.391 . S
C808 C809 1.400 . S
C809 C808 1.400 . S
C809 C810 1.398 . S
C809 C815 1.491 . S
C810 H801 0.950 . S
C810 C809 1.398 . S
C810 C811 1.391 . S
C811 H799 0.950 . S
C811 C807 1.393 . S
C811 C810 1.391 . S
C812 H802 0.950 . S
C812 C813 1.386 . S
C812 C814 1.391 . S
C813 C812 1.386 . S
C813 C817 1.393 . S
C814 H803 0.950 . S
C814 C812 1.391 . S
C814 C815 1.400 . S
C815 C809 1.491 . S
C815 C814 1.400 . S
C815 C816 1.398 . S
C816 H804 0.950 . S
C816 C815 1.398 . S
C816 C817 1.391 . S
C817 H805 0.950 . S
C817 C813 1.393 . S
C817 C816 1.391 . S
H818 C826 0.950 . S
H819 C831 0.950 . S
H820 C828 0.950 . S
H821 C830 0.950 . S
H822 C832 0.950 . S
H823 C834 0.950 . S
H824 C836 0.950 . S
H825 C837 0.950 . S
C826 H818 0.950 . S
C826 C827 1.386 . S
C826 C828 1.391 . S
C827 C826 1.386 . S
C827 C831 1.393 . S
C828 H820 0.950 . S
C828 C826 1.391 . S
C828 C829 1.400 . S
C829 C828 1.400 . S
C829 C830 1.398 . S
C829 C835 1.491 . S
C830 H821 0.950 . S
C830 C829 1.398 . S
C830 C831 1.391 . S
C831 H819 0.950 . S
C831 C827 1.393 . S
C831 C830 1.391 . S
C832 H822 0.950 . S
C832 C833 1.386 . S
C832 C834 1.391 . S
C833 C832 1.386 . S
C833 C837 1.393 . S
C834 H823 0.950 . S
C834 C832 1.391 . S
C834 C835 1.400 . S
C835 C829 1.491 . S
C835 C834 1.400 . S
C835 C836 1.398 . S
C836 H824 0.950 . S
C836 C835 1.398 . S
C836 C837 1.391 . S
C837 H825 0.950 . S
C837 C833 1.393 . S
C837 C836 1.391 . S
H838 C846 0.950 . S
H839 C851 0.950 . S
H840 C848 0.950 . S
H841 C850 0.950 . S
H842 C852 0.950 . S
H843 C854 0.950 . S
H844 C856 0.950 . S
H845 C857 0.950 . S
C846 H838 0.950 . S
C846 C847 1.386 . S
C846 C848 1.391 . S
C847 C846 1.386 . S
C847 C851 1.393 . S
C848 H840 0.950 . S
C848 C846 1.391 . S
C848 C849 1.400 . S
C849 C848 1.400 . S
C849 C850 1.398 . S
C849 C855 1.491 . S
C850 H841 0.950 . S
C850 C849 1.398 . S
C850 C851 1.391 . S
C851 H839 0.950 . S
C851 C847 1.393 . S
C851 C850 1.391 . S
C852 H842 0.950 . S
C852 C853 1.386 . S
C852 C854 1.391 . S
C853 C852 1.386 . S
C853 C857 1.393 . S
C854 H843 0.950 . S
C854 C852 1.391 . S
C854 C855 1.400 . S
C855 C849 1.491 . S
C855 C854 1.400 . S
C855 C856 1.398 . S
C856 H844 0.950 . S
C856 C855 1.398 . S
C856 C857 1.391 . S
C857 H845 0.950 . S
C857 C853 1.393 . S
C857 C856 1.391 . S
H858 C866 0.950 . S
H859 C871 0.950 . S
H860 C868 0.950 . S
H861 C870 0.950 . S
H862 C872 0.950 . S
H863 C874 0.950 . S
H864 C876 0.950 . S
H865 C877 0.950 . S
C866 H858 0.950 . S
C866 C867 1.386 . S
C866 C868 1.391 . S
C867 C866 1.386 . S
C867 C871 1.393 . S
C868 H860 0.950 . S
C868 C866 1.391 . S
C868 C869 1.400 . S
C869 C868 1.400 . S
C869 C870 1.398 . S
C869 C875 1.491 . S
C870 H861 0.950 . S
C870 C869 1.398 . S
C870 C871 1.391 . S
C871 H859 0.950 . S
C871 C867 1.393 . S
C871 C870 1.391 . S
C872 H862 0.950 . S
C872 C873 1.386 . S
C872 C874 1.391 . S
C873 C872 1.386 . S
C873 C877 1.393 . S
C874 H863 0.950 . S
C874 C872 1.391 . S
C874 C875 1.400 . S
C875 C869 1.491 . S
C875 C874 1.400 . S
C875 C876 1.398 . S
C876 H864 0.950 . S
C876 C875 1.398 . S
C876 C877 1.391 . S
C877 H865 0.950 . S
C877 C873 1.393 . S
C877 C876 1.391 . S
H878 C886 0.950 . S
H879 C891 0.950 . S
H880 C888 0.950 . S
H881 C890 0.950 . S
H882 C892 0.950 . S
H883 C894 0.950 . S
H884 C896 0.950 . S
H885 C897 0.950 . S
C886 H878 0.950 . S
C886 C887 1.386 . S
C886 C888 1.391 . S
C887 C886 1.386 . S
C887 C891 1.393 . S
C888 H880 0.950 . S
C888 C886 1.391 . S
C888 C889 1.400 . S
C889 C888 1.400 . S
C889 C890 1.398 . S
C889 C895 1.491 . S
C890 H881 0.950 . S
C890 C889 1.398 . S
C890 C891 1.391 . S
C891 H879 0.950 . S
C891 C887 1.393 . S
C891 C890 1.391 . S
C892 H882 0.950 . S
C892 C893 1.386 . S
C892 C894 1.391 . S
C893 C892 1.386 . S
C893 C897 1.393 . S
C894 H883 0.950 . S
C894 C892 1.391 . S
C894 C895 1.400 . S
C895 C889 1.491 . S
C895 C894 1.400 . S
C895 C896 1.398 . S
C896 H884 0.950 . S
C896 C895 1.398 . S
C896 C897 1.391 . S
C897 H885 0.950 . S
C897 C893 1.393 . S
C897 C896 1.391 . S
H898 C906 0.950 . S
H899 C911 0.950 . S
H900 C908 0.950 . S
H901 C910 0.950 . S
H902 C912 0.950 . S
H903 C914 0.950 . S
H904 C916 0.950 . S
H905 C917 0.950 . S
C906 H898 0.950 . S
C906 C907 1.386 . S
C906 C908 1.391 . S
C907 C906 1.386 . S
C907 C911 1.393 . S
C908 H900 0.950 . S
C908 C906 1.391 . S
C908 C909 1.400 . S
C909 C908 1.400 . S
C909 C910 1.398 . S
C909 C915 1.491 . S
C910 H901 0.950 . S
C910 C909 1.398 . S
C910 C911 1.391 . S
C911 H899 0.950 . S
C911 C907 1.393 . S
C911 C910 1.391 . S
C912 H902 0.950 . S
C912 C913 1.386 . S
C912 C914 1.391 . S
C913 C912 1.386 . S
C913 C917 1.393 . S
C914 H903 0.950 . S
C914 C912 1.391 . S
C914 C915 1.400 . S
C915 C909 1.491 . S
C915 C914 1.400 . S
C915 C916 1.398 . S
C916 H904 0.950 . S
C916 C915 1.398 . S
C916 C917 1.391 . S
C917 H905 0.950 . S
C917 C913 1.393 . S
C917 C916 1.391 . S
H918 C926 0.950 . S
H919 C931 0.950 . S
H920 C928 0.950 . S
H921 C930 0.950 . S
H922 C932 0.950 . S
H923 C934 0.950 . S
H924 C936 0.950 . S
H925 C937 0.950 . S
C926 H918 0.950 . S
C926 C927 1.386 . S
C926 C928 1.391 . S
C927 C926 1.386 . S
C927 C931 1.393 . S
C928 H920 0.950 . S
C928 C926 1.391 . S
C928 C929 1.400 . S
C929 C928 1.400 . S
C929 C930 1.398 . S
C929 C935 1.491 . S
C930 H921 0.950 . S
C930 C929 1.398 . S
C930 C931 1.391 . S
C931 H919 0.950 . S
C931 C927 1.393 . S
C931 C930 1.391 . S
C932 H922 0.950 . S
C932 C933 1.386 . S
C932 C934 1.391 . S
C933 C932 1.386 . S
C933 C937 1.393 . S
C934 H923 0.950 . S
C934 C932 1.391 . S
C934 C935 1.400 . S
C935 C929 1.491 . S
C935 C934 1.400 . S
C935 C936 1.398 . S
C936 H924 0.950 . S
C936 C935 1.398 . S
C936 C937 1.391 . S
C937 H925 0.950 . S
C937 C933 1.393 . S
C937 C936 1.391 . S
H938 C946 0.950 . S
H939 C951 0.950 . S
H940 C948 0.950 . S
H941 C950 0.950 . S
H942 C952 0.950 . S
H943 C954 0.950 . S
H944 C956 0.950 . S
H945 C957 0.950 . S
C946 H938 0.950 . S
C946 C947 1.386 . S
C946 C948 1.391 . S
C947 C946 1.386 . S
C947 C951 1.393 . S
C948 H940 0.950 . S
C948 C946 1.391 . S
C948 C949 1.400 . S
C949 C948 1.400 . S
C949 C950 1.398 . S
C949 C955 1.491 . S
C950 H941 0.950 . S
C950 C949 1.398 . S
C950 C951 1.391 . S
C951 H939 0.950 . S
C951 C947 1.393 . S
C951 C950 1.391 . S
C952 H942 0.950 . S
C952 C953 1.386 . S
C952 C954 1.391 . S
C953 C952 1.386 . S
C953 C957 1.393 . S
C954 H943 0.950 . S
C954 C952 1.391 . S
C954 C955 1.400 . S
C955 C949 1.491 . S
C955 C954 1.400 . S
C955 C956 1.398 . S
C956 H944 0.950 . S
C956 C955 1.398 . S
C956 C957 1.391 . S
C957 H945 0.950 . S
C957 C953 1.393 . S
C957 C956 1.391 . S
H958 C966 0.950 . S
H959 C971 0.950 . S
H960 C968 0.950 . S
H961 C970 0.950 . S
H962 C972 0.950 . S
H963 C974 0.950 . S
H964 C976 0.950 . S
H965 C977 0.950 . S
C966 H958 0.950 . S
C966 C967 1.386 . S
C966 C968 1.391 . S
C967 C966 1.386 . S
C967 C971 1.393 . S
C968 H960 0.950 . S
C968 C966 1.391 . S
C968 C969 1.400 . S
C969 C968 1.400 . S
C969 C970 1.398 . S
C969 C975 1.491 . S
C970 H961 0.950 . S
C970 C969 1.398 . S
C970 C971 1.391 . S
C971 H959 0.950 . S
C971 C967 1.393 . S
C971 C970 1.391 . S
C972 H962 0.950 . S
C972 C973 1.386 . S
C972 C974 1.391 . S
C973 C972 1.386 . S
C973 C977 1.393 . S
C974 H963 0.950 . S
C974 C972 1.391 . S
C974 C975 1.400 . S
C975 C969 1.491 . S
C975 C974 1.400 . S
C975 C976 1.398 . S
C976 H964 0.950 . S
C976 C975 1.398 . S
C976 C977 1.391 . S
C977 H965 0.950 . S
C977 C973 1.393 . S
C977 C976 1.391 . S
H978 C986 0.950 . S
H979 C991 0.950 . S
H980 C988 0.950 . S
H981 C990 0.950 . S
H982 C992 0.950 . S
H983 C994 0.950 . S
H984 C996 0.950 . S
H985 C997 0.950 . S
C986 H978 0.950 . S
C986 C987 1.386 . S
C986 C988 1.391 . S
C987 C986 1.386 . S
C987 C991 1.393 . S
C988 H980 0.950 . S
C988 C986 1.391 . S
C988 C989 1.400 . S
C989 C988 1.400 . S
C989 C990 1.398 . S
C989 C995 1.491 . S
C990 H981 0.950 . S
C990 C989 1.398 . S
C990 C991 1.391 . S
C991 H979 0.950 . S
C991 C987 1.393 . S
C991 C990 1.391 . S
C992 H982 0.950 . S
C992 C993 1.386 . S
C992 C994 1.391 . S
C993 C992 1.386 . S
C993 C997 1.393 . S
C994 H983 0.950 . S
C994 C992 1.391 . S
C994 C995 1.400 . S
C995 C989 1.491 . S
C995 C994 1.400 . S
C995 C996 1.398 . S
C996 H984 0.950 . S
C996 C995 1.398 . S
C996 C997 1.391 . S
C997 H985 0.950 . S
C997 C993 1.393 . S
C997 C996 1.391 . S
H998 C1006 0.950 . S
H999 C1011 0.950 . S
H1000 C1008 0.950 . S
H1001 C1010 0.950 . S
H1002 C1012 0.950 . S
H1003 C1014 0.950 . S
H1004 C1016 0.950 . S
H1005 C1017 0.950 . S
C1006 H998 0.950 . S
C1006 C1007 1.386 . S
C1006 C1008 1.391 . S
C1007 C1006 1.386 . S
C1007 C1011 1.393 . S
C1008 H1000 0.950 . S
C1008 C1006 1.391 . S
C1008 C1009 1.400 . S
C1009 C1008 1.400 . S
C1009 C1010 1.398 . S
C1009 C1015 1.491 . S
C1010 H1001 0.950 . S
C1010 C1009 1.398 . S
C1010 C1011 1.391 . S
C1011 H999 0.950 . S
C1011 C1007 1.393 . S
C1011 C1010 1.391 . S
C1012 H1002 0.950 . S
C1012 C1013 1.386 . S
C1012 C1014 1.391 . S
C1013 C1012 1.386 . S
C1013 C1017 1.393 . S
C1014 H1003 0.950 . S
C1014 C1012 1.391 . S
C1014 C1015 1.400 . S
C1015 C1009 1.491 . S
C1015 C1014 1.400 . S
C1015 C1016 1.398 . S
C1016 H1004 0.950 . S
C1016 C1015 1.398 . S
C1016 C1017 1.391 . S
C1017 H1005 0.950 . S
C1017 C1013 1.393 . S
C1017 C1016 1.391 . S
H1018 C1026 0.950 . S
H1019 C1031 0.950 . S
H1020 C1028 0.950 . S
H1021 C1030 0.950 . S
H1022 C1032 0.950 . S
H1023 C1034 0.950 . S
H1024 C1036 0.950 . S
H1025 C1037 0.950 . S
C1026 H1018 0.950 . S
C1026 C1027 1.386 . S
C1026 C1028 1.391 . S
C1027 C1026 1.386 . S
C1027 C1031 1.393 . S
C1028 H1020 0.950 . S
C1028 C1026 1.391 . S
C1028 C1029 1.400 . S
C1029 C1028 1.400 . S
C1029 C1030 1.398 . S
C1029 C1035 1.491 . S
C1030 H1021 0.950 . S
C1030 C1029 1.398 . S
C1030 C1031 1.391 . S
C1031 H1019 0.950 . S
C1031 C1027 1.393 . S
C1031 C1030 1.391 . S
C1032 H1022 0.950 . S
C1032 C1033 1.386 . S
C1032 C1034 1.391 . S
C1033 C1032 1.386 . S
C1033 C1037 1.393 . S
C1034 H1023 0.950 . S
C1034 C1032 1.391 . S
C1034 C1035 1.400 . S
C1035 C1029 1.491 . S
C1035 C1034 1.400 . S
C1035 C1036 1.398 . S
C1036 H1024 0.950 . S
C1036 C1035 1.398 . S
C1036 C1037 1.391 . S
C1037 H1025 0.950 . S
C1037 C1033 1.393 . S
C1037 C1036 1.391 . S
H1038 C1046 0.950 . S
H1039 C1051 0.950 . S
H1040 C1048 0.950 . S
H1041 C1050 0.950 . S
H1042 C1052 0.950 . S
H1043 C1054 0.950 . S
H1044 C1056 0.950 . S
H1045 C1057 0.950 . S
C1046 H1038 0.950 . S
C1046 C1047 1.386 . S
C1046 C1048 1.391 . S
C1047 C1046 1.386 . S
C1047 C1051 1.393 . S
C1048 H1040 0.950 . S
C1048 C1046 1.391 . S
C1048 C1049 1.400 . S
C1049 C1048 1.400 . S
C1049 C1050 1.398 . S
C1049 C1055 1.491 . S
C1050 H1041 0.950 . S
C1050 C1049 1.398 . S
C1050 C1051 1.391 . S
C1051 H1039 0.950 . S
C1051 C1047 1.393 . S
C1051 C1050 1.391 . S
C1052 H1042 0.950 . S
C1052 C1053 1.386 . S
C1052 C1054 1.391 . S
C1053 C1052 1.386 . S
C1053 C1057 1.393 . S
C1054 H1043 0.950 . S
C1054 C1052 1.391 . S
C1054 C1055 1.400 . S
C1055 C1049 1.491 . S
C1055 C1054 1.400 . S
C1055 C1056 1.398 . S
C1056 H1044 0.950 . S
C1056 C1055 1.398 . S
C1056 C1057 1.391 . S
C1057 H1045 0.950 . S
C1057 C1053 1.393 . S
C1057 C1056 1.391 . S
H1058 C1066 0.950 . S
H1059 C1071 0.950 . S
H1060 C1068 0.950 . S
H1061 C1070 0.950 . S
H1062 C1072 0.950 . S
H1063 C1074 0.950 . S
H1064 C1076 0.950 . S
H1065 C1077 0.950 . S
C1066 H1058 0.950 . S
C1066 C1067 1.386 . S
C1066 C1068 1.391 . S
C1067 C1066 1.386 . S
C1067 C1071 1.393 . S
C1068 H1060 0.950 . S
C1068 C1066 1.391 . S
C1068 C1069 1.400 . S
C1069 C1068 1.400 . S
C1069 C1070 1.398 . S
C1069 C1075 1.491 . S
C1070 H1061 0.950 . S
C1070 C1069 1.398 . S
C1070 C1071 1.391 . S
C1071 H1059 0.950 . S
C1071 C1067 1.393 . S
C1071 C1070 1.391 . S
C1072 H1062 0.950 . S
C1072 C1073 1.386 . S
C1072 C1074 1.391 . S
C1073 C1072 1.386 . S
C1073 C1077 1.393 . S
C1074 H1063 0.950 . S
C1074 C1072 1.391 . S
C1074 C1075 1.400 . S
C1075 C1069 1.491 . S
C1075 C1074 1.400 . S
C1075 C1076 1.398 . S
C1076 H1064 0.950 . S
C1076 C1075 1.398 . S
C1076 C1077 1.391 . S
C1077 H1065 0.950 . S
C1077 C1073 1.393 . S
C1077 C1076 1.391 . S
H1078 C1086 0.950 . S
H1079 C1091 0.950 . S
H1080 C1088 0.950 . S
H1081 C1090 0.950 . S
H1082 C1092 0.950 . S
H1083 C1094 0.950 . S
H1084 C1096 0.950 . S
H1085 C1097 0.950 . S
C1086 H1078 0.950 . S
C1086 C1087 1.386 . S
C1086 C1088 1.391 . S
C1087 C1086 1.386 . S
C1087 C1091 1.393 . S
C1088 H1080 0.950 . S
C1088 C1086 1.391 . S
C1088 C1089 1.400 . S
C1089 C1088 1.400 . S
C1089 C1090 1.398 . S
C1089 C1095 1.491 . S
C1090 H1081 0.950 . S
C1090 C1089 1.398 . S
C1090 C1091 1.391 . S
C1091 H1079 0.950 . S
C1091 C1087 1.393 . S
C1091 C1090 1.391 . S
C1092 H1082 0.950 . S
C1092 C1093 1.386 . S
C1092 C1094 1.391 . S
C1093 C1092 1.386 . S
C1093 C1097 1.393 . S
C1094 H1083 0.950 . S
C1094 C1092 1.391 . S
C1094 C1095 1.400 . S
C1095 C1089 1.491 . S
C1095 C1094 1.400 . S
C1095 C1096 1.398 . S
C1096 H1084 0.950 . S
C1096 C1095 1.398 . S
C1096 C1097 1.391 . S
C1097 H1085 0.950 . S
C1097 C1093 1.393 . S
C1097 C1096 1.391 . S
H1098 C1106 0.950 . S
H1099 C1111 0.950 . S
H1100 C1108 0.950 . S
H1101 C1110 0.950 . S
H1102 C1112 0.950 . S
H1103 C1114 0.950 . S
H1104 C1116 0.950 . S
H1105 C1117 0.950 . S
C1106 H1098 0.950 . S
C1106 C1107 1.386 . S
C1106 C1108 1.391 . S
C1107 C1106 1.386 . S
C1107 C1111 1.393 . S
C1108 H1100 0.950 . S
C1108 C1106 1.391 . S
C1108 C1109 1.400 . S
C1109 C1108 1.400 . S
C1109 C1110 1.398 . S
C1109 C1115 1.491 . S
C1110 H1101 0.950 . S
C1110 C1109 1.398 . S
C1110 C1111 1.391 . S
C1111 H1099 0.950 . S
C1111 C1107 1.393 . S
C1111 C1110 1.391 . S
C1112 H1102 0.950 . S
C1112 C1113 1.386 . S
C1112 C1114 1.391 . S
C1113 C1112 1.386 . S
C1113 C1117 1.393 . S
C1114 H1103 0.950 . S
C1114 C1112 1.391 . S
C1114 C1115 1.400 . S
C1115 C1109 1.491 . S
C1115 C1114 1.400 . S
C1115 C1116 1.398 . S
C1116 H1104 0.950 . S
C1116 C1115 1.398 . S
C1116 C1117 1.391 . S
C1117 H1105 0.950 . S
C1117 C1113 1.393 . S
C1117 C1116 1.391 . S
H1118 C1126 0.950 . S
H1119 C1131 0.950 . S
H1120 C1128 0.950 . S
H1121 C1130 0.950 . S
H1122 C1132 0.950 . S
H1123 C1134 0.950 . S
H1124 C1136 0.950 . S
H1125 C1137 0.950 . S
C1126 H1118 0.950 . S
C1126 C1127 1.386 . S
C1126 C1128 1.391 . S
C1127 C1126 1.386 . S
C1127 C1131 1.393 . S
C1128 H1120 0.950 . S
C1128 C1126 1.391 . S
C1128 C1129 1.400 . S
C1129 C1128 1.400 . S
C1129 C1130 1.398 . S
C1129 C1135 1.491 . S
C1130 H1121 0.950 . S
C1130 C1129 1.398 . S
C1130 C1131 1.391 . S
C1131 H1119 0.950 . S
C1131 C1127 1.393 . S
C1131 C1130 1.391 . S
C1132 H1122 0.950 . S
C1132 C1133 1.386 . S
C1132 C1134 1.391 . S
C1133 C1132 1.386 . S
C1133 C1137 1.393 . S
C1134 H1123 0.950 . S
C1134 C1132 1.391 . S
C1134 C1135 1.400 . S
C1135 C1129 1.491 . S
C1135 C1134 1.400 . S
C1135 C1136 1.398 . S
C1136 H1124 0.950 . S
C1136 C1135 1.398 . S
C1136 C1137 1.391 . S
C1137 H1125 0.950 . S
C1137 C1133 1.393 . S
C1137 C1136 1.391 . S
H1138 C1146 0.950 . S
H1139 C1151 0.950 . S
H1140 C1148 0.950 . S
H1141 C1150 0.950 . S
H1142 C1152 0.950 . S
H1143 C1154 0.950 . S
H1144 C1156 0.950 . S
H1145 C1157 0.950 . S
C1146 H1138 0.950 . S
C1146 C1147 1.386 . S
C1146 C1148 1.391 . S
C1147 C1146 1.386 . S
C1147 C1151 1.393 . S
C1148 H1140 0.950 . S
C1148 C1146 1.391 . S
C1148 C1149 1.400 . S
C1149 C1148 1.400 . S
C1149 C1150 1.398 . S
C1149 C1155 1.491 . S
C1150 H1141 0.950 . S
C1150 C1149 1.398 . S
C1150 C1151 1.391 . S
C1151 H1139 0.950 . S
C1151 C1147 1.393 . S
C1151 C1150 1.391 . S
C1152 H1142 0.950 . S
C1152 C1153 1.386 . S
C1152 C1154 1.391 . S
C1153 C1152 1.386 . S
C1153 C1157 1.393 . S
C1154 H1143 0.950 . S
C1154 C1152 1.391 . S
C1154 C1155 1.400 . S
C1155 C1149 1.491 . S
C1155 C1154 1.400 . S
C1155 C1156 1.398 . S
C1156 H1144 0.950 . S
C1156 C1155 1.398 . S
C1156 C1157 1.391 . S
C1157 H1145 0.950 . S
C1157 C1153 1.393 . S
C1157 C1156 1.391 . S
H1158 C1166 0.950 . S
H1159 C1171 0.950 . S
H1160 C1168 0.950 . S
H1161 C1170 0.950 . S
H1162 C1172 0.950 . S
H1163 C1174 0.950 . S
H1164 C1176 0.950 . S
H1165 C1177 0.950 . S
C1166 H1158 0.950 . S
C1166 C1167 1.386 . S
C1166 C1168 1.391 . S
C1167 C1166 1.386 . S
C1167 C1171 1.393 . S
C1168 H1160 0.950 . S
C1168 C1166 1.391 . S
C1168 C1169 1.400 . S
C1169 C1168 1.400 . S
C1169 C1170 1.398 . S
C1169 C1175 1.491 . S
C1170 H1161 0.950 . S
C1170 C1169 1.398 . S
C1170 C1171 1.391 . S
C1171 H1159 0.950 . S
C1171 C1167 1.393 . S
C1171 C1170 1.391 . S
C1172 H1162 0.950 . S
C1172 C1173 1.386 . S
C1172 C1174 1.391 . S
C1173 C1172 1.386 . S
C1173 C1177 1.393 . S
C1174 H1163 0.950 . S
C1174 C1172 1.391 . S
C1174 C1175 1.400 . S
C1175 C1169 1.491 . S
C1175 C1174 1.400 . S
C1175 C1176 1.398 . S
C1176 H1164 0.950 . S
C1176 C1175 1.398 . S
C1176 C1177 1.391 . S
C1177 H1165 0.950 . S
C1177 C1173 1.393 . S
C1177 C1176 1.391 . S
H1178 C1186 0.950 . S
H1179 C1191 0.950 . S
H1180 C1188 0.950 . S
H1181 C1190 0.950 . S
H1182 C1192 0.950 . S
H1183 C1194 0.950 . S
H1184 C1196 0.950 . S
H1185 C1197 0.950 . S
C1186 H1178 0.950 . S
C1186 C1187 1.386 . S
C1186 C1188 1.391 . S
C1187 C1186 1.386 . S
C1187 C1191 1.393 . S
C1188 H1180 0.950 . S
C1188 C1186 1.391 . S
C1188 C1189 1.400 . S
C1189 C1188 1.400 . S
C1189 C1190 1.398 . S
C1189 C1195 1.491 . S
C1190 H1181 0.950 . S
C1190 C1189 1.398 . S
C1190 C1191 1.391 . S
C1191 H1179 0.950 . S
C1191 C1187 1.393 . S
C1191 C1190 1.391 . S
C1192 H1182 0.950 . S
C1192 C1193 1.386 . S
C1192 C1194 1.391 . S
C1193 C1192 1.386 . S
C1193 C1197 1.393 . S
C1194 H1183 0.950 . S
C1194 C1192 1.391 . S
C1194 C1195 1.400 . S
C1195 C1189 1.491 . S
C1195 C1194 1.400 . S
C1195 C1196 1.398 . S
C1196 H1184 0.950 . S
C1196 C1195 1.398 . S
C1196 C1197 1.391 . S
C1197 H1185 0.950 . S
C1197 C1193 1.393 . S
C1197 C1196 1.391 . S
H1198 C1206 0.950 . S
H1199 C1211 0.950 . S
H1200 C1208 0.950 . S
H1201 C1210 0.950 . S
H1202 C1212 0.950 . S
H1203 C1214 0.950 . S
H1204 C1216 0.950 . S
H1205 C1217 0.950 . S
C1206 H1198 0.950 . S
C1206 C1207 1.386 . S
C1206 C1208 1.391 . S
C1207 C1206 1.386 . S
C1207 C1211 1.393 . S
C1208 H1200 0.950 . S
C1208 C1206 1.391 . S
C1208 C1209 1.400 . S
C1209 C1208 1.400 . S
C1209 C1210 1.398 . S
C1209 C1215 1.491 . S
C1210 H1201 0.950 . S
C1210 C1209 1.398 . S
C1210 C1211 1.391 . S
C1211 H1199 0.950 . S
C1211 C1207 1.393 . S
C1211 C1210 1.391 . S
C1212 H1202 0.950 . S
C1212 C1213 1.386 . S
C1212 C1214 1.391 . S
C1213 C1212 1.386 . S
C1213 C1217 1.393 . S
C1214 H1203 0.950 . S
C1214 C1212 1.391 . S
C1214 C1215 1.400 . S
C1215 C1209 1.491 . S
C1215 C1214 1.400 . S
C1215 C1216 1.398 . S
C1216 H1204 0.950 . S
C1216 C1215 1.398 . S
C1216 C1217 1.391 . S
C1217 H1205 0.950 . S
C1217 C1213 1.393 . S
C1217 C1216 1.391 . S
H1218 C1226 0.950 . S
H1219 C1231 0.950 . S
H1220 C1228 0.950 . S
H1221 C1230 0.950 . S
H1222 C1232 0.950 . S
H1223 C1234 0.950 . S
H1224 C1236 0.950 . S
H1225 C1237 0.950 . S
C1226 H1218 0.950 . S
C1226 C1227 1.386 . S
C1226 C1228 1.391 . S
C1227 C1226 1.386 . S
C1227 C1231 1.393 . S
C1228 H1220 0.950 . S
C1228 C1226 1.391 . S
C1228 C1229 1.400 . S
C1229 C1228 1.400 . S
C1229 C1230 1.398 . S
C1229 C1235 1.491 . S
C1230 H1221 0.950 . S
C1230 C1229 1.398 . S
C1230 C1231 1.391 . S
C1231 H1219 0.950 . S
C1231 C1227 1.393 . S
C1231 C1230 1.391 . S
C1232 H1222 0.950 . S
C1232 C1233 1.386 . S
C1232 C1234 1.391 . S
C1233 C1232 1.386 . S
C1233 C1237 1.393 . S
C1234 H1223 0.950 . S
C1234 C1232 1.391 . S
C1234 C1235 1.400 . S
C1235 C1229 1.491 . S
C1235 C1234 1.400 . S
C1235 C1236 1.398 . S
C1236 H1224 0.950 . S
C1236 C1235 1.398 . S
C1236 C1237 1.391 . S
C1237 H1225 0.950 . S
C1237 C1233 1.393 . S
C1237 C1236 1.391 . S
H1238 C1246 0.950 . S
H1239 C1251 0.950 . S
H1240 C1248 0.950 . S
H1241 C1250 0.950 . S
H1242 C1252 0.950 . S
H1243 C1254 0.950 . S
H1244 C1256 0.950 . S
H1245 C1257 0.950 . S
C1246 H1238 0.950 . S
C1246 C1247 1.386 . S
C1246 C1248 1.391 . S
C1247 C1246 1.386 . S
C1247 C1251 1.393 . S
C1248 H1240 0.950 . S
C1248 C1246 1.391 . S
C1248 C1249 1.400 . S
C1249 C1248 1.400 . S
C1249 C1250 1.398 . S
C1249 C1255 1.491 . S
C1250 H1241 0.950 . S
C1250 C1249 1.398 . S
C1250 C1251 1.391 . S
C1251 H1239 0.950 . S
C1251 C1247 1.393 . S
C1251 C1250 1.391 . S
C1252 H1242 0.950 . S
C1252 C1253 1.386 . S
C1252 C1254 1.391 . S
C1253 C1252 1.386 . S
C1253 C1257 1.393 . S
C1254 H1243 0.950 . S
C1254 C1252 1.391 . S
C1254 C1255 1.400 . S
C1255 C1249 1.491 . S
C1255 C1254 1.400 . S
C1255 C1256 1.398 . S
C1256 H1244 0.950 . S
C1256 C1255 1.398 . S
C1256 C1257 1.391 . S
C1257 H1245 0.950 . S
C1257 C1253 1.393 . S
C1257 C1256 1.391 . S
H1258 C1266 0.950 . S
H1259 C1271 0.950 . S
H1260 C1268 0.950 . S
H1261 C1270 0.950 . S
H1262 C1272 0.950 . S
H1263 C1274 0.950 . S
H1264 C1276 0.950 . S
H1265 C1277 0.950 . S
C1266 H1258 0.950 . S
C1266 C1267 1.386 . S
C1266 C1268 1.391 . S
C1267 C1266 1.386 . S
C1267 C1271 1.393 . S
C1268 H1260 0.950 . S
C1268 C1266 1.391 . S
C1268 C1269 1.400 . S
C1269 C1268 1.400 . S
C1269 C1270 1.398 . S
C1269 C1275 1.491 . S
C1270 H1261 0.950 . S
C1270 C1269 1.398 . S
C1270 C1271 1.391 . S
C1271 H1259 0.950 . S
C1271 C1267 1.393 . S
C1271 C1270 1.391 . S
C1272 H1262 0.950 . S
C1272 C1273 1.386 . S
C1272 C1274 1.391 . S
C1273 C1272 1.386 . S
C1273 C1277 1.393 . S
C1274 H1263 0.950 . S
C1274 C1272 1.391 . S
C1274 C1275 1.400 . S
C1275 C1269 1.491 . S
C1275 C1274 1.400 . S
C1275 C1276 1.398 . S
C1276 H1264 0.950 . S
C1276 C1275 1.398 . S
C1276 C1277 1.391 . S
C1277 H1265 0.950 . S
C1277 C1273 1.393 . S
C1277 C1276 1.391 . S
H1278 C1286 0.950 . S
H1279 C1291 0.950 . S
H1280 C1288 0.950 . S
H1281 C1290 0.950 . S
H1282 C1292 0.950 . S
H1283 C1294 0.950 . S
H1284 C1296 0.950 . S
H1285 C1297 0.950 . S
C1286 H1278 0.950 . S
C1286 C1287 1.386 . S
C1286 C1288 1.391 . S
C1287 C1286 1.386 . S
C1287 C1291 1.393 . S
C1288 H1280 0.950 . S
C1288 C1286 1.391 . S
C1288 C1289 1.400 . S
C1289 C1288 1.400 . S
C1289 C1290 1.398 . S
C1289 C1295 1.491 . S
C1290 H1281 0.950 . S
C1290 C1289 1.398 . S
C1290 C1291 1.391 . S
C1291 H1279 0.950 . S
C1291 C1287 1.393 . S
C1291 C1290 1.391 . S
C1292 H1282 0.950 . S
C1292 C1293 1.386 . S
C1292 C1294 1.391 . S
C1293 C1292 1.386 . S
C1293 C1297 1.393 . S
C1294 H1283 0.950 . S
C1294 C1292 1.391 . S
C1294 C1295 1.400 . S
C1295 C1289 1.491 . S
C1295 C1294 1.400 . S
C1295 C1296 1.398 . S
C1296 H1284 0.950 . S
C1296 C1295 1.398 . S
C1296 C1297 1.391 . S
C1297 H1285 0.950 . S
C1297 C1293 1.393 . S
C1297 C1296 1.391 . S
H1298 C1306 0.924 1_556 S
H1299 C1311 0.950 . S
H1300 C1308 0.950 . S
H1301 C1310 0.950 . S
H1302 C1312 0.950 . S
H1303 C1314 0.950 . S
H1304 C1316 0.950 . S
H1305 C1317 0.950 . S
C1306 H1298 0.924 1_554 S
C1306 C1307 1.386 . S
C1306 C1308 1.391 . S
C1307 C1306 1.386 . S
C1307 C1311 1.393 . S
C1308 H1300 0.950 . S
C1308 C1306 1.391 . S
C1308 C1309 1.400 . S
C1309 C1308 1.400 . S
C1309 C1310 1.398 . S
C1309 C1315 1.491 . S
C1310 H1301 0.950 . S
C1310 C1309 1.398 . S
C1310 C1311 1.391 . S
C1311 H1299 0.950 . S
C1311 C1307 1.393 . S
C1311 C1310 1.391 . S
C1312 H1302 0.950 . S
C1312 C1313 1.386 . S
C1312 C1314 1.391 . S
C1313 C1312 1.386 . S
C1313 C1317 1.393 . S
C1314 H1303 0.950 . S
C1314 C1312 1.391 . S
C1314 C1315 1.400 . S
C1315 C1309 1.491 . S
C1315 C1314 1.400 . S
C1315 C1316 1.398 . S
C1316 H1304 0.950 . S
C1316 C1315 1.398 . S
C1316 C1317 1.391 . S
C1317 H1305 0.950 . S
C1317 C1313 1.393 . S
C1317 C1316 1.391 . S
H1318 C1326 0.950 . S
H1319 C1331 0.950 . S
H1320 C1328 0.950 . S
H1321 C1330 0.950 . S
H1322 C1332 0.950 . S
H1323 C1334 0.950 . S
H1324 C1336 0.950 . S
H1325 C1337 0.950 . S
C1326 H1318 0.950 . S
C1326 C1327 1.386 . S
C1326 C1328 1.391 . S
C1327 C1326 1.386 . S
C1327 C1331 1.393 . S
C1328 H1320 0.950 . S
C1328 C1326 1.391 . S
C1328 C1329 1.400 . S
C1329 C1328 1.400 . S
C1329 C1330 1.398 . S
C1329 C1335 1.491 . S
C1330 H1321 0.950 . S
C1330 C1329 1.398 . S
C1330 C1331 1.391 . S
C1331 H1319 0.950 . S
C1331 C1327 1.393 . S
C1331 C1330 1.391 . S
C1332 H1322 0.950 . S
C1332 C1333 1.386 . S
C1332 C1334 1.391 . S
C1333 C1332 1.386 . S
C1333 C1337 1.393 . S
C1334 H1323 0.950 . S
C1334 C1332 1.391 . S
C1334 C1335 1.400 . S
C1335 C1329 1.491 . S
C1335 C1334 1.400 . S
C1335 C1336 1.398 . S
C1336 H1324 0.950 . S
C1336 C1335 1.398 . S
C1336 C1337 1.391 . S
C1337 H1325 0.950 . S
C1337 C1333 1.393 . S
C1337 C1336 1.391 . S
H1338 C1346 0.950 . S
H1339 C1351 0.950 . S
H1340 C1348 0.950 1_554 S
H1341 C1350 0.950 . S
H1342 C1352 0.950 . S
H1343 C1354 0.950 . S
H1344 C1356 0.950 . S
H1345 C1357 0.950 . S
C1346 H1338 0.950 . S
C1346 C1347 1.386 1_554 S
C1346 C1348 1.391 1_554 S
C1347 C1346 1.386 1_556 S
C1347 C1351 1.393 . S
C1348 H1340 0.950 1_556 S
C1348 C1346 1.391 1_556 S
C1348 C1349 1.400 . S
C1349 C1348 1.400 . S
C1349 C1350 1.398 . S
C1349 C1355 1.491 . S
C1350 H1341 0.950 . S
C1350 C1349 1.398 . S
C1350 C1351 1.391 . S
C1351 H1339 0.950 . S
C1351 C1347 1.393 . S
C1351 C1350 1.391 . S
C1352 H1342 0.950 . S
C1352 C1353 1.386 . S
C1352 C1354 1.391 . S
C1353 C1352 1.386 . S
C1353 C1357 1.393 . S
C1354 H1343 0.950 . S
C1354 C1352 1.391 . S
C1354 C1355 1.400 . S
C1355 C1349 1.491 . S
C1355 C1354 1.400 . S
C1355 C1356 1.398 . S
C1356 H1344 0.950 . S
C1356 C1355 1.398 . S
C1356 C1357 1.391 . S
C1357 H1345 0.950 . S
C1357 C1353 1.393 . S
C1357 C1356 1.391 . S
H1358 C1366 0.950 . S
H1359 C1371 0.950 . S
H1360 C1368 0.950 . S
H1361 C1370 0.950 . S
H1362 C1372 0.950 . S
H1363 C1374 0.950 . S
H1364 C1376 0.950 . S
H1365 C1377 0.950 . S
C1366 H1358 0.950 . S
C1366 C1367 1.386 . S
C1366 C1368 1.391 . S
C1367 C1366 1.386 . S
C1367 C1371 1.393 . S
C1368 H1360 0.950 . S
C1368 C1366 1.391 . S
C1368 C1369 1.400 . S
C1369 C1368 1.400 . S
C1369 C1370 1.398 . S
C1369 C1375 1.491 . S
C1370 H1361 0.950 . S
C1370 C1369 1.398 . S
C1370 C1371 1.391 . S
C1371 H1359 0.950 . S
C1371 C1367 1.393 . S
C1371 C1370 1.391 . S
C1372 H1362 0.950 . S
C1372 C1373 1.386 . S
C1372 C1374 1.391 . S
C1373 C1372 1.386 . S
C1373 C1377 1.393 . S
C1374 H1363 0.950 . S
C1374 C1372 1.391 . S
C1374 C1375 1.400 . S
C1375 C1369 1.491 . S
C1375 C1374 1.400 . S
C1375 C1376 1.398 . S
C1376 H1364 0.950 . S
C1376 C1375 1.398 . S
C1376 C1377 1.391 . S
C1377 H1365 0.950 . S
C1377 C1373 1.393 . S
C1377 C1376 1.391 . S
H1378 C1386 0.950 . S
H1379 C1391 0.950 . S
H1380 C1388 0.950 . S
H1381 C1390 0.950 . S
H1382 C1392 0.950 . S
H1383 C1394 0.950 . S
H1384 C1396 0.950 . S
H1385 C1397 0.950 . S
C1386 H1378 0.950 . S
C1386 C1387 1.386 . S
C1386 C1388 1.391 . S
C1387 C1386 1.386 . S
C1387 C1391 1.393 . S
C1388 H1380 0.950 . S
C1388 C1386 1.391 . S
C1388 C1389 1.400 . S
C1389 C1388 1.400 . S
C1389 C1390 1.398 . S
C1389 C1395 1.491 . S
C1390 H1381 0.950 . S
C1390 C1389 1.398 . S
C1390 C1391 1.391 . S
C1391 H1379 0.950 . S
C1391 C1387 1.393 . S
C1391 C1390 1.391 . S
C1392 H1382 0.950 . S
C1392 C1393 1.386 . S
C1392 C1394 1.391 . S
C1393 C1392 1.386 . S
C1393 C1397 1.393 . S
C1394 H1383 0.950 . S
C1394 C1392 1.391 . S
C1394 C1395 1.400 . S
C1395 C1389 1.491 . S
C1395 C1394 1.400 . S
C1395 C1396 1.398 . S
C1396 H1384 0.950 . S
C1396 C1395 1.398 . S
C1396 C1397 1.391 . S
C1397 H1385 0.950 . S
C1397 C1393 1.393 . S
C1397 C1396 1.391 . S
H1398 C1406 0.950 . S
H1399 C1411 0.950 1_554 S
H1400 C1408 0.950 . S
H1401 C1410 0.950 . S
H1402 C1412 0.950 . S
H1403 C1414 0.950 . S
H1404 C1416 0.950 . S
H1405 C1417 0.950 . S
C1406 H1398 0.950 . S
C1406 C1407 1.386 . S
C1406 C1408 1.391 . S
C1407 C1406 1.386 . S
C1407 C1411 1.393 . S
C1408 H1400 0.950 . S
C1408 C1406 1.391 . S
C1408 C1409 1.400 . S
C1409 C1408 1.400 . S
C1409 C1410 1.398 . S
C1409 C1415 1.491 . S
C1410 H1401 0.950 . S
C1410 C1409 1.398 . S
C1410 C1411 1.391 . S
C1411 H1399 0.950 1_556 S
C1411 C1407 1.393 . S
C1411 C1410 1.391 . S
C1412 H1402 0.950 . S
C1412 C1413 1.386 . S
C1412 C1414 1.391 . S
C1413 C1412 1.386 . S
C1413 C1417 1.393 . S
C1414 H1403 0.950 . S
C1414 C1412 1.391 . S
C1414 C1415 1.400 . S
C1415 C1409 1.491 . S
C1415 C1414 1.400 . S
C1415 C1416 1.398 . S
C1416 H1404 0.950 . S
C1416 C1415 1.398 . S
C1416 C1417 1.391 . S
C1417 H1405 0.950 . S
C1417 C1413 1.393 . S
C1417 C1416 1.391 . S
H1418 C1426 0.950 . S
H1419 C1431 0.939 1_554 S
H1420 C1428 0.950 . S
H1421 C1430 0.950 1_554 S
H1422 C1432 0.950 . S
H1423 C1434 0.950 . S
H1424 C1436 0.950 . S
H1425 C1437 0.950 . S
C1426 H1418 0.950 . S
C1426 C1427 1.386 . S
C1426 C1428 1.391 . S
C1427 C1426 1.386 . S
C1427 C1431 1.400 . S
C1428 H1420 0.950 . S
C1428 C1426 1.391 . S
C1428 C1429 1.400 . S
C1429 C1428 1.400 . S
C1429 C1430 1.398 . S
C1429 C1435 1.491 . S
C1430 H1421 0.950 1_556 S
C1430 C1429 1.398 . S
C1430 C1431 1.394 . S
C1431 H1419 0.939 1_556 S
C1431 C1427 1.400 . S
C1431 C1430 1.394 . S
C1432 H1422 0.950 . S
C1432 C1433 1.386 . S
C1432 C1434 1.391 . S
C1433 C1432 1.386 . S
C1433 C1437 1.393 . S
C1434 H1423 0.950 . S
C1434 C1432 1.391 . S
C1434 C1435 1.400 . S
C1435 C1429 1.491 . S
C1435 C1434 1.400 . S
C1435 C1436 1.398 . S
C1436 H1424 0.950 . S
C1436 C1435 1.398 . S
C1436 C1437 1.391 . S
C1437 H1425 0.950 . S
C1437 C1433 1.393 . S
C1437 C1436 1.391 . S
H1438 C1446 0.950 . S
H1439 C1451 0.950 . S
H1440 C1448 0.950 1_554 S
H1441 C1450 0.950 . S
H1442 C1452 0.950 . S
H1443 C1454 0.950 . S
H1444 C1456 0.950 . S
H1445 C1457 0.950 . S
C1446 H1438 0.950 . S
C1446 C1447 1.386 1_554 S
C1446 C1448 1.391 1_554 S
C1447 C1446 1.386 1_556 S
C1447 C1451 1.393 . S
C1448 H1440 0.950 1_556 S
C1448 C1446 1.391 1_556 S
C1448 C1449 1.400 . S
C1449 C1448 1.400 . S
C1449 C1450 1.398 . S
C1449 C1455 1.491 . S
C1450 H1441 0.950 . S
C1450 C1449 1.398 . S
C1450 C1451 1.391 . S
C1451 H1439 0.950 . S
C1451 C1447 1.393 . S
C1451 C1450 1.391 . S
C1452 H1442 0.950 . S
C1452 C1453 1.386 . S
C1452 C1454 1.391 . S
C1453 C1452 1.386 . S
C1453 C1457 1.393 . S
C1454 H1443 0.950 . S
C1454 C1452 1.391 . S
C1454 C1455 1.400 . S
C1455 C1449 1.491 . S
C1455 C1454 1.400 . S
C1455 C1456 1.398 . S
C1456 H1444 0.950 . S
C1456 C1455 1.398 . S
C1456 C1457 1.391 . S
C1457 H1445 0.950 . S
C1457 C1453 1.393 . S
C1457 C1456 1.391 . S
H1458 C1466 0.950 . S
H1459 C1471 0.950 . S
H1460 C1468 0.950 . S
H1461 C1470 0.950 . S
H1462 C1472 0.950 . S
H1463 C1474 0.950 . S
H1464 C1476 0.950 . S
H1465 C1477 0.950 . S
C1466 H1458 0.950 . S
C1466 C1467 1.386 . S
C1466 C1468 1.391 . S
C1467 C1466 1.386 . S
C1467 C1471 1.393 . S
C1468 H1460 0.950 . S
C1468 C1466 1.391 . S
C1468 C1469 1.400 . S
C1469 C1468 1.400 . S
C1469 C1470 1.398 . S
C1469 C1475 1.491 . S
C1470 H1461 0.950 . S
C1470 C1469 1.398 . S
C1470 C1471 1.391 . S
C1471 H1459 0.950 . S
C1471 C1467 1.393 . S
C1471 C1470 1.391 . S
C1472 H1462 0.950 . S
C1472 C1473 1.386 . S
C1472 C1474 1.391 . S
C1473 C1472 1.386 . S
C1473 C1477 1.393 . S
C1474 H1463 0.950 . S
C1474 C1472 1.391 . S
C1474 C1475 1.400 . S
C1475 C1469 1.491 . S
C1475 C1474 1.400 . S
C1475 C1476 1.398 . S
C1476 H1464 0.950 . S
C1476 C1475 1.398 . S
C1476 C1477 1.391 . S
C1477 H1465 0.950 . S
C1477 C1473 1.393 . S
C1477 C1476 1.391 . S
H1478 C1486 0.950 . S
H1479 C1491 0.950 . S
H1480 C1488 0.950 . S
H1481 C1490 0.950 . S
H1482 C1492 0.950 . S
H1483 C1494 0.950 . S
H1484 C1496 0.950 . S
H1485 C1497 0.950 . S
C1486 H1478 0.950 . S
C1486 C1487 1.386 . S
C1486 C1488 1.391 . S
C1487 C1486 1.386 . S
C1487 C1491 1.393 . S
C1488 H1480 0.950 . S
C1488 C1486 1.391 . S
C1488 C1489 1.400 . S
C1489 C1488 1.400 . S
C1489 C1490 1.398 . S
C1489 C1495 1.491 . S
C1490 H1481 0.950 . S
C1490 C1489 1.398 . S
C1490 C1491 1.391 . S
C1491 H1479 0.950 . S
C1491 C1487 1.393 . S
C1491 C1490 1.391 . S
C1492 H1482 0.950 . S
C1492 C1493 1.386 . S
C1492 C1494 1.391 . S
C1493 C1492 1.386 . S
C1493 C1497 1.393 . S
C1494 H1483 0.950 . S
C1494 C1492 1.391 . S
C1494 C1495 1.400 . S
C1495 C1489 1.491 . S
C1495 C1494 1.400 . S
C1495 C1496 1.398 . S
C1496 H1484 0.950 . S
C1496 C1495 1.398 . S
C1496 C1497 1.391 . S
C1497 H1485 0.950 . S
C1497 C1493 1.393 . S
C1497 C1496 1.391 . S
H1498 C1506 0.950 . S
H1499 C1511 0.950 . S
H1500 C1508 0.950 . S
H1501 C1510 0.950 . S
H1502 C1512 0.950 . S
H1503 C1514 0.950 . S
H1504 C1516 0.950 . S
H1505 C1517 0.950 . S
C1506 H1498 0.950 . S
C1506 C1507 1.386 . S
C1506 C1508 1.391 . S
C1507 C1506 1.386 . S
C1507 C1511 1.393 . S
C1508 H1500 0.950 . S
C1508 C1506 1.391 . S
C1508 C1509 1.400 . S
C1509 C1508 1.400 . S
C1509 C1510 1.398 . S
C1509 C1515 1.491 . S
C1510 H1501 0.950 . S
C1510 C1509 1.398 . S
C1510 C1511 1.391 . S
C1511 H1499 0.950 . S
C1511 C1507 1.393 . S
C1511 C1510 1.391 . S
C1512 H1502 0.950 . S
C1512 C1513 1.386 . S
C1512 C1514 1.391 . S
C1513 C1512 1.386 . S
C1513 C1517 1.393 . S
C1514 H1503 0.950 . S
C1514 C1512 1.391 . S
C1514 C1515 1.400 . S
C1515 C1509 1.491 . S
C1515 C1514 1.400 . S
C1515 C1516 1.398 . S
C1516 H1504 0.950 . S
C1516 C1515 1.398 . S
C1516 C1517 1.391 . S
C1517 H1505 0.950 . S
C1517 C1513 1.393 . S
C1517 C1516 1.391 . S
H1518 C1526 0.950 . S
H1519 C1531 0.950 . S
H1520 C1528 0.950 . S
H1521 C1530 0.950 . S
H1522 C1532 0.950 . S
H1523 C1534 0.950 . S
H1524 C1536 0.950 . S
H1525 C1537 0.950 . S
C1526 H1518 0.950 . S
C1526 C1527 1.386 . S
C1526 C1528 1.391 . S
C1527 C1526 1.386 . S
C1527 C1531 1.393 . S
C1528 H1520 0.950 . S
C1528 C1526 1.391 . S
C1528 C1529 1.400 . S
C1529 C1528 1.400 . S
C1529 C1530 1.398 . S
C1529 C1535 1.491 . S
C1530 H1521 0.950 . S
C1530 C1529 1.398 . S
C1530 C1531 1.391 . S
C1531 H1519 0.950 . S
C1531 C1527 1.393 . S
C1531 C1530 1.391 . S
C1532 H1522 0.950 . S
C1532 C1533 1.386 . S
C1532 C1534 1.391 . S
C1533 C1532 1.386 . S
C1533 C1537 1.393 . S
C1534 H1523 0.950 . S
C1534 C1532 1.391 . S
C1534 C1535 1.400 . S
C1535 C1529 1.491 . S
C1535 C1534 1.400 . S
C1535 C1536 1.398 . S
C1536 H1524 0.950 . S
C1536 C1535 1.398 . S
C1536 C1537 1.391 . S
C1537 H1525 0.950 . S
C1537 C1533 1.393 . S
C1537 C1536 1.391 . S
H1538 C1546 0.950 . S
H1539 C1551 0.950 . S
H1540 C1548 0.950 . S
H1541 C1550 0.950 . S
H1542 C1552 0.950 . S
H1543 C1554 0.950 . S
H1544 C1556 0.950 . S
H1545 C1557 0.950 . S
C1546 H1538 0.950 . S
C1546 C1547 1.386 . S
C1546 C1548 1.391 . S
C1547 C1546 1.386 . S
C1547 C1551 1.393 . S
C1548 H1540 0.950 . S
C1548 C1546 1.391 . S
C1548 C1549 1.400 . S
C1549 C1548 1.400 . S
C1549 C1550 1.398 . S
C1549 C1555 1.491 . S
C1550 H1541 0.950 . S
C1550 C1549 1.398 . S
C1550 C1551 1.391 . S
C1551 H1539 0.950 . S
C1551 C1547 1.393 . S
C1551 C1550 1.391 . S
C1552 H1542 0.950 . S
C1552 C1553 1.386 . S
C1552 C1554 1.391 . S
C1553 C1552 1.386 . S
C1553 C1557 1.393 . S
C1554 H1543 0.950 . S
C1554 C1552 1.391 . S
C1554 C1555 1.400 . S
C1555 C1549 1.491 . S
C1555 C1554 1.400 . S
C1555 C1556 1.398 . S
C1556 H1544 0.950 . S
C1556 C1555 1.398 . S
C1556 C1557 1.391 . S
C1557 H1545 0.950 . S
C1557 C1553 1.393 . S
C1557 C1556 1.391 . S
H1558 C1566 0.950 . S
H1559 C1571 0.950 . S
H1560 C1568 0.950 . S
H1561 C1570 0.950 . S
H1562 C1572 0.950 . S
H1563 C1574 0.950 . S
H1564 C1576 0.950 . S
H1565 C1577 0.950 . S
C1566 H1558 0.950 . S
C1566 C1567 1.386 . S
C1566 C1568 1.391 . S
C1567 C1566 1.386 . S
C1567 C1571 1.393 . S
C1568 H1560 0.950 . S
C1568 C1566 1.391 . S
C1568 C1569 1.400 . S
C1569 C1568 1.400 . S
C1569 C1570 1.398 . S
C1569 C1575 1.491 . S
C1570 H1561 0.950 . S
C1570 C1569 1.398 . S
C1570 C1571 1.391 . S
C1571 H1559 0.950 . S
C1571 C1567 1.393 . S
C1571 C1570 1.391 . S
C1572 H1562 0.950 . S
C1572 C1573 1.386 . S
C1572 C1574 1.391 . S
C1573 C1572 1.386 . S
C1573 C1577 1.393 . S
C1574 H1563 0.950 . S
C1574 C1572 1.391 . S
C1574 C1575 1.400 . S
C1575 C1569 1.491 . S
C1575 C1574 1.400 . S
C1575 C1576 1.398 . S
C1576 H1564 0.950 . S
C1576 C1575 1.398 . S
C1576 C1577 1.391 . S
C1577 H1565 0.950 . S
C1577 C1573 1.393 . S
C1577 C1576 1.391 . S
H1578 C1586 0.950 . S
H1579 C1591 0.950 . S
H1580 C1588 0.950 . S
H1581 C1590 0.950 . S
H1582 C1592 0.950 . S
H1583 C1594 0.950 . S
H1584 C1596 0.950 . S
H1585 C1597 0.950 . S
C1586 H1578 0.950 . S
C1586 C1587 1.386 . S
C1586 C1588 1.391 . S
C1587 C1586 1.386 . S
C1587 C1591 1.393 . S
C1588 H1580 0.950 . S
C1588 C1586 1.391 . S
C1588 C1589 1.400 . S
C1589 C1588 1.400 . S
C1589 C1590 1.398 . S
C1589 C1595 1.491 . S
C1590 H1581 0.950 . S
C1590 C1589 1.398 . S
C1590 C1591 1.391 . S
C1591 H1579 0.950 . S
C1591 C1587 1.393 . S
C1591 C1590 1.391 . S
C1592 H1582 0.950 . S
C1592 C1593 1.386 . S
C1592 C1594 1.391 . S
C1593 C1592 1.386 . S
C1593 C1597 1.393 . S
C1594 H1583 0.950 . S
C1594 C1592 1.391 . S
C1594 C1595 1.400 . S
C1595 C1589 1.491 . S
C1595 C1594 1.400 . S
C1595 C1596 1.398 . S
C1596 H1584 0.950 . S
C1596 C1595 1.398 . S
C1596 C1597 1.391 . S
C1597 H1585 0.950 . S
C1597 C1593 1.393 . S
C1597 C1596 1.391 . S
H1598 C1606 0.950 . S
H1599 C1611 0.950 . S
H1600 C1608 0.950 . S
H1601 C1610 0.950 . S
H1602 C1612 0.950 . S
H1603 C1614 0.950 . S
H1604 C1616 0.950 . S
H1605 C1617 0.950 . S
C1606 H1598 0.950 . S
C1606 C1607 1.386 . S
C1606 C1608 1.391 . S
C1607 C1606 1.386 . S
C1607 C1611 1.393 . S
C1608 H1600 0.950 . S
C1608 C1606 1.391 . S
C1608 C1609 1.400 . S
C1609 C1608 1.400 . S
C1609 C1610 1.398 . S
C1609 C1615 1.491 . S
C1610 H1601 0.950 . S
C1610 C1609 1.398 . S
C1610 C1611 1.391 . S
C1611 H1599 0.950 . S
C1611 C1607 1.393 . S
C1611 C1610 1.391 . S
C1612 H1602 0.950 . S
C1612 C1613 1.386 . S
C1612 C1614 1.391 . S
C1613 C1612 1.386 . S
C1613 C1617 1.393 . S
C1614 H1603 0.950 . S
C1614 C1612 1.391 . S
C1614 C1615 1.400 . S
C1615 C1609 1.491 . S
C1615 C1614 1.400 . S
C1615 C1616 1.398 . S
C1616 H1604 0.950 . S
C1616 C1615 1.398 . S
C1616 C1617 1.391 . S
C1617 H1605 0.950 . S
C1617 C1613 1.393 . S
C1617 C1616 1.391 . S
H1618 C1626 0.950 . S
H1619 C1631 0.951 1_545 S
H1620 C1628 0.950 . S
H1621 C1630 0.950 . S
H1622 C1632 0.950 . S
H1623 C1634 0.950 . S
H1624 C1636 0.950 . S
H1625 C1637 0.950 . S
C1626 H1618 0.950 . S
C1626 C1627 1.386 . S
C1626 C1628 1.391 . S
C1627 C1626 1.386 . S
C1627 C1631 1.392 . S
C1628 H1620 0.950 . S
C1628 C1626 1.391 . S
C1628 C1629 1.400 . S
C1629 C1628 1.400 . S
C1629 C1630 1.398 1_565 S
C1629 C1635 1.491 . S
C1630 H1621 0.950 . S
C1630 C1629 1.398 1_545 S
C1630 C1631 1.390 1_545 S
C1631 H1619 0.951 1_565 S
C1631 C1627 1.392 . S
C1631 C1630 1.390 1_565 S
C1632 H1622 0.950 . S
C1632 C1633 1.386 1_545 S
C1632 C1634 1.391 . S
C1633 C1632 1.386 1_565 S
C1633 C1637 1.393 . S
C1634 H1623 0.950 . S
C1634 C1632 1.391 . S
C1634 C1635 1.400 1_545 S
C1635 C1629 1.491 . S
C1635 C1634 1.400 1_565 S
C1635 C1636 1.398 . S
C1636 H1624 0.950 . S
C1636 C1635 1.398 . S
C1636 C1637 1.391 . S
C1637 H1625 0.950 . S
C1637 C1633 1.393 . S
C1637 C1636 1.391 . S
H1638 C1646 0.950 . S
H1639 C1651 0.950 . S
H1640 C1648 0.950 . S
H1641 C1650 0.950 . S
H1642 C1652 0.950 . S
H1643 C1654 0.950 . S
H1644 C1656 0.950 . S
H1645 C1657 0.950 . S
C1646 H1638 0.950 . S
C1646 C1647 1.386 . S
C1646 C1648 1.391 . S
C1647 C1646 1.386 . S
C1647 C1651 1.393 1_565 S
C1648 H1640 0.950 . S
C1648 C1646 1.391 . S
C1648 C1649 1.400 . S
C1649 C1648 1.400 . S
C1649 C1650 1.398 1_565 S
C1649 C1655 1.491 . S
C1650 H1641 0.950 . S
C1650 C1649 1.398 1_545 S
C1650 C1651 1.391 . S
C1651 H1639 0.950 . S
C1651 C1647 1.393 1_545 S
C1651 C1650 1.391 . S
C1652 H1642 0.950 . S
C1652 C1653 1.386 1_545 S
C1652 C1654 1.391 . S
C1653 C1652 1.386 1_565 S
C1653 C1657 1.393 . S
C1654 H1643 0.950 . S
C1654 C1652 1.391 . S
C1654 C1655 1.400 1_545 S
C1655 C1649 1.491 . S
C1655 C1654 1.400 1_565 S
C1655 C1656 1.398 . S
C1656 H1644 0.950 . S
C1656 C1655 1.398 . S
C1656 C1657 1.391 . S
C1657 H1645 0.950 . S
C1657 C1653 1.393 . S
C1657 C1656 1.391 . S
H1658 C1666 0.950 . S
H1659 C1671 0.950 . S
H1660 C1668 0.950 . S
H1661 C1670 0.950 . S
H1662 C1672 0.950 . S
H1663 C1674 0.950 . S
H1664 C1676 0.950 . S
H1665 C1677 0.950 . S
C1666 H1658 0.950 . S
C1666 C1667 1.386 . S
C1666 C1668 1.391 . S
C1667 C1666 1.386 . S
C1667 C1671 1.393 1_455 S
C1668 H1660 0.950 . S
C1668 C1666 1.391 . S
C1668 C1669 1.400 . S
C1669 C1668 1.400 . S
C1669 C1670 1.398 1_455 S
C1669 C1675 1.491 . S
C1670 H1661 0.950 . S
C1670 C1669 1.398 1_655 S
C1670 C1671 1.391 . S
C1671 H1659 0.950 . S
C1671 C1667 1.393 1_655 S
C1671 C1670 1.391 . S
C1672 H1662 0.950 . S
C1672 C1673 1.397 . S
C1672 C1674 1.391 . S
C1673 C1672 1.397 . S
C1673 C1677 1.387 1_655 S
C1674 H1663 0.950 . S
C1674 C1672 1.391 . S
C1674 C1675 1.400 1_655 S
C1675 C1669 1.491 . S
C1675 C1674 1.400 1_455 S
C1675 C1676 1.398 . S
C1676 H1664 0.950 . S
C1676 C1675 1.398 . S
C1676 C1677 1.391 . S
C1677 H1665 0.950 . S
C1677 C1673 1.387 1_455 S
C1677 C1676 1.391 . S
H1678 C1686 0.950 . S
H1679 C1691 0.950 . S
H1680 C1688 0.950 . S
H1681 C1690 0.950 . S
H1682 C1692 0.950 . S
H1683 C1694 0.950 . S
H1684 C1696 0.950 . S
H1685 C1697 0.950 . S
C1686 H1678 0.950 . S
C1686 C1687 1.386 . S
C1686 C1688 1.391 . S
C1687 C1686 1.386 . S
C1687 C1691 1.393 . S
C1688 H1680 0.950 . S
C1688 C1686 1.391 . S
C1688 C1689 1.400 . S
C1689 C1688 1.400 . S
C1689 C1690 1.398 . S
C1689 C1695 1.491 . S
C1690 H1681 0.950 . S
C1690 C1689 1.398 . S
C1690 C1691 1.391 . S
C1691 H1679 0.950 . S
C1691 C1687 1.393 . S
C1691 C1690 1.391 . S
C1692 H1682 0.950 . S
C1692 C1693 1.386 . S
C1692 C1694 1.391 . S
C1693 C1692 1.386 . S
C1693 C1697 1.393 . S
C1694 H1683 0.950 . S
C1694 C1692 1.391 . S
C1694 C1695 1.400 . S
C1695 C1689 1.491 . S
C1695 C1694 1.400 . S
C1695 C1696 1.398 . S
C1696 H1684 0.950 . S
C1696 C1695 1.398 . S
C1696 C1697 1.391 . S
C1697 H1685 0.950 . S
C1697 C1693 1.393 . S
C1697 C1696 1.391 . S
H1698 C1706 0.950 . S
H1699 C1711 0.950 . S
H1700 C1708 0.950 . S
H1701 C1710 0.950 . S
H1702 C1712 0.950 . S
H1703 C1714 0.950 . S
H1704 C1716 0.950 . S
H1705 C1717 0.950 . S
C1706 H1698 0.950 . S
C1706 C1707 1.386 . S
C1706 C1708 1.391 . S
C1707 C1706 1.386 . S
C1707 C1711 1.393 . S
C1708 H1700 0.950 . S
C1708 C1706 1.391 . S
C1708 C1709 1.400 . S
C1709 C1708 1.400 . S
C1709 C1710 1.398 . S
C1709 C1715 1.491 . S
C1710 H1701 0.950 . S
C1710 C1709 1.398 . S
C1710 C1711 1.391 . S
C1711 H1699 0.950 . S
C1711 C1707 1.393 . S
C1711 C1710 1.391 . S
C1712 H1702 0.950 . S
C1712 C1713 1.386 . S
C1712 C1714 1.391 . S
C1713 C1712 1.386 . S
C1713 C1717 1.393 . S
C1714 H1703 0.950 . S
C1714 C1712 1.391 . S
C1714 C1715 1.400 . S
C1715 C1709 1.491 . S
C1715 C1714 1.400 . S
C1715 C1716 1.398 . S
C1716 H1704 0.950 . S
C1716 C1715 1.398 . S
C1716 C1717 1.391 . S
C1717 H1705 0.950 . S
C1717 C1713 1.393 . S
C1717 C1716 1.391 . S
H1718 C1726 0.950 . S
H1719 C1731 0.950 . S
H1720 C1728 0.950 . S
H1721 C1730 0.950 . S
H1722 C1732 0.950 . S
H1723 C1734 0.950 . S
H1724 C1736 0.950 . S
H1725 C1737 0.950 . S
C1726 H1718 0.950 . S
C1726 C1727 1.386 . S
C1726 C1728 1.391 . S
C1727 C1726 1.386 . S
C1727 C1731 1.393 . S
C1728 H1720 0.950 . S
C1728 C1726 1.391 . S
C1728 C1729 1.400 . S
C1729 C1728 1.400 . S
C1729 C1730 1.398 . S
C1729 C1735 1.491 . S
C1730 H1721 0.950 . S
C1730 C1729 1.398 . S
C1730 C1731 1.391 . S
C1731 H1719 0.950 . S
C1731 C1727 1.393 . S
C1731 C1730 1.391 . S
C1732 H1722 0.950 . S
C1732 C1733 1.386 . S
C1732 C1734 1.391 . S
C1733 C1732 1.386 . S
C1733 C1737 1.393 . S
C1734 H1723 0.950 . S
C1734 C1732 1.391 . S
C1734 C1735 1.400 . S
C1735 C1729 1.491 . S
C1735 C1734 1.400 . S
C1735 C1736 1.398 . S
C1736 H1724 0.950 . S
C1736 C1735 1.398 . S
C1736 C1737 1.391 . S
C1737 H1725 0.950 . S
C1737 C1733 1.393 . S
C1737 C1736 1.391 . S
H1738 C1746 0.950 . S
H1739 C1751 0.950 . S
H1740 C1748 0.950 . S
H1741 C1750 0.950 . S
H1742 C1752 0.950 . S
H1743 C1754 0.950 . S
H1744 C1756 0.950 . S
H1745 C1757 0.950 . S
C1746 H1738 0.950 . S
C1746 C1747 1.386 . S
C1746 C1748 1.391 . S
C1747 C1746 1.386 . S
C1747 C1751 1.393 . S
C1748 H1740 0.950 . S
C1748 C1746 1.391 . S
C1748 C1749 1.400 . S
C1749 C1748 1.400 . S
C1749 C1750 1.398 . S
C1749 C1755 1.491 . S
C1750 H1741 0.950 . S
C1750 C1749 1.398 . S
C1750 C1751 1.391 . S
C1751 H1739 0.950 . S
C1751 C1747 1.393 . S
C1751 C1750 1.391 . S
C1752 H1742 0.950 . S
C1752 C1753 1.386 . S
C1752 C1754 1.391 . S
C1753 C1752 1.386 . S
C1753 C1757 1.393 . S
C1754 H1743 0.950 . S
C1754 C1752 1.391 . S
C1754 C1755 1.400 . S
C1755 C1749 1.491 . S
C1755 C1754 1.400 . S
C1755 C1756 1.398 . S
C1756 H1744 0.950 . S
C1756 C1755 1.398 . S
C1756 C1757 1.391 . S
C1757 H1745 0.950 . S
C1757 C1753 1.393 . S
C1757 C1756 1.391 . S
H1758 C1766 0.950 . S
H1759 C1771 0.950 . S
H1760 C1768 0.950 . S
H1761 C1770 0.950 . S
H1762 C1772 0.950 . S
H1763 C1774 0.950 . S
H1764 C1776 0.950 . S
H1765 C1777 0.950 . S
C1766 H1758 0.950 . S
C1766 C1767 1.386 1_565 S
C1766 C1768 1.391 . S
C1767 C1766 1.386 1_545 S
C1767 C1771 1.393 . S
C1768 H1760 0.950 . S
C1768 C1766 1.391 . S
C1768 C1769 1.400 1_565 S
C1769 C1768 1.400 1_545 S
C1769 C1770 1.398 . S
C1769 C1775 1.491 . S
C1770 H1761 0.950 . S
C1770 C1769 1.398 . S
C1770 C1771 1.391 . S
C1771 H1759 0.950 . S
C1771 C1767 1.393 . S
C1771 C1770 1.391 . S
C1772 H1762 0.950 . S
C1772 C1773 1.386 . S
C1772 C1774 1.391 . S
C1773 C1772 1.386 . S
C1773 C1777 1.393 1_545 S
C1774 H1763 0.950 . S
C1774 C1772 1.391 . S
C1774 C1775 1.400 . S
C1775 C1769 1.491 . S
C1775 C1774 1.400 . S
C1775 C1776 1.398 1_545 S
C1776 H1764 0.950 . S
C1776 C1775 1.398 1_565 S
C1776 C1777 1.391 . S
C1777 H1765 0.950 . S
C1777 C1773 1.393 1_565 S
C1777 C1776 1.391 . S
H1778 C1786 0.950 . S
H1779 C1791 0.950 . S
H1780 C1788 0.950 . S
H1781 C1790 0.950 . S
H1782 C1792 0.950 . S
H1783 C1794 0.950 . S
H1784 C1796 0.934 1_455 S
H1785 C1797 0.961 1_455 S
C1786 H1778 0.950 . S
C1786 C1787 1.386 . S
C1786 C1788 1.391 . S
C1787 C1786 1.386 . S
C1787 C1791 1.393 . S
C1788 H1780 0.950 . S
C1788 C1786 1.391 . S
C1788 C1789 1.400 . S
C1789 C1788 1.400 . S
C1789 C1790 1.398 . S
C1789 C1795 1.491 . S
C1790 H1781 0.950 . S
C1790 C1789 1.398 . S
C1790 C1791 1.391 . S
C1791 H1779 0.950 . S
C1791 C1787 1.393 . S
C1791 C1790 1.391 . S
C1792 H1782 0.950 . S
C1792 C1793 1.386 . S
C1792 C1794 1.391 . S
C1793 C1792 1.386 . S
C1793 C1797 1.406 . S
C1794 H1783 0.950 . S
C1794 C1792 1.391 . S
C1794 C1795 1.400 . S
C1795 C1789 1.491 . S
C1795 C1794 1.400 . S
C1795 C1796 1.398 . S
C1796 H1784 0.934 1_655 S
C1796 C1795 1.398 . S
C1796 C1797 1.369 . S
C1797 H1785 0.961 1_655 S
C1797 C1793 1.406 . S
C1797 C1796 1.369 . S
H1798 C1806 0.950 . S
H1799 C1811 0.950 . S
H1800 C1808 0.950 . S
H1801 C1810 0.950 . S
H1802 C1812 0.950 . S
H1803 C1814 0.950 . S
H1804 C1816 0.950 . S
H1805 C1817 0.950 . S
C1806 H1798 0.950 . S
C1806 C1807 1.386 . S
C1806 C1808 1.391 . S
C1807 C1806 1.386 . S
C1807 C1811 1.393 . S
C1808 H1800 0.950 . S
C1808 C1806 1.391 . S
C1808 C1809 1.400 . S
C1809 C1808 1.400 . S
C1809 C1810 1.398 . S
C1809 C1815 1.491 . S
C1810 H1801 0.950 . S
C1810 C1809 1.398 . S
C1810 C1811 1.391 . S
C1811 H1799 0.950 . S
C1811 C1807 1.393 . S
C1811 C1810 1.391 . S
C1812 H1802 0.950 . S
C1812 C1813 1.386 . S
C1812 C1814 1.391 . S
C1813 C1812 1.386 . S
C1813 C1817 1.393 . S
C1814 H1803 0.950 . S
C1814 C1812 1.391 . S
C1814 C1815 1.400 . S
C1815 C1809 1.491 . S
C1815 C1814 1.400 . S
C1815 C1816 1.398 . S
C1816 H1804 0.950 . S
C1816 C1815 1.398 . S
C1816 C1817 1.391 . S
C1817 H1805 0.950 . S
C1817 C1813 1.393 . S
C1817 C1816 1.391 . S
H1818 C1826 0.950 . S
H1819 C1831 0.950 . S
H1820 C1828 0.950 . S
H1821 C1830 0.950 . S
H1822 C1832 0.950 . S
H1823 C1834 0.950 . S
H1824 C1836 0.950 . S
H1825 C1837 0.950 . S
C1826 H1818 0.950 . S
C1826 C1827 1.386 . S
C1826 C1828 1.391 . S
C1827 C1826 1.386 . S
C1827 C1831 1.393 . S
C1828 H1820 0.950 . S
C1828 C1826 1.391 . S
C1828 C1829 1.400 . S
C1829 C1828 1.400 . S
C1829 C1830 1.398 . S
C1829 C1835 1.491 . S
C1830 H1821 0.950 . S
C1830 C1829 1.398 . S
C1830 C1831 1.391 . S
C1831 H1819 0.950 . S
C1831 C1827 1.393 . S
C1831 C1830 1.391 . S
C1832 H1822 0.950 . S
C1832 C1833 1.386 . S
C1832 C1834 1.391 . S
C1833 C1832 1.386 . S
C1833 C1837 1.393 . S
C1834 H1823 0.950 . S
C1834 C1832 1.391 . S
C1834 C1835 1.400 . S
C1835 C1829 1.491 . S
C1835 C1834 1.400 . S
C1835 C1836 1.398 . S
C1836 H1824 0.950 . S
C1836 C1835 1.398 . S
C1836 C1837 1.391 . S
C1837 H1825 0.950 . S
C1837 C1833 1.393 . S
C1837 C1836 1.391 . S
H1838 C1846 0.950 . S
H1839 C1851 0.950 . S
H1840 C1848 0.950 . S
H1841 C1850 0.950 . S
H1842 C1852 0.950 . S
H1843 C1854 0.950 . S
H1844 C1856 0.950 . S
H1845 C1857 0.950 . S
C1846 H1838 0.950 . S
C1846 C1847 1.386 . S
C1846 C1848 1.391 . S
C1847 C1846 1.386 . S
C1847 C1851 1.393 . S
C1848 H1840 0.950 . S
C1848 C1846 1.391 . S
C1848 C1849 1.400 . S
C1849 C1848 1.400 . S
C1849 C1850 1.398 . S
C1849 C1855 1.491 . S
C1850 H1841 0.950 . S
C1850 C1849 1.398 . S
C1850 C1851 1.391 . S
C1851 H1839 0.950 . S
C1851 C1847 1.393 . S
C1851 C1850 1.391 . S
C1852 H1842 0.950 . S
C1852 C1853 1.386 . S
C1852 C1854 1.391 . S
C1853 C1852 1.386 . S
C1853 C1857 1.393 . S
C1854 H1843 0.950 . S
C1854 C1852 1.391 . S
C1854 C1855 1.400 . S
C1855 C1849 1.491 . S
C1855 C1854 1.400 . S
C1855 C1856 1.398 . S
C1856 H1844 0.950 . S
C1856 C1855 1.398 . S
C1856 C1857 1.391 . S
C1857 H1845 0.950 . S
C1857 C1853 1.393 . S
C1857 C1856 1.391 . S
H1858 C1866 0.950 . S
H1859 C1871 0.950 . S
H1860 C1868 0.950 . S
H1861 C1870 0.950 . S
H1862 C1872 0.950 . S
H1863 C1874 0.950 . S
H1864 C1876 0.950 . S
H1865 C1877 0.950 . S
C1866 H1858 0.950 . S
C1866 C1867 1.386 . S
C1866 C1868 1.391 . S
C1867 C1866 1.386 . S
C1867 C1871 1.393 . S
C1868 H1860 0.950 . S
C1868 C1866 1.391 . S
C1868 C1869 1.400 . S
C1869 C1868 1.400 . S
C1869 C1870 1.398 . S
C1869 C1875 1.491 . S
C1870 H1861 0.950 . S
C1870 C1869 1.398 . S
C1870 C1871 1.391 . S
C1871 H1859 0.950 . S
C1871 C1867 1.393 . S
C1871 C1870 1.391 . S
C1872 H1862 0.950 . S
C1872 C1873 1.386 . S
C1872 C1874 1.391 . S
C1873 C1872 1.386 . S
C1873 C1877 1.393 . S
C1874 H1863 0.950 . S
C1874 C1872 1.391 . S
C1874 C1875 1.400 . S
C1875 C1869 1.491 . S
C1875 C1874 1.400 . S
C1875 C1876 1.398 . S
C1876 H1864 0.950 . S
C1876 C1875 1.398 . S
C1876 C1877 1.391 . S
C1877 H1865 0.950 . S
C1877 C1873 1.393 . S
C1877 C1876 1.391 . S
H1878 C1886 0.950 . S
H1879 C1891 0.950 . S
H1880 C1888 0.950 . S
H1881 C1890 0.950 . S
H1882 C1892 0.950 . S
H1883 C1894 0.950 . S
H1884 C1896 0.950 . S
H1885 C1897 0.950 . S
C1886 H1878 0.950 . S
C1886 C1887 1.386 . S
C1886 C1888 1.391 . S
C1887 C1886 1.386 . S
C1887 C1891 1.393 . S
C1888 H1880 0.950 . S
C1888 C1886 1.391 . S
C1888 C1889 1.400 . S
C1889 C1888 1.400 . S
C1889 C1890 1.398 . S
C1889 C1895 1.491 . S
C1890 H1881 0.950 . S
C1890 C1889 1.398 . S
C1890 C1891 1.391 . S
C1891 H1879 0.950 . S
C1891 C1887 1.393 . S
C1891 C1890 1.391 . S
C1892 H1882 0.950 . S
C1892 C1893 1.386 . S
C1892 C1894 1.391 . S
C1893 C1892 1.386 . S
C1893 C1897 1.393 . S
C1894 H1883 0.950 . S
C1894 C1892 1.391 . S
C1894 C1895 1.400 . S
C1895 C1889 1.491 . S
C1895 C1894 1.400 . S
C1895 C1896 1.398 . S
C1896 H1884 0.950 . S
C1896 C1895 1.398 . S
C1896 C1897 1.391 . S
C1897 H1885 0.950 . S
C1897 C1893 1.393 . S
C1897 C1896 1.391 . S
H1898 C1906 0.950 . S
H1899 C1911 0.950 . S
H1900 C1908 0.950 . S
H1901 C1910 0.950 . S
H1902 C1912 0.950 . S
H1903 C1914 0.950 . S
H1904 C1916 0.950 . S
H1905 C1917 0.950 . S
C1906 H1898 0.950 . S
C1906 C1907 1.386 . S
C1906 C1908 1.391 . S
C1907 C1906 1.386 . S
C1907 C1911 1.393 . S
C1908 H1900 0.950 . S
C1908 C1906 1.391 . S
C1908 C1909 1.400 . S
C1909 C1908 1.400 . S
C1909 C1910 1.398 . S
C1909 C1915 1.491 . S
C1910 H1901 0.950 . S
C1910 C1909 1.398 . S
C1910 C1911 1.391 . S
C1911 H1899 0.950 . S
C1911 C1907 1.393 . S
C1911 C1910 1.391 . S
C1912 H1902 0.950 . S
C1912 C1913 1.386 . S
C1912 C1914 1.391 . S
C1913 C1912 1.386 . S
C1913 C1917 1.393 . S
C1914 H1903 0.950 . S
C1914 C1912 1.391 . S
C1914 C1915 1.400 . S
C1915 C1909 1.491 . S
C1915 C1914 1.400 . S
C1915 C1916 1.398 . S
C1916 H1904 0.950 . S
C1916 C1915 1.398 . S
C1916 C1917 1.391 . S
C1917 H1905 0.950 . S
C1917 C1913 1.393 . S
C1917 C1916 1.391 . S
H1918 C1926 0.950 . S
H1919 C1931 0.950 . S
H1920 C1928 0.950 . S
H1921 C1930 0.950 . S
H1922 C1932 0.950 . S
H1923 C1934 0.950 . S
H1924 C1936 0.950 . S
H1925 C1937 0.950 . S
C1926 H1918 0.950 . S
C1926 C1927 1.386 . S
C1926 C1928 1.391 . S
C1927 C1926 1.386 . S
C1927 C1931 1.393 . S
C1928 H1920 0.950 . S
C1928 C1926 1.391 . S
C1928 C1929 1.400 . S
C1929 C1928 1.400 . S
C1929 C1930 1.398 . S
C1929 C1935 1.491 . S
C1930 H1921 0.950 . S
C1930 C1929 1.398 . S
C1930 C1931 1.391 . S
C1931 H1919 0.950 . S
C1931 C1927 1.393 . S
C1931 C1930 1.391 . S
C1932 H1922 0.950 . S
C1932 C1933 1.386 . S
C1932 C1934 1.391 . S
C1933 C1932 1.386 . S
C1933 C1937 1.393 . S
C1934 H1923 0.950 . S
C1934 C1932 1.391 . S
C1934 C1935 1.400 . S
C1935 C1929 1.491 . S
C1935 C1934 1.400 . S
C1935 C1936 1.398 . S
C1936 H1924 0.950 . S
C1936 C1935 1.398 . S
C1936 C1937 1.391 . S
C1937 H1925 0.950 . S
C1937 C1933 1.393 . S
C1937 C1936 1.391 . S
H1938 C1946 0.957 . S
H1939 C1951 0.950 . S
H1940 C1948 0.950 . S
H1941 C1950 0.950 . S
H1942 C1952 0.950 . S
H1943 C1954 0.950 . S
H1944 C1956 0.950 . S
H1945 C1957 0.950 . S
C1946 H1938 0.957 . S
C1946 C1947 1.364 1_455 S
C1946 C1948 1.406 . S
C1947 C1946 1.364 1_655 S
C1947 C1951 1.393 . S
C1948 H1940 0.950 . S
C1948 C1946 1.406 . S
C1948 C1949 1.400 1_455 S
C1949 C1948 1.400 1_655 S
C1949 C1950 1.398 . S
C1949 C1955 1.491 . S
C1950 H1941 0.950 . S
C1950 C1949 1.398 . S
C1950 C1951 1.391 . S
C1951 H1939 0.950 . S
C1951 C1947 1.393 . S
C1951 C1950 1.391 . S
C1952 H1942 0.950 . S
C1952 C1953 1.386 . S
C1952 C1954 1.391 . S
C1953 C1952 1.386 . S
C1953 C1957 1.393 1_655 S
C1954 H1943 0.950 . S
C1954 C1952 1.391 . S
C1954 C1955 1.400 . S
C1955 C1949 1.491 . S
C1955 C1954 1.400 . S
C1955 C1956 1.398 1_655 S
C1956 H1944 0.950 . S
C1956 C1955 1.398 1_455 S
C1956 C1957 1.391 . S
C1957 H1945 0.950 . S
C1957 C1953 1.393 1_455 S
C1957 C1956 1.391 . S
H1958 C1966 0.950 . S
H1959 C1971 0.950 . S
H1960 C1968 0.950 . S
H1961 C1970 0.950 . S
H1962 C1972 0.950 . S
H1963 C1974 0.950 . S
H1964 C1976 0.950 . S
H1965 C1977 0.950 . S
C1966 H1958 0.950 . S
C1966 C1967 1.386 . S
C1966 C1968 1.391 . S
C1967 C1966 1.386 . S
C1967 C1971 1.393 . S
C1968 H1960 0.950 . S
C1968 C1966 1.391 . S
C1968 C1969 1.400 . S
C1969 C1968 1.400 . S
C1969 C1970 1.398 . S
C1969 C1975 1.491 . S
C1970 H1961 0.950 . S
C1970 C1969 1.398 . S
C1970 C1971 1.391 . S
C1971 H1959 0.950 . S
C1971 C1967 1.393 . S
C1971 C1970 1.391 . S
C1972 H1962 0.950 . S
C1972 C1973 1.386 . S
C1972 C1974 1.391 . S
C1973 C1972 1.386 . S
C1973 C1977 1.393 . S
C1974 H1963 0.950 . S
C1974 C1972 1.391 . S
C1974 C1975 1.400 . S
C1975 C1969 1.491 . S
C1975 C1974 1.400 . S
C1975 C1976 1.398 . S
C1976 H1964 0.950 . S
C1976 C1975 1.398 . S
C1976 C1977 1.391 . S
C1977 H1965 0.950 . S
C1977 C1973 1.393 . S
C1977 C1976 1.391 . S
H1978 C1986 0.950 . S
H1979 C1991 0.950 . S
H1980 C1988 0.950 . S
H1981 C1990 0.950 . S
H1982 C1992 0.950 . S
H1983 C1994 0.950 . S
H1984 C1996 0.950 . S
H1985 C1997 0.950 . S
C1986 H1978 0.950 . S
C1986 C1987 1.386 1_565 S
C1986 C1988 1.391 . S
C1987 C1986 1.386 1_545 S
C1987 C1991 1.393 . S
C1988 H1980 0.950 . S
C1988 C1986 1.391 . S
C1988 C1989 1.400 1_565 S
C1989 C1988 1.400 1_545 S
C1989 C1990 1.398 . S
C1989 C1995 1.491 . S
C1990 H1981 0.950 . S
C1990 C1989 1.398 . S
C1990 C1991 1.391 . S
C1991 H1979 0.950 . S
C1991 C1987 1.393 . S
C1991 C1990 1.391 . S
C1992 H1982 0.950 . S
C1992 C1993 1.403 . S
C1992 C1994 1.391 . S
C1993 C1992 1.403 . S
C1993 C1997 1.361 1_545 S
C1994 H1983 0.950 . S
C1994 C1992 1.391 . S
C1994 C1995 1.400 . S
C1995 C1989 1.491 . S
C1995 C1994 1.400 . S
C1995 C1996 1.398 1_545 S
C1996 H1984 0.950 . S
C1996 C1995 1.398 1_565 S
C1996 C1997 1.391 . S
C1997 H1985 0.950 . S
C1997 C1993 1.361 1_565 S
C1997 C1996 1.391 . S
C567 C8 1.476 . S
C573 C403 1.535 . S
C587 C18 1.510 . S
C593 C428 1.544 . S
C613 C439 1.553 . S
C607 C31 1.529 . S
C627 C34 1.536 . S
C633 C464 1.564 . S
C647 C5 1.519 . S
C653 C482 1.563 . S
C667 C21 1.500 . S
C673 C493 1.543 . S
C687 C47 1.498 . S
C693 C475 1.559 . S
C713 C500 1.546 . S
C707 C57 1.505 . S
C733 C457 1.559 . S
C727 C70 1.531 . S
C747 C73 1.475 . S
C753 C446 1.535 1_545 S
C773 C410 1.536 1_655 S
C767 C44 1.524 . S
C787 C60 1.493 . S
C793 C421 1.544 . S
C807 C86 1.553 . S
C813 C511 1.595 . S
C827 C96 1.545 . S
C833 C536 1.570 . S
C853 C547 1.596 . S
C847 C109 1.599 . S
C867 C112 1.586 . S
C873 C248 1.618 . S
C887 C83 1.597 . S
C893 C266 1.603 . S
C907 C99 1.526 . S
C913 C277 1.565 . S
C927 C125 1.511 . S
C933 C259 1.556 . S
C947 C135 1.515 . S
C953 C284 1.548 . S
C973 C241 1.571 . S
C967 C148 1.548 . S
C993 C554 1.616 . S
C987 C151 1.568 . S
C1013 C518 1.557 . S
C1007 C122 1.533 . S
C1033 C529 1.581 . S
C1027 C138 1.535 . S
C1047 C164 1.520 . S
C1053 C295 1.555 . S
C1067 C174 1.527 . S
C1073 C320 1.565 . S
C1087 C187 1.577 . S
C1093 C331 1.582 . S
C1107 C190 1.608 . S
C1113 C356 1.641 . S
C1133 C374 1.603 . S
C1127 C161 1.587 . S
C1153 C385 1.580 . S
C1147 C177 1.539 . S
C1173 C367 1.574 . S
C1167 C203 1.516 . S
C1193 C392 1.555 . S
C1187 C213 1.517 . S
C1207 C226 1.547 . S
C1213 C349 1.577 . S
C1233 C338 1.576 . S
C1227 C229 1.522 . S
C1247 C200 1.549 . S
C1253 C302 1.570 . S
C1273 C313 1.574 . S
C1267 C216 1.527 . S
C1293 C250 1.308 . S
C1287 C0 1.354 . S
C1307 C23 1.334 . S
C1313 C268 1.264 . S
C1333 C278 1.307 . S
C1327 C36 1.389 . S
C1353 C296 1.339 . S
C1347 C26 1.380 . S
C1373 C322 1.300 . S
C1367 C10 1.365 . S
C1393 C332 1.260 . S
C1387 C13 1.312 . S
C1407 C39 1.391 . S
C1413 C340 1.349 . S
C1427 C62 1.367 . S
C1433 C304 1.279 . S
C1447 C75 1.396 . S
C1453 C314 1.307 . S
C1467 C65 1.422 . S
C1473 C260 1.375 . S
C1493 C286 1.268 . S
C1487 C49 1.384 . S
C1507 C52 1.354 . S
C1513 C242 1.298 . S
C1533 C358 1.304 . S
C1527 C78 1.335 . S
C1547 C101 1.391 . S
C1553 C376 1.306 . S
C1567 C114 1.424 . S
C1573 C386 1.361 . S
C1593 C404 1.277 . S
C1587 C104 1.329 . S
C1607 C88 1.354 . S
C1613 C430 1.281 . S
C1627 C91 1.269 . S
C1633 C440 1.232 . S
C1647 C117 1.296 . S
C1653 C448 1.226 . S
C1667 C140 1.311 . S
C1673 C412 1.220 1_655 S
C1693 C422 1.343 . S
C1687 C153 1.406 . S
C1707 C143 1.391 . S
C1713 C368 1.367 . S
C1727 C127 1.436 . S
C1733 C394 1.316 . S
C1753 C350 1.345 . S
C1747 C130 1.382 . S
C1773 C466 1.240 . S
C1767 C156 1.299 . S
C1787 C179 1.291 . S
C1793 C484 1.225 . S
C1807 C192 1.379 . S
C1813 C494 1.320 . S
C1833 C512 1.319 . S
C1827 C182 1.337 . S
C1853 C538 1.315 . S
C1847 C166 1.404 . S
C1867 C169 1.375 . S
C1873 C548 1.318 . S
C1887 C195 1.368 . S
C1893 C556 1.327 . S
C1907 C218 1.425 . S
C1913 C520 1.310 . S
C1933 C530 1.354 . S
C1927 C231 1.432 . S
C1953 C476 1.297 1_655 S
C1947 C221 1.322 . S
C1973 C502 1.272 . S
C1967 C205 1.382 . S
C1987 C208 1.276 . S
C1993 C458 1.269 1_545 S
