# Generated by pormake.
# Topology dag, (6,3)-cn, num edge types: 1
# Building blocks:
#     Node 0, Type 0, BuildingBlock: OJICUG_clean_sbu_0, # of connection points: 6
#     Node 1, Type 0, BuildingBlock: OJICUG_clean_sbu_0, # of connection points: 6
#     Node 2, Type 0, BuildingBlock: OJICUG_clean_sbu_0, # of connection points: 6
#     Node 3, Type 0, BuildingBlock: OJICUG_clean_sbu_0, # of connection points: 6
#     Node 4, Type 1, BuildingBlock: MIDCAF_clean_linker_0, # of connection points: 3
#     Node 5, Type 1, BuildingBlock: MIDCAF_clean_linker_0, # of connection points: 3
#     Node 6, Type 1, BuildingBlock: MIDCAF_clean_linker_0, # of connection points: 3
#     Node 7, Type 1, BuildingBlock: MIDCAF_clean_linker_0, # of connection points: 3
#     Node 8, Type 1, BuildingBlock: MIDCAF_clean_linker_0, # of connection points: 3
#     Node 9, Type 1, BuildingBlock: MIDCAF_clean_linker_0, # of connection points: 3
#     Node 10, Type 1, BuildingBlock: MIDCAF_clean_linker_0, # of connection points: 3
#     Node 11, Type 1, BuildingBlock: MIDCAF_clean_linker_0, # of connection points: 3
#     Edge 12, Type (0, 1), None
#     Edge 13, Type (0, 1), None
#     Edge 14, Type (0, 1), None
#     Edge 15, Type (0, 1), None
#     Edge 16, Type (0, 1), None
#     Edge 17, Type (0, 1), None
#     Edge 18, Type (0, 1), None
#     Edge 19, Type (0, 1), None
#     Edge 20, Type (0, 1), None
#     Edge 21, Type (0, 1), None
#     Edge 22, Type (0, 1), None
#     Edge 23, Type (0, 1), None
#     Edge 24, Type (0, 1), None
#     Edge 25, Type (0, 1), None
#     Edge 26, Type (0, 1), None
#     Edge 27, Type (0, 1), None
#     Edge 28, Type (0, 1), None
#     Edge 29, Type (0, 1), None
#     Edge 30, Type (0, 1), None
#     Edge 31, Type (0, 1), None
#     Edge 32, Type (0, 1), None
#     Edge 33, Type (0, 1), None
#     Edge 34, Type (0, 1), None
#     Edge 35, Type (0, 1), None
# Relax obj value: 0.257
# Max RMSD: 0.202
# Mean RMSD: 0.166
data_MOF--net-dag--node1-OJICUG_clean_sbu_0--node2-MIDCAF_clean_linker_0--edge1-none
_symmetry_space_group_name_H-M    P1
_symmetry_Int_Tables_number       1
_symmetry_cell_setting            triclinic
loop_
_symmetry_equiv_pos_as_xyz
'x, y, z'
_cell_length_a     25.77444
_cell_length_b     24.04093
_cell_length_c     24.810266
_cell_angle_alpha  89.822396
_cell_angle_beta   95.968714
_cell_angle_gamma 89.835693
loop_
_atom_site_label
_atom_site_type_symbol
_atom_site_fract_x
_atom_site_fract_y
_atom_site_fract_z
_atom_type_partial_charge
Sc0 Sc 0.1162 0.88892 0.04411 0.0
Sc1 Sc 0.1424 0.77523 0.96416 0.0
Sc2 Sc 0.24497 0.86489 0.01671 0.0
O3 O 0.16796 0.84305 0.00791 0.0
C4 C 0.19285 0.9831 0.00546 0.0
C5 C 0.05732 0.86829 0.92632 0.0
C6 C 0.23106 0.82057 0.89492 0.0
C7 C 0.06774 0.76832 0.05743 0.0
C8 C 0.21022 0.88605 0.13538 0.0
C9 C 0.24595 0.73304 0.03468 0.0
O10 O 0.15247 0.96615 0.02582 0.0
O11 O 0.08074 0.82258 0.91862 0.0
O12 O 0.25613 0.84799 0.93284 0.0
O13 O 0.07338 0.81917 0.06968 0.0
O14 O 0.245 0.88577 0.10241 0.0
O15 O 0.20202 0.72416 0.00747 0.0
O16 O 0.16184 0.88299 0.12021 0.0
O17 O 0.08973 0.74593 0.01967 0.0
O18 O 0.26633 0.78117 0.04067 0.0
O19 O 0.06638 0.89688 0.96941 0.0
O20 O 0.22907 0.95058 0.99394 0.0
O21 O 0.19017 0.79345 0.9015 0.0
Sc22 Sc 0.7449 0.63822 0.52013 0.0
Sc23 Sc 0.64227 0.72736 0.46473 0.0
Sc24 Sc 0.61544 0.6133 0.54437 0.0
O25 O 0.66766 0.65959 0.50936 0.0
C26 C 0.6943 0.51962 0.50861 0.0
C27 C 0.73296 0.68218 0.39798 0.0
C28 C 0.55896 0.6338 0.42534 0.0
C29 C 0.74412 0.77011 0.53699 0.0
C30 C 0.70753 0.61718 0.6378 0.0
C31 C 0.56529 0.73364 0.55584 0.0
O32 O 0.73056 0.55235 0.49799 0.0
O33 O 0.69174 0.70936 0.40356 0.0
O34 O 0.56739 0.60515 0.46866 0.0
O35 O 0.76497 0.72211 0.54355 0.0
O36 O 0.65936 0.6194 0.62132 0.0
O37 O 0.58797 0.75627 0.51864 0.0
O38 O 0.74324 0.61787 0.6059 0.0
O39 O 0.70044 0.77879 0.50906 0.0
O40 O 0.57115 0.68278 0.56842 0.0
O41 O 0.75756 0.65478 0.43649 0.0
O42 O 0.65305 0.53629 0.52756 0.0
O43 O 0.582 0.67974 0.41806 0.0
Sc44 Sc 0.83685 0.228 0.09834 0.0
Sc45 Sc 0.73428 0.13834 0.04579 0.0
Sc46 Sc 0.86304 0.11431 0.01839 0.0
O47 O 0.81129 0.16018 0.05459 0.0
C48 C 0.91151 0.2349 0.00506 0.0
C49 C 0.7333 0.27019 0.02782 0.0
C50 C 0.76902 0.11719 0.92712 0.0
C51 C 0.74819 0.18266 0.16758 0.0
C52 C 0.92193 0.13494 0.13617 0.0
C53 C 0.7864 0.02013 0.05704 0.0
O54 O 0.88952 0.2573 0.04283 0.0
O55 O 0.71292 0.22206 0.02183 0.0
O56 O 0.8174 0.12024 0.94229 0.0
O57 O 0.78909 0.20978 0.161 0.0
O58 O 0.91287 0.10635 0.09308 0.0
O59 O 0.75018 0.05265 0.06856 0.0
O60 O 0.89851 0.18065 0.14387 0.0
O61 O 0.72313 0.15525 0.12966 0.0
O62 O 0.82678 0.03708 0.03668 0.0
O63 O 0.77723 0.27907 0.05503 0.0
O64 O 0.90587 0.18406 0.99281 0.0
O65 O 0.73425 0.11746 0.96009 0.0
Sc66 Sc 0.36381 0.38994 0.51813 0.0
Sc67 Sc 0.23435 0.36502 0.54237 0.0
Sc68 Sc 0.33698 0.27588 0.59777 0.0
O69 O 0.3116 0.34364 0.55315 0.0
C70 C 0.41396 0.2696 0.50665 0.0
C71 C 0.27172 0.38608 0.42471 0.0
C72 C 0.23513 0.23313 0.52551 0.0
C73 C 0.28496 0.48362 0.5539 0.0
C74 C 0.4203 0.36943 0.63716 0.0
C75 C 0.2463 0.32105 0.66452 0.0
O76 O 0.4081 0.32046 0.49408 0.0
O77 O 0.23601 0.38538 0.45661 0.0
O78 O 0.27881 0.22445 0.55344 0.0
O79 O 0.32621 0.46695 0.53495 0.0
O80 O 0.39725 0.3235 0.64444 0.0
O81 O 0.2217 0.34845 0.62601 0.0
O82 O 0.41186 0.39808 0.59384 0.0
O83 O 0.2487 0.45089 0.56452 0.0
O84 O 0.28752 0.29387 0.65894 0.0
O85 O 0.31989 0.38385 0.44118 0.0
O86 O 0.39128 0.24696 0.54385 0.0
O87 O 0.21429 0.28114 0.51895 0.0
C88 C 0.98692 0.06268 0.17159 0.0
C89 C 0.96224 0.11403 0.17852 0.0
C90 C 0.97743 0.14519 0.22541 0.0
C91 C 0.01773 0.12633 0.26337 0.0
H92 H 0.10092 0.16235 0.40831 0.0
H93 H 0.13573 0.22865 0.47588 0.0
H94 H 0.27878 0.13343 0.50133 0.0
H95 H 0.24399 0.06682 0.43335 0.0
H96 H 0.25246 0.02452 0.25411 0.0
H97 H 0.27268 0.97037 0.17577 0.0
H98 H 0.17286 0.8388 0.22236 0.0
H99 H 0.15221 0.89328 0.29992 0.0
H100 H 0.0457 0.00471 0.20177 0.0
H101 H 0.97598 0.03712 0.13638 0.0
H102 H 0.95904 0.18473 0.23227 0.0
H103 H 0.0295 0.15209 0.29822 0.0
N104 N 0.10624 0.08759 0.33695 0.0
N105 N 0.1829 0.03364 0.35034 0.0
N106 N 0.12099 0.01692 0.27605 0.0
C107 C 0.15203 0.07498 0.36704 0.0
C108 C 0.16683 0.00405 0.30524 0.0
C109 C 0.09044 0.05868 0.29135 0.0
C110 C 0.17014 0.10988 0.41432 0.0
C111 C 0.13953 0.1549 0.42873 0.0
C112 C 0.15945 0.19299 0.4677 0.0
C113 C 0.21034 0.18685 0.49338 0.0
C114 C 0.23945 0.13948 0.48217 0.0
C115 C 0.21958 0.10142 0.4429 0.0
C116 C 0.2004 0.96304 0.28235 0.0
C117 C 0.23804 0.9823 0.24978 0.0
C118 C 0.24968 0.95122 0.20489 0.0
C119 C 0.22338 0.90106 0.19259 0.0
C120 C 0.19341 0.87756 0.23098 0.0
C121 C 0.18161 0.90867 0.27547 0.0
C122 C 0.04369 0.07596 0.25517 0.0
C123 C 0.02702 0.04393 0.20935 0.0
C124 C 0.3072 0.58153 0.53425 0.0
C125 C 0.28091 0.54372 0.56492 0.0
C126 C 0.2556 0.56357 0.60854 0.0
C127 C 0.2609 0.61941 0.62431 0.0
H128 H 0.21232 0.76297 0.71677 0.0
H129 H 0.17839 0.7826 0.80191 0.0
H130 H 0.32765 0.85002 0.86555 0.0
H131 H 0.36183 0.83048 0.77901 0.0
H132 H 0.46562 0.75793 0.69661 0.0
H133 H 0.54856 0.73537 0.66209 0.0
H134 H 0.48921 0.79835 0.50452 0.0
H135 H 0.40545 0.81838 0.53853 0.0
H136 H 0.33489 0.66427 0.52641 0.0
H137 H 0.32607 0.56765 0.49961 0.0
H138 H 0.23476 0.53529 0.63261 0.0
H139 H 0.24421 0.63271 0.66046 0.0
N140 N 0.28861 0.73101 0.6641 0.0
N141 N 0.35688 0.79604 0.67702 0.0
N142 N 0.35294 0.73325 0.60461 0.0
C143 C 0.31164 0.77466 0.69203 0.0
C144 C 0.37674 0.77617 0.63225 0.0
C145 C 0.30916 0.71001 0.62029 0.0
C146 C 0.29 0.79421 0.74147 0.0
C147 C 0.23791 0.78242 0.74863 0.0
C148 C 0.21846 0.79375 0.79763 0.0
C149 C 0.25066 0.81687 0.84105 0.0
C150 C 0.30197 0.8319 0.83299 0.0
C151 C 0.32149 0.82074 0.78345 0.0
C152 C 0.42955 0.78994 0.62011 0.0
C153 C 0.47143 0.76996 0.65554 0.0
C154 C 0.51861 0.75652 0.63567 0.0
C155 C 0.52472 0.7646 0.58062 0.0
C156 C 0.48541 0.79208 0.5472 0.0
C157 C 0.43766 0.80389 0.56667 0.0
C158 C 0.29132 0.65607 0.59638 0.0
C159 C 0.31206 0.63707 0.54956 0.0
C160 C 0.72117 0.70777 0.30025 0.0
C161 C 0.75331 0.68564 0.34448 0.0
C162 C 0.80514 0.67145 0.33749 0.0
C163 C 0.82517 0.6826 0.28816 0.0
H164 H 0.97011 0.74492 0.19989 0.0
H165 H 0.05249 0.76694 0.1641 0.0
H166 H -0.00823 0.70304 0.00787 0.0
H167 H 0.90859 0.68349 0.04315 0.0
H168 H 0.83897 0.8399 0.0309 0.0
H169 H 0.82893 0.93646 0.0035 0.0
H170 H 0.7371 0.96791 0.13626 0.0
H171 H 0.74769 0.8705 0.1646 0.0
H172 H 0.71554 0.73786 0.21897 0.0
H173 H 0.68073 0.71818 0.30371 0.0
H174 H 0.83078 0.65409 0.37071 0.0
H175 H 0.86586 0.67365 0.2845 0.0
N176 N 0.86084 0.70666 0.18125 0.0
N177 N 0.85703 0.77017 0.10901 0.0
N178 N 0.79258 0.77222 0.16834 0.0
C179 C 0.88076 0.72683 0.13656 0.0
C180 C 0.81321 0.79352 0.12467 0.0
C181 C 0.81557 0.7282 0.19621 0.0
C182 C 0.9334 0.71249 0.12415 0.0
C183 C 0.97554 0.73253 0.15888 0.0
C184 C 0.0224 0.74565 0.13828 0.0
C185 C 0.02793 0.73723 0.08319 0.0
C186 C 0.98845 0.70957 0.05057 0.0
C187 C 0.94101 0.69805 0.07077 0.0
C188 C 0.79516 0.84763 0.10071 0.0
C189 C 0.81581 0.8669 0.05388 0.0
C190 C 0.81024 0.92242 0.03825 0.0
C191 C 0.78341 0.95999 0.06864 0.0
C192 C 0.75836 0.93986 0.11239 0.0
C193 C 0.76433 0.88403 0.12845 0.0
C194 C 0.79364 0.70828 0.24539 0.0
C195 C 0.74111 0.7191 0.25149 0.0
C196 C 0.73574 0.36456 0.98511 0.0
C197 C 0.70761 0.31644 0.99583 0.0
C198 C 0.65695 0.30974 0.96985 0.0
C199 C 0.63638 0.3481 0.93108 0.0
H200 H 0.52651 0.35164 0.80021 0.0
H201 H 0.45738 0.31875 0.73327 0.0
H202 H 0.47175 0.46857 0.63912 0.0
H203 H 0.54013 0.50123 0.70549 0.0
H204 H 0.64522 0.61159 0.80025 0.0
H205 H 0.66718 0.66521 0.72246 0.0
H206 H 0.77039 0.53394 0.68149 0.0
H207 H 0.74895 0.48069 0.76021 0.0
H208 H 0.73894 0.43811 0.93693 0.0
H209 H 0.77485 0.3711 0.00452 0.0
H210 H 0.63395 0.2735 0.97765 0.0
H211 H 0.59802 0.34024 0.91038 0.0
N212 N 0.60181 0.41682 0.84 0.0
N213 N 0.61582 0.48835 0.77942 0.0
N214 N 0.67797 0.47098 0.85352 0.0
C215 C 0.58569 0.44622 0.79455 0.0
C216 C 0.66156 0.5011 0.80862 0.0
C217 C 0.64749 0.42933 0.87011 0.0
C218 C 0.53933 0.42888 0.75808 0.0
C219 C 0.51441 0.37784 0.76556 0.0
C220 C 0.47488 0.35885 0.72703 0.0
C221 C 0.45948 0.39053 0.68028 0.0
C222 C 0.48296 0.44258 0.67416 0.0
C223 C 0.52227 0.46148 0.71249 0.0
C224 C 0.69504 0.54204 0.78556 0.0
C225 C 0.67555 0.59613 0.77702 0.0
C226 C 0.68812 0.62675 0.7324 0.0
C227 C 0.71952 0.60301 0.69547 0.0
C228 C 0.74629 0.55325 0.70949 0.0
C229 C 0.73394 0.52269 0.75457 0.0
C230 C 0.66609 0.39394 0.91717 0.0
C231 C 0.71523 0.40288 0.94606 0.0
C232 C 0.49383 0.21116 0.5153 0.0
C233 C 0.45453 0.23864 0.48187 0.0
C234 C 0.46065 0.24672 0.42683 0.0
C235 C 0.50783 0.23327 0.40697 0.0
H236 H 0.61743 0.17277 0.28349 0.0
H237 H 0.6516 0.15322 0.19696 0.0
H238 H 0.80087 0.22063 0.26059 0.0
H239 H 0.76694 0.24028 0.34573 0.0
H240 H 0.73506 0.37053 0.40205 0.0
H241 H 0.74451 0.46795 0.4299 0.0
H242 H 0.6532 0.43559 0.56291 0.0
H243 H 0.64438 0.33896 0.5361 0.0
H244 H 0.57379 0.18486 0.524 0.0
H245 H 0.49002 0.20489 0.55798 0.0
H246 H 0.4307 0.26786 0.4004 0.0
H247 H 0.51363 0.24531 0.36589 0.0
N248 N 0.62238 0.20721 0.38549 0.0
N249 N 0.69065 0.27224 0.39841 0.0
N250 N 0.62633 0.26998 0.4579 0.0
C251 C 0.66762 0.22859 0.37047 0.0
C252 C 0.67011 0.29323 0.44222 0.0
C253 C 0.60253 0.22708 0.43026 0.0
C254 C 0.68926 0.20903 0.32103 0.0
C255 C 0.65777 0.18251 0.27905 0.0
C256 C 0.67729 0.17134 0.22951 0.0
C257 C 0.7286 0.18637 0.22145 0.0
C258 C 0.7608 0.20949 0.26487 0.0
C259 C 0.74135 0.22082 0.31387 0.0
C260 C 0.68795 0.34717 0.46613 0.0
C261 C 0.71836 0.38383 0.43819 0.0
C262 C 0.72367 0.43967 0.45397 0.0
C263 C 0.69835 0.45952 0.49759 0.0
C264 C 0.67207 0.4217 0.52826 0.0
C265 C 0.66721 0.36616 0.51295 0.0
C266 C 0.54972 0.21331 0.44241 0.0
C267 C 0.54159 0.19935 0.49583 0.0
C268 C 0.25808 0.29545 0.76225 0.0
C269 C 0.22594 0.31759 0.71803 0.0
C270 C 0.17412 0.33179 0.72502 0.0
C271 C 0.15409 0.32064 0.77435 0.0
H272 H 0.00915 0.2583 0.8626 0.0
H273 H 0.92676 0.23628 0.89839 0.0
H274 H 0.98747 0.3002 0.05462 0.0
H275 H 0.07065 0.31975 0.01934 0.0
H276 H 0.14027 0.16333 0.0316 0.0
H277 H 0.15031 0.06677 0.05899 0.0
H278 H 0.24215 0.03533 0.92625 0.0
H279 H 0.23156 0.13273 0.89791 0.0
H280 H 0.26372 0.26536 0.84353 0.0
H281 H 0.29853 0.28503 0.7588 0.0
H282 H 0.14848 0.34915 0.6918 0.0
H283 H 0.1134 0.3296 0.77801 0.0
N284 N 0.11841 0.29658 0.88125 0.0
N285 N 0.12222 0.23306 0.95349 0.0
N286 N 0.18667 0.23101 0.89416 0.0
C287 C 0.09849 0.2764 0.92593 0.0
C288 C 0.16603 0.20971 0.93783 0.0
C289 C 0.16368 0.27503 0.86629 0.0
C290 C 0.04585 0.29074 0.93835 0.0
C291 C 0.00371 0.27069 0.90361 0.0
C292 C 0.95685 0.25757 0.92421 0.0
C293 C 0.95132 0.266 0.9793 0.0
C294 C -0.0092 0.29367 0.01192 0.0
C295 C 0.03823 0.30519 0.99172 0.0
C296 C 0.18408 0.15561 0.9618 0.0
C297 C 0.16343 0.13633 0.00862 0.0
C298 C 0.169 0.08081 0.02425 0.0
C299 C 0.19584 0.04324 0.99386 0.0
C300 C 0.22089 0.06337 0.95011 0.0
C301 C 0.21492 0.11921 0.93405 0.0
C302 C 0.18561 0.29495 0.81712 0.0
C303 C 0.23814 0.28412 0.81102 0.0
C304 C 0.3223 0.69349 0.09264 0.0
C305 C 0.27164 0.68679 0.06667 0.0
C306 C 0.24351 0.63867 0.07739 0.0
C307 C 0.26402 0.60035 0.11645 0.0
H308 H 0.23036 0.52259 0.30236 0.0
H309 H 0.20891 0.46936 0.38106 0.0
H310 H 0.312 0.338 0.34002 0.0
H311 H 0.33396 0.39162 0.26221 0.0
H312 H 0.43911 0.50201 0.35702 0.0
H313 H 0.5075 0.53466 0.42339 0.0
H314 H 0.52189 0.68448 0.32923 0.0
H315 H 0.45275 0.65159 0.26229 0.0
H316 H 0.38123 0.66299 0.15212 0.0
H317 H 0.3453 0.72973 0.08485 0.0
H318 H 0.20439 0.63213 0.05798 0.0
H319 H 0.24031 0.56512 0.12558 0.0
N320 N 0.30128 0.53226 0.20899 0.0
N321 N 0.36342 0.5149 0.28309 0.0
N322 N 0.37744 0.58642 0.2225 0.0
C323 C 0.31767 0.50215 0.2539 0.0
C324 C 0.39355 0.55702 0.26795 0.0
C325 C 0.33176 0.57391 0.19239 0.0
C326 C 0.2842 0.4612 0.27695 0.0
C327 C 0.24533 0.48058 0.30797 0.0
C328 C 0.23298 0.45002 0.35305 0.0
C329 C 0.25972 0.40024 0.36704 0.0
C330 C 0.29108 0.37648 0.33008 0.0
C331 C 0.30365 0.4071 0.28546 0.0
C332 C 0.43992 0.57435 0.30442 0.0
C333 C 0.45697 0.54176 0.35002 0.0
C334 C 0.49629 0.56065 0.38834 0.0
C335 C 0.51978 0.6127 0.38222 0.0
C336 C 0.50437 0.64438 0.33547 0.0
C337 C 0.46485 0.62539 0.29694 0.0
C338 C 0.31316 0.6093 0.14533 0.0
C339 C 0.34287 0.65514 0.13142 0.0
C340 C 0.78584 0.12568 0.83154 0.0
C341 C 0.75586 0.10217 0.86991 0.0
C342 C 0.72957 0.05201 0.85759 0.0
C343 C 0.74122 0.02095 0.8127 0.0
H344 H 0.73525 0.9364 0.62917 0.0
H345 H 0.70046 0.86979 0.56119 0.0
H346 H 0.84353 0.77461 0.58659 0.0
H347 H 0.87834 0.84091 0.65417 0.0
H348 H 0.94975 0.85114 0.76428 0.0
H349 H 0.02021 0.81849 0.83023 0.0
H350 H 0.0033 0.96612 0.9261 0.0
H351 H 0.93358 0.99854 0.8607 0.0
H352 H 0.82706 0.11 0.76262 0.0
H353 H 0.80638 0.16445 0.84017 0.0
H354 H 0.70654 0.03288 0.8867 0.0
H355 H 0.72679 0.97873 0.80837 0.0
N356 N 0.79636 0.9696 0.71215 0.0
N357 N 0.87302 0.91566 0.72554 0.0
N358 N 0.85829 0.98633 0.78644 0.0
C359 C 0.82723 0.92826 0.69545 0.0
C360 C 0.88883 0.94457 0.77113 0.0
C361 C 0.81245 0.9992 0.75725 0.0
C362 C 0.80911 0.89336 0.64818 0.0
C363 C 0.75967 0.90182 0.61961 0.0
C364 C 0.7398 0.86375 0.58034 0.0
C365 C 0.76891 0.81639 0.56912 0.0
C366 C 0.8198 0.81026 0.59479 0.0
C367 C 0.83972 0.84835 0.63375 0.0
C368 C 0.93558 0.92728 0.80731 0.0
C369 C 0.96153 0.8769 0.79912 0.0
C370 C 0.00182 0.85804 0.83708 0.0
C371 C 0.01702 0.88921 0.88397 0.0
C372 C -0.00765 0.94057 0.89089 0.0
C373 C 0.95225 0.95932 0.85313 0.0
C374 C 0.77888 0.04021 0.78015 0.0
C375 C 0.79765 0.09459 0.78704 0.0
loop_
_geom_bond_atom_site_label_1
_geom_bond_atom_site_label_2
_geom_bond_distance
_geom_bond_site_symmetry_2
_ccdc_geom_bond_type
Sc0 O3 2.025 . S
Sc0 O10 2.105 1_554 S
Sc0 O13 2.105 . S
Sc0 O16 2.105 . S
Sc0 O19 2.105 1_554 S
Sc1 O3 2.025 1_556 S
Sc1 O11 2.105 . S
Sc1 O15 2.105 1_556 S
Sc1 O17 2.105 1_556 S
Sc1 O21 2.105 . S
Sc2 O3 2.025 . S
Sc2 O12 2.105 1_554 S
Sc2 O14 2.105 . S
Sc2 O18 2.105 . S
Sc2 O20 2.105 1_554 S
O3 Sc0 2.025 . S
O3 Sc1 2.025 1_554 S
O3 Sc2 2.025 . S
C4 O10 1.268 . S
C4 O20 1.268 . S
C5 O11 1.268 . S
C5 O19 1.268 . S
C6 O12 1.268 . S
C6 O21 1.268 . S
C7 O13 1.268 . S
C7 O17 1.268 . S
C8 O14 1.268 . S
C8 O16 1.268 . S
C9 O15 1.268 . S
C9 O18 1.268 . S
O10 Sc0 2.105 1_556 S
O10 C4 1.268 . S
O11 Sc1 2.105 . S
O11 C5 1.268 . S
O12 Sc2 2.105 1_556 S
O12 C6 1.268 . S
O13 Sc0 2.105 . S
O13 C7 1.268 . S
O14 Sc2 2.105 . S
O14 C8 1.268 . S
O15 Sc1 2.105 1_554 S
O15 C9 1.268 . S
O16 Sc0 2.105 . S
O16 C8 1.268 . S
O17 Sc1 2.105 1_554 S
O17 C7 1.268 . S
O18 Sc2 2.105 . S
O18 C9 1.268 . S
O19 Sc0 2.105 1_556 S
O19 C5 1.268 . S
O20 Sc2 2.105 1_556 S
O20 C4 1.268 . S
O21 Sc1 2.105 . S
O21 C6 1.268 . S
Sc22 O25 2.025 . S
Sc22 O32 2.105 . S
Sc22 O35 2.105 . S
Sc22 O38 2.105 . S
Sc22 O41 2.105 . S
Sc23 O25 2.025 . S
Sc23 O33 2.105 . S
Sc23 O37 2.105 . S
Sc23 O39 2.105 . S
Sc23 O43 2.105 . S
Sc24 O25 2.025 . S
Sc24 O34 2.105 . S
Sc24 O36 2.105 . S
Sc24 O40 2.105 . S
Sc24 O42 2.105 . S
O25 Sc22 2.025 . S
O25 Sc23 2.025 . S
O25 Sc24 2.025 . S
C26 O32 1.268 . S
C26 O42 1.268 . S
C27 O33 1.268 . S
C27 O41 1.268 . S
C28 O34 1.268 . S
C28 O43 1.268 . S
C29 O35 1.268 . S
C29 O39 1.268 . S
C30 O36 1.268 . S
C30 O38 1.268 . S
C31 O37 1.268 . S
C31 O40 1.268 . S
O32 Sc22 2.105 . S
O32 C26 1.268 . S
O33 Sc23 2.105 . S
O33 C27 1.268 . S
O34 Sc24 2.105 . S
O34 C28 1.268 . S
O35 Sc22 2.105 . S
O35 C29 1.268 . S
O36 Sc24 2.105 . S
O36 C30 1.268 . S
O37 Sc23 2.105 . S
O37 C31 1.268 . S
O38 Sc22 2.105 . S
O38 C30 1.268 . S
O39 Sc23 2.105 . S
O39 C29 1.268 . S
O40 Sc24 2.105 . S
O40 C31 1.268 . S
O41 Sc22 2.105 . S
O41 C27 1.268 . S
O42 Sc24 2.105 . S
O42 C26 1.268 . S
O43 Sc23 2.105 . S
O43 C28 1.268 . S
Sc44 O47 2.025 . S
Sc44 O54 2.105 . S
Sc44 O57 2.105 . S
Sc44 O60 2.105 . S
Sc44 O63 2.105 . S
Sc45 O47 2.025 . S
Sc45 O55 2.105 1_554 S
Sc45 O59 2.105 . S
Sc45 O61 2.105 . S
Sc45 O65 2.105 1_554 S
Sc46 O47 2.025 . S
Sc46 O56 2.105 1_554 S
Sc46 O58 2.105 . S
Sc46 O62 2.105 . S
Sc46 O64 2.105 . S
O47 Sc44 2.025 . S
O47 Sc45 2.025 . S
O47 Sc46 2.025 . S
C48 O54 1.268 . S
C48 O64 1.268 . S
C49 O55 1.268 . S
C49 O63 1.268 1_556 S
C50 O56 1.268 . S
C50 O65 1.268 . S
C51 O57 1.268 . S
C51 O61 1.268 . S
C52 O58 1.268 . S
C52 O60 1.268 . S
C53 O59 1.268 . S
C53 O62 1.268 . S
O54 Sc44 2.105 . S
O54 C48 1.268 . S
O55 Sc45 2.105 1_556 S
O55 C49 1.268 . S
O56 Sc46 2.105 1_556 S
O56 C50 1.268 . S
O57 Sc44 2.105 . S
O57 C51 1.268 . S
O58 Sc46 2.105 . S
O58 C52 1.268 . S
O59 Sc45 2.105 . S
O59 C53 1.268 . S
O60 Sc44 2.105 . S
O60 C52 1.268 . S
O61 Sc45 2.105 . S
O61 C51 1.268 . S
O62 Sc46 2.105 . S
O62 C53 1.268 . S
O63 Sc44 2.105 . S
O63 C49 1.268 1_554 S
O64 Sc46 2.105 . S
O64 C48 1.268 . S
O65 Sc45 2.105 1_556 S
O65 C50 1.268 . S
Sc66 O69 2.025 . S
Sc66 O76 2.105 . S
Sc66 O79 2.105 . S
Sc66 O82 2.105 . S
Sc66 O85 2.105 . S
Sc67 O69 2.025 . S
Sc67 O77 2.105 . S
Sc67 O81 2.105 . S
Sc67 O83 2.105 . S
Sc67 O87 2.105 . S
Sc68 O69 2.025 . S
Sc68 O78 2.105 . S
Sc68 O80 2.105 . S
Sc68 O84 2.105 . S
Sc68 O86 2.105 . S
O69 Sc66 2.025 . S
O69 Sc67 2.025 . S
O69 Sc68 2.025 . S
C70 O76 1.268 . S
C70 O86 1.268 . S
C71 O77 1.268 . S
C71 O85 1.268 . S
C72 O78 1.268 . S
C72 O87 1.268 . S
C73 O79 1.268 . S
C73 O83 1.268 . S
C74 O80 1.268 . S
C74 O82 1.268 . S
C75 O81 1.268 . S
C75 O84 1.268 . S
O76 Sc66 2.105 . S
O76 C70 1.268 . S
O77 Sc67 2.105 . S
O77 C71 1.268 . S
O78 Sc68 2.105 . S
O78 C72 1.268 . S
O79 Sc66 2.105 . S
O79 C73 1.268 . S
O80 Sc68 2.105 . S
O80 C74 1.268 . S
O81 Sc67 2.105 . S
O81 C75 1.268 . S
O82 Sc66 2.105 . S
O82 C74 1.268 . S
O83 Sc67 2.105 . S
O83 C73 1.268 . S
O84 Sc68 2.105 . S
O84 C75 1.268 . S
O85 Sc66 2.105 . S
O85 C71 1.268 . S
O86 Sc68 2.105 . S
O86 C70 1.268 . S
O87 Sc67 2.105 . S
O87 C72 1.268 . S
C88 C89 1.384 . S
C88 H101 0.947 . S
C88 C123 1.382 . S
C89 C88 1.384 . S
C89 C90 1.378 . S
C90 C89 1.378 . S
C90 C91 1.378 1_655 S
C90 H102 0.952 . S
C91 C90 1.378 1_455 S
C91 H103 0.950 . S
C91 C122 1.383 . S
H92 C111 0.947 . S
H93 C112 0.946 . S
H94 C114 0.953 . S
H95 C115 0.945 . S
H96 C117 0.952 . S
H97 C118 0.949 . S
H98 C120 0.950 . S
H99 C121 0.948 . S
H100 C123 0.951 1_455 S
H101 C88 0.947 . S
H102 C90 0.952 . S
H103 C91 0.950 . S
N104 C107 1.382 . S
N104 C109 1.363 . S
N105 C107 1.371 . S
N105 C108 1.372 . S
N106 C108 1.361 . S
N106 C109 1.377 . S
C107 N104 1.382 . S
C107 N105 1.371 . S
C107 C110 1.480 . S
C108 N105 1.372 . S
C108 N106 1.361 . S
C108 C116 1.457 1_545 S
C109 N104 1.363 . S
C109 N106 1.377 . S
C109 C122 1.479 . S
C110 C107 1.480 . S
C110 C111 1.383 . S
C110 C115 1.385 . S
C111 H92 0.947 . S
C111 C110 1.383 . S
C111 C112 1.388 . S
C112 H93 0.946 . S
C112 C111 1.388 . S
C112 C113 1.384 . S
C113 C112 1.384 . S
C113 C114 1.377 . S
C114 H94 0.953 . S
C114 C113 1.377 . S
C114 C115 1.369 . S
C115 H95 0.945 . S
C115 C110 1.385 . S
C115 C114 1.369 . S
C116 C108 1.457 1_565 S
C116 C117 1.372 . S
C116 C121 1.364 . S
C117 H96 0.952 . S
C117 C116 1.372 . S
C117 C118 1.389 . S
C118 H97 0.949 . S
C118 C117 1.389 . S
C118 C119 1.387 . S
C119 C118 1.387 . S
C119 C120 1.372 . S
C120 H98 0.950 . S
C120 C119 1.372 . S
C120 C121 1.379 . S
C121 H99 0.948 . S
C121 C116 1.364 . S
C121 C120 1.379 . S
C122 C91 1.383 . S
C122 C109 1.479 . S
C122 C123 1.398 1_455 S
C123 C88 1.382 . S
C123 H100 0.951 1_655 S
C123 C122 1.398 1_655 S
C124 C125 1.384 . S
C124 H137 0.947 . S
C124 C159 1.382 . S
C125 C124 1.384 . S
C125 C126 1.378 . S
C126 C125 1.378 . S
C126 C127 1.378 . S
C126 H138 0.952 . S
C127 C126 1.378 . S
C127 H139 0.950 . S
C127 C158 1.383 . S
H128 C147 0.947 . S
H129 C148 0.946 . S
H130 C150 0.953 . S
H131 C151 0.945 . S
H132 C153 0.952 . S
H133 C154 0.949 . S
H134 C156 0.950 . S
H135 C157 0.948 . S
H136 C159 0.951 . S
H137 C124 0.947 . S
H138 C126 0.952 . S
H139 C127 0.950 . S
N140 C143 1.382 . S
N140 C145 1.363 . S
N141 C143 1.371 . S
N141 C144 1.372 . S
N142 C144 1.361 . S
N142 C145 1.377 . S
C143 N140 1.382 . S
C143 N141 1.371 . S
C143 C146 1.480 . S
C144 N141 1.372 . S
C144 N142 1.361 . S
C144 C152 1.457 . S
C145 N140 1.363 . S
C145 N142 1.377 . S
C145 C158 1.479 . S
C146 C143 1.480 . S
C146 C147 1.383 . S
C146 C151 1.385 . S
C147 H128 0.947 . S
C147 C146 1.383 . S
C147 C148 1.388 . S
C148 H129 0.946 . S
C148 C147 1.388 . S
C148 C149 1.384 . S
C149 C148 1.384 . S
C149 C150 1.377 . S
C150 H130 0.953 . S
C150 C149 1.377 . S
C150 C151 1.369 . S
C151 H131 0.945 . S
C151 C146 1.385 . S
C151 C150 1.369 . S
C152 C144 1.457 . S
C152 C153 1.372 . S
C152 C157 1.364 . S
C153 H132 0.952 . S
C153 C152 1.372 . S
C153 C154 1.389 . S
C154 H133 0.949 . S
C154 C153 1.389 . S
C154 C155 1.387 . S
C155 C154 1.387 . S
C155 C156 1.372 . S
C156 H134 0.950 . S
C156 C155 1.372 . S
C156 C157 1.379 . S
C157 H135 0.948 . S
C157 C152 1.364 . S
C157 C156 1.379 . S
C158 C127 1.383 . S
C158 C145 1.479 . S
C158 C159 1.398 . S
C159 C124 1.382 . S
C159 H136 0.951 . S
C159 C158 1.398 . S
C160 C161 1.384 . S
C160 H173 0.947 . S
C160 C195 1.382 . S
C161 C160 1.384 . S
C161 C162 1.378 . S
C162 C161 1.378 . S
C162 C163 1.378 . S
C162 H174 0.952 . S
C163 C162 1.378 . S
C163 H175 0.950 . S
C163 C194 1.383 . S
H164 C183 0.947 . S
H165 C184 0.946 . S
H166 C186 0.953 . S
H167 C187 0.945 . S
H168 C189 0.952 . S
H169 C190 0.949 . S
H170 C192 0.950 . S
H171 C193 0.948 . S
H172 C195 0.951 . S
H173 C160 0.947 . S
H174 C162 0.952 . S
H175 C163 0.950 . S
N176 C179 1.382 . S
N176 C181 1.363 . S
N177 C179 1.371 . S
N177 C180 1.372 . S
N178 C180 1.361 . S
N178 C181 1.377 . S
C179 N176 1.382 . S
C179 N177 1.371 . S
C179 C182 1.480 . S
C180 N177 1.372 . S
C180 N178 1.361 . S
C180 C188 1.457 . S
C181 N176 1.363 . S
C181 N178 1.377 . S
C181 C194 1.479 . S
C182 C179 1.480 . S
C182 C183 1.383 . S
C182 C187 1.385 . S
C183 H164 0.947 . S
C183 C182 1.383 . S
C183 C184 1.388 1_655 S
C184 H165 0.946 . S
C184 C183 1.388 1_455 S
C184 C185 1.384 . S
C185 C184 1.384 . S
C185 C186 1.377 . S
C186 H166 0.953 . S
C186 C185 1.377 . S
C186 C187 1.369 1_455 S
C187 H167 0.945 . S
C187 C182 1.385 . S
C187 C186 1.369 1_655 S
C188 C180 1.457 . S
C188 C189 1.372 . S
C188 C193 1.364 . S
C189 H168 0.952 . S
C189 C188 1.372 . S
C189 C190 1.389 . S
C190 H169 0.949 . S
C190 C189 1.389 . S
C190 C191 1.387 . S
C191 C190 1.387 . S
C191 C192 1.372 . S
C192 H170 0.950 . S
C192 C191 1.372 . S
C192 C193 1.379 . S
C193 H171 0.948 . S
C193 C188 1.364 . S
C193 C192 1.379 . S
C194 C163 1.383 . S
C194 C181 1.479 . S
C194 C195 1.398 . S
C195 C160 1.382 . S
C195 H172 0.951 . S
C195 C194 1.398 . S
C196 C197 1.384 1_556 S
C196 H209 0.947 . S
C196 C231 1.382 . S
C197 C196 1.384 1_554 S
C197 C198 1.378 1_554 S
C198 C197 1.378 1_556 S
C198 C199 1.378 . S
C198 H210 0.952 . S
C199 C198 1.378 . S
C199 H211 0.950 . S
C199 C230 1.383 . S
H200 C219 0.947 . S
H201 C220 0.946 . S
H202 C222 0.953 . S
H203 C223 0.945 . S
H204 C225 0.952 . S
H205 C226 0.949 . S
H206 C228 0.950 . S
H207 C229 0.948 . S
H208 C231 0.951 . S
H209 C196 0.947 . S
H210 C198 0.952 . S
H211 C199 0.950 . S
N212 C215 1.382 . S
N212 C217 1.363 . S
N213 C215 1.371 . S
N213 C216 1.372 . S
N214 C216 1.361 . S
N214 C217 1.377 . S
C215 N212 1.382 . S
C215 N213 1.371 . S
C215 C218 1.480 . S
C216 N213 1.372 . S
C216 N214 1.361 . S
C216 C224 1.457 . S
C217 N212 1.363 . S
C217 N214 1.377 . S
C217 C230 1.479 . S
C218 C215 1.480 . S
C218 C219 1.383 . S
C218 C223 1.385 . S
C219 H200 0.947 . S
C219 C218 1.383 . S
C219 C220 1.388 . S
C220 H201 0.946 . S
C220 C219 1.388 . S
C220 C221 1.384 . S
C221 C220 1.384 . S
C221 C222 1.377 . S
C222 H202 0.953 . S
C222 C221 1.377 . S
C222 C223 1.369 . S
C223 H203 0.945 . S
C223 C218 1.385 . S
C223 C222 1.369 . S
C224 C216 1.457 . S
C224 C225 1.372 . S
C224 C229 1.364 . S
C225 H204 0.952 . S
C225 C224 1.372 . S
C225 C226 1.389 . S
C226 H205 0.949 . S
C226 C225 1.389 . S
C226 C227 1.387 . S
C227 C226 1.387 . S
C227 C228 1.372 . S
C228 H206 0.950 . S
C228 C227 1.372 . S
C228 C229 1.379 . S
C229 H207 0.948 . S
C229 C224 1.364 . S
C229 C228 1.379 . S
C230 C199 1.383 . S
C230 C217 1.479 . S
C230 C231 1.398 . S
C231 C196 1.382 . S
C231 H208 0.951 . S
C231 C230 1.398 . S
C232 C233 1.384 . S
C232 H245 0.947 . S
C232 C267 1.382 . S
C233 C232 1.384 . S
C233 C234 1.378 . S
C234 C233 1.378 . S
C234 C235 1.378 . S
C234 H246 0.952 . S
C235 C234 1.378 . S
C235 H247 0.950 . S
C235 C266 1.383 . S
H236 C255 0.947 . S
H237 C256 0.946 . S
H238 C258 0.953 . S
H239 C259 0.945 . S
H240 C261 0.952 . S
H241 C262 0.949 . S
H242 C264 0.950 . S
H243 C265 0.948 . S
H244 C267 0.951 . S
H245 C232 0.947 . S
H246 C234 0.952 . S
H247 C235 0.950 . S
N248 C251 1.382 . S
N248 C253 1.363 . S
N249 C251 1.371 . S
N249 C252 1.372 . S
N250 C252 1.361 . S
N250 C253 1.377 . S
C251 N248 1.382 . S
C251 N249 1.371 . S
C251 C254 1.480 . S
C252 N249 1.372 . S
C252 N250 1.361 . S
C252 C260 1.457 . S
C253 N248 1.363 . S
C253 N250 1.377 . S
C253 C266 1.479 . S
C254 C251 1.480 . S
C254 C255 1.383 . S
C254 C259 1.385 . S
C255 H236 0.947 . S
C255 C254 1.383 . S
C255 C256 1.388 . S
C256 H237 0.946 . S
C256 C255 1.388 . S
C256 C257 1.384 . S
C257 C256 1.384 . S
C257 C258 1.377 . S
C258 H238 0.953 . S
C258 C257 1.377 . S
C258 C259 1.369 . S
C259 H239 0.945 . S
C259 C254 1.385 . S
C259 C258 1.369 . S
C260 C252 1.457 . S
C260 C261 1.372 . S
C260 C265 1.364 . S
C261 H240 0.952 . S
C261 C260 1.372 . S
C261 C262 1.389 . S
C262 H241 0.949 . S
C262 C261 1.389 . S
C262 C263 1.387 . S
C263 C262 1.387 . S
C263 C264 1.372 . S
C264 H242 0.950 . S
C264 C263 1.372 . S
C264 C265 1.379 . S
C265 H243 0.948 . S
C265 C260 1.364 . S
C265 C264 1.379 . S
C266 C235 1.383 . S
C266 C253 1.479 . S
C266 C267 1.398 . S
C267 C232 1.382 . S
C267 H244 0.951 . S
C267 C266 1.398 . S
C268 C269 1.384 . S
C268 H281 0.947 . S
C268 C303 1.382 . S
C269 C268 1.384 . S
C269 C270 1.378 . S
C270 C269 1.378 . S
C270 C271 1.378 . S
C270 H282 0.952 . S
C271 C270 1.378 . S
C271 H283 0.950 . S
C271 C302 1.383 . S
H272 C291 0.947 . S
H273 C292 0.946 . S
H274 C294 0.953 . S
H275 C295 0.945 1_554 S
H276 C297 0.952 . S
H277 C298 0.949 1_554 S
H278 C300 0.950 . S
H279 C301 0.948 . S
H280 C303 0.951 . S
H281 C268 0.947 . S
H282 C270 0.952 . S
H283 C271 0.950 . S
N284 C287 1.382 . S
N284 C289 1.363 . S
N285 C287 1.371 . S
N285 C288 1.372 . S
N286 C288 1.361 . S
N286 C289 1.377 . S
C287 N284 1.382 . S
C287 N285 1.371 . S
C287 C290 1.480 . S
C288 N285 1.372 . S
C288 N286 1.361 . S
C288 C296 1.457 . S
C289 N284 1.363 . S
C289 N286 1.377 . S
C289 C302 1.479 . S
C290 C287 1.480 . S
C290 C291 1.383 . S
C290 C295 1.385 . S
C291 H272 0.947 . S
C291 C290 1.383 . S
C291 C292 1.388 1_455 S
C292 H273 0.946 . S
C292 C291 1.388 1_655 S
C292 C293 1.384 . S
C293 C292 1.384 . S
C293 C294 1.377 1_556 S
C294 H274 0.953 . S
C294 C293 1.377 1_554 S
C294 C295 1.369 1_654 S
C295 H275 0.945 1_556 S
C295 C290 1.385 . S
C295 C294 1.369 1_456 S
C296 C288 1.457 . S
C296 C297 1.372 . S
C296 C301 1.364 . S
C297 H276 0.952 . S
C297 C296 1.372 . S
C297 C298 1.389 . S
C298 H277 0.949 1_556 S
C298 C297 1.389 . S
C298 C299 1.387 . S
C299 C298 1.387 . S
C299 C300 1.372 . S
C300 H278 0.950 . S
C300 C299 1.372 . S
C300 C301 1.379 . S
C301 H279 0.948 . S
C301 C296 1.364 . S
C301 C300 1.379 . S
C302 C271 1.383 . S
C302 C289 1.479 . S
C302 C303 1.398 . S
C303 C268 1.382 . S
C303 H280 0.951 . S
C303 C302 1.398 . S
C304 C305 1.384 . S
C304 H317 0.947 . S
C304 C339 1.382 . S
C305 C304 1.384 . S
C305 C306 1.378 . S
C306 C305 1.378 . S
C306 C307 1.378 . S
C306 H318 0.952 . S
C307 C306 1.378 . S
C307 H319 0.950 . S
C307 C338 1.383 . S
H308 C327 0.947 . S
H309 C328 0.946 . S
H310 C330 0.953 . S
H311 C331 0.945 . S
H312 C333 0.952 . S
H313 C334 0.949 . S
H314 C336 0.950 . S
H315 C337 0.948 . S
H316 C339 0.951 . S
H317 C304 0.947 . S
H318 C306 0.952 . S
H319 C307 0.950 . S
N320 C323 1.382 . S
N320 C325 1.363 . S
N321 C323 1.371 . S
N321 C324 1.372 . S
N322 C324 1.361 . S
N322 C325 1.377 . S
C323 N320 1.382 . S
C323 N321 1.371 . S
C323 C326 1.480 . S
C324 N321 1.372 . S
C324 N322 1.361 . S
C324 C332 1.457 . S
C325 N320 1.363 . S
C325 N322 1.377 . S
C325 C338 1.479 . S
C326 C323 1.480 . S
C326 C327 1.383 . S
C326 C331 1.385 . S
C327 H308 0.947 . S
C327 C326 1.383 . S
C327 C328 1.388 . S
C328 H309 0.946 . S
C328 C327 1.388 . S
C328 C329 1.384 . S
C329 C328 1.384 . S
C329 C330 1.377 . S
C330 H310 0.953 . S
C330 C329 1.377 . S
C330 C331 1.369 . S
C331 H311 0.945 . S
C331 C326 1.385 . S
C331 C330 1.369 . S
C332 C324 1.457 . S
C332 C333 1.372 . S
C332 C337 1.364 . S
C333 H312 0.952 . S
C333 C332 1.372 . S
C333 C334 1.389 . S
C334 H313 0.949 . S
C334 C333 1.389 . S
C334 C335 1.387 . S
C335 C334 1.387 . S
C335 C336 1.372 . S
C336 H314 0.950 . S
C336 C335 1.372 . S
C336 C337 1.379 . S
C337 H315 0.948 . S
C337 C332 1.364 . S
C337 C336 1.379 . S
C338 C307 1.383 . S
C338 C325 1.479 . S
C338 C339 1.398 . S
C339 C304 1.382 . S
C339 H316 0.951 . S
C339 C338 1.398 . S
C340 C341 1.384 . S
C340 H353 0.947 . S
C340 C375 1.382 . S
C341 C340 1.384 . S
C341 C342 1.378 . S
C342 C341 1.378 . S
C342 C343 1.378 . S
C342 H354 0.952 . S
C343 C342 1.378 . S
C343 H355 0.950 . S
C343 C374 1.383 . S
H344 C363 0.947 . S
H345 C364 0.946 . S
H346 C366 0.953 . S
H347 C367 0.945 . S
H348 C369 0.952 1_655 S
H349 C370 0.949 . S
H350 C372 0.950 . S
H351 C373 0.948 1_655 S
H352 C375 0.951 . S
H353 C340 0.947 . S
H354 C342 0.952 . S
H355 C343 0.950 . S
N356 C359 1.382 . S
N356 C361 1.363 . S
N357 C359 1.371 . S
N357 C360 1.372 . S
N358 C360 1.361 . S
N358 C361 1.377 . S
C359 N356 1.382 . S
C359 N357 1.371 . S
C359 C362 1.480 . S
C360 N357 1.372 . S
C360 N358 1.361 . S
C360 C368 1.457 . S
C361 N356 1.363 . S
C361 N358 1.377 . S
C361 C374 1.479 1_565 S
C362 C359 1.480 . S
C362 C363 1.383 . S
C362 C367 1.385 . S
C363 H344 0.947 . S
C363 C362 1.383 . S
C363 C364 1.388 . S
C364 H345 0.946 . S
C364 C363 1.388 . S
C364 C365 1.384 . S
C365 C364 1.384 . S
C365 C366 1.377 . S
C366 H346 0.953 . S
C366 C365 1.377 . S
C366 C367 1.369 . S
C367 H347 0.945 . S
C367 C362 1.385 . S
C367 C366 1.369 . S
C368 C360 1.457 . S
C368 C369 1.372 1_655 S
C368 C373 1.364 1_655 S
C369 H348 0.952 1_455 S
C369 C368 1.372 1_455 S
C369 C370 1.389 . S
C370 H349 0.949 . S
C370 C369 1.389 . S
C370 C371 1.387 . S
C371 C370 1.387 . S
C371 C372 1.372 . S
C372 H350 0.950 . S
C372 C371 1.372 . S
C372 C373 1.379 . S
C373 H351 0.948 1_455 S
C373 C368 1.364 1_455 S
C373 C372 1.379 . S
C374 C343 1.383 . S
C374 C361 1.479 1_545 S
C374 C375 1.398 . S
C375 C340 1.382 . S
C375 H352 0.951 . S
C375 C374 1.398 . S
C8 C119 2.636 . S
C31 C155 2.998 . S
C53 C191 1.872 1_545 S
C221 C74 2.440 . S
C263 C26 2.007 . S
C48 C293 2.990 1_554 S
C71 C329 2.615 . S
C5 C371 2.454 . S
C50 C341 2.690 . S
C233 C70 3.035 . S
C299 C4 1.996 1_545 S
C28 C335 2.522 . S
C125 C73 2.013 . S
C7 C185 2.893 . S
C227 C30 2.700 . S
C89 C52 2.488 . S
C305 C9 1.849 . S
C365 C29 1.773 . S
C51 C257 2.802 . S
C269 C75 2.799 . S
C161 C27 2.647 . S
C49 C197 1.823 1_556 S
C113 C72 1.835 . S
C149 C6 2.848 . S
