# Generated by pormake.
# Topology tsx, (6,3)-cn, num edge types: 1
# Building blocks:
#     Node 0, Type 0, BuildingBlock: VOLQOD_clean_sbu_1, # of connection points: 6
#     Node 1, Type 0, BuildingBlock: VOLQOD_clean_sbu_1, # of connection points: 6
#     Node 2, Type 1, BuildingBlock: ESEHIV_clean_linker_0, # of connection points: 3
#     Node 3, Type 1, BuildingBlock: ESEHIV_clean_linker_0, # of connection points: 3
#     Node 4, Type 1, BuildingBlock: ESEHIV_clean_linker_0, # of connection points: 3
#     Node 5, Type 1, BuildingBlock: ESEHIV_clean_linker_0, # of connection points: 3
#     Edge 6, Type (0, 1), BuildingBlock: ZUJKAS_clean_linker_0, # of connection points: 2
#     Edge 7, Type (0, 1), BuildingBlock: ZUJKAS_clean_linker_0, # of connection points: 2
#     Edge 8, Type (0, 1), BuildingBlock: ZUJKAS_clean_linker_0, # of connection points: 2
#     Edge 9, Type (0, 1), BuildingBlock: ZUJKAS_clean_linker_0, # of connection points: 2
#     Edge 10, Type (0, 1), BuildingBlock: ZUJKAS_clean_linker_0, # of connection points: 2
#     Edge 11, Type (0, 1), BuildingBlock: ZUJKAS_clean_linker_0, # of connection points: 2
#     Edge 12, Type (0, 1), BuildingBlock: ZUJKAS_clean_linker_0, # of connection points: 2
#     Edge 13, Type (0, 1), BuildingBlock: ZUJKAS_clean_linker_0, # of connection points: 2
#     Edge 14, Type (0, 1), BuildingBlock: ZUJKAS_clean_linker_0, # of connection points: 2
#     Edge 15, Type (0, 1), BuildingBlock: ZUJKAS_clean_linker_0, # of connection points: 2
#     Edge 16, Type (0, 1), BuildingBlock: ZUJKAS_clean_linker_0, # of connection points: 2
#     Edge 17, Type (0, 1), BuildingBlock: ZUJKAS_clean_linker_0, # of connection points: 2
# Relax obj value: 0.075
# Max RMSD: 0.108
# Mean RMSD: 0.083
data_MOF--net-tsx--node1-VOLQOD_clean_sbu_1--node2-ESEHIV_clean_linker_0--edge1-ZUJKAS_clean_linker_0
_symmetry_space_group_name_H-M    P1
_symmetry_Int_Tables_number       1
_symmetry_cell_setting            triclinic
loop_
_symmetry_equiv_pos_as_xyz
'x, y, z'
_cell_length_a     25.271612
_cell_length_b     26.220915
_cell_length_c     50.004956
_cell_angle_alpha  90.54819
_cell_angle_beta   89.975779
_cell_angle_gamma 90.161706
loop_
_atom_site_label
_atom_site_type_symbol
_atom_site_fract_x
_atom_site_fract_y
_atom_site_fract_z
_atom_type_partial_charge
O0 O 0.03775 0.99226 0.07461 0.0
Zn1 Zn 0.05875 0.99211 0.03576 0.0
O2 O -0.00175 0.00585 0.01256 0.0
Zn3 Zn 0.9861 0.94784 0.98862 0.0
Zn4 Zn 0.93578 0.0175 0.03483 0.0
Zn5 Zn 0.01227 0.06583 0.99086 0.0
O6 O 0.98898 0.96772 0.94988 0.0
O7 O 0.01493 0.04853 0.95155 0.0
O8 O 0.0922 0.92444 0.02692 0.0
O9 O 0.04229 0.89506 0.99363 0.0
O10 O 0.91628 0.91434 0.99614 0.0
O11 O 0.88195 0.962 0.02868 0.0
O12 O 0.90153 0.08462 0.02647 0.0
O13 O 0.11423 0.04657 0.03165 0.0
O14 O 0.95441 0.11744 0.99555 0.0
O15 O 0.08126 0.09866 0.00117 0.0
C16 C -0.00473 0.00416 0.08683 0.0
C17 C 0.00294 0.00855 0.93821 0.0
C18 C 0.87934 0.92389 0.01275 0.0
C19 C 0.08134 0.89034 0.00946 0.0
C20 C 0.91337 0.12007 0.01027 0.0
C21 C 0.11773 0.0865 0.01745 0.0
O22 O 0.95372 0.01647 0.07406 0.0
O23 O 0.54087 0.48793 0.57426 0.0
Zn24 Zn 0.56281 0.48685 0.5356 0.0
O25 O 0.50263 0.49826 0.51189 0.0
Zn26 Zn 0.49224 0.43896 0.48854 0.0
Zn27 Zn 0.43928 0.50903 0.53362 0.0
Zn28 Zn 0.51609 0.55805 0.48979 0.0
O29 O 0.49595 0.45782 0.44971 0.0
O30 O 0.5184 0.53966 0.4506 0.0
O31 O 0.59806 0.41965 0.52763 0.0
O32 O 0.54919 0.38725 0.49469 0.0
O33 O 0.42227 0.40473 0.4954 0.0
O34 O 0.38646 0.45288 0.5273 0.0
O35 O 0.40417 0.57538 0.52461 0.0
O36 O 0.61694 0.54241 0.53152 0.0
O37 O 0.45779 0.6094 0.4944 0.0
O38 O 0.58494 0.59206 0.49969 0.0
C39 C 0.4976 0.49838 0.58613 0.0
C40 C 0.50814 0.49875 0.43766 0.0
C41 C 0.38465 0.41444 0.51159 0.0
C42 C 0.58818 0.38429 0.51071 0.0
C43 C 0.41608 0.61125 0.50868 0.0
C44 C 0.62067 0.58143 0.51668 0.0
O45 O 0.45588 0.5087 0.57301 0.0
H46 H 0.9275 0.04629 0.3796 0.0
H47 H 0.05653 0.94 0.37627 0.0
H48 H 0.00079 -0.00405 0.45227 0.0
C49 C 0.95737 0.02398 0.38968 0.0
C50 C 0.95997 0.02487 0.41775 0.0
C51 C 0.99225 0.99378 0.37451 0.0
C52 C 0.0295 0.9635 0.3878 0.0
C53 C 0.03233 0.96354 0.41586 0.0
C54 C -0.00245 -0.00554 0.43066 0.0
H55 H 0.96583 0.93316 0.64931 0.0
H56 H 0.06501 0.06611 0.64542 0.0
H57 H 0.01187 0.99288 0.57293 0.0
C58 C 0.98636 0.96159 0.6376 0.0
C59 C 0.98437 0.95892 0.60953 0.0
C60 C 0.01544 2e-05 0.65073 0.0
C61 C 0.0436 0.03557 0.63543 0.0
C62 C 0.04294 0.03301 0.60734 0.0
C63 C 0.013 -0.00529 0.59457 0.0
H64 H 0.42386 0.54733 0.87709 0.0
H65 H 0.55398 0.44244 0.87691 0.0
H66 H 0.48847 0.49547 0.95153 0.0
C67 C 0.45212 0.52441 0.88792 0.0
C68 C 0.45195 0.52527 0.91603 0.0
C69 C 0.48881 0.49471 0.87365 0.0
C70 C 0.52539 0.46524 0.88783 0.0
C71 C 0.5254 0.46497 0.91595 0.0
C72 C 0.48853 0.49517 0.92987 0.0
H73 H 0.47425 0.42337 0.14676 0.0
H74 H 0.56814 0.56033 0.14655 0.0
H75 H 0.51911 0.4914 0.0722 0.0
C76 C 0.49477 0.45301 0.13588 0.0
C77 C 0.49368 0.45262 0.10779 0.0
C78 C 0.52148 0.49174 0.15006 0.0
C79 C 0.54754 0.53023 0.13577 0.0
C80 C 0.54687 0.53038 0.10768 0.0
C81 C 0.51999 0.49136 0.09387 0.0
H82 H 0.20045 0.0762 0.05228 0.0
H83 H 0.27136 0.13754 0.06124 0.0
H84 H 0.21086 0.23542 -0.00035 0.0
H85 H 0.13935 0.17471 0.99065 0.0
H86 H 0.35089 0.18367 0.02723 0.0
H87 H 0.20625 0.32276 0.0692 0.0
H88 H 0.18981 0.25655 0.06341 0.0
H89 H 0.19267 0.29998 0.03589 0.0
C90 C 0.20241 0.11052 0.04043 0.0
C91 C 0.16375 0.12088 0.021 0.0
C92 C 0.24307 0.1454 0.04554 0.0
C93 C 0.24572 0.19116 0.03135 0.0
C94 C 0.20887 0.20055 0.01105 0.0
H95 H 0.4285 0.46539 0.06481 0.0
H96 H 0.37367 0.40097 0.04252 0.0
C97 C 0.16812 0.16576 0.00594 0.0
C98 C 0.28488 0.23046 0.03908 0.0
H99 H 0.29541 0.34823 0.06808 0.0
C100 C 0.33893 0.21981 0.03603 0.0
C101 C 0.26888 0.2774 0.05059 0.0
C102 C 0.2113 0.28994 0.05522 0.0
C103 C 0.37763 0.25513 0.04424 0.0
C104 C 0.36158 0.30168 0.05619 0.0
C105 C 0.30751 0.31256 0.05879 0.0
C106 C 0.39981 0.33887 0.0674 0.0
C107 C 0.43522 0.24247 0.03993 0.0
C108 C 0.43293 0.32512 0.08864 0.0
C109 C 0.4646 0.36176 0.1013 0.0
C110 C 0.46331 0.41287 0.09308 0.0
C111 C 0.43093 0.42623 0.07139 0.0
C112 C 0.39941 0.38955 0.05871 0.0
H113 H 0.44039 0.21349 0.02379 0.0
H114 H 0.45839 0.27705 0.03475 0.0
H115 H 0.45173 0.22656 0.05863 0.0
H116 H 0.43298 0.28642 0.09602 0.0
H117 H 0.48953 0.35022 0.11777 0.0
H118 H 0.1579 0.85715 0.04398 0.0
H119 H 0.22015 0.78693 0.03675 0.0
H120 H 0.14722 0.75374 0.96052 0.0
H121 H 0.08398 0.82231 0.96795 0.0
H122 H 0.17216 0.66757 0.98669 0.0
H123 H 0.34379 0.80099 0.9863 0.0
H124 H 0.30593 0.80063 0.01668 0.0
H125 H 0.27633 0.82309 0.98631 0.0
C126 C 0.1549 0.83458 0.02579 0.0
C127 C 0.11641 0.84566 0.0064 0.0
C128 C 0.19061 0.79465 0.02165 0.0
C129 C 0.18899 0.76587 0.99785 0.0
C130 C 0.14927 0.77558 0.97901 0.0
H131 H 0.42243 0.62236 0.90382 0.0
H132 H 0.35889 0.67638 0.92718 0.0
C133 C 0.1132 0.81493 0.98327 0.0
C134 C 0.22998 0.72738 0.99155 0.0
H135 H 0.36138 0.71478 0.97738 0.0
C136 C 0.21367 0.67762 0.98491 0.0
C137 C 0.28401 0.7409 0.98909 0.0
C138 C 0.3037 0.79436 0.99474 0.0
C139 C 0.24951 0.64157 0.97475 0.0
C140 C 0.30335 0.65539 0.97188 0.0
C141 C 0.32006 0.70439 0.97968 0.0
C142 C 0.34199 0.62175 0.95825 0.0
C143 C 0.22885 0.5901 0.96579 0.0
C144 C 0.35383 0.57316 0.96807 0.0
C145 C 0.38941 0.54161 0.95437 0.0
C146 C 0.41428 0.55848 0.93084 0.0
C147 C 0.40313 0.60769 0.9215 0.0
C148 C 0.36725 0.63886 0.93501 0.0
H149 H 0.18503 0.58968 0.96398 0.0
H150 H 0.24614 0.57882 0.9462 0.0
H151 H 0.24019 0.56101 0.98069 0.0
H152 H 0.33554 0.5596 0.98626 0.0
H153 H 0.39691 0.50383 0.96203 0.0
H154 H 0.7977 0.92684 0.04869 0.0
H155 H 0.73277 0.85979 0.05723 0.0
H156 H 0.79487 0.7715 0.99122 0.0
H157 H 0.8605 0.838 0.98262 0.0
H158 H 0.65402 0.80749 0.02467 0.0
H159 H 0.81823 0.68216 0.05822 0.0
H160 H 0.8268 0.74983 0.05355 0.0
H161 H 0.82426 0.70756 0.0251 0.0
C162 C 0.79713 0.89356 0.03569 0.0
C163 C 0.83492 0.88739 0.01525 0.0
C164 C 0.75988 0.85537 0.04057 0.0
C165 C 0.75979 0.8105 0.02512 0.0
C166 C 0.795 0.80563 0.00359 0.0
H167 H 0.60837 0.52087 0.0629 0.0
H168 H 0.65487 0.58856 0.03902 0.0
C169 C 0.83238 0.84372 -0.00129 0.0
C170 C 0.7261 0.76719 0.03314 0.0
H171 H 0.73212 0.64901 0.06082 0.0
C172 C 0.67093 0.77261 0.03238 0.0
C173 C 0.74854 0.72191 0.0432 0.0
C174 C 0.80767 0.71486 0.04532 0.0
C175 C 0.63742 0.73385 0.04166 0.0
C176 C 0.65994 0.68917 0.0524 0.0
C177 C 0.71507 0.6833 0.0525 0.0
C178 C 0.62755 0.64921 0.06518 0.0
C179 C 0.57833 0.74104 0.03989 0.0
C180 C 0.59694 0.66098 0.0878 0.0
C181 C 0.57015 0.6225 0.10139 0.0
C182 C 0.57392 0.57147 0.09273 0.0
C183 C 0.60421 0.55989 0.06988 0.0
C184 C 0.6309 0.59843 0.05627 0.0
H185 H 0.56772 0.76875 0.02411 0.0
H186 H 0.55784 0.70434 0.03563 0.0
H187 H 0.56349 0.75624 0.05927 0.0
H188 H 0.59482 0.69976 0.09537 0.0
H189 H 0.54666 0.63268 0.11875 0.0
H190 H 0.83339 0.15021 0.04384 0.0
H191 H 0.76774 0.21687 0.03591 0.0
H192 H 0.8438 0.25283 0.96113 0.0
H193 H 0.91048 0.18791 0.96934 0.0
H194 H 0.81128 0.33762 0.98656 0.0
H195 H 0.6486 0.19438 0.98379 0.0
H196 H 0.68412 0.19776 0.01482 0.0
H197 H 0.7173 0.17635 0.98494 0.0
C198 C 0.83639 0.17271 0.02584 0.0
C199 C 0.87673 0.16339 0.00705 0.0
C200 C 0.79871 0.21058 0.02129 0.0
C201 C 0.80016 0.23892 0.99763 0.0
C202 C 0.8418 0.23124 0.97948 0.0
H203 H 0.55848 0.3685 0.90341 0.0
H204 H 0.62463 0.31763 0.92634 0.0
C205 C 0.87986 0.19401 0.98419 0.0
C206 C 0.75713 0.27469 0.99076 0.0
H207 H 0.62555 0.27947 0.97574 0.0
C208 C 0.77054 0.32513 0.9844 0.0
C209 C 0.70412 0.25801 0.98775 0.0
C210 C 0.68757 0.2036 0.99294 0.0
C211 C 0.73282 0.35887 0.97413 0.0
C212 C 0.67994 0.34202 0.97093 0.0
C213 C 0.66612 0.29224 0.97831 0.0
C214 C 0.63937 0.37352 0.95763 0.0
C215 C 0.75063 0.41121 0.96552 0.0
C216 C 0.6253 0.42168 0.96774 0.0
C217 C 0.58828 0.45147 0.95428 0.0
C218 C 0.56403 0.4332 0.9307 0.0
C219 C 0.5772 0.38427 0.92113 0.0
C220 C 0.61461 0.35488 0.9344 0.0
H221 H 0.79435 0.41368 0.96349 0.0
H222 H 0.73246 0.42158 0.94611 0.0
H223 H 0.73817 0.43978 0.98075 0.0
H224 H 0.64308 0.43635 0.98596 0.0
H225 H 0.57934 0.4891 0.96212 0.0
H226 H 0.69089 0.58396 0.55809 0.0
H227 H 0.75913 0.64776 0.56698 0.0
H228 H 0.72241 0.72178 0.4926 0.0
H229 H 0.65256 0.65891 0.48393 0.0
H230 H 0.84776 0.67866 0.54146 0.0
H231 H 0.701 0.83612 0.54602 0.0
H232 H 0.68155 0.76998 0.54447 0.0
H233 H 0.70297 0.8021 0.51473 0.0
C234 C 0.6975 0.61355 0.54348 0.0
C235 C 0.66576 0.61681 0.52048 0.0
C236 C 0.73664 0.64995 0.54858 0.0
C237 C 0.7451 0.69009 0.53072 0.0
C238 C 0.71557 0.69186 0.50698 0.0
H239 H 0.00724 0.9042 0.56376 0.0
H240 H 0.95149 0.84063 0.54124 0.0
C241 C 0.67585 0.65578 0.50201 0.0
C242 C 0.78291 0.73122 0.53791 0.0
H243 H 0.78996 0.858 0.55353 0.0
C244 C 0.83534 0.71799 0.54392 0.0
C245 C 0.76631 0.78237 0.54133 0.0
C246 C 0.70982 0.79859 0.53654 0.0
C247 C 0.87127 0.75423 0.55405 0.0
C248 C 0.85453 0.80529 0.55757 0.0
C249 C 0.80265 0.81882 0.5507 0.0
C250 C 0.88845 0.84448 0.57051 0.0
C251 C 0.92589 0.73694 0.56207 0.0
C252 C 0.87079 0.86886 0.59394 0.0
C253 C 0.90185 0.90599 0.60647 0.0
C254 C 0.95153 0.91936 0.59595 0.0
C255 C 0.96904 0.89508 0.57232 0.0
C256 C 0.93756 0.85823 0.55961 0.0
H257 H 0.92815 0.69481 0.56393 0.0
H258 H 0.95477 0.74877 0.54659 0.0
H259 H 0.93791 0.75459 0.58141 0.0
H260 H 0.83284 0.85903 0.60261 0.0
H261 H 0.88658 0.92463 0.62428 0.0
H262 H 0.58938 0.31052 0.47188 0.0
H263 H 0.65323 0.2421 0.46606 0.0
H264 H 0.73188 0.28823 0.53897 0.0
H265 H 0.66878 0.35816 0.54459 0.0
H266 H 0.80063 0.27709 0.49989 0.0
H267 H 0.67299 0.10638 0.50028 0.0
H268 H 0.64853 0.15136 0.47659 0.0
H269 H 0.6498 0.16793 0.51167 0.0
C270 C 0.61971 0.30577 0.48695 0.0
C271 C 0.62404 0.33994 0.50868 0.0
C272 C 0.65596 0.26622 0.48371 0.0
C273 C 0.69673 0.25935 0.50236 0.0
C274 C 0.70045 0.2926 0.52445 0.0
H275 H 0.9086 0.003 0.46464 0.0
H276 H 0.84944 0.05868 0.49038 0.0
C277 C 0.66442 0.33258 0.5276 0.0
C278 C 0.73835 0.22091 0.49706 0.0
H279 H 0.75596 0.09818 0.47573 0.0
C280 C 0.791 0.23768 0.49517 0.0
C281 C 0.72615 0.16919 0.49147 0.0
C282 C 0.67133 0.14761 0.49543 0.0
C283 C 0.83105 0.20511 0.48596 0.0
C284 C 0.81773 0.15495 0.47772 0.0
C285 C 0.76593 0.13701 0.48152 0.0
C286 C 0.85574 0.12206 0.46316 0.0
C287 C 0.88703 0.22512 0.48466 0.0
C288 C 0.87842 0.1391 0.43923 0.0
C289 C 0.91255 0.10773 0.42467 0.0
C290 C 0.9241 0.05829 0.43353 0.0
C291 C 0.90106 0.04114 0.45747 0.0
C292 C 0.86707 0.07275 0.47212 0.0
H293 H 0.89385 0.2554 0.49998 0.0
H294 H 0.91634 0.19424 0.48767 0.0
H295 H 0.89397 0.24223 0.46474 0.0
H296 H 0.86915 0.17653 0.43157 0.0
H297 H 0.93003 0.12233 0.4065 0.0
H298 H 0.35935 0.33551 0.47757 0.0
H299 H 0.29032 0.27105 0.48367 0.0
H300 H 0.2414 0.34615 0.55672 0.0
H301 H 0.30875 0.41135 0.55035 0.0
H302 H 0.28595 0.20571 0.52262 0.0
H303 H 0.10028 0.31522 0.52482 0.0
H304 H 0.1615 0.34219 0.51273 0.0
H305 H 0.14651 0.34267 0.548 0.0
C306 C 0.33316 0.33884 0.49465 0.0
C307 C 0.33963 0.37851 0.51351 0.0
C308 C 0.2937 0.30202 0.49808 0.0
C309 C 0.26011 0.30415 0.52043 0.0
C310 C 0.26568 0.34447 0.53889 0.0
H311 H 0.14223 0.06967 0.61747 0.0
H312 H 0.19187 0.13271 0.59215 0.0
C313 C 0.30465 0.38155 0.53533 0.0
C314 C 0.22362 0.26137 0.52634 0.0
H315 H 0.09957 0.23542 0.54954 0.0
C316 C 0.24486 0.21207 0.52794 0.0
C317 C 0.16969 0.26924 0.53276 0.0
C318 C 0.14312 0.32016 0.52917 0.0
C319 C 0.21473 0.17126 0.53758 0.0
C320 C 0.16253 0.18035 0.5466 0.0
C321 C 0.14001 0.22872 0.54317 0.0
C322 C 0.13224 0.14141 0.56146 0.0
C323 C 0.23954 0.11901 0.53844 0.0
C324 C 0.0814 0.12666 0.55313 0.0
C325 C 0.05233 0.09136 0.56795 0.0
C326 C 0.07359 0.07035 0.5914 0.0
C327 C 0.12448 0.08542 0.59966 0.0
C328 C 0.15328 0.12087 0.58496 0.0
H329 H 0.27016 0.11454 0.52264 0.0
H330 H 0.25926 0.11397 0.55806 0.0
H331 H 0.20947 0.0884 0.53584 0.0
H332 H 0.06419 0.14256 0.53522 0.0
H333 H 0.0129 0.08119 0.56127 0.0
H334 H 0.42613 0.69262 0.47522 0.0
H335 H 0.36068 0.75842 0.46627 0.0
H336 H 0.25675 0.69377 0.52546 0.0
H337 H 0.32171 0.62717 0.53438 0.0
H338 H 0.20932 0.70659 0.47649 0.0
H339 H 0.3119 0.88441 0.5076 0.0
H340 H 0.35083 0.84546 0.48545 0.0
H341 H 0.33353 0.82208 0.51803 0.0
C342 C 0.38975 0.69276 0.48668 0.0
C343 C 0.37908 0.65441 0.50543 0.0
C344 C 0.35253 0.7307 0.48167 0.0
C345 C 0.30419 0.73132 0.49545 0.0
C346 C 0.29402 0.69408 0.51475 0.0
H347 H 0.01767 0.90579 0.46055 0.0
H348 H 0.08247 0.85156 0.48282 0.0
C349 C 0.3312 0.65605 0.51978 0.0
C350 C 0.26234 0.76757 0.48769 0.0
H351 H 0.23697 0.89398 0.4786 0.0
C352 C 0.21494 0.74761 0.47733 0.0
C353 C 0.27001 0.82098 0.48875 0.0
C354 C 0.31913 0.84456 0.5008 0.0
C355 C 0.17584 0.77957 0.46691 0.0
C356 C 0.18414 0.83291 0.4673 0.0
C357 C 0.2309 0.85301 0.47831 0.0
C358 C 0.14583 0.86819 0.45509 0.0
C359 C 0.127 0.75589 0.45456 0.0
C360 C 0.16061 0.89654 0.43265 0.0
C361 C 0.12391 0.92788 0.42005 0.0
C362 C 0.07182 0.9315 0.42974 0.0
C363 C 0.05756 0.90396 0.45267 0.0
C364 C 0.09434 0.87267 0.46528 0.0
H365 H 0.13186 0.71432 0.45083 0.0
H366 H 0.09299 0.76123 0.46833 0.0
H367 H 0.11719 0.77454 0.43535 0.0
H368 H 0.20032 0.89372 0.42461 0.0
H369 H 0.13635 0.94934 0.40273 0.0
H370 H 0.91405 0.03268 0.12 0.0
H371 H 0.91273 0.0321 0.16887 0.0
H372 H 0.07162 0.97261 0.16965 0.0
H373 H 0.07379 0.97384 0.12084 0.0
H374 H 0.92449 0.95145 0.20334 0.0
H375 H 0.08247 0.09569 0.21976 0.0
H376 H 0.05124 0.08574 0.18767 0.0
H377 H 0.10236 0.04328 0.19873 0.0
C378 C 0.94884 0.01965 0.13053 0.0
C379 C 0.99417 0.00361 0.11646 0.0
C380 C 0.94796 0.0193 0.15847 0.0
C381 C 0.99235 0.00306 0.17287 0.0
C382 C 0.03736 0.98636 0.15893 0.0
H383 H 0.00135 0.91303 0.33953 0.0
H384 H 0.0005 0.91525 0.29064 0.0
C385 C 0.03839 0.98685 0.131 0.0
C386 C 0.99118 0.00272 0.20248 0.0
H387 H 0.05369 0.04992 0.25795 0.0
C388 C 0.95258 0.97311 0.21531 0.0
C389 C 0.02744 0.03157 0.21802 0.0
C390 C 0.06791 0.06627 0.20539 0.0
C391 C 0.94982 0.97089 0.24331 0.0
C392 C 0.98731 -0.00172 0.25882 0.0
C393 C 0.02534 0.02855 0.24599 0.0
C394 C 0.98747 -0.00335 0.28843 0.0
C395 C 0.90628 0.93993 0.25601 0.0
C396 C 0.98178 0.04184 0.30337 0.0
C397 C 0.98308 0.04083 0.33128 0.0
C398 C 0.99024 -0.00544 0.34481 0.0
C399 C -0.00386 0.94934 0.32974 0.0
C400 C -0.005 0.95044 0.30181 0.0
H401 H 0.87297 0.93301 0.24192 0.0
H402 H 0.92226 0.90233 0.26194 0.0
H403 H 0.89067 0.95932 0.2742 0.0
H404 H 0.97635 0.07798 0.29342 0.0
H405 H 0.9793 0.07645 0.34225 0.0
H406 H 0.97879 0.93128 0.90303 0.0
H407 H 0.98411 0.93265 0.85428 0.0
H408 H 0.03925 0.08836 0.85747 0.0
H409 H 0.03339 0.08775 0.90627 0.0
H410 H 0.96004 0.07236 0.81999 0.0
H411 H 0.11872 0.92799 0.80892 0.0
H412 H 0.06327 0.90642 0.82825 0.0
H413 H 0.10337 0.95835 0.84052 0.0
C414 C 0.99218 0.96584 0.89342 0.0
C415 C 0.00587 0.00936 0.90862 0.0
C416 C -0.00449 0.96641 0.86554 0.0
C417 C 0.01294 0.01031 0.85232 0.0
C418 C 0.02603 0.05399 0.86734 0.0
H419 H 0.09974 0.02009 0.68368 0.0
H420 H 0.09982 0.02597 0.73258 0.0
C421 C 0.02266 0.05352 0.89523 0.0
C422 C 0.01621 0.01103 0.82275 0.0
H423 H 0.07341 0.95146 0.76912 0.0
C424 C 0.98505 0.04616 0.80884 0.0
C425 C 0.04947 0.97731 0.80832 0.0
C426 C 0.08602 0.9407 0.82224 0.0
C427 C 0.98518 0.04755 0.7808 0.0
C428 C 0.01665 0.01228 0.76634 0.0
C429 C 0.0489 0.97809 0.78027 0.0
C430 C 0.01623 0.00982 0.73675 0.0
C431 C 0.95199 0.08705 0.76692 0.0
C432 C 0.96932 -0.00168 0.72295 0.0
C433 C 0.96904 -0.00469 0.69505 0.0
C434 C 0.01584 0.00333 0.68042 0.0
C435 C 0.0629 0.01442 0.69434 0.0
C436 C 0.0631 0.01748 0.72226 0.0
H437 H 0.94241 0.11958 0.78047 0.0
H438 H 0.97253 0.10197 0.74897 0.0
H439 H 0.91416 0.06935 0.76039 0.0
H440 H 0.93292 0.99132 0.73377 0.0
H441 H 0.93205 0.98713 0.68494 0.0
H442 H 0.58061 0.48921 0.62087 0.0
H443 H 0.57741 0.48856 0.66974 0.0
H444 H 0.40802 0.50684 0.66739 0.0
H445 H 0.41058 0.50755 0.61849 0.0
H446 H 0.53225 0.56842 0.70459 0.0
H447 H 0.43534 0.37886 0.71527 0.0
H448 H 0.46893 0.39773 0.68502 0.0
H449 H 0.40449 0.42257 0.6926 0.0
C450 C 0.54259 0.49297 0.63069 0.0
C451 C 0.4958 0.49827 0.61573 0.0
C452 C 0.54091 0.49266 0.65861 0.0
C453 C 0.49245 0.49711 0.67205 0.0
C454 C 0.44571 0.5027 0.65729 0.0
H455 H 0.40387 0.4917 0.83967 0.0
H456 H 0.4048 0.49438 0.79079 0.0
C457 C 0.44734 0.50333 0.62936 0.0
C458 C 0.49098 0.49671 0.70159 0.0
H459 H 0.44909 0.42694 0.75485 0.0
C460 C 0.5142 0.53751 0.71565 0.0
C461 C 0.46714 0.45638 0.71579 0.0
C462 C 0.44282 0.41112 0.70151 0.0
C463 C 0.51366 0.53939 0.7437 0.0
C464 C 0.49039 0.49871 0.75797 0.0
C465 C 0.46695 0.45801 0.74385 0.0
C466 C 0.49012 0.49753 0.78757 0.0
C467 C 0.53699 0.58541 0.75775 0.0
C468 C 0.53782 0.49777 0.80192 0.0
C469 C 0.53742 0.49679 0.82984 0.0
C470 C 0.48928 0.49502 0.84394 0.0
C471 C 0.44158 0.49391 0.82944 0.0
C472 C 0.44203 0.49508 0.80152 0.0
H473 H 0.53935 0.61881 0.74428 0.0
H474 H 0.51328 0.59617 0.77562 0.0
H475 H 0.57774 0.57638 0.76442 0.0
H476 H 0.57541 0.49858 0.79152 0.0
H477 H 0.57483 0.49808 0.84038 0.0
H478 H 0.53571 0.57765 0.40486 0.0
H479 H 0.53913 0.57715 0.356 0.0
H480 H 0.48873 0.4199 0.35452 0.0
H481 H 0.48589 0.41964 0.40334 0.0
H482 H 0.57386 0.4393 0.32084 0.0
H483 H 0.41176 0.5785 0.30541 0.0
H484 H 0.46375 0.60085 0.32705 0.0
H485 H 0.42313 0.548 0.33709 0.0
C486 C 0.52522 0.54295 0.39417 0.0
C487 C 0.51029 0.49873 0.40805 0.0
C488 C 0.52695 0.54285 0.36624 0.0
C489 C 0.51342 0.49872 0.35168 0.0
C490 C 0.49909 0.45441 0.36542 0.0
H491 H 0.43817 0.47271 0.18346 0.0
H492 H 0.43794 0.47328 0.23235 0.0
C493 C 0.49743 0.4544 0.39334 0.0
C494 C 0.51489 0.49838 0.32209 0.0
H495 H 0.46055 0.55341 0.26699 0.0
C496 C 0.54909 0.46419 0.30903 0.0
C497 C 0.48204 0.53051 0.3068 0.0
C498 C 0.44271 0.56624 0.31974 0.0
C499 C 0.55166 0.46153 0.28102 0.0
C500 C 0.51978 0.49457 0.26574 0.0
C501 C 0.48527 0.52846 0.2788 0.0
C502 C 0.52062 0.49372 0.23614 0.0
C503 C 0.58761 0.42265 0.26805 0.0
C504 C 0.56711 0.50542 0.22211 0.0
C505 C 0.56751 0.50464 0.19416 0.0
C506 C 0.52129 0.49248 0.17976 0.0
C507 C 0.47465 0.48135 0.19394 0.0
C508 C 0.47433 0.48205 0.22186 0.0
H509 H 0.59887 0.39208 0.28218 0.0
H510 H 0.56843 0.40482 0.25029 0.0
H511 H 0.62441 0.44184 0.26134 0.0
H512 H 0.60303 0.51541 0.23277 0.0
H513 H 0.60413 0.51311 0.18384 0.0
loop_
_geom_bond_atom_site_label_1
_geom_bond_atom_site_label_2
_geom_bond_distance
_geom_bond_site_symmetry_2
_ccdc_geom_bond_type
O0 Zn1 1.953 . S
O0 C16 1.225 1_565 S
Zn1 O0 1.953 . S
Zn1 O2 1.949 1_565 S
Zn1 O8 1.919 . S
Zn1 O13 1.924 1_565 S
O2 Zn1 1.949 1_545 S
O2 Zn3 1.923 1_444 S
O2 Zn4 1.950 1_455 S
O2 Zn5 1.945 1_554 S
Zn3 O2 1.923 1_666 S
Zn3 O6 1.933 . S
Zn3 O9 1.941 1_655 S
Zn3 O10 1.966 1_556 S
Zn4 O2 1.950 1_655 S
Zn4 O11 1.938 1_545 S
Zn4 O12 1.906 . S
Zn4 O22 1.953 . S
Zn5 O2 1.945 1_556 S
Zn5 O7 1.932 . S
Zn5 O14 1.977 1_455 S
Zn5 O15 1.910 1_556 S
O6 Zn3 1.933 . S
O6 C17 1.226 1_665 S
O7 Zn5 1.932 . S
O7 C17 1.307 . S
O8 Zn1 1.919 . S
O8 C19 1.253 . S
O9 Zn3 1.941 1_455 S
O9 C19 1.283 1_556 S
O10 Zn3 1.966 1_554 S
O10 C18 1.302 . S
O11 Zn4 1.938 1_565 S
O11 C18 1.247 . S
O12 Zn4 1.906 . S
O12 C20 1.304 . S
O13 Zn1 1.924 1_545 S
O13 C21 1.311 . S
O14 Zn5 1.977 1_655 S
O14 C20 1.272 1_556 S
O15 Zn5 1.910 1_554 S
O15 C21 1.231 . S
C16 O0 1.225 1_545 S
C16 O22 1.298 1_455 S
C17 O6 1.226 1_445 S
C17 O7 1.307 . S
C18 O10 1.302 . S
C18 O11 1.247 . S
C19 O8 1.253 . S
C19 O9 1.283 1_554 S
C20 O12 1.304 . S
C20 O14 1.272 1_554 S
C21 O13 1.311 . S
C21 O15 1.231 . S
O22 Zn4 1.953 . S
O22 C16 1.298 1_655 S
O23 Zn24 1.953 . S
O23 C39 1.225 . S
Zn24 O23 1.953 . S
Zn24 O25 1.949 . S
Zn24 O31 1.919 . S
Zn24 O36 1.924 . S
O25 Zn24 1.949 . S
O25 Zn26 1.923 . S
O25 Zn27 1.950 . S
O25 Zn28 1.945 . S
Zn26 O25 1.923 . S
Zn26 O29 1.933 . S
Zn26 O32 1.941 . S
Zn26 O33 1.965 . S
Zn27 O25 1.950 . S
Zn27 O34 1.938 . S
Zn27 O35 1.906 . S
Zn27 O45 1.953 . S
Zn28 O25 1.945 . S
Zn28 O30 1.932 . S
Zn28 O37 1.977 . S
Zn28 O38 1.910 . S
O29 Zn26 1.933 . S
O29 C40 1.226 . S
O30 Zn28 1.932 . S
O30 C40 1.307 . S
O31 Zn24 1.919 . S
O31 C42 1.253 . S
O32 Zn26 1.941 . S
O32 C42 1.283 . S
O33 Zn26 1.965 . S
O33 C41 1.303 . S
O34 Zn27 1.938 . S
O34 C41 1.247 . S
O35 Zn27 1.906 . S
O35 C43 1.304 . S
O36 Zn24 1.924 . S
O36 C44 1.311 . S
O37 Zn28 1.977 . S
O37 C43 1.272 . S
O38 Zn28 1.910 . S
O38 C44 1.231 . S
C39 O23 1.225 . S
C39 O45 1.298 . S
C40 O29 1.226 . S
C40 O30 1.307 . S
C41 O33 1.303 . S
C41 O34 1.247 . S
C42 O31 1.253 . S
C42 O32 1.283 . S
C43 O35 1.304 . S
C43 O37 1.272 . S
C44 O36 1.311 . S
C44 O38 1.231 . S
O45 Zn27 1.953 . S
O45 C39 1.298 . S
H46 C49 0.931 . S
H47 C52 0.928 . S
H48 C54 0.930 1_545 S
C49 H46 0.931 . S
C49 C50 1.413 . S
C49 C51 1.357 1_545 S
C50 C49 1.413 . S
C50 C54 1.422 1_645 S
C51 C49 1.357 1_565 S
C51 C52 1.375 1_655 S
C52 H47 0.928 . S
C52 C51 1.375 1_455 S
C52 C53 1.404 . S
C53 C52 1.404 . S
C53 C54 1.398 . S
C54 H48 0.930 1_565 S
C54 C50 1.422 1_465 S
C54 C53 1.398 . S
H55 C58 0.931 . S
H56 C61 0.928 . S
H57 C63 0.930 . S
C58 H55 0.931 . S
C58 C59 1.413 . S
C58 C60 1.360 1_665 S
C59 C58 1.413 . S
C59 C63 1.429 1_665 S
C60 C58 1.360 1_445 S
C60 C61 1.372 . S
C61 H56 0.928 . S
C61 C60 1.372 . S
C61 C62 1.404 . S
C62 C61 1.404 . S
C62 C63 1.391 . S
C63 H57 0.930 . S
C63 C59 1.429 1_445 S
C63 C62 1.391 . S
H64 C67 0.931 . S
H65 C70 0.928 . S
H66 C72 0.930 . S
C67 H64 0.931 . S
C67 C68 1.413 . S
C67 C69 1.360 . S
C68 C67 1.413 . S
C68 C72 1.429 . S
C69 C67 1.360 . S
C69 C70 1.372 . S
C70 H65 0.928 . S
C70 C69 1.372 . S
C70 C71 1.404 . S
C71 C70 1.404 . S
C71 C72 1.391 . S
C72 H66 0.930 . S
C72 C68 1.429 . S
C72 C71 1.391 . S
H73 C76 0.931 . S
H74 C79 0.928 . S
H75 C81 0.930 . S
C76 H73 0.931 . S
C76 C77 1.413 . S
C76 C78 1.360 . S
C77 C76 1.413 . S
C77 C81 1.429 . S
C78 C76 1.360 . S
C78 C79 1.372 . S
C79 H74 0.928 . S
C79 C78 1.372 . S
C79 C80 1.404 . S
C80 C79 1.404 . S
C80 C81 1.391 . S
C81 H75 0.930 . S
C81 C77 1.429 . S
C81 C80 1.391 . S
H82 C90 0.929 . S
H83 C92 0.930 . S
H84 C94 0.930 . S
H85 C97 0.929 . S
H86 C100 0.930 . S
H87 C102 0.960 . S
H88 C102 0.960 . S
H89 C102 0.960 . S
C90 H82 0.929 . S
C90 C91 1.377 . S
C90 C92 1.384 . S
C91 C90 1.377 . S
C91 C97 1.390 . S
C92 H83 0.930 . S
C92 C90 1.384 . S
C92 C93 1.372 . S
C93 C92 1.372 . S
C93 C94 1.400 . S
C93 C98 1.490 . S
C94 H84 0.930 . S
C94 C93 1.400 . S
C94 C97 1.386 . S
H95 C111 0.930 . S
H96 C112 0.931 . S
C97 H85 0.929 . S
C97 C91 1.390 . S
C97 C94 1.386 . S
C98 C93 1.490 . S
C98 C100 1.395 . S
C98 C101 1.403 . S
H99 C105 0.930 . S
C100 H86 0.930 . S
C100 C98 1.395 . S
C100 C103 1.403 . S
C101 C98 1.403 . S
C101 C102 1.524 . S
C101 C105 1.400 . S
C102 H87 0.960 . S
C102 H88 0.960 . S
C102 H89 0.960 . S
C102 C101 1.524 . S
C103 C100 1.403 . S
C103 C104 1.392 . S
C103 C107 1.495 . S
C104 C103 1.392 . S
C104 C105 1.385 . S
C104 C106 1.478 . S
C105 H99 0.930 . S
C105 C101 1.400 . S
C105 C104 1.385 . S
C106 C104 1.478 . S
C106 C108 1.381 . S
C106 C112 1.383 . S
C107 C103 1.495 . S
C107 H113 0.959 . S
C107 H114 0.961 . S
C107 H115 0.960 . S
C108 C106 1.381 . S
C108 C109 1.394 . S
C108 H116 0.930 . S
C109 C108 1.394 . S
C109 C110 1.383 . S
C109 H117 0.929 . S
C110 C109 1.383 . S
C110 C111 1.377 . S
C111 H95 0.930 . S
C111 C110 1.377 . S
C111 C112 1.379 . S
C112 H96 0.931 . S
C112 C106 1.383 . S
C112 C111 1.379 . S
H113 C107 0.959 . S
H114 C107 0.961 . S
H115 C107 0.960 . S
H116 C108 0.930 . S
H117 C109 0.929 . S
H118 C126 0.929 . S
H119 C128 0.953 . S
H120 C130 0.930 . S
H121 C133 0.929 . S
H122 C136 0.930 . S
H123 C138 0.960 . S
H124 C138 0.960 . S
H125 C138 0.960 . S
C126 H118 0.929 . S
C126 C127 1.377 1_554 S
C126 C128 1.397 . S
C127 C126 1.377 1_556 S
C127 C133 1.390 . S
C128 H119 0.953 . S
C128 C126 1.397 . S
C128 C129 1.337 1_554 S
C129 C128 1.337 1_556 S
C129 C130 1.400 . S
C129 C134 1.490 . S
C130 H120 0.930 . S
C130 C129 1.400 . S
C130 C133 1.386 . S
H131 C147 0.930 . S
H132 C148 0.931 . S
C133 H121 0.929 . S
C133 C127 1.390 . S
C133 C130 1.386 . S
C134 C129 1.490 . S
C134 C136 1.395 . S
C134 C137 1.403 . S
H135 C141 0.930 . S
C136 H122 0.930 . S
C136 C134 1.395 . S
C136 C139 1.403 . S
C137 C134 1.403 . S
C137 C138 1.524 . S
C137 C141 1.400 . S
C138 H123 0.960 . S
C138 H124 0.960 . S
C138 H125 0.960 . S
C138 C137 1.524 . S
C139 C136 1.403 . S
C139 C140 1.392 . S
C139 C143 1.495 . S
C140 C139 1.392 . S
C140 C141 1.385 . S
C140 C142 1.478 . S
C141 H135 0.930 . S
C141 C137 1.400 . S
C141 C140 1.385 . S
C142 C140 1.478 . S
C142 C144 1.381 . S
C142 C148 1.383 . S
C143 C139 1.495 . S
C143 H149 0.959 . S
C143 H150 0.961 . S
C143 H151 0.960 . S
C144 C142 1.381 . S
C144 C145 1.394 . S
C144 H152 0.930 . S
C145 C144 1.394 . S
C145 C146 1.383 . S
C145 H153 0.929 . S
C146 C145 1.383 . S
C146 C147 1.377 . S
C147 H131 0.930 . S
C147 C146 1.377 . S
C147 C148 1.379 . S
C148 H132 0.931 . S
C148 C142 1.383 . S
C148 C147 1.379 . S
H149 C143 0.959 . S
H150 C143 0.961 . S
H151 C143 0.960 . S
H152 C144 0.930 . S
H153 C145 0.929 . S
H154 C162 0.929 . S
H155 C164 0.930 . S
H156 C166 0.930 . S
H157 C169 0.929 . S
H158 C172 0.930 . S
H159 C174 0.960 . S
H160 C174 0.960 . S
H161 C174 0.960 . S
C162 H154 0.929 . S
C162 C163 1.377 . S
C162 C164 1.384 . S
C163 C162 1.377 . S
C163 C169 1.390 . S
C164 H155 0.930 . S
C164 C162 1.384 . S
C164 C165 1.372 . S
C165 C164 1.372 . S
C165 C166 1.400 . S
C165 C170 1.490 . S
C166 H156 0.930 . S
C166 C165 1.400 . S
C166 C169 1.386 . S
H167 C183 0.930 . S
H168 C184 0.931 . S
C169 H157 0.929 . S
C169 C163 1.390 . S
C169 C166 1.386 . S
C170 C165 1.490 . S
C170 C172 1.395 . S
C170 C173 1.403 . S
H171 C177 0.930 . S
C172 H158 0.930 . S
C172 C170 1.395 . S
C172 C175 1.403 . S
C173 C170 1.403 . S
C173 C174 1.524 . S
C173 C177 1.400 . S
C174 H159 0.960 . S
C174 H160 0.960 . S
C174 H161 0.960 . S
C174 C173 1.524 . S
C175 C172 1.403 . S
C175 C176 1.392 . S
C175 C179 1.495 . S
C176 C175 1.392 . S
C176 C177 1.385 . S
C176 C178 1.478 . S
C177 H171 0.930 . S
C177 C173 1.400 . S
C177 C176 1.385 . S
C178 C176 1.478 . S
C178 C180 1.381 . S
C178 C184 1.383 . S
C179 C175 1.495 . S
C179 H185 0.959 . S
C179 H186 0.961 . S
C179 H187 0.960 . S
C180 C178 1.381 . S
C180 C181 1.394 . S
C180 H188 0.930 . S
C181 C180 1.394 . S
C181 C182 1.383 . S
C181 H189 0.929 . S
C182 C181 1.383 . S
C182 C183 1.377 . S
C183 H167 0.930 . S
C183 C182 1.377 . S
C183 C184 1.379 . S
C184 H168 0.931 . S
C184 C178 1.383 . S
C184 C183 1.379 . S
H185 C179 0.959 . S
H186 C179 0.961 . S
H187 C179 0.960 . S
H188 C180 0.930 . S
H189 C181 0.929 . S
H190 C198 0.929 . S
H191 C200 0.930 . S
H192 C202 0.930 . S
H193 C205 0.929 . S
H194 C208 0.930 . S
H195 C210 0.960 . S
H196 C210 0.960 . S
H197 C210 0.960 . S
C198 H190 0.929 . S
C198 C199 1.377 1_554 S
C198 C200 1.384 . S
C199 C198 1.377 1_556 S
C199 C205 1.390 . S
C200 H191 0.930 . S
C200 C198 1.384 . S
C200 C201 1.372 1_554 S
C201 C200 1.372 1_556 S
C201 C202 1.400 . S
C201 C206 1.490 . S
C202 H192 0.930 . S
C202 C201 1.400 . S
C202 C205 1.386 . S
H203 C219 0.930 . S
H204 C220 0.931 . S
C205 H193 0.929 . S
C205 C199 1.390 . S
C205 C202 1.386 . S
C206 C201 1.490 . S
C206 C208 1.395 . S
C206 C209 1.403 . S
H207 C213 0.930 . S
C208 H194 0.930 . S
C208 C206 1.395 . S
C208 C211 1.403 . S
C209 C206 1.403 . S
C209 C210 1.524 . S
C209 C213 1.400 . S
C210 H195 0.960 . S
C210 H196 0.960 . S
C210 H197 0.960 . S
C210 C209 1.524 . S
C211 C208 1.403 . S
C211 C212 1.392 . S
C211 C215 1.495 . S
C212 C211 1.392 . S
C212 C213 1.385 . S
C212 C214 1.478 . S
C213 H207 0.930 . S
C213 C209 1.400 . S
C213 C212 1.385 . S
C214 C212 1.478 . S
C214 C216 1.381 . S
C214 C220 1.383 . S
C215 C211 1.495 . S
C215 H221 0.959 . S
C215 H222 0.961 . S
C215 H223 0.960 . S
C216 C214 1.381 . S
C216 C217 1.394 . S
C216 H224 0.930 . S
C217 C216 1.394 . S
C217 C218 1.383 . S
C217 H225 0.929 . S
C218 C217 1.383 . S
C218 C219 1.377 . S
C219 H203 0.930 . S
C219 C218 1.377 . S
C219 C220 1.379 . S
C220 H204 0.931 . S
C220 C214 1.383 . S
C220 C219 1.379 . S
H221 C215 0.959 . S
H222 C215 0.961 . S
H223 C215 0.960 . S
H224 C216 0.930 . S
H225 C217 0.929 . S
H226 C234 0.929 . S
H227 C236 0.930 . S
H228 C238 0.930 . S
H229 C241 0.929 . S
H230 C244 0.930 . S
H231 C246 0.960 . S
H232 C246 0.960 . S
H233 C246 0.960 . S
C234 H226 0.929 . S
C234 C235 1.377 . S
C234 C236 1.384 . S
C235 C234 1.377 . S
C235 C241 1.390 . S
C236 H227 0.930 . S
C236 C234 1.384 . S
C236 C237 1.372 . S
C237 C236 1.372 . S
C237 C238 1.400 . S
C237 C242 1.490 . S
C238 H228 0.930 . S
C238 C237 1.400 . S
C238 C241 1.386 . S
H239 C255 0.930 . S
H240 C256 0.931 . S
C241 H229 0.929 . S
C241 C235 1.390 . S
C241 C238 1.386 . S
C242 C237 1.490 . S
C242 C244 1.395 . S
C242 C245 1.403 . S
H243 C249 0.930 . S
C244 H230 0.930 . S
C244 C242 1.395 . S
C244 C247 1.403 . S
C245 C242 1.403 . S
C245 C246 1.524 . S
C245 C249 1.400 . S
C246 H231 0.960 . S
C246 H232 0.960 . S
C246 H233 0.960 . S
C246 C245 1.524 . S
C247 C244 1.403 . S
C247 C248 1.392 . S
C247 C251 1.495 . S
C248 C247 1.392 . S
C248 C249 1.385 . S
C248 C250 1.478 . S
C249 H243 0.930 . S
C249 C245 1.400 . S
C249 C248 1.385 . S
C250 C248 1.478 . S
C250 C252 1.381 . S
C250 C256 1.383 . S
C251 C247 1.495 . S
C251 H257 0.959 . S
C251 H258 0.961 . S
C251 H259 0.960 . S
C252 C250 1.381 . S
C252 C253 1.394 . S
C252 H260 0.930 . S
C253 C252 1.394 . S
C253 C254 1.383 . S
C253 H261 0.929 . S
C254 C253 1.383 . S
C254 C255 1.377 . S
C255 H239 0.930 . S
C255 C254 1.377 . S
C255 C256 1.379 . S
C256 H240 0.931 . S
C256 C250 1.383 . S
C256 C255 1.379 . S
H257 C251 0.959 . S
H258 C251 0.961 . S
H259 C251 0.960 . S
H260 C252 0.930 . S
H261 C253 0.929 . S
H262 C270 0.929 . S
H263 C272 0.930 . S
H264 C274 0.930 . S
H265 C277 0.929 . S
H266 C280 0.930 . S
H267 C282 0.960 . S
H268 C282 0.960 . S
H269 C282 0.960 . S
C270 H262 0.929 . S
C270 C271 1.377 . S
C270 C272 1.384 . S
C271 C270 1.377 . S
C271 C277 1.390 . S
C272 H263 0.930 . S
C272 C270 1.384 . S
C272 C273 1.372 . S
C273 C272 1.372 . S
C273 C274 1.400 . S
C273 C278 1.490 . S
C274 H264 0.930 . S
C274 C273 1.400 . S
C274 C277 1.386 . S
H275 C291 0.930 . S
H276 C292 0.931 . S
C277 H265 0.929 . S
C277 C271 1.390 . S
C277 C274 1.386 . S
C278 C273 1.490 . S
C278 C280 1.395 . S
C278 C281 1.403 . S
H279 C285 0.930 . S
C280 H266 0.930 . S
C280 C278 1.395 . S
C280 C283 1.403 . S
C281 C278 1.403 . S
C281 C282 1.524 . S
C281 C285 1.400 . S
C282 H267 0.960 . S
C282 H268 0.960 . S
C282 H269 0.960 . S
C282 C281 1.524 . S
C283 C280 1.403 . S
C283 C284 1.392 . S
C283 C287 1.495 . S
C284 C283 1.392 . S
C284 C285 1.385 . S
C284 C286 1.478 . S
C285 H279 0.930 . S
C285 C281 1.400 . S
C285 C284 1.385 . S
C286 C284 1.478 . S
C286 C288 1.381 . S
C286 C292 1.383 . S
C287 C283 1.495 . S
C287 H293 0.959 . S
C287 H294 0.961 . S
C287 H295 0.960 . S
C288 C286 1.381 . S
C288 C289 1.394 . S
C288 H296 0.930 . S
C289 C288 1.394 . S
C289 C290 1.383 . S
C289 H297 0.929 . S
C290 C289 1.383 . S
C290 C291 1.377 . S
C291 H275 0.930 . S
C291 C290 1.377 . S
C291 C292 1.379 . S
C292 H276 0.931 . S
C292 C286 1.383 . S
C292 C291 1.379 . S
H293 C287 0.959 . S
H294 C287 0.961 . S
H295 C287 0.960 . S
H296 C288 0.930 . S
H297 C289 0.929 . S
H298 C306 0.929 . S
H299 C308 0.930 . S
H300 C310 0.930 . S
H301 C313 0.929 . S
H302 C316 0.930 . S
H303 C318 0.960 . S
H304 C318 0.960 . S
H305 C318 0.960 . S
C306 H298 0.929 . S
C306 C307 1.377 . S
C306 C308 1.384 . S
C307 C306 1.377 . S
C307 C313 1.390 . S
C308 H299 0.930 . S
C308 C306 1.384 . S
C308 C309 1.372 . S
C309 C308 1.372 . S
C309 C310 1.400 . S
C309 C314 1.490 . S
C310 H300 0.930 . S
C310 C309 1.400 . S
C310 C313 1.386 . S
H311 C327 0.930 . S
H312 C328 0.931 . S
C313 H301 0.929 . S
C313 C307 1.390 . S
C313 C310 1.386 . S
C314 C309 1.490 . S
C314 C316 1.395 . S
C314 C317 1.403 . S
H315 C321 0.930 . S
C316 H302 0.930 . S
C316 C314 1.395 . S
C316 C319 1.403 . S
C317 C314 1.403 . S
C317 C318 1.524 . S
C317 C321 1.400 . S
C318 H303 0.960 . S
C318 H304 0.960 . S
C318 H305 0.960 . S
C318 C317 1.524 . S
C319 C316 1.403 . S
C319 C320 1.392 . S
C319 C323 1.495 . S
C320 C319 1.392 . S
C320 C321 1.385 . S
C320 C322 1.478 . S
C321 H315 0.930 . S
C321 C317 1.400 . S
C321 C320 1.385 . S
C322 C320 1.478 . S
C322 C324 1.381 . S
C322 C328 1.383 . S
C323 C319 1.495 . S
C323 H329 0.959 . S
C323 H330 0.961 . S
C323 H331 0.960 . S
C324 C322 1.381 . S
C324 C325 1.394 . S
C324 H332 0.930 . S
C325 C324 1.394 . S
C325 C326 1.383 . S
C325 H333 0.929 . S
C326 C325 1.383 . S
C326 C327 1.377 . S
C327 H311 0.930 . S
C327 C326 1.377 . S
C327 C328 1.379 . S
C328 H312 0.931 . S
C328 C322 1.383 . S
C328 C327 1.379 . S
H329 C323 0.959 . S
H330 C323 0.961 . S
H331 C323 0.960 . S
H332 C324 0.930 . S
H333 C325 0.929 . S
H334 C342 0.929 . S
H335 C344 0.930 . S
H336 C346 0.930 . S
H337 C349 0.929 . S
H338 C352 0.930 . S
H339 C354 0.960 . S
H340 C354 0.960 . S
H341 C354 0.960 . S
C342 H334 0.929 . S
C342 C343 1.377 . S
C342 C344 1.384 . S
C343 C342 1.377 . S
C343 C349 1.390 . S
C344 H335 0.930 . S
C344 C342 1.384 . S
C344 C345 1.372 . S
C345 C344 1.372 . S
C345 C346 1.400 . S
C345 C350 1.490 . S
C346 H336 0.930 . S
C346 C345 1.400 . S
C346 C349 1.386 . S
H347 C363 0.930 . S
H348 C364 0.931 . S
C349 H337 0.929 . S
C349 C343 1.390 . S
C349 C346 1.386 . S
C350 C345 1.490 . S
C350 C352 1.395 . S
C350 C353 1.403 . S
H351 C357 0.930 . S
C352 H338 0.930 . S
C352 C350 1.395 . S
C352 C355 1.403 . S
C353 C350 1.403 . S
C353 C354 1.524 . S
C353 C357 1.400 . S
C354 H339 0.960 . S
C354 H340 0.960 . S
C354 H341 0.960 . S
C354 C353 1.524 . S
C355 C352 1.403 . S
C355 C356 1.392 . S
C355 C359 1.495 . S
C356 C355 1.392 . S
C356 C357 1.385 . S
C356 C358 1.478 . S
C357 H351 0.930 . S
C357 C353 1.400 . S
C357 C356 1.385 . S
C358 C356 1.478 . S
C358 C360 1.381 . S
C358 C364 1.383 . S
C359 C355 1.495 . S
C359 H365 0.959 . S
C359 H366 0.961 . S
C359 H367 0.960 . S
C360 C358 1.381 . S
C360 C361 1.394 . S
C360 H368 0.930 . S
C361 C360 1.394 . S
C361 C362 1.383 . S
C361 H369 0.929 . S
C362 C361 1.383 . S
C362 C363 1.377 . S
C363 H347 0.930 . S
C363 C362 1.377 . S
C363 C364 1.379 . S
C364 H348 0.931 . S
C364 C358 1.383 . S
C364 C363 1.379 . S
H365 C359 0.959 . S
H366 C359 0.961 . S
H367 C359 0.960 . S
H368 C360 0.930 . S
H369 C361 0.929 . S
H370 C378 0.929 . S
H371 C380 0.930 . S
H372 C382 0.928 1_655 S
H373 C385 0.929 1_655 S
H374 C388 0.930 . S
H375 C390 0.960 . S
H376 C390 0.960 . S
H377 C390 0.960 . S
C378 H370 0.929 . S
C378 C379 1.377 . S
C378 C380 1.384 . S
C379 C378 1.377 . S
C379 C385 1.390 1_545 S
C380 H371 0.930 . S
C380 C378 1.384 . S
C380 C381 1.372 . S
C381 C380 1.372 . S
C381 C382 1.401 1_545 S
C381 C386 1.490 . S
C382 H372 0.928 1_455 S
C382 C381 1.401 1_565 S
C382 C385 1.386 . S
H383 C399 0.930 . S
H384 C400 0.931 . S
C385 H373 0.929 1_455 S
C385 C379 1.390 1_565 S
C385 C382 1.386 . S
C386 C381 1.490 . S
C386 C388 1.395 1_455 S
C386 C389 1.403 1_545 S
H387 C393 0.930 . S
C388 H374 0.930 . S
C388 C386 1.395 1_655 S
C388 C391 1.403 . S
C389 C386 1.403 1_565 S
C389 C390 1.524 . S
C389 C393 1.400 . S
C390 H375 0.960 . S
C390 H376 0.960 . S
C390 H377 0.960 . S
C390 C389 1.524 . S
C391 C388 1.403 . S
C391 C392 1.392 . S
C391 C395 1.495 . S
C392 C391 1.392 . S
C392 C393 1.385 1_645 S
C392 C394 1.478 . S
C393 H387 0.930 . S
C393 C389 1.400 . S
C393 C392 1.385 1_465 S
C394 C392 1.478 . S
C394 C396 1.381 1_655 S
C394 C400 1.383 1_545 S
C395 C391 1.495 . S
C395 H401 0.959 . S
C395 H402 0.961 . S
C395 H403 0.960 . S
C396 C394 1.381 1_455 S
C396 C397 1.394 . S
C396 H404 0.930 . S
C397 C396 1.394 . S
C397 C398 1.383 1_455 S
C397 H405 0.929 . S
C398 C397 1.383 1_655 S
C398 C399 1.377 1_545 S
C399 H383 0.930 . S
C399 C398 1.377 1_565 S
C399 C400 1.379 . S
C400 H384 0.931 . S
C400 C394 1.383 1_565 S
C400 C399 1.379 . S
H401 C395 0.959 . S
H402 C395 0.961 . S
H403 C395 0.960 . S
H404 C396 0.930 . S
H405 C397 0.929 . S
H406 C414 0.929 . S
H407 C416 0.930 . S
H408 C418 0.930 . S
H409 C421 0.929 . S
H410 C424 0.930 . S
H411 C426 0.960 . S
H412 C426 0.960 . S
H413 C426 0.960 . S
C414 H406 0.929 . S
C414 C415 1.377 1_665 S
C414 C416 1.384 . S
C415 C414 1.377 1_445 S
C415 C421 1.390 . S
C416 H407 0.930 . S
C416 C414 1.384 . S
C416 C417 1.372 1_665 S
C417 C416 1.372 1_445 S
C417 C418 1.400 . S
C417 C422 1.490 . S
C418 H408 0.930 . S
C418 C417 1.400 . S
C418 C421 1.386 . S
H419 C435 0.930 . S
H420 C436 0.931 . S
C421 H409 0.929 . S
C421 C415 1.390 . S
C421 C418 1.386 . S
C422 C417 1.490 . S
C422 C424 1.395 1_455 S
C422 C425 1.403 1_545 S
H423 C429 0.930 . S
C424 H410 0.930 . S
C424 C422 1.395 1_655 S
C424 C427 1.403 . S
C425 C422 1.403 1_565 S
C425 C426 1.524 . S
C425 C429 1.400 . S
C426 H411 0.960 . S
C426 H412 0.960 . S
C426 H413 0.960 . S
C426 C425 1.524 . S
C427 C424 1.403 . S
C427 C428 1.392 1_655 S
C427 C431 1.495 . S
C428 C427 1.392 1_455 S
C428 C429 1.385 1_545 S
C428 C430 1.478 . S
C429 H423 0.930 . S
C429 C425 1.400 . S
C429 C428 1.385 1_565 S
C430 C428 1.478 . S
C430 C432 1.381 1_445 S
C430 C436 1.383 . S
C431 C427 1.495 . S
C431 H437 0.959 . S
C431 H438 0.961 . S
C431 H439 0.960 . S
C432 C430 1.381 1_665 S
C432 C433 1.394 . S
C432 H440 0.930 . S
C433 C432 1.394 . S
C433 C434 1.383 1_665 S
C433 H441 0.929 . S
C434 C433 1.383 1_445 S
C434 C435 1.377 . S
C435 H419 0.930 . S
C435 C434 1.377 . S
C435 C436 1.379 . S
C436 H420 0.931 . S
C436 C430 1.383 . S
C436 C435 1.379 . S
H437 C431 0.959 . S
H438 C431 0.961 . S
H439 C431 0.960 . S
H440 C432 0.930 . S
H441 C433 0.929 . S
H442 C450 0.929 . S
H443 C452 0.930 . S
H444 C454 0.930 . S
H445 C457 0.929 . S
H446 C460 0.930 . S
H447 C462 0.960 . S
H448 C462 0.960 . S
H449 C462 0.960 . S
C450 H442 0.929 . S
C450 C451 1.377 . S
C450 C452 1.384 . S
C451 C450 1.377 . S
C451 C457 1.390 . S
C452 H443 0.930 . S
C452 C450 1.384 . S
C452 C453 1.372 . S
C453 C452 1.372 . S
C453 C454 1.400 . S
C453 C458 1.490 . S
C454 H444 0.930 . S
C454 C453 1.400 . S
C454 C457 1.386 . S
H455 C471 0.930 . S
H456 C472 0.931 . S
C457 H445 0.929 . S
C457 C451 1.390 . S
C457 C454 1.386 . S
C458 C453 1.490 . S
C458 C460 1.395 . S
C458 C461 1.403 . S
H459 C465 0.930 . S
C460 H446 0.930 . S
C460 C458 1.395 . S
C460 C463 1.403 . S
C461 C458 1.403 . S
C461 C462 1.524 . S
C461 C465 1.400 . S
C462 H447 0.960 . S
C462 H448 0.960 . S
C462 H449 0.960 . S
C462 C461 1.524 . S
C463 C460 1.403 . S
C463 C464 1.392 . S
C463 C467 1.495 . S
C464 C463 1.392 . S
C464 C465 1.385 . S
C464 C466 1.478 . S
C465 H459 0.930 . S
C465 C461 1.400 . S
C465 C464 1.385 . S
C466 C464 1.478 . S
C466 C468 1.381 . S
C466 C472 1.383 . S
C467 C463 1.495 . S
C467 H473 0.959 . S
C467 H474 0.961 . S
C467 H475 0.960 . S
C468 C466 1.381 . S
C468 C469 1.394 . S
C468 H476 0.930 . S
C469 C468 1.394 . S
C469 C470 1.383 . S
C469 H477 0.929 . S
C470 C469 1.383 . S
C470 C471 1.377 . S
C471 H455 0.930 . S
C471 C470 1.377 . S
C471 C472 1.379 . S
C472 H456 0.931 . S
C472 C466 1.383 . S
C472 C471 1.379 . S
H473 C467 0.959 . S
H474 C467 0.961 . S
H475 C467 0.960 . S
H476 C468 0.930 . S
H477 C469 0.929 . S
H478 C486 0.929 . S
H479 C488 0.930 . S
H480 C490 0.930 . S
H481 C493 0.929 . S
H482 C496 0.930 . S
H483 C498 0.960 . S
H484 C498 0.960 . S
H485 C498 0.960 . S
C486 H478 0.929 . S
C486 C487 1.377 . S
C486 C488 1.384 . S
C487 C486 1.377 . S
C487 C493 1.390 . S
C488 H479 0.930 . S
C488 C486 1.384 . S
C488 C489 1.372 . S
C489 C488 1.372 . S
C489 C490 1.400 . S
C489 C494 1.490 . S
C490 H480 0.930 . S
C490 C489 1.400 . S
C490 C493 1.386 . S
H491 C507 0.930 . S
H492 C508 0.931 . S
C493 H481 0.929 . S
C493 C487 1.390 . S
C493 C490 1.386 . S
C494 C489 1.490 . S
C494 C496 1.395 . S
C494 C497 1.403 . S
H495 C501 0.930 . S
C496 H482 0.930 . S
C496 C494 1.395 . S
C496 C499 1.403 . S
C497 C494 1.403 . S
C497 C498 1.524 . S
C497 C501 1.400 . S
C498 H483 0.960 . S
C498 H484 0.960 . S
C498 H485 0.960 . S
C498 C497 1.524 . S
C499 C496 1.403 . S
C499 C500 1.392 . S
C499 C503 1.495 . S
C500 C499 1.392 . S
C500 C501 1.385 . S
C500 C502 1.478 . S
C501 H495 0.930 . S
C501 C497 1.400 . S
C501 C500 1.385 . S
C502 C500 1.478 . S
C502 C504 1.381 . S
C502 C508 1.383 . S
C503 C499 1.495 . S
C503 H509 0.959 . S
C503 H510 0.961 . S
C503 H511 0.960 . S
C504 C502 1.381 . S
C504 C505 1.394 . S
C504 H512 0.930 . S
C505 C504 1.394 . S
C505 C506 1.383 . S
C505 H513 0.929 . S
C506 C505 1.383 . S
C506 C507 1.377 . S
C507 H491 0.930 . S
C507 C506 1.377 . S
C507 C508 1.379 . S
C508 H492 0.931 . S
C508 C502 1.383 . S
C508 C507 1.379 . S
H509 C503 0.959 . S
H510 C503 0.961 . S
H511 C503 0.960 . S
H512 C504 0.930 . S
H513 C505 0.929 . S
C110 C77 1.390 . S
C91 C21 1.391 . S
C127 C19 1.381 1_556 S
C146 C68 1.378 . S
C163 C18 1.349 . S
C182 C80 1.357 . S
C199 C20 1.372 1_556 S
C218 C71 1.369 . S
C235 C44 1.391 . S
C254 C59 1.379 . S
C271 C42 1.383 . S
C290 C50 1.384 . S
C326 C62 1.359 . S
C307 C41 1.345 . S
C362 C53 1.361 . S
C343 C43 1.369 . S
C379 C16 1.492 . S
C398 C51 1.489 1_545 S
C415 C17 1.456 . S
C434 C60 1.452 . S
C470 C69 1.490 . S
C451 C39 1.491 . S
C487 C40 1.457 . S
C506 C78 1.456 . S
