# Generated by pormake.
# Topology zzz, (3,6)-cn, num edge types: 1
# Building blocks:
#     Node 0, Type 0, BuildingBlock: ESEHIV_clean_linker_0, # of connection points: 3
#     Node 1, Type 0, BuildingBlock: ESEHIV_clean_linker_0, # of connection points: 3
#     Node 2, Type 0, BuildingBlock: ESEHIV_clean_linker_0, # of connection points: 3
#     Node 3, Type 0, BuildingBlock: ESEHIV_clean_linker_0, # of connection points: 3
#     Node 4, Type 0, BuildingBlock: ESEHIV_clean_linker_0, # of connection points: 3
#     Node 5, Type 0, BuildingBlock: ESEHIV_clean_linker_0, # of connection points: 3
#     Node 6, Type 0, BuildingBlock: ESEHIV_clean_linker_0, # of connection points: 3
#     Node 7, Type 0, BuildingBlock: ESEHIV_clean_linker_0, # of connection points: 3
#     Node 8, Type 1, BuildingBlock: GEDQOX_clean_sbu_0, # of connection points: 6
#     Node 9, Type 1, BuildingBlock: GEDQOX_clean_sbu_0, # of connection points: 6
#     Node 10, Type 1, BuildingBlock: GEDQOX_clean_sbu_0, # of connection points: 6
#     Node 11, Type 1, BuildingBlock: GEDQOX_clean_sbu_0, # of connection points: 6
#     Edge 12, Type (0, 1), BuildingBlock: ZUJKAS_clean_linker_0, # of connection points: 2
#     Edge 13, Type (0, 1), BuildingBlock: ZUJKAS_clean_linker_0, # of connection points: 2
#     Edge 14, Type (0, 1), BuildingBlock: ZUJKAS_clean_linker_0, # of connection points: 2
#     Edge 15, Type (0, 1), BuildingBlock: ZUJKAS_clean_linker_0, # of connection points: 2
#     Edge 16, Type (0, 1), BuildingBlock: ZUJKAS_clean_linker_0, # of connection points: 2
#     Edge 17, Type (0, 1), BuildingBlock: ZUJKAS_clean_linker_0, # of connection points: 2
#     Edge 18, Type (0, 1), BuildingBlock: ZUJKAS_clean_linker_0, # of connection points: 2
#     Edge 19, Type (0, 1), BuildingBlock: ZUJKAS_clean_linker_0, # of connection points: 2
#     Edge 20, Type (0, 1), BuildingBlock: ZUJKAS_clean_linker_0, # of connection points: 2
#     Edge 21, Type (0, 1), BuildingBlock: ZUJKAS_clean_linker_0, # of connection points: 2
#     Edge 22, Type (0, 1), BuildingBlock: ZUJKAS_clean_linker_0, # of connection points: 2
#     Edge 23, Type (0, 1), BuildingBlock: ZUJKAS_clean_linker_0, # of connection points: 2
#     Edge 24, Type (0, 1), BuildingBlock: ZUJKAS_clean_linker_0, # of connection points: 2
#     Edge 25, Type (0, 1), BuildingBlock: ZUJKAS_clean_linker_0, # of connection points: 2
#     Edge 26, Type (0, 1), BuildingBlock: ZUJKAS_clean_linker_0, # of connection points: 2
#     Edge 27, Type (0, 1), BuildingBlock: ZUJKAS_clean_linker_0, # of connection points: 2
#     Edge 28, Type (0, 1), BuildingBlock: ZUJKAS_clean_linker_0, # of connection points: 2
#     Edge 29, Type (0, 1), BuildingBlock: ZUJKAS_clean_linker_0, # of connection points: 2
#     Edge 30, Type (0, 1), BuildingBlock: ZUJKAS_clean_linker_0, # of connection points: 2
#     Edge 31, Type (0, 1), BuildingBlock: ZUJKAS_clean_linker_0, # of connection points: 2
#     Edge 32, Type (0, 1), BuildingBlock: ZUJKAS_clean_linker_0, # of connection points: 2
#     Edge 33, Type (0, 1), BuildingBlock: ZUJKAS_clean_linker_0, # of connection points: 2
#     Edge 34, Type (0, 1), BuildingBlock: ZUJKAS_clean_linker_0, # of connection points: 2
#     Edge 35, Type (0, 1), BuildingBlock: ZUJKAS_clean_linker_0, # of connection points: 2
# Relax obj value: 0.306
# Max RMSD: 0.263
# Mean RMSD: 0.198
data_MOF--net-zzz--node1-GEDQOX_clean_sbu_0--node2-ESEHIV_clean_linker_0--edge1-ZUJKAS_clean_linker_0
_symmetry_space_group_name_H-M    P1
_symmetry_Int_Tables_number       1
_symmetry_cell_setting            triclinic
loop_
_symmetry_equiv_pos_as_xyz
'x, y, z'
_cell_length_a     63.501559
_cell_length_b     59.514368
_cell_length_c     22.263609
_cell_angle_alpha  81.94447
_cell_angle_beta   91.00037
_cell_angle_gamma 101.94015
loop_
_atom_site_label
_atom_site_type_symbol
_atom_site_fract_x
_atom_site_fract_y
_atom_site_fract_z
_atom_type_partial_charge
H0 H 0.80227 0.43948 0.18548 0.0
H1 H 0.75331 0.43432 0.04989 0.0
H2 H 0.74556 0.46639 0.20791 0.0
C3 C 0.78646 0.44185 0.17028 0.0
C4 C 0.77461 0.45323 0.20418 0.0
C5 C 0.77897 0.43512 0.11455 0.0
C6 C 0.75911 0.43951 0.09298 0.0
C7 C 0.74677 0.45053 0.12674 0.0
C8 C 0.75468 0.45737 0.18231 0.0
H9 H 0.97886 0.75887 0.28925 0.0
H10 H 0.99084 0.71181 0.17069 0.0
H11 H 0.96967 0.686 0.35516 0.0
C12 C 0.97889 0.74135 0.28093 0.0
C13 C 0.97304 0.72298 0.32819 0.0
C14 C 0.98537 0.73758 0.22404 0.0
C15 C 0.98624 0.715 0.2149 0.0
C16 C 0.98069 0.6963 0.26175 0.0
C17 C 0.97398 0.70029 0.31873 0.0
H18 H 0.72832 0.02819 0.16965 0.0
H19 H 0.78135 0.03642 0.04593 0.0
H20 H 0.78484 0.0028 0.22931 0.0
C21 C 0.74463 0.02652 0.16083 0.0
C22 C 0.75571 0.01528 0.20681 0.0
C23 C 0.75366 0.03417 0.10265 0.0
C24 C 0.77433 0.03078 0.09094 0.0
C25 C 0.78571 0.01944 0.13623 0.0
C26 C 0.77621 0.01155 0.19409 0.0
H27 H 0.57877 0.73502 0.34363 0.0
H28 H 0.56368 0.79291 0.41758 0.0
H29 H 0.5778 0.79855 0.22693 0.0
C30 C 0.57682 0.75288 0.33724 0.0
C31 C 0.57915 0.76567 0.2791 0.0
C32 C 0.57088 0.7623 0.3871 0.0
C33 C 0.56856 0.78559 0.37947 0.0
C34 C 0.5719 0.79908 0.32163 0.0
C35 C 0.57696 0.78881 0.27207 0.0
H36 H 0.22614 0.5396 0.48009 0.0
H37 H 0.274 0.54901 0.6181 0.0
H38 H 0.28879 0.52636 0.4508 0.0
C39 C 0.2423 0.53913 0.49603 0.0
C40 C 0.25673 0.53232 0.45885 0.0
C41 C 0.24825 0.54492 0.55374 0.0
C42 C 0.26935 0.54473 0.57336 0.0
C43 C 0.28422 0.53821 0.5364 0.0
C44 C 0.2778 0.53223 0.47879 0.0
H45 H 0.03283 0.24528 0.37365 0.0
H46 H 0.03112 0.29351 0.49894 0.0
H47 H 0.05359 0.31851 0.31524 0.0
C48 C 0.03507 0.26299 0.3832 0.0
C49 C 0.04324 0.28126 0.3374 0.0
C50 C 0.03078 0.26717 0.44163 0.0
C51 C 0.03469 0.29006 0.45406 0.0
C52 C 0.04284 0.30867 0.40893 0.0
C53 C 0.04716 0.30427 0.35023 0.0
H54 H 0.30519 0.98508 0.46135 0.0
H55 H 0.2584 0.97736 0.60359 0.0
H56 H 0.24643 0.0091 0.4232 0.0
C57 C 0.28961 0.9871 0.47635 0.0
C58 C 0.27647 0.99766 0.4351 0.0
C59 C 0.28332 0.97994 0.53721 0.0
C60 C 0.26315 0.98253 0.55632 0.0
C61 C 0.24966 0.99305 0.51556 0.0
C62 C 0.25659 1.00087 0.45501 0.0
H63 H 0.44605 0.26839 0.30468 0.0
H64 H 0.463 0.2104 0.23536 0.0
H65 H 0.45333 0.2081 0.427 0.0
C66 C 0.44904 0.25093 0.31252 0.0
C67 C 0.44898 0.23949 0.37203 0.0
C68 C 0.45431 0.24079 0.26307 0.0
C69 C 0.45867 0.21826 0.27315 0.0
C70 C 0.45715 0.20592 0.33238 0.0
C71 C 0.45268 0.21688 0.38116 0.0
Nd72 Nd 0.0034 0.99363 0.7871 0.0
Nd73 Nd 0.03236 0.01273 0.88481 0.0
C74 C 0.97441 0.96708 0.72661 0.0
C75 C 0.97272 0.94399 0.70792 0.0
C76 C 0.95282 0.93161 0.69079 0.0
C77 C 0.95112 0.9096 0.67331 0.0
C78 C 0.96933 0.89954 0.67264 0.0
C79 C 0.98924 0.91201 0.69053 0.0
C80 C 0.99089 0.93399 0.70806 0.0
C81 C 0.04564 0.00923 0.75114 0.0
C82 C 0.02709 0.95861 0.88142 0.0
C83 C 0.06116 0.03869 0.94734 0.0
C84 C 0.06385 0.06174 0.96772 0.0
C85 C 0.06182 0.08157 0.92739 0.0
C86 C 0.06314 0.10292 0.94844 0.0
C87 C 0.06659 0.10493 0.01027 0.0
C88 C 0.06913 0.08513 0.05016 0.0
C89 C 0.06773 0.0638 0.02911 0.0
C90 C 0.99002 0.99698 0.92038 0.0
C91 C 0.00859 0.0477 0.7902 0.0
O92 O 0.973 0.96747 0.78501 0.0
O93 O 0.98968 0.98356 0.70022 0.0
O94 O 0.02945 0.01188 0.71643 0.0
O95 O 0.03927 0.99779 0.80187 0.0
O96 O 0.01118 0.96098 0.84374 0.0
O97 O 0.03998 0.9766 0.8999 0.0
O98 O 0.06309 0.03816 0.88911 0.0
O99 O 0.04537 0.02265 0.97276 0.0
O100 O 0.00617 0.99418 0.95504 0.0
O101 O 0.99652 0.00862 0.87003 0.0
O102 O 0.0249 0.04537 0.8266 0.0
O103 O 0.99537 0.02954 0.77352 0.0
H104 H 0.93857 0.93896 0.69096 0.0
H105 H 0.93548 0.90039 0.66078 0.0
H106 H 0.00367 0.90503 0.6899 0.0
H107 H 0.00641 0.94326 0.72138 0.0
H108 H 0.05895 0.08053 0.8797 0.0
H109 H 0.06092 0.1177 0.91646 0.0
H110 H 0.0722 0.08608 0.09783 0.0
H111 H 0.06947 0.0488 0.06103 0.0
Nd112 Nd 0.52141 0.98281 0.79968 0.0
Nd113 Nd 0.51027 0.02274 0.85205 0.0
C114 C 0.54017 0.9497 0.77259 0.0
C115 C 0.55995 0.95048 0.7385 0.0
C116 C 0.56747 0.93019 0.73473 0.0
C117 C 0.58629 0.93118 0.70166 0.0
C118 C 0.59789 0.95253 0.67221 0.0
C119 C 0.59026 0.97282 0.67662 0.0
C120 C 0.57146 0.97178 0.70933 0.0
C121 C 0.51093 0.01645 0.71353 0.0
C122 C 0.55985 0.02768 0.82185 0.0
C123 C 0.49134 0.05571 0.87929 0.0
C124 C 0.47177 0.05503 0.91428 0.0
C125 C 0.46313 0.07493 0.91307 0.0
C126 C 0.44464 0.07418 0.94734 0.0
C127 C 0.43467 0.05352 0.98354 0.0
C128 C 0.44325 0.03354 0.98369 0.0
C129 C 0.46159 0.03427 0.94922 0.0
C130 C 0.52061 0.98896 0.93824 0.0
C131 C 0.47186 0.97813 0.82816 0.0
O132 O 0.54295 0.95807 0.82409 0.0
O133 O 0.52465 0.95666 0.74066 0.0
O134 O 0.5059 0.99444 0.70991 0.0
O135 O 0.52231 0.02029 0.75948 0.0
O136 O 0.55445 0.00539 0.81675 0.0
O137 O 0.5452 0.04 0.82786 0.0
O138 O 0.48828 0.04708 0.82823 0.0
O139 O 0.50711 0.04905 0.91058 0.0
O140 O 0.52556 0.01093 0.94209 0.0
O141 O 0.50924 0.98523 0.89223 0.0
O142 O 0.47737 1.00053 0.83178 0.0
O143 O 0.48657 0.96562 0.82508 0.0
H144 H 0.55877 0.91361 0.75716 0.0
H145 H 0.59183 0.91528 0.69943 0.0
H146 H 0.59855 0.98948 0.65365 0.0
H147 H 0.56576 0.98761 0.71143 0.0
H148 H 0.47077 0.09105 0.88605 0.0
H149 H 0.43843 0.08985 0.94658 0.0
H150 H 0.43572 0.01729 0.01035 0.0
H151 H 0.46792 0.01866 0.95012 0.0
Nd152 Nd 0.50533 0.51012 0.8765 0.0
Nd153 Nd 0.53151 0.49555 0.78354 0.0
C154 C 0.48289 0.53448 0.92859 0.0
C155 C 0.49097 0.55868 0.93816 0.0
C156 C 0.47831 0.57539 0.92394 0.0
C157 C 0.48753 0.59901 0.92227 0.0
C158 C 0.50958 0.60612 0.93401 0.0
C159 C 0.52197 0.58926 0.94984 0.0
C160 C 0.51282 0.56586 0.95157 0.0
C161 C 0.54487 0.5034 0.91648 0.0
C162 C 0.537 0.54997 0.77818 0.0
C163 C 0.55367 0.47105 0.73089 0.0
C164 C 0.54542 0.4468 0.72242 0.0
C165 C 0.5589 0.43073 0.72681 0.0
C166 C 0.55005 0.4071 0.72683 0.0
C167 C 0.52761 0.39932 0.72331 0.0
C168 C 0.51431 0.4156 0.71835 0.0
C169 C 0.52309 0.439 0.7182 0.0
C170 C 0.49189 0.50233 0.74406 0.0
C171 C 0.49992 0.45577 0.88221 0.0
O172 O 0.48046 0.53154 0.87154 0.0
O173 O 0.49241 0.51913 0.95979 0.0
O174 O 0.52772 0.49803 0.95059 0.0
O175 O 0.54117 0.51332 0.86475 0.0
O176 O 0.52008 0.54433 0.81511 0.0
O177 O 0.54702 0.53408 0.76383 0.0
O178 O 0.55651 0.4743 0.78761 0.0
O179 O 0.54383 0.48615 0.69996 0.0
O180 O 0.50902 0.50791 0.70989 0.0
O181 O 0.4957 0.49224 0.79545 0.0
O182 O 0.51707 0.46144 0.84609 0.0
O183 O 0.48969 0.47166 0.89533 0.0
H184 H 0.46155 0.57023 0.91211 0.0
H185 H 0.47762 0.6117 0.9102 0.0
H186 H 0.53887 0.59417 0.96044 0.0
H187 H 0.52313 0.55342 0.96128 0.0
H188 H 0.57612 0.43638 0.7315 0.0
H189 H 0.56067 0.39489 0.73059 0.0
H190 H 0.49703 0.41028 0.71422 0.0
H191 H 0.51228 0.45099 0.71619 0.0
Nd192 Nd 0.00218 0.52334 0.79225 0.0
Nd193 Nd 0.02313 0.48533 0.87609 0.0
C194 C 0.97731 0.55272 0.75545 0.0
C195 C 0.95746 0.5488 0.72006 0.0
C196 C 0.94821 0.56726 0.69402 0.0
C197 C 0.92971 0.56301 0.65854 0.0
C198 C 0.92019 0.54021 0.64919 0.0
C199 C 0.92954 0.52184 0.67586 0.0
C200 C 0.94803 0.52612 0.71057 0.0
C201 C 0.01131 0.49066 0.72483 0.0
C202 C 0.97311 0.47159 0.84741 0.0
C203 C 0.04993 0.45905 0.92174 0.0
C204 C 0.07132 0.46514 0.94845 0.0
C205 C 0.08389 0.44842 0.96335 0.0
C206 C 0.10402 0.45441 0.99028 0.0
C207 C 0.11183 0.47723 0.00252 0.0
C208 C 0.09935 0.494 0.98578 0.0
C209 C 0.07926 0.48798 0.95942 0.0
C210 C 0.00539 0.51445 0.93551 0.0
C211 C 0.05343 0.5363 0.81627 0.0
O212 O 0.97597 0.54096 0.8102 0.0
O213 O 0.99491 0.55215 0.72621 0.0
O214 O 0.00333 0.50825 0.70133 0.0
O215 O 0.01388 0.49165 0.78037 0.0
O216 O 0.97405 0.49406 0.83079 0.0
O217 O 0.99054 0.46285 0.85851 0.0
O218 O 0.04882 0.46614 0.8636 0.0
O219 O 0.03397 0.46274 0.95289 0.0
O220 O 0.005 0.49287 0.95676 0.0
O221 O 0.01609 0.52029 0.88645 0.0
O222 O 0.05174 0.51556 0.84856 0.0
O223 O 0.03684 0.54409 0.791 0.0
H224 H 0.95538 0.58489 0.70061 0.0
H225 H 0.92285 0.57749 0.6385 0.0
H226 H 0.92291 0.50417 0.66849 0.0
H227 H 0.95517 0.51168 0.72935 0.0
H228 H 0.078 0.43072 0.95504 0.0
H229 H 0.11315 0.44104 0.00311 0.0
H230 H 0.10502 0.5118 0.99358 0.0
H231 H 0.06978 0.50112 0.94842 0.0
H232 H 0.23227 0.03181 0.49265 0.0
H233 H 0.19804 0.03741 0.53117 0.0
H234 H 0.18573 0.96765 0.62641 0.0
H235 H 0.21969 0.96178 0.58736 0.0
H236 H 0.15039 0.98042 0.55742 0.0
H237 H 0.18562 0.04445 0.71026 0.0
H238 H 0.19525 0.05084 0.63299 0.0
H239 H 0.20099 0.02598 0.68074 0.0
C240 C 0.22217 0.01761 0.52138 0.0
C241 C 0.22868 0.99637 0.53714 0.0
C242 C 0.20276 0.02092 0.54382 0.0
C243 C 0.18955 0.00304 0.58225 0.0
C244 C 0.19581 0.98171 0.59715 0.0
H245 H 0.08059 0.99864 0.81289 0.0
H246 H 0.11606 0.99901 0.77054 0.0
C247 C 0.21523 0.97842 0.57503 0.0
C248 C 0.16899 0.00632 0.60634 0.0
H249 H 0.14768 0.03604 0.70226 0.0
C250 C 0.14976 0.99263 0.58889 0.0
C251 C 0.16832 0.02211 0.64786 0.0
C252 C 0.18862 0.03661 0.66962 0.0
C253 C 0.1298 0.99434 0.61179 0.0
C254 C 0.12909 0.01034 0.6527 0.0
C255 C 0.14832 0.02397 0.67041 0.0
C256 C 0.10848 0.01243 0.67914 0.0
C257 C 0.10964 0.97864 0.59315 0.0
C258 C 0.09278 0.02054 0.64205 0.0
C259 C 0.07255 0.02037 0.66607 0.0
C260 C 0.06774 0.01208 0.72757 0.0
C261 C 0.08384 0.005 0.76525 0.0
C262 C 0.10408 0.00523 0.74119 0.0
H263 H 0.11332 0.96418 0.57136 0.0
H264 H 0.09891 0.97122 0.63298 0.0
H265 H 0.10074 0.98886 0.56015 0.0
H266 H 0.09601 0.02649 0.59421 0.0
H267 H 0.0605 0.02608 0.6361 0.0
H268 H 0.49169 0.1893 0.29746 0.0
H269 H 0.50218 0.15307 0.34194 0.0
H270 H 0.4435 0.13407 0.44873 0.0
H271 H 0.43263 0.16927 0.40236 0.0
H272 H 0.51155 0.14276 0.45428 0.0
H273 H 0.4452 0.07261 0.40586 0.0
H274 H 0.44803 0.10175 0.36666 0.0
H275 H 0.43413 0.09339 0.43899 0.0
C276 C 0.48068 0.17685 0.32844 0.0
C277 C 0.46137 0.1821 0.34652 0.0
C278 C 0.48676 0.15627 0.35437 0.0
C279 C 0.47358 0.1406 0.39853 0.0
C280 C 0.45375 0.14537 0.41376 0.0
H281 H 0.51366 0.06253 0.71907 0.0
H282 H 0.50597 0.09203 0.63829 0.0
C283 C 0.44761 0.16568 0.38755 0.0
C284 C 0.48141 0.12092 0.43447 0.0
H285 H 0.46444 0.06476 0.49995 0.0
C286 C 0.50142 0.12556 0.46321 0.0
C287 C 0.46852 0.09826 0.44562 0.0
C288 C 0.44791 0.0912 0.41197 0.0
C289 C 0.5083 0.10866 0.50509 0.0
C290 C 0.49441 0.08673 0.52074 0.0
C291 C 0.47496 0.08168 0.48939 0.0
C292 C 0.49945 0.06892 0.56999 0.0
C293 C 0.53044 0.11458 0.53172 0.0
C294 C 0.49748 0.0458 0.55979 0.0
C295 C 0.50113 0.02879 0.60658 0.0
C296 C 0.50715 0.03457 0.6644 0.0
C297 C 0.50925 0.05766 0.67475 0.0
C298 C 0.50509 0.07458 0.62829 0.0
H299 H 0.5415 0.12762 0.4999 0.0
H300 H 0.52932 0.1223 0.57383 0.0
H301 H 0.53759 0.09901 0.54277 0.0
H302 H 0.49306 0.04086 0.51553 0.0
H303 H 0.4994 0.01112 0.59729 0.0
H304 H 0.32292 0.55147 0.47544 0.0
H305 H 0.35828 0.54589 0.51286 0.0
H306 H 0.32992 0.51491 0.68732 0.0
H307 H 0.29452 0.51977 0.64992 0.0
H308 H 0.38175 0.5623 0.61373 0.0
H309 H 0.36125 0.46604 0.63908 0.0
H310 H 0.34503 0.48395 0.59574 0.0
H311 H 0.34306 0.47895 0.67714 0.0
C312 C 0.32421 0.54336 0.52166 0.0
C313 C 0.3059 0.53602 0.55964 0.0
C314 C 0.34442 0.54031 0.54304 0.0
C315 C 0.34662 0.5297 0.60255 0.0
C316 C 0.32849 0.52281 0.64095 0.0
H317 H 0.45426 0.49079 0.80931 0.0
H318 H 0.41902 0.49839 0.77627 0.0
C319 C 0.30831 0.52586 0.61968 0.0
C320 C 0.36789 0.52574 0.62449 0.0
H321 H 0.39493 0.48312 0.67726 0.0
C322 C 0.38469 0.545 0.62745 0.0
C323 C 0.3716 0.50315 0.64248 0.0
C324 C 0.35436 0.4818 0.63805 0.0
C325 C 0.40507 0.54227 0.64878 0.0
C326 C 0.4088 0.51967 0.66653 0.0
C327 C 0.39198 0.50042 0.66377 0.0
C328 C 0.43019 0.51554 0.68689 0.0
C329 C 0.42233 0.5636 0.65316 0.0
C330 C 0.44802 0.52243 0.64733 0.0
C331 C 0.46809 0.5181 0.66604 0.0
C332 C 0.47062 0.50667 0.7245 0.0
C333 C 0.45273 0.49963 0.76399 0.0
C334 C 0.43264 0.50397 0.74521 0.0
H335 H 0.41539 0.57926 0.65351 0.0
H336 H 0.432 0.56127 0.69475 0.0
H337 H 0.43331 0.56675 0.61328 0.0
H338 H 0.44637 0.53095 0.60172 0.0
H339 H 0.48161 0.52365 0.63465 0.0
H340 H 0.06957 0.32671 0.49422 0.0
H341 H 0.0679 0.36135 0.5405 0.0
H342 H 0.02036 0.37772 0.41036 0.0
H343 H 0.02217 0.34309 0.3634 0.0
H344 H 0.06777 0.41481 0.479 0.0
H345 H 0.9948 0.36012 0.60044 0.0
H346 H 0.01568 0.34753 0.57296 0.0
H347 H 0.99791 0.35953 0.52035 0.0
C348 C 0.05938 0.33821 0.47415 0.0
C349 C 0.04609 0.33241 0.42512 0.0
C350 C 0.05839 0.35789 0.50068 0.0
C351 C 0.04394 0.37194 0.47896 0.0
C352 C 0.03167 0.36707 0.42749 0.0
H353 H 0.01234 0.49265 0.60258 0.0
H354 H 0.02177 0.46438 0.54352 0.0
C355 C 0.0328 0.34744 0.40051 0.0
C356 C 0.03982 0.38978 0.51477 0.0
H357 H 0.00556 0.39836 0.62192 0.0
C358 C 0.05414 0.41133 0.51006 0.0
C359 C 0.02223 0.38493 0.55592 0.0
C360 C 0.00672 0.36178 0.56331 0.0
C361 C 0.05111 0.42835 0.54511 0.0
C362 C 0.0333 0.42362 0.58564 0.0
C363 C 0.01918 0.40192 0.59083 0.0
C364 C 0.02861 0.44117 0.62177 0.0
C365 C 0.06709 0.45116 0.53922 0.0
C366 C 0.02903 0.43734 0.68549 0.0
C367 C 0.02367 0.45353 0.71945 0.0
C368 C 0.01755 0.47362 0.6901 0.0
C369 C 0.01707 0.47734 0.62639 0.0
C370 C 0.02258 0.46129 0.59255 0.0
H371 H 0.08233 0.45014 0.51695 0.0
H372 H 0.06003 0.46464 0.51128 0.0
H373 H 0.07085 0.45676 0.58443 0.0
H374 H 0.03345 0.42179 0.70888 0.0
H375 H 0.02398 0.45017 0.76849 0.0
H376 H 0.81906 0.05002 0.07551 0.0
H377 H 0.8533 0.0423 0.0441 0.0
H378 H 0.83526 0.9718 0.13297 0.0
H379 H 0.80072 0.97929 0.16374 0.0
H380 H 0.88608 0.02602 0.11706 0.0
H381 H 0.85012 0.96593 0.955 0.0
H382 H 0.83553 0.9852 0.98407 0.0
H383 H 0.83927 0.95927 0.03103 0.0
C384 C 0.82238 0.03287 0.08831 0.0
C385 C 0.80716 0.01521 0.12172 0.0
C386 C 0.84196 0.02851 0.07056 0.0
C387 C 0.84665 0.00641 0.08551 0.0
C388 C 0.83178 0.98889 0.12029 0.0
H389 H 0.97485 0.97907 0.0346 0.0
H390 H 0.93943 0.97887 0.07686 0.0
C391 C 0.81218 0.99326 0.13833 0.0
C392 C 0.86708 0.00185 0.06401 0.0
H393 H 0.88784 0.97248 0.96605 0.0
C394 C 0.88651 0.01419 0.08441 0.0
C395 C 0.86749 0.9866 0.02088 0.0
C396 C 0.84703 0.97357 0.99592 0.0
C397 C 0.9064 0.01182 0.0625 0.0
C398 C 0.90683 0.99649 0.01958 0.0
C399 C 0.88741 0.98405 0.99938 0.0
C400 C 0.92733 0.99419 0.99286 0.0
C401 C 0.92678 0.0263 0.08396 0.0
C402 C 0.93188 0.00197 0.93109 0.0
C403 C 0.95204 0.00203 0.9068 0.0
C404 C 0.96793 0.99424 0.94395 0.0
C405 C 0.96296 0.98535 0.00506 0.0
C406 C 0.94279 0.98531 0.02932 0.0
H407 H 0.9235 0.04058 0.10723 0.0
H408 H 0.93496 0.01512 0.11648 0.0
H409 H 0.93801 0.03392 0.04529 0.0
H410 H 0.92009 0.00877 0.90218 0.0
H411 H 0.95542 0.00885 0.85945 0.0
H412 H 0.59771 0.8363 0.25675 0.0
H413 H 0.58736 0.87171 0.20987 0.0
H414 H 0.52726 0.8522 0.31011 0.0
H415 H 0.53718 0.81574 0.35461 0.0
H416 H 0.51913 0.86259 0.19799 0.0
H417 H 0.5845 0.93304 0.25012 0.0
H418 H 0.59614 0.91245 0.21794 0.0
H419 H 0.58166 0.90391 0.28936 0.0
C420 C 0.58253 0.83984 0.27013 0.0
C421 C 0.5682 0.82315 0.30904 0.0
C422 C 0.57667 0.86028 0.24362 0.0
C423 C 0.55657 0.86493 0.25664 0.0
C424 C 0.54288 0.84909 0.29928 0.0
H425 H 0.53144 0.99421 0.05493 0.0
H426 H 0.53749 0.96448 0.13704 0.0
C427 C 0.54865 0.82836 0.32532 0.0
C428 C 0.54897 0.88457 0.21961 0.0
H429 H 0.56609 0.94075 0.15446 0.0
C430 C 0.52923 0.87983 0.18954 0.0
C431 C 0.5618 0.90727 0.20898 0.0
C432 C 0.58206 0.91447 0.24398 0.0
C433 C 0.52255 0.89668 0.14705 0.0
C434 C 0.53641 0.91866 0.13202 0.0
C435 C 0.5556 0.92379 0.16453 0.0
C436 C 0.53158 0.93646 0.08242 0.0
C437 C 0.50062 0.89065 0.11921 0.0
C438 C 0.52628 0.93082 0.0239 0.0
C439 C 0.52226 0.94774 0.97723 0.0
C440 C 0.52418 0.9708 0.98758 0.0
C441 C 0.52986 0.97656 0.04562 0.0
C442 C 0.53335 0.95955 0.09262 0.0
H443 H 0.48941 0.87756 0.1505 0.0
H444 H 0.49343 0.90617 0.10761 0.0
H445 H 0.50211 0.88295 0.07726 0.0
H446 H 0.52556 0.9134 0.01392 0.0
H447 H 0.51809 0.94289 0.93275 0.0
H448 H 0.70889 0.44509 0.18905 0.0
H449 H 0.67492 0.45429 0.1501 0.0
H450 H 0.70388 0.4771 0.97235 0.0
H451 H 0.73786 0.46792 0.0109 0.0
H452 H 0.66714 0.49671 0.09783 0.0
H453 H 0.64883 0.43241 0.93611 0.0
H454 H 0.66894 0.4311 0.99408 0.0
H455 H 0.67493 0.45116 0.92535 0.0
C456 C 0.70801 0.45207 0.14167 0.0
C457 C 0.72602 0.45566 0.10298 0.0
C458 C 0.68859 0.45724 0.11945 0.0
C459 C 0.68678 0.46604 0.05813 0.0
C460 C 0.70476 0.46979 0.01946 0.0
H461 H 0.58221 0.51261 0.85005 0.0
H462 H 0.6172 0.50436 0.88373 0.0
C463 C 0.72417 0.46455 0.04158 0.0
C464 C 0.66629 0.47203 0.03527 0.0
H465 H 0.62641 0.4599 0.93249 0.0
C466 C 0.6582 0.48861 0.06182 0.0
C467 C 0.65471 0.4615 0.9881 0.0
C468 C 0.66215 0.4429 0.95954 0.0
C469 C 0.63891 0.49507 0.0422 0.0
C470 C 0.62728 0.48445 0.99533 0.0
C471 C 0.63544 0.46804 0.96832 0.0
C472 C 0.60626 0.48963 0.97504 0.0
C473 C 0.63123 0.51342 0.07125 0.0
C474 C 0.58854 0.48383 0.01507 0.0
C475 C 0.56861 0.48846 0.99598 0.0
C476 C 0.56607 0.49893 0.93647 0.0
C477 C 0.58379 0.50463 0.89627 0.0
C478 C 0.60372 0.4999 0.91536 0.0
H479 H 0.64442 0.52385 0.09528 0.0
H480 H 0.62447 0.52529 0.03683 0.0
H481 H 0.61834 0.50493 0.10492 0.0
H482 H 0.59009 0.47553 0.06098 0.0
H483 H 0.55518 0.48374 0.02776 0.0
H484 H 0.01554 0.68276 0.22221 0.0
H485 H 0.016 0.64757 0.17767 0.0
H486 H 0.94881 0.62216 0.22395 0.0
H487 H 0.94829 0.65767 0.26847 0.0
H488 H 0.00518 0.59934 0.22023 0.0
H489 H 0.95148 0.62672 0.03627 0.0
H490 H 0.96468 0.6461 0.08729 0.0
H491 H 0.94163 0.62396 0.11276 0.0
C492 C 0.00101 0.66939 0.22421 0.0
C493 C 0.98187 0.67288 0.2486 0.0
C494 C 0.00127 0.64934 0.19865 0.0
C495 C 0.98236 0.63246 0.1965 0.0
C496 C 0.9635 0.63516 0.22439 0.0
H497 H 0.98537 0.50448 0.04593 0.0
H498 H 0.97761 0.53183 0.11077 0.0
C499 C 0.96327 0.65527 0.25039 0.0
C500 C 0.98235 0.61309 0.16111 0.0
H501 H 0.9645 0.59298 0.02888 0.0
C502 C 0.99608 0.59772 0.17881 0.0
C503 C 0.97074 0.61132 0.10649 0.0
C504 C 0.9564 0.62796 0.08403 0.0
C505 C 0.99877 0.58085 0.14298 0.0
C506 C 0.98721 0.57913 0.08827 0.0
C507 C 0.97324 0.59427 0.07098 0.0
C508 C 0.99023 0.56243 0.04711 0.0
C509 C 0.0146 0.5656 0.16275 0.0
C510 C 0.99912 0.5705 0.98877 0.0
C511 C 0.00348 0.55489 0.95143 0.0
C512 C 0.99894 0.53095 0.97184 0.0
C513 C 0.98922 0.52286 0.02922 0.0
C514 C 0.98486 0.53846 0.06645 0.0
H515 H 0.02552 0.57245 0.1985 0.0
H516 H 0.00565 0.54802 0.18141 0.0
H517 H 0.02452 0.56392 0.12367 0.0
H518 H 0.00326 0.58894 0.97282 0.0
H519 H 0.01089 0.56159 0.90731 0.0
H520 H 0.0439 0.26212 0.55967 0.0
H521 H 0.03517 0.22739 0.63494 0.0
H522 H 0.99303 0.19251 0.50755 0.0
H523 H 0.00086 0.2275 0.43299 0.0
H524 H 0.97738 0.18153 0.62787 0.0
H525 H 0.06258 0.17304 0.60888 0.0
H526 H 0.059 0.19974 0.63198 0.0
H527 H 0.05113 0.19332 0.55729 0.0
C528 C 0.03233 0.24729 0.54821 0.0
C529 C 0.02333 0.24741 0.49001 0.0
C530 C 0.02751 0.2274 0.59108 0.0
C531 C 0.01385 0.20728 0.57618 0.0
C532 C 0.00375 0.20784 0.51967 0.0
H533 H 0.98444 0.06113 0.69399 0.0
H534 H 0.98321 0.10089 0.64987 0.0
C535 C 0.00842 0.22775 0.47696 0.0
C536 C 0.01159 0.18504 0.6168 0.0
H537 H 0.03992 0.14432 0.67479 0.0
C538 C 0.99105 0.17343 0.63862 0.0
C539 C 0.02947 0.17451 0.63022 0.0
C540 C 0.05177 0.18564 0.60554 0.0
C541 C 0.9879 0.15141 0.67348 0.0
C542 C 0.00574 0.14079 0.68599 0.0
C543 C 0.02631 0.15263 0.66528 0.0
C544 C 0.00356 0.1169 0.71776 0.0
C545 C 0.96559 0.13968 0.69654 0.0
C546 C 0.0153 0.1128 0.77059 0.0
C547 C 0.01618 0.09019 0.79545 0.0
C548 C 0.00546 0.07128 0.76768 0.0
C549 C 0.99286 0.07536 0.71639 0.0
C550 C 0.99202 0.09805 0.69139 0.0
H551 H 0.95503 0.15236 0.69746 0.0
H552 H 0.95824 0.12706 0.666 0.0
H553 H 0.96614 0.13007 0.74286 0.0
H554 H 0.02434 0.12715 0.79147 0.0
H555 H 0.02567 0.08759 0.83567 0.0
H556 H 0.27609 0.94149 0.62465 0.0
H557 H 0.30285 0.92729 0.69332 0.0
H558 H 0.35166 0.98556 0.61686 0.0
H559 H 0.32534 0.99962 0.54887 0.0
H560 H 0.36277 0.94095 0.62211 0.0
H561 H 0.33202 0.95642 0.84253 0.0
H562 H 0.314 0.94015 0.79324 0.0
H563 H 0.32404 0.97059 0.77127 0.0
C564 C 0.29253 0.95127 0.62306 0.0
C565 C 0.29874 0.97149 0.58102 0.0
C566 C 0.30774 0.94317 0.66216 0.0
C567 C 0.32921 0.95537 0.65991 0.0
C568 C 0.33521 0.97577 0.61885 0.0
H569 H 0.43804 0.99947 0.83183 0.0
H570 H 0.40114 0.98527 0.80361 0.0
C571 C 0.32017 0.98376 0.57992 0.0
C572 C 0.34602 0.94733 0.69897 0.0
H573 H 0.3673 0.95037 0.83997 0.0
C574 C 0.36363 0.94232 0.67022 0.0
C575 C 0.34688 0.94904 0.76162 0.0
C576 C 0.32831 0.95439 0.7944 0.0
C577 C 0.38299 0.94143 0.70078 0.0
C578 C 0.38449 0.94502 0.76243 0.0
C579 C 0.3661 0.94764 0.79276 0.0
C580 C 0.40573 0.95112 0.79142 0.0
C581 C 0.40219 0.93898 0.665 0.0
C582 C 0.42046 0.93631 0.79672 0.0
C583 C 0.44191 0.94461 0.81183 0.0
C584 C 0.44876 0.9677 0.8227 0.0
C585 C 0.43345 0.98171 0.82277 0.0
C586 C 0.41221 0.97353 0.80707 0.0
H587 H 0.39889 0.93955 0.61569 0.0
H588 H 0.41625 0.95304 0.67106 0.0
H589 H 0.40661 0.92213 0.6815 0.0
H590 H 0.41566 0.91875 0.78636 0.0
H591 H 0.45326 0.93328 0.81231 0.0
H592 H 0.43007 0.22233 0.48445 0.0
H593 H 0.4347 0.24149 0.57581 0.0
H594 H 0.46955 0.30404 0.47061 0.0
H595 H 0.46623 0.28497 0.3805 0.0
H596 H 0.4797 0.26231 0.61431 0.0
H597 H 0.42499 0.3243 0.58143 0.0
H598 H 0.42024 0.29766 0.54818 0.0
H599 H 0.43919 0.32271 0.51352 0.0
C600 C 0.4386 0.24023 0.48063 0.0
C601 C 0.44789 0.25202 0.42491 0.0
C602 C 0.44105 0.25114 0.53279 0.0
C603 C 0.4523 0.27415 0.52955 0.0
C604 C 0.46049 0.28635 0.47362 0.0
H605 H 0.54147 0.36968 0.65768 0.0
H606 H 0.52078 0.33273 0.63418 0.0
C607 C 0.45842 0.2754 0.42191 0.0
C608 C 0.45805 0.28504 0.5847 0.0
H609 H 0.45719 0.3355 0.63897 0.0
C610 C 0.47432 0.27791 0.62135 0.0
C611 C 0.45077 0.30513 0.59413 0.0
C612 C 0.43267 0.31282 0.5576 0.0
C613 C 0.48514 0.29183 0.6628 0.0
C614 C 0.47953 0.31333 0.667 0.0
C615 C 0.46163 0.31909 0.6353 0.0
C616 C 0.49406 0.33187 0.69421 0.0
C617 C 0.50331 0.28414 0.69892 0.0
C618 C 0.48619 0.3433 0.73713 0.0
C619 C 0.49805 0.36444 0.75072 0.0
C620 C 0.51779 0.37464 0.72081 0.0
C621 C 0.52642 0.36221 0.68173 0.0
C622 C 0.5146 0.34102 0.66841 0.0
H623 H 0.50061 0.26491 0.70784 0.0
H624 H 0.51855 0.29053 0.6725 0.0
H625 H 0.50521 0.29113 0.74285 0.0
H626 H 0.47035 0.33655 0.75735 0.0
H627 H 0.4912 0.37348 0.78195 0.0
H628 H 0.20706 0.52088 0.5716 0.0
H629 H 0.17908 0.52866 0.63392 0.0
H630 H 0.22399 0.58582 0.69383 0.0
H631 H 0.25219 0.57865 0.62891 0.0
H632 H 0.17831 0.52832 0.75748 0.0
H633 H 0.17262 0.61503 0.63443 0.0
H634 H 0.18665 0.59591 0.60264 0.0
H635 H 0.19849 0.61113 0.66305 0.0
C636 C 0.211 0.53534 0.59728 0.0
C637 C 0.23176 0.54941 0.59446 0.0
C638 C 0.19501 0.53963 0.63336 0.0
C639 C 0.19937 0.55798 0.66794 0.0
C640 C 0.22021 0.57181 0.66667 0.0
H641 H 0.08566 0.54384 0.89745 0.0
H642 H 0.12413 0.55631 0.87309 0.0
C643 C 0.23632 0.56755 0.6301 0.0
C644 C 0.18169 0.56204 0.70488 0.0
H645 H 0.14595 0.59758 0.7076 0.0
C646 C 0.1714 0.54363 0.74761 0.0
C647 C 0.17281 0.58206 0.69158 0.0
C648 C 0.18306 0.60218 0.64524 0.0
C649 C 0.15157 0.54382 0.77392 0.0
C650 C 0.14213 0.56348 0.75875 0.0
C651 C 0.15323 0.58261 0.71927 0.0
C652 C 0.11953 0.56289 0.7761 0.0
C653 C 0.1402 0.52212 0.81365 0.0
C654 C 0.10418 0.56485 0.7304 0.0
C655 C 0.0822 0.55862 0.74456 0.0
C656 C 0.07537 0.55 0.80441 0.0
C657 C 0.09065 0.55027 0.85083 0.0
C658 C 0.1126 0.55716 0.83688 0.0
H659 H 0.14768 0.50704 0.81015 0.0
H660 H 0.14104 0.52513 0.86177 0.0
H661 H 0.12299 0.51742 0.80126 0.0
H662 H 0.10914 0.56941 0.68318 0.0
H663 H 0.07069 0.5584 0.70803 0.0
H664 H 0.01831 0.74555 0.14015 0.0
H665 H 0.02926 0.77967 0.06373 0.0
H666 H 0.97779 0.80899 0.12297 0.0
H667 H 0.96587 0.77444 0.19607 0.0
H668 H 0.98136 0.816 0.00358 0.0
H669 H 0.06231 0.84086 0.10355 0.0
H670 H 0.05667 0.81295 0.078 0.0
H671 H 0.04161 0.81798 0.14068 0.0
C672 C 0.00909 0.75908 0.13609 0.0
C673 C 0.9914 0.75742 0.17489 0.0
C674 C 0.01557 0.77871 0.09298 0.0
C675 C 0.00468 0.79713 0.08873 0.0
C676 C 0.98656 0.79508 0.12582 0.0
H677 H 0.03812 0.94209 0.99505 0.0
H678 H 0.03553 0.9013 0.03694 0.0
C679 C 0.9799 0.77541 0.16811 0.0
C680 C 0.01213 0.81893 0.04708 0.0
H681 H 0.05333 0.86624 0.02124 0.0
C682 C 0.99717 0.82692 0.00691 0.0
C683 C 0.03275 0.83314 0.05191 0.0
C684 C 0.04924 0.82596 0.09615 0.0
C685 C 0.00173 0.84925 0.974 0.0
C686 C 0.02227 0.86362 0.97935 0.0
C687 C 0.03766 0.85515 0.01707 0.0
C688 C 0.02719 0.88827 0.95159 0.0
C689 C 0.98393 0.85763 0.93718 0.0
C690 C 0.02436 0.89455 0.88931 0.0
C691 C 0.02523 0.91772 0.86586 0.0
C692 C 0.02978 0.93501 0.90391 0.0
C693 C 0.0346 0.929 0.96495 0.0
C694 C 0.03313 0.90574 0.98879 0.0
H695 H 0.96786 0.84663 0.95018 0.0
H696 H 0.98354 0.87578 0.94291 0.0
H697 H 0.98668 0.85697 0.88844 0.0
H698 H 0.02054 0.88146 0.85935 0.0
H699 H 0.02179 0.92207 0.81832 0.0
H700 H 0.72678 0.06443 0.10802 0.0
H701 H 0.69876 0.07174 0.03557 0.0
H702 H 0.72282 0.03283 0.91255 0.0
H703 H 0.75024 0.02452 0.98573 0.0
H704 H 0.69494 0.08896 0.908 0.0
H705 H 0.66284 0.99414 0.96796 0.0
H706 H 0.68426 0.00979 0.00954 0.0
H707 H 0.6897 0.00204 0.93706 0.0
C708 C 0.72631 0.05771 0.06514 0.0
C709 C 0.7404 0.04341 0.0533 0.0
C710 C 0.71044 0.06212 0.02355 0.0
C711 C 0.70852 0.05244 0.96935 0.0
C712 C 0.72392 0.0402 0.95459 0.0
H713 H 0.59268 0.01568 0.76619 0.0
H714 H 0.63095 0.02648 0.78765 0.0
C715 C 0.73968 0.0356 0.99637 0.0
C716 C 0.6886 0.05191 0.93372 0.0
H717 H 0.64266 0.01486 0.90121 0.0
C718 C 0.68356 0.07278 0.90577 0.0
C719 C 0.67372 0.03077 0.93166 0.0
C720 C 0.67772 0.00791 0.96351 0.0
C721 C 0.66393 0.073 0.87561 0.0
C722 C 0.64897 0.05186 0.87441 0.0
C723 C 0.65425 0.03104 0.90156 0.0
C724 C 0.62708 0.05052 0.8491 0.0
C725 C 0.65939 0.09578 0.84543 0.0
C726 C 0.61227 0.06125 0.87437 0.0
C727 C 0.59033 0.05529 0.86146 0.0
C728 C 0.58294 0.03818 0.82419 0.0
C729 C 0.59795 0.02875 0.79557 0.0
C730 C 0.61982 0.03498 0.80762 0.0
H731 H 0.67453 0.10876 0.83362 0.0
H732 H 0.64986 0.09356 0.80359 0.0
H733 H 0.65 0.10281 0.87718 0.0
H734 H 0.6174 0.07291 0.90749 0.0
H735 H 0.57904 0.06268 0.88438 0.0
H736 H 0.55996 0.7216 0.26205 0.0
H737 H 0.55942 0.70379 0.17047 0.0
H738 H 0.59993 0.76584 0.07866 0.0
H739 H 0.60171 0.7837 0.17211 0.0
H740 H 0.55556 0.74558 0.02476 0.0
H741 H 0.60989 0.68388 0.07708 0.0
H742 H 0.59359 0.68576 0.14067 0.0
H743 H 0.61323 0.71074 0.10895 0.0
C744 C 0.56949 0.73131 0.22348 0.0
C745 C 0.58101 0.75411 0.22491 0.0
C746 C 0.56899 0.72111 0.17087 0.0
C747 C 0.57973 0.7335 0.11824 0.0
C748 C 0.59163 0.75604 0.11919 0.0
H749 H 0.54822 0.62875 0.88235 0.0
H750 H 0.56876 0.66668 0.90049 0.0
C751 C 0.59248 0.76621 0.17245 0.0
C752 C 0.57647 0.72299 0.06188 0.0
H753 H 0.57927 0.67191 0.01413 0.0
C754 C 0.5613 0.72991 0.02065 0.0
C755 C 0.58428 0.70288 0.05615 0.0
C756 C 0.60133 0.69545 0.09775 0.0
C757 C 0.55178 0.71557 0.97847 0.0
C758 C 0.55747 0.69382 0.97855 0.0
C759 C 0.57465 0.68845 0.01448 0.0
C760 C 0.54341 0.67465 0.95226 0.0
C761 C 0.53474 0.72312 0.9371 0.0
C762 C 0.52204 0.66696 0.97333 0.0
C763 C 0.51029 0.6453 0.96314 0.0
C764 C 0.51985 0.6309 0.93237 0.0
C765 C 0.54058 0.63943 0.90694 0.0
C766 C 0.55229 0.66113 0.9169 0.0
H767 H 0.53841 0.74225 0.92417 0.0
H768 H 0.53329 0.71472 0.89528 0.0
H769 H 0.51899 0.71836 0.96141 0.0
H770 H 0.51502 0.67679 0.00206 0.0
H771 H 0.49443 0.6391 0.98359 0.0
H772 H 0.7904 0.45007 0.99623 0.0
H773 H 0.82008 0.4414 0.94174 0.0
H774 H 0.82978 0.39094 0.09321 0.0
H775 H 0.80035 0.40008 0.14859 0.0
H776 H 0.86479 0.42228 0.06823 0.0
H777 H 0.83542 0.39338 0.85194 0.0
H778 H 0.82644 0.4193 0.8614 0.0
H779 H 0.81738 0.39322 0.91394 0.0
C780 C 0.79834 0.43651 0.01697 0.0
C781 C 0.79321 0.42585 0.07671 0.0
C782 C 0.81526 0.43144 0.98561 0.0
C783 C 0.82709 0.41532 0.01303 0.0
C784 C 0.82085 0.40337 0.07101 0.0
H785 H 0.96296 0.42757 0.91065 0.0
H786 H 0.92707 0.40641 0.94675 0.0
C787 C 0.80409 0.40863 0.10265 0.0
C788 C 0.84809 0.41437 0.98628 0.0
H789 H 0.873 0.41455 0.85146 0.0
C790 C 0.86656 0.41985 0.02134 0.0
C791 C 0.85044 0.4112 0.92512 0.0
C792 C 0.8313 0.4037 0.88626 0.0
C793 C 0.88725 0.42422 0.99569 0.0
C794 C 0.88955 0.42275 0.93337 0.0
C795 C 0.87117 0.4157 0.89922 0.0
C796 C 0.91044 0.43218 0.90152 0.0
C797 C 0.90638 0.4322 0.03437 0.0
C798 C 0.91275 0.45295 0.86156 0.0
C799 C 0.9331 0.46501 0.84092 0.0
C800 C 0.95158 0.45649 0.85975 0.0
C801 C 0.94907 0.43468 0.8957 0.0
C802 C 0.9286 0.42259 0.91649 0.0
H803 H 0.90152 0.43529 0.07971 0.0
H804 H 0.91631 0.41877 0.0412 0.0
H805 H 0.91661 0.44847 0.01144 0.0
H806 H 0.89893 0.46062 0.84935 0.0
H807 H 0.93439 0.48159 0.81259 0.0
H808 H 0.08292 0.28652 0.28612 0.0
H809 H 0.09206 0.2643 0.20881 0.0
H810 H 0.02448 0.23747 0.1835 0.0
H811 H 0.01547 0.25981 0.25968 0.0
H812 H 0.08237 0.21792 0.22971 0.0
H813 H 0.04627 0.24534 0.01163 0.0
H814 H 0.05055 0.2632 0.07181 0.0
H815 H 0.02698 0.2403 0.07241 0.0
C816 C 0.07008 0.27682 0.26162 0.0
C817 C 0.0485 0.27504 0.27818 0.0
C818 C 0.07528 0.26394 0.21793 0.0
C819 C 0.05897 0.24927 0.18991 0.0
C820 C 0.03737 0.24901 0.20317 0.0
H821 H 0.04912 0.11169 0.11619 0.0
H822 H 0.05009 0.1482 0.15517 0.0
C823 C 0.0322 0.2618 0.24678 0.0
C824 C 0.06421 0.23137 0.15547 0.0
H825 H 0.05098 0.20538 0.02853 0.0
C826 C 0.07589 0.21551 0.18512 0.0
C827 C 0.05593 0.22819 0.0971 0.0
C828 C 0.04443 0.24534 0.06118 0.0
C829 C 0.07838 0.1959 0.15974 0.0
C830 C 0.06865 0.19177 0.1036 0.0
C831 C 0.05814 0.20834 0.07207 0.0
C832 C 0.06814 0.1697 0.07898 0.0
C833 C 0.09109 0.17952 0.19393 0.0
C834 C 0.0775 0.16964 0.02236 0.0
C835 C 0.07704 0.14868 0.99991 0.0
C836 C 0.06708 0.12737 0.03351 0.0
C837 C 0.05739 0.12764 0.08971 0.0
C838 C 0.05789 0.14854 0.11207 0.0
H839 H 0.10266 0.18838 0.22542 0.0
H840 H 0.07986 0.16512 0.22137 0.0
H841 H 0.10011 0.17197 0.16236 0.0
H842 H 0.0854 0.18578 0.99593 0.0
H843 H 0.08479 0.14914 0.95667 0.0
H844 H 0.28072 0.04155 0.37428 0.0
H845 H 0.30155 0.05754 0.28039 0.0
H846 H 0.31245 0.98949 0.26367 0.0
H847 H 0.29162 0.97356 0.35664 0.0
H848 H 0.34445 0.0561 0.27355 0.0
H849 H 0.30093 0.01384 0.08881 0.0
H850 H 0.28799 0.01502 0.15964 0.0
H851 H 0.30335 0.99312 0.15394 0.0
C852 C 0.28693 0.02994 0.3492 0.0
C853 C 0.28462 0.00636 0.37249 0.0
C854 C 0.29889 0.03907 0.29586 0.0
C855 C 0.30838 0.02467 0.26469 0.0
C856 C 0.30492 1.00086 0.28611 0.0
H857 H 0.42773 0.03402 0.10152 0.0
H858 H 0.396 0.03127 0.16472 0.0
C859 C 0.29314 0.99179 0.33945 0.0
C860 C 0.32445 0.03465 0.21552 0.0
H861 H 0.33971 0.02643 0.07527 0.0
C862 C 0.34318 0.05006 0.2296 0.0
C863 C 0.32276 0.02696 0.15798 0.0
C864 C 0.30255 0.01151 0.13895 0.0
C865 C 0.36087 0.0566 0.18948 0.0
C866 C 0.35984 0.0473 0.13422 0.0
C867 C 0.34055 0.03331 0.11807 0.0
C868 C 0.37924 0.04996 0.09576 0.0
C869 C 0.3808 0.07278 0.2075 0.0
C870 C 0.38018 0.06111 0.0357 0.0
C871 C 0.39835 0.06267 0.99931 0.0
C872 C 0.41565 0.05276 0.02222 0.0
C873 C 0.41459 0.04164 0.08243 0.0
C874 C 0.39656 0.04025 0.11877 0.0
H875 H 0.37696 0.08362 0.2409 0.0
H876 H 0.39228 0.0624 0.22893 0.0
H877 H 0.38887 0.08434 0.16734 0.0
H878 H 0.36687 0.06853 0.01702 0.0
H879 H 0.39866 0.07116 0.95291 0.0
H880 H 0.42461 0.26112 0.19957 0.0
H881 H 0.43195 0.2939 0.11781 0.0
H882 H 0.49837 0.28785 0.11267 0.0
H883 H 0.49099 0.25489 0.19452 0.0
H884 H 0.4914 0.33147 0.13753 0.0
H885 H 0.44674 0.30528 0.93354 0.0
H886 H 0.4314 0.2974 0.00318 0.0
H887 H 0.4541 0.28454 0.99331 0.0
C888 C 0.44056 0.26619 0.17916 0.0
C889 C 0.4572 0.25538 0.2029 0.0
C890 C 0.44475 0.28493 0.13248 0.0
C891 C 0.46569 0.29329 0.10889 0.0
C892 C 0.48206 0.28157 0.1299 0.0
H893 H 0.51327 0.41789 0.85207 0.0
H894 H 0.50427 0.37793 0.90311 0.0
C895 C 0.47781 0.26264 0.17625 0.0
C896 C 0.47101 0.31609 0.06952 0.0
H897 H 0.45905 0.34599 0.93496 0.0
C898 C 0.4845 0.33457 0.09298 0.0
C899 C 0.46195 0.32014 0.01149 0.0
C900 C 0.44788 0.30077 0.98348 0.0
C901 C 0.4887 0.35709 0.06074 0.0
C902 C 0.47913 0.36129 0.00361 0.0
C903 C 0.46615 0.34273 0.97916 0.0
C904 C 0.48271 0.38496 0.96888 0.0
C905 C 0.50328 0.37634 0.08805 0.0
C906 C 0.47317 0.40205 0.98812 0.0
C907 C 0.47812 0.42494 0.95868 0.0
C908 C 0.49287 0.43117 0.90979 0.0
C909 C 0.50188 0.41377 0.88959 0.0
C910 C 0.49674 0.39087 0.91863 0.0
H911 H 0.51201 0.36964 0.12804 0.0
H912 H 0.51523 0.38674 0.0538 0.0
H913 H 0.49352 0.38811 0.1027 0.0
H914 H 0.46225 0.39777 0.02681 0.0
H915 H 0.47091 0.43787 0.97546 0.0
H916 H 0.22036 0.50087 0.44267 0.0
H917 H 0.20468 0.49028 0.34744 0.0
H918 H 0.25959 0.5339 0.2491 0.0
H919 H 0.27529 0.545 0.34529 0.0
H920 H 0.22162 0.54289 0.20393 0.0
H921 H 0.21683 0.44856 0.23009 0.0
H922 H 0.20605 0.45624 0.29639 0.0
H923 H 0.23408 0.46709 0.27654 0.0
C924 C 0.22924 0.50801 0.40083 0.0
C925 C 0.24894 0.52392 0.40121 0.0
C926 C 0.22039 0.5017 0.34645 0.0
C927 C 0.23111 0.51097 0.29115 0.0
C928 C 0.25116 0.52635 0.29136 0.0
H929 H 0.1502 0.4638 0.98807 0.0
H930 H 0.1833 0.47321 0.04632 0.0
C931 C 0.26012 0.53263 0.34616 0.0
C932 C 0.2199 0.50649 0.2337 0.0
H933 H 0.18876 0.46277 0.16819 0.0
C934 C 0.21491 0.52538 0.1951 0.0
C935 C 0.21147 0.4837 0.22127 0.0
C936 C 0.21761 0.46279 0.25799 0.0
C937 C 0.20013 0.52199 0.14797 0.0
C938 C 0.18981 0.49914 0.14012 0.0
C939 C 0.19635 0.4803 0.17494 0.0
C940 C 0.17051 0.49449 0.10171 0.0
C941 C 0.19511 0.54294 0.10852 0.0
C942 C 0.15229 0.50302 0.11416 0.0
C943 C 0.13344 0.4976 0.08144 0.0
C944 C 0.13229 0.48336 0.03565 0.0
C945 C 0.15055 0.47472 0.02325 0.0
C946 C 0.16949 0.48019 0.05618 0.0
H947 H 0.20918 0.55772 0.10488 0.0
H948 H 0.19039 0.53907 0.06221 0.0
H949 H 0.18161 0.54848 0.1293 0.0
H950 H 0.15244 0.51343 0.15044 0.0
H951 H 0.11955 0.50408 0.09325 0.0
H952 H 0.99445 0.71984 0.43537 0.0
H953 H 0.99118 0.74193 0.51888 0.0
H954 H 0.93609 0.76395 0.4324 0.0
H955 H 0.93908 0.74157 0.35044 0.0
H956 H 0.99748 0.78771 0.49742 0.0
H957 H 0.91739 0.75634 0.60542 0.0
H958 H 0.92885 0.73932 0.55875 0.0
H959 H 0.91494 0.76135 0.52462 0.0
C960 C 0.98099 0.7284 0.43615 0.0
C961 C 0.96687 0.72884 0.38699 0.0
C962 C 0.97925 0.74123 0.48345 0.0
C963 C 0.9633 0.75456 0.48235 0.0
C964 C 0.94819 0.75343 0.43546 0.0
H965 H 0.94529 0.88217 0.57953 0.0
H966 H 0.94388 0.84508 0.54281 0.0
C967 C 0.94991 0.74063 0.38846 0.0
C968 C 0.96451 0.77257 0.52327 0.0
H969 H 0.93358 0.79702 0.60884 0.0
C970 C 0.98366 0.7894 0.52305 0.0
C971 C 0.94646 0.77496 0.55645 0.0
C972 C 0.92585 0.75686 0.56182 0.0
C973 C 0.98487 0.80912 0.55205 0.0
C974 C 0.96649 0.81205 0.58257 0.0
C975 C 0.94761 0.79481 0.58503 0.0
C976 C 0.96625 0.83365 0.60859 0.0
C977 C 0.00545 0.82731 0.54714 0.0
C978 C 0.97903 0.83936 0.6585 0.0
C979 C 0.97976 0.86052 0.68002 0.0
C980 C 0.96773 0.87643 0.65197 0.0
C981 C 0.95456 0.87031 0.60281 0.0
C982 C 0.95379 0.84912 0.58154 0.0
H983 H 0.01706 0.82413 0.51418 0.0
H984 H 0.00198 0.84482 0.53308 0.0
H985 H 0.01321 0.8273 0.59218 0.0
H986 H 0.98858 0.82753 0.68049 0.0
H987 H 0.98976 0.86441 0.71866 0.0
H988 H 0.75198 0.97214 0.27316 0.0
H989 H 0.72863 0.95605 0.36246 0.0
H990 H 0.71124 0.0223 0.36283 0.0
H991 H 0.7346 0.03852 0.27449 0.0
H992 H 0.72466 0.97623 0.48719 0.0
H993 H 0.65481 0.96957 0.33162 0.0
H994 H 0.68184 0.97028 0.30615 0.0
H995 H 0.67434 0.99648 0.32084 0.0
C996 C 0.74364 0.98341 0.29339 0.0
C997 C 0.74492 0.00651 0.26659 0.0
C998 C 0.73027 0.97418 0.34412 0.0
C999 C 0.71811 0.98798 0.36856 0.0
C1000 C 0.72042 0.01139 0.34421 0.0
H1001 H 0.63559 0.98486 0.66689 0.0
H1002 H 0.66593 0.98958 0.59712 0.0
C1003 C 0.73371 0.02058 0.29374 0.0
C1004 C 0.70151 0.97775 0.41581 0.0
H1005 H 0.64705 0.96461 0.43688 0.0
C1006 C 0.70768 0.97336 0.47637 0.0
C1007 C 0.67943 0.97377 0.40118 0.0
C1008 C 0.67208 0.97757 0.3364 0.0
C1009 C 0.69219 0.96605 0.52324 0.0
C1010 C 0.67007 0.96339 0.5089 0.0
C1011 C 0.66399 0.96673 0.44792 0.0
C1012 C 0.65294 0.9588 0.55615 0.0
C1013 C 0.69963 0.96144 0.58764 0.0
C1014 C 0.63543 0.94002 0.5561 0.0
C1015 C 0.61789 0.93745 0.59543 0.0
C1016 C 0.61745 0.95376 0.63517 0.0
C1017 C 0.63533 0.97214 0.6364 0.0
C1018 C 0.65284 0.97468 0.59712 0.0
H1019 H 0.71576 0.95689 0.58915 0.0
H1020 H 0.70089 0.97734 0.60935 0.0
H1021 H 0.68809 0.94716 0.61458 0.0
H1022 H 0.63508 0.92769 0.52441 0.0
H1023 H 0.60429 0.92325 0.59286 0.0
H1024 H 0.53933 0.72401 0.40347 0.0
H1025 H 0.53481 0.69249 0.48768 0.0
H1026 H 0.58576 0.73209 0.58384 0.0
H1027 H 0.5907 0.76372 0.49772 0.0
H1028 H 0.59228 0.68939 0.58127 0.0
H1029 H 0.50814 0.68095 0.65257 0.0
H1030 H 0.50934 0.68066 0.5724 0.0
H1031 H 0.52238 0.7062 0.60412 0.0
C1032 C 0.54913 0.72628 0.4434 0.0
C1033 C 0.56522 0.74635 0.44447 0.0
C1034 C 0.54649 0.70827 0.49171 0.0
C1035 C 0.5597 0.70994 0.54277 0.0
C1036 C 0.57525 0.73045 0.54516 0.0
H1037 H 0.52775 0.58788 0.81952 0.0
H1038 H 0.53601 0.6281 0.77114 0.0
C1039 C 0.57794 0.74859 0.49637 0.0
C1040 C 0.5585 0.68925 0.58986 0.0
H1041 H 0.52238 0.64575 0.67164 0.0
C1042 C 0.57707 0.68007 0.60204 0.0
C1043 C 0.5388 0.6772 0.61807 0.0
C1044 C 0.51863 0.68695 0.61159 0.0
C1045 C 0.5762 0.65859 0.63864 0.0
C1046 C 0.55609 0.64553 0.66217 0.0
C1047 C 0.53779 0.65539 0.65285 0.0
C1048 C 0.55334 0.6214 0.69492 0.0
C1049 C 0.5969 0.65022 0.65153 0.0
C1050 C 0.56049 0.60402 0.66886 0.0
C1051 C 0.5561 0.58094 0.6972 0.0
C1052 C 0.544 0.57466 0.75143 0.0
C1053 C 0.53714 0.5921 0.77784 0.0
C1054 C 0.54183 0.61516 0.7501 0.0
H1055 H 0.61086 0.66503 0.65024 0.0
H1056 H 0.59634 0.63936 0.69653 0.0
H1057 H 0.59967 0.63975 0.61607 0.0
H1058 H 0.56878 0.6081 0.62541 0.0
H1059 H 0.56136 0.56789 0.67526 0.0
H1060 H 0.7954 0.43118 0.29535 0.0
H1061 H 0.8162 0.44826 0.37724 0.0
H1062 H 0.79676 0.5131 0.31951 0.0
H1063 H 0.77605 0.49619 0.23701 0.0
H1064 H 0.85045 0.48742 0.35193 0.0
H1065 H 0.78905 0.50315 0.5073 0.0
H1066 H 0.7827 0.48267 0.45361 0.0
H1067 H 0.78635 0.5132 0.42804 0.0
C1068 C 0.79531 0.44898 0.30061 0.0
C1069 C 0.78418 0.46237 0.25952 0.0
C1070 C 0.80713 0.45868 0.34748 0.0
C1071 C 0.80794 0.4819 0.35454 0.0
C1072 C 0.79606 0.49504 0.31542 0.0
H1073 H 0.91343 0.56352 0.5379 0.0
H1074 H 0.88473 0.55187 0.46652 0.0
C1075 C 0.78421 0.48533 0.26837 0.0
C1076 C 0.82295 0.49286 0.39875 0.0
H1077 H 0.82563 0.51795 0.52837 0.0
C1078 C 0.84504 0.49415 0.39044 0.0
C1079 C 0.81579 0.50155 0.44891 0.0
C1080 C 0.79217 0.49998 0.46058 0.0
C1081 C 0.8602 0.50378 0.43115 0.0
C1082 C 0.8531 0.51265 0.48112 0.0
C1083 C 0.831 0.51139 0.48955 0.0
C1084 C 0.86845 0.52186 0.52693 0.0
C1085 C 0.88368 0.50383 0.4213 0.0
C1086 C 0.86821 0.50938 0.58528 0.0
C1087 C 0.88449 0.51603 0.62612 0.0
C1088 C 0.90125 0.53534 0.6094 0.0
C1089 C 0.9007 0.54863 0.55218 0.0
C1090 C 0.88442 0.54192 0.51124 0.0
H1091 H 0.88598 0.49244 0.38752 0.0
H1092 H 0.89231 0.52174 0.40441 0.0
H1093 H 0.89118 0.49802 0.46457 0.0
H1094 H 0.85596 0.4939 0.59827 0.0
H1095 H 0.88432 0.50565 0.67023 0.0
loop_
_geom_bond_atom_site_label_1
_geom_bond_atom_site_label_2
_geom_bond_distance
_geom_bond_site_symmetry_2
_ccdc_geom_bond_type
H0 C3 0.931 . S
H1 C6 0.928 1_556 S
H2 C8 0.930 . S
C3 H0 0.931 . S
C3 C4 1.413 . S
C3 C5 1.360 . S
C4 C3 1.413 . S
C4 C8 1.429 . S
C5 C3 1.360 . S
C5 C6 1.372 . S
C6 H1 0.928 1_554 S
C6 C5 1.372 . S
C6 C7 1.404 . S
C7 C6 1.404 . S
C7 C8 1.391 . S
C8 H2 0.930 . S
C8 C4 1.429 . S
C8 C7 1.391 . S
H9 C12 0.931 . S
H10 C15 0.928 1_556 S
H11 C17 0.930 . S
C12 H9 0.931 . S
C12 C13 1.413 . S
C12 C14 1.360 . S
C13 C12 1.413 . S
C13 C17 1.429 . S
C14 C12 1.360 . S
C14 C15 1.372 . S
C15 H10 0.928 1_554 S
C15 C14 1.372 . S
C15 C16 1.404 . S
C16 C15 1.404 . S
C16 C17 1.391 . S
C17 H11 0.930 . S
C17 C13 1.429 . S
C17 C16 1.391 . S
H18 C21 0.932 . S
H19 C24 0.928 . S
H20 C26 0.931 . S
C21 H18 0.932 . S
C21 C22 1.414 . S
C21 C23 1.360 1_554 S
C22 C21 1.414 . S
C22 C26 1.431 1_565 S
C23 C21 1.360 1_556 S
C23 C24 1.377 . S
C24 H19 0.928 . S
C24 C23 1.377 . S
C24 C25 1.404 . S
C25 C24 1.404 . S
C25 C26 1.388 1_566 S
C26 H20 0.931 . S
C26 C22 1.431 1_545 S
C26 C25 1.388 1_544 S
H27 C30 0.931 . S
H28 C33 0.928 . S
H29 C35 0.930 . S
C30 H27 0.931 . S
C30 C31 1.413 . S
C30 C32 1.360 . S
C31 C30 1.413 . S
C31 C35 1.429 . S
C32 C30 1.360 . S
C32 C33 1.372 . S
C33 H28 0.928 . S
C33 C32 1.372 . S
C33 C34 1.404 . S
C34 C33 1.404 . S
C34 C35 1.391 . S
C35 H29 0.930 . S
C35 C31 1.429 . S
C35 C34 1.391 . S
H36 C39 0.931 . S
H37 C42 0.928 . S
H38 C44 0.930 . S
C39 H36 0.931 . S
C39 C40 1.413 . S
C39 C41 1.360 . S
C40 C39 1.413 . S
C40 C44 1.429 . S
C41 C39 1.360 . S
C41 C42 1.372 . S
C42 H37 0.928 . S
C42 C41 1.372 . S
C42 C43 1.404 . S
C43 C42 1.404 . S
C43 C44 1.391 . S
C44 H38 0.930 . S
C44 C40 1.429 . S
C44 C43 1.391 . S
H45 C48 0.931 . S
H46 C51 0.928 . S
H47 C53 0.930 . S
C48 H45 0.931 . S
C48 C49 1.413 . S
C48 C50 1.360 . S
C49 C48 1.413 . S
C49 C53 1.429 . S
C50 C48 1.360 . S
C50 C51 1.372 . S
C51 H46 0.928 . S
C51 C50 1.372 . S
C51 C52 1.404 . S
C52 C51 1.404 . S
C52 C53 1.391 . S
C53 H47 0.930 . S
C53 C49 1.429 . S
C53 C52 1.391 . S
H54 C57 0.929 . S
H55 C60 0.928 . S
H56 C62 0.929 . S
C57 H54 0.929 . S
C57 C58 1.413 . S
C57 C59 1.360 . S
C58 C57 1.413 . S
C58 C62 1.427 1_565 S
C59 C57 1.360 . S
C59 C60 1.370 . S
C60 H55 0.928 . S
C60 C59 1.370 . S
C60 C61 1.404 . S
C61 C60 1.404 . S
C61 C62 1.393 1_565 S
C62 H56 0.929 . S
C62 C58 1.427 1_545 S
C62 C61 1.393 1_545 S
H63 C66 0.931 . S
H64 C69 0.928 . S
H65 C71 0.930 . S
C66 H63 0.931 . S
C66 C67 1.413 . S
C66 C68 1.360 . S
C67 C66 1.413 . S
C67 C71 1.429 . S
C68 C66 1.360 . S
C68 C69 1.372 . S
C69 H64 0.928 . S
C69 C68 1.372 . S
C69 C70 1.404 . S
C70 C69 1.404 . S
C70 C71 1.391 . S
C71 H65 0.930 . S
C71 C67 1.429 . S
C71 C70 1.391 . S
Nd72 C74 2.836 1_455 S
Nd72 O92 2.500 1_455 S
Nd72 O93 2.492 . S
Nd72 O94 2.487 . S
Nd72 O95 2.682 1_565 S
Nd72 O96 2.410 . S
Nd72 O101 2.431 1_455 S
Nd72 O103 2.424 1_565 S
Nd73 C83 2.836 . S
Nd73 O95 2.414 . S
Nd73 O97 2.424 1_545 S
Nd73 O98 2.500 . S
Nd73 O99 2.492 . S
Nd73 O100 2.487 1_455 S
Nd73 O101 2.678 1_445 S
Nd73 O102 2.410 . S
C74 Nd72 2.836 1_655 S
C74 C75 1.498 . S
C74 O92 1.258 . S
C74 O93 1.239 1_655 S
C75 C74 1.498 . S
C75 C76 1.366 . S
C75 C80 1.407 . S
C76 C75 1.366 . S
C76 C77 1.392 . S
C76 H104 0.930 . S
C77 C76 1.392 . S
C77 C78 1.398 . S
C77 H105 0.929 . S
C78 C77 1.398 . S
C78 C79 1.352 . S
C79 C78 1.352 . S
C79 C80 1.384 . S
C79 H106 0.930 . S
C80 C75 1.407 . S
C80 C79 1.384 . S
C80 H107 0.929 1_655 S
C81 O94 1.241 . S
C81 O95 1.273 1_565 S
C82 O96 1.251 . S
C82 O97 1.268 . S
C83 Nd73 2.836 . S
C83 C84 1.498 1_556 S
C83 O98 1.258 . S
C83 O99 1.239 . S
C84 C83 1.498 1_554 S
C84 C85 1.366 1_554 S
C84 C89 1.407 . S
C85 C84 1.366 1_556 S
C85 C86 1.392 1_556 S
C85 H108 0.930 . S
C86 C85 1.392 1_554 S
C86 C87 1.398 . S
C86 H109 0.929 . S
C87 C86 1.398 . S
C87 C88 1.352 . S
C88 C87 1.352 . S
C88 C89 1.384 . S
C88 H110 0.930 . S
C89 C84 1.407 . S
C89 C88 1.384 . S
C89 H111 0.929 . S
C90 O100 1.241 . S
C90 O101 1.249 1_545 S
C91 O102 1.251 . S
C91 O103 1.268 . S
O92 Nd72 2.500 1_655 S
O92 C74 1.258 . S
O93 Nd72 2.492 . S
O93 C74 1.239 1_455 S
O94 Nd72 2.487 . S
O94 C81 1.241 . S
O95 Nd72 2.682 1_545 S
O95 Nd73 2.414 . S
O95 C81 1.273 1_545 S
O96 Nd72 2.410 . S
O96 C82 1.251 . S
O97 Nd73 2.424 1_565 S
O97 C82 1.268 . S
O98 Nd73 2.500 . S
O98 C83 1.258 . S
O99 Nd73 2.492 . S
O99 C83 1.239 . S
O100 Nd73 2.487 1_655 S
O100 C90 1.241 . S
O101 Nd72 2.431 1_655 S
O101 Nd73 2.678 1_665 S
O101 C90 1.249 1_565 S
O102 Nd73 2.410 . S
O102 C91 1.251 . S
O103 Nd72 2.424 1_545 S
O103 C91 1.268 . S
H104 C76 0.930 . S
H105 C77 0.929 . S
H106 C79 0.930 . S
H107 C80 0.929 1_455 S
H108 C85 0.930 . S
H109 C86 0.929 . S
H110 C88 0.930 . S
H111 C89 0.929 . S
Nd112 C114 2.836 . S
Nd112 O132 2.500 . S
Nd112 O133 2.492 . S
Nd112 O134 2.487 1_565 S
Nd112 O135 2.682 1_565 S
Nd112 O136 2.410 1_565 S
Nd112 O141 2.414 . S
Nd112 O143 2.424 . S
Nd113 C123 2.836 . S
Nd113 O135 2.414 . S
Nd113 O137 2.424 . S
Nd113 O138 2.500 . S
Nd113 O139 2.492 . S
Nd113 O140 2.487 1_545 S
Nd113 O141 2.682 1_545 S
Nd113 O142 2.410 1_545 S
C114 Nd112 2.836 . S
C114 C115 1.498 . S
C114 O132 1.258 . S
C114 O133 1.239 . S
C115 C114 1.498 . S
C115 C116 1.366 . S
C115 C120 1.407 . S
C116 C115 1.366 . S
C116 C117 1.392 . S
C116 H144 0.930 . S
C117 C116 1.392 . S
C117 C118 1.398 . S
C117 H145 0.929 . S
C118 C117 1.398 . S
C118 C119 1.352 . S
C119 C118 1.352 . S
C119 C120 1.384 . S
C119 H146 0.930 . S
C120 C115 1.407 . S
C120 C119 1.384 . S
C120 H147 0.929 1_565 S
C121 O134 1.241 . S
C121 O135 1.273 . S
C122 O136 1.251 . S
C122 O137 1.268 . S
C123 Nd113 2.836 . S
C123 C124 1.498 1_556 S
C123 O138 1.258 . S
C123 O139 1.239 . S
C124 C123 1.498 1_554 S
C124 C125 1.366 1_554 S
C124 C129 1.407 . S
C125 C124 1.366 1_556 S
C125 C126 1.392 1_556 S
C125 H148 0.930 . S
C126 C125 1.392 1_554 S
C126 C127 1.398 . S
C126 H149 0.929 . S
C127 C126 1.398 . S
C127 C128 1.352 . S
C128 C127 1.352 . S
C128 C129 1.384 . S
C128 H150 0.930 . S
C129 C124 1.407 . S
C129 C128 1.384 . S
C129 H151 0.929 1_545 S
C130 O140 1.241 . S
C130 O141 1.273 . S
C131 O142 1.251 . S
C131 O143 1.268 . S
O132 Nd112 2.500 . S
O132 C114 1.258 . S
O133 Nd112 2.492 . S
O133 C114 1.239 . S
O134 Nd112 2.487 1_545 S
O134 C121 1.241 . S
O135 Nd112 2.682 1_545 S
O135 Nd113 2.414 . S
O135 C121 1.273 . S
O136 Nd112 2.410 1_545 S
O136 C122 1.251 . S
O137 Nd113 2.424 . S
O137 C122 1.268 . S
O138 Nd113 2.500 . S
O138 C123 1.258 . S
O139 Nd113 2.492 . S
O139 C123 1.239 . S
O140 Nd113 2.487 1_565 S
O140 C130 1.241 . S
O141 Nd112 2.414 . S
O141 Nd113 2.682 1_565 S
O141 C130 1.273 . S
O142 Nd113 2.410 1_565 S
O142 C131 1.251 . S
O143 Nd112 2.424 . S
O143 C131 1.268 . S
H144 C116 0.930 . S
H145 C117 0.929 . S
H146 C119 0.930 . S
H147 C120 0.929 1_545 S
H148 C125 0.930 . S
H149 C126 0.929 . S
H150 C128 0.930 . S
H151 C129 0.929 1_565 S
Nd152 C154 2.836 . S
Nd152 O172 2.500 . S
Nd152 O173 2.492 . S
Nd152 O174 2.487 . S
Nd152 O175 2.682 . S
Nd152 O176 2.410 . S
Nd152 O181 2.414 . S
Nd152 O183 2.424 . S
Nd153 C163 2.836 . S
Nd153 O175 2.414 . S
Nd153 O177 2.424 . S
Nd153 O178 2.500 . S
Nd153 O179 2.492 . S
Nd153 O180 2.487 . S
Nd153 O181 2.682 . S
Nd153 O182 2.410 . S
C154 Nd152 2.836 . S
C154 C155 1.498 . S
C154 O172 1.258 . S
C154 O173 1.239 . S
C155 C154 1.498 . S
C155 C156 1.366 . S
C155 C160 1.407 . S
C156 C155 1.366 . S
C156 C157 1.392 . S
C156 H184 0.930 . S
C157 C156 1.392 . S
C157 C158 1.398 . S
C157 H185 0.929 . S
C158 C157 1.398 . S
C158 C159 1.352 1_556 S
C159 C158 1.352 1_554 S
C159 C160 1.384 1_554 S
C159 H186 0.930 . S
C160 C155 1.407 . S
C160 C159 1.384 1_556 S
C160 H187 0.929 1_556 S
C161 O174 1.241 . S
C161 O175 1.273 . S
C162 O176 1.251 . S
C162 O177 1.268 . S
C163 Nd153 2.836 . S
C163 C164 1.498 . S
C163 O178 1.258 . S
C163 O179 1.239 . S
C164 C163 1.498 . S
C164 C165 1.366 . S
C164 C169 1.407 . S
C165 C164 1.366 . S
C165 C166 1.392 . S
C165 H188 0.930 . S
C166 C165 1.392 . S
C166 C167 1.398 . S
C166 H189 0.929 . S
C167 C166 1.398 . S
C167 C168 1.352 . S
C168 C167 1.352 . S
C168 C169 1.384 . S
C168 H190 0.930 . S
C169 C164 1.407 . S
C169 C168 1.384 . S
C169 H191 0.929 . S
C170 O180 1.241 . S
C170 O181 1.273 . S
C171 O182 1.251 . S
C171 O183 1.268 . S
O172 Nd152 2.500 . S
O172 C154 1.258 . S
O173 Nd152 2.492 . S
O173 C154 1.239 . S
O174 Nd152 2.487 . S
O174 C161 1.241 . S
O175 Nd152 2.682 . S
O175 Nd153 2.414 . S
O175 C161 1.273 . S
O176 Nd152 2.410 . S
O176 C162 1.251 . S
O177 Nd153 2.424 . S
O177 C162 1.268 . S
O178 Nd153 2.500 . S
O178 C163 1.258 . S
O179 Nd153 2.492 . S
O179 C163 1.239 . S
O180 Nd153 2.487 . S
O180 C170 1.241 . S
O181 Nd152 2.414 . S
O181 Nd153 2.682 . S
O181 C170 1.273 . S
O182 Nd153 2.410 . S
O182 C171 1.251 . S
O183 Nd152 2.424 . S
O183 C171 1.268 . S
H184 C156 0.930 . S
H185 C157 0.929 . S
H186 C159 0.930 . S
H187 C160 0.929 1_554 S
H188 C165 0.930 . S
H189 C166 0.929 . S
H190 C168 0.930 . S
H191 C169 0.929 . S
Nd192 C194 2.836 1_455 S
Nd192 O212 2.500 1_455 S
Nd192 O213 2.492 1_455 S
Nd192 O214 2.487 . S
Nd192 O215 2.682 . S
Nd192 O216 2.410 1_455 S
Nd192 O221 2.414 . S
Nd192 O223 2.424 . S
Nd193 C203 2.836 . S
Nd193 O215 2.414 . S
Nd193 O217 2.424 1_455 S
Nd193 O218 2.500 . S
Nd193 O219 2.492 . S
Nd193 O220 2.487 . S
Nd193 O221 2.682 . S
Nd193 O222 2.410 . S
C194 Nd192 2.836 1_655 S
C194 C195 1.498 . S
C194 O212 1.258 . S
C194 O213 1.239 . S
C195 C194 1.498 . S
C195 C196 1.366 . S
C195 C200 1.407 . S
C196 C195 1.366 . S
C196 C197 1.392 . S
C196 H224 0.930 . S
C197 C196 1.392 . S
C197 C198 1.398 . S
C197 H225 0.929 . S
C198 C197 1.398 . S
C198 C199 1.352 . S
C199 C198 1.352 . S
C199 C200 1.384 . S
C199 H226 0.930 . S
C200 C195 1.407 . S
C200 C199 1.384 . S
C200 H227 0.929 . S
C201 O214 1.241 . S
C201 O215 1.273 . S
C202 O216 1.251 . S
C202 O217 1.268 . S
C203 Nd193 2.836 . S
C203 C204 1.498 1_556 S
C203 O218 1.258 . S
C203 O219 1.239 . S
C204 C203 1.498 1_554 S
C204 C205 1.366 . S
C204 C209 1.407 . S
C205 C204 1.366 . S
C205 C206 1.392 . S
C205 H228 0.930 1_554 S
C206 C205 1.392 . S
C206 C207 1.398 . S
C206 H229 0.929 . S
C207 C206 1.398 . S
C207 C208 1.352 . S
C208 C207 1.352 . S
C208 C209 1.384 . S
C208 H230 0.930 . S
C209 C204 1.407 . S
C209 C208 1.384 . S
C209 H231 0.929 . S
C210 O220 1.241 . S
C210 O221 1.273 . S
C211 O222 1.251 . S
C211 O223 1.268 . S
O212 Nd192 2.500 1_655 S
O212 C194 1.258 . S
O213 Nd192 2.492 1_655 S
O213 C194 1.239 . S
O214 Nd192 2.487 . S
O214 C201 1.241 . S
O215 Nd192 2.682 . S
O215 Nd193 2.414 . S
O215 C201 1.273 . S
O216 Nd192 2.410 1_655 S
O216 C202 1.251 . S
O217 Nd193 2.424 1_655 S
O217 C202 1.268 . S
O218 Nd193 2.500 . S
O218 C203 1.258 . S
O219 Nd193 2.492 . S
O219 C203 1.239 . S
O220 Nd193 2.487 . S
O220 C210 1.241 . S
O221 Nd192 2.414 . S
O221 Nd193 2.682 . S
O221 C210 1.273 . S
O222 Nd193 2.410 . S
O222 C211 1.251 . S
O223 Nd192 2.424 . S
O223 C211 1.268 . S
H224 C196 0.930 . S
H225 C197 0.929 . S
H226 C199 0.930 . S
H227 C200 0.929 . S
H228 C205 0.930 1_556 S
H229 C206 0.929 . S
H230 C208 0.930 . S
H231 C209 0.929 . S
H232 C240 0.929 . S
H233 C242 0.930 . S
H234 C244 0.930 . S
H235 C247 0.929 . S
H236 C250 0.933 1_545 S
H237 C252 0.954 . S
H238 C252 0.960 . S
H239 C252 0.960 1_565 S
C240 H232 0.929 . S
C240 C241 1.391 . S
C240 C242 1.384 . S
C241 C240 1.391 . S
C241 C247 1.380 1_545 S
C242 H233 0.930 . S
C242 C240 1.384 . S
C242 C243 1.383 . S
C243 C242 1.383 . S
C243 C244 1.385 1_545 S
C243 C248 1.493 1_545 S
C244 H234 0.930 . S
C244 C243 1.385 1_565 S
C244 C247 1.386 . S
H245 C261 0.930 . S
H246 C262 0.931 . S
C247 H235 0.929 . S
C247 C241 1.380 1_565 S
C247 C244 1.386 . S
C248 C243 1.493 1_565 S
C248 C250 1.395 . S
C248 C251 1.405 . S
H249 C255 0.930 . S
C250 H236 0.933 1_565 S
C250 C248 1.395 . S
C250 C253 1.413 . S
C251 C248 1.405 . S
C251 C252 1.523 1_565 S
C251 C255 1.399 . S
C252 H237 0.954 . S
C252 H238 0.960 . S
C252 H239 0.960 1_545 S
C252 C251 1.523 1_545 S
C253 C250 1.413 . S
C253 C254 1.385 . S
C253 C257 1.496 . S
C254 C253 1.385 . S
C254 C255 1.385 . S
C254 C256 1.478 . S
C255 H249 0.930 . S
C255 C251 1.399 . S
C255 C254 1.385 . S
C256 C254 1.478 . S
C256 C258 1.381 1_565 S
C256 C262 1.383 . S
C257 C253 1.496 . S
C257 H263 0.952 . S
C257 H264 0.961 . S
C257 H265 0.960 1_565 S
C258 C256 1.381 1_545 S
C258 C259 1.394 . S
C258 H266 0.930 . S
C259 C258 1.394 . S
C259 C260 1.383 1_545 S
C259 H267 0.929 . S
C260 C259 1.383 1_565 S
C260 C261 1.377 . S
C261 H245 0.930 . S
C261 C260 1.377 . S
C261 C262 1.379 . S
C262 H246 0.931 . S
C262 C256 1.383 . S
C262 C261 1.379 . S
H263 C257 0.952 . S
H264 C257 0.961 . S
H265 C257 0.960 1_545 S
H266 C258 0.930 . S
H267 C259 0.929 . S
H268 C276 0.929 . S
H269 C278 0.930 . S
H270 C280 0.930 . S
H271 C283 0.929 . S
H272 C286 0.930 . S
H273 C288 0.960 . S
H274 C288 0.960 . S
H275 C288 0.960 . S
C276 H268 0.929 . S
C276 C277 1.377 . S
C276 C278 1.384 . S
C277 C276 1.377 . S
C277 C283 1.390 . S
C278 H269 0.930 . S
C278 C276 1.384 . S
C278 C279 1.372 . S
C279 C278 1.372 . S
C279 C280 1.400 . S
C279 C284 1.490 . S
C280 H270 0.930 . S
C280 C279 1.400 . S
C280 C283 1.386 . S
H281 C297 0.930 . S
H282 C298 0.931 . S
C283 H271 0.929 . S
C283 C277 1.390 . S
C283 C280 1.386 . S
C284 C279 1.490 . S
C284 C286 1.395 . S
C284 C287 1.403 . S
H285 C291 0.930 . S
C286 H272 0.930 . S
C286 C284 1.395 . S
C286 C289 1.403 . S
C287 C284 1.403 . S
C287 C288 1.524 . S
C287 C291 1.400 . S
C288 H273 0.960 . S
C288 H274 0.960 . S
C288 H275 0.960 . S
C288 C287 1.524 . S
C289 C286 1.403 . S
C289 C290 1.392 . S
C289 C293 1.495 . S
C290 C289 1.392 . S
C290 C291 1.385 . S
C290 C292 1.478 . S
C291 H285 0.930 . S
C291 C287 1.400 . S
C291 C290 1.385 . S
C292 C290 1.478 . S
C292 C294 1.381 . S
C292 C298 1.383 . S
C293 C289 1.495 . S
C293 H299 0.959 . S
C293 H300 0.961 . S
C293 H301 0.960 . S
C294 C292 1.381 . S
C294 C295 1.394 . S
C294 H302 0.930 . S
C295 C294 1.394 . S
C295 C296 1.383 . S
C295 H303 0.929 . S
C296 C295 1.383 . S
C296 C297 1.377 . S
C297 H281 0.930 . S
C297 C296 1.377 . S
C297 C298 1.379 . S
C298 H282 0.931 . S
C298 C292 1.383 . S
C298 C297 1.379 . S
H299 C293 0.959 . S
H300 C293 0.961 . S
H301 C293 0.960 . S
H302 C294 0.930 . S
H303 C295 0.929 . S
H304 C312 0.929 . S
H305 C314 0.930 . S
H306 C316 0.930 . S
H307 C319 0.929 . S
H308 C322 0.930 . S
H309 C324 0.960 . S
H310 C324 0.960 . S
H311 C324 0.960 . S
C312 H304 0.929 . S
C312 C313 1.377 . S
C312 C314 1.384 . S
C313 C312 1.377 . S
C313 C319 1.390 . S
C314 H305 0.930 . S
C314 C312 1.384 . S
C314 C315 1.372 . S
C315 C314 1.372 . S
C315 C316 1.400 . S
C315 C320 1.490 . S
C316 H306 0.930 . S
C316 C315 1.400 . S
C316 C319 1.386 . S
H317 C333 0.930 . S
H318 C334 0.931 . S
C319 H307 0.929 . S
C319 C313 1.390 . S
C319 C316 1.386 . S
C320 C315 1.490 . S
C320 C322 1.395 . S
C320 C323 1.403 . S
H321 C327 0.930 . S
C322 H308 0.930 . S
C322 C320 1.395 . S
C322 C325 1.403 . S
C323 C320 1.403 . S
C323 C324 1.524 . S
C323 C327 1.400 . S
C324 H309 0.960 . S
C324 H310 0.960 . S
C324 H311 0.960 . S
C324 C323 1.524 . S
C325 C322 1.403 . S
C325 C326 1.392 . S
C325 C329 1.495 . S
C326 C325 1.392 . S
C326 C327 1.385 . S
C326 C328 1.478 . S
C327 H321 0.930 . S
C327 C323 1.400 . S
C327 C326 1.385 . S
C328 C326 1.478 . S
C328 C330 1.381 . S
C328 C334 1.383 . S
C329 C325 1.495 . S
C329 H335 0.959 . S
C329 H336 0.961 . S
C329 H337 0.960 . S
C330 C328 1.381 . S
C330 C331 1.394 . S
C330 H338 0.930 . S
C331 C330 1.394 . S
C331 C332 1.383 . S
C331 H339 0.929 . S
C332 C331 1.383 . S
C332 C333 1.377 . S
C333 H317 0.930 . S
C333 C332 1.377 . S
C333 C334 1.379 . S
C334 H318 0.931 . S
C334 C328 1.383 . S
C334 C333 1.379 . S
H335 C329 0.959 . S
H336 C329 0.961 . S
H337 C329 0.960 . S
H338 C330 0.930 . S
H339 C331 0.929 . S
H340 C348 0.929 . S
H341 C350 0.930 . S
H342 C352 0.930 . S
H343 C355 0.929 . S
H344 C358 0.930 . S
H345 C360 0.960 . S
H346 C360 0.960 . S
H347 C360 0.960 . S
C348 H340 0.929 . S
C348 C349 1.377 . S
C348 C350 1.384 . S
C349 C348 1.377 . S
C349 C355 1.390 . S
C350 H341 0.930 . S
C350 C348 1.384 . S
C350 C351 1.372 . S
C351 C350 1.372 . S
C351 C352 1.400 . S
C351 C356 1.490 . S
C352 H342 0.930 . S
C352 C351 1.400 . S
C352 C355 1.386 . S
H353 C369 0.930 . S
H354 C370 0.931 . S
C355 H343 0.929 . S
C355 C349 1.390 . S
C355 C352 1.386 . S
C356 C351 1.490 . S
C356 C358 1.395 . S
C356 C359 1.403 . S
H357 C363 0.930 . S
C358 H344 0.930 . S
C358 C356 1.395 . S
C358 C361 1.403 . S
C359 C356 1.403 . S
C359 C360 1.524 . S
C359 C363 1.400 . S
C360 H345 0.960 . S
C360 H346 0.960 . S
C360 H347 0.960 . S
C360 C359 1.524 . S
C361 C358 1.403 . S
C361 C362 1.392 . S
C361 C365 1.495 . S
C362 C361 1.392 . S
C362 C363 1.385 . S
C362 C364 1.478 . S
C363 H357 0.930 . S
C363 C359 1.400 . S
C363 C362 1.385 . S
C364 C362 1.478 . S
C364 C366 1.381 . S
C364 C370 1.383 . S
C365 C361 1.495 . S
C365 H371 0.959 . S
C365 H372 0.961 . S
C365 H373 0.960 . S
C366 C364 1.381 . S
C366 C367 1.394 . S
C366 H374 0.930 . S
C367 C366 1.394 . S
C367 C368 1.383 . S
C367 H375 0.929 . S
C368 C367 1.383 . S
C368 C369 1.377 . S
C369 H353 0.930 . S
C369 C368 1.377 . S
C369 C370 1.379 . S
C370 H354 0.931 . S
C370 C364 1.383 . S
C370 C369 1.379 . S
H371 C365 0.959 . S
H372 C365 0.961 . S
H373 C365 0.960 . S
H374 C366 0.930 . S
H375 C367 0.929 . S
H376 C384 0.929 . S
H377 C386 0.930 1_554 S
H378 C388 0.930 . S
H379 C391 0.929 . S
H380 C394 0.930 1_554 S
H381 C396 0.960 . S
H382 C396 0.960 . S
H383 C396 0.960 . S
C384 H376 0.929 . S
C384 C385 1.386 1_554 S
C384 C386 1.384 1_554 S
C385 C384 1.386 1_556 S
C385 C391 1.376 1_545 S
C386 H377 0.930 1_556 S
C386 C384 1.384 1_556 S
C386 C387 1.372 . S
C387 C386 1.372 . S
C387 C388 1.400 1_545 S
C387 C392 1.490 . S
C388 H378 0.930 . S
C388 C387 1.400 1_565 S
C388 C391 1.386 . S
H389 C405 0.930 . S
H390 C406 0.931 . S
C391 H379 0.929 . S
C391 C385 1.376 1_565 S
C391 C388 1.386 . S
C392 C387 1.490 . S
C392 C394 1.395 1_545 S
C392 C395 1.403 . S
H393 C399 0.930 . S
C394 H380 0.930 1_556 S
C394 C392 1.395 1_565 S
C394 C397 1.403 . S
C395 C392 1.403 . S
C395 C396 1.524 . S
C395 C399 1.400 . S
C396 H381 0.960 . S
C396 H382 0.960 . S
C396 H383 0.960 . S
C396 C395 1.524 . S
C397 C394 1.403 . S
C397 C398 1.388 1_565 S
C397 C401 1.495 1_556 S
C398 C397 1.388 1_545 S
C398 C399 1.393 . S
C398 C400 1.476 . S
C399 H393 0.930 . S
C399 C395 1.400 . S
C399 C398 1.393 . S
C400 C398 1.476 . S
C400 C402 1.384 . S
C400 C406 1.378 1_545 S
C401 C397 1.495 1_554 S
C401 H407 0.959 . S
C401 H408 0.961 1_554 S
C401 H409 0.960 . S
C402 C400 1.384 . S
C402 C403 1.394 . S
C402 H410 0.930 . S
C403 C402 1.394 . S
C403 C404 1.383 . S
C403 H411 0.929 . S
C404 C403 1.383 . S
C404 C405 1.377 1_545 S
C405 H389 0.930 . S
C405 C404 1.377 1_565 S
C405 C406 1.379 . S
C406 H390 0.931 . S
C406 C400 1.378 1_565 S
C406 C405 1.379 . S
H407 C401 0.959 . S
H408 C401 0.961 1_556 S
H409 C401 0.960 . S
H410 C402 0.930 . S
H411 C403 0.929 . S
H412 C420 0.929 . S
H413 C422 0.930 . S
H414 C424 0.930 . S
H415 C427 0.929 . S
H416 C430 0.930 . S
H417 C432 0.960 . S
H418 C432 0.960 . S
H419 C432 0.960 . S
C420 H412 0.929 . S
C420 C421 1.377 . S
C420 C422 1.384 . S
C421 C420 1.377 . S
C421 C427 1.390 . S
C422 H413 0.930 . S
C422 C420 1.384 . S
C422 C423 1.372 . S
C423 C422 1.372 . S
C423 C424 1.400 . S
C423 C428 1.490 . S
C424 H414 0.930 . S
C424 C423 1.400 . S
C424 C427 1.386 . S
H425 C441 0.930 . S
H426 C442 0.931 . S
C427 H415 0.929 . S
C427 C421 1.390 . S
C427 C424 1.386 . S
C428 C423 1.490 . S
C428 C430 1.395 . S
C428 C431 1.403 . S
H429 C435 0.930 . S
C430 H416 0.930 . S
C430 C428 1.395 . S
C430 C433 1.403 . S
C431 C428 1.403 . S
C431 C432 1.524 . S
C431 C435 1.400 . S
C432 H417 0.960 . S
C432 H418 0.960 . S
C432 H419 0.960 . S
C432 C431 1.524 . S
C433 C430 1.403 . S
C433 C434 1.392 . S
C433 C437 1.495 1_554 S
C434 C433 1.392 . S
C434 C435 1.385 . S
C434 C436 1.478 . S
C435 H429 0.930 . S
C435 C431 1.400 . S
C435 C434 1.385 . S
C436 C434 1.478 . S
C436 C438 1.381 1_554 S
C436 C442 1.383 . S
C437 C433 1.495 1_556 S
C437 H443 0.959 . S
C437 H444 0.961 . S
C437 H445 0.960 . S
C438 C436 1.381 1_556 S
C438 C439 1.394 . S
C438 H446 0.930 . S
C439 C438 1.394 . S
C439 C440 1.383 . S
C439 H447 0.929 . S
C440 C439 1.383 . S
C440 C441 1.377 . S
C441 H425 0.930 . S
C441 C440 1.377 . S
C441 C442 1.379 1_556 S
C442 H426 0.931 . S
C442 C436 1.383 . S
C442 C441 1.379 1_554 S
H443 C437 0.959 . S
H444 C437 0.961 . S
H445 C437 0.960 . S
H446 C438 0.930 . S
H447 C439 0.929 . S
H448 C456 0.929 . S
H449 C458 0.930 . S
H450 C460 0.930 . S
H451 C463 0.929 . S
H452 C466 0.930 . S
H453 C468 0.960 . S
H454 C468 0.960 . S
H455 C468 0.960 . S
C456 H448 0.929 . S
C456 C457 1.377 . S
C456 C458 1.384 . S
C457 C456 1.377 . S
C457 C463 1.390 1_554 S
C458 H449 0.930 . S
C458 C456 1.384 . S
C458 C459 1.372 1_554 S
C459 C458 1.372 1_556 S
C459 C460 1.400 . S
C459 C464 1.490 . S
C460 H450 0.930 . S
C460 C459 1.400 . S
C460 C463 1.386 . S
H461 C477 0.930 . S
H462 C478 0.931 . S
C463 H451 0.929 . S
C463 C457 1.390 1_556 S
C463 C460 1.386 . S
C464 C459 1.490 . S
C464 C466 1.395 1_556 S
C464 C467 1.403 . S
H465 C471 0.930 . S
C466 H452 0.930 . S
C466 C464 1.395 1_554 S
C466 C469 1.403 1_554 S
C467 C464 1.403 . S
C467 C468 1.524 . S
C467 C471 1.400 . S
C468 H453 0.960 . S
C468 H454 0.960 . S
C468 H455 0.960 . S
C468 C467 1.524 . S
C469 C466 1.403 1_556 S
C469 C470 1.392 . S
C469 C473 1.495 1_556 S
C470 C469 1.392 . S
C470 C471 1.385 . S
C470 C472 1.478 . S
C471 H465 0.930 . S
C471 C467 1.400 . S
C471 C470 1.385 . S
C472 C470 1.478 . S
C472 C474 1.381 . S
C472 C478 1.383 . S
C473 C469 1.495 1_554 S
C473 H479 0.959 . S
C473 H480 0.961 1_554 S
C473 H481 0.960 . S
C474 C472 1.381 . S
C474 C475 1.394 . S
C474 H482 0.930 . S
C475 C474 1.394 . S
C475 C476 1.383 . S
C475 H483 0.929 . S
C476 C475 1.383 . S
C476 C477 1.377 . S
C477 H461 0.930 . S
C477 C476 1.377 . S
C477 C478 1.379 . S
C478 H462 0.931 . S
C478 C472 1.383 . S
C478 C477 1.379 . S
H479 C473 0.959 . S
H480 C473 0.961 1_556 S
H481 C473 0.960 . S
H482 C474 0.930 . S
H483 C475 0.929 . S
H484 C492 0.929 . S
H485 C494 0.930 . S
H486 C496 0.930 . S
H487 C499 0.929 . S
H488 C502 0.930 1_554 S
H489 C504 0.960 . S
H490 C504 0.960 . S
H491 C504 0.960 . S
C492 H484 0.929 . S
C492 C493 1.377 1_556 S
C492 C494 1.384 . S
C493 C492 1.377 1_554 S
C493 C499 1.390 . S
C494 H485 0.930 . S
C494 C492 1.384 . S
C494 C495 1.372 . S
C495 C494 1.372 . S
C495 C496 1.400 1_556 S
C495 C500 1.490 . S
C496 H486 0.930 . S
C496 C495 1.400 1_554 S
C496 C499 1.386 . S
H497 C513 0.930 . S
H498 C514 0.931 . S
C499 H487 0.929 . S
C499 C493 1.390 . S
C499 C496 1.386 . S
C500 C495 1.490 . S
C500 C502 1.395 . S
C500 C503 1.403 . S
H501 C507 0.930 . S
C502 H488 0.930 1_556 S
C502 C500 1.395 . S
C502 C505 1.403 . S
C503 C500 1.403 . S
C503 C504 1.524 . S
C503 C507 1.400 . S
C504 H489 0.960 . S
C504 H490 0.960 . S
C504 H491 0.960 . S
C504 C503 1.524 . S
C505 C502 1.403 . S
C505 C506 1.392 . S
C505 C509 1.495 . S
C506 C505 1.392 . S
C506 C507 1.385 . S
C506 C508 1.478 . S
C507 H501 0.930 . S
C507 C503 1.400 . S
C507 C506 1.385 . S
C508 C506 1.478 . S
C508 C510 1.381 . S
C508 C514 1.383 . S
C509 C505 1.495 . S
C509 H515 0.965 1_556 S
C509 H516 0.961 1_556 S
C509 H517 0.960 1_655 S
C510 C508 1.381 . S
C510 C511 1.394 . S
C510 H518 0.930 . S
C511 C510 1.394 . S
C511 C512 1.383 . S
C511 H519 0.929 1_655 S
C512 C511 1.383 . S
C512 C513 1.377 . S
C513 H497 0.930 . S
C513 C512 1.377 . S
C513 C514 1.379 . S
C514 H498 0.931 . S
C514 C508 1.383 . S
C514 C513 1.379 . S
H515 C509 0.965 1_554 S
H516 C509 0.961 1_554 S
H517 C509 0.960 1_455 S
H518 C510 0.930 . S
H519 C511 0.929 1_455 S
H520 C528 0.929 . S
H521 C530 0.930 . S
H522 C532 0.930 . S
H523 C535 0.929 . S
H524 C538 0.930 . S
H525 C540 0.960 . S
H526 C540 0.960 . S
H527 C540 0.960 . S
C528 H520 0.929 . S
C528 C529 1.377 . S
C528 C530 1.384 . S
C529 C528 1.377 . S
C529 C535 1.390 . S
C530 H521 0.930 . S
C530 C528 1.384 . S
C530 C531 1.372 . S
C531 C530 1.372 . S
C531 C532 1.400 . S
C531 C536 1.490 . S
C532 H522 0.930 . S
C532 C531 1.400 . S
C532 C535 1.386 . S
H533 C549 0.930 . S
H534 C550 0.931 . S
C535 H523 0.929 . S
C535 C529 1.390 . S
C535 C532 1.386 . S
C536 C531 1.490 . S
C536 C538 1.395 . S
C536 C539 1.403 . S
H537 C543 0.930 . S
C538 H524 0.930 . S
C538 C536 1.395 . S
C538 C541 1.403 . S
C539 C536 1.403 . S
C539 C540 1.524 . S
C539 C543 1.400 . S
C540 H525 0.960 . S
C540 H526 0.960 . S
C540 H527 0.960 . S
C540 C539 1.524 . S
C541 C538 1.403 . S
C541 C542 1.392 . S
C541 C545 1.495 . S
C542 C541 1.392 . S
C542 C543 1.385 . S
C542 C544 1.478 . S
C543 H537 0.930 . S
C543 C539 1.400 . S
C543 C542 1.385 . S
C544 C542 1.478 . S
C544 C546 1.381 . S
C544 C550 1.383 . S
C545 C541 1.495 . S
C545 H551 0.959 . S
C545 H552 0.961 . S
C545 H553 0.960 . S
C546 C544 1.381 . S
C546 C547 1.394 . S
C546 H554 0.930 . S
C547 C546 1.394 . S
C547 C548 1.383 . S
C547 H555 0.929 . S
C548 C547 1.383 . S
C548 C549 1.377 . S
C549 H533 0.930 . S
C549 C548 1.377 . S
C549 C550 1.379 . S
C550 H534 0.931 . S
C550 C544 1.383 . S
C550 C549 1.379 . S
H551 C545 0.959 . S
H552 C545 0.961 . S
H553 C545 0.960 . S
H554 C546 0.930 . S
H555 C547 0.929 . S
H556 C564 0.929 . S
H557 C566 0.930 . S
H558 C568 0.930 . S
H559 C571 0.929 . S
H560 C574 0.930 . S
H561 C576 0.960 . S
H562 C576 0.960 . S
H563 C576 0.960 . S
C564 H556 0.929 . S
C564 C565 1.363 1_565 S
C564 C566 1.384 . S
C565 C564 1.363 1_545 S
C565 C571 1.398 . S
C566 H557 0.930 . S
C566 C564 1.384 . S
C566 C567 1.372 . S
C567 C566 1.372 . S
C567 C568 1.400 1_565 S
C567 C572 1.490 . S
C568 H558 0.930 . S
C568 C567 1.400 1_545 S
C568 C571 1.386 . S
H569 C585 0.930 1_545 S
H570 C586 0.935 1_545 S
C571 H559 0.929 . S
C571 C565 1.398 . S
C571 C568 1.386 . S
C572 C567 1.490 . S
C572 C574 1.395 1_565 S
C572 C575 1.403 . S
H573 C579 0.930 . S
C574 H560 0.930 . S
C574 C572 1.395 1_545 S
C574 C577 1.403 . S
C575 C572 1.403 . S
C575 C576 1.524 . S
C575 C579 1.400 . S
C576 H561 0.960 . S
C576 H562 0.960 . S
C576 H563 0.960 . S
C576 C575 1.524 . S
C577 C574 1.403 . S
C577 C578 1.392 1_545 S
C577 C581 1.495 . S
C578 C577 1.392 1_565 S
C578 C579 1.385 . S
C578 C580 1.478 . S
C579 H573 0.930 . S
C579 C575 1.400 . S
C579 C578 1.385 . S
C580 C578 1.478 . S
C580 C582 1.381 . S
C580 C586 1.380 . S
C581 C577 1.495 . S
C581 H587 0.959 . S
C581 H588 0.961 . S
C581 H589 0.960 . S
C582 C580 1.381 . S
C582 C583 1.394 . S
C582 H590 0.930 . S
C583 C582 1.394 . S
C583 C584 1.383 . S
C583 H591 0.929 . S
C584 C583 1.383 . S
C584 C585 1.377 . S
C585 H569 0.930 1_565 S
C585 C584 1.377 . S
C585 C586 1.378 . S
C586 H570 0.935 1_565 S
C586 C580 1.380 . S
C586 C585 1.378 . S
H587 C581 0.959 . S
H588 C581 0.961 . S
H589 C581 0.960 . S
H590 C582 0.930 . S
H591 C583 0.929 . S
H592 C600 0.929 . S
H593 C602 0.930 . S
H594 C604 0.930 . S
H595 C607 0.929 . S
H596 C610 0.930 . S
H597 C612 0.960 . S
H598 C612 0.960 . S
H599 C612 0.960 . S
C600 H592 0.929 . S
C600 C601 1.377 . S
C600 C602 1.384 . S
C601 C600 1.377 . S
C601 C607 1.390 . S
C602 H593 0.930 . S
C602 C600 1.384 . S
C602 C603 1.372 . S
C603 C602 1.372 . S
C603 C604 1.400 . S
C603 C608 1.490 . S
C604 H594 0.930 . S
C604 C603 1.400 . S
C604 C607 1.386 . S
H605 C621 0.930 . S
H606 C622 0.931 . S
C607 H595 0.929 . S
C607 C601 1.390 . S
C607 C604 1.386 . S
C608 C603 1.490 . S
C608 C610 1.395 . S
C608 C611 1.403 . S
H609 C615 0.930 . S
C610 H596 0.930 . S
C610 C608 1.395 . S
C610 C613 1.403 . S
C611 C608 1.403 . S
C611 C612 1.524 . S
C611 C615 1.400 . S
C612 H597 0.960 . S
C612 H598 0.960 . S
C612 H599 0.960 . S
C612 C611 1.524 . S
C613 C610 1.403 . S
C613 C614 1.392 . S
C613 C617 1.495 . S
C614 C613 1.392 . S
C614 C615 1.385 . S
C614 C616 1.478 . S
C615 H609 0.930 . S
C615 C611 1.400 . S
C615 C614 1.385 . S
C616 C614 1.478 . S
C616 C618 1.381 . S
C616 C622 1.383 . S
C617 C613 1.495 . S
C617 H623 0.959 . S
C617 H624 0.961 . S
C617 H625 0.960 . S
C618 C616 1.381 . S
C618 C619 1.394 . S
C618 H626 0.930 . S
C619 C618 1.394 . S
C619 C620 1.383 . S
C619 H627 0.929 . S
C620 C619 1.383 . S
C620 C621 1.377 . S
C621 H605 0.930 . S
C621 C620 1.377 . S
C621 C622 1.379 . S
C622 H606 0.931 . S
C622 C616 1.383 . S
C622 C621 1.379 . S
H623 C617 0.959 . S
H624 C617 0.961 . S
H625 C617 0.960 . S
H626 C618 0.930 . S
H627 C619 0.929 . S
H628 C636 0.929 . S
H629 C638 0.930 . S
H630 C640 0.930 . S
H631 C643 0.929 . S
H632 C646 0.930 . S
H633 C648 0.960 . S
H634 C648 0.960 . S
H635 C648 0.960 . S
C636 H628 0.929 . S
C636 C637 1.377 . S
C636 C638 1.384 . S
C637 C636 1.377 . S
C637 C643 1.390 . S
C638 H629 0.930 . S
C638 C636 1.384 . S
C638 C639 1.372 . S
C639 C638 1.372 . S
C639 C640 1.400 . S
C639 C644 1.490 . S
C640 H630 0.930 . S
C640 C639 1.400 . S
C640 C643 1.386 . S
H641 C657 0.930 . S
H642 C658 0.931 . S
C643 H631 0.929 . S
C643 C637 1.390 . S
C643 C640 1.386 . S
C644 C639 1.490 . S
C644 C646 1.395 . S
C644 C647 1.403 . S
H645 C651 0.930 . S
C646 H632 0.930 . S
C646 C644 1.395 . S
C646 C649 1.403 . S
C647 C644 1.403 . S
C647 C648 1.524 . S
C647 C651 1.400 . S
C648 H633 0.960 . S
C648 H634 0.960 . S
C648 H635 0.960 . S
C648 C647 1.524 . S
C649 C646 1.403 . S
C649 C650 1.392 . S
C649 C653 1.495 . S
C650 C649 1.392 . S
C650 C651 1.385 . S
C650 C652 1.478 . S
C651 H645 0.930 . S
C651 C647 1.400 . S
C651 C650 1.385 . S
C652 C650 1.478 . S
C652 C654 1.381 . S
C652 C658 1.383 . S
C653 C649 1.495 . S
C653 H659 0.959 . S
C653 H660 0.961 . S
C653 H661 0.960 . S
C654 C652 1.381 . S
C654 C655 1.394 . S
C654 H662 0.930 . S
C655 C654 1.394 . S
C655 C656 1.383 . S
C655 H663 0.929 . S
C656 C655 1.383 . S
C656 C657 1.377 . S
C657 H641 0.930 . S
C657 C656 1.377 . S
C657 C658 1.379 . S
C658 H642 0.931 . S
C658 C652 1.383 . S
C658 C657 1.379 . S
H659 C653 0.959 . S
H660 C653 0.961 . S
H661 C653 0.960 . S
H662 C654 0.930 . S
H663 C655 0.929 . S
H664 C672 0.929 . S
H665 C674 0.930 . S
H666 C676 0.930 1_554 S
H667 C679 0.929 . S
H668 C682 0.930 . S
H669 C684 0.960 . S
H670 C684 0.960 . S
H671 C684 0.960 . S
C672 H664 0.929 . S
C672 C673 1.377 1_556 S
C672 C674 1.384 . S
C673 C672 1.377 1_554 S
C673 C679 1.390 . S
C674 H665 0.930 . S
C674 C672 1.384 . S
C674 C675 1.372 . S
C675 C674 1.372 . S
C675 C676 1.400 . S
C675 C680 1.490 . S
C676 H666 0.930 1_556 S
C676 C675 1.400 . S
C676 C679 1.386 1_556 S
H677 C693 0.930 . S
H678 C694 0.931 . S
C679 H667 0.929 . S
C679 C673 1.390 . S
C679 C676 1.386 1_554 S
C680 C675 1.490 . S
C680 C682 1.395 . S
C680 C683 1.403 . S
H681 C687 0.930 . S
C682 H668 0.930 . S
C682 C680 1.395 . S
C682 C685 1.403 . S
C683 C680 1.403 . S
C683 C684 1.524 1_556 S
C683 C687 1.400 . S
C684 H669 0.960 . S
C684 H670 0.960 . S
C684 H671 0.960 . S
C684 C683 1.524 1_554 S
C685 C682 1.403 . S
C685 C686 1.392 . S
C685 C689 1.495 . S
C686 C685 1.392 . S
C686 C687 1.385 . S
C686 C688 1.478 . S
C687 H681 0.930 . S
C687 C683 1.400 . S
C687 C686 1.385 . S
C688 C686 1.478 . S
C688 C690 1.381 . S
C688 C694 1.383 . S
C689 C685 1.495 . S
C689 H695 0.959 . S
C689 H696 0.961 . S
C689 H697 0.960 . S
C690 C688 1.381 . S
C690 C691 1.394 1_655 S
C690 H698 0.930 . S
C691 C690 1.394 1_455 S
C691 C692 1.383 1_455 S
C691 H699 0.929 . S
C692 C691 1.383 1_655 S
C692 C693 1.377 . S
C693 H677 0.930 . S
C693 C692 1.377 . S
C693 C694 1.379 . S
C694 H678 0.931 . S
C694 C688 1.383 . S
C694 C693 1.379 . S
H695 C689 0.959 . S
H696 C689 0.961 . S
H697 C689 0.960 . S
H698 C690 0.930 . S
H699 C691 0.929 . S
H700 C708 0.929 . S
H701 C710 0.930 . S
H702 C712 0.930 . S
H703 C715 0.929 . S
H704 C718 0.930 . S
H705 C720 0.960 . S
H706 C720 0.960 . S
H707 C720 0.960 . S
C708 H700 0.929 . S
C708 C709 1.350 1_545 S
C708 C710 1.384 . S
C709 C708 1.350 1_565 S
C709 C715 1.408 . S
C710 H701 0.930 . S
C710 C708 1.384 . S
C710 C711 1.372 . S
C711 C710 1.372 . S
C711 C712 1.400 1_545 S
C711 C716 1.490 . S
C712 H702 0.930 . S
C712 C711 1.400 1_565 S
C712 C715 1.386 . S
H713 C729 0.930 1_565 S
H714 C730 0.931 1_565 S
C715 H703 0.929 . S
C715 C709 1.408 . S
C715 C712 1.386 . S
C716 C711 1.490 . S
C716 C718 1.395 . S
C716 C719 1.403 1_545 S
H717 C723 0.930 . S
C718 H704 0.930 . S
C718 C716 1.395 . S
C718 C721 1.403 . S
C719 C716 1.403 1_565 S
C719 C720 1.524 . S
C719 C723 1.400 . S
C720 H705 0.960 . S
C720 H706 0.960 . S
C720 H707 0.960 . S
C720 C719 1.524 . S
C721 C718 1.403 . S
C721 C722 1.392 . S
C721 C725 1.495 . S
C722 C721 1.392 . S
C722 C723 1.385 1_545 S
C722 C724 1.478 . S
C723 H717 0.930 . S
C723 C719 1.400 . S
C723 C722 1.385 1_565 S
C724 C722 1.478 . S
C724 C726 1.381 . S
C724 C730 1.383 . S
C725 C721 1.495 . S
C725 H731 0.959 . S
C725 H732 0.961 . S
C725 H733 0.960 . S
C726 C724 1.381 . S
C726 C727 1.394 . S
C726 H734 0.930 . S
C727 C726 1.394 . S
C727 C728 1.383 . S
C727 H735 0.929 . S
C728 C727 1.383 . S
C728 C729 1.377 . S
C729 H713 0.930 1_545 S
C729 C728 1.377 . S
C729 C730 1.379 . S
C730 H714 0.931 1_545 S
C730 C724 1.383 . S
C730 C729 1.379 . S
H731 C725 0.959 . S
H732 C725 0.961 . S
H733 C725 0.960 . S
H734 C726 0.930 . S
H735 C727 0.929 . S
H736 C744 0.929 . S
H737 C746 0.930 . S
H738 C748 0.930 . S
H739 C751 0.929 . S
H740 C754 0.930 . S
H741 C756 0.960 . S
H742 C756 0.960 . S
H743 C756 0.960 . S
C744 H736 0.929 . S
C744 C745 1.377 . S
C744 C746 1.384 . S
C745 C744 1.377 . S
C745 C751 1.390 . S
C746 H737 0.930 . S
C746 C744 1.384 . S
C746 C747 1.372 . S
C747 C746 1.372 . S
C747 C748 1.400 . S
C747 C752 1.490 . S
C748 H738 0.930 . S
C748 C747 1.400 . S
C748 C751 1.386 . S
H749 C765 0.930 . S
H750 C766 0.931 . S
C751 H739 0.929 . S
C751 C745 1.390 . S
C751 C748 1.386 . S
C752 C747 1.490 . S
C752 C754 1.395 . S
C752 C755 1.403 . S
H753 C759 0.930 . S
C754 H740 0.930 . S
C754 C752 1.395 . S
C754 C757 1.403 . S
C755 C752 1.403 . S
C755 C756 1.524 . S
C755 C759 1.400 . S
C756 H741 0.960 . S
C756 H742 0.960 . S
C756 H743 0.960 . S
C756 C755 1.524 . S
C757 C754 1.403 . S
C757 C758 1.392 . S
C757 C761 1.495 . S
C758 C757 1.392 . S
C758 C759 1.385 . S
C758 C760 1.478 . S
C759 H753 0.930 . S
C759 C755 1.400 . S
C759 C758 1.385 . S
C760 C758 1.478 . S
C760 C762 1.381 . S
C760 C766 1.383 . S
C761 C757 1.495 . S
C761 H767 0.959 . S
C761 H768 0.961 . S
C761 H769 0.960 . S
C762 C760 1.381 . S
C762 C763 1.394 . S
C762 H770 0.930 . S
C763 C762 1.394 . S
C763 C764 1.383 1_554 S
C763 H771 0.929 . S
C764 C763 1.383 1_556 S
C764 C765 1.377 . S
C765 H749 0.930 . S
C765 C764 1.377 . S
C765 C766 1.379 1_556 S
C766 H750 0.931 . S
C766 C760 1.383 . S
C766 C765 1.379 1_554 S
H767 C761 0.959 . S
H768 C761 0.961 . S
H769 C761 0.960 . S
H770 C762 0.930 . S
H771 C763 0.929 . S
H772 C780 0.937 . S
H773 C782 0.930 . S
H774 C784 0.930 . S
H775 C787 0.929 . S
H776 C790 0.930 1_554 S
H777 C792 0.960 . S
H778 C792 0.960 . S
H779 C792 0.960 . S
C780 H772 0.937 . S
C780 C781 1.373 1_554 S
C780 C782 1.381 1_554 S
C781 C780 1.373 1_556 S
C781 C787 1.390 . S
C782 H773 0.930 . S
C782 C780 1.381 1_556 S
C782 C783 1.372 . S
C783 C782 1.372 . S
C783 C784 1.400 . S
C783 C788 1.490 . S
C784 H774 0.930 . S
C784 C783 1.400 . S
C784 C787 1.386 . S
H785 C801 0.930 . S
H786 C802 0.931 . S
C787 H775 0.929 . S
C787 C781 1.390 . S
C787 C784 1.386 . S
C788 C783 1.490 . S
C788 C790 1.395 . S
C788 C791 1.403 . S
H789 C795 0.930 . S
C790 H776 0.930 1_556 S
C790 C788 1.395 . S
C790 C793 1.403 . S
C791 C788 1.403 . S
C791 C792 1.524 . S
C791 C795 1.400 . S
C792 H777 0.960 . S
C792 H778 0.960 . S
C792 H779 0.960 . S
C792 C791 1.524 . S
C793 C790 1.403 . S
C793 C794 1.392 . S
C793 C797 1.495 1_556 S
C794 C793 1.392 . S
C794 C795 1.385 . S
C794 C796 1.478 . S
C795 H789 0.930 . S
C795 C791 1.400 . S
C795 C794 1.385 . S
C796 C794 1.478 . S
C796 C798 1.381 . S
C796 C802 1.383 . S
C797 C793 1.495 1_554 S
C797 H803 0.959 . S
C797 H804 0.961 . S
C797 H805 0.960 . S
C798 C796 1.381 . S
C798 C799 1.394 . S
C798 H806 0.930 . S
C799 C798 1.394 . S
C799 C800 1.383 . S
C799 H807 0.929 . S
C800 C799 1.383 . S
C800 C801 1.377 . S
C801 H785 0.930 . S
C801 C800 1.377 . S
C801 C802 1.379 . S
C802 H786 0.931 . S
C802 C796 1.383 . S
C802 C801 1.379 . S
H803 C797 0.959 . S
H804 C797 0.961 . S
H805 C797 0.960 . S
H806 C798 0.930 . S
H807 C799 0.929 . S
H808 C816 0.929 . S
H809 C818 0.930 . S
H810 C820 0.930 . S
H811 C823 0.929 . S
H812 C826 0.930 . S
H813 C828 0.960 . S
H814 C828 0.960 . S
H815 C828 0.960 . S
C816 H808 0.929 . S
C816 C817 1.377 . S
C816 C818 1.384 . S
C817 C816 1.377 . S
C817 C823 1.390 . S
C818 H809 0.930 . S
C818 C816 1.384 . S
C818 C819 1.372 . S
C819 C818 1.372 . S
C819 C820 1.400 . S
C819 C824 1.490 . S
C820 H810 0.930 . S
C820 C819 1.400 . S
C820 C823 1.386 . S
H821 C837 0.930 . S
H822 C838 0.931 . S
C823 H811 0.929 . S
C823 C817 1.390 . S
C823 C820 1.386 . S
C824 C819 1.490 . S
C824 C826 1.395 . S
C824 C827 1.403 . S
H825 C831 0.930 . S
C826 H812 0.930 . S
C826 C824 1.395 . S
C826 C829 1.403 . S
C827 C824 1.403 . S
C827 C828 1.524 . S
C827 C831 1.400 . S
C828 H813 0.960 . S
C828 H814 0.960 . S
C828 H815 0.960 . S
C828 C827 1.524 . S
C829 C826 1.403 . S
C829 C830 1.392 . S
C829 C833 1.495 . S
C830 C829 1.392 . S
C830 C831 1.385 . S
C830 C832 1.478 . S
C831 H825 0.930 . S
C831 C827 1.400 . S
C831 C830 1.385 . S
C832 C830 1.478 . S
C832 C834 1.381 . S
C832 C838 1.383 . S
C833 C829 1.495 . S
C833 H839 0.959 . S
C833 H840 0.961 . S
C833 H841 0.960 . S
C834 C832 1.381 . S
C834 C835 1.394 . S
C834 H842 0.930 . S
C835 C834 1.394 . S
C835 C836 1.383 . S
C835 H843 0.929 . S
C836 C835 1.383 . S
C836 C837 1.377 . S
C837 H821 0.930 . S
C837 C836 1.377 . S
C837 C838 1.379 . S
C838 H822 0.931 . S
C838 C832 1.383 . S
C838 C837 1.379 . S
H839 C833 0.959 . S
H840 C833 0.961 . S
H841 C833 0.960 . S
H842 C834 0.930 . S
H843 C835 0.929 . S
H844 C852 0.929 . S
H845 C854 0.930 . S
H846 C856 0.930 1_565 S
H847 C859 0.938 . S
H848 C862 0.930 . S
H849 C864 0.960 . S
H850 C864 0.960 . S
H851 C864 0.960 . S
C852 H844 0.929 . S
C852 C853 1.377 . S
C852 C854 1.384 . S
C853 C852 1.377 . S
C853 C859 1.377 1_545 S
C854 H845 0.930 . S
C854 C852 1.384 . S
C854 C855 1.372 . S
C855 C854 1.372 . S
C855 C856 1.400 . S
C855 C860 1.490 . S
C856 H846 0.930 1_545 S
C856 C855 1.400 . S
C856 C859 1.392 1_545 S
H857 C873 0.930 . S
H858 C874 0.931 . S
C859 H847 0.938 . S
C859 C853 1.377 1_565 S
C859 C856 1.392 1_565 S
C860 C855 1.490 . S
C860 C862 1.395 . S
C860 C863 1.403 1_545 S
H861 C867 0.930 . S
C862 H848 0.930 . S
C862 C860 1.395 . S
C862 C865 1.403 . S
C863 C860 1.403 1_565 S
C863 C864 1.524 . S
C863 C867 1.400 . S
C864 H849 0.960 . S
C864 H850 0.960 . S
C864 H851 0.960 . S
C864 C863 1.524 . S
C865 C862 1.403 . S
C865 C866 1.392 . S
C865 C869 1.495 . S
C866 C865 1.392 . S
C866 C867 1.385 1_545 S
C866 C868 1.478 . S
C867 H861 0.930 . S
C867 C863 1.400 . S
C867 C866 1.385 1_565 S
C868 C866 1.478 . S
C868 C870 1.381 . S
C868 C874 1.383 . S
C869 C865 1.495 . S
C869 H875 0.959 . S
C869 H876 0.961 . S
C869 H877 0.960 . S
C870 C868 1.381 . S
C870 C871 1.394 . S
C870 H878 0.930 . S
C871 C870 1.394 . S
C871 C872 1.383 . S
C871 H879 0.929 . S
C872 C871 1.383 . S
C872 C873 1.377 . S
C873 H857 0.930 . S
C873 C872 1.377 . S
C873 C874 1.379 . S
C874 H858 0.931 . S
C874 C868 1.383 . S
C874 C873 1.379 . S
H875 C869 0.959 . S
H876 C869 0.961 . S
H877 C869 0.960 . S
H878 C870 0.930 . S
H879 C871 0.929 . S
H880 C888 0.929 . S
H881 C890 0.930 . S
H882 C892 0.930 . S
H883 C895 0.929 . S
H884 C898 0.930 . S
H885 C900 0.960 1_556 S
H886 C900 0.960 . S
H887 C900 0.960 . S
C888 H880 0.929 . S
C888 C889 1.377 . S
C888 C890 1.384 . S
C889 C888 1.377 . S
C889 C895 1.390 . S
C890 H881 0.930 . S
C890 C888 1.384 . S
C890 C891 1.372 . S
C891 C890 1.372 . S
C891 C892 1.400 . S
C891 C896 1.490 . S
C892 H882 0.930 . S
C892 C891 1.400 . S
C892 C895 1.386 . S
H893 C909 0.930 . S
H894 C910 0.931 . S
C895 H883 0.929 . S
C895 C889 1.390 . S
C895 C892 1.386 . S
C896 C891 1.490 . S
C896 C898 1.395 . S
C896 C899 1.403 . S
H897 C903 0.930 1_556 S
C898 H884 0.930 . S
C898 C896 1.395 . S
C898 C901 1.403 . S
C899 C896 1.403 . S
C899 C900 1.524 . S
C899 C903 1.400 . S
C900 H885 0.960 1_554 S
C900 H886 0.960 . S
C900 H887 0.960 . S
C900 C899 1.524 . S
C901 C898 1.403 . S
C901 C902 1.392 . S
C901 C905 1.495 . S
C902 C901 1.392 . S
C902 C903 1.385 . S
C902 C904 1.478 . S
C903 H897 0.930 1_554 S
C903 C899 1.400 . S
C903 C902 1.385 . S
C904 C902 1.478 . S
C904 C906 1.381 1_554 S
C904 C910 1.383 . S
C905 C901 1.495 . S
C905 H911 0.959 . S
C905 H912 0.961 . S
C905 H913 0.960 . S
C906 C904 1.381 1_556 S
C906 C907 1.394 . S
C906 H914 0.930 . S
C907 C906 1.394 . S
C907 C908 1.383 . S
C907 H915 0.929 . S
C908 C907 1.383 . S
C908 C909 1.377 . S
C909 H893 0.930 . S
C909 C908 1.377 . S
C909 C910 1.379 1_556 S
C910 H894 0.931 . S
C910 C904 1.383 . S
C910 C909 1.379 1_554 S
H911 C905 0.959 . S
H912 C905 0.961 . S
H913 C905 0.960 . S
H914 C906 0.930 . S
H915 C907 0.929 . S
H916 C924 0.929 . S
H917 C926 0.930 . S
H918 C928 0.930 . S
H919 C931 0.929 . S
H920 C934 0.930 . S
H921 C936 0.960 . S
H922 C936 0.960 . S
H923 C936 0.960 . S
C924 H916 0.929 . S
C924 C925 1.377 . S
C924 C926 1.384 . S
C925 C924 1.377 . S
C925 C931 1.390 . S
C926 H917 0.930 . S
C926 C924 1.384 . S
C926 C927 1.372 . S
C927 C926 1.372 . S
C927 C928 1.400 . S
C927 C932 1.490 . S
C928 H918 0.930 . S
C928 C927 1.400 . S
C928 C931 1.386 . S
H929 C945 0.930 . S
H930 C946 0.931 . S
C931 H919 0.929 . S
C931 C925 1.390 . S
C931 C928 1.386 . S
C932 C927 1.490 . S
C932 C934 1.395 . S
C932 C935 1.403 . S
H933 C939 0.930 . S
C934 H920 0.930 . S
C934 C932 1.395 . S
C934 C937 1.403 . S
C935 C932 1.403 . S
C935 C936 1.524 . S
C935 C939 1.400 . S
C936 H921 0.960 . S
C936 H922 0.960 . S
C936 H923 0.960 . S
C936 C935 1.524 . S
C937 C934 1.403 . S
C937 C938 1.392 . S
C937 C941 1.495 . S
C938 C937 1.392 . S
C938 C939 1.385 . S
C938 C940 1.478 . S
C939 H933 0.930 . S
C939 C935 1.400 . S
C939 C938 1.385 . S
C940 C938 1.478 . S
C940 C942 1.381 . S
C940 C946 1.383 . S
C941 C937 1.495 . S
C941 H947 0.959 . S
C941 H948 0.961 . S
C941 H949 0.960 . S
C942 C940 1.381 . S
C942 C943 1.394 . S
C942 H950 0.930 . S
C943 C942 1.394 . S
C943 C944 1.383 . S
C943 H951 0.929 . S
C944 C943 1.383 . S
C944 C945 1.377 . S
C945 H929 0.930 . S
C945 C944 1.377 . S
C945 C946 1.379 . S
C946 H930 0.931 . S
C946 C940 1.383 . S
C946 C945 1.379 . S
H947 C941 0.959 . S
H948 C941 0.961 . S
H949 C941 0.960 . S
H950 C942 0.930 . S
H951 C943 0.929 . S
H952 C960 0.929 . S
H953 C962 0.930 . S
H954 C964 0.930 . S
H955 C967 0.929 . S
H956 C970 0.930 . S
H957 C972 0.960 . S
H958 C972 0.960 . S
H959 C972 0.960 . S
C960 H952 0.929 . S
C960 C961 1.377 . S
C960 C962 1.384 . S
C961 C960 1.377 . S
C961 C967 1.390 . S
C962 H953 0.930 . S
C962 C960 1.384 . S
C962 C963 1.372 . S
C963 C962 1.372 . S
C963 C964 1.400 . S
C963 C968 1.490 . S
C964 H954 0.930 . S
C964 C963 1.400 . S
C964 C967 1.386 . S
H965 C981 0.930 . S
H966 C982 0.931 . S
C967 H955 0.929 . S
C967 C961 1.390 . S
C967 C964 1.386 . S
C968 C963 1.490 . S
C968 C970 1.395 . S
C968 C971 1.403 . S
H969 C975 0.930 . S
C970 H956 0.930 . S
C970 C968 1.395 . S
C970 C973 1.403 . S
C971 C968 1.403 . S
C971 C972 1.524 . S
C971 C975 1.400 . S
C972 H957 0.960 . S
C972 H958 0.960 . S
C972 H959 0.960 . S
C972 C971 1.524 . S
C973 C970 1.403 . S
C973 C974 1.392 . S
C973 C977 1.495 . S
C974 C973 1.392 . S
C974 C975 1.385 . S
C974 C976 1.478 . S
C975 H969 0.930 . S
C975 C971 1.400 . S
C975 C974 1.385 . S
C976 C974 1.478 . S
C976 C978 1.381 . S
C976 C982 1.383 . S
C977 C973 1.495 . S
C977 H983 0.959 . S
C977 H984 0.961 . S
C977 H985 0.960 . S
C978 C976 1.381 . S
C978 C979 1.394 . S
C978 H986 0.930 . S
C979 C978 1.394 . S
C979 C980 1.383 . S
C979 H987 0.929 . S
C980 C979 1.383 . S
C980 C981 1.377 . S
C981 H965 0.930 . S
C981 C980 1.377 . S
C981 C982 1.379 . S
C982 H966 0.931 . S
C982 C976 1.383 . S
C982 C981 1.379 . S
H983 C977 0.959 . S
H984 C977 0.961 . S
H985 C977 0.960 . S
H986 C978 0.930 . S
H987 C979 0.929 . S
H988 C996 0.929 . S
H989 C998 0.930 . S
H990 C1000 0.930 . S
H991 C1003 0.929 . S
H992 C1006 0.930 . S
H993 C1008 0.960 . S
H994 C1008 0.960 1_565 S
H995 C1008 0.960 . S
C996 H988 0.929 . S
C996 C997 1.377 . S
C996 C998 1.384 . S
C997 C996 1.377 . S
C997 C1003 1.390 1_565 S
C998 H989 0.930 . S
C998 C996 1.384 . S
C998 C999 1.372 . S
C999 C998 1.372 . S
C999 C1000 1.400 1_565 S
C999 C1004 1.490 . S
C1000 H990 0.930 . S
C1000 C999 1.400 1_545 S
C1000 C1003 1.386 . S
H1001 C1017 0.930 1_545 S
H1002 C1018 0.899 1_545 S
C1003 H991 0.929 . S
C1003 C997 1.390 1_545 S
C1003 C1000 1.386 . S
C1004 C999 1.490 . S
C1004 C1006 1.395 . S
C1004 C1007 1.403 . S
H1005 C1011 0.930 . S
C1006 H992 0.930 . S
C1006 C1004 1.395 . S
C1006 C1009 1.403 . S
C1007 C1004 1.403 . S
C1007 C1008 1.524 1_565 S
C1007 C1011 1.400 . S
C1008 H993 0.960 . S
C1008 H994 0.960 1_545 S
C1008 H995 0.960 . S
C1008 C1007 1.524 1_545 S
C1009 C1006 1.403 . S
C1009 C1010 1.392 . S
C1009 C1013 1.495 . S
C1010 C1009 1.392 . S
C1010 C1011 1.385 . S
C1010 C1012 1.478 . S
C1011 H1005 0.930 . S
C1011 C1007 1.400 . S
C1011 C1010 1.385 . S
C1012 C1010 1.478 . S
C1012 C1014 1.381 . S
C1012 C1018 1.422 . S
C1013 C1009 1.495 . S
C1013 H1019 0.959 . S
C1013 H1020 0.961 . S
C1013 H1021 0.960 . S
C1014 C1012 1.381 . S
C1014 C1015 1.394 . S
C1014 H1022 0.930 . S
C1015 C1014 1.394 . S
C1015 C1016 1.383 . S
C1015 H1023 0.929 . S
C1016 C1015 1.383 . S
C1016 C1017 1.377 . S
C1017 H1001 0.930 1_565 S
C1017 C1016 1.377 . S
C1017 C1018 1.373 . S
C1018 H1002 0.899 1_565 S
C1018 C1012 1.422 . S
C1018 C1017 1.373 . S
H1019 C1013 0.959 . S
H1020 C1013 0.961 . S
H1021 C1013 0.960 . S
H1022 C1014 0.930 . S
H1023 C1015 0.929 . S
H1024 C1032 0.929 . S
H1025 C1034 0.930 . S
H1026 C1036 0.930 . S
H1027 C1039 0.929 . S
H1028 C1042 0.930 . S
H1029 C1044 0.960 . S
H1030 C1044 0.960 . S
H1031 C1044 0.960 . S
C1032 H1024 0.929 . S
C1032 C1033 1.377 . S
C1032 C1034 1.384 . S
C1033 C1032 1.377 . S
C1033 C1039 1.390 . S
C1034 H1025 0.930 . S
C1034 C1032 1.384 . S
C1034 C1035 1.372 . S
C1035 C1034 1.372 . S
C1035 C1036 1.400 . S
C1035 C1040 1.490 . S
C1036 H1026 0.930 . S
C1036 C1035 1.400 . S
C1036 C1039 1.386 . S
H1037 C1053 0.930 . S
H1038 C1054 0.931 . S
C1039 H1027 0.929 . S
C1039 C1033 1.390 . S
C1039 C1036 1.386 . S
C1040 C1035 1.490 . S
C1040 C1042 1.395 . S
C1040 C1043 1.403 . S
H1041 C1047 0.930 . S
C1042 H1028 0.930 . S
C1042 C1040 1.395 . S
C1042 C1045 1.403 . S
C1043 C1040 1.403 . S
C1043 C1044 1.524 . S
C1043 C1047 1.400 . S
C1044 H1029 0.960 . S
C1044 H1030 0.960 . S
C1044 H1031 0.960 . S
C1044 C1043 1.524 . S
C1045 C1042 1.403 . S
C1045 C1046 1.392 . S
C1045 C1049 1.495 . S
C1046 C1045 1.392 . S
C1046 C1047 1.385 . S
C1046 C1048 1.478 . S
C1047 H1041 0.930 . S
C1047 C1043 1.400 . S
C1047 C1046 1.385 . S
C1048 C1046 1.478 . S
C1048 C1050 1.381 . S
C1048 C1054 1.383 . S
C1049 C1045 1.495 . S
C1049 H1055 0.959 . S
C1049 H1056 0.961 . S
C1049 H1057 0.960 . S
C1050 C1048 1.381 . S
C1050 C1051 1.394 . S
C1050 H1058 0.930 . S
C1051 C1050 1.394 . S
C1051 C1052 1.383 . S
C1051 H1059 0.929 . S
C1052 C1051 1.383 . S
C1052 C1053 1.377 . S
C1053 H1037 0.930 . S
C1053 C1052 1.377 . S
C1053 C1054 1.379 . S
C1054 H1038 0.931 . S
C1054 C1048 1.383 . S
C1054 C1053 1.379 . S
H1055 C1049 0.959 . S
H1056 C1049 0.961 . S
H1057 C1049 0.960 . S
H1058 C1050 0.930 . S
H1059 C1051 0.929 . S
H1060 C1068 0.929 . S
H1061 C1070 0.930 . S
H1062 C1072 0.930 . S
H1063 C1075 0.929 . S
H1064 C1078 0.930 . S
H1065 C1080 0.960 . S
H1066 C1080 0.960 . S
H1067 C1080 0.960 . S
C1068 H1060 0.929 . S
C1068 C1069 1.377 . S
C1068 C1070 1.384 . S
C1069 C1068 1.377 . S
C1069 C1075 1.390 . S
C1070 H1061 0.930 . S
C1070 C1068 1.384 . S
C1070 C1071 1.372 . S
C1071 C1070 1.372 . S
C1071 C1072 1.400 . S
C1071 C1076 1.490 . S
C1072 H1062 0.930 . S
C1072 C1071 1.400 . S
C1072 C1075 1.386 . S
H1073 C1089 0.930 . S
H1074 C1090 0.931 . S
C1075 H1063 0.929 . S
C1075 C1069 1.390 . S
C1075 C1072 1.386 . S
C1076 C1071 1.490 . S
C1076 C1078 1.395 . S
C1076 C1079 1.403 . S
H1077 C1083 0.930 . S
C1078 H1064 0.930 . S
C1078 C1076 1.395 . S
C1078 C1081 1.403 . S
C1079 C1076 1.403 . S
C1079 C1080 1.524 . S
C1079 C1083 1.400 . S
C1080 H1065 0.960 . S
C1080 H1066 0.960 . S
C1080 H1067 0.960 . S
C1080 C1079 1.524 . S
C1081 C1078 1.403 . S
C1081 C1082 1.392 . S
C1081 C1085 1.495 . S
C1082 C1081 1.392 . S
C1082 C1083 1.385 . S
C1082 C1084 1.478 . S
C1083 H1077 0.930 . S
C1083 C1079 1.400 . S
C1083 C1082 1.385 . S
C1084 C1082 1.478 . S
C1084 C1086 1.381 . S
C1084 C1090 1.383 . S
C1085 C1081 1.495 . S
C1085 H1091 0.959 . S
C1085 H1092 0.961 . S
C1085 H1093 0.960 . S
C1086 C1084 1.381 . S
C1086 C1087 1.394 . S
C1086 H1094 0.930 . S
C1087 C1086 1.394 . S
C1087 C1088 1.383 . S
C1087 H1095 0.929 . S
C1088 C1087 1.383 . S
C1088 C1089 1.377 . S
C1089 H1073 0.930 . S
C1089 C1088 1.377 . S
C1089 C1090 1.379 . S
C1090 H1074 0.931 . S
C1090 C1084 1.383 . S
C1090 C1089 1.379 . S
H1091 C1085 0.959 . S
H1092 C1085 0.961 . S
H1093 C1085 0.960 . S
H1094 C1086 0.930 . S
H1095 C1087 0.929 . S
C241 C61 0.931 1_545 S
C260 C81 0.863 . S
C296 C121 1.380 . S
C277 C70 1.408 . S
C332 C170 1.447 . S
C313 C43 1.483 . S
C368 C201 1.854 . S
C349 C52 1.881 . S
C404 C90 0.876 . S
C385 C25 0.943 1_545 S
C421 C34 1.406 . S
C440 C130 1.415 . S
C457 C7 1.484 . S
C476 C161 1.427 . S
C493 C16 1.892 . S
C512 C210 1.831 1_655 S
C548 C91 0.617 . S
C529 C50 0.670 . S
C584 C131 0.279 . S
C565 C59 0.455 1_545 S
C620 C167 0.486 . S
C601 C67 0.443 . S
C637 C41 0.842 . S
C656 C211 0.878 . S
C673 C14 0.639 . S
C692 C82 0.625 1_655 S
C728 C122 0.369 . S
C709 C23 0.442 . S
C764 C158 0.481 . S
C745 C31 0.432 . S
C781 C5 0.849 1_556 S
C800 C202 0.863 . S
C817 C49 1.761 . S
C836 C87 1.796 . S
C853 C58 1.537 1_545 S
C872 C127 1.541 . S
C908 C171 2.018 . S
C889 C68 1.887 . S
C944 C207 1.451 . S
C925 C40 1.440 . S
C961 C13 1.765 . S
C980 C78 1.800 . S
C1016 C118 1.543 . S
C997 C22 1.528 . S
C1052 C162 2.018 . S
C1033 C32 1.868 . S
C1069 C4 1.445 . S
C1088 C198 1.451 . S
