# Generated by pormake.
# Topology csq, (4,8)-cn, num edge types: 1
# Building blocks:
#     Node 0, Type 0, BuildingBlock: MUDLON_clean_linker_0, # of connection points: 4
#     Node 1, Type 0, BuildingBlock: MUDLON_clean_linker_0, # of connection points: 4
#     Node 2, Type 0, BuildingBlock: MUDLON_clean_linker_0, # of connection points: 4
#     Node 3, Type 0, BuildingBlock: MUDLON_clean_linker_0, # of connection points: 4
#     Node 4, Type 0, BuildingBlock: MUDLON_clean_linker_0, # of connection points: 4
#     Node 5, Type 0, BuildingBlock: MUDLON_clean_linker_0, # of connection points: 4
#     Node 6, Type 1, BuildingBlock: TAGTUT_clean_sbu_1, # of connection points: 8
#     Node 7, Type 1, BuildingBlock: TAGTUT_clean_sbu_1, # of connection points: 8
#     Node 8, Type 1, BuildingBlock: TAGTUT_clean_sbu_1, # of connection points: 8
#     Edge 9, Type (0, 1), BuildingBlock: MIFKUJ_clean_linker_0, # of connection points: 2
#     Edge 10, Type (0, 1), BuildingBlock: MIFKUJ_clean_linker_0, # of connection points: 2
#     Edge 11, Type (0, 1), BuildingBlock: MIFKUJ_clean_linker_0, # of connection points: 2
#     Edge 12, Type (0, 1), BuildingBlock: MIFKUJ_clean_linker_0, # of connection points: 2
#     Edge 13, Type (0, 1), BuildingBlock: MIFKUJ_clean_linker_0, # of connection points: 2
#     Edge 14, Type (0, 1), BuildingBlock: MIFKUJ_clean_linker_0, # of connection points: 2
#     Edge 15, Type (0, 1), BuildingBlock: MIFKUJ_clean_linker_0, # of connection points: 2
#     Edge 16, Type (0, 1), BuildingBlock: MIFKUJ_clean_linker_0, # of connection points: 2
#     Edge 17, Type (0, 1), BuildingBlock: MIFKUJ_clean_linker_0, # of connection points: 2
#     Edge 18, Type (0, 1), BuildingBlock: MIFKUJ_clean_linker_0, # of connection points: 2
#     Edge 19, Type (0, 1), BuildingBlock: MIFKUJ_clean_linker_0, # of connection points: 2
#     Edge 20, Type (0, 1), BuildingBlock: MIFKUJ_clean_linker_0, # of connection points: 2
#     Edge 21, Type (0, 1), BuildingBlock: MIFKUJ_clean_linker_0, # of connection points: 2
#     Edge 22, Type (0, 1), BuildingBlock: MIFKUJ_clean_linker_0, # of connection points: 2
#     Edge 23, Type (0, 1), BuildingBlock: MIFKUJ_clean_linker_0, # of connection points: 2
#     Edge 24, Type (0, 1), BuildingBlock: MIFKUJ_clean_linker_0, # of connection points: 2
#     Edge 25, Type (0, 1), BuildingBlock: MIFKUJ_clean_linker_0, # of connection points: 2
#     Edge 26, Type (0, 1), BuildingBlock: MIFKUJ_clean_linker_0, # of connection points: 2
#     Edge 27, Type (0, 1), BuildingBlock: MIFKUJ_clean_linker_0, # of connection points: 2
#     Edge 28, Type (0, 1), BuildingBlock: MIFKUJ_clean_linker_0, # of connection points: 2
#     Edge 29, Type (0, 1), BuildingBlock: MIFKUJ_clean_linker_0, # of connection points: 2
#     Edge 30, Type (0, 1), BuildingBlock: MIFKUJ_clean_linker_0, # of connection points: 2
#     Edge 31, Type (0, 1), BuildingBlock: MIFKUJ_clean_linker_0, # of connection points: 2
#     Edge 32, Type (0, 1), BuildingBlock: MIFKUJ_clean_linker_0, # of connection points: 2
# Relax obj value: 0.045
# Max RMSD: 0.135
# Mean RMSD: 0.093
data_MOF--net-csq--node1-TAGTUT_clean_sbu_1--node2-MUDLON_clean_linker_0--edge1-MIFKUJ_clean_linker_0
_symmetry_space_group_name_H-M    P1
_symmetry_Int_Tables_number       1
_symmetry_cell_setting            triclinic
loop_
_symmetry_equiv_pos_as_xyz
'x, y, z'
_cell_length_a     85.277526
_cell_length_b     84.21785
_cell_length_c     28.607359
_cell_angle_alpha  92.395928
_cell_angle_beta   92.215772
_cell_angle_gamma 119.92825
loop_
_atom_site_label
_atom_site_type_symbol
_atom_site_fract_x
_atom_site_fract_y
_atom_site_fract_z
_atom_type_partial_charge
H0 H 0.32492 0.49333 0.15461 0.0
N1 N 0.29377 0.46109 0.12794 0.0
H2 H 0.34384 0.5002 0.22695 0.0
H3 H 0.2869 0.44024 0.20025 0.0
H4 H 0.30521 0.44734 0.2743 0.0
H5 H 0.30736 0.44137 0.09211 0.0
H6 H 0.32734 0.44849 0.02734 0.0
H7 H 0.30365 0.48983 0.07128 0.0
H8 H 0.32315 0.49663 0.00528 0.0
H9 H 0.29339 0.49217 0.15896 0.0
H10 H 0.25989 0.437 0.0972 0.0
H11 H 0.26648 0.49488 0.16869 0.0
H12 H 0.23294 0.43986 0.1041 0.0
H13 H 0.1961 0.5018 0.20984 0.0
H14 H 0.18284 0.50857 0.27742 0.0
H15 H 0.13984 0.45189 0.26878 0.0
H16 H 0.15307 0.4454 0.20131 0.0
H17 H 0.15689 0.4436 0.09522 0.0
H18 H 0.14383 0.44834 0.0228 0.0
H19 H 0.1771 0.50704 0.05144 0.0
H20 H 0.18979 0.50216 0.12416 0.0
H21 H 0.21468 0.49841 0.14432 0.0
H22 H 0.24246 0.49741 0.13369 0.0
H23 H 0.21439 0.43997 0.16205 0.0
N24 N 0.18131 0.46911 0.15745 0.0
H25 H 0.18648 0.44099 0.16978 0.0
C26 C 0.30464 0.46608 0.17175 0.0
C27 C 0.32056 0.48321 0.18048 0.0
C28 C 0.33127 0.4872 0.22229 0.0
C29 C 0.32614 0.47431 0.25666 0.0
C30 C 0.30982 0.45746 0.24837 0.0
C31 C 0.29926 0.4534 0.20627 0.0
C32 C 0.30383 0.46488 0.08635 0.0
C33 C 0.31057 0.45334 0.07296 0.0
C34 C 0.32202 0.45745 0.03621 0.0
C35 C 0.32672 0.47308 0.01146 0.0
C36 C 0.31957 0.48442 0.02371 0.0
C37 C 0.30839 0.4805 0.06131 0.0
C38 C 0.27858 0.4642 0.12795 0.0
C39 C 0.28025 0.48072 0.14681 0.0
C40 C 0.26479 0.48228 0.15209 0.0
C41 C 0.24739 0.46747 0.138 0.0
C42 C 0.24599 0.45137 0.11677 0.0
C43 C 0.2614 0.44976 0.11212 0.0
C44 C 0.17546 0.47308 0.20063 0.0
C45 C 0.18399 0.49083 0.22307 0.0
C46 C 0.17644 0.49464 0.26173 0.0
C47 C 0.16018 0.48079 0.27813 0.0
C48 C 0.15221 0.46291 0.25663 0.0
C49 C 0.15978 0.45914 0.21834 0.0
C50 C 0.17436 0.47247 0.1147 0.0
C51 C 0.16136 0.45746 0.08566 0.0
C52 C 0.15391 0.4602 0.04454 0.0
C53 C 0.1595 0.47806 0.0315 0.0
C54 C 0.17272 0.49313 0.06039 0.0
C55 C 0.17998 0.49036 0.10191 0.0
C56 C 0.19845 0.46966 0.15729 0.0
C57 C 0.21453 0.48564 0.14827 0.0
C58 C 0.23048 0.48505 0.14247 0.0
C59 C 0.23071 0.46852 0.1462 0.0
C60 C 0.2147 0.45281 0.15746 0.0
C61 C 0.19877 0.45339 0.1626 0.0
H62 H 0.71375 0.13115 0.18661 0.0
N63 N 0.72211 0.16042 0.13924 0.0
H64 H 0.69772 0.12263 0.25857 0.0
H65 H 0.71093 0.18084 0.18996 0.0
H66 H 0.69496 0.17253 0.26234 0.0
H67 H 0.69288 0.16447 0.11573 0.0
H68 H 0.67222 0.15089 0.04575 0.0
H69 H 0.72414 0.14026 0.06823 0.0
H70 H 0.70338 0.1265 0.99776 0.0
H71 H 0.75505 0.17108 0.17692 0.0
H72 H 0.72465 0.19066 0.09862 0.0
H73 H 0.78266 0.20055 0.17238 0.0
H74 H 0.75229 0.2195 0.09031 0.0
H75 H 0.86969 0.28888 0.14849 0.0
H76 H 0.88745 0.31327 0.20958 0.0
H77 H 0.84151 0.32098 0.22752 0.0
H78 H 0.82421 0.29712 0.16538 0.0
H79 H 0.826 0.30275 0.08133 0.0
H80 H 0.83932 0.32409 0.02005 0.0
H81 H 0.87103 0.29877 0.98441 0.0
H82 H 0.85744 0.27741 0.04537 0.0
H83 H 0.83224 0.24579 0.11397 0.0
H84 H 0.80395 0.2172 0.12096 0.0
H85 H 0.77509 0.24736 0.12328 0.0
N86 N 0.83711 0.27922 0.11054 0.0
H87 H 0.80324 0.27547 0.11201 0.0
C88 C 0.7135 0.15654 0.183 0.0
C89 C 0.7098 0.14029 0.20329 0.0
C90 C 0.70074 0.13553 0.24451 0.0
C91 C 0.6951 0.14694 0.26632 0.0
C92 C 0.699 0.16339 0.2462 0.0
C93 C 0.70818 0.16819 0.20496 0.0
C94 C 0.70995 0.15312 0.09755 0.0
C95 C 0.69528 0.15618 0.09036 0.0
C96 C 0.68348 0.14844 0.05022 0.0
C97 C 0.68613 0.13756 0.01636 0.0
C98 C 0.70109 0.13495 0.02299 0.0
C99 C 0.71285 0.14266 0.06329 0.0
C100 C 0.73784 0.17843 0.1375 0.0
C101 C 0.75439 0.18172 0.15843 0.0
C102 C 0.77021 0.19854 0.15522 0.0
C103 C 0.76993 0.21243 0.13003 0.0
C104 C 0.75315 0.20929 0.11025 0.0
C105 C 0.73724 0.19259 0.1145 0.0
C106 C 0.84564 0.29104 0.15247 0.0
C107 C 0.86337 0.29557 0.16647 0.0
C108 C 0.87346 0.30951 0.20142 0.0
C109 C 0.86594 0.31919 0.22331 0.0
C110 C 0.84781 0.31401 0.21084 0.0
C111 C 0.83778 0.30014 0.17557 0.0
C112 C 0.8408 0.28849 0.06785 0.0
C113 C 0.83531 0.30137 0.05925 0.0
C114 C 0.84309 0.31369 0.02449 0.0
C115 C 0.8564 0.31329 0.99774 0.0
C116 C 0.8607 0.29938 0.00399 0.0
C117 C 0.85296 0.28713 0.03877 0.0
C118 C 0.81994 0.26276 0.11334 0.0
C119 C 0.81973 0.24611 0.11568 0.0
C120 C 0.80353 0.22982 0.12031 0.0
C121 C 0.78711 0.22986 0.12368 0.0
C122 C 0.78735 0.24665 0.12056 0.0
C123 C 0.80357 0.26289 0.11481 0.0
H124 H 0.59415 0.87544 0.96841 0.0
N125 N 0.58001 0.84972 0.0288 0.0
H126 H 0.57762 0.8821 0.90794 0.0
H127 H 0.5449 0.82607 0.99471 0.0
H128 H 0.52815 0.83292 0.93511 0.0
H129 H 0.54847 0.84411 0.06561 0.0
H130 H 0.54573 0.86305 0.12683 0.0
H131 H 0.60679 0.87707 0.0828 0.0
H132 H 0.60415 0.89598 0.14617 0.0
H133 H 0.60246 0.8395 0.99606 0.0
H134 H 0.55544 0.82076 0.0767 0.0
H135 H 0.60298 0.81125 0.00885 0.0
H136 H 0.55645 0.79315 0.09188 0.0
H137 H 0.60685 0.7227 0.09184 0.0
H138 H 0.60216 0.69689 0.039 0.0
H139 H 0.55739 0.6978 0.9657 0.0
H140 H 0.56185 0.72316 0.01899 0.0
H141 H 0.55064 0.70834 0.09882 0.0
H142 H 0.53887 0.68768 0.16093 0.0
H143 H 0.58662 0.72436 0.25106 0.0
H144 H 0.59899 0.74426 0.18655 0.0
H145 H 0.61244 0.77066 0.08807 0.0
H146 H 0.61051 0.7977 0.06949 0.0
H147 H 0.55194 0.76479 0.06014 0.0
N148 N 0.58549 0.73709 0.09793 0.0
H149 H 0.55412 0.73815 0.08113 0.0
C150 C 0.57078 0.85049 0.98645 0.0
C151 C 0.57989 0.86576 0.96003 0.0
C152 C 0.57042 0.86952 0.92557 0.0
C153 C 0.55158 0.8581 0.91731 0.0
C154 C 0.54266 0.842 0.94118 0.0
C155 C 0.55223 0.83808 0.97516 0.0
C156 C 0.57795 0.85917 0.06931 0.0
C157 C 0.56076 0.85521 0.08308 0.0
C158 C 0.55919 0.86606 0.11858 0.0
C159 C 0.57471 0.88108 0.14146 0.0
C160 C 0.59191 0.88466 0.12882 0.0
C161 C 0.59346 0.87379 0.09302 0.0
C162 C 0.57918 0.83248 0.03585 0.0
C163 C 0.59231 0.82932 0.01667 0.0
C164 C 0.59265 0.81323 0.0244 0.0
C165 C 0.5799 0.79998 0.05199 0.0
C166 C 0.5664 0.80294 0.07015 0.0
C167 C 0.56593 0.81894 0.06187 0.0
C168 C 0.58481 0.72495 0.0597 0.0
C169 C 0.59636 0.71764 0.06352 0.0
C170 C 0.59362 0.70287 0.03337 0.0
C171 C 0.57921 0.69513 0.99862 0.0
C172 C 0.56837 0.70323 0.99278 0.0
C173 C 0.57109 0.71797 0.02302 0.0
C174 C 0.57605 0.72758 0.13759 0.0
C175 C 0.55849 0.71214 0.1321 0.0
C176 C 0.55165 0.70034 0.16816 0.0
C177 C 0.562 0.70399 0.2109 0.0
C178 C 0.57855 0.72069 0.21809 0.0
C179 C 0.58558 0.73224 0.18153 0.0
C180 C 0.58352 0.75245 0.08584 0.0
C181 C 0.59922 0.76937 0.08197 0.0
C182 C 0.59805 0.78474 0.07094 0.0
C183 C 0.58105 0.78345 0.06297 0.0
C184 C 0.56526 0.76638 0.06661 0.0
C185 C 0.56647 0.75105 0.07827 0.0
H186 H 0.86834 0.55842 0.10698 0.0
N187 N 0.83473 0.54297 0.06808 0.0
H188 H 0.87908 0.5492 0.17588 0.0
H189 H 0.81409 0.51361 0.11936 0.0
H190 H 0.82468 0.5048 0.18957 0.0
H191 H 0.82355 0.50854 0.02892 0.0
H192 H 0.83429 0.50096 0.95795 0.0
H193 H 0.85606 0.56612 0.00794 0.0
H194 H 0.86762 0.55888 0.93825 0.0
H195 H 0.83039 0.56719 0.11965 0.0
H196 H 0.80099 0.51894 0.02466 0.0
H197 H 0.8026 0.56804 0.13007 0.0
H198 H 0.77338 0.52037 0.03205 0.0
H199 H 0.71671 0.57429 0.14597 0.0
H200 H 0.69773 0.56884 0.21221 0.0
H201 H 0.68418 0.512 0.20451 0.0
H202 H 0.70351 0.51773 0.13919 0.0
H203 H 0.69238 0.51732 0.05958 0.0
H204 H 0.67322 0.51257 0.98893 0.0
H205 H 0.70811 0.56934 0.95997 0.0
H206 H 0.72646 0.57412 0.03256 0.0
H207 H 0.75521 0.57714 0.10266 0.0
H208 H 0.78262 0.57529 0.09462 0.0
H209 H 0.74999 0.51599 0.07856 0.0
N210 N 0.72119 0.54992 0.09543 0.0
H211 H 0.72262 0.51827 0.0831 0.0
C212 C 0.84046 0.53688 0.10834 0.0
C213 C 0.85877 0.54665 0.1247 0.0
C214 C 0.86486 0.54137 0.16388 0.0
C215 C 0.85265 0.52638 0.18796 0.0
C216 C 0.83428 0.5165 0.17167 0.0
C217 C 0.82825 0.52153 0.13167 0.0
C218 C 0.83895 0.53794 0.02343 0.0
C219 C 0.8328 0.51954 0.00852 0.0
C220 C 0.83914 0.51526 0.96816 0.0
C221 C 0.852 0.52929 0.94226 0.0
C222 C 0.85755 0.54765 0.95656 0.0
C223 C 0.85104 0.55187 0.99658 0.0
C224 C 0.81798 0.54327 0.07093 0.0
C225 C 0.81796 0.55696 0.10039 0.0
C226 C 0.80202 0.55746 0.10601 0.0
C227 C 0.7856 0.54439 0.08152 0.0
C228 C 0.78562 0.53056 0.05201 0.0
C229 C 0.80157 0.52987 0.04717 0.0
C230 C 0.71159 0.54651 0.1376 0.0
C231 C 0.70987 0.56075 0.15918 0.0
C232 C 0.69887 0.55754 0.19669 0.0
C233 C 0.68924 0.53991 0.21341 0.0
C234 C 0.69149 0.52577 0.1928 0.0
C235 C 0.70255 0.52902 0.15522 0.0
C236 C 0.71065 0.54621 0.05171 0.0
C237 C 0.69586 0.52873 0.0381 0.0
C238 C 0.68501 0.526 0.99723 0.0
C239 C 0.68894 0.54061 0.96866 0.0
C240 C 0.70432 0.55787 0.98152 0.0
C241 C 0.71495 0.56062 0.02274 0.0
C242 C 0.73697 0.54791 0.09454 0.0
C243 C 0.75407 0.56377 0.09781 0.0
C244 C 0.76974 0.56262 0.09346 0.0
C245 C 0.76871 0.54546 0.08637 0.0
C246 C 0.75143 0.52948 0.08349 0.0
C247 C 0.7357 0.53071 0.08699 0.0
H248 H 0.17855 0.7024 0.13333 0.0
N249 N 0.17344 0.73121 0.11468 0.0
H250 H 0.16528 0.68214 0.19582 0.0
H251 H 0.16229 0.73936 0.19275 0.0
H252 H 0.15043 0.72006 0.25846 0.0
H253 H 0.13959 0.72067 0.08522 0.0
H254 H 0.12031 0.69604 0.0257 0.0
H255 H 0.18497 0.71392 0.05293 0.0
H256 H 0.16583 0.68912 0.99465 0.0
H257 H 0.20619 0.73246 0.11372 0.0
H258 H 0.1803 0.76504 0.10478 0.0
H259 H 0.23529 0.75923 0.09971 0.0
H260 H 0.20941 0.79224 0.09475 0.0
H261 H 0.32363 0.84626 0.10071 0.0
H262 H 0.34279 0.8594 0.17266 0.0
H263 H 0.30338 0.87176 0.22889 0.0
H264 H 0.28501 0.85991 0.15473 0.0
H265 H 0.30279 0.87539 0.03157 0.0
H266 H 0.31937 0.88274 0.96043 0.0
H267 H 0.3173 0.83035 0.95759 0.0
H268 H 0.30119 0.82343 0.02968 0.0
H269 H 0.28759 0.81533 0.12195 0.0
H270 H 0.25913 0.78713 0.13062 0.0
H271 H 0.23097 0.80675 0.04217 0.0
N272 N 0.29156 0.84552 0.07869 0.0
H273 H 0.2593 0.83551 0.03724 0.0
C274 C 0.17083 0.72212 0.1576 0.0
C275 C 0.17265 0.70649 0.16076 0.0
C276 C 0.16514 0.69493 0.19709 0.0
C277 C 0.15618 0.69907 0.2318 0.0
C278 C 0.15649 0.71595 0.23144 0.0
C279 C 0.16354 0.72721 0.19435 0.0
C280 C 0.16369 0.71922 0.07363 0.0
C281 C 0.14547 0.71414 0.06459 0.0
C282 C 0.13445 0.69993 0.03105 0.0
C283 C 0.14147 0.69044 0.00593 0.0
C284 C 0.16001 0.69622 0.01314 0.0
C285 C 0.17103 0.71048 0.04664 0.0
C286 C 0.19104 0.74677 0.10918 0.0
C287 C 0.20679 0.74541 0.10873 0.0
C288 C 0.2235 0.76085 0.10132 0.0
C289 C 0.22482 0.77801 0.09541 0.0
C290 C 0.20899 0.77926 0.0975 0.0
C291 C 0.19232 0.76378 0.10383 0.0
C292 C 0.30303 0.85256 0.12172 0.0
C293 C 0.31919 0.85201 0.12813 0.0
C294 C 0.33005 0.8593 0.16998 0.0
C295 C 0.32479 0.8668 0.20702 0.0
C296 C 0.30822 0.8666 0.201 0.0
C297 C 0.29759 0.85972 0.15871 0.0
C298 C 0.30071 0.84891 0.03572 0.0
C299 C 0.30586 0.86549 0.01534 0.0
C300 C 0.31519 0.86957 0.97449 0.0
C301 C 0.31958 0.85708 0.95299 0.0
C302 C 0.31427 0.84034 0.97336 0.0
C303 C 0.30495 0.83629 0.01439 0.0
C304 C 0.27544 0.82777 0.07991 0.0
C305 C 0.27526 0.81359 0.10468 0.0
C306 C 0.25893 0.79732 0.10915 0.0
C307 C 0.24253 0.79466 0.08788 0.0
C308 C 0.2431 0.80846 0.06057 0.0
C309 C 0.25932 0.82486 0.05713 0.0
H310 H 0.525 0.32931 0.10354 0.0
N311 N 0.49792 0.30024 0.13749 0.0
H312 H 0.52326 0.34532 0.0361 0.0
H313 H 0.47003 0.28585 0.06815 0.0
H314 H 0.46835 0.30147 0.00027 0.0
H315 H 0.46782 0.30407 0.14039 0.0
H316 H 0.46375 0.32432 0.19525 0.0
H317 H 0.51847 0.31813 0.21507 0.0
H318 H 0.51423 0.33817 0.27141 0.0
H319 H 0.51658 0.28289 0.14017 0.0
H320 H 0.46221 0.27373 0.14347 0.0
H321 H 0.50516 0.25024 0.14879 0.0
H322 H 0.45055 0.24108 0.14967 0.0
H323 H 0.4801 0.16371 0.15047 0.0
H324 H 0.47871 0.13977 0.09716 0.0
H325 H 0.42129 0.1181 0.068 0.0
H326 H 0.42273 0.14231 0.12217 0.0
H327 H 0.43239 0.14105 0.23565 0.0
H328 H 0.44459 0.13111 0.29918 0.0
H329 H 0.49815 0.17699 0.28338 0.0
H330 H 0.48587 0.18654 0.21903 0.0
H331 H 0.47821 0.18901 0.12117 0.0
H332 H 0.48847 0.22087 0.10918 0.0
H333 H 0.44952 0.21995 0.20303 0.0
N334 N 0.45116 0.16676 0.17796 0.0
H335 H 0.4386 0.1875 0.21314 0.0
C336 C 0.49771 0.30649 0.09139 0.0
C337 C 0.51281 0.3229 0.08023 0.0
C338 C 0.51178 0.332 0.0416 0.0
C339 C 0.49556 0.32478 0.0132 0.0
C340 C 0.48092 0.30754 0.02204 0.0
C341 C 0.48194 0.29848 0.06083 0.0
C342 C 0.49359 0.30966 0.17352 0.0
C343 C 0.47788 0.31114 0.16929 0.0
C344 C 0.47552 0.32275 0.20089 0.0
C345 C 0.48876 0.33303 0.23744 0.0
C346 C 0.50395 0.33071 0.24308 0.0
C347 C 0.50632 0.31915 0.21131 0.0
C348 C 0.49036 0.28079 0.14095 0.0
C349 C 0.50216 0.27376 0.14217 0.0
C350 C 0.49556 0.25508 0.14675 0.0
C351 C 0.47689 0.24295 0.14975 0.0
C352 C 0.46503 0.25002 0.14814 0.0
C353 C 0.47169 0.26876 0.14414 0.0
C354 C 0.45141 0.15482 0.14054 0.0
C355 C 0.46722 0.15405 0.1323 0.0
C356 C 0.4664 0.14024 0.10202 0.0
C357 C 0.44984 0.12692 0.07913 0.0
C358 C 0.43424 0.12822 0.08528 0.0
C359 C 0.43504 0.14204 0.11596 0.0
C360 C 0.45811 0.16439 0.22235 0.0
C361 C 0.44664 0.14929 0.24698 0.0
C362 C 0.45368 0.14366 0.28335 0.0
C363 C 0.47242 0.15315 0.29598 0.0
C364 C 0.48371 0.16923 0.27391 0.0
C365 C 0.47664 0.17481 0.23738 0.0
C366 C 0.45736 0.1856 0.168 0.0
C367 C 0.47161 0.19539 0.13888 0.0
C368 C 0.47767 0.21385 0.13233 0.0
C369 C 0.4699 0.22308 0.15523 0.0
C370 C 0.45564 0.21325 0.18415 0.0
C371 C 0.44944 0.19473 0.19022 0.0
C372 C 0.99002 0.45672 0.74273 0.0
C373 C 0.04414 0.49218 0.69717 0.0
C374 C 0.02278 0.5418 0.68079 0.0
Mg375 Mg 0.00671 0.46734 0.64618 0.0
O376 O 0.99998 0.48518 0.65753 0.0
Mg377 Mg 0.01029 0.50123 0.71706 0.0
Mg378 Mg 0.00665 0.50445 0.61222 0.0
O379 O 0.01338 0.52364 0.56674 0.0
Mg380 Mg 0.00651 0.54149 0.57712 0.0
Mg381 Mg 0.00338 0.50749 0.50704 0.0
C382 C 0.98972 0.46684 0.54357 0.0
C383 C 0.03704 0.50326 0.54781 0.0
O384 O 0.99606 0.47382 0.75449 0.0
O385 O 0.99242 0.45118 0.7026 0.0
O386 O 0.03675 0.50013 0.71852 0.0
O387 O 0.03548 0.47973 0.66408 0.0
O388 O 0.99522 0.45932 0.57341 0.0
O389 O 0.9909 0.48248 0.55297 0.0
C390 C 0.97557 0.50392 0.67683 0.0
O391 O 0.98115 0.50562 0.63518 0.0
O392 O 0.98426 0.50206 0.71166 0.0
O393 O 0.01868 0.53498 0.47033 0.0
O394 O 0.02148 0.55759 0.52123 0.0
O395 O 0.97746 0.50935 0.50374 0.0
C396 C 0.02456 0.55207 0.48196 0.0
O397 O 0.9778 0.52948 0.55726 0.0
O398 O 0.01731 0.54926 0.65068 0.0
C399 C 0.96968 0.51717 0.52359 0.0
O400 O 0.02207 0.52639 0.67129 0.0
O401 O 0.03216 0.5031 0.58983 0.0
O402 O 0.02842 0.505 0.5127 0.0
C403 C 0.46957 0.00926 0.74644 0.0
C404 C 0.45154 0.96024 0.65662 0.0
C405 C 0.52107 0.97788 0.66394 0.0
Mg406 Mg 0.46878 0.00113 0.63921 0.0
O407 O 0.49214 0.00574 0.65779 0.0
Mg408 Mg 0.4936 0.99002 0.70665 0.0
Mg409 Mg 0.50594 0.00133 0.60933 0.0
O410 O 0.51948 0.99655 0.56077 0.0
Mg411 Mg 0.54268 0.00069 0.57865 0.0
Mg412 Mg 0.51745 0.01127 0.5101 0.0
C413 C 0.49058 0.0245 0.55428 0.0
C414 C 0.47732 0.97667 0.52181 0.0
O415 O 0.47949 0.0019 0.75369 0.0
O416 O 0.46432 0.0108 0.70511 0.0
O417 O 0.46561 0.96495 0.6839 0.0
O418 O 0.4501 0.97186 0.63228 0.0
O419 O 0.47645 0.01779 0.57833 0.0
O420 O 0.50381 0.02161 0.56324 0.0
C421 C 0.53386 0.02541 0.69899 0.0
O422 O 0.53172 0.02329 0.65392 0.0
O423 O 0.5214 0.01483 0.72488 0.0
O424 O 0.53103 0.99854 0.46361 0.0
O425 O 0.54686 0.99065 0.51311 0.0
O426 O 0.5458 0.03628 0.53005 0.0
C427 C 0.54129 0.99162 0.47163 0.0
O428 O 0.56139 0.0298 0.58267 0.0
O429 O 0.53538 0.98447 0.64063 0.0
C430 C 0.56003 0.04113 0.55687 0.0
O431 O 0.50796 0.98081 0.65405 0.0
O432 O 0.48017 0.97965 0.56647 0.0
O433 O 0.48931 0.98631 0.49372 0.0
C434 C 0.53209 0.55298 0.47825 0.0
C435 C 0.55314 0.51806 0.51865 0.0
C436 C 0.48465 0.46798 0.5434 0.0
Mg437 Mg 0.54216 0.54262 0.57329 0.0
O438 O 0.51742 0.52511 0.56525 0.0
Mg439 Mg 0.5094 0.50879 0.50568 0.0
Mg440 Mg 0.50727 0.50593 0.61141 0.0
O441 O 0.49712 0.48662 0.65687 0.0
Mg442 Mg 0.47255 0.46833 0.64797 0.0
Mg443 Mg 0.50528 0.50253 0.71676 0.0
C444 C 0.53142 0.54294 0.6796 0.0
C445 C 0.54079 0.50597 0.66938 0.0
O446 O 0.52037 0.53594 0.46778 0.0
O447 O 0.54181 0.55869 0.51721 0.0
O448 O 0.53711 0.51001 0.49865 0.0
O449 O 0.5578 0.53023 0.55248 0.0
O450 O 0.54259 0.5502 0.6475 0.0
O451 O 0.51613 0.52792 0.67169 0.0
C452 C 0.47393 0.5059 0.55263 0.0
O453 O 0.47993 0.50458 0.59327 0.0
O454 O 0.48263 0.50773 0.51587 0.0
O455 O 0.49454 0.4752 0.75346 0.0
O456 O 0.4737 0.45234 0.7034 0.0
O457 O 0.47745 0.50078 0.7235 0.0
C458 C 0.48334 0.45806 0.74247 0.0
O459 O 0.45651 0.48033 0.67015 0.0
O460 O 0.47304 0.46005 0.57423 0.0
C461 C 0.46129 0.49253 0.70413 0.0
O462 O 0.49873 0.48396 0.55214 0.0
O463 O 0.53462 0.50742 0.62914 0.0
O464 O 0.53217 0.50388 0.70639 0.0
H465 H 0.17449 0.50133 0.36243 0.0
H466 H 0.15817 0.50824 0.42187 0.0
H467 H 0.1083 0.47693 0.3355 0.0
H468 H 0.12437 0.4701 0.27651 0.0
H469 H 0.11445 0.51116 0.36742 0.0
H470 H 0.11644 0.45906 0.42835 0.0
H471 H 0.13193 0.44316 0.45902 0.0
H472 H 0.15838 0.48513 0.57136 0.0
H473 H 0.14322 0.50142 0.54092 0.0
H474 H 0.03682 0.48107 0.4777 0.0
H475 H 0.06268 0.48037 0.44692 0.0
H476 H 0.09767 0.51826 0.56092 0.0
H477 H 0.07135 0.51882 0.59269 0.0
H478 H 0.10556 0.48824 0.52683 0.0
H479 H 0.09901 0.53762 0.47103 0.0
H480 H 0.08203 0.55198 0.43989 0.0
H481 H 0.06381 0.51464 0.31705 0.0
H482 H 0.08039 0.49985 0.34777 0.0
C483 C 0.16005 0.49596 0.35627 0.0
C484 C 0.15069 0.48507 0.31492 0.0
C485 C 0.15074 0.49983 0.3903 0.0
C486 C 0.13201 0.49304 0.38317 0.0
C487 C 0.12275 0.4823 0.34179 0.0
C488 C 0.13194 0.4783 0.30822 0.0
C489 C 0.12176 0.49725 0.4177 0.0
C490 C 0.11261 0.50625 0.40236 0.0
C491 C 0.11978 0.49135 0.46387 0.0
C492 C 0.12892 0.48159 0.48198 0.0
C493 C 0.12571 0.465 0.4593 0.0
C494 C 0.13439 0.45589 0.4767 0.0
C495 C 0.14619 0.46317 0.517 0.0
C496 C 0.14928 0.47954 0.54007 0.0
C497 C 0.14065 0.48871 0.52276 0.0
C498 C 0.04994 0.48895 0.49691 0.0
C499 C 0.05218 0.50021 0.53714 0.0
C500 C 0.0647 0.48853 0.47927 0.0
C501 C 0.08213 0.49955 0.50105 0.0
C502 C 0.0843 0.50974 0.54349 0.0
C503 C 0.06932 0.51003 0.56161 0.0
C504 C 0.09783 0.50156 0.4757 0.0
C505 C 0.10791 0.49372 0.49253 0.0
C506 C 0.10075 0.50855 0.43072 0.0
C507 C 0.09092 0.51759 0.41182 0.0
C508 C 0.09129 0.5324 0.43751 0.0
C509 C 0.08174 0.54062 0.41993 0.0
C510 C 0.07185 0.53422 0.37653 0.0
C511 C 0.07149 0.51959 0.35064 0.0
C512 C 0.08099 0.5113 0.36809 0.0
H513 H 0.06448 0.54059 0.36289 0.0
H514 H 0.15289 0.45609 0.53045 0.0
H515 H 0.66497 0.14903 0.28587 0.0
H516 H 0.64588 0.13665 0.35153 0.0
H517 H 0.68203 0.1192 0.408 0.0
H518 H 0.70119 0.13155 0.34237 0.0
H519 H 0.64818 0.09188 0.40257 0.0
H520 H 0.67852 0.15445 0.46337 0.0
H521 H 0.69013 0.18772 0.46191 0.0
H522 H 0.6358 0.17764 0.43798 0.0
H523 H 0.62387 0.14428 0.43862 0.0
H524 H 0.59517 0.05325 0.58908 0.0
H525 H 0.62224 0.07753 0.55692 0.0
H526 H 0.58919 0.09364 0.47706 0.0
H527 H 0.56206 0.06949 0.50903 0.0
H528 H 0.62436 0.12335 0.5033 0.0
H529 H 0.59496 0.06148 0.4298 0.0
H530 H 0.58271 0.02802 0.42898 0.0
H531 H 0.6353 0.03708 0.47453 0.0
H532 H 0.64778 0.07062 0.47643 0.0
C533 C 0.66909 0.14292 0.3128 0.0
C534 C 0.68456 0.14119 0.30874 0.0
C535 C 0.65816 0.13586 0.3504 0.0
C536 C 0.66257 0.12708 0.38496 0.0
C537 C 0.67833 0.12587 0.38175 0.0
C538 C 0.68923 0.13288 0.34412 0.0
C539 C 0.64992 0.11776 0.42196 0.0
C540 C 0.64334 0.09892 0.42533 0.0
C541 C 0.64321 0.12677 0.45092 0.0
C542 C 0.65031 0.14684 0.4507 0.0
C543 C 0.66905 0.15931 0.45744 0.0
C544 C 0.67569 0.17819 0.45682 0.0
C545 C 0.66371 0.18479 0.44977 0.0
C546 C 0.64506 0.17251 0.44342 0.0
C547 C 0.63835 0.15361 0.44397 0.0
C548 C 0.59368 0.06236 0.56602 0.0
C549 C 0.57638 0.05907 0.55054 0.0
C550 C 0.6092 0.07623 0.5476 0.0
C551 C 0.60764 0.08704 0.51369 0.0
C552 C 0.59067 0.08534 0.50287 0.0
C553 C 0.57514 0.07144 0.52109 0.0
C554 C 0.62278 0.09762 0.48367 0.0
C555 C 0.62962 0.11654 0.48124 0.0
C556 C 0.62972 0.0887 0.45524 0.0
C557 C 0.62225 0.06854 0.45383 0.0
C558 C 0.60387 0.05633 0.44004 0.0
C559 C 0.59689 0.03736 0.43933 0.0
C560 C 0.60821 0.03043 0.4518 0.0
C561 C 0.62654 0.04247 0.46497 0.0
C562 C 0.63357 0.06146 0.4659 0.0
H563 H 0.60281 0.01575 0.45112 0.0
H564 H 0.66888 0.19941 0.4493 0.0
H565 H 0.58469 0.69679 0.2648 0.0
H566 H 0.57671 0.67028 0.30924 0.0
H567 H 0.51993 0.65001 0.2742 0.0
H568 H 0.52771 0.67749 0.23255 0.0
H569 H 0.52395 0.64119 0.35868 0.0
H570 H 0.54369 0.63434 0.21084 0.0
H571 H 0.56345 0.64295 0.14479 0.0
H572 H 0.60655 0.64578 0.23403 0.0
H573 H 0.58715 0.63746 0.30086 0.0
H574 H 0.50637 0.55082 0.41407 0.0
H575 H 0.50871 0.57513 0.36529 0.0
H576 H 0.56409 0.61035 0.41972 0.0
H577 H 0.56178 0.58637 0.46912 0.0
H578 H 0.55673 0.60824 0.31704 0.0
H579 H 0.53514 0.61734 0.46668 0.0
H580 H 0.51324 0.6067 0.528 0.0
H581 H 0.4703 0.59638 0.42613 0.0
H582 H 0.49195 0.60673 0.36407 0.0
C583 C 0.57045 0.68715 0.2677 0.0
C584 C 0.55687 0.68933 0.24435 0.0
C585 C 0.56592 0.67173 0.29255 0.0
C586 C 0.54777 0.65782 0.29358 0.0
C587 C 0.53407 0.66043 0.27316 0.0
C588 C 0.53857 0.6761 0.24897 0.0
C589 C 0.54336 0.6403 0.31412 0.0
C590 C 0.5309 0.63384 0.34898 0.0
C591 C 0.55227 0.63053 0.30116 0.0
C592 C 0.56399 0.6354 0.26097 0.0
C593 C 0.55742 0.63691 0.21647 0.0
C594 C 0.56856 0.64173 0.17888 0.0
C595 C 0.58626 0.64494 0.18523 0.0
C596 C 0.59284 0.6433 0.22917 0.0
C597 C 0.58177 0.63851 0.26692 0.0
C598 C 0.5191 0.56367 0.41516 0.0
C599 C 0.53389 0.56675 0.44543 0.0
C600 C 0.52038 0.57752 0.3875 0.0
C601 C 0.53654 0.59448 0.38924 0.0
C602 C 0.55151 0.59732 0.41804 0.0
C603 C 0.55015 0.58365 0.44627 0.0
C604 C 0.53786 0.60964 0.36239 0.0
C605 C 0.54967 0.61555 0.32617 0.0
C606 C 0.52802 0.61857 0.37326 0.0
C607 C 0.51511 0.61261 0.41069 0.0
C608 C 0.52101 0.61266 0.45731 0.0
C609 C 0.50865 0.60671 0.4922 0.0
C610 C 0.49038 0.60081 0.48094 0.0
C611 C 0.48445 0.60092 0.43479 0.0
C612 C 0.49676 0.60684 0.39976 0.0
H613 H 0.48083 0.5962 0.508 0.0
H614 H 0.59486 0.64868 0.15608 0.0
H615 H 0.84194 0.52488 0.27719 0.0
H616 H 0.85527 0.5192 0.34801 0.0
H617 H 0.89143 0.51048 0.2634 0.0
H618 H 0.87854 0.51665 0.19306 0.0
H619 H 0.87292 0.48368 0.33706 0.0
H620 H 0.90788 0.5498 0.3114 0.0
H621 H 0.91017 0.57993 0.30349 0.0
H622 H 0.88917 0.57734 0.43876 0.0
H623 H 0.88651 0.54704 0.44711 0.0
H624 H 0.95308 0.49808 0.44076 0.0
H625 H 0.92693 0.49574 0.39859 0.0
H626 H 0.91886 0.52454 0.51518 0.0
H627 H 0.94615 0.52793 0.55724 0.0
H628 H 0.91543 0.53821 0.44189 0.0
H629 H 0.8876 0.47643 0.47794 0.0
H630 H 0.8847 0.44624 0.4891 0.0
H631 H 0.88927 0.43891 0.34182 0.0
H632 H 0.89245 0.46917 0.32979 0.0
C633 C 0.85257 0.52151 0.27386 0.0
C634 C 0.85928 0.5212 0.22992 0.0
C635 C 0.86016 0.5183 0.31417 0.0
C636 C 0.87429 0.51439 0.31079 0.0
C637 C 0.88047 0.51338 0.26663 0.0
C638 C 0.87318 0.51696 0.2266 0.0
C639 C 0.88364 0.51256 0.35319 0.0
C640 C 0.88219 0.49552 0.36025 0.0
C641 C 0.89504 0.52785 0.3846 0.0
C642 C 0.89676 0.54607 0.37958 0.0
C643 C 0.90358 0.55558 0.33923 0.0
C644 C 0.90499 0.5727 0.33471 0.0
C645 C 0.89976 0.58051 0.37053 0.0
C646 C 0.89317 0.57125 0.411 0.0
C647 C 0.89172 0.55411 0.41564 0.0
C648 C 0.94564 0.50366 0.45816 0.0
C649 C 0.95183 0.51327 0.50248 0.0
C650 C 0.93042 0.50211 0.43396 0.0
C651 C 0.92047 0.50952 0.45389 0.0
C652 C 0.92617 0.51854 0.49907 0.0
C653 C 0.94175 0.52044 0.52315 0.0
C654 C 0.90547 0.50938 0.42491 0.0
C655 C 0.90578 0.52609 0.42012 0.0
C656 C 0.89269 0.49362 0.3963 0.0
C657 C 0.89027 0.47513 0.403 0.0
C658 C 0.88802 0.46841 0.44792 0.0
C659 C 0.88634 0.45128 0.4544 0.0
C660 C 0.8868 0.44067 0.41619 0.0
C661 C 0.88888 0.44713 0.37137 0.0
C662 C 0.89056 0.46426 0.36468 0.0
H663 H 0.88555 0.42743 0.42131 0.0
H664 H 0.90086 0.59377 0.36698 0.0
H665 H 0.32934 0.89639 0.26307 0.0
H666 H 0.35091 0.91215 0.33004 0.0
H667 H 0.3706 0.87407 0.31531 0.0
H668 H 0.34784 0.85707 0.25094 0.0
H669 H 0.37307 0.88379 0.40392 0.0
H670 H 0.39074 0.91655 0.2639 0.0
H671 H 0.38715 0.9317 0.19564 0.0
H672 H 0.3815 0.96997 0.28734 0.0
H673 H 0.38482 0.95488 0.35614 0.0
H674 H 0.46949 0.94936 0.45541 0.0
H675 H 0.43971 0.9282 0.4151 0.0
H676 H 0.41535 0.9526 0.49948 0.0
H677 H 0.44501 0.97338 0.54083 0.0
H678 H 0.41346 0.95021 0.3846 0.0
H679 H 0.40101 0.91814 0.52654 0.0
H680 H 0.40982 0.9044 0.58929 0.0
H681 H 0.40907 0.86475 0.48858 0.0
H682 H 0.40106 0.87879 0.42477 0.0
C683 C 0.3378 0.89091 0.27473 0.0
C684 C 0.33692 0.87552 0.25067 0.0
C685 C 0.35035 0.90015 0.31287 0.0
C686 C 0.36277 0.89465 0.32694 0.0
C687 C 0.36131 0.87872 0.30486 0.0
C688 C 0.34844 0.86918 0.26738 0.0
C689 C 0.37822 0.90633 0.36165 0.0
C690 C 0.38187 0.8983 0.39966 0.0
C691 C 0.38975 0.92534 0.35638 0.0
C692 C 0.38781 0.93446 0.31509 0.0
C693 C 0.3886 0.92812 0.26946 0.0
C694 C 0.38663 0.9367 0.23069 0.0
C695 C 0.38404 0.95175 0.23714 0.0
C696 C 0.38346 0.95828 0.28239 0.0
C697 C 0.38539 0.94973 0.32128 0.0
C698 C 0.45766 0.94985 0.46599 0.0
C699 C 0.45933 0.96266 0.50159 0.0
C700 C 0.44075 0.93783 0.44308 0.0
C701 C 0.42543 0.93882 0.45477 0.0
C702 C 0.42704 0.95153 0.49058 0.0
C703 C 0.44388 0.96323 0.51433 0.0
C704 C 0.40816 0.92766 0.42644 0.0
C705 C 0.40434 0.93578 0.38936 0.0
C706 C 0.39678 0.90876 0.43213 0.0
C707 C 0.40069 0.89971 0.4707 0.0
C708 C 0.40298 0.90667 0.5176 0.0
C709 C 0.4079 0.89886 0.55338 0.0
C710 C 0.4101 0.88377 0.54292 0.0
C711 C 0.4074 0.87647 0.49662 0.0
C712 C 0.40274 0.88439 0.46059 0.0
H713 H 0.41378 0.87767 0.57074 0.0
H714 H 0.38252 0.95838 0.20709 0.0
H715 H 0.5159 0.36752 0.26722 0.0
H716 H 0.51359 0.39103 0.31411 0.0
H717 H 0.45615 0.35428 0.32081 0.0
H718 H 0.45838 0.33046 0.27438 0.0
H719 H 0.46383 0.38895 0.30124 0.0
H720 H 0.48333 0.36129 0.41294 0.0
H721 H 0.50199 0.34943 0.44785 0.0
H722 H 0.54871 0.40355 0.45688 0.0
H723 H 0.53038 0.41572 0.421 0.0
H724 H 0.45464 0.43691 0.50462 0.0
H725 H 0.45404 0.41536 0.44358 0.0
H726 H 0.5104 0.45257 0.42331 0.0
H727 H 0.51113 0.47421 0.48401 0.0
H728 H 0.50228 0.41734 0.44907 0.0
H729 H 0.48073 0.44443 0.33727 0.0
H730 H 0.46031 0.45495 0.30653 0.0
H731 H 0.41508 0.40001 0.30425 0.0
H732 H 0.4352 0.3892 0.33565 0.0
C733 C 0.50281 0.36429 0.27928 0.0
C734 C 0.48735 0.34703 0.26743 0.0
C735 C 0.5015 0.3778 0.30579 0.0
C736 C 0.48472 0.37435 0.32113 0.0
C737 C 0.46921 0.35722 0.30913 0.0
C738 C 0.47052 0.34364 0.28265 0.0
C739 C 0.48355 0.38865 0.35011 0.0
C740 C 0.47207 0.39503 0.33386 0.0
C741 C 0.49443 0.39664 0.39241 0.0
C742 C 0.50554 0.38938 0.41363 0.0
C743 C 0.49764 0.37064 0.42178 0.0
C744 C 0.50814 0.36387 0.44183 0.0
C745 C 0.52654 0.37573 0.45433 0.0
C746 C 0.53447 0.39439 0.44692 0.0
C747 C 0.52404 0.40123 0.42672 0.0
C748 C 0.46678 0.44074 0.48626 0.0
C749 C 0.48299 0.4572 0.49948 0.0
C750 C 0.46638 0.42843 0.45132 0.0
C751 C 0.48221 0.43236 0.42927 0.0
C752 C 0.49806 0.44932 0.44006 0.0
C753 C 0.49841 0.46172 0.47459 0.0
C754 C 0.48286 0.41789 0.39978 0.0
C755 C 0.49415 0.41136 0.41625 0.0
C756 C 0.47156 0.40957 0.35828 0.0
C757 C 0.45946 0.41604 0.33926 0.0
C758 C 0.46641 0.43462 0.33063 0.0
C759 C 0.45489 0.44063 0.31299 0.0
C760 C 0.4364 0.42816 0.30356 0.0
C761 C 0.4294 0.40965 0.31163 0.0
C762 C 0.44086 0.40357 0.3293 0.0
H763 H 0.42751 0.43284 0.2899 0.0
H764 H 0.53465 0.37047 0.46994 0.0
H765 H 0.52229 0.86034 0.94229 0.0
H766 H 0.50893 0.8766 0.90336 0.0
H767 H 0.54461 0.88739 0.79127 0.0
H768 H 0.55806 0.8712 0.83016 0.0
H769 H 0.52978 0.91369 0.88767 0.0
H770 H 0.52266 0.88954 0.69092 0.0
H771 H 0.51401 0.86105 0.6427 0.0
H772 H 0.4819 0.82889 0.75124 0.0
H773 H 0.49013 0.85717 0.79984 0.0
H774 H 0.54828 0.97805 0.71722 0.0
H775 H 0.5457 0.95452 0.76865 0.0
H776 H 0.48749 0.92578 0.74382 0.0
H777 H 0.48993 0.94954 0.6929 0.0
H778 H 0.50491 0.90462 0.72288 0.0
H779 H 0.50169 0.94184 0.84771 0.0
H780 H 0.51078 0.97056 0.89533 0.0
H781 H 0.56276 0.9762 0.93123 0.0
H782 H 0.5541 0.94768 0.8832 0.0
C783 C 0.52687 0.86568 0.9086 0.0
C784 C 0.54118 0.86452 0.88911 0.0
C785 C 0.51933 0.87507 0.88664 0.0
C786 C 0.52578 0.88315 0.8445 0.0
C787 C 0.53933 0.88108 0.82358 0.0
C788 C 0.54704 0.8719 0.84581 0.0
C789 C 0.51992 0.89549 0.82494 0.0
C790 C 0.52411 0.91161 0.85184 0.0
C791 C 0.51234 0.89261 0.77844 0.0
C792 C 0.50711 0.87551 0.74915 0.0
C793 C 0.51367 0.8764 0.70441 0.0
C794 C 0.50885 0.86028 0.67702 0.0
C795 C 0.49744 0.84317 0.69394 0.0
C796 C 0.49078 0.84215 0.73824 0.0
C797 C 0.49554 0.85822 0.76575 0.0
C798 C 0.53491 0.96694 0.72355 0.0
C799 C 0.51931 0.96556 0.70098 0.0
C800 C 0.53345 0.95355 0.75298 0.0
C801 C 0.51641 0.93845 0.75984 0.0
C802 C 0.50074 0.93739 0.73892 0.0
C803 C 0.50216 0.951 0.71012 0.0
C804 C 0.51539 0.92305 0.78508 0.0
C805 C 0.5101 0.90645 0.75912 0.0
C806 C 0.522 0.9255 0.83241 0.0
C807 C 0.52726 0.94264 0.86161 0.0
C808 C 0.51511 0.94927 0.86546 0.0
C809 C 0.52018 0.96551 0.89258 0.0
C810 C 0.53734 0.97521 0.91624 0.0
C811 C 0.54947 0.96867 0.91289 0.0
C812 C 0.54447 0.95245 0.88577 0.0
H813 H 0.54124 0.98778 0.93721 0.0
H814 H 0.49374 0.83071 0.6727 0.0
H815 H 0.66973 0.51007 0.90708 0.0
H816 H 0.64778 0.50536 0.84319 0.0
H817 H 0.65901 0.561 0.86961 0.0
H818 H 0.67991 0.56538 0.93574 0.0
H819 H 0.625 0.54037 0.85906 0.0
H820 H 0.67325 0.54594 0.77004 0.0
H821 H 0.69714 0.53975 0.745 0.0
H822 H 0.65707 0.4836 0.70571 0.0
H823 H 0.63295 0.48938 0.73113 0.0
H824 H 0.5727 0.53668 0.65828 0.0
H825 H 0.60236 0.54358 0.6934 0.0
H826 H 0.57917 0.4876 0.73108 0.0
H827 H 0.5494 0.4809 0.69778 0.0
H828 H 0.62112 0.51088 0.70175 0.0
H829 H 0.57481 0.50622 0.80983 0.0
H830 H 0.55115 0.51382 0.82791 0.0
H831 H 0.58989 0.5713 0.82564 0.0
H832 H 0.61367 0.56397 0.80635 0.0
C833 C 0.66748 0.5213 0.8996 0.0
C834 C 0.67665 0.53811 0.92693 0.0
C835 C 0.6551 0.51867 0.8624 0.0
C836 C 0.65187 0.5329 0.85096 0.0
C837 C 0.66128 0.54981 0.87753 0.0
C838 C 0.67344 0.55236 0.91514 0.0
C839 C 0.63782 0.5298 0.81348 0.0
C840 C 0.62447 0.53423 0.82451 0.0
C841 C 0.63685 0.52164 0.76822 0.0
C842 C 0.6513 0.51807 0.75288 0.0
C843 C 0.66954 0.53224 0.7564 0.0
C844 C 0.68312 0.5288 0.74208 0.0
C845 C 0.67863 0.51128 0.72387 0.0
C846 C 0.66053 0.49716 0.71986 0.0
C847 C 0.6469 0.50052 0.73417 0.0
C848 C 0.57419 0.52569 0.67215 0.0
C849 C 0.55895 0.50827 0.6753 0.0
C850 C 0.59107 0.52963 0.69217 0.0
C851 C 0.59288 0.51607 0.71467 0.0
C852 C 0.57805 0.49815 0.71336 0.0
C853 C 0.56108 0.49434 0.69447 0.0
C854 C 0.60863 0.52136 0.74801 0.0
C855 C 0.62206 0.51727 0.73625 0.0
C856 C 0.60993 0.53008 0.79239 0.0
C857 C 0.59593 0.53455 0.80624 0.0
C858 C 0.57824 0.52047 0.81294 0.0
C859 C 0.56481 0.52472 0.82334 0.0
C860 C 0.569 0.54302 0.8277 0.0
C861 C 0.58665 0.55712 0.82204 0.0
C862 C 0.60011 0.55293 0.81136 0.0
H863 H 0.55855 0.54626 0.83545 0.0
H864 H 0.68917 0.50865 0.7128 0.0
H865 H 0.10736 0.66305 0.02141 0.0
H866 H 0.08743 0.63556 0.97078 0.0
H867 H 0.12835 0.65217 0.8704 0.0
H868 H 0.14812 0.68015 0.92008 0.0
H869 H 0.09669 0.64096 0.82715 0.0
H870 H 0.11983 0.61707 0.94108 0.0
H871 H 0.12773 0.61151 0.02019 0.0
H872 H 0.07151 0.58372 0.04935 0.0
H873 H 0.06328 0.58929 0.97054 0.0
H874 H 0.04832 0.53989 0.73743 0.0
H875 H 0.06832 0.5628 0.7998 0.0
H876 H 0.03754 0.59057 0.78753 0.0
H877 H 0.01782 0.56805 0.72475 0.0
H878 H 0.0668 0.57844 0.88531 0.0
H879 H 0.06663 0.63549 0.77928 0.0
H880 H 0.06077 0.64025 0.69736 0.0
H881 H 0.07585 0.60118 0.64809 0.0
H882 H 0.08211 0.59644 0.72965 0.0
C883 C 0.11205 0.66099 0.98828 0.0
C884 C 0.1293 0.67386 0.97464 0.0
C885 C 0.10074 0.64512 0.9597 0.0
C886 C 0.1065 0.64167 0.91713 0.0
C887 C 0.12367 0.65451 0.90326 0.0
C888 C 0.13498 0.67044 0.93177 0.0
C889 C 0.09429 0.62502 0.88623 0.0
C890 C 0.09022 0.62731 0.83992 0.0
C891 C 0.0861 0.60714 0.90256 0.0
C892 C 0.09096 0.60372 0.94999 0.0
C893 C 0.10916 0.60988 0.96447 0.0
C894 C 0.11369 0.6067 0.00922 0.0
C895 C 0.10013 0.59727 0.03977 0.0
C896 C 0.082 0.591 0.02561 0.0
C897 C 0.07739 0.59414 0.98087 0.0
C898 C 0.04551 0.55058 0.74898 0.0
C899 C 0.03175 0.55242 0.72565 0.0
C900 C 0.05695 0.56365 0.78459 0.0
C901 C 0.05465 0.5786 0.79736 0.0
C902 C 0.03975 0.57933 0.77744 0.0
C903 C 0.02849 0.56645 0.74161 0.0
C904 C 0.06887 0.59455 0.82696 0.0
C905 C 0.07334 0.59212 0.87277 0.0
C906 C 0.07783 0.6123 0.80987 0.0
C907 C 0.07466 0.61549 0.76061 0.0
C908 C 0.0688 0.62801 0.75096 0.0
C909 C 0.0654 0.63069 0.70459 0.0
C910 C 0.06786 0.62097 0.66756 0.0
C911 C 0.07387 0.60865 0.67681 0.0
C912 C 0.07735 0.60596 0.7231 0.0
H913 H 0.06516 0.62302 0.6317 0.0
H914 H 0.10367 0.5948 0.07439 0.0
H915 H 0.46401 0.10547 0.10286 0.0
H916 H 0.46454 0.08129 0.0539 0.0
H917 H 0.43425 0.08916 0.94191 0.0
H918 H 0.43347 0.11327 0.99118 0.0
H919 H 0.42297 0.05296 0.94902 0.0
H920 H 0.48032 0.1094 0.94372 0.0
H921 H 0.5084 0.13631 0.97875 0.0
H922 H 0.52442 0.1007 0.0416 0.0
H923 H 0.4963 0.07358 0.00741 0.0
H924 H 0.44757 0.02417 0.74463 0.0
H925 H 0.44163 0.03965 0.80923 0.0
H926 H 0.4742 0.02769 0.90464 0.0
H927 H 0.48056 0.01234 0.83964 0.0
H928 H 0.48371 0.06303 0.91417 0.0
H929 H 0.42811 0.00642 0.91062 0.0
H930 H 0.40012 0.97958 0.87508 0.0
H931 H 0.38071 0.01494 0.82881 0.0
H932 H 0.4087 0.04204 0.86348 0.0
C933 C 0.45743 0.10201 0.06781 0.0
C934 C 0.44893 0.11141 0.05044 0.0
C935 C 0.4577 0.08817 0.03996 0.0
C936 C 0.44971 0.08366 0.99401 0.0
C937 C 0.44053 0.09247 0.97728 0.0
C938 C 0.44011 0.10624 0.00534 0.0
C939 C 0.45181 0.07053 0.96249 0.0
C940 C 0.43623 0.05519 0.94108 0.0
C941 C 0.46912 0.07318 0.95336 0.0
C942 C 0.48613 0.08948 0.97342 0.0
C943 C 0.48978 0.10732 0.96526 0.0
C944 C 0.50571 0.12261 0.98492 0.0
C945 C 0.51817 0.12022 0.01248 0.0
C946 C 0.51475 0.10253 0.0203 0.0
C947 C 0.49883 0.0872 0.00077 0.0
C948 C 0.45335 0.02461 0.77937 0.0
C949 C 0.46464 0.01707 0.78683 0.0
C950 C 0.44981 0.03337 0.81641 0.0
C951 C 0.4573 0.03466 0.86187 0.0
C952 C 0.46822 0.02678 0.86981 0.0
C953 C 0.47181 0.01799 0.83264 0.0
C954 C 0.45486 0.04556 0.89993 0.0
C955 C 0.47041 0.06056 0.92258 0.0
C956 C 0.43751 0.04257 0.91014 0.0
C957 C 0.42058 0.02629 0.88943 0.0
C958 C 0.41793 0.0085 0.89258 0.0
C959 C 0.40205 0.99323 0.87263 0.0
C960 C 0.38866 0.99556 0.84963 0.0
C961 C 0.3911 0.01316 0.84663 0.0
C962 C 0.40696 0.02848 0.8665 0.0
H963 H 0.37638 0.98372 0.8342 0.0
H964 H 0.53049 0.13207 0.02769 0.0
H965 H 0.36107 0.47906 0.02082 0.0
H966 H 0.38248 0.48578 0.95961 0.0
H967 H 0.34297 0.48379 0.85725 0.0
H968 H 0.32163 0.4776 0.91897 0.0
H969 H 0.36223 0.46045 0.8395 0.0
H970 H 0.37211 0.52156 0.87362 0.0
H971 H 0.37804 0.54811 0.92661 0.0
H972 H 0.42826 0.55307 0.97919 0.0
H973 H 0.42248 0.52636 0.92701 0.0
H974 H 0.42665 0.4819 0.66898 0.0
H975 H 0.40243 0.48199 0.71202 0.0
H976 H 0.43969 0.50817 0.83376 0.0
H977 H 0.464 0.50891 0.79065 0.0
H978 H 0.41851 0.52062 0.83336 0.0
H979 H 0.40859 0.45905 0.81201 0.0
H980 H 0.4036 0.43121 0.76644 0.0
H981 H 0.35488 0.42516 0.69889 0.0
H982 H 0.35966 0.45306 0.74384 0.0
C983 C 0.35702 0.48019 0.9853 0.0
C984 C 0.33975 0.47784 0.97446 0.0
C985 C 0.36923 0.48404 0.95047 0.0
C986 C 0.36428 0.48528 0.90402 0.0
C987 C 0.34702 0.48291 0.89297 0.0
C988 C 0.33491 0.47946 0.92812 0.0
C989 C 0.37715 0.48858 0.86723 0.0
C990 C 0.37437 0.47369 0.83726 0.0
C991 C 0.39319 0.5057 0.86558 0.0
C992 C 0.39677 0.52186 0.89669 0.0
C993 C 0.38433 0.52821 0.89678 0.0
C994 C 0.38769 0.54331 0.92661 0.0
C995 C 0.4035 0.55225 0.95633 0.0
C996 C 0.41601 0.54613 0.95618 0.0
C997 C 0.41271 0.53102 0.92644 0.0
C998 C 0.42975 0.48801 0.70462 0.0
C999 C 0.44726 0.49523 0.72645 0.0
C1000 C 0.41584 0.48794 0.72933 0.0
C1001 C 0.41901 0.49465 0.77665 0.0
C1002 C 0.43675 0.50282 0.79744 0.0
C1003 C 0.45071 0.50322 0.7726 0.0
C1004 C 0.40389 0.49234 0.80568 0.0
C1005 C 0.40625 0.50741 0.83459 0.0
C1006 C 0.38765 0.4752 0.80721 0.0
C1007 C 0.38463 0.45829 0.78072 0.0
C1008 C 0.39687 0.45184 0.78723 0.0
C1009 C 0.39407 0.43604 0.76157 0.0
C1010 C 0.37897 0.42646 0.72965 0.0
C1011 C 0.36659 0.43261 0.72356 0.0
C1012 C 0.36932 0.4484 0.74916 0.0
H1013 H 0.37684 0.41425 0.70976 0.0
H1014 H 0.40607 0.56393 0.9794 0.0
H1015 H 0.86805 0.311 0.911 0.0
H1016 H 0.89046 0.33635 0.86884 0.0
H1017 H 0.89248 0.37528 0.97519 0.0
H1018 H 0.87021 0.35006 0.0177 0.0
H1019 H 0.89439 0.38752 0.8868 0.0
H1020 H 0.92362 0.36272 0.98132 0.0
H1021 H 0.92829 0.33814 0.01046 0.0
H1022 H 0.93864 0.32573 0.87185 0.0
H1023 H 0.93374 0.35006 0.84172 0.0
H1024 H 0.97814 0.46204 0.82673 0.0
H1025 H 0.95556 0.43849 0.87282 0.0
H1026 H 0.95221 0.39618 0.7756 0.0
H1027 H 0.97494 0.41947 0.72998 0.0
H1028 H 0.95132 0.38661 0.86331 0.0
H1029 H 0.92134 0.41103 0.7684 0.0
H1030 H 0.91653 0.43555 0.73942 0.0
H1031 H 0.90768 0.44885 0.87886 0.0
H1032 H 0.91273 0.42458 0.90881 0.0
C1033 C 0.87311 0.32497 0.92511 0.0
C1034 C 0.86745 0.3285 0.96788 0.0
C1035 C 0.8859 0.33943 0.90101 0.0
C1036 C 0.89335 0.35767 0.91937 0.0
C1037 C 0.88691 0.3613 0.96047 0.0
C1038 C 0.87411 0.34685 0.9846 0.0
C1039 C 0.90872 0.37281 0.89749 0.0
C1040 C 0.90693 0.38746 0.88212 0.0
C1041 C 0.925 0.37261 0.89109 0.0
C1042 C 0.92815 0.3581 0.90919 0.0
C1043 C 0.92676 0.35466 0.95699 0.0
C1044 C 0.92947 0.34079 0.97369 0.0
C1045 C 0.93372 0.33035 0.943 0.0
C1046 C 0.93532 0.33381 0.89556 0.0
C1047 C 0.93259 0.34765 0.87866 0.0
C1048 C 0.97282 0.44772 0.81554 0.0
C1049 C 0.97828 0.44268 0.77437 0.0
C1050 C 0.95981 0.43428 0.84176 0.0
C1051 C 0.95194 0.41559 0.82711 0.0
C1052 C 0.95802 0.41052 0.78742 0.0
C1053 C 0.97103 0.4239 0.76132 0.0
C1054 C 0.93693 0.40124 0.8519 0.0
C1055 C 0.93881 0.38673 0.86802 0.0
C1056 C 0.92075 0.4016 0.85896 0.0
C1057 C 0.91759 0.41611 0.84092 0.0
C1058 C 0.9185 0.41927 0.79294 0.0
C1059 C 0.91572 0.43312 0.77633 0.0
C1060 C 0.91184 0.44377 0.8073 0.0
C1061 C 0.91071 0.4406 0.85493 0.0
C1062 C 0.91353 0.42679 0.87174 0.0
H1063 H 0.90962 0.45444 0.79436 0.0
H1064 H 0.93581 0.31962 0.956 0.0
H1065 H 0.86114 0.50237 0.93625 0.0
H1066 H 0.87865 0.49757 0.878 0.0
H1067 H 0.88167 0.54221 0.80284 0.0
H1068 H 0.86321 0.54657 0.85995 0.0
H1069 H 0.87929 0.51435 0.7418 0.0
H1070 H 0.91597 0.55082 0.87735 0.0
H1071 H 0.92462 0.55901 0.96186 0.0
H1072 H 0.92832 0.51034 0.97464 0.0
H1073 H 0.91941 0.50171 0.8903 0.0
H1074 H 0.96286 0.52594 0.64312 0.0
H1075 H 0.93861 0.53002 0.67538 0.0
H1076 H 0.9267 0.48638 0.76647 0.0
H1077 H 0.95072 0.48243 0.73498 0.0
H1078 H 0.93493 0.51818 0.81457 0.0
H1079 H 0.89719 0.48179 0.67593 0.0
H1080 H 0.89004 0.47551 0.59044 0.0
H1081 H 0.89055 0.52653 0.5818 0.0
H1082 H 0.89797 0.53325 0.66718 0.0
C1083 C 0.86498 0.51086 0.90671 0.0
C1084 C 0.86082 0.525 0.90332 0.0
C1085 C 0.87519 0.50819 0.87352 0.0
C1086 C 0.88179 0.51976 0.83649 0.0
C1087 C 0.87683 0.53319 0.83126 0.0
C1088 C 0.86644 0.53579 0.86434 0.0
C1089 C 0.89522 0.5188 0.80648 0.0
C1090 C 0.89157 0.51539 0.75756 0.0
C1091 C 0.91135 0.52033 0.82687 0.0
C1092 C 0.91688 0.52555 0.87757 0.0
C1093 C 0.91851 0.5418 0.89824 0.0
C1094 C 0.92347 0.54653 0.94611 0.0
C1095 C 0.92699 0.53518 0.97362 0.0
C1096 C 0.92558 0.51911 0.95329 0.0
C1097 C 0.92059 0.5143 0.90545 0.0
C1098 C 0.95464 0.51688 0.66891 0.0
C1099 C 0.95874 0.50398 0.68686 0.0
C1100 C 0.94085 0.51925 0.68746 0.0
C1101 C 0.93095 0.5086 0.72372 0.0
C1102 C 0.93423 0.49484 0.73887 0.0
C1103 C 0.94797 0.49259 0.72077 0.0
C1104 C 0.91864 0.51283 0.75014 0.0
C1105 C 0.92267 0.51714 0.79861 0.0
C1106 C 0.90309 0.51233 0.72906 0.0
C1107 C 0.8983 0.50811 0.67791 0.0
C1108 C 0.8959 0.49174 0.65577 0.0
C1109 C 0.89177 0.48808 0.60734 0.0
C1110 C 0.88985 0.50062 0.58073 0.0
C1111 C 0.89203 0.51683 0.60249 0.0
C1112 C 0.89618 0.52056 0.65089 0.0
H1113 H 0.88665 0.49778 0.54327 0.0
H1114 H 0.93083 0.53887 0.01067 0.0
H1115 H 0.34707 0.85051 0.93243 0.0
H1116 H 0.36656 0.86116 0.86703 0.0
H1117 H 0.33656 0.88604 0.81351 0.0
H1118 H 0.31648 0.87476 0.87774 0.0
H1119 H 0.34677 0.87183 0.74206 0.0
H1120 H 0.37514 0.91138 0.88197 0.0
H1121 H 0.38649 0.91906 0.96512 0.0
H1122 H 0.42269 0.89837 0.94179 0.0
H1123 H 0.41135 0.89033 0.85858 0.0
H1124 H 0.41582 0.94975 0.63805 0.0
H1125 H 0.39025 0.92442 0.67194 0.0
H1126 H 0.42501 0.904 0.72009 0.0
H1127 H 0.45078 0.92966 0.68754 0.0
H1128 H 0.4119 0.91281 0.79098 0.0
H1129 H 0.38363 0.87442 0.64736 0.0
H1130 H 0.37134 0.86719 0.56478 0.0
H1131 H 0.33599 0.88838 0.59418 0.0
H1132 H 0.34768 0.89525 0.67718 0.0
C1133 C 0.34431 0.85786 0.90618 0.0
C1134 C 0.33031 0.86196 0.91073 0.0
C1135 C 0.35557 0.86406 0.86895 0.0
C1136 C 0.35321 0.87466 0.83577 0.0
C1137 C 0.33868 0.87795 0.83877 0.0
C1138 C 0.32735 0.87168 0.87587 0.0
C1139 C 0.36678 0.88363 0.8005 0.0
C1140 C 0.36102 0.88083 0.75266 0.0
C1141 C 0.3854 0.89523 0.81422 0.0
C1142 C 0.39224 0.90004 0.86422 0.0
C1143 C 0.38541 0.90833 0.89468 0.0
C1144 C 0.39186 0.91277 0.94179 0.0
C1145 C 0.40526 0.90915 0.95876 0.0
C1146 C 0.41228 0.90112 0.92862 0.0
C1147 C 0.40585 0.89662 0.88148 0.0
C1148 C 0.41789 0.93946 0.65416 0.0
C1149 C 0.43542 0.94196 0.66114 0.0
C1150 C 0.40317 0.92488 0.67346 0.0
C1151 C 0.4057 0.91238 0.69919 0.0
C1152 C 0.42275 0.91357 0.70086 0.0
C1153 C 0.43749 0.92825 0.68215 0.0
C1154 C 0.39205 0.90086 0.73209 0.0
C1155 C 0.39776 0.90343 0.77992 0.0
C1156 C 0.37344 0.88928 0.71827 0.0
C1157 C 0.36662 0.88547 0.66832 0.0
C1158 C 0.37329 0.8776 0.63614 0.0
C1159 C 0.36638 0.8735 0.58934 0.0
C1160 C 0.35304 0.87749 0.57417 0.0
C1161 C 0.34637 0.88535 0.60593 0.0
C1162 C 0.35302 0.88921 0.65292 0.0
H1163 H 0.34781 0.87442 0.53785 0.0
H1164 H 0.41025 0.91261 0.99524 0.0
H1165 H 0.51988 0.34702 0.95205 0.0
H1166 H 0.51752 0.36947 0.90496 0.0
H1167 H 0.46366 0.3509 0.94936 0.0
H1168 H 0.46611 0.32895 0.99755 0.0
H1169 H 0.49477 0.368 0.83342 0.0
H1170 H 0.45916 0.38827 0.97296 0.0
H1171 H 0.45705 0.38872 0.05874 0.0
H1172 H 0.50929 0.3931 0.07797 0.0
H1173 H 0.51183 0.39297 0.99241 0.0
H1174 H 0.46122 0.42074 0.73229 0.0
H1175 H 0.46297 0.39787 0.77826 0.0
H1176 H 0.50608 0.44101 0.86903 0.0
H1177 H 0.50435 0.46407 0.82355 0.0
H1178 H 0.48274 0.41308 0.91825 0.0
H1179 H 0.5163 0.42043 0.78291 0.0
H1180 H 0.52128 0.4218 0.69849 0.0
H1181 H 0.47866 0.36567 0.67341 0.0
H1182 H 0.47325 0.36405 0.75765 0.0
C1183 C 0.50749 0.34764 0.95147 0.0
C1184 C 0.49323 0.33627 0.97875 0.0
C1185 C 0.50613 0.36039 0.92437 0.0
C1186 C 0.49054 0.36202 0.92434 0.0
C1187 C 0.47591 0.35001 0.94945 0.0
C1188 C 0.47726 0.33731 0.97655 0.0
C1189 C 0.48988 0.3769 0.90019 0.0
C1190 C 0.4921 0.37783 0.8519 0.0
C1191 C 0.48683 0.38998 0.92463 0.0
C1192 C 0.48558 0.39042 0.97623 0.0
C1193 C 0.47023 0.38942 0.99551 0.0
C1194 C 0.46895 0.3896 0.0441 0.0
C1195 C 0.483 0.39088 0.07378 0.0
C1196 C 0.49839 0.39205 0.05495 0.0
C1197 C 0.49974 0.3919 0.0064 0.0
C1198 C 0.47094 0.42542 0.76235 0.0
C1199 C 0.48277 0.44428 0.77392 0.0
C1200 C 0.47196 0.4123 0.78846 0.0
C1201 C 0.48488 0.41776 0.82646 0.0
C1202 C 0.49607 0.43653 0.83964 0.0
C1203 C 0.49506 0.44969 0.81357 0.0
C1204 C 0.48716 0.4039 0.85126 0.0
C1205 C 0.48532 0.4032 0.89972 0.0
C1206 C 0.49097 0.3913 0.82716 0.0
C1207 C 0.49426 0.39217 0.77653 0.0
C1208 C 0.5079 0.40842 0.75934 0.0
C1209 C 0.51081 0.40923 0.71153 0.0
C1210 C 0.50027 0.39384 0.68058 0.0
C1211 C 0.48681 0.37759 0.69741 0.0
C1212 C 0.48383 0.37671 0.7452 0.0
H1213 H 0.50254 0.3945 0.64358 0.0
H1214 H 0.48198 0.39099 0.11137 0.0
H1215 H 0.12354 0.46195 0.00494 0.0
H1216 H 0.10946 0.46666 0.93505 0.0
H1217 H 0.16236 0.50501 0.89071 0.0
H1218 H 0.1765 0.50075 0.96182 0.0
H1219 H 0.14146 0.51809 0.87532 0.0
H1220 H 0.1359 0.46051 0.83575 0.0
H1221 H 0.12895 0.42877 0.84592 0.0
H1222 H 0.07274 0.41177 0.85701 0.0
H1223 H 0.07938 0.44346 0.84759 0.0
H1224 H 0.06486 0.47805 0.66371 0.0
H1225 H 0.09109 0.4791 0.70501 0.0
H1226 H 0.08928 0.51411 0.81674 0.0
H1227 H 0.06387 0.51381 0.77511 0.0
H1228 H 0.09104 0.46511 0.78122 0.0
H1229 H 0.12696 0.53797 0.88194 0.0
H1230 H 0.13599 0.56978 0.86518 0.0
H1231 H 0.136 0.55672 0.7185 0.0
H1232 H 0.12722 0.5249 0.73438 0.0
C1233 C 0.13217 0.47128 0.98009 0.0
C1234 C 0.15111 0.48089 0.98861 0.0
C1235 C 0.12412 0.47391 0.93999 0.0
C1236 C 0.13484 0.48589 0.90689 0.0
C1237 C 0.15379 0.49563 0.91553 0.0
C1238 C 0.16185 0.4932 0.95613 0.0
C1239 C 0.12606 0.4886 0.86434 0.0
C1240 C 0.13054 0.50652 0.85445 0.0
C1241 C 0.1123 0.47356 0.83573 0.0
C1242 C 0.10817 0.45441 0.84115 0.0
C1243 C 0.12207 0.45003 0.84062 0.0
C1244 C 0.11818 0.43204 0.84623 0.0
C1245 C 0.10042 0.41827 0.85216 0.0
C1246 C 0.0865 0.42245 0.8524 0.0
C1247 C 0.09031 0.44043 0.84684 0.0
C1248 C 0.07041 0.48641 0.69642 0.0
C1249 C 0.06209 0.49567 0.71629 0.0
C1250 C 0.08537 0.48694 0.72012 0.0
C1251 C 0.09227 0.4967 0.76411 0.0
C1252 C 0.08459 0.50679 0.78251 0.0
C1253 C 0.06986 0.50647 0.75866 0.0
C1254 C 0.10579 0.49459 0.79373 0.0
C1255 C 0.10221 0.47674 0.80129 0.0
C1256 C 0.12075 0.50974 0.81909 0.0
C1257 C 0.12635 0.52898 0.80939 0.0
C1258 C 0.12902 0.5419 0.84615 0.0
C1259 C 0.13406 0.55994 0.83678 0.0
C1260 C 0.13654 0.56526 0.7908 0.0
C1261 C 0.13403 0.55257 0.75409 0.0
C1262 C 0.129 0.53452 0.76325 0.0
H1263 H 0.14042 0.57922 0.78363 0.0
H1264 H 0.09744 0.40435 0.85651 0.0
H1265 H 0.64935 0.11924 0.01725 0.0
H1266 H 0.62704 0.10204 0.95206 0.0
H1267 H 0.66995 0.11671 0.85855 0.0
H1268 H 0.69255 0.13425 0.92401 0.0
H1269 H 0.63863 0.1185 0.82008 0.0
H1270 H 0.6531 0.07678 0.88987 0.0
H1271 H 0.65912 0.06157 0.95424 0.0
H1272 H 0.60486 0.04088 0.9961 0.0
H1273 H 0.5986 0.05623 0.93245 0.0
H1274 H 0.5668 0.04668 0.66131 0.0
H1275 H 0.59605 0.06716 0.70429 0.0
H1276 H 0.56935 0.0575 0.83376 0.0
H1277 H 0.54044 0.03675 0.79157 0.0
H1278 H 0.59765 0.0524 0.84155 0.0
H1279 H 0.58559 0.09879 0.77787 0.0
H1280 H 0.57967 0.1134 0.71172 0.0
H1281 H 0.62969 0.12407 0.65524 0.0
H1282 H 0.63583 0.1094 0.72095 0.0
C1283 C 0.65408 0.11909 0.98272 0.0
C1284 C 0.67271 0.12808 0.97577 0.0
C1285 C 0.64132 0.10918 0.94555 0.0
C1286 C 0.64689 0.10803 0.90065 0.0
C1287 C 0.66543 0.11746 0.89302 0.0
C1288 C 0.67828 0.12732 0.93044 0.0
C1289 C 0.63312 0.09606 0.8629 0.0
C1290 C 0.62985 0.10397 0.82417 0.0
C1291 C 0.62177 0.07711 0.8682 0.0
C1292 C 0.62543 0.06778 0.90653 0.0
C1293 C 0.64249 0.06912 0.91303 0.0
C1294 C 0.64594 0.06045 0.94936 0.0
C1295 C 0.63239 0.05029 0.97929 0.0
C1296 C 0.61535 0.04876 0.9729 0.0
C1297 C 0.61184 0.05743 0.93666 0.0
C1298 C 0.56717 0.04898 0.69879 0.0
C1299 C 0.5513 0.03975 0.72292 0.0
C1300 C 0.58389 0.06077 0.72336 0.0
C1301 C 0.5849 0.06375 0.77235 0.0
C1302 C 0.56894 0.05523 0.79605 0.0
C1303 C 0.55238 0.04337 0.77174 0.0
C1304 C 0.60246 0.075 0.80013 0.0
C1305 C 0.60656 0.06687 0.83691 0.0
C1306 C 0.61456 0.09364 0.79271 0.0
C1307 C 0.61109 0.10289 0.75405 0.0
C1308 C 0.59529 0.10421 0.75125 0.0
C1309 C 0.5919 0.11251 0.71387 0.0
C1310 C 0.60428 0.11962 0.67924 0.0
C1311 C 0.62011 0.11855 0.68207 0.0
C1312 C 0.62357 0.11028 0.71942 0.0
H1313 H 0.60161 0.12599 0.65026 0.0
H1314 H 0.63508 0.04358 0.00739 0.0
H1315 H 0.60266 0.68593 0.95917 0.0
H1316 H 0.59508 0.65729 0.9146 0.0
H1317 H 0.5382 0.63699 0.93023 0.0
H1318 H 0.54569 0.6653 0.97612 0.0
H1319 H 0.54691 0.61027 0.94246 0.0
H1320 H 0.55646 0.65474 0.82993 0.0
H1321 H 0.57341 0.6843 0.79399 0.0
H1322 H 0.61647 0.67322 0.7689 0.0
H1323 H 0.59987 0.64368 0.80529 0.0
H1324 H 0.50889 0.54442 0.7431 0.0
H1325 H 0.5179 0.56758 0.80876 0.0
H1326 H 0.57425 0.58757 0.78569 0.0
H1327 H 0.56534 0.56472 0.72 0.0
H1328 H 0.56655 0.61404 0.78038 0.0
H1329 H 0.55657 0.56891 0.88966 0.0
H1330 H 0.53929 0.53893 0.92346 0.0
H1331 H 0.4971 0.55081 0.95357 0.0
H1332 H 0.51401 0.58073 0.91914 0.0
C1333 C 0.58855 0.67531 0.95343 0.0
C1334 C 0.57476 0.67797 0.9707 0.0
C1335 C 0.58424 0.65899 0.92782 0.0
C1336 C 0.56606 0.64509 0.91879 0.0
C1337 C 0.5523 0.64755 0.93677 0.0
C1338 C 0.5566 0.66384 0.96241 0.0
C1339 C 0.56134 0.62832 0.88889 0.0
C1340 C 0.55108 0.61105 0.90688 0.0
C1341 C 0.56705 0.62938 0.84281 0.0
C1342 C 0.57702 0.6471 0.82079 0.0
C1343 C 0.56961 0.65868 0.81709 0.0
C1344 C 0.57914 0.67541 0.79658 0.0
C1345 C 0.59603 0.68066 0.7793 0.0
C1346 C 0.6034 0.66915 0.78237 0.0
C1347 C 0.59393 0.65241 0.80291 0.0
C1348 C 0.52319 0.55337 0.75312 0.0
C1349 C 0.53642 0.55306 0.72602 0.0
C1350 C 0.52833 0.56659 0.79064 0.0
C1351 C 0.54677 0.57943 0.80182 0.0
C1352 C 0.55996 0.57793 0.77738 0.0
C1353 C 0.55485 0.56488 0.73985 0.0
C1354 C 0.55227 0.59589 0.83395 0.0
C1355 C 0.56256 0.61319 0.81617 0.0
C1356 C 0.54658 0.59479 0.88005 0.0
C1357 C 0.53646 0.57695 0.90136 0.0
C1358 C 0.54352 0.56504 0.90309 0.0
C1359 C 0.53381 0.54808 0.92244 0.0
C1360 C 0.51708 0.54294 0.94055 0.0
C1361 C 0.51005 0.55479 0.93948 0.0
C1362 C 0.51971 0.57176 0.92008 0.0
H1363 H 0.50957 0.5298 0.95552 0.0
H1364 H 0.60339 0.69362 0.76342 0.0
H1365 H 0.50324 0.15126 0.28627 0.0
H1366 H 0.51311 0.13315 0.32993 0.0
H1367 H 0.46847 0.11717 0.41832 0.0
H1368 H 0.45903 0.13598 0.37633 0.0
H1369 H 0.49733 0.12149 0.46794 0.0
H1370 H 0.46538 0.09081 0.31866 0.0
H1371 H 0.46052 0.08812 0.23245 0.0
H1372 H 0.51251 0.09254 0.21906 0.0
H1373 H 0.51778 0.09552 0.30527 0.0
H1374 H 0.46434 0.03158 0.52261 0.0
H1375 H 0.46802 0.05641 0.47541 0.0
H1376 H 0.52349 0.07128 0.45665 0.0
H1377 H 0.52011 0.04647 0.505 0.0
H1378 H 0.49657 0.07068 0.3714 0.0
H1379 H 0.52562 0.09729 0.52603 0.0
H1380 H 0.5272 0.09756 0.61234 0.0
H1381 H 0.47745 0.09869 0.61498 0.0
H1382 H 0.47542 0.09811 0.52858 0.0
C1383 C 0.49586 0.1444 0.31599 0.0
C1384 C 0.48021 0.14491 0.32753 0.0
C1385 C 0.50142 0.13387 0.34055 0.0
C1386 C 0.49129 0.12348 0.37664 0.0
C1387 C 0.47642 0.12497 0.39033 0.0
C1388 C 0.47094 0.13561 0.36607 0.0
C1389 C 0.49512 0.10989 0.39776 0.0
C1390 C 0.4973 0.11049 0.44676 0.0
C1391 C 0.49532 0.09562 0.37011 0.0
C1392 C 0.49207 0.09361 0.31834 0.0
C1393 C 0.47583 0.09133 0.29731 0.0
C1394 C 0.47299 0.08974 0.24846 0.0
C1395 C 0.48623 0.09022 0.22029 0.0
C1396 C 0.50229 0.09222 0.24092 0.0
C1397 C 0.50521 0.09385 0.28977 0.0
C1398 C 0.47727 0.03987 0.50797 0.0
C1399 C 0.49202 0.03717 0.51823 0.0
C1400 C 0.47932 0.05404 0.48089 0.0
C1401 C 0.49605 0.0657 0.46316 0.0
C1402 C 0.51048 0.06235 0.47024 0.0
C1403 C 0.50849 0.04818 0.49782 0.0
C1404 C 0.49853 0.08227 0.44128 0.0
C1405 C 0.4973 0.08211 0.39231 0.0
C1406 C 0.49897 0.09683 0.46885 0.0
C1407 C 0.50031 0.09752 0.52084 0.0
C1408 C 0.51495 0.09745 0.545 0.0
C1409 C 0.51594 0.09768 0.59394 0.0
C1410 C 0.50242 0.09811 0.61913 0.0
C1411 C 0.48791 0.09835 0.59542 0.0
C1412 C 0.48685 0.0981 0.54647 0.0
H1413 H 0.5032 0.09828 0.65701 0.0
H1414 H 0.48401 0.089 0.18248 0.0
H1415 H 0.34716 0.50723 0.30823 0.0
H1416 H 0.36964 0.51398 0.37292 0.0
H1417 H 0.3546 0.45689 0.36907 0.0
H1418 H 0.33268 0.45005 0.30305 0.0
H1419 H 0.3616 0.47589 0.46402 0.0
H1420 H 0.38803 0.48119 0.31373 0.0
H1421 H 0.39528 0.49305 0.23538 0.0
H1422 H 0.42429 0.54833 0.29766 0.0
H1423 H 0.41694 0.53678 0.37638 0.0
H1424 H 0.4406 0.47587 0.55568 0.0
H1425 H 0.41225 0.47231 0.52065 0.0
H1426 H 0.43964 0.53024 0.49862 0.0
H1427 H 0.46809 0.53348 0.53138 0.0
H1428 H 0.42521 0.51267 0.42102 0.0
H1429 H 0.40225 0.50867 0.57136 0.0
H1430 H 0.39428 0.4983 0.65071 0.0
H1431 H 0.35916 0.44303 0.59284 0.0
H1432 H 0.36698 0.45307 0.51301 0.0
C1433 C 0.34859 0.49607 0.32101 0.0
C1434 C 0.33821 0.47811 0.29981 0.0
C1435 C 0.36131 0.49994 0.35837 0.0
C1436 C 0.36376 0.48593 0.37561 0.0
C1437 C 0.35277 0.46785 0.35645 0.0
C1438 C 0.34021 0.46399 0.31869 0.0
C1439 C 0.37907 0.49042 0.40995 0.0
C1440 C 0.37555 0.48384 0.45481 0.0
C1441 C 0.3972 0.5012 0.3981 0.0
C1442 C 0.40175 0.50814 0.35084 0.0
C1443 C 0.39581 0.49588 0.31067 0.0
C1444 C 0.39996 0.50254 0.26621 0.0
C1445 C 0.41019 0.52144 0.26153 0.0
C1446 C 0.41633 0.5337 0.30133 0.0
C1447 C 0.41218 0.5271 0.34586 0.0
C1448 C 0.4403 0.48792 0.54498 0.0
C1449 C 0.45634 0.50496 0.54634 0.0
C1450 C 0.4241 0.48591 0.52499 0.0
C1451 C 0.42374 0.50101 0.50681 0.0
C1452 C 0.43955 0.51837 0.51208 0.0
C1453 C 0.45576 0.52027 0.53115 0.0
C1454 C 0.40797 0.49825 0.47599 0.0
C1455 C 0.41137 0.505 0.43117 0.0
C1456 C 0.38979 0.48783 0.4883 0.0
C1457 C 0.38531 0.48161 0.53622 0.0
C1458 C 0.39296 0.49428 0.57556 0.0
C1459 C 0.38842 0.48846 0.62061 0.0
C1460 C 0.37625 0.47001 0.62679 0.0
C1461 C 0.36859 0.45732 0.58795 0.0
C1462 C 0.37302 0.46308 0.54278 0.0
H1463 H 0.37268 0.46556 0.66164 0.0
H1464 H 0.4134 0.52657 0.22708 0.0
H1465 H 0.86625 0.35191 0.2312 0.0
H1466 H 0.88641 0.37915 0.28251 0.0
H1467 H 0.91241 0.35082 0.33981 0.0
H1468 H 0.89166 0.32321 0.29058 0.0
H1469 H 0.90764 0.36979 0.40697 0.0
H1470 H 0.93075 0.38213 0.25254 0.0
H1471 H 0.92869 0.38562 0.1677 0.0
H1472 H 0.91601 0.42833 0.19541 0.0
H1473 H 0.91777 0.42493 0.28042 0.0
H1474 H 0.99073 0.43751 0.50362 0.0
H1475 H 0.96935 0.41516 0.44298 0.0
H1476 H 0.94475 0.44864 0.42369 0.0
H1477 H 0.96621 0.47125 0.48463 0.0
H1478 H 0.94657 0.42914 0.33811 0.0
H1479 H 0.9255 0.418 0.49306 0.0
H1480 H 0.92853 0.41494 0.57779 0.0
H1481 H 0.93768 0.3699 0.54855 0.0
H1482 H 0.93501 0.3729 0.46359 0.0
C1483 C 0.87601 0.35133 0.2554 0.0
C1484 C 0.87737 0.33536 0.25664 0.0
C1485 C 0.8877 0.36702 0.28424 0.0
C1486 C 0.90115 0.36714 0.31434 0.0
C1487 C 0.90221 0.35108 0.31662 0.0
C1488 C 0.89042 0.33534 0.28816 0.0
C1489 C 0.9143 0.38397 0.34337 0.0
C1490 C 0.91621 0.3827 0.39176 0.0
C1491 C 0.92513 0.40101 0.32381 0.0
C1492 C 0.9242 0.40314 0.27276 0.0
C1493 C 0.9274 0.39218 0.2405 0.0
C1494 C 0.9263 0.39415 0.1924 0.0
C1495 C 0.92217 0.40715 0.17617 0.0
C1496 C 0.91918 0.41824 0.20802 0.0
C1497 C 0.92024 0.41631 0.25616 0.0
C1498 C 0.98107 0.44038 0.48578 0.0
C1499 C 0.97994 0.45597 0.49953 0.0
C1500 C 0.96888 0.42759 0.45112 0.0
C1501 C 0.95529 0.43012 0.42972 0.0
C1502 C 0.95513 0.44646 0.44009 0.0
C1503 C 0.96741 0.45935 0.47486 0.0
C1504 C 0.94016 0.41467 0.4011 0.0
C1505 C 0.93783 0.41624 0.35312 0.0
C1506 C 0.92891 0.39785 0.4209 0.0
C1507 C 0.93019 0.39577 0.47197 0.0
C1508 C 0.92828 0.40753 0.5047 0.0
C1509 C 0.92992 0.40579 0.55277 0.0
C1510 C 0.93333 0.39225 0.56855 0.0
C1511 C 0.93505 0.38038 0.53628 0.0
C1512 C 0.93346 0.38208 0.48816 0.0
H1513 H 0.93461 0.39094 0.60579 0.0
H1514 H 0.92133 0.40865 0.13891 0.0
H1515 H 0.55014 0.87137 0.20868 0.0
H1516 H 0.54489 0.89166 0.26076 0.0
H1517 H 0.59007 0.93887 0.20776 0.0
H1518 H 0.59478 0.91866 0.15356 0.0
H1519 H 0.56347 0.91489 0.32979 0.0
H1520 H 0.58208 0.97471 0.20916 0.0
H1521 H 0.58177 0.97954 0.12472 0.0
H1522 H 0.5392 0.92359 0.09575 0.0
H1523 H 0.53908 0.91851 0.18004 0.0
H1524 H 0.57132 0.98834 0.46887 0.0
H1525 H 0.57819 0.97178 0.40874 0.0
H1526 H 0.52974 0.95998 0.32593 0.0
H1527 H 0.52308 0.97717 0.38561 0.0
H1528 H 0.55638 0.96565 0.27027 0.0
H1529 H 0.52902 0.92874 0.39794 0.0
H1530 H 0.52524 0.92138 0.48074 0.0
H1531 H 0.578 0.92659 0.4919 0.0
H1532 H 0.58219 0.93425 0.4093 0.0
C1533 C 0.55888 0.88607 0.20779 0.0
C1534 C 0.57277 0.89338 0.17658 0.0
C1535 C 0.55595 0.89766 0.23788 0.0
C1536 C 0.5669 0.9168 0.23767 0.0
C1537 C 0.58122 0.92415 0.20788 0.0
C1538 C 0.58406 0.91256 0.17739 0.0
C1539 C 0.56326 0.92896 0.26878 0.0
C1540 C 0.56197 0.92601 0.3167 0.0
C1541 C 0.56089 0.94323 0.25161 0.0
C1542 C 0.56073 0.94619 0.20087 0.0
C1543 C 0.57261 0.96346 0.18478 0.0
C1544 C 0.57252 0.96624 0.13694 0.0
C1545 C 0.56051 0.95186 0.10487 0.0
C1546 C 0.54854 0.9347 0.1206 0.0
C1547 C 0.54857 0.93185 0.1684 0.0
C1548 C 0.56225 0.98245 0.43754 0.0
C1549 C 0.54651 0.98379 0.43219 0.0
C1550 C 0.56619 0.97297 0.40325 0.0
C1551 C 0.55424 0.96426 0.36346 0.0
C1552 C 0.53909 0.96652 0.35655 0.0
C1553 C 0.53528 0.9763 0.39064 0.0
C1554 C 0.55689 0.9517 0.33119 0.0
C1555 C 0.55798 0.95457 0.2832 0.0
C1556 C 0.5585 0.93695 0.34796 0.0
C1557 C 0.55598 0.93223 0.39757 0.0
C1558 C 0.53987 0.92844 0.41815 0.0
C1559 C 0.53764 0.9242 0.46503 0.0
C1560 C 0.55139 0.92356 0.4916 0.0
C1561 C 0.56737 0.92712 0.47129 0.0
C1562 C 0.56967 0.93139 0.42444 0.0
H1563 H 0.54964 0.92027 0.52789 0.0
H1564 H 0.56047 0.95404 0.06786 0.0
H1565 H 0.66557 0.55267 0.22252 0.0
H1566 H 0.64427 0.54669 0.28294 0.0
H1567 H 0.66172 0.51241 0.3486 0.0
H1568 H 0.68325 0.51843 0.28809 0.0
H1569 H 0.62547 0.49657 0.34512 0.0
H1570 H 0.6754 0.55522 0.39713 0.0
H1571 H 0.69915 0.5874 0.39043 0.0
H1572 H 0.65839 0.60179 0.35844 0.0
H1573 H 0.63439 0.56963 0.36429 0.0
H1574 H 0.58841 0.53172 0.5523 0.0
H1575 H 0.61299 0.53214 0.51019 0.0
H1576 H 0.57488 0.49935 0.39437 0.0
H1577 H 0.55022 0.4985 0.43658 0.0
H1578 H 0.62476 0.54808 0.43375 0.0
H1579 H 0.59053 0.47682 0.32844 0.0
H1580 H 0.56868 0.44438 0.33985 0.0
H1581 H 0.58089 0.45479 0.48875 0.0
H1582 H 0.60298 0.48723 0.47826 0.0
C1583 C 0.6651 0.54405 0.25012 0.0
C1584 C 0.6763 0.5362 0.25065 0.0
C1585 C 0.65284 0.5406 0.28462 0.0
C1586 C 0.65155 0.52931 0.32076 0.0
C1587 C 0.66249 0.5212 0.32111 0.0
C1588 C 0.67477 0.52463 0.28645 0.0
C1589 C 0.63863 0.52594 0.35773 0.0
C1590 C 0.62534 0.50781 0.36468 0.0
C1591 C 0.63871 0.54058 0.38416 0.0
C1592 C 0.6531 0.55997 0.38084 0.0
C1593 C 0.6715 0.56522 0.38836 0.0
C1594 C 0.68501 0.58346 0.38475 0.0
C1595 C 0.68028 0.59662 0.37393 0.0
C1596 C 0.66203 0.59157 0.3668 0.0
C1597 C 0.64847 0.57334 0.37031 0.0
C1598 C 0.58517 0.52422 0.51833 0.0
C1599 C 0.56733 0.51523 0.49769 0.0
C1600 C 0.59928 0.52453 0.49418 0.0
C1601 C 0.59587 0.51584 0.44894 0.0
C1602 C 0.5779 0.50597 0.42942 0.0
C1603 C 0.56377 0.50555 0.45365 0.0
C1604 C 0.61119 0.51867 0.42029 0.0
C1605 C 0.62494 0.53676 0.4147 0.0
C1606 C 0.61169 0.50396 0.39582 0.0
C1607 C 0.59833 0.4845 0.40254 0.0
C1608 C 0.5886 0.47218 0.36361 0.0
C1609 C 0.57616 0.4538 0.36992 0.0
C1610 C 0.57341 0.44755 0.41498 0.0
C1611 C 0.58302 0.45967 0.45387 0.0
C1612 C 0.59547 0.47807 0.44777 0.0
H1613 H 0.5639 0.43331 0.41972 0.0
H1614 H 0.69076 0.61074 0.37116 0.0
H1615 H 0.16179 0.67258 0.27058 0.0
H1616 H 0.14041 0.64681 0.31355 0.0
H1617 H 0.1038 0.66809 0.31183 0.0
H1618 H 0.12418 0.69303 0.26616 0.0
H1619 H 0.11665 0.65268 0.4072 0.0
H1620 H 0.08549 0.64087 0.24669 0.0
H1621 H 0.08663 0.63836 0.16078 0.0
H1622 H 0.10414 0.59888 0.17391 0.0
H1623 H 0.10335 0.60141 0.26008 0.0
H1624 H 0.03279 0.58779 0.48127 0.0
H1625 H 0.05634 0.6121 0.43937 0.0
H1626 H 0.06875 0.57295 0.37397 0.0
H1627 H 0.04477 0.54837 0.41487 0.0
H1628 H 0.07096 0.59625 0.31305 0.0
H1629 H 0.09495 0.60168 0.46915 0.0
H1630 H 0.09655 0.60418 0.5556 0.0
H1631 H 0.09605 0.65487 0.55406 0.0
H1632 H 0.09417 0.65256 0.46754 0.0
C1633 C 0.14918 0.6718 0.27905 0.0
C1634 C 0.14479 0.68498 0.26435 0.0
C1635 C 0.13707 0.65713 0.30397 0.0
C1636 C 0.12057 0.65559 0.3154 0.0
C1637 C 0.11653 0.66913 0.3032 0.0
C1638 C 0.12838 0.68354 0.27747 0.0
C1639 C 0.107 0.6394 0.33801 0.0
C1640 C 0.10655 0.64036 0.38685 0.0
C1641 C 0.09433 0.6232 0.31128 0.0
C1642 C 0.09458 0.6215 0.25967 0.0
C1643 C 0.08974 0.6318 0.23124 0.0
C1644 C 0.09029 0.63034 0.18254 0.0
C1645 C 0.09551 0.61851 0.16192 0.0
C1646 C 0.10014 0.60806 0.18995 0.0
C1647 C 0.09964 0.6095 0.23871 0.0
C1648 C 0.04036 0.58429 0.45749 0.0
C1649 C 0.03697 0.56617 0.45156 0.0
C1650 C 0.05392 0.59823 0.43383 0.0
C1651 C 0.06463 0.59443 0.40446 0.0
C1652 C 0.06073 0.57621 0.3967 0.0
C1653 C 0.04698 0.56217 0.41996 0.0
C1654 C 0.08009 0.60959 0.38271 0.0
C1655 C 0.08102 0.60845 0.33387 0.0
C1656 C 0.09341 0.62554 0.40972 0.0
C1657 C 0.0943 0.62688 0.46179 0.0
C1658 C 0.09502 0.61329 0.48721 0.0
C1659 C 0.096 0.61468 0.53623 0.0
C1660 C 0.09641 0.62968 0.56027 0.0
C1661 C 0.09575 0.64327 0.53536 0.0
C1662 C 0.09474 0.64194 0.48633 0.0
H1663 H 0.09733 0.63082 0.59821 0.0
H1664 H 0.09593 0.61743 0.12422 0.0
loop_
_geom_bond_atom_site_label_1
_geom_bond_atom_site_label_2
_geom_bond_distance
_geom_bond_site_symmetry_2
_ccdc_geom_bond_type
H0 C27 0.929 . S
N1 C26 1.433 . S
N1 C32 1.435 . S
N1 C38 1.423 . S
H2 C28 0.930 . S
H3 C31 0.931 . S
H4 C30 0.929 . S
H5 C33 0.930 . S
H6 C34 0.932 . S
H7 C37 0.929 . S
H8 C36 0.931 . S
H9 C39 0.929 . S
H10 C43 0.932 . S
H11 C40 0.931 . S
H12 C42 0.929 . S
H13 C45 0.929 . S
H14 C46 0.930 . S
H15 C48 0.929 . S
H16 C49 0.931 . S
H17 C51 0.930 . S
H18 C52 0.932 . S
H19 C54 0.931 . S
H20 C55 0.929 . S
H21 C57 0.929 . S
H22 C58 0.931 . S
H23 C60 0.929 . S
N24 C44 1.433 . S
N24 C50 1.435 . S
N24 C56 1.423 . S
H25 C61 0.932 . S
C26 N1 1.433 . S
C26 C27 1.363 . S
C26 C31 1.370 . S
C27 H0 0.929 . S
C27 C26 1.363 . S
C27 C28 1.385 . S
C28 H2 0.930 . S
C28 C27 1.385 . S
C28 C29 1.357 . S
C29 C28 1.357 . S
C29 C30 1.406 . S
C30 H4 0.929 . S
C30 C29 1.406 . S
C30 C31 1.391 . S
C31 H3 0.931 . S
C31 C26 1.370 . S
C31 C30 1.391 . S
C32 N1 1.435 . S
C32 C33 1.358 . S
C32 C37 1.371 . S
C33 H5 0.930 . S
C33 C32 1.358 . S
C33 C34 1.405 . S
C34 H6 0.932 . S
C34 C33 1.405 . S
C34 C35 1.383 . S
C35 C34 1.383 . S
C35 C36 1.393 . S
C36 H8 0.931 . S
C36 C35 1.393 . S
C36 C37 1.382 . S
C37 H7 0.929 . S
C37 C32 1.371 . S
C37 C36 1.382 . S
C38 N1 1.423 . S
C38 C39 1.362 . S
C38 C43 1.388 . S
C39 H9 0.929 . S
C39 C38 1.362 . S
C39 C40 1.376 . S
C40 H11 0.931 . S
C40 C39 1.376 . S
C40 C41 1.396 . S
C41 C40 1.396 . S
C41 C42 1.348 . S
C41 C59 1.472 . S
C42 H12 0.929 . S
C42 C41 1.348 . S
C42 C43 1.443 . S
C43 H10 0.932 . S
C43 C38 1.388 . S
C43 C42 1.443 . S
C44 N24 1.433 . S
C44 C45 1.363 . S
C44 C49 1.370 . S
C45 H13 0.929 . S
C45 C44 1.363 . S
C45 C46 1.385 . S
C46 H14 0.930 . S
C46 C45 1.385 . S
C46 C47 1.357 . S
C47 C46 1.357 . S
C47 C48 1.406 . S
C48 H15 0.929 . S
C48 C47 1.406 . S
C48 C49 1.391 . S
C49 H16 0.931 . S
C49 C44 1.370 . S
C49 C48 1.391 . S
C50 N24 1.435 . S
C50 C51 1.358 . S
C50 C55 1.371 . S
C51 H17 0.930 . S
C51 C50 1.358 . S
C51 C52 1.405 . S
C52 H18 0.932 . S
C52 C51 1.405 . S
C52 C53 1.383 . S
C53 C52 1.383 . S
C53 C54 1.393 . S
C54 H19 0.931 . S
C54 C53 1.393 . S
C54 C55 1.382 . S
C55 H20 0.929 . S
C55 C50 1.371 . S
C55 C54 1.382 . S
C56 N24 1.423 . S
C56 C57 1.362 . S
C56 C61 1.388 . S
C57 H21 0.929 . S
C57 C56 1.362 . S
C57 C58 1.376 . S
C58 H22 0.931 . S
C58 C57 1.376 . S
C58 C59 1.396 . S
C59 C41 1.472 . S
C59 C58 1.396 . S
C59 C60 1.348 . S
C60 H23 0.929 . S
C60 C59 1.348 . S
C60 C61 1.443 . S
C61 H25 0.932 . S
C61 C56 1.388 . S
C61 C60 1.443 . S
H62 C89 0.929 . S
N63 C88 1.433 . S
N63 C94 1.435 . S
N63 C100 1.423 . S
H64 C90 0.930 . S
H65 C93 0.931 . S
H66 C92 0.929 . S
H67 C95 0.930 . S
H68 C96 0.932 . S
H69 C99 0.929 . S
H70 C98 0.931 1_556 S
H71 C101 0.929 . S
H72 C105 0.932 . S
H73 C102 0.931 . S
H74 C104 0.929 . S
H75 C107 0.929 . S
H76 C108 0.930 . S
H77 C110 0.929 . S
H78 C111 0.931 . S
H79 C113 0.930 . S
H80 C114 0.932 . S
H81 C116 0.931 1_556 S
H82 C117 0.929 . S
H83 C119 0.929 . S
H84 C120 0.931 . S
H85 C122 0.929 . S
N86 C106 1.433 . S
N86 C112 1.435 . S
N86 C118 1.423 . S
H87 C123 0.932 . S
C88 N63 1.433 . S
C88 C89 1.363 . S
C88 C93 1.370 . S
C89 H62 0.929 . S
C89 C88 1.363 . S
C89 C90 1.385 . S
C90 H64 0.930 . S
C90 C89 1.385 . S
C90 C91 1.357 . S
C91 C90 1.357 . S
C91 C92 1.406 . S
C92 H66 0.929 . S
C92 C91 1.406 . S
C92 C93 1.391 . S
C93 H65 0.931 . S
C93 C88 1.370 . S
C93 C92 1.391 . S
C94 N63 1.435 . S
C94 C95 1.358 . S
C94 C99 1.371 . S
C95 H67 0.930 . S
C95 C94 1.358 . S
C95 C96 1.405 . S
C96 H68 0.932 . S
C96 C95 1.405 . S
C96 C97 1.383 . S
C97 C96 1.383 . S
C97 C98 1.393 . S
C98 H70 0.931 1_554 S
C98 C97 1.393 . S
C98 C99 1.382 . S
C99 H69 0.929 . S
C99 C94 1.371 . S
C99 C98 1.382 . S
C100 N63 1.423 . S
C100 C101 1.362 . S
C100 C105 1.388 . S
C101 H71 0.929 . S
C101 C100 1.362 . S
C101 C102 1.376 . S
C102 H73 0.931 . S
C102 C101 1.376 . S
C102 C103 1.396 . S
C103 C102 1.396 . S
C103 C104 1.348 . S
C103 C121 1.472 . S
C104 H74 0.929 . S
C104 C103 1.348 . S
C104 C105 1.443 . S
C105 H72 0.932 . S
C105 C100 1.388 . S
C105 C104 1.443 . S
C106 N86 1.433 . S
C106 C107 1.363 . S
C106 C111 1.370 . S
C107 H75 0.929 . S
C107 C106 1.363 . S
C107 C108 1.385 . S
C108 H76 0.930 . S
C108 C107 1.385 . S
C108 C109 1.357 . S
C109 C108 1.357 . S
C109 C110 1.406 . S
C110 H77 0.929 . S
C110 C109 1.406 . S
C110 C111 1.391 . S
C111 H78 0.931 . S
C111 C106 1.370 . S
C111 C110 1.391 . S
C112 N86 1.435 . S
C112 C113 1.358 . S
C112 C117 1.371 . S
C113 H79 0.930 . S
C113 C112 1.358 . S
C113 C114 1.405 . S
C114 H80 0.932 . S
C114 C113 1.405 . S
C114 C115 1.383 . S
C115 C114 1.383 . S
C115 C116 1.393 . S
C116 H81 0.931 1_554 S
C116 C115 1.393 . S
C116 C117 1.382 . S
C117 H82 0.929 . S
C117 C112 1.371 . S
C117 C116 1.382 . S
C118 N86 1.423 . S
C118 C119 1.362 . S
C118 C123 1.388 . S
C119 H83 0.929 . S
C119 C118 1.362 . S
C119 C120 1.376 . S
C120 H84 0.931 . S
C120 C119 1.376 . S
C120 C121 1.396 . S
C121 C103 1.472 . S
C121 C120 1.396 . S
C121 C122 1.348 . S
C122 H85 0.929 . S
C122 C121 1.348 . S
C122 C123 1.443 . S
C123 H87 0.932 . S
C123 C118 1.388 . S
C123 C122 1.443 . S
H124 C151 0.929 . S
N125 C150 1.433 1_554 S
N125 C156 1.435 . S
N125 C162 1.423 . S
H126 C152 0.930 . S
H127 C155 0.931 . S
H128 C154 0.929 . S
H129 C157 0.930 . S
H130 C158 0.932 . S
H131 C161 0.929 . S
H132 C160 0.931 . S
H133 C163 0.929 1_556 S
H134 C167 0.932 . S
H135 C164 0.931 1_556 S
H136 C166 0.929 . S
H137 C169 0.929 . S
H138 C170 0.930 . S
H139 C172 0.929 . S
H140 C173 0.931 . S
H141 C175 0.930 . S
H142 C176 0.932 . S
H143 C178 0.931 . S
H144 C179 0.929 . S
H145 C181 0.929 1_556 S
H146 C182 0.931 1_556 S
H147 C184 0.929 . S
N148 C168 1.433 1_554 S
N148 C174 1.435 . S
N148 C180 1.423 . S
H149 C185 0.932 . S
C150 N125 1.433 1_556 S
C150 C151 1.363 . S
C150 C155 1.370 . S
C151 H124 0.929 . S
C151 C150 1.363 . S
C151 C152 1.385 . S
C152 H126 0.930 . S
C152 C151 1.385 . S
C152 C153 1.357 . S
C153 C152 1.357 . S
C153 C154 1.406 . S
C154 H128 0.929 . S
C154 C153 1.406 . S
C154 C155 1.391 . S
C155 H127 0.931 . S
C155 C150 1.370 . S
C155 C154 1.391 . S
C156 N125 1.435 . S
C156 C157 1.358 . S
C156 C161 1.371 . S
C157 H129 0.930 . S
C157 C156 1.358 . S
C157 C158 1.405 . S
C158 H130 0.932 . S
C158 C157 1.405 . S
C158 C159 1.383 . S
C159 C158 1.383 . S
C159 C160 1.393 . S
C160 H132 0.931 . S
C160 C159 1.393 . S
C160 C161 1.382 . S
C161 H131 0.929 . S
C161 C156 1.371 . S
C161 C160 1.382 . S
C162 N125 1.423 . S
C162 C163 1.362 . S
C162 C167 1.388 . S
C163 H133 0.929 1_554 S
C163 C162 1.362 . S
C163 C164 1.376 . S
C164 H135 0.931 1_554 S
C164 C163 1.376 . S
C164 C165 1.396 . S
C165 C164 1.396 . S
C165 C166 1.348 . S
C165 C183 1.472 . S
C166 H136 0.929 . S
C166 C165 1.348 . S
C166 C167 1.443 . S
C167 H134 0.932 . S
C167 C162 1.388 . S
C167 C166 1.443 . S
C168 N148 1.433 1_556 S
C168 C169 1.363 . S
C168 C173 1.370 . S
C169 H137 0.929 . S
C169 C168 1.363 . S
C169 C170 1.385 . S
C170 H138 0.930 . S
C170 C169 1.385 . S
C170 C171 1.357 . S
C171 C170 1.357 . S
C171 C172 1.406 . S
C172 H139 0.929 . S
C172 C171 1.406 . S
C172 C173 1.391 . S
C173 H140 0.931 . S
C173 C168 1.370 . S
C173 C172 1.391 . S
C174 N148 1.435 . S
C174 C175 1.358 . S
C174 C179 1.371 . S
C175 H141 0.930 . S
C175 C174 1.358 . S
C175 C176 1.405 . S
C176 H142 0.932 . S
C176 C175 1.405 . S
C176 C177 1.383 . S
C177 C176 1.383 . S
C177 C178 1.393 . S
C178 H143 0.931 . S
C178 C177 1.393 . S
C178 C179 1.382 . S
C179 H144 0.929 . S
C179 C174 1.371 . S
C179 C178 1.382 . S
C180 N148 1.423 . S
C180 C181 1.362 . S
C180 C185 1.388 . S
C181 H145 0.929 1_554 S
C181 C180 1.362 . S
C181 C182 1.376 . S
C182 H146 0.931 1_554 S
C182 C181 1.376 . S
C182 C183 1.396 . S
C183 C165 1.472 . S
C183 C182 1.396 . S
C183 C184 1.348 . S
C184 H147 0.929 . S
C184 C183 1.348 . S
C184 C185 1.443 . S
C185 H149 0.932 . S
C185 C180 1.388 . S
C185 C184 1.443 . S
H186 C213 0.929 . S
N187 C212 1.433 . S
N187 C218 1.435 . S
N187 C224 1.423 . S
H188 C214 0.930 . S
H189 C217 0.931 . S
H190 C216 0.929 . S
H191 C219 0.930 . S
H192 C220 0.932 . S
H193 C223 0.929 . S
H194 C222 0.931 . S
H195 C225 0.929 . S
H196 C229 0.932 . S
H197 C226 0.931 . S
H198 C228 0.929 1_556 S
H199 C231 0.929 . S
H200 C232 0.930 . S
H201 C234 0.929 . S
H202 C235 0.931 . S
H203 C237 0.930 . S
H204 C238 0.932 . S
H205 C240 0.931 . S
H206 C241 0.929 . S
H207 C243 0.929 . S
H208 C244 0.931 . S
H209 C246 0.929 1_556 S
N210 C230 1.433 . S
N210 C236 1.435 . S
N210 C242 1.423 . S
H211 C247 0.932 1_556 S
C212 N187 1.433 . S
C212 C213 1.363 . S
C212 C217 1.370 . S
C213 H186 0.929 . S
C213 C212 1.363 . S
C213 C214 1.385 . S
C214 H188 0.930 . S
C214 C213 1.385 . S
C214 C215 1.357 . S
C215 C214 1.357 . S
C215 C216 1.406 . S
C216 H190 0.929 . S
C216 C215 1.406 . S
C216 C217 1.391 . S
C217 H189 0.931 . S
C217 C212 1.370 . S
C217 C216 1.391 . S
C218 N187 1.435 . S
C218 C219 1.358 . S
C218 C223 1.371 1_554 S
C219 H191 0.930 . S
C219 C218 1.358 . S
C219 C220 1.405 1_554 S
C220 H192 0.932 . S
C220 C219 1.405 1_556 S
C220 C221 1.383 . S
C221 C220 1.383 . S
C221 C222 1.393 . S
C222 H194 0.931 . S
C222 C221 1.393 . S
C222 C223 1.382 . S
C223 H193 0.929 . S
C223 C218 1.371 1_556 S
C223 C222 1.382 . S
C224 N187 1.423 . S
C224 C225 1.362 . S
C224 C229 1.388 . S
C225 H195 0.929 . S
C225 C224 1.362 . S
C225 C226 1.376 . S
C226 H197 0.931 . S
C226 C225 1.376 . S
C226 C227 1.396 . S
C227 C226 1.396 . S
C227 C228 1.348 . S
C227 C245 1.472 . S
C228 H198 0.929 1_554 S
C228 C227 1.348 . S
C228 C229 1.443 . S
C229 H196 0.932 . S
C229 C224 1.388 . S
C229 C228 1.443 . S
C230 N210 1.433 . S
C230 C231 1.363 . S
C230 C235 1.370 . S
C231 H199 0.929 . S
C231 C230 1.363 . S
C231 C232 1.385 . S
C232 H200 0.930 . S
C232 C231 1.385 . S
C232 C233 1.357 . S
C233 C232 1.357 . S
C233 C234 1.406 . S
C234 H201 0.929 . S
C234 C233 1.406 . S
C234 C235 1.391 . S
C235 H202 0.931 . S
C235 C230 1.370 . S
C235 C234 1.391 . S
C236 N210 1.435 . S
C236 C237 1.358 . S
C236 C241 1.371 1_554 S
C237 H203 0.930 . S
C237 C236 1.358 . S
C237 C238 1.405 1_554 S
C238 H204 0.932 . S
C238 C237 1.405 1_556 S
C238 C239 1.383 . S
C239 C238 1.383 . S
C239 C240 1.393 . S
C240 H205 0.931 . S
C240 C239 1.393 . S
C240 C241 1.382 . S
C241 H206 0.929 . S
C241 C236 1.371 1_556 S
C241 C240 1.382 . S
C242 N210 1.423 . S
C242 C243 1.362 . S
C242 C247 1.388 . S
C243 H207 0.929 . S
C243 C242 1.362 . S
C243 C244 1.376 . S
C244 H208 0.931 . S
C244 C243 1.376 . S
C244 C245 1.396 . S
C245 C227 1.472 . S
C245 C244 1.396 . S
C245 C246 1.348 . S
C246 H209 0.929 1_554 S
C246 C245 1.348 . S
C246 C247 1.443 . S
C247 H211 0.932 1_554 S
C247 C242 1.388 . S
C247 C246 1.443 . S
H248 C275 0.929 . S
N249 C274 1.433 . S
N249 C280 1.435 . S
N249 C286 1.423 . S
H250 C276 0.930 . S
H251 C279 0.931 . S
H252 C278 0.929 . S
H253 C281 0.930 . S
H254 C282 0.932 . S
H255 C285 0.929 . S
H256 C284 0.931 . S
H257 C287 0.929 . S
H258 C291 0.932 . S
H259 C288 0.931 . S
H260 C290 0.929 . S
H261 C293 0.929 . S
H262 C294 0.930 . S
H263 C296 0.929 . S
H264 C297 0.931 . S
H265 C299 0.930 . S
H266 C300 0.932 . S
H267 C302 0.931 . S
H268 C303 0.929 . S
H269 C305 0.929 . S
H270 C306 0.931 . S
H271 C308 0.929 . S
N272 C292 1.433 . S
N272 C298 1.435 . S
N272 C304 1.423 . S
H273 C309 0.932 . S
C274 N249 1.433 . S
C274 C275 1.363 . S
C274 C279 1.370 . S
C275 H248 0.929 . S
C275 C274 1.363 . S
C275 C276 1.385 . S
C276 H250 0.930 . S
C276 C275 1.385 . S
C276 C277 1.357 . S
C277 C276 1.357 . S
C277 C278 1.406 . S
C278 H252 0.929 . S
C278 C277 1.406 . S
C278 C279 1.391 . S
C279 H251 0.931 . S
C279 C274 1.370 . S
C279 C278 1.391 . S
C280 N249 1.435 . S
C280 C281 1.358 . S
C280 C285 1.371 . S
C281 H253 0.930 . S
C281 C280 1.358 . S
C281 C282 1.405 . S
C282 H254 0.932 . S
C282 C281 1.405 . S
C282 C283 1.383 1_554 S
C283 C282 1.383 1_556 S
C283 C284 1.393 . S
C284 H256 0.931 . S
C284 C283 1.393 . S
C284 C285 1.382 1_556 S
C285 H255 0.929 . S
C285 C280 1.371 . S
C285 C284 1.382 1_554 S
C286 N249 1.423 . S
C286 C287 1.362 . S
C286 C291 1.388 . S
C287 H257 0.929 . S
C287 C286 1.362 . S
C287 C288 1.376 . S
C288 H259 0.931 . S
C288 C287 1.376 . S
C288 C289 1.396 . S
C289 C288 1.396 . S
C289 C290 1.348 . S
C289 C307 1.472 . S
C290 H260 0.929 . S
C290 C289 1.348 . S
C290 C291 1.443 . S
C291 H258 0.932 . S
C291 C286 1.388 . S
C291 C290 1.443 . S
C292 N272 1.433 . S
C292 C293 1.363 . S
C292 C297 1.370 . S
C293 H261 0.929 . S
C293 C292 1.363 . S
C293 C294 1.385 . S
C294 H262 0.930 . S
C294 C293 1.385 . S
C294 C295 1.357 . S
C295 C294 1.357 . S
C295 C296 1.406 . S
C296 H263 0.929 . S
C296 C295 1.406 . S
C296 C297 1.391 . S
C297 H264 0.931 . S
C297 C292 1.370 . S
C297 C296 1.391 . S
C298 N272 1.435 . S
C298 C299 1.358 . S
C298 C303 1.371 . S
C299 H265 0.930 . S
C299 C298 1.358 . S
C299 C300 1.405 . S
C300 H266 0.932 . S
C300 C299 1.405 . S
C300 C301 1.383 1_554 S
C301 C300 1.383 1_556 S
C301 C302 1.393 . S
C302 H267 0.931 . S
C302 C301 1.393 . S
C302 C303 1.382 1_556 S
C303 H268 0.929 . S
C303 C298 1.371 . S
C303 C302 1.382 1_554 S
C304 N272 1.423 . S
C304 C305 1.362 . S
C304 C309 1.388 . S
C305 H269 0.929 . S
C305 C304 1.362 . S
C305 C306 1.376 . S
C306 H270 0.931 . S
C306 C305 1.376 . S
C306 C307 1.396 . S
C307 C289 1.472 . S
C307 C306 1.396 . S
C307 C308 1.348 . S
C308 H271 0.929 . S
C308 C307 1.348 . S
C308 C309 1.443 . S
C309 H273 0.932 . S
C309 C304 1.388 . S
C309 C308 1.443 . S
H310 C337 0.929 . S
N311 C336 1.433 . S
N311 C342 1.435 . S
N311 C348 1.423 . S
H312 C338 0.930 . S
H313 C341 0.931 . S
H314 C340 0.929 . S
H315 C343 0.930 . S
H316 C344 0.932 . S
H317 C347 0.929 . S
H318 C346 0.931 . S
H319 C349 0.929 . S
H320 C353 0.932 . S
H321 C350 0.931 . S
H322 C352 0.929 . S
H323 C355 0.929 . S
H324 C356 0.930 . S
H325 C358 0.929 . S
H326 C359 0.931 . S
H327 C361 0.930 . S
H328 C362 0.932 . S
H329 C364 0.931 . S
H330 C365 0.929 . S
H331 C367 0.929 . S
H332 C368 0.931 . S
H333 C370 0.929 . S
N334 C354 1.433 . S
N334 C360 1.435 . S
N334 C366 1.423 . S
H335 C371 0.932 . S
C336 N311 1.433 . S
C336 C337 1.363 . S
C336 C341 1.370 . S
C337 H310 0.929 . S
C337 C336 1.363 . S
C337 C338 1.385 . S
C338 H312 0.930 . S
C338 C337 1.385 . S
C338 C339 1.357 . S
C339 C338 1.357 . S
C339 C340 1.406 . S
C340 H314 0.929 . S
C340 C339 1.406 . S
C340 C341 1.391 . S
C341 H313 0.931 . S
C341 C336 1.370 . S
C341 C340 1.391 . S
C342 N311 1.435 . S
C342 C343 1.358 . S
C342 C347 1.371 . S
C343 H315 0.930 . S
C343 C342 1.358 . S
C343 C344 1.405 . S
C344 H316 0.932 . S
C344 C343 1.405 . S
C344 C345 1.383 . S
C345 C344 1.383 . S
C345 C346 1.393 . S
C346 H318 0.931 . S
C346 C345 1.393 . S
C346 C347 1.382 . S
C347 H317 0.929 . S
C347 C342 1.371 . S
C347 C346 1.382 . S
C348 N311 1.423 . S
C348 C349 1.362 . S
C348 C353 1.388 . S
C349 H319 0.929 . S
C349 C348 1.362 . S
C349 C350 1.376 . S
C350 H321 0.931 . S
C350 C349 1.376 . S
C350 C351 1.396 . S
C351 C350 1.396 . S
C351 C352 1.348 . S
C351 C369 1.472 . S
C352 H322 0.929 . S
C352 C351 1.348 . S
C352 C353 1.443 . S
C353 H320 0.932 . S
C353 C348 1.388 . S
C353 C352 1.443 . S
C354 N334 1.433 . S
C354 C355 1.363 . S
C354 C359 1.370 . S
C355 H323 0.929 . S
C355 C354 1.363 . S
C355 C356 1.385 . S
C356 H324 0.930 . S
C356 C355 1.385 . S
C356 C357 1.357 . S
C357 C356 1.357 . S
C357 C358 1.406 . S
C358 H325 0.929 . S
C358 C357 1.406 . S
C358 C359 1.391 . S
C359 H326 0.931 . S
C359 C354 1.370 . S
C359 C358 1.391 . S
C360 N334 1.435 . S
C360 C361 1.358 . S
C360 C365 1.371 . S
C361 H327 0.930 . S
C361 C360 1.358 . S
C361 C362 1.405 . S
C362 H328 0.932 . S
C362 C361 1.405 . S
C362 C363 1.383 . S
C363 C362 1.383 . S
C363 C364 1.393 . S
C364 H329 0.931 . S
C364 C363 1.393 . S
C364 C365 1.382 . S
C365 H330 0.929 . S
C365 C360 1.371 . S
C365 C364 1.382 . S
C366 N334 1.423 . S
C366 C367 1.362 . S
C366 C371 1.388 . S
C367 H331 0.929 . S
C367 C366 1.362 . S
C367 C368 1.376 . S
C368 H332 0.931 . S
C368 C367 1.376 . S
C368 C369 1.396 . S
C369 C351 1.472 . S
C369 C368 1.396 . S
C369 C370 1.348 . S
C370 H333 0.929 . S
C370 C369 1.348 . S
C370 C371 1.443 . S
C371 H335 0.932 . S
C371 C366 1.388 . S
C371 C370 1.443 . S
C372 O384 1.241 . S
C372 O385 1.280 . S
C373 O386 1.277 . S
C373 O387 1.245 . S
C374 O398 1.247 . S
C374 O400 1.289 . S
Mg375 O376 1.925 1_655 S
Mg375 O385 1.983 . S
Mg375 O387 1.990 1_655 S
Mg375 O388 2.060 . S
O376 Mg375 1.925 1_455 S
O376 Mg377 1.986 . S
O376 Mg378 1.917 . S
Mg377 O376 1.986 . S
Mg377 O384 2.042 1_455 S
Mg377 O386 2.041 . S
Mg377 O392 2.038 1_455 S
Mg377 O400 2.238 . S
Mg378 O376 1.917 . S
Mg378 O379 1.917 . S
Mg378 O389 2.106 1_455 S
Mg378 O391 2.079 1_455 S
Mg378 O400 2.106 . S
Mg378 O401 2.079 . S
O379 Mg378 1.917 . S
O379 Mg380 1.926 . S
O379 Mg381 1.986 . S
Mg380 O379 1.926 . S
Mg380 O394 1.984 . S
Mg380 O397 1.988 1_455 S
Mg380 O398 2.061 . S
Mg381 O379 1.986 . S
Mg381 O389 2.238 1_455 S
Mg381 O393 2.042 . S
Mg381 O395 2.041 1_455 S
Mg381 O402 2.038 . S
C382 O388 1.247 . S
C382 O389 1.289 . S
C383 O401 1.245 . S
C383 O402 1.274 . S
O384 C372 1.241 . S
O384 Mg377 2.042 1_655 S
O385 C372 1.280 . S
O385 Mg375 1.983 . S
O386 C373 1.277 . S
O386 Mg377 2.041 . S
O387 C373 1.245 . S
O387 Mg375 1.990 1_455 S
O388 Mg375 2.060 . S
O388 C382 1.247 . S
O389 Mg378 2.106 1_655 S
O389 Mg381 2.238 1_655 S
O389 C382 1.289 . S
C390 O391 1.245 . S
C390 O392 1.274 . S
O391 Mg378 2.079 1_655 S
O391 C390 1.245 . S
O392 Mg377 2.038 1_655 S
O392 C390 1.274 . S
O393 Mg381 2.042 . S
O393 C396 1.241 . S
O394 Mg380 1.984 . S
O394 C396 1.280 . S
O395 Mg381 2.041 1_655 S
O395 C399 1.277 . S
C396 O393 1.241 . S
C396 O394 1.280 . S
O397 Mg380 1.988 1_655 S
O397 C399 1.245 . S
O398 C374 1.247 . S
O398 Mg380 2.061 . S
C399 O395 1.277 . S
C399 O397 1.245 . S
O400 C374 1.289 . S
O400 Mg377 2.238 . S
O400 Mg378 2.106 . S
O401 Mg378 2.079 . S
O401 C383 1.245 . S
O402 Mg381 2.038 . S
O402 C383 1.274 . S
C403 O415 1.241 . S
C403 O416 1.280 . S
C404 O417 1.277 . S
C404 O418 1.245 . S
C405 O429 1.247 . S
C405 O431 1.289 . S
Mg406 O407 1.926 . S
Mg406 O416 1.984 . S
Mg406 O418 1.988 1_545 S
Mg406 O419 2.061 . S
O407 Mg406 1.926 . S
O407 Mg408 1.986 . S
O407 Mg409 1.917 . S
Mg408 O407 1.986 . S
Mg408 O415 2.042 . S
Mg408 O417 2.041 1_545 S
Mg408 O423 2.038 . S
Mg408 O431 2.238 1_545 S
Mg409 O407 1.917 . S
Mg409 O410 1.917 1_545 S
Mg409 O420 2.106 . S
Mg409 O422 2.079 . S
Mg409 O431 2.106 1_545 S
Mg409 O432 2.079 1_545 S
O410 Mg409 1.917 1_565 S
O410 Mg411 1.926 . S
O410 Mg412 1.986 1_565 S
Mg411 O410 1.926 . S
Mg411 O425 1.984 . S
Mg411 O428 1.988 1_565 S
Mg411 O429 2.061 . S
Mg412 O410 1.986 1_545 S
Mg412 O420 2.238 . S
Mg412 O424 2.042 1_545 S
Mg412 O426 2.041 . S
Mg412 O433 2.038 1_545 S
C413 O419 1.247 . S
C413 O420 1.289 . S
C414 O432 1.245 . S
C414 O433 1.274 . S
O415 C403 1.241 . S
O415 Mg408 2.042 . S
O416 C403 1.280 . S
O416 Mg406 1.984 . S
O417 C404 1.277 . S
O417 Mg408 2.041 1_565 S
O418 C404 1.245 . S
O418 Mg406 1.988 1_565 S
O419 Mg406 2.061 . S
O419 C413 1.247 . S
O420 Mg409 2.106 . S
O420 Mg412 2.238 . S
O420 C413 1.289 . S
C421 O422 1.245 . S
C421 O423 1.274 . S
O422 Mg409 2.079 . S
O422 C421 1.245 . S
O423 Mg408 2.038 . S
O423 C421 1.274 . S
O424 Mg412 2.042 1_565 S
O424 C427 1.241 . S
O425 Mg411 1.984 . S
O425 C427 1.280 . S
O426 Mg412 2.041 . S
O426 C430 1.277 . S
C427 O424 1.241 . S
C427 O425 1.280 . S
O428 Mg411 1.988 1_545 S
O428 C430 1.245 . S
O429 C405 1.247 . S
O429 Mg411 2.061 . S
C430 O426 1.277 . S
C430 O428 1.245 . S
O431 C405 1.289 . S
O431 Mg408 2.238 1_565 S
O431 Mg409 2.106 1_565 S
O432 Mg409 2.079 1_565 S
O432 C414 1.245 . S
O433 Mg412 2.038 1_565 S
O433 C414 1.274 . S
C434 O446 1.241 . S
C434 O447 1.280 . S
C435 O448 1.277 . S
C435 O449 1.245 . S
C436 O460 1.247 . S
C436 O462 1.289 . S
Mg437 O438 1.926 . S
Mg437 O447 1.984 . S
Mg437 O449 1.988 . S
Mg437 O450 2.061 . S
O438 Mg437 1.926 . S
O438 Mg439 1.986 . S
O438 Mg440 1.917 . S
Mg439 O438 1.986 . S
Mg439 O446 2.042 . S
Mg439 O448 2.041 . S
Mg439 O454 2.038 . S
Mg439 O462 2.238 . S
Mg440 O438 1.917 . S
Mg440 O441 1.917 . S
Mg440 O451 2.106 . S
Mg440 O453 2.079 . S
Mg440 O462 2.106 . S
Mg440 O463 2.079 . S
O441 Mg440 1.917 . S
O441 Mg442 1.926 . S
O441 Mg443 1.986 . S
Mg442 O441 1.926 . S
Mg442 O456 1.984 . S
Mg442 O459 1.988 . S
Mg442 O460 2.061 . S
Mg443 O441 1.986 . S
Mg443 O451 2.238 . S
Mg443 O455 2.042 . S
Mg443 O457 2.041 . S
Mg443 O464 2.038 . S
C444 O450 1.247 . S
C444 O451 1.289 . S
C445 O463 1.245 . S
C445 O464 1.274 . S
O446 C434 1.241 . S
O446 Mg439 2.042 . S
O447 C434 1.280 . S
O447 Mg437 1.984 . S
O448 C435 1.277 . S
O448 Mg439 2.041 . S
O449 C435 1.245 . S
O449 Mg437 1.988 . S
O450 Mg437 2.061 . S
O450 C444 1.247 . S
O451 Mg440 2.106 . S
O451 Mg443 2.238 . S
O451 C444 1.289 . S
C452 O453 1.245 . S
C452 O454 1.274 . S
O453 Mg440 2.079 . S
O453 C452 1.245 . S
O454 Mg439 2.038 . S
O454 C452 1.274 . S
O455 Mg443 2.042 . S
O455 C458 1.241 . S
O456 Mg442 1.984 . S
O456 C458 1.280 . S
O457 Mg443 2.041 . S
O457 C461 1.277 . S
C458 O455 1.241 . S
C458 O456 1.280 . S
O459 Mg442 1.988 . S
O459 C461 1.245 . S
O460 C436 1.247 . S
O460 Mg442 2.061 . S
C461 O457 1.277 . S
C461 O459 1.245 . S
O462 C436 1.289 . S
O462 Mg439 2.238 . S
O462 Mg440 2.106 . S
O463 Mg440 2.079 . S
O463 C445 1.245 . S
O464 Mg443 2.038 . S
O464 C445 1.274 . S
H465 C483 0.951 . S
H466 C485 0.951 . S
H467 C487 0.950 . S
H468 C488 0.950 . S
H469 C490 0.950 . S
H470 C493 0.950 . S
H471 C494 0.950 . S
H472 C496 0.950 . S
H473 C497 0.950 . S
H474 C498 0.951 . S
H475 C500 0.951 . S
H476 C502 0.950 . S
H477 C503 0.950 . S
H478 C505 0.950 . S
H479 C508 0.950 . S
H480 C509 0.950 . S
H481 C511 0.950 . S
H482 C512 0.950 . S
C483 H465 0.951 . S
C483 C484 1.366 . S
C483 C485 1.388 . S
C484 C483 1.366 . S
C484 C488 1.385 . S
C485 H466 0.951 . S
C485 C483 1.388 . S
C485 C486 1.366 . S
C486 C485 1.366 . S
C486 C487 1.414 . S
C486 C489 1.499 . S
C487 H467 0.950 . S
C487 C486 1.414 . S
C487 C488 1.374 . S
C488 H468 0.950 . S
C488 C484 1.385 . S
C488 C487 1.374 . S
C489 C486 1.499 . S
C489 C490 1.373 . S
C489 C491 1.389 . S
C490 H469 0.950 . S
C490 C489 1.373 . S
C490 C506 1.377 . S
C491 C489 1.389 . S
C491 C492 1.524 . S
C491 C505 1.377 . S
C492 C491 1.524 . S
C492 C493 1.397 . S
C492 C497 1.363 . S
C493 H470 0.950 . S
C493 C492 1.397 . S
C493 C494 1.334 . S
C494 H471 0.950 . S
C494 C493 1.334 . S
C494 C495 1.287 . S
C495 C494 1.287 . S
C495 C496 1.524 . S
C495 H514 0.913 . S
C496 H472 0.950 . S
C496 C495 1.524 . S
C496 C497 1.415 . S
C497 H473 0.950 . S
C497 C492 1.363 . S
C497 C496 1.415 . S
C498 H474 0.951 . S
C498 C499 1.366 . S
C498 C500 1.388 . S
C499 C498 1.366 . S
C499 C503 1.385 . S
C500 H475 0.951 . S
C500 C498 1.388 . S
C500 C501 1.366 . S
C501 C500 1.366 . S
C501 C502 1.414 . S
C501 C504 1.499 . S
C502 H476 0.950 . S
C502 C501 1.414 . S
C502 C503 1.374 . S
C503 H477 0.950 . S
C503 C499 1.385 . S
C503 C502 1.374 . S
C504 C501 1.499 . S
C504 C505 1.373 . S
C504 C506 1.389 . S
C505 H478 0.950 . S
C505 C491 1.377 . S
C505 C504 1.373 . S
C506 C490 1.377 . S
C506 C504 1.389 . S
C506 C507 1.524 . S
C507 C506 1.524 . S
C507 C508 1.397 . S
C507 C512 1.363 . S
C508 H479 0.950 . S
C508 C507 1.397 . S
C508 C509 1.334 . S
C509 H480 0.950 . S
C509 C508 1.334 . S
C509 C510 1.287 . S
C510 C509 1.287 . S
C510 C511 1.524 . S
C510 H513 0.999 . S
C511 H481 0.950 . S
C511 C510 1.524 . S
C511 C512 1.415 . S
C512 H482 0.950 . S
C512 C507 1.363 . S
C512 C511 1.415 . S
H513 C510 0.999 . S
H514 C495 0.913 . S
H515 C533 0.951 . S
H516 C535 0.951 . S
H517 C537 0.950 . S
H518 C538 0.950 . S
H519 C540 0.950 . S
H520 C543 0.950 . S
H521 C544 0.950 . S
H522 C546 0.950 . S
H523 C547 0.950 . S
H524 C548 0.951 . S
H525 C550 0.951 . S
H526 C552 0.950 . S
H527 C553 0.950 . S
H528 C555 0.950 . S
H529 C558 0.950 . S
H530 C559 0.950 . S
H531 C561 0.950 . S
H532 C562 0.950 . S
C533 H515 0.951 . S
C533 C534 1.366 . S
C533 C535 1.388 . S
C534 C533 1.366 . S
C534 C538 1.385 . S
C535 H516 0.951 . S
C535 C533 1.388 . S
C535 C536 1.366 . S
C536 C535 1.366 . S
C536 C537 1.414 . S
C536 C539 1.499 . S
C537 H517 0.950 . S
C537 C536 1.414 . S
C537 C538 1.374 . S
C538 H518 0.950 . S
C538 C534 1.385 . S
C538 C537 1.374 . S
C539 C536 1.499 . S
C539 C540 1.373 . S
C539 C541 1.389 . S
C540 H519 0.950 . S
C540 C539 1.373 . S
C540 C556 1.377 . S
C541 C539 1.389 . S
C541 C542 1.524 . S
C541 C555 1.377 . S
C542 C541 1.524 . S
C542 C543 1.397 . S
C542 C547 1.363 . S
C543 H520 0.950 . S
C543 C542 1.397 . S
C543 C544 1.334 . S
C544 H521 0.950 . S
C544 C543 1.334 . S
C544 C545 1.287 . S
C545 C544 1.287 . S
C545 C546 1.524 . S
C545 H564 0.913 . S
C546 H522 0.950 . S
C546 C545 1.524 . S
C546 C547 1.415 . S
C547 H523 0.950 . S
C547 C542 1.363 . S
C547 C546 1.415 . S
C548 H524 0.951 . S
C548 C549 1.366 . S
C548 C550 1.388 . S
C549 C548 1.366 . S
C549 C553 1.385 . S
C550 H525 0.951 . S
C550 C548 1.388 . S
C550 C551 1.366 . S
C551 C550 1.366 . S
C551 C552 1.414 . S
C551 C554 1.499 . S
C552 H526 0.950 . S
C552 C551 1.414 . S
C552 C553 1.374 . S
C553 H527 0.950 . S
C553 C549 1.385 . S
C553 C552 1.374 . S
C554 C551 1.499 . S
C554 C555 1.373 . S
C554 C556 1.389 . S
C555 H528 0.950 . S
C555 C541 1.377 . S
C555 C554 1.373 . S
C556 C540 1.377 . S
C556 C554 1.389 . S
C556 C557 1.524 . S
C557 C556 1.524 . S
C557 C558 1.397 . S
C557 C562 1.363 . S
C558 H529 0.950 . S
C558 C557 1.397 . S
C558 C559 1.334 . S
C559 H530 0.950 . S
C559 C558 1.334 . S
C559 C560 1.287 . S
C560 C559 1.287 . S
C560 C561 1.524 . S
C560 H563 0.999 . S
C561 H531 0.950 . S
C561 C560 1.524 . S
C561 C562 1.415 . S
C562 H532 0.950 . S
C562 C557 1.363 . S
C562 C561 1.415 . S
H563 C560 0.999 . S
H564 C545 0.913 . S
H565 C583 0.951 . S
H566 C585 0.951 . S
H567 C587 0.950 . S
H568 C588 0.950 . S
H569 C590 0.950 . S
H570 C593 0.950 . S
H571 C594 0.950 . S
H572 C596 0.950 . S
H573 C597 0.950 . S
H574 C598 0.951 . S
H575 C600 0.951 . S
H576 C602 0.950 . S
H577 C603 0.950 . S
H578 C605 0.950 . S
H579 C608 0.950 . S
H580 C609 0.950 . S
H581 C611 0.950 . S
H582 C612 0.950 . S
C583 H565 0.951 . S
C583 C584 1.366 . S
C583 C585 1.388 . S
C584 C583 1.366 . S
C584 C588 1.385 . S
C585 H566 0.951 . S
C585 C583 1.388 . S
C585 C586 1.366 . S
C586 C585 1.366 . S
C586 C587 1.414 . S
C586 C589 1.499 . S
C587 H567 0.950 . S
C587 C586 1.414 . S
C587 C588 1.374 . S
C588 H568 0.950 . S
C588 C584 1.385 . S
C588 C587 1.374 . S
C589 C586 1.499 . S
C589 C590 1.373 . S
C589 C591 1.389 . S
C590 H569 0.950 . S
C590 C589 1.373 . S
C590 C606 1.377 . S
C591 C589 1.389 . S
C591 C592 1.524 . S
C591 C605 1.377 . S
C592 C591 1.524 . S
C592 C593 1.397 . S
C592 C597 1.363 . S
C593 H570 0.950 . S
C593 C592 1.397 . S
C593 C594 1.334 . S
C594 H571 0.950 . S
C594 C593 1.334 . S
C594 C595 1.287 . S
C595 C594 1.287 . S
C595 C596 1.524 . S
C595 H614 0.913 . S
C596 H572 0.950 . S
C596 C595 1.524 . S
C596 C597 1.415 . S
C597 H573 0.950 . S
C597 C592 1.363 . S
C597 C596 1.415 . S
C598 H574 0.951 . S
C598 C599 1.366 . S
C598 C600 1.388 . S
C599 C598 1.366 . S
C599 C603 1.385 . S
C600 H575 0.951 . S
C600 C598 1.388 . S
C600 C601 1.366 . S
C601 C600 1.366 . S
C601 C602 1.414 . S
C601 C604 1.499 . S
C602 H576 0.950 . S
C602 C601 1.414 . S
C602 C603 1.374 . S
C603 H577 0.950 . S
C603 C599 1.385 . S
C603 C602 1.374 . S
C604 C601 1.499 . S
C604 C605 1.373 . S
C604 C606 1.389 . S
C605 H578 0.950 . S
C605 C591 1.377 . S
C605 C604 1.373 . S
C606 C590 1.377 . S
C606 C604 1.389 . S
C606 C607 1.524 . S
C607 C606 1.524 . S
C607 C608 1.397 . S
C607 C612 1.363 . S
C608 H579 0.950 . S
C608 C607 1.397 . S
C608 C609 1.334 . S
C609 H580 0.950 . S
C609 C608 1.334 . S
C609 C610 1.287 . S
C610 C609 1.287 . S
C610 C611 1.524 . S
C610 H613 0.999 . S
C611 H581 0.950 . S
C611 C610 1.524 . S
C611 C612 1.415 . S
C612 H582 0.950 . S
C612 C607 1.363 . S
C612 C611 1.415 . S
H613 C610 0.999 . S
H614 C595 0.913 . S
H615 C633 0.951 . S
H616 C635 0.951 . S
H617 C637 0.950 . S
H618 C638 0.950 . S
H619 C640 0.950 . S
H620 C643 0.950 . S
H621 C644 0.950 . S
H622 C646 0.950 . S
H623 C647 0.950 . S
H624 C648 0.951 . S
H625 C650 0.951 . S
H626 C652 0.950 . S
H627 C653 0.950 . S
H628 C655 0.950 . S
H629 C658 0.950 . S
H630 C659 0.950 . S
H631 C661 0.950 . S
H632 C662 0.950 . S
C633 H615 0.951 . S
C633 C634 1.366 . S
C633 C635 1.388 . S
C634 C633 1.366 . S
C634 C638 1.385 . S
C635 H616 0.951 . S
C635 C633 1.388 . S
C635 C636 1.366 . S
C636 C635 1.366 . S
C636 C637 1.414 . S
C636 C639 1.499 . S
C637 H617 0.950 . S
C637 C636 1.414 . S
C637 C638 1.374 . S
C638 H618 0.950 . S
C638 C634 1.385 . S
C638 C637 1.374 . S
C639 C636 1.499 . S
C639 C640 1.373 . S
C639 C641 1.389 . S
C640 H619 0.950 . S
C640 C639 1.373 . S
C640 C656 1.377 . S
C641 C639 1.389 . S
C641 C642 1.524 . S
C641 C655 1.377 . S
C642 C641 1.524 . S
C642 C643 1.397 . S
C642 C647 1.363 . S
C643 H620 0.950 . S
C643 C642 1.397 . S
C643 C644 1.334 . S
C644 H621 0.950 . S
C644 C643 1.334 . S
C644 C645 1.287 . S
C645 C644 1.287 . S
C645 C646 1.524 . S
C645 H664 0.913 . S
C646 H622 0.950 . S
C646 C645 1.524 . S
C646 C647 1.415 . S
C647 H623 0.950 . S
C647 C642 1.363 . S
C647 C646 1.415 . S
C648 H624 0.951 . S
C648 C649 1.366 . S
C648 C650 1.388 . S
C649 C648 1.366 . S
C649 C653 1.385 . S
C650 H625 0.951 . S
C650 C648 1.388 . S
C650 C651 1.366 . S
C651 C650 1.366 . S
C651 C652 1.414 . S
C651 C654 1.499 . S
C652 H626 0.950 . S
C652 C651 1.414 . S
C652 C653 1.374 . S
C653 H627 0.950 . S
C653 C649 1.385 . S
C653 C652 1.374 . S
C654 C651 1.499 . S
C654 C655 1.373 . S
C654 C656 1.389 . S
C655 H628 0.950 . S
C655 C641 1.377 . S
C655 C654 1.373 . S
C656 C640 1.377 . S
C656 C654 1.389 . S
C656 C657 1.524 . S
C657 C656 1.524 . S
C657 C658 1.397 . S
C657 C662 1.363 . S
C658 H629 0.950 . S
C658 C657 1.397 . S
C658 C659 1.334 . S
C659 H630 0.950 . S
C659 C658 1.334 . S
C659 C660 1.287 . S
C660 C659 1.287 . S
C660 C661 1.524 . S
C660 H663 0.999 . S
C661 H631 0.950 . S
C661 C660 1.524 . S
C661 C662 1.415 . S
C662 H632 0.950 . S
C662 C657 1.363 . S
C662 C661 1.415 . S
H663 C660 0.999 . S
H664 C645 0.913 . S
H665 C683 0.951 . S
H666 C685 0.951 . S
H667 C687 0.950 . S
H668 C688 0.950 . S
H669 C690 0.950 . S
H670 C693 0.950 . S
H671 C694 0.950 . S
H672 C696 0.950 . S
H673 C697 0.950 . S
H674 C698 0.951 . S
H675 C700 0.951 . S
H676 C702 0.950 . S
H677 C703 0.950 . S
H678 C705 0.950 . S
H679 C708 0.950 . S
H680 C709 0.950 . S
H681 C711 0.950 . S
H682 C712 0.950 . S
C683 H665 0.951 . S
C683 C684 1.366 . S
C683 C685 1.388 . S
C684 C683 1.366 . S
C684 C688 1.385 . S
C685 H666 0.951 . S
C685 C683 1.388 . S
C685 C686 1.366 . S
C686 C685 1.366 . S
C686 C687 1.414 . S
C686 C689 1.499 . S
C687 H667 0.950 . S
C687 C686 1.414 . S
C687 C688 1.374 . S
C688 H668 0.950 . S
C688 C684 1.385 . S
C688 C687 1.374 . S
C689 C686 1.499 . S
C689 C690 1.373 . S
C689 C691 1.389 . S
C690 H669 0.950 . S
C690 C689 1.373 . S
C690 C706 1.377 . S
C691 C689 1.389 . S
C691 C692 1.524 . S
C691 C705 1.377 . S
C692 C691 1.524 . S
C692 C693 1.397 . S
C692 C697 1.363 . S
C693 H670 0.950 . S
C693 C692 1.397 . S
C693 C694 1.334 . S
C694 H671 0.950 . S
C694 C693 1.334 . S
C694 C695 1.287 . S
C695 C694 1.287 . S
C695 C696 1.524 . S
C695 H714 0.913 . S
C696 H672 0.950 . S
C696 C695 1.524 . S
C696 C697 1.415 . S
C697 H673 0.950 . S
C697 C692 1.363 . S
C697 C696 1.415 . S
C698 H674 0.951 . S
C698 C699 1.366 . S
C698 C700 1.388 . S
C699 C698 1.366 . S
C699 C703 1.385 . S
C700 H675 0.951 . S
C700 C698 1.388 . S
C700 C701 1.366 . S
C701 C700 1.366 . S
C701 C702 1.414 . S
C701 C704 1.499 . S
C702 H676 0.950 . S
C702 C701 1.414 . S
C702 C703 1.374 . S
C703 H677 0.950 . S
C703 C699 1.385 . S
C703 C702 1.374 . S
C704 C701 1.499 . S
C704 C705 1.373 . S
C704 C706 1.389 . S
C705 H678 0.950 . S
C705 C691 1.377 . S
C705 C704 1.373 . S
C706 C690 1.377 . S
C706 C704 1.389 . S
C706 C707 1.524 . S
C707 C706 1.524 . S
C707 C708 1.397 . S
C707 C712 1.363 . S
C708 H679 0.950 . S
C708 C707 1.397 . S
C708 C709 1.334 . S
C709 H680 0.950 . S
C709 C708 1.334 . S
C709 C710 1.287 . S
C710 C709 1.287 . S
C710 C711 1.524 . S
C710 H713 0.999 . S
C711 H681 0.950 . S
C711 C710 1.524 . S
C711 C712 1.415 . S
C712 H682 0.950 . S
C712 C707 1.363 . S
C712 C711 1.415 . S
H713 C710 0.999 . S
H714 C695 0.913 . S
H715 C733 0.951 . S
H716 C735 0.951 . S
H717 C737 0.950 . S
H718 C738 0.950 . S
H719 C740 0.950 . S
H720 C743 0.950 . S
H721 C744 0.950 . S
H722 C746 0.950 . S
H723 C747 0.950 . S
H724 C748 0.951 . S
H725 C750 0.951 . S
H726 C752 0.950 . S
H727 C753 0.950 . S
H728 C755 0.950 . S
H729 C758 0.950 . S
H730 C759 0.950 . S
H731 C761 0.950 . S
H732 C762 0.950 . S
C733 H715 0.951 . S
C733 C734 1.366 . S
C733 C735 1.388 . S
C734 C733 1.366 . S
C734 C738 1.385 . S
C735 H716 0.951 . S
C735 C733 1.388 . S
C735 C736 1.366 . S
C736 C735 1.366 . S
C736 C737 1.414 . S
C736 C739 1.499 . S
C737 H717 0.950 . S
C737 C736 1.414 . S
C737 C738 1.374 . S
C738 H718 0.950 . S
C738 C734 1.385 . S
C738 C737 1.374 . S
C739 C736 1.499 . S
C739 C740 1.373 . S
C739 C741 1.389 . S
C740 H719 0.950 . S
C740 C739 1.373 . S
C740 C756 1.377 . S
C741 C739 1.389 . S
C741 C742 1.524 . S
C741 C755 1.377 . S
C742 C741 1.524 . S
C742 C743 1.397 . S
C742 C747 1.363 . S
C743 H720 0.950 . S
C743 C742 1.397 . S
C743 C744 1.334 . S
C744 H721 0.950 . S
C744 C743 1.334 . S
C744 C745 1.287 . S
C745 C744 1.287 . S
C745 C746 1.524 . S
C745 H764 0.913 . S
C746 H722 0.950 . S
C746 C745 1.524 . S
C746 C747 1.415 . S
C747 H723 0.950 . S
C747 C742 1.363 . S
C747 C746 1.415 . S
C748 H724 0.951 . S
C748 C749 1.366 . S
C748 C750 1.388 . S
C749 C748 1.366 . S
C749 C753 1.385 . S
C750 H725 0.951 . S
C750 C748 1.388 . S
C750 C751 1.366 . S
C751 C750 1.366 . S
C751 C752 1.414 . S
C751 C754 1.499 . S
C752 H726 0.950 . S
C752 C751 1.414 . S
C752 C753 1.374 . S
C753 H727 0.950 . S
C753 C749 1.385 . S
C753 C752 1.374 . S
C754 C751 1.499 . S
C754 C755 1.373 . S
C754 C756 1.389 . S
C755 H728 0.950 . S
C755 C741 1.377 . S
C755 C754 1.373 . S
C756 C740 1.377 . S
C756 C754 1.389 . S
C756 C757 1.524 . S
C757 C756 1.524 . S
C757 C758 1.397 . S
C757 C762 1.363 . S
C758 H729 0.950 . S
C758 C757 1.397 . S
C758 C759 1.334 . S
C759 H730 0.950 . S
C759 C758 1.334 . S
C759 C760 1.287 . S
C760 C759 1.287 . S
C760 C761 1.524 . S
C760 H763 0.999 . S
C761 H731 0.950 . S
C761 C760 1.524 . S
C761 C762 1.415 . S
C762 H732 0.950 . S
C762 C757 1.363 . S
C762 C761 1.415 . S
H763 C760 0.999 . S
H764 C745 0.913 . S
H765 C783 0.951 . S
H766 C785 0.951 . S
H767 C787 0.950 . S
H768 C788 0.950 . S
H769 C790 0.950 . S
H770 C793 0.950 . S
H771 C794 0.950 . S
H772 C796 0.950 . S
H773 C797 0.950 . S
H774 C798 0.951 . S
H775 C800 0.951 . S
H776 C802 0.950 . S
H777 C803 0.950 . S
H778 C805 0.950 . S
H779 C808 0.950 . S
H780 C809 0.950 . S
H781 C811 0.950 . S
H782 C812 0.950 . S
C783 H765 0.951 . S
C783 C784 1.366 . S
C783 C785 1.388 . S
C784 C783 1.366 . S
C784 C788 1.385 . S
C785 H766 0.951 . S
C785 C783 1.388 . S
C785 C786 1.366 . S
C786 C785 1.366 . S
C786 C787 1.414 . S
C786 C789 1.499 . S
C787 H767 0.950 . S
C787 C786 1.414 . S
C787 C788 1.374 . S
C788 H768 0.950 . S
C788 C784 1.385 . S
C788 C787 1.374 . S
C789 C786 1.499 . S
C789 C790 1.373 . S
C789 C791 1.389 . S
C790 H769 0.950 . S
C790 C789 1.373 . S
C790 C806 1.377 . S
C791 C789 1.389 . S
C791 C792 1.524 . S
C791 C805 1.377 . S
C792 C791 1.524 . S
C792 C793 1.397 . S
C792 C797 1.363 . S
C793 H770 0.950 . S
C793 C792 1.397 . S
C793 C794 1.334 . S
C794 H771 0.950 . S
C794 C793 1.334 . S
C794 C795 1.287 . S
C795 C794 1.287 . S
C795 C796 1.524 . S
C795 H814 0.913 . S
C796 H772 0.950 . S
C796 C795 1.524 . S
C796 C797 1.415 . S
C797 H773 0.950 . S
C797 C792 1.363 . S
C797 C796 1.415 . S
C798 H774 0.951 . S
C798 C799 1.366 . S
C798 C800 1.388 . S
C799 C798 1.366 . S
C799 C803 1.385 . S
C800 H775 0.951 . S
C800 C798 1.388 . S
C800 C801 1.366 . S
C801 C800 1.366 . S
C801 C802 1.414 . S
C801 C804 1.499 . S
C802 H776 0.950 . S
C802 C801 1.414 . S
C802 C803 1.374 . S
C803 H777 0.950 . S
C803 C799 1.385 . S
C803 C802 1.374 . S
C804 C801 1.499 . S
C804 C805 1.373 . S
C804 C806 1.389 . S
C805 H778 0.950 . S
C805 C791 1.377 . S
C805 C804 1.373 . S
C806 C790 1.377 . S
C806 C804 1.389 . S
C806 C807 1.524 . S
C807 C806 1.524 . S
C807 C808 1.397 . S
C807 C812 1.363 . S
C808 H779 0.950 . S
C808 C807 1.397 . S
C808 C809 1.334 . S
C809 H780 0.950 . S
C809 C808 1.334 . S
C809 C810 1.287 . S
C810 C809 1.287 . S
C810 C811 1.524 . S
C810 H813 0.999 . S
C811 H781 0.950 . S
C811 C810 1.524 . S
C811 C812 1.415 . S
C812 H782 0.950 . S
C812 C807 1.363 . S
C812 C811 1.415 . S
H813 C810 0.999 . S
H814 C795 0.913 . S
H815 C833 0.951 . S
H816 C835 0.951 . S
H817 C837 0.950 . S
H818 C838 0.950 . S
H819 C840 0.950 . S
H820 C843 0.950 . S
H821 C844 0.950 . S
H822 C846 0.950 . S
H823 C847 0.950 . S
H824 C848 0.951 . S
H825 C850 0.951 . S
H826 C852 0.950 . S
H827 C853 0.950 . S
H828 C855 0.950 . S
H829 C858 0.950 . S
H830 C859 0.950 . S
H831 C861 0.950 . S
H832 C862 0.950 . S
C833 H815 0.951 . S
C833 C834 1.366 . S
C833 C835 1.388 . S
C834 C833 1.366 . S
C834 C838 1.385 . S
C835 H816 0.951 . S
C835 C833 1.388 . S
C835 C836 1.366 . S
C836 C835 1.366 . S
C836 C837 1.414 . S
C836 C839 1.499 . S
C837 H817 0.950 . S
C837 C836 1.414 . S
C837 C838 1.374 . S
C838 H818 0.950 . S
C838 C834 1.385 . S
C838 C837 1.374 . S
C839 C836 1.499 . S
C839 C840 1.373 . S
C839 C841 1.389 . S
C840 H819 0.950 . S
C840 C839 1.373 . S
C840 C856 1.377 . S
C841 C839 1.389 . S
C841 C842 1.524 . S
C841 C855 1.377 . S
C842 C841 1.524 . S
C842 C843 1.397 . S
C842 C847 1.363 . S
C843 H820 0.950 . S
C843 C842 1.397 . S
C843 C844 1.334 . S
C844 H821 0.950 . S
C844 C843 1.334 . S
C844 C845 1.287 . S
C845 C844 1.287 . S
C845 C846 1.524 . S
C845 H864 0.913 . S
C846 H822 0.950 . S
C846 C845 1.524 . S
C846 C847 1.415 . S
C847 H823 0.950 . S
C847 C842 1.363 . S
C847 C846 1.415 . S
C848 H824 0.951 . S
C848 C849 1.366 . S
C848 C850 1.388 . S
C849 C848 1.366 . S
C849 C853 1.385 . S
C850 H825 0.951 . S
C850 C848 1.388 . S
C850 C851 1.366 . S
C851 C850 1.366 . S
C851 C852 1.414 . S
C851 C854 1.499 . S
C852 H826 0.950 . S
C852 C851 1.414 . S
C852 C853 1.374 . S
C853 H827 0.950 . S
C853 C849 1.385 . S
C853 C852 1.374 . S
C854 C851 1.499 . S
C854 C855 1.373 . S
C854 C856 1.389 . S
C855 H828 0.950 . S
C855 C841 1.377 . S
C855 C854 1.373 . S
C856 C840 1.377 . S
C856 C854 1.389 . S
C856 C857 1.524 . S
C857 C856 1.524 . S
C857 C858 1.397 . S
C857 C862 1.363 . S
C858 H829 0.950 . S
C858 C857 1.397 . S
C858 C859 1.334 . S
C859 H830 0.950 . S
C859 C858 1.334 . S
C859 C860 1.287 . S
C860 C859 1.287 . S
C860 C861 1.524 . S
C860 H863 0.999 . S
C861 H831 0.950 . S
C861 C860 1.524 . S
C861 C862 1.415 . S
C862 H832 0.950 . S
C862 C857 1.363 . S
C862 C861 1.415 . S
H863 C860 0.999 . S
H864 C845 0.913 . S
H865 C883 0.951 . S
H866 C885 0.951 . S
H867 C887 0.950 . S
H868 C888 0.950 . S
H869 C890 0.950 . S
H870 C893 0.950 . S
H871 C894 0.950 . S
H872 C896 0.958 . S
H873 C897 0.950 . S
H874 C898 0.951 . S
H875 C900 0.951 . S
H876 C902 0.950 . S
H877 C903 0.950 . S
H878 C905 0.950 . S
H879 C908 0.950 . S
H880 C909 0.950 . S
H881 C911 0.950 . S
H882 C912 0.950 . S
C883 H865 0.951 . S
C883 C884 1.366 . S
C883 C885 1.388 . S
C884 C883 1.366 . S
C884 C888 1.385 . S
C885 H866 0.951 . S
C885 C883 1.388 . S
C885 C886 1.366 . S
C886 C885 1.366 . S
C886 C887 1.414 . S
C886 C889 1.499 . S
C887 H867 0.950 . S
C887 C886 1.414 . S
C887 C888 1.374 . S
C888 H868 0.950 . S
C888 C884 1.385 . S
C888 C887 1.374 . S
C889 C886 1.499 . S
C889 C890 1.373 . S
C889 C891 1.389 . S
C890 H869 0.950 . S
C890 C889 1.373 . S
C890 C906 1.377 . S
C891 C889 1.389 . S
C891 C892 1.524 . S
C891 C905 1.377 . S
C892 C891 1.524 . S
C892 C893 1.397 . S
C892 C897 1.363 . S
C893 H870 0.950 . S
C893 C892 1.397 . S
C893 C894 1.334 . S
C894 H871 0.950 . S
C894 C893 1.334 . S
C894 C895 1.287 . S
C895 C894 1.287 . S
C895 C896 1.524 . S
C895 H914 0.913 1_556 S
C896 H872 0.958 . S
C896 C895 1.524 . S
C896 C897 1.415 . S
C897 H873 0.950 . S
C897 C892 1.363 . S
C897 C896 1.415 . S
C898 H874 0.951 . S
C898 C899 1.366 . S
C898 C900 1.388 . S
C899 C898 1.366 . S
C899 C903 1.385 . S
C900 H875 0.951 . S
C900 C898 1.388 . S
C900 C901 1.366 . S
C901 C900 1.366 . S
C901 C902 1.414 . S
C901 C904 1.499 . S
C902 H876 0.950 . S
C902 C901 1.414 . S
C902 C903 1.374 . S
C903 H877 0.950 . S
C903 C899 1.385 . S
C903 C902 1.374 . S
C904 C901 1.499 . S
C904 C905 1.373 . S
C904 C906 1.389 . S
C905 H878 0.950 . S
C905 C891 1.377 . S
C905 C904 1.373 . S
C906 C890 1.377 . S
C906 C904 1.389 . S
C906 C907 1.524 . S
C907 C906 1.524 . S
C907 C908 1.397 . S
C907 C912 1.363 . S
C908 H879 0.950 . S
C908 C907 1.397 . S
C908 C909 1.334 . S
C909 H880 0.950 . S
C909 C908 1.334 . S
C909 C910 1.287 . S
C910 C909 1.287 . S
C910 C911 1.524 . S
C910 H913 0.999 . S
C911 H881 0.950 . S
C911 C910 1.524 . S
C911 C912 1.415 . S
C912 H882 0.950 . S
C912 C907 1.363 . S
C912 C911 1.415 . S
H913 C910 0.999 . S
H914 C895 0.913 1_554 S
H915 C933 0.951 . S
H916 C935 0.951 . S
H917 C937 0.950 . S
H918 C938 0.950 . S
H919 C940 0.950 . S
H920 C943 0.950 . S
H921 C944 0.950 . S
H922 C946 0.950 . S
H923 C947 0.951 1_556 S
H924 C948 0.951 . S
H925 C950 0.951 . S
H926 C952 0.950 . S
H927 C953 0.950 . S
H928 C955 0.950 . S
H929 C958 0.950 . S
H930 C959 0.950 . S
H931 C961 0.950 . S
H932 C962 0.950 . S
C933 H915 0.951 . S
C933 C934 1.366 . S
C933 C935 1.388 . S
C934 C933 1.366 . S
C934 C938 1.385 1_554 S
C935 H916 0.951 . S
C935 C933 1.388 . S
C935 C936 1.366 1_554 S
C936 C935 1.366 1_556 S
C936 C937 1.414 . S
C936 C939 1.499 . S
C937 H917 0.950 . S
C937 C936 1.414 . S
C937 C938 1.374 . S
C938 H918 0.950 . S
C938 C934 1.385 1_556 S
C938 C937 1.374 . S
C939 C936 1.499 . S
C939 C940 1.373 . S
C939 C941 1.389 . S
C940 H919 0.950 . S
C940 C939 1.373 . S
C940 C956 1.377 . S
C941 C939 1.389 . S
C941 C942 1.524 . S
C941 C955 1.377 . S
C942 C941 1.524 . S
C942 C943 1.397 . S
C942 C947 1.363 1_556 S
C943 H920 0.950 . S
C943 C942 1.397 . S
C943 C944 1.334 1_556 S
C944 H921 0.950 . S
C944 C943 1.334 1_554 S
C944 C945 1.287 . S
C945 C944 1.287 . S
C945 C946 1.524 . S
C945 H964 0.913 . S
C946 H922 0.950 . S
C946 C945 1.524 . S
C946 C947 1.415 . S
C947 H923 0.951 1_554 S
C947 C942 1.363 1_554 S
C947 C946 1.415 . S
C948 H924 0.951 . S
C948 C949 1.366 . S
C948 C950 1.388 . S
C949 C948 1.366 . S
C949 C953 1.385 . S
C950 H925 0.951 . S
C950 C948 1.388 . S
C950 C951 1.366 . S
C951 C950 1.366 . S
C951 C952 1.414 . S
C951 C954 1.499 . S
C952 H926 0.950 . S
C952 C951 1.414 . S
C952 C953 1.374 . S
C953 H927 0.950 . S
C953 C949 1.385 . S
C953 C952 1.374 . S
C954 C951 1.499 . S
C954 C955 1.373 . S
C954 C956 1.389 . S
C955 H928 0.950 . S
C955 C941 1.377 . S
C955 C954 1.373 . S
C956 C940 1.377 . S
C956 C954 1.389 . S
C956 C957 1.524 . S
C957 C956 1.524 . S
C957 C958 1.397 . S
C957 C962 1.363 . S
C958 H929 0.950 . S
C958 C957 1.397 . S
C958 C959 1.334 . S
C959 H930 0.950 . S
C959 C958 1.334 . S
C959 C960 1.287 . S
C960 C959 1.287 . S
C960 C961 1.524 . S
C960 H963 0.999 . S
C961 H931 0.950 . S
C961 C960 1.524 . S
C961 C962 1.415 . S
C962 H932 0.950 . S
C962 C957 1.363 . S
C962 C961 1.415 . S
H963 C960 0.999 . S
H964 C945 0.913 . S
H965 C983 0.947 1_554 S
H966 C985 0.951 . S
H967 C987 0.950 . S
H968 C988 0.950 . S
H969 C990 0.950 . S
H970 C993 0.950 . S
H971 C994 0.950 . S
H972 C996 0.950 . S
H973 C997 0.950 . S
H974 C998 0.951 . S
H975 C1000 0.951 . S
H976 C1002 0.950 . S
H977 C1003 0.950 . S
H978 C1005 0.950 . S
H979 C1008 0.950 . S
H980 C1009 0.950 . S
H981 C1011 0.950 . S
H982 C1012 0.950 . S
C983 H965 0.947 1_556 S
C983 C984 1.366 . S
C983 C985 1.391 . S
C984 C983 1.366 . S
C984 C988 1.385 . S
C985 H966 0.951 . S
C985 C983 1.391 . S
C985 C986 1.366 . S
C986 C985 1.366 . S
C986 C987 1.414 . S
C986 C989 1.499 . S
C987 H967 0.950 . S
C987 C986 1.414 . S
C987 C988 1.374 . S
C988 H968 0.950 . S
C988 C984 1.385 . S
C988 C987 1.374 . S
C989 C986 1.499 . S
C989 C990 1.373 . S
C989 C991 1.389 . S
C990 H969 0.950 . S
C990 C989 1.373 . S
C990 C1006 1.377 . S
C991 C989 1.389 . S
C991 C992 1.524 . S
C991 C1005 1.377 . S
C992 C991 1.524 . S
C992 C993 1.397 . S
C992 C997 1.363 . S
C993 H970 0.950 . S
C993 C992 1.397 . S
C993 C994 1.334 1_556 S
C994 H971 0.950 . S
C994 C993 1.334 1_554 S
C994 C995 1.287 . S
C995 C994 1.287 . S
C995 C996 1.524 . S
C995 H1014 0.913 . S
C996 H972 0.950 . S
C996 C995 1.524 . S
C996 C997 1.415 1_554 S
C997 H973 0.950 . S
C997 C992 1.363 . S
C997 C996 1.415 1_556 S
C998 H974 0.951 . S
C998 C999 1.366 . S
C998 C1000 1.388 . S
C999 C998 1.366 . S
C999 C1003 1.385 . S
C1000 H975 0.951 . S
C1000 C998 1.388 . S
C1000 C1001 1.366 . S
C1001 C1000 1.366 . S
C1001 C1002 1.414 . S
C1001 C1004 1.499 . S
C1002 H976 0.950 . S
C1002 C1001 1.414 . S
C1002 C1003 1.374 . S
C1003 H977 0.950 . S
C1003 C999 1.385 . S
C1003 C1002 1.374 . S
C1004 C1001 1.499 . S
C1004 C1005 1.373 . S
C1004 C1006 1.389 . S
C1005 H978 0.950 . S
C1005 C991 1.377 . S
C1005 C1004 1.373 . S
C1006 C990 1.377 . S
C1006 C1004 1.389 . S
C1006 C1007 1.524 . S
C1007 C1006 1.524 . S
C1007 C1008 1.397 . S
C1007 C1012 1.363 . S
C1008 H979 0.950 . S
C1008 C1007 1.397 . S
C1008 C1009 1.334 . S
C1009 H980 0.950 . S
C1009 C1008 1.334 . S
C1009 C1010 1.287 . S
C1010 C1009 1.287 . S
C1010 C1011 1.524 . S
C1010 H1013 0.999 . S
C1011 H981 0.950 . S
C1011 C1010 1.524 . S
C1011 C1012 1.415 . S
C1012 H982 0.950 . S
C1012 C1007 1.363 . S
C1012 C1011 1.415 . S
H1013 C1010 0.999 . S
H1014 C995 0.913 . S
H1015 C1033 0.951 . S
H1016 C1035 0.951 . S
H1017 C1037 0.950 . S
H1018 C1038 0.946 1_554 S
H1019 C1040 0.950 . S
H1020 C1043 0.950 . S
H1021 C1044 0.950 . S
H1022 C1046 0.950 . S
H1023 C1047 0.950 . S
H1024 C1048 0.951 . S
H1025 C1050 0.951 . S
H1026 C1052 0.950 . S
H1027 C1053 0.950 . S
H1028 C1055 0.950 . S
H1029 C1058 0.950 . S
H1030 C1059 0.950 . S
H1031 C1061 0.950 . S
H1032 C1062 0.950 . S
C1033 H1015 0.951 . S
C1033 C1034 1.366 . S
C1033 C1035 1.388 . S
C1034 C1033 1.366 . S
C1034 C1038 1.386 . S
C1035 H1016 0.951 . S
C1035 C1033 1.388 . S
C1035 C1036 1.366 . S
C1036 C1035 1.366 . S
C1036 C1037 1.414 . S
C1036 C1039 1.499 . S
C1037 H1017 0.950 . S
C1037 C1036 1.414 . S
C1037 C1038 1.377 . S
C1038 H1018 0.946 1_556 S
C1038 C1034 1.386 . S
C1038 C1037 1.377 . S
C1039 C1036 1.499 . S
C1039 C1040 1.373 . S
C1039 C1041 1.389 . S
C1040 H1019 0.950 . S
C1040 C1039 1.373 . S
C1040 C1056 1.377 . S
C1041 C1039 1.389 . S
C1041 C1042 1.524 . S
C1041 C1055 1.377 . S
C1042 C1041 1.524 . S
C1042 C1043 1.397 . S
C1042 C1047 1.363 . S
C1043 H1020 0.950 . S
C1043 C1042 1.397 . S
C1043 C1044 1.334 . S
C1044 H1021 0.950 . S
C1044 C1043 1.334 . S
C1044 C1045 1.287 . S
C1045 C1044 1.287 . S
C1045 C1046 1.524 . S
C1045 H1064 0.913 . S
C1046 H1022 0.950 . S
C1046 C1045 1.524 . S
C1046 C1047 1.415 . S
C1047 H1023 0.950 . S
C1047 C1042 1.363 . S
C1047 C1046 1.415 . S
C1048 H1024 0.951 . S
C1048 C1049 1.366 . S
C1048 C1050 1.388 . S
C1049 C1048 1.366 . S
C1049 C1053 1.385 . S
C1050 H1025 0.951 . S
C1050 C1048 1.388 . S
C1050 C1051 1.366 . S
C1051 C1050 1.366 . S
C1051 C1052 1.414 . S
C1051 C1054 1.499 . S
C1052 H1026 0.950 . S
C1052 C1051 1.414 . S
C1052 C1053 1.374 . S
C1053 H1027 0.950 . S
C1053 C1049 1.385 . S
C1053 C1052 1.374 . S
C1054 C1051 1.499 . S
C1054 C1055 1.373 . S
C1054 C1056 1.389 . S
C1055 H1028 0.950 . S
C1055 C1041 1.377 . S
C1055 C1054 1.373 . S
C1056 C1040 1.377 . S
C1056 C1054 1.389 . S
C1056 C1057 1.524 . S
C1057 C1056 1.524 . S
C1057 C1058 1.397 . S
C1057 C1062 1.363 . S
C1058 H1029 0.950 . S
C1058 C1057 1.397 . S
C1058 C1059 1.334 . S
C1059 H1030 0.950 . S
C1059 C1058 1.334 . S
C1059 C1060 1.287 . S
C1060 C1059 1.287 . S
C1060 C1061 1.524 . S
C1060 H1063 0.999 . S
C1061 H1031 0.950 . S
C1061 C1060 1.524 . S
C1061 C1062 1.415 . S
C1062 H1032 0.950 . S
C1062 C1057 1.363 . S
C1062 C1061 1.415 . S
H1063 C1060 0.999 . S
H1064 C1045 0.913 . S
H1065 C1083 0.951 . S
H1066 C1085 0.951 . S
H1067 C1087 0.950 . S
H1068 C1088 0.950 . S
H1069 C1090 0.950 . S
H1070 C1093 0.950 . S
H1071 C1094 0.950 . S
H1072 C1096 0.950 . S
H1073 C1097 0.950 . S
H1074 C1098 0.951 . S
H1075 C1100 0.951 . S
H1076 C1102 0.950 . S
H1077 C1103 0.950 . S
H1078 C1105 0.950 . S
H1079 C1108 0.950 . S
H1080 C1109 0.950 . S
H1081 C1111 0.950 . S
H1082 C1112 0.950 . S
C1083 H1065 0.951 . S
C1083 C1084 1.366 . S
C1083 C1085 1.388 . S
C1084 C1083 1.366 . S
C1084 C1088 1.385 . S
C1085 H1066 0.951 . S
C1085 C1083 1.388 . S
C1085 C1086 1.366 . S
C1086 C1085 1.366 . S
C1086 C1087 1.414 . S
C1086 C1089 1.499 . S
C1087 H1067 0.950 . S
C1087 C1086 1.414 . S
C1087 C1088 1.374 . S
C1088 H1068 0.950 . S
C1088 C1084 1.385 . S
C1088 C1087 1.374 . S
C1089 C1086 1.499 . S
C1089 C1090 1.373 . S
C1089 C1091 1.389 . S
C1090 H1069 0.950 . S
C1090 C1089 1.373 . S
C1090 C1106 1.377 . S
C1091 C1089 1.389 . S
C1091 C1092 1.524 . S
C1091 C1105 1.377 . S
C1092 C1091 1.524 . S
C1092 C1093 1.397 . S
C1092 C1097 1.363 . S
C1093 H1070 0.950 . S
C1093 C1092 1.397 . S
C1093 C1094 1.334 . S
C1094 H1071 0.950 . S
C1094 C1093 1.334 . S
C1094 C1095 1.287 . S
C1095 C1094 1.287 . S
C1095 C1096 1.524 . S
C1095 H1114 0.913 . S
C1096 H1072 0.950 . S
C1096 C1095 1.524 . S
C1096 C1097 1.415 . S
C1097 H1073 0.950 . S
C1097 C1092 1.363 . S
C1097 C1096 1.415 . S
C1098 H1074 0.951 . S
C1098 C1099 1.366 . S
C1098 C1100 1.388 . S
C1099 C1098 1.366 . S
C1099 C1103 1.385 . S
C1100 H1075 0.951 . S
C1100 C1098 1.388 . S
C1100 C1101 1.366 . S
C1101 C1100 1.366 . S
C1101 C1102 1.414 . S
C1101 C1104 1.499 . S
C1102 H1076 0.950 . S
C1102 C1101 1.414 . S
C1102 C1103 1.374 . S
C1103 H1077 0.950 . S
C1103 C1099 1.385 . S
C1103 C1102 1.374 . S
C1104 C1101 1.499 . S
C1104 C1105 1.373 . S
C1104 C1106 1.389 . S
C1105 H1078 0.950 . S
C1105 C1091 1.377 . S
C1105 C1104 1.373 . S
C1106 C1090 1.377 . S
C1106 C1104 1.389 . S
C1106 C1107 1.524 . S
C1107 C1106 1.524 . S
C1107 C1108 1.397 . S
C1107 C1112 1.363 . S
C1108 H1079 0.950 . S
C1108 C1107 1.397 . S
C1108 C1109 1.334 . S
C1109 H1080 0.950 . S
C1109 C1108 1.334 . S
C1109 C1110 1.287 . S
C1110 C1109 1.287 . S
C1110 C1111 1.524 . S
C1110 H1113 0.999 . S
C1111 H1081 0.950 . S
C1111 C1110 1.524 . S
C1111 C1112 1.415 . S
C1112 H1082 0.950 . S
C1112 C1107 1.363 . S
C1112 C1111 1.415 . S
H1113 C1110 0.999 . S
H1114 C1095 0.913 . S
H1115 C1133 0.951 . S
H1116 C1135 0.951 . S
H1117 C1137 0.950 . S
H1118 C1138 0.950 . S
H1119 C1140 0.950 . S
H1120 C1143 0.950 . S
H1121 C1144 0.950 . S
H1122 C1146 0.950 1_554 S
H1123 C1147 0.950 . S
H1124 C1148 0.951 . S
H1125 C1150 0.951 . S
H1126 C1152 0.950 . S
H1127 C1153 0.950 . S
H1128 C1155 0.950 . S
H1129 C1158 0.950 . S
H1130 C1159 0.950 . S
H1131 C1161 0.950 . S
H1132 C1162 0.950 . S
C1133 H1115 0.951 . S
C1133 C1134 1.366 . S
C1133 C1135 1.388 . S
C1134 C1133 1.366 . S
C1134 C1138 1.385 . S
C1135 H1116 0.951 . S
C1135 C1133 1.388 . S
C1135 C1136 1.366 . S
C1136 C1135 1.366 . S
C1136 C1137 1.414 . S
C1136 C1139 1.499 . S
C1137 H1117 0.950 . S
C1137 C1136 1.414 . S
C1137 C1138 1.374 . S
C1138 H1118 0.950 . S
C1138 C1134 1.385 . S
C1138 C1137 1.374 . S
C1139 C1136 1.499 . S
C1139 C1140 1.373 . S
C1139 C1141 1.389 . S
C1140 H1119 0.950 . S
C1140 C1139 1.373 . S
C1140 C1156 1.377 . S
C1141 C1139 1.389 . S
C1141 C1142 1.524 . S
C1141 C1155 1.377 . S
C1142 C1141 1.524 . S
C1142 C1143 1.397 . S
C1142 C1147 1.363 . S
C1143 H1120 0.950 . S
C1143 C1142 1.397 . S
C1143 C1144 1.334 . S
C1144 H1121 0.950 . S
C1144 C1143 1.334 . S
C1144 C1145 1.287 . S
C1145 C1144 1.287 . S
C1145 C1146 1.524 . S
C1145 H1164 0.913 1_556 S
C1146 H1122 0.950 1_556 S
C1146 C1145 1.524 . S
C1146 C1147 1.415 . S
C1147 H1123 0.950 . S
C1147 C1142 1.363 . S
C1147 C1146 1.415 . S
C1148 H1124 0.951 . S
C1148 C1149 1.366 . S
C1148 C1150 1.388 . S
C1149 C1148 1.366 . S
C1149 C1153 1.385 . S
C1150 H1125 0.951 . S
C1150 C1148 1.388 . S
C1150 C1151 1.366 . S
C1151 C1150 1.366 . S
C1151 C1152 1.414 . S
C1151 C1154 1.499 . S
C1152 H1126 0.950 . S
C1152 C1151 1.414 . S
C1152 C1153 1.374 . S
C1153 H1127 0.950 . S
C1153 C1149 1.385 . S
C1153 C1152 1.374 . S
C1154 C1151 1.499 . S
C1154 C1155 1.373 . S
C1154 C1156 1.389 . S
C1155 H1128 0.950 . S
C1155 C1141 1.377 . S
C1155 C1154 1.373 . S
C1156 C1140 1.377 . S
C1156 C1154 1.389 . S
C1156 C1157 1.524 . S
C1157 C1156 1.524 . S
C1157 C1158 1.397 . S
C1157 C1162 1.363 . S
C1158 H1129 0.950 . S
C1158 C1157 1.397 . S
C1158 C1159 1.334 . S
C1159 H1130 0.950 . S
C1159 C1158 1.334 . S
C1159 C1160 1.287 . S
C1160 C1159 1.287 . S
C1160 C1161 1.524 . S
C1160 H1163 0.999 . S
C1161 H1131 0.950 . S
C1161 C1160 1.524 . S
C1161 C1162 1.415 . S
C1162 H1132 0.950 . S
C1162 C1157 1.363 . S
C1162 C1161 1.415 . S
H1163 C1160 0.999 . S
H1164 C1145 0.913 1_554 S
H1165 C1183 0.951 . S
H1166 C1185 0.951 . S
H1167 C1187 0.950 . S
H1168 C1188 0.950 . S
H1169 C1190 0.950 . S
H1170 C1193 0.950 . S
H1171 C1194 0.950 . S
H1172 C1196 0.950 . S
H1173 C1197 0.949 1_556 S
H1174 C1198 0.951 . S
H1175 C1200 0.951 . S
H1176 C1202 0.950 . S
H1177 C1203 0.950 . S
H1178 C1205 0.950 . S
H1179 C1208 0.950 . S
H1180 C1209 0.950 . S
H1181 C1211 0.950 . S
H1182 C1212 0.950 . S
C1183 H1165 0.951 . S
C1183 C1184 1.366 . S
C1183 C1185 1.388 1_554 S
C1184 C1183 1.366 . S
C1184 C1188 1.385 1_554 S
C1185 H1166 0.951 . S
C1185 C1183 1.388 1_556 S
C1185 C1186 1.366 . S
C1186 C1185 1.366 . S
C1186 C1187 1.414 . S
C1186 C1189 1.499 . S
C1187 H1167 0.950 . S
C1187 C1186 1.414 . S
C1187 C1188 1.374 . S
C1188 H1168 0.950 . S
C1188 C1184 1.385 1_556 S
C1188 C1187 1.374 . S
C1189 C1186 1.499 . S
C1189 C1190 1.373 . S
C1189 C1191 1.389 . S
C1190 H1169 0.950 . S
C1190 C1189 1.373 . S
C1190 C1206 1.377 . S
C1191 C1189 1.389 . S
C1191 C1192 1.524 . S
C1191 C1205 1.377 . S
C1192 C1191 1.524 . S
C1192 C1193 1.397 1_556 S
C1192 C1197 1.363 1_556 S
C1193 H1170 0.950 . S
C1193 C1192 1.397 1_554 S
C1193 C1194 1.334 . S
C1194 H1171 0.950 . S
C1194 C1193 1.334 . S
C1194 C1195 1.287 . S
C1195 C1194 1.287 . S
C1195 C1196 1.524 . S
C1195 H1214 0.913 . S
C1196 H1172 0.950 . S
C1196 C1195 1.524 . S
C1196 C1197 1.415 . S
C1197 H1173 0.949 1_554 S
C1197 C1192 1.363 1_554 S
C1197 C1196 1.415 . S
C1198 H1174 0.951 . S
C1198 C1199 1.366 . S
C1198 C1200 1.388 . S
C1199 C1198 1.366 . S
C1199 C1203 1.385 . S
C1200 H1175 0.951 . S
C1200 C1198 1.388 . S
C1200 C1201 1.366 . S
C1201 C1200 1.366 . S
C1201 C1202 1.414 . S
C1201 C1204 1.499 . S
C1202 H1176 0.950 . S
C1202 C1201 1.414 . S
C1202 C1203 1.374 . S
C1203 H1177 0.950 . S
C1203 C1199 1.385 . S
C1203 C1202 1.374 . S
C1204 C1201 1.499 . S
C1204 C1205 1.373 . S
C1204 C1206 1.389 . S
C1205 H1178 0.950 . S
C1205 C1191 1.377 . S
C1205 C1204 1.373 . S
C1206 C1190 1.377 . S
C1206 C1204 1.389 . S
C1206 C1207 1.524 . S
C1207 C1206 1.524 . S
C1207 C1208 1.397 . S
C1207 C1212 1.363 . S
C1208 H1179 0.950 . S
C1208 C1207 1.397 . S
C1208 C1209 1.334 . S
C1209 H1180 0.950 . S
C1209 C1208 1.334 . S
C1209 C1210 1.287 . S
C1210 C1209 1.287 . S
C1210 C1211 1.524 . S
C1210 H1213 0.999 . S
C1211 H1181 0.950 . S
C1211 C1210 1.524 . S
C1211 C1212 1.415 . S
C1212 H1182 0.950 . S
C1212 C1207 1.363 . S
C1212 C1211 1.415 . S
H1213 C1210 0.999 . S
H1214 C1195 0.913 . S
H1215 C1233 0.951 . S
H1216 C1235 0.951 . S
H1217 C1237 0.950 . S
H1218 C1238 0.950 . S
H1219 C1240 0.950 . S
H1220 C1243 0.950 . S
H1221 C1244 0.950 . S
H1222 C1246 0.950 . S
H1223 C1247 0.950 . S
H1224 C1248 0.951 . S
H1225 C1250 0.951 . S
H1226 C1252 0.950 . S
H1227 C1253 0.950 . S
H1228 C1255 0.950 . S
H1229 C1258 0.950 . S
H1230 C1259 0.950 . S
H1231 C1261 0.950 . S
H1232 C1262 0.950 . S
C1233 H1215 0.951 . S
C1233 C1234 1.366 1_554 S
C1233 C1235 1.388 1_554 S
C1234 C1233 1.366 1_556 S
C1234 C1238 1.385 . S
C1235 H1216 0.951 . S
C1235 C1233 1.388 1_556 S
C1235 C1236 1.366 . S
C1236 C1235 1.366 . S
C1236 C1237 1.414 . S
C1236 C1239 1.499 . S
C1237 H1217 0.950 . S
C1237 C1236 1.414 . S
C1237 C1238 1.374 . S
C1238 H1218 0.950 . S
C1238 C1234 1.385 . S
C1238 C1237 1.374 . S
C1239 C1236 1.499 . S
C1239 C1240 1.373 . S
C1239 C1241 1.389 . S
C1240 H1219 0.950 . S
C1240 C1239 1.373 . S
C1240 C1256 1.377 . S
C1241 C1239 1.389 . S
C1241 C1242 1.524 . S
C1241 C1255 1.377 . S
C1242 C1241 1.524 . S
C1242 C1243 1.397 . S
C1242 C1247 1.363 . S
C1243 H1220 0.950 . S
C1243 C1242 1.397 . S
C1243 C1244 1.334 . S
C1244 H1221 0.950 . S
C1244 C1243 1.334 . S
C1244 C1245 1.287 . S
C1245 C1244 1.287 . S
C1245 C1246 1.524 . S
C1245 H1264 0.913 . S
C1246 H1222 0.950 . S
C1246 C1245 1.524 . S
C1246 C1247 1.415 . S
C1247 H1223 0.950 . S
C1247 C1242 1.363 . S
C1247 C1246 1.415 . S
C1248 H1224 0.951 . S
C1248 C1249 1.366 . S
C1248 C1250 1.388 . S
C1249 C1248 1.366 . S
C1249 C1253 1.385 . S
C1250 H1225 0.951 . S
C1250 C1248 1.388 . S
C1250 C1251 1.366 . S
C1251 C1250 1.366 . S
C1251 C1252 1.414 . S
C1251 C1254 1.499 . S
C1252 H1226 0.950 . S
C1252 C1251 1.414 . S
C1252 C1253 1.374 . S
C1253 H1227 0.950 . S
C1253 C1249 1.385 . S
C1253 C1252 1.374 . S
C1254 C1251 1.499 . S
C1254 C1255 1.373 . S
C1254 C1256 1.389 . S
C1255 H1228 0.950 . S
C1255 C1241 1.377 . S
C1255 C1254 1.373 . S
C1256 C1240 1.377 . S
C1256 C1254 1.389 . S
C1256 C1257 1.524 . S
C1257 C1256 1.524 . S
C1257 C1258 1.397 . S
C1257 C1262 1.363 . S
C1258 H1229 0.950 . S
C1258 C1257 1.397 . S
C1258 C1259 1.334 . S
C1259 H1230 0.950 . S
C1259 C1258 1.334 . S
C1259 C1260 1.287 . S
C1260 C1259 1.287 . S
C1260 C1261 1.524 . S
C1260 H1263 0.999 . S
C1261 H1231 0.950 . S
C1261 C1260 1.524 . S
C1261 C1262 1.415 . S
C1262 H1232 0.950 . S
C1262 C1257 1.363 . S
C1262 C1261 1.415 . S
H1263 C1260 0.999 . S
H1264 C1245 0.913 . S
H1265 C1283 0.951 1_554 S
H1266 C1285 0.951 . S
H1267 C1287 0.950 . S
H1268 C1288 0.950 . S
H1269 C1290 0.950 . S
H1270 C1293 0.950 . S
H1271 C1294 0.950 . S
H1272 C1296 0.950 . S
H1273 C1297 0.950 . S
H1274 C1298 0.951 . S
H1275 C1300 0.951 . S
H1276 C1302 0.950 . S
H1277 C1303 0.950 . S
H1278 C1305 0.950 . S
H1279 C1308 0.950 . S
H1280 C1309 0.950 . S
H1281 C1311 0.950 . S
H1282 C1312 0.950 . S
C1283 H1265 0.951 1_556 S
C1283 C1284 1.366 . S
C1283 C1285 1.388 . S
C1284 C1283 1.366 . S
C1284 C1288 1.385 . S
C1285 H1266 0.951 . S
C1285 C1283 1.388 . S
C1285 C1286 1.366 . S
C1286 C1285 1.366 . S
C1286 C1287 1.414 . S
C1286 C1289 1.499 . S
C1287 H1267 0.950 . S
C1287 C1286 1.414 . S
C1287 C1288 1.374 . S
C1288 H1268 0.950 . S
C1288 C1284 1.385 . S
C1288 C1287 1.374 . S
C1289 C1286 1.499 . S
C1289 C1290 1.373 . S
C1289 C1291 1.389 . S
C1290 H1269 0.950 . S
C1290 C1289 1.373 . S
C1290 C1306 1.377 . S
C1291 C1289 1.389 . S
C1291 C1292 1.524 . S
C1291 C1305 1.377 . S
C1292 C1291 1.524 . S
C1292 C1293 1.397 . S
C1292 C1297 1.363 . S
C1293 H1270 0.950 . S
C1293 C1292 1.397 . S
C1293 C1294 1.334 . S
C1294 H1271 0.950 . S
C1294 C1293 1.334 . S
C1294 C1295 1.287 . S
C1295 C1294 1.287 . S
C1295 C1296 1.524 . S
C1295 H1314 0.913 . S
C1296 H1272 0.950 . S
C1296 C1295 1.524 . S
C1296 C1297 1.415 . S
C1297 H1273 0.950 . S
C1297 C1292 1.363 . S
C1297 C1296 1.415 . S
C1298 H1274 0.951 . S
C1298 C1299 1.366 . S
C1298 C1300 1.388 . S
C1299 C1298 1.366 . S
C1299 C1303 1.385 . S
C1300 H1275 0.951 . S
C1300 C1298 1.388 . S
C1300 C1301 1.366 . S
C1301 C1300 1.366 . S
C1301 C1302 1.414 . S
C1301 C1304 1.499 . S
C1302 H1276 0.950 . S
C1302 C1301 1.414 . S
C1302 C1303 1.374 . S
C1303 H1277 0.950 . S
C1303 C1299 1.385 . S
C1303 C1302 1.374 . S
C1304 C1301 1.499 . S
C1304 C1305 1.373 . S
C1304 C1306 1.389 . S
C1305 H1278 0.950 . S
C1305 C1291 1.377 . S
C1305 C1304 1.373 . S
C1306 C1290 1.377 . S
C1306 C1304 1.389 . S
C1306 C1307 1.524 . S
C1307 C1306 1.524 . S
C1307 C1308 1.397 . S
C1307 C1312 1.363 . S
C1308 H1279 0.950 . S
C1308 C1307 1.397 . S
C1308 C1309 1.334 . S
C1309 H1280 0.950 . S
C1309 C1308 1.334 . S
C1309 C1310 1.287 . S
C1310 C1309 1.287 . S
C1310 C1311 1.524 . S
C1310 H1313 0.999 . S
C1311 H1281 0.950 . S
C1311 C1310 1.524 . S
C1311 C1312 1.415 . S
C1312 H1282 0.950 . S
C1312 C1307 1.363 . S
C1312 C1311 1.415 . S
H1313 C1310 0.999 . S
H1314 C1295 0.913 . S
H1315 C1333 0.951 . S
H1316 C1335 0.951 . S
H1317 C1337 0.950 . S
H1318 C1338 0.950 . S
H1319 C1340 0.950 . S
H1320 C1343 0.950 . S
H1321 C1344 0.950 . S
H1322 C1346 0.950 . S
H1323 C1347 0.950 . S
H1324 C1348 0.951 . S
H1325 C1350 0.951 . S
H1326 C1352 0.950 . S
H1327 C1353 0.950 . S
H1328 C1355 0.950 . S
H1329 C1358 0.950 . S
H1330 C1359 0.950 . S
H1331 C1361 0.950 . S
H1332 C1362 0.950 . S
C1333 H1315 0.951 . S
C1333 C1334 1.366 . S
C1333 C1335 1.388 . S
C1334 C1333 1.366 . S
C1334 C1338 1.385 . S
C1335 H1316 0.951 . S
C1335 C1333 1.388 . S
C1335 C1336 1.366 . S
C1336 C1335 1.366 . S
C1336 C1337 1.414 . S
C1336 C1339 1.499 . S
C1337 H1317 0.950 . S
C1337 C1336 1.414 . S
C1337 C1338 1.374 . S
C1338 H1318 0.950 . S
C1338 C1334 1.385 . S
C1338 C1337 1.374 . S
C1339 C1336 1.499 . S
C1339 C1340 1.373 . S
C1339 C1341 1.389 . S
C1340 H1319 0.950 . S
C1340 C1339 1.373 . S
C1340 C1356 1.377 . S
C1341 C1339 1.389 . S
C1341 C1342 1.524 . S
C1341 C1355 1.377 . S
C1342 C1341 1.524 . S
C1342 C1343 1.397 . S
C1342 C1347 1.363 . S
C1343 H1320 0.950 . S
C1343 C1342 1.397 . S
C1343 C1344 1.334 . S
C1344 H1321 0.950 . S
C1344 C1343 1.334 . S
C1344 C1345 1.287 . S
C1345 C1344 1.287 . S
C1345 C1346 1.524 . S
C1345 H1364 0.913 . S
C1346 H1322 0.950 . S
C1346 C1345 1.524 . S
C1346 C1347 1.415 . S
C1347 H1323 0.950 . S
C1347 C1342 1.363 . S
C1347 C1346 1.415 . S
C1348 H1324 0.951 . S
C1348 C1349 1.366 . S
C1348 C1350 1.388 . S
C1349 C1348 1.366 . S
C1349 C1353 1.385 . S
C1350 H1325 0.951 . S
C1350 C1348 1.388 . S
C1350 C1351 1.366 . S
C1351 C1350 1.366 . S
C1351 C1352 1.414 . S
C1351 C1354 1.499 . S
C1352 H1326 0.950 . S
C1352 C1351 1.414 . S
C1352 C1353 1.374 . S
C1353 H1327 0.950 . S
C1353 C1349 1.385 . S
C1353 C1352 1.374 . S
C1354 C1351 1.499 . S
C1354 C1355 1.373 . S
C1354 C1356 1.389 . S
C1355 H1328 0.950 . S
C1355 C1341 1.377 . S
C1355 C1354 1.373 . S
C1356 C1340 1.377 . S
C1356 C1354 1.389 . S
C1356 C1357 1.524 . S
C1357 C1356 1.524 . S
C1357 C1358 1.397 . S
C1357 C1362 1.363 . S
C1358 H1329 0.950 . S
C1358 C1357 1.397 . S
C1358 C1359 1.334 . S
C1359 H1330 0.950 . S
C1359 C1358 1.334 . S
C1359 C1360 1.287 . S
C1360 C1359 1.287 . S
C1360 C1361 1.524 . S
C1360 H1363 0.999 . S
C1361 H1331 0.950 . S
C1361 C1360 1.524 . S
C1361 C1362 1.415 . S
C1362 H1332 0.950 . S
C1362 C1357 1.363 . S
C1362 C1361 1.415 . S
H1363 C1360 0.999 . S
H1364 C1345 0.913 . S
H1365 C1383 0.951 . S
H1366 C1385 0.951 . S
H1367 C1387 0.950 . S
H1368 C1388 0.950 . S
H1369 C1390 0.950 . S
H1370 C1393 0.950 . S
H1371 C1394 0.950 . S
H1372 C1396 0.950 . S
H1373 C1397 0.950 . S
H1374 C1398 0.951 . S
H1375 C1400 0.951 . S
H1376 C1402 0.950 . S
H1377 C1403 0.950 . S
H1378 C1405 0.950 . S
H1379 C1408 0.950 . S
H1380 C1409 0.950 . S
H1381 C1411 0.950 . S
H1382 C1412 0.950 . S
C1383 H1365 0.951 . S
C1383 C1384 1.366 . S
C1383 C1385 1.388 . S
C1384 C1383 1.366 . S
C1384 C1388 1.385 . S
C1385 H1366 0.951 . S
C1385 C1383 1.388 . S
C1385 C1386 1.366 . S
C1386 C1385 1.366 . S
C1386 C1387 1.414 . S
C1386 C1389 1.499 . S
C1387 H1367 0.950 . S
C1387 C1386 1.414 . S
C1387 C1388 1.374 . S
C1388 H1368 0.950 . S
C1388 C1384 1.385 . S
C1388 C1387 1.374 . S
C1389 C1386 1.499 . S
C1389 C1390 1.373 . S
C1389 C1391 1.389 . S
C1390 H1369 0.950 . S
C1390 C1389 1.373 . S
C1390 C1406 1.377 . S
C1391 C1389 1.389 . S
C1391 C1392 1.524 . S
C1391 C1405 1.377 . S
C1392 C1391 1.524 . S
C1392 C1393 1.397 . S
C1392 C1397 1.363 . S
C1393 H1370 0.950 . S
C1393 C1392 1.397 . S
C1393 C1394 1.334 . S
C1394 H1371 0.950 . S
C1394 C1393 1.334 . S
C1394 C1395 1.287 . S
C1395 C1394 1.287 . S
C1395 C1396 1.524 . S
C1395 H1414 0.913 . S
C1396 H1372 0.950 . S
C1396 C1395 1.524 . S
C1396 C1397 1.415 . S
C1397 H1373 0.950 . S
C1397 C1392 1.363 . S
C1397 C1396 1.415 . S
C1398 H1374 0.951 . S
C1398 C1399 1.366 . S
C1398 C1400 1.388 . S
C1399 C1398 1.366 . S
C1399 C1403 1.385 . S
C1400 H1375 0.951 . S
C1400 C1398 1.388 . S
C1400 C1401 1.366 . S
C1401 C1400 1.366 . S
C1401 C1402 1.414 . S
C1401 C1404 1.499 . S
C1402 H1376 0.950 . S
C1402 C1401 1.414 . S
C1402 C1403 1.374 . S
C1403 H1377 0.950 . S
C1403 C1399 1.385 . S
C1403 C1402 1.374 . S
C1404 C1401 1.499 . S
C1404 C1405 1.373 . S
C1404 C1406 1.389 . S
C1405 H1378 0.950 . S
C1405 C1391 1.377 . S
C1405 C1404 1.373 . S
C1406 C1390 1.377 . S
C1406 C1404 1.389 . S
C1406 C1407 1.524 . S
C1407 C1406 1.524 . S
C1407 C1408 1.397 . S
C1407 C1412 1.363 . S
C1408 H1379 0.950 . S
C1408 C1407 1.397 . S
C1408 C1409 1.334 . S
C1409 H1380 0.950 . S
C1409 C1408 1.334 . S
C1409 C1410 1.287 . S
C1410 C1409 1.287 . S
C1410 C1411 1.524 . S
C1410 H1413 0.999 . S
C1411 H1381 0.950 . S
C1411 C1410 1.524 . S
C1411 C1412 1.415 . S
C1412 H1382 0.950 . S
C1412 C1407 1.363 . S
C1412 C1411 1.415 . S
H1413 C1410 0.999 . S
H1414 C1395 0.913 . S
H1415 C1433 0.951 . S
H1416 C1435 0.951 . S
H1417 C1437 0.950 . S
H1418 C1438 0.950 . S
H1419 C1440 0.950 . S
H1420 C1443 0.950 . S
H1421 C1444 0.950 . S
H1422 C1446 0.950 . S
H1423 C1447 0.950 . S
H1424 C1448 0.951 . S
H1425 C1450 0.951 . S
H1426 C1452 0.950 . S
H1427 C1453 0.950 . S
H1428 C1455 0.950 . S
H1429 C1458 0.950 . S
H1430 C1459 0.950 . S
H1431 C1461 0.950 . S
H1432 C1462 0.950 . S
C1433 H1415 0.951 . S
C1433 C1434 1.366 . S
C1433 C1435 1.388 . S
C1434 C1433 1.366 . S
C1434 C1438 1.385 . S
C1435 H1416 0.951 . S
C1435 C1433 1.388 . S
C1435 C1436 1.366 . S
C1436 C1435 1.366 . S
C1436 C1437 1.414 . S
C1436 C1439 1.499 . S
C1437 H1417 0.950 . S
C1437 C1436 1.414 . S
C1437 C1438 1.374 . S
C1438 H1418 0.950 . S
C1438 C1434 1.385 . S
C1438 C1437 1.374 . S
C1439 C1436 1.499 . S
C1439 C1440 1.373 . S
C1439 C1441 1.389 . S
C1440 H1419 0.950 . S
C1440 C1439 1.373 . S
C1440 C1456 1.377 . S
C1441 C1439 1.389 . S
C1441 C1442 1.524 . S
C1441 C1455 1.377 . S
C1442 C1441 1.524 . S
C1442 C1443 1.397 . S
C1442 C1447 1.363 . S
C1443 H1420 0.950 . S
C1443 C1442 1.397 . S
C1443 C1444 1.334 . S
C1444 H1421 0.950 . S
C1444 C1443 1.334 . S
C1444 C1445 1.287 . S
C1445 C1444 1.287 . S
C1445 C1446 1.524 . S
C1445 H1464 0.913 . S
C1446 H1422 0.950 . S
C1446 C1445 1.524 . S
C1446 C1447 1.415 . S
C1447 H1423 0.950 . S
C1447 C1442 1.363 . S
C1447 C1446 1.415 . S
C1448 H1424 0.951 . S
C1448 C1449 1.366 . S
C1448 C1450 1.388 . S
C1449 C1448 1.366 . S
C1449 C1453 1.385 . S
C1450 H1425 0.951 . S
C1450 C1448 1.388 . S
C1450 C1451 1.366 . S
C1451 C1450 1.366 . S
C1451 C1452 1.414 . S
C1451 C1454 1.499 . S
C1452 H1426 0.950 . S
C1452 C1451 1.414 . S
C1452 C1453 1.374 . S
C1453 H1427 0.950 . S
C1453 C1449 1.385 . S
C1453 C1452 1.374 . S
C1454 C1451 1.499 . S
C1454 C1455 1.373 . S
C1454 C1456 1.389 . S
C1455 H1428 0.950 . S
C1455 C1441 1.377 . S
C1455 C1454 1.373 . S
C1456 C1440 1.377 . S
C1456 C1454 1.389 . S
C1456 C1457 1.524 . S
C1457 C1456 1.524 . S
C1457 C1458 1.397 . S
C1457 C1462 1.363 . S
C1458 H1429 0.950 . S
C1458 C1457 1.397 . S
C1458 C1459 1.334 . S
C1459 H1430 0.950 . S
C1459 C1458 1.334 . S
C1459 C1460 1.287 . S
C1460 C1459 1.287 . S
C1460 C1461 1.524 . S
C1460 H1463 0.999 . S
C1461 H1431 0.950 . S
C1461 C1460 1.524 . S
C1461 C1462 1.415 . S
C1462 H1432 0.950 . S
C1462 C1457 1.363 . S
C1462 C1461 1.415 . S
H1463 C1460 0.999 . S
H1464 C1445 0.913 . S
H1465 C1483 0.951 . S
H1466 C1485 0.951 . S
H1467 C1487 0.950 . S
H1468 C1488 0.950 . S
H1469 C1490 0.950 . S
H1470 C1493 0.950 . S
H1471 C1494 0.950 . S
H1472 C1496 0.950 . S
H1473 C1497 0.950 . S
H1474 C1498 0.951 . S
H1475 C1500 0.951 . S
H1476 C1502 0.950 . S
H1477 C1503 0.950 . S
H1478 C1505 0.950 . S
H1479 C1508 0.950 . S
H1480 C1509 0.950 . S
H1481 C1511 0.950 . S
H1482 C1512 0.950 . S
C1483 H1465 0.951 . S
C1483 C1484 1.366 . S
C1483 C1485 1.388 . S
C1484 C1483 1.366 . S
C1484 C1488 1.385 . S
C1485 H1466 0.951 . S
C1485 C1483 1.388 . S
C1485 C1486 1.366 . S
C1486 C1485 1.366 . S
C1486 C1487 1.414 . S
C1486 C1489 1.499 . S
C1487 H1467 0.950 . S
C1487 C1486 1.414 . S
C1487 C1488 1.374 . S
C1488 H1468 0.950 . S
C1488 C1484 1.385 . S
C1488 C1487 1.374 . S
C1489 C1486 1.499 . S
C1489 C1490 1.373 . S
C1489 C1491 1.389 . S
C1490 H1469 0.950 . S
C1490 C1489 1.373 . S
C1490 C1506 1.377 . S
C1491 C1489 1.389 . S
C1491 C1492 1.524 . S
C1491 C1505 1.377 . S
C1492 C1491 1.524 . S
C1492 C1493 1.397 . S
C1492 C1497 1.363 . S
C1493 H1470 0.950 . S
C1493 C1492 1.397 . S
C1493 C1494 1.334 . S
C1494 H1471 0.950 . S
C1494 C1493 1.334 . S
C1494 C1495 1.287 . S
C1495 C1494 1.287 . S
C1495 C1496 1.524 . S
C1495 H1514 0.913 . S
C1496 H1472 0.950 . S
C1496 C1495 1.524 . S
C1496 C1497 1.415 . S
C1497 H1473 0.950 . S
C1497 C1492 1.363 . S
C1497 C1496 1.415 . S
C1498 H1474 0.951 . S
C1498 C1499 1.366 . S
C1498 C1500 1.388 . S
C1499 C1498 1.366 . S
C1499 C1503 1.385 . S
C1500 H1475 0.951 . S
C1500 C1498 1.388 . S
C1500 C1501 1.366 . S
C1501 C1500 1.366 . S
C1501 C1502 1.414 . S
C1501 C1504 1.499 . S
C1502 H1476 0.950 . S
C1502 C1501 1.414 . S
C1502 C1503 1.374 . S
C1503 H1477 0.950 . S
C1503 C1499 1.385 . S
C1503 C1502 1.374 . S
C1504 C1501 1.499 . S
C1504 C1505 1.373 . S
C1504 C1506 1.389 . S
C1505 H1478 0.950 . S
C1505 C1491 1.377 . S
C1505 C1504 1.373 . S
C1506 C1490 1.377 . S
C1506 C1504 1.389 . S
C1506 C1507 1.524 . S
C1507 C1506 1.524 . S
C1507 C1508 1.397 . S
C1507 C1512 1.363 . S
C1508 H1479 0.950 . S
C1508 C1507 1.397 . S
C1508 C1509 1.334 . S
C1509 H1480 0.950 . S
C1509 C1508 1.334 . S
C1509 C1510 1.287 . S
C1510 C1509 1.287 . S
C1510 C1511 1.524 . S
C1510 H1513 0.999 . S
C1511 H1481 0.950 . S
C1511 C1510 1.524 . S
C1511 C1512 1.415 . S
C1512 H1482 0.950 . S
C1512 C1507 1.363 . S
C1512 C1511 1.415 . S
H1513 C1510 0.999 . S
H1514 C1495 0.913 . S
H1515 C1533 0.951 . S
H1516 C1535 0.951 . S
H1517 C1537 0.950 . S
H1518 C1538 0.950 . S
H1519 C1540 0.950 . S
H1520 C1543 0.950 . S
H1521 C1544 0.950 . S
H1522 C1546 0.950 . S
H1523 C1547 0.950 . S
H1524 C1548 0.951 . S
H1525 C1550 0.951 . S
H1526 C1552 0.950 . S
H1527 C1553 0.950 . S
H1528 C1555 0.950 . S
H1529 C1558 0.950 . S
H1530 C1559 0.950 . S
H1531 C1561 0.950 . S
H1532 C1562 0.950 . S
C1533 H1515 0.951 . S
C1533 C1534 1.366 . S
C1533 C1535 1.388 . S
C1534 C1533 1.366 . S
C1534 C1538 1.385 . S
C1535 H1516 0.951 . S
C1535 C1533 1.388 . S
C1535 C1536 1.366 . S
C1536 C1535 1.366 . S
C1536 C1537 1.414 . S
C1536 C1539 1.499 . S
C1537 H1517 0.950 . S
C1537 C1536 1.414 . S
C1537 C1538 1.374 . S
C1538 H1518 0.950 . S
C1538 C1534 1.385 . S
C1538 C1537 1.374 . S
C1539 C1536 1.499 . S
C1539 C1540 1.373 . S
C1539 C1541 1.389 . S
C1540 H1519 0.950 . S
C1540 C1539 1.373 . S
C1540 C1556 1.377 . S
C1541 C1539 1.389 . S
C1541 C1542 1.524 . S
C1541 C1555 1.377 . S
C1542 C1541 1.524 . S
C1542 C1543 1.397 . S
C1542 C1547 1.363 . S
C1543 H1520 0.950 . S
C1543 C1542 1.397 . S
C1543 C1544 1.334 . S
C1544 H1521 0.950 . S
C1544 C1543 1.334 . S
C1544 C1545 1.287 . S
C1545 C1544 1.287 . S
C1545 C1546 1.524 . S
C1545 H1564 0.913 . S
C1546 H1522 0.950 . S
C1546 C1545 1.524 . S
C1546 C1547 1.415 . S
C1547 H1523 0.950 . S
C1547 C1542 1.363 . S
C1547 C1546 1.415 . S
C1548 H1524 0.951 . S
C1548 C1549 1.366 . S
C1548 C1550 1.388 . S
C1549 C1548 1.366 . S
C1549 C1553 1.385 . S
C1550 H1525 0.951 . S
C1550 C1548 1.388 . S
C1550 C1551 1.366 . S
C1551 C1550 1.366 . S
C1551 C1552 1.414 . S
C1551 C1554 1.499 . S
C1552 H1526 0.950 . S
C1552 C1551 1.414 . S
C1552 C1553 1.374 . S
C1553 H1527 0.950 . S
C1553 C1549 1.385 . S
C1553 C1552 1.374 . S
C1554 C1551 1.499 . S
C1554 C1555 1.373 . S
C1554 C1556 1.389 . S
C1555 H1528 0.950 . S
C1555 C1541 1.377 . S
C1555 C1554 1.373 . S
C1556 C1540 1.377 . S
C1556 C1554 1.389 . S
C1556 C1557 1.524 . S
C1557 C1556 1.524 . S
C1557 C1558 1.397 . S
C1557 C1562 1.363 . S
C1558 H1529 0.950 . S
C1558 C1557 1.397 . S
C1558 C1559 1.334 . S
C1559 H1530 0.950 . S
C1559 C1558 1.334 . S
C1559 C1560 1.287 . S
C1560 C1559 1.287 . S
C1560 C1561 1.524 . S
C1560 H1563 0.999 . S
C1561 H1531 0.950 . S
C1561 C1560 1.524 . S
C1561 C1562 1.415 . S
C1562 H1532 0.950 . S
C1562 C1557 1.363 . S
C1562 C1561 1.415 . S
H1563 C1560 0.999 . S
H1564 C1545 0.913 . S
H1565 C1583 0.951 . S
H1566 C1585 0.951 . S
H1567 C1587 0.950 . S
H1568 C1588 0.950 . S
H1569 C1590 0.950 . S
H1570 C1593 0.950 . S
H1571 C1594 0.950 . S
H1572 C1596 0.950 . S
H1573 C1597 0.950 . S
H1574 C1598 0.951 . S
H1575 C1600 0.951 . S
H1576 C1602 0.950 . S
H1577 C1603 0.950 . S
H1578 C1605 0.950 . S
H1579 C1608 0.950 . S
H1580 C1609 0.950 . S
H1581 C1611 0.950 . S
H1582 C1612 0.950 . S
C1583 H1565 0.951 . S
C1583 C1584 1.366 . S
C1583 C1585 1.388 . S
C1584 C1583 1.366 . S
C1584 C1588 1.385 . S
C1585 H1566 0.951 . S
C1585 C1583 1.388 . S
C1585 C1586 1.366 . S
C1586 C1585 1.366 . S
C1586 C1587 1.414 . S
C1586 C1589 1.499 . S
C1587 H1567 0.950 . S
C1587 C1586 1.414 . S
C1587 C1588 1.374 . S
C1588 H1568 0.950 . S
C1588 C1584 1.385 . S
C1588 C1587 1.374 . S
C1589 C1586 1.499 . S
C1589 C1590 1.373 . S
C1589 C1591 1.389 . S
C1590 H1569 0.950 . S
C1590 C1589 1.373 . S
C1590 C1606 1.377 . S
C1591 C1589 1.389 . S
C1591 C1592 1.524 . S
C1591 C1605 1.377 . S
C1592 C1591 1.524 . S
C1592 C1593 1.397 . S
C1592 C1597 1.363 . S
C1593 H1570 0.950 . S
C1593 C1592 1.397 . S
C1593 C1594 1.334 . S
C1594 H1571 0.950 . S
C1594 C1593 1.334 . S
C1594 C1595 1.287 . S
C1595 C1594 1.287 . S
C1595 C1596 1.524 . S
C1595 H1614 0.913 . S
C1596 H1572 0.950 . S
C1596 C1595 1.524 . S
C1596 C1597 1.415 . S
C1597 H1573 0.950 . S
C1597 C1592 1.363 . S
C1597 C1596 1.415 . S
C1598 H1574 0.951 . S
C1598 C1599 1.366 . S
C1598 C1600 1.388 . S
C1599 C1598 1.366 . S
C1599 C1603 1.385 . S
C1600 H1575 0.951 . S
C1600 C1598 1.388 . S
C1600 C1601 1.366 . S
C1601 C1600 1.366 . S
C1601 C1602 1.414 . S
C1601 C1604 1.499 . S
C1602 H1576 0.950 . S
C1602 C1601 1.414 . S
C1602 C1603 1.374 . S
C1603 H1577 0.950 . S
C1603 C1599 1.385 . S
C1603 C1602 1.374 . S
C1604 C1601 1.499 . S
C1604 C1605 1.373 . S
C1604 C1606 1.389 . S
C1605 H1578 0.950 . S
C1605 C1591 1.377 . S
C1605 C1604 1.373 . S
C1606 C1590 1.377 . S
C1606 C1604 1.389 . S
C1606 C1607 1.524 . S
C1607 C1606 1.524 . S
C1607 C1608 1.397 . S
C1607 C1612 1.363 . S
C1608 H1579 0.950 . S
C1608 C1607 1.397 . S
C1608 C1609 1.334 . S
C1609 H1580 0.950 . S
C1609 C1608 1.334 . S
C1609 C1610 1.287 . S
C1610 C1609 1.287 . S
C1610 C1611 1.524 . S
C1610 H1613 0.999 . S
C1611 H1581 0.950 . S
C1611 C1610 1.524 . S
C1611 C1612 1.415 . S
C1612 H1582 0.950 . S
C1612 C1607 1.363 . S
C1612 C1611 1.415 . S
H1613 C1610 0.999 . S
H1614 C1595 0.913 . S
H1615 C1633 0.951 . S
H1616 C1635 0.951 . S
H1617 C1637 0.950 . S
H1618 C1638 0.950 . S
H1619 C1640 0.950 . S
H1620 C1643 0.950 . S
H1621 C1644 0.950 . S
H1622 C1646 0.950 . S
H1623 C1647 0.950 . S
H1624 C1648 0.951 . S
H1625 C1650 0.951 . S
H1626 C1652 0.950 . S
H1627 C1653 0.950 . S
H1628 C1655 0.950 . S
H1629 C1658 0.950 . S
H1630 C1659 0.950 . S
H1631 C1661 0.950 . S
H1632 C1662 0.950 . S
C1633 H1615 0.951 . S
C1633 C1634 1.366 . S
C1633 C1635 1.388 . S
C1634 C1633 1.366 . S
C1634 C1638 1.385 . S
C1635 H1616 0.951 . S
C1635 C1633 1.388 . S
C1635 C1636 1.366 . S
C1636 C1635 1.366 . S
C1636 C1637 1.414 . S
C1636 C1639 1.499 . S
C1637 H1617 0.950 . S
C1637 C1636 1.414 . S
C1637 C1638 1.374 . S
C1638 H1618 0.950 . S
C1638 C1634 1.385 . S
C1638 C1637 1.374 . S
C1639 C1636 1.499 . S
C1639 C1640 1.373 . S
C1639 C1641 1.389 . S
C1640 H1619 0.950 . S
C1640 C1639 1.373 . S
C1640 C1656 1.377 . S
C1641 C1639 1.389 . S
C1641 C1642 1.524 . S
C1641 C1655 1.377 . S
C1642 C1641 1.524 . S
C1642 C1643 1.397 . S
C1642 C1647 1.363 . S
C1643 H1620 0.950 . S
C1643 C1642 1.397 . S
C1643 C1644 1.334 . S
C1644 H1621 0.950 . S
C1644 C1643 1.334 . S
C1644 C1645 1.287 . S
C1645 C1644 1.287 . S
C1645 C1646 1.524 . S
C1645 H1664 0.913 . S
C1646 H1622 0.950 . S
C1646 C1645 1.524 . S
C1646 C1647 1.415 . S
C1647 H1623 0.950 . S
C1647 C1642 1.363 . S
C1647 C1646 1.415 . S
C1648 H1624 0.951 . S
C1648 C1649 1.366 . S
C1648 C1650 1.388 . S
C1649 C1648 1.366 . S
C1649 C1653 1.385 . S
C1650 H1625 0.951 . S
C1650 C1648 1.388 . S
C1650 C1651 1.366 . S
C1651 C1650 1.366 . S
C1651 C1652 1.414 . S
C1651 C1654 1.499 . S
C1652 H1626 0.950 . S
C1652 C1651 1.414 . S
C1652 C1653 1.374 . S
C1653 H1627 0.950 . S
C1653 C1649 1.385 . S
C1653 C1652 1.374 . S
C1654 C1651 1.499 . S
C1654 C1655 1.373 . S
C1654 C1656 1.389 . S
C1655 H1628 0.950 . S
C1655 C1641 1.377 . S
C1655 C1654 1.373 . S
C1656 C1640 1.377 . S
C1656 C1654 1.389 . S
C1656 C1657 1.524 . S
C1657 C1656 1.524 . S
C1657 C1658 1.397 . S
C1657 C1662 1.363 . S
C1658 H1629 0.950 . S
C1658 C1657 1.397 . S
C1658 C1659 1.334 . S
C1659 H1630 0.950 . S
C1659 C1658 1.334 . S
C1659 C1660 1.287 . S
C1660 C1659 1.287 . S
C1660 C1661 1.524 . S
C1660 H1663 0.999 . S
C1661 H1631 0.950 . S
C1661 C1660 1.524 . S
C1661 C1662 1.415 . S
C1662 H1632 0.950 . S
C1662 C1657 1.363 . S
C1662 C1661 1.415 . S
H1663 C1660 0.999 . S
H1664 C1645 0.913 . S
C484 C47 2.020 . S
C499 C383 2.127 . S
C534 C91 1.899 . S
C549 C430 1.979 . S
C599 C434 1.893 . S
C584 C177 1.964 . S
C649 C399 1.847 . S
C634 C215 1.811 . S
C684 C295 1.933 . S
C699 C414 1.991 . S
C749 C436 0.760 . S
C734 C345 0.760 . S
C799 C405 1.612 . S
C784 C153 1.560 . S
C834 C239 1.265 . S
C849 C445 1.231 . S
C899 C374 1.136 . S
C884 C283 1.164 . S
C934 C357 1.712 . S
C949 C403 1.759 . S
C984 C35 2.017 1_556 S
C999 C461 1.975 . S
C1049 C372 1.511 . S
C1034 C115 1.553 1_556 S
C1099 C390 1.702 . S
C1084 C221 1.760 . S
C1149 C404 1.584 . S
C1134 C301 1.595 . S
C1199 C458 2.207 . S
C1184 C339 2.161 . S
C1249 C373 1.537 . S
C1234 C53 1.567 1_556 S
C1299 C421 1.651 . S
C1284 C97 1.733 1_556 S
C1334 C171 1.102 . S
C1349 C444 1.139 . S
C1399 C413 1.214 . S
C1384 C363 1.232 . S
C1449 C452 1.643 . S
C1434 C29 1.541 . S
C1499 C382 1.459 . S
C1484 C109 1.449 . S
C1549 C427 1.458 . S
C1534 C159 1.510 . S
C1584 C233 2.267 . S
C1599 C435 2.301 . S
C1634 C277 1.785 . S
C1649 C396 1.869 . S
